Infrared Spectrum: Ammonium chloride, trimethyl[2-(2',6'-xylyloxy)propyl]-, monohydrate
Formula: C14 H24 Cl N O  * H2 O
State: SOLID (OIL MULL)
Class: COBLENTZ III
Instrument: PERKIN-ELMER 21 (GRATING)
Instrument parameters: NaCl PRISM
Sampling: TRANSMISSION
Resolution: 2
Origin: SMITH, KLINE & FRENCH LABS.
1/CM	TRANSMITTANCE
669	0.6935
678	0.7255
687	0.7485
696	0.7569
705	0.749
714	0.7237
723	0.7244
732	0.7416
741	0.751
750	0.7476
759	0.7506
768	0.7395
777	0.6244
786	0.3846
795	0.7024
804	0.5306
813	0.7555
822	0.7812
831	0.774
840	0.767
849	0.7667
858	0.7565
867	0.7264
876	0.6537
885	0.6991
894	0.5458
903	0.4504
912	0.5275
921	0.6941
930	0.6998
939	0.692
948	0.6402
957	0.4802
966	0.3841
975	0.3579
984	0.6277
993	0.6841
1002	0.6827
1011	0.6711
1020	0.6562
1029	0.6305
1038	0.6315
1047	0.6441
1056	0.6222
1065	0.4793
1074	0.3935
1083	0.5578
1092	0.4494
1101	0.6509
1110	0.6369
1119	0.5814
1128	0.5095
1137	0.507
1146	0.613
1155	0.6157
1164	0.6133
1173	0.6014
1182	0.4155
1191	0.1356
1200	0.5436
1209	0.6819
1218	0.6993
1227	0.6986
1236	0.6982
1245	0.6768
1254	0.5724
1263	0.6371
1272	0.6668
1281	0.6638
1290	0.6647
1299	0.657
1308	0.6172
1317	0.5814
1326	0.6287
1335	0.6198
1344	0.6015
1353	0.5148
1362	0.349
1371	0.2127
1380	0.388
1389	0.6388
1398	0.624
1407	0.5307
1416	0.525
1425	0.4588
1434	0.2789
1443	0.1921
1452	0.149
1461	0.1511
1470	0.1677
1479	0.2589
1488	0.3915
1497	0.6088
1506	0.7107
1515	0.7201
1524	0.7216
1533	0.7218
1542	0.7221
1551	0.7223
1560	0.7273
1569	0.7288
1578	0.7232
1587	0.697
1596	0.7005
1605	0.6694
1614	0.6016
1623	0.6051
1632	0.7067
1641	0.7209
1650	0.7282
1659	0.7285
1668	0.7277
1677	0.7288
1686	0.7322
1695	0.7352
1704	0.739
1713	0.7421
1722	0.7442
1731	0.7459
1740	0.7454
1749	0.7442
1758	0.7422
1767	0.7405
1776	0.739
1785	0.7377
1794	0.7365
1803	0.7366
1812	0.7371
1821	0.7387
1830	0.7403
1839	0.7415
1848	0.7422
1857	0.7412
1866	0.7384
1875	0.7377
1884	0.7385
1893	0.7404
1902	0.7413
1911	0.7389
1920	0.735
1929	0.7311
1938	0.732
1947	0.7323
1956	0.7323
1965	0.7318
1974	0.7287
1983	0.7254
1992	0.7258
2001	0.7243
2010	0.7226
2019	0.7195
2028	0.7145
2037	0.7084
2046	0.7016
2055	0.693
2064	0.6905
2073	0.6973
2082	0.7012
2091	0.701
2100	0.7002
2109	0.6992
2118	0.6978
2127	0.6974
2136	0.6978
2145	0.7151
2154	0.7152
2163	0.7155
2172	0.7156
2181	0.7153
2190	0.7149
2199	0.7141
2208	0.7137
2217	0.7144
2226	0.7154
2235	0.7079
2244	0.6985
2253	0.6981
2262	0.6979
2271	0.6977
2280	0.6975
2289	0.6971
2298	0.6967
2307	0.6972
2316	0.6982
2325	0.7006
2334	0.7036
2343	0.7064
2352	0.7063
2361	0.6984
2370	0.6961
2379	0.6956
2388	0.6957
2397	0.6957
2406	0.6959
2415	0.6961
2424	0.6942
2433	0.6915
2442	0.6879
2451	0.6829
2460	0.6779
2469	0.6728
2478	0.6678
2487	0.6639
2496	0.6602
2505	0.6563
2514	0.6523
2523	0.6485
2532	0.6443
2541	0.6399
2550	0.6355
2559	0.6314
2568	0.6281
2577	0.6211
2586	0.6183
2595	0.6169
2604	0.6152
2613	0.6136
2622	0.6125
2631	0.6112
2640	0.6091
2649	0.6061
2658	0.6026
2667	0.5989
2676	0.5951
2685	0.5906
2694	0.5856
2703	0.5801
2712	0.5742
2721	0.5679
2730	0.5559
2739	0.5266
2748	0.4992
2757	0.4669
2766	0.429
2775	0.3877
2784	0.3337
2793	0.2562
2802	0.1791
2811	0.1026
2820	0.0387
2829	0.0363
2838	0.036
2847	0.0361
2856	0.0365
2865	0.0372
2874	0.0379
2883	0.0393
2892	0.0442
2901	0.0528
2910	0.0615
2919	0.0838
2928	0.1322
2937	0.1926
2946	0.2527
2955	0.3124
2964	0.3627
2973	0.3987
2982	0.4375
2991	0.4576
3000	0.4743
3009	0.4873
3018	0.4947
3027	0.4996
3036	0.5031
3045	0.5052
3054	0.5064
3063	0.5065
3072	0.506
3081	0.5051
3090	0.5039
3099	0.502
3108	0.5
3117	0.4978
3126	0.4955
3135	0.4923
3144	0.4887
3153	0.4842
3162	0.4797
3171	0.4759
3180	0.4727
3189	0.4712
3198	0.4702
3207	0.4699
3216	0.4697
3225	0.4692
3234	0.4687
3243	0.468
3252	0.4669
3261	0.4545
3270	0.429
3279	0.414
3288	0.4045
3297	0.3977
3306	0.3922
3315	0.3699
3324	0.3418
3333	0.314
3342	0.2862
3351	0.2586
3360	0.232
3369	0.2215
3378	0.2202
3387	0.2211
3396	0.2212
3405	0.2197
3414	0.2131
3423	0.2041
3432	0.1974
3441	0.1931
3450	0.1967
3459	0.2375
3468	0.2886
3477	0.3394
3486	0.3899
3495	0.4402
3504	0.4801
3513	0.496
3522	0.5145
3531	0.5256
3540	0.5328
3549	0.5409
3558	0.5594
3567	0.5637
3576	0.5639
3585	0.564
3594	0.564
3603	0.5638
3612	0.5637
3621	0.5634
3630	0.5628
3639	0.5623
3648	0.5613
3657	0.5603
3666	0.5594
3675	0.5584
3684	0.5576
3693	0.5567
3702	0.5558
3711	0.555
3720	0.5541
3729	0.5531
3738	0.5521
3747	0.5512
3756	0.5502
3765	0.5493
3774	0.5485
3783	0.5476
3792	0.5467
3801	0.5459
3810	0.5451
3819	0.5443
3828	0.5434
3837	0.5426
3846	0.5418
3855	0.5409
3864	0.5399
3873	0.539
3882	0.538
3891	0.5372
3900	0.5363
3909	0.5354
3918	0.5345
3927	0.5337
3936	0.5328
3945	0.532
3954	0.5311
3963	0.5302
3972	0.5292
3981	0.528
3990	0.5268
3999	0.5257
