Infrared Spectrum: ANILINE, 2-tert-BUTYL-5-METHYL-
Formula: C11 H17 N
State: LIQUID (NEAT)
Class: COBLENTZ III
Instrument: BECKMAN IR-4 (HYBRID PRISM-GRATING)
Instrument parameters: NaCl PRISM
Sampling: TRANSMISSION
Path length: CAPILLARY
Resolution: 2
Origin: MONSANTO (J. FREEMAN)
1/CM	TRANSMITTANCE
4000	0.895
3991	0.8952
3982	0.8956
3973	0.8959
3964	0.8961
3955	0.8963
3946	0.8964
3937	0.8966
3928	0.8967
3919	0.8968
3910	0.8971
3901	0.8971
3892	0.8974
3883	0.8975
3874	0.8975
3865	0.8975
3856	0.8975
3847	0.8975
3838	0.8975
3829	0.8975
3820	0.8974
3811	0.8971
3802	0.8968
3793	0.8965
3784	0.8963
3775	0.896
3766	0.8955
3757	0.8949
3748	0.8944
3739	0.8931
3730	0.8892
3721	0.8878
3712	0.8866
3703	0.8856
3694	0.8841
3685	0.882
3676	0.8796
3667	0.8761
3658	0.8692
3649	0.8593
3640	0.8481
3631	0.8125
3622	0.7697
3613	0.7201
3604	0.6703
3595	0.6202
3586	0.5699
3577	0.5193
3568	0.5108
3559	0.5294
3550	0.5652
3541	0.601
3532	0.637
3523	0.6733
3514	0.7097
3505	0.7289
3496	0.7158
3487	0.6555
3478	0.5949
3469	0.5339
3460	0.4726
3451	0.423
3442	0.4201
3433	0.4457
3424	0.4998
3415	0.5543
3406	0.609
3397	0.6641
3388	0.7194
3379	0.7749
3370	0.8186
3361	0.8293
3352	0.8371
3343	0.8402
3334	0.8428
3325	0.8425
3316	0.8342
3307	0.8184
3298	0.8036
3289	0.8037
3280	0.8098
3271	0.8189
3262	0.8281
3253	0.8373
3244	0.8466
3235	0.856
3226	0.8628
3217	0.862
3208	0.86
3199	0.856
3190	0.847
3181	0.8346
3172	0.8186
3163	0.7868
3154	0.7346
3145	0.7053
3136	0.7033
3127	0.7012
3118	0.6961
3109	0.6625
3100	0.6088
3091	0.5549
3082	0.5006
3073	0.446
3064	0.3912
3055	0.3359
3046	0.2805
3037	0.2246
3028	0.1684
3019	0.1124
3010	0.0957
3001	0.096
2992	0.1108
2983	0.1376
2974	0.1646
2965	0.1915
2956	0.2245
2947	0.2674
2938	0.2759
2929	0.2805
2920	0.3584
2911	0.4738
2902	0.5899
2893	0.7054
2884	0.7765
2875	0.8101
2866	0.8339
2857	0.8492
2848	0.8628
2839	0.8692
2830	0.8725
2821	0.8741
2812	0.8718
2803	0.8643
2794	0.8538
2785	0.852
2776	0.858
2767	0.8725
2758	0.887
2749	0.9001
2740	0.907
2731	0.9104
2722	0.9135
2713	0.9155
2704	0.9168
2695	0.9174
2686	0.9149
2677	0.9124
2668	0.9108
2659	0.9112
2650	0.9111
2641	0.9107
2632	0.9081
2623	0.9058
2614	0.9063
2605	0.9106
2596	0.9195
2587	0.9258
2578	0.9294
2569	0.9309
2560	0.9301
2551	0.9286
2542	0.9262
2533	0.9251
2524	0.9262
2515	0.9274
2506	0.9286
2497	0.9298
2488	0.9305
2479	0.9307
2470	0.9308
2461	0.9301
2452	0.929
2443	0.9261
2434	0.9221
2425	0.918
2416	0.9149
2407	0.9132
2398	0.9132
2389	0.9135
2380	0.9146
2371	0.9156
2362	0.917
2353	0.9187
2344	0.921
2335	0.9259
2326	0.9303
2317	0.9321
2308	0.9318
2299	0.9321
2290	0.9354
2281	0.9378
2272	0.9402
2263	0.9413
2254	0.94
2245	0.9366
2236	0.9339
2227	0.9332
2218	0.9349
2209	0.9373
2200	0.9383
2191	0.9387
2182	0.9385
2173	0.938
2164	0.9381
2155	0.9391
2146	0.9402
2137	0.9418
2128	0.9442
2119	0.9471
2110	0.9475
2101	0.9462
2092	0.9443
2083	0.9423
2074	0.9408
2065	0.9396
2056	0.9397
2047	0.9399
2038	0.94
2029	0.94
2020	0.9398
2011	0.9394
2002	0.9391
1993	0.9387
1984	0.9378
1975	0.9368
1966	0.9345
1957	0.9315
1948	0.9277
1939	0.9225
1930	0.9146
1921	0.9027
1912	0.8882
1903	0.8735
1894	0.8741
1885	0.8888
1876	0.9037
1867	0.9157
1858	0.9214
1849	0.9225
1840	0.9224
1831	0.9216
1822	0.9216
1813	0.923
1804	0.9258
1795	0.9273
1786	0.9204
1777	0.9086
1768	0.898
1759	0.8906
1750	0.8881
1741	0.8844
1732	0.8775
1723	0.869
1714	0.8578
1705	0.8406
1696	0.8155
1687	0.7834
1678	0.7398
1669	0.5533
1660	0.419
1651	0.2833
1642	0.146
1633	0.0749
1624	0.1138
1615	0.289
1606	0.469
1597	0.5507
1588	0.3559
1579	0.4643
1570	0.6338
1561	0.6165
1552	0.5675
1543	0.4988
1534	0.3724
1525	0.2488
1516	0.38
1507	0.496
1498	0.3416
1489	0.3305
1480	0.3387
1471	0.319
1462	0.2961
1453	0.3348
1444	0.3684
1435	0.2759
1426	0.2834
1417	0.5207
1408	0.3826
1399	0.6373
1390	0.5724
1381	0.3103
1372	0.577
1363	0.8055
1354	0.8371
1345	0.8366
1336	0.7837
1327	0.6036
1318	0.3212
1309	0.2118
1300	0.5055
1291	0.7236
1282	0.6212
1273	0.438
1264	0.2963
1255	0.6603
1246	0.7807
1237	0.8171
1228	0.8268
1219	0.8025
1210	0.6078
1201	0.4867
1192	0.4589
1183	0.724
1174	0.8001
1165	0.7275
1156	0.5657
1147	0.7768
1138	0.8221
1129	0.8131
1120	0.7521
1111	0.5933
1102	0.4938
1093	0.6191
1084	0.7441
1075	0.7606
1066	0.7917
1057	0.7958
1048	0.759
1039	0.6938
1030	0.6658
1021	0.6878
1012	0.766
1003	0.7778
994	0.8228
985	0.8445
976	0.8494
967	0.8358
958	0.6884
949	0.6285
940	0.7049
931	0.7418
922	0.7935
913	0.8042
904	0.8028
895	0.7922
886	0.7617
877	0.6953
868	0.5302
859	0.4275
850	0.5418
841	0.7437
832	0.7285
823	0.6835
814	0.4902
805	0.1908
796	0.1857
787	0.5722
778	0.6528
769	0.6521
760	0.631
751	0.5885
742	0.5922
733	0.6614
724	0.6385
715	0.5948
706	0.558
697	0.5315
688	0.5062
679	0.4724
670	0.4316
661	0.4012
652	0.3566
643	0.3546
634	0.3666
