Infrared Spectrum: DEXTROMETHORPHAN, HYDROBROMIDE
Formula: C18 H26 Br N O  * 2 H2 O
State: SOLID (1.6 mg / 200 mg KBr DISC)
Melting point: 124-126 C
Class: COBLENTZ III
Instrument: PERKIN-ELMER 21 (GRATING)
Instrument parameters: FILTER AT ABOUT 10 MICRONS
Sampling: TRANSMISSION
Resolution: 2
1/CM	TRANSMITTANCE
4000	0.7508
3991	0.7517
3982	0.7525
3973	0.7536
3964	0.7545
3955	0.7555
3946	0.7567
3937	0.7578
3928	0.7589
3919	0.76
3910	0.7611
3901	0.7621
3892	0.763
3883	0.7638
3874	0.7646
3865	0.7655
3856	0.7664
3847	0.7671
3838	0.7684
3829	0.7696
3820	0.7707
3811	0.7718
3802	0.7735
3793	0.7758
3784	0.7782
3775	0.7815
3766	0.7851
3757	0.7875
3748	0.7897
3739	0.7911
3730	0.7921
3721	0.7934
3712	0.7946
3703	0.796
3694	0.7971
3685	0.7982
3676	0.799
3667	0.7991
3658	0.7996
3649	0.8004
3640	0.8014
3631	0.8035
3622	0.8056
3613	0.8065
3604	0.8072
3595	0.8075
3586	0.8076
3577	0.8076
3568	0.8062
3559	0.8043
3550	0.8014
3541	0.7965
3532	0.7907
3523	0.7819
3514	0.7692
3505	0.7478
3496	0.7338
3487	0.7208
3478	0.7085
3469	0.6969
3460	0.6795
3451	0.6415
3442	0.5985
3433	0.5637
3424	0.5597
3415	0.5579
3406	0.5571
3397	0.5568
3388	0.5556
3379	0.5388
3370	0.5086
3361	0.4779
3352	0.447
3343	0.416
3334	0.3848
3325	0.3532
3316	0.3218
3307	0.29
3298	0.2741
3289	0.2552
3280	0.2297
3271	0.2123
3262	0.2096
3253	0.2114
3244	0.2188
3235	0.2298
3226	0.2532
3217	0.2787
3208	0.3042
3199	0.3297
3190	0.3554
3181	0.3812
3172	0.4073
3163	0.4334
3154	0.4597
3145	0.486
3136	0.5125
3127	0.5326
3118	0.546
3109	0.5596
3100	0.571
3091	0.5801
3082	0.5858
3073	0.5898
3064	0.591
3055	0.5912
3046	0.5909
3037	0.5894
3028	0.5866
3019	0.5852
3010	0.5874
3001	0.5936
2992	0.5985
2983	0.5998
2974	0.596
2965	0.5931
2956	0.5944
2947	0.5775
2938	0.5187
2929	0.4596
2920	0.4
2911	0.3402
2902	0.2922
2893	0.3031
2884	0.3458
2875	0.3887
2866	0.4319
2857	0.475
2848	0.4829
2839	0.4617
2830	0.4499
2821	0.4676
2812	0.4942
2803	0.5208
2794	0.5478
2785	0.571
2776	0.5758
2767	0.5748
2758	0.5654
2749	0.5544
2740	0.5382
2731	0.5181
2722	0.4951
2713	0.4801
2704	0.4699
2695	0.4616
2686	0.4538
2677	0.4469
2668	0.4416
2659	0.4318
2650	0.4215
2641	0.4145
2632	0.4123
2623	0.412
2614	0.4121
2605	0.4186
2596	0.426
2587	0.4283
2578	0.418
2569	0.3952
2560	0.3852
2551	0.3834
2542	0.3842
2533	0.3868
2524	0.3922
2515	0.398
2506	0.4054
2497	0.4135
2488	0.4224
2479	0.4316
2470	0.4414
2461	0.454
2452	0.467
2443	0.4794
2434	0.4985
2425	0.5168
2416	0.5347
2407	0.5509
2398	0.5655
2389	0.5784
2380	0.5927
2371	0.6039
2362	0.6097
2353	0.613
2344	0.6157
2335	0.6193
2326	0.6257
2317	0.6407
2308	0.6571
2299	0.6736
2290	0.6875
2281	0.6991
2272	0.7075
2263	0.715
2254	0.7215
2245	0.7265
2236	0.7305
2227	0.7337
2218	0.7356
2209	0.7358
2200	0.7342
2191	0.7311
2182	0.7234
2173	0.7133
2164	0.7043
2155	0.6968
2146	0.6968
2137	0.7043
2128	0.7126
2119	0.7198
2110	0.7257
2101	0.7325
2092	0.741
2083	0.7515
2074	0.7549
2065	0.7561
2056	0.7608
2047	0.7672
2038	0.7757
2029	0.7807
2020	0.784
2011	0.7886
2002	0.7924
1993	0.7919
1984	0.7911
1975	0.7946
1966	0.8001
1957	0.7982
1948	0.7994
1939	0.8019
1930	0.8028
1921	0.8014
1912	0.7994
1903	0.7975
1894	0.8034
1885	0.8104
1876	0.8167
1867	0.8202
1858	0.8183
1849	0.8223
1840	0.8289
1831	0.8333
1822	0.8325
1813	0.8287
1804	0.8321
1795	0.8341
1786	0.8358
1777	0.8375
1768	0.838
1759	0.837
1750	0.8323
1741	0.8242
1732	0.8165
1723	0.8172
1714	0.8233
1705	0.8307
1696	0.8343
1687	0.8334
1678	0.8324
1669	0.8295
1660	0.8188
1651	0.813
1642	0.7882
1633	0.7781
1624	0.6932
1615	0.4462
1606	0.5225
1597	0.6302
1588	0.735
1579	0.6089
1570	0.6021
1561	0.7298
1552	0.7737
1543	0.7849
1534	0.7935
1525	0.7328
1516	0.5345
1507	0.4458
1498	0.301
1489	0.4385
1480	0.5777
1471	0.5202
1462	0.3212
1453	0.3359
1444	0.3946
1435	0.4576
1426	0.4178
1417	0.5129
1408	0.6701
1399	0.7115
1390	0.7275
1381	0.6537
1372	0.7051
1363	0.7015
1354	0.6476
1345	0.7211
1336	0.7587
1327	0.7726
1318	0.7878
1309	0.6868
1300	0.3128
1291	0.5897
1282	0.4635
1273	0.3849
1264	0.6123
1255	0.6938
1246	0.4967
1237	0.3491
1228	0.5723
1219	0.5788
1210	0.7019
1201	0.6819
1192	0.5707
1183	0.6646
1174	0.6969
1165	0.4652
1156	0.5458
1147	0.6185
1138	0.6904
1129	0.6965
1120	0.6259
1111	0.675
1102	0.5846
1093	0.5794
1084	0.6718
1075	0.6385
1066	0.4614
1057	0.6396
1048	0.6306
1039	0.3312
1030	0.4325
1021	0.6301
1012	0.409
1003	0.669
994	0.5997
985	0.718
976	0.6967
967	0.7571
958	0.6238
949	0.7375
940	0.7784
931	0.6683
922	0.7725
913	0.7886
904	0.7539
895	0.8115
886	0.8104
877	0.7487
868	0.5329
859	0.7318
850	0.6968
841	0.8061
832	0.6925
823	0.3972
814	0.7021
805	0.7725
796	0.8005
787	0.7768
778	0.7861
769	0.7836
760	0.8268
751	0.839
742	0.8446
733	0.8428
724	0.7594
715	0.825
706	0.8299
697	0.8046
688	0.7315
679	0.7978
