Infrared Spectrum: Zirconium, oxobis(2,4-pentanedionato)-
Formula: C10 H14 O5 Zr
State: SOLID (SPLIT MULL), FLUOROLUBE FOR 3800-1330 CM^-^1, NUJOL FOR 1330-400 CM^-^1
Class: COBLENTZ II
Instrument: DOW KBr FOREPRISM-GRATING
Instrument parameters: BLAZED AT 3.5, 12.0, 20.0 MICRON AND CHANGED AT 5.0, 7.5, 14.9 MICRON
Sampling: TRANSMISSION
Resolution: 2
Origin: DOW CHEMICAL COMPANY
1/CM	TRANSMITTANCE
3800	0.7832
3791	0.785
3782	0.7862
3773	0.7865
3764	0.7868
3755	0.7875
3746	0.7878
3737	0.7881
3728	0.7884
3719	0.7885
3710	0.7891
3701	0.7899
3692	0.7911
3683	0.7921
3674	0.7922
3665	0.7906
3656	0.789
3647	0.7868
3638	0.7845
3629	0.7828
3620	0.7811
3611	0.7795
3602	0.7778
3593	0.7761
3584	0.7726
3575	0.7626
3566	0.7653
3557	0.7667
3548	0.7658
3539	0.7645
3530	0.7631
3521	0.7619
3512	0.7608
3503	0.7598
3494	0.7588
3485	0.7582
3476	0.7578
3467	0.7572
3458	0.7571
3449	0.7568
3440	0.7568
3431	0.7568
3422	0.7568
3413	0.7568
3404	0.7568
3395	0.7569
3386	0.7578
3377	0.7589
3368	0.7601
3359	0.761
3350	0.7618
3341	0.7626
3332	0.7636
3323	0.7647
3314	0.7658
3305	0.7668
3296	0.7684
3287	0.7698
3278	0.7712
3269	0.7725
3260	0.7741
3251	0.7749
3242	0.7757
3233	0.7764
3224	0.7772
3215	0.7786
3206	0.7799
3197	0.7811
3188	0.7821
3179	0.7831
3170	0.784
3161	0.7846
3152	0.7851
3143	0.7855
3134	0.7861
3125	0.7865
3116	0.7871
3107	0.7875
3098	0.7878
3089	0.7878
3080	0.7876
3071	0.7875
3062	0.7871
3053	0.7864
3044	0.7864
3035	0.7865
3026	0.7858
3017	0.7835
3008	0.7756
2999	0.765
2990	0.7595
2981	0.7568
2972	0.7551
2963	0.7551
2954	0.7572
2945	0.7626
2936	0.7665
2927	0.7664
2918	0.7475
2909	0.754
2900	0.7688
2891	0.7789
2882	0.7854
2873	0.79
2864	0.7942
2855	0.7965
2846	0.7965
2837	0.7964
2828	0.7972
2819	0.7983
2810	0.7996
2801	0.8015
2792	0.8036
2783	0.8056
2774	0.8075
2765	0.8096
2756	0.8118
2747	0.8142
2738	0.8165
2729	0.8183
2720	0.82
2711	0.8217
2702	0.823
2693	0.8242
2684	0.8256
2675	0.8268
2666	0.8275
2657	0.8274
2648	0.827
2639	0.8267
2630	0.8267
2621	0.8267
2612	0.8273
2603	0.8283
2594	0.8295
2585	0.8307
2576	0.8318
2567	0.8324
2558	0.8328
2549	0.8328
2540	0.8328
2531	0.8328
2522	0.8331
2513	0.8333
2504	0.8338
2495	0.8338
2486	0.8325
2477	0.8296
2468	0.8267
2459	0.8236
2450	0.8212
2441	0.8209
2432	0.8216
2423	0.8218
2414	0.8218
2405	0.8221
2396	0.8225
2387	0.8228
2378	0.8239
2369	0.8263
2360	0.83
2351	0.8309
2342	0.8254
2333	0.8278
2324	0.8292
2315	0.8278
2306	0.8238
2297	0.8204
2288	0.8187
2279	0.8191
2270	0.8202
2261	0.8227
2252	0.8252
2243	0.8287
2234	0.8324
2225	0.8362
2216	0.8394
2207	0.8418
2198	0.8437
2189	0.8449
2180	0.8452
2171	0.8453
2162	0.8471
2153	0.8491
2144	0.8512
2135	0.853
2126	0.8547
2117	0.8554
2108	0.8565
2099	0.8575
2090	0.8586
2081	0.8608
2072	0.8625
2063	0.8641
2054	0.8653
2045	0.8664
2036	0.8668
2027	0.8675
2018	0.8684
2009	0.8696
2000	0.8757
1991	0.8674
1982	0.8755
1973	0.8792
1964	0.881
1955	0.8773
1946	0.8762
1937	0.8782
1928	0.8797
1919	0.8827
1910	0.8858
1901	0.8878
1892	0.8882
1883	0.8874
1874	0.8865
1865	0.8863
1856	0.8866
1847	0.8868
1838	0.8878
1829	0.8881
1820	0.8882
1811	0.8882
1802	0.8883
1793	0.8883
1784	0.8891
1775	0.89
1766	0.891
1757	0.892
1748	0.8927
1739	0.8934
1730	0.8941
1721	0.8928
1712	0.8897
1703	0.8852
1694	0.8794
1685	0.8704
1676	0.8602
1667	0.8505
1658	0.8396
1649	0.8161
1640	0.7805
1631	0.7318
1622	0.6522
1613	0.5096
1604	0.2651
1595	0.0967
1586	0.1292
1577	0.2403
1568	0.3666
1559	0.4316
1550	0.4378
1541	0.3403
1532	0.1214
1523	0.1379
1514	0.3008
1505	0.4715
1496	0.5557
1487	0.6062
1478	0.6067
1469	0.5368
1460	0.4994
1451	0.4923
1442	0.4808
1433	0.4462
1424	0.4021
1415	0.378
1406	0.3737
1397	0.4166
1388	0.4318
1379	0.4321
1370	0.4517
1361	0.4786
1352	0.4238
1343	0.5567
1334	0.6139
1325	0.6348
1316	0.641
1307	0.6375
1298	0.6329
1289	0.5524
1280	0.4501
1271	0.4805
1262	0.5923
1253	0.5991
1244	0.583
1235	0.5726
1226	0.5449
1217	0.5348
1208	0.568
1199	0.573
1190	0.5762
1181	0.5521
1172	0.5823
1163	0.5856
1154	0.5979
1145	0.6382
1136	0.6847
1127	0.7269
1118	0.7532
1109	0.7643
1100	0.7744
1091	0.7818
1082	0.7575
1073	0.7182
1064	0.7134
1055	0.6774
1046	0.6806
1037	0.6793
1028	0.504
1019	0.4419
1010	0.5355
1001	0.6962
992	0.7751
983	0.8186
974	0.8385
965	0.847
956	0.8512
947	0.8278
938	0.8332
929	0.6678
920	0.7994
911	0.8407
902	0.8361
893	0.7537
884	0.6928
875	0.6745
866	0.7298
857	0.7578
848	0.7769
839	0.8138
830	0.8327
821	0.8418
812	0.8437
803	0.8402
794	0.8347
785	0.8275
776	0.5425
767	0.798
758	0.674
749	0.8253
740	0.8353
731	0.8277
722	0.8092
713	0.8178
704	0.8199
695	0.8085
686	0.8028
677	0.7936
668	0.7611
659	0.7014
650	0.6235
641	0.7481
632	0.7581
623	0.7698
614	0.7533
605	0.6885
596	0.7394
587	0.6818
578	0.6285
569	0.6874
560	0.7508
551	0.7957
542	0.7741
533	0.7521
524	0.7741
515	0.8087
506	0.8117
497	0.8111
488	0.8049
479	0.7925
470	0.7788
461	0.7651
452	0.7468
443	0.7107
434	0.6618
425	0.5178
416	0.4941
407	0.4982
398	0.513
