Infrared Spectrum: 2-HYDROXY-3-(N-DODECYLAMINO) PROPYL-TRIMETHYLAMMONIUM p-TOSYLATE
Formula: C25 H48 N2 O4 S
State: SOLID (KBr PELLET)
Melting point: 106-167 C
Class: COBLENTZ
Instrument: Not specified, most likely a prism, grating, or hybrid spectrometer.
Sampling: TRANSMISSION
Resolution: 4
Origin: EASTMAN KODAK COMPANY, RESEARCH LABORATORIES, ROCHESTER, N.Y.
MICROMETERS	TRANSMITTANCE
2.154	0.658
2.19408	0.668
2.23415	0.691
2.27423	0.681
2.3143	0.694
2.35438	0.703
2.39445	0.713
2.43453	0.729
2.4746	0.739
2.51468	0.744
2.55475	0.746
2.59483	0.747
2.6349	0.771
2.67498	0.781
2.71506	0.784
2.75513	0.776
2.79521	0.754
2.83528	0.699
2.87536	0.65
2.91543	0.6
2.95551	0.548
2.99558	0.499
3.03566	0.391
3.07573	0.31
3.11581	0.422
3.15588	0.568
3.19596	0.663
3.23604	0.699
3.27611	0.719
3.31619	0.673
3.35626	0.699
3.39634	0.482
3.43641	0.145
3.47649	0.457
3.51656	0.298
3.55664	0.563
3.59671	0.703
3.63679	0.769
3.67686	0.789
3.71694	0.81
3.75701	0.822
3.79709	0.839
3.83717	0.842
3.87724	0.857
3.91732	0.86
3.95739	0.87
3.99747	0.87
4.03754	0.878
4.07762	0.9
4.11769	0.89
4.15777	0.893
4.19784	0.895
4.23792	0.898
4.27799	0.915
4.31807	0.93
4.35815	0.93
4.39822	0.93
4.4383	0.922
4.47837	0.92
4.51845	0.918
4.55852	0.922
4.5986	0.923
4.63867	0.932
4.67875	0.936
4.71882	0.941
4.7589	0.946
4.79897	0.951
4.83905	0.948
4.87913	0.943
4.9192	0.943
4.95928	0.94
4.99935	0.945
5.03943	0.953
5.0795	0.955
5.11958	0.95
5.15965	0.94
5.19973	0.946
5.2398	0.936
5.27988	0.943
5.31995	0.933
5.36003	0.938
5.40011	0.958
5.44018	0.96
5.48026	0.96
5.52033	0.951
5.56041	0.943
5.60048	0.941
5.64056	0.935
5.68063	0.94
5.72071	0.946
5.76078	0.948
5.80086	0.946
5.84093	0.938
5.88101	0.935
5.92109	0.936
5.96116	0.933
6.00124	0.92
6.04131	0.897
6.08139	0.882
6.12146	0.885
6.16154	0.873
6.20161	0.872
6.24169	0.87
6.28176	0.862
6.32184	0.903
6.36191	0.91
6.40199	0.91
6.44206	0.922
6.48214	0.918
6.52222	0.932
6.56229	0.91
6.60237	0.903
6.64244	0.872
6.68252	0.767
6.72259	0.446
6.76267	0.452
6.80274	0.492
6.84282	0.441
6.88289	0.625
6.92297	0.696
6.96304	0.752
7.00312	0.766
7.0432	0.797
7.08327	0.807
7.12335	0.794
7.16342	0.822
7.2035	0.8
7.24357	0.812
7.28365	0.791
7.32372	0.799
7.3638	0.807
7.40387	0.822
7.44395	0.771
7.48402	0.706
7.5241	0.814
7.56418	0.872
7.60425	0.872
7.64433	0.796
7.6844	0.786
7.72448	0.86
7.76455	0.87
7.80463	0.862
7.8447	0.864
7.88478	0.873
7.92485	0.864
7.96493	0.854
8.005	0.837
8.04508	0.815
8.08516	0.781
8.12523	0.661
8.16531	0.48
8.20538	0.152
8.24546	0.097
8.28553	0.235
8.32561	0.33
8.36568	0.393
8.40576	0.3
8.44583	0.127
8.48591	0.102
8.52598	0.313
8.56606	0.276
8.60614	0.533
8.64621	0.641
8.68629	0.739
8.72636	0.731
8.76644	0.63
8.80651	0.635
8.84659	0.51
8.88666	0.404
8.92674	0.232
8.96681	0.305
9.00689	0.524
9.04696	0.557
9.08704	0.524
9.12711	0.469
9.16719	0.648
9.20727	0.762
9.24734	0.822
9.28742	0.837
9.32749	0.84
9.36757	0.855
9.40764	0.862
9.44772	0.855
9.48779	0.862
9.52787	0.85
9.56794	0.814
9.60802	0.761
9.64809	0.621
9.68817	0.167
9.72825	0.673
9.76832	0.84
9.8084	0.854
9.84847	0.817
9.88855	0.283
9.92862	0.361
9.9687	0.756
10.0088	0.847
10.0488	0.875
10.0889	0.903
10.129	0.907
10.1691	0.902
10.2092	0.85
10.2492	0.787
10.2893	0.597
10.3294	0.533
10.3695	0.628
10.4095	0.761
10.4496	0.855
10.4897	0.873
10.5298	0.875
10.5698	0.862
10.6099	0.8
10.65	0.767
10.6901	0.66
10.7301	0.752
10.7702	0.882
10.8103	0.915
10.8504	0.913
10.8904	0.917
10.9305	0.915
10.9706	0.893
11.0107	0.786
11.0507	0.711
11.0908	0.867
11.1309	0.927
11.171	0.943
11.211	0.951
11.2511	0.951
11.2912	0.956
11.3313	0.963
11.3713	0.975
11.4114	0.971
11.4515	0.965
11.4916	0.95
11.5316	0.922
11.5717	0.943
11.6118	0.951
11.6519	0.953
11.6919	0.955
11.732	0.951
11.7721	0.935
11.8122	0.948
11.8522	0.933
11.8923	0.936
11.9324	0.945
11.9725	0.945
12.0125	0.945
12.0526	0.946
12.0927	0.927
12.1328	0.892
12.1728	0.864
12.2129	0.812
12.253	0.776
12.2931	0.615
12.3331	0.49
12.3732	0.543
12.4133	0.577
12.4534	0.578
12.4934	0.631
12.5335	0.721
12.5736	0.749
12.6137	0.729
12.6537	0.741
12.6938	0.761
12.7339	0.82
12.774	0.829
12.814	0.842
12.8541	0.862
12.8942	0.867
12.9343	0.867
12.9744	0.88
13.0144	0.872
13.0545	0.845
13.0946	0.835
13.1347	0.875
13.1747	0.893
13.2148	0.897
13.2549	0.902
13.295	0.903
13.335	0.897
13.3751	0.892
13.4152	0.903
13.4553	0.903
13.4953	0.9
13.5354	0.895
13.5755	0.888
13.6156	0.872
13.6556	0.855
13.6957	0.845
13.7358	0.837
13.7759	0.807
13.8159	0.771
13.856	0.716
13.8961	0.711
13.9362	0.723
13.9762	0.694
14.0163	0.729
14.0564	0.769
14.0965	0.774
14.1365	0.772
14.1766	0.761
14.2167	0.744
14.2568	0.721
14.2968	0.689
14.3369	0.65
14.377	0.606
14.4171	0.54
14.4571	0.497
14.4972	0.451
14.5373	0.399
14.5774	0.353
14.6174	0.344
14.6575	0.369
14.6976	0.417
14.7377	0.49
14.7777	0.552
14.8178	0.601
14.8579	0.628
14.898	0.653
14.938	0.66
14.9781	0.626
15.0182	0.699
15.0583	0.711
15.0983	0.673
15.1384	0.668
15.1785	0.643
15.2186	0.641
15.2586	0.636
15.2987	0.626
15.3388	0.618
15.3789	0.616
15.4189	0.615
15.459	0.598
15.4991	0.601
15.5392	0.597
15.5793	0.58
15.6193	0.578
15.6594	0.568
15.6995	0.558
15.7396	0.557
15.7796	0.557
15.8197	0.555
15.8598	0.548
15.8999	0.533
15.9399	0.522
15.98	0.524
