Infrared Spectrum: POTASSIUM PHOSPHATE, MONOBASIC
Formula: K H2 P O4
State: SOLID (NUJOL MULL)
Class: COBLENTZ
Instrument: Not specified, most likely a prism, grating, or hybrid spectrometer.
Sampling: TRANSMISSION
Resolution: 4
Origin: MELLON INSTITUTE
MICROMETERS	TRANSMITTANCE
2.017	0.934
2.05685	0.939
2.09671	0.929
2.13656	0.933
2.17642	0.921
2.21627	0.918
2.25613	0.921
2.29598	0.914
2.33583	0.909
2.37569	0.901
2.41554	0.894
2.4554	0.899
2.49525	0.896
2.5351	0.901
2.57496	0.903
2.61481	0.904
2.65467	0.904
2.69452	0.904
2.73438	0.897
2.77423	0.897
2.81408	0.894
2.85394	0.892
2.89379	0.891
2.93365	0.887
2.9735	0.882
3.01336	0.881
3.05321	0.881
3.09306	0.876
3.13292	0.872
3.17277	0.867
3.21263	0.862
3.25248	0.859
3.29233	0.849
3.33219	0.672
3.37204	0.416
3.4119	0.387
3.45175	0.468
3.49161	0.479
3.53146	0.69
3.57131	0.714
3.61117	0.729
3.65102	0.735
3.69088	0.739
3.73073	0.74
3.77059	0.74
3.81044	0.762
3.85029	0.772
3.89015	0.762
3.93	0.744
3.96986	0.739
4.00971	0.734
4.04956	0.727
4.08942	0.722
4.12927	0.709
4.16913	0.693
4.20898	0.685
4.24884	0.69
4.28869	0.685
4.32854	0.68
4.3684	0.688
4.40825	0.702
4.44811	0.709
4.48796	0.717
4.52782	0.719
4.56767	0.717
4.60752	0.73
4.64738	0.734
4.68723	0.739
4.72709	0.742
4.76694	0.74
4.80679	0.749
4.84665	0.754
4.8865	0.759
4.92636	0.762
4.96621	0.754
5.00607	0.752
5.04592	0.757
5.08577	0.76
5.12563	0.759
5.16548	0.752
5.20534	0.742
5.24519	0.747
5.28505	0.735
5.3249	0.737
5.36475	0.729
5.40461	0.725
5.44446	0.715
5.48432	0.704
5.52417	0.688
5.56402	0.675
5.60388	0.673
5.64373	0.667
5.68359	0.653
5.72344	0.648
5.7633	0.642
5.80315	0.627
5.843	0.625
5.88286	0.622
5.92271	0.615
5.96257	0.61
6.00242	0.605
6.04228	0.605
6.08213	0.603
6.12198	0.607
6.16184	0.61
6.20169	0.613
6.24155	0.625
6.2814	0.633
6.32125	0.635
6.36111	0.637
6.40096	0.638
6.44082	0.647
6.48067	0.653
6.52053	0.652
6.56038	0.657
6.60023	0.657
6.64009	0.663
6.67994	0.667
6.7198	0.665
6.75965	0.648
6.7995	0.618
6.83936	0.605
6.87921	0.615
6.91907	0.662
6.95892	0.698
6.99878	0.722
7.03863	0.739
7.07848	0.767
7.11834	0.779
7.15819	0.77
7.19805	0.749
7.2379	0.74
7.27776	0.754
7.31761	0.764
7.35746	0.754
7.39732	0.73
7.43717	0.705
7.47703	0.672
7.51688	0.617
7.55673	0.571
7.59659	0.545
7.63644	0.528
7.6763	0.518
7.71615	0.511
7.75601	0.513
7.79586	0.531
7.83571	0.55
7.87557	0.565
7.91542	0.581
7.95528	0.6
7.99513	0.62
8.03499	0.652
8.07484	0.673
8.11469	0.69
8.15455	0.702
8.1944	0.707
8.23426	0.72
8.27411	0.729
8.31396	0.735
8.35382	0.735
8.39367	0.735
8.43353	0.735
8.47338	0.725
8.51324	0.705
8.55309	0.697
8.59294	0.678
8.6328	0.66
8.67265	0.643
8.71251	0.63
8.75236	0.6
8.79222	0.588
8.83207	0.57
8.87192	0.55
8.91178	0.535
8.95163	0.525
8.99149	0.518
9.03134	0.513
9.07119	0.508
9.11105	0.506
9.1509	0.503
9.19076	0.501
9.23061	0.503
9.27047	0.51
9.31032	0.516
9.35017	0.523
9.39003	0.535
9.42988	0.543
9.46974	0.551
9.50959	0.556
9.54945	0.561
9.5893	0.566
9.62915	0.57
9.66901	0.571
9.70886	0.578
9.74872	0.585
9.78857	0.586
9.82842	0.593
9.86828	0.6
9.90813	0.605
9.94799	0.608
9.98784	0.612
10.0277	0.61
10.0676	0.612
10.1074	0.615
10.1473	0.618
10.1871	0.618
10.227	0.618
10.2668	0.62
10.3067	0.618
10.3465	0.613
10.3864	0.608
10.4262	0.605
10.4661	0.598
10.5059	0.595
10.5458	0.591
10.5857	0.586
10.6255	0.58
10.6654	0.575
10.7052	0.573
10.7451	0.571
10.7849	0.57
10.8248	0.568
10.8646	0.565
10.9045	0.561
10.9443	0.56
10.9842	0.558
11.0241	0.556
11.0639	0.553
11.1038	0.553
11.1436	0.555
11.1835	0.555
11.2233	0.556
11.2632	0.556
11.303	0.561
11.3429	0.563
11.3827	0.568
11.4226	0.573
11.4624	0.58
11.5023	0.583
11.5422	0.586
11.582	0.593
11.6219	0.6
11.6617	0.603
11.7016	0.607
11.7414	0.612
11.7813	0.617
11.8211	0.62
11.861	0.627
11.9008	0.633
11.9407	0.64
11.9806	0.645
12.0204	0.652
12.0603	0.662
12.1001	0.67
12.14	0.682
12.1798	0.688
12.2197	0.692
12.2595	0.698
12.2994	0.702
12.3392	0.705
12.3791	0.714
12.4189	0.717
12.4588	0.72
12.4987	0.724
12.5385	0.729
12.5784	0.732
12.6182	0.735
12.6581	0.74
12.6979	0.747
12.7378	0.752
12.7776	0.755
12.8175	0.76
12.8573	0.764
12.8972	0.767
12.9371	0.77
12.9769	0.772
13.0168	0.777
13.0566	0.78
13.0965	0.782
13.1363	0.784
13.1762	0.787
13.216	0.79
13.2559	0.792
13.2957	0.795
13.3356	0.797
13.3754	0.799
13.4153	0.799
13.4552	0.799
13.495	0.799
13.5349	0.799
13.5747	0.799
13.6146	0.799
13.6544	0.799
13.6943	0.799
13.7341	0.799
13.774	0.799
13.8138	0.799
13.8537	0.799
13.8936	0.799
13.9334	0.799
13.9733	0.801
14.0131	0.801
14.053	0.801
14.0928	0.801
14.1327	0.801
14.1725	0.801
14.2124	0.799
14.2522	0.799
14.2921	0.797
14.332	0.797
14.3718	0.797
14.4117	0.795
14.4515	0.794
14.4914	0.79
14.5312	0.79
14.5711	0.787
14.6109	0.784
14.6508	0.78
14.6906	0.78
14.7305	0.779
14.7703	0.775
14.8102	0.779
14.8501	0.779
14.8899	0.775
14.9298	0.769
14.9696	0.764
15.0095	0.767
15.0493	0.762
15.0892	0.762
15.129	0.762
15.1689	0.752
15.2087	0.754
15.2486	0.75
15.2885	0.75
15.3283	0.754
15.3682	0.755
15.408	0.759
15.4479	0.76
15.4877	0.759
15.5276	0.759
15.5674	0.759
15.6073	0.759
15.6471	0.759
15.687	0.759
15.7268	0.76
15.7667	0.762
15.8066	0.76
15.8464	0.762
15.8863	0.764
15.9261	0.765
15.966	0.767
