Infrared Spectrum: ATROPINE SULFATE, HYDRATE
Formula: C34 H48 N2 O10 S  * H2 O
State: SOLID (KBr DISC)
Melting point: 190-194 C
Class: COBLENTZ III
Instrument: PERKIN-ELMER 21 (GRATING)
Instrument parameters: FILTER AT ABOUT 10 MICRONS
Sampling: TRANSMISSION
Resolution: 2
1/CM	TRANSMITTANCE
4000	0.7605
3991	0.761
3982	0.7615
3973	0.7621
3964	0.7631
3955	0.7641
3946	0.7651
3937	0.7661
3928	0.7671
3919	0.7681
3910	0.7691
3901	0.7701
3892	0.7711
3883	0.7718
3874	0.7725
3865	0.7734
3856	0.7741
3847	0.7749
3838	0.7756
3829	0.7764
3820	0.7771
3811	0.7778
3802	0.7786
3793	0.7792
3784	0.7799
3775	0.7807
3766	0.7812
3757	0.7819
3748	0.7826
3739	0.7832
3730	0.7837
3721	0.7843
3712	0.7843
3703	0.7835
3694	0.7828
3685	0.7814
3676	0.7783
3667	0.7749
3658	0.7715
3649	0.7643
3640	0.7521
3631	0.7226
3622	0.693
3613	0.6643
3604	0.6356
3595	0.6103
3586	0.5858
3577	0.5536
3568	0.5305
3559	0.5152
3550	0.4999
3541	0.4759
3532	0.4512
3523	0.4387
3514	0.4268
3505	0.414
3496	0.3975
3487	0.3757
3478	0.3496
3469	0.3234
3460	0.2971
3451	0.2707
3442	0.2461
3433	0.2334
3424	0.2224
3415	0.2157
3406	0.2098
3397	0.2053
3388	0.2027
3379	0.202
3370	0.2019
3361	0.2034
3352	0.206
3343	0.2113
3334	0.2166
3325	0.2249
3316	0.2375
3307	0.2532
3298	0.2738
3289	0.2971
3280	0.3164
3271	0.333
3262	0.3495
3253	0.3664
3244	0.3832
3235	0.4003
3226	0.4174
3217	0.4346
3208	0.4519
3199	0.4693
3190	0.4868
3181	0.5044
3172	0.5221
3163	0.5399
3154	0.5578
3145	0.5749
3136	0.586
3127	0.5935
3118	0.5971
3109	0.599
3100	0.599
3091	0.5975
3082	0.5949
3073	0.5912
3064	0.5875
3055	0.5825
3046	0.5759
3037	0.5674
3028	0.5568
3019	0.5439
3010	0.5272
3001	0.5087
2992	0.4851
2983	0.4645
2974	0.4321
2965	0.424
2956	0.4246
2947	0.4298
2938	0.4385
2929	0.4522
2920	0.4664
2911	0.4836
2902	0.4937
2893	0.4984
2884	0.4997
2875	0.498
2866	0.4947
2857	0.4934
2848	0.4953
2839	0.5014
2830	0.5059
2821	0.5083
2812	0.5084
2803	0.5071
2794	0.5053
2785	0.511
2776	0.5207
2767	0.5221
2758	0.5142
2749	0.5018
2740	0.4935
2731	0.4848
2722	0.4765
2713	0.4732
2704	0.4804
2695	0.5049
2686	0.5177
2677	0.5288
2668	0.5384
2659	0.5482
2650	0.5587
2641	0.5696
2632	0.5775
2623	0.5797
2614	0.579
2605	0.5753
2596	0.556
2587	0.5489
2578	0.5462
2569	0.5459
2560	0.548
2551	0.5574
2542	0.577
2533	0.5923
2524	0.6076
2515	0.6225
2506	0.638
2497	0.6558
2488	0.6734
2479	0.6894
2470	0.7054
2461	0.7258
2452	0.7396
2443	0.748
2434	0.763
2425	0.7705
2416	0.7785
2407	0.7908
2398	0.8081
2389	0.8201
2380	0.8267
2371	0.8296
2362	0.8299
2353	0.8301
2344	0.8309
2335	0.8323
2326	0.8349
2317	0.8375
2308	0.8445
2299	0.8528
2290	0.8627
2281	0.8718
2272	0.8796
2263	0.8835
2254	0.8851
2245	0.8865
2236	0.8883
2227	0.8906
2218	0.8931
2209	0.8945
2200	0.8958
2191	0.8971
2182	0.8984
2173	0.8995
2164	0.8989
2155	0.894
2146	0.8932
2137	0.8934
2128	0.8942
2119	0.895
2110	0.8943
2101	0.8905
2092	0.8853
2083	0.8823
2074	0.8836
2065	0.8878
2056	0.8932
2047	0.8959
2038	0.8987
2029	0.9015
2020	0.9036
2011	0.9051
2002	0.9062
1993	0.9068
1984	0.9071
1975	0.9059
1966	0.9059
1957	0.9113
1948	0.9191
1939	0.9257
1930	0.9249
1921	0.9227
1912	0.9199
1903	0.9174
1894	0.9167
1885	0.9171
1876	0.9191
1867	0.9209
1858	0.9225
1849	0.9215
1840	0.9174
1831	0.9128
1822	0.9098
1813	0.9077
1804	0.9061
1795	0.9028
1786	0.8921
1777	0.8728
1768	0.8282
1759	0.7771
1750	0.6319
1741	0.3412
1732	0.1302
1723	0.2118
1714	0.4235
1705	0.5992
1696	0.7514
1687	0.7876
1678	0.7928
1669	0.7888
1660	0.7746
1651	0.7394
1642	0.7108
1633	0.7
1624	0.7062
1615	0.7299
1606	0.726
1597	0.7784
1588	0.804
1579	0.8251
1570	0.848
1561	0.8585
1552	0.8633
1543	0.8645
1534	0.8593
1525	0.8465
1516	0.8241
1507	0.7583
1498	0.586
1489	0.5919
1480	0.5302
1471	0.5659
1462	0.5992
1453	0.4436
1444	0.6146
1435	0.5743
1426	0.58
1417	0.6191
1408	0.6362
1399	0.6257
1390	0.5523
1381	0.536
1372	0.519
1363	0.5506
1354	0.602
1345	0.6062
1336	0.5949
1327	0.6051
1318	0.6333
1309	0.6461
1300	0.6533
1291	0.6386
1282	0.5978
1273	0.512
1264	0.4704
1255	0.4679
1246	0.4536
1237	0.4106
1228	0.3871
1219	0.3644
1210	0.393
1201	0.388
1192	0.3505
1183	0.3364
1174	0.2631
1165	0.1108
1156	0.1188
1147	0.0826
1138	0.0593
1129	0.0547
1120	0.0513
1111	0.06
1102	0.2029
1093	0.3826
1084	0.3888
1075	0.3155
1066	0.3262
1057	0.3674
1048	0.3875
1039	0.3505
1030	0.2168
1021	0.1415
1012	0.4667
1003	0.5366
994	0.6826
985	0.68
976	0.6133
967	0.6214
958	0.7724
949	0.7712
940	0.7274
931	0.7693
922	0.7572
913	0.7898
904	0.8498
895	0.8628
886	0.8481
877	0.8212
868	0.8538
859	0.8644
850	0.8284
841	0.864
832	0.8801
823	0.8491
814	0.7975
805	0.8244
796	0.8371
787	0.7808
778	0.7628
769	0.7118
760	0.6615
751	0.7005
742	0.6395
733	0.5677
724	0.7364
715	0.7151
706	0.5274
697	0.5062
688	0.7191
679	0.7299
670	0.7165
