Infrared Spectrum: PROPIONITRILE, 3-AMINO-, FUMARATE
Formula: C10 H16 N4 O4
State: SOLID (SPLIT MULL), FLUOROLUBE FOR 3800-1330 CM^-^1, NUJOL FOR 1330-400 CM^-^1
Class: COBLENTZ III
Instrument: DOW KBr FOREPRISM-GRATING
Instrument parameters: BLAZED AT 3.5, 12.0, 20.0 MICRON AND CHANGED AT 5.0, 7.5, 14.9 MICRON
Sampling: TRANSMISSION
Resolution: 2
Origin: DOW CHEMICAL COMPANY
1/CM	TRANSMITTANCE
385	0.5593
394	0.6024
403	0.6754
412	0.7493
421	0.7803
430	0.8024
439	0.8221
448	0.8428
457	0.8584
466	0.8689
475	0.8751
484	0.8766
493	0.876
502	0.8855
511	0.8905
520	0.8665
529	0.7319
538	0.9347
547	0.9357
556	0.9014
565	0.721
574	0.5714
583	0.8591
592	0.9131
601	0.9292
610	0.9378
619	0.9413
628	0.9421
637	0.9385
646	0.9288
655	0.8955
664	0.7542
673	0.2055
682	0.3477
691	0.7753
700	0.8789
709	0.8861
718	0.8439
727	0.8361
736	0.8498
745	0.8613
754	0.8649
763	0.8497
772	0.8392
781	0.7875
790	0.5697
799	0.7958
808	0.2031
817	0.8538
826	0.8601
835	0.8506
844	0.8501
853	0.8468
862	0.8451
871	0.8418
880	0.8371
889	0.8162
898	0.8048
907	0.7567
916	0.6778
925	0.6303
934	0.604
943	0.7043
952	0.4843
961	0.5962
970	0.3941
979	0.5235
988	0.6542
997	0.6753
1006	0.5357
1015	0.396
1024	0.5297
1033	0.663
1042	0.6908
1051	0.7158
1060	0.7267
1069	0.7268
1078	0.7222
1087	0.7164
1096	0.7092
1105	0.7033
1114	0.7014
1123	0.7
1132	0.6448
1141	0.6408
1150	0.6114
1159	0.5418
1168	0.3222
1177	0.2791
1186	0.5595
1195	0.6149
1204	0.6054
1213	0.4635
1222	0.3956
1231	0.6692
1240	0.6639
1249	0.6492
1258	0.6253
1267	0.5971
1276	0.5651
1285	0.556
1294	0.5416
1303	0.4739
1312	0.3725
1321	0.4249
1330	0.362
1339	0.3059
1348	0.238
1357	0.1767
1366	0.1807
1375	0.2349
1384	0.2584
1393	0.4283
1402	0.387
1411	0.5585
1420	0.5762
1429	0.5486
1438	0.552
1447	0.5428
1456	0.4948
1465	0.4165
1474	0.4617
1483	0.4571
1492	0.4021
1501	0.3384
1510	0.2411
1519	0.1528
1528	0.1407
1537	0.172
1546	0.2539
1555	0.295
1564	0.3656
1573	0.4605
1582	0.5589
1591	0.6178
1600	0.626
1609	0.6034
1618	0.5481
1627	0.4748
1636	0.32
1645	0.2316
1654	0.3592
1663	0.5371
1672	0.7196
1681	0.7845
1690	0.8142
1699	0.8285
1708	0.8365
1717	0.8396
1726	0.843
1735	0.8393
1744	0.8459
1753	0.8499
1762	0.8459
1771	0.8423
1780	0.842
1789	0.8418
1798	0.8406
1807	0.8386
1816	0.836
1825	0.833
1834	0.8298
1843	0.8265
1852	0.8228
1861	0.8192
1870	0.8156
1879	0.8119
1888	0.8087
1897	0.8053
1906	0.8015
1915	0.7972
1924	0.7864
1933	0.7856
1942	0.7856
1951	0.7794
1960	0.7734
1969	0.7734
1978	0.7715
1987	0.7669
1996	0.7572
2005	0.7074
2014	0.6994
2023	0.6931
2032	0.6851
2041	0.6807
2050	0.6706
2059	0.6624
2068	0.649
2077	0.6424
2086	0.634
2095	0.6236
2104	0.6115
2113	0.6018
2122	0.5979
2131	0.5982
2140	0.5999
2149	0.6029
2158	0.606
2167	0.6083
2176	0.6089
2185	0.6074
2194	0.6046
2203	0.6005
2212	0.5946
2221	0.5875
2230	0.5794
2239	0.5706
2248	0.5587
2257	0.4401
2266	0.5843
2275	0.5771
2284	0.5715
2293	0.5682
2302	0.5557
2311	0.5522
2320	0.546
2329	0.5424
2338	0.5386
2347	0.5356
2356	0.5327
2365	0.5253
2374	0.5142
2383	0.5018
2392	0.4908
2401	0.4802
2410	0.4697
2419	0.46
2428	0.4504
2437	0.4412
2446	0.4336
2455	0.4272
2464	0.4234
2473	0.4217
2482	0.4225
2491	0.4251
2500	0.43
2509	0.4336
2518	0.4306
2527	0.4273
2536	0.4229
2545	0.4162
2554	0.4086
2563	0.4
2572	0.3887
2581	0.378
2590	0.3797
2599	0.3826
2608	0.3866
2617	0.3897
2626	0.3875
2635	0.3837
2644	0.38
2653	0.3764
2662	0.3727
2671	0.3712
2680	0.3709
2689	0.3712
2698	0.3714
2707	0.3632
2716	0.3562
2725	0.3537
2734	0.3547
2743	0.3588
2752	0.3646
2761	0.3741
2770	0.3816
2779	0.3805
2788	0.3786
2797	0.3771
2806	0.3709
2815	0.3641
2824	0.361
2833	0.3587
2842	0.3576
2851	0.3562
2860	0.355
2869	0.3562
2878	0.3582
2887	0.3612
2896	0.365
2905	0.368
2914	0.3682
2923	0.361
2932	0.3618
2941	0.3759
2950	0.3776
2959	0.3721
2968	0.3926
2977	0.3902
2986	0.3874
2995	0.3854
3004	0.3864
3013	0.3902
3022	0.3956
3031	0.403
3040	0.4116
3049	0.4208
3058	0.4245
3067	0.4088
3076	0.4307
3085	0.4601
3094	0.4783
3103	0.4943
3112	0.5115
3121	0.5295
3130	0.5434
3139	0.557
3148	0.571
3157	0.5898
3166	0.6083
3175	0.6251
3184	0.6422
3193	0.6599
3202	0.6772
3211	0.6899
3220	0.6996
3229	0.7064
3238	0.7086
3247	0.7107
3256	0.7148
3265	0.7218
3274	0.7301
3283	0.7382
3292	0.7415
3301	0.7435
3310	0.744
3319	0.7439
3328	0.7428
3337	0.7415
3346	0.7405
3355	0.7395
3364	0.7385
3373	0.7371
3382	0.7358
3391	0.7349
3400	0.7343
3409	0.7335
3418	0.7326
3427	0.7318
3436	0.7306
3445	0.7294
3454	0.7282
3463	0.7272
3472	0.7264
3481	0.7256
3490	0.7251
3499	0.7251
3508	0.725
3517	0.7249
3526	0.7246
3535	0.7243
3544	0.724
3553	0.7235
3562	0.7222
3571	0.7208
3580	0.7187
3589	0.7205
3598	0.7208
3607	0.7206
3616	0.7204
3625	0.72
3634	0.7194
3643	0.7185
3652	0.7175
3661	0.7168
3670	0.7162
3679	0.714
3688	0.7108
3697	0.7061
3706	0.7053
3715	0.7053
3724	0.7054
3733	0.7055
3742	0.7055
3751	0.7038
3760	0.7015
3769	0.6993
3778	0.6975
3787	0.6986
3796	0.7
