Infrared Spectrum: Pseudourea, 2-[2-(1-adamantylamino)ethyl]-2-thio-, dihydrobromide
Formula: C13 H25 Br2 N3 S
State: SOLID (1 mg / 650 mg KBr DISC)
Class: COBLENTZ III
Instrument: PERKIN-ELMER 521 (GRATING)
Instrument parameters: FILTERS AT 3150, 2500, 2000, 1150, 700, 410. GRATING CHANGES: 2000, 630
Sampling: TRANSMISSION
Resolution: 2
Origin: SOUTHERN RESEARCH INSTITUTE
1/CM	TRANSMITTANCE
261.483	0.3207
270.489	0.4098
279.496	0.4441
288.502	0.476
297.508	0.5225
306.515	0.6244
315.521	0.6676
324.527	0.6909
333.533	0.7131
342.54	0.7676
351.546	0.8013
360.552	0.8135
369.559	0.8411
378.565	0.8182
387.571	0.8002
396.578	0.7995
405.584	0.8642
414.59	0.878
423.596	0.8804
432.603	0.8756
441.609	0.8546
450.615	0.8246
459.622	0.7421
468.628	0.7378
477.634	0.8795
486.641	0.8863
495.647	0.8769
504.653	0.8778
513.659	0.8758
522.666	0.8684
531.672	0.8582
540.678	0.8494
549.685	0.8396
558.691	0.8275
567.697	0.8122
576.704	0.7837
585.71	0.7628
594.716	0.7805
603.722	0.7834
612.729	0.762
621.735	0.7319
630.741	0.6875
639.748	0.5928
648.754	0.519
657.76	0.5538
666.767	0.5526
675.773	0.3871
684.779	0.619
693.785	0.5291
702.792	0.4373
711.798	0.5635
720.804	0.7186
729.811	0.7894
738.817	0.7078
747.823	0.7905
756.83	0.802
765.836	0.7723
774.842	0.7716
783.848	0.8728
792.855	0.906
801.861	0.9002
810.867	0.8961
819.874	0.9127
828.88	0.9121
837.886	0.9104
846.893	0.9045
855.899	0.882
864.905	0.8596
873.911	0.8896
882.918	0.8825
891.924	0.8902
900.93	0.8935
909.937	0.8966
918.943	0.8954
927.949	0.8533
936.956	0.8387
945.962	0.8793
954.968	0.8752
963.974	0.8624
972.981	0.7604
981.987	0.865
990.993	0.8641
1000	0.8533
1009.01	0.7784
1018.01	0.774
1027.02	0.7791
1036.02	0.8197
1045.03	0.7994
1054.04	0.6749
1063.04	0.6678
1072.05	0.7024
1081.06	0.6552
1090.06	0.6162
1099.07	0.7617
1108.08	0.7753
1117.08	0.8195
1126.09	0.8289
1135.09	0.8209
1144.1	0.804
1153.11	0.7553
1162.11	0.7719
1171.12	0.7782
1180.13	0.7599
1189.13	0.7512
1198.14	0.7396
1207.14	0.7583
1216.15	0.7533
1225.16	0.7108
1234.16	0.6179
1243.17	0.6916
1252.18	0.6855
1261.18	0.6632
1270.19	0.5879
1279.2	0.6045
1288.2	0.5754
1297.21	0.6226
1306.21	0.4206
1315.22	0.6596
1324.23	0.666
1333.23	0.6483
1342.24	0.5143
1351.25	0.3738
1360.25	0.4946
1369.26	0.5349
1378.26	0.613
1387.27	0.5839
1396.28	0.54
1405.28	0.3555
1414.29	0.3531
1423.3	0.4689
1432.3	0.4908
1441.31	0.4375
1450.31	0.425
1459.32	0.4896
1468.33	0.7131
1477.33	0.7569
1486.34	0.815
1495.35	0.8303
1504.35	0.8142
1513.36	0.7915
1522.37	0.7506
1531.37	0.6924
1540.38	0.6993
1549.38	0.7611
1558.39	0.7268
1567.4	0.4551
1576.4	0.7405
1585.41	0.7963
1594.42	0.7735
1603.42	0.7416
1612.43	0.6074
1621.43	0.2563
1630.44	0.3222
1639.45	0.4492
1648.45	0.1675
1657.46	0.2368
1666.47	0.6509
1675.47	0.8195
1684.48	0.8644
1693.48	0.8843
1702.49	0.8979
1711.5	0.9043
1720.5	0.8993
1729.51	0.8932
1738.52	0.8959
1747.52	0.9003
1756.53	0.8987
1765.54	0.8967
1774.54	0.898
1783.55	0.9031
1792.55	0.9043
1801.56	0.9038
1810.57	0.9025
1819.57	0.9007
1828.58	0.8985
1837.59	0.895
1846.59	0.89
1855.6	0.8811
1864.6	0.8748
1873.61	0.8817
1882.62	0.8895
1891.62	0.8886
1900.63	0.8866
1909.64	0.8843
1918.64	0.8818
1927.65	0.8789
1936.66	0.8755
1945.66	0.8677
1954.67	0.8348
1963.67	0.8599
1972.68	0.8781
1981.69	0.8778
1990.69	0.876
1999.7	0.8633
2008.71	0.8578
2017.71	0.8563
2026.72	0.8589
2035.72	0.8603
2044.73	0.8578
2053.74	0.8547
2062.74	0.8519
2071.75	0.8489
2080.76	0.8457
2089.76	0.8418
2098.77	0.8376
2107.77	0.8327
2116.78	0.8276
2125.79	0.8237
2134.79	0.8224
2143.8	0.8236
2152.81	0.8285
2161.81	0.832
2170.82	0.8306
2179.83	0.8289
2188.83	0.8269
2197.84	0.8253
2206.84	0.8228
2215.85	0.8192
2224.86	0.8141
2233.86	0.8126
2242.87	0.8126
2251.88	0.8099
2260.88	0.8066
2269.89	0.8
2278.89	0.7922
2287.9	0.789
2296.91	0.7848
2305.91	0.7764
2314.92	0.7655
2323.93	0.7527
2332.93	0.7396
2341.94	0.7389
2350.94	0.7421
2359.95	0.7422
2368.96	0.7294
2377.96	0.7072
2386.97	0.7225
2395.98	0.7116
2404.98	0.6847
2413.99	0.6101
2423	0.5403
2432	0.6954
2441.01	0.7298
2450.01	0.7297
2459.02	0.7278
2468.03	0.7074
2477.03	0.7067
2486.04	0.7064
2495.05	0.6968
2504.05	0.6842
2513.06	0.6796
2522.06	0.6758
2531.07	0.669
2540.08	0.6583
2549.08	0.6399
2558.09	0.6179
2567.1	0.5938
2576.1	0.5628
2585.11	0.5398
2594.12	0.5145
2603.12	0.5194
2612.13	0.5103
2621.13	0.5068
2630.14	0.5252
2639.15	0.5252
2648.15	0.4949
2657.16	0.459
2666.17	0.4231
2675.17	0.3872
2684.18	0.3574
2693.18	0.3405
2702.19	0.3471
2711.2	0.342
2720.2	0.3158
2729.21	0.3043
2738.22	0.287
2747.22	0.2603
2756.23	0.2569
2765.23	0.2436
2774.24	0.2692
2783.25	0.2598
2792.25	0.2663
2801.26	0.2944
2810.27	0.3104
2819.27	0.3028
2828.28	0.2466
2837.29	0.2349
2846.29	0.1894
2855.3	0.2098
2864.3	0.2902
2873.31	0.306
2882.32	0.2492
2891.32	0.1615
2900.33	0.0964
2909.34	0.1422
2918.34	0.1592
2927.35	0.1586
2936.35	0.158
2945.36	0.1808
2954.37	0.1651
2963.37	0.1644
2972.38	0.1671
2981.39	0.1674
2990.39	0.1576
2999.4	0.1398
3008.4	0.1225
3017.41	0.1246
3026.42	0.1417
3035.42	0.1646
3044.43	0.2091
3053.44	0.2309
3062.44	0.2387
3071.45	0.2491
3080.46	0.2739
3089.46	0.2907
3098.47	0.3038
3107.47	0.2976
3116.48	0.2789
3125.49	0.2528
3134.49	0.2548
3143.5	0.2735
3152.51	0.2751
3161.51	0.2668
3170.52	0.2479
3179.52	0.2284
3188.53	0.2328
3197.54	0.2388
3206.54	0.2403
3215.55	0.2478
3224.56	0.2696
3233.56	0.2908
3242.57	0.3018
3251.58	0.3104
3260.58	0.3282
3269.59	0.3284
3278.59	0.3384
3287.6	0.3524
3296.61	0.3365
3305.61	0.3091
3314.62	0.2862
3323.63	0.2747
3332.63	0.3026
3341.64	0.3789
3350.64	0.4532
3359.65	0.5122
3368.66	0.5785
3377.66	0.6297
3386.67	0.675
3395.68	0.7127
3404.68	0.7282
3413.69	0.7406
3422.69	0.7532
3431.7	0.763
3440.71	0.7724
3449.71	0.7809
3458.72	0.7871
3467.73	0.7915
3476.73	0.7955
3485.74	0.7997
3494.75	0.8047
3503.75	0.8094
3512.76	0.8136
3521.76	0.8178
3530.77	0.8217
3539.78	0.8256
3548.78	0.8295
3557.79	0.8334
3566.8	0.838
3575.8	0.8431
3584.81	0.8471
3593.81	0.8504
3602.82	0.8536
3611.83	0.8584
3620.83	0.8613
3629.84	0.8648
3638.85	0.8683
3647.85	0.8709
3656.86	0.8712
3665.86	0.8695
3674.87	0.8666
3683.88	0.864
3692.88	0.8623
3701.89	0.8614
3710.9	0.8613
3719.9	0.8618
3728.91	0.861
3737.92	0.8575
3746.92	0.8569
3755.93	0.8578
3764.93	0.8585
3773.94	0.858
3782.95	0.857
3791.95	0.8559
3800.96	0.8547
3809.97	0.8535
3818.97	0.852
3827.98	0.8474
3836.98	0.8442
3845.99	0.8425
3855	0.8408
