Infrared Spectrum: SODIUM CELLULOSE SULFATE
Formula: C12 H18 Na2 O16 S2 X2
State: SOLID (KBr PELLET)
Class: COBLENTZ
Instrument: Not specified, most likely a prism, grating, or hybrid spectrometer.
Sampling: TRANSMISSION
Resolution: 4
Origin: WYANDOTTE CHEMICALS CORP., WYANDOTTE, MICHIGAN, USA
MICROMETERS	TRANSMITTANCE
2.04	0.925
2.07972	0.92
2.11943	0.92
2.15915	0.921
2.19887	0.916
2.23858	0.91
2.2783	0.901
2.31802	0.896
2.35773	0.885
2.39745	0.868
2.43717	0.858
2.47688	0.845
2.5166	0.828
2.55632	0.815
2.59603	0.797
2.63575	0.773
2.67547	0.743
2.71518	0.698
2.7549	0.622
2.79462	0.5
2.83433	0.42
2.87405	0.341
2.91376	0.289
2.95348	0.259
2.9932	0.254
3.03291	0.259
3.07263	0.291
3.11235	0.342
3.15206	0.402
3.19178	0.487
3.2315	0.58
3.27121	0.668
3.31093	0.737
3.35065	0.75
3.39036	0.692
3.43008	0.645
3.4698	0.632
3.50951	0.652
3.54923	0.713
3.58895	0.78
3.62866	0.828
3.66838	0.851
3.7081	0.865
3.74781	0.88
3.78753	0.895
3.82725	0.901
3.86696	0.915
3.90668	0.92
3.9464	0.928
3.98611	0.933
4.02583	0.933
4.06555	0.93
4.10526	0.933
4.14498	0.933
4.1847	0.933
4.22441	0.933
4.26413	0.938
4.30385	0.94
4.34356	0.941
4.38328	0.935
4.423	0.926
4.46271	0.921
4.50243	0.916
4.54215	0.911
4.58186	0.91
4.62158	0.908
4.66129	0.906
4.70101	0.903
4.74073	0.896
4.78044	0.876
4.82016	0.873
4.85988	0.873
4.89959	0.87
4.93931	0.866
4.97903	0.866
5.01874	0.865
5.05846	0.865
5.09818	0.865
5.13789	0.863
5.17761	0.86
5.21733	0.858
5.25704	0.858
5.29676	0.855
5.33648	0.85
5.37619	0.846
5.41591	0.843
5.45563	0.84
5.49534	0.823
5.53506	0.813
5.57478	0.805
5.61449	0.793
5.65421	0.788
5.69393	0.773
5.73364	0.752
5.77336	0.737
5.81308	0.717
5.85279	0.697
5.89251	0.687
5.93223	0.658
5.97194	0.617
6.01166	0.572
6.05138	0.544
6.09109	0.53
6.13081	0.542
6.17053	0.589
6.21024	0.623
6.24996	0.653
6.28967	0.667
6.32939	0.667
6.36911	0.662
6.40882	0.655
6.44854	0.653
6.48826	0.643
6.52797	0.63
6.56769	0.612
6.60741	0.602
6.64712	0.587
6.68684	0.562
6.72656	0.537
6.76627	0.509
6.80599	0.497
6.84571	0.485
6.88542	0.48
6.92514	0.477
6.96486	0.472
7.00457	0.462
7.04429	0.457
7.08401	0.452
7.12372	0.44
7.16344	0.444
7.20316	0.44
7.24287	0.44
7.28259	0.442
7.32231	0.452
7.36202	0.454
7.40174	0.455
7.44146	0.454
7.48117	0.442
7.52089	0.44
7.56061	0.43
7.60032	0.425
7.64004	0.409
7.67976	0.389
7.71947	0.382
7.75919	0.352
7.79891	0.329
7.83862	0.309
7.87834	0.287
7.91805	0.286
7.95777	0.281
7.99749	0.277
8.0372	0.279
8.07692	0.279
8.11664	0.281
8.15635	0.294
8.19607	0.306
8.23579	0.322
8.2755	0.349
8.31522	0.362
8.35494	0.397
8.39465	0.419
8.43437	0.42
8.47409	0.405
8.5138	0.371
8.55352	0.342
8.59324	0.326
8.63295	0.319
8.67267	0.312
8.71239	0.312
8.7521	0.309
8.79182	0.291
8.83154	0.271
8.87125	0.261
8.91097	0.251
8.95069	0.244
8.9904	0.237
9.03012	0.239
9.06984	0.231
9.10955	0.221
9.14927	0.216
9.18899	0.207
9.2287	0.198
9.26842	0.181
9.30814	0.173
9.34785	0.166
9.38757	0.156
9.42729	0.159
9.467	0.164
9.50672	0.171
9.54644	0.173
9.58615	0.176
9.62587	0.193
9.66558	0.196
9.7053	0.196
9.74502	0.198
9.78473	0.194
9.82445	0.196
9.86417	0.206
9.90388	0.214
9.9436	0.214
9.98332	0.219
10.023	0.222
10.0628	0.227
10.1025	0.232
10.1422	0.241
10.1819	0.256
10.2216	0.271
10.2613	0.292
10.3011	0.314
10.3408	0.334
10.3805	0.349
10.4202	0.369
10.4599	0.394
10.4996	0.405
10.5393	0.427
10.5791	0.439
10.6188	0.452
10.6585	0.455
10.6982	0.459
10.7379	0.467
10.7776	0.474
10.8174	0.479
10.8571	0.49
10.8968	0.502
10.9365	0.507
10.9762	0.519
11.0159	0.527
11.0557	0.53
11.0954	0.532
11.1351	0.532
11.1748	0.535
11.2145	0.54
11.2542	0.56
11.294	0.58
11.3337	0.597
11.3734	0.622
11.4131	0.642
11.4528	0.652
11.4925	0.67
11.5323	0.693
11.572	0.702
11.6117	0.71
11.6514	0.72
11.6911	0.727
11.7308	0.732
11.7706	0.738
11.8103	0.738
11.85	0.727
11.8897	0.712
11.9294	0.687
11.9691	0.662
12.0089	0.63
12.0486	0.612
12.0883	0.587
12.128	0.567
12.1677	0.55
12.2074	0.527
12.2472	0.519
12.2869	0.519
12.3266	0.519
12.3663	0.514
12.406	0.514
12.4457	0.519
12.4855	0.522
12.5252	0.524
12.5649	0.535
12.6046	0.539
12.6443	0.547
12.684	0.552
12.7238	0.57
12.7635	0.577
12.8032	0.587
12.8429	0.589
12.8826	0.594
12.9223	0.595
12.9621	0.599
13.0018	0.6
13.0415	0.6
13.0812	0.6
13.1209	0.6
13.1606	0.6
13.2004	0.602
13.2401	0.61
13.2798	0.613
13.3195	0.62
13.3592	0.63
13.3989	0.632
13.4387	0.637
13.4784	0.643
13.5181	0.65
13.5578	0.652
13.5975	0.652
13.6372	0.653
13.677	0.655
13.7167	0.658
13.7564	0.658
13.7961	0.657
13.8358	0.657
13.8755	0.655
13.9153	0.655
13.955	0.653
13.9947	0.652
14.0344	0.648
14.0741	0.645
14.1138	0.638
14.1536	0.628
14.1933	0.618
14.233	0.615
14.2727	0.595
14.3124	0.599
14.3521	0.597
14.3919	0.597
14.4316	0.589
14.4713	0.584
14.511	0.584
14.5507	0.585
14.5904	0.59
14.6302	0.602
14.6699	0.602
14.7096	0.599
14.7493	0.6
14.789	0.599
14.8287	0.605
14.8685	0.605
14.9082	0.587
14.9479	0.589
14.9876	0.589
15.0273	0.584
15.067	0.584
15.1068	0.582
15.1465	0.58
15.1862	0.582
15.2259	0.582
15.2656	0.58
15.3053	0.582
15.3451	0.58
15.3848	0.579
15.4245	0.574
15.4642	0.575
15.5039	0.579
15.5436	0.579
15.5834	0.58
15.6231	0.577
15.6628	0.577
15.7025	0.574
15.7422	0.572
15.7819	0.567
15.8217	0.567
15.8614	0.569
15.9011	0.569
15.9408	0.567
15.9805	0.569
