Infrared Spectrum: Acridan, 10-(3-dimethylaminopropyl)-, maleate (1 to 1)
Formula: C22 H26 N2 O4
State: SOLID (NUJOL MULL)
Class: COBLENTZ III
Instrument: PERKIN-ELMER 21 (GRATING)
Instrument parameters: NaCl PRISM
Sampling: TRANSMISSION
Resolution: 2
Origin: SMITH KLINE & FRENCH LABS.
1/CM	TRANSMITTANCE
666	0.6163
675	0.6603
684	0.688
693	0.6691
702	0.6906
711	0.6825
720	0.6833
729	0.6807
738	0.6374
747	0.2785
756	0.371
765	0.651
774	0.6789
783	0.7512
792	0.7382
801	0.7379
810	0.7553
819	0.7471
828	0.7427
837	0.7218
846	0.7111
855	0.6893
864	0.5031
873	0.5759
882	0.6284
891	0.6992
900	0.6951
909	0.6464
918	0.6809
927	0.6661
936	0.656
945	0.6426
954	0.5839
963	0.5644
972	0.6401
981	0.643
990	0.6363
999	0.6018
1008	0.609
1017	0.5675
1026	0.5244
1035	0.5471
1044	0.484
1053	0.5251
1062	0.5001
1071	0.4783
1080	0.4674
1089	0.4486
1098	0.4401
1107	0.4557
1116	0.4581
1125	0.4589
1134	0.462
1143	0.4652
1152	0.4053
1161	0.4572
1170	0.4373
1179	0.4982
1188	0.5038
1197	0.4917
1206	0.4705
1215	0.5049
1224	0.5343
1233	0.4903
1242	0.5456
1251	0.4394
1260	0.5027
1269	0.4541
1278	0.3788
1287	0.5398
1296	0.5163
1305	0.5287
1314	0.5393
1323	0.4831
1332	0.465
1341	0.3661
1350	0.173
1359	0.1922
1368	0.1306
1377	0.243
1386	0.4292
1395	0.5067
1404	0.486
1413	0.4319
1422	0.333
1431	0.2328
1440	0.1187
1449	0.0605
1458	0.0329
1467	0.0521
1476	0.0763
1485	0.2046
1494	0.2673
1503	0.3286
1512	0.3743
1521	0.4026
1530	0.3977
1539	0.4094
1548	0.4078
1557	0.395
1566	0.4002
1575	0.415
1584	0.3512
1593	0.4116
1602	0.4574
1611	0.4152
1620	0.4835
1629	0.5845
1638	0.6317
1647	0.6616
1656	0.6618
1665	0.6539
1674	0.6153
1683	0.563
1692	0.5373
1701	0.5455
1710	0.6278
1719	0.6627
1728	0.7086
1737	0.725
1746	0.726
1755	0.7245
1764	0.7209
1773	0.7174
1782	0.7136
1791	0.7095
1800	0.7056
1809	0.7025
1818	0.701
1827	0.7019
1836	0.703
1845	0.7004
1854	0.6922
1863	0.6857
1872	0.6803
1881	0.6759
1890	0.6731
1899	0.6693
1908	0.6654
1917	0.6649
1926	0.6716
1935	0.6778
1944	0.6796
1953	0.6768
1962	0.6724
1971	0.6668
1980	0.6609
1989	0.6671
1998	0.673
2007	0.6764
2016	0.6774
2025	0.6755
2034	0.6712
2043	0.6706
2052	0.6704
2061	0.6686
2070	0.6673
2079	0.6682
2088	0.6717
2097	0.6701
2106	0.6665
2115	0.6628
2124	0.6589
2133	0.655
2142	0.6522
2151	0.6504
2160	0.6493
2169	0.6482
2178	0.6463
2187	0.6407
2196	0.6318
2205	0.6245
2214	0.6192
2223	0.6149
2232	0.6104
2241	0.604
2250	0.5976
2259	0.5893
2268	0.5802
2277	0.5712
2286	0.5622
2295	0.5533
2304	0.5444
2313	0.5357
2322	0.5294
2331	0.5267
2340	0.5252
2349	0.5282
2358	0.5305
2367	0.5286
2376	0.5264
2385	0.5247
2394	0.5247
2403	0.5292
2412	0.5317
2421	0.531
2430	0.5298
2439	0.5293
2448	0.5289
2457	0.5321
2466	0.5325
2475	0.5252
2484	0.529
2493	0.5352
2502	0.5416
2511	0.5493
2520	0.5541
2529	0.5553
2538	0.5554
2547	0.5546
2556	0.5454
2565	0.5356
2574	0.5317
2583	0.5293
2592	0.5275
2601	0.5267
2610	0.5274
2619	0.5275
2628	0.5266
2637	0.5221
2646	0.5211
2655	0.5219
2664	0.5248
2673	0.5304
2682	0.5389
2691	0.5484
2700	0.5565
2709	0.5633
2718	0.5674
2727	0.5688
2736	0.5665
2745	0.559
2754	0.5466
2763	0.5257
2772	0.4902
2781	0.4464
2790	0.3722
2799	0.2921
2808	0.2124
2817	0.1332
2826	0.0614
2835	0.0529
2844	0.0539
2853	0.0533
2862	0.0451
2871	0.0355
2880	0.0268
2889	0.023
2898	0.0236
2907	0.0263
2916	0.0308
2925	0.0385
2934	0.0693
2943	0.1349
2952	0.2227
2961	0.3099
2970	0.3898
2979	0.4433
2988	0.4547
2997	0.4653
3006	0.4753
3015	0.4851
3024	0.4966
3033	0.5109
3042	0.523
3051	0.533
3060	0.5424
3069	0.548
3078	0.5536
3087	0.5575
3096	0.5575
3105	0.5565
3114	0.5551
3123	0.5528
3132	0.5508
3141	0.5495
3150	0.5483
3159	0.5477
3168	0.5473
3177	0.5474
3186	0.5476
3195	0.548
3204	0.5486
3213	0.5498
3222	0.5509
3231	0.5518
3240	0.5503
3249	0.5482
3258	0.5461
3267	0.5442
3276	0.5422
3285	0.5403
3294	0.5391
3303	0.5383
3312	0.5374
3321	0.5365
3330	0.5358
3339	0.5369
3348	0.5382
3357	0.5394
3366	0.5405
3375	0.5416
3384	0.5428
3393	0.5438
3402	0.5449
3411	0.546
3420	0.5471
3429	0.5481
3438	0.5488
3447	0.5494
3456	0.55
3465	0.5507
3474	0.5513
3483	0.5519
3492	0.5524
3501	0.5528
3510	0.5532
3519	0.5537
3528	0.5541
3537	0.5545
3546	0.5549
3555	0.5552
3564	0.5552
3573	0.5552
3582	0.5552
3591	0.555
3600	0.5547
3609	0.5544
3618	0.554
3627	0.5535
3636	0.5524
3645	0.5514
3654	0.5503
3663	0.5493
3672	0.5482
3681	0.5472
3690	0.5462
3699	0.5452
3708	0.5441
3717	0.5431
3726	0.5419
3735	0.54
3744	0.538
3753	0.5361
3762	0.5342
3771	0.5315
3780	0.5281
3789	0.5253
3798	0.5254
3807	0.5254
3816	0.5255
3825	0.5262
3834	0.5269
3843	0.5277
3852	0.5284
3861	0.5292
3870	0.5296
3879	0.5295
3888	0.5294
3897	0.5291
3906	0.5283
3915	0.5271
3924	0.5259
3933	0.5246
3942	0.523
3951	0.5213
3960	0.5196
3969	0.5179
3978	0.5163
3987	0.5147
3996	0.513
