Infrared Spectrum: Aniline, 2,4-di-tert-butyl-5-methyl-
Formula: C15 H25 N
State: SOLID (MELT)
Class: COBLENTZ III
Instrument: BECKMAN IR-4 (HYBRID PRISM-GRATING)
Instrument parameters: NaCl PRISM
Sampling: TRANSMISSION
Path length: CAPILLARY
Resolution: 2
Origin: MONSANTO (J. FREEMAN)
1/CM	TRANSMITTANCE
624.436	0.5264
633.272	0.5138
642.108	0.4906
650.945	0.4888
659.781	0.5145
668.617	0.5359
677.453	0.6123
686.289	0.5994
695.126	0.6058
703.962	0.6259
712.798	0.666
721.634	0.6958
730.47	0.7181
739.307	0.6991
748.143	0.7062
756.979	0.7216
765.815	0.7368
774.651	0.7534
783.488	0.7749
792.324	0.7891
801.16	0.7986
809.996	0.8087
818.832	0.7996
827.669	0.8039
836.505	0.6877
845.341	0.5537
854.177	0.47
863.013	0.6389
871.85	0.7435
880.686	0.5466
889.522	0.5666
898.358	0.793
907.194	0.8225
916.031	0.7869
924.867	0.7613
933.703	0.8341
942.539	0.8502
951.375	0.8529
960.212	0.8684
969.048	0.8693
977.884	0.8585
986.72	0.808
995.556	0.7699
1004.39	0.8045
1013.23	0.7578
1022.07	0.7446
1030.9	0.6655
1039.74	0.8046
1048.57	0.8653
1057.41	0.8693
1066.25	0.8619
1075.08	0.8362
1083.92	0.7734
1092.75	0.7655
1101.59	0.7801
1110.43	0.6454
1119.26	0.5161
1128.1	0.7567
1136.94	0.83
1145.77	0.8521
1154.61	0.852
1163.44	0.835
1172.28	0.7563
1181.12	0.6461
1189.95	0.3576
1198.79	0.4279
1207.63	0.6035
1216.46	0.769
1225.3	0.7341
1234.13	0.5766
1242.97	0.239
1251.81	0.3744
1260.64	0.5505
1269.48	0.3852
1278.31	0.245
1287.15	0.5566
1295.99	0.7517
1304.82	0.8129
1313.66	0.8189
1322.5	0.8161
1331.33	0.8364
1340.17	0.8316
1349	0.791
1357.84	0.489
1366.68	0.2636
1375.51	0.4747
1384.35	0.4393
1393.19	0.3037
1402.02	0.2041
1410.86	0.5828
1419.69	0.6284
1428.53	0.6001
1437.37	0.5038
1446.2	0.4317
1455.04	0.3436
1463.88	0.2887
1472.71	0.2469
1481.55	0.2678
1490.38	0.4336
1499.22	0.3599
1508.06	0.2076
1516.89	0.2925
1525.73	0.4924
1534.56	0.6202
1543.4	0.604
1552.24	0.4671
1561.07	0.4636
1569.91	0.619
1578.75	0.7136
1587.58	0.6335
1596.42	0.4844
1605.25	0.3369
1614.09	0.191
1622.93	0.1541
1631.76	0.3266
1640.6	0.5262
1649.44	0.6069
1658.27	0.7334
1667.11	0.7812
1675.94	0.8013
1684.78	0.8118
1693.62	0.8229
1702.45	0.8289
1711.29	0.8309
1720.13	0.831
1728.96	0.8441
1737.8	0.8493
1746.63	0.8498
1755.47	0.8478
1764.31	0.8403
1773.14	0.8242
1781.98	0.8103
1790.81	0.8214
1799.65	0.8363
1808.49	0.8379
1817.32	0.8378
1826.16	0.8373
1835	0.8367
1843.83	0.8354
1852.67	0.8331
1861.5	0.8302
1870.34	0.8268
1879.18	0.8229
1888.01	0.8204
1896.85	0.819
1905.69	0.8175
1914.52	0.8155
1923.36	0.8135
1932.19	0.8118
1941.03	0.8116
1949.87	0.8113
1958.7	0.8115
1967.54	0.8114
1976.37	0.8105
1985.21	0.8087
1994.05	0.8072
2002.88	0.8057
2011.72	0.8041
2020.56	0.8024
2029.39	0.8003
2038.23	0.7983
2047.06	0.7961
2055.9	0.7939
2064.74	0.7916
2073.57	0.7888
2082.41	0.7858
2091.25	0.7842
2100.08	0.7827
2108.92	0.7812
2117.75	0.7797
2126.59	0.7789
2135.43	0.7782
2144.26	0.7781
2153.1	0.7779
2161.94	0.7778
2170.77	0.7773
2179.61	0.7755
2188.44	0.7736
2197.28	0.771
2206.12	0.7696
2214.95	0.7684
2223.79	0.7684
2232.62	0.7689
2241.46	0.7697
2250.3	0.7704
2259.13	0.771
2267.97	0.7707
2276.81	0.7675
2285.64	0.7621
2294.48	0.7557
2303.31	0.7507
2312.15	0.7495
2320.99	0.7488
2329.82	0.7477
2338.66	0.7467
2347.5	0.7461
2356.33	0.7454
2365.17	0.7448
2374	0.7438
2382.84	0.7432
2391.68	0.7463
2400.51	0.7486
2409.35	0.7492
2418.19	0.7492
2427.02	0.7492
2435.86	0.7491
2444.69	0.749
2453.53	0.7489
2462.37	0.7488
2471.2	0.7487
2480.04	0.7481
2488.87	0.7473
2497.71	0.7467
2506.55	0.7458
2515.38	0.7445
2524.22	0.7431
2533.06	0.7409
2541.89	0.7382
2550.73	0.7348
2559.56	0.731
2568.4	0.7279
2577.24	0.7265
2586.07	0.7271
2594.91	0.7288
2603.75	0.7305
2612.58	0.73
2621.42	0.7289
2630.25	0.7274
2639.09	0.726
2647.93	0.7246
2656.76	0.7233
2665.6	0.7221
2674.43	0.721
2683.27	0.7196
2692.11	0.718
2700.94	0.7164
2709.78	0.7137
2718.62	0.7095
2727.45	0.7035
2736.29	0.6968
2745.12	0.6919
2753.96	0.6889
2762.8	0.6875
2771.63	0.6867
2780.47	0.6859
2789.31	0.6838
2798.14	0.6778
2806.98	0.6687
2815.81	0.6549
2824.65	0.6402
2833.49	0.6208
2842.32	0.5954
2851.16	0.5387
2860	0.3048
2868.83	0.1785
2877.67	0.1745
2886.5	0.1715
2895.34	0.1691
2904.18	0.1654
2913.01	0.1547
2921.85	0.1383
2930.68	0.0891
2939.52	0.0692
2948.36	0.0572
2957.19	0.0531
2966.03	0.0536
2974.87	0.089
2983.7	0.16
2992.54	0.2304
3001.37	0.3005
3010.21	0.3701
3019.05	0.4897
3027.88	0.5148
3036.72	0.5417
3045.56	0.5711
3054.39	0.5969
3063.23	0.617
3072.06	0.6304
3080.9	0.6434
3089.74	0.656
3098.57	0.6631
3107.41	0.665
3116.25	0.6645
3125.08	0.6613
3133.92	0.6537
3142.75	0.6498
3151.59	0.65
3160.43	0.6515
3169.26	0.6592
3178.1	0.6683
3186.93	0.6715
3195.77	0.6727
3204.61	0.6739
3213.44	0.6754
3222.28	0.6769
3231.12	0.6794
3239.95	0.6846
3248.79	0.6903
3257.62	0.6914
3266.46	0.6912
3275.3	0.6908
3284.13	0.6901
3292.97	0.6895
3301.81	0.6881
3310.64	0.6864
3319.48	0.6834
3328.31	0.6771
3337.15	0.6682
3345.99	0.6311
3354.82	0.5723
3363.66	0.5137
3372.49	0.4555
3381.33	0.4144
3390.17	0.4137
3399	0.4471
3407.84	0.4891
3416.68	0.5308
3425.51	0.5723
3434.35	0.6136
3443.18	0.6414
3452.02	0.6421
3460.86	0.6
3469.69	0.5478
3478.53	0.4992
3487.37	0.4868
3496.2	0.4892
3505.04	0.5264
3513.87	0.5645
3522.71	0.6025
3531.55	0.6405
3540.38	0.6694
3549.22	0.6786
3558.06	0.6824
3566.89	0.6857
3575.73	0.688
3584.56	0.6901
3593.4	0.6918
3602.24	0.6933
3611.07	0.6948
3619.91	0.6955
3628.74	0.6961
3637.58	0.6966
3646.42	0.6971
3655.25	0.6976
3664.09	0.6979
3672.93	0.6982
3681.76	0.6985
3690.6	0.6986
3699.43	0.6988
3708.27	0.6987
3717.11	0.6985
3725.94	0.6984
3734.78	0.6981
3743.62	0.6979
3752.45	0.6977
3761.29	0.6973
3770.12	0.697
3778.96	0.6967
3787.8	0.6964
3796.63	0.6961
3805.47	0.6957
3814.3	0.6954
3823.14	0.695
3831.98	0.6946
3840.81	0.6941
3849.65	0.6938
3858.49	0.6933
3867.32	0.6929
3876.16	0.6926
3884.99	0.6921
3893.83	0.6917
3902.67	0.6913
3911.5	0.6909
3920.34	0.6906
3929.18	0.6902
