Infrared Spectrum: Hydroxylamine, N-ethyl-, hydrochloride
Formula: C2 H8 Cl N O
State: LIQUID (NEAT)
Class: COBLENTZ III
Instrument: BECKMAN IR-9 (GRATING)
Instrument parameters: ORDER CHANGES: 670, 1200, 2000 CM^-^1
Sampling: TRANSMISSION
Path length: CAPILLARY
Resolution: 2
Origin: DOW CHEMICAL COMPANY
1/CM	TRANSMITTANCE
3800	0.8749
3791	0.8755
3782	0.8764
3773	0.8768
3764	0.8764
3755	0.8761
3746	0.8759
3737	0.876
3728	0.8761
3719	0.8759
3710	0.8751
3701	0.8732
3692	0.8695
3683	0.8657
3674	0.8613
3665	0.8558
3656	0.8492
3647	0.8397
3638	0.8271
3629	0.8141
3620	0.7987
3611	0.783
3602	0.7675
3593	0.7548
3584	0.7421
3575	0.7274
3566	0.7125
3557	0.6989
3548	0.6855
3539	0.6725
3530	0.6592
3521	0.6443
3512	0.6291
3503	0.6141
3494	0.6008
3485	0.5875
3476	0.5749
3467	0.5627
3458	0.5519
3449	0.543
3440	0.5342
3431	0.5275
3422	0.5208
3413	0.5147
3404	0.5092
3395	0.5062
3386	0.5062
3377	0.507
3368	0.5071
3359	0.5071
3350	0.5071
3341	0.5066
3332	0.5062
3323	0.5053
3314	0.5032
3305	0.5004
3296	0.4927
3287	0.4833
3278	0.473
3269	0.4587
3260	0.4437
3251	0.4267
3242	0.4084
3233	0.3884
3224	0.3666
3215	0.3418
3206	0.3144
3197	0.2914
3188	0.2718
3179	0.2537
3170	0.2335
3161	0.2122
3152	0.1896
3143	0.1694
3134	0.1505
3125	0.1356
3116	0.1232
3107	0.1174
3098	0.1149
3089	0.1134
3080	0.112
3071	0.1107
3062	0.1094
3053	0.1066
3044	0.0995
3035	0.085
3026	0.0728
3017	0.0621
3008	0.0526
2999	0.0437
2990	0.0421
2981	0.041
2972	0.0406
2963	0.0399
2954	0.039
2945	0.0389
2936	0.0423
2927	0.0471
2918	0.0523
2909	0.0579
2900	0.0629
2891	0.0639
2882	0.066
2873	0.0706
2864	0.0728
2855	0.0728
2846	0.0726
2837	0.0724
2828	0.0722
2819	0.072
2810	0.0728
2801	0.0743
2792	0.0774
2783	0.0826
2774	0.0874
2765	0.0887
2756	0.0893
2747	0.0896
2738	0.09
2729	0.09
2720	0.091
2711	0.0922
2702	0.0945
2693	0.0984
2684	0.1061
2675	0.1205
2666	0.147
2657	0.1712
2648	0.1961
2639	0.2225
2630	0.256
2621	0.2965
2612	0.3409
2603	0.3839
2594	0.424
2585	0.4453
2576	0.4631
2567	0.4801
2558	0.4844
2549	0.4847
2540	0.4693
2531	0.4387
2522	0.4012
2513	0.367
2504	0.362
2495	0.3698
2486	0.403
2477	0.4423
2468	0.4933
2459	0.5304
2450	0.5631
2441	0.5888
2432	0.612
2423	0.6326
2414	0.6495
2405	0.6655
2396	0.6778
2387	0.6931
2378	0.7107
2369	0.7675
2360	0.7858
2351	0.7915
2342	0.8044
2333	0.8096
2324	0.8121
2315	0.8148
2306	0.8182
2297	0.8216
2288	0.8264
2279	0.8313
2270	0.8373
2261	0.8404
2252	0.8428
2243	0.846
2234	0.85
2225	0.8547
2216	0.86
2207	0.8628
2198	0.8656
2189	0.868
2180	0.8694
2171	0.8701
2162	0.8705
2153	0.8686
2144	0.8667
2135	0.8645
2126	0.8623
2117	0.86
2108	0.8585
2099	0.857
2090	0.8564
2081	0.8558
2072	0.8571
2063	0.8589
2054	0.8606
2045	0.8616
2036	0.8627
2027	0.8637
2018	0.8651
2009	0.8668
2000	0.8689
1991	0.8712
1982	0.8716
1973	0.8682
1964	0.8628
1955	0.8588
1946	0.8566
1937	0.8559
1928	0.8558
1919	0.8568
1910	0.8588
1901	0.8608
1892	0.8617
1883	0.8625
1874	0.8616
1865	0.8597
1856	0.8596
1847	0.8608
1838	0.8611
1829	0.8613
1820	0.8615
1811	0.8618
1802	0.8621
1793	0.8624
1784	0.8611
1775	0.8599
1766	0.8586
1757	0.8566
1748	0.8544
1739	0.8521
1730	0.8492
1721	0.8455
1712	0.8404
1703	0.8342
1694	0.828
1685	0.8193
1676	0.8081
1667	0.795
1658	0.7769
1649	0.7557
1640	0.7248
1631	0.7037
1622	0.6897
1613	0.6738
1604	0.6385
1595	0.5751
1586	0.5504
1577	0.5726
1568	0.5992
1559	0.6259
1550	0.6265
1541	0.6156
1532	0.5974
1523	0.5681
1514	0.5381
1505	0.5331
1496	0.5393
1487	0.5439
1478	0.5126
1469	0.4571
1460	0.412
1451	0.4034
1442	0.4358
1433	0.52
1424	0.5412
1415	0.526
1406	0.4987
1397	0.5123
1388	0.5207
1379	0.5712
1370	0.6685
1361	0.7012
1352	0.7015
1343	0.6744
1334	0.6661
1325	0.6762
1316	0.696
1307	0.7162
1298	0.7308
1289	0.7167
1280	0.6865
1271	0.7075
1262	0.7495
1253	0.7728
1244	0.7815
1235	0.7858
1226	0.7881
1217	0.7891
1208	0.7876
1199	0.7775
1190	0.7636
1181	0.7496
1172	0.7362
1163	0.7335
1154	0.7468
1145	0.7618
1136	0.7451
1127	0.6762
1118	0.7035
1109	0.7784
1100	0.794
1091	0.7958
1082	0.7955
1073	0.7933
1064	0.7708
1055	0.6725
1046	0.6398
1037	0.7108
1028	0.7525
1019	0.7561
1010	0.7028
1001	0.6896
992	0.7862
983	0.7798
974	0.7061
965	0.5444
956	0.7258
947	0.7574
938	0.7685
929	0.7799
920	0.7907
911	0.8037
902	0.8151
893	0.8224
884	0.8111
875	0.7751
866	0.789
857	0.7611
848	0.7971
839	0.8255
830	0.8277
821	0.8135
812	0.7647
803	0.6978
794	0.7041
785	0.7815
776	0.8206
767	0.8253
758	0.8235
749	0.8211
740	0.819
731	0.8161
722	0.8128
713	0.8042
704	0.7947
695	0.7828
686	0.7707
677	0.7572
668	0.7432
659	0.7289
650	0.7132
641	0.7001
632	0.6869
623	0.6737
614	0.6621
605	0.6553
596	0.6512
587	0.6475
578	0.6481
569	0.6507
560	0.6542
551	0.6571
542	0.6575
533	0.6576
524	0.6539
515	0.6264
506	0.5843
497	0.601
488	0.6375
479	0.655
470	0.6219
461	0.5881
452	0.6097
443	0.5921
434	0.5643
425	0.5391
416	0.5337
407	0.5599
