Infrared Spectrum: SILICONE FLUID 550
Formula: C14 H16 O2 Si2 X2
State: LIQUID
Class: COBLENTZ
Instrument: Not specified, most likely a prism, grating, or hybrid spectrometer.
Sampling: TRANSMISSION
Path length: CAPILLARY
Resolution: 4
Origin: WYANDOTTE CHEMICALS CORP., WYANDOTTE, MICHIGAN, USA
MICROMETERS	TRANSMITTANCE
2.019	0.93
2.05622	0.931
2.09343	0.934
2.13065	0.939
2.16786	0.937
2.20508	0.936
2.2423	0.94
2.27951	0.948
2.31673	0.953
2.35394	0.95
2.39116	0.948
2.42838	0.956
2.46559	0.956
2.50281	0.965
2.54002	0.972
2.57724	0.976
2.61446	0.964
2.65167	0.97
2.68889	0.968
2.7261	0.967
2.76332	0.97
2.80054	0.967
2.83775	0.959
2.87497	0.94
2.91218	0.937
2.9494	0.936
2.98662	0.936
3.02383	0.936
3.06105	0.934
3.09826	0.931
3.13548	0.927
3.1727	0.899
3.20991	0.878
3.24713	0.801
3.28434	0.759
3.32156	0.768
3.35877	0.63
3.39599	0.759
3.43321	0.801
3.47042	0.83
3.50764	0.854
3.54485	0.868
3.58207	0.889
3.61929	0.902
3.6565	0.908
3.69372	0.913
3.73093	0.919
3.76815	0.928
3.80537	0.934
3.84258	0.934
3.8798	0.934
3.91701	0.942
3.95423	0.948
3.99145	0.947
4.02866	0.945
4.06588	0.944
4.10309	0.945
4.14031	0.948
4.17753	0.948
4.21474	0.95
4.25196	0.947
4.28917	0.962
4.32639	0.967
4.36361	0.979
4.40082	0.973
4.43804	0.968
4.47525	0.965
4.51247	0.965
4.54969	0.967
4.5869	0.968
4.62412	0.968
4.66133	0.968
4.69855	0.97
4.73577	0.97
4.77298	0.972
4.8102	0.97
4.84741	0.972
4.88463	0.972
4.92185	0.972
4.95906	0.973
4.99628	0.975
5.03349	0.965
5.07071	0.961
5.10793	0.962
5.14514	0.954
5.18236	0.939
5.21957	0.958
5.25679	0.961
5.29401	0.958
5.33122	0.95
5.36844	0.951
5.40565	0.968
5.44287	0.964
5.48009	0.961
5.5173	0.948
5.55452	0.944
5.59173	0.959
5.62895	0.956
5.66617	0.942
5.70338	0.945
5.7406	0.95
5.77781	0.947
5.81503	0.945
5.85225	0.93
5.88946	0.93
5.92668	0.913
5.96389	0.903
6.00111	0.9
6.03832	0.9
6.07554	0.889
6.11276	0.894
6.14997	0.891
6.18719	0.881
6.2244	0.855
6.26162	0.849
6.29884	0.886
6.33605	0.903
6.37327	0.903
6.41048	0.902
6.4477	0.905
6.48492	0.9
6.52213	0.902
6.55935	0.902
6.59656	0.903
6.63378	0.908
6.671	0.889
6.70821	0.878
6.74543	0.889
6.78264	0.875
6.81986	0.868
6.85708	0.861
6.89429	0.855
6.93151	0.847
6.96872	0.686
7.00594	0.76
7.04316	0.81
7.08037	0.788
7.11759	0.813
7.1548	0.829
7.19202	0.86
7.22924	0.872
7.26645	0.874
7.30367	0.889
7.34088	0.897
7.3781	0.902
7.41532	0.899
7.45253	0.894
7.48975	0.891
7.52696	0.877
7.56418	0.864
7.6014	0.872
7.63861	0.861
7.67583	0.855
7.71304	0.857
7.75026	0.849
7.78748	0.822
7.82469	0.774
7.86191	0.625
7.89912	0.304
7.93634	0.2
7.97356	0.405
8.01077	0.627
8.04799	0.757
8.0852	0.813
8.12242	0.818
8.15964	0.822
8.19685	0.822
8.23407	0.821
8.27128	0.822
8.3085	0.826
8.34572	0.819
8.38293	0.813
8.42015	0.812
8.45736	0.818
8.49458	0.802
8.5318	0.785
8.56901	0.762
8.60623	0.718
8.64344	0.669
8.68066	0.642
8.71787	0.572
8.75509	0.478
8.79231	0.355
8.82952	0.234
8.86674	0.149
8.90395	0.163
8.94117	0.228
8.97839	0.22
9.0156	0.173
9.05282	0.144
9.09003	0.131
9.12725	0.131
9.16447	0.127
9.20168	0.13
9.2389	0.13
9.27611	0.133
9.31333	0.141
9.35055	0.15
9.38776	0.149
9.42498	0.152
9.46219	0.156
9.49941	0.158
9.53663	0.155
9.57384	0.155
9.61106	0.152
9.64827	0.145
9.68549	0.13
9.72271	0.122
9.75992	0.128
9.79714	0.13
9.83435	0.149
9.87157	0.19
9.90879	0.259
9.946	0.343
9.98322	0.428
10.0204	0.459
10.0576	0.569
10.0949	0.624
10.1321	0.681
10.1693	0.718
10.2065	0.75
10.2437	0.771
10.2809	0.788
10.3182	0.801
10.3554	0.815
10.3926	0.826
10.4298	0.838
10.467	0.847
10.5042	0.854
10.5415	0.852
10.5787	0.852
10.6159	0.86
10.6531	0.86
10.6903	0.863
10.7275	0.864
10.7648	0.864
10.802	0.864
10.8392	0.864
10.8764	0.852
10.9136	0.852
10.9508	0.847
10.988	0.855
11.0253	0.852
11.0625	0.857
11.0997	0.85
11.1369	0.84
11.1741	0.83
11.2113	0.818
11.2486	0.809
11.2858	0.801
11.323	0.787
11.3602	0.757
11.3974	0.736
11.4346	0.709
11.4719	0.67
11.5091	0.631
11.5463	0.604
11.5835	0.602
11.6207	0.582
11.6579	0.566
11.6952	0.537
11.7324	0.493
11.7696	0.467
11.8068	0.437
11.844	0.417
11.8812	0.406
11.9184	0.413
11.9557	0.458
11.9929	0.495
12.0301	0.541
12.0673	0.572
12.1045	0.577
12.1417	0.568
12.179	0.543
12.2162	0.515
12.2534	0.489
12.2906	0.448
12.3278	0.422
12.365	0.377
12.4023	0.335
12.4395	0.29
12.4767	0.248
12.5139	0.228
12.5511	0.212
12.5883	0.212
12.6256	0.209
12.6628	0.217
12.7	0.232
12.7372	0.253
12.7744	0.271
12.8116	0.288
12.8488	0.307
12.8861	0.333
12.9233	0.361
12.9605	0.408
12.9977	0.45
13.0349	0.498
13.0721	0.507
13.1094	0.507
13.1466	0.495
13.1838	0.484
13.221	0.478
13.2582	0.481
13.2954	0.493
13.3327	0.507
13.3699	0.54
13.4071	0.568
13.4443	0.577
13.4815	0.582
13.5187	0.563
13.556	0.513
13.5932	0.461
13.6304	0.419
13.6676	0.381
13.7048	0.38
13.742	0.385
13.7792	0.411
13.8165	0.464
13.8537	0.535
13.8909	0.608
13.9281	0.659
13.9653	0.697
14.0025	0.722
14.0398	0.729
14.077	0.723
14.1142	0.714
14.1514	0.687
14.1886	0.655
14.2258	0.613
14.2631	0.562
14.3003	0.496
14.3375	0.444
14.3747	0.425
14.4119	0.448
14.4491	0.51
14.4864	0.574
14.5236	0.622
14.5608	0.672
14.598	0.69
14.6352	0.708
14.6724	0.725
14.7096	0.726
14.7469	0.74
14.7841	0.745
14.8213	0.746
14.8585	0.75
14.8957	0.76
14.9329	0.765
14.9702	0.768
15.0074	0.77
15.0446	0.771
15.0818	0.773
15.119	0.781
15.1562	0.793
15.1935	0.798
15.2307	0.798
15.2679	0.798
15.3051	0.796
15.3423	0.795
15.3795	0.79
15.4167	0.784
15.454	0.773
15.4912	0.771
15.5284	0.771
15.5656	0.77
15.6028	0.771
15.64	0.765
15.6773	0.76
15.7145	0.759
15.7517	0.756
15.7889	0.753
15.8261	0.75
15.8633	0.748
15.9006	0.74
15.9378	0.736
15.975	0.737
