Infrared Spectrum: Pyrimidine, 4-chloro-6-hydrazino-5-nitro-
Formula: C4 H4 Cl N5 O2
State: SOLID (0.8 mg / 650 mg KBr DISC)
Class: COBLENTZ III
Instrument: PERKIN-ELMER 21 (GRATING)
Instrument parameters: FILTER CHANGE ABOUT 1090 CM^-^1
Sampling: TRANSMISSION
Resolution: 2
Origin: SOUTHERN RESEARCH INSTITUTE
1/CM	TRANSMITTANCE
606	1.0205
615	1.0226
624	1.0215
633	1.0172
642	1.0089
651	0.9951
660	0.9828
669	0.9621
678	0.9479
687	0.941
696	0.9315
705	0.9076
714	0.8587
723	0.8563
732	0.9007
741	0.8804
750	0.8657
759	0.8517
768	0.808
777	0.6906
786	0.8151
795	0.8113
804	0.7947
813	0.766
822	0.7212
831	0.5129
840	0.3826
849	0.7395
858	0.3776
867	0.7833
876	0.854
885	0.8849
894	0.8842
903	0.8841
912	0.8792
921	0.875
930	0.8673
939	0.8633
948	0.8628
957	0.8605
966	0.8346
975	0.829
984	0.844
993	0.8435
1002	0.8421
1011	0.8328
1020	0.8307
1029	0.8301
1038	0.8284
1047	0.825
1056	0.8176
1065	0.8123
1074	0.7919
1083	0.7869
1092	0.8051
1101	0.8018
1110	0.7936
1119	0.7749
1128	0.7723
1137	0.7647
1146	0.7576
1155	0.7513
1164	0.7495
1173	0.7626
1182	0.7494
1191	0.7358
1200	0.7352
1209	0.7339
1218	0.7261
1227	0.7105
1236	0.6733
1245	0.617
1254	0.6104
1263	0.6636
1272	0.6513
1281	0.6337
1290	0.6342
1299	0.6269
1308	0.5281
1317	0.2755
1326	0.6216
1335	0.7243
1344	0.7298
1353	0.6963
1362	0.6814
1371	0.6681
1380	0.6375
1389	0.7257
1398	0.7135
1407	0.6971
1416	0.65
1425	0.4931
1434	0.3914
1443	0.7508
1452	0.745
1461	0.6964
1470	0.6789
1479	0.6235
1488	0.5195
1497	0.5043
1506	0.4332
1515	0.3532
1524	0.177
1533	0.1663
1542	0.1873
1551	0.1542
1560	0.2665
1569	0.3467
1578	0.4568
1587	0.5243
1596	0.564
1605	0.5979
1614	0.6116
1623	0.6339
1632	0.6629
1641	0.6991
1650	0.7162
1659	0.7423
1668	0.7558
1677	0.7712
1686	0.7802
1695	0.787
1704	0.8026
1713	0.8152
1722	0.8199
1731	0.8247
1740	0.8295
1749	0.8348
1758	0.8397
1767	0.8405
1776	0.8415
1785	0.8451
1794	0.8393
1803	0.8386
1812	0.8467
1821	0.8385
1830	0.8402
1839	0.8413
1848	0.8411
1857	0.8396
1866	0.8345
1875	0.8354
1884	0.8373
1893	0.8356
1902	0.832
1911	0.829
1920	0.8267
1929	0.8245
1938	0.8261
1947	0.8312
1956	0.8281
1965	0.8288
1974	0.8321
1983	0.8313
1992	0.8294
2001	0.8261
2010	0.8217
2019	0.8179
2028	0.8181
2037	0.8211
2046	0.8244
2055	0.8268
2064	0.8263
2073	0.8258
2082	0.8279
2091	0.8281
2100	0.8225
2109	0.8218
2118	0.8254
2127	0.824
2136	0.8214
2145	0.8228
2154	0.8191
2163	0.8165
2172	0.8204
2181	0.8256
2190	0.8182
2199	0.8203
2208	0.8211
2217	0.8196
2226	0.8141
2235	0.8116
2244	0.8127
2253	0.8122
2262	0.811
2271	0.8094
2280	0.8086
2289	0.8036
2298	0.7989
2307	0.7855
2316	0.769
2325	0.767
2334	0.7729
2343	0.7775
2352	0.7817
2361	0.7889
2370	0.7837
2379	0.7808
2388	0.7802
2397	0.7815
2406	0.7839
2415	0.7871
2424	0.7859
2433	0.7858
2442	0.784
2451	0.7822
2460	0.7871
2469	0.7866
2478	0.7835
2487	0.7844
2496	0.7881
2505	0.7867
2514	0.7818
2523	0.7775
2532	0.7742
2541	0.7788
2550	0.7838
2559	0.7765
2568	0.7757
2577	0.7695
2586	0.7723
2595	0.7719
2604	0.7713
2613	0.7738
2622	0.7677
2631	0.766
2640	0.7692
2649	0.7718
2658	0.7728
2667	0.7702
2676	0.7628
2685	0.7643
2694	0.7656
2703	0.7657
2712	0.7641
2721	0.7591
2730	0.7617
2739	0.7611
2748	0.7579
2757	0.7536
2766	0.7503
2775	0.753
2784	0.7581
2793	0.7586
2802	0.7538
2811	0.7473
2820	0.7407
2829	0.7344
2838	0.73
2847	0.7337
2856	0.7402
2865	0.7435
2874	0.7402
2883	0.7339
2892	0.7308
2901	0.7174
2910	0.716
2919	0.7217
2928	0.7287
2937	0.7343
2946	0.7366
2955	0.7344
2964	0.7299
2973	0.7301
2982	0.7317
2991	0.7352
3000	0.7333
3009	0.729
3018	0.7254
3027	0.7232
3036	0.7201
3045	0.7188
3054	0.7192
3063	0.7213
3072	0.7177
3081	0.7121
3090	0.7145
3099	0.7231
3108	0.7151
3117	0.7127
3126	0.7124
3135	0.7097
3144	0.708
3153	0.7069
3162	0.7058
3171	0.7002
3180	0.6988
3189	0.6994
3198	0.6937
3207	0.6889
3216	0.6853
3225	0.6823
3234	0.6788
3243	0.6739
3252	0.6749
3261	0.6736
3270	0.6686
3279	0.6656
3288	0.6688
3297	0.6703
3306	0.6656
3315	0.6605
3324	0.655
3333	0.6485
3342	0.6462
3351	0.6388
3360	0.6286
3369	0.6196
3378	0.6126
3387	0.6053
3396	0.5984
3405	0.5922
3414	0.5886
3423	0.5857
3432	0.5863
3441	0.5894
3450	0.594
3459	0.5986
3468	0.6024
3477	0.6056
3486	0.6104
3495	0.618
3504	0.6248
3513	0.6308
3522	0.6356
3531	0.6414
3540	0.6476
3549	0.6562
3558	0.6646
3567	0.6727
3576	0.6762
3585	0.6795
3594	0.6918
3603	0.6988
3612	0.7028
3621	0.715
3630	0.7242
3639	0.7289
3648	0.7315
3657	0.7354
3666	0.7396
3675	0.7413
3684	0.738
3693	0.7393
3702	0.7452
3711	0.7459
3720	0.7454
3729	0.7461
3738	0.7464
3747	0.7446
3756	0.7425
3765	0.7412
3774	0.7494
3783	0.7493
3792	0.7481
3801	0.746
3810	0.746
3819	0.7444
3828	0.7408
3837	0.7367
3846	0.7393
3855	0.7419
3864	0.7425
3873	0.7434
3882	0.7467
3891	0.7468
3900	0.7459
3909	0.745
3918	0.7436
3927	0.7418
3936	0.7398
3945	0.7383
3954	0.7378
3963	0.7404
3972	0.7409
3981	0.7376
3990	0.7418
3999	0.7414
