Infrared Spectrum: 9H-Purine, 6-[(2-mercaptoethyl)thio]-, S-acetate
Formula: C9 H10 N4 O S2
State: SOLID (KBr DISC)
Class: COBLENTZ III
Instrument: PERKIN-ELMER 21 (GRATING)
Instrument parameters: FILTER CHANGE ABOUT 1090 CM^-^1
Sampling: TRANSMISSION
Resolution: 2
Origin: SOUTHERN RESEARCH INSTITUTE
1/CM	TRANSMITTANCE
597.693	0.4542
606.715	0.4594
615.737	0.4774
624.759	0.5098
633.781	0.5958
642.803	0.5471
651.825	0.8675
660.847	0.8642
669.869	0.8147
678.891	0.7201
687.913	0.8524
696.935	0.8452
705.957	0.7678
714.979	0.8034
724.001	0.8144
733.023	0.8132
742.045	0.8354
751.067	0.8458
760.089	0.8377
769.111	0.8278
778.133	0.8122
787.155	0.7903
796.177	0.6244
805.199	0.7886
814.221	0.7697
823.243	0.7374
832.265	0.5166
841.287	0.4335
850.309	0.3612
859.331	0.687
868.353	0.6813
877.375	0.615
886.397	0.6753
895.419	0.7309
904.441	0.7122
913.463	0.6622
922.485	0.6081
931.507	0.4675
940.529	0.3704
949.551	0.2974
958.573	0.4363
967.595	0.6168
976.617	0.6757
985.639	0.7001
994.661	0.6667
1003.68	0.692
1012.7	0.7536
1021.73	0.7658
1030.75	0.7699
1039.77	0.7687
1048.79	0.7608
1057.81	0.7502
1066.84	0.7343
1075.86	0.7088
1084.88	0.6356
1093.9	0.618
1102.92	0.4752
1111.95	0.4745
1120.97	0.4605
1129.99	0.3907
1139.01	0.2947
1148.03	0.415
1157.06	0.607
1166.08	0.7066
1175.1	0.7205
1184.12	0.7046
1193.14	0.6946
1202.17	0.6339
1211.19	0.5668
1220.21	0.5593
1229.23	0.4316
1238.25	0.1865
1247.28	0.2112
1256.3	0.6668
1265.32	0.6318
1274.34	0.6911
1283.36	0.6641
1292.39	0.7366
1301.41	0.7664
1310.43	0.7406
1319.45	0.6233
1328.47	0.332
1337.5	0.4125
1346.52	0.6919
1355.54	0.6195
1364.56	0.6125
1373.58	0.5868
1382.61	0.2506
1391.63	0.3129
1400.65	0.6396
1409.67	0.5948
1418.69	0.5473
1427.72	0.4611
1436.74	0.4764
1445.76	0.4957
1454.78	0.6904
1463.8	0.6807
1472.83	0.6244
1481.85	0.6633
1490.87	0.7268
1499.89	0.7181
1508.91	0.6999
1517.94	0.6794
1526.96	0.655
1535.98	0.6188
1545	0.5408
1554.02	0.3175
1563.05	0.1947
1572.07	0.0795
1581.09	0.272
1590.11	0.3817
1599.13	0.3537
1608.16	0.5339
1617.18	0.6886
1626.2	0.698
1635.22	0.6917
1644.24	0.6699
1653.27	0.64
1662.29	0.618
1671.31	0.559
1680.33	0.4217
1689.35	0.137
1698.38	0.1569
1707.4	0.3544
1716.42	0.6358
1725.44	0.6684
1734.46	0.6809
1743.49	0.679
1752.51	0.6689
1761.53	0.6641
1770.55	0.6664
1779.57	0.6734
1788.6	0.6805
1797.62	0.6874
1806.64	0.6903
1815.66	0.6938
1824.68	0.6996
1833.71	0.7053
1842.73	0.7095
1851.75	0.7124
1860.77	0.7158
1869.79	0.7196
1878.82	0.721
1887.84	0.7217
1896.86	0.723
1905.88	0.7275
1914.9	0.733
1923.93	0.7345
1932.95	0.7359
1941.97	0.7362
1950.99	0.7362
1960.01	0.7336
1969.04	0.7331
1978.06	0.7337
1987.08	0.7355
1996.1	0.7376
2005.12	0.7376
2014.15	0.7366
2023.17	0.7348
2032.19	0.7323
2041.21	0.7295
2050.23	0.7274
2059.26	0.7252
2068.28	0.723
2077.3	0.7207
2086.32	0.7183
2095.34	0.7159
2104.37	0.7111
2113.39	0.7045
2122.41	0.6967
2131.43	0.6939
2140.45	0.6911
2149.48	0.6882
2158.5	0.6832
2167.52	0.6759
2176.54	0.6691
2185.56	0.6615
2194.59	0.6516
2203.61	0.6416
2212.63	0.6374
2221.65	0.6341
2230.67	0.6281
2239.7	0.6212
2248.72	0.6124
2257.74	0.6032
2266.76	0.5934
2275.78	0.585
2284.81	0.5778
2293.83	0.5691
2302.85	0.5483
2311.87	0.5335
2320.89	0.5201
2329.92	0.5073
2338.94	0.5043
2347.96	0.5086
2356.98	0.4996
2366	0.4917
2375.03	0.4843
2384.05	0.4757
2393.07	0.4707
2402.09	0.47
2411.11	0.4684
2420.14	0.4586
2429.16	0.4532
2438.18	0.4527
2447.2	0.4528
2456.22	0.4515
2465.25	0.4355
2474.27	0.4273
2483.29	0.419
2492.31	0.4098
2501.33	0.4017
2510.36	0.3941
2519.38	0.3875
2528.4	0.3818
2537.42	0.3824
2546.44	0.3883
2555.47	0.3876
2564.49	0.3867
2573.51	0.3984
2582.53	0.408
2591.55	0.4189
2600.58	0.4199
2609.6	0.41
2618.62	0.3996
2627.64	0.3913
2636.66	0.384
2645.69	0.3772
2654.71	0.3739
2663.73	0.3722
2672.75	0.3746
2681.77	0.3881
2690.8	0.395
2699.82	0.3947
2708.84	0.3883
2717.86	0.4006
2726.88	0.4108
2735.91	0.4175
2744.93	0.4186
2753.95	0.4128
2762.97	0.4069
2771.99	0.4041
2781.02	0.4021
2790.04	0.4087
2799.06	0.425
2808.08	0.4314
2817.1	0.4374
2826.13	0.4616
2835.15	0.4806
2844.17	0.4974
2853.19	0.5122
2862.21	0.5236
2871.24	0.5328
2880.26	0.5379
2889.28	0.5316
2898.3	0.5222
2907.32	0.5069
2916.35	0.4905
2925.37	0.4762
2934.39	0.4646
2943.41	0.4566
2952.43	0.452
2961.46	0.4612
2970.48	0.4683
2979.5	0.4693
2988.52	0.4843
2997.54	0.4934
3006.57	0.5105
3015.59	0.5391
3024.61	0.5439
3033.63	0.5389
3042.65	0.5331
3051.68	0.5278
3060.7	0.5167
3069.72	0.4898
3078.74	0.4791
3087.76	0.4969
3096.79	0.527
3105.81	0.54
3114.83	0.5478
3123.85	0.5588
3132.87	0.572
3141.9	0.5808
3150.92	0.5828
3159.94	0.5863
3168.96	0.5885
3177.98	0.5842
3187.01	0.5896
3196.03	0.6017
3205.05	0.6042
3214.07	0.6067
3223.09	0.6093
3232.12	0.6111
3241.14	0.6109
3250.16	0.6101
3259.18	0.6071
3268.2	0.6047
3277.23	0.6023
3286.25	0.6008
3295.27	0.6013
3304.29	0.6038
3313.31	0.602
3322.34	0.5891
3331.36	0.5841
3340.38	0.5811
3349.4	0.5834
3358.42	0.5867
3367.45	0.5655
3376.47	0.5533
3385.49	0.5376
3394.51	0.5263
3403.53	0.5144
3412.56	0.5066
3421.58	0.5021
3430.6	0.4991
3439.62	0.4964
3448.64	0.4939
3457.67	0.4911
3466.69	0.4896
3475.71	0.4966
3484.73	0.5101
3493.75	0.512
3502.78	0.5136
3511.8	0.5173
3520.82	0.5217
3529.84	0.5258
3538.86	0.5302
3547.89	0.5351
3556.91	0.5424
3565.93	0.5527
3574.95	0.5635
3583.97	0.5769
3593	0.585
3602.02	0.5867
3611.04	0.5904
3620.06	0.5946
3629.08	0.5997
3638.11	0.6057
3647.13	0.6158
3656.15	0.6249
3665.17	0.6241
3674.19	0.6316
3683.22	0.641
3692.24	0.6408
3701.26	0.6371
3710.28	0.6307
3719.3	0.6301
3728.33	0.6448
3737.35	0.6453
3746.37	0.6415
3755.39	0.6388
3764.41	0.638
3773.44	0.6384
3782.46	0.6395
3791.48	0.6412
3800.5	0.6435
3809.52	0.646
3818.55	0.6432
3827.57	0.635
3836.59	0.6353
3845.61	0.6383
3854.63	0.6416
3863.66	0.6418
3872.68	0.6397
3881.7	0.6372
3890.72	0.6366
3899.74	0.6418
3908.77	0.646
3917.79	0.6428
3926.81	0.6282
3935.83	0.6295
3944.85	0.6301
3953.88	0.6279
3962.9	0.6183
3971.92	0.6127
3980.94	0.6113
3989.96	0.6062
3998.99	0.6041
