Infrared Spectrum: 1,2-NAPHTHOQUINONE-4-SULFONIC ACID, SODIUM SALT
Formula: C10 H5 O5 S Na
State: SOLID (MINERAL OIL MULL)
Class: COBLENTZ
Instrument: Not specified, most likely a prism, grating, or hybrid spectrometer.
Sampling: TRANSMISSION
Resolution: 4
Origin: WYANDOTTE CHEMICALS CORP., WYANDOTTE, MICHIGAN, USA
MICROMETERS	TRANSMITTANCE
2.068	0.506
2.1089	0.517
2.14979	0.525
2.19069	0.527
2.23159	0.527
2.27248	0.527
2.31338	0.525
2.35428	0.522
2.39518	0.513
2.43607	0.515
2.47697	0.51
2.51787	0.508
2.55876	0.508
2.59966	0.5
2.64056	0.501
2.68145	0.498
2.72235	0.479
2.76325	0.474
2.80414	0.46
2.84504	0.447
2.88594	0.442
2.92684	0.438
2.96773	0.426
3.00863	0.416
3.04953	0.404
3.09042	0.36
3.13132	0.348
3.17222	0.379
3.21311	0.384
3.25401	0.409
3.29491	0.416
3.3358	0.226
3.3767	0.035
3.4176	0.049
3.4585	0.11
3.49939	0.112
3.54029	0.5
3.58119	0.658
3.62208	0.693
3.66298	0.707
3.70388	0.715
3.74477	0.724
3.78567	0.739
3.82657	0.748
3.86746	0.765
3.90836	0.78
3.94926	0.773
3.99016	0.778
4.03105	0.775
4.07195	0.789
4.11285	0.809
4.15374	0.819
4.19464	0.821
4.23554	0.804
4.27643	0.772
4.31733	0.794
4.35823	0.845
4.39912	0.879
4.44002	0.843
4.48092	0.758
4.52181	0.838
4.56271	0.887
4.60361	0.909
4.64451	0.92
4.6854	0.928
4.7263	0.937
4.7672	0.914
4.80809	0.855
4.84899	0.925
4.88989	0.938
4.93078	0.935
4.97168	0.931
5.01258	0.931
5.05347	0.925
5.09437	0.94
5.13527	0.945
5.17617	0.945
5.21706	0.945
5.25796	0.947
5.29886	0.948
5.33975	0.943
5.38065	0.937
5.42155	0.931
5.46244	0.931
5.50334	0.93
5.54424	0.93
5.58513	0.913
5.62603	0.903
5.66693	0.897
5.70783	0.869
5.74872	0.858
5.78962	0.848
5.83052	0.801
5.87141	0.593
5.91231	0.528
5.95321	0.224
5.9941	0.248
6.035	0.491
6.0759	0.591
6.11679	0.627
6.15769	0.566
6.19859	0.6
6.23949	0.498
6.28038	0.469
6.32128	0.559
6.36218	0.591
6.40307	0.619
6.44397	0.602
6.48487	0.605
6.52576	0.59
6.56666	0.581
6.60756	0.568
6.64845	0.551
6.68935	0.513
6.73025	0.452
6.77115	0.299
6.81204	0.2
6.85294	0.256
6.89384	0.338
6.93473	0.414
6.97563	0.496
7.01653	0.517
7.05742	0.528
7.09832	0.532
7.13922	0.537
7.18011	0.517
7.22101	0.43
7.26191	0.352
7.30281	0.464
7.3437	0.537
7.3846	0.545
7.4255	0.53
7.46639	0.51
7.50729	0.571
7.54819	0.501
7.58908	0.421
7.62998	0.602
7.67088	0.603
7.71177	0.494
7.75267	0.369
7.79357	0.491
7.83447	0.636
7.87536	0.651
7.91626	0.426
7.95716	0.307
7.99805	0.44
8.03895	0.448
8.07985	0.309
8.12074	0.119
8.16164	0.107
8.20254	0.12
8.24343	0.096
8.28433	0.248
8.32523	0.348
8.36613	0.397
8.40702	0.455
8.44792	0.496
8.48882	0.53
8.52971	0.528
8.57061	0.493
8.61151	0.615
8.6524	0.659
8.6933	0.687
8.7342	0.726
8.77509	0.755
8.81599	0.768
8.85689	0.785
8.89779	0.772
8.93868	0.767
8.97958	0.792
9.02048	0.804
9.06137	0.801
9.10227	0.831
9.14317	0.84
9.18406	0.855
9.22496	0.838
9.26586	0.782
9.30675	0.51
9.34765	0.253
9.38855	0.253
9.42944	0.641
9.47034	0.792
9.51124	0.848
9.55214	0.879
9.59303	0.901
9.63393	0.92
9.67483	0.93
9.71572	0.942
9.75662	0.959
9.79752	0.969
9.83841	0.979
9.87931	0.986
9.92021	0.996
9.9611	1.001
10.002	1.003
10.0429	1.003
10.0838	1.003
10.1247	1.003
10.1656	1.003
10.2065	1.001
10.2474	0.996
10.2883	0.926
10.3292	0.903
10.3701	0.942
10.411	0.977
10.4519	0.994
10.4928	1
10.5337	1.003
10.5746	1.001
10.6155	1
10.6564	0.957
10.6972	0.928
10.7381	0.974
10.779	0.996
10.8199	1.003
10.8608	1.005
10.9017	1.005
10.9426	1.003
10.9835	1.005
11.0244	1.003
11.0653	1
11.1062	0.889
11.1471	0.724
11.188	0.897
11.2289	0.886
11.2698	0.688
11.3107	0.792
11.3516	0.877
11.3925	0.937
11.4334	0.962
11.4743	0.984
11.5152	0.986
11.5561	0.982
11.597	0.977
11.6379	0.972
11.6788	0.964
11.7197	0.959
11.7606	0.945
11.8015	0.94
11.8424	0.937
11.8833	0.933
11.9242	0.93
11.9651	0.925
12.006	0.911
12.0468	0.903
12.0877	0.897
12.1286	0.886
12.1695	0.88
12.2104	0.877
12.2513	0.877
12.2922	0.874
12.3331	0.874
12.374	0.875
12.4149	0.872
12.4558	0.872
12.4967	0.88
12.5376	0.88
12.5785	0.88
12.6194	0.882
12.6603	0.877
12.7012	0.872
12.7421	0.86
12.783	0.838
12.8239	0.802
12.8648	0.71
12.9057	0.658
12.9466	0.518
12.9875	0.384
13.0284	0.455
13.0693	0.632
13.1102	0.739
13.1511	0.835
13.192	0.875
13.2329	0.909
13.2738	0.916
13.3147	0.928
13.3555	0.937
13.3964	0.935
13.4373	0.937
13.4782	0.937
13.5191	0.928
13.56	0.926
13.6009	0.923
13.6418	0.926
13.6827	0.926
13.7236	0.925
13.7645	0.921
13.8054	0.916
13.8463	0.911
13.8872	0.908
13.9281	0.904
13.969	0.923
14.0099	0.914
14.0508	0.925
14.0917	0.943
14.1326	0.967
14.1735	0.969
14.2144	0.972
14.2553	0.969
14.2962	0.948
14.3371	0.942
14.378	0.952
14.4189	0.96
14.4598	0.972
14.5007	0.974
14.5416	0.974
14.5825	0.965
14.6234	0.96
14.6643	0.948
14.7051	0.94
14.746	0.931
14.7869	0.92
14.8278	0.913
14.8687	0.899
14.9096	0.889
14.9505	0.875
14.9914	0.833
15.0323	0.758
15.0732	0.709
15.1141	0.715
15.155	0.738
15.1959	0.709
15.2368	0.605
15.2777	0.532
15.3186	0.501
15.3595	0.522
15.4004	0.528
15.4413	0.5
15.4822	0.465
15.5231	0.471
15.564	0.52
15.6049	0.568
15.6458	0.598
15.6867	0.607
15.7276	0.613
15.7685	0.607
15.8094	0.6
15.8503	0.591
15.8912	0.578
15.9321	0.559
15.973	0.54
