Infrared Spectrum: ANILINE-, BORON TRICHLORIDE
Formula: C6 H7 N  * B Cl3
State: SOLID (0.5% IN KBr PELLET)
Class: COBLENTZ
Instrument: Not specified, most likely a grating spectrometer.
Sampling: TRANSMISSION
Resolution: 4
Origin: STANDARD OIL OF OHIO
MICROMETERS	TRANSMITTANCE
2.019	0.849
2.05931	0.852
2.09963	0.851
2.13994	0.846
2.18026	0.84
2.22057	0.847
2.26088	0.849
2.3012	0.851
2.34151	0.857
2.38183	0.861
2.42214	0.857
2.46245	0.847
2.50277	0.854
2.54308	0.859
2.5834	0.862
2.62371	0.862
2.66402	0.871
2.70434	0.857
2.74465	0.824
2.78497	0.659
2.82528	0.509
2.86559	0.351
2.90591	0.252
2.94622	0.206
2.98654	0.169
3.02685	0.138
3.06716	0.103
3.10748	0.055
3.14779	0.081
3.18811	0.098
3.22842	0.091
3.26873	0.072
3.30905	0.047
3.34936	0.021
3.38968	0.016
3.42999	0.011
3.4703	0.013
3.51062	0.02
3.55093	0.035
3.59125	0.093
3.63156	0.162
3.67187	0.204
3.71219	0.252
3.7525	0.267
3.79282	0.285
3.83313	0.238
3.87344	0.192
3.91376	0.228
3.95407	0.323
3.99439	0.414
4.0347	0.475
4.07501	0.546
4.11533	0.59
4.15564	0.62
4.19596	0.639
4.23627	0.649
4.27658	0.658
4.3169	0.673
4.35721	0.693
4.39753	0.683
4.43784	0.673
4.47815	0.69
4.51847	0.702
4.55878	0.71
4.5991	0.722
4.63941	0.719
4.67972	0.714
4.72004	0.715
4.76035	0.702
4.80067	0.702
4.84098	0.707
4.88129	0.705
4.92161	0.703
4.96192	0.7
5.00224	0.685
5.04255	0.673
5.08286	0.664
5.12318	0.68
5.16349	0.686
5.20381	0.683
5.24412	0.673
5.28443	0.661
5.32475	0.658
5.36506	0.666
5.40538	0.673
5.44569	0.668
5.486	0.663
5.52632	0.663
5.56663	0.661
5.60695	0.658
5.64726	0.656
5.68757	0.651
5.72789	0.637
5.7682	0.641
5.80852	0.639
5.84883	0.636
5.88914	0.639
5.92946	0.639
5.96977	0.637
6.01009	0.62
6.0504	0.6
6.09071	0.582
6.13103	0.539
6.17134	0.49
6.21166	0.363
6.25197	0.341
6.29228	0.335
6.3326	0.25
6.37291	0.214
6.41323	0.233
6.45354	0.306
6.49385	0.345
6.53417	0.368
6.57448	0.253
6.6148	0.233
6.65511	0.086
6.69542	0.021
6.73574	0.064
6.77605	0.091
6.81637	0.091
6.85668	0.096
6.89699	0.094
6.93731	0.089
6.97762	0.084
7.01794	0.081
7.05825	0.082
7.09856	0.086
7.13888	0.096
7.17919	0.115
7.21951	0.143
7.25982	0.167
7.30013	0.211
7.34045	0.245
7.38076	0.297
7.42108	0.338
7.46139	0.367
7.5017	0.382
7.54202	0.402
7.58233	0.456
7.62265	0.48
7.66296	0.485
7.70327	0.502
7.74359	0.492
7.7839	0.512
7.82422	0.566
7.86453	0.582
7.90484	0.587
7.94516	0.587
7.98547	0.583
8.02579	0.548
8.0661	0.524
8.10641	0.497
8.14673	0.48
8.18704	0.468
8.22736	0.46
8.26767	0.431
8.30798	0.39
8.3483	0.316
8.38861	0.301
8.42893	0.436
8.46924	0.472
8.50955	0.504
8.54987	0.524
8.59018	0.521
8.6305	0.514
8.67081	0.522
8.71112	0.521
8.75144	0.531
8.79175	0.532
8.83207	0.532
8.87238	0.514
8.91269	0.461
8.95301	0.402
8.99332	0.358
9.03364	0.341
9.07395	0.331
9.11426	0.333
9.15458	0.326
9.19489	0.316
9.23521	0.358
9.27552	0.404
9.31583	0.439
9.35615	0.47
9.39646	0.477
9.43678	0.492
9.47709	0.494
9.5174	0.5
9.55772	0.507
9.59803	0.51
9.63835	0.494
9.67866	0.38
9.71897	0.46
9.75929	0.536
9.7996	0.568
9.83992	0.588
9.88023	0.604
9.92054	0.609
9.96086	0.617
10.0012	0.632
10.0415	0.644
10.0818	0.644
10.1221	0.658
10.1624	0.666
10.2027	0.659
10.2431	0.673
10.2834	0.685
10.3237	0.69
10.364	0.698
10.4043	0.702
10.4446	0.7
10.4849	0.697
10.5253	0.693
10.5656	0.692
10.6059	0.692
10.6462	0.693
10.6865	0.698
10.7268	0.695
10.7671	0.69
10.8075	0.68
10.8478	0.668
10.8881	0.666
10.9284	0.67
10.9687	0.67
11.009	0.666
11.0493	0.666
11.0897	0.671
11.13	0.67
11.1703	0.673
11.2106	0.675
11.2509	0.675
11.2912	0.649
11.3315	0.634
11.3718	0.649
11.4122	0.649
11.4525	0.651
11.4928	0.663
11.5331	0.668
11.5734	0.659
11.6137	0.646
11.654	0.619
11.6944	0.6
11.7347	0.585
11.775	0.573
11.8153	0.558
11.8556	0.544
11.8959	0.531
11.9362	0.505
11.9766	0.473
12.0169	0.443
12.0572	0.417
12.0975	0.402
12.1378	0.385
12.1781	0.375
12.2184	0.367
12.2588	0.358
12.2991	0.351
12.3394	0.35
12.3797	0.353
12.42	0.358
12.4603	0.362
12.5006	0.367
12.541	0.37
12.5813	0.372
12.6216	0.375
12.6619	0.389
12.7022	0.402
12.7425	0.412
12.7828	0.426
12.8232	0.431
12.8635	0.438
12.9038	0.446
12.9441	0.451
12.9844	0.45
13.0247	0.451
13.065	0.441
13.1053	0.434
13.1457	0.431
13.186	0.421
13.2263	0.397
13.2666	0.368
13.3069	0.311
13.3472	0.223
13.3875	0.108
13.4279	0.04
13.4682	0.035
13.5085	0.096
13.5488	0.16
13.5891	0.214
13.6294	0.282
13.6697	0.35
13.7101	0.401
13.7504	0.429
13.7907	0.441
13.831	0.446
13.8713	0.453
13.9116	0.458
13.9519	0.467
13.9923	0.475
14.0326	0.49
14.0729	0.502
14.1132	0.514
14.1535	0.522
14.1938	0.527
14.2341	0.531
14.2745	0.527
14.3148	0.512
14.3551	0.494
14.3954	0.446
14.4357	0.404
14.476	0.324
14.5163	0.279
14.5567	0.248
14.597	0.214
14.6373	0.174
14.6776	0.174
14.7179	0.272
14.7582	0.358
14.7985	0.428
14.8389	0.458
14.8792	0.482
14.9195	0.497
14.9598	0.507
15.0001	0.517
15.0404	0.526
15.0807	0.526
15.1211	0.522
15.1614	0.519
15.2017	0.51
15.242	0.504
15.2823	0.502
15.3226	0.507
15.3629	0.534
15.4032	0.551
15.4436	0.549
