Infrared Spectrum: 1-Piperidinebutanol, Alpha,Alpha-diphenyl-, pamoate
Formula: C65 H70 N2 O8
State: SOLID (OIL MULL)
Class: COBLENTZ III
Instrument: PERKIN-ELMER 21 (GRATING)
Instrument parameters: NaCl PRISM
Sampling: TRANSMISSION
Resolution: 2
Origin: SMITH, KLINE & FRENCH LABS.
1/CM	TRANSMITTANCE
660	0.6483
669	0.6754
678	0.7054
687	0.6796
696	0.4772
705	0.4345
714	0.5262
723	0.7089
732	0.7293
741	0.6297
750	0.3624
759	0.4381
768	0.4909
777	0.6555
786	0.7188
795	0.8109
804	0.7664
813	0.5877
822	0.7869
831	0.6105
840	0.7076
849	0.7056
858	0.76
867	0.735
876	0.7103
885	0.7132
894	0.6192
903	0.6194
912	0.6391
921	0.6245
930	0.6832
939	0.7331
948	0.63
957	0.6573
966	0.6923
975	0.6331
984	0.6907
993	0.7433
1002	0.7611
1011	0.641
1020	0.702
1029	0.7059
1038	0.7312
1047	0.7529
1056	0.7276
1065	0.603
1074	0.7258
1083	0.6652
1092	0.7209
1101	0.79
1110	0.7826
1119	0.7573
1128	0.7212
1137	0.7313
1146	0.667
1155	0.6571
1164	0.641
1173	0.5536
1182	0.5779
1191	0.6303
1200	0.5915
1209	0.6214
1218	0.6273
1227	0.415
1236	0.6066
1245	0.6723
1254	0.6062
1263	0.5616
1272	0.5874
1281	0.5777
1290	0.5496
1299	0.4499
1308	0.4151
1317	0.4698
1326	0.349
1335	0.187
1344	0.0898
1353	0.0438
1362	0.1514
1371	0.1649
1380	0.218
1389	0.1416
1398	0.2414
1407	0.5075
1416	0.5919
1425	0.544
1434	0.2368
1443	0.0654
1452	0.0593
1461	0.1236
1470	0.3149
1479	0.4844
1488	0.4711
1497	0.4987
1506	0.3445
1515	0.482
1524	0.6171
1533	0.6
1542	0.4949
1551	0.3511
1560	0.2841
1569	0.3772
1578	0.4931
1587	0.5898
1596	0.6366
1605	0.6406
1614	0.577
1623	0.5466
1632	0.3697
1641	0.3064
1650	0.4649
1659	0.6231
1668	0.7488
1677	0.7965
1686	0.8238
1695	0.8332
1704	0.8317
1713	0.8304
1722	0.8286
1731	0.8235
1740	0.8044
1749	0.8009
1758	0.8005
1767	0.8003
1776	0.8003
1785	0.8
1794	0.7994
1803	0.7991
1812	0.7993
1821	0.8011
1830	0.8036
1839	0.8074
1848	0.8101
1857	0.8086
1866	0.805
1875	0.8004
1884	0.7953
1893	0.7904
1902	0.7854
1911	0.7807
1920	0.7769
1929	0.7731
1938	0.7673
1947	0.7624
1956	0.762
1965	0.7638
1974	0.7662
1983	0.7637
1992	0.7606
2001	0.7565
2010	0.7523
2019	0.7463
2028	0.7409
2037	0.7359
2046	0.73
2055	0.7285
2064	0.7266
2073	0.7228
2082	0.7154
2091	0.7077
2100	0.6997
2109	0.6918
2118	0.6842
2127	0.6768
2136	0.6696
2145	0.6625
2154	0.6562
2163	0.6501
2172	0.644
2181	0.6379
2190	0.6324
2199	0.6269
2208	0.6216
2217	0.6163
2226	0.611
2235	0.6047
2244	0.5979
2253	0.5911
2262	0.5835
2271	0.5759
2280	0.5683
2289	0.5569
2298	0.5431
2307	0.528
2316	0.5281
2325	0.5292
2334	0.531
2343	0.5342
2352	0.5383
2361	0.5424
2370	0.5448
2379	0.5445
2388	0.5435
2397	0.5424
2406	0.5425
2415	0.5435
2424	0.5457
2433	0.5462
2442	0.5449
2451	0.5429
2460	0.5412
2469	0.5401
2478	0.539
2487	0.5378
2496	0.5366
2505	0.5355
2514	0.5344
2523	0.5334
2532	0.5326
2541	0.5316
2550	0.532
2559	0.5328
2568	0.5335
2577	0.5342
2586	0.5344
2595	0.5345
2604	0.5339
2613	0.5325
2622	0.5298
2631	0.5269
2640	0.5264
2649	0.526
2658	0.5271
2667	0.5294
2676	0.5305
2685	0.5316
2694	0.5337
2703	0.5361
2712	0.5408
2721	0.5419
2730	0.5431
2739	0.5434
2748	0.5436
2757	0.5434
2766	0.5431
2775	0.541
2784	0.5381
2793	0.5302
2802	0.5139
2811	0.4322
2820	0.324
2829	0.2164
2838	0.1051
2847	0.0909
2856	0.0865
2865	0.0851
2874	0.0729
2883	0.0518
2892	0.05
2901	0.0518
2910	0.0591
2919	0.0756
2928	0.1294
2937	0.1716
2946	0.2336
2955	0.2952
2964	0.3342
2973	0.3945
2982	0.4231
2991	0.4408
3000	0.4546
3009	0.4761
3018	0.4941
3027	0.5064
3036	0.5158
3045	0.5235
3054	0.531
3063	0.5361
3072	0.5405
3081	0.5441
3090	0.545
3099	0.5457
3108	0.5445
3117	0.5424
3126	0.5377
3135	0.5298
3144	0.5193
3153	0.5089
3162	0.4986
3171	0.4883
3180	0.4781
3189	0.4679
3198	0.4578
3207	0.4478
3216	0.4378
3225	0.4279
3234	0.418
3243	0.4082
3252	0.3984
3261	0.3888
3270	0.3787
3279	0.3688
3288	0.3579
3297	0.3506
3306	0.3485
3315	0.3483
3324	0.3486
3333	0.349
3342	0.3508
3351	0.3561
3360	0.3637
3369	0.3882
3378	0.4143
3387	0.4402
3396	0.466
3405	0.4912
3414	0.5079
3423	0.5363
3432	0.5552
3441	0.5647
3450	0.5763
3459	0.6013
3468	0.6195
3477	0.6268
3486	0.6296
3495	0.6325
3504	0.6348
3513	0.6362
3522	0.6376
3531	0.6376
3540	0.6374
3549	0.6372
3558	0.6369
3567	0.6364
3576	0.636
3585	0.6356
3594	0.6351
3603	0.6347
3612	0.6342
3621	0.6338
3630	0.6333
3639	0.6329
3648	0.6324
3657	0.6319
3666	0.6315
3675	0.6308
3684	0.63
3693	0.6292
3702	0.6285
3711	0.6278
3720	0.6271
3729	0.6263
3738	0.6256
3747	0.6251
3756	0.6247
3765	0.6243
3774	0.6239
3783	0.6235
3792	0.6231
3801	0.6228
3810	0.6224
3819	0.622
3828	0.6217
3837	0.6213
3846	0.6209
3855	0.6205
3864	0.6201
3873	0.6197
3882	0.6193
3891	0.619
3900	0.6186
3909	0.6182
3918	0.6178
3927	0.617
3936	0.6161
3945	0.6152
3954	0.6143
3963	0.6132
3972	0.6117
3981	0.6102
3990	0.6087
3999	0.6072
