Infrared Spectrum: 1,1-DIMETHYLGUANIDINE SULFATE
Formula: C6 H20 N6 O4 S
State: SOLID (MINERAL OIL MULL)
Melting point: 300 C
Class: COBLENTZ
Instrument: Not specified, most likely a prism, grating, or hybrid spectrometer.
Sampling: TRANSMISSION
Resolution: 4
Origin: WYANDOTTE CHEMICALS CORP., WYANDOTTE, MICHIGAN, USA
MICROMETERS	TRANSMITTANCE
2	0.751
2.04093	0.777
2.08187	0.789
2.1228	0.777
2.16374	0.751
2.20467	0.738
2.24561	0.767
2.28654	0.795
2.32748	0.802
2.36841	0.816
2.40935	0.84
2.45028	0.857
2.49121	0.872
2.53215	0.882
2.57308	0.921
2.61402	0.921
2.65495	0.918
2.69589	0.863
2.73682	0.491
2.77776	0.331
2.81869	0.408
2.85963	0.489
2.90056	0.43
2.9415	0.307
2.98243	0.124
3.02336	0.068
3.0643	0.066
3.10523	0.066
3.14617	0.068
3.1871	0.057
3.22804	0.045
3.26897	0.059
3.30991	0.068
3.35084	0.037
3.39178	0.027
3.43271	0.028
3.47364	0.032
3.51458	0.032
3.55551	0.188
3.59645	0.267
3.63738	0.348
3.67832	0.399
3.71925	0.465
3.76019	0.494
3.80112	0.549
3.84206	0.576
3.88299	0.598
3.92392	0.629
3.96486	0.653
4.00579	0.68
4.04673	0.671
4.08766	0.678
4.1286	0.676
4.16953	0.685
4.21047	0.709
4.2514	0.719
4.29234	0.751
4.33327	0.772
4.3742	0.777
4.41514	0.741
4.45607	0.709
4.49701	0.727
4.53794	0.746
4.57888	0.763
4.61981	0.789
4.66075	0.819
4.70168	0.84
4.74262	0.853
4.78355	0.855
4.82449	0.823
4.86542	0.819
4.90635	0.824
4.94729	0.833
4.98822	0.887
5.02916	0.918
5.07009	0.931
5.11103	0.94
5.15196	0.937
5.1929	0.918
5.23383	0.894
5.27477	0.911
5.3157	0.926
5.35663	0.92
5.39757	0.921
5.4385	0.918
5.47944	0.914
5.52037	0.892
5.56131	0.862
5.60224	0.831
5.64318	0.777
5.68411	0.698
5.72505	0.581
5.76598	0.448
5.80691	0.306
5.84785	0.207
5.88878	0.115
5.92972	0.076
5.97065	0.047
6.01159	0.045
6.05252	0.044
6.09346	0.049
6.13439	0.069
6.17533	0.103
6.21626	0.136
6.2572	0.151
6.29813	0.185
6.33906	0.207
6.38	0.175
6.42093	0.124
6.46187	0.178
6.5028	0.25
6.54374	0.299
6.58467	0.306
6.62561	0.318
6.66654	0.295
6.70748	0.239
6.74841	0.13
6.78934	0.047
6.83028	0.051
6.87121	0.056
6.91215	0.11
6.95308	0.129
6.99402	0.275
7.03495	0.335
7.07589	0.352
7.11682	0.35
7.15776	0.321
7.19869	0.205
7.23962	0.115
7.28056	0.207
7.32149	0.26
7.36243	0.294
7.40336	0.301
7.4443	0.311
7.48523	0.321
7.52617	0.333
7.5671	0.331
7.60804	0.324
7.64897	0.324
7.68991	0.329
7.73084	0.335
7.77177	0.336
7.81271	0.333
7.85364	0.329
7.89458	0.324
7.93551	0.307
7.97645	0.331
8.01738	0.348
8.05832	0.348
8.09925	0.343
8.14019	0.345
8.18112	0.34
8.22205	0.333
8.26299	0.324
8.30392	0.318
8.34486	0.309
8.38579	0.295
8.42673	0.275
8.46766	0.255
8.5086	0.229
8.54953	0.197
8.59047	0.168
8.6314	0.13
8.67233	0.103
8.71327	0.096
8.7542	0.079
8.79514	0.068
8.83607	0.064
8.87701	0.047
8.91794	0.044
8.95888	0.039
8.99981	0.037
9.04075	0.037
9.08168	0.035
9.12261	0.032
9.16355	0.03
9.20448	0.028
9.24542	0.028
9.28635	0.028
9.32729	0.028
9.36822	0.032
9.40916	0.034
9.45009	0.032
9.49103	0.035
9.53196	0.039
9.5729	0.04
9.61383	0.044
9.65476	0.045
9.6957	0.051
9.73663	0.061
9.77757	0.069
9.8185	0.079
9.85944	0.095
9.90037	0.105
9.94131	0.115
9.98224	0.132
10.0232	0.154
10.0641	0.159
10.105	0.176
10.146	0.185
10.1869	0.197
10.2278	0.2
10.2688	0.212
10.3097	0.231
10.3507	0.244
10.3916	0.253
10.4325	0.263
10.4735	0.275
10.5144	0.287
10.5553	0.299
10.5963	0.316
10.6372	0.319
10.6781	0.329
10.7191	0.341
10.76	0.346
10.8009	0.355
10.8419	0.369
10.8828	0.382
10.9237	0.396
10.9647	0.409
11.0056	0.416
11.0465	0.428
11.0875	0.437
11.1284	0.443
11.1693	0.443
11.2103	0.447
11.2512	0.455
11.2921	0.462
11.3331	0.467
11.374	0.474
11.415	0.479
11.4559	0.481
11.4968	0.484
11.5378	0.482
11.5787	0.482
11.6196	0.484
11.6606	0.482
11.7015	0.486
11.7424	0.486
11.7834	0.482
11.8243	0.477
11.8652	0.481
11.9062	0.479
11.9471	0.479
11.988	0.477
12.029	0.476
12.0699	0.472
12.1108	0.467
12.1518	0.465
12.1927	0.462
12.2336	0.457
12.2746	0.45
12.3155	0.443
12.3564	0.437
12.3974	0.43
12.4383	0.416
12.4792	0.409
12.5202	0.399
12.5611	0.392
12.6021	0.384
12.643	0.369
12.6839	0.348
12.7249	0.329
12.7658	0.311
12.8067	0.301
12.8477	0.301
12.8886	0.29
12.9295	0.285
12.9705	0.275
13.0114	0.267
13.0523	0.265
13.0933	0.261
13.1342	0.255
13.1751	0.251
13.2161	0.246
13.257	0.244
13.2979	0.238
13.3389	0.227
13.3798	0.221
13.4207	0.212
13.4617	0.2
13.5026	0.193
13.5435	0.183
13.5845	0.173
13.6254	0.17
13.6664	0.17
13.7073	0.171
13.7482	0.176
13.7892	0.18
13.8301	0.185
13.871	0.193
13.912	0.198
13.9529	0.209
13.9938	0.215
14.0348	0.217
14.0757	0.219
14.1166	0.219
14.1576	0.221
14.1985	0.214
14.2394	0.21
14.2804	0.205
14.3213	0.202
14.3622	0.197
14.4032	0.193
14.4441	0.192
14.485	0.19
14.526	0.187
14.5669	0.187
14.6078	0.187
14.6488	0.187
14.6897	0.185
14.7307	0.185
14.7716	0.181
14.8125	0.185
14.8535	0.188
14.8944	0.187
14.9353	0.195
14.9763	0.21
15.0172	0.227
15.0581	0.232
15.0991	0.209
15.14	0.202
15.1809	0.209
15.2219	0.221
15.2628	0.227
15.3037	0.241
15.3447	0.248
15.3856	0.253
15.4265	0.272
15.4675	0.282
15.5084	0.284
15.5493	0.289
15.5903	0.301
15.6312	0.304
15.6721	0.316
15.7131	0.321
15.754	0.328
15.7949	0.333
15.8359	0.341
15.8768	0.345
15.9178	0.35
15.9587	0.355
