Infrared Spectrum: 1,2-CYCLOBUTANE, BIS(METHYLAMINE)-
Formula: C6 H14 N2
State: LIQUID (NEAT)
Class: COBLENTZ III
Instrument: DOW KBr FOREPRISM-GRATING
Instrument parameters: BLAZED AT 3.5, 12.0, 20.0 MICRON AND CHANGED AT 5.0, 7.5, 14.9 MICRON
Sampling: TRANSMISSION
Path length: CAPILLARY
Resolution: 2
Origin: DOW CHEMICAL COMPANY
1/CM	TRANSMITTANCE
454	0.7193
463	0.7294
472	0.7351
481	0.7368
490	0.7382
499	0.7471
508	0.7588
517	0.771
526	0.7821
535	0.7911
544	0.7934
553	0.7872
562	0.7785
571	0.7687
580	0.7688
589	0.7748
598	0.7661
607	0.7533
616	0.7297
625	0.7421
634	0.765
643	0.79
652	0.7933
661	0.7918
670	0.7887
679	0.7822
688	0.7705
697	0.7584
706	0.7465
715	0.7296
724	0.703
733	0.6631
742	0.6152
751	0.5637
760	0.5025
769	0.4388
778	0.39
787	0.345
796	0.3057
805	0.2685
814	0.2343
823	0.1984
832	0.169
841	0.1552
850	0.1576
859	0.1744
868	0.1962
877	0.2192
886	0.2278
895	0.2404
904	0.2573
913	0.2795
922	0.3064
931	0.3228
940	0.3457
949	0.3884
958	0.4714
967	0.5544
976	0.6405
985	0.6974
994	0.708
1003	0.6965
1012	0.6675
1021	0.6496
1030	0.6357
1039	0.6769
1048	0.7225
1057	0.7105
1066	0.6957
1075	0.6671
1084	0.6696
1093	0.6887
1102	0.6956
1111	0.6994
1120	0.7283
1129	0.7775
1138	0.8155
1147	0.83
1156	0.8344
1165	0.8444
1174	0.8493
1183	0.8616
1192	0.8728
1201	0.8694
1210	0.8518
1219	0.8362
1228	0.8297
1237	0.8285
1246	0.8259
1255	0.8294
1264	0.8613
1273	0.8512
1282	0.8206
1291	0.7862
1300	0.7776
1309	0.7769
1318	0.7788
1327	0.7765
1336	0.7512
1345	0.7444
1354	0.7082
1363	0.7135
1372	0.6986
1381	0.5952
1390	0.6557
1399	0.851
1408	0.8906
1417	0.8865
1426	0.8668
1435	0.7014
1444	0.7208
1453	0.6641
1462	0.679
1471	0.7894
1480	0.8668
1489	0.8775
1498	0.8787
1507	0.8717
1516	0.8582
1525	0.8374
1534	0.8074
1543	0.7692
1552	0.7228
1561	0.6507
1570	0.5831
1579	0.5189
1588	0.4454
1597	0.4057
1606	0.4146
1615	0.4685
1624	0.5609
1633	0.6418
1642	0.7045
1651	0.7649
1660	0.81
1669	0.8363
1678	0.8609
1687	0.8834
1696	0.9021
1705	0.9217
1714	0.9359
1723	0.9457
1732	0.9528
1741	0.9589
1750	0.9636
1759	0.9685
1768	0.9757
1777	0.9748
1786	0.974
1795	0.973
1804	0.9717
1813	0.97
1822	0.9682
1831	0.9666
1840	0.9657
1849	0.9647
1858	0.9638
1867	0.963
1876	0.9624
1885	0.9621
1894	0.9618
1903	0.9618
1912	0.9618
1921	0.9616
1930	0.9612
1939	0.9608
1948	0.9616
1957	0.9644
1966	0.9604
1975	0.9627
1984	0.9668
1993	1.006
2002	1.0299
2011	1.031
2020	1.0321
2029	1.0324
2038	1.0316
2047	1.0314
2056	1.0313
2065	1.0313
2074	1.0313
2083	1.0312
2092	1.031
2101	1.0302
2110	1.0292
2119	1.028
2128	1.0268
2137	1.0252
2146	1.0239
2155	1.0238
2164	1.0253
2173	1.028
2182	1.0299
2191	1.0296
2200	1.0292
2209	1.0287
2218	1.0283
2227	1.0278
2236	1.0274
2245	1.0273
2254	1.0273
2263	1.0275
2272	1.0281
2281	1.0285
2290	1.0309
2299	1.0343
2308	1.0407
2317	1.0447
2326	1.0436
2335	1.0416
2344	1.0386
2353	1.0349
2362	1.0313
2371	1.0278
2380	1.026
2389	1.0253
2398	1.025
2407	1.0247
2416	1.0245
2425	1.024
2434	1.0228
2443	1.0218
2452	1.0207
2461	1.0194
2470	1.0182
2479	1.0168
2488	1.0152
2497	1.0134
2506	1.0117
2515	1.0089
2524	1.006
2533	1.003
2542	1
2551	0.9966
2560	0.9928
2569	0.989
2578	0.9847
2587	0.979
2596	0.9734
2605	0.967
2614	0.9587
2623	0.9481
2632	0.9352
2641	0.9194
2650	0.9018
2659	0.8913
2668	0.8916
2677	0.8918
2686	0.8921
2695	0.8906
2704	0.8759
2713	0.8535
2722	0.8213
2731	0.7831
2740	0.7397
2749	0.7193
2758	0.7431
2767	0.759
2776	0.7542
2785	0.7075
2794	0.5702
2803	0.4281
2812	0.3214
2821	0.2626
2830	0.191
2839	0.1758
2848	0.0897
2857	0.0866
2866	0.1473
2875	0.1385
2884	0.105
2893	0.0705
2902	0.0539
2911	0.0604
2920	0.0609
2929	0.0636
2938	0.0892
2947	0.0868
2956	0.077
2965	0.0839
2974	0.3172
2983	0.5799
2992	0.676
3001	0.7571
3010	0.7911
3019	0.8031
3028	0.8046
3037	0.8037
3046	0.8001
3055	0.795
3064	0.7874
3073	0.7774
3082	0.7637
3091	0.7471
3100	0.7286
3109	0.7054
3118	0.6824
3127	0.6595
3136	0.6332
3145	0.6018
3154	0.5693
3163	0.5383
3172	0.5064
3181	0.4889
3190	0.4912
3199	0.4941
3208	0.4923
3217	0.4773
3226	0.4525
3235	0.4254
3244	0.3999
3253	0.3729
3262	0.3478
3271	0.3337
3280	0.3344
3289	0.3524
3298	0.3906
3307	0.4271
3316	0.4502
3325	0.4451
3334	0.417
3343	0.3772
3352	0.3355
3361	0.3484
3370	0.4029
3379	0.4962
3388	0.6049
3397	0.6585
3406	0.6924
3415	0.7068
3424	0.7165
3433	0.7282
3442	0.7428
3451	0.7584
3460	0.7756
3469	0.7928
3478	0.8085
3487	0.8225
3496	0.8366
3505	0.8504
3514	0.8643
3523	0.8782
3532	0.8911
3541	0.9036
3550	0.9144
3559	0.9235
3568	0.9321
3577	0.9406
3586	0.9495
3595	0.9586
3604	0.9665
3613	0.9728
3622	0.9756
3631	0.9806
3640	0.9814
3649	0.9794
3658	0.983
3667	0.9903
3676	0.9952
3685	0.9953
3694	0.9988
3703	1.0018
3712	1.0051
3721	1.0087
3730	1.0097
3739	1.0084
3748	1.0034
3757	1.0034
3766	1.0039
3775	1.0056
3784	1.0075
3793	1.009
