Infrared Spectrum: SODIUM SULFITE
Formula: Na2 S O3
State: SOLID (NUJOL MULL)
Class: COBLENTZ
Instrument: Not specified, most likely a prism, grating, or hybrid spectrometer.
Sampling: TRANSMISSION
Resolution: 4
Origin: MELLON INSTITUTE
MICROMETERS	TRANSMITTANCE
2.042	0.782
2.08193	0.782
2.12185	0.783
2.16178	0.783
2.2017	0.79
2.24163	0.797
2.28156	0.798
2.32148	0.802
2.36141	0.805
2.40133	0.81
2.44126	0.814
2.48118	0.815
2.52111	0.815
2.56104	0.817
2.60096	0.82
2.64089	0.824
2.68081	0.825
2.72074	0.825
2.76067	0.825
2.80059	0.822
2.84052	0.814
2.88044	0.81
2.92037	0.809
2.96029	0.809
3.00022	0.815
3.04015	0.815
3.08007	0.82
3.12	0.827
3.15992	0.834
3.19985	0.84
3.23978	0.84
3.2797	0.835
3.31963	0.701
3.35955	0.343
3.39948	0.271
3.4394	0.308
3.47933	0.376
3.51926	0.757
3.55918	0.879
3.59911	0.906
3.63903	0.919
3.67896	0.922
3.71889	0.926
3.75881	0.924
3.79874	0.924
3.83866	0.924
3.87859	0.924
3.91851	0.924
3.95844	0.924
3.99837	0.922
4.03829	0.919
4.07822	0.917
4.11814	0.914
4.15807	0.911
4.198	0.906
4.23792	0.902
4.27785	0.901
4.31777	0.899
4.3577	0.901
4.39762	0.899
4.43755	0.899
4.47748	0.894
4.5174	0.892
4.55733	0.889
4.59725	0.887
4.63718	0.884
4.67711	0.879
4.71703	0.877
4.75696	0.876
4.79688	0.876
4.83681	0.876
4.87673	0.874
4.91666	0.874
4.95659	0.876
4.99651	0.872
5.03644	0.872
5.07636	0.874
5.11629	0.871
5.15622	0.871
5.19614	0.871
5.23607	0.871
5.27599	0.871
5.31592	0.869
5.35585	0.871
5.39577	0.872
5.4357	0.874
5.47562	0.876
5.51555	0.876
5.55547	0.877
5.5954	0.879
5.63533	0.881
5.67525	0.884
5.71518	0.884
5.7551	0.887
5.79503	0.889
5.83496	0.891
5.87488	0.891
5.91481	0.887
5.95473	0.884
5.99466	0.884
6.03458	0.879
6.07451	0.876
6.11444	0.877
6.15436	0.882
6.19429	0.887
6.23421	0.892
6.27414	0.892
6.31407	0.889
6.35399	0.884
6.39392	0.879
6.43384	0.881
6.47377	0.881
6.51369	0.876
6.55362	0.879
6.59355	0.886
6.63347	0.894
6.6734	0.894
6.71332	0.886
6.75325	0.807
6.79318	0.68
6.8331	0.619
6.87303	0.638
6.91295	0.7
6.95288	0.757
6.9928	0.817
7.03273	0.849
7.07266	0.869
7.11258	0.882
7.15251	0.876
7.19243	0.804
7.23236	0.755
7.27229	0.78
7.31221	0.83
7.35214	0.854
7.39206	0.867
7.43199	0.877
7.47191	0.892
7.51184	0.897
7.55177	0.899
7.59169	0.899
7.63162	0.899
7.67154	0.901
7.71147	0.901
7.7514	0.906
7.79132	0.911
7.83125	0.906
7.87117	0.906
7.9111	0.912
7.95103	0.917
7.99095	0.919
8.03088	0.922
8.0708	0.922
8.11073	0.922
8.15065	0.911
8.19058	0.889
8.23051	0.886
8.27043	0.889
8.31036	0.902
8.35028	0.909
8.39021	0.912
8.43014	0.914
8.47006	0.917
8.50999	0.917
8.54991	0.916
8.58984	0.914
8.62976	0.906
8.66969	0.901
8.70962	0.882
8.74954	0.82
8.78947	0.793
8.82939	0.797
8.86932	0.817
8.90925	0.844
8.94917	0.859
8.9891	0.862
9.02902	0.871
9.06895	0.877
9.10887	0.879
9.1488	0.876
9.18873	0.874
9.22865	0.872
9.26858	0.871
9.3085	0.867
9.34843	0.862
9.38836	0.857
9.42828	0.849
9.46821	0.842
9.50813	0.83
9.54806	0.814
9.58798	0.792
9.62791	0.745
9.66784	0.7
9.70776	0.648
9.74769	0.599
9.78761	0.529
9.82754	0.442
9.86747	0.363
9.90739	0.313
9.94732	0.274
9.98724	0.232
10.0272	0.199
10.0671	0.162
10.107	0.132
10.1469	0.115
10.1869	0.1
10.2268	0.088
10.2667	0.08
10.3066	0.073
10.3466	0.07
10.3865	0.068
10.4264	0.073
10.4664	0.077
10.5063	0.09
10.5462	0.112
10.5861	0.135
10.6261	0.164
10.666	0.202
10.7059	0.237
10.7458	0.281
10.7858	0.318
10.8257	0.348
10.8656	0.38
10.9055	0.42
10.9455	0.46
10.9854	0.499
11.0253	0.525
11.0652	0.556
11.1052	0.584
11.1451	0.611
11.185	0.629
11.2249	0.651
11.2649	0.67
11.3048	0.686
11.3447	0.705
11.3846	0.725
11.4246	0.742
11.4645	0.757
11.5044	0.772
11.5444	0.783
11.5843	0.795
11.6242	0.809
11.6641	0.82
11.7041	0.832
11.744	0.84
11.7839	0.849
11.8238	0.86
11.8638	0.869
11.9037	0.877
11.9436	0.887
11.9835	0.896
12.0235	0.902
12.0634	0.907
12.1033	0.914
12.1432	0.919
12.1832	0.926
12.2231	0.932
12.263	0.936
12.3029	0.943
12.3429	0.946
12.3828	0.951
12.4227	0.954
12.4626	0.959
12.5026	0.964
12.5425	0.968
12.5824	0.971
12.6223	0.976
12.6623	0.979
12.7022	0.983
12.7421	0.986
12.7821	0.988
12.822	0.989
12.8619	0.993
12.9018	0.994
12.9418	0.996
12.9817	0.998
13.0216	1
13.0615	1.001
13.1015	1.003
13.1414	1.003
13.1813	1.005
13.2212	1.005
13.2612	1.005
13.3011	1.005
13.341	1.006
13.3809	1.003
13.4209	1.003
13.4608	1.001
13.5007	1
13.5406	0.998
13.5806	0.994
13.6205	0.991
13.6604	0.986
13.7003	0.983
13.7403	0.978
13.7802	0.971
13.8201	0.964
13.8601	0.961
13.9	0.958
13.9399	0.958
13.9798	0.961
14.0198	0.961
14.0597	0.959
14.0996	0.956
14.1395	0.951
14.1795	0.948
14.2194	0.944
14.2593	0.939
14.2992	0.934
14.3392	0.931
14.3791	0.927
14.419	0.924
14.4589	0.921
14.4989	0.914
14.5388	0.911
14.5787	0.906
14.6186	0.899
14.6586	0.892
14.6985	0.886
14.7384	0.879
14.7783	0.871
14.8183	0.865
14.8582	0.862
14.8981	0.859
14.938	0.854
14.978	0.85
15.0179	0.844
15.0578	0.84
15.0978	0.839
15.1377	0.837
15.1776	0.832
15.2175	0.824
15.2575	0.814
15.2974	0.805
15.3373	0.797
15.3772	0.787
15.4172	0.77
15.4571	0.757
15.497	0.745
15.5369	0.73
15.5769	0.715
15.6168	0.705
15.6567	0.698
15.6966	0.693
15.7366	0.69
15.7765	0.69
15.8164	0.69
15.8563	0.693
15.8963	0.698
15.9362	0.701
15.9761	0.706
16.016	0.71
