Infrared Spectrum: 4H-3,1-Benzoxazine-2,4(1H)-dione, 6,7,8-trimethoxy-N-methyl-
Formula: C12 H13 N O6
State: SOLUTION 7% (CHCl3 FOR 2-15 microns)
Melting point: 121-122 C
Class: COBLENTZ
Instrument: PERKIN-ELMER 421 (GRATING)
Instrument parameters: GRATING CHANGE AT 1999 CM^-^
Path length: 0.01 CM
Resolution: 2
Origin: ABBOTT LABORATORIES
1/CM	TRANSMITTANCE
726	0.7543
735	0.7552
744	0.7572
753	0.7585
762	0.7575
771	0.7604
780	0.7632
789	0.7602
798	0.759
807	0.7974
816	0.9014
825	0.9075
834	0.8957
843	0.8421
852	0.7213
861	0.8104
870	0.8884
879	0.8882
888	0.8826
897	0.8598
906	0.6803
915	0.707
924	0.8454
933	0.8345
942	0.6318
951	0.4525
960	0.6299
969	0.5914
978	0.7525
987	0.7619
996	0.6595
1005	0.3998
1014	0.3021
1023	0.2825
1032	0.2038
1041	0.356
1050	0.3227
1059	0.0935
1068	0.2429
1077	0.5074
1086	0.4699
1095	0.1338
1104	0.2248
1113	0.5209
1122	0.5481
1131	0.3707
1140	0.5152
1149	0.6578
1158	0.5511
1167	0.3851
1176	0.4465
1185	0.48
1194	0.4896
1203	0.4863
1212	0.4773
1221	0.4683
1230	0.5175
1239	0.6388
1248	0.7192
1257	0.7245
1266	0.6817
1275	0.4715
1284	0.447
1293	0.2246
1302	0.1175
1311	0.1466
1320	0.3621
1329	0.5712
1338	0.5288
1347	0.3266
1356	0.0441
1365	0.0446
1374	0.2536
1383	0.4778
1392	0.5775
1401	0.498
1410	0.2442
1419	0.1703
1428	0.2564
1437	0.3047
1446	0.2153
1455	0.141
1464	0.0467
1473	0.0339
1482	0.1627
1491	0.4863
1500	0.7056
1509	0.7643
1518	0.7894
1527	0.7949
1536	0.7924
1545	0.7788
1554	0.7685
1563	0.7223
1572	0.6459
1581	0.6566
1590	0.5607
1599	0.454
1608	0.7638
1617	0.7855
1626	0.7912
1635	0.7933
1644	0.7914
1653	0.7373
1662	0.6731
1671	0.565
1680	0.4813
1689	0.1157
1698	0.0321
1707	0.0288
1716	0.0546
1725	0.1879
1734	0.2518
1743	0.1818
1752	0.0402
1761	0.0372
1770	0.055
1779	0.349
1788	0.558
1797	0.5857
1806	0.6398
1815	0.706
1824	0.758
1833	0.8356
1842	0.8948
1851	0.9003
1860	0.903
1869	0.9036
1878	0.8998
1887	0.8972
1896	0.8955
1905	0.8939
1914	0.8926
1923	0.8929
1932	0.9023
1941	0.907
1950	0.9081
1959	0.907
1968	0.9058
1977	0.907
1986	0.9106
1995	0.9229
2004	0.9266
2013	0.9206
2022	0.9166
2031	0.9155
2040	0.9164
2049	0.9177
2058	0.9192
2067	0.9209
2076	0.9225
2085	0.9242
2094	0.9259
2103	0.9265
2112	0.9277
2121	0.9299
2130	0.934
2139	0.9362
2148	0.9345
2157	0.9313
2166	0.9262
2175	0.9264
2184	0.9229
2193	0.9203
2202	0.9206
2211	0.9211
2220	0.9196
2229	0.9173
2238	0.9226
2247	0.9217
2256	0.9203
2265	0.9195
2274	0.9192
2283	0.9201
2292	0.9265
2301	0.9211
2310	0.922
2319	0.9232
2328	0.9238
2337	0.9252
2346	0.927
2355	0.9289
2364	0.933
2373	0.943
2382	0.9591
2391	0.9455
2400	0.9161
2409	0.9103
2418	0.9094
2427	0.9068
2436	0.9057
2445	0.9064
2454	0.9069
2463	0.9058
2472	0.9055
2481	0.9044
2490	0.9038
2499	0.9071
2508	0.9069
2517	0.9102
2526	0.91
2535	0.9093
2544	0.9067
2553	0.9027
2562	0.8986
2571	0.8945
2580	0.8907
2589	0.8892
2598	0.8902
2607	0.8926
2616	0.8964
2625	0.9012
2634	0.9046
2643	0.9031
2652	0.904
2661	0.9061
2670	0.9045
2679	0.9018
2688	0.9038
2697	0.9051
2706	0.903
2715	0.9007
2724	0.8993
2733	0.8982
2742	0.8981
2751	0.8973
2760	0.8943
2769	0.8896
2778	0.8796
2787	0.871
2796	0.8652
2805	0.8559
2814	0.8432
2823	0.7187
2832	0.6528
2841	0.7664
2850	0.8178
2859	0.8122
2868	0.7931
2877	0.7678
2886	0.7433
2895	0.7273
2904	0.7269
2913	0.6711
2922	0.5603
2931	0.477
2940	0.507
2949	0.5857
2958	0.5527
2967	0.5737
2976	0.6348
2985	0.6255
2994	0.5519
3003	0.467
3012	0.457
3021	0.4709
3030	0.6351
3039	0.7104
3048	0.7595
3057	0.7802
3066	0.798
3075	0.8058
3084	0.8091
3093	0.8141
3102	0.8404
3111	0.8517
3120	0.8586
3129	0.8643
3138	0.8683
3147	0.8718
3156	0.8743
3165	0.8769
3174	0.8796
3183	0.8794
3192	0.8777
3201	0.8822
3210	0.8866
3219	0.8886
3228	0.8903
3237	0.8908
3246	0.8912
3255	0.891
3264	0.8908
3273	0.8905
3282	0.89
3291	0.8895
3300	0.8874
3309	0.8847
3318	0.8832
3327	0.8822
3336	0.8816
3345	0.8805
3354	0.8791
3363	0.8778
3372	0.8767
3381	0.8744
3390	0.8689
3399	0.8645
3408	0.8616
3417	0.8597
3426	0.8585
3435	0.857
3444	0.8546
3453	0.8508
3462	0.848
3471	0.8517
3480	0.8591
3489	0.8653
3498	0.8634
3507	0.8603
3516	0.8599
3525	0.8616
3534	0.8638
3543	0.8666
3552	0.8706
3561	0.8747
3570	0.8729
3579	0.8844
3588	0.8844
3597	0.8834
3606	0.8909
3615	0.8923
3624	0.8919
3633	0.8866
3642	0.8822
3651	0.8788
3660	0.877
3669	0.8791
3678	0.8812
3687	0.8834
3696	0.886
3705	0.889
3714	0.8909
3723	0.8915
3732	0.8925
3741	0.8942
3750	0.8944
3759	0.8946
3768	0.894
3777	0.8933
3786	0.8916
3795	0.8898
3804	0.8862
3813	0.8828
3822	0.8825
3831	0.8848
3840	0.8853
3849	0.8854
3858	0.8855
3867	0.8846
3876	0.8835
3885	0.8823
3894	0.8815
3903	0.8809
3912	0.8803
3921	0.8797
3930	0.8795
3939	0.8796
3948	0.8796
3957	0.88
3966	0.8806
3975	0.8815
3984	0.8829
3993	0.8844
