Infrared Spectrum: Cyclohexanemalonic acid, 4,4-dimethyl-Alpha-hydroxy-2-(1-hydroxyethyl)-,Gamma,Delta-dilactone
Formula: C13 H18 O4
State: SOLUTION 7% (CHCl3 FOR 2.5-12.5 microns)
Melting point: 190-191 C
Class: COBLENTZ
Instrument: PERKIN-ELMER 21 (GRATING)
Instrument parameters: FILTER AT ABOUT 10 MICRONS
Path length: 0.01 CM
Resolution: 2
Origin: ABBOTT LABORATORIES
1/CM	TRANSMITTANCE
797	0.9707
806	0.9469
815	0.8932
824	0.794
833	0.7944
842	0.8082
851	0.715
860	0.887
869	0.7594
878	0.8935
887	0.8927
896	0.7346
905	0.8879
914	0.7991
923	0.7168
932	0.3836
941	0.4616
950	0.4081
959	0.838
968	0.8189
977	0.7057
986	0.6
995	0.5691
1004	0.7318
1013	0.8238
1022	0.8986
1031	0.8989
1040	0.883
1049	0.8471
1058	0.7595
1067	0.8439
1076	0.422
1085	0.6552
1094	0.5089
1103	0.7255
1112	0.4956
1121	0.0666
1130	0.3574
1139	0.6191
1148	0.444
1157	0.1228
1166	0.4653
1175	0.4074
1184	0.49
1193	0.3211
1202	0.321
1211	0.3186
1220	0.3143
1229	0.3091
1238	0.3548
1247	0.3003
1256	0.3707
1265	0.2809
1274	0.2059
1283	0.1758
1292	0.3601
1301	0.5262
1310	0.6191
1319	0.5622
1328	0.4769
1337	0.6453
1346	0.5849
1355	0.6899
1364	0.4999
1373	0.3668
1382	0.5365
1391	0.8529
1400	0.8865
1409	0.8918
1418	0.8639
1427	0.7988
1436	0.6439
1445	0.5821
1454	0.7398
1463	0.829
1472	0.8685
1481	0.9031
1490	0.9191
1499	0.9538
1508	0.956
1517	0.9564
1526	0.9503
1535	0.9434
1544	0.9418
1553	0.9403
1562	0.9398
1571	0.9387
1580	0.9343
1589	0.9196
1598	0.9128
1607	0.9087
1616	0.9063
1625	0.9019
1634	0.8894
1643	0.8741
1652	0.847
1661	0.8028
1670	0.7516
1679	0.6477
1688	0.5432
1697	0.3594
1706	0.3728
1715	0.3437
1724	0.1644
1733	0.0228
1742	0.0126
1751	0.0643
1760	0.2958
1769	0.6345
1778	0.7724
1787	0.8265
1796	0.8611
1805	0.8715
1814	0.8792
1823	0.888
1832	0.8957
1841	0.9115
1850	0.9306
1859	0.9331
1868	0.9387
1877	0.9408
1886	0.9415
1895	0.9421
1904	0.9434
1913	0.9452
1922	0.9466
1931	0.948
1940	0.9489
1949	0.9495
1958	0.9502
1967	0.9506
1976	0.9507
1985	0.9507
1994	0.9507
2003	0.9507
2012	0.9508
2021	0.951
2030	0.9514
2039	0.9517
2048	0.9521
2057	0.9524
2066	0.9527
2075	0.9531
2084	0.9533
2093	0.9536
2102	0.9539
2111	0.9542
2120	0.9536
2129	0.953
2138	0.9523
2147	0.9513
2156	0.9504
2165	0.9495
2174	0.9492
2183	0.949
2192	0.9487
2201	0.9483
2210	0.948
2219	0.9477
2228	0.9474
2237	0.9468
2246	0.9461
2255	0.9454
2264	0.9448
2273	0.9441
2282	0.9439
2291	0.9443
2300	0.9448
2309	0.9452
2318	0.9456
2327	0.9456
2336	0.9451
2345	0.9446
2354	0.9441
2363	0.9427
2372	0.9388
2381	0.935
2390	0.9312
2399	0.9292
2408	0.9286
2417	0.9283
2426	0.9296
2435	0.931
2444	0.9323
2453	0.9333
2462	0.9344
2471	0.9355
2480	0.9368
2489	0.9384
2498	0.94
2507	0.9416
2516	0.9429
2525	0.9441
2534	0.9453
2543	0.9465
2552	0.9475
2561	0.9484
2570	0.9493
2579	0.9501
2588	0.9504
2597	0.9507
2606	0.9509
2615	0.9497
2624	0.9483
2633	0.9492
2642	0.9516
2651	0.9523
2660	0.9516
2669	0.9502
2678	0.9486
2687	0.9468
2696	0.9451
2705	0.9442
2714	0.9435
2723	0.9425
2732	0.9411
2741	0.9397
2750	0.9358
2759	0.9286
2768	0.921
2777	0.9151
2786	0.9111
2795	0.9044
2804	0.8906
2813	0.8623
2822	0.8301
2831	0.798
2840	0.7661
2849	0.7344
2858	0.7138
2867	0.7031
2876	0.6456
2885	0.5766
2894	0.5502
2903	0.5283
2912	0.5194
2921	0.5238
2930	0.5421
2939	0.5409
2948	0.5267
2957	0.5128
2966	0.5085
2975	0.5516
2984	0.6226
2993	0.6931
3002	0.7632
3011	0.8329
3020	0.8895
3029	0.901
3038	0.9095
3047	0.918
3056	0.9262
3065	0.9328
3074	0.9364
3083	0.9401
3092	0.9435
3101	0.9458
3110	0.9477
3119	0.9488
3128	0.9499
3137	0.951
3146	0.9515
3155	0.9516
3164	0.9516
3173	0.9516
3182	0.9517
3191	0.9516
3200	0.9515
3209	0.9514
3218	0.9513
3227	0.9512
3236	0.9509
3245	0.95
3254	0.9493
3263	0.9484
3272	0.9476
3281	0.9468
3290	0.9458
3299	0.9448
3308	0.9437
3317	0.9427
3326	0.9418
3335	0.9415
3344	0.9412
3353	0.941
3362	0.9408
3371	0.9411
3380	0.9413
3389	0.9416
3398	0.9418
3407	0.942
3416	0.9425
3425	0.9431
3434	0.9436
3443	0.9442
3452	0.9448
3461	0.9464
3470	0.9481
3479	0.95
3488	0.9527
3497	0.9558
3506	0.9583
3515	0.9596
3524	0.9605
3533	0.9605
3542	0.9605
3551	0.9606
3560	0.9606
3569	0.9606
3578	0.9606
3587	0.9607
3596	0.9607
3605	0.9609
3614	0.961
3623	0.961
3632	0.9612
3641	0.9613
3650	0.9614
3659	0.9615
3668	0.9616
3677	0.9616
3686	0.9616
3695	0.9615
3704	0.9614
3713	0.9614
3722	0.9613
3731	0.9613
3740	0.9612
3749	0.9612
3758	0.9612
3767	0.9612
3776	0.9612
3785	0.9612
3794	0.9611
3803	0.9611
3812	0.9611
3821	0.9611
3830	0.9611
3839	0.9611
3848	0.9611
3857	0.9611
3866	0.9611
3875	0.9611
3884	0.961
3893	0.961
3902	0.961
3911	0.961
3920	0.9609
3929	0.9609
3938	0.9609
3947	0.9609
3956	0.9608
3965	0.9608
3974	0.9608
3983	0.9608
3992	0.9608
