Infrared Spectrum: AMMONIUM HEPTAMOLYBDATE
Formula: ( N H4)6 Mo7 O24  * 4 H2 O
State: SOLID (NUJOL AND FLUOROLUBE MULLS)
Class: COBLENTZ
Instrument: Not specified, most likely a prism, grating, or hybrid spectrometer.
Sampling: TRANSMISSION
Resolution: 4
Origin: MELLON INSTITUTE
MICROMETERS	TRANSMITTANCE
2.013	0.547
2.05384	0.55
2.09468	0.557
2.13552	0.559
2.17636	0.56
2.2172	0.567
2.25805	0.572
2.29889	0.579
2.33973	0.583
2.38057	0.586
2.42141	0.602
2.46225	0.61
2.50309	0.617
2.54393	0.634
2.58477	0.65
2.62561	0.672
2.66646	0.684
2.7073	0.696
2.74814	0.71
2.78898	0.711
2.82982	0.692
2.87066	0.682
2.9115	0.674
2.95234	0.667
2.99318	0.653
3.03402	0.622
3.07486	0.571
3.11571	0.55
3.15655	0.542
3.19739	0.536
3.23823	0.531
3.27907	0.531
3.31991	0.542
3.36075	0.564
3.40159	0.59
3.44243	0.607
3.48327	0.62
3.52412	0.627
3.56496	0.638
3.6058	0.653
3.64664	0.668
3.68748	0.687
3.72832	0.701
3.76916	0.715
3.81	0.722
3.85084	0.727
3.89168	0.74
3.93252	0.746
3.97337	0.754
4.01421	0.759
4.05505	0.761
4.09589	0.766
4.13673	0.771
4.17757	0.768
4.21841	0.768
4.25925	0.77
4.30009	0.773
4.34093	0.777
4.38178	0.78
4.42262	0.782
4.46346	0.789
4.5043	0.792
4.54514	0.792
4.58598	0.794
4.62682	0.799
4.66766	0.802
4.7085	0.806
4.74934	0.811
4.79018	0.818
4.83103	0.823
4.87187	0.826
4.91271	0.83
4.95355	0.831
4.99439	0.833
5.03523	0.838
5.07607	0.845
5.11691	0.852
5.15775	0.861
5.19859	0.866
5.23944	0.866
5.28028	0.874
5.32112	0.883
5.36196	0.888
5.4028	0.893
5.44364	0.893
5.48448	0.9
5.52532	0.905
5.56616	0.91
5.607	0.917
5.64785	0.921
5.68869	0.927
5.72953	0.934
5.77037	0.938
5.81121	0.941
5.85205	0.945
5.89289	0.945
5.93373	0.929
5.97457	0.922
6.01541	0.9
6.05625	0.893
6.0971	0.898
6.13794	0.921
6.17878	0.941
6.21962	0.951
6.26046	0.953
6.3013	0.951
6.34214	0.953
6.38298	0.955
6.42382	0.957
6.46466	0.96
6.50551	0.962
6.54635	0.969
6.58719	0.967
6.62803	0.974
6.66887	0.975
6.70971	0.958
6.75055	0.941
6.79139	0.897
6.83223	0.857
6.87307	0.739
6.91391	0.68
6.95476	0.632
6.9956	0.598
7.03644	0.578
7.07728	0.579
7.11812	0.614
7.15896	0.674
7.1998	0.732
7.24064	0.77
7.28148	0.78
7.32232	0.787
7.36317	0.795
7.40401	0.804
7.44485	0.816
7.48569	0.833
7.52653	0.845
7.56737	0.857
7.60821	0.862
7.64905	0.866
7.68989	0.871
7.73073	0.876
7.77157	0.885
7.81242	0.888
7.85326	0.891
7.8941	0.893
7.93494	0.9
7.97578	0.905
8.01662	0.909
8.05746	0.915
8.0983	0.919
8.13914	0.921
8.17998	0.917
8.22083	0.921
8.26167	0.924
8.30251	0.924
8.34335	0.927
8.38419	0.931
8.42503	0.934
8.46587	0.934
8.50671	0.931
8.54755	0.927
8.58839	0.931
8.62923	0.927
8.67008	0.927
8.71092	0.931
8.75176	0.933
8.7926	0.931
8.83344	0.936
8.87428	0.938
8.91512	0.934
8.95596	0.939
8.9968	0.938
9.03764	0.939
9.07849	0.945
9.11933	0.946
9.16017	0.945
9.20101	0.943
9.24185	0.946
9.28269	0.951
9.32353	0.95
9.36437	0.946
9.40521	0.946
9.44605	0.946
9.48689	0.945
9.52774	0.946
9.56858	0.95
9.60942	0.951
9.65026	0.957
9.6911	0.955
9.73194	0.953
9.77278	0.95
9.81362	0.951
9.85446	0.946
9.8953	0.95
9.93615	0.953
9.97699	0.96
10.0178	0.957
10.0587	0.957
10.0995	0.953
10.1404	0.945
10.1812	0.943
10.222	0.941
10.2629	0.934
10.3037	0.931
10.3446	0.927
10.3854	0.922
10.4262	0.921
10.4671	0.919
10.5079	0.902
10.5488	0.885
10.5896	0.845
10.6304	0.799
10.6713	0.744
10.7121	0.728
10.753	0.701
10.7938	0.656
10.8346	0.627
10.8755	0.598
10.9163	0.554
10.9572	0.543
10.998	0.542
11.0389	0.519
11.0797	0.48
11.1205	0.418
11.1614	0.367
11.2022	0.329
11.2431	0.293
11.2839	0.271
11.3247	0.253
11.3656	0.25
11.4064	0.248
11.4473	0.255
11.4881	0.281
11.5289	0.337
11.5698	0.415
11.6106	0.452
11.6515	0.485
11.6923	0.519
11.7331	0.562
11.774	0.588
11.8148	0.581
11.8557	0.55
11.8965	0.526
11.9374	0.511
11.9782	0.521
12.019	0.572
12.0599	0.631
12.1007	0.67
12.1416	0.715
12.1824	0.761
12.2232	0.787
12.2641	0.802
12.3049	0.828
12.3458	0.84
12.3866	0.845
12.4274	0.859
12.4683	0.864
12.5091	0.874
12.55	0.878
12.5908	0.876
12.6316	0.881
12.6725	0.879
12.7133	0.874
12.7542	0.881
12.795	0.879
12.8359	0.874
12.8767	0.864
12.9175	0.857
12.9584	0.854
12.9992	0.847
13.0401	0.842
13.0809	0.833
13.1217	0.819
13.1626	0.811
13.2034	0.802
13.2443	0.783
13.2851	0.777
13.3259	0.773
13.3668	0.761
13.4076	0.744
13.4485	0.732
13.4893	0.713
13.5301	0.696
13.571	0.682
13.6118	0.675
13.6527	0.663
13.6935	0.644
13.7344	0.629
13.7752	0.62
13.816	0.607
13.8569	0.602
13.8977	0.595
13.9386	0.588
13.9794	0.578
14.0202	0.566
14.0611	0.559
14.1019	0.547
14.1428	0.542
14.1836	0.533
14.2244	0.519
14.2653	0.511
14.3061	0.502
14.347	0.493
14.3878	0.49
14.4287	0.487
14.4695	0.481
14.5103	0.475
14.5512	0.469
14.592	0.464
14.6329	0.463
14.6737	0.449
14.7145	0.444
14.7554	0.439
14.7962	0.435
14.8371	0.437
14.8779	0.43
14.9187	0.42
14.9596	0.415
15.0004	0.408
15.0413	0.409
15.0821	0.406
15.1229	0.409
15.1638	0.415
15.2046	0.415
15.2455	0.413
15.2863	0.416
15.3272	0.418
15.368	0.416
15.4088	0.423
15.4497	0.421
15.4905	0.428
15.5314	0.432
15.5722	0.432
15.613	0.433
15.6539	0.435
15.6947	0.445
15.7356	0.451
15.7764	0.454
15.8172	0.454
15.8581	0.456
15.8989	0.461
15.9398	0.469
