Infrared Spectrum: EVANS BLUE
Formula: C34 H24 N6 Na4 O14 S4
State: SOLID (0.72 mg / 200 mg KBr DISC)
Class: COBLENTZ III
Instrument: PERKIN-ELMER 21 (GRATING)
Instrument parameters: FILTER AT ABOUT 10 MICRONS
Sampling: TRANSMISSION
Resolution: 2
1/CM	TRANSMITTANCE
4000	0.8963
3991	0.8975
3982	0.8993
3973	0.9008
3964	0.9024
3955	0.9039
3946	0.9054
3937	0.9066
3928	0.9076
3919	0.9086
3910	0.9096
3901	0.9105
3892	0.9115
3883	0.9124
3874	0.9135
3865	0.9145
3856	0.9155
3847	0.9164
3838	0.9175
3829	0.9184
3820	0.9193
3811	0.9203
3802	0.9213
3793	0.9221
3784	0.9229
3775	0.9238
3766	0.9248
3757	0.9259
3748	0.927
3739	0.9281
3730	0.9292
3721	0.9304
3712	0.9316
3703	0.9328
3694	0.9341
3685	0.9349
3676	0.9348
3667	0.9335
3658	0.9318
3649	0.9289
3640	0.9243
3631	0.9177
3622	0.9087
3613	0.8844
3604	0.8415
3595	0.8008
3586	0.7734
3577	0.7462
3568	0.7071
3559	0.6873
3550	0.6715
3541	0.651
3532	0.6288
3523	0.6133
3514	0.5947
3505	0.5752
3496	0.5608
3487	0.5466
3478	0.5325
3469	0.521
3460	0.5083
3451	0.5016
3442	0.4982
3433	0.4954
3424	0.4938
3415	0.4927
3406	0.4919
3397	0.4912
3388	0.494
3379	0.5022
3370	0.5182
3361	0.5353
3352	0.5531
3343	0.5717
3334	0.5946
3325	0.6257
3316	0.6514
3307	0.66
3298	0.6642
3289	0.6671
3280	0.6703
3271	0.6736
3262	0.6795
3253	0.6862
3244	0.6929
3235	0.7015
3226	0.7114
3217	0.7214
3208	0.7317
3199	0.7429
3190	0.7546
3181	0.7684
3172	0.7807
3163	0.7905
3154	0.8003
3145	0.8094
3136	0.8168
3127	0.8243
3118	0.8314
3109	0.8377
3100	0.8438
3091	0.8488
3082	0.8525
3073	0.8563
3064	0.8596
3055	0.8629
3046	0.8658
3037	0.869
3028	0.872
3019	0.8748
3010	0.8771
3001	0.8789
2992	0.8802
2983	0.8803
2974	0.8803
2965	0.88
2956	0.8797
2947	0.8794
2938	0.879
2929	0.8788
2920	0.8793
2911	0.8798
2902	0.8804
2893	0.881
2884	0.8824
2875	0.8839
2866	0.8853
2857	0.8868
2848	0.8883
2839	0.8898
2830	0.8916
2821	0.8934
2812	0.8947
2803	0.8959
2794	0.8968
2785	0.8965
2776	0.8962
2767	0.8958
2758	0.8961
2749	0.8968
2740	0.8978
2731	0.8986
2722	0.8998
2713	0.9011
2704	0.9026
2695	0.9038
2686	0.9051
2677	0.9064
2668	0.9076
2659	0.9088
2650	0.91
2641	0.9116
2632	0.9132
2623	0.9147
2614	0.9163
2605	0.9179
2596	0.9191
2587	0.9201
2578	0.9214
2569	0.9225
2560	0.9231
2551	0.9237
2542	0.9242
2533	0.9247
2524	0.9252
2515	0.9257
2506	0.9261
2497	0.9263
2488	0.9264
2479	0.9264
2470	0.9265
2461	0.9265
2452	0.9267
2443	0.9269
2434	0.9272
2425	0.9286
2416	0.93
2407	0.9312
2398	0.9324
2389	0.9334
2380	0.934
2371	0.9345
2362	0.9346
2353	0.9339
2344	0.9333
2335	0.9332
2326	0.9334
2317	0.9337
2308	0.9355
2299	0.9372
2290	0.939
2281	0.9409
2272	0.9404
2263	0.9392
2254	0.9381
2245	0.9371
2236	0.9365
2227	0.9359
2218	0.9355
2209	0.9355
2200	0.936
2191	0.9376
2182	0.9394
2173	0.9395
2164	0.9391
2155	0.9386
2146	0.9383
2137	0.9383
2128	0.9385
2119	0.9386
2110	0.9379
2101	0.9371
2092	0.9362
2083	0.9349
2074	0.9348
2065	0.9349
2056	0.9352
2047	0.9369
2038	0.9391
2029	0.9402
2020	0.9401
2011	0.9394
2002	0.9396
1993	0.9403
1984	0.9418
1975	0.9442
1966	0.9469
1957	0.9462
1948	0.9451
1939	0.9442
1930	0.944
1921	0.9438
1912	0.9437
1903	0.9436
1894	0.944
1885	0.9442
1876	0.9445
1867	0.9449
1858	0.9451
1849	0.9453
1840	0.9457
1831	0.9469
1822	0.947
1813	0.9464
1804	0.9457
1795	0.9449
1786	0.9434
1777	0.9416
1768	0.9397
1759	0.9377
1750	0.9356
1741	0.9341
1732	0.9331
1723	0.9287
1714	0.9243
1705	0.9188
1696	0.908
1687	0.8849
1678	0.8577
1669	0.831
1660	0.802
1651	0.7631
1642	0.7337
1633	0.6449
1624	0.5824
1615	0.5708
1606	0.6
1597	0.6607
1588	0.6619
1579	0.5614
1570	0.4624
1561	0.4882
1552	0.6303
1543	0.6705
1534	0.7696
1525	0.7633
1516	0.7032
1507	0.4928
1498	0.4131
1489	0.4348
1480	0.569
1471	0.6831
1462	0.6976
1453	0.6474
1444	0.7076
1435	0.7016
1426	0.5898
1417	0.56
1408	0.639
1399	0.7516
1390	0.822
1381	0.8429
1372	0.8724
1363	0.8835
1354	0.8794
1345	0.8113
1336	0.7529
1327	0.6181
1318	0.5907
1309	0.561
1300	0.6161
1291	0.6729
1282	0.6932
1273	0.6745
1264	0.6024
1255	0.5264
1246	0.4491
1237	0.3871
1228	0.3777
1219	0.3913
1210	0.3975
1201	0.3926
1192	0.3845
1183	0.3841
1174	0.399
1165	0.4414
1156	0.4466
1147	0.4798
1138	0.582
1129	0.6894
1120	0.6962
1111	0.5727
1102	0.6517
1093	0.7342
1084	0.7457
1075	0.6537
1066	0.4384
1057	0.3842
1048	0.3502
1039	0.3605
1030	0.4532
1021	0.5385
1012	0.6848
1003	0.76
994	0.8005
985	0.8328
976	0.8657
967	0.883
958	0.8935
949	0.9037
940	0.9089
931	0.9103
922	0.9044
913	0.9168
904	0.9305
895	0.9358
886	0.9268
877	0.8973
868	0.7766
859	0.8582
850	0.8724
841	0.8775
832	0.8771
823	0.7898
814	0.733
805	0.7696
796	0.831
787	0.8489
778	0.86
769	0.8997
760	0.9026
751	0.8826
742	0.7144
733	0.7907
724	0.8145
715	0.8345
706	0.8349
697	0.7645
688	0.5456
679	0.65
670	0.6207
661	0.4625
