Infrared Spectrum: 1,1'-HEXAMETHYLENEBIS[5-(p-CHLOROPHENYL)-BIGUANIDE]-, DIHYDROCHLORIDE
Formula: C22 H32 Cl4 N10
State: SOLID (KCl DISC) VS KCl
Melting point: 257 C
Class: COBLENTZ III
Instrument: PERKIN-ELMER 21 (GRATING)
Instrument parameters: FILTER AT ABOUT 10 MICRONS
Sampling: TRANSMISSION
Resolution: 2
1/CM	TRANSMITTANCE
4000	0.9778
3991	0.978
3982	0.9783
3973	0.9786
3964	0.9788
3955	0.9791
3946	0.9794
3937	0.9798
3928	0.9801
3919	0.9804
3910	0.9808
3901	0.9812
3892	0.9816
3883	0.9818
3874	0.9823
3865	0.9827
3856	0.9831
3847	0.9835
3838	0.9842
3829	0.9851
3820	0.987
3811	0.9909
3802	0.9933
3793	0.993
3784	0.9911
3775	0.989
3766	0.988
3757	0.9873
3748	0.987
3739	0.9882
3730	0.9917
3721	0.9949
3712	0.9977
3703	1.0002
3694	1.0023
3685	1.0041
3676	1.0052
3667	1.006
3658	1.0068
3649	1.0075
3640	1.0078
3631	1.0084
3622	1.0089
3613	1.0093
3604	1.0098
3595	1.0094
3586	1.0088
3577	1.0081
3568	1.0068
3559	1.0036
3550	0.9965
3541	0.9821
3532	0.9678
3523	0.9537
3514	0.939
3505	0.9223
3496	0.8982
3487	0.8789
3478	0.863
3469	0.829
3460	0.8022
3451	0.7772
3442	0.7318
3433	0.6861
3424	0.6401
3415	0.5939
3406	0.5475
3397	0.5008
3388	0.4539
3379	0.4066
3370	0.3596
3361	0.3366
3352	0.3225
3343	0.3027
3334	0.2583
3325	0.2404
3316	0.2124
3307	0.1779
3298	0.1438
3289	0.1405
3280	0.1414
3271	0.1496
3262	0.1578
3253	0.166
3244	0.1743
3235	0.1827
3226	0.191
3217	0.1992
3208	0.2016
3199	0.1929
3190	0.1753
3181	0.1576
3172	0.155
3163	0.1548
3154	0.1607
3145	0.1686
3136	0.1769
3127	0.1851
3118	0.1927
3109	0.1979
3100	0.2035
3091	0.2228
3082	0.2533
3073	0.2841
3064	0.3149
3055	0.3459
3046	0.3772
3037	0.4087
3028	0.4352
3019	0.4517
3010	0.4601
3001	0.4637
2992	0.4666
2983	0.4685
2974	0.4697
2965	0.4712
2956	0.4762
2947	0.4814
2938	0.4841
2929	0.4691
2920	0.452
2911	0.449
2902	0.4625
2893	0.4934
2884	0.5246
2875	0.556
2866	0.5829
2857	0.5971
2848	0.6064
2839	0.6069
2830	0.6088
2821	0.634
2812	0.6667
2803	0.6981
2794	0.7058
2785	0.7112
2776	0.7161
2767	0.7215
2758	0.7271
2749	0.7325
2740	0.7371
2731	0.7418
2722	0.7467
2713	0.7515
2704	0.7558
2695	0.7601
2686	0.7642
2677	0.7683
2668	0.7721
2659	0.7761
2650	0.7801
2641	0.7833
2632	0.7855
2623	0.7876
2614	0.7907
2605	0.794
2596	0.7974
2587	0.8003
2578	0.8033
2569	0.8058
2560	0.8081
2551	0.8104
2542	0.8118
2533	0.8133
2524	0.8143
2515	0.8151
2506	0.8161
2497	0.8168
2488	0.8175
2479	0.818
2470	0.8181
2461	0.8176
2452	0.8171
2443	0.8161
2434	0.8151
2425	0.8147
2416	0.8161
2407	0.8202
2398	0.8214
2389	0.8217
2380	0.8234
2371	0.8277
2362	0.8313
2353	0.8349
2344	0.8373
2335	0.8389
2326	0.8401
2317	0.8386
2308	0.837
2299	0.836
2290	0.8349
2281	0.8338
2272	0.8327
2263	0.8314
2254	0.83
2245	0.8287
2236	0.8275
2227	0.8265
2218	0.8257
2209	0.828
2200	0.8305
2191	0.8301
2182	0.8275
2173	0.826
2164	0.8267
2155	0.8271
2146	0.8255
2137	0.8234
2128	0.8224
2119	0.8237
2110	0.8258
2101	0.8274
2092	0.828
2083	0.828
2074	0.8288
2065	0.8304
2056	0.8324
2047	0.8321
2038	0.8323
2029	0.8344
2020	0.836
2011	0.8367
2002	0.8351
1993	0.8332
1984	0.8312
1975	0.8285
1966	0.8295
1957	0.8346
1948	0.837
1939	0.8384
1930	0.8398
1921	0.8386
1912	0.835
1903	0.8296
1894	0.8252
1885	0.8231
1876	0.8096
1867	0.8151
1858	0.8216
1849	0.8245
1840	0.8341
1831	0.8325
1822	0.8275
1813	0.8217
1804	0.8167
1795	0.8145
1786	0.8124
1777	0.8091
1768	0.8051
1759	0.7881
1750	0.7782
1741	0.7651
1732	0.7508
1723	0.7425
1714	0.744
1705	0.7228
1696	0.6968
1687	0.6096
1678	0.531
1669	0.4384
1660	0.2249
1651	0.1248
1642	0.0451
1633	0.0358
1624	0.0387
1615	0.0638
1606	0.0789
1597	0.0817
1588	0.1184
1579	0.07
1570	0.0989
1561	0.1006
1552	0.0826
1543	0.045
1534	0.0342
1525	0.0207
1516	0.0455
1507	0.1132
1498	0.1116
1489	0.0537
1480	0.1975
1471	0.2328
1462	0.273
1453	0.2845
1444	0.3164
1435	0.3232
1426	0.3163
1417	0.172
1408	0.1886
1399	0.3209
1390	0.3558
1381	0.2812
1372	0.2928
1363	0.3456
1354	0.31
1345	0.3646
1336	0.3995
1327	0.4494
1318	0.4683
1309	0.4678
1300	0.408
1291	0.4312
1282	0.4158
1273	0.4834
1264	0.5164
1255	0.4804
1246	0.4075
1237	0.4195
1228	0.5069
1219	0.4916
1210	0.5064
1201	0.5316
1192	0.5278
1183	0.5005
1174	0.4823
1165	0.4712
1156	0.4245
1147	0.4162
1138	0.4512
1129	0.5047
1120	0.5235
1111	0.5109
1102	0.5308
1093	0.3771
1084	0.4595
1075	0.4796
1066	0.4784
1057	0.5083
1048	0.5337
1039	0.5537
1030	0.5645
1021	0.5723
1012	0.4806
1003	0.5652
994	0.5751
985	0.5975
976	0.6146
967	0.621
958	0.6283
949	0.6186
940	0.6341
931	0.6327
922	0.6433
913	0.6435
904	0.6508
895	0.6518
886	0.6528
877	0.6546
868	0.6561
859	0.6305
850	0.5973
841	0.5464
832	0.4351
823	0.2589
814	0.4656
805	0.5537
796	0.6149
787	0.6142
778	0.593
769	0.5694
760	0.5172
751	0.4155
742	0.3859
733	0.3744
724	0.3006
715	0.3597
706	0.4179
697	0.4653
688	0.4832
679	0.4981
670	0.4958
