Infrared Spectrum: ANILINE, N,o-DI-sec-BUTYL-
Formula: C14 H23 N
State: LIQUID (NEAT)
Class: COBLENTZ III
Instrument: BECKMAN IR-4 (HYBRID PRISM-GRATING)
Instrument parameters: NaCl PRISM
Sampling: TRANSMISSION
Path length: CAPILLARY
Resolution: 2
Origin: MONSANTO (J. FREEMAN)
1/CM	TRANSMITTANCE
3902.44	0.922
3893.71	0.9228
3884.97	0.9236
3876.24	0.9246
3867.5	0.9255
3858.77	0.9263
3850.03	0.9272
3841.3	0.9281
3832.56	0.929
3823.83	0.9299
3815.09	0.9307
3806.36	0.9314
3797.62	0.9324
3788.89	0.9331
3780.16	0.9338
3771.42	0.9343
3762.69	0.9346
3753.95	0.9342
3745.22	0.9338
3736.48	0.9336
3727.75	0.9334
3719.01	0.9333
3710.28	0.9332
3701.54	0.9332
3692.81	0.9333
3684.08	0.9333
3675.34	0.9334
3666.61	0.9335
3657.87	0.9337
3649.14	0.9338
3640.4	0.9339
3631.67	0.9341
3622.93	0.9344
3614.2	0.9346
3605.46	0.9349
3596.73	0.9348
3587.99	0.9346
3579.26	0.9345
3570.53	0.9339
3561.79	0.933
3553.06	0.9321
3544.32	0.9307
3535.59	0.9292
3526.85	0.9276
3518.12	0.9248
3509.38	0.9214
3500.65	0.9155
3491.91	0.9018
3483.18	0.8834
3474.45	0.856
3465.71	0.809
3456.98	0.762
3448.24	0.7525
3439.51	0.7525
3430.77	0.7634
3422.04	0.7803
3413.3	0.7972
3404.57	0.8142
3395.83	0.8313
3387.1	0.8486
3378.36	0.8659
3369.63	0.8831
3360.9	0.9006
3352.16	0.9158
3343.43	0.9231
3334.69	0.9277
3325.96	0.9314
3317.22	0.9337
3308.49	0.9356
3299.75	0.9365
3291.02	0.9372
3282.28	0.9378
3273.55	0.9381
3264.82	0.9378
3256.08	0.937
3247.35	0.9359
3238.61	0.9329
3229.88	0.9286
3221.14	0.9243
3212.41	0.9196
3203.67	0.9156
3194.94	0.9127
3186.2	0.9108
3177.47	0.9097
3168.73	0.9093
3160	0.9088
3151.27	0.9079
3142.53	0.9057
3133.8	0.8979
3125.06	0.8665
3116.33	0.8301
3107.59	0.7935
3098.86	0.7567
3090.12	0.7196
3081.39	0.6825
3072.65	0.6597
3063.92	0.6568
3055.19	0.654
3046.45	0.6466
3037.72	0.636
3028.98	0.6335
3020.25	0.6413
3011.51	0.645
3002.78	0.6113
2994.04	0.5531
2985.31	0.4946
2976.57	0.4358
2967.84	0.3765
2959.1	0.317
2950.37	0.257
2941.64	0.2276
2932.9	0.2447
2924.17	0.2849
2915.43	0.3013
2906.7	0.3101
2897.96	0.3592
2889.23	0.3941
2880.49	0.3869
2871.76	0.3754
2863.02	0.3643
2854.29	0.6934
2845.56	0.7319
2836.82	0.7578
2828.09	0.7889
2819.35	0.832
2810.62	0.8567
2801.88	0.8728
2793.15	0.8815
2784.41	0.887
2775.68	0.8896
2766.94	0.8898
2758.21	0.8883
2749.47	0.8857
2740.74	0.8849
2732.01	0.8869
2723.27	0.8941
2714.54	0.9027
2705.8	0.9127
2697.07	0.9178
2688.33	0.9204
2679.6	0.9198
2670.86	0.9189
2662.13	0.9175
2653.39	0.916
2644.66	0.9148
2635.93	0.9138
2627.19	0.9126
2618.46	0.9125
2609.72	0.9124
2600.99	0.9136
2592.25	0.9155
2583.52	0.9177
2574.78	0.9212
2566.05	0.9246
2557.31	0.928
2548.58	0.9319
2539.84	0.9359
2531.11	0.94
2522.38	0.9437
2513.64	0.9473
2504.91	0.951
2496.17	0.954
2487.44	0.9553
2478.7	0.9543
2469.97	0.9534
2461.23	0.9525
2452.5	0.9514
2443.76	0.95
2435.03	0.9487
2426.3	0.9488
2417.56	0.95
2408.83	0.9507
2400.09	0.9508
2391.36	0.9488
2382.62	0.9459
2373.89	0.9445
2365.15	0.9447
2356.42	0.947
2347.68	0.9492
2338.95	0.9518
2330.21	0.9545
2321.48	0.9569
2312.75	0.9594
2304.01	0.9616
2295.28	0.9637
2286.54	0.9657
2277.81	0.9675
2269.07	0.9687
2260.34	0.9699
2251.6	0.97
2242.87	0.9699
2234.13	0.9698
2225.4	0.9698
2216.67	0.9697
2207.93	0.9698
2199.2	0.97
2190.46	0.9703
2181.73	0.9705
2172.99	0.9705
2164.26	0.9695
2155.52	0.9686
2146.79	0.9682
2138.05	0.9678
2129.32	0.9685
2120.58	0.9696
2111.85	0.9709
2103.12	0.9723
2094.38	0.9734
2085.65	0.9743
2076.91	0.9754
2068.18	0.9759
2059.44	0.9761
2050.71	0.9763
2041.97	0.9766
2033.24	0.9768
2024.5	0.977
2015.77	0.977
2007.04	0.9771
1998.3	0.9768
1989.57	0.9766
1980.83	0.9764
1972.1	0.976
1963.36	0.975
1954.63	0.9724
1945.89	0.9693
1937.16	0.9648
1928.42	0.9567
1919.69	0.9371
1910.95	0.9387
1902.22	0.944
1893.49	0.9297
1884.75	0.9191
1876.02	0.9424
1867.28	0.9537
1858.55	0.9539
1849.81	0.9565
1841.08	0.9611
1832.34	0.9652
1823.61	0.9672
1814.87	0.9652
1806.14	0.9619
1797.41	0.9594
1788.67	0.9599
1779.94	0.9583
1771.2	0.9504
1762.47	0.9557
1753.73	0.9645
1745	0.975
1736.26	0.9816
1727.53	0.9819
1718.79	0.9745
1710.06	0.9659
1701.32	0.9576
1692.59	0.948
1683.86	0.9385
1675.12	0.9267
1666.39	0.9121
1657.65	0.9123
1648.92	0.9057
1640.18	0.8918
1631.45	0.8366
1622.71	0.7531
1613.98	0.6584
1605.24	0.3987
1596.51	0.4253
1587.78	0.4427
1579.04	0.457
1570.31	0.7373
1561.57	0.8171
1552.84	0.828
1544.1	0.7484
1535.37	0.6864
1526.63	0.5021
1517.9	0.3044
1509.16	0.234
1500.43	0.3027
1491.69	0.5084
1482.96	0.6387
1474.23	0.5775
1465.49	0.355
1456.76	0.2681
1448.02	0.3052
1439.29	0.4556
1430.55	0.5491
1421.82	0.7142
1413.08	0.7743
1404.35	0.7991
1395.61	0.7855
1386.88	0.6341
1378.15	0.4081
1369.41	0.4536
1360.68	0.5804
1351.94	0.6487
1343.21	0.7137
1334.47	0.7071
1325.74	0.6082
1317	0.3952
1308.27	0.3523
1299.53	0.421
1290.8	0.5265
1282.06	0.6043
1273.33	0.5513
1264.6	0.5267
1255.86	0.5304
1247.13	0.525
1238.39	0.6451
1229.66	0.8261
1220.92	0.8832
1212.19	0.9017
1203.45	0.9033
1194.72	0.8575
1185.98	0.8066
1177.25	0.7237
1168.52	0.3914
1159.78	0.4375
1151.05	0.5981
1142.31	0.6597
1133.58	0.7509
1124.84	0.7842
1116.11	0.8213
1107.37	0.8262
1098.64	0.7628
1089.9	0.8467
1081.17	0.8567
1072.43	0.8261
1063.7	0.8102
1054.97	0.8178
1046.23	0.6751
1037.5	0.8127
1028.76	0.8413
1020.03	0.8192
1011.29	0.6857
1002.56	0.7141
993.824	0.7367
985.089	0.8905
976.354	0.8794
967.62	0.8605
958.885	0.8644
950.151	0.895
941.416	0.9096
932.681	0.9011
923.947	0.8341
915.212	0.9357
906.478	0.9841
897.743	0.9944
889.009	0.9805
880.274	0.9865
871.539	0.9805
862.805	0.9562
854.07	0.9295
845.336	0.9097
836.601	0.8866
827.866	0.8949
819.132	0.8545
810.397	0.8608
801.663	0.8649
792.928	0.8899
784.194	0.8695
775.459	0.7985
766.724	0.8299
757.99	0.7538
749.255	0.4172
740.521	0.2273
731.786	0.4491
723.051	0.7238
714.317	0.8802
705.582	0.9277
696.848	0.9377
688.113	0.9344
679.379	0.9258
670.644	0.9146
661.909	0.8989
653.175	0.8615
644.44	0.8162
635.706	0.809
626.971	0.7942
