Infrared Spectrum: BENZIDINE DIHYDROCHLORIDE
Formula: C12 H14 Cl2 N2
State: SOLID (MINERAL OIL MULL)
Class: COBLENTZ
Instrument: Not specified, most likely a prism, grating, or hybrid spectrometer.
Sampling: TRANSMISSION
Resolution: 4
Origin: WYANDOTTE CHEMICALS CORP., WYANDOTTE, MICHIGAN, USA
MICROMETERS	TRANSMITTANCE
2.076	0.568
2.11589	0.568
2.15579	0.573
2.19568	0.568
2.23557	0.566
2.27546	0.57
2.31536	0.575
2.35525	0.58
2.39514	0.585
2.43504	0.593
2.47493	0.606
2.51482	0.62
2.55471	0.633
2.59461	0.648
2.6345	0.658
2.67439	0.671
2.71429	0.69
2.75418	0.705
2.79407	0.725
2.83396	0.728
2.87386	0.731
2.91375	0.741
2.95364	0.753
2.99354	0.771
3.03343	0.786
3.07332	0.801
3.11321	0.783
3.15311	0.708
3.193	0.631
3.23289	0.53
3.27279	0.353
3.31268	0.233
3.35257	0.08
3.39246	0.041
3.43236	0.03
3.47225	0.03
3.51214	0.033
3.55203	0.051
3.59193	0.095
3.63182	0.121
3.67171	0.143
3.71161	0.155
3.7515	0.165
3.79139	0.175
3.83128	0.19
3.87118	0.196
3.91107	0.2
3.95096	0.2
3.99086	0.211
4.03075	0.253
4.07064	0.3
4.11053	0.35
4.15043	0.38
4.19032	0.41
4.23021	0.44
4.27011	0.445
4.31	0.456
4.34989	0.478
4.38978	0.51
4.42968	0.553
4.46957	0.578
4.50946	0.591
4.54936	0.595
4.58925	0.581
4.62914	0.603
4.66903	0.621
4.70893	0.63
4.74882	0.643
4.78871	0.658
4.82861	0.69
4.8685	0.7
4.90839	0.696
4.94828	0.7
4.98818	0.693
5.02807	0.678
5.06796	0.653
5.10786	0.638
5.14775	0.62
5.18764	0.595
5.22753	0.588
5.26743	0.583
5.30732	0.608
5.34721	0.65
5.38711	0.673
5.427	0.703
5.46689	0.733
5.50678	0.75
5.54668	0.765
5.58657	0.778
5.62646	0.795
5.66636	0.81
5.70625	0.825
5.74614	0.848
5.78603	0.861
5.82593	0.878
5.86582	0.886
5.90571	0.905
5.94561	0.908
5.9855	0.92
6.02539	0.925
6.06528	0.953
6.10518	1.02
6.14507	0.99
6.18496	0.62
6.22486	0.453
6.26475	0.465
6.30464	0.38
6.34453	0.43
6.38443	0.363
6.42432	0.306
6.46421	0.368
6.5041	0.42
6.544	0.336
6.58389	0.298
6.62378	0.236
6.66368	0.131
6.70357	0.12
6.74346	0.113
6.78335	0.075
6.82325	0.046
6.86314	0.066
6.90303	0.118
6.94293	0.195
6.98282	0.315
7.02271	0.365
7.0626	0.39
7.1025	0.365
7.14239	0.37
7.18228	0.346
7.22218	0.221
7.26207	0.14
7.30196	0.24
7.34185	0.331
7.38175	0.403
7.42164	0.403
7.46153	0.335
7.50143	0.32
7.54132	0.37
7.58121	0.4
7.6211	0.435
7.661	0.455
7.70089	0.466
7.74078	0.486
7.78068	0.498
7.82057	0.498
7.86046	0.498
7.90035	0.5
7.94025	0.511
7.98014	0.53
8.02003	0.536
8.05993	0.548
8.09982	0.555
8.13971	0.56
8.1796	0.57
8.2195	0.583
8.25939	0.458
8.29928	0.421
8.33918	0.491
8.37907	0.528
8.41896	0.475
8.45885	0.483
8.49875	0.518
8.53864	0.53
8.57853	0.535
8.61843	0.541
8.65832	0.558
8.69821	0.575
8.7381	0.545
8.778	0.498
8.81789	0.508
8.85778	0.523
8.89768	0.483
8.93757	0.373
8.97746	0.308
9.01735	0.388
9.05725	0.48
9.09714	0.536
9.13703	0.556
9.17692	0.535
9.21682	0.436
9.25671	0.385
9.2966	0.363
9.3365	0.335
9.37639	0.365
9.41628	0.436
9.45617	0.491
9.49607	0.51
9.53596	0.538
9.57585	0.553
9.61575	0.57
9.65564	0.585
9.69553	0.601
9.73542	0.615
9.77532	0.558
9.81521	0.546
9.8551	0.59
9.895	0.613
9.93489	0.538
9.97478	0.578
10.0147	0.608
10.0546	0.631
10.0945	0.643
10.1344	0.658
10.1742	0.655
10.2141	0.61
10.254	0.593
10.2939	0.623
10.3338	0.636
10.3737	0.6
10.4136	0.623
10.4535	0.653
10.4934	0.655
10.5333	0.661
10.5732	0.68
10.6131	0.64
10.653	0.6
10.6929	0.655
10.7327	0.683
10.7726	0.696
10.8125	0.708
10.8524	0.718
10.8923	0.728
10.9322	0.728
10.9721	0.738
11.012	0.755
11.0519	0.763
11.0918	0.768
11.1317	0.776
11.1716	0.778
11.2115	0.778
11.2514	0.776
11.2912	0.786
11.3311	0.791
11.371	0.798
11.4109	0.803
11.4508	0.806
11.4907	0.8
11.5306	0.8
11.5705	0.798
11.6104	0.783
11.6503	0.721
11.6902	0.653
11.7301	0.698
11.77	0.736
11.8099	0.745
11.8497	0.731
11.8896	0.68
11.9295	0.638
11.9694	0.636
12.0093	0.673
12.0492	0.683
12.0891	0.673
12.129	0.661
12.1689	0.621
12.2088	0.555
12.2487	0.483
12.2886	0.366
12.3285	0.25
12.3684	0.148
12.4082	0.113
12.4481	0.128
12.488	0.23
12.5279	0.361
12.5678	0.438
12.6077	0.465
12.6476	0.443
12.6875	0.526
12.7274	0.6
12.7673	0.656
12.8072	0.701
12.8471	0.735
12.887	0.751
12.9269	0.765
12.9667	0.776
13.0066	0.796
13.0465	0.808
13.0864	0.821
13.1263	0.833
13.1662	0.843
13.2061	0.848
13.246	0.85
13.2859	0.85
13.3258	0.855
13.3657	0.858
13.4056	0.858
13.4455	0.856
13.4854	0.846
13.5252	0.845
13.5651	0.841
13.605	0.831
13.6449	0.828
13.6848	0.833
13.7247	0.838
13.7646	0.84
13.8045	0.838
13.8444	0.831
13.8843	0.83
13.9242	0.833
13.9641	0.858
14.004	0.89
14.0439	0.906
14.0837	0.931
14.1236	0.945
14.1635	0.921
14.2034	0.911
14.2433	0.893
14.2832	0.861
14.3231	0.831
14.363	0.856
14.4029	0.896
14.4428	0.908
14.4827	0.918
14.5226	0.923
14.5625	0.92
14.6024	0.915
14.6422	0.901
14.6821	0.908
14.722	0.905
14.7619	0.901
14.8018	0.891
14.8417	0.893
14.8816	0.89
14.9215	0.883
14.9614	0.88
15.0013	0.856
15.0412	0.813
15.0811	0.763
15.121	0.77
15.1609	0.81
15.2007	0.826
15.2406	0.825
15.2805	0.81
15.3204	0.798
15.3603	0.785
15.4002	0.768
15.4401	0.746
15.48	0.715
15.5199	0.665
15.5598	0.566
15.5997	0.493
15.6396	0.476
15.6795	0.486
15.7194	0.52
15.7592	0.53
15.7991	0.535
15.839	0.536
15.8789	0.521
15.9188	0.516
15.9587	0.511
15.9986	0.501
