Infrared Spectrum: Heptanamine, 1,1-2,2-3,3-4,4-5,5-6,6-dodecamethyl-, hydrochloride
Formula: C19 H42 Cl N
State: LIQUID (NEAT)
Class: COBLENTZ III
Instrument: Not specified, most likely a prism, grating, or hybrid spectrometer.
Sampling: TRANSMISSION
Path length: CAPILLARY
Resolution: 2
Origin: BRITISH PETROLEUM CO. LTD., ENGLAND
1/CM	TRANSMITTANCE
668	0.8179
677	0.8181
686	0.8122
695	0.8071
704	0.7826
713	0.7469
722	0.6752
731	0.6342
740	0.6178
749	0.6569
758	0.6789
767	0.6637
776	0.6475
785	0.6544
794	0.7037
803	0.729
812	0.7294
821	0.7249
830	0.7156
839	0.7075
848	0.6913
857	0.6815
866	0.67
875	0.657
884	0.6381
893	0.6166
902	0.607
911	0.588
920	0.5634
929	0.5732
938	0.5697
947	0.5657
956	0.5457
965	0.5144
974	0.5339
983	0.5458
992	0.547
1001	0.5213
1010	0.4995
1019	0.4937
1028	0.456
1037	0.4071
1046	0.4974
1055	0.525
1064	0.5324
1073	0.5375
1082	0.54
1091	0.5264
1100	0.5033
1109	0.4751
1118	0.4588
1127	0.4584
1136	0.4348
1145	0.3607
1154	0.2871
1163	0.2422
1172	0.2265
1181	0.2682
1190	0.3327
1199	0.3881
1208	0.391
1217	0.3913
1226	0.3917
1235	0.3919
1244	0.3916
1253	0.3915
1262	0.3921
1271	0.4068
1280	0.4085
1289	0.4092
1298	0.4082
1307	0.4065
1316	0.4064
1325	0.399
1334	0.3755
1343	0.357
1352	0.2938
1361	0.082
1370	0.0743
1379	0.0341
1388	0.0439
1397	0.217
1406	0.4095
1415	0.4243
1424	0.3683
1433	0.212
1442	0.1093
1451	0.0339
1460	0.0306
1469	0.0339
1478	0.1023
1487	0.2384
1496	0.2424
1505	0.103
1514	0.0318
1523	0.0418
1532	0.1031
1541	0.3034
1550	0.4916
1559	0.5318
1568	0.5301
1577	0.5065
1586	0.4711
1595	0.3309
1604	0.2337
1613	0.075
1622	0.0781
1631	0.3112
1640	0.5609
1649	0.5815
1658	0.5826
1667	0.5806
1676	0.5782
1685	0.5793
1694	0.5792
1703	0.5779
1712	0.5861
1721	0.6289
1730	0.6773
1739	0.6998
1748	0.7085
1757	0.7096
1766	0.724
1775	0.7427
1784	0.7599
1793	0.7802
1802	0.7872
1811	0.7889
1820	0.7889
1829	0.7889
1838	0.7888
1847	0.7887
1856	0.7884
1865	0.7875
1874	0.7845
1883	0.7767
1892	0.7733
1901	0.7712
1910	0.769
1919	0.7562
1928	0.7422
1937	0.7294
1946	0.7149
1955	0.7003
1964	0.6814
1973	0.6664
1982	0.6447
1991	0.6244
2000	0.6007
2009	0.5751
2018	0.5459
2027	0.5201
2036	0.4982
2045	0.4832
2054	0.4816
2063	0.4855
2072	0.5083
2081	0.5333
2090	0.5576
2099	0.5872
2108	0.6209
2117	0.6756
2126	0.7006
2135	0.726
2144	0.7444
2153	0.7506
2162	0.7543
2171	0.7613
2180	0.768
2189	0.7704
2198	0.7711
2207	0.7715
2216	0.7719
2225	0.7722
2234	0.7721
2243	0.7717
2252	0.7708
2261	0.7672
2270	0.7625
2279	0.7579
2288	0.7524
2297	0.7442
2306	0.7324
2315	0.7177
2324	0.7074
2333	0.7005
2342	0.6951
2351	0.6894
2360	0.6877
2369	0.687
2378	0.6864
2387	0.6825
2396	0.6711
2405	0.6599
2414	0.6491
2423	0.6409
2432	0.629
2441	0.6177
2450	0.6036
2459	0.5726
2468	0.5398
2477	0.5054
2486	0.4717
2495	0.4548
2504	0.4399
2513	0.3976
2522	0.3462
2531	0.3062
2540	0.2892
2549	0.2672
2558	0.259
2567	0.2562
2576	0.2558
2585	0.2556
2594	0.2524
2603	0.2354
2612	0.228
2621	0.2227
2630	0.2172
2639	0.2088
2648	0.2004
2657	0.1925
2666	0.1826
2675	0.1702
2684	0.1532
2693	0.1317
2702	0.1173
2711	0.0975
2720	0.072
2729	0.0613
2738	0.0484
2747	0.0346
2756	0.024
2765	0.0198
2774	0.018
2783	0.0171
2792	0.0164
2801	0.0161
2810	0.0159
2819	0.0156
2828	0.0154
2837	0.0151
2846	0.015
2855	0.015
2864	0.015
2873	0.0149
2882	0.0152
2891	0.0155
2900	0.0157
2909	0.016
2918	0.0164
2927	0.0167
2936	0.0171
2945	0.0176
2954	0.0185
2963	0.02
2972	0.0234
2981	0.0261
2990	0.0292
2999	0.0316
3008	0.0321
3017	0.0326
3026	0.0329
3035	0.0333
3044	0.034
3053	0.0369
3062	0.0457
3071	0.0613
3080	0.0833
3089	0.1041
3098	0.1203
3107	0.1393
3116	0.1755
3125	0.2087
3134	0.2453
3143	0.3076
3152	0.3243
3161	0.3355
3170	0.3462
3179	0.3585
3188	0.3695
3197	0.377
3206	0.4396
3215	0.5168
3224	0.5936
3233	0.6667
3242	0.7027
3251	0.7207
3260	0.7353
3269	0.7499
3278	0.7603
3287	0.7701
3296	0.781
3305	0.7874
3314	0.7901
3323	0.7916
3332	0.7929
3341	0.7948
3350	0.7974
3359	0.8009
3368	0.8043
3377	0.8076
3386	0.811
3395	0.8145
3404	0.8185
3413	0.8229
3422	0.8261
3431	0.8293
3440	0.8328
3449	0.8369
3458	0.8412
3467	0.8447
3476	0.8496
3485	0.8549
3494	0.8594
3503	0.8637
3512	0.8686
3521	0.8727
3530	0.8751
3539	0.8768
3548	0.8784
3557	0.8794
3566	0.8804
3575	0.8811
3584	0.8813
3593	0.8811
3602	0.8804
3611	0.8793
3620	0.8783
3629	0.8774
3638	0.8764
3647	0.8751
3656	0.8738
3665	0.8725
3674	0.8709
3683	0.869
3692	0.8672
3701	0.8651
3710	0.8626
3719	0.8598
3728	0.8561
3737	0.8526
3746	0.8499
3755	0.8468
3764	0.8448
3773	0.8445
3782	0.8443
3791	0.844
3800	0.8437
3809	0.8435
3818	0.8433
3827	0.8431
3836	0.8428
3845	0.8422
3854	0.8408
3863	0.8393
3872	0.8357
3881	0.8321
3890	0.8287
3899	0.8256
3908	0.8227
3917	0.82
3926	0.8174
3935	0.8147
3944	0.8121
3953	0.8094
3962	0.8067
3971	0.8041
3980	0.8014
3989	0.7987
3998	0.7969
