Infrared Spectrum: Indole, 7-methyl-, hydrochloride
Formula: C9 H10 Cl N
State: SOLID (KBr DISC, 0.8% WT.)
Class: COBLENTZ III
Instrument: PERKIN-ELMER 157
Sampling: TRANSMISSION
Resolution: 2
Origin: BRITISH PETROLEUM CO. LTD., ENGLAND
1/CM	TRANSMITTANCE
668	0.5684
677	0.5674
686	0.5678
695	0.5547
704	0.5466
713	0.5376
722	0.4781
731	0.4725
740	0.3476
749	0.3053
758	0.3826
767	0.3247
776	0.1879
785	0.1812
794	0.2994
803	0.4367
812	0.5317
821	0.5673
830	0.5843
839	0.615
848	0.6164
857	0.6018
866	0.6009
875	0.6123
884	0.6113
893	0.6108
902	0.6185
911	0.623
920	0.6272
929	0.6271
938	0.6187
947	0.6173
956	0.6178
965	0.6154
974	0.6086
983	0.5962
992	0.5727
1001	0.5529
1010	0.5523
1019	0.5278
1028	0.4579
1037	0.4884
1046	0.545
1055	0.5255
1064	0.4693
1073	0.4149
1082	0.4182
1091	0.4121
1100	0.4351
1109	0.4717
1118	0.4786
1127	0.4789
1136	0.4921
1145	0.4913
1154	0.4401
1163	0.352
1172	0.3588
1181	0.4776
1190	0.4812
1199	0.4823
1208	0.4813
1217	0.4603
1226	0.4071
1235	0.4143
1244	0.42
1253	0.4386
1262	0.4418
1271	0.4458
1280	0.4114
1289	0.3537
1298	0.3209
1307	0.3083
1316	0.3563
1325	0.3646
1334	0.3421
1343	0.34
1352	0.3396
1361	0.322
1370	0.2715
1379	0.261
1388	0.3406
1397	0.3485
1406	0.317
1415	0.2652
1424	0.2168
1433	0.1649
1442	0.1341
1451	0.0875
1460	0.0732
1469	0.0895
1478	0.1015
1487	0.1402
1496	0.1622
1505	0.1922
1514	0.1947
1523	0.1951
1532	0.1941
1541	0.1929
1550	0.1938
1559	0.194
1568	0.1853
1577	0.1784
1586	0.1725
1595	0.1552
1604	0.1448
1613	0.1402
1622	0.1429
1631	0.2054
1640	0.2906
1649	0.4667
1658	0.5265
1667	0.5718
1676	0.6399
1685	0.6691
1694	0.6907
1703	0.7055
1712	0.7144
1721	0.7288
1730	0.7311
1739	0.7261
1748	0.7163
1757	0.7141
1766	0.6922
1775	0.6835
1784	0.673
1793	0.6624
1802	0.6527
1811	0.6438
1820	0.639
1829	0.6235
1838	0.6201
1847	0.6159
1856	0.6052
1865	0.5756
1874	0.5741
1883	0.5585
1892	0.556
1901	0.5479
1910	0.5432
1919	0.5402
1928	0.5376
1937	0.5355
1946	0.5348
1955	0.535
1964	0.5352
1973	0.5363
1982	0.5381
1991	0.54
2000	0.5419
2009	0.5431
2018	0.5439
2027	0.5432
2036	0.5421
2045	0.5408
2054	0.539
2063	0.5371
2072	0.5353
2081	0.5325
2090	0.5293
2099	0.5247
2108	0.5221
2117	0.5199
2126	0.5169
2135	0.5097
2144	0.5009
2153	0.4854
2162	0.4736
2171	0.4702
2180	0.4682
2189	0.4591
2198	0.4418
2207	0.4326
2216	0.4234
2225	0.4142
2234	0.4052
2243	0.3962
2252	0.3875
2261	0.3783
2270	0.3678
2279	0.3564
2288	0.3444
2297	0.3319
2306	0.3192
2315	0.3065
2324	0.2906
2333	0.2707
2342	0.2506
2351	0.2345
2360	0.2294
2369	0.2257
2378	0.2221
2387	0.2025
2396	0.1907
2405	0.1787
2414	0.1619
2423	0.144
2432	0.1289
2441	0.1149
2450	0.1028
2459	0.0953
2468	0.0888
2477	0.0846
2486	0.0817
2495	0.0802
2504	0.0773
2513	0.0742
2522	0.0718
2531	0.0706
2540	0.0715
2549	0.0742
2558	0.0777
2567	0.0806
2576	0.0824
2585	0.0827
2594	0.0824
2603	0.0811
2612	0.0793
2621	0.0759
2630	0.0719
2639	0.0681
2648	0.0636
2657	0.0588
2666	0.0551
2675	0.0518
2684	0.0495
2693	0.0477
2702	0.0467
2711	0.046
2720	0.0454
2729	0.0428
2738	0.0391
2747	0.037
2756	0.0355
2765	0.0345
2774	0.0337
2783	0.0328
2792	0.0327
2801	0.0325
2810	0.0324
2819	0.0334
2828	0.0352
2837	0.0384
2846	0.0409
2855	0.0425
2864	0.0434
2873	0.0438
2882	0.044
2891	0.0442
2900	0.0466
2909	0.0518
2918	0.0535
2927	0.0557
2936	0.0579
2945	0.06
2954	0.0628
2963	0.0659
2972	0.0719
2981	0.0779
2990	0.0832
2999	0.0874
3008	0.0907
3017	0.0923
3026	0.0939
3035	0.1092
3044	0.1138
3053	0.1185
3062	0.1233
3071	0.1337
3080	0.1389
3089	0.1391
3098	0.1373
3107	0.1338
3116	0.1295
3125	0.1257
3134	0.1218
3143	0.1174
3152	0.1123
3161	0.106
3170	0.0993
3179	0.0922
3188	0.0871
3197	0.0827
3206	0.0788
3215	0.0769
3224	0.0752
3233	0.0734
3242	0.0724
3251	0.0715
3260	0.0707
3269	0.0699
3278	0.069
3287	0.0685
3296	0.0683
3305	0.0681
3314	0.0679
3323	0.0676
3332	0.0676
3341	0.0677
3350	0.0679
3359	0.068
3368	0.0684
3377	0.0691
3386	0.0698
3395	0.0705
3404	0.0712
3413	0.0722
3422	0.0735
3431	0.0757
3440	0.0808
3449	0.0891
3458	0.1099
3467	0.1517
3476	0.1621
3485	0.1728
3494	0.188
3503	0.2032
3512	0.2182
3521	0.2331
3530	0.2522
3539	0.267
3548	0.2814
3557	0.2965
3566	0.3124
3575	0.3287
3584	0.3372
3593	0.4984
3602	0.5363
3611	0.5738
3620	0.6112
3629	0.6484
3638	0.6835
3647	0.6935
3656	0.6955
3665	0.6956
3674	0.6956
3683	0.6953
3692	0.6946
3701	0.6928
3710	0.6902
3719	0.6871
3728	0.6841
3737	0.6813
3746	0.6789
3755	0.6765
3764	0.6738
3773	0.6707
3782	0.6669
3791	0.6617
3800	0.6552
3809	0.6434
3818	0.6348
3827	0.6294
3836	0.6257
3845	0.6232
3854	0.6205
3863	0.6183
3872	0.6162
3881	0.6142
3890	0.6122
3899	0.6104
3908	0.6088
3917	0.6073
3926	0.6058
3935	0.6044
3944	0.603
3953	0.6016
3962	0.6002
3971	0.5989
3980	0.5975
3989	0.5962
3998	0.595
