Infrared Spectrum: METHYL P-NITRO BENZOATE
Formula: C8 H9 N O4
State: SOLID (MULL)
Melting point: 94.5-96 C
Class: COBLENTZ
Instrument: Not specified, most likely a prism, grating, or hybrid spectrometer.
Sampling: TRANSMISSION
Resolution: 4
Origin: WYANDOTTE CHEMICALS CORP., WYANDOTTE, MICHIGAN, USA
MICROMETERS	TRANSMITTANCE
2.032	0.529
2.07176	0.536
2.11153	0.543
2.15129	0.546
2.19105	0.546
2.23082	0.549
2.27058	0.556
2.31034	0.556
2.3501	0.567
2.38987	0.567
2.42963	0.592
2.46939	0.6
2.50916	0.614
2.54892	0.615
2.58868	0.642
2.62845	0.65
2.66821	0.652
2.70797	0.665
2.74773	0.657
2.7875	0.662
2.82726	0.672
2.86702	0.668
2.90679	0.66
2.94655	0.642
2.98631	0.647
3.02608	0.658
3.06584	0.675
3.1056	0.69
3.14537	0.688
3.18513	0.665
3.22489	0.534
3.26465	0.437
3.30442	0.488
3.34418	0.377
3.38394	0.014
3.42371	0.036
3.46347	0.048
3.50323	0.051
3.543	0.22
3.58276	0.442
3.62252	0.483
3.66228	0.508
3.70205	0.496
3.74181	0.514
3.78157	0.524
3.82134	0.534
3.8611	0.538
3.90086	0.551
3.94063	0.574
3.98039	0.569
4.02015	0.591
4.05992	0.602
4.09968	0.607
4.13944	0.592
4.1792	0.607
4.21897	0.612
4.25873	0.592
4.29849	0.586
4.33826	0.612
4.37802	0.652
4.41778	0.658
4.45755	0.65
4.49731	0.672
4.53707	0.685
4.57683	0.683
4.6166	0.682
4.65636	0.71
4.69612	0.723
4.73589	0.73
4.77565	0.741
4.81541	0.748
4.85518	0.751
4.89494	0.748
4.9347	0.763
4.97446	0.791
5.01423	0.802
5.05399	0.812
5.09375	0.827
5.13352	0.819
5.17328	0.73
5.21304	0.789
5.25281	0.841
5.29257	0.869
5.33233	0.903
5.3721	0.918
5.41186	0.928
5.45162	0.907
5.49138	0.953
5.53115	0.885
5.57091	0.915
5.61067	0.97
5.65044	0.923
5.6902	0.885
5.72996	0.644
5.76973	0.332
5.80949	0.052
5.84925	0.061
5.88901	0.167
5.92878	0.298
5.96854	0.327
6.0083	0.458
6.04807	0.495
6.08783	0.607
6.12759	0.68
6.16736	0.629
6.20712	0.211
6.24688	0.253
6.28665	0.468
6.32641	0.574
6.36617	0.627
6.40593	0.726
6.4457	0.71
6.48546	0.36
6.52522	0.031
6.56499	0.046
6.60475	0.099
6.64451	0.228
6.68428	0.286
6.72404	0.341
6.7638	0.307
6.80356	0.155
6.84333	0.127
6.88309	0.099
6.92285	0.038
6.96262	0.225
7.00238	0.465
7.04214	0.501
7.08191	0.447
7.12167	0.567
7.16143	0.503
7.2012	0.433
7.24096	0.346
7.28072	0.273
7.32048	0.177
7.36025	0.188
7.40001	0.066
7.43977	0.033
7.47954	0.066
7.5193	0.134
7.55906	0.089
7.59883	0.117
7.63859	0.139
7.67835	0.079
7.71811	0.1
7.75788	0.039
7.79764	0.034
7.8374	0.031
7.87717	0.041
7.91693	0.081
7.95669	0.129
7.99646	0.142
8.03622	0.153
8.07598	0.218
8.11575	0.269
8.15551	0.326
8.19527	0.374
8.23503	0.4
8.2748	0.433
8.31456	0.407
8.35432	0.294
8.39409	0.369
8.43385	0.468
8.47361	0.508
8.51338	0.463
8.55314	0.453
8.5929	0.485
8.63266	0.524
8.67243	0.554
8.71219	0.599
8.75195	0.647
8.79172	0.678
8.83148	0.698
8.87124	0.649
8.91101	0.473
8.95077	0.134
8.99053	0.288
9.0303	0.071
9.07006	0.072
9.10982	0.2
9.14958	0.311
9.18935	0.375
9.22911	0.41
9.26887	0.41
9.30864	0.455
9.3484	0.495
9.38816	0.528
9.42793	0.551
9.46769	0.569
9.50745	0.579
9.54721	0.596
9.58698	0.602
9.62674	0.614
9.6665	0.632
9.70627	0.634
9.74603	0.649
9.78579	0.657
9.82556	0.653
9.86532	0.478
9.90508	0.455
9.94485	0.6
9.98461	0.637
10.0244	0.662
10.0641	0.67
10.1039	0.685
10.1437	0.637
10.1834	0.6
10.2232	0.667
10.2629	0.649
10.3027	0.557
10.3425	0.599
10.3822	0.438
10.422	0.304
10.4618	0.24
10.5015	0.293
10.5413	0.44
10.5811	0.533
10.6208	0.579
10.6606	0.61
10.7003	0.639
10.7401	0.649
10.7799	0.665
10.8196	0.673
10.8594	0.688
10.8992	0.693
10.9389	0.697
10.9787	0.701
11.0184	0.706
11.0582	0.711
11.098	0.706
11.1377	0.701
11.1775	0.688
11.2173	0.657
11.257	0.635
11.2968	0.605
11.3366	0.519
11.3763	0.417
11.4161	0.206
11.4558	0.278
11.4956	0.556
11.5354	0.763
11.5751	0.879
11.6149	0.844
11.6547	0.496
11.6944	0.289
11.7342	0.447
11.7739	0.657
11.8137	0.741
11.8535	0.768
11.8932	0.753
11.933	0.667
11.9728	0.514
12.0125	0.658
12.0523	0.763
12.092	0.786
12.1318	0.665
12.1716	0.413
12.2113	0.14
12.2511	0.16
12.2909	0.278
12.3306	0.42
12.3704	0.544
12.4102	0.602
12.4499	0.634
12.4897	0.657
12.5294	0.667
12.5692	0.667
12.609	0.655
12.6487	0.64
12.6885	0.594
12.7283	0.491
12.768	0.309
12.8078	0.713
12.8475	0.756
12.8873	0.776
12.9271	0.761
12.9668	0.756
13.0066	0.743
13.0464	0.75
13.0861	0.746
13.1259	0.736
13.1657	0.733
13.2054	0.718
13.2452	0.708
13.2849	0.697
13.3247	0.677
13.3645	0.658
13.4042	0.645
13.444	0.624
13.4838	0.6
13.5235	0.566
13.5633	0.539
13.603	0.501
13.6428	0.463
13.6826	0.415
13.7223	0.362
13.7621	0.296
13.8019	0.208
13.8416	0.124
13.8814	0.079
13.9211	0.061
13.9609	0.079
14.0007	0.119
14.0404	0.225
14.0802	0.359
14.12	0.438
14.1597	0.417
14.1995	0.453
14.2393	0.637
14.279	0.736
14.3188	0.801
14.3585	0.839
14.3983	0.86
14.4381	0.879
14.4778	0.887
14.5176	0.899
14.5574	0.899
14.5971	0.899
14.6369	0.899
14.6766	0.902
14.7164	0.9
14.7562	0.897
14.7959	0.892
14.8357	0.884
14.8755	0.879
14.9152	0.879
14.955	0.872
14.9948	0.85
15.0345	0.799
15.0743	0.748
15.114	0.768
15.1538	0.811
15.1936	0.836
15.2333	0.822
15.2731	0.807
15.3129	0.784
15.3526	0.776
15.3924	0.759
15.4321	0.751
15.4719	0.731
15.5117	0.716
15.5514	0.701
15.5912	0.706
15.631	0.69
15.6707	0.675
15.7105	0.66
15.7502	0.639
15.79	0.634
15.8298	0.627
15.8695	0.61
15.9093	0.589
15.9491	0.564
