Infrared Spectrum: Cyclohexane-1,4-diamine, 2-isopropyl-5-methyl-, dihydrochloride
Formula: C10 H24 Cl2 N2
State: SOLID (KBr DISC, 0.8% WT.)
Class: COBLENTZ III
Instrument: PERKIN-ELMER 157
Sampling: TRANSMISSION
Resolution: 2
Origin: BRITISH PETROLEUM CO. LTD., ENGLAND
1/CM	TRANSMITTANCE
668	0.9427
677	0.9289
686	0.9029
695	0.8767
704	0.8033
713	0.8129
722	0.8536
731	0.8526
740	0.8384
749	0.8294
758	0.7955
767	0.7673
776	0.7947
785	0.7816
794	0.779
803	0.7686
812	0.7615
821	0.7396
830	0.7512
839	0.7472
848	0.7446
857	0.7214
866	0.7152
875	0.7161
884	0.6561
893	0.7084
902	0.7072
911	0.6906
920	0.7556
929	0.7036
938	0.5352
947	0.6057
956	0.5897
965	0.4583
974	0.6952
983	0.7491
992	0.7277
1001	0.6074
1010	0.5034
1019	0.6593
1028	0.7122
1037	0.6801
1046	0.5144
1055	0.6199
1064	0.6836
1073	0.7275
1082	0.709
1091	0.7062
1100	0.7122
1109	0.7032
1118	0.689
1127	0.648
1136	0.4885
1145	0.4034
1154	0.4465
1163	0.5011
1172	0.3271
1181	0.1465
1190	0.4611
1199	0.4325
1208	0.2624
1217	0.4544
1226	0.5796
1235	0.3831
1244	0.5791
1253	0.6399
1262	0.5983
1271	0.4235
1280	0.364
1289	0.4895
1298	0.4915
1307	0.5444
1316	0.6003
1325	0.5645
1334	0.3739
1343	0.3761
1352	0.4105
1361	0.4398
1370	0.2397
1379	0.1161
1388	0.2677
1397	0.1621
1406	0.3004
1415	0.4926
1424	0.4553
1433	0.3376
1442	0.1919
1451	0.091
1460	0.1518
1469	0.1944
1478	0.2927
1487	0.2691
1496	0.1165
1505	0.0366
1514	0.0466
1523	0.1647
1532	0.3113
1541	0.4562
1550	0.4811
1559	0.4683
1568	0.4288
1577	0.3386
1586	0.1661
1595	0.0506
1604	0.0483
1613	0.0689
1622	0.2291
1631	0.3614
1640	0.4763
1649	0.5463
1658	0.5931
1667	0.6107
1676	0.6365
1685	0.656
1694	0.6606
1703	0.6628
1712	0.6759
1721	0.6968
1730	0.7011
1739	0.7113
1748	0.7198
1757	0.732
1766	0.7379
1775	0.7386
1784	0.7385
1793	0.7377
1802	0.7354
1811	0.7261
1820	0.7233
1829	0.7145
1838	0.7122
1847	0.7104
1856	0.7055
1865	0.6951
1874	0.6875
1883	0.6846
1892	0.6671
1901	0.6413
1910	0.6123
1919	0.5881
1928	0.5738
1937	0.5534
1946	0.4759
1955	0.4337
1964	0.3923
1973	0.3513
1982	0.3107
1991	0.2749
2000	0.2696
2009	0.2695
2018	0.2705
2027	0.2722
2036	0.2772
2045	0.2971
2054	0.3825
2063	0.4827
2072	0.523
2081	0.553
2090	0.5829
2099	0.5991
2108	0.6028
2117	0.6254
2126	0.6551
2135	0.6726
2144	0.6789
2153	0.6799
2162	0.6802
2171	0.6802
2180	0.6799
2189	0.6786
2198	0.6743
2207	0.6679
2216	0.6645
2225	0.6667
2234	0.671
2243	0.6716
2252	0.6663
2261	0.6562
2270	0.6491
2279	0.6489
2288	0.6391
2297	0.6378
2306	0.6379
2315	0.6242
2324	0.6011
2333	0.5816
2342	0.5692
2351	0.5603
2360	0.5536
2369	0.5465
2378	0.5393
2387	0.5319
2396	0.5224
2405	0.4794
2414	0.4585
2423	0.4381
2432	0.4295
2441	0.4245
2450	0.408
2459	0.3809
2468	0.3356
2477	0.2908
2486	0.2613
2495	0.2601
2504	0.2588
2513	0.229
2522	0.188
2531	0.1571
2540	0.1408
2549	0.1266
2558	0.1163
2567	0.1165
2576	0.1596
2585	0.207
2594	0.2283
2603	0.2239
2612	0.214
2621	0.2042
2630	0.1931
2639	0.1691
2648	0.1476
2657	0.1482
2666	0.1557
2675	0.1613
2684	0.163
2693	0.162
2702	0.1448
2711	0.1194
2720	0.0956
2729	0.0756
2738	0.0645
2747	0.0552
2756	0.0492
2765	0.0443
2774	0.0394
2783	0.0343
2792	0.0321
2801	0.0315
2810	0.0312
2819	0.0311
2828	0.0311
2837	0.0311
2846	0.0311
2855	0.0311
2864	0.0311
2873	0.0311
2882	0.0312
2891	0.0313
2900	0.0313
2909	0.0313
2918	0.0315
2927	0.0316
2936	0.0318
2945	0.0319
2954	0.032
2963	0.0321
2972	0.0321
2981	0.0322
2990	0.0322
2999	0.0323
3008	0.0324
3017	0.0325
3026	0.0326
3035	0.0328
3044	0.0329
3053	0.0332
3062	0.0334
3071	0.0336
3080	0.0339
3089	0.0342
3098	0.0345
3107	0.0346
3116	0.0348
3125	0.042
3134	0.0526
3143	0.0633
3152	0.0738
3161	0.0806
3170	0.084
3179	0.0914
3188	0.1088
3197	0.1264
3206	0.1336
3215	0.1358
3224	0.1457
3233	0.1607
3242	0.1906
3251	0.2155
3260	0.2368
3269	0.2578
3278	0.2662
3287	0.2758
3296	0.2821
3305	0.2839
3314	0.2844
3323	0.2839
3332	0.2824
3341	0.2793
3350	0.2752
3359	0.271
3368	0.2666
3377	0.2626
3386	0.2608
3395	0.2602
3404	0.2599
3413	0.2593
3422	0.2586
3431	0.2572
3440	0.255
3449	0.2517
3458	0.2487
3467	0.2471
3476	0.247
3485	0.2475
3494	0.2491
3503	0.2541
3512	0.2616
3521	0.2672
3530	0.269
3539	0.2696
3548	0.2703
3557	0.277
3566	0.3007
3575	0.3242
3584	0.3477
3593	0.371
3602	0.3943
3611	0.4173
3620	0.4403
3629	0.4632
3638	0.4786
3647	0.4856
3656	0.5007
3665	0.5138
3674	0.5277
3683	0.5416
3692	0.5499
3701	0.5539
3710	0.5561
3719	0.5568
3728	0.557
3737	0.5571
3746	0.5572
3755	0.5573
3764	0.5573
3773	0.5573
3782	0.5573
3791	0.5572
3800	0.5571
3809	0.5567
3818	0.5556
3827	0.5545
3836	0.5534
3845	0.5521
3854	0.5509
3863	0.5496
3872	0.5483
3881	0.547
3890	0.5458
3899	0.5446
3908	0.5425
3917	0.5411
3926	0.5402
3935	0.5393
3944	0.5385
3953	0.5376
3962	0.5367
3971	0.5359
3980	0.535
3989	0.5342
3998	0.5338
