Infrared Spectrum: 1-PHENYL-3-CYCLOPENTADIENYL 1,1,3,3-TETRAMETHYL DISILOXANE
Formula: C15 H22 Si2 O
State: LIQUID
Class: COBLENTZ
Instrument: Not specified, most likely a prism, grating, or hybrid spectrometer.
Sampling: TRANSMISSION
Path length: 0.003 CM
Resolution: 4
Origin: WYANDOTTE CHEMICALS CORP., WYANDOTTE, MICHIGAN, USA
MICROMETERS	TRANSMITTANCE
2.046	0.973
2.0857	0.975
2.12539	0.976
2.16509	0.97
2.20479	0.971
2.24449	0.98
2.28418	0.973
2.32388	0.976
2.36358	0.97
2.40327	0.973
2.44297	0.981
2.48267	0.976
2.52236	0.968
2.56206	0.973
2.60176	0.973
2.64146	0.963
2.68115	0.971
2.72085	0.971
2.76055	0.98
2.80024	0.988
2.83994	0.99
2.87964	1.001
2.91934	0.996
2.95903	0.991
2.99873	0.993
3.03843	0.988
3.07812	0.983
3.11782	0.981
3.15752	0.963
3.19721	0.9
3.23691	0.513
3.27661	0.704
3.31631	0.696
3.356	0.269
3.3957	0.75
3.4354	0.647
3.47509	0.835
3.51479	0.908
3.55449	0.933
3.59419	0.95
3.63388	0.981
3.67358	0.985
3.71328	0.988
3.75297	0.995
3.79267	0.996
3.83237	0.998
3.87206	0.998
3.91176	0.998
3.95146	0.998
3.99116	1.004
4.03085	0.996
4.07055	1
4.11025	1.001
4.14994	1.003
4.18964	1.003
4.22934	1.004
4.26904	1.004
4.30873	1
4.34843	0.991
4.38813	0.998
4.42782	1.001
4.46752	1
4.50722	0.998
4.54691	1
4.58661	1
4.62631	0.996
4.66601	0.996
4.7057	0.998
4.7454	1.001
4.7851	1
4.82479	0.996
4.86449	1
4.90419	0.996
4.94389	0.993
4.98358	0.998
5.02328	1.001
5.06298	0.986
5.10267	0.988
5.14237	0.955
5.18207	0.918
5.22176	0.963
5.26146	0.971
5.30116	0.943
5.34086	0.943
5.38055	0.98
5.42025	0.993
5.45995	0.973
5.49964	0.945
5.53934	0.92
5.57904	0.981
5.61874	0.976
5.65843	0.968
5.69813	0.963
5.73783	0.971
5.77752	0.97
5.81722	0.968
5.85692	0.97
5.89661	0.966
5.93631	0.968
5.97601	0.956
6.01571	0.941
6.0554	0.915
6.0951	0.847
6.1348	0.8
6.17449	0.815
6.21419	0.837
6.25389	0.84
6.29359	0.903
6.33328	0.872
6.37298	0.906
6.41268	0.921
6.45237	0.928
6.49207	0.946
6.53177	0.948
6.57146	0.933
6.61116	0.901
6.65086	0.888
6.69056	0.76
6.73025	0.87
6.76995	0.805
6.80965	0.764
6.84934	0.827
6.88904	0.802
6.92874	0.762
6.96844	0.398
7.00813	0.612
7.04783	0.614
7.08753	0.584
7.12722	0.657
7.16692	0.742
7.20662	0.689
7.24631	0.77
7.28601	0.737
7.32571	0.803
7.36541	0.86
7.4051	0.795
7.4448	0.769
7.4845	0.828
7.52419	0.857
7.56389	0.81
7.60359	0.825
7.64329	0.815
7.68298	0.782
7.72268	0.76
7.76238	0.779
7.80207	0.74
7.84177	0.619
7.88147	0.333
7.92116	0.024
7.96086	0.024
8.00056	0.147
8.04026	0.471
8.07995	0.712
8.11965	0.795
8.15935	0.825
8.19904	0.842
8.23874	0.86
8.27844	0.833
8.31814	0.825
8.35783	0.848
8.39753	0.828
8.43723	0.877
8.47692	0.883
8.51662	0.877
8.55632	0.85
8.59601	0.822
8.63571	0.779
8.67541	0.764
8.71511	0.71
8.7548	0.636
8.7945	0.518
8.8342	0.333
8.87389	0.074
8.91359	0.029
8.95329	0.107
8.99299	0.189
9.03268	0.129
9.07238	0.081
9.11208	0.051
9.15177	0.033
9.19147	0.028
9.23117	0.026
9.27086	0.023
9.31056	0.023
9.35026	0.023
9.38996	0.024
9.42965	0.024
9.46935	0.024
9.50905	0.024
9.54874	0.026
9.58844	0.029
9.62814	0.034
9.66784	0.056
9.70753	0.054
9.74723	0.102
9.78693	0.162
9.82662	0.196
9.86632	0.227
9.90602	0.338
9.94571	0.392
9.98541	0.287
10.0251	0.232
10.0648	0.25
10.1045	0.212
10.1442	0.149
10.1839	0.109
10.2236	0.078
10.2633	0.086
10.303	0.142
10.3427	0.234
10.3824	0.355
10.4221	0.405
10.4618	0.307
10.5015	0.121
10.5412	0.104
10.5809	0.285
10.6206	0.47
10.6603	0.599
10.7	0.661
10.7397	0.689
10.7794	0.705
10.819	0.74
10.8587	0.739
10.8984	0.72
10.9381	0.684
10.9778	0.583
11.0175	0.448
11.0572	0.471
11.0969	0.521
11.1366	0.48
11.1763	0.528
11.216	0.602
11.2557	0.631
11.2954	0.631
11.3351	0.599
11.3748	0.544
11.4145	0.503
11.4542	0.485
11.4939	0.42
11.5336	0.335
11.5733	0.264
11.613	0.189
11.6527	0.122
11.6924	0.099
11.7321	0.098
11.7718	0.107
11.8115	0.112
11.8512	0.111
11.8909	0.107
11.9306	0.088
11.9703	0.059
12.01	0.036
12.0497	0.031
12.0894	0.033
12.1291	0.036
12.1687	0.053
12.2084	0.059
12.2481	0.048
12.2878	0.049
12.3275	0.071
12.3672	0.088
12.4069	0.088
12.4466	0.068
12.4863	0.036
12.526	0.034
12.5657	0.038
12.6054	0.033
12.6451	0.033
12.6848	0.036
12.7245	0.041
12.7642	0.043
12.8039	0.054
12.8436	0.093
12.8833	0.156
12.923	0.232
12.9627	0.292
13.0024	0.318
13.0421	0.275
13.0818	0.2
13.1215	0.146
13.1612	0.137
13.2009	0.181
13.2406	0.254
13.2803	0.294
13.32	0.289
13.3597	0.222
13.3994	0.154
13.4391	0.122
13.4788	0.122
13.5184	0.151
13.5581	0.169
13.5978	0.192
13.6375	0.197
13.6772	0.187
13.7169	0.167
13.7566	0.136
13.7963	0.116
13.836	0.114
13.8757	0.134
13.9154	0.167
13.9551	0.204
13.9948	0.22
14.0345	0.227
14.0742	0.215
14.1139	0.182
14.1536	0.149
14.1933	0.129
14.233	0.116
14.2727	0.112
14.3124	0.111
14.3521	0.107
14.3918	0.109
14.4315	0.124
14.4712	0.141
14.5109	0.177
14.5506	0.222
14.5903	0.26
14.63	0.3
14.6697	0.322
14.7094	0.352
14.7491	0.378
14.7888	0.416
14.8285	0.458
14.8681	0.478
14.9078	0.491
14.9475	0.5
14.9872	0.526
15.0269	0.584
15.0666	0.642
15.1063	0.674
15.146	0.7
15.1857	0.705
15.2254	0.705
15.2651	0.691
15.3048	0.664
15.3445	0.647
15.3842	0.646
15.4239	0.661
15.4636	0.672
15.5033	0.684
15.543	0.684
15.5827	0.681
15.6224	0.697
15.6621	0.715
15.7018	0.745
15.7415	0.762
15.7812	0.767
15.8209	0.764
15.8606	0.77
15.9003	0.774
15.94	0.772
15.9797	0.767
