Infrared Spectrum: 1,1'-BIS-[3-(X,X-DICHLOROPHENYL)-1,1,3,3 TETRAMETHYL DISILOXANYL] FERROCENE
Formula: C30 H38 Cl4 Fe O2 Si4
State: LIQUID
Class: COBLENTZ
Instrument: Not specified, most likely a prism, grating, or hybrid spectrometer.
Sampling: TRANSMISSION
Path length: CAPILLARY
Resolution: 4
Origin: WYANDOTTE CHEMICALS CORP., WYANDOTTE, MICHIGAN, USA
MICROMETERS	TRANSMITTANCE
2.046	0.928
2.08572	0.923
2.12543	0.935
2.16515	0.923
2.20487	0.917
2.24459	0.912
2.2843	0.915
2.32402	0.908
2.36374	0.91
2.40346	0.918
2.44317	0.922
2.48289	0.907
2.52261	0.893
2.56232	0.922
2.60204	0.927
2.64176	0.905
2.68148	0.898
2.72119	0.905
2.76091	0.91
2.80063	0.912
2.84035	0.925
2.88006	0.927
2.91978	0.92
2.9595	0.91
2.99921	0.907
3.03893	0.892
3.07865	0.882
3.11837	0.885
3.15808	0.868
3.1978	0.837
3.23752	0.608
3.27724	0.606
3.31695	0.794
3.35667	0.49
3.39639	0.328
3.4361	0.66
3.47582	0.686
3.51554	0.809
3.55526	0.844
3.59497	0.839
3.63469	0.888
3.67441	0.915
3.71413	0.918
3.75384	0.925
3.79356	0.927
3.83328	0.94
3.87299	0.92
3.91271	0.936
3.95243	0.95
3.99215	0.945
4.03186	0.933
4.07158	0.918
4.1113	0.935
4.15102	0.938
4.19073	0.938
4.23045	0.938
4.27017	0.932
4.30988	0.948
4.3496	0.948
4.38932	0.955
4.42904	0.948
4.46875	0.941
4.50847	0.936
4.54819	0.94
4.58791	0.938
4.62762	0.935
4.66734	0.946
4.70706	0.951
4.74677	0.95
4.78649	0.946
4.82621	0.94
4.86593	0.927
4.90564	0.923
4.94536	0.92
4.98508	0.923
5.0248	0.941
5.06451	0.946
5.10423	0.945
5.14395	0.935
5.18366	0.902
5.22338	0.87
5.2631	0.89
5.30282	0.877
5.34253	0.859
5.38225	0.902
5.42197	0.932
5.46169	0.935
5.5014	0.922
5.54112	0.912
5.58084	0.898
5.62055	0.875
5.66027	0.84
5.69999	0.822
5.73971	0.804
5.77942	0.832
5.81914	0.809
5.85886	0.8
5.89857	0.789
5.93829	0.791
5.97801	0.794
6.01773	0.784
6.05744	0.741
6.09716	0.709
6.13688	0.714
6.1766	0.741
6.21631	0.752
6.25603	0.771
6.29575	0.734
6.33546	0.681
6.37518	0.756
6.4149	0.61
6.45462	0.693
6.49433	0.82
6.53405	0.832
6.57377	0.832
6.61349	0.827
6.6532	0.812
6.69292	0.779
6.73264	0.728
6.77235	0.704
6.81207	0.655
6.85179	0.48
6.89151	0.202
6.93122	0.291
6.97094	0.331
7.01066	0.255
7.05038	0.338
7.09009	0.316
7.12981	0.396
7.16953	0.489
7.20924	0.28
7.24896	0.349
7.28868	0.499
7.3284	0.179
7.36811	0.344
7.40783	0.625
7.44755	0.709
7.48727	0.766
7.52698	0.777
7.5667	0.781
7.60642	0.769
7.64613	0.734
7.68585	0.643
7.72557	0.693
7.76529	0.688
7.805	0.636
7.84472	0.515
7.88444	0.313
7.92416	0.058
7.96387	0.033
8.00359	0.077
8.04331	0.223
8.08302	0.451
8.12274	0.613
8.16246	0.655
8.20218	0.676
8.24189	0.678
8.28161	0.669
8.32133	0.636
8.36105	0.66
8.40076	0.575
8.44048	0.398
8.4802	0.325
8.51991	0.222
8.55963	0.054
8.59935	0.182
8.63907	0.28
8.67878	0.257
8.7185	0.215
8.75822	0.091
8.79794	0.189
8.83765	0.356
8.87737	0.353
8.91709	0.316
8.9568	0.271
8.99652	0.159
9.03624	0.086
9.07596	0.048
9.11567	0.044
9.15539	0.043
9.19511	0.041
9.23483	0.039
9.27454	0.038
9.31426	0.036
9.35398	0.034
9.39369	0.034
9.43341	0.034
9.47313	0.033
9.51285	0.033
9.55256	0.031
9.59228	0.031
9.632	0.031
9.67172	0.033
9.71143	0.036
9.75115	0.038
9.79087	0.048
9.83058	0.066
9.8703	0.104
9.91002	0.154
9.94974	0.218
9.98945	0.276
10.0292	0.349
10.0689	0.407
10.1086	0.462
10.1483	0.514
10.188	0.548
10.2278	0.578
10.2675	0.605
10.3072	0.62
10.3469	0.64
10.3866	0.653
10.4263	0.668
10.4661	0.673
10.5058	0.676
10.5455	0.676
10.5852	0.673
10.6249	0.674
10.6646	0.691
10.7044	0.699
10.7441	0.703
10.7838	0.699
10.8235	0.691
10.8632	0.676
10.903	0.658
10.9427	0.631
10.9824	0.588
11.0221	0.512
11.0618	0.414
11.1015	0.311
11.1413	0.255
11.181	0.25
11.2207	0.333
11.2604	0.401
11.3001	0.441
11.3398	0.477
11.3796	0.487
11.4193	0.464
11.459	0.421
11.4987	0.349
11.5384	0.258
11.5781	0.21
11.6179	0.213
11.6576	0.203
11.6973	0.174
11.737	0.15
11.7767	0.124
11.8164	0.091
11.8562	0.061
11.8959	0.046
11.9356	0.043
11.9753	0.044
12.015	0.049
12.0548	0.056
12.0945	0.063
12.1342	0.058
12.1739	0.051
12.2136	0.046
12.2533	0.039
12.2931	0.039
12.3328	0.044
12.3725	0.049
12.4122	0.054
12.4519	0.049
12.4916	0.041
12.5314	0.038
12.5711	0.034
12.6108	0.033
12.6505	0.031
12.6902	0.033
12.7299	0.034
12.7697	0.036
12.8094	0.038
12.8491	0.043
12.8888	0.048
12.9285	0.063
12.9682	0.107
13.008	0.172
13.0477	0.208
13.0874	0.217
13.1271	0.217
13.1668	0.243
13.2066	0.291
13.2463	0.361
13.286	0.414
13.3257	0.452
13.3654	0.474
13.4051	0.485
13.4449	0.494
13.4846	0.499
13.5243	0.505
13.564	0.505
13.6037	0.499
13.6434	0.456
13.6832	0.409
13.7229	0.402
13.7626	0.47
13.8023	0.548
13.842	0.59
13.8817	0.608
13.9215	0.611
13.9612	0.608
14.0009	0.593
14.0406	0.552
14.0803	0.502
14.12	0.456
14.1598	0.422
14.1995	0.411
14.2392	0.406
14.2789	0.396
14.3186	0.376
14.3584	0.349
14.3981	0.334
14.4378	0.321
14.4775	0.325
14.5172	0.331
14.5569	0.348
14.5967	0.373
14.6364	0.379
14.6761	0.414
14.7158	0.452
14.7555	0.472
14.7952	0.482
14.835	0.479
14.8747	0.446
14.9144	0.416
14.9541	0.419
14.9938	0.447
15.0335	0.479
15.0733	0.495
15.113	0.497
15.1527	0.482
15.1924	0.472
15.2321	0.475
15.2719	0.477
15.3116	0.479
15.3513	0.497
15.391	0.543
15.4307	0.611
15.4704	0.655
15.5102	0.686
15.5499	0.703
15.5896	0.718
15.6293	0.724
15.669	0.728
15.7087	0.723
15.7485	0.718
15.7882	0.713
15.8279	0.703
15.8676	0.684
15.9073	0.679
15.947	0.668
15.9868	0.663
