Infrared Spectrum: 9H-PURINE, 6-DIMETHYLAMINO, 9-BENZYL, 2-CHLORO-
Formula: C14 H14 Cl N5
State: SOLID (1 mg / 650 mg KBr DISC)
Class: COBLENTZ III
Instrument: PERKIN-ELMER 21 (GRATING)
Instrument parameters: FILTER CHANGE AT 1020 CM^-^1
Sampling: TRANSMISSION
Resolution: 2
Origin: SOUTHERN RESEARCH INSTITUTE
1/CM	TRANSMITTANCE
605.624	0.686
614.957	0.712
624.291	0.7034
633.624	0.681
642.957	0.6177
652.291	0.6804
661.624	0.743
670.957	0.6589
680.291	0.5382
689.624	0.7143
698.957	0.542
708.291	0.4088
717.624	0.297
726.957	0.7479
736.291	0.8118
745.624	0.825
754.957	0.8065
764.291	0.7343
773.624	0.7407
782.957	0.7292
792.291	0.8141
801.624	0.7954
810.957	0.7997
820.291	0.827
829.624	0.8055
838.958	0.871
848.291	0.8512
857.624	0.8413
866.958	0.8218
876.291	0.7423
885.624	0.69
894.958	0.823
904.291	0.8217
913.624	0.7693
922.958	0.6598
932.291	0.494
941.624	0.8033
950.958	0.797
960.291	0.8159
969.624	0.8277
978.958	0.822
988.291	0.8095
997.624	0.7852
1006.96	0.7461
1016.29	0.7272
1025.62	0.6863
1034.96	0.601
1044.29	0.3528
1053.62	0.3743
1062.96	0.6872
1072.29	0.7004
1081.62	0.6733
1090.96	0.7952
1100.29	0.8086
1109.62	0.7709
1118.96	0.7468
1128.29	0.7028
1137.62	0.5715
1146.96	0.369
1156.29	0.685
1165.62	0.7255
1174.96	0.7077
1184.29	0.7063
1193.62	0.6443
1202.96	0.5247
1212.29	0.5236
1221.62	0.4516
1230.96	0.3526
1240.29	0.6466
1249.62	0.6044
1258.96	0.4246
1268.29	0.2878
1277.62	0.6548
1286.96	0.642
1296.29	0.5266
1305.62	0.4139
1314.96	0.1335
1324.29	0.2947
1333.62	0.3449
1342.96	0.435
1352.29	0.3434
1361.62	0.3921
1370.96	0.781
1380.29	0.6803
1389.62	0.699
1398.96	0.595
1408.29	0.507
1417.62	0.5274
1426.96	0.6488
1436.29	0.5585
1445.62	0.6678
1454.96	0.6808
1464.29	0.5876
1473.62	0.69
1482.96	0.565
1492.29	0.4995
1501.62	0.5835
1510.96	0.6173
1520.29	0.5815
1529.62	0.4873
1538.96	0.4028
1548.29	0.3776
1557.62	0.3094
1566.96	0.1604
1576.29	0.1169
1585.62	0.0949
1594.96	0.041
1604.29	0.0654
1613.62	0.1648
1622.96	0.3968
1632.29	0.5392
1641.62	0.6904
1650.96	0.7807
1660.29	0.8337
1669.62	0.8785
1678.96	0.9152
1688.29	0.9191
1697.62	0.921
1706.96	0.923
1716.29	0.9248
1725.62	0.9255
1734.96	0.9204
1744.29	0.917
1753.62	0.919
1762.96	0.9318
1772.29	0.9486
1781.62	0.9498
1790.96	0.947
1800.29	0.945
1809.62	0.945
1818.96	0.947
1828.29	0.948
1837.62	0.948
1846.96	0.952
1856.29	0.9489
1865.62	0.944
1874.96	0.9403
1884.29	0.9295
1893.63	0.9362
1902.96	0.9359
1912.29	0.932
1921.63	0.932
1930.96	0.933
1940.29	0.931
1949.63	0.9257
1958.96	0.923
1968.29	0.922
1977.63	0.924
1986.96	0.9203
1996.29	0.921
2005.63	0.924
2014.96	0.9226
2024.29	0.92
2033.63	0.92
2042.96	0.92
2052.29	0.92
2061.63	0.919
2070.96	0.917
2080.29	0.913
2089.63	0.912
2098.96	0.911
2108.29	0.9106
2117.63	0.9088
2126.96	0.904
2136.29	0.903
2145.63	0.903
2154.96	0.9
2164.29	0.896
2173.63	0.896
2182.96	0.895
2192.29	0.894
2201.63	0.894
2210.96	0.8918
2220.29	0.89
2229.63	0.8856
2238.96	0.88
2248.29	0.8776
2257.63	0.8748
2266.96	0.871
2276.29	0.867
2285.63	0.8598
2294.96	0.8508
2304.29	0.8418
2313.63	0.8346
2322.96	0.83
2332.29	0.83
2341.63	0.833
2350.96	0.835
2360.29	0.8382
2369.63	0.842
2378.96	0.843
2388.29	0.839
2397.63	0.839
2406.96	0.838
2416.29	0.835
2425.63	0.834
2434.96	0.8308
2444.29	0.827
2453.63	0.8228
2462.96	0.821
2472.29	0.821
2481.63	0.821
2490.96	0.8218
2500.29	0.821
2509.63	0.822
2518.96	0.8218
2528.29	0.8166
2537.63	0.8138
2546.96	0.813
2556.29	0.813
2565.63	0.811
2574.96	0.8098
2584.29	0.8068
2593.63	0.806
2602.96	0.8028
2612.29	0.801
2621.63	0.801
2630.96	0.802
2640.29	0.801
2649.63	0.8
2658.96	0.797
2668.29	0.797
2677.63	0.796
2686.96	0.793
2696.29	0.7888
2705.63	0.786
2714.96	0.7836
2724.29	0.78
2733.63	0.7728
2742.96	0.7676
2752.29	0.7568
2761.63	0.7448
2770.96	0.7288
2780.29	0.7186
2789.63	0.707
2798.96	0.7026
2808.29	0.7
2817.63	0.699
2826.96	0.6943
2836.29	0.6739
2845.63	0.6548
2854.96	0.65
2864.29	0.647
2873.63	0.6378
2882.96	0.6206
2892.29	0.6028
2901.63	0.593
2910.96	0.5888
2920.29	0.5892
2929.63	0.5939
2938.96	0.6301
2948.29	0.6689
2957.63	0.6982
2966.96	0.703
2976.29	0.701
2985.63	0.6958
2994.96	0.6908
3004.29	0.69
3013.63	0.688
3022.96	0.686
3032.29	0.6816
3041.63	0.678
3050.96	0.6694
3060.29	0.6548
3069.63	0.6502
3078.96	0.6624
3088.29	0.7047
3097.63	0.7545
3106.96	0.7722
3116.29	0.774
3125.63	0.7738
3134.96	0.772
3144.29	0.7698
3153.63	0.766
3162.96	0.7618
3172.29	0.761
3181.63	0.757
3190.96	0.7528
3200.29	0.7466
3209.63	0.7438
3218.96	0.7386
3228.29	0.736
3237.63	0.733
3246.96	0.731
3256.29	0.7266
3265.63	0.72
3274.96	0.7146
3284.29	0.709
3293.63	0.707
3302.96	0.7026
3312.29	0.6974
3321.63	0.692
3330.96	0.6822
3340.29	0.6718
3349.63	0.664
3358.96	0.6614
3368.29	0.6518
3377.63	0.643
3386.96	0.6406
3396.29	0.6338
3405.63	0.629
3414.96	0.626
3424.29	0.625
3433.63	0.623
3442.96	0.625
3452.29	0.626
3461.63	0.626
3470.96	0.627
3480.29	0.6292
3489.63	0.6314
3498.96	0.6372
3508.29	0.642
3517.63	0.6474
3526.96	0.6524
3536.29	0.6564
3545.63	0.6592
3554.96	0.6662
3564.29	0.672
3573.63	0.6792
3582.96	0.684
3592.29	0.688
3601.63	0.695
3610.96	0.6982
3620.29	0.7072
3629.63	0.711
3638.96	0.711
3648.29	0.7122
3657.63	0.713
3666.96	0.713
3676.29	0.713
3685.63	0.713
3694.96	0.715
3704.29	0.715
3713.63	0.715
3722.96	0.715
3732.29	0.715
3741.63	0.715
3750.96	0.715
3760.29	0.7152
3769.63	0.719
3778.96	0.72
3788.29	0.72
3797.63	0.7186
3806.96	0.715
3816.29	0.711
3825.63	0.7088
3834.96	0.7066
3844.29	0.704
3853.63	0.704
3862.96	0.703
3872.29	0.703
3881.63	0.703
3890.96	0.704
3900.29	0.707
3909.63	0.705
3918.96	0.704
3928.29	0.704
3937.63	0.704
3946.96	0.703
3956.29	0.6998
3965.63	0.699
3974.96	0.699
3984.29	0.699
3993.63	0.698
4002.96	0.696
4012.29	0.695
