Infrared Spectrum: METHYLGUANIDINE SULFATE
Formula: C4 H16 N6 O4 S
State: SOLID (MINERAL OIL MULL)
Melting point: 241-242 C
Class: COBLENTZ
Instrument: Not specified, most likely a prism, grating, or hybrid spectrometer.
Sampling: TRANSMISSION
Resolution: 4
Origin: WYANDOTTE CHEMICALS CORP., WYANDOTTE, MICHIGAN, USA
MICROMETERS	TRANSMITTANCE
2.041	0.974
2.08196	0.979
2.12291	0.977
2.16387	0.949
2.20482	0.937
2.24578	0.952
2.28674	0.971
2.32769	0.974
2.36865	0.977
2.4096	1
2.45056	1.001
2.49151	1.001
2.53247	1.003
2.57343	1.001
2.61438	0.998
2.65534	0.981
2.69629	0.957
2.73725	0.903
2.77821	0.782
2.81916	0.674
2.86012	0.533
2.90107	0.346
2.94203	0.195
2.98299	0.101
3.02394	0.091
3.0649	0.089
3.10585	0.074
3.14681	0.069
3.18776	0.074
3.22872	0.074
3.26968	0.071
3.31063	0.067
3.35159	0.033
3.39254	0.032
3.4335	0.037
3.47446	0.04
3.51541	0.05
3.55637	0.283
3.59732	0.324
3.63828	0.395
3.67923	0.477
3.72019	0.555
3.76115	0.602
3.8021	0.646
3.84306	0.633
3.88401	0.697
3.92497	0.719
3.96593	0.747
4.00688	0.777
4.04784	0.806
4.08879	0.816
4.12975	0.821
4.17071	0.825
4.21166	0.825
4.25262	0.826
4.29357	0.87
4.33453	0.852
4.37548	0.831
4.41644	0.82
4.4574	0.831
4.49835	0.842
4.53931	0.833
4.58026	0.823
4.62122	0.857
4.66218	0.887
4.70313	0.928
4.74409	0.913
4.78504	0.881
4.826	0.91
4.86696	0.916
4.90791	0.915
4.94887	0.92
4.98982	0.942
5.03078	0.959
5.07173	0.967
5.11269	0.971
5.15365	0.972
5.1946	0.972
5.23556	0.967
5.27651	0.96
5.31747	0.945
5.35843	0.932
5.39938	0.916
5.44034	0.891
5.48129	0.85
5.52225	0.801
5.5632	0.755
5.60416	0.714
5.64512	0.658
5.68607	0.582
5.72703	0.432
5.76798	0.3
5.80894	0.188
5.8499	0.11
5.89085	0.083
5.93181	0.091
5.97276	0.086
6.01372	0.079
6.05468	0.079
6.09563	0.084
6.13659	0.144
6.17754	0.198
6.2185	0.241
6.25945	0.376
6.30041	0.449
6.34137	0.494
6.38232	0.531
6.42328	0.546
6.46423	0.555
6.50519	0.555
6.54615	0.541
6.5871	0.529
6.62806	0.488
6.66901	0.424
6.70997	0.286
6.75093	0.149
6.79188	0.073
6.83284	0.095
6.87379	0.129
6.91475	0.183
6.9557	0.263
6.99666	0.39
7.03762	0.448
7.07857	0.461
7.11953	0.463
7.16048	0.429
7.20144	0.234
7.2424	0.185
7.28335	0.283
7.32431	0.356
7.36526	0.376
7.40622	0.378
7.44717	0.387
7.48813	0.397
7.52909	0.393
7.57004	0.38
7.611	0.368
7.65195	0.366
7.69291	0.365
7.73387	0.366
7.77482	0.363
7.81578	0.354
7.85673	0.349
7.89769	0.349
7.93865	0.349
7.9796	0.342
8.02056	0.336
8.06151	0.332
8.10247	0.325
8.14342	0.31
8.18438	0.278
8.22534	0.256
8.26629	0.21
8.30725	0.193
8.3482	0.186
8.38916	0.19
8.43012	0.173
8.47107	0.154
8.51203	0.162
8.55298	0.169
8.59394	0.168
8.6349	0.146
8.67585	0.13
8.71681	0.098
8.75776	0.081
8.79872	0.076
8.83967	0.074
8.88063	0.071
8.92159	0.069
8.96254	0.066
9.0035	0.062
9.04445	0.061
9.08541	0.057
9.12637	0.054
9.16732	0.05
9.20828	0.049
9.24923	0.045
9.29019	0.044
9.33115	0.042
9.3721	0.044
9.41306	0.045
9.45401	0.047
9.49497	0.047
9.53592	0.052
9.57688	0.057
9.61784	0.067
9.65879	0.078
9.69975	0.095
9.7407	0.113
9.78166	0.134
9.82262	0.151
9.86357	0.176
9.90453	0.2
9.94548	0.23
9.98644	0.259
10.0274	0.292
10.0684	0.315
10.1093	0.349
10.1503	0.3
10.1912	0.196
10.2322	0.303
10.2731	0.358
10.3141	0.388
10.355	0.409
10.396	0.429
10.437	0.448
10.4779	0.463
10.5189	0.475
10.5598	0.492
10.6008	0.504
10.6417	0.512
10.6827	0.529
10.7236	0.538
10.7646	0.553
10.8056	0.563
10.8465	0.57
10.8875	0.546
10.9284	0.514
10.9694	0.495
11.0103	0.516
11.0513	0.558
11.0922	0.587
11.1332	0.597
11.1742	0.607
11.2151	0.621
11.2561	0.629
11.297	0.643
11.338	0.653
11.3789	0.657
11.4199	0.66
11.4609	0.662
11.5018	0.663
11.5428	0.663
11.5837	0.663
11.6247	0.663
11.6656	0.662
11.7066	0.662
11.7475	0.66
11.7885	0.657
11.8295	0.655
11.8704	0.655
11.9114	0.653
11.9523	0.651
11.9933	0.65
12.0342	0.648
12.0752	0.643
12.1161	0.636
12.1571	0.631
12.1981	0.623
12.239	0.612
12.28	0.606
12.3209	0.599
12.3619	0.589
12.4028	0.577
12.4438	0.57
12.4847	0.55
12.5257	0.538
12.5667	0.528
12.6076	0.511
12.6486	0.492
12.6895	0.477
12.7305	0.463
12.7714	0.444
12.8124	0.432
12.8533	0.421
12.8943	0.412
12.9353	0.402
12.9762	0.383
13.0172	0.373
13.0581	0.363
13.0991	0.353
13.14	0.341
13.181	0.334
13.222	0.317
13.2629	0.308
13.3039	0.29
13.3448	0.278
13.3858	0.264
13.4267	0.246
13.4677	0.229
13.5086	0.213
13.5496	0.203
13.5906	0.208
13.6315	0.217
13.6725	0.222
13.7134	0.23
13.7544	0.23
13.7953	0.227
13.8363	0.22
13.8772	0.217
13.9182	0.215
13.9592	0.21
14.0001	0.215
14.0411	0.215
14.082	0.212
14.123	0.208
14.1639	0.205
14.2049	0.203
14.2458	0.198
14.2868	0.196
14.3278	0.193
14.3687	0.19
14.4097	0.19
14.4506	0.19
14.4916	0.19
14.5325	0.186
14.5735	0.19
14.6145	0.19
14.6554	0.19
14.6964	0.19
14.7373	0.19
14.7783	0.195
14.8192	0.198
14.8602	0.2
14.9011	0.202
14.9421	0.207
14.9831	0.23
15.024	0.252
15.065	0.259
15.1059	0.222
15.1469	0.215
15.1878	0.232
15.2288	0.246
15.2697	0.256
15.3107	0.271
15.3517	0.278
15.3926	0.288
15.4336	0.298
15.4745	0.31
15.5155	0.319
15.5564	0.325
15.5974	0.336
15.6383	0.346
15.6793	0.353
15.7203	0.365
15.7612	0.366
15.8022	0.375
15.8431	0.388
15.8841	0.402
15.925	0.409
15.966	0.415
