Infrared Spectrum: Choline Iodide,O-(m-NitroCinnamoyl)
Formula: C14 H19 I N2 O4
State: SOLID (NUJOL MULL)
Class: COBLENTZ III
Instrument: PERKIN-ELMER 221 (GRATING)
Instrument parameters: FILTER AT 2490, 980 CM^-^1. GRATING 4000-1428 CM^-^1, NaCl PRISM 1428-650 CM^-^1
Sampling: TRANSMISSION
Resolution: 2
Origin: SOUTHERN RESEARCH INSTITUTE
1/CM	TRANSMITTANCE
629.89	0.8939
638.947	0.7682
648.005	0.6501
657.062	0.669
666.119	0.7282
675.177	0.8771
684.234	0.8802
693.292	0.8538
702.349	0.8207
711.406	0.6568
720.464	0.7821
729.521	0.6068
738.578	0.5194
747.636	0.8517
756.693	0.8882
765.75	0.9045
774.808	0.9051
783.865	0.8993
792.922	0.8526
801.98	0.6224
811.037	0.5873
820.095	0.8875
829.152	0.8952
838.209	0.8687
847.267	0.779
856.324	0.6468
865.381	0.6776
874.439	0.7675
883.496	0.8597
892.553	0.847
901.611	0.7599
910.668	0.7347
919.725	0.7364
928.783	0.571
937.84	0.4555
946.898	0.3593
955.955	0.7478
965.012	0.7034
974.07	0.3905
983.127	0.6302
992.184	0.6612
1001.24	0.7302
1010.3	0.7853
1019.36	0.7915
1028.41	0.7943
1037.47	0.7255
1046.53	0.6271
1055.59	0.7186
1064.64	0.7335
1073.7	0.6916
1082.76	0.5858
1091.82	0.6402
1100.87	0.7204
1109.93	0.7199
1118.99	0.6837
1128.04	0.6274
1137.1	0.5233
1146.16	0.3646
1155.22	0.2107
1164.27	0.1235
1173.33	0.0923
1182.39	0.3109
1191.45	0.6868
1200.5	0.4453
1209.56	0.6871
1218.62	0.7784
1227.68	0.7614
1236.73	0.7637
1245.79	0.7329
1254.85	0.6203
1263.91	0.4488
1272.96	0.64
1282.02	0.5381
1291.08	0.4486
1300.13	0.3217
1309.19	0.3588
1318.25	0.3027
1327.31	0.3573
1336.36	0.3936
1345.42	0.2142
1354.48	0.2469
1363.54	0.4392
1372.59	0.3968
1381.65	0.6993
1390.71	0.7675
1399.77	0.7269
1408.82	0.6848
1417.88	0.5824
1426.94	0.4255
1435.99	0.3101
1445.05	0.1697
1454.11	0.1264
1463.17	0.2765
1472.22	0.3567
1481.28	0.5794
1490.34	0.6371
1499.4	0.5924
1508.45	0.3681
1517.51	0.091
1526.57	0.2717
1535.63	0.6472
1544.68	0.8623
1553.74	0.8516
1562.8	0.7672
1571.86	0.791
1580.91	0.8291
1589.97	0.7949
1599.03	0.7458
1608.08	0.6222
1617.14	0.7108
1626.2	0.5735
1635.26	0.2605
1644.31	0.6065
1653.37	0.8151
1662.43	0.773
1671.49	0.7491
1680.54	0.7183
1689.6	0.6471
1698.66	0.4287
1707.72	0.1339
1716.77	0.492
1725.83	0.778
1734.89	0.8262
1743.94	0.8905
1753	0.9
1762.06	0.8986
1771.12	0.8949
1780.17	0.8873
1789.23	0.8777
1798.29	0.8679
1807.35	0.8617
1816.4	0.862
1825.46	0.8609
1834.52	0.8565
1843.58	0.8539
1852.63	0.8546
1861.69	0.8451
1870.75	0.8393
1879.81	0.8411
1888.86	0.8376
1897.92	0.8303
1906.98	0.8261
1916.03	0.8235
1925.09	0.8228
1934.15	0.824
1943.21	0.8238
1952.26	0.8185
1961.32	0.8114
1970.38	0.803
1979.44	0.7969
1988.49	0.7756
1997.55	0.7838
2006.61	0.7915
2015.67	0.7907
2024.72	0.7884
2033.78	0.786
2042.84	0.7836
2051.9	0.7818
2060.95	0.7801
2070.01	0.7778
2079.07	0.7751
2088.12	0.7718
2097.18	0.7679
2106.24	0.7632
2115.3	0.7582
2124.35	0.7548
2133.41	0.7517
2142.47	0.7487
2151.53	0.7458
2160.58	0.7429
2169.64	0.7403
2178.7	0.7385
2187.76	0.7368
2196.81	0.7353
2205.87	0.7339
2214.93	0.7317
2223.98	0.7284
2233.04	0.724
2242.1	0.7202
2251.16	0.7165
2260.21	0.7127
2269.27	0.7088
2278.33	0.7049
2287.39	0.7009
2296.44	0.6969
2305.5	0.6928
2314.56	0.6881
2323.62	0.6814
2332.67	0.6767
2341.73	0.6737
2350.79	0.6725
2359.85	0.6757
2368.9	0.6795
2377.96	0.6831
2387.02	0.6815
2396.07	0.6779
2405.13	0.6745
2414.19	0.6714
2423.25	0.669
2432.3	0.6666
2441.36	0.6642
2450.42	0.6613
2459.48	0.6589
2468.53	0.6589
2477.59	0.6732
2486.65	0.6521
2495.71	0.6482
2504.76	0.6453
2513.82	0.6407
2522.88	0.6336
2531.94	0.6287
2540.99	0.6252
2550.05	0.62
2559.11	0.6155
2568.16	0.6116
2577.22	0.6073
2586.28	0.6026
2595.34	0.5983
2604.39	0.5945
2613.45	0.5907
2622.51	0.5866
2631.57	0.583
2640.62	0.5799
2649.68	0.5768
2658.74	0.5741
2667.8	0.5723
2676.85	0.5726
2685.91	0.5738
2694.97	0.575
2704.02	0.5756
2713.08	0.5692
2722.14	0.5642
2731.2	0.57
2740.25	0.5768
2749.31	0.5811
2758.37	0.5798
2767.43	0.5731
2776.48	0.563
2785.54	0.5492
2794.6	0.5327
2803.66	0.5071
2812.71	0.4756
2821.77	0.4389
2830.83	0.3155
2839.89	0.1769
2848.94	0.0187
2858	0.0152
2867.06	0.0194
2876.11	0.0252
2885.17	0.0233
2894.23	0.0119
2903.29	0.0003
2912.34	0.0003
2921.4	0.0003
2930.46	0.0004
2939.52	0.0004
2948.57	0.0004
2957.63	0.0018
2966.69	0.0131
2975.75	0.046
2984.8	0.1243
2993.86	0.1769
3002.92	0.1884
3011.98	0.2149
3021.03	0.2761
3030.09	0.3048
3039.15	0.3129
3048.2	0.315
3057.26	0.3465
3066.32	0.3628
3075.38	0.3494
3084.43	0.3566
3093.49	0.4086
3102.55	0.4232
3111.61	0.4278
3120.66	0.4289
3129.72	0.4295
3138.78	0.43
3147.84	0.4307
3156.89	0.4314
3165.95	0.4321
3175.01	0.4324
3184.06	0.4327
3193.12	0.4341
3202.18	0.4361
3211.24	0.4376
3220.29	0.4377
3229.35	0.4371
3238.41	0.4362
3247.47	0.4352
3256.52	0.4342
3265.58	0.4331
3274.64	0.4321
3283.7	0.431
3292.75	0.43
3301.81	0.4289
3310.87	0.4278
3319.93	0.4266
3328.98	0.4232
3338.04	0.4198
3347.1	0.4164
3356.15	0.4131
3365.21	0.4098
3374.27	0.4071
3383.33	0.4046
3392.38	0.4021
3401.44	0.4
3410.5	0.3994
3419.56	0.3988
3428.61	0.3982
3437.67	0.3975
3446.73	0.3977
3455.79	0.3979
3464.84	0.3981
3473.9	0.3983
3482.96	0.3986
3492.02	0.3997
3501.07	0.4008
3510.13	0.4019
3519.19	0.403
3528.24	0.4041
3537.3	0.4046
3546.36	0.4047
3555.42	0.4048
3564.47	0.4049
3573.53	0.4043
3582.59	0.4033
3591.65	0.4022
3600.7	0.4012
3609.76	0.4001
3618.82	0.3983
3627.88	0.3965
3636.93	0.3946
3645.99	0.3928
3655.05	0.391
3664.1	0.3892
3673.16	0.388
3682.22	0.3868
3691.28	0.3855
3700.33	0.3843
3709.39	0.3831
3718.45	0.3819
3727.51	0.3805
3736.56	0.3791
3745.62	0.3777
3754.68	0.3763
3763.74	0.375
3772.79	0.3736
3781.85	0.3723
3790.91	0.3711
3799.97	0.3698
3809.02	0.3691
3818.08	0.3686
3827.14	0.3681
3836.19	0.3677
3845.25	0.3672
3854.31	0.3662
3863.37	0.3651
3872.42	0.3641
3881.48	0.363
3890.54	0.3618
3899.6	0.3605
3908.65	0.3591
3917.71	0.3578
3926.77	0.3566
3935.83	0.3556
3944.88	0.3545
3953.94	0.3535
3963	0.3525
3972.05	0.3516
3981.11	0.3507
3990.17	0.3498
3999.23	0.3491
4008.28	0.3484
4017.34	0.3478
