Infrared Spectrum: BORANE, COMPOUND WITH MORPHOLINE
Formula: C4 H12 B N O
State: SOLID (SPLIT MULL)
Class: COBLENTZ III
Instrument: BECKMAN IR-9 (GRATING)
Instrument parameters: ORDER CHANGES: 670, 1200, 2000 CM^-^1
Sampling: TRANSMISSION
Resolution: 2
Origin: DOW CHEMICAL COMPANY
1/CM	TRANSMITTANCE
3800	0.5981
3791	0.6009
3782	0.6034
3773	0.605
3764	0.6072
3755	0.6095
3746	0.6117
3737	0.6136
3728	0.6156
3719	0.6168
3710	0.6181
3701	0.6191
3692	0.62
3683	0.6198
3674	0.6193
3665	0.6166
3656	0.6048
3647	0.6001
3638	0.5983
3629	0.6024
3620	0.6086
3611	0.613
3602	0.6156
3593	0.6179
3584	0.6204
3575	0.6245
3566	0.6296
3557	0.6345
3548	0.6375
3539	0.6404
3530	0.643
3521	0.6454
3512	0.6478
3503	0.65
3494	0.6521
3485	0.6538
3476	0.6551
3467	0.6565
3458	0.6575
3449	0.6582
3440	0.6589
3431	0.6598
3422	0.6608
3413	0.6618
3404	0.6642
3395	0.6665
3386	0.6706
3377	0.6749
3368	0.6792
3359	0.683
3350	0.6867
3341	0.6903
3332	0.694
3323	0.6976
3314	0.7018
3305	0.7054
3296	0.7089
3287	0.7121
3278	0.7153
3269	0.7169
3260	0.7172
3251	0.7174
3242	0.7125
3233	0.6921
3224	0.6561
3215	0.6052
3206	0.3173
3197	0.0255
3188	0.0406
3179	0.2172
3170	0.3424
3161	0.4219
3152	0.48
3143	0.5198
3134	0.5481
3125	0.5723
3116	0.5959
3107	0.6172
3098	0.632
3089	0.6456
3080	0.659
3071	0.6698
3062	0.6806
3053	0.6918
3044	0.7021
3035	0.7108
3026	0.7204
3017	0.7287
3008	0.7328
2999	0.6428
2990	0.5328
2981	0.6915
2972	0.5495
2963	0.2655
2954	0.6004
2945	0.4347
2936	0.6015
2927	0.6081
2918	0.6091
2909	0.5672
2900	0.5665
2891	0.661
2882	0.6693
2873	0.6297
2864	0.5048
2855	0.18
2846	0.3157
2837	0.5556
2828	0.6115
2819	0.64
2810	0.6607
2801	0.6769
2792	0.7033
2783	0.7081
2774	0.6882
2765	0.7064
2756	0.6817
2747	0.7231
2738	0.7365
2729	0.7389
2720	0.7426
2711	0.7407
2702	0.7239
2693	0.7425
2684	0.7557
2675	0.7647
2666	0.7737
2657	0.7828
2648	0.7914
2639	0.7887
2630	0.7915
2621	0.7908
2612	0.7849
2603	0.7715
2594	0.759
2585	0.7436
2576	0.7469
2567	0.7755
2558	0.7934
2549	0.7999
2540	0.8051
2531	0.8097
2522	0.8044
2513	0.7858
2504	0.7851
2495	0.7958
2486	0.8036
2477	0.7968
2468	0.7854
2459	0.7712
2450	0.7534
2441	0.7307
2432	0.6805
2423	0.6117
2414	0.5865
2405	0.5176
2396	0.2328
2387	0.139
2378	0.0246
2369	0.0725
2360	0.1188
2351	0.1296
2342	0.1375
2333	0.1177
2324	0.097
2315	0.108
2306	0.1599
2297	0.1682
2288	0.159
2279	0.1114
2270	0.126
2261	0.1766
2252	0.2396
2243	0.32
2234	0.4864
2225	0.527
2216	0.5409
2207	0.5705
2198	0.5966
2189	0.6137
2180	0.6321
2171	0.6484
2162	0.6626
2153	0.6741
2144	0.6801
2135	0.683
2126	0.6771
2117	0.6725
2108	0.6732
2099	0.6739
2090	0.6811
2081	0.6948
2072	0.7115
2063	0.7178
2054	0.7265
2045	0.7339
2036	0.7443
2027	0.7558
2018	0.7667
2009	0.7747
2000	0.7767
1991	0.7887
1982	0.7969
1973	0.7934
1964	0.7894
1955	0.8065
1946	0.7915
1937	0.7971
1928	0.8076
1919	0.8106
1910	0.8108
1901	0.811
1892	0.8117
1883	0.8215
1874	0.8243
1865	0.8211
1856	0.8211
1847	0.8236
1838	0.8301
1829	0.836
1820	0.8354
1811	0.8399
1802	0.8454
1793	0.8478
1784	0.8496
1775	0.8525
1766	0.8557
1757	0.8571
1748	0.8564
1739	0.8514
1730	0.8428
1721	0.8076
1712	0.8318
1703	0.8533
1694	0.861
1685	0.8651
1676	0.8663
1667	0.8663
1658	0.8702
1649	0.8723
1640	0.8734
1631	0.8778
1622	0.8824
1613	0.887
1604	0.8889
1595	0.8903
1586	0.8899
1577	0.8896
1568	0.8898
1559	0.8899
1550	0.8898
1541	0.8892
1532	0.8878
1523	0.8845
1514	0.8784
1505	0.8768
1496	0.8725
1487	0.8615
1478	0.8598
1469	0.8518
1460	0.7148
1451	0.3782
1442	0.5778
1433	0.7168
1424	0.6553
1415	0.2157
1406	0.4058
1397	0.6439
1388	0.631
1379	0.6747
1370	0.5341
1361	0.6768
1352	0.6671
1343	0.5125
1334	0.3522
1325	0.7032
1316	0.7471
1307	0.7331
1298	0.7626
1289	0.7542
1280	0.7315
1271	0.6377
1262	0.2049
1253	0.4167
1244	0.7008
1235	0.7211
1226	0.7222
1217	0.7089
1208	0.675
1199	0.5604
1190	0.2414
1181	0.1012
1172	0.1121
1163	0.4366
1154	0.615
1145	0.5852
1136	0.2511
1127	0.4117
1118	0.5322
1109	0.3103
1100	0.1624
1091	0.5332
1082	0.58
1073	0.6275
1064	0.6247
1055	0.558
1046	0.2842
1037	0.5156
1028	0.5831
1019	0.725
1010	0.7514
1001	0.7594
992	0.7787
983	0.7842
974	0.7932
965	0.7778
956	0.6846
947	0.6957
938	0.6265
929	0.6129
920	0.7408
911	0.4649
902	0.0364
893	0.4675
884	0.7442
875	0.7869
866	0.7915
857	0.7695
848	0.4215
839	0.7761
830	0.806
821	0.8069
812	0.8095
803	0.8119
794	0.8132
785	0.8148
776	0.8168
767	0.8171
758	0.8094
749	0.7755
740	0.7735
731	0.7557
722	0.7975
713	0.8274
704	0.8446
695	0.8516
686	0.8561
677	0.8553
668	0.8544
659	0.8573
650	0.8589
641	0.8592
632	0.8578
623	0.8559
614	0.8527
605	0.8459
596	0.6574
587	0.7732
578	0.8457
569	0.848
560	0.8477
551	0.8467
542	0.8454
533	0.8441
524	0.8411
515	0.8373
506	0.8249
497	0.803
488	0.7844
479	0.77
470	0.7555
461	0.7383
452	0.6867
443	0.7025
434	0.663
425	0.6115
416	0.5906
407	0.5878
