Infrared Spectrum: 1,4-NAPHTHALENEDIOL, 2-METHYL-, BIS(HYDROGEN SULFATE), DISODIUM SALT, TRIHYDRATE
Formula: C11 H8 Na2 O8 S2  * 3 H2 O
State: SOLID (SPLIT MULL)
Melting point: 160 C (DECOMP.)
Class: COBLENTZ III
Instrument: DOW KBr FOREPRISM-GRATING
Instrument parameters: BLAZED AT 3.5, 12.0, 20.0 MICRON AND CHANGED AT 5.0, 7.5, 14.9 MICRON
Sampling: TRANSMISSION
Resolution: 2
Origin: DOW CHEMICAL COMPANY
1/CM	TRANSMITTANCE
458	0.5471
467	0.5424
476	0.5328
485	0.5426
494	0.6112
503	0.6528
512	0.6662
521	0.6639
530	0.651
539	0.6326
548	0.611
557	0.5738
566	0.511
575	0.332
584	0.2613
593	0.5746
602	0.617
611	0.426
620	0.5017
629	0.5393
638	0.4576
647	0.4896
656	0.6401
665	0.6595
674	0.7756
683	0.7946
692	0.8103
701	0.8271
710	0.7281
719	0.5719
728	0.7576
737	0.769
746	0.7518
755	0.4428
764	0.431
773	0.7361
782	0.7398
791	0.8112
800	0.7928
809	0.8496
818	0.8544
827	0.8368
836	0.7971
845	0.7034
854	0.3437
863	0.2426
872	0.3389
881	0.5842
890	0.7536
899	0.838
908	0.8668
917	0.8698
926	0.8537
935	0.7768
944	0.7705
953	0.8593
962	0.8761
971	0.873
980	0.8636
989	0.8547
998	0.8401
1007	0.7946
1016	0.7007
1025	0.5834
1034	0.4201
1043	0.1568
1052	0.2492
1061	0.5151
1070	0.3964
1079	0.4744
1088	0.7497
1097	0.7831
1106	0.8128
1115	0.7999
1124	0.7743
1133	0.7317
1142	0.6698
1151	0.4942
1160	0.4579
1169	0.3328
1178	0.2882
1187	0.308
1196	0.2848
1205	0.1977
1214	0.2744
1223	0.2115
1232	0.1356
1241	0.0978
1250	0.1066
1259	0.1118
1268	0.1461
1277	0.1975
1286	0.3434
1295	0.3662
1304	0.3388
1313	0.3404
1322	0.4043
1331	0.4859
1340	0.5146
1349	0.5405
1358	0.534
1367	0.501
1376	0.5923
1385	0.6728
1394	0.5502
1403	0.6474
1412	0.6561
1421	0.7415
1430	0.7774
1439	0.7301
1448	0.7578
1457	0.7286
1466	0.7547
1475	0.8209
1484	0.8518
1493	0.8631
1502	0.8639
1511	0.8616
1520	0.8475
1529	0.8606
1538	0.8737
1547	0.8786
1556	0.8785
1565	0.8737
1574	0.8652
1583	0.8468
1592	0.8111
1601	0.6724
1610	0.7795
1619	0.7069
1628	0.7486
1637	0.7103
1646	0.6914
1655	0.6376
1664	0.6428
1673	0.7554
1682	0.803
1691	0.8325
1700	0.8425
1709	0.8484
1718	0.8578
1727	0.8675
1736	0.8743
1745	0.8793
1754	0.8841
1763	0.8891
1772	0.8912
1781	0.8925
1790	0.8933
1799	0.894
1808	0.8945
1817	0.8947
1826	0.8946
1835	0.8949
1844	0.8952
1853	0.8967
1862	0.8986
1871	0.9006
1880	0.9017
1889	0.9008
1898	0.9003
1907	0.9034
1916	0.9044
1925	0.8971
1934	0.9033
1943	0.9033
1952	0.8953
1961	0.9063
1970	0.9053
1979	0.9047
1988	0.9046
1997	0.9052
2006	0.905
2015	0.9041
2024	0.9023
2033	0.9005
2042	0.8988
2051	0.897
2060	0.8952
2069	0.8933
2078	0.89
2087	0.8863
2096	0.8823
2105	0.8781
2114	0.8746
2123	0.8728
2132	0.8717
2141	0.8711
2150	0.8707
2159	0.871
2168	0.8695
2177	0.8678
2186	0.866
2195	0.8639
2204	0.8618
2213	0.8594
2222	0.855
2231	0.8491
2240	0.8425
2249	0.8359
2258	0.8303
2267	0.8248
2276	0.8201
2285	0.8215
2294	0.8176
2303	0.8125
2312	0.8076
2321	0.8032
2330	0.7988
2339	0.7947
2348	0.7918
2357	0.7898
2366	0.789
2375	0.788
2384	0.7865
2393	0.7838
2402	0.7776
2411	0.7701
2420	0.7611
2429	0.7511
2438	0.7418
2447	0.7361
2456	0.7292
2465	0.7269
2474	0.7285
2483	0.7315
2492	0.7345
2501	0.7356
2510	0.7336
2519	0.7299
2528	0.7261
2537	0.7214
2546	0.7165
2555	0.7117
2564	0.7118
2573	0.7144
2582	0.7185
2591	0.7222
2600	0.7283
2609	0.7315
2618	0.7341
2627	0.7365
2636	0.7397
2645	0.7417
2654	0.7414
2663	0.7405
2672	0.7384
2681	0.7357
2690	0.7322
2699	0.7285
2708	0.7244
2717	0.7182
2726	0.7117
2735	0.7039
2744	0.6955
2753	0.6869
2762	0.6786
2771	0.6701
2780	0.6617
2789	0.6532
2798	0.644
2807	0.6345
2816	0.6236
2825	0.6119
2834	0.601
2843	0.5893
2852	0.5767
2861	0.5701
2870	0.5672
2879	0.5614
2888	0.5556
2897	0.5492
2906	0.5421
2915	0.5346
2924	0.5353
2933	0.5406
2942	0.5479
2951	0.555
2960	0.5606
2969	0.5646
2978	0.5683
2987	0.5717
2996	0.5707
3005	0.5681
3014	0.5653
3023	0.5612
3032	0.5571
3041	0.556
3050	0.5544
3059	0.5512
3068	0.548
3077	0.5455
3086	0.5467
3095	0.5453
3104	0.5396
3113	0.5333
3122	0.5264
3131	0.5195
3140	0.5135
3149	0.5068
3158	0.4986
3167	0.4903
3176	0.4821
3185	0.4738
3194	0.4655
3203	0.4552
3212	0.4451
3221	0.4351
3230	0.4252
3239	0.4146
3248	0.4041
3257	0.3982
3266	0.3947
3275	0.3948
3284	0.3996
3293	0.404
3302	0.409
3311	0.4143
3320	0.4197
3329	0.4264
3338	0.4329
3347	0.4387
3356	0.4445
3365	0.4474
3374	0.4473
3383	0.4462
3392	0.4455
3401	0.4451
3410	0.4579
3419	0.4632
3428	0.4525
3437	0.4309
3446	0.4066
3455	0.3657
3464	0.3012
3473	0.3026
3482	0.2628
3491	0.2132
3500	0.2598
3509	0.3904
3518	0.4501
3527	0.5082
3536	0.5548
3545	0.5766
3554	0.5928
3563	0.6076
3572	0.628
3581	0.6781
3590	0.7039
3599	0.7235
3608	0.7328
3617	0.6994
3626	0.6806
3635	0.7907
3644	0.805
3653	0.8139
3662	0.82
3671	0.8221
3680	0.8218
3689	0.8221
3698	0.8218
3707	0.823
3716	0.8253
3725	0.8247
3734	0.8218
3743	0.8165
3752	0.8144
3761	0.8128
3770	0.8125
3779	0.8142
3788	0.8134
3797	0.8083
