Infrared Spectrum: Aniline,2-methyl-N-(Alpha,Alpha-dimethylpropyl)-
Formula: C12 H19 N
State: LIQUID (NEAT)
Class: COBLENTZ III
Instrument: BECKMAN IR-4 (HYBRID PRISM-GRATING)
Instrument parameters: NaCl PRISM
Sampling: TRANSMISSION
Path length: CAPILLARY
Resolution: 2
Origin: MONSANTO (J. FREEMAN)
1/CM	TRANSMITTANCE
626	0.8037
635	0.8585
644	0.9114
653	0.9059
662	0.8602
671	0.8465
680	0.8377
689	0.8167
698	0.83
707	0.8016
716	0.5769
725	0.5809
734	0.2825
743	0.0947
752	0.2777
761	0.5989
770	0.6922
779	0.6952
788	0.7272
797	0.8142
806	0.8279
815	0.8203
824	0.8335
833	0.8218
842	0.8432
851	0.8894
860	0.8989
869	0.9124
878	0.9055
887	0.8955
896	0.8759
905	0.8866
914	0.8302
923	0.8465
932	0.8895
941	0.892
950	0.866
959	0.7907
968	0.7101
977	0.7448
986	0.6259
995	0.7894
1004	0.7563
1013	0.8501
1022	0.8247
1031	0.8057
1040	0.7392
1049	0.4085
1058	0.6264
1067	0.8143
1076	0.8966
1085	0.8973
1094	0.8967
1103	0.813
1112	0.7359
1121	0.9152
1130	0.9187
1139	0.8987
1148	0.8169
1157	0.6858
1166	0.5383
1175	0.3829
1184	0.3775
1193	0.3575
1202	0.4694
1211	0.5735
1220	0.3481
1229	0.6692
1238	0.668
1247	0.4168
1256	0.2049
1265	0.379
1274	0.5475
1283	0.5044
1292	0.4407
1301	0.3705
1310	0.2816
1319	0.2302
1328	0.4897
1337	0.6986
1346	0.8003
1355	0.6739
1364	0.4239
1373	0.3842
1382	0.3099
1391	0.6971
1400	0.7849
1409	0.7654
1418	0.6586
1427	0.4859
1436	0.3574
1445	0.2663
1454	0.2624
1463	0.217
1472	0.204
1481	0.1267
1490	0.373
1499	0.3139
1508	0.2176
1517	0.1154
1526	0.3634
1535	0.6035
1544	0.7596
1553	0.7732
1562	0.7609
1571	0.5261
1580	0.2836
1589	0.3625
1598	0.2258
1607	0.2395
1616	0.4811
1625	0.6586
1634	0.8015
1643	0.8334
1652	0.8695
1661	0.8792
1670	0.888
1679	0.9051
1688	0.9259
1697	0.9383
1706	0.947
1715	0.952
1724	0.9517
1733	0.9481
1742	0.938
1751	0.9267
1760	0.9249
1769	0.9339
1778	0.9364
1787	0.9303
1796	0.9313
1805	0.9368
1814	0.9313
1823	0.9257
1832	0.9271
1841	0.9315
1850	0.9321
1859	0.9262
1868	0.9047
1877	0.9076
1886	0.9189
1895	0.9215
1904	0.9187
1913	0.9185
1922	0.9316
1931	0.9406
1940	0.9494
1949	0.9557
1958	0.9609
1967	0.963
1976	0.9634
1985	0.9629
1994	0.9624
2003	0.9623
2012	0.9636
2021	0.9655
2030	0.9664
2039	0.9661
2048	0.9656
2057	0.9653
2066	0.965
2075	0.9644
2084	0.9635
2093	0.9625
2102	0.9617
2111	0.9608
2120	0.9593
2129	0.9589
2138	0.9589
2147	0.9594
2156	0.9617
2165	0.9644
2174	0.9662
2183	0.964
2192	0.9626
2201	0.9621
2210	0.962
2219	0.9628
2228	0.9684
2237	0.9733
2246	0.967
2255	0.9616
2264	0.9573
2273	0.9561
2282	0.9629
2291	0.969
2300	0.9703
2309	0.9695
2318	0.971
2327	0.975
2336	0.9781
2345	0.9775
2354	0.9756
2363	0.9721
2372	0.9673
2381	0.9592
2390	0.9514
2399	0.9491
2408	0.9467
2417	0.9464
2426	0.9489
2435	0.9521
2444	0.9544
2453	0.9545
2462	0.9535
2471	0.9519
2480	0.9487
2489	0.9516
2498	0.96
2507	0.9596
2516	0.9544
2525	0.9496
2534	0.9439
2543	0.938
2552	0.9304
2561	0.9202
2570	0.9149
2579	0.9156
2588	0.9177
2597	0.92
2606	0.9223
2615	0.9254
2624	0.929
2633	0.9329
2642	0.9361
2651	0.9377
2660	0.9389
2669	0.939
2678	0.9378
2687	0.9362
2696	0.9308
2705	0.9215
2714	0.9059
2723	0.8913
2732	0.8889
2741	0.8986
2750	0.9067
2759	0.9079
2768	0.9056
2777	0.9016
2786	0.8963
2795	0.8829
2804	0.8606
2813	0.8307
2822	0.8114
2831	0.7591
2840	0.6593
2849	0.5602
2858	0.4617
2867	0.407
2876	0.3762
2885	0.3629
2894	0.3547
2903	0.3469
2912	0.319
2921	0.2622
2930	0.2449
2939	0.2415
2948	0.2376
2957	0.1967
2966	0.1381
2975	0.1368
2984	0.2211
2993	0.3297
3002	0.4375
3011	0.5448
3020	0.5906
3029	0.5993
3038	0.6051
3047	0.6104
3056	0.6858
3065	0.7281
3074	0.7464
3083	0.7555
3092	0.7865
3101	0.8229
3110	0.8589
3119	0.8897
3128	0.895
3137	0.8972
3146	0.8984
3155	0.8994
3164	0.9004
3173	0.9016
3182	0.9053
3191	0.9128
3200	0.9211
3209	0.925
3218	0.9271
3227	0.9284
3236	0.9287
3245	0.9279
3254	0.9268
3263	0.9256
3272	0.9228
3281	0.9193
3290	0.9142
3299	0.9068
3308	0.8979
3317	0.8888
3326	0.8786
3335	0.8688
3344	0.8595
3353	0.8504
3362	0.8413
3371	0.8321
3380	0.82
3389	0.7952
3398	0.7612
3407	0.7274
3416	0.6952
3425	0.6888
3434	0.7103
3443	0.7604
3452	0.8117
3461	0.8334
3470	0.8468
3479	0.8641
3488	0.8778
3497	0.89
3506	0.9015
3515	0.9101
3524	0.9149
3533	0.9174
3542	0.9196
3551	0.9216
3560	0.9232
3569	0.924
3578	0.9247
3587	0.9254
3596	0.9261
3605	0.9268
3614	0.9273
3623	0.928
3632	0.9286
3641	0.9293
3650	0.9297
3659	0.9297
3668	0.9298
3677	0.9298
3686	0.9298
3695	0.9296
3704	0.9292
3713	0.9288
3722	0.9285
3731	0.9281
3740	0.9274
3749	0.9266
3758	0.9258
3767	0.925
3776	0.9242
3785	0.9234
3794	0.9225
3803	0.9201
3812	0.9177
3821	0.9158
3830	0.914
3839	0.9123
3848	0.9105
3857	0.9088
3866	0.907
3875	0.9056
3884	0.9049
3893	0.9042
3902	0.9035
3911	0.9029
3920	0.9023
3929	0.9016
3938	0.901
3947	0.9003
3956	0.8997
3965	0.8991
3974	0.8985
3983	0.8979
3992	0.8974
