Infrared Spectrum: Oxadiazole, 1,2,4-, 5-(5-nitrofuran-2-yl)-3-(4-pyridinyl)-
Formula: C11 H6 N4 O4
State: SOLUTION (7% CHCl3) VS SOLVENT
Melting point: 152 C
Class: COBLENTZ III
Instrument: PERKIN-ELMER 21, NaCl PRISM
Sampling: TRANSMISSION
Path length: 0.01 CM
Resolution: 2
Origin: ABBOTT LABORATORIES - WASHBURN
1/CM	TRANSMITTANCE
803	0.9754
811	0.4102
819	0.4703
827	0.7657
835	0.4069
843	0.848
851	0.9352
859	0.9031
867	0.8909
875	0.883
883	0.8775
891	0.8623
899	0.831
907	0.767
915	0.5668
923	0.9417
931	0.9487
939	0.8953
947	0.8839
955	0.8589
963	0.7225
971	0.6136
979	0.8513
987	0.8302
995	0.7309
1003	0.8018
1011	0.7926
1019	0.3121
1027	0.8401
1035	0.8851
1043	0.8846
1051	0.8807
1059	0.8632
1067	0.6793
1075	0.8713
1083	0.8657
1091	0.8609
1099	0.8466
1107	0.8622
1115	0.8728
1123	0.8777
1131	0.8638
1139	0.7947
1147	0.6594
1155	0.8873
1163	0.9037
1171	0.9046
1179	0.898
1187	0.9655
1195	0.9999
1203	0.9069
1211	0.8687
1219	0.8702
1227	0.8575
1235	0.793
1243	0.6597
1251	0.6196
1259	0.785
1267	0.7662
1275	0.7101
1283	0.5699
1291	0.5725
1299	0.7158
1307	0.5772
1315	0.1472
1323	0.5459
1331	0.5158
1339	0.3797
1347	0.0298
1355	0.0158
1363	0.0844
1371	0.3981
1379	0.4529
1387	0.426
1395	0.577
1403	0.6225
1411	0.4834
1419	0.2224
1427	0.8393
1435	0.8182
1443	0.7383
1451	0.6542
1459	0.6857
1467	0.6731
1475	0.6006
1483	0.4842
1491	0.4947
1499	0.4646
1507	0.6534
1515	0.6153
1523	0.325
1531	0.1557
1539	0.1528
1547	0.5669
1555	0.6294
1563	0.4054
1571	0.3689
1579	0.3404
1587	0.6184
1595	0.7702
1603	0.772
1611	0.706
1619	0.6958
1627	0.6427
1635	0.3383
1643	0.4547
1651	0.4025
1659	0.7906
1667	0.8382
1675	0.8609
1683	0.8726
1691	0.8732
1699	0.8692
1707	0.868
1715	0.8763
1723	0.8907
1731	0.8865
1739	0.8925
1747	0.8901
1755	0.8894
1763	0.8881
1771	0.8786
1779	0.8747
1787	0.8755
1795	0.8799
1803	0.889
1811	0.8934
1819	0.8956
1827	0.8967
1835	0.8974
1843	0.8974
1851	0.8975
1859	0.8973
1867	0.9006
1875	0.9072
1883	0.9081
1891	0.9081
1899	0.9074
1907	0.9071
1915	0.9058
1923	0.9031
1931	0.8989
1939	0.8946
1947	0.8923
1955	0.8927
1963	0.8973
1971	0.9068
1979	0.9136
1987	0.913
1995	0.9123
2003	0.9116
2011	0.9109
2019	0.9103
2027	0.9094
2035	0.9082
2043	0.907
2051	0.9072
2059	0.9093
2067	0.9104
2075	0.9108
2083	0.9109
2091	0.9098
2099	0.9073
2107	0.9048
2115	0.9039
2123	0.9036
2131	0.9035
2139	0.9033
2147	0.903
2155	0.9026
2163	0.9023
2171	0.9022
2179	0.902
2187	0.9018
2195	0.9014
2203	0.9007
2211	0.8999
2219	0.899
2227	0.8982
2235	0.8975
2243	0.8968
2251	0.8957
2259	0.8945
2267	0.8941
2275	0.8939
2283	0.8901
2291	0.8807
2299	0.8808
2307	0.8931
2315	0.9008
2323	0.9052
2331	0.9096
2339	0.9141
2347	0.9175
2355	0.9208
2363	0.9217
2371	0.9216
2379	0.9242
2387	0.9363
2395	0.946
2403	0.9469
2411	0.9296
2419	0.911
2427	0.8998
2435	0.8901
2443	0.8825
2451	0.877
2459	0.8733
2467	0.8707
2475	0.8691
2483	0.8679
2491	0.8671
2499	0.8663
2507	0.8657
2515	0.8653
2523	0.8652
2531	0.8657
2539	0.8668
2547	0.8704
2555	0.874
2563	0.8765
2571	0.8779
2579	0.8791
2587	0.8798
2595	0.8798
2603	0.8794
2611	0.879
2619	0.8785
2627	0.878
2635	0.8773
2643	0.8763
2651	0.8754
2659	0.8744
2667	0.8736
2675	0.873
2683	0.8724
2691	0.8717
2699	0.8708
2707	0.87
2715	0.8692
2723	0.8684
2731	0.868
2739	0.8677
2747	0.8675
2755	0.8672
2763	0.8672
2771	0.8672
2779	0.8673
2787	0.8677
2795	0.8684
2803	0.8691
2811	0.8706
2819	0.872
2827	0.8736
2835	0.8753
2843	0.8768
2851	0.878
2859	0.8792
2867	0.8804
2875	0.8812
2883	0.8818
2891	0.8803
2899	0.8773
2907	0.8727
2915	0.868
2923	0.8622
2931	0.8562
2939	0.8503
2947	0.8436
2955	0.8355
2963	0.822
2971	0.7902
2979	0.7581
2987	0.7263
2995	0.6985
3003	0.6902
3011	0.6881
3019	0.6897
3027	0.7415
3035	0.7983
3043	0.8358
3051	0.8408
3059	0.8424
3067	0.8424
3075	0.842
3083	0.8409
3091	0.8395
3099	0.8372
3107	0.8342
3115	0.8303
3123	0.8216
3131	0.8103
3139	0.7989
3147	0.7876
3155	0.7765
3163	0.7723
3171	0.7718
3179	0.781
3187	0.8037
3195	0.8263
3203	0.849
3211	0.86
3219	0.863
3227	0.8651
3235	0.8661
3243	0.8668
3251	0.8671
3259	0.8669
3267	0.8666
3275	0.8663
3283	0.8658
3291	0.8655
3299	0.8651
3307	0.8648
3315	0.8645
3323	0.8647
3331	0.8653
3339	0.866
3347	0.8666
3355	0.867
3363	0.8673
3371	0.8674
3379	0.8674
3387	0.8675
3395	0.8676
3403	0.8677
3411	0.8678
3419	0.868
3427	0.8682
3435	0.8685
3443	0.8688
3451	0.8695
3459	0.8702
3467	0.8709
3475	0.8716
3483	0.8723
3491	0.873
3499	0.8738
3507	0.8747
3515	0.8756
3523	0.8763
3531	0.8766
3539	0.8768
3547	0.8762
3555	0.8754
3563	0.8743
3571	0.873
3579	0.8725
3587	0.8724
3595	0.8724
3603	0.8723
3611	0.873
3619	0.8737
3627	0.8746
3635	0.8759
3643	0.8772
3651	0.8785
3659	0.8799
3667	0.8813
3675	0.8825
3683	0.8835
3691	0.8845
3699	0.8855
3707	0.8863
3715	0.8866
3723	0.8868
3731	0.8868
3739	0.8865
3747	0.8863
3755	0.886
3763	0.8854
3771	0.8847
3779	0.8841
3787	0.8832
3795	0.8822
3803	0.8811
3811	0.8798
3819	0.8786
3827	0.8777
3835	0.8772
3843	0.877
3851	0.8769
3859	0.8768
3867	0.8768
3875	0.8768
3883	0.877
3891	0.8772
3899	0.8775
3907	0.8777
3915	0.8779
3923	0.8782
3931	0.8784
3939	0.8786
3947	0.8789
3955	0.8791
3963	0.8793
3971	0.8795
3979	0.8798
3987	0.8799
3995	0.8802
