Infrared Spectrum: AMMONIUM OXALATE
Formula: ( N H4)2 C2 O4  * H2 O
State: SOLID (KBr DISC)
Class: COBLENTZ
Instrument: Not specified, most likely a prism, grating, or hybrid spectrometer.
Sampling: TRANSMISSION
Resolution: 4
MICROMETERS	TRANSMITTANCE
2.003	0.544
2.04111	0.549
2.07921	0.556
2.11732	0.562
2.15542	0.564
2.19353	0.571
2.23164	0.579
2.26974	0.592
2.30785	0.602
2.34595	0.611
2.38406	0.619
2.42217	0.625
2.46027	0.628
2.49838	0.629
2.53648	0.631
2.57459	0.631
2.6127	0.631
2.6508	0.628
2.68891	0.625
2.72701	0.613
2.76512	0.585
2.80323	0.538
2.84133	0.477
2.87944	0.438
2.91754	0.398
2.95565	0.383
2.99376	0.379
3.03186	0.359
3.06997	0.323
3.10807	0.273
3.14618	0.258
3.18429	0.25
3.22239	0.229
3.2605	0.214
3.29861	0.213
3.33671	0.235
3.37482	0.271
3.41292	0.292
3.45103	0.295
3.48914	0.305
3.52724	0.329
3.56535	0.367
3.60345	0.397
3.64156	0.428
3.67967	0.459
3.71777	0.485
3.75588	0.508
3.79398	0.531
3.83209	0.544
3.8702	0.567
3.9083	0.582
3.94641	0.598
3.98451	0.614
4.02262	0.632
4.06073	0.638
4.09883	0.653
4.13694	0.67
4.17504	0.68
4.21315	0.682
4.25126	0.682
4.28936	0.685
4.32747	0.695
4.36557	0.732
4.40368	0.738
4.44179	0.738
4.47989	0.738
4.518	0.731
4.5561	0.719
4.59421	0.71
4.63232	0.701
4.67042	0.695
4.70853	0.695
4.74663	0.704
4.78474	0.722
4.82285	0.735
4.86095	0.75
4.89906	0.756
4.93716	0.762
4.97527	0.762
5.01338	0.752
5.05148	0.732
5.08959	0.711
5.12769	0.694
5.1658	0.68
5.20391	0.677
5.24201	0.676
5.28012	0.674
5.31822	0.674
5.35633	0.686
5.39444	0.694
5.43254	0.701
5.47065	0.71
5.50876	0.713
5.54686	0.711
5.58497	0.707
5.62307	0.695
5.66118	0.671
5.69929	0.65
5.73739	0.626
5.7755	0.585
5.8136	0.447
5.85171	0.383
5.88982	0.498
5.92792	0.497
5.96603	0.45
6.00413	0.365
6.04224	0.35
6.08035	0.307
6.11845	0.219
6.15656	0.162
6.19466	0.105
6.23277	0.107
6.27088	0.158
6.30898	0.217
6.34709	0.283
6.38519	0.349
6.4233	0.417
6.46141	0.438
6.49951	0.488
6.53762	0.523
6.57572	0.55
6.61383	0.577
6.65194	0.608
6.69004	0.61
6.72815	0.546
6.76625	0.462
6.80436	0.35
6.84247	0.335
6.88057	0.252
6.91868	0.231
6.95678	0.271
6.99489	0.325
7.033	0.337
7.0711	0.317
7.10921	0.316
7.14731	0.356
7.18542	0.422
7.22353	0.465
7.26163	0.505
7.29974	0.541
7.33784	0.568
7.37595	0.602
7.41406	0.614
7.45216	0.617
7.49027	0.592
7.52837	0.482
7.56648	0.371
7.60459	0.332
7.64269	0.323
7.6808	0.323
7.71891	0.361
7.75701	0.397
7.79512	0.434
7.83322	0.462
7.87133	0.492
7.90944	0.522
7.94754	0.546
7.98565	0.559
8.02375	0.574
8.06186	0.585
8.09997	0.594
8.13807	0.604
8.17618	0.61
8.21428	0.614
8.25239	0.62
8.2905	0.625
8.3286	0.631
8.36671	0.635
8.40481	0.64
8.44292	0.646
8.48103	0.655
8.51913	0.659
8.55724	0.662
8.59534	0.67
8.63345	0.674
8.67156	0.679
8.70966	0.683
8.74777	0.686
8.78587	0.691
8.82398	0.694
8.86209	0.697
8.90019	0.701
8.9383	0.708
8.9764	0.713
9.01451	0.714
9.05262	0.719
9.09072	0.723
9.12883	0.726
9.16693	0.726
9.20504	0.732
9.24315	0.737
9.28125	0.74
9.31936	0.741
9.35746	0.743
9.39557	0.746
9.43368	0.747
9.47178	0.752
9.50989	0.755
9.54799	0.756
9.5861	0.758
9.62421	0.764
9.66231	0.765
9.70042	0.767
9.73852	0.77
9.77663	0.773
9.81474	0.773
9.85284	0.774
9.89095	0.776
9.92906	0.777
9.96716	0.777
10.0053	0.779
10.0434	0.779
10.0815	0.78
10.1196	0.782
10.1577	0.783
10.1958	0.785
10.2339	0.785
10.272	0.788
10.3101	0.789
10.3482	0.791
10.3863	0.792
10.4244	0.792
10.4625	0.794
10.5006	0.795
10.5388	0.797
10.5769	0.797
10.615	0.797
10.6531	0.8
10.6912	0.802
10.7293	0.804
10.7674	0.805
10.8055	0.804
10.8436	0.805
10.8817	0.807
10.9198	0.807
10.9579	0.81
10.996	0.81
11.0341	0.811
11.0722	0.813
11.1103	0.817
11.1484	0.819
11.1866	0.82
11.2247	0.823
11.2628	0.828
11.3009	0.829
11.339	0.831
11.3771	0.832
11.4152	0.834
11.4533	0.835
11.4914	0.84
11.5295	0.841
11.5676	0.841
11.6057	0.834
11.6438	0.834
11.6819	0.838
11.72	0.841
11.7581	0.843
11.7963	0.844
11.8344	0.844
11.8725	0.843
11.9106	0.843
11.9487	0.838
11.9868	0.831
12.0249	0.828
12.063	0.822
12.1011	0.81
12.1392	0.802
12.1773	0.795
12.2154	0.788
12.2535	0.782
12.2916	0.774
12.3297	0.767
12.3678	0.758
12.4059	0.75
12.4441	0.744
12.4822	0.741
12.5203	0.74
12.5584	0.741
12.5965	0.74
12.6346	0.74
12.6727	0.741
12.7108	0.74
12.7489	0.737
12.787	0.714
12.8251	0.649
12.8632	0.57
12.9013	0.538
12.9394	0.517
12.9775	0.452
13.0156	0.434
13.0537	0.464
13.0919	0.534
13.13	0.598
13.1681	0.647
13.2062	0.68
13.2443	0.7
13.2824	0.716
13.3205	0.734
13.3586	0.743
13.3967	0.747
13.4348	0.749
13.4729	0.75
13.511	0.75
13.5491	0.749
13.5872	0.747
13.6253	0.74
13.6634	0.731
13.7016	0.729
13.7397	0.723
13.7778	0.717
13.8159	0.713
13.854	0.711
13.8921	0.71
13.9302	0.708
13.9683	0.707
14.0064	0.707
14.0445	0.707
14.0826	0.708
14.1207	0.708
14.1588	0.71
14.1969	0.711
14.235	0.714
14.2731	0.716
14.3112	0.72
14.3494	0.722
14.3875	0.723
14.4256	0.725
14.4637	0.725
14.5018	0.725
14.5399	0.728
14.578	0.728
14.6161	0.728
14.6542	0.731
14.6923	0.731
14.7304	0.729
14.7685	0.729
14.8066	0.728
14.8447	0.726
14.8828	0.725
14.9209	0.725
14.9591	0.716
14.9972	0.711
