Infrared Spectrum: 3-(N-METHYLANILINO)-2-METHYL-5-(n-HEPTYL)PYRAZINE
Formula: C19 H27 N3
State: LIQUID
Class: COBLENTZ
Instrument: Not specified, most likely a prism, grating, or hybrid spectrometer.
Sampling: TRANSMISSION
Path length: 0.003 CM
Resolution: 4
Origin: WYANDOTTE CHEMICALS CORP., WYANDOTTE, MICHIGAN, USA
MICROMETERS	TRANSMITTANCE
2.04	0.983
2.07977	0.963
2.11954	0.951
2.15931	0.932
2.19909	0.897
2.23886	0.903
2.27863	0.9
2.3184	0.907
2.35817	0.905
2.39794	0.903
2.43772	0.913
2.47749	0.928
2.51726	0.933
2.55703	0.94
2.5968	0.945
2.63657	0.948
2.67634	0.93
2.71612	0.938
2.75589	0.92
2.79566	0.92
2.83543	0.9
2.8752	0.885
2.91497	0.862
2.95474	0.854
2.99452	0.859
3.03429	0.864
3.07406	0.854
3.11383	0.84
3.1536	0.815
3.19337	0.789
3.23315	0.59
3.27292	0.381
3.31269	0.374
3.35246	0.081
3.39223	0.053
3.432	0.091
3.47177	0.096
3.51155	0.253
3.55132	0.606
3.59109	0.724
3.63086	0.761
3.67063	0.772
3.7104	0.8
3.75017	0.804
3.78995	0.809
3.82972	0.824
3.86949	0.822
3.90926	0.829
3.94903	0.849
3.9888	0.868
4.02858	0.87
4.06835	0.878
4.10812	0.868
4.14789	0.868
4.18766	0.868
4.22743	0.859
4.2672	0.87
4.30698	0.862
4.34675	0.87
4.38652	0.885
4.42629	0.893
4.46606	0.898
4.50583	0.895
4.54561	0.908
4.58538	0.907
4.62515	0.912
4.66492	0.915
4.70469	0.907
4.74446	0.898
4.78423	0.902
4.82401	0.902
4.86378	0.902
4.90355	0.907
4.94332	0.913
4.98309	0.918
5.02286	0.912
5.06263	0.912
5.10241	0.905
5.14218	0.892
5.18195	0.859
5.22172	0.857
5.26149	0.887
5.30126	0.902
5.34104	0.887
5.38081	0.872
5.42058	0.877
5.46035	0.878
5.50012	0.872
5.53989	0.857
5.57966	0.839
5.61944	0.825
5.65921	0.817
5.69898	0.789
5.73875	0.713
5.77852	0.524
5.81829	0.398
5.85806	0.669
5.89784	0.757
5.93761	0.731
5.97738	0.721
6.01715	0.724
6.05692	0.718
6.09669	0.694
6.13647	0.6
6.17624	0.3
6.21601	0.109
6.25578	0.29
6.29555	0.409
6.33532	0.331
6.37509	0.431
6.41487	0.472
6.45464	0.33
6.49441	0.076
6.53418	0.157
6.57395	0.278
6.61372	0.082
6.6535	0.059
6.69327	0.159
6.73304	0.17
6.77281	0.072
6.81258	0.067
6.85235	0.064
6.89212	0.054
6.9319	0.056
6.97167	0.063
7.01144	0.182
7.05121	0.275
7.09098	0.217
7.13075	0.121
7.17052	0.051
7.2103	0.053
7.25007	0.056
7.28984	0.063
7.32961	0.106
7.36938	0.16
7.40915	0.257
7.44893	0.303
7.4887	0.316
7.52847	0.315
7.56824	0.301
7.60801	0.278
7.64778	0.265
7.68755	0.273
7.72733	0.288
7.7671	0.31
7.80687	0.301
7.84664	0.223
7.88641	0.15
7.92618	0.139
7.96595	0.187
8.00573	0.295
8.0455	0.394
8.08527	0.462
8.12504	0.514
8.16481	0.417
8.20458	0.316
8.24436	0.389
8.28413	0.32
8.3239	0.213
8.36367	0.14
8.40344	0.112
8.44321	0.121
8.48298	0.144
8.52276	0.16
8.56253	0.162
8.6023	0.16
8.64207	0.17
8.68184	0.266
8.72161	0.3
8.76139	0.192
8.80116	0.072
8.84093	0.067
8.8807	0.107
8.92047	0.132
8.96024	0.207
9.00001	0.291
9.03979	0.33
9.07956	0.371
9.11933	0.401
9.1591	0.429
9.19887	0.451
9.23864	0.417
9.27841	0.452
9.31819	0.538
9.35796	0.563
9.39773	0.537
9.4375	0.492
9.47727	0.49
9.51704	0.578
9.55682	0.601
9.59659	0.578
9.63636	0.495
9.67613	0.356
9.7159	0.286
9.75567	0.361
9.79544	0.479
9.83522	0.51
9.87499	0.459
9.91476	0.351
9.95453	0.3
9.9943	0.306
10.0341	0.32
10.0738	0.368
10.1136	0.459
10.1534	0.52
10.1932	0.57
10.2329	0.61
10.2727	0.635
10.3125	0.651
10.3522	0.661
10.392	0.681
10.4318	0.691
10.4716	0.711
10.5113	0.734
10.5511	0.751
10.5909	0.762
10.6306	0.769
10.6704	0.771
10.7102	0.774
10.75	0.769
10.7897	0.769
10.8295	0.766
10.8693	0.752
10.909	0.742
10.9488	0.711
10.9886	0.693
11.0284	0.673
11.0681	0.64
11.1079	0.62
11.1477	0.61
11.1874	0.608
11.2272	0.598
11.267	0.603
11.3068	0.6
11.3465	0.6
11.3863	0.61
11.4261	0.63
11.4658	0.653
11.5056	0.691
11.5454	0.726
11.5852	0.759
11.6249	0.781
11.6647	0.797
11.7045	0.799
11.7442	0.807
11.784	0.796
11.8238	0.789
11.8636	0.771
11.9033	0.757
11.9431	0.741
11.9829	0.723
12.0226	0.688
12.0624	0.686
12.1022	0.701
12.142	0.723
12.1817	0.751
12.2215	0.766
12.2613	0.779
12.301	0.789
12.3408	0.797
12.3806	0.799
12.4204	0.797
12.4601	0.789
12.4999	0.779
12.5397	0.756
12.5795	0.754
12.6192	0.742
12.659	0.733
12.6988	0.724
12.7385	0.701
12.7783	0.668
12.8181	0.625
12.8579	0.578
12.8976	0.533
12.9374	0.494
12.9772	0.442
13.0169	0.363
13.0567	0.293
13.0965	0.233
13.1363	0.174
13.176	0.154
13.2158	0.144
13.2556	0.139
13.2953	0.155
13.3351	0.179
13.3749	0.243
13.4147	0.311
13.4544	0.421
13.4942	0.48
13.534	0.52
13.5737	0.538
13.6135	0.55
13.6533	0.557
13.6931	0.568
13.7328	0.572
13.7726	0.562
13.8124	0.55
13.8521	0.538
13.8919	0.545
13.9317	0.56
13.9715	0.58
14.0112	0.588
14.051	0.578
14.0908	0.555
14.1305	0.5
14.1703	0.419
14.2101	0.298
14.2499	0.205
14.2896	0.144
14.3294	0.114
14.3692	0.119
14.4089	0.134
14.4487	0.152
14.4885	0.197
14.5283	0.245
14.568	0.311
14.6078	0.386
14.6476	0.454
14.6873	0.52
14.7271	0.57
14.7669	0.595
14.8067	0.606
14.8464	0.611
14.8862	0.615
14.926	0.611
14.9657	0.606
15.0055	0.608
15.0453	0.578
15.0851	0.52
15.1248	0.507
15.1646	0.53
15.2044	0.558
15.2441	0.577
15.2839	0.585
15.3237	0.59
15.3635	0.59
15.4032	0.587
15.443	0.587
15.4828	0.578
15.5225	0.567
15.5623	0.563
15.6021	0.558
15.6419	0.555
15.6816	0.537
15.7214	0.52
15.7612	0.509
15.8009	0.512
15.8407	0.499
15.8805	0.487
15.9203	0.485
15.96	0.48
15.9998	0.48
