Infrared Spectrum: SODIUM METABISULFITE
Formula: Na2 S2 O5
State: SOLID (NUJOL MULL)
Class: COBLENTZ
Instrument: Not specified, most likely a prism, grating, or hybrid spectrometer.
Sampling: TRANSMISSION
Resolution: 4
Origin: MELLON INSTITUTE
MICROMETERS	TRANSMITTANCE
2.03	0.782
2.06988	0.783
2.10975	0.785
2.14963	0.785
2.18951	0.788
2.22939	0.79
2.26926	0.792
2.30914	0.792
2.34902	0.793
2.38889	0.797
2.42877	0.798
2.46865	0.802
2.50853	0.804
2.5484	0.809
2.58828	0.81
2.62816	0.812
2.66803	0.815
2.70791	0.815
2.74779	0.815
2.78767	0.819
2.82754	0.819
2.86742	0.819
2.9073	0.819
2.94718	0.817
2.98705	0.819
3.02693	0.82
3.06681	0.82
3.10668	0.825
3.14656	0.829
3.18644	0.835
3.22632	0.842
3.26619	0.842
3.30607	0.787
3.34595	0.49
3.38582	0.329
3.4257	0.45
3.46558	0.467
3.50546	0.757
3.54533	0.845
3.58521	0.872
3.62509	0.887
3.66496	0.891
3.70484	0.896
3.74472	0.899
3.7846	0.899
3.82447	0.902
3.86435	0.904
3.90423	0.904
3.9441	0.906
3.98398	0.906
4.02386	0.906
4.06374	0.906
4.10361	0.906
4.14349	0.906
4.18337	0.906
4.22325	0.906
4.26312	0.906
4.303	0.904
4.34288	0.904
4.38275	0.904
4.42263	0.904
4.46251	0.904
4.50239	0.902
4.54226	0.902
4.58214	0.902
4.62202	0.902
4.66189	0.902
4.70177	0.902
4.74165	0.902
4.78153	0.902
4.8214	0.904
4.86128	0.906
4.90116	0.906
4.94103	0.906
4.98091	0.904
5.02079	0.906
5.06067	0.907
5.10054	0.911
5.14042	0.912
5.1803	0.914
5.22017	0.916
5.26005	0.917
5.29993	0.921
5.33981	0.921
5.37968	0.922
5.41956	0.922
5.45944	0.922
5.49932	0.924
5.53919	0.927
5.57907	0.931
5.61895	0.934
5.65882	0.938
5.6987	0.943
5.73858	0.946
5.77846	0.948
5.81833	0.951
5.85821	0.953
5.89809	0.954
5.93796	0.954
5.97784	0.956
6.01772	0.954
6.0576	0.954
6.09747	0.954
6.13735	0.956
6.17723	0.959
6.2171	0.963
6.25698	0.963
6.29686	0.961
6.33674	0.956
6.37661	0.953
6.41649	0.951
6.45637	0.951
6.49624	0.953
6.53612	0.953
6.576	0.951
6.61588	0.948
6.65575	0.949
6.69563	0.946
6.73551	0.929
6.77539	0.842
6.81526	0.755
6.85514	0.767
6.89502	0.814
6.93489	0.86
6.97477	0.902
7.01465	0.922
7.05453	0.929
7.0944	0.936
7.13428	0.934
7.17416	0.896
7.21403	0.842
7.25391	0.845
7.29379	0.877
7.33367	0.899
7.37354	0.912
7.41342	0.916
7.4533	0.917
7.49317	0.916
7.53305	0.916
7.57293	0.914
7.61281	0.909
7.65268	0.904
7.69256	0.896
7.73244	0.887
7.77231	0.879
7.81219	0.864
7.85207	0.837
7.89195	0.805
7.93182	0.795
7.9717	0.78
8.01158	0.757
8.05146	0.71
8.09133	0.651
8.13121	0.566
8.17109	0.45
8.21096	0.291
8.25084	0.17
8.29072	0.098
8.3306	0.07
8.37047	0.06
8.41035	0.051
8.45023	0.046
8.4901	0.043
8.52998	0.05
8.56986	0.077
8.60974	0.182
8.64961	0.288
8.68949	0.4
8.72937	0.484
8.76924	0.584
8.80912	0.641
8.849	0.69
8.88888	0.706
8.92875	0.711
8.96863	0.723
9.00851	0.747
9.04838	0.753
9.08826	0.742
9.12814	0.688
9.16802	0.529
9.20789	0.383
9.24777	0.351
9.28765	0.281
9.32753	0.214
9.3674	0.167
9.40728	0.15
9.44716	0.144
9.48703	0.199
9.52691	0.356
9.56679	0.49
9.60667	0.556
9.64654	0.613
9.68642	0.648
9.7263	0.666
9.76617	0.675
9.80605	0.671
9.84593	0.656
9.88581	0.623
9.92568	0.587
9.96556	0.527
10.0054	0.427
10.0453	0.346
10.0852	0.252
10.1251	0.179
10.1649	0.144
10.2048	0.127
10.2447	0.12
10.2846	0.125
10.3245	0.152
10.3643	0.216
10.4042	0.318
10.4441	0.455
10.484	0.525
10.5238	0.608
10.5637	0.675
10.6036	0.713
10.6435	0.738
10.6833	0.76
10.7232	0.78
10.7631	0.8
10.803	0.809
10.8429	0.825
10.8827	0.835
10.9226	0.849
10.9625	0.86
11.0024	0.872
11.0422	0.886
11.0821	0.897
11.122	0.906
11.1619	0.912
11.2018	0.917
11.2416	0.926
11.2815	0.929
11.3214	0.934
11.3613	0.938
11.4011	0.938
11.441	0.941
11.4809	0.943
11.5208	0.946
11.5606	0.948
11.6005	0.953
11.6404	0.954
11.6803	0.956
11.7202	0.958
11.76	0.963
11.7999	0.963
11.8398	0.964
11.8797	0.966
11.9195	0.966
11.9594	0.968
11.9993	0.968
12.0392	0.968
12.0791	0.969
12.1189	0.971
12.1588	0.973
12.1987	0.974
12.2386	0.974
12.2784	0.974
12.3183	0.976
12.3582	0.976
12.3981	0.978
12.4379	0.978
12.4778	0.978
12.5177	0.976
12.5576	0.974
12.5975	0.974
12.6373	0.973
12.6772	0.971
12.7171	0.968
12.757	0.966
12.7968	0.964
12.8367	0.963
12.8766	0.961
12.9165	0.958
12.9563	0.956
12.9962	0.954
13.0361	0.949
13.076	0.948
13.1159	0.944
13.1557	0.943
13.1956	0.939
13.2355	0.938
13.2754	0.936
13.3152	0.932
13.3551	0.929
13.395	0.926
13.4349	0.922
13.4748	0.919
13.5146	0.917
13.5545	0.914
13.5944	0.911
13.6343	0.906
13.6741	0.901
13.714	0.899
13.7539	0.896
13.7938	0.891
13.8336	0.886
13.8735	0.882
13.9134	0.876
13.9533	0.872
13.9932	0.872
14.033	0.867
14.0729	0.862
14.1128	0.855
14.1527	0.852
14.1925	0.845
14.2324	0.837
14.2723	0.832
14.3122	0.825
14.3521	0.82
14.3919	0.81
14.4318	0.804
14.4717	0.797
14.5116	0.79
14.5514	0.782
14.5913	0.777
14.6312	0.768
14.6711	0.763
14.7109	0.755
14.7508	0.747
14.7907	0.731
14.8306	0.703
14.8705	0.649
14.9103	0.576
14.9502	0.52
14.9901	0.507
15.03	0.505
15.0698	0.502
15.1097	0.495
15.1496	0.492
15.1895	0.49
15.2293	0.502
15.2692	0.524
15.3091	0.549
15.349	0.567
15.3889	0.591
15.4287	0.606
15.4686	0.618
15.5085	0.628
15.5484	0.636
15.5882	0.643
15.6281	0.651
15.668	0.654
15.7079	0.664
15.7478	0.67
15.7876	0.673
15.8275	0.681
15.8674	0.686
15.9073	0.693
15.9471	0.698
15.987	0.708
