Infrared Spectrum: GUANIDINE, ACETATE
Formula: C3 H9 N3 O2
State: SOLID (SPLIT MULL)
Class: COBLENTZ III
Instrument: DOW KBr FOREPRISM-GRATING
Instrument parameters: BLAZED AT 3.5, 12.0, 20.0 MICRON AND CHANGED AT 5.0, 7.5, 14.9 MICRON
Sampling: TRANSMISSION
Resolution: 2
Origin: DOW CHEMICAL COMPANY
1/CM	TRANSMITTANCE
382	0.9331
391	0.9325
400	0.9297
409	0.9258
418	0.9215
427	0.9171
436	0.9103
445	0.8962
454	0.8795
463	0.8633
472	0.8398
481	0.8121
490	0.7598
499	0.7068
508	0.6273
517	0.5384
526	0.2354
535	0.3766
544	0.4325
553	0.4962
562	0.4345
571	0.4617
580	0.4928
589	0.5298
598	0.5329
607	0.5486
616	0.5085
625	0.358
634	0.3694
643	0.3322
652	0.1668
661	0.1967
670	0.1911
679	0.175
688	0.1678
697	0.1739
706	0.1919
715	0.2182
724	0.2751
733	0.3562
742	0.4515
751	0.4534
760	0.5505
769	0.6107
778	0.6591
787	0.7038
796	0.7385
805	0.7376
814	0.7287
823	0.7206
832	0.7169
841	0.7347
850	0.7665
859	0.8091
868	0.8475
877	0.8683
886	0.8728
895	0.8756
904	0.8695
913	0.6517
922	0.8182
931	0.8693
940	0.8683
949	0.8628
958	0.8488
967	0.8258
976	0.8001
985	0.7646
994	0.7115
1003	0.6123
1012	0.6386
1021	0.7303
1030	0.719
1039	0.6891
1048	0.6447
1057	0.6597
1066	0.6867
1075	0.6928
1084	0.6978
1093	0.7032
1102	0.7037
1111	0.695
1120	0.683
1129	0.6699
1138	0.6554
1147	0.6394
1156	0.6139
1165	0.5938
1174	0.5853
1183	0.5862
1192	0.5966
1201	0.6097
1210	0.6145
1219	0.6146
1228	0.6034
1237	0.5869
1246	0.5831
1255	0.5778
1264	0.5698
1273	0.558
1282	0.5439
1291	0.5205
1300	0.4849
1309	0.4692
1318	0.45
1327	0.4153
1336	0.3599
1345	0.2827
1354	0.3974
1363	0.3891
1372	0.3473
1381	0.2944
1390	0.2422
1399	0.1492
1408	0.0703
1417	0.0872
1426	0.2125
1435	0.2774
1444	0.3236
1453	0.3412
1462	0.3425
1471	0.3305
1480	0.3059
1489	0.2776
1498	0.2444
1507	0.2029
1516	0.1656
1525	0.1265
1534	0.0957
1543	0.081
1552	0.0911
1561	0.1314
1570	0.2087
1579	0.3203
1588	0.388
1597	0.449
1606	0.4646
1615	0.4462
1624	0.3749
1633	0.2956
1642	0.1968
1651	0.0922
1660	0.055
1669	0.0737
1678	0.0799
1687	0.1587
1696	0.3114
1705	0.4141
1714	0.5062
1723	0.5941
1732	0.6488
1741	0.6998
1750	0.7368
1759	0.7571
1768	0.7739
1777	0.7901
1786	0.8061
1795	0.8206
1804	0.8265
1813	0.831
1822	0.8351
1831	0.838
1840	0.8446
1849	0.8482
1858	0.8484
1867	0.8481
1876	0.8493
1885	0.8503
1894	0.8502
1903	0.8494
1912	0.8486
1921	0.8482
1930	0.8489
1939	0.8511
1948	0.8613
1957	0.9389
1966	0.846
1975	0.8409
1984	0.8349
1993	0.7905
2002	0.8648
2011	0.8357
2020	0.8352
2029	0.8661
2038	0.8332
2047	0.8293
2056	0.826
2065	0.823
2074	0.8197
2083	0.8165
2092	0.8138
2101	0.8111
2110	0.8084
2119	0.8056
2128	0.8026
2137	0.7993
2146	0.7958
2155	0.7921
2164	0.7882
2173	0.7843
2182	0.7808
2191	0.7775
2200	0.7744
2209	0.7717
2218	0.7689
2227	0.7645
2236	0.76
2245	0.759
2254	0.7572
2263	0.7554
2272	0.7536
2281	0.7518
2290	0.7497
2299	0.7467
2308	0.7437
2317	0.7371
2326	0.7293
2335	0.7228
2344	0.7281
2353	0.734
2362	0.7348
2371	0.7341
2380	0.7393
2389	0.7482
2398	0.7495
2407	0.75
2416	0.7518
2425	0.7518
2434	0.7518
2443	0.7511
2452	0.7511
2461	0.7508
2470	0.7483
2479	0.7456
2488	0.7428
2497	0.7401
2506	0.7375
2515	0.7347
2524	0.7319
2533	0.7294
2542	0.7258
2551	0.7212
2560	0.7168
2569	0.7124
2578	0.7061
2587	0.6996
2596	0.6932
2605	0.6855
2614	0.6769
2623	0.6671
2632	0.6561
2641	0.645
2650	0.6335
2659	0.6219
2668	0.6103
2677	0.5987
2686	0.5866
2695	0.5743
2704	0.5617
2713	0.5486
2722	0.5354
2731	0.522
2740	0.511
2749	0.5
2758	0.4889
2767	0.4805
2776	0.4722
2785	0.463
2794	0.4535
2803	0.4386
2812	0.4218
2821	0.3991
2830	0.3759
2839	0.3755
2848	0.3864
2857	0.3882
2866	0.3859
2875	0.3818
2884	0.3762
2893	0.3674
2902	0.3558
2911	0.3412
2920	0.3262
2929	0.3123
2938	0.3011
2947	0.2909
2956	0.2817
2965	0.2724
2974	0.2615
2983	0.2492
2992	0.2354
3001	0.2141
3010	0.1961
3019	0.1791
3028	0.1653
3037	0.1554
3046	0.1477
3055	0.1402
3064	0.1329
3073	0.126
3082	0.124
3091	0.1267
3100	0.1286
3109	0.1307
3118	0.1336
3127	0.1372
3136	0.143
3145	0.1483
3154	0.1538
3163	0.1598
3172	0.1654
3181	0.1703
3190	0.1744
3199	0.179
3208	0.1836
3217	0.1884
3226	0.1936
3235	0.1994
3244	0.2009
3253	0.1978
3262	0.1932
3271	0.1907
3280	0.1874
3289	0.1857
3298	0.1887
3307	0.1924
3316	0.1944
3325	0.1944
3334	0.1884
3343	0.1744
3352	0.1599
3361	0.154
3370	0.1573
3379	0.1915
3388	0.2209
3397	0.2578
3406	0.2834
3415	0.2937
3424	0.2917
3433	0.2593
3442	0.2459
3451	0.249
3460	0.2703
3469	0.4026
3478	0.4855
3487	0.5285
3496	0.6555
3505	0.7018
3514	0.7433
3523	0.7639
3532	0.7786
3541	0.7907
3550	0.801
3559	0.8092
3568	0.8156
3577	0.8192
3586	0.8221
3595	0.8244
3604	0.8268
3613	0.8283
3622	0.8293
3631	0.8296
3640	0.8296
3649	0.8292
3658	0.8287
3667	0.8278
3676	0.8268
3685	0.8258
3694	0.8247
3703	0.8234
3712	0.8218
3721	0.8203
3730	0.8187
3739	0.8169
3748	0.8154
3757	0.8137
3766	0.8121
3775	0.8097
3784	0.8074
3793	0.8058
