Infrared Spectrum: 3-Hydroxy-2,6-piperidinedimethanol, hydrochloride
Formula: C7 H16 Cl N O3
State: SOLID (SPLIT MULL), FLUOROLUBE FOR 3800-1330 CM^-^1, NUJOL FOR 1330-400 CM^-^1
Melting point: 145 C
Class: COBLENTZ III
Instrument: DOW KBr FOREPRISM-GRATING
Instrument parameters: BLAZED AT 3.5, 12.0, 20.0 MICRON AND CHANGED AT 5.0, 7.5, 14.9 MICRON
Sampling: TRANSMISSION
Resolution: 2
Origin: DOW CHEMICAL COMPANY
1/CM	TRANSMITTANCE
3810	0.7432
3801	0.7455
3792	0.7484
3783	0.7521
3774	0.7558
3765	0.7589
3756	0.7607
3747	0.7612
3738	0.7617
3729	0.7615
3720	0.7638
3711	0.7665
3702	0.7711
3693	0.7751
3684	0.778
3675	0.7805
3666	0.7824
3657	0.7843
3648	0.7861
3639	0.7876
3630	0.7892
3621	0.7904
3612	0.7908
3603	0.7889
3594	0.7815
3585	0.7839
3576	0.7845
3567	0.7818
3558	0.7772
3549	0.7708
3540	0.7633
3531	0.7544
3522	0.7422
3513	0.729
3504	0.7118
3495	0.6887
3486	0.6657
3477	0.6366
3468	0.6043
3459	0.5712
3450	0.5424
3441	0.5109
3432	0.475
3423	0.4398
3414	0.3976
3405	0.3032
3396	0.2507
3387	0.1806
3378	0.1613
3369	0.1785
3360	0.1885
3351	0.177
3342	0.1048
3333	0.0788
3324	0.0822
3315	0.1267
3306	0.1984
3297	0.2389
3288	0.2528
3279	0.2564
3270	0.2549
3261	0.2442
3252	0.2139
3243	0.1848
3234	0.1401
3225	0.0901
3216	0.0882
3207	0.1079
3198	0.1426
3189	0.2035
3180	0.2505
3171	0.2793
3162	0.334
3153	0.3712
3144	0.3946
3135	0.4098
3126	0.4152
3117	0.4174
3108	0.417
3099	0.4109
3090	0.3988
3081	0.373
3072	0.3464
3063	0.3355
3054	0.3359
3045	0.358
3036	0.3894
3027	0.4348
3018	0.4512
3009	0.4521
3000	0.451
2991	0.4427
2982	0.4222
2973	0.3357
2964	0.3542
2955	0.2791
2946	0.2169
2937	0.2965
2928	0.3462
2919	0.3484
2910	0.2915
2901	0.3375
2892	0.3436
2883	0.3691
2874	0.3304
2865	0.3157
2856	0.3134
2847	0.2807
2838	0.2718
2829	0.2702
2820	0.2705
2811	0.281
2802	0.2949
2793	0.3143
2784	0.3387
2775	0.3408
2766	0.345
2757	0.3562
2748	0.3604
2739	0.3203
2730	0.3318
2721	0.385
2712	0.4397
2703	0.4277
2694	0.3914
2685	0.395
2676	0.4268
2667	0.4627
2658	0.4888
2649	0.5138
2640	0.5257
2631	0.519
2622	0.5247
2613	0.5544
2604	0.5695
2595	0.5596
2586	0.5294
2577	0.5434
2568	0.5781
2559	0.5942
2550	0.6167
2541	0.6182
2532	0.5764
2523	0.5419
2514	0.5409
2505	0.5822
2496	0.6321
2487	0.6533
2478	0.6581
2469	0.6382
2460	0.6127
2451	0.6468
2442	0.6795
2433	0.6898
2424	0.6892
2415	0.6885
2406	0.6915
2397	0.6765
2388	0.6918
2379	0.7194
2370	0.7314
2361	0.7317
2352	0.7319
2343	0.7317
2334	0.7301
2325	0.7288
2316	0.7291
2307	0.7304
2298	0.7354
2289	0.7404
2280	0.746
2271	0.7515
2262	0.7572
2253	0.7634
2244	0.7695
2235	0.77
2226	0.7668
2217	0.7748
2208	0.7793
2199	0.7835
2190	0.7869
2181	0.7899
2172	0.7928
2163	0.796
2154	0.7994
2145	0.8028
2136	0.8058
2127	0.8086
2118	0.8112
2109	0.8133
2100	0.8148
2091	0.8151
2082	0.8147
2073	0.8135
2064	0.8124
2055	0.8151
2046	0.8245
2037	0.8289
2028	0.8315
2019	0.8321
2010	0.8318
2001	0.83
1992	0.8358
1983	0.8438
1974	0.8478
1965	0.8502
1956	0.8482
1947	0.8464
1938	0.8451
1929	0.845
1920	0.8478
1911	0.8504
1902	0.85
1893	0.8468
1884	0.8466
1875	0.8483
1866	0.8506
1857	0.8534
1848	0.8565
1839	0.8586
1830	0.8575
1821	0.8546
1812	0.8559
1803	0.8625
1794	0.8664
1785	0.8693
1776	0.8705
1767	0.8692
1758	0.8673
1749	0.8658
1740	0.8667
1731	0.8657
1722	0.8533
1713	0.8604
1704	0.8663
1695	0.8664
1686	0.8633
1677	0.8604
1668	0.858
1659	0.8568
1650	0.8554
1641	0.8548
1632	0.8547
1623	0.854
1614	0.8493
1605	0.8368
1596	0.703
1587	0.2646
1578	0.5988
1569	0.776
1560	0.8072
1551	0.8236
1542	0.8318
1533	0.8351
1524	0.8362
1515	0.8353
1506	0.8338
1497	0.8311
1488	0.8234
1479	0.8086
1470	0.7675
1461	0.6675
1452	0.5439
1443	0.5648
1434	0.6054
1425	0.4697
1416	0.6055
1407	0.686
1398	0.7248
1389	0.6474
1380	0.618
1371	0.6458
1362	0.6974
1353	0.4962
1344	0.5217
1335	0.4521
1326	0.4887
1317	0.3376
1308	0.4846
1299	0.5456
1290	0.6377
1281	0.5873
1272	0.5124
1263	0.586
1254	0.6812
1245	0.6965
1236	0.5988
1227	0.6442
1218	0.6651
1209	0.624
1200	0.6048
1191	0.6421
1182	0.375
1173	0.4209
1164	0.5229
1155	0.369
1146	0.5435
1137	0.6117
1128	0.6091
1119	0.5426
1110	0.341
1101	0.3948
1092	0.5602
1083	0.5283
1074	0.3909
1065	0.0595
1056	0.2542
1047	0.2441
1038	0.0989
1029	0.3908
1020	0.6193
1011	0.5702
1002	0.189
993	0.5016
984	0.7037
975	0.5101
966	0.6406
957	0.7699
948	0.7225
939	0.4146
930	0.2725
921	0.6955
912	0.7984
903	0.8403
894	0.8268
885	0.8324
876	0.6014
867	0.8188
858	0.8723
849	0.8795
840	0.881
831	0.8774
822	0.8225
813	0.8645
804	0.7848
795	0.8615
786	0.8571
777	0.8423
768	0.8217
759	0.7887
750	0.7494
741	0.6782
732	0.5424
723	0.3859
714	0.4778
705	0.4637
696	0.5065
687	0.5952
678	0.6789
669	0.7075
660	0.7187
651	0.7201
642	0.67
633	0.493
624	0.7219
615	0.6976
606	0.5935
597	0.4057
588	0.3152
579	0.4353
570	0.5771
561	0.7364
552	0.7393
543	0.7314
534	0.7128
525	0.7122
516	0.7275
507	0.5782
498	0.6078
489	0.7137
480	0.7218
471	0.6199
462	0.5619
453	0.6968
444	0.6972
435	0.6681
426	0.6049
417	0.3703
408	0.4726
