Infrared Spectrum: LEAD OXALATE
Formula: Pb C2 O4
State: SOLID (KBr DISC)
Class: COBLENTZ
Instrument: Not specified, most likely a prism, grating, or hybrid spectrometer.
Sampling: TRANSMISSION
Resolution: 4
MICROMETERS	TRANSMITTANCE
1.994	0.24
2.03214	0.242
2.07027	0.242
2.10841	0.249
2.14655	0.254
2.18469	0.259
2.22282	0.264
2.26096	0.265
2.2991	0.273
2.33723	0.28
2.37537	0.288
2.41351	0.293
2.45165	0.299
2.48978	0.307
2.52792	0.31
2.56606	0.314
2.60419	0.32
2.64233	0.324
2.68047	0.329
2.71861	0.333
2.75674	0.336
2.79488	0.339
2.83302	0.339
2.87115	0.336
2.90929	0.327
2.94743	0.322
2.98556	0.32
3.0237	0.324
3.06184	0.342
3.09998	0.358
3.13811	0.379
3.17625	0.398
3.21439	0.404
3.25252	0.412
3.29066	0.419
3.3288	0.426
3.36694	0.434
3.40507	0.44
3.44321	0.444
3.48135	0.449
3.51948	0.451
3.55762	0.459
3.59576	0.466
3.6339	0.471
3.67203	0.475
3.71017	0.478
3.74831	0.485
3.78644	0.494
3.82458	0.499
3.86272	0.505
3.90086	0.511
3.93899	0.515
3.97713	0.519
4.01527	0.524
4.0534	0.527
4.09154	0.53
4.12968	0.533
4.16782	0.537
4.20595	0.539
4.24409	0.539
4.28223	0.539
4.32036	0.539
4.3585	0.542
4.39664	0.55
4.43478	0.564
4.47291	0.571
4.51105	0.58
4.54919	0.59
4.58732	0.593
4.62546	0.598
4.6636	0.601
4.70174	0.602
4.73987	0.607
4.77801	0.61
4.81615	0.612
4.85428	0.617
4.89242	0.618
4.93056	0.621
4.96869	0.626
5.00683	0.63
5.04497	0.633
5.08311	0.638
5.12124	0.644
5.15938	0.646
5.19752	0.648
5.23565	0.648
5.27379	0.648
5.31193	0.648
5.35007	0.649
5.3882	0.652
5.42634	0.657
5.46448	0.661
5.50261	0.666
5.54075	0.664
5.57889	0.667
5.61703	0.669
5.65516	0.67
5.6933	0.67
5.73144	0.669
5.76957	0.667
5.80771	0.664
5.84585	0.658
5.88399	0.651
5.92212	0.629
5.96026	0.576
5.9984	0.478
6.03653	0.41
6.07467	0.258
6.11281	0.168
6.15095	0.15
6.18908	0.137
6.22722	0.131
6.26536	0.129
6.30349	0.137
6.34163	0.208
6.37977	0.317
6.41791	0.381
6.45604	0.441
6.49418	0.471
6.53232	0.527
6.57045	0.543
6.60859	0.565
6.64673	0.583
6.68487	0.61
6.723	0.627
6.76114	0.638
6.79928	0.645
6.83741	0.645
6.87555	0.646
6.91369	0.649
6.95182	0.652
6.98996	0.655
7.0281	0.657
7.06624	0.66
7.10437	0.664
7.14251	0.669
7.18065	0.675
7.21878	0.677
7.25692	0.677
7.29506	0.677
7.3332	0.679
7.37133	0.682
7.40947	0.695
7.44761	0.704
7.48574	0.711
7.52388	0.713
7.56202	0.694
7.60016	0.521
7.63829	0.459
7.67643	0.579
7.71457	0.524
7.7527	0.369
7.79084	0.481
7.82898	0.615
7.86712	0.664
7.90525	0.697
7.94339	0.72
7.98153	0.738
8.01966	0.75
8.0578	0.759
8.09594	0.762
8.13408	0.766
8.17221	0.768
8.21035	0.772
8.24849	0.776
8.28662	0.782
8.32476	0.785
8.3629	0.787
8.40104	0.79
8.43917	0.793
8.47731	0.796
8.51545	0.799
8.55358	0.8
8.59172	0.803
8.62986	0.806
8.668	0.807
8.70613	0.809
8.74427	0.81
8.78241	0.812
8.82054	0.812
8.85868	0.812
8.89682	0.815
8.93495	0.818
8.97309	0.819
9.01123	0.818
9.04937	0.819
9.0875	0.824
9.12564	0.827
9.16378	0.83
9.20191	0.831
9.24005	0.833
9.27819	0.834
9.31633	0.836
9.35446	0.838
9.3926	0.84
9.43074	0.841
9.46887	0.841
9.50701	0.843
9.54515	0.843
9.58329	0.843
9.62142	0.846
9.65956	0.846
9.6977	0.847
9.73583	0.852
9.77397	0.856
9.81211	0.859
9.85025	0.862
9.88838	0.865
9.92652	0.867
9.96466	0.867
10.0028	0.871
10.0409	0.878
10.0791	0.878
10.1172	0.878
10.1553	0.88
10.1935	0.881
10.2316	0.881
10.2698	0.883
10.3079	0.883
10.346	0.886
10.3842	0.886
10.4223	0.887
10.4604	0.89
10.4986	0.892
10.5367	0.895
10.5749	0.895
10.613	0.895
10.6511	0.895
10.6893	0.893
10.7274	0.893
10.7655	0.893
10.8037	0.892
10.8418	0.898
10.8799	0.901
10.9181	0.901
10.9562	0.901
10.9944	0.901
11.0325	0.901
11.0706	0.902
11.1088	0.902
11.1469	0.902
11.185	0.906
11.2232	0.906
11.2613	0.911
11.2995	0.912
11.3376	0.912
11.3757	0.911
11.4139	0.911
11.452	0.909
11.4901	0.911
11.5283	0.912
11.5664	0.912
11.6046	0.914
11.6427	0.914
11.6808	0.914
11.719	0.912
11.7571	0.914
11.7952	0.92
11.8334	0.92
11.8715	0.92
11.9096	0.918
11.9478	0.915
11.9859	0.917
12.0241	0.92
12.0622	0.921
12.1003	0.921
12.1385	0.924
12.1766	0.924
12.2147	0.924
12.2529	0.924
12.291	0.926
12.3292	0.926
12.3673	0.926
12.4054	0.926
12.4436	0.927
12.4817	0.926
12.5198	0.926
12.558	0.924
12.5961	0.915
12.6343	0.89
12.6724	0.816
12.7105	0.642
12.7487	0.509
12.7868	0.453
12.8249	0.618
12.8631	0.688
12.9012	0.623
12.9394	0.553
12.9775	0.716
13.0156	0.8
13.0538	0.84
13.0919	0.864
13.13	0.883
13.1682	0.895
13.2063	0.905
13.2444	0.911
13.2826	0.914
13.3207	0.915
13.3589	0.918
13.397	0.918
13.4351	0.918
13.4733	0.918
13.5114	0.918
13.5495	0.918
13.5877	0.918
13.6258	0.918
13.664	0.918
13.7021	0.918
13.7402	0.918
13.7784	0.918
13.8165	0.918
13.8546	0.918
13.8928	0.918
13.9309	0.918
13.9691	0.92
14.0072	0.92
14.0453	0.918
14.0835	0.917
14.1216	0.917
14.1597	0.914
14.1979	0.914
14.236	0.914
14.2742	0.911
14.3123	0.908
14.3504	0.908
14.3886	0.906
14.4267	0.903
14.4648	0.902
14.503	0.901
14.5411	0.898
14.5792	0.896
14.6174	0.893
14.6555	0.89
14.6937	0.886
14.7318	0.881
14.7699	0.877
14.8081	0.874
14.8462	0.872
14.8843	0.872
14.9225	0.872
14.9606	0.87
14.9988	0.87
15.0369	0.87
15.075	0.871
15.1132	0.87
15.1513	0.87
15.1894	0.868
15.2276	0.867
15.2657	0.865
15.3039	0.862
15.342	0.861
