Infrared Spectrum: ETHYLENETETRABORANE
Formula: C2 H12 B4
State: VAPOR AT 30 mmHg PRESSURE;
Class: COBLENTZ
Instrument: Not specified, most likely a prism, grating, or hybrid spectrometer.
Sampling: TRANSMISSION
Path length: 5 CM
Resolution: 4
Origin: KALLERY CHEMICAL COMPANY
MICROMETERS	TRANSMITTANCE
2.01	0.81
2.04486	0.812
2.07972	0.815
2.11458	0.817
2.14945	0.817
2.18431	0.819
2.21917	0.82
2.25403	0.822
2.28889	0.82
2.32375	0.819
2.35861	0.815
2.39348	0.81
2.42834	0.815
2.4632	0.82
2.49806	0.822
2.53292	0.822
2.56778	0.824
2.60265	0.827
2.63751	0.831
2.67237	0.834
2.70723	0.836
2.74209	0.838
2.77695	0.838
2.81181	0.839
2.84668	0.839
2.88154	0.839
2.9164	0.839
2.95126	0.839
2.98612	0.839
3.02098	0.838
3.05584	0.834
3.09071	0.833
3.12557	0.829
3.16043	0.826
3.19529	0.82
3.23015	0.817
3.26501	0.815
3.29988	0.815
3.33474	0.812
3.3696	0.672
3.40446	0.469
3.43932	0.413
3.47418	0.614
3.50904	0.719
3.54391	0.726
3.57877	0.79
3.61363	0.815
3.64849	0.824
3.68335	0.824
3.71821	0.826
3.75307	0.826
3.78794	0.82
3.8228	0.808
3.85766	0.449
3.89252	0.208
3.92738	0.253
3.96224	0.194
3.99711	0.29
4.03197	0.71
4.06683	0.784
4.10169	0.814
4.13655	0.814
4.17141	0.808
4.20627	0.803
4.24114	0.796
4.276	0.795
4.31086	0.8
4.34572	0.807
4.38058	0.826
4.41544	0.833
4.4503	0.827
4.48517	0.8
4.52003	0.779
4.55489	0.669
4.58975	0.461
4.62461	0.373
4.65947	0.456
4.69434	0.583
4.7292	0.678
4.76406	0.722
4.79892	0.733
4.83378	0.74
4.86864	0.769
4.9035	0.798
4.93837	0.808
4.97323	0.814
5.00809	0.819
5.04295	0.819
5.07781	0.819
5.11267	0.82
5.14753	0.82
5.1824	0.82
5.21726	0.819
5.25212	0.817
5.28698	0.817
5.32184	0.819
5.3567	0.824
5.39157	0.826
5.42643	0.827
5.46129	0.831
5.49615	0.833
5.53101	0.831
5.56587	0.827
5.60073	0.827
5.6356	0.827
5.67046	0.827
5.70532	0.827
5.74018	0.827
5.77504	0.826
5.8099	0.822
5.84476	0.819
5.87963	0.815
5.91449	0.815
5.94935	0.815
5.98421	0.814
6.01907	0.81
6.05393	0.808
6.08879	0.805
6.12366	0.8
6.15852	0.796
6.19338	0.788
6.22824	0.776
6.2631	0.753
6.29796	0.733
6.33283	0.722
6.36769	0.716
6.40255	0.709
6.43741	0.697
6.47227	0.678
6.50713	0.662
6.54199	0.664
6.57686	0.69
6.61172	0.734
6.64658	0.745
6.68144	0.753
6.7163	0.752
6.75116	0.745
6.78602	0.738
6.82089	0.726
6.85575	0.716
6.89061	0.709
6.92547	0.695
6.96033	0.667
6.99519	0.64
7.03006	0.619
7.06492	0.623
7.09978	0.631
7.13464	0.638
7.1695	0.638
7.20436	0.638
7.23922	0.64
7.27409	0.641
7.30895	0.647
7.34381	0.657
7.37867	0.676
7.41353	0.69
7.44839	0.703
7.48325	0.719
7.51812	0.726
7.55298	0.734
7.58784	0.74
7.6227	0.745
7.65756	0.746
7.69242	0.746
7.72729	0.748
7.76215	0.748
7.79701	0.752
7.83187	0.753
7.86673	0.759
7.90159	0.76
7.93645	0.764
7.97132	0.767
8.00618	0.771
8.04104	0.772
8.0759	0.774
8.11076	0.777
8.14562	0.781
8.18048	0.784
8.21535	0.786
8.25021	0.79
8.28507	0.791
8.31993	0.793
8.35479	0.793
8.38965	0.795
8.42452	0.795
8.45938	0.795
8.49424	0.795
8.5291	0.795
8.56396	0.795
8.59882	0.791
8.63368	0.79
8.66855	0.788
8.70341	0.784
8.73827	0.779
8.77313	0.774
8.80799	0.765
8.84285	0.752
8.87771	0.74
8.91258	0.726
8.94744	0.71
8.9823	0.691
9.01716	0.671
9.05202	0.636
9.08688	0.585
9.12175	0.528
9.15661	0.475
9.19147	0.413
9.22633	0.395
9.26119	0.378
9.29605	0.339
9.33091	0.311
9.36578	0.306
9.40064	0.296
9.4355	0.273
9.47036	0.258
9.50522	0.237
9.54008	0.239
9.57494	0.266
9.60981	0.297
9.64467	0.337
9.67953	0.401
9.71439	0.495
9.74925	0.588
9.78411	0.654
9.81897	0.709
9.85384	0.74
9.8887	0.762
9.92356	0.784
9.95842	0.795
9.99328	0.802
10.0281	0.808
10.063	0.81
10.0979	0.803
10.1327	0.783
10.1676	0.762
10.2025	0.734
10.2373	0.703
10.2722	0.691
10.307	0.678
10.3419	0.669
10.3768	0.667
10.4116	0.674
10.4465	0.69
10.4813	0.705
10.5162	0.722
10.5511	0.74
10.5859	0.757
10.6208	0.769
10.6557	0.781
10.6905	0.784
10.7254	0.784
10.7602	0.784
10.7951	0.784
10.83	0.783
10.8648	0.779
10.8997	0.776
10.9345	0.767
10.9694	0.755
11.0043	0.736
11.0391	0.71
11.074	0.681
11.1089	0.647
11.1437	0.607
11.1786	0.566
11.2134	0.526
11.2483	0.499
11.2832	0.48
11.318	0.447
11.3529	0.416
11.3877	0.414
11.4226	0.428
11.4575	0.456
11.4923	0.476
11.5272	0.495
11.562	0.514
11.5969	0.54
11.6318	0.592
11.6666	0.645
11.7015	0.671
11.7364	0.685
11.7712	0.705
11.8061	0.717
11.8409	0.729
11.8758	0.736
11.9107	0.743
11.9455	0.748
11.9804	0.752
12.0152	0.753
12.0501	0.753
12.085	0.753
12.1198	0.753
12.1547	0.753
12.1896	0.755
12.2244	0.755
12.2593	0.755
12.2941	0.755
12.329	0.759
12.3639	0.76
12.3987	0.765
12.4336	0.772
12.4684	0.781
12.5033	0.788
12.5382	0.796
12.573	0.802
12.6079	0.808
12.6428	0.812
12.6776	0.819
12.7125	0.826
12.7473	0.829
12.7822	0.833
12.8171	0.838
12.8519	0.836
12.8868	0.836
12.9216	0.836
12.9565	0.836
12.9914	0.834
13.0262	0.833
13.0611	0.831
13.096	0.827
13.1308	0.826
13.1657	0.82
13.2005	0.815
13.2354	0.814
13.2703	0.81
13.3051	0.807
13.34	0.798
13.3748	0.791
13.4097	0.781
13.4446	0.765
13.4794	0.748
13.5143	0.74
13.5492	0.728
13.584	0.714
13.6189	0.702
13.6537	0.693
13.6886	0.685
13.7235	0.681
13.7583	0.676
13.7932	0.674
13.828	0.672
13.8629	0.671
13.8978	0.671
13.9326	0.671
13.9675	0.672
14.0024	0.674
14.0372	0.679
14.0721	0.686
14.1069	0.691
14.1418	0.702
14.1767	0.71
14.2115	0.712
14.2464	0.717
14.2812	0.724
14.3161	0.733
14.351	0.741
14.3858	0.75
14.4207	0.759
14.4556	0.771
14.4904	0.779
14.5253	0.788
14.5601	0.795
14.595	0.802
14.6299	0.807
14.6647	0.81
14.6996	0.814
14.7344	0.817
14.7693	0.82
14.8042	0.822
14.839	0.824
14.8739	0.822
14.9088	0.82
14.9436	0.819
14.9785	0.819
15.0133	0.819
15.0482	0.819
15.0831	0.82
15.1179	0.82
15.1528	0.82
15.1876	0.82
15.2225	0.82
15.2574	0.819
15.2922	0.819
15.3271	0.819
15.362	0.817
15.3968	0.815
15.4317	0.812
15.4665	0.808
15.5014	0.803
15.5363	0.8
15.5711	0.796
15.606	0.795
