Infrared Spectrum: 1-METHYL-4-NITRO-5-(o-ACETAMIDOPHENYLSULFINYL)IMIDAZOLE
Formula: C12 H12 N4 O4 S
State: SOLID (1.1 mg / 650 mg KBr DISC) VS. ONE NaCl WINDOW
Class: COBLENTZ III
Instrument: PERKIN-ELMER 21 (GRATING)
Instrument parameters: FILTER CHANGE ABOUT 1070 CM^-^1
Sampling: TRANSMISSION
Resolution: 2
Origin: SOUTHERN RESEARCH INSTITUTE
1/CM	TRANSMITTANCE
623.115	0.651
632.181	0.6521
641.248	0.6585
650.314	0.6956
659.38	0.9566
668.446	1.014
677.513	1.0121
686.579	0.9473
695.645	0.9697
704.712	0.9595
713.778	0.9547
722.844	0.9567
731.911	0.9375
740.977	0.9033
750.043	0.8548
759.109	0.4925
768.176	0.5557
777.242	0.7426
786.308	0.9366
795.375	0.9191
804.441	0.9002
813.507	0.8565
822.573	0.7162
831.64	0.4731
840.706	0.9002
849.772	0.8919
858.839	0.8516
867.905	0.8731
876.971	0.8891
886.038	0.8787
895.104	0.9156
904.17	0.9315
913.236	0.9283
922.303	0.9207
931.369	0.9075
940.435	0.8919
949.502	0.8742
958.568	0.8511
967.634	0.8615
976.7	0.8555
985.767	0.8226
994.833	0.777
1003.9	0.6148
1012.97	0.6655
1022.03	0.6606
1031.1	0.4725
1040.16	0.5179
1049.23	0.6937
1058.3	0.5099
1067.36	0.4416
1076.43	0.2978
1085.5	0.5299
1094.56	0.8286
1103.63	0.8177
1112.69	0.7354
1121.76	0.6214
1130.83	0.7652
1139.89	0.801
1148.96	0.7849
1158.03	0.71
1167.09	0.6461
1176.16	0.7806
1185.23	0.7819
1194.29	0.7618
1203.36	0.7366
1212.42	0.6783
1221.49	0.4295
1230.56	0.5185
1239.62	0.6389
1248.69	0.5928
1257.76	0.6158
1266.82	0.6097
1275.89	0.4653
1284.95	0.2082
1294.02	0.1588
1303.09	0.1347
1312.15	0.3433
1321.22	0.7029
1330.29	0.7219
1339.35	0.6361
1348.42	0.4869
1357.48	0.3724
1366.55	0.297
1375.62	0.3244
1384.68	0.6851
1393.75	0.6936
1402.82	0.6474
1411.88	0.5077
1420.95	0.3378
1430.02	0.2793
1439.08	0.3493
1448.15	0.3924
1457.21	0.2805
1466.28	0.3697
1475.35	0.3191
1484.41	0.227
1493.48	0.1923
1502.55	0.2643
1511.61	0.118
1520.68	0.0746
1529.74	0.1681
1538.81	0.4949
1547.88	0.6228
1556.94	0.7243
1566.01	0.6957
1575.08	0.3901
1584.14	0.3984
1593.21	0.694
1602.27	0.791
1611.34	0.7648
1620.41	0.7242
1629.47	0.6665
1638.54	0.5669
1647.61	0.4995
1656.67	0.322
1665.74	0.1122
1674.81	0.2986
1683.87	0.5262
1692.94	0.6989
1702	0.7561
1711.07	0.8715
1720.14	0.9051
1729.2	0.9225
1738.27	0.9369
1747.34	0.9434
1756.4	0.9455
1765.47	0.9504
1774.53	0.9559
1783.6	0.9558
1792.67	0.9605
1801.73	0.9673
1810.8	0.9744
1819.87	0.9807
1828.93	0.9801
1838	0.979
1847.06	0.9775
1856.13	0.9759
1865.2	0.9735
1874.26	0.9704
1883.33	0.9672
1892.4	0.9658
1901.46	0.9674
1910.53	0.9686
1919.6	0.9623
1928.66	0.957
1937.73	0.9545
1946.79	0.9545
1955.86	0.9539
1964.93	0.9534
1973.99	0.9567
1983.06	0.958
1992.13	0.9573
2001.19	0.9557
2010.26	0.9526
2019.32	0.95
2028.39	0.9496
2037.46	0.9465
2046.52	0.9431
2055.59	0.9394
2064.66	0.936
2073.72	0.9355
2082.79	0.9335
2091.85	0.929
2100.92	0.9278
2109.99	0.9251
2119.05	0.9202
2128.12	0.9188
2137.19	0.9188
2146.25	0.9193
2155.32	0.9204
2164.38	0.9206
2173.45	0.9182
2182.52	0.9154
2191.58	0.9118
2200.65	0.9079
2209.72	0.9047
2218.78	0.9025
2227.85	0.9003
2236.92	0.8981
2245.98	0.8959
2255.05	0.8936
2264.11	0.8914
2273.18	0.889
2282.25	0.8856
2291.31	0.8826
2300.38	0.8792
2309.45	0.8748
2318.51	0.8719
2327.58	0.8697
2336.64	0.8674
2345.71	0.8645
2354.78	0.8649
2363.84	0.8696
2372.91	0.8686
2381.98	0.863
2391.04	0.8524
2400.11	0.848
2409.17	0.8468
2418.24	0.8462
2427.31	0.8468
2436.37	0.8469
2445.44	0.8465
2454.51	0.8401
2463.57	0.839
2472.64	0.8381
2481.71	0.8359
2490.77	0.8327
2499.84	0.8313
2508.9	0.8301
2517.97	0.8274
2527.04	0.8242
2536.1	0.8208
2545.17	0.8176
2554.24	0.8144
2563.3	0.8122
2572.37	0.8119
2581.43	0.8117
2590.5	0.8117
2599.57	0.8117
2608.63	0.8114
2617.7	0.8106
2626.77	0.8084
2635.83	0.805
2644.9	0.8012
2653.96	0.7958
2663.03	0.7905
2672.1	0.785
2681.16	0.78
2690.23	0.7753
2699.3	0.7707
2708.36	0.7658
2717.43	0.76
2726.5	0.7558
2735.56	0.7522
2744.63	0.7519
2753.69	0.7533
2762.76	0.7539
2771.83	0.7525
2780.89	0.7515
2789.96	0.7504
2799.03	0.7486
2808.09	0.7462
2817.16	0.7437
2826.22	0.7409
2835.29	0.7377
2844.36	0.7336
2853.42	0.7289
2862.49	0.7226
2871.56	0.7149
2880.62	0.7086
2889.69	0.7032
2898.75	0.6995
2907.82	0.6961
2916.89	0.6871
2925.95	0.6784
2935.02	0.6755
2944.09	0.6749
2953.15	0.6736
2962.22	0.6725
2971.29	0.6674
2980.35	0.6599
2989.42	0.6518
2998.48	0.6442
3007.55	0.6372
3016.62	0.6313
3025.68	0.627
3034.75	0.6243
3043.82	0.6188
3052.88	0.6054
3061.95	0.587
3071.01	0.5668
3080.08	0.5447
3089.15	0.5703
3098.21	0.6052
3107.28	0.6401
3116.35	0.6368
3125.41	0.6262
3134.48	0.6149
3143.54	0.6058
3152.61	0.5975
3161.68	0.5896
3170.74	0.583
3179.81	0.5705
3188.88	0.5445
3197.94	0.5199
3207.01	0.4898
3216.08	0.447
3225.14	0.4208
3234.21	0.402
3243.27	0.3871
3252.34	0.3839
3261.41	0.3989
3270.47	0.4265
3279.54	0.4735
3288.61	0.5215
3297.67	0.5584
3306.74	0.585
3315.8	0.6073
3324.87	0.6269
3333.94	0.6416
3343	0.6468
3352.07	0.648
3361.14	0.6479
3370.2	0.6475
3379.27	0.6467
3388.33	0.6482
3397.4	0.6491
3406.47	0.6494
3415.53	0.6511
3424.6	0.6536
3433.67	0.6567
3442.73	0.6611
3451.8	0.6656
3460.87	0.67
3469.93	0.6744
3479	0.6784
3488.06	0.6821
3497.13	0.6862
3506.2	0.691
3515.26	0.6948
3524.33	0.6984
3533.4	0.7007
3542.46	0.7025
3551.53	0.7045
3560.59	0.7078
3569.66	0.709
3578.73	0.7102
3587.79	0.7108
3596.86	0.711
3605.93	0.7111
3614.99	0.711
3624.06	0.7104
3633.12	0.71
3642.19	0.7098
3651.26	0.7097
3660.32	0.7096
3669.39	0.7096
3678.46	0.7095
3687.52	0.7091
3696.59	0.7086
3705.65	0.7081
3714.72	0.7077
3723.79	0.7049
3732.85	0.7019
3741.92	0.702
3750.99	0.7028
3760.05	0.7033
3769.12	0.7036
3778.19	0.7001
3787.25	0.6961
3796.32	0.6948
3805.38	0.6941
3814.45	0.6944
3823.52	0.6947
3832.58	0.6949
3841.65	0.6952
3850.72	0.6955
3859.78	0.6957
3868.85	0.6961
3877.91	0.6964
3886.98	0.6968
3896.05	0.6972
3905.11	0.6974
3914.18	0.6974
3923.25	0.6975
3932.31	0.6975
3941.38	0.6972
3950.44	0.6969
3959.51	0.6967
3968.58	0.6965
3977.64	0.6961
3986.71	0.6958
3995.78	0.6954
4004.84	0.6962
4013.91	0.6979
4022.98	0.7051
