Infrared Spectrum: m-SULFOBENZOIC ACID, S-SODIUM SALT
Formula: C7 H5 Na O5 S
State: SOLID (SPLIT MULL)
Class: COBLENTZ III
Instrument: DOW KBr FOREPRISM-GRATING
Instrument parameters: GRATING BLAZED AT 3.5, 12.0, 20.0 MICRONS AND CHANGED AT 5.0, 7.5, 14.9 MICRONS
Sampling: TRANSMISSION
Resolution: 4
Origin: DOW CHEMICAL COMPANY
1/CM	TRANSMITTANCE
379.825	0.991
388.597	0.991
397.369	0.988
406.141	0.991
414.913	1.006
423.685	1.049
432.457	1.066
441.229	1.074
450.001	1.073
458.773	1.059
467.545	1.041
476.317	1.027
485.088	0.99
493.86	0.932
502.632	0.987
511.404	1.017
520.176	1.004
528.948	0.984
537.72	0.918
546.492	0.819
555.264	0.855
564.036	0.535
572.808	0.738
581.58	0.71
590.352	0.741
599.124	0.931
607.896	0.5339
616.668	0.254
625.44	0.0501
634.212	0.957
642.984	1.008
651.756	0.954
660.528	0.2129
669.3	0.95
678.071	0.858
686.843	0.3269
695.615	0.931
704.387	1.013
713.159	0.954
721.931	0.779
730.703	0.7239
739.475	0.628
748.247	0.924
757.019	0.4459
765.791	0.8761
774.563	1
783.335	1.023
792.107	1.028
800.879	1.019
809.651	1
818.423	0.957
827.195	0.7739
835.967	0.8551
844.739	0.943
853.511	0.797
862.283	0.943
871.054	0.995
879.826	0.98
888.598	0.939
897.37	0.907
906.142	0.829
914.914	0.702
923.686	0.622
932.458	0.461
941.23	0.763
950.002	0.6509
958.774	0.707
967.546	0.82
976.318	0.891
985.09	0.914
993.862	0.7599
1002.63	0.907
1011.41	0.876
1020.18	0.891
1028.95	0.783
1037.72	0.3359
1046.49	0.0161
1055.27	0.7971
1064.04	0.947
1072.81	0.909
1081.58	0.6029
1090.35	0.4613
1099.13	0.2629
1107.9	0.4153
1116.67	0.834
1125.44	0.856
1134.21	0.797
1142.99	0.5819
1151.76	0.2159
1160.53	0.1391
1169.3	0.308
1178.07	0.2679
1186.84	0.045
1195.62	0.011
1204.39	0.238
1213.16	0.2049
1221.93	0.011
1230.7	0.013
1239.48	0.2021
1248.25	0.46
1257.02	0.447
1265.79	0.497
1274.56	0.393
1283.34	0.621
1292.11	0.5229
1300.88	0.2009
1309.65	0.162
1318.42	0.242
1327.2	0.4401
1335.97	0.707
1344.74	0.721
1353.51	0.82
1362.28	0.903
1371.06	0.907
1379.83	0.888
1388.6	0.845
1397.37	0.772
1406.14	0.5639
1414.92	0.52
1423.69	0.696
1432.46	0.72
1441.23	0.6259
1450	0.4712
1458.78	0.8081
1467.55	0.932
1476.32	0.9
1485.09	0.932
1493.86	0.986
1502.64	0.993
1511.41	0.994
1520.18	0.982
1528.95	0.976
1537.72	0.984
1546.5	0.977
1555.27	0.968
1564.04	0.943
1572.81	0.889
1581.58	0.707
1590.35	0.848
1599.13	0.8139
1607.9	0.6301
1616.67	0.918
1625.44	0.899
1634.21	0.867
1642.99	0.814
1651.76	0.738
1660.53	0.6439
1669.3	0.4979
1678.07	0.1469
1686.85	0.0819
1695.62	0.159
1704.39	0.2191
1713.16	0.4501
1721.93	0.7201
1730.71	0.889
1739.48	0.938
1748.25	0.972
1757.02	0.972
1765.79	0.965
1774.57	0.953
1783.34	0.953
1792.11	0.947
1800.88	0.949
1809.65	0.943
1818.43	0.939
1827.2	0.947
1835.97	0.95
1844.74	0.939
1853.51	0.94
1862.29	0.942
1871.06	0.933
1879.83	0.935
1888.6	0.936
1897.37	0.932
1906.15	0.933
1914.92	0.936
1923.69	0.926
1932.46	0.924
1941.23	0.92
1950	0.915
1958.78	0.926
1967.55	0.928
1976.32	0.922
1985.09	0.91
1993.86	0.909
2002.64	0.9335
2011.41	0.938
2020.18	0.938
2028.95	0.937
2037.72	0.936
2046.5	0.938
2055.27	0.938
2064.04	0.935
2072.81	0.9325
2081.58	0.926
2090.36	0.925
2099.13	0.924
2107.9	0.9144
2116.67	0.904
2125.44	0.8984
2134.22	0.8844
2142.99	0.8814
2151.76	0.8804
2160.53	0.881
2169.3	0.8718
2178.08	0.8602
2186.85	0.852
2195.62	0.852
2204.39	0.8516
2213.16	0.8554
2221.94	0.8451
2230.71	0.8374
2239.48	0.83
2248.25	0.8167
2257.02	0.81
2265.8	0.801
2274.57	0.7973
2283.34	0.794
2292.11	0.7893
2300.88	0.7829
2309.66	0.779
2318.43	0.782
2327.2	0.7857
2335.97	0.7869
2344.74	0.7863
2353.51	0.786
2362.29	0.789
2371.06	0.7793
2379.83	0.7651
2388.6	0.76
2397.37	0.758
2406.15	0.7562
2414.92	0.7507
2423.69	0.7382
2432.46	0.735
2441.23	0.7312
2450.01	0.724
2458.78	0.7174
2467.55	0.7104
2476.32	0.7034
2485.09	0.6852
2493.87	0.675
2502.64	0.6561
2511.41	0.6362
2520.18	0.6114
2528.95	0.5818
2537.73	0.5527
2546.5	0.5338
2555.27	0.5173
2564.04	0.5338
2572.81	0.5804
2581.59	0.6213
2590.36	0.634
2599.13	0.6186
2607.9	0.6062
2616.67	0.6067
2625.45	0.6003
2634.22	0.5882
2642.99	0.5676
2651.76	0.5463
2660.53	0.5262
2669.31	0.512
2678.08	0.5264
2686.85	0.5707
2695.62	0.6037
2704.39	0.6246
2713.17	0.6368
2721.94	0.639
2730.71	0.636
2739.48	0.633
2748.25	0.6261
2757.02	0.6211
2765.8	0.607
2774.57	0.5851
2783.34	0.5671
2792.11	0.548
2800.88	0.517
2809.66	0.495
2818.43	0.487
2827.2	0.484
2835.97	0.4789
2844.74	0.455
2853.52	0.46
2862.29	0.46
2871.06	0.4568
2879.83	0.4469
2888.6	0.447
2897.38	0.4501
2906.15	0.4641
2914.92	0.4724
2923.69	0.4913
2932.46	0.5066
2941.24	0.5107
2950.01	0.4856
2958.78	0.4707
2967.55	0.46
2976.32	0.4641
2985.1	0.466
2993.87	0.4615
3002.64	0.447
3011.41	0.447
3020.18	0.4548
3028.96	0.4734
3037.73	0.4914
3046.5	0.5037
3055.27	0.4967
3064.04	0.493
3072.82	0.5002
3081.59	0.5033
3090.36	0.4926
3099.13	0.5309
3107.9	0.578
3116.68	0.6038
3125.45	0.629
3134.22	0.6486
3142.99	0.6629
3151.76	0.6779
3160.53	0.6959
3169.31	0.7107
3178.08	0.7247
3186.85	0.7435
3195.62	0.7617
3204.39	0.7797
3213.17	0.7965
3221.94	0.8048
3230.71	0.8145
3239.48	0.8281
3248.25	0.8413
3257.03	0.855
3265.8	0.8656
3274.57	0.8815
3283.34	0.8936
3292.11	0.899
3300.89	0.906
3309.66	0.913
3318.43	0.9143
3327.2	0.918
3335.97	0.9303
3344.75	0.94
3353.52	0.94
3362.29	0.9423
3371.06	0.943
3379.83	0.9447
3388.61	0.9453
3397.38	0.946
3406.15	0.947
3414.92	0.9452
3423.69	0.9408
3432.47	0.938
3441.24	0.936
3450.01	0.9342
3458.78	0.9302
3467.55	0.926
3476.33	0.9284
3485.1	0.9286
3493.87	0.926
3502.64	0.9246
3511.41	0.922
3520.18	0.922
3528.96	0.925
3537.73	0.9269
3546.5	0.9299
3555.27	0.9325
3564.04	0.9355
3572.82	0.938
3581.59	0.94
3590.36	0.944
3599.13	0.943
3607.9	0.947
3616.68	0.944
3625.45	0.942
3634.22	0.944
3642.99	0.95
3651.76	0.955
3660.54	0.9545
3669.31	0.951
3678.08	0.95
3686.85	0.951
3695.62	0.954
3704.4	0.957
3713.17	0.955
3721.94	0.953
3730.71	0.953
3739.48	0.9494
3748.26	0.944
3757.03	0.943
3765.8	0.943
3774.57	0.9436
3783.34	0.946
3792.12	0.946
