Infrared Spectrum: 1,2-Benzenedioic acid, decyl isooctyl ester
Formula: C26 H42 O4
State: SOLUTION (10% CCl4 FOR 2.7-7.5, CS2 FOR 7.5-26 MICRON) VS SOLVENT
Class: COBLENTZ
Instrument: DOW KBr FOREPRISM-GRATING
Instrument parameters: BLAZED AT 3.5, 12.0, 20.0 MICRON AND CHANGED AT 5.0, 7.5, 14.9 MICRON
Sampling: TRANSMISSION
Path length: 0.011 CM, 0.011 CM
Resolution: 2
Origin: DOW CHEMICAL COMPANY
1/CM	TRANSMITTANCE
3792	0.8625
3783	0.8618
3774	0.861
3765	0.8602
3756	0.8597
3747	0.8592
3738	0.8591
3729	0.8591
3720	0.8594
3711	0.8599
3702	0.8611
3693	0.8624
3684	0.864
3675	0.8644
3666	0.8628
3657	0.8615
3648	0.862
3639	0.863
3630	0.8641
3621	0.8654
3612	0.8668
3603	0.8681
3594	0.8695
3585	0.8707
3576	0.872
3567	0.8731
3558	0.8742
3549	0.8753
3540	0.8764
3531	0.8775
3522	0.8789
3513	0.8806
3504	0.8823
3495	0.8837
3486	0.8849
3477	0.8855
3468	0.8856
3459	0.8856
3450	0.8832
3441	0.875
3432	0.8686
3423	0.8655
3414	0.8668
3405	0.8743
3396	0.882
3387	0.887
3378	0.8902
3369	0.8923
3360	0.8938
3351	0.8952
3342	0.8961
3333	0.897
3324	0.8978
3315	0.8982
3306	0.8986
3297	0.8988
3288	0.8991
3279	0.8993
3270	0.8996
3261	0.8991
3252	0.8987
3243	0.8978
3234	0.897
3225	0.8962
3216	0.8943
3207	0.8912
3198	0.8875
3189	0.8837
3180	0.8805
3171	0.8788
3162	0.8785
3153	0.8786
3144	0.8791
3135	0.8796
3126	0.8794
3117	0.8786
3108	0.8773
3099	0.8752
3090	0.8721
3081	0.8668
3072	0.8325
3063	0.7875
3054	0.7981
3045	0.8165
3036	0.8268
3027	0.8271
3018	0.8158
3009	0.8055
3000	0.7704
2991	0.6696
2982	0.4445
2973	0.2194
2964	0.0349
2955	0.0233
2946	0.0524
2937	0.1031
2928	0.0924
2919	0.0805
2910	0.1119
2901	0.1484
2892	0.2043
2883	0.2707
2874	0.2289
2865	0.1818
2856	0.2632
2847	0.3548
2838	0.481
2829	0.6129
2820	0.7031
2811	0.7542
2802	0.7791
2793	0.8015
2784	0.8194
2775	0.8308
2766	0.8355
2757	0.8378
2748	0.8384
2739	0.8387
2730	0.8353
2721	0.8298
2712	0.8303
2703	0.8361
2694	0.8438
2685	0.8484
2676	0.8508
2667	0.853
2658	0.8551
2649	0.8564
2640	0.8574
2631	0.8581
2622	0.8587
2613	0.8585
2604	0.8568
2595	0.8558
2586	0.8564
2577	0.8577
2568	0.8594
2559	0.8624
2550	0.8656
2541	0.867
2532	0.8677
2523	0.8687
2514	0.8704
2505	0.8723
2496	0.8747
2487	0.8766
2478	0.8782
2469	0.8787
2460	0.8792
2451	0.8793
2442	0.8792
2433	0.878
2424	0.8753
2415	0.8725
2406	0.8725
2397	0.8728
2388	0.8733
2379	0.8737
2370	0.8739
2361	0.8738
2352	0.8735
2343	0.8731
2334	0.8728
2325	0.8718
2316	0.8713
2307	0.8709
2298	0.8709
2289	0.8708
2280	0.871
2271	0.8714
2262	0.8718
2253	0.8724
2244	0.8728
2235	0.8736
2226	0.8749
2217	0.8754
2208	0.8762
2199	0.8773
2190	0.8786
2181	0.8844
2172	0.887
2163	0.8806
2154	0.8792
2145	0.8781
2136	0.8771
2127	0.8767
2118	0.8765
2109	0.8775
2100	0.8785
2091	0.879
2082	0.8796
2073	0.8803
2064	0.881
2055	0.8817
2046	0.8824
2037	0.8828
2028	0.8827
2019	0.8823
2010	0.8821
2001	0.8823
1992	0.8805
1983	0.879
1974	0.8784
1965	0.8639
1956	0.8715
1947	0.8718
1938	0.8566
1929	0.8621
1920	0.8678
1911	0.8693
1902	0.8709
1893	0.8725
1884	0.8736
1875	0.8728
1866	0.8693
1857	0.8653
1848	0.8681
1839	0.8564
1830	0.8499
1821	0.8508
1812	0.8512
1803	0.8478
1794	0.8412
1785	0.8304
1776	0.8093
1767	0.7725
1758	0.7215
1749	0.533
1740	0.1508
1731	0.0123
1722	0.0078
1713	0.1172
1704	0.5102
1695	0.6428
1686	0.6864
1677	0.7436
1668	0.7847
1659	0.8041
1650	0.8144
1641	0.8223
1632	0.8278
1623	0.8317
1614	0.8344
1605	0.8202
1596	0.7168
1587	0.7969
1578	0.6831
1569	0.8151
1560	0.8484
1551	0.8588
1542	0.8625
1533	0.8513
1524	0.8402
1515	0.8366
1506	0.824
1497	0.7875
1488	0.6421
1479	0.5397
1470	0.2643
1461	0.2819
1452	0.4044
1443	0.6432
1434	0.6961
1425	0.7705
1416	0.7775
1407	0.7701
1398	0.6711
1389	0.3912
1380	0.4162
1371	0.5277
1362	0.6189
1353	0.6607
1344	0.6651
1335	0.6521
1326	0.605
1317	0.4737
1308	0.3022
1299	0.1583
1290	0.0264
1281	0.0105
1272	0.0096
1263	0.0154
1254	0.0606
1245	0.2804
1236	0.4715
1227	0.604
1218	0.6696
1209	0.7094
1200	0.7375
1191	0.7583
1182	0.7645
1173	0.7485
1164	0.6691
1155	0.5839
1146	0.3905
1137	0.1399
1128	0.098
1119	0.0733
1110	0.3712
1101	0.5978
1092	0.6357
1083	0.4293
1074	0.1479
1065	0.2374
1056	0.5293
1047	0.6293
1038	0.4359
1029	0.7101
1020	0.7514
1011	0.7657
1002	0.7671
993	0.7558
984	0.7306
975	0.6578
966	0.5996
957	0.5935
948	0.6501
939	0.7221
930	0.7718
921	0.7981
912	0.8074
903	0.8241
894	0.8325
885	0.8303
876	0.822
867	0.822
858	0.8278
849	0.8389
840	0.8341
831	0.8296
822	0.8328
813	0.8321
804	0.8247
795	0.7551
786	0.7298
777	0.7178
768	0.7018
759	0.6701
750	0.4783
741	0.2773
732	0.5948
723	0.7525
714	0.7658
705	0.545
696	0.6951
687	0.818
678	0.8693
669	0.882
660	0.8967
651	0.7884
642	0.8431
633	0.8799
624	0.8815
615	0.8738
606	0.866
597	0.8663
588	0.8631
579	0.8357
570	0.821
561	0.8266
552	0.8364
543	0.8425
534	0.8428
525	0.8423
516	0.8418
507	0.8445
498	0.8482
489	0.849
480	0.8467
471	0.8455
462	0.8451
453	0.845
444	0.845
435	0.8441
426	0.8439
417	0.845
408	0.8481
399	0.8515
