Infrared Spectrum: MONOCHLORODECABORANE
Formula: B10 H13 Cl
State: SOLID (KBr PELLET)
Class: COBLENTZ
Instrument: Not specified, most likely a prism, grating, or hybrid spectrometer.
Sampling: TRANSMISSION
Resolution: 4
Origin: KALLERY CHEMICAL COMPANY
MICROMETERS	TRANSMITTANCE
2.034	0.794
2.06778	0.793
2.10157	0.788
2.13535	0.783
2.16914	0.783
2.20292	0.783
2.2367	0.781
2.27049	0.781
2.30427	0.783
2.33806	0.784
2.37184	0.784
2.40562	0.788
2.43941	0.789
2.47319	0.786
2.50698	0.786
2.54076	0.784
2.57454	0.786
2.60833	0.788
2.64211	0.788
2.6759	0.789
2.70968	0.788
2.74346	0.783
2.77725	0.771
2.81103	0.739
2.84482	0.707
2.8786	0.672
2.91238	0.662
2.94617	0.662
2.97995	0.668
3.01374	0.687
3.04752	0.702
3.0813	0.719
3.11509	0.732
3.14887	0.747
3.18266	0.761
3.21644	0.781
3.25022	0.789
3.28401	0.796
3.31779	0.8
3.35158	0.8
3.38536	0.798
3.41914	0.801
3.45293	0.808
3.48671	0.815
3.5205	0.826
3.55428	0.842
3.58806	0.852
3.62185	0.867
3.65563	0.878
3.68942	0.892
3.7232	0.912
3.75698	0.922
3.79077	0.892
3.82455	0.477
3.85834	0.326
3.89212	0.294
3.9259	0.381
3.95969	0.458
3.99347	0.526
4.02726	0.62
4.06104	0.66
4.09482	0.687
4.12861	0.695
4.16239	0.705
4.19618	0.714
4.22996	0.714
4.26374	0.717
4.29753	0.722
4.33131	0.727
4.3651	0.732
4.39888	0.739
4.43266	0.746
4.46645	0.752
4.50023	0.757
4.53402	0.764
4.5678	0.769
4.60158	0.774
4.63537	0.781
4.66915	0.786
4.70294	0.791
4.73672	0.794
4.7705	0.798
4.80429	0.8
4.83807	0.805
4.87186	0.806
4.90564	0.81
4.93942	0.811
4.97321	0.815
5.00699	0.816
5.04078	0.816
5.07456	0.813
5.10834	0.806
5.14213	0.794
5.17591	0.784
5.2097	0.771
5.24348	0.739
5.27726	0.731
5.31105	0.736
5.34483	0.749
5.37862	0.756
5.4124	0.768
5.44618	0.778
5.47997	0.781
5.51375	0.784
5.54754	0.788
5.58132	0.789
5.6151	0.794
5.64889	0.798
5.68267	0.801
5.71646	0.806
5.75024	0.808
5.78402	0.81
5.81781	0.81
5.85159	0.811
5.88538	0.811
5.91916	0.81
5.95294	0.806
5.98673	0.801
6.02051	0.796
6.0543	0.794
6.08808	0.793
6.12186	0.791
6.15565	0.791
6.18943	0.791
6.22322	0.789
6.257	0.776
6.29078	0.746
6.32457	0.695
6.35835	0.682
6.39214	0.675
6.42592	0.657
6.4597	0.63
6.49349	0.591
6.52727	0.546
6.56106	0.478
6.59484	0.423
6.62862	0.42
6.66241	0.455
6.69619	0.487
6.72998	0.495
6.76376	0.505
6.79754	0.509
6.83133	0.517
6.86511	0.537
6.8989	0.571
6.93268	0.6
6.96646	0.605
7.00025	0.621
7.03403	0.636
7.06782	0.658
7.1016	0.668
7.13538	0.678
7.16917	0.684
7.20295	0.689
7.23674	0.692
7.27052	0.695
7.3043	0.702
7.33809	0.704
7.37187	0.707
7.40566	0.71
7.43944	0.712
7.47322	0.715
7.50701	0.721
7.54079	0.724
7.57458	0.729
7.60836	0.731
7.64214	0.734
7.67593	0.739
7.70971	0.741
7.74349	0.744
7.77728	0.747
7.81106	0.749
7.84485	0.749
7.87863	0.747
7.91241	0.746
7.9462	0.747
7.97998	0.752
8.01377	0.756
8.04755	0.757
8.08133	0.766
8.11512	0.773
8.1489	0.783
8.18269	0.786
8.21647	0.786
8.25025	0.784
8.28404	0.783
8.31782	0.784
8.35161	0.786
8.38539	0.789
8.41917	0.789
8.45296	0.791
8.48674	0.794
8.52053	0.794
8.55431	0.794
8.58809	0.796
8.62188	0.798
8.65566	0.801
8.68945	0.806
8.72323	0.813
8.75701	0.82
8.7908	0.82
8.82458	0.82
8.85837	0.821
8.89215	0.821
8.92593	0.821
8.95972	0.816
8.9935	0.81
9.02729	0.793
9.06107	0.789
9.09485	0.788
9.12864	0.791
9.16242	0.794
9.19621	0.794
9.22999	0.798
9.26377	0.801
9.29756	0.806
9.33134	0.798
9.36513	0.771
9.39891	0.717
9.43269	0.695
9.46648	0.628
9.50026	0.557
9.53405	0.547
9.56783	0.566
9.60161	0.594
9.6354	0.63
9.66918	0.672
9.70297	0.699
9.73675	0.717
9.77053	0.732
9.80432	0.746
9.8381	0.751
9.87189	0.731
9.90567	0.692
9.93945	0.643
9.97324	0.615
10.007	0.647
10.0408	0.702
10.0746	0.756
10.1084	0.805
10.1422	0.826
10.1759	0.833
10.2097	0.828
10.2435	0.811
10.2773	0.773
10.3111	0.668
10.3449	0.594
10.3786	0.526
10.4124	0.47
10.4462	0.436
10.48	0.426
10.5138	0.443
10.5476	0.521
10.5814	0.685
10.6151	0.737
10.6489	0.744
10.6827	0.677
10.7165	0.544
10.7503	0.418
10.7841	0.346
10.8178	0.322
10.8516	0.329
10.8854	0.356
10.9192	0.373
10.953	0.379
10.9868	0.383
11.0205	0.388
11.0543	0.421
11.0881	0.44
11.1219	0.436
11.1557	0.418
11.1895	0.374
11.2232	0.359
11.257	0.368
11.2908	0.413
11.3246	0.458
11.3584	0.472
11.3922	0.475
11.426	0.475
11.4597	0.445
11.4935	0.423
11.5273	0.423
11.5611	0.473
11.5949	0.517
11.6287	0.564
11.6624	0.591
11.6962	0.618
11.73	0.636
11.7638	0.647
11.7976	0.65
11.8314	0.65
11.8651	0.648
11.8989	0.64
11.9327	0.636
11.9665	0.635
12.0003	0.62
12.0341	0.564
12.0678	0.522
12.1016	0.447
12.1354	0.396
12.1692	0.398
12.203	0.447
12.2368	0.526
12.2706	0.564
12.3043	0.578
12.3381	0.571
12.3719	0.549
12.4057	0.489
12.4395	0.371
12.4733	0.315
12.507	0.277
12.5408	0.272
12.5746	0.287
12.6084	0.317
12.6422	0.379
12.676	0.428
12.7097	0.46
12.7435	0.502
12.7773	0.539
12.8111	0.561
12.8449	0.573
12.8787	0.584
12.9124	0.593
12.9462	0.598
12.98	0.6
13.0138	0.596
13.0476	0.573
13.0814	0.547
13.1152	0.517
13.1489	0.487
13.1827	0.453
13.2165	0.428
13.2503	0.428
13.2841	0.458
13.3179	0.492
13.3516	0.515
13.3854	0.534
13.4192	0.541
13.453	0.549
13.4868	0.564
13.5206	0.581
13.5543	0.584
13.5881	0.578
13.6219	0.566
13.6557	0.556
13.6895	0.549
13.7233	0.544
13.757	0.544
13.7908	0.544
13.8246	0.542
13.8584	0.529
13.8922	0.509
13.926	0.489
13.9597	0.463
13.9935	0.431
14.0273	0.394
14.0611	0.356
14.0949	0.344
14.1287	0.349
14.1625	0.388
14.1962	0.438
14.23	0.47
14.2638	0.495
14.2976	0.519
14.3314	0.541
14.3652	0.556
14.3989	0.569
14.4327	0.583
14.4665	0.594
14.5003	0.606
14.5341	0.625
14.5679	0.638
14.6016	0.645
14.6354	0.653
14.6692	0.657
14.703	0.658
14.7368	0.655
14.7706	0.648
14.8043	0.633
14.8381	0.615
14.8719	0.591
14.9057	0.568
14.9395	0.551
14.9733	0.544
15.0071	0.554
15.0408	0.573
15.0746	0.594
15.1084	0.613
15.1422	0.631
15.176	0.645
15.2098	0.657
15.2435	0.663
15.2773	0.668
15.3111	0.677
15.3449	0.68
15.3787	0.685
15.4125	0.69
15.4462	0.7
15.48	0.71
