Infrared Spectrum: Urea, 1-(2',4'-di-tert-butylphenyl)-3-isopropyl-
Formula: C18 H30 N2 O
State: SOLID (NUJOL MULL)
Melting point: 190 C
Class: COBLENTZ III
Instrument: BECKMAN IR-4 (HYBRID PRISM-GRATING)
Instrument parameters: NaCl PRISM
Sampling: TRANSMISSION
Resolution: 2
Origin: MONSANTO (J. FREEMAN)
1/CM	TRANSMITTANCE
626	0.8745
635	0.8857
644	0.8837
653	0.8477
662	0.8462
671	0.8372
680	0.836
689	0.8628
698	0.8975
707	0.9155
716	0.8837
725	0.8458
734	0.8985
743	0.9434
752	0.9532
761	0.9281
770	0.8995
779	0.9336
788	0.9658
797	0.9745
806	0.9685
815	0.8074
824	0.9216
833	0.8541
842	0.9126
851	0.9537
860	0.9622
869	0.9534
878	0.9454
887	0.9393
896	0.949
905	0.9163
914	0.9428
923	0.9233
932	0.9393
941	0.9356
950	0.9382
959	0.9314
968	0.9143
977	0.9356
986	0.9422
995	0.9439
1004	0.9423
1013	0.9385
1022	0.9419
1031	0.9419
1040	0.9425
1049	0.9371
1058	0.913
1067	0.908
1076	0.9144
1085	0.8953
1094	0.7071
1103	0.9054
1112	0.903
1121	0.7672
1130	0.8667
1139	0.9008
1148	0.8712
1157	0.8608
1166	0.8145
1175	0.6769
1184	0.7974
1193	0.8187
1202	0.7744
1211	0.8149
1220	0.7215
1229	0.597
1238	0.5324
1247	0.5236
1256	0.619
1265	0.6917
1274	0.6612
1283	0.7261
1292	0.7918
1301	0.8087
1310	0.8404
1319	0.7724
1328	0.816
1337	0.8416
1346	0.824
1355	0.7091
1364	0.541
1373	0.6337
1382	0.6486
1391	0.7529
1400	0.6848
1409	0.8527
1418	0.857
1427	0.8073
1436	0.6874
1445	0.5689
1454	0.4428
1463	0.3433
1472	0.4801
1481	0.6115
1490	0.6656
1499	0.5898
1508	0.5503
1517	0.5746
1526	0.572
1535	0.4982
1544	0.3804
1553	0.2689
1562	0.2461
1571	0.4375
1580	0.6604
1589	0.7174
1598	0.6379
1607	0.5324
1616	0.5558
1625	0.3992
1634	0.236
1643	0.0931
1652	0.8277
1661	0.8504
1670	0.8753
1679	0.8942
1688	0.9158
1697	0.9395
1706	0.9554
1715	0.9621
1724	0.9658
1733	0.9674
1742	0.9644
1751	0.9612
1760	0.9589
1769	0.9599
1778	0.9615
1787	0.963
1796	0.9635
1805	0.9638
1814	0.9639
1823	0.9638
1832	0.9635
1841	0.9631
1850	0.9628
1859	0.9624
1868	0.9616
1877	0.9607
1886	0.96
1895	0.9591
1904	0.9586
1913	0.9587
1922	0.9592
1931	0.9597
1940	0.9602
1949	0.9607
1958	0.9612
1967	0.9617
1976	0.962
1985	0.9619
1994	0.9619
2003	0.9618
2012	0.9617
2021	0.9617
2030	0.9618
2039	0.9618
2048	0.9619
2057	0.962
2066	0.962
2075	0.9619
2084	0.9616
2093	0.9614
2102	0.9611
2111	0.9609
2120	0.9606
2129	0.9604
2138	0.9599
2147	0.9594
2156	0.9588
2165	0.9583
2174	0.9578
2183	0.9569
2192	0.9559
2201	0.9548
2210	0.9538
2219	0.9527
2228	0.9516
2237	0.9503
2246	0.9493
2255	0.949
2264	0.9488
2273	0.9494
2282	0.9504
2291	0.9515
2300	0.9526
2309	0.9536
2318	0.9547
2327	0.9552
2336	0.9554
2345	0.9539
2354	0.9511
2363	0.9479
2372	0.9455
2381	0.9449
2390	0.9445
2399	0.9453
2408	0.9462
2417	0.9467
2426	0.9469
2435	0.9471
2444	0.9463
2453	0.9451
2462	0.9438
2471	0.9425
2480	0.9411
2489	0.9392
2498	0.9373
2507	0.9355
2516	0.9336
2525	0.9317
2534	0.9299
2543	0.928
2552	0.9262
2561	0.9242
2570	0.9216
2579	0.9191
2588	0.9165
2597	0.9141
2606	0.9116
2615	0.909
2624	0.9064
2633	0.9038
2642	0.9014
2651	0.8985
2660	0.8956
2669	0.8927
2678	0.8897
2687	0.8868
2696	0.8848
2705	0.8831
2714	0.8813
2723	0.8813
2732	0.8814
2741	0.8819
2750	0.8817
2759	0.8793
2768	0.8667
2777	0.8507
2786	0.8334
2795	0.815
2804	0.7934
2813	0.7649
2822	0.7056
2831	0.6565
2840	0.5556
2849	0.4549
2858	0.3549
2867	0.2553
2876	0.1566
2885	0.1469
2894	0.1547
2903	0.1652
2912	0.1742
2921	0.1608
2930	0.1235
2939	0.0864
2948	0.0496
2957	0.0409
2966	0.0413
2975	0.0432
2984	0.0519
2993	0.2004
3002	0.5957
3011	0.7494
3020	0.7673
3029	0.7779
3038	0.7832
3047	0.785
3056	0.7862
3065	0.7877
3074	0.7897
3083	0.7965
3092	0.8165
3101	0.8205
3110	0.8201
3119	0.8188
3128	0.8159
3137	0.8131
3146	0.8087
3155	0.804
3164	0.7963
3173	0.7874
3182	0.7788
3191	0.7706
3200	0.76
3209	0.7233
3218	0.6913
3227	0.6606
3236	0.6298
3245	0.5993
3254	0.5689
3263	0.5559
3272	0.5616
3281	0.6204
3290	0.7141
3299	0.7141
3308	0.7118
3317	0.6902
3326	0.6643
3335	0.6384
3344	0.6128
3353	0.5985
3362	0.6177
3371	0.7303
3380	0.8445
3389	0.8864
3398	0.8954
3407	0.9014
3416	0.9044
3425	0.9063
3434	0.9076
3443	0.9089
3452	0.9102
3461	0.9114
3470	0.912
3479	0.9125
3488	0.913
3497	0.9135
3506	0.9139
3515	0.9145
3524	0.9149
3533	0.9155
3542	0.9159
3551	0.9164
3560	0.917
3569	0.9174
3578	0.9179
3587	0.9184
3596	0.9187
3605	0.9189
3614	0.9192
3623	0.9193
3632	0.9195
3641	0.9197
3650	0.9197
3659	0.9195
3668	0.9192
3677	0.9189
3686	0.9187
3695	0.9185
3704	0.9182
3713	0.9179
3722	0.9177
3731	0.9175
3740	0.9172
3749	0.9169
3758	0.9167
3767	0.9164
3776	0.916
3785	0.9155
3794	0.9149
3803	0.9145
3812	0.914
3821	0.9135
3830	0.913
3839	0.9125
3848	0.9121
3857	0.9116
3866	0.911
3875	0.9102
3884	0.9095
3893	0.9088
3902	0.9081
3911	0.9074
3920	0.9067
3929	0.906
3938	0.9053
3947	0.9046
3956	0.9039
3965	0.9032
3974	0.9026
3983	0.9019
3992	0.9012
