Infrared Spectrum: TYRAMINE METHIODIDE
Formula: C9 H14 I N O
State: SOLID (1.5 mg / 100 mg KBr PELLET)
Class: COBLENTZ
Instrument: Not specified, most likely a grating spectrometer.
Sampling: TRANSMISSION
Resolution: 4
Origin: CITRUS EXPERIMENT STATION, UNIVERSITY OF FLORIDA (G. EDWARDS)
MICROMETERS	TRANSMITTANCE
2.024	0.597
2.06025	0.6
2.09649	0.6
2.13274	0.6
2.16899	0.6
2.20523	0.61
2.24148	0.611
2.27773	0.616
2.31397	0.62
2.35022	0.625
2.38647	0.631
2.42271	0.633
2.45896	0.638
2.49521	0.64
2.53146	0.648
2.5677	0.652
2.60395	0.657
2.6402	0.66
2.67644	0.663
2.71269	0.665
2.74894	0.666
2.78518	0.668
2.82143	0.669
2.85768	0.667
2.89392	0.651
2.93017	0.601
2.96642	0.571
3.00266	0.434
3.03891	0.37
3.07516	0.435
3.1114	0.5
3.14765	0.541
3.1839	0.577
3.22014	0.594
3.25639	0.592
3.29264	0.569
3.32889	0.612
3.36513	0.625
3.40138	0.633
3.43763	0.637
3.47387	0.641
3.51012	0.643
3.54637	0.646
3.58261	0.654
3.61886	0.654
3.65511	0.657
3.69135	0.658
3.7276	0.66
3.76385	0.666
3.80009	0.669
3.83634	0.666
3.87259	0.662
3.90883	0.663
3.94508	0.671
3.98133	0.669
4.01757	0.672
4.05382	0.677
4.09007	0.679
4.12632	0.682
4.16256	0.694
4.19881	0.701
4.23506	0.701
4.2713	0.701
4.30755	0.7
4.3438	0.702
4.38004	0.702
4.41629	0.703
4.45254	0.703
4.48878	0.707
4.52503	0.712
4.56128	0.713
4.59752	0.716
4.63377	0.717
4.67002	0.718
4.70626	0.719
4.74251	0.722
4.77876	0.723
4.815	0.724
4.85125	0.724
4.8875	0.724
4.92374	0.725
4.95999	0.725
4.99624	0.73
5.03249	0.733
5.06873	0.733
5.10498	0.734
5.14123	0.734
5.17747	0.735
5.21372	0.728
5.24997	0.725
5.28621	0.739
5.32246	0.742
5.35871	0.743
5.39495	0.746
5.4312	0.746
5.46745	0.743
5.50369	0.743
5.53994	0.743
5.57619	0.743
5.61243	0.752
5.64868	0.754
5.68493	0.762
5.72117	0.762
5.75742	0.763
5.79367	0.766
5.82992	0.77
5.86616	0.771
5.90241	0.773
5.93866	0.773
5.9749	0.77
6.01115	0.774
6.0474	0.779
6.08364	0.773
6.11989	0.729
6.15614	0.66
6.19238	0.611
6.22863	0.692
6.26488	0.708
6.30112	0.768
6.33737	0.776
6.37362	0.777
6.40986	0.768
6.44611	0.735
6.48236	0.702
6.5186	0.56
6.55485	0.469
6.5911	0.581
6.62735	0.61
6.66359	0.583
6.69984	0.554
6.73609	0.593
6.77233	0.638
6.80858	0.657
6.84483	0.645
6.88107	0.622
6.91732	0.632
6.95357	0.665
6.98981	0.684
7.02606	0.685
7.06231	0.701
7.09855	0.709
7.1348	0.702
7.17105	0.729
7.20729	0.745
7.24354	0.753
7.27979	0.742
7.31603	0.689
7.35228	0.695
7.38853	0.685
7.42478	0.699
7.46102	0.728
7.49727	0.748
7.53352	0.742
7.56976	0.742
7.60601	0.756
7.64226	0.773
7.6785	0.785
7.71475	0.792
7.751	0.783
7.78724	0.729
7.82349	0.623
7.85974	0.593
7.89598	0.567
7.93223	0.574
7.96848	0.646
8.00472	0.689
8.04097	0.7
8.07722	0.689
8.11346	0.663
8.14971	0.574
8.18596	0.447
8.2222	0.439
8.25845	0.502
8.2947	0.532
8.33095	0.588
8.36719	0.567
8.40344	0.605
8.43969	0.639
8.47593	0.644
8.51218	0.626
8.54843	0.656
8.58467	0.673
8.62092	0.678
8.65717	0.683
8.69341	0.683
8.72966	0.678
8.76591	0.678
8.80215	0.679
8.8384	0.663
8.87465	0.652
8.91089	0.689
8.94714	0.703
8.98339	0.709
9.01963	0.703
9.05588	0.673
9.09213	0.655
9.12838	0.712
9.16462	0.723
9.20087	0.728
9.23712	0.729
9.27336	0.729
9.30961	0.733
9.34586	0.739
9.3821	0.742
9.41835	0.742
9.4546	0.733
9.49084	0.72
9.52709	0.708
9.56334	0.728
9.59958	0.741
9.63583	0.743
9.67208	0.741
9.70832	0.748
9.74457	0.757
9.78082	0.758
9.81706	0.759
9.85331	0.76
9.88956	0.766
9.92581	0.768
9.96205	0.77
9.9983	0.776
10.0345	0.779
10.0708	0.779
10.107	0.779
10.1433	0.773
10.1795	0.745
10.2158	0.694
10.252	0.689
10.2883	0.68
10.3245	0.679
10.3608	0.723
10.397	0.739
10.4333	0.726
10.4695	0.703
10.5058	0.652
10.542	0.632
10.5782	0.69
10.6145	0.718
10.6507	0.74
10.687	0.76
10.7232	0.773
10.7595	0.782
10.7957	0.785
10.832	0.78
10.8682	0.764
10.9045	0.7
10.9407	0.614
10.977	0.552
11.0132	0.591
11.0495	0.639
11.0857	0.682
11.1219	0.705
11.1582	0.719
11.1944	0.733
11.2307	0.743
11.2669	0.75
11.3032	0.754
11.3394	0.76
11.3757	0.763
11.4119	0.765
11.4482	0.766
11.4844	0.775
11.5207	0.777
11.5569	0.777
11.5932	0.777
11.6294	0.773
11.6657	0.754
11.7019	0.712
11.7381	0.667
11.7744	0.663
11.8106	0.689
11.8469	0.695
11.8831	0.663
11.9194	0.541
11.9556	0.515
11.9919	0.582
12.0281	0.652
12.0644	0.682
12.1006	0.68
12.1369	0.684
12.1731	0.684
12.2094	0.686
12.2456	0.713
12.2818	0.729
12.3181	0.739
12.3543	0.746
12.3906	0.752
12.4268	0.753
12.4631	0.752
12.4993	0.745
12.5356	0.731
12.5718	0.7
12.6081	0.673
12.6443	0.679
12.6806	0.702
12.7168	0.717
12.7531	0.726
12.7893	0.735
12.8256	0.739
12.8618	0.737
12.898	0.734
12.9343	0.733
12.9705	0.734
13.0068	0.745
13.043	0.752
13.0793	0.758
13.1155	0.76
13.1518	0.762
13.188	0.762
13.2243	0.762
13.2605	0.762
13.2968	0.753
13.333	0.748
13.3693	0.743
13.4055	0.748
13.4417	0.756
13.478	0.762
13.5142	0.763
13.5505	0.764
13.5867	0.765
13.623	0.771
13.6592	0.774
13.6955	0.776
13.7317	0.776
13.768	0.776
13.8042	0.775
13.8405	0.775
13.8767	0.777
13.913	0.779
13.9492	0.775
13.9854	0.776
14.0217	0.781
14.0579	0.785
14.0942	0.787
14.1304	0.791
14.1667	0.791
14.2029	0.793
14.2392	0.793
14.2754	0.793
14.3117	0.794
14.3479	0.799
14.3842	0.802
14.4204	0.803
14.4567	0.803
14.4929	0.807
14.5292	0.809
14.5654	0.81
14.6016	0.809
14.6379	0.807
14.6741	0.809
14.7104	0.809
14.7466	0.81
14.7829	0.804
14.8191	0.799
14.8554	0.794
14.8916	0.792
14.9279	0.821
14.9641	0.891
15.0004	0.907
