Infrared Spectrum: p-TOLUENESULFONAMIDE, N,N'-(1,4-CYCLOHEXYLENE)BIS[N-(2-HYDROXYETHYL)-, DIACETATE
Formula: C28 H38 N2 O8 S2
State: SOLID (1 mg / 650 mg KBr DISC)
Class: COBLENTZ III
Instrument: PERKIN-ELMER 521 (GRATING)
Instrument parameters: FILTERS AT 3130, 2475, 2000, 620. GRATING CHANGES: 2000, 630 CM^-^1
Sampling: TRANSMISSION
Resolution: 2
Origin: SOUTHERN RESEARCH INSTITUTE
1/CM	TRANSMITTANCE
256.78	0.274
266.385	0.3569
275.989	0.43
285.594	0.482
295.198	0.526
304.803	0.573
314.407	0.589
324.012	0.615
333.616	0.636
343.221	0.623
352.825	0.689
362.43	0.714
372.034	0.74
381.639	0.75
391.244	0.74
400.848	0.718
410.453	0.673
420.057	0.759
429.662	0.774
439.266	0.777
448.871	0.778
458.475	0.758
468.08	0.7549
477.684	0.77
487.289	0.735
496.893	0.775
506.498	0.784
516.103	0.777
525.707	0.745
535.312	0.666
544.916	0.408
554.521	0.2638
564.125	0.3401
573.73	0.712
583.334	0.743
592.939	0.682
602.543	0.6058
612.148	0.5671
621.752	0.772
631.357	0.746
640.961	0.719
650.566	0.6601
660.171	0.4281
669.775	0.1889
679.38	0.764
688.984	0.827
698.589	0.7881
708.193	0.7917
717.798	0.832
727.402	0.808
737.007	0.777
746.611	0.6851
756.216	0.415
765.82	0.778
775.425	0.826
785.03	0.817
794.634	0.761
804.239	0.745
813.843	0.5471
823.448	0.608
833.052	0.798
842.657	0.813
852.261	0.806
861.866	0.771
871.47	0.643
881.075	0.4162
890.679	0.792
900.284	0.7151
909.889	0.738
919.493	0.771
929.098	0.752
938.702	0.733
948.307	0.6331
957.911	0.362
967.516	0.506
977.12	0.643
986.725	0.703
996.329	0.648
1005.93	0.3381
1015.54	0.504
1025.14	0.506
1034.75	0.3841
1044.35	0.4499
1053.96	0.581
1063.56	0.63
1073.17	0.633
1082.77	0.5493
1092.37	0.5856
1101.98	0.633
1111.58	0.578
1121.19	0.464
1130.79	0.4799
1140.4	0.5621
1150	0.3421
1159.61	0.119
1169.21	0.3081
1178.82	0.626
1188.42	0.724
1198.02	0.7
1207.63	0.653
1217.23	0.541
1226.84	0.3262
1236.44	0.107
1246.05	0.279
1255.65	0.464
1265.26	0.529
1274.86	0.604
1284.47	0.473
1294.07	0.592
1303.67	0.287
1313.28	0.507
1322.88	0.2621
1332.49	0.1379
1342.09	0.4579
1351.7	0.633
1361.3	0.457
1370.91	0.615
1380.51	0.66
1390.12	0.567
1399.72	0.614
1409.32	0.623
1418.93	0.69
1428.53	0.682
1438.14	0.633
1447.74	0.611
1457.35	0.629
1466.95	0.652
1476.56	0.782
1486.16	0.716
1495.77	0.778
1505.37	0.816
1514.97	0.824
1524.58	0.83
1534.18	0.831
1543.79	0.832
1553.39	0.833
1563	0.833
1572.6	0.83
1582.21	0.81
1591.81	0.587
1601.42	0.794
1611.02	0.796
1620.62	0.796
1630.23	0.799
1639.83	0.794
1649.44	0.794
1659.04	0.8
1668.65	0.814
1678.25	0.81
1687.86	0.772
1697.46	0.75
1707.07	0.72
1716.67	0.653
1726.27	0.4061
1735.88	0.109
1745.48	0.2491
1755.09	0.755
1764.69	0.793
1774.3	0.81
1783.9	0.826
1793.51	0.832
1803.11	0.837
1812.72	0.843
1822.32	0.86
1831.92	0.868
1841.53	0.869
1851.13	0.869
1860.74	0.87
1870.34	0.872
1879.95	0.875
1889.55	0.876
1899.16	0.875
1908.76	0.873
1918.36	0.861
1927.97	0.836
1937.57	0.861
1947.18	0.872
1956.78	0.875
1966.39	0.876
1975.99	0.876
1985.6	0.876
1995.2	0.874
2004.81	0.872
2014.41	0.87
2024.01	0.87
2033.62	0.8691
2043.22	0.869
2052.83	0.8681
2062.43	0.868
2072.04	0.8699
2081.64	0.87
2091.25	0.87
2100.85	0.869
2110.46	0.869
2120.06	0.866
2129.66	0.866
2139.27	0.868
2148.87	0.87
2158.48	0.87
2168.08	0.87
2177.69	0.87
2187.29	0.87
2196.9	0.87
2206.5	0.869
2216.11	0.869
2225.71	0.869
2235.31	0.866
2244.92	0.867
2254.52	0.869
2264.13	0.869
2273.73	0.869
2283.34	0.867
2292.94	0.867
2302.55	0.866
2312.15	0.866
2321.76	0.867
2331.36	0.868
2340.96	0.8685
2350.57	0.867
2360.17	0.868
2369.78	0.8684
2379.38	0.867
2388.99	0.864
2398.59	0.863
2408.2	0.864
2417.8	0.866
2427.41	0.866
2437.01	0.866
2446.61	0.866
2456.22	0.864
2465.82	0.861
2475.43	0.862
2485.03	0.864
2494.64	0.864
2504.24	0.864
2513.85	0.867
2523.45	0.868
2533.06	0.868
2542.66	0.868
2552.26	0.866
2561.87	0.864
2571.47	0.861
2581.08	0.861
2590.68	0.862
2600.29	0.863
2609.89	0.863
2619.5	0.863
2629.1	0.863
2638.71	0.862
2648.31	0.86
2657.91	0.857
2667.52	0.855
2677.12	0.854
2686.73	0.854
2696.33	0.854
2705.94	0.854
2715.54	0.854
2725.15	0.854
2734.75	0.854
2744.36	0.854
2753.96	0.854
2763.56	0.8515
2773.17	0.8482
2782.77	0.8413
2792.38	0.843
2801.98	0.845
2811.59	0.843
2821.19	0.8373
2830.8	0.8277
2840.4	0.8084
2850.01	0.7676
2859.61	0.6973
2869.21	0.706
2878.82	0.774
2888.42	0.7547
2898.03	0.7103
2907.63	0.707
2917.24	0.6975
2926.84	0.6424
2936.45	0.5326
2946.05	0.5927
2955.66	0.6727
2965.26	0.7273
2974.86	0.7318
2984.47	0.7238
2994.07	0.778
3003.68	0.8064
3013.28	0.8046
3022.89	0.7913
3032.49	0.7737
3042.1	0.7336
3051.7	0.7749
3061.3	0.792
3070.91	0.8071
3080.51	0.8032
3090.12	0.7882
3099.72	0.8005
3109.33	0.8153
3118.93	0.8358
3128.54	0.8298
3138.14	0.827
3147.75	0.829
3157.35	0.827
3166.95	0.824
3176.56	0.821
3186.16	0.821
3195.77	0.8209
3205.37	0.82
3214.98	0.819
3224.58	0.813
3234.19	0.81
3243.79	0.805
3253.4	0.804
3263	0.801
3272.6	0.799
3282.21	0.798
3291.81	0.795
3301.42	0.793
3311.02	0.792
3320.63	0.7881
3330.23	0.784
3339.84	0.7783
3349.44	0.7712
3359.05	0.7622
3368.65	0.7534
3378.25	0.7442
3387.86	0.7372
3397.46	0.731
3407.07	0.728
3416.67	0.725
3426.28	0.7203
3435.88	0.716
3445.49	0.714
3455.09	0.7173
3464.7	0.7246
3474.3	0.7326
3483.9	0.7362
3493.51	0.743
3503.11	0.7496
3512.72	0.7526
3522.32	0.7616
3531.93	0.7715
3541.53	0.775
3551.14	0.7815
3560.74	0.791
3570.35	0.798
3579.95	0.8059
3589.55	0.8124
3599.16	0.818
3608.76	0.8254
3618.37	0.8354
3627.97	0.8398
3637.58	0.8457
3647.18	0.85
3656.79	0.853
3666.39	0.853
3676	0.85
3685.6	0.8516
3695.2	0.855
3704.81	0.857
3714.41	0.859
3724.02	0.861
3733.62	0.857
3743.23	0.8552
3752.83	0.859
3762.44	0.861
3772.04	0.862
3781.65	0.861
3791.25	0.862
3800.85	0.861
3810.46	0.859
