Infrared Spectrum: Benzimidazole, 5-amino-1-ethyl-2-methyl-, dihydrochloride
Formula: C10 H15 Cl2 N3
State: SOLID (SPLIT MULL), FLUOROLUBE FOR 3800-1330 CM^-^1, NUJOL FOR 1330-400 CM^-^1
Class: COBLENTZ III
Instrument: BECKMAN IR-9 (GRATING)
Instrument parameters: ORDER CHANGES: 670, 1200, 2000 CM^-^1
Sampling: TRANSMISSION
Resolution: 2
Origin: DOW CHEMICAL COMPANY
1/CM	TRANSMITTANCE
3800	0.5479
3791	0.5508
3782	0.5541
3773	0.5576
3764	0.561
3755	0.5642
3746	0.567
3737	0.5698
3728	0.5726
3719	0.5754
3710	0.5782
3701	0.5809
3692	0.5836
3683	0.5866
3674	0.5899
3665	0.593
3656	0.5958
3647	0.5986
3638	0.601
3629	0.6038
3620	0.6066
3611	0.6089
3602	0.6096
3593	0.6099
3584	0.6128
3575	0.6159
3566	0.6175
3557	0.6189
3548	0.6204
3539	0.6212
3530	0.6221
3521	0.6229
3512	0.623
3503	0.6229
3494	0.6226
3485	0.622
3476	0.6209
3467	0.6202
3458	0.6212
3449	0.6202
3440	0.619
3431	0.6201
3422	0.6253
3413	0.6315
3404	0.6359
3395	0.6379
3386	0.6378
3377	0.638
3368	0.6401
3359	0.6436
3350	0.648
3341	0.6525
3332	0.6572
3323	0.6622
3314	0.6675
3305	0.6725
3296	0.6778
3287	0.683
3278	0.6882
3269	0.6928
3260	0.6975
3251	0.7024
3242	0.7065
3233	0.7093
3224	0.7106
3215	0.7101
3206	0.7093
3197	0.7095
3188	0.7105
3179	0.7119
3170	0.7149
3161	0.7154
3152	0.7128
3143	0.706
3134	0.6971
3125	0.6862
3116	0.6778
3107	0.6739
3098	0.6771
3089	0.6733
3080	0.6601
3071	0.6138
3062	0.6062
3053	0.5417
3044	0.5164
3035	0.5473
3026	0.5896
3017	0.5957
3008	0.5902
2999	0.5656
2990	0.5535
2981	0.5097
2972	0.5033
2963	0.502
2954	0.4989
2945	0.4749
2936	0.463
2927	0.4596
2918	0.452
2909	0.4367
2900	0.4184
2891	0.3976
2882	0.3754
2873	0.345
2864	0.3137
2855	0.293
2846	0.2754
2837	0.2584
2828	0.2434
2819	0.2274
2810	0.2142
2801	0.2017
2792	0.1939
2783	0.1906
2774	0.1923
2765	0.1948
2756	0.1979
2747	0.2018
2738	0.2072
2729	0.2147
2720	0.2231
2711	0.2323
2702	0.2428
2693	0.2503
2684	0.2481
2675	0.2477
2666	0.2521
2657	0.2427
2648	0.239
2639	0.2196
2630	0.1939
2621	0.1729
2612	0.1703
2603	0.1596
2594	0.1498
2585	0.1456
2576	0.147
2567	0.1507
2558	0.1552
2549	0.1629
2540	0.1749
2531	0.189
2522	0.2072
2513	0.2247
2504	0.2414
2495	0.2584
2486	0.2772
2477	0.2957
2468	0.3113
2459	0.3244
2450	0.3416
2441	0.3614
2432	0.3779
2423	0.3929
2414	0.4073
2405	0.4226
2396	0.4359
2387	0.4497
2378	0.4946
2369	0.5144
2360	0.5143
2351	0.5164
2342	0.517
2333	0.5173
2324	0.52
2315	0.5278
2306	0.5364
2297	0.5454
2288	0.5554
2279	0.5665
2270	0.577
2261	0.5873
2252	0.5976
2243	0.6095
2234	0.6231
2225	0.6375
2216	0.6465
2207	0.6476
2198	0.6496
2189	0.6541
2180	0.6649
2171	0.6762
2162	0.6875
2153	0.6976
2144	0.6996
2135	0.7058
2126	0.7135
2117	0.721
2108	0.7287
2099	0.7358
2090	0.7419
2081	0.7456
2072	0.748
2063	0.7495
2054	0.7486
2045	0.7457
2036	0.7408
2027	0.7365
2018	0.7318
2009	0.7254
2000	0.7169
1991	0.7281
1982	0.7325
1973	0.7408
1964	0.7497
1955	0.758
1946	0.7651
1937	0.7715
1928	0.7708
1919	0.7696
1910	0.7781
1901	0.7884
1892	0.7961
1883	0.8021
1874	0.8081
1865	0.8143
1856	0.8206
1847	0.8274
1838	0.8341
1829	0.8393
1820	0.8421
1811	0.8448
1802	0.8471
1793	0.8489
1784	0.8512
1775	0.8538
1766	0.8571
1757	0.8592
1748	0.8597
1739	0.8592
1730	0.8541
1721	0.8421
1712	0.8361
1703	0.8352
1694	0.8451
1685	0.8421
1676	0.8388
1667	0.8393
1658	0.8407
1649	0.8292
1640	0.7498
1631	0.7701
1622	0.8246
1613	0.8417
1604	0.7795
1595	0.6708
1586	0.6765
1577	0.73
1568	0.5631
1559	0.7006
1550	0.7755
1541	0.7971
1532	0.7021
1523	0.6139
1514	0.5512
1505	0.391
1496	0.5189
1487	0.6901
1478	0.6488
1469	0.57
1460	0.5149
1451	0.6958
1442	0.6551
1433	0.6604
1424	0.5114
1415	0.4902
1406	0.6668
1397	0.7334
1388	0.6571
1379	0.7341
1370	0.6574
1361	0.6597
1352	0.6644
1343	0.6645
1334	0.6538
1325	0.5547
1316	0.6598
1307	0.6771
1298	0.6668
1289	0.6216
1280	0.5236
1271	0.6172
1262	0.6794
1253	0.6653
1244	0.5983
1235	0.7005
1226	0.7186
1217	0.7258
1208	0.7384
1199	0.748
1190	0.7455
1181	0.7221
1172	0.4699
1163	0.6464
1154	0.6455
1145	0.7278
1136	0.7471
1127	0.7307
1118	0.4525
1109	0.6587
1100	0.6756
1091	0.6377
1082	0.7046
1073	0.7311
1064	0.7482
1055	0.7275
1046	0.7174
1037	0.6847
1028	0.7544
1019	0.7887
1010	0.795
1001	0.7917
992	0.7908
983	0.7958
974	0.7108
965	0.7406
956	0.7551
947	0.8012
938	0.824
929	0.8293
920	0.8275
911	0.7914
902	0.7901
893	0.7874
884	0.7461
875	0.7094
866	0.6286
857	0.7412
848	0.6791
839	0.6736
830	0.6793
821	0.378
812	0.5984
803	0.7305
794	0.6378
785	0.719
776	0.7681
767	0.7924
758	0.7968
749	0.7931
740	0.7858
731	0.7742
722	0.7446
713	0.8106
704	0.8462
695	0.8488
686	0.8675
677	0.8694
668	0.7965
659	0.8627
650	0.8165
641	0.8662
632	0.874
623	0.8609
614	0.8198
605	0.6987
596	0.8731
587	0.8762
578	0.8644
569	0.8456
560	0.8718
551	0.8753
542	0.8633
533	0.8497
524	0.8756
515	0.875
506	0.8731
497	0.8675
488	0.8593
479	0.8475
470	0.8258
461	0.7674
452	0.7182
443	0.7078
434	0.4875
425	0.6202
416	0.6237
407	0.6391
