Infrared Spectrum: Toluene-3,4-diamine, dihydrochloride
Formula: C7 H12 Cl2 N2
State: SOLID (OIL MULL)
Class: COBLENTZ III
Instrument: BAIRD (GRATING)
Instrument parameters: NaCl PRISM
Sampling: TRANSMISSION
Resolution: 2
Origin: WYANDOTTE CHEMICALS CORP..
1/CM	TRANSMITTANCE
626	0.7365
635	0.7915
644	0.8457
653	0.8856
662	0.9036
671	0.9372
680	0.9388
689	0.9626
698	0.9726
707	0.9343
716	0.8313
725	0.8911
734	0.922
743	0.9427
752	0.9321
761	0.9452
770	0.9271
779	0.9191
788	0.9118
797	0.8491
806	0.6196
815	0.8077
824	0.9617
833	0.9638
842	0.9689
851	0.9593
860	0.9348
869	0.9221
878	0.9677
887	0.9566
896	0.9585
905	0.9469
914	0.9363
923	0.9258
932	0.9193
941	0.9183
950	0.9096
959	0.9004
968	0.8926
977	0.8896
986	0.8819
995	0.8627
1004	0.8405
1013	0.8156
1022	0.7931
1031	0.7746
1040	0.7652
1049	0.7649
1058	0.7413
1067	0.712
1076	0.689
1085	0.674
1094	0.6682
1103	0.6738
1112	0.6729
1121	0.621
1130	0.5536
1139	0.5402
1148	0.5366
1157	0.6762
1166	0.6937
1175	0.7051
1184	0.6994
1193	0.6884
1202	0.6716
1211	0.6466
1220	0.6157
1229	0.6719
1238	0.7407
1247	0.7219
1256	0.6925
1265	0.6586
1274	0.7142
1283	0.712
1292	0.6649
1301	0.6348
1310	0.6337
1319	0.6433
1328	0.6525
1337	0.6326
1346	0.5971
1355	0.5577
1364	0.4938
1373	0.3903
1382	0.2737
1391	0.4396
1400	0.5742
1409	0.5712
1418	0.5636
1427	0.5473
1436	0.4789
1445	0.348
1454	0.2461
1463	0.1384
1472	0.1115
1481	0.1839
1490	0.331
1499	0.3595
1508	0.3512
1517	0.3301
1526	0.3066
1535	0.3088
1544	0.3179
1553	0.3386
1562	0.3563
1571	0.4274
1580	0.4706
1589	0.4747
1598	0.5234
1607	0.5936
1616	0.663
1625	0.7082
1634	0.7432
1643	0.8247
1652	0.83
1661	0.8253
1670	0.8104
1679	0.7946
1688	0.7826
1697	0.7741
1706	0.7649
1715	0.7521
1724	0.7396
1733	0.7312
1742	0.7237
1751	0.7162
1760	0.71
1769	0.7038
1778	0.6976
1787	0.692
1796	0.6868
1805	0.6816
1814	0.6778
1823	0.6746
1832	0.6728
1841	0.6712
1850	0.67
1859	0.668
1868	0.6642
1877	0.6586
1886	0.6516
1895	0.6452
1904	0.6431
1913	0.6416
1922	0.6406
1931	0.6396
1940	0.6395
1949	0.6386
1958	0.6332
1967	0.6279
1976	0.6232
1985	0.6197
1994	0.6163
2003	0.6129
2012	0.6097
2021	0.6066
2030	0.6018
2039	0.5958
2048	0.5895
2057	0.5828
2066	0.5762
2075	0.5721
2084	0.5694
2093	0.5653
2102	0.5549
2111	0.5425
2120	0.5348
2129	0.5274
2138	0.5201
2147	0.5129
2156	0.5078
2165	0.5035
2174	0.4991
2183	0.4905
2192	0.4796
2201	0.4703
2210	0.4666
2219	0.4622
2228	0.4567
2237	0.4501
2246	0.4423
2255	0.4346
2264	0.425
2273	0.4138
2282	0.4035
2291	0.3927
2300	0.3798
2309	0.3575
2318	0.3453
2327	0.3402
2336	0.3351
2345	0.3302
2354	0.3259
2363	0.3216
2372	0.3175
2381	0.3133
2390	0.3089
2399	0.3045
2408	0.2974
2417	0.2888
2426	0.2801
2435	0.2718
2444	0.2638
2453	0.2558
2462	0.248
2471	0.2402
2480	0.2326
2489	0.225
2498	0.2175
2507	0.2097
2516	0.2018
2525	0.1939
2534	0.1885
2543	0.1836
2552	0.1795
2561	0.1785
2570	0.1773
2579	0.1768
2588	0.1782
2597	0.1796
2606	0.1829
2615	0.1895
2624	0.1968
2633	0.2035
2642	0.2101
2651	0.2146
2660	0.2184
2669	0.2194
2678	0.2204
2687	0.2204
2696	0.2201
2705	0.2159
2714	0.2106
2723	0.2036
2732	0.1967
2741	0.1878
2750	0.1781
2759	0.1695
2768	0.1612
2777	0.1528
2786	0.1444
2795	0.1359
2804	0.1274
2813	0.1187
2822	0.1095
2831	0.1004
2840	0.0889
2849	0.0751
2858	0.0615
2867	0.0493
2876	0.0383
2885	0.0296
2894	0.0228
2903	0.0188
2912	0.0162
2921	0.0159
2930	0.0159
2939	0.0164
2948	0.017
2957	0.0176
2966	0.0182
2975	0.0197
2984	0.0217
2993	0.0257
3002	0.0327
3011	0.0638
3020	0.0999
3029	0.1358
3038	0.1714
3047	0.2069
3056	0.242
3065	0.2732
3074	0.3136
3083	0.3447
3092	0.365
3101	0.3766
3110	0.3866
3119	0.403
3128	0.43
3137	0.4614
3146	0.4799
3155	0.4883
3164	0.4948
3173	0.5013
3182	0.5077
3191	0.5165
3200	0.5283
3209	0.5401
3218	0.5518
3227	0.5607
3236	0.5693
3245	0.5766
3254	0.5807
3263	0.5846
3272	0.5885
3281	0.5902
3290	0.5919
3299	0.5926
3308	0.5927
3317	0.5927
3326	0.5923
3335	0.5917
3344	0.5911
3353	0.5905
3362	0.5893
3371	0.5883
3380	0.5875
3389	0.5866
3398	0.5849
3407	0.5832
3416	0.582
3425	0.5808
3434	0.5796
3443	0.5786
3452	0.578
3461	0.5775
3470	0.577
3479	0.5767
3488	0.5765
3497	0.5762
3506	0.576
3515	0.5757
3524	0.5754
3533	0.5751
3542	0.5748
3551	0.5745
3560	0.5742
3569	0.5731
3578	0.572
3587	0.5708
3596	0.5697
3605	0.5686
3614	0.5676
3623	0.5663
3632	0.565
3641	0.5637
3650	0.5624
3659	0.5611
3668	0.5598
3677	0.5586
3686	0.5573
3695	0.5561
3704	0.5549
3713	0.5537
3722	0.5526
3731	0.5516
3740	0.5506
3749	0.5496
3758	0.5486
3767	0.5476
3776	0.5466
3785	0.5457
3794	0.5447
3803	0.5437
3812	0.5427
3821	0.5414
3830	0.5401
3839	0.5388
3848	0.5374
3857	0.5353
3866	0.5331
3875	0.5309
3884	0.5287
3893	0.5264
3902	0.524
3911	0.5216
3920	0.5192
3929	0.5165
3938	0.5135
3947	0.5104
3956	0.5073
3965	0.5043
3974	0.5013
3983	0.4983
3992	0.4957
