Infrared Spectrum: CALCIUM DICHROMATE
Formula: Ca Cr2 O7  * 3 H2 O
State: SOLID (NUJOL MULL)
Class: COBLENTZ
Instrument: Not specified, most likely a prism, grating, or hybrid spectrometer.
Sampling: TRANSMISSION
Resolution: 4
Origin: MELLON INSTITUTE
MICROMETERS	TRANSMITTANCE
2.036	0.643
2.07702	0.653
2.11804	0.662
2.15906	0.672
2.20008	0.68
2.2411	0.687
2.28212	0.692
2.32314	0.692
2.36416	0.698
2.40518	0.704
2.4462	0.713
2.48722	0.723
2.52825	0.732
2.56927	0.74
2.61029	0.747
2.65131	0.756
2.69233	0.763
2.73335	0.763
2.77437	0.715
2.81539	0.566
2.85641	0.48
2.89743	0.463
2.93845	0.473
2.97947	0.519
3.02049	0.559
3.06151	0.598
3.10253	0.615
3.14355	0.634
3.18457	0.658
3.22559	0.68
3.26661	0.686
3.30763	0.598
3.34865	0.243
3.38967	0.072
3.4307	0.216
3.47172	0.192
3.51274	0.524
3.55376	0.753
3.59478	0.799
3.6358	0.809
3.67682	0.814
3.71784	0.819
3.75886	0.826
3.79988	0.83
3.8409	0.835
3.88192	0.843
3.92294	0.854
3.96396	0.861
4.00498	0.866
4.046	0.869
4.08702	0.873
4.12804	0.874
4.16906	0.876
4.21008	0.876
4.2511	0.878
4.29212	0.879
4.33315	0.879
4.37417	0.881
4.41519	0.881
4.45621	0.883
4.49723	0.883
4.53825	0.886
4.57927	0.885
4.62029	0.888
4.66131	0.891
4.70233	0.893
4.74335	0.895
4.78437	0.897
4.82539	0.898
4.86641	0.902
4.90743	0.902
4.94845	0.903
4.98947	0.907
5.03049	0.909
5.07151	0.91
5.11253	0.914
5.15355	0.914
5.19457	0.915
5.2356	0.919
5.27662	0.919
5.31764	0.921
5.35866	0.919
5.39968	0.919
5.4407	0.921
5.48172	0.922
5.52274	0.922
5.56376	0.924
5.60478	0.927
5.6458	0.933
5.68682	0.934
5.72784	0.936
5.76886	0.939
5.80988	0.941
5.8509	0.943
5.89192	0.95
5.93294	0.95
5.97396	0.95
6.01498	0.933
6.056	0.897
6.09702	0.787
6.13805	0.727
6.17907	0.732
6.22009	0.807
6.26111	0.883
6.30213	0.903
6.34315	0.917
6.38417	0.924
6.42519	0.929
6.46621	0.933
6.50723	0.934
6.54825	0.936
6.58927	0.939
6.63029	0.939
6.67131	0.938
6.71233	0.926
6.75335	0.857
6.79437	0.756
6.83539	0.557
6.87641	0.531
6.91743	0.636
6.95845	0.782
6.99947	0.855
7.04049	0.888
7.08152	0.914
7.12254	0.922
7.16356	0.912
7.20458	0.845
7.2456	0.706
7.28662	0.766
7.32764	0.809
7.36866	0.855
7.40968	0.881
7.4507	0.895
7.49172	0.903
7.53274	0.912
7.57376	0.914
7.61478	0.914
7.6558	0.91
7.69682	0.91
7.73784	0.914
7.77886	0.917
7.81988	0.924
7.8609	0.926
7.90192	0.927
7.94294	0.929
7.98397	0.933
8.02499	0.933
8.06601	0.936
8.10703	0.939
8.14805	0.941
8.18907	0.941
8.23009	0.941
8.27111	0.945
8.31213	0.945
8.35315	0.948
8.39417	0.946
8.43519	0.95
8.47621	0.948
8.51723	0.946
8.55825	0.943
8.59927	0.938
8.64029	0.933
8.68131	0.927
8.72233	0.924
8.76335	0.922
8.80437	0.924
8.84539	0.924
8.88642	0.926
8.92744	0.922
8.96846	0.917
9.00948	0.915
9.0505	0.912
9.09152	0.91
9.13254	0.91
9.17356	0.91
9.21458	0.91
9.2556	0.91
9.29662	0.909
9.33764	0.907
9.37866	0.905
9.41968	0.903
9.4607	0.902
9.50172	0.898
9.54274	0.897
9.58376	0.893
9.62478	0.89
9.6658	0.886
9.70682	0.883
9.74784	0.881
9.78887	0.874
9.82989	0.871
9.87091	0.857
9.91193	0.847
9.95295	0.833
9.99397	0.807
10.035	0.773
10.076	0.715
10.117	0.656
10.158	0.595
10.1991	0.547
10.2401	0.502
10.2811	0.459
10.3221	0.427
10.3632	0.387
10.4042	0.356
10.4452	0.327
10.4862	0.293
10.5272	0.267
10.5683	0.253
10.6093	0.252
10.6503	0.252
10.6913	0.253
10.7323	0.264
10.7734	0.317
10.8144	0.385
10.8554	0.445
10.8964	0.464
10.9374	0.475
10.9785	0.473
11.0195	0.451
11.0605	0.401
11.1015	0.368
11.1425	0.372
11.1836	0.387
11.2246	0.408
11.2656	0.427
11.3066	0.451
11.3476	0.469
11.3887	0.487
11.4297	0.507
11.4707	0.523
11.5117	0.531
11.5527	0.535
11.5938	0.531
11.6348	0.524
11.6758	0.511
11.7168	0.497
11.7578	0.487
11.7989	0.476
11.8399	0.468
11.8809	0.461
11.9219	0.452
11.9629	0.451
12.004	0.449
12.045	0.447
12.086	0.447
12.127	0.451
12.1681	0.454
12.2091	0.459
12.2501	0.464
12.2911	0.475
12.3321	0.483
12.3732	0.493
12.4142	0.502
12.4552	0.514
12.4962	0.526
12.5372	0.536
12.5783	0.543
12.6193	0.554
12.6603	0.564
12.7013	0.578
12.7423	0.588
12.7834	0.6
12.8244	0.607
12.8654	0.617
12.9064	0.627
12.9474	0.634
12.9885	0.641
13.0295	0.648
13.0705	0.651
13.1115	0.66
13.1525	0.665
13.1936	0.672
13.2346	0.675
13.2756	0.679
13.3166	0.68
13.3576	0.682
13.3987	0.684
13.4397	0.687
13.4807	0.689
13.5217	0.691
13.5627	0.691
13.6038	0.691
13.6448	0.691
13.6858	0.691
13.7268	0.689
13.7678	0.687
13.8089	0.686
13.8499	0.687
13.8909	0.689
13.9319	0.692
13.973	0.698
14.014	0.703
14.055	0.703
14.096	0.704
14.137	0.71
14.1781	0.711
14.2191	0.715
14.2601	0.716
14.3011	0.716
14.3421	0.715
14.3832	0.713
14.4242	0.711
14.4652	0.711
14.5062	0.706
14.5472	0.701
14.5883	0.699
14.6293	0.694
14.6703	0.691
14.7113	0.687
14.7523	0.684
14.7934	0.68
14.8344	0.677
14.8754	0.67
14.9164	0.665
14.9574	0.662
14.9985	0.662
15.0395	0.658
15.0805	0.653
15.1215	0.651
15.1625	0.65
15.2036	0.646
15.2446	0.644
15.2856	0.641
15.3266	0.639
15.3676	0.638
15.4087	0.632
15.4497	0.631
15.4907	0.629
15.5317	0.624
15.5727	0.62
15.6138	0.617
15.6548	0.614
15.6958	0.614
15.7368	0.61
15.7779	0.608
15.8189	0.605
15.8599	0.603
15.9009	0.602
15.9419	0.602
15.983	0.602
