Infrared Spectrum: AMMONIUM METAVANADATE
Formula: N H4 V O3
State: SOLID (NUJOL MULL)
Class: COBLENTZ
Instrument: Not specified, most likely a prism, grating, or hybrid spectrometer.
Sampling: TRANSMISSION
Resolution: 4
Origin: MELLON INSTITUTE
MICROMETERS	TRANSMITTANCE
2.011	0.67
2.05192	0.678
2.09283	0.685
2.13375	0.695
2.17467	0.702
2.21559	0.709
2.2565	0.714
2.29742	0.723
2.33834	0.733
2.37925	0.742
2.42017	0.75
2.46109	0.761
2.502	0.773
2.54292	0.781
2.58384	0.79
2.62476	0.798
2.66567	0.804
2.70659	0.81
2.74751	0.816
2.78842	0.821
2.82934	0.823
2.87026	0.823
2.91117	0.824
2.95209	0.826
2.99301	0.826
3.03393	0.792
3.07484	0.668
3.11576	0.4
3.15668	0.378
3.19759	0.52
3.23851	0.567
3.27943	0.546
3.32034	0.479
3.36126	0.307
3.40218	0.121
3.4431	0.262
3.48401	0.273
3.52493	0.419
3.56585	0.542
3.60676	0.603
3.64768	0.664
3.6886	0.719
3.72951	0.75
3.77043	0.776
3.81135	0.795
3.85227	0.807
3.89318	0.823
3.9341	0.838
3.97502	0.848
4.01593	0.86
4.05685	0.867
4.09777	0.876
4.13868	0.884
4.1796	0.888
4.22052	0.893
4.26144	0.896
4.30235	0.9
4.34327	0.9
4.38419	0.902
4.4251	0.903
4.46602	0.905
4.50694	0.907
4.54785	0.908
4.58877	0.91
4.62969	0.91
4.67061	0.914
4.71152	0.914
4.75244	0.915
4.79336	0.917
4.83427	0.919
4.87519	0.919
4.91611	0.92
4.95703	0.919
4.99794	0.92
5.03886	0.92
5.07978	0.92
5.12069	0.92
5.16161	0.922
5.20253	0.924
5.24344	0.926
5.28436	0.927
5.32528	0.931
5.3662	0.936
5.40711	0.939
5.44803	0.938
5.48895	0.938
5.52986	0.936
5.57078	0.931
5.6117	0.931
5.65261	0.929
5.69353	0.926
5.73445	0.926
5.77537	0.924
5.81628	0.924
5.8572	0.926
5.89812	0.931
5.93903	0.932
5.97995	0.936
6.02087	0.938
6.06178	0.941
6.1027	0.948
6.14362	0.957
6.18454	0.965
6.22545	0.972
6.26637	0.979
6.30729	0.979
6.3482	0.977
6.38912	0.979
6.43004	0.979
6.47095	0.979
6.51187	0.975
6.55279	0.975
6.59371	0.97
6.63462	0.969
6.67554	0.965
6.71646	0.96
6.75737	0.951
6.79829	0.859
6.83921	0.709
6.88012	0.676
6.92104	0.675
6.96196	0.592
7.00288	0.424
7.04379	0.252
7.08471	0.221
7.12563	0.455
7.16654	0.618
7.20746	0.711
7.24838	0.704
7.2893	0.759
7.33021	0.824
7.37113	0.871
7.41205	0.902
7.45296	0.915
7.49388	0.929
7.5348	0.936
7.57571	0.945
7.61663	0.951
7.65755	0.955
7.69847	0.958
7.73938	0.963
7.7803	0.969
7.82122	0.972
7.86213	0.975
7.90305	0.979
7.94397	0.982
7.98488	0.984
8.0258	0.986
8.06672	0.987
8.10764	0.989
8.14855	0.993
8.18947	0.996
8.23039	0.998
8.2713	0.998
8.31222	0.996
8.35314	0.996
8.39405	0.996
8.43497	0.994
8.47589	0.994
8.51681	0.993
8.55772	0.991
8.59864	0.989
8.63956	0.987
8.68047	0.986
8.72139	0.984
8.76231	0.984
8.80322	0.984
8.84414	0.986
8.88506	0.986
8.92598	0.986
8.96689	0.987
9.00781	0.989
9.04873	0.989
9.08964	0.989
9.13056	0.989
9.17148	0.991
9.21239	0.991
9.25331	0.991
9.29423	0.991
9.33515	0.991
9.37606	0.993
9.41698	0.993
9.4579	0.993
9.49881	0.994
9.53973	0.993
9.58065	0.993
9.62156	0.991
9.66248	0.991
9.7034	0.991
9.74432	0.989
9.78523	0.991
9.82615	0.991
9.86707	0.991
9.90798	0.991
9.9489	0.991
9.98982	0.991
10.0307	0.987
10.0717	0.982
10.1126	0.975
10.1535	0.967
10.1944	0.962
10.2353	0.953
10.2762	0.943
10.3172	0.929
10.3581	0.893
10.399	0.843
10.4399	0.754
10.4808	0.67
10.5217	0.558
10.5627	0.477
10.6036	0.445
10.6445	0.432
10.6854	0.426
10.7263	0.422
10.7672	0.42
10.8082	0.427
10.8491	0.445
10.89	0.465
10.9309	0.477
10.9718	0.475
11.0127	0.439
11.0537	0.414
11.0946	0.383
11.1355	0.345
11.1764	0.319
11.2173	0.305
11.2582	0.305
11.2992	0.324
11.3401	0.386
11.381	0.491
11.4219	0.572
11.4628	0.606
11.5037	0.62
11.5447	0.604
11.5856	0.56
11.6265	0.506
11.6674	0.465
11.7083	0.424
11.7492	0.405
11.7902	0.393
11.8311	0.386
11.872	0.386
11.9129	0.402
11.9538	0.429
11.9948	0.457
12.0357	0.498
12.0766	0.554
12.1175	0.604
12.1584	0.663
12.1993	0.702
12.2403	0.731
12.2812	0.752
12.3221	0.766
12.363	0.783
12.4039	0.797
12.4448	0.805
12.4858	0.807
12.5267	0.814
12.5676	0.814
12.6085	0.814
12.6494	0.807
12.6903	0.802
12.7313	0.795
12.7722	0.783
12.8131	0.773
12.854	0.761
12.8949	0.745
12.9358	0.728
12.9768	0.714
13.0177	0.689
13.0586	0.666
13.0995	0.649
13.1404	0.634
13.1813	0.615
13.2223	0.592
13.2632	0.572
13.3041	0.558
13.345	0.541
13.3859	0.525
13.4268	0.506
13.4678	0.496
13.5087	0.479
13.5496	0.462
13.5905	0.445
13.6314	0.426
13.6723	0.405
13.7133	0.395
13.7542	0.379
13.7951	0.365
13.836	0.353
13.8769	0.345
13.9179	0.335
13.9588	0.326
13.9997	0.314
14.0406	0.305
14.0815	0.302
14.1224	0.297
14.1634	0.292
14.2043	0.288
14.2452	0.285
14.2861	0.283
14.327	0.281
14.3679	0.278
14.4089	0.276
14.4498	0.276
14.4907	0.278
14.5316	0.278
14.5725	0.278
14.6134	0.28
14.6544	0.283
14.6953	0.288
14.7362	0.295
14.7771	0.3
14.818	0.304
14.8589	0.312
14.8999	0.319
14.9408	0.324
14.9817	0.333
15.0226	0.336
15.0635	0.35
15.1044	0.357
15.1454	0.367
15.1863	0.376
15.2272	0.388
15.2681	0.402
15.309	0.41
15.3499	0.426
15.3909	0.434
15.4318	0.446
15.4727	0.455
15.5136	0.465
15.5545	0.477
15.5954	0.486
15.6364	0.496
15.6773	0.503
15.7182	0.512
15.7591	0.52
15.8	0.527
15.841	0.532
15.8819	0.537
15.9228	0.542
15.9637	0.546
