Infrared Spectrum: N,N'-DI-Beta-NAPHTHYL-P-PHENYLENE DIAMINE
Formula: C26 H20 N2
State: SOLID (0.99% IN KBr DISC)
Class: COBLENTZ
Instrument: PERKIN-ELMER (GRATING)
Sampling: TRANSMISSION
Path length: 0.040 CM
Resolution: 4
Origin: US INDUSTRIAL CHEMICALS COMPANY, CINCINNATI, OHIO
1/CM	TRANSMITTANCE
602.859	0.746
612.151	0.729
621.443	0.736
630.734	0.73
640.026	0.671
649.318	0.769
658.61	0.785
667.901	0.79
677.193	0.788
686.485	0.79
695.777	0.788
705.068	0.781
714.36	0.768
723.652	0.736
732.944	0.323
742.235	0.358
751.527	0.4768
760.819	0.6799
770.111	0.739
779.402	0.737
788.694	0.673
797.986	0.546
807.278	0.099
816.569	0.3179
825.861	0.328
835.153	0.346
844.445	0.307
853.736	0.3509
863.028	0.708
872.32	0.575
881.612	0.754
890.903	0.783
900.195	0.788
909.487	0.785
918.779	0.785
928.07	0.78
937.362	0.72
946.654	0.585
955.946	0.6198
965.237	0.7849
974.529	0.81
983.821	0.807
993.113	0.798
1002.4	0.766
1011.7	0.663
1020.99	0.807
1030.28	0.812
1039.57	0.812
1048.86	0.812
1058.15	0.813
1067.45	0.812
1076.74	0.807
1086.03	0.802
1095.32	0.79
1104.61	0.737
1113.91	0.627
1123.2	0.5267
1132.49	0.744
1141.78	0.686
1151.07	0.725
1160.36	0.722
1169.66	0.648
1178.95	0.483
1188.24	0.734
1197.53	0.715
1206.82	0.622
1216.11	0.588
1225.41	0.5021
1234.7	0.3058
1243.99	0.653
1253.28	0.661
1262.57	0.541
1271.87	0.549
1281.16	0.357
1290.45	0.113
1299.74	0.077
1309.03	0.2569
1318.32	0.453
1327.62	0.505
1336.91	0.5339
1346.2	0.622
1355.49	0.62
1364.78	0.642
1374.07	0.686
1383.37	0.692
1392.66	0.61
1401.95	0.4558
1411.24	0.744
1420.53	0.737
1429.83	0.688
1439.12	0.642
1448.41	0.671
1457.7	0.531
1466.99	0.583
1476.28	0.582
1485.58	0.3131
1494.87	0.074
1504.16	0.049
1513.45	0.103
1522.74	0.103
1532.03	0.338
1541.33	0.653
1550.62	0.649
1559.91	0.627
1569.2	0.57
1578.49	0.563
1587.78	0.438
1597.08	0.118
1606.37	0.399
1615.66	0.174
1624.95	0.0941
1634.24	0.59
1643.54	0.727
1652.83	0.763
1662.12	0.781
1671.41	0.793
1680.7	0.803
1689.99	0.808
1699.29	0.817
1708.58	0.822
1717.87	0.825
1727.16	0.832
1736.45	0.837
1745.74	0.837
1755.04	0.842
1764.33	0.849
1773.62	0.852
1782.91	0.856
1792.2	0.857
1801.5	0.859
1810.79	0.859
1820.08	0.862
1829.37	0.862
1838.66	0.862
1847.95	0.864
1857.25	0.857
1866.54	0.849
1875.83	0.851
1885.12	0.846
1894.41	0.842
1903.7	0.842
1913	0.84
1922.29	0.846
1931.58	0.851
1940.87	0.852
1950.16	0.871
1959.46	0.881
1968.75	0.884
1978.04	0.884
1987.33	0.883
1996.62	0.893
2005.91	0.898
2015.21	0.9
2024.5	0.901
2033.79	0.901
2043.08	0.901
2052.37	0.903
2061.66	0.903
2070.96	0.903
2080.25	0.903
2089.54	0.903
2098.83	0.903
2108.12	0.903
2117.41	0.905
2126.71	0.9055
2136	0.906
2145.29	0.906
2154.58	0.906
2163.87	0.906
2173.17	0.906
2182.46	0.906
2191.75	0.906
2201.04	0.905
2210.33	0.903
2219.62	0.903
2228.92	0.901
2238.21	0.9005
2247.5	0.9
2256.79	0.898
2266.08	0.896
2275.37	0.8955
2284.67	0.8945
2293.96	0.893
2303.25	0.8915
2312.54	0.893
2321.83	0.891
2331.13	0.891
2340.42	0.888
2349.71	0.888
2359	0.888
2368.29	0.888
2377.58	0.888
2386.88	0.888
2396.17	0.888
2405.46	0.888
2414.75	0.888
2424.04	0.885
2433.33	0.8837
2442.63	0.881
2451.92	0.879
2461.21	0.878
2470.5	0.876
2479.79	0.874
2489.09	0.874
2498.38	0.874
2507.67	0.874
2516.96	0.874
2526.25	0.874
2535.54	0.874
2544.84	0.874
2554.13	0.874
2563.42	0.874
2572.71	0.874
2582	0.874
2591.29	0.873
2600.59	0.873
2609.88	0.873
2619.17	0.873
2628.46	0.873
2637.75	0.871
2647.05	0.869
2656.34	0.868
2665.63	0.868
2674.92	0.868
2684.21	0.868
2693.5	0.8675
2702.8	0.864
2712.09	0.862
2721.38	0.861
2730.67	0.862
2739.96	0.862
2749.25	0.861
2758.55	0.861
2767.84	0.859
2777.13	0.8589
2786.42	0.8562
2795.71	0.8515
2805	0.847
2814.3	0.8439
2823.59	0.842
2832.88	0.836
2842.17	0.8236
2851.46	0.8221
2860.76	0.8266
2870.05	0.8245
2879.34	0.8194
2888.63	0.8169
2897.92	0.8057
2907.21	0.7838
2916.51	0.771
2925.8	0.7711
2935.09	0.7776
2944.38	0.7759
2953.67	0.774
2962.96	0.7761
2972.26	0.78
2981.55	0.7789
2990.84	0.7737
3000.13	0.7334
3009.42	0.6649
3018.72	0.6687
3028.01	0.6347
3037.3	0.4631
3046.59	0.5238
3055.88	0.6077
3065.17	0.7255
3074.47	0.7761
3083.76	0.792
3093.05	0.8011
3102.34	0.8036
3111.63	0.807
3120.92	0.808
3130.22	0.808
3139.51	0.807
3148.8	0.8069
3158.09	0.8034
3167.38	0.7989
3176.68	0.7944
3185.97	0.7899
3195.26	0.7852
3204.55	0.7805
3213.84	0.7737
3223.13	0.769
3232.43	0.7644
3241.72	0.7599
3251.01	0.7554
3260.3	0.7469
3269.59	0.7366
3278.88	0.7223
3288.18	0.7062
3297.47	0.6897
3306.76	0.6663
3316.05	0.6338
3325.34	0.5741
3334.63	0.4762
3343.93	0.3601
3353.22	0.2507
3362.51	0.1732
3371.8	0.15
3381.09	0.2332
3390.39	0.4177
3399.68	0.5811
3408.97	0.6487
3418.26	0.6804
3427.55	0.688
3436.84	0.6942
3446.14	0.7001
3455.43	0.7066
3464.72	0.7122
3474.01	0.7193
3483.3	0.724
3492.59	0.7248
3501.89	0.727
3511.18	0.7332
3520.47	0.7412
3529.76	0.7468
3539.05	0.7553
3548.35	0.766
3557.64	0.7712
3566.93	0.7842
3576.22	0.7938
3585.51	0.803
3594.8	0.8031
3604.1	0.8094
3613.39	0.8167
3622.68	0.8226
3631.97	0.827
3641.26	0.8286
3650.55	0.8296
3659.85	0.83
3669.14	0.83
3678.43	0.83
3687.72	0.829
3697.01	0.829
3706.31	0.8269
3715.6	0.824
3724.89	0.824
3734.18	0.818
3743.47	0.817
3752.76	0.8154
3762.06	0.813
3771.35	0.812
3780.64	0.813
3789.93	0.813
3799.22	0.813
3808.51	0.813
3817.81	0.812
3827.1	0.81
3836.39	0.81
3845.68	0.81
3854.97	0.81
3864.26	0.81
3873.56	0.81
3882.85	0.81
3892.14	0.81
3901.43	0.81
3910.72	0.808
3920.02	0.807
3929.31	0.805
3938.6	0.805
3947.89	0.8039
3957.18	0.803
3966.47	0.803
3975.77	0.803
3985.06	0.803
