Infrared Spectrum: Dimethylamine, N-nitroso-, d6
Formula: C2 N2 O D6
State: LIQUID (NEAT)
Class: COBLENTZ III
Instrument: PERKIN-ELMER 180 (GRATING)
Instrument parameters: GRATINGS: 2000, 1000, 500, 250 CM^-^1; FILTER CHANGE: 2970, 2000, 1485, 1000, 743, 500, 372, 250, 186 CM^-^1.
Sampling: TRANSMISSION
Path length: 0.001 CM
Resolution: 2
Origin: K. K. DEB-NCI FREDERICK CANCER RESEARCH CENTER
1/CM	TRANSMITTANCE
305	0.0959
314	0.1131
323	0.118
332	0.1463
341	0.1603
350	0.2588
359	0.3439
368	0.4182
377	0.4644
386	0.4985
395	0.5369
404	0.5912
413	0.6237
422	0.6526
431	0.6793
440	0.6979
449	0.7154
458	0.7321
467	0.7455
476	0.7599
485	0.7709
494	0.7782
503	0.7809
512	0.7809
521	0.7862
530	0.7938
539	0.7982
548	0.8005
557	0.8024
566	0.8039
575	0.8034
584	0.8023
593	0.801
602	0.8022
611	0.8063
620	0.7949
629	0.741
638	0.4068
647	0.503
656	0.7422
665	0.7934
674	0.8185
683	0.8294
692	0.8334
701	0.8362
710	0.836
719	0.8343
728	0.8317
737	0.8301
746	0.8236
755	0.7874
764	0.7612
773	0.783
782	0.7888
791	0.7887
800	0.7824
809	0.7685
818	0.7402
827	0.6428
836	0.6972
845	0.742
854	0.7469
863	0.7395
872	0.7185
881	0.6682
890	0.5461
899	0.3707
908	0.0324
917	0.1433
926	0.399
935	0.5942
944	0.6727
953	0.6912
962	0.7253
971	0.7312
980	0.7317
989	0.7312
998	0.7269
1007	0.7131
1016	0.6738
1025	0.6073
1034	0.5049
1043	0.3989
1052	0.3172
1061	0.4041
1070	0.5351
1079	0.5626
1088	0.4786
1097	0.3283
1106	0.2918
1115	0.6165
1124	0.6935
1133	0.7292
1142	0.7594
1151	0.7792
1160	0.7941
1169	0.8018
1178	0.8033
1187	0.8007
1196	0.7925
1205	0.7736
1214	0.7391
1223	0.6882
1232	0.6197
1241	0.542
1250	0.4234
1259	0.285
1268	0.1436
1277	0.0265
1286	0
1295	0.0025
1304	0.0006
1313	0.0144
1322	0.1091
1331	0.2412
1340	0.3734
1349	0.5103
1358	0.5689
1367	0.5753
1376	0.4799
1385	0.3017
1394	0.1209
1403	0.0144
1412	0.0051
1421	0.0073
1430	0.0076
1439	0.1666
1448	0.2982
1457	0.5033
1466	0.6448
1475	0.7323
1484	0.7848
1493	0.8194
1502	0.8331
1511	0.8404
1520	0.8465
1529	0.8475
1538	0.8368
1547	0.8275
1556	0.8402
1565	0.8572
1574	0.8595
1583	0.8518
1592	0.8399
1601	0.8207
1610	0.7986
1619	0.7739
1628	0.7527
1637	0.7432
1646	0.7569
1655	0.7821
1664	0.8057
1673	0.8409
1682	0.8626
1691	0.8723
1700	0.875
1709	0.8745
1718	0.8714
1727	0.8664
1736	0.864
1745	0.8687
1754	0.8747
1763	0.8799
1772	0.8855
1781	0.8908
1790	0.8915
1799	0.885
1808	0.8756
1817	0.8668
1826	0.8675
1835	0.8816
1844	0.8837
1853	0.884
1862	0.8798
1871	0.8721
1880	0.8715
1889	0.8712
1898	0.8665
1907	0.8641
1916	0.8582
1925	0.8472
1934	0.8437
1943	0.8494
1952	0.8572
1961	0.8637
1970	0.8701
1979	0.8776
1988	0.8801
1997	0.8782
2006	0.8727
2015	0.8692
2024	0.8634
2033	0.852
2042	0.8342
2051	0.7883
2060	0.6869
2069	0.5939
2078	0.6142
2087	0.7206
2096	0.7101
2105	0.679
2114	0.664
2123	0.7133
2132	0.7608
2141	0.7523
2150	0.7367
2159	0.7652
2168	0.7639
2177	0.7132
2186	0.6828
2195	0.7196
2204	0.7163
2213	0.69
2222	0.6533
2231	0.6058
2240	0.6121
2249	0.7227
2258	0.7594
2267	0.7856
2276	0.8159
2285	0.8363
2294	0.8458
2303	0.8507
2312	0.8536
2321	0.8557
2330	0.8582
2339	0.864
2348	0.8697
2357	0.8736
2366	0.8754
2375	0.8798
2384	0.8799
2393	0.8787
2402	0.8833
2411	0.8874
2420	0.8913
2429	0.8934
2438	0.8948
2447	0.895
2456	0.8948
2465	0.8944
2474	0.8933
2483	0.8922
2492	0.8911
2501	0.8899
2510	0.8887
2519	0.8871
2528	0.8854
2537	0.8828
2546	0.8796
2555	0.876
2564	0.8725
2573	0.8702
2582	0.8736
2591	0.8795
2600	0.8858
2609	0.8922
2618	0.8977
2627	0.9006
2636	0.9007
2645	0.8989
2654	0.8949
2663	0.8903
2672	0.8847
2681	0.8768
2690	0.868
2699	0.852
2708	0.8359
2717	0.8238
2726	0.8458
2735	0.8867
2744	0.8954
2753	0.8939
2762	0.8877
2771	0.8799
2780	0.8697
2789	0.8503
2798	0.8286
2807	0.8074
2816	0.8003
2825	0.8081
2834	0.8291
2843	0.85
2852	0.8662
2861	0.8792
2870	0.8872
2879	0.8934
2888	0.8978
2897	0.8983
2906	0.8972
2915	0.8942
2924	0.8914
2933	0.8888
2942	0.8898
2951	0.8921
2960	0.8943
2969	0.8953
2978	0.896
2987	0.8967
2996	0.897
3005	0.8972
3014	0.8969
3023	0.8966
3032	0.896
3041	0.8953
3050	0.8942
3059	0.8931
3068	0.8918
3077	0.8905
3086	0.8896
3095	0.8894
3104	0.8893
3113	0.8888
3122	0.8876
3131	0.8864
3140	0.8845
3149	0.8827
3158	0.8809
3167	0.88
3176	0.8792
3185	0.8781
3194	0.8764
3203	0.8727
3212	0.869
3221	0.8642
3230	0.8594
3239	0.8541
3248	0.848
3257	0.8417
3266	0.8346
3275	0.8275
3284	0.8215
3293	0.8175
3302	0.8168
3311	0.8198
3320	0.8267
3329	0.8241
3338	0.8203
3347	0.816
3356	0.8088
3365	0.8006
3374	0.7922
3383	0.7817
3392	0.7714
3401	0.7607
3410	0.7487
3419	0.7375
3428	0.7256
3437	0.7115
3446	0.6976
3455	0.6837
3464	0.6729
3473	0.6637
3482	0.6618
3491	0.6609
3500	0.6605
3509	0.6605
3518	0.6611
3527	0.6615
3536	0.6612
3545	0.6601
3554	0.6565
3563	0.6509
3572	0.6464
3581	0.6451
3590	0.6458
3599	0.6504
3608	0.6629
3617	0.6826
3626	0.7045
3635	0.7275
3644	0.7533
3653	0.7942
3662	0.8351
3671	0.8609
3680	0.8819
3689	0.896
3698	0.9042
3707	0.909
3716	0.9124
3725	0.9148
3734	0.9158
3743	0.9163
3752	0.9165
3761	0.9159
3770	0.9148
3779	0.9136
3788	0.9128
