Infrared Spectrum: L-LYSINE MONOHYDROCHLORIDE
Formula: C6 H15 Cl N2 O2
State: SOLID (MULL, KBr PLATES)
Melting point: 263-264 C
Class: COBLENTZ III
Instrument: PERKIN-ELMER 521 (GRATING)
Instrument parameters: ORDER CHANGES: 1999, 690 CM^-^1
Sampling: TRANSMISSION
Resolution: 2
Origin: SMITH KLINE & FRENCH LABS.
1/CM	TRANSMITTANCE
201.212	0.151
210.909	0.143
220.606	0.128
230.303	0.121
240	0.117
249.697	0.109
259.394	0.099
269.091	0.098
278.788	0.114
288.485	0.097
298.182	0.141
307.879	0.149
317.576	0.174
327.273	0.236
336.97	0.275
346.667	0.399
356.364	0.463
366.061	0.518
375.758	0.586
385.455	0.561
395.152	0.658
404.849	0.669
414.546	0.593
424.243	0.682
433.94	0.634
443.637	0.782
453.334	0.848
463.031	0.854
472.728	0.796
482.425	0.882
492.122	0.901
501.819	0.906
511.516	0.914
521.213	0.912
530.91	0.891
540.607	0.813
550.304	0.679
560.001	0.772
569.698	0.915
579.395	0.942
589.092	0.963
598.789	0.983
608.486	0.985
618.183	0.986
627.88	0.986
637.577	0.987
647.274	0.987
656.971	0.914
666.668	0.954
676.365	0.971
686.062	0.966
695.759	0.877
705.456	0.814
715.153	0.931
724.85	0.906
734.547	0.801
744.244	0.894
753.941	0.969
763.638	0.927
773.335	0.977
783.032	0.945
792.729	0.985
802.426	0.923
812.123	0.99
821.82	0.987
831.517	0.973
841.214	0.954
850.911	0.854
860.608	0.783
870.305	0.948
880.002	0.95
889.699	0.909
899.396	0.84
909.093	0.837
918.79	0.929
928.487	0.883
938.184	0.83
947.881	0.894
957.578	0.83
967.275	0.891
976.972	0.858
986.669	0.853
996.365	0.79
1006.06	0.742
1015.76	0.776
1025.46	0.856
1035.15	0.895
1044.85	0.878
1054.55	0.873
1064.24	0.897
1073.94	0.884
1083.64	0.891
1093.34	0.858
1103.03	0.834
1112.73	0.846
1122.43	0.751
1132.12	0.742
1141.82	0.675
1151.52	0.728
1161.21	0.786
1170.91	0.835
1180.61	0.798
1190.31	0.656
1200	0.8
1209.7	0.854
1219.4	0.84
1229.09	0.83
1238.79	0.769
1248.49	0.807
1258.18	0.781
1267.88	0.782
1277.58	0.743
1287.28	0.639
1296.97	0.724
1306.67	0.634
1316.37	0.531
1326.06	0.5
1335.76	0.49
1345.46	0.54
1355.15	0.528
1364.85	0.506
1374.55	0.346
1384.25	0.4791
1393.94	0.588
1403.64	0.527
1413.34	0.467
1423.03	0.418
1432.73	0.502
1442.43	0.3539
1452.12	0.203
1461.82	0.114
1471.52	0.268
1481.22	0.304
1490.91	0.243
1500.61	0.27
1510.31	0.341
1520	0.37
1529.7	0.3591
1539.4	0.495
1549.09	0.54
1558.79	0.611
1568.49	0.552
1578.19	0.443
1587.88	0.425
1597.58	0.354
1607.28	0.406
1616.97	0.328
1626.67	0.287
1636.37	0.349
1646.06	0.4491
1655.76	0.662
1665.46	0.758
1675.16	0.828
1684.85	0.864
1694.55	0.899
1704.25	0.908
1713.94	0.921
1723.64	0.933
1733.34	0.942
1743.03	0.953
1752.73	0.957
1762.43	0.961
1772.13	0.963
1781.82	0.963
1791.52	0.963
1801.22	0.962
1810.91	0.961
1820.61	0.959
1830.31	0.959
1840	0.955
1849.7	0.951
1859.4	0.948
1869.09	0.944
1878.79	0.941
1888.49	0.937
1898.19	0.936
1907.88	0.926
1917.58	0.92
1927.28	0.911
1936.97	0.901
1946.67	0.893
1956.37	0.888
1966.06	0.885
1975.76	0.881
1985.46	0.877
1995.16	0.867
2004.85	0.866
2014.55	0.8665
2024.25	0.866
2033.94	0.8644
2043.64	0.861
2053.34	0.856
2063.03	0.85
2072.73	0.8463
2082.43	0.8388
2092.13	0.8353
2101.82	0.832
2111.52	0.8378
2121.22	0.8457
2130.91	0.8575
2140.61	0.8659
2150.31	0.8719
2160	0.878
2169.7	0.882
2179.4	0.884
2189.1	0.885
2198.79	0.884
2208.49	0.882
2218.19	0.8808
2227.88	0.8769
2237.58	0.8729
2247.28	0.867
2256.97	0.8636
2266.67	0.8588
2276.37	0.853
2286.07	0.849
2295.76	0.847
2305.46	0.843
2315.16	0.841
2324.85	0.837
2334.55	0.832
2344.25	0.8286
2353.94	0.8195
2363.64	0.8086
2373.34	0.8
2383.04	0.7863
2392.73	0.7764
2402.43	0.7617
2412.13	0.7518
2421.82	0.7487
2431.52	0.7457
2441.22	0.7303
2450.91	0.7233
2460.61	0.7116
2470.31	0.6955
2480.01	0.6652
2489.7	0.6492
2499.4	0.646
2509.1	0.6451
2518.79	0.6331
2528.49	0.6223
2538.19	0.5992
2547.88	0.593
2557.58	0.581
2567.28	0.558
2576.98	0.5317
2586.67	0.5182
2596.37	0.5
2606.07	0.493
2615.76	0.4933
2625.46	0.4798
2635.16	0.4718
2644.85	0.468
2654.55	0.469
2664.25	0.4687
2673.95	0.461
2683.64	0.4372
2693.34	0.4236
2703.04	0.4186
2712.73	0.4061
2722.43	0.3965
2732.13	0.391
2741.82	0.39
2751.52	0.3875
2761.22	0.3733
2770.92	0.361
2780.61	0.3562
2790.31	0.3374
2800.01	0.3203
2809.7	0.2918
2819.4	0.2534
2829.1	0.2135
2838.79	0.1141
2848.49	0.0204
2858.19	0.019
2867.89	0.02
2877.58	0.028
2887.28	0.0202
2896.98	0.0102
2906.67	0.006
2916.37	0.003
2926.07	0.003
2935.76	0.003
2945.46	0.0071
2955.16	0.0131
2964.86	0.0322
2974.55	0.0612
2984.25	0.1358
2993.95	0.1837
3003.64	0.2191
3013.34	0.2369
3023.04	0.2548
3032.73	0.2761
3042.43	0.2953
3052.13	0.317
3061.83	0.3428
3071.52	0.3542
3081.22	0.3879
3090.92	0.3974
3100.61	0.404
3110.31	0.4085
3120.01	0.4085
3129.7	0.407
3139.4	0.4102
3149.1	0.4192
3158.8	0.4482
3168.49	0.4869
3178.19	0.5383
3187.89	0.5667
3197.58	0.606
3207.28	0.6471
3216.98	0.68
3226.67	0.7101
3236.37	0.7526
3246.07	0.7794
3255.77	0.8104
3265.46	0.8337
3275.16	0.85
3284.86	0.866
3294.55	0.882
3304.25	0.895
3313.95	0.902
3323.64	0.902
3333.34	0.902
3343.04	0.902
3352.74	0.902
3362.43	0.8966
3372.13	0.8866
3381.83	0.8803
3391.52	0.877
3401.22	0.8783
3410.92	0.882
3420.61	0.8823
3430.31	0.883
3440.01	0.884
3449.7	0.8859
3459.4	0.889
3469.1	0.8955
3478.8	0.9015
3488.49	0.9075
3498.19	0.9136
3507.89	0.9196
3517.58	0.9236
3527.28	0.926
3536.98	0.929
3546.67	0.932
3556.37	0.9344
3566.07	0.936
3575.77	0.938
3585.46	0.939
3595.16	0.939
3604.86	0.939
3614.55	0.939
3624.25	0.939
3633.95	0.939
3643.64	0.939
3653.34	0.939
3663.04	0.939
3672.74	0.939
3682.43	0.938
3692.13	0.9369
3701.83	0.936
3711.52	0.9359
3721.22	0.935
3730.92	0.935
3740.61	0.935
3750.31	0.9345
3760.01	0.931
3769.71	0.929
3779.4	0.9267
3789.1	0.926
3798.8	0.925
3808.49	0.9236
3818.19	0.921
3827.89	0.92
3837.58	0.919
3847.28	0.918
3856.98	0.917
3866.68	0.914
3876.37	0.9114
3886.07	0.909
3895.77	0.907
3905.46	0.9037
3915.16	0.903
3924.86	0.9013
3934.55	0.9
3944.25	0.8975
3953.95	0.896
3963.65	0.895
3973.34	0.891
3983.04	0.89
3992.74	0.8881
4002.43	0.8889
4012.13	0.8881
