Infrared Spectrum: 1-Naphthaleneacetamide, N-(2-aminoethyl)-, hydrochloride
Formula: C14 H17 Cl N2 O
State: SOLID (SPLIT MULL), FLUOROLUBE FOR 3800-1330 CM^-^1, NUJOL FOR 1330-400 CM^-^1
Melting point: 170 C
Class: COBLENTZ III
Instrument: DOW KBr FOREPRISM-GRATING
Instrument parameters: BLAZED AT 3.5, 12.0, 20.0 MICRON AND CHANGED AT 5.0, 7.5, 14.9 MICRON
Sampling: TRANSMISSION
Resolution: 2
Origin: DOW CHEMICAL COMPANY
1/CM	TRANSMITTANCE
382	0.7131
391	0.7168
400	0.7197
409	0.7228
418	0.7289
427	0.7383
436	0.7495
445	0.7525
454	0.7474
463	0.7374
472	0.7218
481	0.6945
490	0.6427
499	0.6836
508	0.6576
517	0.5747
526	0.6253
535	0.6467
544	0.5739
553	0.6852
562	0.6816
571	0.6652
580	0.6214
589	0.6448
598	0.7363
607	0.7742
616	0.8103
625	0.814
634	0.8411
643	0.8397
652	0.8285
661	0.7945
670	0.8117
679	0.8244
688	0.8519
697	0.8721
706	0.8662
715	0.8206
724	0.7868
733	0.8445
742	0.8366
751	0.885
760	0.8859
769	0.8524
778	0.3949
787	0.5678
796	0.6829
805	0.7917
814	0.8788
823	0.8197
832	0.8681
841	0.8936
850	0.8874
859	0.884
868	0.8147
877	0.8831
886	0.8695
895	0.8632
904	0.8382
913	0.7703
922	0.7125
931	0.8272
940	0.8193
949	0.8427
958	0.831
967	0.8388
976	0.8315
985	0.8298
994	0.8195
1003	0.8258
1012	0.8084
1021	0.7218
1030	0.6605
1039	0.8173
1048	0.8087
1057	0.8234
1066	0.7872
1075	0.7863
1084	0.7702
1093	0.7936
1102	0.834
1111	0.829
1120	0.8189
1129	0.8013
1138	0.7587
1147	0.7372
1156	0.7671
1165	0.6644
1174	0.6761
1183	0.7609
1192	0.7683
1201	0.7635
1210	0.7625
1219	0.7177
1228	0.4387
1237	0.6127
1246	0.7336
1255	0.5492
1264	0.75
1273	0.7186
1282	0.7472
1291	0.724
1300	0.7501
1309	0.7453
1318	0.6968
1327	0.6722
1336	0.6522
1345	0.5186
1354	0.6177
1363	0.5994
1372	0.7245
1381	0.7539
1390	0.7661
1399	0.7378
1408	0.7559
1417	0.6955
1426	0.6533
1435	0.5627
1444	0.648
1453	0.7061
1462	0.779
1471	0.7699
1480	0.7462
1489	0.6853
1498	0.5665
1507	0.4111
1516	0.4892
1525	0.3285
1534	0.216
1543	0.2627
1552	0.4057
1561	0.5373
1570	0.5166
1579	0.5893
1588	0.6987
1597	0.6311
1606	0.6651
1615	0.5695
1624	0.5854
1633	0.6038
1642	0.5218
1651	0.2186
1660	0.0834
1669	0.5029
1678	0.7723
1687	0.8424
1696	0.8631
1705	0.8717
1714	0.876
1723	0.8783
1732	0.8788
1741	0.8812
1750	0.8851
1759	0.8865
1768	0.8873
1777	0.8866
1786	0.8847
1795	0.8801
1804	0.8784
1813	0.8807
1822	0.8829
1831	0.8819
1840	0.8819
1849	0.8812
1858	0.88
1867	0.877
1876	0.8769
1885	0.8778
1894	0.8735
1903	0.8684
1912	0.8616
1921	0.8563
1930	0.8548
1939	0.8553
1948	0.8631
1957	0.8714
1966	0.8628
1975	0.8642
1984	0.8639
1993	0.8608
2002	0.8686
2011	0.8669
2020	0.865
2029	0.8629
2038	0.8606
2047	0.8582
2056	0.8543
2065	0.8503
2074	0.8465
2083	0.8427
2092	0.8394
2101	0.8369
2110	0.8379
2119	0.8397
2128	0.843
2137	0.8464
2146	0.8491
2155	0.8524
2164	0.8542
2173	0.8553
2182	0.8554
2191	0.8552
2200	0.8547
2209	0.8532
2218	0.8518
2227	0.8497
2236	0.8471
2245	0.8445
2254	0.8427
2263	0.8531
2272	0.8369
2281	0.8339
2290	0.8344
2299	0.8345
2308	0.8287
2317	0.8279
2326	0.835
2335	0.8357
2344	0.8349
2353	0.833
2362	0.8311
2371	0.8295
2380	0.8271
2389	0.8245
2398	0.8217
2407	0.8188
2416	0.8151
2425	0.8109
2434	0.8067
2443	0.8025
2452	0.7984
2461	0.7942
2470	0.7902
2479	0.7837
2488	0.7825
2497	0.7818
2506	0.7703
2515	0.7625
2524	0.7636
2533	0.768
2542	0.7722
2551	0.7735
2560	0.7712
2569	0.7661
2578	0.7593
2587	0.7507
2596	0.7411
2605	0.7307
2614	0.7204
2623	0.7113
2632	0.7044
2641	0.7025
2650	0.7017
2659	0.7017
2668	0.6988
2677	0.6876
2686	0.6785
2695	0.6798
2704	0.6799
2713	0.6741
2722	0.6581
2731	0.6437
2740	0.6309
2749	0.6197
2758	0.608
2767	0.5966
2776	0.5929
2785	0.5937
2794	0.592
2803	0.5743
2812	0.5541
2821	0.554
2830	0.5539
2839	0.5507
2848	0.5429
2857	0.5284
2866	0.5139
2875	0.4994
2884	0.4849
2893	0.4704
2902	0.4559
2911	0.4415
2920	0.4291
2929	0.419
2938	0.4159
2947	0.4192
2956	0.4217
2965	0.4105
2974	0.3998
2983	0.3959
2992	0.3796
3001	0.3629
3010	0.3574
3019	0.3554
3028	0.3384
3037	0.3204
3046	0.3228
3055	0.3351
3064	0.3394
3073	0.3543
3082	0.3792
3091	0.3977
3100	0.4203
3109	0.4309
3118	0.4294
3127	0.4288
3136	0.4332
3145	0.4438
3154	0.4604
3163	0.4782
3172	0.4935
3181	0.5065
3190	0.5176
3199	0.5332
3208	0.5488
3217	0.56
3226	0.5628
3235	0.5595
3244	0.5548
3253	0.5413
3262	0.5085
3271	0.4666
3280	0.4249
3289	0.383
3298	0.3413
3307	0.2994
3316	0.2577
3325	0.2268
3334	0.2621
3343	0.3185
3352	0.3227
3361	0.3181
3370	0.3053
3379	0.3001
3388	0.3044
3397	0.3327
3406	0.3809
3415	0.4126
3424	0.4336
3433	0.4372
3442	0.4398
3451	0.4488
3460	0.472
3469	0.5447
3478	0.6111
3487	0.661
3496	0.6886
3505	0.711
3514	0.734
3523	0.7442
3532	0.7483
3541	0.7507
3550	0.7545
3559	0.7612
3568	0.7698
3577	0.78
3586	0.7914
3595	0.8014
3604	0.8063
3613	0.8087
3622	0.81
3631	0.8104
3640	0.8107
3649	0.8106
3658	0.8105
3667	0.8097
3676	0.8061
3685	0.8024
3694	0.8013
3703	0.8002
3712	0.7992
3721	0.798
3730	0.7969
3739	0.7958
3748	0.7947
3757	0.7939
3766	0.7931
3775	0.7923
3784	0.7914
3793	0.79
