Infrared Spectrum: SODIUM ORTHOARSENATE, DIBASIC
Formula: Na2 H As O4  * 7 H2 O
State: SOLID (NUJOL MULL)
Class: COBLENTZ
Instrument: Not specified, most likely a prism, grating, or hybrid spectrometer.
Sampling: TRANSMISSION
Resolution: 4
Origin: MELLON INSTITUTE
MICROMETERS	TRANSMITTANCE
2.017	0.953
2.05794	0.955
2.09889	0.953
2.13983	0.951
2.18078	0.95
2.22172	0.945
2.26266	0.939
2.30361	0.931
2.34455	0.924
2.3855	0.91
2.42644	0.895
2.46739	0.876
2.50833	0.853
2.54927	0.835
2.59022	0.804
2.63116	0.754
2.67211	0.702
2.71305	0.654
2.75399	0.575
2.79494	0.469
2.83588	0.357
2.87683	0.298
2.91777	0.247
2.95872	0.225
2.99966	0.218
3.0406	0.206
3.08155	0.201
3.12249	0.192
3.16344	0.189
3.20438	0.185
3.24532	0.18
3.28627	0.18
3.32721	0.168
3.36816	0.127
3.4091	0.101
3.45004	0.101
3.49099	0.111
3.53193	0.324
3.57288	0.482
3.61382	0.575
3.65477	0.608
3.69571	0.647
3.73665	0.68
3.7776	0.711
3.81854	0.735
3.85949	0.754
3.90043	0.757
3.94137	0.754
3.98232	0.747
4.02326	0.738
4.06421	0.726
4.10515	0.706
4.1461	0.69
4.18704	0.683
4.22798	0.678
4.26893	0.68
4.30987	0.678
4.35082	0.676
4.39176	0.675
4.4327	0.671
4.47365	0.664
4.51459	0.663
4.55554	0.661
4.59648	0.659
4.63743	0.659
4.67837	0.664
4.71931	0.673
4.76026	0.689
4.8012	0.694
4.84215	0.701
4.88309	0.709
4.92403	0.719
4.96498	0.726
5.00592	0.738
5.04687	0.754
5.08781	0.766
5.12875	0.776
5.1697	0.783
5.21064	0.785
5.25159	0.785
5.29253	0.785
5.33348	0.785
5.37442	0.785
5.41536	0.781
5.45631	0.78
5.49725	0.776
5.5382	0.773
5.57914	0.769
5.62008	0.764
5.66103	0.759
5.70197	0.756
5.74292	0.754
5.78386	0.752
5.82481	0.738
5.86575	0.706
5.90669	0.658
5.94764	0.611
5.98858	0.553
6.02953	0.518
6.07047	0.505
6.11141	0.506
6.15236	0.522
6.1933	0.565
6.23425	0.632
6.27519	0.668
6.31613	0.687
6.35708	0.701
6.39802	0.704
6.43897	0.713
6.47991	0.719
6.52086	0.725
6.5618	0.725
6.60274	0.73
6.64369	0.73
6.68463	0.725
6.72558	0.707
6.76652	0.63
6.80746	0.429
6.84841	0.408
6.88935	0.412
6.9303	0.491
6.97124	0.575
7.01219	0.654
7.05313	0.685
7.09407	0.701
7.13502	0.701
7.17596	0.68
7.21691	0.551
7.25785	0.544
7.29879	0.584
7.33974	0.628
7.38068	0.654
7.42163	0.664
7.46257	0.68
7.50351	0.694
7.54446	0.697
7.5854	0.694
7.62635	0.689
7.66729	0.683
7.70824	0.682
7.74918	0.678
7.79012	0.673
7.83107	0.671
7.87201	0.683
7.91296	0.694
7.9539	0.704
7.99484	0.711
8.03579	0.718
8.07673	0.725
8.11768	0.728
8.15862	0.728
8.19957	0.728
8.24051	0.726
8.28145	0.725
8.3224	0.721
8.36334	0.714
8.40429	0.699
8.44523	0.682
8.48617	0.666
8.52712	0.663
8.56806	0.668
8.60901	0.682
8.64995	0.689
8.69089	0.702
8.73184	0.713
8.77278	0.726
8.81373	0.735
8.85467	0.742
8.89562	0.745
8.93656	0.75
8.9775	0.752
9.01845	0.754
9.05939	0.756
9.10034	0.756
9.14128	0.756
9.18222	0.761
9.22317	0.761
9.26411	0.761
9.30506	0.761
9.346	0.759
9.38695	0.759
9.42789	0.757
9.46883	0.756
9.50978	0.756
9.55072	0.756
9.59167	0.756
9.63261	0.75
9.67355	0.747
9.7145	0.747
9.75544	0.745
9.79639	0.742
9.83733	0.737
9.87828	0.733
9.91922	0.723
9.96016	0.714
10.0011	0.706
10.0421	0.697
10.083	0.685
10.1239	0.671
10.1649	0.661
10.2058	0.654
10.2468	0.642
10.2877	0.635
10.3287	0.628
10.3696	0.62
10.4105	0.611
10.4515	0.604
10.4924	0.601
10.5334	0.592
10.5743	0.584
10.6153	0.575
10.6562	0.568
10.6972	0.553
10.7381	0.539
10.779	0.525
10.82	0.508
10.8609	0.487
10.9019	0.472
10.9428	0.451
10.9838	0.431
11.0247	0.408
11.0657	0.374
11.1066	0.35
11.1475	0.324
11.1885	0.297
11.2294	0.262
11.2704	0.233
11.3113	0.199
11.3523	0.17
11.3932	0.149
11.4342	0.13
11.4751	0.113
11.516	0.103
11.557	0.096
11.5979	0.092
11.6389	0.085
11.6798	0.084
11.7208	0.084
11.7617	0.079
11.8026	0.075
11.8436	0.072
11.8845	0.07
11.9255	0.07
11.9664	0.07
12.0074	0.072
12.0483	0.077
12.0893	0.082
12.1302	0.089
12.1711	0.099
12.2121	0.111
12.253	0.128
12.294	0.146
12.3349	0.161
12.3759	0.182
12.4168	0.201
12.4578	0.211
12.4987	0.225
12.5396	0.24
12.5806	0.25
12.6215	0.252
12.6625	0.259
12.7034	0.266
12.7444	0.268
12.7853	0.268
12.8263	0.269
12.8672	0.266
12.9081	0.262
12.9491	0.261
12.99	0.257
13.031	0.254
13.0719	0.254
13.1129	0.252
13.1538	0.247
13.1948	0.245
13.2357	0.24
13.2766	0.238
13.3176	0.235
13.3585	0.233
13.3995	0.235
13.4404	0.235
13.4814	0.231
13.5223	0.226
13.5632	0.221
13.6042	0.214
13.6451	0.202
13.6861	0.199
13.727	0.189
13.768	0.18
13.8089	0.171
13.8499	0.163
13.8908	0.156
13.9317	0.152
13.9727	0.147
14.0136	0.144
14.0546	0.144
14.0955	0.149
14.1365	0.154
14.1774	0.166
14.2184	0.178
14.2593	0.187
14.3002	0.197
14.3412	0.201
14.3821	0.209
14.4231	0.213
14.464	0.221
14.505	0.226
14.5459	0.231
14.5869	0.237
14.6278	0.243
14.6687	0.25
14.7097	0.254
14.7506	0.262
14.7916	0.268
14.8325	0.274
14.8735	0.28
14.9144	0.283
14.9553	0.292
14.9963	0.298
15.0372	0.302
15.0782	0.312
15.1191	0.319
15.1601	0.324
15.201	0.333
15.242	0.341
15.2829	0.35
15.3238	0.36
15.3648	0.369
15.4057	0.374
15.4467	0.386
15.4876	0.395
15.5286	0.405
15.5695	0.414
15.6105	0.42
15.6514	0.427
15.6923	0.438
15.7333	0.446
15.7742	0.455
15.8152	0.465
15.8561	0.474
15.8971	0.482
15.938	0.491
15.979	0.501
