Infrared Spectrum: PURINE, 6-[p-(Beta-CHLOROETHYLTHIO)ANILINO]-
Formula: C13 H12 Cl N5 S
State: SOLID (1.0 mg / 650 mg KBr DISC)
Class: COBLENTZ III
Instrument: PERKIN-ELMER 221 (GRATING)
Instrument parameters: FILTER AT 2490, 980 CM^-^1. GRATING 4000-1428 CM^-^1, NaCl PRISM 1428-650 CM^-^1
Sampling: TRANSMISSION
Resolution: 2
Origin: SOUTHERN RESEARCH INSTITUTE
1/CM	TRANSMITTANCE
635	0.5084
644.016	0.8258
653.032	0.9101
662.048	0.9044
671.064	0.7046
680.08	0.522
689.096	0.536
698.112	0.8182
707.128	0.8811
716.144	0.8855
725.16	0.8192
734.177	0.8206
743.193	0.853
752.209	0.8241
761.225	0.8331
770.241	0.855
779.257	0.7545
788.273	0.6405
797.289	0.5185
806.305	0.7783
815.321	0.6868
824.337	0.5987
833.353	0.4976
842.369	0.6233
851.385	0.7256
860.401	0.7337
869.417	0.7622
878.433	0.7671
887.449	0.7728
896.465	0.745
905.481	0.6911
914.497	0.5287
923.514	0.7106
932.53	0.267
941.546	0.6262
950.562	0.718
959.578	0.9091
968.594	0.9433
977.61	0.977
986.626	0.9958
995.642	0.9559
1004.66	0.9416
1013.67	0.8948
1022.69	0.9103
1031.71	0.9101
1040.72	0.8501
1049.74	0.9089
1058.75	0.8989
1067.77	0.8752
1076.79	0.8273
1085.8	0.77
1094.82	0.8032
1103.83	0.8157
1112.85	0.8144
1121.87	0.7556
1130.88	0.739
1139.9	0.7129
1148.91	0.7746
1157.93	0.7395
1166.95	0.7637
1175.96	0.7371
1184.98	0.6917
1193.99	0.7422
1203.01	0.5681
1212.03	0.4729
1221.04	0.4041
1230.06	0.3925
1239.08	0.4729
1248.09	0.3455
1257.11	0.6075
1266.12	0.6691
1275.14	0.5528
1284.16	0.4239
1293.17	0.1767
1302.19	0.2828
1311.2	0.5552
1320.22	0.4512
1329.24	0.4975
1338.25	0.5238
1347.27	0.3942
1356.28	0.4202
1365.3	0.6075
1374.32	0.6211
1383.33	0.4802
1392.35	0.3924
1401.36	0.2202
1410.38	0.3699
1419.4	0.5211
1428.41	0.489
1437.43	0.3931
1446.44	0.3956
1455.46	0.1982
1464.48	0.1393
1473.49	0.0967
1482.51	0.1375
1491.52	0.1184
1500.54	0.3969
1509.56	0.381
1518.57	0.3099
1527.59	0.4285
1536.6	0.4816
1545.62	0.4382
1554.64	0.2459
1563.65	0.0788
1572.67	0.0821
1581.68	0.0757
1590.7	0.0923
1599.72	0.2075
1608.73	0.037
1617.75	0.0741
1626.77	0.0996
1635.78	0.4106
1644.8	0.4648
1653.81	0.6574
1662.83	0.6964
1671.85	0.8595
1680.86	0.8958
1689.88	0.9068
1698.89	0.902
1707.91	0.9112
1716.93	0.9321
1725.94	0.9272
1734.96	0.9344
1743.97	0.9397
1752.99	0.9484
1762.01	0.9502
1771.02	0.9461
1780.04	0.9379
1789.05	0.9309
1798.07	0.9314
1807.09	0.9351
1816.1	0.9391
1825.12	0.9414
1834.13	0.9405
1843.15	0.9301
1852.17	0.9243
1861.18	0.9185
1870.2	0.9103
1879.21	0.8994
1888.23	0.889
1897.25	0.8848
1906.26	0.8864
1915.28	0.8894
1924.29	0.892
1933.31	0.8922
1942.33	0.8915
1951.34	0.8888
1960.36	0.885
1969.38	0.8817
1978.39	0.8779
1987.41	0.8739
1996.42	0.8689
2005.44	0.8637
2014.46	0.8579
2023.47	0.8518
2032.49	0.8471
2041.5	0.8427
2050.52	0.8373
2059.54	0.8313
2068.55	0.8287
2077.57	0.8266
2086.58	0.8259
2095.6	0.8226
2104.62	0.8172
2113.63	0.8114
2122.65	0.8046
2131.66	0.7972
2140.68	0.7921
2149.7	0.7866
2158.71	0.7801
2167.73	0.7736
2176.74	0.7699
2185.76	0.7687
2194.78	0.7666
2203.79	0.7636
2212.81	0.7579
2221.82	0.7494
2230.84	0.7411
2239.86	0.7332
2248.87	0.725
2257.89	0.7169
2266.9	0.7076
2275.92	0.6971
2284.94	0.6857
2293.95	0.6754
2302.97	0.6639
2311.98	0.6516
2321	0.6408
2330.02	0.6299
2339.03	0.6213
2348.05	0.6138
2357.07	0.6107
2366.08	0.6097
2375.1	0.6085
2384.11	0.6069
2393.13	0.6046
2402.15	0.6003
2411.16	0.5941
2420.18	0.5863
2429.19	0.5773
2438.21	0.5697
2447.23	0.5623
2456.24	0.5545
2465.26	0.5478
2474.27	0.5409
2483.29	0.5093
2492.31	0.5069
2501.32	0.5023
2510.34	0.492
2519.35	0.4811
2528.37	0.4694
2537.39	0.4557
2546.4	0.4424
2555.42	0.4379
2564.43	0.4389
2573.45	0.4415
2582.47	0.4388
2591.48	0.4329
2600.5	0.427
2609.51	0.4216
2618.53	0.4153
2627.55	0.4077
2636.56	0.3968
2645.58	0.3826
2654.59	0.372
2663.61	0.3693
2672.63	0.3692
2681.64	0.3697
2690.66	0.3693
2699.67	0.3632
2708.69	0.3622
2717.71	0.3623
2726.72	0.3629
2735.74	0.3642
2744.76	0.3523
2753.77	0.3366
2762.79	0.3318
2771.8	0.3289
2780.82	0.3283
2789.84	0.33
2798.85	0.3362
2807.87	0.3461
2816.88	0.3688
2825.9	0.3874
2834.92	0.3989
2843.93	0.4073
2852.95	0.416
2861.96	0.4207
2870.98	0.4215
2880	0.404
2889.01	0.3971
2898.03	0.3934
2907.04	0.3892
2916.06	0.3802
2925.08	0.3667
2934.09	0.3612
2943.11	0.3593
2952.12	0.3548
2961.14	0.3593
2970.16	0.3667
2979.17	0.3737
2988.19	0.3803
2997.2	0.3916
3006.22	0.4059
3015.24	0.4095
3024.25	0.4061
3033.27	0.4007
3042.28	0.3866
3051.3	0.3664
3060.32	0.3645
3069.33	0.3694
3078.35	0.3794
3087.36	0.3899
3096.38	0.4022
3105.4	0.4116
3114.41	0.423
3123.43	0.454
3132.45	0.4771
3141.46	0.4842
3150.48	0.4866
3159.49	0.4856
3168.51	0.4834
3177.53	0.4821
3186.54	0.4823
3195.56	0.4821
3204.57	0.4826
3213.59	0.4868
3222.61	0.4932
3231.62	0.4969
3240.64	0.4935
3249.65	0.4858
3258.67	0.4775
3267.69	0.4693
3276.7	0.4612
3285.72	0.4534
3294.73	0.4471
3303.75	0.4444
3312.77	0.4477
3321.78	0.4572
3330.8	0.4669
3339.81	0.4762
3348.83	0.4823
3357.85	0.4867
3366.86	0.4905
3375.88	0.4941
3384.89	0.4976
3393.91	0.5014
3402.93	0.5099
3411.94	0.5168
3420.96	0.5178
3429.97	0.5187
3438.99	0.5208
3448.01	0.522
3457.02	0.5228
3466.04	0.524
3475.05	0.5254
3484.07	0.5271
3493.09	0.529
3502.1	0.5316
3511.12	0.5341
3520.14	0.5369
3529.15	0.5398
3538.17	0.543
3547.18	0.5461
3556.2	0.5492
3565.22	0.5522
3574.23	0.5552
3583.25	0.5578
3592.26	0.5601
3601.28	0.5614
3610.3	0.5624
3619.31	0.5624
3628.33	0.5624
3637.34	0.5622
3646.36	0.5615
3655.38	0.5599
3664.39	0.5577
3673.41	0.5537
3682.42	0.5508
3691.44	0.5493
3700.46	0.548
3709.47	0.5473
3718.49	0.5466
3727.5	0.5457
3736.52	0.544
3745.54	0.5424
3754.55	0.5407
3763.57	0.5391
3772.58	0.5374
3781.6	0.5353
3790.62	0.5332
3799.63	0.5311
3808.65	0.5287
3817.66	0.5259
3826.68	0.5232
3835.7	0.5203
3844.71	0.5175
3853.73	0.5146
3862.75	0.5122
3871.76	0.5099
3880.78	0.5076
3889.79	0.5051
3898.81	0.5024
3907.83	0.4998
3916.84	0.4974
3925.86	0.4955
3934.87	0.4936
3943.89	0.4931
3952.91	0.4925
3961.92	0.4924
3970.94	0.4932
3979.95	0.4946
3988.97	0.4966
3997.99	0.4956
