Infrared Spectrum: AMODIAQUINE HYDROCHLORIDE
Formula: C20 H24 Cl3 N3 O  * 2 H2 O
State: SOLID (1 mg / 200 mg KCl DISC)
Melting point: 150-160 C
Class: COBLENTZ III
Instrument: PERKIN-ELMER 21 (GRATING)
Instrument parameters: FILTER AT ABOUT 10 MICRONS
Sampling: TRANSMISSION
Path length: 0.055 CM (THICKNESS)
Resolution: 2
1/CM	TRANSMITTANCE
4000	0.8581
3991	0.8594
3982	0.8608
3973	0.8622
3964	0.8636
3955	0.865
3946	0.8664
3937	0.8678
3928	0.869
3919	0.8703
3910	0.8717
3901	0.873
3892	0.8745
3883	0.8756
3874	0.8772
3865	0.8786
3856	0.8803
3847	0.882
3838	0.8834
3829	0.885
3820	0.8866
3811	0.8881
3802	0.89
3793	0.8918
3784	0.8939
3775	0.8959
3766	0.8978
3757	0.8998
3748	0.9018
3739	0.9041
3730	0.9066
3721	0.9094
3712	0.912
3703	0.9148
3694	0.9178
3685	0.9207
3676	0.9237
3667	0.9265
3658	0.929
3649	0.9308
3640	0.9318
3631	0.9318
3622	0.9317
3613	0.9307
3604	0.9281
3595	0.9234
3586	0.9139
3577	0.9017
3568	0.8691
3559	0.8461
3550	0.8304
3541	0.8171
3532	0.8031
3523	0.789
3514	0.7726
3505	0.7527
3496	0.7199
3487	0.7037
3478	0.6745
3469	0.6403
3460	0.617
3451	0.5883
3442	0.5402
3433	0.4921
3424	0.4457
3415	0.4304
3406	0.4196
3397	0.4109
3388	0.4104
3379	0.4142
3370	0.4217
3361	0.4281
3352	0.436
3343	0.4458
3334	0.4665
3325	0.4886
3316	0.5109
3307	0.5331
3298	0.549
3289	0.5536
3280	0.5548
3271	0.5538
3262	0.5429
3253	0.5284
3244	0.5149
3235	0.5021
3226	0.4889
3217	0.472
3208	0.4562
3199	0.4388
3190	0.4205
3181	0.4024
3172	0.3842
3163	0.3701
3154	0.3696
3145	0.3709
3136	0.3732
3127	0.3756
3118	0.378
3109	0.3805
3100	0.3828
3091	0.3856
3082	0.3896
3073	0.3951
3064	0.4031
3055	0.4102
3046	0.4134
3037	0.4163
3028	0.4195
3019	0.4229
3010	0.4258
3001	0.4283
2992	0.4279
2983	0.425
2974	0.4208
2965	0.4163
2956	0.4117
2947	0.409
2938	0.4076
2929	0.4067
2920	0.4083
2911	0.415
2902	0.4329
2893	0.4491
2884	0.4641
2875	0.4737
2866	0.4843
2857	0.4969
2848	0.5117
2839	0.5246
2830	0.5319
2821	0.5342
2812	0.536
2803	0.5389
2794	0.5425
2785	0.5474
2776	0.5546
2767	0.563
2758	0.571
2749	0.577
2740	0.5797
2731	0.5812
2722	0.5812
2713	0.5784
2704	0.5696
2695	0.5599
2686	0.5563
2677	0.5554
2668	0.5516
2659	0.5401
2650	0.5317
2641	0.5284
2632	0.5349
2623	0.5544
2614	0.5754
2605	0.5914
2596	0.6018
2587	0.6119
2578	0.6228
2569	0.6337
2560	0.6433
2551	0.6531
2542	0.6666
2533	0.6791
2524	0.6886
2515	0.6974
2506	0.7057
2497	0.7099
2488	0.713
2479	0.7178
2470	0.7263
2461	0.735
2452	0.7429
2443	0.7509
2434	0.7586
2425	0.766
2416	0.7712
2407	0.7766
2398	0.7818
2389	0.7865
2380	0.791
2371	0.7956
2362	0.8
2353	0.8049
2344	0.8119
2335	0.8188
2326	0.8248
2317	0.8309
2308	0.836
2299	0.8409
2290	0.8452
2281	0.8489
2272	0.8523
2263	0.8561
2254	0.8584
2245	0.8607
2236	0.863
2227	0.8654
2218	0.8672
2209	0.8688
2200	0.8704
2191	0.8717
2182	0.8727
2173	0.8739
2164	0.8755
2155	0.8755
2146	0.8745
2137	0.8737
2128	0.873
2119	0.8734
2110	0.8737
2101	0.8741
2092	0.8761
2083	0.8784
2074	0.8808
2065	0.884
2056	0.8877
2047	0.8914
2038	0.8953
2029	0.8992
2020	0.9031
2011	0.9064
2002	0.9097
1993	0.9119
1984	0.9132
1975	0.9145
1966	0.914
1957	0.9134
1948	0.9137
1939	0.916
1930	0.9188
1921	0.9172
1912	0.915
1903	0.9176
1894	0.9201
1885	0.9236
1876	0.927
1867	0.9298
1858	0.9317
1849	0.933
1840	0.9304
1831	0.9248
1822	0.9245
1813	0.925
1804	0.9237
1795	0.9197
1786	0.9184
1777	0.9238
1768	0.93
1759	0.932
1750	0.9318
1741	0.9321
1732	0.9309
1723	0.9269
1714	0.9225
1705	0.9166
1696	0.9087
1687	0.898
1678	0.8772
1669	0.822
1660	0.7402
1651	0.6627
1642	0.4922
1633	0.3743
1624	0.3342
1615	0.347
1606	0.4693
1597	0.4265
1588	0.5281
1579	0.6309
1570	0.6805
1561	0.6985
1552	0.5301
1543	0.5798
1534	0.727
1525	0.6186
1516	0.4171
1507	0.5881
1498	0.7141
1489	0.6604
1480	0.6408
1471	0.5514
1462	0.4001
1453	0.2991
1444	0.3742
1435	0.4958
1426	0.6227
1417	0.5226
1408	0.6394
1399	0.5639
1390	0.6058
1381	0.5949
1372	0.5091
1363	0.5665
1354	0.6292
1345	0.7404
1336	0.7468
1327	0.7728
1318	0.7912
1309	0.7762
1300	0.7755
1291	0.5514
1282	0.4715
1273	0.4953
1264	0.6684
1255	0.7423
1246	0.7712
1237	0.7139
1228	0.6867
1219	0.6915
1210	0.43
1201	0.6646
1192	0.7883
1183	0.8235
1174	0.7905
1165	0.68
1156	0.789
1147	0.8229
1138	0.819
1129	0.7119
1120	0.6918
1111	0.7812
1102	0.5779
1093	0.6682
1084	0.8226
1075	0.8538
1066	0.7969
1057	0.8333
1048	0.7899
1039	0.842
1030	0.8658
1021	0.8516
1012	0.8196
1003	0.8996
994	0.9114
985	0.9105
976	0.8623
967	0.9046
958	0.8603
949	0.7878
940	0.906
931	0.9301
922	0.9245
913	0.7661
904	0.7702
895	0.7088
886	0.8632
877	0.9144
868	0.9233
859	0.8016
850	0.8433
841	0.5825
832	0.8338
823	0.7417
814	0.667
805	0.6867
796	0.6819
787	0.7884
778	0.7655
769	0.677
760	0.7059
751	0.8531
742	0.8526
733	0.8178
724	0.7693
715	0.7094
706	0.6712
697	0.6624
688	0.6355
679	0.7013
670	0.7583
