Infrared Spectrum: Ethoduomeen T/13 hydrochloride
Formula: C23-27 H52-60 Cl2 N2 O3
State: SEMI-SOLID (NEAT)
Class: COBLENTZ III
Instrument: PERKIN-ELMER 157
Sampling: TRANSMISSION
Resolution: 2
Origin: BRITISH PETROLEUM CO. LTD., ENGLAND
1/CM	TRANSMITTANCE
668	0.4656
677	0.4829
686	0.4903
695	0.494
704	0.4891
713	0.4512
722	0.4106
731	0.4668
740	0.491
749	0.4941
758	0.5075
767	0.5439
776	0.568
785	0.578
794	0.5805
803	0.5796
812	0.5779
821	0.5781
830	0.5864
839	0.588
848	0.5791
857	0.5616
866	0.5165
875	0.4746
884	0.427
893	0.4209
902	0.4535
911	0.4548
920	0.4443
929	0.439
938	0.4365
947	0.4344
956	0.4218
965	0.4042
974	0.4146
983	0.4047
992	0.3845
1001	0.3654
1010	0.3383
1019	0.3035
1028	0.2656
1037	0.2309
1046	0.1952
1055	0.149
1064	0.1208
1073	0.1148
1082	0.1471
1091	0.1899
1100	0.2085
1109	0.1993
1118	0.1685
1127	0.1654
1136	0.1929
1145	0.2622
1154	0.3814
1163	0.4539
1172	0.4859
1181	0.4865
1190	0.4781
1199	0.4585
1208	0.4305
1217	0.4009
1226	0.3819
1235	0.3796
1244	0.3788
1253	0.379
1262	0.3797
1271	0.3787
1280	0.3724
1289	0.3606
1298	0.3558
1307	0.3549
1316	0.3542
1325	0.3533
1334	0.3499
1343	0.3227
1352	0.2976
1361	0.2764
1370	0.2708
1379	0.2661
1388	0.2689
1397	0.2586
1406	0.2475
1415	0.2437
1424	0.2319
1433	0.2119
1442	0.1695
1451	0.1482
1460	0.128
1469	0.1508
1478	0.2354
1487	0.3453
1496	0.4745
1505	0.6007
1514	0.6102
1523	0.6468
1532	0.6484
1541	0.6488
1550	0.6481
1559	0.6455
1568	0.6394
1577	0.6315
1586	0.6204
1595	0.6031
1604	0.5807
1613	0.559
1622	0.5199
1631	0.5074
1640	0.5051
1649	0.526
1658	0.5378
1667	0.5668
1676	0.6008
1685	0.6066
1694	0.6044
1703	0.5877
1712	0.581
1721	0.5826
1730	0.6074
1739	0.6412
1748	0.6747
1757	0.6975
1766	0.731
1775	0.7539
1784	0.7619
1793	0.7657
1802	0.7679
1811	0.769
1820	0.7689
1829	0.7683
1838	0.7675
1847	0.7659
1856	0.7637
1865	0.7616
1874	0.7599
1883	0.7584
1892	0.7572
1901	0.7503
1910	0.7466
1919	0.7435
1928	0.7377
1937	0.7337
1946	0.7314
1955	0.7304
1964	0.731
1973	0.7312
1982	0.7303
1991	0.727
2000	0.7231
2009	0.7202
2018	0.7173
2027	0.7138
2036	0.7094
2045	0.7042
2054	0.6991
2063	0.694
2072	0.6898
2081	0.6882
2090	0.6862
2099	0.6833
2108	0.6798
2117	0.6753
2126	0.6711
2135	0.667
2144	0.6634
2153	0.6599
2162	0.6564
2171	0.6529
2180	0.649
2189	0.6451
2198	0.6409
2207	0.6365
2216	0.6322
2225	0.6279
2234	0.6236
2243	0.6179
2252	0.612
2261	0.6067
2270	0.5993
2279	0.5871
2288	0.5709
2297	0.5519
2306	0.5322
2315	0.5026
2324	0.4795
2333	0.4593
2342	0.4346
2351	0.4215
2360	0.4135
2369	0.4093
2378	0.4073
2387	0.4058
2396	0.3986
2405	0.3817
2414	0.3643
2423	0.3471
2432	0.3299
2441	0.3129
2450	0.296
2459	0.2788
2468	0.2614
2477	0.2498
2486	0.2414
2495	0.2382
2504	0.2365
2513	0.2346
2522	0.2321
2531	0.2284
2540	0.2233
2549	0.2168
2558	0.2089
2567	0.2005
2576	0.1925
2585	0.1873
2594	0.1844
2603	0.1833
2612	0.1832
2621	0.1832
2630	0.185
2639	0.1925
2648	0.1969
2657	0.2
2666	0.2024
2675	0.2041
2684	0.2051
2693	0.2061
2702	0.2072
2711	0.2112
2720	0.215
2729	0.217
2738	0.2186
2747	0.2199
2756	0.2203
2765	0.2193
2774	0.2168
2783	0.211
2792	0.2021
2801	0.1928
2810	0.1791
2819	0.1463
2828	0.1136
2837	0.0812
2846	0.0658
2855	0.0658
2864	0.0659
2873	0.065
2882	0.0608
2891	0.0555
2900	0.0537
2909	0.0541
2918	0.0565
2927	0.064
2936	0.0768
2945	0.0881
2954	0.1127
2963	0.1386
2972	0.1641
2981	0.1895
2990	0.2148
2999	0.2399
3008	0.2647
3017	0.2751
3026	0.277
3035	0.2774
3044	0.2768
3053	0.2747
3062	0.2717
3071	0.2692
3080	0.2663
3089	0.2551
3098	0.2432
3107	0.2313
3116	0.2195
3125	0.2079
3134	0.1962
3143	0.1846
3152	0.1722
3161	0.1641
3170	0.1562
3179	0.1473
3188	0.1366
3197	0.1269
3206	0.1171
3215	0.1099
3224	0.1051
3233	0.1019
3242	0.0987
3251	0.0964
3260	0.0943
3269	0.0925
3278	0.0909
3287	0.0901
3296	0.0898
3305	0.0902
3314	0.0907
3323	0.0914
3332	0.0922
3341	0.0935
3350	0.095
3359	0.0971
3368	0.0999
3377	0.1032
3386	0.1076
3395	0.1121
3404	0.1165
3413	0.1212
3422	0.1274
3431	0.1336
3440	0.139
3449	0.1438
3458	0.1515
3467	0.1596
3476	0.1743
3485	0.1919
3494	0.211
3503	0.2286
3512	0.2756
3521	0.2909
3530	0.3037
3539	0.3195
3548	0.3433
3557	0.3661
3566	0.4121
3575	0.4475
3584	0.4829
3593	0.5181
3602	0.5532
3611	0.588
3620	0.6228
3629	0.6573
3638	0.6917
3647	0.7258
3656	0.7809
3665	0.7938
3674	0.7999
3683	0.8029
3692	0.8043
3701	0.8055
3710	0.8059
3719	0.8063
3728	0.8067
3737	0.8068
3746	0.8069
3755	0.8069
3764	0.8068
3773	0.8066
3782	0.8065
3791	0.8064
3800	0.806
3809	0.8055
3818	0.8044
3827	0.8009
3836	0.7951
3845	0.7925
3854	0.791
3863	0.79
3872	0.7891
3881	0.7883
3890	0.788
3899	0.7875
3908	0.7872
3917	0.7867
3926	0.7864
3935	0.7863
3944	0.7861
3953	0.7859
3962	0.7857
3971	0.7856
3980	0.7854
3989	0.7852
3998	0.7851
