Infrared Spectrum: 2,6-DIMETHYL 1,4,6(7)-OCTATRIENE (CIS-6(7))
Formula: C10 H16
Class: COBLENTZ
Instrument: Not specified, most likely a prism, grating, or hybrid spectrometer.
Sampling: TRANSMISSION
Resolution: 4
Origin: INTERNATIONAL FLAVORS & FRAGRANCES, INC.
MICROMETERS	TRANSMITTANCE
2.028	0.928
2.06499	0.928
2.10198	0.9279
2.13898	0.9249
2.17597	0.9228
2.21296	0.917
2.24995	0.915
2.28694	0.9079
2.32394	0.8544
2.36093	0.837
2.39792	0.8689
2.43491	0.8939
2.4719	0.901
2.5089	0.903
2.54589	0.904
2.58288	0.904
2.61987	0.903
2.65686	0.903
2.69386	0.9112
2.73085	0.9201
2.76784	0.926
2.80483	0.92
2.84182	0.913
2.87882	0.909
2.91581	0.908
2.9528	0.907
2.98979	0.908
3.02678	0.908
3.06378	0.906
3.10077	0.906
3.13776	0.903
3.17475	0.8931
3.21174	0.8571
3.24874	0.484
3.28573	0.434
3.32272	0.3591
3.35971	0.1925
3.3967	0.147
3.4337	0.112
3.47069	0.1438
3.50768	0.2259
3.54467	0.4466
3.58166	0.6454
3.61866	0.7874
3.65565	0.8568
3.69264	0.8157
3.72963	0.8796
3.76662	0.9059
3.80362	0.918
3.84061	0.926
3.8776	0.9334
3.91459	0.939
3.95158	0.94
3.98858	0.942
4.02557	0.944
4.06256	0.945
4.09955	0.945
4.13654	0.9459
4.17354	0.946
4.21053	0.949
4.24752	0.951
4.28451	0.953
4.3215	0.953
4.3585	0.955
4.39549	0.958
4.43248	0.958
4.46947	0.9579
4.50646	0.955
4.54346	0.955
4.58045	0.957
4.61744	0.9579
4.65443	0.958
4.69142	0.959
4.72842	0.96
4.76541	0.961
4.8024	0.96
4.83939	0.96
4.87638	0.96
4.91338	0.96
4.95037	0.96
4.98736	0.96
5.02435	0.962
5.06134	0.964
5.09834	0.965
5.13533	0.964
5.17232	0.96
5.20931	0.959
5.2463	0.959
5.2833	0.957
5.32029	0.954
5.35728	0.9529
5.39427	0.95
5.43127	0.9439
5.46826	0.9163
5.50525	0.882
5.54224	0.8579
5.57923	0.8329
5.61623	0.8312
5.65322	0.8655
5.69021	0.9149
5.7272	0.92
5.76419	0.925
5.80119	0.923
5.83818	0.922
5.87517	0.916
5.91216	0.8999
5.94915	0.8759
5.98615	0.801
6.02314	0.4092
6.06013	0.3702
6.09712	0.574
6.13411	0.7082
6.17111	0.7516
6.2081	0.7785
6.24509	0.7991
6.28208	0.819
6.31907	0.8358
6.35607	0.8478
6.39306	0.8526
6.43005	0.858
6.46704	0.859
6.50403	0.856
6.54103	0.849
6.57802	0.8381
6.61501	0.8251
6.652	0.8056
6.68899	0.7942
6.72599	0.7692
6.76298	0.7157
6.79997	0.5559
6.83696	0.299
6.87395	0.2051
6.91095	0.1817
6.94794	0.1724
6.98493	0.2451
7.02192	0.3307
7.05891	0.5134
7.09591	0.6022
7.1329	0.6462
7.16989	0.6552
7.20688	0.6143
7.24387	0.2318
7.28087	0.2701
7.31786	0.4309
7.35485	0.5527
7.39184	0.6923
7.42883	0.763
7.46583	0.7965
7.50282	0.8117
7.53981	0.8206
7.5768	0.826
7.61379	0.8226
7.65079	0.7882
7.68778	0.7781
7.72477	0.79
7.76176	0.7935
7.79875	0.7206
7.83575	0.6357
7.87274	0.6433
7.90973	0.6976
7.94672	0.7236
7.98371	0.7543
8.02071	0.7967
8.0577	0.8052
8.09469	0.7416
8.13168	0.736
8.16867	0.6831
8.20567	0.6445
8.24266	0.7516
8.27965	0.8292
8.31664	0.8647
8.35363	0.8878
8.39063	0.8854
8.42762	0.875
8.46461	0.8682
8.5016	0.8647
8.53859	0.8475
8.57559	0.842
8.61258	0.8726
8.64957	0.8975
8.68656	0.8938
8.72355	0.889
8.76055	0.8987
8.79754	0.9204
8.83453	0.926
8.87152	0.926
8.90851	0.9232
8.94551	0.9163
8.9825	0.9043
9.01949	0.8881
9.05648	0.8817
9.09347	0.8665
9.13047	0.811
9.16746	0.7432
9.20445	0.7494
9.24144	0.7693
9.27843	0.7625
9.31543	0.7536
9.35242	0.7654
9.38941	0.7936
9.4264	0.8231
9.46339	0.838
9.50039	0.8372
9.53738	0.8231
9.57437	0.808
9.61136	0.7602
9.64835	0.6593
9.68535	0.641
9.72234	0.652
9.75933	0.6724
9.79632	0.6974
9.83331	0.6948
9.87031	0.6413
9.9073	0.6303
9.94429	0.6627
9.98128	0.7164
10.0183	0.7577
10.0553	0.7718
10.0923	0.775
10.1293	0.7542
10.1662	0.7386
10.2032	0.7257
10.2402	0.6753
10.2772	0.3956
10.3142	0.1079
10.3512	0.088
10.3882	0.1208
10.4252	0.2309
10.4622	0.4167
10.4992	0.5441
10.5362	0.6705
10.5732	0.7501
10.6101	0.7929
10.6471	0.8132
10.6841	0.8262
10.7211	0.834
10.7581	0.835
10.7951	0.8278
10.8321	0.8135
10.8691	0.7621
10.9061	0.6817
10.9431	0.5561
10.9801	0.5334
11.0171	0.5181
11.0541	0.501
11.091	0.4166
11.128	0.2837
11.165	0.1274
11.202	0.087
11.239	0.0804
11.276	0.1224
11.313	0.1777
11.35	0.2392
11.387	0.3567
11.424	0.5053
11.461	0.5952
11.498	0.6299
11.5349	0.6662
11.5719	0.679
11.6089	0.6547
11.6459	0.6052
11.6829	0.5609
11.7199	0.577
11.7569	0.6153
11.7939	0.6564
11.8309	0.6941
11.8679	0.7254
11.9049	0.7494
11.9419	0.762
11.9789	0.7609
12.0158	0.7471
12.0528	0.7183
12.0898	0.6472
12.1268	0.5475
12.1638	0.4583
12.2008	0.4144
12.2378	0.4074
12.2748	0.4659
12.3118	0.5574
12.3488	0.6268
12.3858	0.6957
12.4228	0.7336
12.4597	0.7762
12.4967	0.7853
12.5337	0.789
12.5707	0.789
12.6077	0.7872
12.6447	0.785
12.6817	0.7764
12.7187	0.7775
12.7557	0.7924
12.7927	0.7978
12.8297	0.7727
12.8667	0.734
12.9037	0.7484
12.9406	0.7892
12.9776	0.823
13.0146	0.8644
13.0516	0.893
13.0886	0.909
13.1256	0.9141
13.1626	0.923
13.1996	0.9308
13.2366	0.9367
13.2736	0.945
13.3106	0.9504
13.3476	0.9583
13.3845	0.9624
13.4215	0.966
13.4585	0.968
13.4955	0.972
13.5325	0.9767
13.5695	0.98
13.6065	0.981
13.6435	0.981
13.6805	0.9819
13.7175	0.979
13.7545	0.977
13.7915	0.9762
13.8285	0.9684
13.8654	0.966
13.9024	0.9616
13.9394	0.9548
13.9764	0.947
14.0134	0.94
14.0504	0.936
14.0874	0.935
14.1244	0.938
14.1614	0.9465
14.1984	0.9583
14.2354	0.9662
14.2724	0.9721
14.3093	0.975
14.3463	0.976
14.3833	0.977
14.4203	0.9764
14.4573	0.975
14.4943	0.975
14.5313	0.973
14.5683	0.968
14.6053	0.962
14.6423	0.958
14.6793	0.954
14.7163	0.9505
14.7533	0.9466
14.7902	0.9397
14.8272	0.933
14.8642	0.926
14.9012	0.923
14.9382	0.916
14.9752	0.91
