Infrared Spectrum: SODIUM PHOSPHATE, TRIBASIC-
Formula: Na3 P O4  * 12 H2 O
State: SOLID (MINERAL OIL MULL)
Melting point: 223 C
Class: COBLENTZ
Instrument: Not specified, most likely a prism, grating, or hybrid spectrometer.
Sampling: TRANSMISSION
Resolution: 4
Origin: DOW CHEMICAL COMPANY
MICROMETERS	TRANSMITTANCE
2.013	0.869
2.05313	0.871
2.09327	0.876
2.1334	0.878
2.17353	0.883
2.21367	0.888
2.2538	0.886
2.29394	0.871
2.33407	0.864
2.3742	0.871
2.41434	0.879
2.45447	0.881
2.4946	0.898
2.53474	0.901
2.57487	0.904
2.61501	0.908
2.65514	0.911
2.69527	0.916
2.73541	0.919
2.77554	0.919
2.81567	0.903
2.85581	0.883
2.89594	0.838
2.93607	0.792
2.97621	0.749
3.01634	0.694
3.05648	0.652
3.09661	0.619
3.13674	0.601
3.17688	0.572
3.21701	0.564
3.25714	0.55
3.29728	0.535
3.33741	0.495
3.37755	0.337
3.41768	0.021
3.45781	0.03
3.49795	0.091
3.53808	0.2
3.57821	0.654
3.61835	0.756
3.65848	0.786
3.69861	0.801
3.73875	0.814
3.77888	0.831
3.81902	0.851
3.85915	0.864
3.89928	0.883
3.93942	0.903
3.97955	0.903
4.01968	0.903
4.05982	0.913
4.09995	0.923
4.14009	0.924
4.18022	0.924
4.22035	0.928
4.26049	0.926
4.30062	0.923
4.34075	0.923
4.38089	0.921
4.42102	0.919
4.46115	0.919
4.50129	0.928
4.54142	0.946
4.58156	0.958
4.62169	0.961
4.66182	0.963
4.70196	0.968
4.74209	0.968
4.78222	0.964
4.82236	0.963
4.86249	0.966
4.90263	0.979
4.94276	0.976
4.98289	0.973
5.02303	0.978
5.06316	0.978
5.10329	0.969
5.14343	0.959
5.18356	0.964
5.22369	0.983
5.26383	0.979
5.30396	0.981
5.3441	0.994
5.38423	0.998
5.42436	1
5.4645	1
5.50463	0.994
5.54476	0.988
5.5849	0.973
5.62503	0.963
5.66517	0.959
5.7053	0.963
5.74543	0.961
5.78557	0.956
5.8257	0.953
5.86583	0.939
5.90597	0.931
5.9461	0.926
5.98623	0.928
6.02637	0.924
6.0665	0.919
6.10664	0.916
6.14677	0.916
6.1869	0.918
6.22704	0.919
6.26717	0.919
6.3073	0.908
6.34744	0.898
6.38757	0.874
6.42771	0.851
6.46784	0.849
6.50797	0.869
6.54811	0.878
6.58824	0.869
6.62837	0.841
6.66851	0.786
6.70864	0.731
6.74877	0.639
6.78891	0.472
6.82904	0.262
6.86918	0.225
6.90931	0.27
6.94944	0.353
6.98958	0.494
7.02971	0.641
7.06984	0.706
7.10998	0.759
7.15011	0.829
7.19025	0.824
7.23038	0.691
7.27051	0.574
7.31065	0.676
7.35078	0.801
7.39091	0.839
7.43105	0.853
7.47118	0.861
7.51131	0.881
7.55145	0.889
7.59158	0.858
7.63172	0.864
7.67185	0.868
7.71198	0.866
7.75212	0.871
7.79225	0.871
7.83238	0.873
7.87252	0.873
7.91265	0.874
7.95279	0.874
7.99292	0.873
8.03305	0.874
8.07319	0.873
8.11332	0.871
8.15345	0.869
8.19359	0.866
8.23372	0.863
8.27385	0.858
8.31399	0.849
8.35412	0.846
8.39426	0.841
8.43439	0.831
8.47452	0.824
8.51466	0.804
8.55479	0.796
8.59492	0.789
8.63506	0.779
8.67519	0.769
8.71533	0.761
8.75546	0.749
8.79559	0.741
8.83573	0.727
8.87586	0.707
8.91599	0.689
8.95613	0.667
8.99626	0.636
9.0364	0.592
9.07653	0.522
9.11666	0.398
9.1568	0.297
9.19693	0.293
9.23706	0.285
9.2772	0.222
9.31733	0.146
9.35746	0.095
9.3976	0.061
9.43773	0.041
9.47787	0.031
9.518	0.026
9.55813	0.02
9.59827	0.015
9.6384	0.013
9.67853	0.011
9.71867	0.011
9.7588	0.011
9.79894	0.013
9.83907	0.013
9.8792	0.015
9.91934	0.016
9.95947	0.02
9.9996	0.03
10.0397	0.056
10.0799	0.113
10.12	0.188
10.1601	0.265
10.2003	0.327
10.2404	0.387
10.2805	0.44
10.3207	0.487
10.3608	0.522
10.4009	0.552
10.4411	0.58
10.4812	0.609
10.5213	0.632
10.5615	0.646
10.6016	0.647
10.6417	0.626
10.6819	0.599
10.722	0.634
10.7621	0.677
10.8023	0.699
10.8424	0.711
10.8825	0.716
10.9227	0.722
10.9628	0.732
11.0029	0.737
11.0431	0.742
11.0832	0.742
11.1233	0.741
11.1635	0.739
11.2036	0.731
11.2437	0.717
11.2839	0.696
11.324	0.656
11.3641	0.607
11.4043	0.601
11.4444	0.601
11.4845	0.599
11.5247	0.569
11.5648	0.544
11.605	0.522
11.6451	0.499
11.6852	0.49
11.7254	0.489
11.7655	0.497
11.8056	0.52
11.8458	0.552
11.8859	0.579
11.926	0.624
11.9662	0.652
12.0063	0.682
12.0464	0.709
12.0866	0.734
12.1267	0.751
12.1668	0.766
12.207	0.781
12.2471	0.789
12.2872	0.799
12.3274	0.803
12.3675	0.808
12.4076	0.814
12.4478	0.819
12.4879	0.823
12.528	0.828
12.5682	0.829
12.6083	0.833
12.6484	0.834
12.6886	0.838
12.7287	0.838
12.7688	0.838
12.809	0.838
12.8491	0.838
12.8892	0.838
12.9294	0.836
12.9695	0.834
13.0096	0.834
13.0498	0.834
13.0899	0.833
13.13	0.831
13.1702	0.828
13.2103	0.826
13.2504	0.819
13.2906	0.816
13.3307	0.813
13.3708	0.808
13.411	0.806
13.4511	0.799
13.4912	0.792
13.5314	0.781
13.5715	0.772
13.6116	0.761
13.6518	0.752
13.6919	0.742
13.732	0.729
13.7722	0.711
13.8123	0.694
13.8524	0.681
13.8926	0.671
13.9327	0.657
13.9728	0.642
14.013	0.634
14.0531	0.619
14.0932	0.604
14.1334	0.59
14.1735	0.58
14.2136	0.572
14.2538	0.569
14.2939	0.572
14.334	0.577
14.3742	0.587
14.4143	0.601
14.4544	0.611
14.4946	0.626
14.5347	0.637
14.5748	0.642
14.615	0.649
14.6551	0.652
14.6952	0.661
14.7354	0.661
14.7755	0.662
14.8156	0.666
14.8558	0.666
14.8959	0.666
14.936	0.664
14.9762	0.664
15.0163	0.661
15.0564	0.656
15.0966	0.656
15.1367	0.652
15.1768	0.649
15.217	0.644
15.2571	0.637
15.2972	0.631
15.3374	0.626
15.3775	0.624
15.4177	0.621
15.4578	0.614
15.4979	0.609
15.5381	0.599
15.5782	0.592
15.6183	0.589
15.6585	0.582
15.6986	0.575
15.7387	0.574
15.7789	0.572
15.819	0.57
15.8591	0.567
15.8993	0.564
