Infrared Spectrum: TRIPHOSPHORIC ACID, PENTASODIUM SALT
Formula: O10 Na5 P3
State: SOLID (SPLIT MULL, FLUOROLUBE FOR 3800-1330 AND NUJOL FOR 1330-450 CM ^-^1)
Class: COBLENTZ III
Instrument: DOW KBr FOREPRISM-GRATING
Instrument parameters: BLAZED AT 3.5, 12.0, 20.0 MICRON; GRATING CHANGES AT 5.0, 7.5, 14.9 MICRON
Sampling: TRANSMISSION
Resolution: 4
Origin: DOW CHEMICAL COMPANY
1/CM	TRANSMITTANCE
447.826	0.388
457.312	0.355
466.798	0.313
476.285	0.255
485.771	0.241
495.257	0.263
504.743	0.233
514.23	0.206
523.716	0.287
533.202	0.303
542.688	0.265
552.174	0.202
561.661	0.189
571.147	0.191
580.633	0.313
590.119	0.362
599.606	0.2981
609.092	0.232
618.578	0.302
628.064	0.39
637.551	0.462
647.037	0.497
656.523	0.3721
666.009	0.375
675.495	0.456
684.982	0.5
694.468	0.491
703.954	0.46
713.44	0.432
722.927	0.419
732.413	0.384
741.899	0.5149
751.385	0.565
760.871	0.565
770.358	0.578
779.844	0.602
789.33	0.618
798.816	0.626
808.303	0.631
817.789	0.631
827.275	0.624
836.761	0.611
846.248	0.587
855.734	0.53
865.22	0.401
874.706	0.189
884.192	0.077
893.679	0.057
903.165	0.069
912.651	0.112
922.137	0.189
931.624	0.3069
941.11	0.401
950.596	0.405
960.082	0.403
969.568	0.418
979.055	0.427
988.541	0.469
998.027	0.532
1007.51	0.499
1017	0.469
1026.49	0.429
1035.97	0.429
1045.46	0.384
1054.94	0.355
1064.43	0.281
1073.92	0.182
1083.4	0.119
1092.89	0.053
1102.38	0.053
1111.86	0.034
1121.35	0.018
1130.83	0.012
1140.32	0.011
1149.81	0.012
1159.29	0.016
1168.78	0.022
1178.27	0.044
1187.75	0.09
1197.24	0.165
1206.72	0.064
1216.21	0.101
1225.7	0.222
1235.18	0.333
1244.67	0.456
1254.16	0.556
1263.64	0.635
1273.13	0.677
1282.61	0.692
1292.1	0.697
1301.59	0.701
1311.07	0.707
1320.56	0.712
1330.05	0.716
1339.53	0.679
1349.02	0.6881
1358.5	0.769
1367.99	0.786
1377.48	0.801
1386.96	0.813
1396.45	0.808
1405.93	0.797
1415.42	0.788
1424.91	0.784
1434.39	0.771
1443.88	0.766
1453.37	0.758
1462.85	0.753
1472.34	0.782
1481.82	0.828
1491.31	0.843
1500.8	0.852
1510.28	0.872
1519.77	0.885
1529.26	0.883
1538.74	0.878
1548.23	0.874
1557.71	0.872
1567.2	0.861
1576.69	0.843
1586.17	0.823
1595.66	0.812
1605.15	0.801
1614.63	0.791
1624.12	0.78
1633.6	0.771
1643.09	0.76
1652.58	0.74
1662.06	0.736
1671.55	0.732
1681.04	0.747
1690.52	0.769
1700.01	0.812
1709.49	0.848
1718.98	0.869
1728.47	0.891
1737.95	0.906
1747.44	0.917
1756.93	0.926
1766.41	0.931
1775.9	0.937
1785.38	0.942
1794.87	0.946
1804.36	0.95
1813.84	0.953
1823.33	0.953
1832.82	0.955
1842.3	0.959
1851.79	0.961
1861.27	0.961
1870.76	0.966
1880.25	0.968
1889.73	0.976
1899.22	0.977
1908.7	0.979
1918.19	0.979
1927.68	0.979
1937.16	0.979
1946.65	0.983
1956.14	0.981
1965.62	0.981
1975.11	0.979
1984.59	0.979
1994.08	0.974
2003.57	0.963
2013.05	0.959
2022.54	0.959
2032.03	0.957
2041.51	0.9559
2051	0.9509
2060.48	0.9469
2069.97	0.942
2079.46	0.9339
2088.94	0.9269
2098.43	0.9174
2107.92	0.9138
2117.4	0.911
2126.89	0.9078
2136.37	0.907
2145.86	0.906
2155.35	0.904
2164.83	0.902
2174.32	0.9
2183.81	0.898
2193.29	0.898
2202.78	0.898
2212.26	0.8953
2221.75	0.8896
2231.24	0.8836
2240.72	0.8766
2250.21	0.8713
2259.7	0.8676
2269.18	0.865
2278.67	0.863
2288.15	0.86
2297.64	0.858
2307.13	0.8608
2316.61	0.865
2326.1	0.867
2335.59	0.869
2345.07	0.8718
2354.56	0.8808
2364.04	0.8886
2373.53	0.8946
2383.02	0.895
2392.5	0.8976
2401.99	0.9
2411.48	0.904
2420.96	0.9068
2430.45	0.909
2439.93	0.909
2449.42	0.913
2458.91	0.913
2468.39	0.915
2477.88	0.917
2487.36	0.918
2496.85	0.92
2506.34	0.922
2515.82	0.922
2525.31	0.922
2534.8	0.922
2544.28	0.92
2553.77	0.918
2563.25	0.917
2572.74	0.915
2582.23	0.915
2591.71	0.913
2601.2	0.911
2610.69	0.909
2620.17	0.907
2629.66	0.904
2639.14	0.902
2648.63	0.898
2658.12	0.895
2667.6	0.891
2677.09	0.8889
2686.58	0.885
2696.06	0.882
2705.55	0.8777
2715.03	0.8719
2724.52	0.867
2734.01	0.8628
2743.49	0.858
2752.98	0.8538
2762.47	0.8467
2771.95	0.836
2781.44	0.8317
2790.92	0.8255
2800.41	0.8184
2809.9	0.8096
2819.38	0.7986
2828.87	0.7892
2838.36	0.7782
2847.84	0.7606
2857.33	0.7411
2866.81	0.727
2876.3	0.7225
2885.79	0.7155
2895.27	0.7036
2904.76	0.6915
2914.25	0.6737
2923.73	0.6495
2933.22	0.648
2942.7	0.6415
2952.19	0.6157
2961.68	0.6172
2971.16	0.6323
2980.65	0.6364
2990.13	0.6297
2999.62	0.617
3009.11	0.6053
3018.59	0.5916
3028.08	0.5722
3037.57	0.5579
3047.05	0.5443
3056.54	0.5332
3066.02	0.5222
3075.51	0.5118
3085	0.5032
3094.48	0.4953
3103.97	0.4852
3113.46	0.4771
3122.94	0.4701
3132.43	0.4602
3141.91	0.4501
3151.4	0.4421
3160.89	0.4331
3170.37	0.426
3179.86	0.417
3189.35	0.4065
3198.83	0.397
3208.32	0.391
3217.8	0.385
3227.29	0.38
3236.78	0.373
3246.26	0.37
3255.75	0.368
3265.24	0.368
3274.72	0.37
3284.21	0.37
3293.69	0.37
3303.18	0.37
3312.67	0.37
3322.15	0.37
3331.64	0.37
3341.13	0.37
3350.61	0.3687
3360.1	0.37
3369.58	0.3667
3379.07	0.3693
3388.56	0.3756
3398.04	0.3873
3407.53	0.399
3417.02	0.4094
3426.5	0.4174
3435.99	0.4284
3445.47	0.438
3454.96	0.4526
3464.45	0.4641
3473.93	0.4787
3483.42	0.4974
3492.9	0.5098
3502.39	0.5285
3511.88	0.5435
3521.36	0.5614
3530.85	0.585
3540.34	0.6032
3549.82	0.6275
3559.31	0.6452
3568.79	0.6725
3578.28	0.6874
3587.77	0.706
3597.25	0.7315
3606.74	0.7555
3616.23	0.7518
3625.71	0.6528
3635.2	0.7637
3644.68	0.8298
3654.17	0.9021
3663.66	0.9362
3673.14	0.9639
3682.63	0.9718
3692.12	0.979
3701.6	0.9867
3711.09	0.992
3720.57	0.99
3730.06	0.9939
3739.55	0.996
3749.03	0.996
3758.52	0.994
3768.01	0.992
3777.49	0.99
3786.98	0.994
3796.46	0.996
