Infrared Spectrum: Iron acetate
Formula: C6 H9 O6 Fe
State: SOLID (SPLIT MULL)
Class: COBLENTZ
Instrument: PERKIN-ELMER 521 (GRATING)
Instrument parameters: FILTERS AT 3150, 2500, 2000, 1150, 700, 410. GRATING CHANGES: 2000, 630
Resolution: 2
Origin: DOW CORNING CORP.
1/CM	TRANSMITTANCE
251	0.7817
260	0.7888
269	0.7863
278	0.7817
287	0.7743
296	0.7322
305	0.6907
314	0.5997
323	0.5662
332	0.5679
341	0.6002
350	0.6474
359	0.6848
368	0.7256
377	0.7656
386	0.7988
395	0.8209
404	0.8343
413	0.8417
422	0.8421
431	0.8391
440	0.8352
449	0.8285
458	0.8203
467	0.8112
476	0.8003
485	0.7888
494	0.7788
503	0.7643
512	0.745
521	0.7192
530	0.7108
539	0.7139
548	0.6899
557	0.6696
566	0.6671
575	0.6659
584	0.6664
593	0.6612
602	0.6352
611	0.4713
620	0.4486
629	0.643
638	0.6444
647	0.5011
656	0.3633
665	0.2697
674	0.4115
683	0.6057
692	0.6719
701	0.6729
710	0.634
719	0.6011
728	0.687
737	0.7358
746	0.7748
755	0.7982
764	0.8166
773	0.838
782	0.8562
791	0.8722
800	0.8875
809	0.9021
818	0.9127
827	0.9223
836	0.9245
845	0.9249
854	0.9319
863	0.9366
872	0.9367
881	0.93
890	0.9265
899	0.9311
908	0.935
917	0.9333
926	0.9256
935	0.9033
944	0.8967
953	0.9036
962	0.9016
971	0.9065
980	0.9218
989	0.9253
998	0.9123
1007	0.8903
1016	0.8409
1025	0.7547
1034	0.7296
1043	0.7459
1052	0.8085
1061	0.8898
1070	0.9149
1079	0.9209
1088	0.9242
1097	0.9257
1106	0.9258
1115	0.9199
1124	0.911
1133	0.9169
1142	0.9106
1151	0.908
1160	0.9095
1169	0.9115
1178	0.9123
1187	0.9073
1196	0.9019
1205	0.902
1214	0.9022
1223	0.8983
1232	0.8949
1241	0.89
1250	0.8878
1259	0.8825
1268	0.8728
1277	0.8698
1286	0.8672
1295	0.8443
1304	0.684
1313	0.683
1322	0.6679
1331	0.6318
1340	0.5374
1349	0.4641
1358	0.5737
1367	0.5646
1376	0.5106
1385	0.4252
1394	0.3396
1403	0.2541
1412	0.1856
1421	0.1693
1430	0.1802
1439	0.2055
1448	0.2562
1457	0.3765
1466	0.5163
1475	0.58
1484	0.5878
1493	0.578
1502	0.5436
1511	0.4944
1520	0.4401
1529	0.3984
1538	0.3698
1547	0.3398
1556	0.3079
1565	0.2544
1574	0.1986
1583	0.1594
1592	0.1704
1601	0.2029
1610	0.2717
1619	0.3895
1628	0.4906
1637	0.5909
1646	0.6398
1655	0.6935
1664	0.7303
1673	0.7612
1682	0.7799
1691	0.7917
1700	0.795
1709	0.7957
1718	0.8269
1727	0.8501
1736	0.8655
1745	0.8743
1754	0.8798
1763	0.8841
1772	0.888
1781	0.8939
1790	0.8969
1799	0.8997
1808	0.9018
1817	0.9024
1826	0.9021
1835	0.9017
1844	0.9027
1853	0.9042
1862	0.9057
1871	0.9036
1880	0.9034
1889	0.9042
1898	0.9052
1907	0.9059
1916	0.9066
1925	0.9077
1934	0.9038
1943	0.9017
1952	0.9008
1961	0.8994
1970	0.8976
1979	0.8958
1988	0.896
1997	0.8975
2006	0.8973
2015	0.8968
2024	0.8963
2033	0.8954
2042	0.8941
2051	0.8923
2060	0.8886
2069	0.888
2078	0.8886
2087	0.8872
2096	0.8859
2105	0.8849
2114	0.8841
2123	0.8829
2132	0.8818
2141	0.8806
2150	0.879
2159	0.8767
2168	0.8746
2177	0.8725
2186	0.871
2195	0.87
2204	0.8667
2213	0.8626
2222	0.8593
2231	0.8566
2240	0.8537
2249	0.8513
2258	0.8503
2267	0.8495
2276	0.8491
2285	0.8484
2294	0.8473
2303	0.846
2312	0.845
2321	0.8443
2330	0.8446
2339	0.8454
2348	0.8466
2357	0.8482
2366	0.8497
2375	0.8509
2384	0.8517
2393	0.8516
2402	0.8515
2411	0.8511
2420	0.8504
2429	0.8497
2438	0.8489
2447	0.8478
2456	0.8477
2465	0.8488
2474	0.8499
2483	0.8509
2492	0.8518
2501	0.8525
2510	0.8533
2519	0.8521
2528	0.8507
2537	0.8493
2546	0.8479
2555	0.8465
2564	0.8455
2573	0.8446
2582	0.8438
2591	0.8429
2600	0.8418
2609	0.8406
2618	0.8394
2627	0.8381
2636	0.8364
2645	0.8344
2654	0.8325
2663	0.83
2672	0.8274
2681	0.8248
2690	0.8221
2699	0.8193
2708	0.8166
2717	0.8137
2726	0.8108
2735	0.8077
2744	0.8048
2753	0.8017
2762	0.7985
2771	0.7952
2780	0.792
2789	0.7885
2798	0.7844
2807	0.7803
2816	0.776
2825	0.77
2834	0.7645
2843	0.7594
2852	0.7545
2861	0.7496
2870	0.745
2879	0.7402
2888	0.7339
2897	0.7274
2906	0.7176
2915	0.705
2924	0.6904
2933	0.6883
2942	0.6892
2951	0.6896
2960	0.6886
2969	0.6812
2978	0.6799
2987	0.6785
2996	0.6768
3005	0.674
3014	0.6709
3023	0.6677
3032	0.6644
3041	0.6606
3050	0.6551
3059	0.6497
3068	0.6442
3077	0.638
3086	0.6317
3095	0.6254
3104	0.6185
3113	0.6108
3122	0.6003
3131	0.5874
3140	0.5785
3149	0.5721
3158	0.5684
3167	0.5561
3176	0.5458
3185	0.5401
3194	0.5345
3203	0.5289
3212	0.5242
3221	0.5195
3230	0.5149
3239	0.5104
3248	0.5059
3257	0.5012
3266	0.495
3275	0.4887
3284	0.4827
3293	0.4771
3302	0.4716
3311	0.4661
3320	0.4606
3329	0.4556
3338	0.4507
3347	0.4457
3356	0.4411
3365	0.4366
3374	0.4339
3383	0.4312
3392	0.4286
3401	0.4261
3410	0.4245
3419	0.4239
3428	0.4236
3437	0.4244
3446	0.4255
3455	0.4271
3464	0.43
3473	0.4342
3482	0.4388
3491	0.4435
3500	0.4479
3509	0.4522
3518	0.4559
3527	0.4594
3536	0.4628
3545	0.4634
3554	0.4745
3563	0.4911
3572	0.5103
3581	0.5396
3590	0.5683
3599	0.5973
3608	0.6211
3617	0.647
3626	0.6755
3635	0.7029
3644	0.7249
3653	0.7433
3662	0.7643
3671	0.7819
3680	0.7931
3689	0.7957
3698	0.7964
3707	0.7967
3716	0.7969
3725	0.7971
3734	0.7971
3743	0.797
3752	0.7965
3761	0.7957
3770	0.795
3779	0.7948
3788	0.7945
3797	0.7943
3806	0.7941
