Infrared Spectrum: ERGONOVINE MALEATE
Formula: C23 H27 N3 O6
State: SOLID (1 mg / 200 mg KBr DISC)
Melting point: 167 C DECOMP.
Class: COBLENTZ III
Instrument: PERKIN-ELMER 21 (GRATING)
Instrument parameters: FILTER AT ABOUT 10 MICRONS
Sampling: TRANSMISSION
Resolution: 2
1/CM	TRANSMITTANCE
4000	0.8702
3991	0.8703
3982	0.8702
3973	0.87
3964	0.8698
3955	0.8696
3946	0.8694
3937	0.8692
3928	0.869
3919	0.869
3910	0.8689
3901	0.8688
3892	0.8687
3883	0.8687
3874	0.8686
3865	0.8685
3856	0.8685
3847	0.8685
3838	0.8686
3829	0.8686
3820	0.8686
3811	0.8686
3802	0.8687
3793	0.8689
3784	0.8692
3775	0.8694
3766	0.8697
3757	0.8699
3748	0.8703
3739	0.8705
3730	0.8707
3721	0.8709
3712	0.8712
3703	0.8715
3694	0.8715
3685	0.8716
3676	0.8716
3667	0.8707
3658	0.8693
3649	0.8678
3640	0.8654
3631	0.8617
3622	0.8568
3613	0.8518
3604	0.8449
3595	0.8364
3586	0.8251
3577	0.8011
3568	0.7796
3559	0.7582
3550	0.7365
3541	0.715
3532	0.6932
3523	0.6712
3514	0.6493
3505	0.6272
3496	0.605
3487	0.5827
3478	0.5602
3469	0.5377
3460	0.515
3451	0.4922
3442	0.4693
3433	0.4536
3424	0.4404
3415	0.4306
3406	0.4202
3397	0.4091
3388	0.4029
3379	0.3918
3370	0.3814
3361	0.3792
3352	0.3777
3343	0.3771
3334	0.3764
3325	0.3759
3316	0.3753
3307	0.3746
3298	0.3738
3289	0.3729
3280	0.371
3271	0.3662
3262	0.3632
3253	0.3628
3244	0.3629
3235	0.3644
3226	0.3908
3217	0.4125
3208	0.4334
3199	0.4545
3190	0.4757
3181	0.4969
3172	0.5184
3163	0.5399
3154	0.5615
3145	0.5833
3136	0.6052
3127	0.6272
3118	0.6451
3109	0.6475
3100	0.6475
3091	0.6372
3082	0.609
3073	0.6032
3064	0.6009
3055	0.6004
3046	0.6009
3037	0.6049
3028	0.6164
3019	0.6289
3010	0.6377
3001	0.6465
2992	0.6548
2983	0.6564
2974	0.654
2965	0.6478
2956	0.6408
2947	0.6345
2938	0.6256
2929	0.613
2920	0.6068
2911	0.6062
2902	0.6134
2893	0.6247
2884	0.6315
2875	0.6382
2866	0.6462
2857	0.656
2848	0.6739
2839	0.678
2830	0.6811
2821	0.6912
2812	0.7067
2803	0.7146
2794	0.7208
2785	0.7269
2776	0.7321
2767	0.7339
2758	0.7335
2749	0.729
2740	0.7235
2731	0.718
2722	0.7125
2713	0.7082
2704	0.7047
2695	0.7011
2686	0.6975
2677	0.6935
2668	0.6891
2659	0.6865
2650	0.6851
2641	0.6837
2632	0.6821
2623	0.6815
2614	0.6812
2605	0.6815
2596	0.6822
2587	0.6832
2578	0.6841
2569	0.6855
2560	0.6868
2551	0.6864
2542	0.6842
2533	0.6815
2524	0.6793
2515	0.6801
2506	0.681
2497	0.6857
2488	0.6917
2479	0.6976
2470	0.7037
2461	0.7097
2452	0.7139
2443	0.7178
2434	0.7218
2425	0.7248
2416	0.7268
2407	0.7272
2398	0.7278
2389	0.7293
2380	0.7312
2371	0.7339
2362	0.7365
2353	0.7394
2344	0.7421
2335	0.7444
2326	0.7465
2317	0.7488
2308	0.7512
2299	0.7538
2290	0.7564
2281	0.7591
2272	0.7615
2263	0.7635
2254	0.7656
2245	0.7676
2236	0.7698
2227	0.771
2218	0.7721
2209	0.7733
2200	0.7733
2191	0.7734
2182	0.7741
2173	0.7757
2164	0.7771
2155	0.7785
2146	0.7796
2137	0.7803
2128	0.781
2119	0.7817
2110	0.7824
2101	0.783
2092	0.7837
2083	0.7843
2074	0.7849
2065	0.7843
2056	0.7837
2047	0.7836
2038	0.7849
2029	0.7861
2020	0.7874
2011	0.7884
2002	0.7894
1993	0.7899
1984	0.7897
1975	0.7895
1966	0.7894
1957	0.7894
1948	0.7894
1939	0.7889
1930	0.7885
1921	0.7892
1912	0.7907
1903	0.7931
1894	0.7944
1885	0.7946
1876	0.7951
1867	0.7962
1858	0.7968
1849	0.7961
1840	0.7939
1831	0.7941
1822	0.7955
1813	0.7976
1804	0.7995
1795	0.8004
1786	0.8011
1777	0.8015
1768	0.8019
1759	0.8
1750	0.7938
1741	0.7838
1732	0.7658
1723	0.7399
1714	0.6992
1705	0.6441
1696	0.5883
1687	0.5086
1678	0.4467
1669	0.3496
1660	0.2548
1651	0.205
1642	0.2221
1633	0.3021
1624	0.2988
1615	0.2757
1606	0.2918
1597	0.2543
1588	0.1811
1579	0.1396
1570	0.1459
1561	0.1963
1552	0.2301
1543	0.2502
1534	0.2592
1525	0.2633
1516	0.2597
1507	0.2488
1498	0.2355
1489	0.2221
1480	0.2095
1471	0.2183
1462	0.2317
1453	0.2113
1444	0.2581
1435	0.4
1426	0.4484
1417	0.4527
1408	0.4988
1399	0.4788
1390	0.3541
1381	0.2998
1372	0.323
1363	0.3297
1354	0.2718
1345	0.2974
1336	0.453
1327	0.5062
1318	0.6028
1309	0.6208
1300	0.5695
1291	0.5944
1282	0.5901
1273	0.6329
1264	0.6514
1255	0.6476
1246	0.6183
1237	0.5725
1228	0.5712
1219	0.5612
1210	0.545
1201	0.5081
1192	0.468
1183	0.5051
1174	0.553
1165	0.5398
1156	0.5304
1147	0.531
1138	0.5325
1129	0.5336
1120	0.4874
1111	0.4465
1102	0.4289
1093	0.388
1084	0.399
1075	0.4009
1066	0.3839
1057	0.3532
1048	0.34
1039	0.3843
1030	0.4114
1021	0.395
1012	0.4194
1003	0.4631
994	0.4721
985	0.532
976	0.4804
967	0.5599
958	0.6187
949	0.6599
940	0.686
931	0.6785
922	0.6812
913	0.6987
904	0.6968
895	0.6819
886	0.609
877	0.6136
868	0.4684
859	0.6043
850	0.7391
841	0.7554
832	0.7898
823	0.7755
814	0.779
805	0.783
796	0.7453
787	0.5657
778	0.5872
769	0.5937
760	0.5662
751	0.4084
742	0.5378
733	0.5784
724	0.5759
715	0.5691
706	0.5745
697	0.5955
688	0.5982
679	0.5948
670	0.5827
661	0.5524
