Infrared Spectrum: SODIUM DICHROMATE
Formula: Na2 Cr2 O7  * 2 H2 O
State: SOLID (NUJOL MULL)
Class: COBLENTZ
Instrument: Not specified, most likely a prism, grating, or hybrid spectrometer.
Sampling: TRANSMISSION
Resolution: 4
Origin: MELLON INSTITUTE
MICROMETERS	TRANSMITTANCE
2.029	0.618
2.06974	0.631
2.11048	0.642
2.15122	0.648
2.19197	0.657
2.23271	0.66
2.27345	0.662
2.31419	0.669
2.35493	0.678
2.39567	0.686
2.43641	0.696
2.47716	0.702
2.5179	0.708
2.55864	0.72
2.59938	0.731
2.64012	0.739
2.68086	0.751
2.7216	0.755
2.76234	0.726
2.80309	0.539
2.84383	0.409
2.88457	0.393
2.92531	0.448
2.96605	0.508
3.00679	0.568
3.04753	0.616
3.08828	0.654
3.12902	0.686
3.16976	0.705
3.2105	0.727
3.25124	0.726
3.29198	0.672
3.33272	0.265
3.37347	0.198
3.41421	0.297
3.45495	0.287
3.49569	0.708
3.53643	0.828
3.57717	0.856
3.61791	0.873
3.65865	0.878
3.6994	0.883
3.74014	0.89
3.78088	0.898
3.82162	0.902
3.86236	0.904
3.9031	0.905
3.94384	0.91
3.98459	0.916
4.02533	0.914
4.06607	0.916
4.10681	0.912
4.14755	0.912
4.18829	0.909
4.22903	0.909
4.26978	0.909
4.31052	0.907
4.35126	0.909
4.392	0.91
4.43274	0.914
4.47348	0.919
4.51422	0.928
4.55496	0.928
4.59571	0.922
4.63645	0.922
4.67719	0.919
4.71793	0.919
4.75867	0.917
4.79941	0.921
4.84015	0.919
4.8809	0.926
4.92164	0.929
4.96238	0.928
5.00312	0.929
5.04386	0.936
5.0846	0.936
5.12534	0.941
5.16609	0.946
5.20683	0.946
5.24757	0.948
5.28831	0.946
5.32905	0.943
5.36979	0.943
5.41053	0.945
5.45128	0.943
5.49202	0.943
5.53276	0.945
5.5735	0.95
5.61424	0.955
5.65498	0.96
5.69572	0.97
5.73646	0.977
5.77721	0.981
5.81795	0.982
5.85869	0.984
5.89943	0.982
5.94017	0.974
5.98091	0.962
6.02165	0.864
6.0624	0.445
6.10314	0.5
6.14388	0.433
6.18462	0.722
6.22536	0.897
6.2661	0.921
6.30684	0.926
6.34759	0.933
6.38833	0.934
6.42907	0.943
6.46981	0.946
6.51055	0.943
6.55129	0.95
6.59203	0.948
6.63277	0.953
6.67352	0.946
6.71426	0.917
6.755	0.851
6.79574	0.676
6.83648	0.648
6.87722	0.707
6.91796	0.808
6.95871	0.876
6.99945	0.905
7.04019	0.907
7.08093	0.898
7.12167	0.859
7.16241	0.775
7.20315	0.666
7.2439	0.703
7.28464	0.772
7.32538	0.82
7.36612	0.857
7.40686	0.873
7.4476	0.886
7.48834	0.897
7.52909	0.9
7.56983	0.904
7.61057	0.91
7.65131	0.914
7.69205	0.917
7.73279	0.924
7.77353	0.931
7.81427	0.938
7.85502	0.945
7.89576	0.952
7.9365	0.958
7.97724	0.96
8.01798	0.962
8.05872	0.965
8.09946	0.967
8.14021	0.97
8.18095	0.97
8.22169	0.969
8.26243	0.967
8.30317	0.969
8.34391	0.967
8.38465	0.965
8.4254	0.965
8.46614	0.964
8.50688	0.96
8.54762	0.96
8.58836	0.957
8.6291	0.955
8.66984	0.953
8.71058	0.953
8.75133	0.955
8.79207	0.952
8.83281	0.95
8.87355	0.948
8.91429	0.948
8.95503	0.946
8.99577	0.948
9.03652	0.948
9.07726	0.948
9.118	0.948
9.15874	0.946
9.19948	0.95
9.24022	0.95
9.28096	0.95
9.32171	0.946
9.36245	0.946
9.40319	0.95
9.44393	0.95
9.48467	0.948
9.52541	0.948
9.56615	0.95
9.60689	0.948
9.64764	0.943
9.68838	0.941
9.72912	0.936
9.76986	0.929
9.8106	0.921
9.85134	0.917
9.89208	0.907
9.93283	0.9
9.97357	0.892
10.0143	0.886
10.0551	0.873
10.0958	0.835
10.1365	0.779
10.1773	0.72
10.218	0.585
10.2588	0.441
10.2995	0.328
10.3402	0.238
10.381	0.172
10.4217	0.135
10.4625	0.114
10.5032	0.099
10.5439	0.087
10.5847	0.075
10.6254	0.07
10.6662	0.066
10.7069	0.066
10.7477	0.083
10.7884	0.16
10.8291	0.323
10.8699	0.405
10.9106	0.484
10.9514	0.486
10.9921	0.4
11.0328	0.45
11.0736	0.522
11.1143	0.544
11.1551	0.44
11.1958	0.352
11.2365	0.273
11.2773	0.371
11.318	0.537
11.3588	0.645
11.3995	0.729
11.4403	0.756
11.481	0.785
11.5217	0.808
11.5625	0.827
11.6032	0.84
11.644	0.852
11.6847	0.864
11.7254	0.873
11.7662	0.878
11.8069	0.886
11.8477	0.888
11.8884	0.89
11.9292	0.886
11.9699	0.892
12.0106	0.892
12.0514	0.888
12.0921	0.89
12.1329	0.881
12.1736	0.878
12.2143	0.871
12.2551	0.866
12.2958	0.851
12.3366	0.832
12.3773	0.808
12.418	0.777
12.4588	0.739
12.4995	0.695
12.5403	0.635
12.581	0.583
12.6218	0.527
12.6625	0.469
12.7032	0.412
12.744	0.376
12.7847	0.368
12.8255	0.373
12.8662	0.405
12.9069	0.443
12.9477	0.462
12.9884	0.457
13.0292	0.433
13.0699	0.4
13.1107	0.361
13.1514	0.318
13.1921	0.273
13.2329	0.243
13.2736	0.203
13.3144	0.172
13.3551	0.157
13.3958	0.138
13.4366	0.128
13.4773	0.121
13.5181	0.118
13.5588	0.118
13.5995	0.123
13.6403	0.135
13.681	0.15
13.7218	0.164
13.7625	0.19
13.8033	0.243
13.844	0.294
13.8847	0.349
13.9255	0.402
13.9662	0.438
14.007	0.474
14.0477	0.505
14.0884	0.539
14.1292	0.559
14.1699	0.577
14.2107	0.592
14.2514	0.604
14.2922	0.619
14.3329	0.626
14.3736	0.636
14.4144	0.645
14.4551	0.65
14.4959	0.652
14.5366	0.659
14.5773	0.654
14.6181	0.652
14.6588	0.652
14.6996	0.652
14.7403	0.645
14.781	0.642
14.8218	0.643
14.8625	0.645
14.9033	0.636
14.944	0.628
14.9848	0.63
15.0255	0.63
15.0662	0.628
15.107	0.63
15.1477	0.626
15.1885	0.625
15.2292	0.621
15.2699	0.616
15.3107	0.614
15.3514	0.616
15.3922	0.616
15.4329	0.611
15.4737	0.606
15.5144	0.611
15.5551	0.607
15.5959	0.604
15.6366	0.604
15.6774	0.606
15.7181	0.604
15.7588	0.606
15.7996	0.611
15.8403	0.613
15.8811	0.613
15.9218	0.616
15.9625	0.618
