Infrared Spectrum: STRONTIUM MOLYBDATE
Formula: Sr Mo O4
State: SOLID (0.5 mg / 300 mg CsI DISC)
Class: COBLENTZ
Instrument: Not specified, most likely a grating spectrometer.
Sampling: TRANSMISSION
Resolution: 4
Origin: DESOTO CHEMICAL COATINGS, INC.
1/CM	TRANSMITTANCE
198.67	0.76
209.313	0.761
219.956	0.772
230.599	0.784
241.242	0.801
251.885	0.809
262.528	0.809
273.171	0.76
283.814	0.711
294.457	0.724
305.1	0.747
315.743	0.754
326.386	0.701
337.029	0.631
347.672	0.701
358.315	0.749
368.959	0.77
379.602	0.776
390.245	0.78
400.888	0.736
411.531	0.733
422.174	0.7849
432.817	0.83
443.46	0.861
454.103	0.892
464.746	0.904
475.389	0.92
486.032	0.924
496.675	0.926
507.318	0.93
517.961	0.936
528.604	0.94
539.247	0.94
549.89	0.941
560.533	0.942
571.176	0.941
581.819	0.94
592.462	0.945
603.105	0.949
613.748	0.952
624.391	0.952
635.034	0.953
645.677	0.954
656.32	0.962
666.963	0.964
677.606	0.965
688.25	0.965
698.893	0.961
709.536	0.96
720.179	0.957
730.822	0.953
741.465	0.949
752.108	0.941
762.751	0.916
773.394	0.826
784.037	0.665
794.68	0.3912
805.323	0.1291
815.966	0.103
826.609	0.095
837.252	0.131
847.895	0.197
858.538	0.27
869.181	0.41
879.824	0.555
890.467	0.676
901.11	0.8449
911.753	0.914
922.396	0.941
933.039	0.953
943.682	0.961
954.325	0.965
964.968	0.966
975.611	0.97
986.254	0.97
996.897	0.972
1007.54	0.97
1018.18	0.969
1028.83	0.966
1039.47	0.965
1050.11	0.968
1060.76	0.965
1071.4	0.962
1082.04	0.96
1092.68	0.961
1103.33	0.964
1113.97	0.962
1124.61	0.962
1135.26	0.962
1145.9	0.965
1156.54	0.969
1167.19	0.969
1177.83	0.97
1188.47	0.972
1199.12	0.974
1209.76	0.974
1220.4	0.973
1231.04	0.972
1241.69	0.972
1252.33	0.973
1262.97	0.97
1273.62	0.974
1284.26	0.969
1294.9	0.973
1305.55	0.972
1316.19	0.97
1326.83	0.966
1337.47	0.964
1348.12	0.96
1358.76	0.953
1369.4	0.946
1380.05	0.945
1390.69	0.949
1401.33	0.953
1411.98	0.95
1422.62	0.953
1433.26	0.954
1443.9	0.954
1454.55	0.952
1465.19	0.956
1475.83	0.96
1486.48	0.964
1497.12	0.966
1507.76	0.964
1518.41	0.964
1529.05	0.962
1539.69	0.961
1550.34	0.958
1560.98	0.953
1571.62	0.949
1582.26	0.944
1592.91	0.932
1603.55	0.912
1614.19	0.888
1624.84	0.885
1635.48	0.9
1646.12	0.914
1656.77	0.924
1667.41	0.93
1678.05	0.932
1688.69	0.932
1699.34	0.936
1709.98	0.94
1720.62	0.945
1731.27	0.95
1741.91	0.953
1752.55	0.96
1763.2	0.964
1773.84	0.964
1784.48	0.961
1795.12	0.961
1805.77	0.964
1816.41	0.964
1827.05	0.965
1837.7	0.964
1848.34	0.966
1858.98	0.964
1869.63	0.966
1880.27	0.962
1890.91	0.962
1901.56	0.962
1912.2	0.961
1922.84	0.961
1933.48	0.961
1944.13	0.96
1954.77	0.957
1965.41	0.961
1976.06	0.961
1986.7	0.96
1997.34	0.956
2007.99	0.954
2018.63	0.954
2029.27	0.954
2039.91	0.953
2050.56	0.953
2061.2	0.953
2071.84	0.95
2082.49	0.95
2093.13	0.95
2103.77	0.954
2114.42	0.953
2125.06	0.954
2135.7	0.952
2146.34	0.952
2156.99	0.953
2167.63	0.954
2178.27	0.954
2188.92	0.956
2199.56	0.954
2210.2	0.953
2220.85	0.9541
2231.49	0.952
2242.13	0.9519
2252.78	0.95
2263.42	0.95
2274.06	0.953
2284.7	0.953
2295.35	0.953
2305.99	0.953
2316.63	0.95
2327.28	0.952
2337.92	0.95
2348.56	0.9499
2359.21	0.9461
2369.85	0.952
2380.49	0.9501
2391.13	0.9491
2401.78	0.9499
2412.42	0.9459
2423.06	0.9441
2433.71	0.9449
2444.35	0.9441
2454.99	0.9422
2465.64	0.9459
2476.28	0.9441
2486.92	0.945
2497.57	0.946
2508.21	0.945
2518.85	0.942
2529.49	0.941
2540.14	0.941
2550.78	0.941
2561.42	0.9401
2572.07	0.9401
2582.71	0.9409
2593.35	0.938
2604	0.941
2614.64	0.9398
2625.28	0.94
2635.92	0.937
2646.57	0.9379
2657.21	0.936
2667.85	0.938
2678.5	0.938
2689.14	0.9369
2699.78	0.9329
2710.43	0.9321
2721.07	0.9329
2731.71	0.933
2742.35	0.9329
2753	0.9318
2763.64	0.93
2774.28	0.9321
2784.93	0.936
2795.57	0.9339
2806.21	0.9329
2816.86	0.9277
2827.5	0.928
2838.14	0.926
2848.79	0.9237
2859.43	0.9209
2870.07	0.92
2880.71	0.92
2891.36	0.917
2902	0.916
2912.64	0.914
2923.29	0.914
2933.93	0.912
2944.57	0.909
2955.22	0.9122
2965.86	0.914
2976.5	0.9143
2987.14	0.916
2997.79	0.917
3008.43	0.917
3019.07	0.917
3029.72	0.918
3040.36	0.916
3051	0.9168
3061.65	0.914
3072.29	0.912
3082.93	0.913
3093.57	0.9088
3104.22	0.9088
3114.86	0.9076
3125.5	0.9048
3136.15	0.904
3146.79	0.902
3157.43	0.9008
3168.08	0.8978
3178.72	0.8956
3189.36	0.893
3200.01	0.89
3210.65	0.888
3221.29	0.8834
3231.93	0.88
3242.58	0.8768
3253.22	0.8716
3263.86	0.8658
3274.51	0.8636
3285.15	0.86
3295.79	0.8538
3306.44	0.8498
3317.08	0.8441
3327.72	0.8338
3338.36	0.8256
3349.01	0.8113
3359.65	0.8033
3370.29	0.7898
3380.94	0.7811
3391.58	0.7673
3402.22	0.7559
3412.87	0.7438
3423.51	0.7341
3434.15	0.7278
3444.79	0.7223
3455.44	0.717
3466.08	0.717
3476.72	0.7192
3487.37	0.7232
3498.01	0.7282
3508.65	0.7335
3519.3	0.7403
3529.94	0.7508
3540.58	0.7613
3551.23	0.773
3561.87	0.786
3572.51	0.7988
3583.15	0.8083
3593.8	0.8213
3604.44	0.8388
3615.08	0.8498
3625.73	0.8628
3636.37	0.8771
3647.01	0.8858
3657.66	0.8933
3668.3	0.9
3678.94	0.9
3689.58	0.9013
3700.23	0.904
3710.87	0.906
3721.51	0.908
3732.16	0.908
3742.8	0.9074
3753.44	0.905
3764.09	0.9047
3774.73	0.902
3785.37	0.901
3796.02	0.902
3806.66	0.904
3817.3	0.904
3827.94	0.904
3838.59	0.905
3849.23	0.9034
3859.87	0.9
3870.52	0.902
3881.16	0.9
3891.8	0.9013
3902.45	0.9017
3913.09	0.901
3923.73	0.901
3934.37	0.9
3945.02	0.898
3955.66	0.901
3966.3	0.9
3976.95	0.9
3987.59	0.9
