Infrared Spectrum: POTASSIUM TUNGSTATE
Formula: K2 W O4
State: SOLID (NUJOL MULL)
Class: COBLENTZ
Instrument: Not specified, most likely a prism, grating, or hybrid spectrometer.
Sampling: TRANSMISSION
Resolution: 4
Origin: MELLON INSTITUTE
MICROMETERS	TRANSMITTANCE
2.013	0.953
2.05384	0.951
2.09468	0.948
2.13552	0.946
2.17636	0.943
2.2172	0.941
2.25805	0.938
2.29889	0.934
2.33973	0.927
2.38057	0.922
2.42141	0.922
2.46225	0.922
2.50309	0.924
2.54393	0.927
2.58477	0.927
2.62561	0.927
2.66646	0.929
2.7073	0.926
2.74814	0.917
2.78898	0.903
2.82982	0.883
2.87066	0.819
2.9115	0.771
2.95234	0.718
2.99318	0.663
3.03402	0.647
3.07486	0.634
3.11571	0.601
3.15655	0.587
3.19739	0.613
3.23823	0.683
3.27907	0.733
3.31991	0.738
3.36075	0.465
3.40159	0.367
3.44243	0.527
3.48327	0.5
3.52412	0.797
3.56496	0.862
3.6058	0.886
3.64664	0.891
3.68748	0.895
3.72832	0.896
3.76916	0.898
3.81	0.898
3.85084	0.898
3.89168	0.9
3.93252	0.902
3.97337	0.903
4.01421	0.903
4.05505	0.903
4.09589	0.905
4.13673	0.902
4.17757	0.902
4.21841	0.9
4.25925	0.9
4.30009	0.898
4.34093	0.9
4.38178	0.9
4.42262	0.9
4.46346	0.9
4.5043	0.898
4.54514	0.9
4.58598	0.896
4.62682	0.898
4.66766	0.898
4.7085	0.898
4.74934	0.9
4.79018	0.903
4.83103	0.902
4.87187	0.902
4.91271	0.903
4.95355	0.903
4.99439	0.903
5.03523	0.907
5.07607	0.91
5.11691	0.91
5.15775	0.912
5.19859	0.915
5.23944	0.912
5.28028	0.912
5.32112	0.914
5.36196	0.914
5.4028	0.917
5.44364	0.917
5.48448	0.917
5.52532	0.92
5.56616	0.92
5.607	0.922
5.64785	0.922
5.68869	0.922
5.72953	0.922
5.77037	0.92
5.81121	0.917
5.85205	0.912
5.89289	0.852
5.93373	0.828
5.97457	0.826
6.01541	0.853
6.05625	0.881
6.0971	0.896
6.13794	0.905
6.17878	0.912
6.21962	0.919
6.26046	0.922
6.3013	0.922
6.34214	0.924
6.38298	0.922
6.42382	0.922
6.46466	0.92
6.50551	0.919
6.54635	0.917
6.58719	0.919
6.62803	0.92
6.66887	0.922
6.70971	0.919
6.75055	0.905
6.79139	0.841
6.83223	0.776
6.87307	0.756
6.91391	0.774
6.95476	0.821
6.9956	0.855
7.03644	0.886
7.07728	0.907
7.11812	0.919
7.15896	0.92
7.1998	0.903
7.24064	0.852
7.28148	0.874
7.32232	0.895
7.36317	0.907
7.40401	0.924
7.44485	0.929
7.48569	0.932
7.52653	0.939
7.56737	0.943
7.60821	0.946
7.64905	0.946
7.68989	0.948
7.73073	0.951
7.77157	0.953
7.81242	0.958
7.85326	0.96
7.8941	0.963
7.93494	0.963
7.97578	0.965
8.01662	0.967
8.05746	0.969
8.0983	0.969
8.13914	0.969
8.17998	0.967
8.22083	0.97
8.26167	0.972
8.30251	0.972
8.34335	0.977
8.38419	0.975
8.42503	0.975
8.46587	0.977
8.50671	0.975
8.54755	0.977
8.58839	0.977
8.62923	0.977
8.67008	0.975
8.71092	0.977
8.75176	0.975
8.7926	0.975
8.83344	0.974
8.87428	0.974
8.91512	0.972
8.95596	0.97
8.9968	0.969
9.03764	0.965
9.07849	0.965
9.11933	0.965
9.16017	0.967
9.20101	0.967
9.24185	0.967
9.28269	0.965
9.32353	0.965
9.36437	0.967
9.40521	0.965
9.44605	0.967
9.48689	0.967
9.52774	0.969
9.56858	0.969
9.60942	0.967
9.65026	0.967
9.6911	0.965
9.73194	0.965
9.77278	0.965
9.81362	0.965
9.85446	0.967
9.8953	0.967
9.93615	0.967
9.97699	0.967
10.0178	0.969
10.0587	0.969
10.0995	0.97
10.1404	0.97
10.1812	0.97
10.222	0.969
10.2629	0.969
10.3037	0.967
10.3446	0.967
10.3854	0.967
10.4262	0.967
10.4671	0.967
10.5079	0.967
10.5488	0.967
10.5896	0.967
10.6304	0.963
10.6713	0.96
10.7121	0.95
10.753	0.92
10.7938	0.879
10.8346	0.884
10.8755	0.896
10.9163	0.908
10.9572	0.912
10.998	0.912
11.0389	0.912
11.0797	0.908
11.1205	0.895
11.1614	0.869
11.2022	0.833
11.2431	0.804
11.2839	0.756
11.3247	0.718
11.3656	0.682
11.4064	0.637
11.4473	0.603
11.4881	0.565
11.5289	0.524
11.5698	0.482
11.6106	0.445
11.6515	0.403
11.6923	0.367
11.7331	0.333
11.774	0.297
11.8148	0.257
11.8557	0.225
11.8965	0.189
11.9374	0.159
11.9782	0.137
12.019	0.123
12.0599	0.113
12.1007	0.109
12.1416	0.109
12.1824	0.109
12.2232	0.116
12.2641	0.125
12.3049	0.135
12.3458	0.152
12.3866	0.199
12.4274	0.268
12.4683	0.331
12.5091	0.402
12.55	0.457
12.5908	0.517
12.6316	0.568
12.6725	0.604
12.7133	0.646
12.7542	0.675
12.795	0.699
12.8359	0.713
12.8767	0.726
12.9175	0.735
12.9584	0.74
12.9992	0.749
13.0401	0.754
13.0809	0.761
13.1217	0.762
13.1626	0.766
13.2034	0.769
13.2443	0.773
13.2851	0.774
13.3259	0.781
13.3668	0.785
13.4076	0.795
13.4485	0.802
13.4893	0.809
13.5301	0.814
13.571	0.823
13.6118	0.829
13.6527	0.835
13.6935	0.84
13.7344	0.843
13.7752	0.847
13.816	0.852
13.8569	0.853
13.8977	0.855
13.9386	0.859
13.9794	0.864
14.0202	0.862
14.0611	0.862
14.1019	0.862
14.1428	0.862
14.1836	0.857
14.2244	0.855
14.2653	0.853
14.3061	0.852
14.347	0.852
14.3878	0.85
14.4287	0.85
14.4695	0.847
14.5103	0.843
14.5512	0.84
14.592	0.836
14.6329	0.831
14.6737	0.826
14.7145	0.823
14.7554	0.819
14.7962	0.81
14.8371	0.809
14.8779	0.805
14.9187	0.802
14.9596	0.798
15.0004	0.795
15.0413	0.793
15.0821	0.788
15.1229	0.783
15.1638	0.78
15.2046	0.776
15.2455	0.771
15.2863	0.769
15.3272	0.764
15.368	0.759
15.4088	0.754
15.4497	0.75
15.4905	0.745
15.5314	0.742
15.5722	0.74
15.613	0.737
15.6539	0.733
15.6947	0.73
15.7356	0.728
15.7764	0.726
15.8172	0.723
15.8581	0.723
15.8989	0.725
15.9398	0.725
