Infrared Spectrum: 5-TERT-BUTYL-2-HYDROXYLBENZENE SULFONIC ACID, SODIUM SALT
Formula: C10 H13 Na O4 S
State: SOLID (MINERAL OIL MULL)
Class: COBLENTZ
Instrument: Not specified, most likely a prism, grating, or hybrid spectrometer.
Sampling: TRANSMISSION
Resolution: 4
Origin: DOW CHEMICAL COMPANY
MICROMETERS	TRANSMITTANCE
2.029	0.602
2.0681	0.602
2.1072	0.607
2.1463	0.61
2.1854	0.612
2.2245	0.616
2.2636	0.616
2.30269	0.612
2.34179	0.61
2.38089	0.613
2.41999	0.621
2.45909	0.629
2.49819	0.634
2.53729	0.634
2.57639	0.637
2.61549	0.642
2.65459	0.649
2.69369	0.649
2.73279	0.649
2.77188	0.647
2.81098	0.633
2.85008	0.631
2.88918	0.625
2.92828	0.616
2.96738	0.599
3.00648	0.563
3.04558	0.495
3.08468	0.396
3.12378	0.321
3.16288	0.436
3.20198	0.514
3.24108	0.566
3.28017	0.587
3.31927	0.594
3.35837	0.491
3.39747	0.167
3.43657	0.077
3.47567	0.185
3.51477	0.217
3.55387	0.569
3.59297	0.62
3.63207	0.644
3.67117	0.647
3.71027	0.65
3.74936	0.668
3.78846	0.675
3.82756	0.68
3.86666	0.681
3.90576	0.693
3.94486	0.702
3.98396	0.709
4.02306	0.715
4.06216	0.719
4.10126	0.72
4.14036	0.727
4.17946	0.738
4.21856	0.73
4.25765	0.737
4.29675	0.745
4.33585	0.745
4.37495	0.745
4.41405	0.746
4.45315	0.746
4.49225	0.748
4.53135	0.75
4.57045	0.751
4.60955	0.753
4.64865	0.754
4.68775	0.758
4.72684	0.758
4.76594	0.761
4.80504	0.762
4.84414	0.764
4.88324	0.766
4.92234	0.769
4.96144	0.772
5.00054	0.774
5.03964	0.777
5.07874	0.777
5.11784	0.777
5.15694	0.779
5.19604	0.782
5.23513	0.78
5.27423	0.782
5.31333	0.78
5.35243	0.787
5.39153	0.79
5.43063	0.787
5.46973	0.79
5.50883	0.798
5.54793	0.797
5.58703	0.79
5.62613	0.788
5.66523	0.793
5.70432	0.795
5.74342	0.795
5.78252	0.797
5.82162	0.797
5.86072	0.797
5.89982	0.798
5.93892	0.798
5.97802	0.795
6.01712	0.79
6.05622	0.788
6.09532	0.797
6.13442	0.782
6.17352	0.746
6.21261	0.693
6.25171	0.745
6.29081	0.787
6.32991	0.797
6.36901	0.801
6.40811	0.803
6.44721	0.803
6.48631	0.798
6.52541	0.779
6.56451	0.761
6.60361	0.711
6.64271	0.626
6.6818	0.719
6.7209	0.738
6.76	0.654
6.7991	0.472
6.8382	0.415
6.8773	0.503
6.9164	0.569
6.9555	0.607
6.9946	0.564
7.0337	0.487
7.0728	0.595
7.1119	0.72
7.151	0.745
7.19009	0.702
7.22919	0.612
7.26829	0.535
7.30739	0.548
7.34649	0.657
7.38559	0.728
7.42469	0.751
7.46379	0.777
7.50289	0.792
7.54199	0.797
7.58109	0.797
7.62019	0.787
7.65929	0.775
7.69838	0.73
7.73748	0.676
7.77658	0.707
7.81568	0.613
7.85478	0.459
7.89388	0.508
7.93298	0.564
7.97208	0.678
8.01118	0.649
8.05028	0.501
8.08938	0.24
8.12848	0.1
8.16757	0.188
8.20667	0.449
8.24577	0.487
8.28487	0.345
8.32397	0.152
8.36307	0.154
8.40217	0.433
8.44127	0.581
8.48037	0.686
8.51947	0.694
8.55857	0.665
8.59767	0.646
8.63677	0.724
8.67586	0.759
8.71496	0.78
8.75406	0.788
8.79316	0.797
8.83226	0.793
8.87136	0.746
8.91046	0.741
8.94956	0.785
8.98866	0.79
9.02776	0.74
9.06686	0.616
9.10596	0.379
9.14505	0.391
9.18415	0.6
9.22325	0.772
9.26235	0.8
9.30145	0.816
9.34055	0.826
9.37965	0.832
9.41875	0.839
9.45785	0.84
9.49695	0.831
9.53605	0.792
9.57515	0.642
9.61425	0.339
9.65334	0.464
9.69244	0.753
9.73154	0.798
9.77064	0.839
9.80974	0.866
9.84884	0.875
9.88794	0.881
9.92704	0.892
9.96614	0.899
10.0052	0.904
10.0443	0.909
10.0834	0.918
10.1225	0.928
10.1616	0.931
10.2007	0.931
10.2398	0.933
10.2789	0.935
10.318	0.935
10.3571	0.936
10.3962	0.939
10.4353	0.938
10.4744	0.941
10.5135	0.941
10.5526	0.938
10.5917	0.936
10.6308	0.936
10.6699	0.935
10.709	0.933
10.7481	0.93
10.7872	0.926
10.8263	0.928
10.8654	0.93
10.9045	0.93
10.9436	0.93
10.9827	0.93
11.0218	0.926
11.0609	0.917
11.1	0.897
11.1391	0.866
11.1782	0.849
11.2173	0.857
11.2564	0.866
11.2955	0.876
11.3346	0.887
11.3737	0.892
11.4128	0.897
11.4519	0.896
11.491	0.892
11.5301	0.889
11.5692	0.886
11.6083	0.884
11.6474	0.879
11.6865	0.879
11.7256	0.876
11.7647	0.875
11.8038	0.873
11.8429	0.866
11.882	0.862
11.9211	0.853
11.9602	0.845
11.9993	0.806
12.0384	0.738
12.0775	0.629
12.1166	0.511
12.1557	0.582
12.1948	0.779
12.2339	0.831
12.273	0.852
12.3121	0.858
12.3512	0.858
12.3903	0.858
12.4294	0.86
12.4685	0.86
12.5076	0.86
12.5467	0.86
12.5858	0.858
12.6249	0.858
12.664	0.857
12.7031	0.857
12.7422	0.857
12.7813	0.86
12.8204	0.86
12.8595	0.86
12.8986	0.862
12.9377	0.862
12.9768	0.865
13.0159	0.862
13.055	0.86
13.0941	0.858
13.1332	0.855
13.1723	0.852
13.2114	0.842
13.2505	0.831
13.2896	0.818
13.3287	0.788
13.3678	0.759
13.4069	0.741
13.446	0.737
13.4851	0.743
13.5242	0.756
13.5633	0.78
13.6024	0.808
13.6415	0.81
13.6806	0.792
13.7197	0.758
13.7588	0.728
13.7979	0.685
13.837	0.66
13.8761	0.646
13.9152	0.646
13.9543	0.66
13.9934	0.685
14.0325	0.707
14.0716	0.728
14.1107	0.745
14.1498	0.753
14.1889	0.761
14.228	0.764
14.2671	0.769
14.3061	0.771
14.3452	0.772
14.3843	0.772
14.4234	0.772
14.4625	0.772
14.5016	0.769
14.5407	0.759
14.5798	0.754
14.6189	0.743
14.658	0.719
14.6971	0.681
14.7362	0.641
14.7753	0.595
14.8144	0.571
14.8535	0.574
14.8926	0.602
14.9317	0.642
14.9708	0.688
15.0099	0.706
15.049	0.711
15.0881	0.717
15.1272	0.712
15.1663	0.707
15.2054	0.702
15.2445	0.701
15.2836	0.694
15.3227	0.688
15.3618	0.678
15.4009	0.67
15.44	0.66
15.4791	0.647
15.5182	0.633
15.5573	0.607
15.5964	0.573
15.6355	0.53
15.6746	0.482
15.7137	0.428
15.7528	0.381
15.7919	0.339
15.831	0.306
15.8701	0.3
