Infrared Spectrum: 4'-CHLORO-2-HYDROXY-5-t-OCTYLBENZOPHENONE
Formula: C21 H25 Cl O2
State: SOLID (MINERAL OIL MULL)
Class: COBLENTZ
Instrument: Not specified, most likely a prism, grating, or hybrid spectrometer.
Sampling: TRANSMISSION
Resolution: 4
Origin: DOW CHEMICAL COMPANY
MICROMETERS	TRANSMITTANCE
2.02	0.354
2.05921	0.357
2.09843	0.367
2.13764	0.375
2.17686	0.386
2.21607	0.396
2.25529	0.404
2.2945	0.409
2.33372	0.417
2.37293	0.427
2.41215	0.439
2.45136	0.443
2.49058	0.45
2.52979	0.461
2.56901	0.466
2.60822	0.473
2.64744	0.486
2.68665	0.495
2.72587	0.512
2.76508	0.515
2.8043	0.528
2.84351	0.547
2.88273	0.536
2.92194	0.486
2.96116	0.333
3.00037	0.221
3.03959	0.261
3.0788	0.315
3.11802	0.356
3.15723	0.396
3.19645	0.426
3.23566	0.442
3.27488	0.445
3.31409	0.435
3.35331	0.346
3.39252	0.149
3.43174	0.123
3.47095	0.216
3.51017	0.282
3.54938	0.53
3.5886	0.56
3.62781	0.58
3.66703	0.575
3.70624	0.578
3.74546	0.583
3.78467	0.591
3.82389	0.598
3.8631	0.601
3.90232	0.611
3.94153	0.617
3.98075	0.624
4.01996	0.637
4.05918	0.645
4.09839	0.627
4.13761	0.643
4.17682	0.645
4.21604	0.635
4.25525	0.653
4.29447	0.686
4.33368	0.695
4.3729	0.692
4.41211	0.702
4.45133	0.704
4.49054	0.707
4.52976	0.717
4.56897	0.72
4.60819	0.723
4.6474	0.731
4.68662	0.733
4.72583	0.734
4.76505	0.738
4.80426	0.744
4.84348	0.746
4.88269	0.749
4.92191	0.752
4.96112	0.754
5.00034	0.756
5.03955	0.764
5.07877	0.767
5.11798	0.77
5.1572	0.765
5.19641	0.757
5.23563	0.765
5.27484	0.78
5.31406	0.79
5.35327	0.793
5.39249	0.795
5.4317	0.793
5.47092	0.801
5.51013	0.8
5.54935	0.791
5.58856	0.788
5.62778	0.793
5.66699	0.808
5.70621	0.796
5.74542	0.803
5.78464	0.814
5.82385	0.8
5.86307	0.801
5.90228	0.798
5.9415	0.765
5.98071	0.73
6.01993	0.611
6.05914	0.357
6.09836	0.388
6.13757	0.671
6.17679	0.578
6.216	0.393
6.25522	0.269
6.29443	0.343
6.33365	0.234
6.37286	0.209
6.41208	0.323
6.45129	0.409
6.49051	0.526
6.52972	0.595
6.56894	0.556
6.60815	0.476
6.64737	0.559
6.68658	0.593
6.7258	0.575
6.76501	0.533
6.80423	0.443
6.84344	0.435
6.88266	0.517
6.92187	0.604
6.96109	0.713
7.0003	0.733
7.03952	0.749
7.07873	0.741
7.11795	0.708
7.15716	0.648
7.19638	0.611
7.23559	0.541
7.27481	0.585
7.31402	0.593
7.35324	0.583
7.39245	0.64
7.43167	0.656
7.47088	0.617
7.5101	0.593
7.54931	0.439
7.58853	0.221
7.62774	0.362
7.66696	0.416
7.70617	0.291
7.74539	0.243
7.7846	0.343
7.82382	0.328
7.86303	0.331
7.90225	0.411
7.94146	0.468
7.98068	0.531
8.01989	0.562
8.05911	0.554
8.09832	0.502
8.13754	0.321
8.17675	0.201
8.21597	0.292
8.25518	0.4
8.2944	0.489
8.33361	0.556
8.37283	0.586
8.41204	0.601
8.45126	0.614
8.49047	0.569
8.52969	0.499
8.5689	0.609
8.60812	0.538
8.64733	0.325
8.68655	0.286
8.72576	0.44
8.76498	0.526
8.80419	0.585
8.84341	0.614
8.88262	0.635
8.92184	0.648
8.96105	0.626
9.00026	0.565
9.03948	0.569
9.07869	0.611
9.11791	0.603
9.15712	0.5
9.19634	0.46
9.23555	0.65
9.27477	0.712
9.31398	0.718
9.3532	0.728
9.39241	0.736
9.43163	0.747
9.47084	0.756
9.51006	0.762
9.54927	0.762
9.58849	0.765
9.6277	0.769
9.66692	0.778
9.70613	0.783
9.74535	0.791
9.78456	0.752
9.82378	0.676
9.86299	0.647
9.90221	0.778
9.94142	0.777
9.98064	0.795
10.0199	0.808
10.0591	0.811
10.0983	0.811
10.1375	0.814
10.1767	0.814
10.2159	0.791
10.2551	0.757
10.2944	0.762
10.3336	0.767
10.3728	0.782
10.412	0.749
10.4512	0.679
10.4904	0.741
10.5296	0.79
10.5689	0.788
10.6081	0.765
10.6473	0.747
10.6865	0.678
10.7257	0.508
10.7649	0.419
10.8042	0.596
10.8434	0.708
10.8826	0.741
10.9218	0.76
10.961	0.773
11.0002	0.78
11.0394	0.783
11.0787	0.785
11.1179	0.786
11.1571	0.786
11.1963	0.782
11.2355	0.783
11.2747	0.786
11.3139	0.79
11.3532	0.788
11.3924	0.786
11.4316	0.785
11.4708	0.782
11.51	0.775
11.5492	0.762
11.5885	0.739
11.6277	0.634
11.6669	0.497
11.7061	0.378
11.7453	0.487
11.7845	0.645
11.8237	0.691
11.863	0.639
11.9022	0.51
11.9414	0.395
11.9806	0.4
12.0198	0.494
12.059	0.512
12.0982	0.538
12.1375	0.567
12.1767	0.609
12.2159	0.663
12.2551	0.702
12.2943	0.713
12.3335	0.72
12.3728	0.726
12.412	0.73
12.4512	0.731
12.4904	0.736
12.5296	0.738
12.5688	0.738
12.608	0.741
12.6473	0.739
12.6865	0.741
12.7257	0.741
12.7649	0.744
12.8041	0.741
12.8433	0.738
12.8825	0.725
12.9218	0.676
12.961	0.541
13.0002	0.4
13.0394	0.31
13.0786	0.478
13.1178	0.616
13.1571	0.66
13.1963	0.684
13.2355	0.694
13.2747	0.702
13.3139	0.702
13.3531	0.684
13.3923	0.647
13.4316	0.619
13.4708	0.65
13.51	0.682
13.5492	0.697
13.5884	0.695
13.6276	0.692
13.6668	0.689
13.7061	0.681
13.7453	0.666
13.7845	0.637
13.8237	0.598
13.8629	0.591
13.9021	0.635
13.9414	0.671
13.9806	0.681
14.0198	0.676
14.059	0.669
14.0982	0.653
14.1374	0.64
14.1766	0.627
14.2159	0.609
14.2551	0.596
14.2943	0.575
14.3335	0.554
14.3727	0.523
14.4119	0.484
14.4511	0.439
14.4904	0.406
14.5296	0.391
14.5688	0.419
14.608	0.466
14.6472	0.495
14.6864	0.517
14.7257	0.515
14.7649	0.5
14.8041	0.486
14.8433	0.46
14.8825	0.435
14.9217	0.404
14.9609	0.367
15.0002	0.334
15.0394	0.32
15.0786	0.328
15.1178	0.349
15.157	0.369
15.1962	0.386
15.2354	0.401
15.2747	0.413
15.3139	0.419
15.3531	0.422
15.3923	0.414
15.4315	0.398
15.4707	0.375
15.51	0.365
15.5492	0.373
15.5884	0.391
15.6276	0.404
15.6668	0.417
15.706	0.422
15.7452	0.427
15.7845	0.43
15.8237	0.43
15.8629	0.429
15.9021	0.427
