Infrared Spectrum: n-Butyrohydroxamic acid, 2-amino-
Formula: C4 H10 N2 O2
State: SOLID (0.4 mg / 650 mg KBr DISC)
Class: COBLENTZ III
Instrument: PERKIN-ELMER 21 (GRATING)
Instrument parameters: FILTER CHANGE ABOUT 1070 CM^-^1
Resolution: 2
Origin: SOUTHERN RESEARCH INSTITUTE
1/CM	TRANSMITTANCE
692	0.999
701	0.9519
710	0.8845
719	0.8694
728	0.8485
737	0.7962
746	0.7932
755	0.7918
764	0.81
773	0.8267
782	0.806
791	0.8113
800	0.8364
809	0.8257
818	0.8384
827	0.8532
836	0.8379
845	0.8025
854	0.7485
863	0.6183
872	0.8497
881	0.862
890	0.8424
899	0.8109
908	0.7709
917	0.6882
926	0.4513
935	0.7116
944	0.8393
953	0.8386
962	0.8565
971	0.8558
980	0.819
989	0.833
998	0.864
1007	0.8547
1016	0.842
1025	0.8341
1034	0.7974
1043	0.8228
1052	0.847
1061	0.844
1070	0.8375
1079	0.83
1088	0.8012
1097	0.7372
1106	0.7638
1115	0.7927
1124	0.7404
1133	0.6943
1142	0.7514
1151	0.8309
1160	0.8478
1169	0.8522
1178	0.8504
1187	0.8473
1196	0.8407
1205	0.8458
1214	0.8588
1223	0.857
1232	0.8519
1241	0.8384
1250	0.8151
1259	0.7648
1268	0.806
1277	0.8006
1286	0.7508
1295	0.6903
1304	0.7399
1313	0.7078
1322	0.6809
1331	0.7651
1340	0.7332
1349	0.6853
1358	0.5726
1367	0.4573
1376	0.3809
1385	0.5045
1394	0.6475
1403	0.7479
1412	0.7963
1421	0.79
1430	0.7566
1439	0.7084
1448	0.6664
1457	0.5793
1466	0.5783
1475	0.6017
1484	0.6346
1493	0.6663
1502	0.6666
1511	0.6118
1520	0.575
1529	0.5594
1538	0.659
1547	0.734
1556	0.7426
1565	0.7204
1574	0.6731
1583	0.6329
1592	0.5523
1601	0.4991
1610	0.3797
1619	0.2351
1628	0.2373
1637	0.3025
1646	0.4649
1655	0.5587
1664	0.6298
1673	0.7084
1682	0.7631
1691	0.8243
1700	0.8476
1709	0.8642
1718	0.8735
1727	0.8818
1736	0.8897
1745	0.8955
1754	0.8995
1763	0.9022
1772	0.9036
1781	0.9048
1790	0.9131
1799	0.918
1808	0.921
1817	0.9218
1826	0.9225
1835	0.9236
1844	0.9242
1853	0.9248
1862	0.9253
1871	0.9255
1880	0.9257
1889	0.9259
1898	0.9251
1907	0.9243
1916	0.9233
1925	0.9224
1934	0.9229
1943	0.9237
1952	0.9246
1961	0.9187
1970	0.9167
1979	0.9142
1988	0.909
1997	0.9057
2006	0.9019
2015	0.8978
2024	0.8936
2033	0.8893
2042	0.8835
2051	0.8768
2060	0.8684
2069	0.8578
2078	0.8483
2087	0.8419
2096	0.8388
2105	0.8367
2114	0.8349
2123	0.8351
2132	0.8348
2141	0.8411
2150	0.852
2159	0.8582
2168	0.8595
2177	0.8649
2186	0.8667
2195	0.8671
2204	0.8672
2213	0.866
2222	0.8649
2231	0.8631
2240	0.8613
2249	0.8586
2258	0.856
2267	0.8525
2276	0.8489
2285	0.8452
2294	0.8408
2303	0.8364
2312	0.8314
2321	0.8263
2330	0.8204
2339	0.8143
2348	0.8086
2357	0.8036
2366	0.7984
2375	0.7932
2384	0.7882
2393	0.7831
2402	0.7775
2411	0.7626
2420	0.7467
2429	0.7372
2438	0.7291
2447	0.7181
2456	0.7055
2465	0.6935
2474	0.6843
2483	0.6748
2492	0.6509
2501	0.6374
2510	0.6318
2519	0.6268
2528	0.6231
2537	0.6194
2546	0.6154
2555	0.6111
2564	0.6035
2573	0.5948
2582	0.5835
2591	0.5702
2600	0.5648
2609	0.5611
2618	0.5583
2627	0.5573
2636	0.5615
2645	0.5539
2654	0.5433
2663	0.5366
2672	0.5295
2681	0.5185
2690	0.5093
2699	0.5052
2708	0.4987
2717	0.4847
2726	0.4702
2735	0.4584
2744	0.4482
2753	0.4347
2762	0.4215
2771	0.4084
2780	0.3938
2789	0.3795
2798	0.3594
2807	0.3413
2816	0.3306
2825	0.3207
2834	0.3116
2843	0.3033
2852	0.3039
2861	0.3091
2870	0.3165
2879	0.3287
2888	0.3392
2897	0.3434
2906	0.3503
2915	0.3572
2924	0.3578
2933	0.3555
2942	0.3523
2951	0.3503
2960	0.3625
2969	0.3663
2978	0.3522
2987	0.3422
2996	0.334
3005	0.3302
3014	0.3204
3023	0.3112
3032	0.3076
3041	0.3044
3050	0.3025
3059	0.3019
3068	0.3095
3077	0.3342
3086	0.3657
3095	0.3838
3104	0.3973
3113	0.407
3122	0.4139
3131	0.4202
3140	0.4308
3149	0.4337
3158	0.4583
3167	0.4748
3176	0.4839
3185	0.491
3194	0.5124
3203	0.5404
3212	0.5351
3221	0.5699
3230	0.5785
3239	0.5902
3248	0.5958
3257	0.6018
3266	0.6036
3275	0.6036
3284	0.6167
3293	0.6297
3302	0.6381
3311	0.6444
3320	0.6447
3329	0.6439
3338	0.6426
3347	0.6422
3356	0.6426
3365	0.6314
3374	0.6257
3383	0.6248
3392	0.6248
3401	0.6262
3410	0.6287
3419	0.6316
3428	0.6365
3437	0.6412
3446	0.6453
3455	0.66
3464	0.6619
3473	0.6675
3482	0.6778
3491	0.6971
3500	0.7212
3509	0.729
3518	0.7395
3527	0.7446
3536	0.7574
3545	0.7569
3554	0.753
3563	0.7447
3572	0.8269
3581	0.8465
3590	0.8593
3599	0.8711
3608	0.8818
3617	0.8878
3626	0.889
3635	0.8879
3644	0.8866
3653	0.8854
3662	0.8829
3671	0.8803
3680	0.8807
3689	0.9044
3698	0.9175
3707	0.9177
3716	0.9215
3725	0.922
3734	0.9221
3743	0.9223
3752	0.9228
3761	0.9236
3770	0.9243
3779	0.9247
3788	0.9249
3797	0.9248
3806	0.9241
3815	0.9234
3824	0.9223
3833	0.9182
3842	0.9153
3851	0.9152
3860	0.9153
3869	0.9157
3878	0.9177
3887	0.9238
3896	0.9206
