Infrared Spectrum: PHENOL, 2-t-BUTYL-4-HEXADECYLOXY-
Formula: C26 H46 O2
State: LIQUID
Class: COBLENTZ
Instrument: Not specified, most likely a prism, grating, or hybrid spectrometer.
Sampling: TRANSMISSION
Path length: FILM
Resolution: 4
Origin: TENNESSEE EASTMAN COMPANY, RESEARCH LABORATORIES
MICROMETERS	TRANSMITTANCE
2.027	0.983
2.0669	0.986
2.10681	0.984
2.14671	0.986
2.18661	0.986
2.22651	0.984
2.26642	0.954
2.30632	0.924
2.34622	0.926
2.38613	0.926
2.42603	0.924
2.46593	0.932
2.50583	0.956
2.54574	0.959
2.58564	0.956
2.62554	0.954
2.66545	0.958
2.70535	0.949
2.74525	0.829
2.78515	0.752
2.82506	0.601
2.86496	0.584
2.90486	0.489
2.94477	0.519
2.98467	0.609
3.02457	0.735
3.06447	0.787
3.10438	0.829
3.14428	0.867
3.18418	0.884
3.22409	0.886
3.26399	0.86
3.30389	0.733
3.34379	0.154
3.3837	0.033
3.4236	0.115
3.4635	0.083
3.50341	0.463
3.54331	0.731
3.58321	0.822
3.62311	0.849
3.66302	0.854
3.70292	0.864
3.74282	0.864
3.78273	0.869
3.82263	0.877
3.86253	0.896
3.90243	0.902
3.94234	0.909
3.98224	0.911
4.02214	0.914
4.06205	0.917
4.10195	0.922
4.14185	0.922
4.18175	0.922
4.22166	0.948
4.26156	0.968
4.30146	0.958
4.34137	0.929
4.38127	0.932
4.42117	0.944
4.46107	0.948
4.50098	0.948
4.54088	0.944
4.58078	0.941
4.62069	0.943
4.66059	0.943
4.70049	0.941
4.74039	0.939
4.7803	0.938
4.8202	0.932
4.8601	0.927
4.90001	0.921
4.93991	0.916
4.97981	0.919
5.01971	0.929
5.05962	0.929
5.09952	0.929
5.13942	0.929
5.17933	0.932
5.21923	0.929
5.25913	0.929
5.29903	0.931
5.33894	0.927
5.37884	0.919
5.41874	0.909
5.45865	0.904
5.49855	0.906
5.53845	0.911
5.57835	0.912
5.61826	0.911
5.65816	0.911
5.69806	0.911
5.73797	0.902
5.77787	0.899
5.81777	0.911
5.85767	0.907
5.89758	0.896
5.93748	0.904
5.97738	0.909
6.01729	0.904
6.05719	0.899
6.09709	0.886
6.13699	0.86
6.1769	0.757
6.2168	0.705
6.2567	0.608
6.29661	0.596
6.33651	0.807
6.37641	0.865
6.41631	0.86
6.45622	0.84
6.49612	0.8
6.53602	0.633
6.57593	0.254
6.61583	0.199
6.65573	0.35
6.69563	0.373
6.73554	0.35
6.77544	0.207
6.81534	0.284
6.85525	0.388
6.89515	0.458
6.93505	0.365
6.97495	0.199
7.01486	0.264
7.05476	0.447
7.09466	0.581
7.13457	0.475
7.17447	0.361
7.21437	0.475
7.25427	0.52
7.29418	0.495
7.33408	0.395
7.37398	0.541
7.41389	0.581
7.45379	0.577
7.49369	0.561
7.53359	0.554
7.5735	0.601
7.6134	0.618
7.6533	0.554
7.69321	0.341
7.73311	0.232
7.77301	0.348
7.81291	0.407
7.85282	0.423
7.89272	0.505
7.93262	0.541
7.97253	0.549
8.01243	0.554
8.05233	0.532
8.09223	0.383
8.13214	0.264
8.17204	0.17
8.21194	0.125
8.25185	0.128
8.29175	0.132
8.33165	0.135
8.37155	0.164
8.41146	0.199
8.45136	0.227
8.49126	0.237
8.53117	0.309
8.57107	0.447
8.61097	0.542
8.65087	0.551
8.69078	0.497
8.73068	0.494
8.77058	0.53
8.81049	0.609
8.85039	0.671
8.89029	0.725
8.93019	0.75
8.9701	0.757
9.01	0.755
9.0499	0.748
9.08981	0.721
9.12971	0.659
9.16961	0.566
9.20951	0.5
9.24942	0.499
9.28932	0.499
9.32922	0.49
9.36913	0.463
9.40903	0.428
9.44893	0.4
9.48883	0.393
9.52874	0.393
9.56864	0.4
9.60854	0.432
9.64845	0.453
9.68835	0.497
9.72825	0.514
9.76815	0.549
9.80806	0.562
9.84796	0.581
9.88786	0.591
9.92777	0.613
9.96767	0.633
10.0076	0.651
10.0475	0.676
10.0874	0.69
10.1273	0.703
10.1672	0.716
10.2071	0.721
10.247	0.728
10.2869	0.73
10.3268	0.737
10.3667	0.748
10.4066	0.762
10.4465	0.772
10.4864	0.782
10.5263	0.783
10.5662	0.783
10.6061	0.775
10.646	0.775
10.6859	0.755
10.7258	0.733
10.7657	0.733
10.8056	0.74
10.8455	0.755
10.8854	0.77
10.9253	0.77
10.9652	0.77
11.0051	0.768
11.045	0.77
11.0849	0.772
11.1249	0.775
11.1648	0.775
11.2047	0.77
11.2446	0.753
11.2845	0.742
11.3244	0.705
11.3643	0.651
11.4042	0.597
11.4441	0.594
11.484	0.671
11.5239	0.72
11.5638	0.75
11.6037	0.75
11.6436	0.742
11.6835	0.733
11.7234	0.74
11.7633	0.778
11.8032	0.802
11.8431	0.817
11.883	0.825
11.9229	0.825
11.9628	0.825
12.0027	0.822
12.0426	0.807
12.0825	0.775
12.1224	0.735
12.1623	0.688
12.2022	0.628
12.2421	0.566
12.282	0.51
12.3219	0.49
12.3618	0.462
12.4017	0.447
12.4416	0.427
12.4815	0.417
12.5215	0.44
12.5614	0.505
12.6013	0.557
12.6412	0.587
12.6811	0.589
12.721	0.584
12.7609	0.582
12.8008	0.564
12.8407	0.557
12.8806	0.562
12.9205	0.611
12.9604	0.643
13.0003	0.654
13.0402	0.668
13.0801	0.673
13.12	0.681
13.1599	0.69
13.1998	0.695
13.2397	0.705
13.2796	0.711
13.3195	0.716
13.3594	0.723
13.3993	0.728
13.4392	0.728
13.4791	0.726
13.519	0.721
13.5589	0.705
13.5988	0.705
13.6387	0.7
13.6786	0.68
13.7185	0.656
13.7584	0.624
13.7983	0.613
13.8382	0.604
13.8781	0.631
13.9181	0.664
13.958	0.691
13.9979	0.718
14.0378	0.737
14.0777	0.75
14.1176	0.755
14.1575	0.755
14.1974	0.755
14.2373	0.753
14.2772	0.753
14.3171	0.755
14.357	0.755
14.3969	0.755
14.4368	0.757
14.4767	0.757
14.5166	0.762
14.5565	0.772
14.5964	0.777
14.6363	0.778
14.6762	0.782
14.7161	0.783
14.756	0.783
14.7959	0.785
14.8358	0.785
14.8757	0.785
14.9156	0.785
14.9555	0.78
14.9954	0.777
15.0353	0.778
15.0752	0.775
15.1151	0.773
15.155	0.767
15.1949	0.757
15.2348	0.755
15.2747	0.753
15.3147	0.75
15.3546	0.747
15.3945	0.742
15.4344	0.731
15.4743	0.73
15.5142	0.726
15.5541	0.721
15.594	0.72
15.6339	0.718
15.6738	0.715
15.7137	0.71
15.7536	0.71
15.7935	0.688
15.8334	0.686
15.8733	0.686
15.9132	0.686
15.9531	0.685
15.993	0.685
