Infrared Spectrum: GLUTAMIC ACID, N-(2,5-DIFLUORO-4-NITROBENZOYL)-
Formula: C12 H10 F2 N2 O7
State: SOLID (1 mg / 650 mg KBr DISC)
Class: COBLENTZ III
Instrument: PERKIN-ELMER 221 (GRATING)
Instrument parameters: FILTER CHANGE AT 2490, 980 CM^-^1, GRATING FOR 4000-1428 CM^-^1, NaCl PRISM FOR 1428-650 CM^-^1
Sampling: TRANSMISSION
Resolution: 4
Origin: SOUTHERN RESEARCH INSTITUTE
1/CM	TRANSMITTANCE
640.582	0.535
649.585	0.555
658.588	0.563
667.591	0.561
676.593	0.556
685.596	0.555
694.599	0.557
703.602	0.59
712.605	0.617
721.608	0.631
730.61	0.632
739.613	0.616
748.616	0.506
757.619	0.4711
766.622	0.348
775.625	0.4479
784.627	0.414
793.63	0.387
802.633	0.591
811.636	0.5599
820.639	0.624
829.642	0.663
838.644	0.664
847.647	0.616
856.65	0.571
865.653	0.5729
874.656	0.595
883.659	0.598
892.661	0.559
901.664	0.482
910.667	0.4891
919.67	0.601
928.673	0.59
937.676	0.603
946.678	0.632
955.681	0.643
964.684	0.647
973.687	0.696
982.69	0.736
991.693	0.745
1000.7	0.741
1009.7	0.735
1018.7	0.722
1027.7	0.7
1036.71	0.681
1045.71	0.688
1054.71	0.674
1063.72	0.675
1072.72	0.676
1081.72	0.6141
1090.72	0.5349
1099.73	0.459
1108.73	0.656
1117.73	0.612
1126.74	0.559
1135.74	0.4881
1144.74	0.4591
1153.74	0.493
1162.75	0.3979
1171.75	0.366
1180.75	0.2919
1189.76	0.1712
1198.76	0.287
1207.76	0.315
1216.76	0.307
1225.77	0.313
1234.77	0.413
1243.77	0.434
1252.77	0.368
1261.78	0.344
1270.78	0.338
1279.78	0.368
1288.79	0.3969
1297.79	0.346
1306.79	0.397
1315.79	0.434
1324.8	0.368
1333.8	0.316
1342.8	0.254
1351.81	0.3249
1360.81	0.458
1369.81	0.466
1378.81	0.463
1387.82	0.455
1396.82	0.3439
1405.82	0.237
1414.83	0.3191
1423.83	0.339
1432.83	0.3971
1441.83	0.434
1450.84	0.54
1459.84	0.568
1468.84	0.5079
1477.85	0.366
1486.85	0.3619
1495.85	0.3708
1504.85	0.4379
1513.86	0.2372
1522.86	0.1389
1531.86	0.072
1540.87	0.1561
1549.87	0.157
1558.87	0.1521
1567.87	0.3579
1576.88	0.469
1585.88	0.4451
1594.88	0.239
1603.89	0.425
1612.89	0.47
1621.89	0.396
1630.89	0.3229
1639.9	0.237
1648.9	0.1469
1657.9	0.073
1666.91	0.1631
1675.91	0.285
1684.91	0.2029
1693.91	0.109
1702.92	0.145
1711.92	0.18
1720.92	0.1569
1729.93	0.169
1738.93	0.2129
1747.93	0.137
1756.93	0.2721
1765.94	0.363
1774.94	0.5171
1783.94	0.585
1792.95	0.629
1801.95	0.647
1810.95	0.661
1819.95	0.68
1828.96	0.701
1837.96	0.718
1846.96	0.727
1855.97	0.732
1864.97	0.737
1873.97	0.74
1882.97	0.747
1891.98	0.754
1900.98	0.759
1909.98	0.761
1918.98	0.762
1927.99	0.765
1936.99	0.768
1945.99	0.77
1955	0.774
1964	0.777
1973	0.778
1982	0.778
1991.01	0.78
2000.01	0.781
2009.01	0.783
2018.02	0.784
2027.02	0.785
2036.02	0.786
2045.02	0.7866
2054.03	0.7875
2063.03	0.788
2072.03	0.788
2081.04	0.788
2090.04	0.788
2099.04	0.789
2108.04	0.789
2117.05	0.79
2126.05	0.791
2135.05	0.7927
2144.06	0.793
2153.06	0.794
2162.06	0.794
2171.06	0.794
2180.07	0.794
2189.07	0.7938
2198.07	0.793
2207.08	0.792
2216.08	0.791
2225.08	0.79
2234.08	0.7893
2243.09	0.7883
2252.09	0.787
2261.09	0.786
2270.1	0.7856
2279.1	0.783
2288.1	0.779
2297.1	0.7757
2306.11	0.7659
2315.11	0.76
2324.11	0.758
2333.12	0.756
2342.12	0.755
2351.12	0.7544
2360.12	0.754
2369.13	0.754
2378.13	0.753
2387.13	0.7482
2396.14	0.7387
2405.14	0.7319
2414.14	0.726
2423.14	0.721
2432.15	0.7162
2441.15	0.7113
2450.15	0.7047
2459.16	0.6984
2468.16	0.6945
2477.16	0.6896
2486.16	0.6857
2495.17	0.6818
2504.17	0.6789
2513.17	0.6689
2522.18	0.663
2531.18	0.6591
2540.18	0.655
2549.18	0.6496
2558.19	0.6474
2567.19	0.6465
2576.19	0.6446
2585.19	0.643
2594.2	0.643
2603.2	0.6428
2612.2	0.641
2621.21	0.639
2630.21	0.6381
2639.21	0.637
2648.21	0.6353
2657.22	0.634
2666.22	0.634
2675.22	0.6345
2684.23	0.636
2693.23	0.637
2702.23	0.638
2711.23	0.638
2720.24	0.634
2729.24	0.631
2738.24	0.6273
2747.25	0.622
2756.25	0.6173
2765.25	0.615
2774.25	0.6135
2783.26	0.6086
2792.26	0.6013
2801.26	0.5912
2810.27	0.5818
2819.27	0.5728
2828.27	0.561
2837.27	0.5493
2846.28	0.5392
2855.28	0.5295
2864.28	0.524
2873.29	0.5199
2882.29	0.5155
2891.29	0.5102
2900.29	0.4941
2909.3	0.4838
2918.3	0.4759
2927.3	0.473
2936.31	0.471
2945.31	0.4729
2954.31	0.474
2963.31	0.474
2972.32	0.473
2981.32	0.4725
2990.32	0.469
2999.33	0.4667
3008.33	0.4635
3017.33	0.4525
3026.33	0.4387
3035.34	0.421
3044.34	0.3974
3053.34	0.3753
3062.35	0.3394
3071.35	0.3428
3080.35	0.3631
3089.35	0.3754
3098.36	0.3899
3107.36	0.3993
3116.36	0.4022
3125.37	0.4071
3134.37	0.4181
3143.37	0.429
3152.37	0.4281
3161.38	0.4232
3170.38	0.4163
3179.38	0.4072
3188.38	0.3945
3197.39	0.3846
3206.39	0.3767
3215.39	0.3687
3224.4	0.3598
3233.4	0.352
3242.4	0.332
3251.4	0.3095
3260.41	0.2674
3269.41	0.2343
3278.41	0.2246
3287.42	0.2362
3296.42	0.2485
3305.42	0.252
3314.42	0.2543
3323.43	0.2762
3332.43	0.3111
3341.43	0.3484
3350.44	0.3768
3359.44	0.3956
3368.44	0.4105
3377.44	0.4264
3386.45	0.4454
3395.45	0.4531
3404.45	0.4683
3413.46	0.479
3422.46	0.4915
3431.46	0.5027
3440.46	0.5233
3449.47	0.548
3458.47	0.5724
3467.47	0.5933
3476.48	0.6179
3485.48	0.6323
3494.48	0.6477
3503.48	0.6589
3512.49	0.6711
3521.49	0.6873
3530.49	0.7054
3539.5	0.7133
3548.5	0.7241
3557.5	0.7319
3566.5	0.7426
3575.51	0.7478
3584.51	0.7487
3593.51	0.7612
3602.52	0.7705
3611.52	0.7803
3620.52	0.7947
3629.52	0.8095
3638.53	0.8192
3647.53	0.8241
3656.53	0.827
3665.54	0.828
3674.54	0.8298
3683.54	0.8317
3692.54	0.836
3701.55	0.8426
3710.55	0.844
3719.55	0.844
3728.56	0.844
3737.56	0.844
3746.56	0.844
3755.56	0.844
3764.57	0.844
3773.57	0.844
3782.57	0.844
3791.58	0.844
3800.58	0.844
3809.58	0.844
3818.58	0.844
3827.59	0.844
3836.59	0.844
3845.59	0.844
3854.59	0.844
3863.6	0.842
3872.6	0.843
3881.6	0.843
3890.61	0.843
3899.61	0.843
3908.61	0.843
3917.61	0.843
3926.62	0.843
3935.62	0.843
3944.62	0.843
3953.63	0.843
3962.63	0.842
3971.63	0.842
3980.63	0.842
3989.64	0.842
3998.64	0.842
4007.64	0.8426
4016.65	0.8435
4025.65	0.8434
