Infrared Spectrum: Propionitrile, 3-amino-, fumarate
Formula: C10 H16 N4 O4
State: SOLID (NUJOL MULL)
Class: COBLENTZ III
Instrument: PERKIN-ELMER 21 (GRATING)
Instrument parameters: FILTER AT ABOUT 10 MICRONS
Resolution: 2
Origin: ABBOTT LABORATORIES
1/CM	TRANSMITTANCE
667	0.4897
676	0.1655
685	0.5588
694	0.7132
703	0.7263
712	0.713
721	0.6962
730	0.7187
739	0.7371
748	0.7497
757	0.7492
766	0.7475
775	0.725
784	0.5991
793	0.7249
802	0.514
811	0.7669
820	0.7779
829	0.7768
838	0.7752
847	0.7732
856	0.7744
865	0.7713
874	0.7594
883	0.758
892	0.746
901	0.7357
910	0.6914
919	0.667
928	0.6287
937	0.6918
946	0.656
955	0.543
964	0.6073
973	0.4878
982	0.6167
991	0.6963
1000	0.6505
1009	0.5518
1018	0.5755
1027	0.6826
1036	0.6539
1045	0.7153
1054	0.7214
1063	0.7177
1072	0.7195
1081	0.716
1090	0.7116
1099	0.7061
1108	0.7004
1117	0.6949
1126	0.6694
1135	0.6599
1144	0.6342
1153	0.5568
1162	0.4466
1171	0.4112
1180	0.6146
1189	0.6491
1198	0.6442
1207	0.547
1216	0.4842
1225	0.6909
1234	0.6871
1243	0.6739
1252	0.6576
1261	0.6408
1270	0.6191
1279	0.5942
1288	0.5804
1297	0.5256
1306	0.4614
1315	0.4841
1324	0.4253
1333	0.3654
1342	0.2166
1351	0.1271
1360	0.1027
1369	0.11
1378	0.1844
1387	0.2857
1396	0.305
1405	0.4074
1414	0.4511
1423	0.4265
1432	0.3164
1441	0.2341
1450	0.1493
1459	0.128
1468	0.2197
1477	0.3431
1486	0.321
1495	0.2637
1504	0.1676
1513	0.1155
1522	0.1044
1531	0.13
1540	0.1827
1549	0.2106
1558	0.2498
1567	0.3564
1576	0.4091
1585	0.4725
1594	0.499
1603	0.4965
1612	0.4707
1621	0.389
1630	0.2684
1639	0.198
1648	0.2263
1657	0.3474
1666	0.4661
1675	0.6051
1684	0.6467
1693	0.6741
1702	0.6961
1711	0.7125
1720	0.7261
1729	0.7377
1738	0.7491
1747	0.7561
1756	0.7626
1765	0.7687
1774	0.7738
1783	0.7783
1792	0.7817
1801	0.7847
1810	0.7865
1819	0.7849
1828	0.7877
1837	0.7871
1846	0.7865
1855	0.7854
1864	0.7838
1873	0.7811
1882	0.7784
1891	0.7748
1900	0.7708
1909	0.7676
1918	0.7647
1927	0.7627
1936	0.7614
1945	0.7602
1954	0.758
1963	0.755
1972	0.751
1981	0.7461
1990	0.7406
1999	0.7352
2008	0.7298
2017	0.7242
2026	0.7184
2035	0.711
2044	0.7025
2053	0.6928
2062	0.6823
2071	0.6709
2080	0.6595
2089	0.6478
2098	0.6352
2107	0.626
2116	0.6238
2125	0.6259
2134	0.6312
2143	0.6376
2152	0.6409
2161	0.6445
2170	0.6499
2179	0.6488
2188	0.6522
2197	0.6478
2206	0.6471
2215	0.6439
2224	0.6278
2233	0.5929
2242	0.5611
2251	0.5758
2260	0.6396
2269	0.6398
2278	0.6361
2287	0.6273
2296	0.6141
2305	0.5969
2314	0.5815
2323	0.5736
2332	0.567
2341	0.5622
2350	0.559
2359	0.5565
2368	0.5537
2377	0.5477
2386	0.5339
2395	0.5098
2404	0.4955
2413	0.4804
2422	0.4647
2431	0.4472
2440	0.4329
2449	0.4208
2458	0.4138
2467	0.412
2476	0.4105
2485	0.4092
2494	0.408
2503	0.4043
2512	0.4
2521	0.3942
2530	0.3872
2539	0.3789
2548	0.3693
2557	0.3553
2566	0.3404
2575	0.3342
2584	0.3334
2593	0.3341
2602	0.3345
2611	0.332
2620	0.3265
2629	0.317
2638	0.3103
2647	0.3066
2656	0.3045
2665	0.3027
2674	0.3001
2683	0.2961
2692	0.2889
2701	0.2832
2710	0.2812
2719	0.281
2728	0.282
2737	0.2846
2746	0.2884
2755	0.2904
2764	0.2878
2773	0.2757
2782	0.2622
2791	0.2482
2800	0.2352
2809	0.1745
2818	0.1283
2827	0.0822
2836	0.0365
2845	0.0251
2854	0.0235
2863	0.0216
2872	0.019
2881	0.0163
2890	0.0139
2899	0.0138
2908	0.0143
2917	0.0159
2926	0.0187
2935	0.0231
2944	0.0322
2953	0.0722
2962	0.1137
2971	0.1549
2980	0.2226
2989	0.2505
2998	0.2687
3007	0.2794
3016	0.2939
3025	0.3064
3034	0.3152
3043	0.3187
3052	0.3212
3061	0.3481
3070	0.3639
3079	0.3804
3088	0.3984
3097	0.4162
3106	0.4339
3115	0.4515
3124	0.469
3133	0.4865
3142	0.5038
3151	0.521
3160	0.5382
3169	0.5547
3178	0.5691
3187	0.5829
3196	0.5944
3205	0.6055
3214	0.6231
3223	0.6424
3232	0.6583
3241	0.6695
3250	0.6826
3259	0.6956
3268	0.7066
3277	0.7154
3286	0.7225
3295	0.728
3304	0.732
3313	0.7361
3322	0.7402
3331	0.7442
3340	0.7481
3349	0.7521
3358	0.7563
3367	0.7603
3376	0.7629
3385	0.765
3394	0.767
3403	0.7684
3412	0.7699
3421	0.7709
3430	0.7716
3439	0.7723
3448	0.7729
3457	0.7735
3466	0.7739
3475	0.7743
3484	0.7745
3493	0.7749
3502	0.7753
3511	0.7755
3520	0.7757
3529	0.776
3538	0.7773
3547	0.7789
3556	0.7815
3565	0.7843
3574	0.7868
3583	0.7886
3592	0.79
3601	0.7906
3610	0.7908
3619	0.7912
3628	0.7913
3637	0.7909
3646	0.7907
3655	0.7903
3664	0.79
3673	0.7896
3682	0.7889
3691	0.7881
3700	0.7872
3709	0.7864
3718	0.7852
3727	0.7838
3736	0.7822
3745	0.7808
3754	0.7793
3763	0.7778
3772	0.7762
3781	0.775
3790	0.7743
3799	0.7738
3808	0.7734
3817	0.7738
3826	0.7741
3835	0.7744
3844	0.7744
3853	0.7743
3862	0.7734
3871	0.7725
3880	0.771
3889	0.7695
3898	0.7675
3907	0.7656
3916	0.7635
3925	0.7614
3934	0.7599
3943	0.7588
3952	0.7577
3961	0.7567
3970	0.7556
3979	0.7546
3988	0.7536
3997	0.7526
