Infrared Spectrum: O-NITRO CARBANILIC ACID, 4-TERPINENOL ESTER
Formula: C17 H22 N2 O4
Class: COBLENTZ
Instrument: Not specified, most likely a grating spectrometer.
Sampling: TRANSMISSION
Path length: CAPILLARY
Resolution: 4
Origin: CITRUS EXPERIMENT STATION, UNIVERSITY OF FLORIDA (G. EDWARDS)
MICROMETERS	TRANSMITTANCE
2.046	0.95
2.07915	0.95
2.11229	0.948
2.14544	0.945
2.17858	0.942
2.21173	0.942
2.24488	0.942
2.27802	0.945
2.31117	0.945
2.34431	0.945
2.37746	0.945
2.41061	0.948
2.44375	0.95
2.4769	0.95
2.51004	0.949
2.54319	0.948
2.57634	0.944
2.60948	0.941
2.64263	0.94
2.67578	0.936
2.70892	0.934
2.74207	0.93
2.77521	0.926
2.80836	0.909
2.84151	0.88
2.87465	0.83
2.9078	0.694
2.94094	0.526
2.97409	0.664
3.00724	0.886
3.04038	0.91
3.07353	0.906
3.10667	0.889
3.13982	0.872
3.17297	0.833
3.20611	0.797
3.23926	0.776
3.2724	0.724
3.30555	0.566
3.3387	0.361
3.37184	0.358
3.40499	0.393
3.43813	0.496
3.47128	0.65
3.50443	0.709
3.53757	0.87
3.57072	0.9
3.60387	0.908
3.63701	0.912
3.67016	0.922
3.7033	0.921
3.73645	0.921
3.7696	0.92
3.80274	0.918
3.83589	0.92
3.86903	0.924
3.90218	0.926
3.93533	0.925
3.96847	0.925
4.00162	0.922
4.03476	0.921
4.06791	0.921
4.10106	0.92
4.1342	0.921
4.16735	0.928
4.20049	0.929
4.23364	0.929
4.26679	0.929
4.29993	0.929
4.33308	0.926
4.36622	0.926
4.39937	0.924
4.43252	0.922
4.46566	0.922
4.49881	0.925
4.53196	0.926
4.5651	0.926
4.59825	0.933
4.63139	0.933
4.66454	0.933
4.69769	0.932
4.73083	0.93
4.76398	0.93
4.79712	0.929
4.83027	0.929
4.86342	0.929
4.89656	0.926
4.92971	0.925
4.96285	0.922
4.996	0.92
5.02915	0.917
5.06229	0.909
5.09544	0.91
5.12858	0.908
5.16173	0.908
5.19488	0.906
5.22802	0.904
5.26117	0.901
5.29431	0.897
5.32746	0.882
5.36061	0.87
5.39375	0.854
5.4269	0.84
5.46004	0.81
5.49319	0.805
5.52634	0.793
5.55948	0.76
5.59263	0.721
5.62578	0.586
5.65892	0.478
5.69207	0.273
5.72521	0.2
5.75836	0.273
5.79151	0.409
5.82465	0.624
5.8578	0.7
5.89094	0.702
5.92409	0.701
5.95724	0.69
5.99038	0.668
6.02353	0.605
6.05667	0.533
6.08982	0.488
6.12297	0.393
6.15611	0.181
6.18926	0.15
6.2224	0.256
6.25555	0.256
6.2887	0.145
6.32184	0.29
6.35499	0.401
6.38813	0.35
6.42128	0.288
6.45443	0.176
6.48757	0.15
6.52072	0.09
6.55387	0.069
6.58701	0.077
6.62016	0.094
6.6533	0.152
6.68645	0.233
6.7196	0.258
6.75274	0.194
6.78589	0.14
6.81903	0.073
6.85218	0.049
6.88533	0.056
6.91847	0.05
6.95162	0.064
6.98476	0.093
7.01791	0.172
7.05106	0.225
7.0842	0.28
7.11735	0.294
7.15049	0.272
7.18364	0.266
7.21679	0.272
7.24993	0.27
7.28308	0.274
7.31622	0.224
7.34937	0.137
7.38252	0.057
7.41566	0.029
7.44881	0.056
7.48196	0.101
7.5151	0.144
7.54825	0.122
7.58139	0.152
7.61454	0.192
7.64769	0.206
7.68083	0.197
7.71398	0.138
7.74712	0.085
7.78027	0.058
7.81342	0.058
7.84656	0.066
7.87971	0.052
7.91285	0.02
7.946	0.02
7.97915	0.017
8.01229	0.01
8.04544	0.022
8.07858	0.042
8.11173	0.1
8.14488	0.142
8.17802	0.126
8.21117	0.077
8.24431	0.052
8.27746	0.041
8.31061	0.001
8.34375	0
8.3769	0.008
8.41004	0.029
8.44319	0.062
8.47634	0.153
8.50948	0.197
8.54263	0.16
8.57578	0.094
8.60892	0.082
8.64207	0.109
8.67521	0.133
8.70836	0.148
8.74151	0.245
8.77465	0.345
8.8078	0.321
8.84094	0.26
8.87409	0.288
8.90724	0.386
8.94038	0.457
8.97353	0.468
9.00667	0.489
9.03982	0.53
9.07297	0.53
9.10611	0.489
9.13926	0.389
9.1724	0.293
9.20555	0.257
9.2387	0.337
9.27184	0.394
9.30499	0.354
9.33813	0.326
9.37128	0.317
9.40443	0.246
9.43757	0.161
9.47072	0.2
9.50387	0.218
9.53701	0.194
9.57016	0.153
9.6033	0.097
9.63645	0.108
9.6696	0.168
9.70274	0.202
9.73589	0.2
9.76903	0.224
9.80218	0.285
9.83533	0.324
9.86847	0.32
9.90162	0.278
9.93476	0.249
9.96791	0.294
10.0011	0.405
10.0342	0.562
10.0673	0.652
10.1005	0.7
10.1336	0.725
10.1668	0.733
10.1999	0.745
10.2331	0.75
10.2662	0.766
10.2994	0.773
10.3325	0.761
10.3657	0.74
10.3988	0.712
10.432	0.686
10.4651	0.668
10.4982	0.662
10.5314	0.669
10.5645	0.668
10.5977	0.632
10.6308	0.621
10.664	0.634
10.6971	0.652
10.7303	0.653
10.7634	0.64
10.7966	0.642
10.8297	0.641
10.8629	0.621
10.896	0.602
10.9291	0.592
10.9623	0.64
10.9954	0.71
11.0286	0.75
11.0617	0.745
11.0949	0.73
11.128	0.7
11.1612	0.66
11.1943	0.573
11.2275	0.493
11.2606	0.458
11.2938	0.492
11.3269	0.54
11.36	0.541
11.3932	0.58
11.4263	0.608
11.4595	0.588
11.4926	0.522
11.5258	0.437
11.5589	0.294
11.5921	0.213
11.6252	0.284
11.6584	0.424
11.6915	0.564
11.7247	0.634
11.7578	0.684
11.7909	0.697
11.8241	0.705
11.8572	0.704
11.8904	0.701
11.9235	0.693
11.9567	0.669
11.9898	0.622
12.023	0.542
12.0561	0.453
12.0893	0.324
12.1224	0.204
12.1556	0.152
12.1887	0.173
12.2218	0.248
12.255	0.341
12.2881	0.437
12.3213	0.492
12.3544	0.505
12.3876	0.498
12.4207	0.472
12.4539	0.445
12.487	0.434
12.5202	0.429
12.5533	0.422
12.5864	0.409
12.6196	0.397
12.6527	0.368
12.6859	0.318
12.719	0.241
12.7522	0.194
12.7853	0.198
12.8185	0.246
12.8516	0.308
12.8848	0.388
12.9179	0.412
12.9511	0.402
12.9842	0.358
13.0173	0.321
13.0505	0.317
13.0836	0.336
13.1168	0.369
13.1499	0.392
13.1831	0.392
13.2162	0.39
13.2494	0.384
13.2825	0.37
13.3157	0.334
13.3488	0.242
13.382	0.122
13.4151	0.037
13.4482	0.022
13.4814	0.024
13.5145	0.038
13.5477	0.064
13.5808	0.113
13.614	0.192
13.6471	0.273
13.6803	0.337
13.7134	0.386
13.7466	0.43
13.7797	0.468
13.8129	0.494
13.846	0.512
13.8791	0.517
13.9123	0.534
13.9454	0.541
13.9786	0.542
14.0117	0.541
14.0449	0.538
14.078	0.534
14.1112	0.529
14.1443	0.524
14.1775	0.513
14.2106	0.502
14.2438	0.482
14.2769	0.465
14.31	0.445
14.3432	0.424
14.3763	0.389
14.4095	0.348
14.4426	0.288
14.4758	0.233
14.5089	0.206
14.5421	0.213
14.5752	0.241
14.6084	0.261
14.6415	0.261
14.6747	0.258
14.7078	0.253
14.7409	0.246
14.7741	0.237
14.8072	0.225
14.8404	0.206
14.8735	0.194
14.9067	0.188
14.9398	0.189
14.973	0.201
15.0061	0.218
