Infrared Spectrum: 2-PROPENAMIDE,2,3-DIPHENYL,N-DIMETHYLAMINOETHYL-,HYDROCHLORIDE
Formula: C19 H23 Cl N2 O
State: SOLID (KBr DISC)
Class: COBLENTZ III
Instrument: PERKIN-ELMER 21 (GRATING)
Instrument parameters: NaCl PRISM
Sampling: TRANSMISSION
Resolution: 2
Origin: SMITH KLINE & FRENCH LABS.
1/CM	TRANSMITTANCE
670	0.5713
679	0.4826
688	0.3111
697	0.5127
706	0.3571
715	0.2105
724	0.7629
733	0.7768
742	0.4872
751	0.6379
760	0.6474
769	0.5057
778	0.249
787	0.6934
796	0.8086
805	0.824
814	0.8336
823	0.8238
832	0.7774
841	0.7887
850	0.7929
859	0.7957
868	0.7899
877	0.766
886	0.7115
895	0.7468
904	0.7092
913	0.7141
922	0.7214
931	0.7131
940	0.68
949	0.3962
958	0.6621
967	0.5365
976	0.4565
985	0.5539
994	0.5517
1003	0.5007
1012	0.6044
1021	0.4991
1030	0.4967
1039	0.362
1048	0.5879
1057	0.4913
1066	0.4745
1075	0.5428
1084	0.5168
1093	0.5719
1102	0.5654
1111	0.605
1120	0.587
1129	0.5747
1138	0.5199
1147	0.483
1156	0.4656
1165	0.4259
1174	0.3292
1183	0.3573
1192	0.3917
1201	0.1916
1210	0.4956
1219	0.4497
1228	0.3325
1237	0.2098
1246	0.2455
1255	0.3981
1264	0.3617
1273	0.2394
1282	0.3427
1291	0.4757
1300	0.5092
1309	0.4248
1318	0.333
1327	0.4626
1336	0.4767
1345	0.4477
1354	0.2969
1363	0.2666
1372	0.1868
1381	0.4227
1390	0.4234
1399	0.3904
1408	0.3558
1417	0.2112
1426	0.2974
1435	0.2379
1444	0.1049
1453	0.2072
1462	0.1451
1471	0.1128
1480	0.0692
1489	0.0624
1498	0.0609
1507	0.1919
1516	0.2624
1525	0.3343
1534	0.4311
1543	0.4717
1552	0.4733
1561	0.4623
1570	0.3963
1579	0.3761
1588	0.2206
1597	0.2492
1606	0.1402
1615	0.2691
1624	0.3933
1633	0.3254
1642	0.247
1651	0.0723
1660	0.2449
1669	0.4765
1678	0.5691
1687	0.6238
1696	0.6399
1705	0.6358
1714	0.647
1723	0.6425
1732	0.6348
1741	0.6384
1750	0.6456
1759	0.6478
1768	0.6516
1777	0.6616
1786	0.6617
1795	0.6551
1804	0.6304
1813	0.6354
1822	0.6398
1831	0.6483
1840	0.648
1849	0.6458
1858	0.6404
1867	0.6358
1876	0.6011
1885	0.5832
1894	0.6004
1903	0.6081
1912	0.6066
1921	0.6131
1930	0.606
1939	0.6041
1948	0.5715
1957	0.5683
1966	0.5718
1975	0.5777
1984	0.5726
1993	0.5703
2002	0.5737
2011	0.5749
2020	0.5719
2029	0.5672
2038	0.5619
2047	0.5567
2056	0.5515
2065	0.5464
2074	0.5414
2083	0.5368
2092	0.531
2101	0.5286
2110	0.528
2119	0.5153
2128	0.504
2137	0.4953
2146	0.4931
2155	0.4939
2164	0.4931
2173	0.4881
2182	0.4804
2191	0.4716
2200	0.4601
2209	0.4455
2218	0.4295
2227	0.4159
2236	0.4022
2245	0.3843
2254	0.3699
2263	0.3511
2272	0.3299
2281	0.3132
2290	0.2978
2299	0.2816
2308	0.2634
2317	0.2472
2326	0.237
2335	0.2285
2344	0.2215
2353	0.2149
2362	0.2075
2371	0.1977
2380	0.1802
2389	0.147
2398	0.1253
2407	0.1183
2416	0.1123
2425	0.1063
2434	0.1004
2443	0.0933
2452	0.0891
2461	0.0916
2470	0.0988
2479	0.1097
2488	0.1108
2497	0.1059
2506	0.1092
2515	0.1152
2524	0.1128
2533	0.108
2542	0.1027
2551	0.0991
2560	0.0991
2569	0.102
2578	0.1256
2587	0.1549
2596	0.184
2605	0.2096
2614	0.219
2623	0.2231
2632	0.2258
2641	0.2273
2650	0.2284
2659	0.2321
2668	0.2451
2677	0.2721
2686	0.304
2695	0.3197
2704	0.3325
2713	0.345
2722	0.355
2731	0.3581
2740	0.3583
2749	0.3545
2758	0.3477
2767	0.3407
2776	0.3333
2785	0.3219
2794	0.3096
2803	0.3076
2812	0.3066
2821	0.303
2830	0.2811
2839	0.2718
2848	0.2716
2857	0.2589
2866	0.2454
2875	0.2379
2884	0.2344
2893	0.233
2902	0.2337
2911	0.2353
2920	0.2381
2929	0.2516
2938	0.274
2947	0.2895
2956	0.2923
2965	0.2939
2974	0.2999
2983	0.3113
2992	0.3148
3001	0.3153
3010	0.3156
3019	0.3158
3028	0.317
3037	0.3277
3046	0.3382
3055	0.3416
3064	0.3462
3073	0.3591
3082	0.3596
3091	0.3582
3100	0.354
3109	0.349
3118	0.3429
3127	0.3367
3136	0.3194
3145	0.3099
3154	0.3052
3163	0.3045
3172	0.3012
3181	0.289
3190	0.2765
3199	0.262
3208	0.2513
3217	0.2429
3226	0.2374
3235	0.2351
3244	0.234
3253	0.2305
3262	0.224
3271	0.217
3280	0.2115
3289	0.2095
3298	0.213
3307	0.2219
3316	0.2297
3325	0.2364
3334	0.2413
3343	0.2446
3352	0.2476
3361	0.2512
3370	0.2607
3379	0.2685
3388	0.2755
3397	0.2826
3406	0.2897
3415	0.2967
3424	0.304
3433	0.3114
3442	0.3193
3451	0.327
3460	0.3339
3469	0.3376
3478	0.3394
3487	0.3413
3496	0.343
3505	0.344
3514	0.3449
3523	0.3458
3532	0.3467
3541	0.3476
3550	0.3486
3559	0.3497
3568	0.3507
3577	0.3518
3586	0.3529
3595	0.3544
3604	0.3564
3613	0.3585
3622	0.3599
3631	0.3612
3640	0.3618
3649	0.361
3658	0.3602
3667	0.3585
3676	0.356
3685	0.3536
3694	0.3516
3703	0.3499
3712	0.3491
3721	0.3486
3730	0.349
3739	0.3494
3748	0.3498
3757	0.3504
3766	0.3502
3775	0.3488
3784	0.3474
3793	0.3459
3802	0.3445
3811	0.343
3820	0.3417
3829	0.3403
3838	0.3388
3847	0.3373
3856	0.3359
3865	0.3344
3874	0.3334
3883	0.3329
3892	0.3328
3901	0.3346
3910	0.3368
3919	0.3394
3928	0.34
3937	0.3374
3946	0.334
3955	0.3303
3964	0.3266
3973	0.3225
3982	0.3184
3991	0.3149
4000	0.3118
