Infrared Spectrum: Dicalcium phosphate, anhydrous
Formula: H O4 P Ca
State: SOLID (1 mg / 100 mg, KBr DISC)
Class: COBLENTZ
Instrument: BECKMAN IR-12 (GRATING)
Instrument parameters: GRATING
Sampling: TRANSMISSION
Resolution: 2
Origin: COLGATE-PALMOLIVE COMPANY (KELLENBACH)
1/CM	TRANSMITTANCE
202	0.0892
212	0.069
222	0.0881
232	0.1358
242	0.2073
252	0.2102
262	0.2218
272	0.2221
282	0.2198
292	0.3152
302	0.3433
312	0.3704
322	0.469
332	0.5588
342	0.6477
352	0.711
362	0.7591
372	0.807
382	0.8126
392	0.774
402	0.6863
412	0.6899
422	0.7541
432	0.7892
442	0.8022
452	0.8022
462	0.7879
472	0.7676
482	0.7448
492	0.7133
502	0.6763
512	0.6025
522	0.5286
532	0.4596
542	0.4426
552	0.4081
562	0.344
572	0.2889
582	0.2551
592	0.3508
602	0.5887
612	0.7656
622	0.8405
632	0.8838
642	0.9093
652	0.9091
662	0.9013
672	0.8895
682	0.8753
692	0.8572
702	0.8361
712	0.8161
722	0.7952
732	0.773
742	0.7503
752	0.7274
762	0.7028
772	0.6772
782	0.6531
792	0.6304
802	0.6094
812	0.5861
822	0.5623
832	0.5353
842	0.5112
852	0.4906
862	0.4565
872	0.4137
882	0.3588
892	0.3108
902	0.3167
912	0.3282
922	0.3871
932	0.4491
942	0.4753
952	0.4753
962	0.4343
972	0.3701
982	0.3058
992	0.249
1002	0.2443
1012	0.3111
1022	0.366
1032	0.3793
1042	0.3152
1052	0.2304
1062	0.1456
1072	0.0729
1082	0.0675
1092	0.1137
1102	0.1689
1112	0.1685
1122	0.1275
1132	0.09
1142	0.1233
1152	0.1787
1162	0.2191
1172	0.2404
1182	0.2559
1192	0.3088
1202	0.3732
1212	0.4274
1222	0.469
1232	0.5157
1242	0.5696
1252	0.6135
1262	0.6463
1272	0.6616
1282	0.6672
1292	0.6695
1302	0.6665
1312	0.6483
1322	0.6087
1332	0.5667
1342	0.525
1352	0.4984
1362	0.4983
1372	0.5093
1382	0.5194
1392	0.5206
1402	0.5233
1412	0.5298
1422	0.5426
1432	0.5729
1442	0.6024
1452	0.6239
1462	0.6267
1472	0.659
1482	0.6699
1492	0.6712
1502	0.6693
1512	0.6536
1522	0.6521
1532	0.6559
1542	0.6392
1552	0.6345
1562	0.627
1572	0.6227
1582	0.6189
1592	0.6147
1602	0.607
1612	0.5914
1622	0.5806
1632	0.5733
1642	0.5738
1652	0.5684
1662	0.5732
1672	0.5814
1682	0.5883
1692	0.5949
1702	0.597
1712	0.603
1722	0.6132
1732	0.6192
1742	0.6217
1752	0.6318
1762	0.6465
1772	0.6503
1782	0.6694
1792	0.679
1802	0.682
1812	0.6902
1822	0.6982
1832	0.704
1842	0.7078
1852	0.7106
1862	0.7211
1872	0.7255
1882	0.7292
1892	0.7399
1902	0.7387
1912	0.7393
1922	0.7425
1932	0.7467
1942	0.7504
1952	0.7536
1962	0.7535
1972	0.7542
1982	0.7558
1992	0.7527
2002	0.7487
2012	0.7464
2022	0.744
2032	0.7416
2042	0.7392
2052	0.737
2062	0.735
2072	0.733
2082	0.731
2092	0.729
2102	0.7269
2112	0.7246
2122	0.7223
2132	0.7201
2142	0.7193
2152	0.7184
2162	0.7162
2172	0.7072
2182	0.7018
2192	0.6982
2202	0.6946
2212	0.6908
2222	0.6862
2232	0.6817
2242	0.6772
2252	0.6729
2262	0.6686
2272	0.6642
2282	0.6599
2292	0.6548
2302	0.6495
2312	0.6441
2322	0.6387
2332	0.633
2342	0.6269
2352	0.6222
2362	0.6188
2372	0.6196
2382	0.6204
2392	0.6229
2402	0.6257
2412	0.6279
2422	0.6316
2432	0.6343
2442	0.6359
2452	0.6381
2462	0.6411
2472	0.6446
2482	0.6483
2492	0.6504
2502	0.6522
2512	0.6538
2522	0.6587
2532	0.6658
2542	0.6693
2552	0.6709
2562	0.6711
2572	0.676
2582	0.6842
2592	0.6941
2602	0.7029
2612	0.7132
2622	0.7245
2632	0.7339
2642	0.7416
2652	0.7442
2662	0.7499
2672	0.7456
2682	0.7439
2692	0.7415
2702	0.7406
2712	0.741
2722	0.7381
2732	0.731
2742	0.722
2752	0.7115
2762	0.7022
2772	0.693
2782	0.6853
2792	0.6782
2802	0.6728
2812	0.6699
2822	0.6686
2832	0.6692
2842	0.6695
2852	0.6706
2862	0.6719
2872	0.6731
2882	0.6769
2892	0.6822
2902	0.692
2912	0.6931
2922	0.6903
2932	0.6909
2942	0.6944
2952	0.6988
2962	0.7033
2972	0.7082
2982	0.7123
2992	0.7157
3002	0.7191
3012	0.7219
3022	0.7247
3032	0.7272
3042	0.7294
3052	0.7315
3062	0.7336
3072	0.7355
3082	0.7374
3092	0.7392
3102	0.7409
3112	0.7415
3122	0.7421
3132	0.7426
3142	0.7429
3152	0.7433
3162	0.7444
3172	0.7467
3182	0.7483
3192	0.7488
3202	0.7485
3212	0.7481
3222	0.7486
3232	0.7493
3242	0.7514
3252	0.754
3262	0.7571
3272	0.7587
3282	0.7573
3292	0.757
3302	0.7568
3312	0.7566
3322	0.7565
3332	0.7564
3342	0.7565
3352	0.757
3362	0.7575
3372	0.7557
3382	0.749
3392	0.7453
3402	0.7448
3412	0.7447
3422	0.7449
3432	0.7458
3442	0.7469
3452	0.748
3462	0.7554
3472	0.7573
3482	0.7586
3492	0.7609
3502	0.7646
3512	0.7686
3522	0.7725
3532	0.777
3542	0.7841
3552	0.7933
3562	0.7995
3572	0.806
3582	0.8128
3592	0.8199
3602	0.8271
3612	0.8349
3622	0.8432
3632	0.851
3642	0.8604
3652	0.8584
3662	0.8575
3672	0.8575
3682	0.8592
3692	0.8614
3702	0.8646
3712	0.8675
3722	0.8742
3732	0.8785
3742	0.875
3752	0.8724
3762	0.8736
3772	0.8766
3782	0.8813
3792	0.8793
3802	0.8783
3812	0.8789
3822	0.8799
3832	0.881
3842	0.882
3852	0.8829
3862	0.8833
3872	0.8833
3882	0.8827
3892	0.8827
3902	0.8839
3912	0.885
3922	0.8855
3932	0.8855
3942	0.885
3952	0.8847
3962	0.885
3972	0.8865
3982	0.891
3992	0.8952
