Infrared Spectrum: Butyric acid, 2-hydrazino-3-methyl-, D,L-Alpha-
Formula: C5 H12 N2 O2
State: SOLID (KBr DISC)
Class: COBLENTZ III
Instrument: PERKIN-ELMER 21 (GRATING)
Instrument parameters: FILTER CHANGE ABOUT 1070 CM^-^1
Resolution: 2
Origin: SOUTHERN RESEARCH INSTITUTE
1/CM	TRANSMITTANCE
595.207	0.6391
604.239	0.6237
613.271	0.6054
622.303	0.581
631.336	0.5395
640.368	0.224
649.4	0.1864
658.432	0.397
667.464	0.5916
676.496	0.6976
685.529	0.7268
694.561	0.7366
703.593	0.7404
712.625	0.7353
721.657	0.7254
730.689	0.7126
739.721	0.6912
748.754	0.5987
757.786	0.1884
766.818	0.5591
775.85	0.6607
784.882	0.6545
793.914	0.6256
802.946	0.5623
811.979	0.5061
821.011	0.1643
830.043	0.0602
839.075	0.3829
848.107	0.4215
857.139	0.1398
866.172	0.5446
875.204	0.7087
884.236	0.7235
893.268	0.7262
902.3	0.7126
911.332	0.6683
920.364	0.4692
929.397	0.6193
938.429	0.7051
947.461	0.7235
956.493	0.7169
965.525	0.7156
974.557	0.7172
983.59	0.7101
992.622	0.6967
1001.65	0.6793
1010.69	0.6593
1019.72	0.637
1028.75	0.6122
1037.78	0.529
1046.81	0.2982
1055.85	0.1353
1064.88	0.3967
1073.91	0.6157
1082.94	0.6438
1091.98	0.6388
1101.01	0.5248
1110.04	0.5536
1119.07	0.6076
1128.1	0.5873
1137.14	0.5363
1146.17	0.3718
1155.2	0.6069
1164.23	0.5925
1173.26	0.5443
1182.3	0.4406
1191.33	0.5489
1200.36	0.5029
1209.39	0.4267
1218.43	0.5549
1227.46	0.528
1236.49	0.3583
1245.52	0.2646
1254.55	0.351
1263.59	0.5263
1272.62	0.5224
1281.65	0.4973
1290.68	0.4595
1299.71	0.401
1308.75	0.2768
1317.78	0.1637
1326.81	0.0736
1335.84	0.198
1344.88	0.2987
1353.91	0.0769
1362.94	0.0897
1371.97	0.2353
1381	0.1968
1390.04	0.2621
1399.07	0.1851
1408.1	0.0611
1417.13	0.0934
1426.16	0.1754
1435.2	0.2823
1444.23	0.284
1453.26	0.2158
1462.29	0.1551
1471.33	0.1597
1480.36	0.1118
1489.39	0.0698
1498.42	0.0416
1507.45	0.055
1516.49	0.0507
1525.52	0.0459
1534.55	0.0793
1543.58	0.1439
1552.62	0.176
1561.65	0.165
1570.68	0.1083
1579.71	0.0512
1588.74	0.0601
1597.78	0.0858
1606.81	0.0852
1615.84	0.0645
1624.87	0.0881
1633.9	0.108
1642.94	0.1618
1651.97	0.2301
1661	0.3179
1670.03	0.3442
1679.07	0.3554
1688.1	0.4503
1697.13	0.5225
1706.16	0.5475
1715.19	0.5621
1724.23	0.5914
1733.26	0.6139
1742.29	0.6266
1751.32	0.6291
1760.35	0.6315
1769.39	0.6335
1778.42	0.6407
1787.45	0.6426
1796.48	0.6434
1805.52	0.6461
1814.55	0.6509
1823.58	0.6579
1832.61	0.6602
1841.64	0.6609
1850.68	0.6663
1859.71	0.6706
1868.74	0.6718
1877.77	0.6723
1886.8	0.6733
1895.84	0.6761
1904.87	0.6786
1913.9	0.6778
1922.93	0.6791
1931.97	0.6796
1941	0.6791
1950.03	0.6783
1959.06	0.6731
1968.09	0.6699
1977.13	0.6694
1986.16	0.6699
1995.19	0.6681
2004.22	0.6656
2013.25	0.6578
2022.29	0.6515
2031.32	0.6514
2040.35	0.6468
2049.38	0.6367
2058.42	0.623
2067.45	0.6114
2076.48	0.5988
2085.51	0.5837
2094.54	0.5638
2103.58	0.5416
2112.61	0.5283
2121.64	0.5141
2130.67	0.4806
2139.7	0.4433
2148.74	0.4041
2157.77	0.3666
2166.8	0.3395
2175.83	0.306
2184.87	0.2639
2193.9	0.2217
2202.93	0.2225
2211.96	0.255
2220.99	0.282
2230.03	0.3094
2239.06	0.3435
2248.09	0.3796
2257.12	0.4193
2266.15	0.4412
2275.19	0.452
2284.22	0.4491
2293.25	0.4437
2302.28	0.437
2311.32	0.4237
2320.35	0.4076
2329.38	0.3938
2338.41	0.3802
2347.44	0.3657
2356.48	0.3556
2365.51	0.348
2374.54	0.337
2383.57	0.3207
2392.61	0.3121
2401.64	0.3015
2410.67	0.2894
2419.7	0.2706
2428.73	0.2599
2437.77	0.2378
2446.8	0.2149
2455.83	0.1944
2464.86	0.1742
2473.89	0.1662
2482.93	0.1606
2491.96	0.1541
2500.99	0.1395
2510.02	0.1245
2519.06	0.113
2528.09	0.1041
2537.12	0.0997
2546.15	0.0965
2555.18	0.0928
2564.22	0.095
2573.25	0.0988
2582.28	0.0996
2591.31	0.0995
2600.34	0.0994
2609.38	0.0999
2618.41	0.1006
2627.44	0.1011
2636.47	0.1009
2645.51	0.1006
2654.54	0.0997
2663.57	0.0946
2672.6	0.0892
2681.63	0.0852
2690.67	0.0821
2699.7	0.0823
2708.73	0.089
2717.76	0.0965
2726.79	0.1019
2735.83	0.1042
2744.86	0.1046
2753.89	0.1043
2762.92	0.1036
2771.96	0.1029
2780.99	0.1029
2790.02	0.1031
2799.05	0.1034
2808.08	0.103
2817.12	0.1025
2826.15	0.1019
2835.18	0.1019
2844.21	0.1021
2853.24	0.1024
2862.28	0.1032
2871.31	0.1038
2880.34	0.1041
2889.37	0.1018
2898.41	0.0957
2907.44	0.0824
2916.47	0.0689
2925.5	0.0617
2934.53	0.0571
2943.57	0.0544
2952.6	0.0589
2961.63	0.0669
2970.66	0.0755
2979.69	0.0798
2988.73	0.0808
2997.76	0.0835
3006.79	0.0942
3015.82	0.0998
3024.86	0.102
3033.89	0.1046
3042.92	0.1095
3051.95	0.126
3060.98	0.1454
3070.02	0.164
3079.05	0.1825
3088.08	0.2003
3097.11	0.2224
3106.15	0.259
3115.18	0.2837
3124.21	0.3051
3133.24	0.3383
3142.27	0.3658
3151.31	0.3834
3160.34	0.3936
3169.37	0.4045
3178.4	0.4184
3187.43	0.4241
3196.47	0.428
3205.5	0.4245
3214.53	0.4182
3223.56	0.3725
3232.6	0.2488
3241.63	0.1967
3250.66	0.2595
3259.69	0.3546
3268.72	0.383
3277.76	0.4188
3286.79	0.4291
3295.82	0.4401
3304.85	0.4496
3313.88	0.4564
3322.92	0.4605
3331.95	0.4615
3340.98	0.4596
3350.01	0.4587
3359.05	0.457
3368.08	0.4513
3377.11	0.4454
3386.14	0.4423
3395.17	0.4408
3404.21	0.4412
3413.24	0.4423
3422.27	0.4444
3431.3	0.4481
3440.33	0.4537
3449.37	0.4586
3458.4	0.4658
3467.43	0.4737
3476.46	0.4813
3485.5	0.4888
3494.53	0.4978
3503.56	0.5076
3512.59	0.5184
3521.62	0.5288
3530.66	0.5392
3539.69	0.55
3548.72	0.5611
3557.75	0.5726
3566.78	0.5849
3575.82	0.5975
3584.85	0.6105
3593.88	0.6231
3602.91	0.635
3611.95	0.6455
3620.98	0.6525
3630.01	0.6603
3639.04	0.6681
3648.07	0.6751
3657.11	0.6819
3666.14	0.6879
3675.17	0.6939
3684.2	0.6974
3693.23	0.7008
3702.27	0.7027
3711.3	0.7047
3720.33	0.7061
3729.36	0.7073
3738.4	0.7085
3747.43	0.7095
3756.46	0.7104
3765.49	0.7111
3774.52	0.7112
3783.56	0.7114
3792.59	0.7114
3801.62	0.7114
3810.65	0.7115
