Infrared Spectrum: Imidazole, 4-MorpholinoCarbonyl-5-Nitro-
Formula: C8 H10 N4 O4
State: SOLID (0.7 mg / 650 mg KBr DISC)
Class: COBLENTZ III
Instrument: PERKIN-ELMER 21 (GRATING)
Instrument parameters: FILTER CHANGE ABOUT 1020 CM^-^1
Sampling: TRANSMISSION
Resolution: 2
Origin: SOUTHERN RESEARCH INSTITUTE
1/CM	TRANSMITTANCE
600	0.7493
609.026	0.7473
618.053	0.7427
627.079	0.7306
636.106	0.6922
645.132	0.6373
654.159	0.5681
663.185	0.6904
672.212	0.6784
681.238	0.5968
690.265	0.5074
699.291	0.7202
708.318	0.7545
717.344	0.742
726.371	0.7111
735.397	0.6635
744.424	0.5317
753.45	0.6072
762.476	0.624
771.503	0.6071
780.529	0.5646
789.556	0.7088
798.582	0.7168
807.609	0.6996
816.635	0.586
825.662	0.3355
834.688	0.7079
843.715	0.597
852.741	0.7287
861.768	0.831
870.794	0.8142
879.821	0.7958
888.847	0.7665
897.874	0.718
906.9	0.8771
915.926	0.8675
924.953	0.8233
933.979	0.6883
943.006	0.4676
952.032	0.8709
961.059	0.88
970.085	0.8761
979.112	0.8607
988.138	0.8294
997.165	0.8119
1006.19	0.7181
1015.22	0.5689
1024.24	0.4548
1033.27	0.8873
1042.3	0.8796
1051.32	0.8409
1060.35	0.7181
1069.38	0.7769
1078.4	0.7813
1087.43	0.6903
1096.46	0.674
1105.48	0.3838
1114.51	0.2423
1123.54	0.6831
1132.56	0.8189
1141.59	0.7637
1150.61	0.8971
1159.64	0.8994
1168.67	0.8936
1177.69	0.8823
1186.72	0.8638
1195.75	0.8356
1204.77	0.7991
1213.8	0.7169
1222.83	0.6535
1231.85	0.7642
1240.88	0.754
1249.91	0.5603
1258.93	0.5666
1267.96	0.5583
1276.99	0.4278
1286.01	0.5798
1295.04	0.4157
1304.06	0.622
1313.09	0.6329
1322.12	0.5634
1331.14	0.4095
1340.17	0.5112
1349.2	0.5388
1358.22	0.2315
1367.25	0.1497
1376.28	0.3219
1385.3	0.5281
1394.33	0.5165
1403.36	0.6138
1412.38	0.483
1421.41	0.4988
1430.44	0.4309
1439.46	0.3529
1448.49	0.4112
1457.51	0.3728
1466.54	0.2938
1475.57	0.3075
1484.59	0.1931
1493.62	0.3122
1502.65	0.4679
1511.67	0.1283
1520.7	0.1307
1529.73	0.3543
1538.75	0.5973
1547.78	0.7579
1556.81	0.759
1565.83	0.7524
1574.86	0.7254
1583.89	0.6775
1592.91	0.6381
1601.94	0.5543
1610.96	0.385
1619.99	0.0905
1629.02	0.0575
1638.04	0.1679
1647.07	0.2462
1656.1	0.4869
1665.12	0.5785
1674.15	0.7347
1683.18	0.7888
1692.2	0.8115
1701.23	0.8593
1710.26	0.8683
1719.28	0.8883
1728.31	0.8831
1737.34	0.8798
1746.36	0.8821
1755.39	0.9058
1764.41	0.9262
1773.44	0.9345
1782.47	0.9395
1791.49	0.9444
1800.52	0.9489
1809.55	0.9527
1818.57	0.956
1827.6	0.9621
1836.63	0.9704
1845.65	0.9741
1854.68	0.9759
1863.71	0.9776
1872.73	0.9789
1881.76	0.9797
1890.79	0.9797
1899.81	0.9794
1908.84	0.9792
1917.86	0.9821
1926.89	0.9832
1935.92	0.9806
1944.94	0.9767
1953.97	0.9743
1963	0.9772
1972.02	0.9833
1981.05	0.9873
1990.08	0.9868
1999.1	0.9863
2008.13	0.9862
2017.16	0.9861
2026.18	0.9864
2035.21	0.9866
2044.24	0.9871
2053.26	0.9876
2062.29	0.9881
2071.31	0.988
2080.34	0.9879
2089.37	0.9878
2098.39	0.9875
2107.42	0.987
2116.45	0.9864
2125.47	0.9858
2134.5	0.9848
2143.53	0.9844
2152.55	0.9841
2161.58	0.9837
2170.61	0.9833
2179.63	0.983
2188.66	0.9822
2197.69	0.9802
2206.71	0.9768
2215.74	0.9742
2224.76	0.9732
2233.79	0.9733
2242.82	0.9733
2251.84	0.9732
2260.87	0.9733
2269.9	0.9735
2278.92	0.9729
2287.95	0.9709
2296.98	0.9688
2306	0.9672
2315.03	0.9661
2324.06	0.9684
2333.08	0.9714
2342.11	0.9723
2351.14	0.9725
2360.16	0.9716
2369.19	0.9702
2378.21	0.9656
2387.24	0.9599
2396.27	0.9551
2405.29	0.9507
2414.32	0.9477
2423.35	0.9462
2432.37	0.945
2441.4	0.939
2450.43	0.9341
2459.45	0.934
2468.48	0.9338
2477.51	0.9316
2486.53	0.9273
2495.56	0.9222
2504.59	0.9171
2513.61	0.9134
2522.64	0.9064
2531.66	0.8996
2540.69	0.8972
2549.72	0.8959
2558.74	0.8962
2567.77	0.8964
2576.8	0.8966
2585.82	0.8969
2594.85	0.8939
2603.88	0.8902
2612.9	0.8869
2621.93	0.8832
2630.96	0.881
2639.98	0.8794
2649.01	0.8789
2658.04	0.8795
2667.06	0.88
2676.09	0.8773
2685.11	0.8715
2694.14	0.8671
2703.17	0.8634
2712.19	0.8606
2721.22	0.8587
2730.25	0.8583
2739.27	0.8569
2748.3	0.8467
2757.33	0.8336
2766.35	0.8218
2775.38	0.8128
2784.41	0.7945
2793.43	0.7751
2802.46	0.7621
2811.49	0.7537
2820.51	0.7468
2829.54	0.7411
2838.56	0.7373
2847.59	0.6944
2856.62	0.6482
2865.64	0.6368
2874.67	0.638
2883.7	0.6483
2892.72	0.6654
2901.75	0.666
2910.78	0.6511
2919.8	0.6335
2928.83	0.6222
2937.86	0.6264
2946.88	0.6431
2955.91	0.6514
2964.94	0.6395
2973.96	0.6238
2982.99	0.627
2992.01	0.6386
3001.04	0.6466
3010.07	0.6449
3019.09	0.6432
3028.12	0.6406
3037.15	0.6325
3046.17	0.6225
3055.2	0.613
3064.23	0.5975
3073.25	0.5621
3082.28	0.5288
3091.31	0.4977
3100.33	0.4678
3109.36	0.4358
3118.39	0.4038
3127.41	0.3671
3136.44	0.3381
3145.46	0.3376
3154.49	0.3372
3163.52	0.3315
3172.54	0.3225
3181.57	0.327
3190.6	0.3495
3199.62	0.3808
3208.65	0.4147
3217.68	0.4487
3226.7	0.4826
3235.73	0.5135
3244.76	0.5404
3253.78	0.5887
3262.81	0.6189
3271.84	0.6368
3280.86	0.6607
3289.89	0.6951
3298.91	0.7286
3307.94	0.7394
3316.97	0.7509
3325.99	0.7611
3335.02	0.771
3344.05	0.7796
3353.07	0.7862
3362.1	0.7894
3371.13	0.7898
3380.15	0.7887
3389.18	0.7868
3398.21	0.7841
3407.23	0.7808
3416.26	0.7775
3425.29	0.7744
3434.31	0.7731
3443.34	0.7732
3452.36	0.7739
3461.39	0.7757
3470.42	0.7785
3479.44	0.782
3488.47	0.7873
3497.5	0.7936
3506.52	0.8022
3515.55	0.812
3524.58	0.8205
3533.6	0.8287
3542.63	0.8369
3551.66	0.8441
3560.68	0.8507
3569.71	0.8569
3578.74	0.8631
3587.76	0.8698
3596.79	0.8768
3605.81	0.8843
3614.84	0.8959
3623.87	0.9086
3632.89	0.9197
3641.92	0.9319
3650.95	0.9372
3659.97	0.9418
3669	0.9459
3678.03	0.9475
3687.05	0.9484
3696.08	0.9492
3705.11	0.95
3714.13	0.9502
3723.16	0.9515
3732.19	0.9547
3741.21	0.9583
3750.24	0.9592
3759.26	0.9596
3768.29	0.9596
3777.32	0.9605
3786.34	0.9634
3795.37	0.9673
3804.4	0.9714
3813.42	0.975
3822.45	0.9755
3831.48	0.9743
3840.5	0.9699
3849.53	0.9632
3858.56	0.9552
3867.58	0.9517
3876.61	0.9519
3885.64	0.9531
3894.66	0.9534
3903.69	0.9537
3912.71	0.9541
3921.74	0.9542
3930.77	0.9533
3939.79	0.9522
3948.82	0.9496
3957.85	0.947
3966.87	0.9447
3975.9	0.9429
3984.93	0.9414
3993.95	0.9405
4002.98	0.9366
