Infrared Spectrum: Zinc, bis(8-quinolinolato)-
Formula: C18 H12 N2 O2 Zn
State: SOLID (OIL MULL)
Class: COBLENTZ III
Instrument: BAIRD (PRISM)
Instrument parameters: NaCl PRISM
Sampling: TRANSMISSION
Resolution: 2
Origin: WYANDOTTE CHEMICALS CORP.
1/CM	TRANSMITTANCE
626	0.6692
635	0.7099
644	0.6527
653	0.7923
662	0.8296
671	0.8804
680	0.9017
689	0.9162
698	0.9092
707	0.8737
716	0.7636
725	0.4372
734	0.1728
743	0.3481
752	0.549
761	0.7966
770	0.8393
779	0.7305
788	0.3857
797	0.5227
806	0.7471
815	0.3168
824	0.5213
833	0.8895
842	0.9144
851	0.9186
860	0.9076
869	0.8404
878	0.8885
887	0.8975
896	0.888
905	0.7175
914	0.8602
923	0.8793
932	0.8765
941	0.8598
950	0.8152
959	0.8282
968	0.8421
977	0.7784
986	0.8543
995	0.8635
1004	0.8504
1013	0.8237
1022	0.782
1031	0.6563
1040	0.7616
1049	0.7913
1058	0.7291
1067	0.7612
1076	0.7461
1085	0.6798
1094	0.6418
1103	0.5257
1112	0.0518
1121	0.5492
1130	0.7331
1139	0.7474
1148	0.7665
1157	0.7628
1166	0.7521
1175	0.713
1184	0.7209
1193	0.7794
1202	0.7152
1211	0.6961
1220	0.6305
1229	0.4597
1238	0.4748
1247	0.6719
1256	0.7306
1265	0.6683
1274	0.29
1283	0.408
1292	0.7202
1301	0.6857
1310	0.5089
1319	0.1015
1328	0.0751
1337	0.5051
1346	0.6509
1355	0.6113
1364	0.2979
1373	0.0815
1382	0.0369
1391	0.0373
1400	0.4844
1409	0.6421
1418	0.647
1427	0.4385
1436	0.4747
1445	0.3002
1454	0.1904
1463	0.0287
1472	0.0189
1481	0.3293
1490	0.5989
1499	0.1414
1508	0.3597
1517	0.8137
1526	0.8219
1535	0.8153
1544	0.8077
1553	0.814
1562	0.8135
1571	0.62
1580	0.2543
1589	0.3173
1598	0.6012
1607	0.4441
1616	0.5792
1625	0.8153
1634	0.8572
1643	0.8701
1652	0.8615
1661	0.8555
1670	0.8609
1679	0.8699
1688	0.8823
1697	0.8982
1706	0.9028
1715	0.9098
1724	0.9078
1733	0.9119
1742	0.9227
1751	0.9259
1760	0.9407
1769	0.9556
1778	0.9606
1787	0.9612
1796	0.9593
1805	0.9565
1814	0.9527
1823	0.949
1832	0.9454
1841	0.9418
1850	0.935
1859	0.9275
1868	0.9256
1877	0.9251
1886	0.9182
1895	0.914
1904	0.9201
1913	0.9223
1922	0.922
1931	0.9329
1940	0.9364
1949	0.937
1958	0.9372
1967	0.9369
1976	0.9364
1985	0.9355
1994	0.9341
2003	0.9327
2012	0.9285
2021	0.925
2030	0.9218
2039	0.9197
2048	0.9184
2057	0.9172
2066	0.9169
2075	0.9177
2084	0.9181
2093	0.9182
2102	0.9166
2111	0.9125
2120	0.9075
2129	0.9033
2138	0.9003
2147	0.8987
2156	0.8972
2165	0.8957
2174	0.8933
2183	0.8908
2192	0.8881
2201	0.885
2210	0.8811
2219	0.8772
2228	0.8761
2237	0.8759
2246	0.8746
2255	0.8733
2264	0.8716
2273	0.8686
2282	0.8636
2291	0.8555
2300	0.845
2309	0.8411
2318	0.8381
2327	0.8333
2336	0.8305
2345	0.8295
2354	0.8288
2363	0.8277
2372	0.8262
2381	0.8243
2390	0.8218
2399	0.8203
2408	0.8196
2417	0.8188
2426	0.8175
2435	0.8156
2444	0.812
2453	0.809
2462	0.8083
2471	0.8089
2480	0.8094
2489	0.8091
2498	0.807
2507	0.8001
2516	0.7832
2525	0.7789
2534	0.7752
2543	0.7679
2552	0.7601
2561	0.7565
2570	0.7537
2579	0.7572
2588	0.76
2597	0.7574
2606	0.7497
2615	0.7382
2624	0.729
2633	0.7239
2642	0.725
2651	0.7264
2660	0.7257
2669	0.722
2678	0.7182
2687	0.7128
2696	0.7145
2705	0.7218
2714	0.7235
2723	0.7232
2732	0.72
2741	0.7133
2750	0.7022
2759	0.6856
2768	0.6582
2777	0.6028
2786	0.565
2795	0.4819
2804	0.3503
2813	0.2201
2822	0.1042
2831	0.0493
2840	0.0448
2849	0.0476
2858	0.0489
2867	0.0482
2876	0.042
2885	0.0281
2894	0.0197
2903	0.0162
2912	0.0155
2921	0.0164
2930	0.0189
2939	0.0228
2948	0.0532
2957	0.1512
2966	0.249
2975	0.3462
2984	0.4428
2993	0.4865
3002	0.4898
3011	0.4898
3020	0.491
3029	0.4991
3038	0.5391
3047	0.5882
3056	0.6386
3065	0.657
3074	0.6636
3083	0.6656
3092	0.6671
3101	0.6683
3110	0.6693
3119	0.6701
3128	0.6709
3137	0.6717
3146	0.6726
3155	0.6741
3164	0.6774
3173	0.6847
3182	0.6872
3191	0.6871
3200	0.687
3209	0.6867
3218	0.6864
3227	0.6861
3236	0.6861
3245	0.6861
3254	0.6861
3263	0.6862
3272	0.6862
3281	0.6861
3290	0.6861
3299	0.6861
3308	0.6861
3317	0.686
3326	0.6861
3335	0.6861
3344	0.6861
3353	0.6862
3362	0.6862
3371	0.6862
3380	0.6863
3389	0.6863
3398	0.6864
3407	0.6865
3416	0.6865
3425	0.6866
3434	0.6867
3443	0.6867
3452	0.6868
3461	0.6869
3470	0.6866
3479	0.6863
3488	0.6859
3497	0.6851
3506	0.6843
3515	0.6834
3524	0.6825
3533	0.6817
3542	0.6808
3551	0.6798
3560	0.6788
3569	0.6777
3578	0.6767
3587	0.6757
3596	0.6747
3605	0.6736
3614	0.6726
3623	0.6719
3632	0.6713
3641	0.6706
3650	0.67
3659	0.6693
3668	0.6687
3677	0.6681
3686	0.6674
3695	0.6668
3704	0.666
3713	0.6651
3722	0.6643
3731	0.6635
3740	0.6627
3749	0.6619
3758	0.6607
3767	0.6594
3776	0.6589
3785	0.6588
3794	0.6586
3803	0.6582
3812	0.6575
3821	0.6567
3830	0.6558
3839	0.6528
3848	0.6495
3857	0.646
3866	0.6427
3875	0.6393
3884	0.6358
3893	0.6324
3902	0.6299
3911	0.6281
3920	0.6264
3929	0.6249
3938	0.6237
3947	0.6225
3956	0.6212
3965	0.62
3974	0.6187
3983	0.6176
3992	0.6165
