Infrared Spectrum: p-(2-DIMETHYLAMINOETHYL)PHENOL, SULFATE
Formula: C10 H15 N O  * H2 S O4
State: SOLID (1.5 mg / 100 mg KBr PELLET)
Class: COBLENTZ
Instrument: Not specified, most likely a grating spectrometer.
Sampling: TRANSMISSION
Resolution: 4
Origin: CITRUS EXPERIMENT STATION, UNIVERSITY OF FLORIDA (G. EDWARDS)
MICROMETERS	TRANSMITTANCE
2	0.618
2.03623	0.621
2.07246	0.625
2.10869	0.631
2.14492	0.633
2.18114	0.638
2.21737	0.649
2.2536	0.654
2.28983	0.659
2.32606	0.669
2.36229	0.671
2.39852	0.678
2.43475	0.683
2.47097	0.692
2.5072	0.699
2.54343	0.704
2.57966	0.706
2.61589	0.707
2.65212	0.709
2.68835	0.704
2.72458	0.699
2.76081	0.698
2.79703	0.688
2.83326	0.681
2.86949	0.669
2.90572	0.654
2.94195	0.63
2.97818	0.604
3.01441	0.538
3.05064	0.471
3.08687	0.458
3.12309	0.535
3.15932	0.6
3.19555	0.636
3.23178	0.649
3.26801	0.632
3.30424	0.6
3.34047	0.549
3.3767	0.602
3.41292	0.659
3.44915	0.68
3.48538	0.694
3.52161	0.682
3.55784	0.631
3.59407	0.539
3.6303	0.555
3.66653	0.62
3.70276	0.682
3.73898	0.709
3.77521	0.728
3.81144	0.732
3.84767	0.745
3.8839	0.749
3.92013	0.768
3.95636	0.778
3.99259	0.768
4.02881	0.768
4.06504	0.789
4.10127	0.801
4.1375	0.823
4.17373	0.838
4.20996	0.847
4.24619	0.852
4.28242	0.855
4.31865	0.859
4.35487	0.86
4.3911	0.865
4.42733	0.869
4.46356	0.873
4.49979	0.88
4.53602	0.888
4.57225	0.888
4.60848	0.888
4.64471	0.888
4.68093	0.888
4.71716	0.888
4.75339	0.89
4.78962	0.9
4.82585	0.903
4.86208	0.904
4.89831	0.905
4.93454	0.905
4.97076	0.907
5.00699	0.91
5.04322	0.912
5.07945	0.913
5.11568	0.915
5.15191	0.911
5.18814	0.911
5.22437	0.903
5.2606	0.899
5.29682	0.921
5.33305	0.924
5.36928	0.927
5.40551	0.928
5.44174	0.928
5.47797	0.926
5.5142	0.921
5.55043	0.921
5.58665	0.922
5.62288	0.922
5.65911	0.915
5.69534	0.91
5.73157	0.911
5.7678	0.911
5.80403	0.909
5.84026	0.903
5.87649	0.9
5.91271	0.889
5.94894	0.876
5.98517	0.87
6.0214	0.856
6.05763	0.85
6.09386	0.83
6.13009	0.772
6.16632	0.7
6.20255	0.812
6.23877	0.776
6.275	0.886
6.31123	0.878
6.34746	0.858
6.38369	0.813
6.41992	0.798
6.45615	0.73
6.49238	0.711
6.5286	0.666
6.56483	0.706
6.60106	0.801
6.63729	0.793
6.67352	0.751
6.70975	0.711
6.74598	0.669
6.78221	0.67
6.81844	0.704
6.85466	0.739
6.89089	0.711
6.92712	0.78
6.96335	0.783
6.99958	0.766
7.03581	0.83
7.07204	0.864
7.10827	0.876
7.14449	0.869
7.18072	0.844
7.21695	0.831
7.25318	0.8
7.28941	0.773
7.32564	0.745
7.36187	0.76
7.3981	0.81
7.43433	0.881
7.47055	0.867
7.50678	0.871
7.54301	0.898
7.57924	0.893
7.61547	0.88
7.6517	0.86
7.68793	0.843
7.72416	0.831
7.76039	0.82
7.79661	0.769
7.83284	0.72
7.86907	0.658
7.9053	0.613
7.94153	0.613
7.97776	0.64
8.01399	0.71
8.05022	0.704
8.08644	0.65
8.12267	0.572
8.1589	0.56
8.19513	0.616
8.23136	0.71
8.26759	0.744
8.30382	0.779
8.34005	0.797
8.37628	0.785
8.4125	0.741
8.44873	0.693
8.48496	0.63
8.52119	0.592
8.55742	0.561
8.59365	0.545
8.62988	0.494
8.66611	0.449
8.70233	0.42
8.73856	0.404
8.77479	0.392
8.81102	0.385
8.84725	0.366
8.88348	0.35
8.91971	0.336
8.95594	0.336
8.99217	0.351
9.02839	0.38
9.06462	0.415
9.10085	0.452
9.13708	0.511
9.17331	0.551
9.20954	0.593
9.24577	0.629
9.282	0.652
9.31823	0.681
9.35445	0.709
9.39068	0.723
9.42691	0.736
9.46314	0.75
9.49937	0.766
9.5356	0.762
9.57183	0.763
9.60806	0.784
9.64428	0.8
9.68051	0.802
9.71674	0.795
9.75297	0.807
9.7892	0.827
9.82543	0.826
9.86166	0.83
9.89789	0.859
9.93412	0.858
9.97034	0.846
10.0066	0.791
10.0428	0.75
10.079	0.812
10.1153	0.859
10.1515	0.86
10.1877	0.88
10.2239	0.91
10.2602	0.92
10.2964	0.912
10.3326	0.864
10.3689	0.752
10.4051	0.659
10.4413	0.69
10.4775	0.758
10.5138	0.821
10.55	0.855
10.5862	0.88
10.6225	0.894
10.6587	0.903
10.6949	0.901
10.7311	0.91
10.7674	0.926
10.8036	0.935
10.8398	0.946
10.8761	0.955
10.9123	0.956
10.9485	0.956
10.9848	0.958
11.021	0.961
11.0572	0.967
11.0934	0.973
11.1297	0.973
11.1659	0.973
11.2021	0.978
11.2384	0.979
11.2746	0.983
11.3108	0.984
11.347	0.986
11.3833	0.986
11.4195	0.985
11.4557	0.979
11.492	0.963
11.5282	0.921
11.5644	0.854
11.6006	0.867
11.6369	0.922
11.6731	0.951
11.7093	0.962
11.7456	0.96
11.7818	0.943
11.818	0.91
11.8542	0.872
11.8905	0.853
11.9267	0.841
11.9629	0.804
11.9992	0.732
12.0354	0.603
12.0716	0.511
12.1078	0.535
12.1441	0.624
12.1803	0.72
12.2165	0.791
12.2528	0.842
12.289	0.88
12.3252	0.9
12.3614	0.907
12.3977	0.917
12.4339	0.927
12.4701	0.934
12.5064	0.949
12.5426	0.953
12.5788	0.952
12.615	0.95
12.6513	0.943
12.6875	0.934
12.7237	0.91
12.76	0.882
12.7962	0.895
12.8324	0.916
12.8687	0.929
12.9049	0.936
12.9411	0.941
12.9773	0.944
13.0136	0.94
13.0498	0.921
13.086	0.904
13.1223	0.901
13.1585	0.921
13.1947	0.941
13.2309	0.951
13.2672	0.957
13.3034	0.96
13.3396	0.96
13.3759	0.961
13.4121	0.961
13.4483	0.96
13.4845	0.957
13.5208	0.957
13.557	0.956
13.5932	0.955
13.6295	0.955
13.6657	0.946
13.7019	0.941
13.7381	0.94
13.7744	0.936
13.8106	0.935
13.8468	0.93
13.8831	0.922
13.9193	0.917
13.9555	0.913
13.9917	0.913
14.028	0.92
14.0642	0.921
14.1004	0.92
14.1367	0.917
14.1729	0.917
14.2091	0.916
14.2453	0.912
14.2816	0.912
14.3178	0.907
14.354	0.898
14.3903	0.884
14.4265	0.88
14.4627	0.863
14.4989	0.85
14.5352	0.842
14.5714	0.832
14.6076	0.816
14.6439	0.806
14.6801	0.786
14.7163	0.762
14.7526	0.74
14.7888	0.72
14.825	0.692
14.8612	0.664
14.8975	0.642
14.9337	0.64
14.9699	0.664
