Infrared Spectrum: SODIUM ZIRCONYL LACTATE
Formula: C9 H15 O10 Na Zr
Class: COBLENTZ
Instrument: PERKIN-ELMER
Sampling: TRANSMISSION
Resolution: 4
MICROMETERS	TRANSMITTANCE
2.025	0.86
2.06176	0.869
2.09851	0.873
2.13527	0.88
2.17202	0.889
2.20878	0.895
2.24553	0.898
2.28229	0.898
2.31904	0.896
2.3558	0.901
2.39255	0.91
2.42931	0.918
2.46607	0.921
2.50282	0.923
2.53958	0.923
2.57633	0.927
2.61309	0.936
2.64984	0.936
2.6866	0.947
2.72335	0.935
2.76011	0.844
2.79686	0.735
2.83362	0.572
2.87038	0.443
2.90713	0.367
2.94389	0.326
2.98064	0.315
3.0174	0.318
3.05415	0.329
3.09091	0.346
3.12766	0.38
3.16442	0.429
3.20117	0.489
3.23793	0.536
3.27469	0.57
3.31144	0.592
3.3482	0.55
3.38495	0.484
3.42171	0.483
3.45846	0.504
3.49522	0.54
3.53197	0.604
3.56873	0.76
3.60548	0.813
3.64224	0.83
3.679	0.836
3.71575	0.844
3.75251	0.855
3.78926	0.863
3.82602	0.867
3.86277	0.87
3.89953	0.87
3.93628	0.876
3.97304	0.876
4.00979	0.878
4.04655	0.881
4.0833	0.88
4.12006	0.883
4.15682	0.886
4.19357	0.89
4.23033	0.892
4.26708	0.895
4.30384	0.893
4.34059	0.895
4.37735	0.881
4.4141	0.88
4.45086	0.88
4.48761	0.878
4.52437	0.876
4.56113	0.878
4.59788	0.881
4.63464	0.883
4.67139	0.886
4.70815	0.89
4.7449	0.887
4.78166	0.89
4.81841	0.886
4.85517	0.892
4.89192	0.892
4.92868	0.89
4.96544	0.892
5.00219	0.889
5.03895	0.89
5.0757	0.886
5.11246	0.883
5.14921	0.88
5.18597	0.873
5.22272	0.87
5.25948	0.867
5.29623	0.858
5.33299	0.853
5.36975	0.843
5.4065	0.835
5.44326	0.833
5.48001	0.823
5.51677	0.816
5.55352	0.807
5.59028	0.792
5.62703	0.776
5.66379	0.752
5.70054	0.733
5.7373	0.703
5.77406	0.661
5.81081	0.593
5.84757	0.523
5.88432	0.44
5.92108	0.289
5.95783	0.218
5.99459	0.189
6.03134	0.17
6.0681	0.158
6.10485	0.146
6.14161	0.143
6.17837	0.143
6.21512	0.144
6.25188	0.144
6.28863	0.146
6.32539	0.161
6.36214	0.2
6.3989	0.243
6.43565	0.306
6.47241	0.387
6.50916	0.441
6.54592	0.524
6.58268	0.563
6.61943	0.598
6.65619	0.607
6.69294	0.61
6.7297	0.583
6.76645	0.535
6.80321	0.52
6.83996	0.501
6.87672	0.47
6.91347	0.392
6.95023	0.35
6.98699	0.387
7.02374	0.366
7.0605	0.327
7.09725	0.272
7.13401	0.223
7.17076	0.203
7.20752	0.195
7.24427	0.181
7.28103	0.18
7.31778	0.184
7.35454	0.2
7.39129	0.201
7.42805	0.201
7.46481	0.218
7.50156	0.272
7.53832	0.336
7.57507	0.364
7.61183	0.37
7.64858	0.372
7.68534	0.398
7.72209	0.416
7.75885	0.401
7.7956	0.372
7.83236	0.39
7.86912	0.441
7.90587	0.495
7.94263	0.521
7.97938	0.535
8.01614	0.564
8.05289	0.589
8.08965	0.61
8.1264	0.633
8.16316	0.655
8.19991	0.666
8.23667	0.673
8.27343	0.686
8.31018	0.693
8.34694	0.698
8.38369	0.709
8.42045	0.71
8.4572	0.712
8.49396	0.713
8.53071	0.713
8.56747	0.701
8.60422	0.683
8.64098	0.63
8.67774	0.549
8.71449	0.473
8.75125	0.401
8.788	0.34
8.82476	0.276
8.86151	0.233
8.89827	0.213
8.93502	0.207
8.97178	0.22
9.00853	0.263
9.04529	0.315
9.08205	0.338
9.1188	0.333
9.15556	0.316
9.19231	0.3
9.22907	0.303
9.26582	0.355
9.30258	0.409
9.33933	0.441
9.37609	0.436
9.41284	0.396
9.4496	0.296
9.48636	0.241
9.52311	0.21
9.55987	0.229
9.59662	0.272
9.63338	0.355
9.67013	0.421
9.70689	0.481
9.74364	0.541
9.7804	0.598
9.81715	0.632
9.85391	0.658
9.89067	0.68
9.92742	0.689
9.96418	0.703
10.0009	0.71
10.0377	0.721
10.0744	0.73
10.1112	0.741
10.148	0.75
10.1847	0.753
10.2215	0.755
10.2582	0.761
10.295	0.763
10.3317	0.77
10.3685	0.772
10.4052	0.775
10.442	0.775
10.4788	0.775
10.5155	0.773
10.5523	0.764
10.589	0.747
10.6258	0.718
10.6625	0.689
10.6993	0.666
10.736	0.646
10.7728	0.632
10.8096	0.633
10.8463	0.652
10.8831	0.684
10.9198	0.716
10.9566	0.736
10.9933	0.749
11.0301	0.764
11.0668	0.764
11.1036	0.761
11.1404	0.753
11.1771	0.736
11.2139	0.71
11.2506	0.66
11.2874	0.576
11.3241	0.486
11.3609	0.407
11.3976	0.367
11.4344	0.341
11.4711	0.335
11.5079	0.326
11.5447	0.347
11.5814	0.383
11.6182	0.436
11.6549	0.486
11.6917	0.529
11.7284	0.567
11.7652	0.604
11.8019	0.643
11.8387	0.681
11.8755	0.712
11.9122	0.723
11.949	0.726
11.9857	0.732
12.0225	0.74
12.0592	0.744
12.096	0.743
12.1327	0.736
12.1695	0.743
12.2063	0.735
12.243	0.736
12.2798	0.729
12.3165	0.724
12.3533	0.712
12.39	0.718
12.4268	0.71
12.4635	0.706
12.5003	0.698
12.5371	0.692
12.5738	0.676
12.6106	0.661
12.6473	0.635
12.6841	0.626
12.7208	0.589
12.7576	0.556
12.7943	0.54
12.8311	0.515
12.8679	0.492
12.9046	0.483
12.9414	0.478
12.9781	0.484
13.0149	0.489
13.0516	0.503
13.0884	0.526
13.1251	0.55
13.1619	0.572
13.1987	0.595
13.2354	0.616
13.2722	0.621
13.3089	0.623
13.3457	0.623
13.3824	0.615
13.4192	0.612
13.4559	0.613
13.4927	0.603
13.5295	0.6
13.5662	0.59
13.603	0.587
13.6397	0.573
13.6765	0.558
13.7132	0.547
13.75	0.533
13.7867	0.529
13.8235	0.512
13.8603	0.501
13.897	0.493
13.9338	0.481
13.9705	0.464
14.0073	0.46
14.044	0.456
14.0808	0.446
14.1175	0.44
14.1543	0.432
14.1911	0.42
14.2278	0.416
14.2646	0.412
14.3013	0.41
14.3381	0.404
14.3748	0.4
14.4116	0.4
14.4483	0.398
14.4851	0.396
14.5219	0.392
14.5586	0.392
14.5954	0.39
14.6321	0.387
14.6689	0.386
14.7056	0.389
14.7424	0.387
14.7791	0.383
14.8159	0.384
14.8527	0.383
14.8894	0.383
14.9262	0.376
14.9629	0.383
14.9997	0.393
15.0364	0.395
15.0732	0.383
15.1099	0.375
15.1467	0.378
15.1834	0.38
15.2202	0.38
15.257	0.38
15.2937	0.381
15.3305	0.383
15.3672	0.38
15.404	0.375
15.4407	0.378
15.4775	0.376
15.5142	0.37
