Infrared Spectrum: Beta-ETHOXYETHYL SEBACATE
Formula: C18 H24 O6
State: SOLUTION (10% CCl4 FOR 2.5-7.5, 10% CS2 FOR 7.5-16 MICRON)
Class: COBLENTZ
Instrument: Not specified, most likely a prism, grating, or hybrid spectrometer.
Sampling: TRANSMISSION
Path length: 0.01 CM, 0.01 CM
Resolution: 4
Origin: DOW CHEMICAL COMPANY
MICROMETERS	TRANSMITTANCE
2.032	0.911
2.07099	0.909
2.10997	0.905
2.14896	0.903
2.18794	0.901
2.22693	0.9
2.26592	0.879
2.3049	0.869
2.34389	0.872
2.38287	0.882
2.42186	0.882
2.46085	0.884
2.49983	0.887
2.53882	0.89
2.5778	0.898
2.61679	0.903
2.65577	0.913
2.69476	0.901
2.73375	0.901
2.77273	0.9
2.81172	0.9
2.8507	0.898
2.88969	0.879
2.92868	0.877
2.96766	0.893
3.00665	0.897
3.04563	0.9
3.08462	0.9
3.12361	0.898
3.16259	0.901
3.20158	0.9
3.24056	0.897
3.27955	0.879
3.31854	0.816
3.35752	0.659
3.39651	0.237
3.43549	0.123
3.47448	0.21
3.51347	0.202
3.55245	0.617
3.59144	0.712
3.63042	0.795
3.66941	0.818
3.70839	0.839
3.74738	0.871
3.78637	0.889
3.82535	0.889
3.86434	0.893
3.90332	0.906
3.94231	0.908
3.9813	0.909
4.02028	0.911
4.05927	0.913
4.09825	0.913
4.13724	0.911
4.17623	0.901
4.21521	0.893
4.2542	0.898
4.29318	0.9
4.33217	0.897
4.37116	0.89
4.41014	0.893
4.44913	0.9
4.48811	0.906
4.5271	0.909
4.56608	0.911
4.60507	0.911
4.64406	0.911
4.68304	0.911
4.72203	0.913
4.76101	0.913
4.8	0.903
4.83899	0.908
4.87797	0.901
4.91696	0.901
4.95594	0.9
4.99493	0.89
5.03392	0.887
5.0729	0.887
5.11189	0.887
5.15087	0.892
5.18986	0.897
5.22885	0.9
5.26783	0.901
5.30682	0.901
5.3458	0.901
5.38479	0.9
5.42378	0.893
5.46276	0.887
5.50175	0.869
5.54073	0.84
5.57972	0.818
5.6187	0.76
5.65769	0.663
5.69668	0.409
5.73566	0.168
5.77465	0.057
5.81363	0.17
5.85262	0.469
5.89161	0.663
5.93059	0.754
5.96958	0.815
6.00856	0.852
6.04755	0.861
6.08654	0.882
6.12552	0.884
6.16451	0.866
6.20349	0.818
6.24248	0.749
6.28147	0.684
6.32045	0.647
6.35944	0.62
6.39842	0.577
6.43741	0.53
6.4764	0.509
6.51538	0.57
6.55437	0.615
6.59335	0.667
6.63234	0.705
6.67132	0.749
6.71031	0.705
6.7493	0.676
6.78828	0.61
6.82727	0.454
6.86625	0.432
6.90524	0.438
6.94423	0.482
6.98321	0.586
7.0222	0.577
7.06118	0.607
7.10017	0.66
7.13916	0.601
7.17814	0.464
7.21713	0.313
7.25611	0.371
7.2951	0.471
7.33409	0.496
7.37307	0.448
7.41206	0.424
7.45104	0.49
7.49003	0.565
7.52902	0.549
7.568	0.506
7.60699	0.477
7.64597	0.445
7.68496	0.403
7.72394	0.39
7.76293	0.374
7.80192	0.353
7.8409	0.329
7.87989	0.315
7.91887	0.299
7.95786	0.257
7.99685	0.213
8.03583	0.2
8.07482	0.2
8.1138	0.241
8.15279	0.268
8.19178	0.274
8.23076	0.276
8.26975	0.258
8.30873	0.229
8.34772	0.196
8.38671	0.168
8.42569	0.115
8.46468	0.081
8.50366	0.065
8.54265	0.064
8.58163	0.075
8.62062	0.099
8.65961	0.13
8.69859	0.139
8.73758	0.112
8.77656	0.08
8.81555	0.048
8.85454	0.036
8.89352	0.025
8.93251	0.024
8.97149	0.048
9.01048	0.125
9.04947	0.151
9.08845	0.16
9.12744	0.18
9.16642	0.218
9.20541	0.29
9.2444	0.369
9.28338	0.443
9.32237	0.472
9.36135	0.479
9.40034	0.463
9.43933	0.405
9.47831	0.339
9.5173	0.29
9.55628	0.297
9.59527	0.344
9.63425	0.4
9.67324	0.454
9.71223	0.496
9.75121	0.535
9.7902	0.586
9.82918	0.618
9.86817	0.659
9.90716	0.686
9.94614	0.705
9.98513	0.72
10.0241	0.729
10.0631	0.737
10.1021	0.745
10.1411	0.752
10.1801	0.757
10.219	0.76
10.258	0.757
10.297	0.737
10.336	0.71
10.375	0.686
10.414	0.662
10.453	0.647
10.4919	0.643
10.5309	0.649
10.5699	0.663
10.6089	0.684
10.6479	0.699
10.6869	0.71
10.7259	0.725
10.7648	0.739
10.8038	0.744
10.8428	0.747
10.8818	0.75
10.9208	0.758
10.9598	0.77
10.9988	0.781
11.0377	0.797
11.0767	0.8
11.1157	0.799
11.1547	0.797
11.1937	0.789
11.2327	0.776
11.2717	0.757
11.3106	0.737
11.3496	0.709
11.3886	0.678
11.4276	0.647
11.4666	0.61
11.5056	0.577
11.5446	0.549
11.5836	0.535
11.6225	0.53
11.6615	0.535
11.7005	0.556
11.7395	0.586
11.7785	0.612
11.8175	0.663
11.8565	0.692
11.8954	0.71
11.9344	0.718
11.9734	0.729
12.0124	0.745
12.0514	0.757
12.0904	0.762
12.1294	0.768
12.1683	0.766
12.2073	0.768
12.2463	0.77
12.2853	0.771
12.3243	0.781
12.3633	0.792
12.4023	0.797
12.4412	0.8
12.4802	0.799
12.5192	0.794
12.5582	0.787
12.5972	0.789
12.6362	0.792
12.6752	0.799
12.7141	0.805
12.7531	0.808
12.7921	0.81
12.8311	0.815
12.8701	0.816
12.9091	0.815
12.9481	0.815
12.987	0.816
13.026	0.813
13.065	0.811
13.104	0.811
13.143	0.811
13.182	0.811
13.221	0.807
13.2599	0.805
13.2989	0.805
13.3379	0.8
13.3769	0.797
13.4159	0.794
13.4549	0.79
13.4939	0.786
13.5328	0.779
13.5718	0.768
13.6108	0.755
13.6498	0.749
13.6888	0.731
13.7278	0.717
13.7668	0.702
13.8057	0.697
13.8447	0.697
13.8837	0.702
13.9227	0.713
13.9617	0.721
14.0007	0.726
14.0397	0.726
14.0786	0.726
14.1176	0.728
14.1566	0.726
14.1956	0.725
14.2346	0.723
14.2736	0.718
14.3126	0.717
14.3516	0.71
14.3905	0.707
14.4295	0.699
14.4685	0.697
14.5075	0.692
14.5465	0.686
14.5855	0.68
14.6245	0.675
14.6634	0.667
14.7024	0.659
14.7414	0.651
14.7804	0.643
14.8194	0.639
14.8584	0.63
14.8974	0.622
14.9363	0.612
14.9753	0.612
15.0143	0.598
15.0533	0.588
15.0923	0.577
15.1313	0.567
15.1703	0.553
15.2092	0.548
15.2482	0.533
15.2872	0.525
15.3262	0.52
15.3652	0.512
15.4042	0.506
15.4432	0.501
15.4821	0.496
15.5211	0.487
15.5601	0.482
15.5991	0.477
15.6381	0.477
15.6771	0.474
15.7161	0.469
15.755	0.469
15.794	0.464
15.833	0.459
15.872	0.454
