Infrared Spectrum: Pentachlorophenol sodium salt, hydrate
Formula: C6 Cl5 O Na  * H2 O
State: SOLID (SPLIT MULL), FLUOROLUBE FOR 3800-1330 CM^-^1, NUJOL FOR 1330-400 CM^-^1
Class: COBLENTZ II
Instrument: DOW KBr FOREPRISM-GRATING
Instrument parameters: BLAZED AT 3.5, 12.0, 20.0 MICRON AND CHANGED AT 5.0, 7.5, 14.9 MICRON
Sampling: TRANSMISSION
Resolution: 2
Origin: DOW CHEMICAL COMPANY
1/CM	TRANSMITTANCE
3800	0.5869
3791	0.5862
3782	0.5877
3773	0.5891
3764	0.5916
3755	0.5959
3746	0.6017
3737	0.6052
3728	0.6059
3719	0.6055
3710	0.6104
3701	0.6186
3692	0.6262
3683	0.6335
3674	0.6374
3665	0.6137
3656	0.2994
3647	0.3956
3638	0.4874
3629	0.5172
3620	0.5354
3611	0.5507
3602	0.563
3593	0.567
3584	0.5636
3575	0.4812
3566	0.4712
3557	0.5462
3548	0.5594
3539	0.565
3530	0.5697
3521	0.573
3512	0.5747
3503	0.575
3494	0.5754
3485	0.576
3476	0.5773
3467	0.5785
3458	0.5796
3449	0.5807
3440	0.5817
3431	0.5828
3422	0.5838
3413	0.585
3404	0.5866
3395	0.5881
3386	0.5898
3377	0.5912
3368	0.593
3359	0.5945
3350	0.596
3341	0.5976
3332	0.5991
3323	0.6006
3314	0.6022
3305	0.6036
3296	0.6053
3287	0.607
3278	0.6087
3269	0.6104
3260	0.6121
3251	0.6138
3242	0.6155
3233	0.6173
3224	0.6191
3215	0.6209
3206	0.6227
3197	0.6245
3188	0.6262
3179	0.6275
3170	0.6289
3161	0.6301
3152	0.6314
3143	0.6326
3134	0.634
3125	0.6353
3116	0.6367
3107	0.638
3098	0.6395
3089	0.6411
3080	0.6428
3071	0.6455
3062	0.6495
3053	0.6511
3044	0.6526
3035	0.6535
3026	0.6543
3017	0.655
3008	0.6557
2999	0.6562
2990	0.6572
2981	0.6584
2972	0.6594
2963	0.66
2954	0.6606
2945	0.6618
2936	0.6632
2927	0.6657
2918	0.6688
2909	0.6711
2900	0.6725
2891	0.674
2882	0.6755
2873	0.6765
2864	0.6782
2855	0.6803
2846	0.6824
2837	0.6845
2828	0.6867
2819	0.6888
2810	0.6908
2801	0.693
2792	0.6951
2783	0.6964
2774	0.6978
2765	0.6992
2756	0.7006
2747	0.7019
2738	0.7033
2729	0.7046
2720	0.706
2711	0.7072
2702	0.7084
2693	0.7094
2684	0.7105
2675	0.7115
2666	0.7126
2657	0.7144
2648	0.7161
2639	0.718
2630	0.7197
2621	0.7211
2612	0.7225
2603	0.7237
2594	0.7251
2585	0.7265
2576	0.7284
2567	0.7303
2558	0.7318
2549	0.733
2540	0.7341
2531	0.7351
2522	0.7361
2513	0.7367
2504	0.7371
2495	0.7375
2486	0.738
2477	0.7382
2468	0.7384
2459	0.7386
2450	0.7382
2441	0.7344
2432	0.7303
2423	0.728
2414	0.7289
2405	0.7319
2396	0.7331
2387	0.7341
2378	0.7345
2369	0.7348
2360	0.7353
2351	0.7353
2342	0.7351
2333	0.7354
2324	0.7368
2315	0.7382
2306	0.7401
2297	0.7422
2288	0.7446
2279	0.7474
2270	0.7506
2261	0.754
2252	0.7578
2243	0.763
2234	0.7692
2225	0.7753
2216	0.7806
2207	0.7836
2198	0.7842
2189	0.7851
2180	0.7865
2171	0.7883
2162	0.7907
2153	0.7928
2144	0.7951
2135	0.7971
2126	0.799
2117	0.8007
2108	0.8024
2099	0.8041
2090	0.8061
2081	0.8082
2072	0.8101
2063	0.8124
2054	0.8148
2045	0.8168
2036	0.8185
2027	0.8213
2018	0.8257
2009	0.8271
2000	0.8289
1991	0.8313
1982	0.8337
1973	0.8353
1964	0.8368
1955	0.8382
1946	0.8395
1937	0.8409
1928	0.842
1919	0.8408
1910	0.8402
1901	0.8398
1892	0.8412
1883	0.8434
1874	0.8448
1865	0.8463
1856	0.8481
1847	0.8499
1838	0.8513
1829	0.8525
1820	0.8531
1811	0.8533
1802	0.8535
1793	0.8542
1784	0.8547
1775	0.8551
1766	0.857
1757	0.8593
1748	0.861
1739	0.862
1730	0.8618
1721	0.8655
1712	0.8665
1703	0.8656
1694	0.8659
1685	0.8662
1676	0.8665
1667	0.867
1658	0.8658
1649	0.8625
1640	0.8607
1631	0.861
1622	0.853
1613	0.8034
1604	0.4098
1595	0.7534
1586	0.8081
1577	0.8402
1568	0.8614
1559	0.8708
1550	0.8649
1541	0.6461
1532	0.5576
1523	0.7772
1514	0.8108
1505	0.8342
1496	0.8156
1487	0.7835
1478	0.8221
1469	0.8105
1460	0.7734
1451	0.6747
1442	0.2896
1433	0.1527
1424	0.3655
1415	0.5859
1406	0.645
1397	0.6661
1388	0.6885
1379	0.6976
1370	0.6988
1361	0.5898
1352	0.6273
1343	0.6107
1334	0.6293
1325	0.6418
1316	0.6515
1307	0.6438
1298	0.6487
1289	0.6053
1280	0.6718
1271	0.6778
1262	0.6482
1253	0.6901
1244	0.6883
1235	0.6832
1226	0.6355
1217	0.3645
1208	0.3834
1199	0.6193
1190	0.6734
1181	0.6918
1172	0.6917
1163	0.6936
1154	0.6985
1145	0.7071
1136	0.7078
1127	0.6956
1118	0.7046
1109	0.7115
1100	0.7062
1091	0.7057
1082	0.7087
1073	0.7133
1064	0.7161
1055	0.7174
1046	0.7169
1037	0.7171
1028	0.7178
1019	0.7165
1010	0.7128
1001	0.6943
992	0.4712
983	0.6924
974	0.7008
965	0.7091
956	0.7134
947	0.7038
938	0.7165
929	0.7189
920	0.7258
911	0.7278
902	0.7286
893	0.7283
884	0.7268
875	0.7201
866	0.7038
857	0.7075
848	0.7258
839	0.7312
830	0.7328
821	0.7298
812	0.704
803	0.7103
794	0.7149
785	0.6896
776	0.6403
767	0.2913
758	0.6319
749	0.6839
740	0.6604
731	0.3982
722	0.4545
713	0.6608
704	0.7195
695	0.7333
686	0.7393
677	0.7364
668	0.7155
659	0.6856
650	0.5854
641	0.7151
632	0.7065
623	0.7208
614	0.7244
605	0.7274
596	0.7318
587	0.7365
578	0.7382
569	0.7345
560	0.7315
551	0.7311
542	0.7293
533	0.7258
524	0.7217
515	0.7157
506	0.7046
497	0.6795
488	0.5758
479	0.6148
470	0.6485
461	0.6352
452	0.6126
443	0.5754
434	0.5402
425	0.5219
416	0.5235
407	0.5498
