Infrared Spectrum: ACETIC ACID, COBALTOUS SALT, TETRAHYDRATE
Formula: C4 H6 O4 Co  * 4 H2 O
State: SOLID (MINERAL OIL MULL)
Class: COBLENTZ
Instrument: Not specified, most likely a prism, grating, or hybrid spectrometer.
Sampling: TRANSMISSION
Resolution: 4
Origin: BELL TELEPHONE LABORATORIES- F. VRATNY
MICROMETERS	TRANSMITTANCE
2.04	0.675
2.07328	0.686
2.10657	0.69
2.13985	0.691
2.17313	0.694
2.20641	0.698
2.2397	0.699
2.27298	0.689
2.30626	0.678
2.33955	0.678
2.37283	0.679
2.40611	0.689
2.4394	0.69
2.47268	0.691
2.50596	0.694
2.53924	0.698
2.57253	0.705
2.60581	0.706
2.63909	0.709
2.67238	0.709
2.70566	0.705
2.73894	0.694
2.77223	0.663
2.80551	0.563
2.83879	0.419
2.87207	0.285
2.90536	0.249
2.93864	0.215
2.97192	0.14
3.00521	0.075
3.03849	0.063
3.07177	0.089
3.10506	0.123
3.13834	0.135
3.17162	0.14
3.2049	0.142
3.23819	0.142
3.27147	0.14
3.30475	0.134
3.33804	0.127
3.37132	0.111
3.4046	0.069
3.43789	0.064
3.47117	0.052
3.50445	0.03
3.53773	0.024
3.57102	0.119
3.6043	0.142
3.63758	0.163
3.67087	0.191
3.70415	0.214
3.73743	0.235
3.77072	0.261
3.804	0.292
3.83728	0.312
3.87056	0.348
3.90385	0.361
3.93713	0.382
3.97041	0.396
4.0037	0.407
4.03698	0.418
4.07026	0.419
4.10354	0.419
4.13683	0.424
4.17011	0.412
4.20339	0.407
4.23668	0.407
4.26996	0.403
4.30324	0.4
4.33653	0.391
4.36981	0.384
4.40309	0.388
4.43637	0.407
4.46966	0.428
4.50294	0.445
4.53622	0.469
4.56951	0.479
4.60279	0.49
4.63607	0.502
4.66936	0.517
4.70264	0.526
4.73592	0.53
4.7692	0.544
4.80249	0.541
4.83577	0.541
4.86905	0.541
4.90234	0.545
4.93562	0.548
4.9689	0.55
5.00219	0.552
5.03547	0.553
5.06875	0.554
5.10203	0.558
5.13532	0.563
5.1686	0.567
5.20188	0.572
5.23517	0.576
5.26845	0.579
5.30173	0.588
5.33502	0.593
5.3683	0.607
5.40158	0.608
5.43486	0.608
5.46815	0.615
5.50143	0.621
5.53471	0.62
5.568	0.613
5.60128	0.604
5.63456	0.593
5.66784	0.583
5.70113	0.569
5.73441	0.553
5.76769	0.501
5.80098	0.41
5.83426	0.386
5.86754	0.388
5.90083	0.391
5.93411	0.388
5.96739	0.367
6.00067	0.34
6.03396	0.301
6.06724	0.238
6.10052	0.179
6.13381	0.126
6.16709	0.079
6.20037	0.042
6.23366	0.012
6.26694	0.014
6.30022	0.014
6.3335	0.012
6.36679	0.012
6.40007	0.012
6.43335	0.012
6.46664	0.012
6.49992	0.018
6.5332	0.021
6.56649	0.03
6.59977	0.04
6.63305	0.05
6.66633	0.079
6.69962	0.083
6.7329	0.087
6.76618	0.068
6.79947	0.04
6.83275	0.034
6.86603	0.02
6.89932	0.017
6.9326	0.02
6.96588	0.02
6.99916	0.022
7.03245	0.021
7.06573	0.029
7.09901	0.03
7.1323	0.029
7.16558	0.026
7.19886	0.03
7.23215	0.045
7.26543	0.117
7.29871	0.139
7.33199	0.166
7.36528	0.179
7.39856	0.183
7.43184	0.16
7.46513	0.077
7.49841	0.063
7.53169	0.116
7.56497	0.183
7.59826	0.231
7.63154	0.254
7.66482	0.296
7.69811	0.315
7.73139	0.344
7.76467	0.355
7.79796	0.376
7.83124	0.39
7.86452	0.402
7.8978	0.42
7.93109	0.423
7.96437	0.428
7.99765	0.432
8.03094	0.45
8.06422	0.453
8.0975	0.455
8.13079	0.459
8.16407	0.462
8.19735	0.467
8.23063	0.469
8.26392	0.473
8.2972	0.49
8.33048	0.497
8.36377	0.497
8.39705	0.498
8.43033	0.5
8.46362	0.5
8.4969	0.494
8.53018	0.491
8.56346	0.493
8.59675	0.495
8.63003	0.49
8.66331	0.49
8.6966	0.489
8.72988	0.49
8.76316	0.494
8.79645	0.493
8.82973	0.495
8.86301	0.483
8.89629	0.486
8.92958	0.478
8.96286	0.487
8.99614	0.491
9.02943	0.482
9.06271	0.482
9.09599	0.479
9.12927	0.477
9.16256	0.466
9.19584	0.454
9.22912	0.445
9.26241	0.423
9.29569	0.416
9.32897	0.4
9.36226	0.382
9.39554	0.336
9.42882	0.31
9.4621	0.28
9.49539	0.274
9.52867	0.272
9.56195	0.252
9.59524	0.233
9.62852	0.222
9.6618	0.203
9.69509	0.179
9.72837	0.178
9.76165	0.182
9.79493	0.211
9.82822	0.252
9.8615	0.269
9.89478	0.29
9.92807	0.317
9.96135	0.344
9.99463	0.371
10.0279	0.383
10.0612	0.396
10.0945	0.402
10.1278	0.41
10.161	0.412
10.1943	0.418
10.2276	0.419
10.2609	0.424
10.2942	0.427
10.3275	0.428
10.3607	0.431
10.394	0.446
10.4273	0.451
10.4606	0.455
10.4939	0.461
10.5272	0.466
10.5604	0.47
10.5937	0.479
10.627	0.489
10.6603	0.495
10.6936	0.495
10.7269	0.495
10.7601	0.481
10.7934	0.465
10.8267	0.453
10.86	0.438
10.8933	0.41
10.9266	0.396
10.9598	0.375
10.9931	0.341
11.0264	0.319
11.0597	0.289
11.093	0.273
11.1263	0.252
11.1595	0.23
11.1928	0.226
11.2261	0.221
11.2594	0.217
11.2927	0.215
11.326	0.215
11.3592	0.218
11.3925	0.222
11.4258	0.229
11.4591	0.233
11.4924	0.252
11.5256	0.26
11.5589	0.266
11.5922	0.28
11.6255	0.285
11.6588	0.298
11.6921	0.305
11.7253	0.32
11.7586	0.328
11.7919	0.332
11.8252	0.333
11.8585	0.345
11.8918	0.347
11.925	0.348
11.9583	0.351
11.9916	0.352
12.0249	0.353
12.0582	0.353
12.0915	0.353
12.1247	0.349
12.158	0.347
12.1913	0.341
12.2246	0.336
12.2579	0.327
12.2912	0.319
12.3244	0.319
12.3577	0.319
12.391	0.316
12.4243	0.319
12.4576	0.328
12.4909	0.343
12.5241	0.344
12.5574	0.344
12.5907	0.349
12.624	0.361
12.6573	0.371
12.6906	0.372
12.7238	0.379
12.7571	0.386
12.7904	0.388
12.8237	0.388
12.857	0.39
12.8903	0.395
12.9235	0.399
12.9568	0.403
12.9901	0.412
13.0234	0.414
13.0567	0.41
13.0899	0.41
13.1232	0.41
13.1565	0.411
13.1898	0.411
13.2231	0.41
13.2564	0.41
13.2896	0.408
13.3229	0.407
13.3562	0.407
13.3895	0.402
13.4228	0.399
13.4561	0.398
13.4893	0.392
13.5226	0.39
13.5559	0.39
13.5892	0.388
13.6225	0.388
13.6558	0.388
13.689	0.388
13.7223	0.391
13.7556	0.392
13.7889	0.392
13.8222	0.392
13.8555	0.403
13.8887	0.4
13.922	0.41
13.9553	0.415
13.9886	0.418
14.0219	0.424
14.0552	0.424
14.0884	0.424
14.1217	0.424
14.155	0.423
14.1883	0.418
14.2216	0.411
14.2549	0.399
14.2881	0.376
14.3214	0.344
14.3547	0.323
14.388	0.276
14.4213	0.254
14.4546	0.217
14.4878	0.171
14.5211	0.14
14.5544	0.124
14.5877	0.117
14.621	0.112
14.6542	0.109
14.6875	0.101
14.7208	0.097
14.7541	0.101
14.7874	0.105
14.8207	0.115
14.8539	0.134
14.8872	0.15
14.9205	0.168
14.9538	0.201
14.9871	0.219
15.0204	0.241
15.0536	0.261
15.0869	0.266
15.1202	0.284
15.1535	0.292
15.1868	0.292
15.2201	0.293
15.2533	0.309
