Infrared Spectrum: 1-Piperidinepropionic acid, hydrochloride
Formula: C8 H16 Cl N O2
State: SOLID (SPLIT MULL), FLUOROLUBE FOR 3800-1330 CM^-^1, NUJOL FOR 1330-460 CM^-^1
Melting point: 212 C
Class: COBLENTZ III
Instrument: DOW KBr FOREPRISM-GRATING
Instrument parameters: BLAZED AT 3.5, 12.0, 20.0 MICRON AND CHANGED AT 5.0, 7.5, 14.9 MICRON
Sampling: TRANSMISSION
Resolution: 2
Origin: DOW CHEMICAL COMPANY
1/CM	TRANSMITTANCE
459	0.7359
468	0.7509
477	0.7615
486	0.7725
495	0.7759
504	0.7555
513	0.7675
522	0.7982
531	0.8059
540	0.8137
549	0.8196
558	0.8216
567	0.741
576	0.8117
585	0.7812
594	0.8379
603	0.8442
612	0.8471
621	0.8511
630	0.8559
639	0.8595
648	0.851
657	0.8012
666	0.738
675	0.8405
684	0.8616
693	0.8367
702	0.7911
711	0.8008
720	0.7808
729	0.8235
738	0.8482
747	0.8616
756	0.8571
765	0.8554
774	0.8151
783	0.8693
792	0.8785
801	0.8421
810	0.5404
819	0.8676
828	0.858
837	0.8352
846	0.809
855	0.6408
864	0.5585
873	0.4309
882	0.7437
891	0.8161
900	0.6919
909	0.8244
918	0.8481
927	0.8615
936	0.8597
945	0.8114
954	0.78
963	0.5752
972	0.8101
981	0.8629
990	0.8638
999	0.8564
1008	0.8276
1017	0.8201
1026	0.825
1035	0.8025
1044	0.7827
1053	0.8031
1062	0.8023
1071	0.7746
1080	0.5787
1089	0.6138
1098	0.8033
1107	0.811
1116	0.8117
1125	0.813
1134	0.7673
1143	0.785
1152	0.6493
1161	0.7788
1170	0.7643
1179	0.7124
1188	0.3629
1197	0.1455
1206	0.7058
1215	0.75
1224	0.2081
1233	0.4097
1242	0.7274
1251	0.7964
1260	0.7991
1269	0.7737
1278	0.7835
1287	0.7411
1296	0.4849
1305	0.7599
1314	0.7766
1323	0.7562
1332	0.6793
1341	0.6738
1350	0.6402
1359	0.6995
1368	0.6632
1377	0.6303
1386	0.517
1395	0.4269
1404	0.4685
1413	0.426
1422	0.4016
1431	0.4928
1440	0.6817
1449	0.6687
1458	0.6942
1467	0.4714
1476	0.8353
1485	0.8851
1494	0.8813
1503	0.876
1512	0.8722
1521	0.872
1530	0.8708
1539	0.8675
1548	0.8648
1557	0.8625
1566	0.8598
1575	0.8563
1584	0.8518
1593	0.8448
1602	0.8377
1611	0.831
1620	0.8252
1629	0.8195
1638	0.8136
1647	0.8058
1656	0.7922
1665	0.7703
1674	0.7383
1683	0.7202
1692	0.6806
1701	0.5717
1710	0.343
1719	0.1522
1728	0.2568
1737	0.7526
1746	0.8304
1755	0.8517
1764	0.8578
1773	0.8619
1782	0.8626
1791	0.8599
1800	0.8641
1809	0.8602
1818	0.869
1827	0.8715
1836	0.8722
1845	0.8759
1854	0.8766
1863	0.8765
1872	0.8753
1881	0.8742
1890	0.8739
1899	0.8722
1908	0.8721
1917	0.8714
1926	0.8701
1935	0.8678
1944	0.8648
1953	0.8618
1962	0.8602
1971	0.8606
1980	0.8605
1989	0.8623
1998	0.8663
2007	0.8667
2016	0.8659
2025	0.8644
2034	0.863
2043	0.8615
2052	0.8598
2061	0.8582
2070	0.8565
2079	0.8549
2088	0.8533
2097	0.8516
2106	0.8498
2115	0.8481
2124	0.8462
2133	0.8438
2142	0.8407
2151	0.8374
2160	0.8315
2169	0.8262
2178	0.8215
2187	0.8185
2196	0.8151
2205	0.8123
2214	0.8096
2223	0.8054
2232	0.8001
2241	0.7948
2250	0.79
2259	0.7855
2268	0.7814
2277	0.7794
2286	0.7805
2295	0.7755
2304	0.7695
2313	0.764
2322	0.7584
2331	0.7522
2340	0.7456
2349	0.7378
2358	0.7321
2367	0.7308
2376	0.7331
2385	0.734
2394	0.7276
2403	0.7238
2412	0.7236
2421	0.7221
2430	0.7123
2439	0.6999
2448	0.6875
2457	0.6649
2466	0.6478
2475	0.6365
2484	0.6349
2493	0.6366
2502	0.6199
2511	0.6142
2520	0.617
2529	0.5975
2538	0.5697
2547	0.5408
2556	0.467
2565	0.5214
2574	0.5257
2583	0.5222
2592	0.5938
2601	0.5976
2610	0.5681
2619	0.5462
2628	0.5306
2637	0.487
2646	0.4309
2655	0.3862
2664	0.3968
2673	0.3571
2682	0.3783
2691	0.3588
2700	0.3327
2709	0.3999
2718	0.4637
2727	0.4995
2736	0.5413
2745	0.5697
2754	0.5902
2763	0.6042
2772	0.6064
2781	0.5978
2790	0.5853
2799	0.5735
2808	0.5617
2817	0.5504
2826	0.5391
2835	0.5251
2844	0.4789
2853	0.4621
2862	0.4514
2871	0.4405
2880	0.4234
2889	0.4001
2898	0.3697
2907	0.3416
2916	0.3164
2925	0.2879
2934	0.2417
2943	0.2322
2952	0.2668
2961	0.3352
2970	0.3867
2979	0.4202
2988	0.4486
2997	0.4588
3006	0.4644
3015	0.4892
3024	0.4912
3033	0.4897
3042	0.4872
3051	0.5008
3060	0.5554
3069	0.5809
3078	0.5853
3087	0.5828
3096	0.575
3105	0.5568
3114	0.5351
3123	0.5203
3132	0.5161
3141	0.518
3150	0.5246
3159	0.5435
3168	0.5752
3177	0.6071
3186	0.6457
3195	0.6853
3204	0.71
3213	0.7318
3222	0.7541
3231	0.7745
3240	0.7923
3249	0.8071
3258	0.8198
3267	0.8295
3276	0.8389
3285	0.8474
3294	0.8531
3303	0.8561
3312	0.8587
3321	0.8593
3330	0.8593
3339	0.8584
3348	0.8559
3357	0.8535
3366	0.8515
3375	0.8494
3384	0.8469
3393	0.8437
3402	0.8405
3411	0.8371
3420	0.836
3429	0.8369
3438	0.8382
3447	0.8362
3456	0.8339
3465	0.8318
3474	0.8307
3483	0.8295
3492	0.8283
3501	0.827
3510	0.8258
3519	0.8246
3528	0.8233
3537	0.822
3546	0.8205
3555	0.819
3564	0.8172
3573	0.8155
3582	0.8177
3591	0.8167
3600	0.8148
3609	0.8134
3618	0.8122
3627	0.8109
3636	0.8096
3645	0.8081
3654	0.8068
3663	0.8053
3672	0.804
3681	0.8026
3690	0.8015
3699	0.8003
3708	0.7991
3717	0.7979
3726	0.7965
3735	0.7949
3744	0.7935
3753	0.7917
3762	0.7898
3771	0.7866
3780	0.7836
