Infrared Spectrum: Choline Iodide, O-(o-Nitrocinnamoyl)
Formula: C14 H19 I N2 O4
State: SOLID (NUJOL MULL)
Class: COBLENTZ III
Instrument: PERKIN-ELMER 221 (GRATING)
Instrument parameters: FILTER AT 2490, 980 CM^-^1. GRATING 4000-1428 CM^-^1, NaCl PRISM 1428-650 CM^-^1
Sampling: TRANSMISSION
Resolution: 2
Origin: SOUTHERN RESEARCH INSTITUTE
1/CM	TRANSMITTANCE
634.775	0.7617
643.818	0.764
652.862	0.7252
661.905	0.7894
670.949	0.7833
679.992	0.8047
689.035	0.8522
698.079	0.8439
707.122	0.7806
716.166	0.7107
725.209	0.801
734.252	0.7697
743.296	0.6927
752.339	0.415
761.383	0.7246
770.426	0.8507
779.469	0.6478
788.513	0.7156
797.556	0.899
806.6	0.8953
815.643	0.8783
824.686	0.8672
833.73	0.8486
842.773	0.7811
851.816	0.506
860.86	0.7894
869.903	0.648
878.947	0.6907
887.99	0.7684
897.033	0.859
906.077	0.8431
915.12	0.8171
924.164	0.7875
933.207	0.5775
942.25	0.6102
951.294	0.5519
960.337	0.6979
969.381	0.4758
978.424	0.6176
987.467	0.7784
996.511	0.829
1005.55	0.8073
1014.6	0.7552
1023.64	0.8051
1032.68	0.7686
1041.73	0.685
1050.77	0.7859
1059.81	0.7918
1068.86	0.7755
1077.9	0.7298
1086.94	0.6984
1095.99	0.7673
1105.03	0.7373
1114.07	0.7056
1123.12	0.6566
1132.16	0.6013
1141.21	0.5055
1150.25	0.3547
1159.29	0.1872
1168.34	0.1126
1177.38	0.2423
1186.42	0.5242
1195.47	0.6575
1204.51	0.7048
1213.55	0.8048
1222.6	0.7996
1231.64	0.759
1240.68	0.7231
1249.73	0.6889
1258.77	0.5576
1267.81	0.44
1276.86	0.3789
1285.9	0.4528
1294.94	0.415
1303.99	0.5241
1313.03	0.4143
1322.07	0.4794
1331.12	0.3544
1340.16	0.2635
1349.2	0.3694
1358.25	0.5142
1367.29	0.4542
1376.33	0.4905
1385.38	0.7269
1394.42	0.7483
1403.46	0.7044
1412.51	0.7525
1421.55	0.6969
1430.59	0.4879
1439.64	0.3054
1448.68	0.2165
1457.72	0.1811
1466.77	0.3163
1475.81	0.5085
1484.85	0.5505
1493.9	0.6518
1502.94	0.4916
1511.98	0.2895
1521.03	0.1389
1530.07	0.7058
1539.11	0.8253
1548.16	0.8243
1557.2	0.7698
1566.24	0.5096
1575.29	0.8502
1584.33	0.8215
1593.37	0.7474
1602.42	0.76
1611.46	0.7895
1620.51	0.6806
1629.55	0.3944
1638.59	0.5854
1647.64	0.8062
1656.68	0.8251
1665.72	0.8063
1674.77	0.7746
1683.81	0.7463
1692.85	0.7018
1701.9	0.5242
1710.94	0.2008
1719.98	0.289
1729.03	0.6133
1738.07	0.7803
1747.11	0.8837
1756.16	0.8883
1765.2	0.8859
1774.24	0.8952
1783.29	0.8899
1792.33	0.8837
1801.37	0.8795
1810.42	0.8771
1819.46	0.8758
1828.5	0.8736
1837.55	0.8687
1846.59	0.8654
1855.63	0.8688
1864.68	0.8726
1873.72	0.8766
1882.76	0.8735
1891.81	0.8686
1900.85	0.864
1909.89	0.8595
1918.94	0.8549
1927.98	0.8502
1937.02	0.8455
1946.07	0.8415
1955.11	0.8385
1964.15	0.8357
1973.2	0.8368
1982.24	0.836
1991.28	0.7946
2000.33	0.8231
2009.37	0.8269
2018.41	0.8276
2027.46	0.8267
2036.5	0.8246
2045.54	0.8219
2054.59	0.8197
2063.63	0.817
2072.67	0.8139
2081.72	0.8109
2090.76	0.8078
2099.81	0.8038
2108.85	0.7999
2117.89	0.7964
2126.94	0.7933
2135.98	0.791
2145.02	0.7887
2154.07	0.7867
2163.11	0.785
2172.15	0.7844
2181.2	0.7833
2190.24	0.7811
2199.28	0.7783
2208.33	0.7753
2217.37	0.7727
2226.41	0.7701
2235.46	0.7674
2244.5	0.7646
2253.54	0.7618
2262.59	0.7583
2271.63	0.7546
2280.67	0.7512
2289.72	0.7486
2298.76	0.7459
2307.8	0.7428
2316.85	0.7394
2325.89	0.7359
2334.93	0.7316
2343.98	0.7316
2353.02	0.7325
2362.06	0.7306
2371.11	0.7291
2380.15	0.7291
2389.19	0.7298
2398.24	0.7297
2407.28	0.7277
2416.32	0.7239
2425.37	0.7196
2434.41	0.7165
2443.45	0.7131
2452.5	0.7091
2461.54	0.7043
2470.58	0.7021
2479.63	0.6611
2488.67	0.7018
2497.71	0.7
2506.76	0.6967
2515.8	0.6938
2524.84	0.6898
2533.89	0.686
2542.93	0.6833
2551.97	0.681
2561.02	0.6766
2570.06	0.6704
2579.1	0.6665
2588.15	0.665
2597.19	0.6634
2606.24	0.6612
2615.28	0.6588
2624.32	0.6558
2633.37	0.6524
2642.41	0.649
2651.45	0.645
2660.5	0.6417
2669.54	0.6389
2678.58	0.6381
2687.63	0.6375
2696.67	0.6388
2705.71	0.6377
2714.76	0.6308
2723.8	0.6313
2732.84	0.6331
2741.89	0.6416
2750.93	0.6424
2759.97	0.6419
2769.02	0.6401
2778.06	0.6328
2787.1	0.6208
2796.15	0.6077
2805.19	0.5843
2814.23	0.5387
2823.28	0.4659
2832.32	0.3188
2841.36	0.0828
2850.41	0.0311
2859.45	0.0366
2868.49	0.0442
2877.54	0.0623
2886.58	0.0417
2895.62	0.0231
2904.67	0.0125
2913.71	0.0066
2922.75	0.0049
2931.8	0.0056
2940.84	0.0079
2949.88	0.0123
2958.93	0.019
2967.97	0.0563
2977.01	0.1329
2986.06	0.2101
2995.1	0.2127
3004.14	0.268
3013.19	0.3431
3022.23	0.3541
3031.27	0.3895
3040.32	0.4076
3049.36	0.418
3058.4	0.4202
3067.45	0.4447
3076.49	0.4554
3085.54	0.4565
3094.58	0.4647
3103.62	0.4752
3112.67	0.4878
3121.71	0.4991
3130.75	0.5001
3139.8	0.4998
3148.84	0.4994
3157.88	0.4992
3166.93	0.5
3175.97	0.5008
3185.01	0.5015
3194.06	0.5022
3203.1	0.5014
3212.14	0.5004
3221.19	0.5005
3230.23	0.5002
3239.27	0.4989
3248.32	0.4978
3257.36	0.4969
3266.4	0.4962
3275.45	0.4958
3284.49	0.495
3293.53	0.4939
3302.58	0.4914
3311.62	0.4885
3320.66	0.4854
3329.71	0.4824
3338.75	0.48
3347.79	0.4777
3356.84	0.476
3365.88	0.4749
3374.92	0.4737
3383.97	0.4737
3393.01	0.4737
3402.05	0.4735
3411.1	0.4718
3420.14	0.4697
3429.18	0.4695
3438.23	0.4693
3447.27	0.4698
3456.31	0.4706
3465.36	0.4717
3474.4	0.4729
3483.44	0.475
3492.49	0.477
3501.53	0.4791
3510.57	0.48
3519.62	0.4802
3528.66	0.4803
3537.7	0.4804
3546.75	0.4805
3555.79	0.4805
3564.84	0.4793
3573.88	0.4781
3582.92	0.4769
3591.97	0.4757
3601.01	0.4745
3610.05	0.4731
3619.1	0.4709
3628.14	0.4688
3637.18	0.4667
3646.23	0.4652
3655.27	0.4637
3664.31	0.4623
3673.36	0.4607
3682.4	0.4592
3691.44	0.4577
3700.49	0.4562
3709.53	0.4547
3718.57	0.4533
3727.62	0.452
3736.66	0.4513
3745.7	0.4505
3754.75	0.4497
3763.79	0.4494
3772.83	0.4494
3781.88	0.4493
3790.92	0.4483
3799.96	0.4472
3809.01	0.4444
3818.05	0.4414
3827.09	0.4394
3836.14	0.4376
3845.18	0.4358
3854.22	0.434
3863.27	0.4323
3872.31	0.4319
3881.35	0.4315
3890.4	0.4311
3899.44	0.4306
3908.48	0.43
3917.53	0.4293
3926.57	0.4286
3935.61	0.4279
3944.66	0.4271
3953.7	0.4261
3962.74	0.4253
3971.79	0.4245
3980.83	0.4245
3989.87	0.4238
3998.92	0.4227
4007.96	0.4209
