Infrared Spectrum: 1-ANTHRAQUINONE SULFONIC ACID, SODIUM SALT
Formula: C14 H7 O5 S Na
State: SOLID (KBr PELLET)
Class: COBLENTZ
Instrument: Not specified, most likely a prism, grating, or hybrid spectrometer.
Sampling: TRANSMISSION
Resolution: 4
Origin: CORN PRODUCTS COMPANY
MICROMETERS	TRANSMITTANCE
2.034	0.693
2.06782	0.697
2.10165	0.7
2.13547	0.704
2.1693	0.71
2.20312	0.714
2.23695	0.717
2.27077	0.721
2.30459	0.727
2.33842	0.731
2.37224	0.734
2.40607	0.738
2.43989	0.739
2.47372	0.743
2.50754	0.748
2.54136	0.751
2.57519	0.753
2.60901	0.753
2.64284	0.753
2.67666	0.756
2.71048	0.76
2.74431	0.758
2.77813	0.714
2.81196	0.615
2.84578	0.542
2.87961	0.51
2.91343	0.482
2.94725	0.474
2.98108	0.482
3.0149	0.535
3.04873	0.59
3.08255	0.63
3.11638	0.659
3.1502	0.673
3.18402	0.698
3.21785	0.707
3.25167	0.719
3.2855	0.714
3.31932	0.702
3.35315	0.722
3.38697	0.736
3.42079	0.748
3.45462	0.756
3.48844	0.761
3.52227	0.768
3.55609	0.775
3.58991	0.777
3.62374	0.782
3.65756	0.784
3.69139	0.785
3.72521	0.787
3.75904	0.787
3.79286	0.789
3.82668	0.789
3.86051	0.789
3.89433	0.787
3.92816	0.789
3.96198	0.79
3.99581	0.792
4.02963	0.792
4.06345	0.787
4.09728	0.789
4.1311	0.792
4.16493	0.794
4.19875	0.794
4.23258	0.792
4.2664	0.789
4.30022	0.79
4.33405	0.79
4.36787	0.794
4.4017	0.792
4.43552	0.792
4.46935	0.792
4.50317	0.792
4.53699	0.792
4.57082	0.797
4.60464	0.795
4.63847	0.794
4.67229	0.797
4.70611	0.799
4.73994	0.799
4.77376	0.795
4.80759	0.792
4.84141	0.79
4.87524	0.795
4.90906	0.799
4.94288	0.797
4.97671	0.795
5.01053	0.794
5.04436	0.792
5.07818	0.792
5.11201	0.794
5.14583	0.797
5.17965	0.797
5.21348	0.799
5.2473	0.802
5.28113	0.802
5.31495	0.797
5.34878	0.797
5.3826	0.802
5.41642	0.806
5.45025	0.807
5.48407	0.809
5.5179	0.809
5.55172	0.806
5.58554	0.804
5.61937	0.794
5.65319	0.79
5.68702	0.789
5.72084	0.79
5.75467	0.784
5.78849	0.761
5.82231	0.739
5.85614	0.653
5.88996	0.418
5.92379	0.341
5.95761	0.329
5.99144	0.447
6.02526	0.602
6.05908	0.619
6.09291	0.624
6.12673	0.62
6.16056	0.636
6.19438	0.658
6.22821	0.675
6.26203	0.595
6.29585	0.53
6.32968	0.437
6.3635	0.564
6.39733	0.649
6.43115	0.719
6.46497	0.758
6.4988	0.763
6.53262	0.775
6.56645	0.782
6.60027	0.787
6.6341	0.79
6.66792	0.792
6.70174	0.792
6.73557	0.785
6.76939	0.77
6.80322	0.772
6.83704	0.78
6.87087	0.773
6.90469	0.777
6.93851	0.773
6.97234	0.78
7.00616	0.772
7.03999	0.751
7.07381	0.756
7.10764	0.77
7.14146	0.772
7.17528	0.772
7.20911	0.77
7.24293	0.755
7.27676	0.758
7.31058	0.761
7.34441	0.758
7.37823	0.753
7.41205	0.739
7.44588	0.705
7.4797	0.557
7.51353	0.421
7.54735	0.423
7.58117	0.265
7.615	0.19
7.64882	0.198
7.68265	0.316
7.71647	0.493
7.7503	0.542
7.78412	0.498
7.81794	0.299
7.85177	0.164
7.88559	0.195
7.91942	0.329
7.95324	0.363
7.98707	0.365
8.02089	0.272
8.05471	0.207
8.08854	0.185
8.12236	0.181
8.15619	0.18
8.19001	0.175
8.22384	0.156
8.25766	0.149
8.29148	0.144
8.32531	0.139
8.35913	0.176
8.39296	0.236
8.42678	0.316
8.4606	0.379
8.49443	0.408
8.52825	0.455
8.56208	0.471
8.5959	0.477
8.62973	0.479
8.66355	0.476
8.69737	0.482
8.7312	0.494
8.76502	0.471
8.79885	0.479
8.83267	0.557
8.8665	0.591
8.90032	0.603
8.93414	0.62
8.96797	0.632
9.00179	0.644
9.03562	0.647
9.06944	0.67
9.10327	0.676
9.13709	0.683
9.17091	0.685
9.20474	0.659
9.23856	0.644
9.27239	0.651
9.30621	0.673
9.34004	0.683
9.37386	0.681
9.40768	0.644
9.44151	0.588
9.47533	0.447
9.50916	0.248
9.54298	0.221
9.5768	0.227
9.61063	0.287
9.64445	0.426
9.67828	0.583
9.7121	0.647
9.74593	0.685
9.77975	0.697
9.81357	0.71
9.8474	0.714
9.88122	0.714
9.91505	0.719
9.94887	0.719
9.9827	0.721
10.0165	0.722
10.0503	0.717
10.0842	0.719
10.118	0.721
10.1518	0.721
10.1856	0.724
10.2195	0.717
10.2533	0.709
10.2871	0.688
10.3209	0.678
10.3548	0.67
10.3886	0.632
10.4224	0.498
10.4562	0.404
10.4901	0.408
10.5239	0.54
10.5577	0.617
10.5915	0.663
10.6254	0.693
10.6592	0.704
10.693	0.715
10.7268	0.724
10.7607	0.734
10.7945	0.741
10.8283	0.748
10.8621	0.744
10.8959	0.721
10.9298	0.661
10.9636	0.67
10.9974	0.697
11.0312	0.722
11.0651	0.724
11.0989	0.722
11.1327	0.722
11.1665	0.729
11.2004	0.734
11.2342	0.739
11.268	0.743
11.3018	0.746
11.3357	0.75
11.3695	0.748
11.4033	0.75
11.4371	0.751
11.471	0.753
11.5048	0.755
11.5386	0.753
11.5724	0.753
11.6063	0.755
11.6401	0.751
11.6739	0.751
11.7077	0.755
11.7416	0.755
11.7754	0.751
11.8092	0.751
11.843	0.746
11.8769	0.741
11.9107	0.732
11.9445	0.698
11.9783	0.653
12.0121	0.615
12.046	0.68
12.0798	0.714
12.1136	0.738
12.1474	0.75
12.1813	0.746
12.2151	0.748
12.2489	0.744
12.2827	0.727
12.3166	0.707
12.3504	0.693
12.3842	0.659
12.418	0.625
12.4519	0.559
12.4857	0.532
12.5195	0.612
12.5533	0.659
12.5872	0.719
12.621	0.734
12.6548	0.738
12.6886	0.743
12.7225	0.746
12.7563	0.741
12.7901	0.746
12.8239	0.751
12.8578	0.753
12.8916	0.751
12.9254	0.756
12.9592	0.765
12.9931	0.756
13.0269	0.75
13.0607	0.748
13.0945	0.744
13.1283	0.734
13.1622	0.698
13.196	0.654
13.2298	0.588
13.2636	0.554
13.2975	0.574
13.3313	0.613
13.3651	0.653
13.3989	0.681
13.4328	0.704
13.4666	0.714
13.5004	0.724
13.5342	0.722
13.5681	0.714
13.6019	0.695
13.6357	0.67
13.6695	0.634
13.7034	0.603
13.7372	0.593
13.771	0.629
13.8048	0.666
13.8387	0.687
13.8725	0.702
13.9063	0.71
13.9401	0.704
13.974	0.692
14.0078	0.671
14.0416	0.637
14.0754	0.569
14.1093	0.501
14.1431	0.435
14.1769	0.341
14.2107	0.261
14.2445	0.215
14.2784	0.243
14.3122	0.411
14.346	0.523
14.3798	0.595
14.4137	0.627
14.4475	0.649
14.4813	0.668
14.5151	0.681
14.549	0.695
14.5828	0.698
14.6166	0.7
14.6504	0.695
14.6843	0.695
14.7181	0.7
14.7519	0.695
14.7857	0.695
14.8196	0.693
14.8534	0.697
14.8872	0.693
14.921	0.688
14.9549	0.67
14.9887	0.654
15.0225	0.636
15.0563	0.569
15.0902	0.503
15.124	0.421
15.1578	0.365
15.1916	0.348
15.2255	0.348
15.2593	0.37
15.2931	0.416
15.3269	0.505
15.3607	0.568
15.3946	0.596
15.4284	0.619
15.4622	0.63
15.496	0.636
15.5299	0.634
