Infrared Spectrum: Acetanilide, 2-tert-butyl-6-methyl-
Formula: C13 H19 N O
State: SOLID (MULL)
Class: COBLENTZ III
Instrument: BECKMAN IR-4 (HYBRID PRISM-GRATING)
Instrument parameters: NaCl PRISM
Sampling: TRANSMISSION
Resolution: 2
Origin: MONSANTO (J. FREEMAN)
1/CM	TRANSMITTANCE
4000	0.8282
3991	0.8292
3982	0.8302
3973	0.8313
3964	0.8324
3955	0.8334
3946	0.8345
3937	0.8354
3928	0.8362
3919	0.8371
3910	0.8381
3901	0.839
3892	0.8399
3883	0.8408
3874	0.8416
3865	0.8421
3856	0.8428
3847	0.8435
3838	0.8441
3829	0.8447
3820	0.8453
3811	0.8459
3802	0.8464
3793	0.8468
3784	0.8471
3775	0.8475
3766	0.8481
3757	0.8485
3748	0.849
3739	0.8492
3730	0.8493
3721	0.8493
3712	0.8493
3703	0.8492
3694	0.8492
3685	0.8492
3676	0.8492
3667	0.8489
3658	0.8485
3649	0.8481
3640	0.8477
3631	0.8471
3622	0.8468
3613	0.8463
3604	0.8453
3595	0.8443
3586	0.8434
3577	0.8424
3568	0.8414
3559	0.8404
3550	0.8393
3541	0.8382
3532	0.8375
3523	0.8374
3514	0.8373
3505	0.8371
3496	0.8374
3487	0.8375
3478	0.8375
3469	0.8373
3460	0.8359
3451	0.8343
3442	0.8324
3433	0.8307
3424	0.8293
3415	0.8278
3406	0.8264
3397	0.8244
3388	0.8223
3379	0.8198
3370	0.8171
3361	0.8106
3352	0.796
3343	0.7789
3334	0.7505
3325	0.6921
3316	0.5991
3307	0.5062
3298	0.4129
3289	0.319
3280	0.2246
3271	0.1594
3262	0.1752
3253	0.2426
3244	0.3105
3235	0.3787
3226	0.4473
3217	0.5129
3208	0.522
3199	0.5369
3190	0.561
3181	0.5852
3172	0.6096
3163	0.6341
3154	0.6588
3145	0.6835
3136	0.7032
3127	0.7062
3118	0.7071
3109	0.7067
3100	0.7046
3091	0.698
3082	0.6725
3073	0.646
3064	0.6192
3055	0.5922
3046	0.5651
3037	0.5378
3028	0.5104
3019	0.4699
3010	0.4025
3001	0.3382
2992	0.2734
2983	0.2084
2974	0.143
2965	0.0771
2956	0.0108
2947	0.0022
2938	0.0039
2929	0.0116
2920	0.0323
2911	0.0595
2902	0.0849
2893	0.0876
2884	0.0821
2875	0.0765
2866	0.1031
2857	0.2949
2848	0.4878
2839	0.5692
2830	0.6199
2821	0.6933
2812	0.7342
2803	0.7625
2794	0.7834
2785	0.8012
2776	0.8092
2767	0.8101
2758	0.8104
2749	0.811
2740	0.8126
2731	0.8162
2722	0.8206
2713	0.8254
2704	0.83
2695	0.8335
2686	0.8361
2677	0.8386
2668	0.8414
2659	0.8444
2650	0.8474
2641	0.8502
2632	0.8531
2623	0.8559
2614	0.8582
2605	0.8604
2596	0.8627
2587	0.8653
2578	0.8681
2569	0.871
2560	0.8738
2551	0.8767
2542	0.8794
2533	0.8823
2524	0.8847
2515	0.8867
2506	0.8886
2497	0.8905
2488	0.8911
2479	0.8913
2470	0.8916
2461	0.8916
2452	0.8915
2443	0.8915
2434	0.8918
2425	0.8925
2416	0.8931
2407	0.8938
2398	0.8945
2389	0.8952
2380	0.896
2371	0.8968
2362	0.8977
2353	0.8985
2344	0.8994
2335	0.9
2326	0.9004
2317	0.9008
2308	0.9013
2299	0.9018
2290	0.9024
2281	0.9033
2272	0.9047
2263	0.906
2254	0.9073
2245	0.9078
2236	0.9084
2227	0.9089
2218	0.9094
2209	0.9099
2200	0.9105
2191	0.9111
2182	0.9121
2173	0.9132
2164	0.9144
2155	0.9157
2146	0.9168
2137	0.918
2128	0.919
2119	0.92
2110	0.9209
2101	0.9218
2092	0.9224
2083	0.923
2074	0.9236
2065	0.9238
2056	0.924
2047	0.9242
2038	0.9243
2029	0.9244
2020	0.9245
2011	0.9248
2002	0.925
1993	0.9256
1984	0.9263
1975	0.9273
1966	0.9271
1957	0.9186
1948	0.9156
1939	0.921
1930	0.9273
1921	0.9284
1912	0.9289
1903	0.9285
1894	0.9233
1885	0.9171
1876	0.9216
1867	0.9286
1858	0.9325
1849	0.9327
1840	0.9307
1831	0.9271
1822	0.9232
1813	0.9202
1804	0.9235
1795	0.9275
1786	0.9315
1777	0.9356
1768	0.9394
1759	0.943
1750	0.9456
1741	0.945
1732	0.9375
1723	0.9197
1714	0.912
1705	0.8786
1696	0.8119
1687	0.6695
1678	0.4365
1669	0.201
1660	0.0783
1651	0.0796
1642	0.2353
1633	0.6189
1624	0.7271
1615	0.8121
1606	0.8134
1597	0.7626
1588	0.7311
1579	0.7734
1570	0.7128
1561	0.5896
1552	0.4179
1543	0.1482
1534	0.2626
1525	0.4644
1516	0.5862
1507	0.6405
1498	0.5927
1489	0.4677
1480	0.3412
1471	0.215
1462	0.2331
1453	0.3066
1444	0.3328
1435	0.4374
1426	0.5758
1417	0.6824
1408	0.6928
1399	0.6269
1390	0.5386
1381	0.3716
1372	0.3188
1363	0.5899
1354	0.6896
1345	0.7383
1336	0.7528
1327	0.75
1318	0.7334
1309	0.6301
1300	0.3918
1291	0.394
1282	0.633
1273	0.6869
1264	0.7551
1255	0.8242
1246	0.8618
1237	0.8678
1228	0.8589
1219	0.8716
1210	0.8711
1201	0.8618
1192	0.7869
1183	0.8359
1174	0.8793
1165	0.883
1156	0.8731
1147	0.8593
1138	0.8821
1129	0.8866
1120	0.8912
1111	0.8842
1102	0.833
1093	0.8836
1084	0.8977
1075	0.9047
1066	0.9073
1057	0.905
1048	0.8891
1039	0.8148
1030	0.8509
1021	0.8524
1012	0.8161
1003	0.8687
994	0.8909
985	0.8908
976	0.8744
967	0.7528
958	0.8904
949	0.9112
940	0.9201
931	0.8947
922	0.9182
913	0.9313
904	0.8709
895	0.8008
886	0.9316
877	0.9435
868	0.9439
859	0.9321
850	0.9378
841	0.9432
832	0.9473
823	0.9503
814	0.9488
805	0.9147
796	0.9071
787	0.3929
778	0.7926
769	0.9243
760	0.925
751	0.739
742	0.836
733	0.8615
724	0.8095
715	0.7882
706	0.7471
697	0.7615
688	0.6468
679	0.7597
670	0.9124
661	0.9657
652	0.9936
643	0.9963
634	0.9823
