Infrared Spectrum: Glycine, N-2-imidazolin-2-yl-
Formula: C5 H9 N3 O2
State: SOLID (0.5 mg / 650 mg KBr DISC)
Class: COBLENTZ III
Instrument: PERKIN-ELMER 21 (GRATING)
Instrument parameters: FILTER CHANGE ABOUT 1070 CM^-^1
Resolution: 2
Origin: SOUTHERN RESEARCH INSTITUTE
1/CM	TRANSMITTANCE
610	0.7876
619	0.7747
628	0.7638
637	0.7505
646	0.7359
655	0.7203
664	0.7022
673	0.6794
682	0.6591
691	0.6574
700	0.7037
709	0.7714
718	0.7679
727	0.763
736	0.7574
745	0.7483
754	0.7375
763	0.7377
772	0.7497
781	0.7544
790	0.7583
799	0.7671
808	0.7767
817	0.7883
826	0.803
835	0.8058
844	0.8016
853	0.7963
862	0.7868
871	0.7679
880	0.7353
889	0.7235
898	0.7246
907	0.6921
916	0.752
925	0.8156
934	0.8313
943	0.8313
952	0.8294
961	0.8167
970	0.7985
979	0.8088
988	0.7869
997	0.7631
1006	0.7549
1015	0.7493
1024	0.7431
1033	0.7441
1042	0.7591
1051	0.744
1060	0.6624
1069	0.659
1078	0.6412
1087	0.7291
1096	0.7139
1105	0.6913
1114	0.7021
1123	0.701
1132	0.7204
1141	0.7459
1150	0.7478
1159	0.7438
1168	0.7372
1177	0.7242
1186	0.709
1195	0.697
1204	0.695
1213	0.6769
1222	0.6583
1231	0.6425
1240	0.6491
1249	0.6514
1258	0.6374
1267	0.6002
1276	0.5298
1285	0.4614
1294	0.4881
1303	0.525
1312	0.5383
1321	0.5123
1330	0.481
1339	0.5427
1348	0.5772
1357	0.5587
1366	0.4798
1375	0.3698
1384	0.3313
1393	0.3402
1402	0.3577
1411	0.4199
1420	0.51
1429	0.548
1438	0.5759
1447	0.5662
1456	0.5533
1465	0.5691
1474	0.5765
1483	0.5495
1492	0.5165
1501	0.479
1510	0.4464
1519	0.4332
1528	0.4038
1537	0.3715
1546	0.2753
1555	0.2407
1564	0.2546
1573	0.2918
1582	0.3403
1591	0.3489
1600	0.3224
1609	0.2846
1618	0.298
1627	0.3795
1636	0.3818
1645	0.3626
1654	0.3036
1663	0.2558
1672	0.263
1681	0.3032
1690	0.3436
1699	0.3977
1708	0.4487
1717	0.5254
1726	0.6025
1735	0.6611
1744	0.7037
1753	0.7317
1762	0.7572
1771	0.7788
1780	0.7977
1789	0.811
1798	0.8231
1807	0.8358
1816	0.8467
1825	0.855
1834	0.8618
1843	0.8683
1852	0.8745
1861	0.8803
1870	0.8861
1879	0.891
1888	0.8948
1897	0.8976
1906	0.8995
1915	0.9007
1924	0.9018
1933	0.9028
1942	0.9038
1951	0.9038
1960	0.9033
1969	0.903
1978	0.9013
1987	0.8984
1996	0.8955
2005	0.8916
2014	0.8877
2023	0.8838
2032	0.88
2041	0.876
2050	0.8719
2059	0.8679
2068	0.8651
2077	0.8624
2086	0.86
2095	0.8576
2104	0.8561
2113	0.8554
2122	0.8574
2131	0.8602
2140	0.8639
2149	0.8681
2158	0.8746
2167	0.8777
2176	0.8778
2185	0.875
2194	0.8752
2203	0.8729
2212	0.8711
2221	0.8695
2230	0.868
2239	0.8664
2248	0.8624
2257	0.8604
2266	0.8586
2275	0.8543
2284	0.8456
2293	0.8374
2302	0.8328
2311	0.8306
2320	0.8243
2329	0.8222
2338	0.8223
2347	0.8226
2356	0.8225
2365	0.8216
2374	0.8197
2383	0.8147
2392	0.8085
2401	0.8015
2410	0.795
2419	0.7884
2428	0.7816
2437	0.7753
2446	0.77
2455	0.7647
2464	0.7594
2473	0.7541
2482	0.7487
2491	0.7433
2500	0.738
2509	0.7325
2518	0.7291
2527	0.7278
2536	0.7263
2545	0.7226
2554	0.7156
2563	0.7093
2572	0.7036
2581	0.6986
2590	0.6952
2599	0.6918
2608	0.6901
2617	0.6895
2626	0.6898
2635	0.6862
2644	0.679
2653	0.6674
2662	0.6579
2671	0.65
2680	0.6431
2689	0.6356
2698	0.6279
2707	0.6205
2716	0.6147
2725	0.6096
2734	0.6039
2743	0.5969
2752	0.5883
2761	0.5789
2770	0.5692
2779	0.5584
2788	0.5469
2797	0.5358
2806	0.5267
2815	0.5229
2824	0.5203
2833	0.5178
2842	0.5146
2851	0.5085
2860	0.5021
2869	0.4973
2878	0.4928
2887	0.491
2896	0.4913
2905	0.4917
2914	0.4919
2923	0.4917
2932	0.4902
2941	0.4895
2950	0.4891
2959	0.4894
2968	0.4891
2977	0.4889
2986	0.4874
2995	0.4856
3004	0.482
3013	0.4777
3022	0.4712
3031	0.464
3040	0.4566
3049	0.453
3058	0.4533
3067	0.4543
3076	0.4553
3085	0.4564
3094	0.4513
3103	0.429
3112	0.3912
3121	0.3623
3130	0.3467
3139	0.3394
3148	0.3379
3157	0.3385
3166	0.3424
3175	0.3514
3184	0.3598
3193	0.3679
3202	0.3743
3211	0.3785
3220	0.382
3229	0.3848
3238	0.3876
3247	0.3904
3256	0.3928
3265	0.3954
3274	0.3989
3283	0.4044
3292	0.4139
3301	0.4183
3310	0.4362
3319	0.4512
3328	0.4642
3337	0.4782
3346	0.4891
3355	0.4999
3364	0.5116
3373	0.5234
3382	0.535
3391	0.5463
3400	0.556
3409	0.5655
3418	0.5729
3427	0.5802
3436	0.585
3445	0.5894
3454	0.5932
3463	0.5968
3472	0.6008
3481	0.6056
3490	0.6128
3499	0.6263
3508	0.6458
3517	0.667
3526	0.6866
3535	0.7048
3544	0.7239
3553	0.7398
3562	0.7585
3571	0.7773
3580	0.7953
3589	0.8105
3598	0.8244
3607	0.8343
3616	0.8419
3625	0.8482
3634	0.8537
3643	0.858
3652	0.862
3661	0.8655
3670	0.8678
3679	0.8693
3688	0.8699
3697	0.8706
3706	0.8711
3715	0.8715
3724	0.8718
3733	0.8723
3742	0.8727
3751	0.8732
3760	0.8736
3769	0.8738
3778	0.874
3787	0.8746
3796	0.8752
3805	0.8757
3814	0.8759
3823	0.8761
3832	0.8763
3841	0.8763
3850	0.8764
3859	0.8767
3868	0.8775
3877	0.8787
3886	0.88
3895	0.8812
