Infrared Spectrum: 2-PHENYL-2-(p-AMINOPHENYL)ETHYLAMINE DIHYDROCHLORIDE
Formula: C14 H18 Cl2 N2
State: SOLID (OIL MULL)
Class: COBLENTZ III
Instrument: PERKIN-ELMER 21 (GRATING)
Instrument parameters: NaCl PRISM
Sampling: TRANSMISSION
Resolution: 2
Origin: SMITH KLINE & FRENCH LABS.
MICROMETERS	TRANSMITTANCE
1.998	0.33
2.03223	0.337
2.06645	0.343
2.10068	0.35
2.13491	0.36
2.16914	0.373
2.20336	0.384
2.23759	0.401
2.27182	0.408
2.30605	0.414
2.34027	0.426
2.3745	0.434
2.40873	0.457
2.44296	0.467
2.47718	0.483
2.51141	0.509
2.54564	0.521
2.57986	0.537
2.61409	0.549
2.64832	0.56
2.68255	0.577
2.71677	0.583
2.751	0.601
2.78523	0.615
2.81946	0.629
2.85368	0.637
2.88791	0.652
2.92214	0.665
2.95636	0.673
2.99059	0.688
3.02482	0.694
3.05905	0.713
3.09327	0.714
3.1275	0.678
3.16173	0.574
3.19596	0.51
3.23018	0.399
3.26441	0.288
3.29864	0.23
3.33287	0.199
3.36709	0.118
3.40132	0.085
3.43555	0.065
3.46977	0.069
3.504	0.079
3.53823	0.068
3.57246	0.123
3.60668	0.169
3.64091	0.219
3.67514	0.23
3.70937	0.241
3.74359	0.263
3.77782	0.319
3.81205	0.333
3.84627	0.339
3.8805	0.295
3.91473	0.238
3.94896	0.259
3.98318	0.325
4.01741	0.354
4.05164	0.401
4.08587	0.461
4.12009	0.484
4.15432	0.5
4.18855	0.533
4.22278	0.57
4.257	0.58
4.29123	0.587
4.32546	0.604
4.35968	0.641
4.39391	0.667
4.42814	0.672
4.46237	0.69
4.49659	0.689
4.53082	0.693
4.56505	0.699
4.59928	0.711
4.6335	0.722
4.66773	0.728
4.70196	0.75
4.73618	0.76
4.77041	0.762
4.80464	0.773
4.83887	0.774
4.87309	0.773
4.90732	0.774
4.94155	0.773
4.97578	0.766
5.01	0.749
5.04423	0.744
5.07846	0.718
5.11269	0.708
5.14691	0.733
5.18114	0.741
5.21537	0.744
5.24959	0.739
5.28382	0.763
5.31805	0.769
5.35228	0.771
5.3865	0.771
5.42073	0.772
5.45496	0.777
5.48919	0.78
5.52341	0.789
5.55764	0.792
5.59187	0.802
5.62609	0.809
5.66032	0.812
5.69455	0.813
5.72878	0.823
5.763	0.818
5.79723	0.828
5.83146	0.833
5.86569	0.833
5.89991	0.834
5.93414	0.842
5.96837	0.851
6.0026	0.841
6.03682	0.836
6.07105	0.835
6.10528	0.844
6.1395	0.829
6.17373	0.778
6.20796	0.439
6.24219	0.632
6.27641	0.74
6.31064	0.584
6.34487	0.38
6.3791	0.331
6.41332	0.384
6.44755	0.531
6.48178	0.533
6.516	0.583
6.55023	0.655
6.58446	0.59
6.61869	0.38
6.65291	0.274
6.68714	0.293
6.72137	0.345
6.7556	0.336
6.78982	0.395
6.82405	0.3
6.85828	0.258
6.89251	0.285
6.92673	0.345
6.96096	0.51
6.99519	0.644
7.02941	0.732
7.06364	0.756
7.09787	0.777
7.1321	0.79
7.16632	0.785
7.20055	0.75
7.23478	0.563
7.26901	0.45
7.30323	0.537
7.33746	0.618
7.37169	0.728
7.40591	0.741
7.44014	0.729
7.47437	0.763
7.5086	0.762
7.54282	0.768
7.57705	0.739
7.61128	0.656
7.64551	0.69
7.67973	0.738
7.71396	0.739
7.74819	0.788
7.78242	0.799
7.81664	0.801
7.85087	0.805
7.8851	0.819
7.91932	0.829
7.95355	0.82
7.98778	0.82
8.02201	0.838
8.05623	0.839
8.09046	0.858
8.12469	0.856
8.15892	0.862
8.19314	0.863
8.22737	0.85
8.2616	0.729
8.29582	0.68
8.33005	0.803
8.36428	0.818
8.39851	0.728
8.43273	0.813
8.46696	0.852
8.50119	0.858
8.53542	0.858
8.56964	0.852
8.60387	0.859
8.6381	0.833
8.67233	0.85
8.70655	0.852
8.74078	0.85
8.77501	0.802
8.80923	0.695
8.84346	0.41
8.87769	0.432
8.91192	0.44
8.94614	0.5
8.98037	0.647
9.0146	0.721
9.04883	0.778
9.08305	0.752
9.11728	0.629
9.15151	0.752
9.18574	0.812
9.21996	0.825
9.25419	0.808
9.28842	0.838
9.32264	0.855
9.35687	0.851
9.3911	0.872
9.42533	0.889
9.45955	0.891
9.49378	0.898
9.52801	0.9
9.56224	0.9
9.59646	0.9
9.63069	0.894
9.66492	0.82
9.69914	0.801
9.73337	0.833
9.7676	0.801
9.80183	0.729
9.83605	0.828
9.87028	0.862
9.90451	0.892
9.93874	0.891
9.97296	0.841
10.0072	0.858
10.0414	0.9
10.0756	0.9
10.1099	0.901
10.1441	0.901
10.1783	0.906
10.2126	0.906
10.2468	0.892
10.281	0.878
10.3152	0.883
10.3495	0.872
10.3837	0.8
10.4179	0.684
10.4521	0.627
10.4864	0.761
10.5206	0.822
10.5548	0.85
10.5891	0.812
10.6233	0.834
10.6575	0.872
10.6917	0.889
10.726	0.88
10.7602	0.85
10.7944	0.777
10.8286	0.791
10.8629	0.863
10.8971	0.9
10.9313	0.907
10.9656	0.912
10.9998	0.915
11.034	0.914
11.0682	0.889
11.1025	0.851
11.1367	0.9
11.1709	0.922
11.2051	0.931
11.2394	0.934
11.2736	0.94
11.3078	0.941
11.3421	0.947
11.3763	0.948
11.4105	0.95
11.4447	0.95
11.479	0.941
11.5132	0.928
11.5474	0.879
11.5816	0.766
11.6159	0.634
11.6501	0.779
11.6843	0.842
11.7186	0.873
11.7528	0.863
11.787	0.844
11.8212	0.839
11.8555	0.852
11.8897	0.901
11.9239	0.92
11.9581	0.925
11.9924	0.925
12.0266	0.924
12.0608	0.906
12.0951	0.886
12.1293	0.83
12.1635	0.764
12.1977	0.68
12.232	0.682
12.2662	0.745
12.3004	0.783
12.3346	0.801
12.3689	0.802
12.4031	0.795
12.4373	0.784
12.4716	0.83
12.5058	0.88
12.54	0.9
12.5742	0.913
12.6085	0.923
12.6427	0.93
12.6769	0.937
12.7111	0.937
12.7454	0.936
12.7796	0.934
12.8138	0.928
12.8481	0.917
12.8823	0.892
12.9165	0.864
12.9507	0.792
12.985	0.627
13.0192	0.45
13.0534	0.512
13.0876	0.69
13.1219	0.769
13.1561	0.801
13.1903	0.839
13.2246	0.863
13.2588	0.897
13.293	0.898
13.3272	0.901
13.3615	0.902
13.3957	0.903
13.4299	0.902
13.4641	0.892
13.4984	0.886
13.5326	0.879
13.5668	0.872
13.6011	0.861
13.6353	0.852
13.6695	0.85
13.7037	0.84
13.738	0.822
13.7722	0.784
13.8064	0.719
13.8406	0.57
13.8749	0.496
13.9091	0.669
13.9433	0.801
13.9776	0.822
14.0118	0.853
14.046	0.859
14.0802	0.859
14.1145	0.847
14.1487	0.833
14.1829	0.792
14.2171	0.721
14.2514	0.561
14.2856	0.464
14.3198	0.503
14.3541	0.521
14.3883	0.482
14.4225	0.503
14.4567	0.66
14.491	0.742
14.5252	0.788
14.5594	0.801
14.5936	0.806
14.6279	0.808
14.6621	0.811
14.6963	0.811
14.7306	0.811
14.7648	0.803
14.799	0.799
14.8332	0.795
14.8675	0.795
14.9017	0.791
14.9359	0.788
14.9702	0.778
15.0044	0.721
15.0386	0.699
15.0728	0.746
15.1071	0.75
15.1413	0.751
15.1755	0.751
15.2097	0.747
