Infrared Spectrum: 1-Pyrrolidinecarbodithioic acid, ammonuim salt
Formula: C5 H12 N2 S2
State: SOLID (SPLIT MULL)
Class: COBLENTZ III
Instrument: DOW KBr FOREPRISM-GRATING
Instrument parameters: BLAZED AT 3.5, 12.0, 20.0 MICRON AND CHANGED AT 5.0, 7.5, 14.9 MICRON
Sampling: TRANSMISSION
Resolution: 2
Origin: DOW CHEMICAL COMPANY
1/CM	TRANSMITTANCE
3788	0.6886
3779	0.6903
3770	0.6921
3761	0.694
3752	0.6958
3743	0.6978
3734	0.7007
3725	0.7031
3716	0.7045
3707	0.7051
3698	0.705
3689	0.7053
3680	0.7074
3671	0.7118
3662	0.7124
3653	0.7133
3644	0.7143
3635	0.7171
3626	0.7198
3617	0.7205
3608	0.7211
3599	0.7215
3590	0.7217
3581	0.7218
3572	0.723
3563	0.7241
3554	0.7253
3545	0.7267
3536	0.7288
3527	0.7307
3518	0.7326
3509	0.7347
3500	0.7367
3491	0.7387
3482	0.7406
3473	0.7425
3464	0.7443
3455	0.7461
3446	0.7481
3437	0.7499
3428	0.7515
3419	0.7533
3410	0.755
3401	0.7565
3392	0.7582
3383	0.7597
3374	0.7611
3365	0.7625
3356	0.7638
3347	0.7644
3338	0.7651
3329	0.7658
3320	0.7665
3311	0.7653
3302	0.7637
3293	0.7624
3284	0.7603
3275	0.7569
3266	0.7504
3257	0.7411
3248	0.7275
3239	0.7098
3230	0.6818
3221	0.6492
3212	0.6177
3203	0.5859
3194	0.5299
3185	0.4945
3176	0.451
3167	0.3932
3158	0.3606
3149	0.3258
3140	0.2923
3131	0.2625
3122	0.2327
3113	0.2027
3104	0.1863
3095	0.184
3086	0.1885
3077	0.1937
3068	0.1902
3059	0.1731
3050	0.1607
3041	0.1552
3032	0.1507
3023	0.1454
3014	0.1365
3005	0.1262
2996	0.1139
2987	0.1022
2978	0.0972
2969	0.0961
2960	0.0952
2951	0.0935
2942	0.1033
2933	0.119
2924	0.1327
2915	0.1425
2906	0.1509
2897	0.1578
2888	0.1649
2879	0.1675
2870	0.1706
2861	0.1816
2852	0.1968
2843	0.2231
2834	0.2379
2825	0.2434
2816	0.2449
2807	0.2523
2798	0.2676
2789	0.282
2780	0.2841
2771	0.2577
2762	0.2311
2753	0.2274
2744	0.2579
2735	0.289
2726	0.3252
2717	0.3539
2708	0.3787
2699	0.4039
2690	0.4299
2681	0.4527
2672	0.4754
2663	0.4989
2654	0.5173
2645	0.532
2636	0.5479
2627	0.5644
2618	0.5775
2609	0.5899
2600	0.6009
2591	0.6109
2582	0.621
2573	0.6344
2564	0.6475
2555	0.6595
2546	0.6696
2537	0.6778
2528	0.6861
2519	0.6943
2510	0.7019
2501	0.7085
2492	0.7141
2483	0.7185
2474	0.7225
2465	0.7267
2456	0.7311
2447	0.7354
2438	0.7392
2429	0.7428
2420	0.7465
2411	0.75
2402	0.7535
2393	0.7568
2384	0.7604
2375	0.7608
2366	0.7615
2357	0.761
2348	0.7601
2339	0.7617
2330	0.7615
2321	0.7634
2312	0.7658
2303	0.7678
2294	0.7701
2285	0.7728
2276	0.7755
2267	0.7778
2258	0.7806
2249	0.7841
2240	0.7875
2231	0.79
2222	0.7921
2213	0.7945
2204	0.7969
2195	0.7995
2186	0.8012
2177	0.8025
2168	0.8038
2159	0.8049
2150	0.8061
2141	0.8075
2132	0.809
2123	0.8081
2114	0.8058
2105	0.8018
2096	0.7956
2087	0.7869
2078	0.779
2069	0.7718
2060	0.7675
2051	0.7715
2042	0.7756
2033	0.7786
2024	0.7824
2015	0.7858
2006	0.7886
1997	0.784
1988	0.7848
1979	0.786
1970	0.7868
1961	0.7908
1952	0.7945
1943	0.7938
1934	0.7953
1925	0.7958
1916	0.7999
1907	0.8033
1898	0.8058
1889	0.8075
1880	0.8053
1871	0.7997
1862	0.7925
1853	0.7817
1844	0.7751
1835	0.7718
1826	0.7691
1817	0.7664
1808	0.7634
1799	0.7603
1790	0.7584
1781	0.7571
1772	0.755
1763	0.7514
1754	0.7481
1745	0.7447
1736	0.7401
1727	0.7375
1718	0.7381
1709	0.7381
1700	0.7419
1691	0.7495
1682	0.7611
1673	0.7736
1664	0.7889
1655	0.7964
1646	0.8024
1637	0.8072
1628	0.8141
1619	0.82
1610	0.8263
1601	0.8334
1592	0.8389
1583	0.8442
1574	0.8462
1565	0.847
1556	0.8596
1547	0.8618
1538	0.8667
1529	0.8671
1520	0.8606
1511	0.8632
1502	0.8566
1493	0.8621
1484	0.8425
1475	0.7845
1466	0.715
1457	0.6221
1448	0.5679
1439	0.426
1430	0.1517
1421	0.0956
1412	0.0637
1403	0.1759
1394	0.1303
1385	0.2106
1376	0.2393
1367	0.4512
1358	0.5486
1349	0.597
1340	0.6047
1331	0.5217
1322	0.367
1313	0.5739
1304	0.6492
1295	0.674
1286	0.6849
1277	0.6934
1268	0.6978
1259	0.699
1250	0.6308
1241	0.4798
1232	0.6567
1223	0.6969
1214	0.5315
1205	0.6656
1196	0.7078
1187	0.693
1178	0.4855
1169	0.4853
1160	0.4414
1151	0.4862
1142	0.6806
1133	0.7211
1124	0.7341
1115	0.7411
1106	0.7449
1097	0.6593
1088	0.7262
1079	0.7518
1070	0.7615
1061	0.7676
1052	0.7734
1043	0.774
1034	0.7333
1025	0.7639
1016	0.7704
1007	0.7533
998	0.3206
989	0.4745
980	0.7053
971	0.7522
962	0.759
953	0.7471
944	0.4584
935	0.2808
926	0.6445
917	0.6758
908	0.4892
899	0.7019
890	0.7721
881	0.7821
872	0.7846
863	0.7637
854	0.7618
845	0.7858
836	0.7868
827	0.7265
818	0.7607
809	0.7948
800	0.8083
791	0.8155
782	0.8189
773	0.8188
764	0.8213
755	0.8234
746	0.8227
737	0.8176
728	0.8098
719	0.7924
710	0.8218
701	0.7791
692	0.7711
683	0.8373
674	0.848
665	0.8445
656	0.852
647	0.8491
638	0.843
629	0.8393
620	0.8341
611	0.8281
602	0.8213
593	0.8115
584	0.8001
575	0.8047
566	0.7969
557	0.7986
548	0.8008
539	0.8003
530	0.7984
521	0.7951
512	0.7932
503	0.791
494	0.788
485	0.7837
476	0.7787
467	0.7717
458	0.7611
449	0.7162
440	0.6174
431	0.6682
422	0.6065
413	0.5934
404	0.5955
395	0.5956
386	0.595
