Infrared Spectrum: Diisopropylamine hydrofluoride
Formula: C6 H16 F N
State: SOLID (NUJOL MULL)
Class: COBLENTZ III
Instrument: DOW KBr FOREPRISM-GRATING
Instrument parameters: BLAZED AT 3.5, 12.0, 20.0 MICRON AND CHANGED AT 5.0, 7.5, 14.9 MICRON
Sampling: TRANSMISSION
Path length: (BaF2 PLATES)
Resolution: 2
Origin: DOW CHEMICAL COMPANY
1/CM	TRANSMITTANCE
708	0.0004
716	0.0026
724	0.0061
732	0.009
740	0.0125
748	0.017
756	0.0224
764	0.0303
772	0.0395
780	0.0492
788	0.0608
796	0.0811
804	0.0794
812	0.0834
820	0.1721
828	0.2163
836	0.2501
844	0.2892
852	0.3241
860	0.3514
868	0.3903
876	0.4232
884	0.4635
892	0.4949
900	0.5224
908	0.5421
916	0.5559
924	0.5749
932	0.548
940	0.5554
948	0.5782
956	0.5807
964	0.5795
972	0.6121
980	0.5127
988	0.626
996	0.6351
1004	0.6276
1012	0.6138
1020	0.5852
1028	0.5479
1036	0.502
1044	0.4562
1052	0.3225
1060	0.1421
1068	0.1185
1076	0.2252
1084	0.2416
1092	0.1217
1100	0.0503
1108	0.0603
1116	0.2612
1124	0.4342
1132	0.4885
1140	0.4588
1148	0.3512
1156	0.2799
1164	0.3979
1172	0.4835
1180	0.4957
1188	0.3814
1196	0.5873
1204	0.5431
1212	0.5935
1220	0.6926
1228	0.7164
1236	0.7211
1244	0.723
1252	0.7207
1260	0.7218
1268	0.7201
1276	0.7174
1284	0.7142
1292	0.7097
1300	0.7026
1308	0.6826
1316	0.6448
1324	0.5386
1332	0.6441
1340	0.604
1348	0.5758
1356	0.6085
1364	0.566
1372	0.59
1380	0.3015
1388	0.4156
1396	0.2337
1404	0.2783
1412	0.5297
1420	0.5722
1428	0.5697
1436	0.5238
1444	0.476
1452	0.3398
1460	0.296
1468	0.2269
1476	0.3522
1484	0.425
1492	0.4964
1500	0.4192
1508	0.2433
1516	0.2985
1524	0.4795
1532	0.5479
1540	0.5765
1548	0.5793
1556	0.581
1564	0.5818
1572	0.5838
1580	0.5878
1588	0.5878
1596	0.5856
1604	0.5775
1612	0.555
1620	0.4993
1628	0.2708
1636	0.2963
1644	0.3308
1652	0.5738
1660	0.5804
1668	0.5755
1676	0.5634
1684	0.56
1692	0.5541
1700	0.5488
1708	0.544
1716	0.5387
1724	0.5327
1732	0.5246
1740	0.5162
1748	0.5077
1756	0.4983
1764	0.4866
1772	0.4619
1780	0.4259
1788	0.4007
1796	0.3938
1804	0.3844
1812	0.3678
1820	0.34
1828	0.3108
1836	0.2756
1844	0.2363
1852	0.1916
1860	0.1434
1868	0.0943
1876	0.0573
1884	0.0374
1892	0.029
1900	0.0235
1908	0.0198
1916	0.019
1924	0.0199
1932	0.0235
1940	0.0281
1948	0.0348
1956	0.048
1964	0.0996
1972	0.1499
1980	0.2001
1988	0.2502
1996	0.2899
2004	0.3316
2012	0.353
2020	0.3739
2028	0.3906
2036	0.4014
2044	0.4123
2052	0.4277
2060	0.447
2068	0.4626
2076	0.467
2084	0.4645
2092	0.4588
2100	0.4492
2108	0.4319
2116	0.4132
2124	0.393
2132	0.3686
2140	0.3316
2148	0.2895
2156	0.2768
2164	0.3252
2172	0.3884
2180	0.4423
2188	0.4502
2196	0.4532
2204	0.4553
2212	0.4558
2220	0.4537
2228	0.4462
2236	0.4307
2244	0.4082
2252	0.3802
2260	0.3534
2268	0.3088
2276	0.2599
2284	0.211
2292	0.1621
2300	0.1137
2308	0.1049
2316	0.1091
2324	0.1172
2332	0.1267
2340	0.1349
2348	0.138
2356	0.137
2364	0.1317
2372	0.1221
2380	0.1056
2388	0.0798
2396	0.0591
2404	0.0396
2412	0.0329
2420	0.0323
2428	0.0321
2436	0.0325
2444	0.033
2452	0.0331
2460	0.0345
2468	0.0376
2476	0.0407
2484	0.0423
2492	0.0427
2500	0.0434
2508	0.0448
2516	0.0469
2524	0.0498
2532	0.0545
2540	0.0621
2548	0.0729
2556	0.0822
2564	0.0879
2572	0.0865
2580	0.0841
2588	0.093
2596	0.1185
2604	0.144
2612	0.1634
2620	0.1684
2628	0.1676
2636	0.1592
2644	0.138
2652	0.1146
2660	0.0928
2668	0.0747
2676	0.0605
2684	0.0484
2692	0.0403
2700	0.0367
2708	0.0346
2716	0.0355
2724	0.0388
2732	0.0425
2740	0.0475
2748	0.0546
2756	0.064
2764	0.0732
2772	0.0856
2780	0.1007
2788	0.1154
2796	0.1258
2804	0.1346
2812	0.1358
2820	0.1181
2828	0.0914
2836	0.0647
2844	0.0445
2852	0.0465
2860	0.0498
2868	0.0531
2876	0.0559
2884	0.0571
2892	0.0566
2900	0.0549
2908	0.0509
2916	0.0467
2924	0.0523
2932	0.0695
2940	0.0682
2948	0.0664
2956	0.0711
2964	0.0773
2972	0.1006
2980	0.0968
2988	0.1513
2996	0.2868
3004	0.3225
3012	0.3143
3020	0.2625
3028	0.2099
3036	0.1981
3044	0.2064
3052	0.2434
3060	0.3191
3068	0.3574
3076	0.3895
3084	0.4212
3092	0.4466
3100	0.4666
3108	0.4809
3116	0.4945
3124	0.5085
3132	0.5229
3140	0.5376
3148	0.5517
3156	0.5644
3164	0.5744
3172	0.5804
3180	0.5852
3188	0.5899
3196	0.5936
3204	0.5969
3212	0.6001
3220	0.6034
3228	0.6051
3236	0.6057
3244	0.6053
3252	0.6031
3260	0.6012
3268	0.6067
3276	0.6187
3284	0.6285
3292	0.6345
3300	0.638
3308	0.6404
3316	0.6421
3324	0.6437
3332	0.6442
3340	0.6445
3348	0.6448
3356	0.645
3364	0.6449
3372	0.6449
3380	0.6445
3388	0.6438
3396	0.6435
3404	0.6436
3412	0.6443
3420	0.6458
3428	0.6475
3436	0.6494
3444	0.6514
3452	0.6534
3460	0.6558
3468	0.6583
3476	0.6598
3484	0.6608
3492	0.6618
3500	0.663
3508	0.6642
3516	0.6665
3524	0.6697
3532	0.6728
3540	0.6761
3548	0.6789
3556	0.6814
3564	0.6838
3572	0.6861
3580	0.6875
3588	0.6887
3596	0.6894
3604	0.6899
3612	0.6904
3620	0.6908
3628	0.6908
3636	0.691
3644	0.6897
3652	0.6883
3660	0.6864
3668	0.6838
3676	0.6815
3684	0.6814
3692	0.6832
3700	0.6854
3708	0.6878
3716	0.6907
3724	0.6937
3732	0.6961
3740	0.6983
3748	0.7003
3756	0.6982
3764	0.7028
3772	0.7032
3780	0.7028
3788	0.7022
3796	0.7017
