Infrared Spectrum: PYRIDYLAMINE, N-(3-DIMETHYLAMINOPROPYL)THIOPHENYL-, HYDROCHLORIDE
Formula: C16 H20 Cl N3 S
State: SOLID (KCl DISC) VS KCl
Melting point: 108-112 C
Class: COBLENTZ III
Instrument: PERKIN-ELMER 21 (GRATING)
Instrument parameters: FILTER AT ABOUT 10 MICRONS
Sampling: TRANSMISSION
Resolution: 2
1/CM	TRANSMITTANCE
4000	0.9084
3991	0.9091
3982	0.9109
3973	0.9126
3964	0.9145
3955	0.9163
3946	0.9177
3937	0.9185
3928	0.9193
3919	0.9201
3910	0.9209
3901	0.9217
3892	0.9225
3883	0.9234
3874	0.9243
3865	0.9255
3856	0.9267
3847	0.9282
3838	0.9293
3829	0.9306
3820	0.9319
3811	0.9332
3802	0.9346
3793	0.9359
3784	0.9373
3775	0.9382
3766	0.9392
3757	0.9398
3748	0.9407
3739	0.9414
3730	0.9423
3721	0.943
3712	0.9438
3703	0.9445
3694	0.9448
3685	0.9453
3676	0.9457
3667	0.946
3658	0.9462
3649	0.9459
3640	0.9458
3631	0.9461
3622	0.9462
3613	0.9461
3604	0.9451
3595	0.9444
3586	0.9429
3577	0.9393
3568	0.934
3559	0.9261
3550	0.9162
3541	0.9053
3532	0.8915
3523	0.8702
3514	0.828
3505	0.7634
3496	0.7026
3487	0.6418
3478	0.6342
3469	0.6342
3460	0.6364
3451	0.6372
3442	0.6355
3433	0.6307
3424	0.6274
3415	0.6265
3406	0.6341
3397	0.6461
3388	0.6576
3379	0.6672
3370	0.6764
3361	0.6856
3352	0.6947
3343	0.7037
3334	0.7125
3325	0.721
3316	0.7298
3307	0.7386
3298	0.7472
3289	0.7548
3280	0.7625
3271	0.77
3262	0.7776
3253	0.7843
3244	0.79
3235	0.7958
3226	0.8016
3217	0.8074
3208	0.8132
3199	0.821
3190	0.8293
3181	0.8376
3172	0.8458
3163	0.8524
3154	0.8582
3145	0.864
3136	0.8693
3127	0.8744
3118	0.8795
3109	0.884
3100	0.8867
3091	0.8877
3082	0.8868
3073	0.8851
3064	0.881
3055	0.8707
3046	0.8659
3037	0.863
3028	0.8604
3019	0.8578
3010	0.8543
3001	0.8495
2992	0.841
2983	0.8179
2974	0.7941
2965	0.7704
2956	0.7466
2947	0.725
2938	0.7225
2929	0.7352
2920	0.7486
2911	0.7613
2902	0.7738
2893	0.7838
2884	0.7934
2875	0.8025
2866	0.8117
2857	0.8207
2848	0.8284
2839	0.8348
2830	0.8414
2821	0.8479
2812	0.8539
2803	0.8599
2794	0.8656
2785	0.8702
2776	0.8726
2767	0.8715
2758	0.8681
2749	0.863
2740	0.8565
2731	0.8482
2722	0.8357
2713	0.8181
2704	0.7976
2695	0.7675
2686	0.7319
2677	0.6961
2668	0.655
2659	0.6222
2650	0.6095
2641	0.5991
2632	0.5863
2623	0.5739
2614	0.5668
2605	0.5587
2596	0.5507
2587	0.5444
2578	0.5396
2569	0.5581
2560	0.5775
2551	0.5969
2542	0.6163
2533	0.6358
2524	0.6431
2515	0.631
2506	0.6257
2497	0.6237
2488	0.6224
2479	0.62
2470	0.6124
2461	0.6087
2452	0.6139
2443	0.6295
2434	0.646
2425	0.6643
2416	0.6873
2407	0.7079
2398	0.7232
2389	0.7398
2380	0.7551
2371	0.7647
2362	0.7653
2353	0.7661
2344	0.7703
2335	0.7757
2326	0.7835
2317	0.7959
2308	0.8099
2299	0.8304
2290	0.8489
2281	0.8599
2272	0.8706
2263	0.8775
2254	0.8825
2245	0.8865
2236	0.8899
2227	0.8931
2218	0.8961
2209	0.899
2200	0.901
2191	0.9029
2182	0.905
2173	0.9072
2164	0.9095
2155	0.9116
2146	0.9128
2137	0.9142
2128	0.9152
2119	0.9163
2110	0.9165
2101	0.9169
2092	0.9166
2083	0.916
2074	0.9151
2065	0.9129
2056	0.9103
2047	0.908
2038	0.9066
2029	0.9087
2020	0.9112
2011	0.9156
2002	0.9202
1993	0.9243
1984	0.928
1975	0.9304
1966	0.9325
1957	0.9319
1948	0.9311
1939	0.9308
1930	0.9311
1921	0.9312
1912	0.9298
1903	0.9282
1894	0.9271
1885	0.9272
1876	0.9305
1867	0.9317
1858	0.9305
1849	0.9308
1840	0.9336
1831	0.939
1822	0.9415
1813	0.9432
1804	0.9444
1795	0.9439
1786	0.942
1777	0.9404
1768	0.9408
1759	0.9464
1750	0.9457
1741	0.9441
1732	0.9416
1723	0.9389
1714	0.937
1705	0.9354
1696	0.9351
1687	0.9346
1678	0.9307
1669	0.9237
1660	0.9139
1651	0.8947
1642	0.827
1633	0.8454
1624	0.8896
1615	0.8925
1606	0.7559
1597	0.6437
1588	0.8103
1579	0.7942
1570	0.7588
1561	0.8166
1552	0.8152
1543	0.8553
1534	0.9236
1525	0.931
1516	0.9246
1507	0.9086
1498	0.7712
1489	0.5084
1480	0.577
1471	0.6402
1462	0.6088
1453	0.5063
1444	0.4997
1435	0.6238
1426	0.4215
1417	0.3257
1408	0.402
1399	0.5011
1390	0.5574
1381	0.5774
1372	0.6067
1363	0.7389
1354	0.7951
1345	0.8173
1336	0.8374
1327	0.8508
1318	0.8371
1309	0.8076
1300	0.6847
1291	0.6541
1282	0.713
1273	0.7827
1264	0.6624
1255	0.6994
1246	0.6949
1237	0.7288
1228	0.6685
1219	0.6175
1210	0.7487
1201	0.8216
1192	0.838
1183	0.8493
1174	0.8084
1165	0.6952
1156	0.7062
1147	0.7949
1138	0.7825
1129	0.6607
1120	0.7485
1111	0.6549
1102	0.7658
1093	0.8465
1084	0.8571
1075	0.8692
1066	0.8584
1057	0.8137
1048	0.7269
1039	0.7701
1030	0.7649
1021	0.8119
1012	0.8281
1003	0.7611
994	0.8321
985	0.8577
976	0.8369
967	0.7542
958	0.7833
949	0.8648
940	0.8717
931	0.8707
922	0.8664
913	0.9206
904	0.9236
895	0.8747
886	0.9252
877	0.9282
868	0.9139
859	0.9112
850	0.9214
841	0.9385
832	0.9464
823	0.9365
814	0.9224
805	0.8778
796	0.886
787	0.8375
778	0.5871
769	0.8716
760	0.5353
751	0.4467
742	0.613
733	0.8443
724	0.8904
715	0.8662
706	0.8904
697	0.9045
688	0.9107
679	0.9128
670	0.9145
