Infrared Spectrum: BENZOIC ACID, P-ACETOXY
Formula: C9 H8 O4
State: SOLID (KBr PELLET)
Melting point: 188-189 C
Class: COBLENTZ
Instrument: Not specified, most likely a prism, grating, or hybrid spectrometer.
Sampling: TRANSMISSION
Resolution: 4
Origin: TENNESSEE EASTMAN COMPANY, RESEARCH LABORATORIES
MICROMETERS	TRANSMITTANCE
2	0.985
2.04004	0.985
2.08008	0.985
2.12012	0.981
2.16016	0.981
2.2002	0.983
2.24024	0.983
2.28028	0.983
2.32032	0.981
2.36035	0.981
2.40039	0.981
2.44043	0.983
2.48047	0.981
2.52051	0.981
2.56055	0.981
2.60059	0.978
2.64063	0.978
2.68067	0.976
2.72071	0.966
2.76075	0.943
2.80079	0.92
2.84083	0.9
2.88087	0.878
2.92091	0.873
2.96095	0.885
3.00099	0.891
3.04102	0.89
3.08106	0.87
3.1211	0.835
3.16114	0.8
3.20118	0.746
3.24122	0.685
3.28126	0.683
3.3213	0.655
3.36134	0.663
3.40138	0.673
3.44142	0.676
3.48146	0.681
3.5215	0.688
3.56154	0.74
3.60158	0.765
3.64162	0.77
3.68166	0.761
3.72169	0.723
3.76173	0.708
3.80177	0.741
3.84181	0.756
3.88185	0.748
3.92189	0.72
3.96193	0.753
4.00197	0.798
4.04201	0.828
4.08205	0.851
4.12209	0.863
4.16213	0.871
4.20217	0.888
4.24221	0.891
4.28225	0.891
4.32229	0.916
4.36233	0.931
4.40236	0.936
4.4424	0.94
4.48244	0.945
4.52248	0.948
4.56252	0.948
4.60256	0.951
4.6426	0.951
4.68264	0.948
4.72268	0.95
4.76272	0.948
4.80276	0.951
4.8428	0.951
4.88284	0.946
4.92288	0.95
4.96292	0.955
5.00296	0.96
5.043	0.953
5.08303	0.95
5.12307	0.936
5.16311	0.926
5.20315	0.938
5.24319	0.936
5.28323	0.933
5.32327	0.933
5.36331	0.93
5.40335	0.905
5.44339	0.891
5.48343	0.89
5.52347	0.85
5.56351	0.8
5.60355	0.736
5.64359	0.406
5.68363	0.246
5.72366	0.731
5.7637	0.765
5.80374	0.641
5.84378	0.353
5.88382	0.198
5.92386	0.156
5.9639	0.423
6.00394	0.708
6.04398	0.77
6.08402	0.828
6.12406	0.856
6.1641	0.841
6.20414	0.438
6.24418	0.663
6.28422	0.865
6.32426	0.905
6.3643	0.916
6.40433	0.911
6.44437	0.901
6.48441	0.908
6.52445	0.901
6.56449	0.826
6.60453	0.845
6.64457	0.906
6.68461	0.928
6.72465	0.931
6.76469	0.923
6.80473	0.875
6.84477	0.856
6.88481	0.768
6.92485	0.475
6.96489	0.381
7.00493	0.616
7.04497	0.743
7.085	0.813
7.12504	0.828
7.16508	0.82
7.20512	0.706
7.24516	0.541
7.2852	0.605
7.32524	0.778
7.36528	0.856
7.40532	0.86
7.44536	0.803
7.4854	0.753
7.52544	0.608
7.56548	0.401
7.60552	0.558
7.64556	0.625
7.6856	0.363
7.72564	0.298
7.76567	0.463
7.80571	0.661
7.84575	0.778
7.88579	0.81
7.92583	0.795
7.96587	0.778
8.00591	0.743
8.04595	0.643
8.08599	0.363
8.12603	0.175
8.16607	0.118
8.20611	0.241
8.24615	0.183
8.28619	0.12
8.32623	0.195
8.36627	0.426
8.40631	0.585
8.44634	0.663
8.48638	0.5
8.52642	0.266
8.56646	0.551
8.6065	0.72
8.64654	0.785
8.68658	0.821
8.72662	0.843
8.76666	0.813
8.8067	0.655
8.84674	0.776
8.88678	0.836
8.92682	0.845
8.96686	0.835
9.0069	0.733
9.04694	0.808
9.08698	0.865
9.12701	0.876
9.16705	0.876
9.20709	0.876
9.24713	0.878
9.28717	0.878
9.32721	0.88
9.36725	0.88
9.40729	0.88
9.44733	0.868
9.48737	0.841
9.52741	0.838
9.56745	0.845
9.60749	0.85
9.64753	0.848
9.68757	0.801
9.72761	0.69
9.76765	0.546
9.80768	0.636
9.84772	0.741
9.88776	0.813
9.9278	0.846
9.96784	0.858
10.0079	0.873
10.0479	0.876
10.088	0.885
10.128	0.886
10.168	0.886
10.2081	0.886
10.2481	0.888
10.2882	0.881
10.3282	0.851
10.3682	0.83
10.4083	0.845
10.4483	0.838
10.4884	0.816
10.5284	0.795
10.5684	0.763
10.6085	0.733
10.6485	0.7
10.6886	0.683
10.7286	0.665
10.7686	0.635
10.8087	0.513
10.8487	0.42
10.8887	0.555
10.9288	0.695
10.9688	0.773
11.0089	0.818
11.0489	0.843
11.0889	0.861
11.129	0.876
11.169	0.886
11.2091	0.9
11.2491	0.901
11.2891	0.903
11.3292	0.905
11.3692	0.906
11.4093	0.898
11.4493	0.83
11.4893	0.64
11.5294	0.62
11.5694	0.761
11.6095	0.841
11.6495	0.87
11.6895	0.883
11.7296	0.893
11.7696	0.901
11.8097	0.901
11.8497	0.895
11.8897	0.888
11.9298	0.886
11.9698	0.89
12.0099	0.891
12.0499	0.888
12.0899	0.885
12.13	0.89
12.17	0.913
12.21	0.93
12.2501	0.948
12.2901	0.955
12.3302	0.963
12.3702	0.965
12.4102	0.968
12.4503	0.966
12.4903	0.955
12.5304	0.916
12.5704	0.885
12.6104	0.915
12.6505	0.946
12.6905	0.958
12.7306	0.963
12.7706	0.971
12.8106	0.971
12.8507	0.973
12.8907	0.973
12.9308	0.971
12.9708	0.958
13.0108	0.925
13.0509	0.833
13.0909	0.701
13.131	0.651
13.171	0.813
13.211	0.913
13.2511	0.951
13.2911	0.966
13.3312	0.98
13.3712	0.99
13.4112	0.993
13.4513	0.996
13.4913	0.996
13.5313	0.995
13.5714	0.995
13.6114	0.995
13.6515	0.995
13.6915	0.995
13.7315	0.995
13.7716	0.995
13.8116	0.995
13.8517	0.996
13.8917	0.995
13.9317	0.99
13.9718	0.983
14.0118	0.966
14.0519	0.95
14.0919	0.906
14.1319	0.833
14.172	0.738
14.212	0.68
14.2521	0.68
14.2921	0.75
14.3321	0.803
14.3722	0.841
14.4122	0.855
14.4523	0.86
14.4923	0.86
14.5323	0.861
14.5724	0.863
14.6124	0.863
14.6525	0.861
14.6925	0.851
14.7325	0.843
14.7726	0.823
14.8126	0.788
14.8527	0.753
14.8927	0.7
14.9327	0.686
14.9728	0.723
15.0128	0.745
15.0528	0.753
15.0929	0.756
15.1329	0.758
15.173	0.758
15.213	0.76
15.253	0.761
15.2931	0.761
15.3331	0.761
15.3732	0.761
15.4132	0.763
15.4532	0.765
15.4933	0.766
15.5333	0.768
15.5734	0.77
15.6134	0.773
15.6534	0.773
15.6935	0.775
15.7335	0.778
15.7736	0.78
15.8136	0.778
15.8536	0.773
15.8937	0.77
15.9337	0.765
15.9738	0.761
