Infrared Spectrum: 2-Propanol, 2-methyl-1,1,1-trichloro-, dihydrate
Formula: C4 H7 Cl3 O  * 2 H2 O
State: SOLUTION (CCl4 FOR 2-10.6, CS2 FOR 9.6-16 MICRON) VS SOLVENT
Melting point: 76-78 C
Class: COBLENTZ III
Instrument: BAIRD (GRATING)
Instrument parameters: NaCl PRISM
Path length: 0.01 CM, AND 0.01 CM , REFERENCE CELLS : 0.005 CM
Resolution: 2
Origin: WYANDOTTE CHEMICALS CORP.
1/CM	TRANSMITTANCE
626	0.7969
635	0.8071
644	0.8231
653	0.8429
662	0.8621
671	0.8742
680	0.8846
689	0.8927
698	0.8907
707	0.8877
716	0.8836
725	0.8757
734	0.8454
743	0.7854
752	0.7242
761	0.6717
770	0.5633
779	0.2022
788	0.0425
797	0.0523
806	0.3105
815	0.3322
824	0.0349
833	0.2736
842	0.4338
851	0.6385
860	0.7655
869	0.792
878	0.7936
887	0.7925
896	0.7287
905	0.4027
914	0.4287
923	0.7832
932	0.8387
941	0.8606
950	0.7973
959	0.7213
968	0.5465
977	0.2056
986	0.323
995	0.5715
1004	0.4085
1013	0.5808
1022	0.7007
1031	0.7768
1040	0.8137
1049	0.821
1058	0.812
1067	0.7998
1076	0.7844
1085	0.7585
1094	0.7089
1103	0.6177
1112	0.3335
1121	0.0795
1130	0.1814
1139	0.2105
1148	0.3045
1157	0.408
1166	0.3957
1175	0.1995
1184	0.0814
1193	0.084
1202	0.1046
1211	0.2922
1220	0.5138
1229	0.6385
1238	0.7199
1247	0.7404
1256	0.7423
1265	0.7448
1274	0.7702
1283	0.7984
1292	0.8027
1301	0.7903
1310	0.7343
1319	0.6135
1328	0.3215
1337	0.0923
1346	0.2419
1355	0.3602
1364	0.3777
1373	0.1632
1382	0.2096
1391	0.2408
1400	0.4668
1409	0.6562
1418	0.7034
1427	0.736
1436	0.729
1445	0.6526
1454	0.6427
1463	0.4554
1472	0.3166
1481	0.6011
1490	0.7476
1499	0.8099
1508	0.8244
1517	0.8101
1526	0.7878
1535	0.7701
1544	0.7503
1553	0.7243
1562	0.7243
1571	0.7504
1580	0.7719
1589	0.7898
1598	0.7958
1607	0.8055
1616	0.818
1625	0.8328
1634	0.8471
1643	0.868
1652	0.8882
1661	0.8976
1670	0.9003
1679	0.9117
1688	0.9228
1697	0.9291
1706	0.937
1715	0.9437
1724	0.9445
1733	0.9512
1742	0.9517
1751	0.9525
1760	0.9539
1769	0.9548
1778	0.9538
1787	0.9521
1796	0.9504
1805	0.9501
1814	0.9502
1823	0.9509
1832	0.9517
1841	0.9525
1850	0.9522
1859	0.9509
1868	0.9497
1877	0.949
1886	0.9499
1895	0.954
1904	0.9573
1913	0.9582
1922	0.9583
1931	0.9579
1940	0.9573
1949	0.9567
1958	0.9558
1967	0.9549
1976	0.9541
1985	0.9532
1994	0.9524
2003	0.9517
2012	0.9507
2021	0.9497
2030	0.9489
2039	0.9487
2048	0.9484
2057	0.9483
2066	0.9486
2075	0.9489
2084	0.9491
2093	0.9493
2102	0.9496
2111	0.95
2120	0.9504
2129	0.9508
2138	0.9507
2147	0.9501
2156	0.9495
2165	0.9489
2174	0.9482
2183	0.9473
2192	0.9462
2201	0.9425
2210	0.9409
2219	0.9396
2228	0.9384
2237	0.9372
2246	0.9367
2255	0.9372
2264	0.9375
2273	0.9381
2282	0.9386
2291	0.9391
2300	0.9397
2309	0.9407
2318	0.9383
2327	0.9357
2336	0.9338
2345	0.9322
2354	0.932
2363	0.9317
2372	0.9319
2381	0.9321
2390	0.9317
2399	0.9305
2408	0.9282
2417	0.9258
2426	0.924
2435	0.9237
2444	0.9242
2453	0.9252
2462	0.9263
2471	0.9274
2480	0.9284
2489	0.9294
2498	0.9302
2507	0.93
2516	0.9298
2525	0.9296
2534	0.9293
2543	0.9291
2552	0.9289
2561	0.9287
2570	0.9285
2579	0.9281
2588	0.9272
2597	0.9264
2606	0.9255
2615	0.9248
2624	0.9235
2633	0.9223
2642	0.9211
2651	0.9198
2660	0.9183
2669	0.9168
2678	0.9146
2687	0.9115
2696	0.9082
2705	0.9047
2714	0.9017
2723	0.9008
2732	0.8999
2741	0.8991
2750	0.8986
2759	0.8981
2768	0.8977
2777	0.8949
2786	0.8903
2795	0.884
2804	0.8751
2813	0.8649
2822	0.8532
2831	0.8419
2840	0.8307
2849	0.8195
2858	0.8057
2867	0.7916
2876	0.7757
2885	0.7595
2894	0.7451
2903	0.7338
2912	0.723
2921	0.7094
2930	0.6937
2939	0.6504
2948	0.5754
2957	0.5578
2966	0.5749
2975	0.5929
2984	0.573
2993	0.5206
3002	0.4774
3011	0.5381
3020	0.6216
3029	0.7047
3038	0.7866
3047	0.8358
3056	0.8753
3065	0.8777
3074	0.8775
3083	0.8764
3092	0.8749
3101	0.8726
3110	0.8697
3119	0.8676
3128	0.8651
3137	0.8611
3146	0.8557
3155	0.8483
3164	0.838
3173	0.8273
3182	0.8153
3191	0.8033
3200	0.7885
3209	0.773
3218	0.7575
3227	0.7421
3236	0.723
3245	0.6965
3254	0.6701
3263	0.6439
3272	0.6179
3281	0.5919
3290	0.5661
3299	0.5405
3308	0.4972
3317	0.4667
3326	0.4438
3335	0.4179
3344	0.3896
3353	0.3719
3362	0.3619
3371	0.3533
3380	0.346
3389	0.34
3398	0.335
3407	0.3322
3416	0.3305
3425	0.3303
3434	0.3301
3443	0.3313
3452	0.333
3461	0.3355
3470	0.343
3479	0.3544
3488	0.3704
3497	0.409
3506	0.4307
3515	0.4514
3524	0.471
3533	0.4877
3542	0.5037
3551	0.5192
3560	0.5285
3569	0.5363
3578	0.5409
3587	0.5452
3596	0.5492
3605	0.5671
3614	0.6154
3623	0.6632
3632	0.7108
3641	0.7581
3650	0.8053
3659	0.845
3668	0.8622
3677	0.8733
3686	0.883
3695	0.8928
3704	0.9022
3713	0.9063
3722	0.9102
3731	0.9139
3740	0.9182
3749	0.9226
3758	0.9267
3767	0.9307
3776	0.9338
3785	0.9359
3794	0.9369
3803	0.9374
3812	0.9374
3821	0.9373
3830	0.9366
3839	0.936
3848	0.9351
3857	0.9339
3866	0.9327
3875	0.932
3884	0.9318
3893	0.9316
3902	0.9317
3911	0.9318
3920	0.9321
3929	0.9322
3938	0.9324
3947	0.9328
3956	0.9332
3965	0.9336
3974	0.9339
3983	0.9343
3992	0.9348
