Infrared Spectrum: PIPERAZINE, 1,4-DIAMINO-, DIHYDRATE
Formula: C4 H12 N4  * 2 H2 O
State: SOLID (OIL MULL)
Class: COBLENTZ III
Instrument: BAIRD (GRATING)
Instrument parameters: NaCl PRISM
Sampling: TRANSMISSION
Resolution: 2
Origin: WYANDOTTE CHEMICALS CORP.
1/CM	TRANSMITTANCE
4000	0.9384
3991	0.9378
3982	0.9377
3973	0.9378
3964	0.9378
3955	0.938
3946	0.938
3937	0.9397
3928	0.9418
3919	0.9438
3910	0.9453
3901	0.9465
3892	0.9473
3883	0.9477
3874	0.9471
3865	0.9446
3856	0.9395
3847	0.9346
3838	0.9298
3829	0.9247
3820	0.9191
3811	0.9166
3802	0.9162
3793	0.9159
3784	0.9156
3775	0.9148
3766	0.9136
3757	0.9105
3748	0.9065
3739	0.9013
3730	0.8942
3721	0.887
3712	0.8741
3703	0.8603
3694	0.8495
3685	0.84
3676	0.8303
3667	0.8171
3658	0.8018
3649	0.786
3640	0.7696
3631	0.7495
3622	0.7258
3613	0.6992
3604	0.6373
3595	0.6205
3586	0.6064
3577	0.5946
3568	0.5833
3559	0.5677
3550	0.5489
3541	0.5283
3532	0.4986
3523	0.4688
3514	0.4388
3505	0.4087
3496	0.3784
3487	0.348
3478	0.3174
3469	0.2866
3460	0.2557
3451	0.2269
3442	0.2036
3433	0.1818
3424	0.1699
3415	0.1595
3406	0.1478
3397	0.134
3388	0.1205
3379	0.1121
3370	0.1045
3361	0.0968
3352	0.0921
3343	0.0892
3334	0.0885
3325	0.0879
3316	0.0876
3307	0.0875
3298	0.0862
3289	0.0834
3280	0.0803
3271	0.0771
3262	0.074
3253	0.071
3244	0.0679
3235	0.0647
3226	0.0614
3217	0.0581
3208	0.0557
3199	0.056
3190	0.0566
3181	0.0567
3172	0.0548
3163	0.0518
3154	0.0486
3145	0.046
3136	0.0434
3127	0.0415
3118	0.0401
3109	0.0394
3100	0.0403
3091	0.0453
3082	0.0502
3073	0.0539
3064	0.0561
3055	0.0577
3046	0.0591
3037	0.0595
3028	0.0593
3019	0.0587
3010	0.0555
3001	0.0482
2992	0.0409
2983	0.0355
2974	0.0316
2965	0.0302
2956	0.0295
2947	0.0292
2938	0.0289
2929	0.0286
2920	0.0287
2911	0.0289
2902	0.029
2893	0.0292
2884	0.0296
2875	0.0304
2866	0.0313
2857	0.0324
2848	0.0334
2839	0.0352
2830	0.0386
2821	0.053
2812	0.0969
2803	0.1923
2794	0.2381
2785	0.3113
2776	0.3382
2767	0.3545
2758	0.3736
2749	0.3952
2740	0.4112
2731	0.4272
2722	0.4497
2713	0.4846
2704	0.5192
2695	0.5415
2686	0.5494
2677	0.5541
2668	0.5607
2659	0.5942
2650	0.6269
2641	0.645
2632	0.6611
2623	0.6753
2614	0.689
2605	0.7012
2596	0.7133
2587	0.7228
2578	0.7328
2569	0.7428
2560	0.7522
2551	0.76
2542	0.7651
2533	0.7665
2524	0.7683
2515	0.7715
2506	0.7753
2497	0.7798
2488	0.7882
2479	0.7991
2470	0.8062
2461	0.8086
2452	0.8084
2443	0.8067
2434	0.8037
2425	0.7978
2416	0.791
2407	0.7835
2398	0.7753
2389	0.7662
2380	0.7569
2371	0.7476
2362	0.7378
2353	0.7258
2344	0.7115
2335	0.7078
2326	0.7108
2317	0.7136
2308	0.716
2299	0.7175
2290	0.7176
2281	0.7141
2272	0.6968
2263	0.6739
2254	0.6654
2245	0.6655
2236	0.6724
2227	0.6849
2218	0.6964
2209	0.7061
2200	0.7158
2191	0.7255
2182	0.7351
2173	0.7445
2164	0.7551
2155	0.7684
2146	0.7828
2137	0.8032
2128	0.8231
2119	0.8356
2110	0.8414
2101	0.8496
2092	0.8582
2083	0.8671
2074	0.8759
2065	0.8844
2056	0.8921
2047	0.897
2038	0.9014
2029	0.9059
2020	0.9111
2011	0.9177
2002	0.9266
1993	0.9391
1984	0.9425
1975	0.9465
1966	0.9557
1957	0.9641
1948	0.9628
1939	0.9601
1930	0.9585
1921	0.9571
1912	0.963
1903	0.9661
1894	0.969
1885	0.9711
1876	0.9731
1867	0.9756
1858	0.9786
1849	0.9777
1840	0.9628
1831	0.9606
1822	0.9638
1813	0.9636
1804	0.9578
1795	0.9496
1786	0.9399
1777	0.9301
1768	0.92
1759	0.9097
1750	0.8992
1741	0.8861
1732	0.8468
1723	0.8097
1714	0.7642
1705	0.7422
1696	0.7381
1687	0.7371
1678	0.729
1669	0.6089
1660	0.4118
1651	0.2598
1642	0.277
1633	0.3134
1624	0.5626
1615	0.6435
1606	0.6688
1597	0.6905
1588	0.715
1579	0.721
1570	0.7399
1561	0.7392
1552	0.7304
1543	0.7381
1534	0.7249
1525	0.7212
1516	0.6996
1507	0.651
1498	0.5503
1489	0.4232
1480	0.2255
1471	0.0588
1462	0.0541
1453	0.1866
1444	0.365
1435	0.5624
1426	0.5897
1417	0.5551
1408	0.4446
1399	0.2176
1390	0.1739
1381	0.1429
1372	0.2599
1363	0.3209
1354	0.2212
1345	0.4157
1336	0.5487
1327	0.5903
1318	0.6005
1309	0.6098
1300	0.622
1291	0.6032
1282	0.2902
1273	0.5122
1264	0.5798
1255	0.6259
1246	0.6688
1237	0.6724
1228	0.6572
1219	0.6104
1210	0.5253
1201	0.3237
1192	0.2151
1183	0.3692
1174	0.269
1165	0.4748
1156	0.6368
1147	0.7018
1138	0.7172
1129	0.6738
1120	0.248
1111	0.4209
1102	0.7418
1093	0.6733
1084	0.276
1075	0.2664
1066	0.1793
1057	0.3725
1048	0.5974
1039	0.6896
1030	0.7488
1021	0.7893
1012	0.8018
1003	0.5365
994	0.3326
985	0.6078
976	0.7087
967	0.7406
958	0.7524
949	0.7471
940	0.4604
931	0.6421
922	0.7365
913	0.7545
904	0.7589
895	0.7465
886	0.7358
877	0.7101
868	0.6632
859	0.6126
850	0.5604
841	0.503
832	0.4358
823	0.2782
814	0.0715
805	0.2892
796	0.3922
787	0.4484
778	0.4709
769	0.4607
760	0.426
751	0.382
742	0.342
733	0.3312
724	0.328
715	0.3404
706	0.3524
697	0.3209
688	0.2943
679	0.2972
670	0.3352
661	0.3952
652	0.4126
643	0.4389
634	0.461
625	0.489
