Infrared Spectrum: Ammonium chloride, tetrapropyl-, hydrate
Formula: C12 H28 Cl N  * ( H2 O) X
State: SOLID (SPLIT MULL), FLUOROLUBE FOR 3800-1330 CM^-^1, NUJOL FOR 1330-460 CM^-^1
Class: COBLENTZ III
Instrument: DOW KBr FOREPRISM-GRATING
Instrument parameters: BLAZED AT 3.5, 12.0, 20.0 MICRON AND CHANGED AT 5.0, 7.5, 14.9 MICRON
Resolution: 2
Origin: DOW CHEMICAL COMPANY
1/CM	TRANSMITTANCE
455	0.6266
464	0.6191
473	0.612
482	0.597
491	0.5719
500	0.5379
509	0.4947
518	0.4469
527	0.3934
536	0.383
545	0.4382
554	0.4946
563	0.473
572	0.485
581	0.4532
590	0.3948
599	0.4227
608	0.5473
617	0.5983
626	0.6376
635	0.6611
644	0.6792
653	0.693
662	0.6994
671	0.7324
680	0.7506
689	0.7542
698	0.7582
707	0.7445
716	0.7094
725	0.6981
734	0.7198
743	0.6913
752	0.6547
761	0.5235
770	0.3779
779	0.6761
788	0.7625
797	0.7753
806	0.7762
815	0.7736
824	0.7668
833	0.7485
842	0.6859
851	0.6045
860	0.7395
869	0.7631
878	0.7604
887	0.7524
896	0.7355
905	0.6694
914	0.7126
923	0.7196
932	0.6777
941	0.6909
950	0.6774
959	0.5959
968	0.2314
977	0.3754
986	0.6478
995	0.6695
1004	0.6158
1013	0.6211
1022	0.6834
1031	0.638
1040	0.6767
1049	0.6806
1058	0.5885
1067	0.6911
1076	0.7137
1085	0.725
1094	0.7149
1103	0.6829
1112	0.7297
1121	0.7334
1130	0.7248
1139	0.719
1148	0.722
1157	0.6576
1166	0.7225
1175	0.7356
1184	0.7428
1193	0.7532
1202	0.7538
1211	0.7597
1220	0.7636
1229	0.7614
1238	0.7529
1247	0.7271
1256	0.7153
1265	0.7098
1274	0.6834
1283	0.6613
1292	0.6887
1301	0.677
1310	0.6464
1319	0.6493
1328	0.5805
1337	0.5769
1346	0.4951
1355	0.5903
1364	0.6369
1373	0.5901
1382	0.4443
1391	0.5045
1400	0.6813
1409	0.7056
1418	0.717
1427	0.6858
1436	0.6178
1445	0.5767
1454	0.4585
1463	0.3729
1472	0.5102
1481	0.4543
1490	0.0664
1499	0.5738
1508	0.7592
1517	0.7767
1526	0.7855
1535	0.7905
1544	0.7958
1553	0.7991
1562	0.8003
1571	0.8005
1580	0.8007
1589	0.7973
1598	0.7778
1607	0.746
1616	0.6426
1625	0.5252
1634	0.7581
1643	0.7837
1652	0.7956
1661	0.7979
1670	0.7974
1679	0.7965
1688	0.7979
1697	0.8011
1706	0.8031
1715	0.8044
1724	0.8069
1733	0.8034
1742	0.8055
1751	0.8057
1760	0.8057
1769	0.8063
1778	0.8043
1787	0.8033
1796	0.8028
1805	0.802
1814	0.8011
1823	0.8006
1832	0.8005
1841	0.8003
1850	0.8001
1859	0.8
1868	0.7996
1877	0.7991
1886	0.7987
1895	0.7995
1904	0.7984
1913	0.7972
1922	0.796
1931	0.7949
1940	0.7946
1949	0.7946
1958	0.7947
1967	0.7939
1976	0.7932
1985	0.7913
1994	0.7903
2003	0.7984
2012	0.7981
2021	0.7964
2030	0.7935
2039	0.7907
2048	0.7865
2057	0.7817
2066	0.7768
2075	0.7718
2084	0.7647
2093	0.7552
2102	0.7429
2111	0.7315
2120	0.731
2129	0.7423
2138	0.7541
2147	0.7571
2156	0.755
2165	0.749
2174	0.74
2183	0.7292
2192	0.7277
2201	0.7326
2210	0.7393
2219	0.7402
2228	0.7401
2237	0.7394
2246	0.7385
2255	0.737
2264	0.7346
2273	0.7317
2282	0.7278
2291	0.7267
2300	0.7278
2309	0.7304
2318	0.732
2327	0.7317
2336	0.7293
2345	0.7258
2354	0.7226
2363	0.7195
2372	0.7177
2381	0.7185
2390	0.7197
2399	0.7128
2408	0.7114
2417	0.7139
2426	0.7125
2435	0.7142
2444	0.718
2453	0.7179
2462	0.7169
2471	0.7176
2480	0.7191
2489	0.7166
2498	0.7155
2507	0.716
2516	0.7157
2525	0.7124
2534	0.7092
2543	0.7064
2552	0.7027
2561	0.6989
2570	0.695
2579	0.6903
2588	0.685
2597	0.6806
2606	0.6818
2615	0.681
2624	0.674
2633	0.673
2642	0.6715
2651	0.6685
2660	0.6646
2669	0.66
2678	0.6552
2687	0.65
2696	0.6443
2705	0.638
2714	0.627
2723	0.6071
2732	0.5886
2741	0.5974
2750	0.6107
2759	0.6039
2768	0.596
2777	0.589
2786	0.5835
2795	0.577
2804	0.5668
2813	0.5505
2822	0.5311
2831	0.5082
2840	0.4854
2849	0.4524
2858	0.3843
2867	0.3015
2876	0.1604
2885	0.2654
2894	0.3383
2903	0.2736
2912	0.2754
2921	0.2523
2930	0.2191
2939	0.1872
2948	0.2066
2957	0.1514
2966	0.0845
2975	0.149
2984	0.235
2993	0.4193
3002	0.5434
3011	0.629
3020	0.6348
3029	0.6354
3038	0.6354
3047	0.6336
3056	0.6314
3065	0.6298
3074	0.6298
3083	0.6305
3092	0.6331
3101	0.6361
3110	0.6361
3119	0.6337
3128	0.6301
3137	0.624
3146	0.6181
3155	0.6122
3164	0.6057
3173	0.5988
3182	0.5906
3191	0.5808
3200	0.5699
3209	0.5569
3218	0.5436
3227	0.526
3236	0.5047
3245	0.4397
3254	0.4805
3263	0.5161
3272	0.5281
3281	0.5231
3290	0.5143
3299	0.5019
3308	0.4854
3317	0.4662
3326	0.4476
3335	0.4268
3344	0.4072
3353	0.3765
3362	0.3462
3371	0.2918
3380	0.221
3389	0.1574
3398	0.1662
3407	0.2427
3416	0.2827
3425	0.299
3434	0.2898
3443	0.2598
3452	0.2268
3461	0.1904
3470	0.1521
3479	0.1607
3488	0.1887
3497	0.2152
3506	0.2447
3515	0.2828
3524	0.3304
3533	0.3832
3542	0.4165
3551	0.4577
3560	0.4854
3569	0.4964
3578	0.5033
3587	0.5174
3596	0.5389
3605	0.5654
3614	0.5782
3623	0.5863
3632	0.5891
3641	0.5889
3650	0.5883
3659	0.5858
3668	0.584
3677	0.5821
3686	0.58
3695	0.5777
3704	0.5758
3713	0.5741
3722	0.5727
3731	0.5717
3740	0.5706
3749	0.5694
3758	0.5682
3767	0.5664
3776	0.5648
3785	0.563
3794	0.5612
