Infrared Spectrum: PHENETHYLAMINE, d-N,Alpha-DIMETHYL-, HYDROCHLORIDE
Formula: C10 H16 Cl N
State: SOLID (0.9 mg / 200 mg KCl DISC)
Melting point: 170-175 C
Class: COBLENTZ III
Instrument: PERKIN-ELMER 21 (GRATING)
Instrument parameters: FILTER AT ABOUT 10 MICRONS
Sampling: TRANSMISSION
Resolution: 2
1/CM	TRANSMITTANCE
4000	0.7908
3991	0.7906
3982	0.7907
3973	0.7908
3964	0.7911
3955	0.7914
3946	0.7917
3937	0.7918
3928	0.7928
3919	0.7942
3910	0.7955
3901	0.7968
3892	0.7984
3883	0.7998
3874	0.8012
3865	0.8028
3856	0.8043
3847	0.8058
3838	0.8072
3829	0.8089
3820	0.8104
3811	0.8117
3802	0.8128
3793	0.8139
3784	0.815
3775	0.8161
3766	0.8165
3757	0.8169
3748	0.8175
3739	0.8175
3730	0.8175
3721	0.8174
3712	0.8174
3703	0.818
3694	0.8188
3685	0.8195
3676	0.8202
3667	0.821
3658	0.8223
3649	0.8241
3640	0.8258
3631	0.8275
3622	0.8294
3613	0.8315
3604	0.8341
3595	0.8368
3586	0.8395
3577	0.8425
3568	0.8464
3559	0.8504
3550	0.8544
3541	0.8594
3532	0.8646
3523	0.8703
3514	0.877
3505	0.8835
3496	0.8883
3487	0.8931
3478	0.8974
3469	0.901
3460	0.9046
3451	0.9071
3442	0.9085
3433	0.9099
3424	0.9112
3415	0.9125
3406	0.9137
3397	0.915
3388	0.9163
3379	0.917
3370	0.9177
3361	0.9183
3352	0.9189
3343	0.9194
3334	0.9195
3325	0.9196
3316	0.9197
3307	0.9199
3298	0.9203
3289	0.9201
3280	0.9195
3271	0.9187
3262	0.916
3253	0.9139
3244	0.9124
3235	0.9124
3226	0.9128
3217	0.9132
3208	0.9131
3199	0.9127
3190	0.9068
3181	0.8921
3172	0.8816
3163	0.8761
3154	0.8751
3145	0.8746
3136	0.8744
3127	0.8727
3118	0.8703
3109	0.8637
3100	0.8551
3091	0.8452
3082	0.8345
3073	0.8188
3064	0.8021
3055	0.7843
3046	0.763
3037	0.7406
3028	0.7182
3019	0.6972
3010	0.6197
3001	0.5703
2992	0.5207
2983	0.4708
2974	0.4206
2965	0.37
2956	0.3395
2947	0.3366
2938	0.3377
2929	0.3418
2920	0.3509
2911	0.3721
2902	0.3999
2893	0.4279
2884	0.456
2875	0.479
2866	0.4797
2857	0.4605
2848	0.4308
2839	0.4009
2830	0.3709
2821	0.3532
2812	0.3436
2803	0.3035
2794	0.2746
2785	0.2657
2776	0.2597
2767	0.2532
2758	0.2443
2749	0.2309
2740	0.2103
2731	0.1769
2722	0.1548
2713	0.146
2704	0.1449
2695	0.1489
2686	0.1768
2677	0.2066
2668	0.2365
2659	0.2668
2650	0.2971
2641	0.3277
2632	0.3591
2623	0.3962
2614	0.4269
2605	0.4503
2596	0.4676
2587	0.4839
2578	0.5014
2569	0.522
2560	0.536
2551	0.5422
2542	0.5451
2533	0.555
2524	0.5679
2515	0.5758
2506	0.5732
2497	0.5698
2488	0.5724
2479	0.5826
2470	0.5885
2461	0.5889
2452	0.4753
2443	0.3466
2434	0.3487
2425	0.414
2416	0.4567
2407	0.4716
2398	0.506
2389	0.5451
2380	0.5844
2371	0.623
2362	0.6297
2353	0.6306
2344	0.6335
2335	0.6375
2326	0.6436
2317	0.6558
2308	0.6758
2299	0.6961
2290	0.7135
2281	0.7276
2272	0.7384
2263	0.7442
2254	0.7496
2245	0.754
2236	0.7582
2227	0.7624
2218	0.7667
2209	0.7711
2200	0.7755
2191	0.78
2182	0.7843
2173	0.7887
2164	0.7928
2155	0.7961
2146	0.799
2137	0.8015
2128	0.804
2119	0.8051
2110	0.8061
2101	0.8085
2092	0.8096
2083	0.8093
2074	0.8042
2065	0.7825
2056	0.7691
2047	0.7751
2038	0.7945
2029	0.8048
2020	0.8125
2011	0.8193
2002	0.8244
1993	0.8288
1984	0.8321
1975	0.83
1966	0.8233
1957	0.8138
1948	0.8078
1939	0.8193
1930	0.8318
1921	0.8394
1912	0.8396
1903	0.8384
1894	0.8358
1885	0.8256
1876	0.8164
1867	0.8232
1858	0.8288
1849	0.8339
1840	0.8378
1831	0.8384
1822	0.8363
1813	0.823
1804	0.8206
1795	0.8318
1786	0.837
1777	0.8357
1768	0.8378
1759	0.8383
1750	0.838
1741	0.8423
1732	0.8431
1723	0.8395
1714	0.8468
1705	0.8547
1696	0.857
1687	0.8592
1678	0.8612
1669	0.8611
1660	0.8594
1651	0.8596
1642	0.861
1633	0.8675
1624	0.8689
1615	0.8605
1606	0.6932
1597	0.7208
1588	0.7832
1579	0.8194
1570	0.8428
1561	0.8559
1552	0.859
1543	0.856
1534	0.8631
1525	0.8704
1516	0.8749
1507	0.8612
1498	0.756
1489	0.4512
1480	0.5471
1471	0.6038
1462	0.6935
1453	0.4659
1444	0.6339
1435	0.6245
1426	0.6686
1417	0.7621
1408	0.7998
1399	0.8162
1390	0.6953
1381	0.6468
1372	0.7894
1363	0.8054
1354	0.6224
1345	0.7497
1336	0.7707
1327	0.8131
1318	0.8274
1309	0.7675
1300	0.8048
1291	0.8407
1282	0.8567
1273	0.863
1264	0.868
1255	0.8749
1246	0.8809
1237	0.8854
1228	0.8914
1219	0.897
1210	0.8902
1201	0.8848
1192	0.7769
1183	0.7872
1174	0.8512
1165	0.8433
1156	0.8225
1147	0.8762
1138	0.8902
1129	0.9021
1120	0.904
1111	0.8001
1102	0.7835
1093	0.8217
1084	0.7808
1075	0.7354
1066	0.8262
1057	0.5516
1048	0.7738
1039	0.748
1030	0.8214
1021	0.7405
1012	0.7934
1003	0.8528
994	0.8696
985	0.8406
976	0.885
967	0.8828
958	0.8977
949	0.9034
940	0.9087
931	0.9085
922	0.8254
913	0.804
904	0.8951
895	0.8975
886	0.8868
877	0.902
868	0.9224
859	0.9255
850	0.9228
841	0.9241
832	0.9143
823	0.937
814	0.9428
805	0.9362
796	0.9389
787	0.945
778	0.9528
769	0.9538
760	0.9288
751	0.4383
742	0.7078
733	0.8734
724	0.9241
715	0.9401
706	0.8377
697	0.4362
688	0.831
679	0.881
