Infrared Spectrum: Oxadiazole, 1,2,4-, 5-(4-butoxyphenyl)-3-(5-nitrofuran-2-yl)-
Formula: C16 H15 N3 O5
State: SOLUTION (7% CHCl3) VS SOLVENT
Melting point: 132 C
Class: COBLENTZ III
Instrument: PERKIN-ELMER 421 (GRATING)
Instrument parameters: GRATINGS: 1999 CM^-^1
Sampling: TRANSMISSION
Path length: 0.01 CM
Resolution: 2
Origin: ABBOTT LABORATORIES - WASHBURN
1/CM	TRANSMITTANCE
663	0.857
672	0.8545
681	0.8291
690	0.7963
699	0.7702
708	0.7076
717	0.6697
726	0.6692
735	0.6717
744	0.672
753	0.6713
762	0.6712
771	0.6713
780	0.67
789	0.6596
798	0.5355
807	0.2631
816	0.5816
825	0.7744
834	0.4432
843	0.4783
852	0.8407
861	0.8475
870	0.8008
879	0.8294
888	0.7952
897	0.6341
906	0.6625
915	0.8281
924	0.8401
933	0.8495
942	0.8287
951	0.77
960	0.5956
969	0.5959
978	0.7466
987	0.6795
996	0.6295
1005	0.5662
1014	0.2211
1023	0.6298
1032	0.6877
1041	0.8028
1050	0.7901
1059	0.6663
1068	0.708
1077	0.7308
1086	0.851
1095	0.8783
1104	0.8611
1113	0.7466
1122	0.808
1131	0.8447
1140	0.7224
1149	0.7121
1158	0.6595
1167	0.1087
1176	0.4225
1185	0.6606
1194	0.5561
1203	0.4525
1212	0.4425
1221	0.4441
1230	0.3908
1239	0.1934
1248	0.0993
1257	0.0783
1266	0.2034
1275	0.4035
1284	0.5894
1293	0.52
1302	0.1209
1311	0.1677
1320	0.2043
1329	0.0813
1338	0.0656
1347	0.0464
1356	0.2146
1365	0.4557
1374	0.3396
1383	0.5458
1392	0.5848
1401	0.3187
1410	0.4323
1419	0.4871
1428	0.4838
1437	0.5453
1446	0.5809
1455	0.3679
1464	0.3497
1473	0.5569
1482	0.569
1491	0.0899
1500	0.0878
1509	0.2714
1518	0.2208
1527	0.4894
1536	0.4754
1545	0.3237
1554	0.2398
1563	0.601
1572	0.5933
1581	0.3125
1590	0.5078
1599	0.127
1608	0.0684
1617	0.4701
1626	0.7184
1635	0.8064
1644	0.8254
1653	0.8374
1662	0.8478
1671	0.8628
1680	0.8749
1689	0.8733
1698	0.8779
1707	0.8831
1716	0.887
1725	0.8875
1734	0.8855
1743	0.8781
1752	0.8645
1761	0.8506
1770	0.8548
1779	0.866
1788	0.8812
1797	0.8875
1806	0.8879
1815	0.8863
1824	0.8897
1833	0.8944
1842	0.8947
1851	0.8947
1860	0.8947
1869	0.8935
1878	0.8889
1887	0.882
1896	0.8782
1905	0.8773
1914	0.8802
1923	0.8843
1932	0.889
1941	0.8954
1950	0.8962
1959	0.8946
1968	0.8928
1977	0.8907
1986	0.8892
1995	0.888
2004	0.8814
2013	0.8804
2022	0.8805
2031	0.8808
2040	0.8835
2049	0.8854
2058	0.8864
2067	0.8874
2076	0.8909
2085	0.8911
2094	0.8917
2103	0.8921
2112	0.8924
2121	0.8933
2130	0.8946
2139	0.8968
2148	0.8976
2157	0.8932
2166	0.8933
2175	0.8988
2184	0.8974
2193	0.8964
2202	0.8951
2211	0.8945
2220	0.8939
2229	0.894
2238	0.8941
2247	0.8942
2256	0.8943
2265	0.8941
2274	0.8937
2283	0.8927
2292	0.8925
2301	0.8923
2310	0.8875
2319	0.8799
2328	0.8797
2337	0.8828
2346	0.8853
2355	0.8865
2364	0.8868
2373	0.8867
2382	0.8866
2391	0.8849
2400	0.8814
2409	0.8778
2418	0.8743
2427	0.8714
2436	0.8706
2445	0.874
2454	0.8756
2463	0.8739
2472	0.8687
2481	0.8591
2490	0.8703
2499	0.8734
2508	0.8703
2517	0.8695
2526	0.8708
2535	0.8739
2544	0.8713
2553	0.8625
2562	0.8535
2571	0.852
2580	0.8561
2589	0.8598
2598	0.8642
2607	0.8665
2616	0.8695
2625	0.869
2634	0.8674
2643	0.8657
2652	0.8643
2661	0.8634
2670	0.8635
2679	0.8643
2688	0.8632
2697	0.8636
2706	0.8586
2715	0.8566
2724	0.8603
2733	0.8571
2742	0.8517
2751	0.8453
2760	0.8423
2769	0.8456
2778	0.8436
2787	0.8386
2796	0.833
2805	0.8298
2814	0.8285
2823	0.815
2832	0.7992
2841	0.7696
2850	0.7498
2859	0.6984
2868	0.5593
2877	0.589
2886	0.6939
2895	0.6731
2904	0.6469
2913	0.6243
2922	0.5536
2931	0.4774
2940	0.4811
2949	0.4655
2958	0.4053
2967	0.5096
2976	0.6604
2985	0.7217
2994	0.7165
3003	0.664
3012	0.6566
3021	0.6557
3030	0.6637
3039	0.7053
3048	0.7435
3057	0.7663
3066	0.7783
3075	0.7819
3084	0.7853
3093	0.789
3102	0.7835
3111	0.7769
3120	0.76
3129	0.7226
3138	0.6821
3147	0.6616
3156	0.7455
3165	0.7845
3174	0.8027
3183	0.8129
3192	0.8211
3201	0.8258
3210	0.8286
3219	0.8303
3228	0.8358
3237	0.8434
3246	0.8528
3255	0.8573
3264	0.8601
3273	0.8619
3282	0.8622
3291	0.8622
3300	0.862
3309	0.8619
3318	0.8624
3327	0.8632
3336	0.8638
3345	0.8637
3354	0.863
3363	0.8623
3372	0.8618
3381	0.8612
3390	0.8606
3399	0.8601
3408	0.8596
3417	0.8591
3426	0.8588
3435	0.8586
3444	0.8584
3453	0.8582
3462	0.859
3471	0.8598
3480	0.8605
3489	0.8608
3498	0.8612
3507	0.8623
3516	0.8635
3525	0.8634
3534	0.8632
3543	0.8622
3552	0.861
3561	0.8559
3570	0.8525
3579	0.8427
3588	0.8536
3597	0.8563
3606	0.8549
3615	0.8563
3624	0.8546
3633	0.8525
3642	0.8511
3651	0.8508
3660	0.8505
3669	0.8506
3678	0.8515
3687	0.8526
3696	0.853
3705	0.853
3714	0.8531
3723	0.8533
3732	0.8535
3741	0.8535
3750	0.8534
3759	0.8534
3768	0.8522
3777	0.8507
3786	0.8492
3795	0.8486
3804	0.8484
3813	0.8482
3822	0.8478
3831	0.8474
3840	0.8469
3849	0.8462
3858	0.8453
3867	0.8444
3876	0.8434
3885	0.8427
3894	0.8424
3903	0.8422
3912	0.8419
3921	0.8414
3930	0.8407
3939	0.8401
3948	0.8391
3957	0.8381
3966	0.8374
3975	0.837
3984	0.8378
3993	0.8392
