Infrared Spectrum: N-[4-(6-METHYL)-1,3,3a,7-TETRAZAINDENYL]-ETHYLENEDIAMINE HYDROCHLORIDE
Formula: C8 H13 Cl N6
State: SOLID (KBr PRESSING)
Melting point: 196-198 C
Class: COBLENTZ
Instrument: Not specified, most likely a prism, grating, or hybrid spectrometer.
Sampling: TRANSMISSION
Resolution: 4
Origin: EASTMAN KODAK COMPANY, RESEARCH LABORATORIES, ROCHESTER, N.Y.
MICROMETERS	TRANSMITTANCE
2.03	0.603
2.06516	0.6
2.10032	0.594
2.13548	0.593
2.17064	0.593
2.2058	0.593
2.24096	0.591
2.27612	0.591
2.31128	0.6
2.34644	0.606
2.3816	0.617
2.41676	0.629
2.45192	0.633
2.48708	0.638
2.52224	0.641
2.5574	0.648
2.59256	0.652
2.62772	0.659
2.66288	0.68
2.69804	0.692
2.7332	0.697
2.76836	0.68
2.80352	0.601
2.83868	0.495
2.87384	0.382
2.909	0.302
2.94416	0.226
2.97932	0.156
3.01448	0.111
3.04964	0.14
3.0848	0.095
3.11996	0.139
3.15512	0.163
3.19028	0.184
3.22544	0.198
3.2606	0.149
3.29576	0.158
3.33092	0.128
3.36608	0.118
3.40124	0.114
3.4364	0.1
3.47156	0.114
3.50672	0.14
3.54188	0.168
3.57704	0.2
3.6122	0.201
3.64736	0.205
3.68252	0.252
3.71768	0.267
3.75284	0.234
3.788	0.24
3.82316	0.274
3.85832	0.3
3.89348	0.351
3.92864	0.386
3.9638	0.419
3.99896	0.436
4.03412	0.481
4.06928	0.532
4.10444	0.58
4.1396	0.603
4.17476	0.624
4.20991	0.631
4.24507	0.631
4.28023	0.641
4.31539	0.671
4.35055	0.685
4.38571	0.697
4.42087	0.69
4.45603	0.683
4.49119	0.688
4.52635	0.702
4.56151	0.704
4.59667	0.711
4.63183	0.718
4.66699	0.704
4.70215	0.692
4.73731	0.652
4.77247	0.636
4.80763	0.653
4.84279	0.673
4.87795	0.702
4.91311	0.723
4.94827	0.749
4.98343	0.766
5.01859	0.779
5.05375	0.798
5.08891	0.805
5.12407	0.812
5.15923	0.82
5.19439	0.834
5.22955	0.845
5.26471	0.846
5.29987	0.843
5.33503	0.766
5.37019	0.827
5.40535	0.848
5.44051	0.866
5.47567	0.862
5.51083	0.866
5.54599	0.867
5.58115	0.862
5.61631	0.871
5.65147	0.876
5.68663	0.869
5.72179	0.848
5.75695	0.81
5.79211	0.796
5.82727	0.763
5.86243	0.718
5.89759	0.64
5.93275	0.492
5.96791	0.379
6.00307	0.262
6.03823	0.18
6.07339	0.048
6.10855	0.057
6.14371	0.055
6.17887	0.057
6.21403	0.05
6.24919	0.02
6.28435	0.031
6.31951	0.1
6.35467	0.234
6.38983	0.326
6.42499	0.412
6.46015	0.396
6.49531	0.241
6.53047	0.32
6.56563	0.37
6.60079	0.332
6.63595	0.346
6.67111	0.434
6.70627	0.537
6.74143	0.54
6.77659	0.499
6.81175	0.335
6.84691	0.306
6.88207	0.236
6.91723	0.132
6.95239	0.314
6.98755	0.36
7.02271	0.276
7.05787	0.375
7.09303	0.478
7.12819	0.575
7.16335	0.61
7.19851	0.641
7.23367	0.669
7.26883	0.617
7.30399	0.535
7.33915	0.314
7.37431	0.443
7.40947	0.358
7.44463	0.297
7.47979	0.373
7.51495	0.471
7.55011	0.469
7.58527	0.394
7.62043	0.452
7.65559	0.535
7.69075	0.58
7.72591	0.608
7.76107	0.603
7.79623	0.549
7.83139	0.521
7.86655	0.553
7.90171	0.38
7.93687	0.13
7.97203	0.274
8.00719	0.459
8.04235	0.566
8.07751	0.606
8.11267	0.572
8.14783	0.606
8.18299	0.645
8.21815	0.596
8.25331	0.276
8.28847	0.154
8.32363	0.351
8.35879	0.401
8.39395	0.509
8.42911	0.605
8.46427	0.64
8.49943	0.61
8.53459	0.393
8.56974	0.271
8.6049	0.408
8.64006	0.476
8.67522	0.509
8.71038	0.514
8.74554	0.554
8.7807	0.594
8.81586	0.664
8.85102	0.697
8.88618	0.718
8.92134	0.73
8.9565	0.742
8.99166	0.756
9.02682	0.763
9.06198	0.777
9.09714	0.786
9.1323	0.789
9.16746	0.793
9.20262	0.791
9.23778	0.784
9.27294	0.775
9.3081	0.76
9.34326	0.7
9.37842	0.575
9.41358	0.493
9.44874	0.608
9.4839	0.674
9.51906	0.699
9.55422	0.693
9.58938	0.68
9.62454	0.652
9.6597	0.659
9.69486	0.685
9.73002	0.702
9.76518	0.702
9.80034	0.613
9.8355	0.638
9.87066	0.713
9.90582	0.737
9.94098	0.761
9.97614	0.779
10.0113	0.801
10.0465	0.801
10.0816	0.78
10.1168	0.707
10.1519	0.6
10.1871	0.601
10.2223	0.693
10.2574	0.753
10.2926	0.793
10.3277	0.805
10.3629	0.81
10.3981	0.812
10.4332	0.773
10.4684	0.542
10.5035	0.751
10.5387	0.829
10.5739	0.84
10.609	0.84
10.6442	0.739
10.6793	0.652
10.7145	0.773
10.7497	0.843
10.7848	0.883
10.82	0.9
10.8551	0.916
10.8903	0.921
10.9255	0.923
10.9606	0.921
10.9958	0.925
11.0309	0.923
11.0661	0.928
11.1013	0.932
11.1364	0.944
11.1716	0.951
11.2067	0.953
11.2419	0.954
11.2771	0.958
11.3122	0.963
11.3474	0.96
11.3825	0.961
11.4177	0.954
11.4529	0.953
11.488	0.933
11.5232	0.913
11.5583	0.907
11.5935	0.913
11.6287	0.918
11.6638	0.918
11.699	0.916
11.7341	0.904
11.7693	0.866
11.8045	0.803
11.8396	0.643
11.8748	0.393
11.9099	0.382
11.9451	0.533
11.9803	0.638
12.0154	0.68
12.0506	0.653
12.0857	0.549
12.1209	0.568
12.1561	0.686
12.1912	0.754
12.2264	0.796
12.2615	0.808
12.2967	0.822
12.3319	0.813
12.367	0.782
12.4022	0.711
12.4373	0.598
12.4725	0.565
12.5077	0.643
12.5428	0.714
12.578	0.772
12.6131	0.81
12.6483	0.824
12.6835	0.836
12.7186	0.841
12.7538	0.838
12.7889	0.826
12.8241	0.8
12.8593	0.702
12.8944	0.457
12.9296	0.281
12.9647	0.56
12.9999	0.7
13.0351	0.756
13.0702	0.768
13.1054	0.768
13.1405	0.76
13.1757	0.749
13.2109	0.747
13.246	0.744
13.2812	0.747
13.3163	0.747
13.3515	0.746
13.3867	0.747
13.4218	0.754
13.457	0.76
13.4921	0.768
13.5273	0.772
13.5625	0.773
13.5976	0.775
13.6328	0.775
13.6679	0.777
13.7031	0.775
13.7383	0.77
13.7734	0.765
13.8086	0.761
13.8437	0.753
13.8789	0.732
13.9141	0.702
13.9492	0.674
13.9844	0.673
14.0195	0.702
14.0547	0.723
14.0899	0.733
14.125	0.726
14.1602	0.704
14.1953	0.678
14.2305	0.653
14.2657	0.613
14.3008	0.593
14.336	0.584
14.3711	0.603
14.4063	0.655
14.4415	0.681
14.4766	0.693
14.5118	0.688
14.5469	0.655
14.5821	0.587
14.6173	0.511
14.6524	0.511
14.6876	0.573
14.7227	0.634
14.7579	0.652
14.7931	0.657
14.8282	0.652
14.8634	0.643
14.8985	0.626
14.9337	0.593
14.9689	0.582
15.004	0.584
15.0392	0.58
15.0743	0.553
15.1095	0.53
15.1446	0.504
15.1798	0.495
15.215	0.473
15.2501	0.469
15.2853	0.467
15.3204	0.469
15.3556	0.474
15.3908	0.48
15.4259	0.48
15.4611	0.478
15.4962	0.471
15.5314	0.462
15.5666	0.45
15.6017	0.445
15.6369	0.436
15.672	0.44
15.7072	0.446
15.7424	0.462
15.7775	0.478
15.8127	0.493
15.8478	0.504
15.883	0.507
15.9182	0.516
