Infrared Spectrum: CYCLOHEXANEVALERIC ACID, 4,4-DIMETHYL-d,2,6-TRIOXO-
Formula: C13 H18 O5
State: SOLID (0.7 mg / 650 mg KBr DISC) VS ONE NaCl WINDOW IN REFERENCE BEAM
Class: COBLENTZ III
Instrument: PERKIN-ELMER 21 (GRATING)
Instrument parameters: FILTER CHANGE AT ABOUT 1070 CM^-^1
Sampling: TRANSMISSION
Resolution: 2
Origin: SOUTHERN RESEARCH INSTITUTE
1/CM	TRANSMITTANCE
624.478	0.975
632.797	0.967
641.116	0.9602
649.436	0.9599
657.755	1.0072
666.074	1.024
674.393	1.024
682.712	1.0192
691.031	1.001
699.351	0.9805
707.67	0.964
715.989	0.9504
724.308	0.9444
732.627	0.9314
740.946	0.9149
749.266	0.901
757.585	0.8806
765.904	0.8645
774.223	0.8526
782.542	0.8369
790.861	0.8126
799.181	0.7697
807.5	0.7927
815.819	0.8147
824.138	0.8258
832.457	0.8128
840.777	0.7814
849.096	0.739
857.415	0.7548
865.734	0.7317
874.053	0.687
882.372	0.687
890.692	0.6621
899.011	0.6869
907.33	0.7487
915.649	0.7453
923.968	0.7465
932.287	0.7734
940.607	0.7923
948.926	0.8066
957.245	0.833
965.564	0.828
973.883	0.8167
982.202	0.777
990.522	0.776
998.841	0.7547
1007.16	0.7195
1015.48	0.6853
1023.8	0.6456
1032.12	0.6186
1040.44	0.618
1048.76	0.6483
1057.08	0.7011
1065.39	0.7408
1073.71	0.7562
1082.03	0.7624
1090.35	0.769
1098.67	0.7677
1106.99	0.7579
1115.31	0.7379
1123.63	0.7029
1131.95	0.664
1140.27	0.5817
1148.59	0.4303
1156.91	0.4106
1165.22	0.2869
1173.54	0.4149
1181.86	0.562
1190.18	0.5862
1198.5	0.6545
1206.82	0.6424
1215.14	0.6109
1223.46	0.4616
1231.78	0.6702
1240.1	0.6994
1248.42	0.6893
1256.74	0.6534
1265.05	0.5771
1273.37	0.4591
1281.69	0.4554
1290.01	0.538
1298.33	0.6026
1306.65	0.5492
1314.97	0.4301
1323.29	0.4938
1331.61	0.4992
1339.93	0.6529
1348.25	0.6768
1356.57	0.6506
1364.88	0.6289
1373.2	0.5426
1381.52	0.5187
1389.84	0.3631
1398.16	0.288
1406.48	0.3017
1414.8	0.2884
1423.12	0.2357
1431.44	0.252
1439.76	0.2626
1448.08	0.3205
1456.4	0.5127
1464.71	0.501
1473.03	0.6657
1481.35	0.6877
1489.67	0.6748
1497.99	0.6373
1506.31	0.577
1514.63	0.509
1522.95	0.4596
1531.27	0.3921
1539.59	0.2702
1547.91	0.222
1556.23	0.1477
1564.54	0.154
1572.86	0.1963
1581.18	0.2364
1589.5	0.2672
1597.82	0.299
1606.14	0.33
1614.46	0.2804
1622.78	0.1386
1631.1	0.2011
1639.42	0.3625
1647.74	0.4789
1656.06	0.4939
1664.37	0.5531
1672.69	0.6106
1681.01	0.611
1689.33	0.5756
1697.65	0.5174
1705.97	0.3418
1714.29	0.1048
1722.61	0.2381
1730.93	0.4582
1739.25	0.5989
1747.57	0.6863
1755.89	0.7413
1764.2	0.7755
1772.52	0.7865
1780.84	0.8009
1789.16	0.8171
1797.48	0.8254
1805.8	0.834
1814.12	0.837
1822.44	0.8403
1830.76	0.845
1839.08	0.8472
1847.4	0.85
1855.72	0.85
1864.03	0.848
1872.35	0.847
1880.67	0.847
1888.99	0.848
1897.31	0.85
1905.63	0.852
1913.95	0.853
1922.27	0.856
1930.59	0.8531
1938.91	0.8528
1947.23	0.858
1955.55	0.864
1963.86	0.863
1972.18	0.8647
1980.5	0.8743
1988.82	0.876
1997.14	0.876
2005.46	0.876
2013.78	0.876
2022.1	0.8776
2030.42	0.879
2038.74	0.883
2047.06	0.883
2055.38	0.883
2063.7	0.8836
2072.01	0.8916
2080.33	0.896
2088.65	0.897
2096.97	0.897
2105.29	0.898
2113.61	0.898
2121.93	0.9
2130.25	0.901
2138.57	0.902
2146.89	0.9014
2155.21	0.901
2163.53	0.901
2171.84	0.9026
2180.16	0.903
2188.48	0.903
2196.8	0.903
2205.12	0.902
2213.44	0.902
2221.76	0.901
2230.08	0.9
2238.4	0.898
2246.72	0.896
2255.04	0.895
2263.36	0.8928
2271.67	0.89
2279.99	0.888
2288.31	0.884
2296.63	0.8814
2304.95	0.876
2313.27	0.873
2321.59	0.873
2329.91	0.873
2338.23	0.872
2346.55	0.869
2354.87	0.869
2363.19	0.87
2371.5	0.871
2379.82	0.871
2388.14	0.8704
2396.46	0.869
2404.78	0.8654
2413.1	0.86
2421.42	0.8524
2429.74	0.851
2438.06	0.85
2446.38	0.85
2454.7	0.848
2463.02	0.8454
2471.33	0.843
2479.65	0.839
2487.97	0.835
2496.29	0.833
2504.61	0.831
2512.93	0.829
2521.25	0.825
2529.57	0.82
2537.89	0.8154
2546.21	0.8124
2554.53	0.8084
2562.85	0.806
2571.16	0.802
2579.48	0.801
2587.8	0.799
2596.12	0.797
2604.44	0.796
2612.76	0.7944
2621.08	0.793
2629.4	0.791
2637.72	0.79
2646.04	0.789
2654.36	0.788
2662.68	0.787
2670.99	0.785
2679.31	0.7858
2687.63	0.7828
2695.95	0.7804
2704.27	0.7764
2712.59	0.776
2720.91	0.775
2729.23	0.775
2737.55	0.7728
2745.87	0.7634
2754.19	0.7574
2762.51	0.7514
2770.82	0.7464
2779.14	0.7434
2787.46	0.7282
2795.78	0.712
2804.1	0.707
2812.42	0.6958
2820.74	0.673
2829.06	0.6388
2837.38	0.6106
2845.7	0.577
2854.02	0.564
2862.34	0.5528
2870.65	0.5462
2878.97	0.5244
2887.29	0.5134
2895.61	0.4952
2903.93	0.4754
2912.25	0.4562
2920.57	0.4424
2928.89	0.4308
2937.21	0.426
2945.53	0.4312
2953.85	0.4756
2962.17	0.4962
2970.48	0.5032
2978.8	0.507
2987.12	0.51
2995.44	0.51
3003.76	0.508
3012.08	0.507
3020.4	0.505
3028.72	0.501
3037.04	0.5
3045.36	0.5056
3053.68	0.512
3062	0.5176
3070.32	0.521
3078.63	0.525
3086.95	0.533
3095.27	0.5356
3103.59	0.5436
3111.91	0.5636
3120.23	0.5722
3128.55	0.5814
3136.87	0.5896
3145.19	0.595
3153.51	0.602
3161.83	0.6126
3170.15	0.6294
3178.46	0.6406
3186.78	0.6486
3195.1	0.6526
3203.42	0.657
3211.74	0.664
3220.06	0.6772
3228.38	0.6908
3236.7	0.7006
3245.02	0.7086
3253.34	0.7146
3261.66	0.719
3269.98	0.722
3278.29	0.725
3286.61	0.726
3294.93	0.726
3303.25	0.726
3311.57	0.725
3319.89	0.724
3328.21	0.72
3336.53	0.717
3344.85	0.712
3353.17	0.706
3361.49	0.7
3369.81	0.693
3378.12	0.6894
3386.44	0.689
3394.76	0.6912
3403.08	0.694
3411.4	0.6982
3419.72	0.702
3428.04	0.708
3436.36	0.7136
3444.68	0.7206
3453	0.7344
3461.32	0.7406
3469.64	0.746
3477.95	0.757
3486.27	0.7702
3494.59	0.78
3502.91	0.7862
3511.23	0.7946
3519.55	0.7982
3527.87	0.802
3536.19	0.8036
3544.51	0.8108
3552.83	0.8246
3561.15	0.8358
3569.47	0.8516
3577.78	0.8596
3586.1	0.8742
3594.42	0.8826
3602.74	0.8886
3611.06	0.89
3619.38	0.891
3627.7	0.895
3636.02	0.9016
3644.34	0.906
3652.66	0.907
3660.98	0.908
3669.3	0.909
3677.61	0.9112
3685.93	0.914
3694.25	0.916
3702.57	0.9206
3710.89	0.932
3719.21	0.9326
3727.53	0.929
3735.85	0.9238
3744.17	0.9194
3752.49	0.916
3760.81	0.915
3769.13	0.915
3777.44	0.915
3785.76	0.9134
3794.08	0.9108
3802.4	0.913
3810.72	0.9136
