Infrared Spectrum: 1,2-ETHANE DISULFONIC ACID, DISODIUM SALT
Formula: C2 H4 O6 S2 Na2
State: SOLID (MINERAL OIL MULL)
Class: COBLENTZ
Instrument: Not specified, most likely a prism, grating, or hybrid spectrometer.
Sampling: TRANSMISSION
Resolution: 4
Origin: WYANDOTTE CHEMICALS CORP., WYANDOTTE, MICHIGAN, USA
MICROMETERS	TRANSMITTANCE
2.014	0.659
2.05488	0.671
2.09575	0.68
2.13663	0.683
2.1775	0.695
2.21838	0.692
2.25926	0.688
2.30013	0.687
2.34101	0.687
2.38188	0.692
2.42276	0.71
2.46364	0.721
2.50451	0.727
2.54539	0.739
2.58627	0.751
2.62714	0.756
2.66802	0.772
2.70889	0.772
2.74977	0.77
2.79065	0.758
2.83152	0.719
2.8724	0.717
2.91327	0.71
2.95415	0.705
2.99503	0.705
3.0359	0.721
3.07678	0.727
3.11765	0.738
3.15853	0.727
3.19941	0.714
3.24028	0.702
3.28116	0.654
3.32204	0.411
3.36291	0.19
3.40379	0.093
3.44466	0.056
3.48554	0.061
3.52642	0.066
3.56729	0.302
3.60817	0.54
3.64904	0.646
3.68992	0.67
3.7308	0.692
3.77167	0.712
3.81255	0.739
3.85342	0.753
3.8943	0.768
3.93518	0.789
3.97605	0.801
4.01693	0.816
4.0578	0.823
4.09868	0.821
4.13956	0.821
4.18043	0.826
4.22131	0.835
4.26219	0.829
4.30306	0.838
4.34394	0.848
4.38481	0.858
4.42569	0.848
4.46657	0.838
4.50744	0.833
4.54832	0.843
4.58919	0.848
4.63007	0.857
4.67095	0.879
4.71182	0.908
4.7527	0.914
4.79357	0.899
4.83445	0.913
4.87533	0.93
4.9162	0.94
4.95708	0.943
4.99796	0.943
5.03883	0.943
5.07971	0.943
5.12058	0.943
5.16146	0.943
5.20234	0.943
5.24321	0.947
5.28409	0.952
5.32496	0.957
5.36584	0.959
5.40672	0.959
5.44759	0.95
5.48847	0.948
5.52934	0.943
5.57022	0.943
5.6111	0.94
5.65197	0.933
5.69285	0.928
5.73372	0.904
5.7746	0.899
5.81548	0.874
5.85635	0.862
5.89723	0.845
5.93811	0.807
5.97898	0.799
6.01986	0.775
6.06073	0.767
6.10161	0.748
6.14249	0.755
6.18336	0.765
6.22424	0.765
6.26511	0.767
6.30599	0.763
6.34687	0.765
6.38774	0.768
6.42862	0.763
6.46949	0.756
6.51037	0.748
6.55125	0.746
6.59212	0.729
6.633	0.709
6.67388	0.678
6.71475	0.6
6.75563	0.454
6.7965	0.19
6.83738	0.112
6.87826	0.129
6.91913	0.185
6.96001	0.232
7.00088	0.197
7.04176	0.176
7.08264	0.304
7.12351	0.452
7.16439	0.459
7.20526	0.346
7.24614	0.197
7.28702	0.18
7.32789	0.21
7.36877	0.232
7.40964	0.232
7.45052	0.212
7.4914	0.19
7.53227	0.144
7.57315	0.12
7.61403	0.124
7.6549	0.105
7.69578	0.074
7.73665	0.042
7.77753	0.044
7.81841	0.04
7.85928	0.04
7.90016	0.037
7.94103	0.034
7.98191	0.032
8.02279	0.032
8.06366	0.032
8.10454	0.032
8.14541	0.028
8.18629	0.028
8.22717	0.03
8.26804	0.03
8.30892	0.032
8.3498	0.032
8.39067	0.032
8.43155	0.032
8.47242	0.03
8.5133	0.03
8.55418	0.03
8.59505	0.03
8.63593	0.04
8.6768	0.034
8.71768	0.034
8.75856	0.03
8.79943	0.03
8.84031	0.032
8.88118	0.032
8.92206	0.042
8.96294	0.049
9.00381	0.064
9.04469	0.09
9.08556	0.1
9.12644	0.117
9.16732	0.132
9.20819	0.139
9.24907	0.132
9.28995	0.079
9.33082	0.049
9.3717	0.035
9.41257	0.034
9.45345	0.034
9.49433	0.032
9.5352	0.032
9.57608	0.032
9.61695	0.028
9.65783	0.03
9.69871	0.04
9.73958	0.051
9.78046	0.079
9.82133	0.129
9.86221	0.2
9.90309	0.258
9.94396	0.333
9.98484	0.392
10.0257	0.457
10.0666	0.506
10.1075	0.552
10.1483	0.6
10.1892	0.625
10.2301	0.646
10.271	0.661
10.3118	0.688
10.3527	0.704
10.3936	0.722
10.4345	0.739
10.4754	0.76
10.5162	0.777
10.5571	0.787
10.598	0.806
10.6389	0.76
10.6797	0.671
10.7206	0.625
10.7615	0.738
10.8024	0.814
10.8432	0.852
10.8841	0.863
10.925	0.874
10.9659	0.889
11.0067	0.908
11.0476	0.925
11.0885	0.933
11.1294	0.93
11.1702	0.931
11.2111	0.93
11.252	0.933
11.2929	0.935
11.3338	0.942
11.3746	0.93
11.4155	0.94
11.4564	0.925
11.4973	0.865
11.5381	0.891
11.579	0.925
11.6199	0.94
11.6608	0.959
11.7016	0.957
11.7425	0.952
11.7834	0.954
11.8243	0.959
11.8651	0.959
11.906	0.959
11.9469	0.954
11.9878	0.95
12.0286	0.945
12.0695	0.938
12.1104	0.931
12.1513	0.928
12.1921	0.92
12.233	0.908
12.2739	0.892
12.3148	0.874
12.3557	0.863
12.3965	0.838
12.4374	0.807
12.4783	0.785
12.5192	0.738
12.56	0.697
12.6009	0.641
12.6418	0.574
12.6827	0.486
12.7235	0.374
12.7644	0.256
12.8053	0.149
12.8462	0.085
12.887	0.062
12.9279	0.052
12.9688	0.052
13.0097	0.051
13.0505	0.045
13.0914	0.052
13.1323	0.056
13.1732	0.061
13.2141	0.069
13.2549	0.105
13.2958	0.159
13.3367	0.234
13.3776	0.318
13.4184	0.391
13.4593	0.452
13.5002	0.503
13.5411	0.547
13.5819	0.581
13.6228	0.605
13.6637	0.639
13.7046	0.659
13.7454	0.68
13.7863	0.685
13.8272	0.695
13.8681	0.704
13.9089	0.726
13.9498	0.756
13.9907	0.79
14.0316	0.824
14.0724	0.85
14.1133	0.879
14.1542	0.892
14.1951	0.911
14.236	0.916
14.2768	0.926
14.3177	0.942
14.3586	0.938
14.3995	0.94
14.4403	0.937
14.4812	0.93
14.5221	0.93
14.563	0.928
14.6038	0.925
14.6447	0.921
14.6856	0.918
14.7265	0.914
14.7673	0.909
14.8082	0.903
14.8491	0.897
14.89	0.896
14.9308	0.886
14.9717	0.879
15.0126	0.86
15.0535	0.833
15.0944	0.828
15.1352	0.829
15.1761	0.831
15.217	0.829
15.2579	0.823
15.2987	0.814
15.3396	0.806
15.3805	0.799
15.4214	0.789
15.4622	0.778
15.5031	0.772
15.544	0.763
15.5849	0.743
15.6257	0.721
15.6666	0.705
15.7075	0.702
15.7484	0.698
15.7892	0.695
15.8301	0.683
15.871	0.676
15.9119	0.671
15.9527	0.661
