Infrared Spectrum: GLUCOSE PHENYLOSAZONE
Formula: C18 H22 N4 O4
State: SOLID (MINERAL OIL MULL)
Melting point: 203 C (DECOMPOSE)
Class: COBLENTZ
Instrument: Not specified, most likely a prism, grating, or hybrid spectrometer.
Sampling: TRANSMISSION
Resolution: 4
Origin: WYANDOTTE CHEMICALS CORP., WYANDOTTE, MICHIGAN, USA
MICROMETERS	TRANSMITTANCE
2.025	0.208
2.06222	0.212
2.09943	0.217
2.13665	0.226
2.17386	0.226
2.21108	0.236
2.2483	0.232
2.28551	0.237
2.32273	0.239
2.35994	0.251
2.39716	0.268
2.43438	0.276
2.47159	0.288
2.50881	0.302
2.54602	0.31
2.58324	0.329
2.62046	0.333
2.65767	0.344
2.69489	0.357
2.7321	0.36
2.76932	0.372
2.80654	0.358
2.84375	0.33
2.88097	0.326
2.91818	0.273
2.9554	0.242
2.99262	0.226
3.02983	0.141
3.06705	0.085
3.10426	0.082
3.14148	0.091
3.1787	0.119
3.21591	0.155
3.25313	0.167
3.29034	0.155
3.32756	0.135
3.36477	0.072
3.40199	0.029
3.43921	0.029
3.47642	0.021
3.51364	0.032
3.55085	0.09
3.58807	0.316
3.62529	0.392
3.6625	0.422
3.69972	0.413
3.73693	0.425
3.77415	0.44
3.81137	0.453
3.84858	0.468
3.8858	0.478
3.92301	0.495
3.96023	0.512
3.99745	0.529
4.03466	0.545
4.07188	0.557
4.10909	0.571
4.14631	0.579
4.18353	0.59
4.22074	0.6
4.25796	0.605
4.29517	0.618
4.33239	0.638
4.36961	0.65
4.40682	0.664
4.44404	0.672
4.48125	0.683
4.51847	0.683
4.55569	0.698
4.5929	0.709
4.63012	0.715
4.66733	0.729
4.70455	0.734
4.74177	0.753
4.77898	0.767
4.8162	0.771
4.85341	0.787
4.89063	0.795
4.92785	0.799
4.96506	0.812
5.00228	0.818
5.03949	0.826
5.07671	0.829
5.11393	0.844
5.15114	0.854
5.18836	0.849
5.22557	0.854
5.26279	0.832
5.30001	0.854
5.33722	0.878
5.37444	0.886
5.41165	0.906
5.44887	0.894
5.48609	0.903
5.5233	0.909
5.56052	0.919
5.59773	0.916
5.63495	0.93
5.67217	0.927
5.70938	0.927
5.7466	0.928
5.78381	0.931
5.82103	0.9
5.85825	0.891
5.89546	0.871
5.93268	0.819
5.96989	0.785
6.00711	0.785
6.04432	0.785
6.08154	0.812
6.11876	0.768
6.15597	0.596
6.19319	0.208
6.2304	0.145
6.26762	0.309
6.30484	0.194
6.34205	0.24
6.37927	0.222
6.41648	0.391
6.4537	0.385
6.49092	0.215
6.52813	0.321
6.56535	0.326
6.60256	0.237
6.63978	0.181
6.677	0.086
6.71421	0.153
6.75143	0.195
6.78864	0.107
6.82586	0.09
6.86308	0.119
6.90029	0.192
6.93751	0.341
6.97472	0.487
7.01194	0.518
7.04916	0.513
7.08637	0.495
7.12359	0.456
7.1608	0.392
7.19802	0.263
7.23524	0.161
7.27245	0.209
7.30967	0.298
7.34688	0.427
7.3841	0.475
7.42132	0.453
7.45853	0.414
7.49575	0.36
7.53296	0.414
7.57018	0.416
7.6074	0.335
7.64461	0.296
7.68183	0.271
7.71904	0.262
7.75626	0.222
7.79348	0.274
7.83069	0.274
7.86791	0.177
7.90512	0.094
7.94234	0.105
7.97956	0.163
8.01677	0.251
8.05399	0.218
8.0912	0.152
8.12842	0.218
8.16564	0.293
8.20285	0.304
8.24007	0.355
8.27728	0.428
8.3145	0.465
8.35172	0.475
8.38893	0.44
8.42615	0.45
8.46336	0.425
8.50058	0.357
8.5378	0.316
8.57501	0.341
8.61223	0.389
8.64944	0.408
8.68666	0.394
8.72387	0.361
8.76109	0.343
8.79831	0.462
8.83552	0.537
8.87274	0.571
8.90995	0.56
8.94717	0.464
8.98439	0.394
9.0216	0.4
9.05882	0.368
9.09603	0.284
9.13325	0.214
9.17047	0.198
9.20768	0.201
9.2449	0.142
9.28211	0.11
9.31933	0.166
9.35655	0.285
9.39376	0.399
9.43098	0.43
9.46819	0.336
9.50541	0.225
9.54263	0.214
9.57984	0.152
9.61706	0.149
9.65427	0.158
9.69149	0.245
9.72871	0.274
9.76592	0.309
9.80314	0.242
9.84035	0.192
9.87757	0.198
9.91479	0.302
9.952	0.36
9.98922	0.344
10.0264	0.381
10.0636	0.416
10.1009	0.496
10.1381	0.549
10.1753	0.586
10.2125	0.605
10.2497	0.618
10.2869	0.63
10.3242	0.652
10.3614	0.655
10.3986	0.67
10.4358	0.652
10.473	0.625
10.5102	0.546
10.5475	0.521
10.5847	0.543
10.6219	0.594
10.6591	0.661
10.6963	0.706
10.7335	0.737
10.7708	0.757
10.808	0.779
10.8452	0.795
10.8824	0.799
10.9196	0.812
10.9568	0.822
10.994	0.824
11.0313	0.79
11.0685	0.659
11.1057	0.604
11.1429	0.672
11.1801	0.659
11.2173	0.631
11.2546	0.635
11.2918	0.681
11.329	0.666
11.3662	0.667
11.4034	0.703
11.4406	0.658
11.4779	0.614
11.5151	0.58
11.5523	0.708
11.5895	0.757
11.6267	0.767
11.6639	0.762
11.7012	0.776
11.7384	0.798
11.7756	0.788
11.8128	0.726
11.85	0.715
11.8872	0.762
11.9244	0.807
11.9617	0.821
11.9989	0.822
12.0361	0.813
12.0733	0.819
12.1105	0.815
12.1477	0.81
12.185	0.833
12.2222	0.855
12.2594	0.84
12.2966	0.815
12.3338	0.826
12.371	0.821
12.4083	0.821
12.4455	0.826
12.4827	0.824
12.5199	0.807
12.5571	0.781
12.5943	0.731
12.6316	0.683
12.6688	0.627
12.706	0.569
12.7432	0.602
12.7804	0.678
12.8176	0.722
12.8548	0.74
12.8921	0.746
12.9293	0.751
12.9665	0.75
13.0037	0.732
13.0409	0.714
13.0781	0.692
13.1154	0.663
13.1526	0.622
13.1898	0.56
13.227	0.478
13.2642	0.385
13.3014	0.268
13.3387	0.192
13.3759	0.15
13.4131	0.128
13.4503	0.155
13.4875	0.201
13.5247	0.273
13.562	0.335
13.5992	0.403
13.6364	0.459
13.6736	0.492
13.7108	0.515
13.748	0.537
13.7852	0.551
13.8225	0.557
13.8597	0.565
13.8969	0.568
13.9341	0.583
13.9713	0.597
14.0085	0.605
14.0458	0.613
14.083	0.619
14.1202	0.619
14.1574	0.613
14.1946	0.599
14.2318	0.582
14.2691	0.565
14.3063	0.541
14.3435	0.51
14.3807	0.465
14.4179	0.411
14.4551	0.344
14.4924	0.287
14.5296	0.254
14.5668	0.234
14.604	0.222
14.6412	0.212
14.6784	0.242
14.7156	0.313
14.7529	0.381
14.7901	0.437
14.8273	0.475
14.8645	0.498
14.9017	0.501
14.9389	0.503
14.9762	0.5
15.0134	0.475
15.0506	0.461
15.0878	0.451
15.125	0.451
15.1622	0.459
15.1995	0.475
15.2367	0.487
15.2739	0.489
15.3111	0.484
15.3483	0.468
15.3855	0.456
15.4227	0.45
15.46	0.444
15.4972	0.439
15.5344	0.447
15.5716	0.445
15.6088	0.444
15.646	0.444
15.6833	0.44
15.7205	0.431
15.7577	0.425
15.7949	0.42
15.8321	0.411
15.8693	0.416
15.9066	0.405
15.9438	0.397
15.981	0.392
