Infrared Spectrum: DIETHYLAMINOETHANOL HYDROCHLORIDE
Formula: C6 H16 Cl N O
State: SOLID (MINERAL OIL MULL)
Class: COBLENTZ
Instrument: Not specified, most likely a prism, grating, or hybrid spectrometer.
Sampling: TRANSMISSION
Resolution: 4
Origin: DOW CHEMICAL COMPANY
MICROMETERS	TRANSMITTANCE
2.027	0.804
2.06814	0.809
2.10927	0.814
2.15041	0.816
2.19155	0.81
2.23269	0.768
2.27382	0.749
2.31496	0.761
2.3561	0.775
2.39724	0.79
2.43837	0.812
2.47951	0.846
2.52065	0.856
2.56178	0.862
2.60292	0.856
2.64406	0.87
2.6852	0.873
2.72633	0.868
2.76747	0.865
2.80861	0.841
2.84975	0.776
2.89088	0.669
2.93202	0.504
2.97316	0.219
3.01429	0.272
3.05543	0.473
3.09657	0.538
3.13771	0.586
3.17884	0.621
3.21998	0.632
3.26112	0.594
3.30226	0.507
3.34339	0.247
3.38453	0.032
3.42567	0.034
3.4668	0.044
3.50794	0.189
3.54908	0.431
3.59022	0.396
3.63135	0.362
3.67249	0.364
3.71363	0.281
3.75477	0.223
3.7959	0.27
3.83704	0.296
3.87818	0.381
3.91931	0.456
3.96045	0.49
4.00159	0.419
4.04273	0.48
4.08386	0.551
4.125	0.596
4.16614	0.645
4.20728	0.669
4.24841	0.683
4.28955	0.713
4.33069	0.727
4.37182	0.737
4.41296	0.752
4.4541	0.759
4.49524	0.775
4.53637	0.792
4.57751	0.8
4.61865	0.805
4.65979	0.812
4.70092	0.817
4.74206	0.822
4.7832	0.831
4.82433	0.844
4.86547	0.85
4.90661	0.855
4.94775	0.858
4.98888	0.863
5.03002	0.863
5.07116	0.865
5.1123	0.867
5.15343	0.865
5.19457	0.868
5.23571	0.87
5.27684	0.865
5.31798	0.875
5.35912	0.879
5.40026	0.884
5.44139	0.887
5.48253	0.89
5.52367	0.892
5.56481	0.892
5.60594	0.887
5.64708	0.865
5.68822	0.851
5.72935	0.862
5.77049	0.87
5.81163	0.875
5.85277	0.875
5.8939	0.875
5.93504	0.873
5.97618	0.868
6.01732	0.863
6.05845	0.862
6.09959	0.862
6.14073	0.856
6.18186	0.858
6.223	0.855
6.26414	0.858
6.30528	0.858
6.34641	0.853
6.38755	0.848
6.42869	0.848
6.46983	0.843
6.51096	0.827
6.5521	0.819
6.59324	0.804
6.63437	0.785
6.67551	0.71
6.71665	0.463
6.75779	0.287
6.79892	0.163
6.84006	0.119
6.8812	0.201
6.92234	0.327
6.96347	0.424
7.00461	0.531
7.04575	0.487
7.08688	0.388
7.12802	0.398
7.16916	0.422
7.2103	0.398
7.25143	0.269
7.29257	0.424
7.33371	0.548
7.37485	0.621
7.41598	0.66
7.45712	0.689
7.49826	0.72
7.5394	0.729
7.58053	0.732
7.62167	0.744
7.66281	0.747
7.70394	0.747
7.74508	0.734
7.78622	0.746
7.82736	0.73
7.86849	0.674
7.90963	0.718
7.95077	0.764
7.99191	0.744
8.03304	0.693
8.07418	0.729
8.11532	0.758
8.15645	0.775
8.19759	0.8
8.23873	0.81
8.27987	0.819
8.321	0.819
8.36214	0.814
8.40328	0.781
8.44442	0.71
8.48555	0.659
8.52669	0.705
8.56783	0.713
8.60896	0.65
8.6501	0.669
8.69124	0.747
8.73238	0.781
8.77351	0.797
8.81465	0.797
8.85579	0.788
8.89693	0.795
8.93806	0.807
8.9792	0.81
9.02034	0.8
9.06147	0.793
9.10261	0.758
9.14375	0.708
9.18489	0.584
9.22602	0.425
9.26716	0.291
9.3083	0.233
9.34944	0.267
9.39057	0.327
9.43171	0.381
9.47285	0.495
9.51398	0.565
9.55512	0.596
9.59626	0.587
9.6374	0.534
9.67853	0.446
9.71967	0.339
9.76081	0.284
9.80195	0.323
9.84308	0.391
9.88422	0.388
9.92536	0.393
9.96649	0.536
10.0076	0.703
10.0488	0.72
10.0899	0.751
10.131	0.768
10.1722	0.775
10.2133	0.783
10.2545	0.79
10.2956	0.797
10.3367	0.809
10.3779	0.812
10.419	0.822
10.4601	0.824
10.5013	0.829
10.5424	0.833
10.5836	0.839
10.6247	0.843
10.6658	0.85
10.707	0.85
10.7481	0.855
10.7892	0.858
10.8304	0.863
10.8715	0.86
10.9127	0.856
10.9538	0.86
10.9949	0.862
11.0361	0.839
11.0772	0.797
11.1183	0.783
11.1595	0.795
11.2006	0.821
11.2417	0.821
11.2829	0.868
11.324	0.877
11.3652	0.88
11.4063	0.889
11.4474	0.865
11.4886	0.822
11.5297	0.783
11.5708	0.797
11.612	0.844
11.6531	0.868
11.6943	0.877
11.7354	0.873
11.7765	0.87
11.8177	0.87
11.8588	0.877
11.8999	0.877
11.9411	0.877
11.9822	0.865
12.0234	0.844
12.0645	0.783
12.1056	0.708
12.1468	0.623
12.1879	0.628
12.229	0.739
12.2702	0.783
12.3113	0.79
12.3525	0.764
12.3936	0.708
12.4347	0.674
12.4759	0.712
12.517	0.781
12.5581	0.826
12.5993	0.846
12.6404	0.86
12.6816	0.867
12.7227	0.87
12.7638	0.867
12.805	0.865
12.8461	0.86
12.8872	0.86
12.9284	0.855
12.9695	0.851
13.0107	0.85
13.0518	0.846
13.0929	0.843
13.1341	0.836
13.1752	0.826
13.2163	0.821
13.2575	0.821
13.2986	0.819
13.3398	0.817
13.3809	0.81
13.422	0.802
13.4632	0.792
13.5043	0.778
13.5454	0.77
13.5866	0.761
13.6277	0.752
13.6688	0.747
13.71	0.735
13.7511	0.725
13.7923	0.713
13.8334	0.705
13.8745	0.696
13.9157	0.706
13.9568	0.722
13.9979	0.73
14.0391	0.735
14.0802	0.741
14.1214	0.742
14.1625	0.741
14.2036	0.735
14.2448	0.73
14.2859	0.724
14.327	0.718
14.3682	0.713
14.4093	0.706
14.4505	0.698
14.4916	0.693
14.5327	0.683
14.5739	0.674
14.615	0.667
14.6561	0.659
14.6973	0.645
14.7384	0.64
14.7796	0.63
14.8207	0.62
14.8618	0.613
14.903	0.601
14.9441	0.592
14.9852	0.586
15.0264	0.572
15.0675	0.563
15.1087	0.555
15.1498	0.55
15.1909	0.543
15.2321	0.528
15.2732	0.521
15.3143	0.505
15.3555	0.5
15.3966	0.497
15.4378	0.482
15.4789	0.468
15.52	0.458
15.5612	0.449
15.6023	0.446
15.6434	0.437
15.6846	0.424
15.7257	0.417
15.7669	0.407
15.808	0.4
