Infrared Spectrum: BERYLLIUM OXALATE
Formula: Be C2 O4  * 3 H2 O
State: SOLID (KBr DISC)
Class: COBLENTZ
Instrument: Not specified, most likely a prism, grating, or hybrid spectrometer.
Sampling: TRANSMISSION
Resolution: 4
MICROMETERS	TRANSMITTANCE
2.031	0.806
2.06901	0.806
2.10702	0.803
2.14503	0.798
2.18304	0.791
2.22104	0.785
2.25905	0.778
2.29706	0.77
2.33507	0.767
2.37308	0.76
2.41109	0.747
2.4491	0.734
2.48711	0.715
2.52511	0.698
2.56312	0.684
2.60113	0.662
2.63914	0.627
2.67715	0.602
2.71516	0.547
2.75317	0.433
2.79118	0.356
2.82918	0.302
2.86719	0.271
2.9052	0.264
2.94321	0.259
2.98122	0.27
3.01923	0.303
3.05724	0.337
3.09525	0.362
3.13325	0.384
3.17126	0.405
3.20927	0.433
3.24728	0.446
3.28529	0.469
3.3233	0.499
3.36131	0.521
3.39932	0.543
3.43733	0.574
3.47533	0.607
3.51334	0.635
3.55135	0.66
3.58936	0.687
3.62737	0.713
3.66538	0.738
3.70339	0.76
3.7414	0.775
3.7794	0.785
3.81741	0.791
3.85542	0.794
3.89343	0.803
3.93144	0.806
3.96945	0.81
4.00746	0.814
4.04547	0.817
4.08347	0.819
4.12148	0.82
4.15949	0.819
4.1975	0.819
4.23551	0.819
4.27352	0.817
4.31153	0.817
4.34954	0.819
4.38754	0.819
4.42555	0.819
4.46356	0.819
4.50157	0.816
4.53958	0.813
4.57759	0.81
4.6156	0.806
4.65361	0.803
4.69162	0.8
4.72962	0.798
4.76763	0.795
4.80564	0.787
4.84365	0.782
4.88166	0.781
4.91967	0.776
4.95768	0.77
4.99569	0.769
5.03369	0.765
5.0717	0.757
5.10971	0.75
5.14772	0.741
5.18573	0.726
5.22374	0.718
5.26175	0.7
5.29976	0.687
5.33776	0.675
5.37577	0.654
5.41378	0.644
5.45179	0.634
5.4898	0.616
5.52781	0.599
5.56582	0.58
5.60383	0.541
5.64183	0.503
5.67984	0.436
5.71785	0.381
5.75586	0.267
5.79387	0.264
5.83188	0.261
5.86989	0.273
5.9079	0.325
5.94591	0.364
5.98391	0.387
6.02192	0.414
6.05993	0.449
6.09794	0.475
6.13595	0.513
6.17396	0.559
6.21197	0.61
6.24998	0.649
6.28798	0.681
6.32599	0.698
6.364	0.713
6.40201	0.719
6.44002	0.731
6.47803	0.732
6.51604	0.732
6.55405	0.731
6.59205	0.722
6.63006	0.712
6.66807	0.693
6.70608	0.674
6.74409	0.651
6.7821	0.637
6.82011	0.612
6.85812	0.597
6.89612	0.556
6.93413	0.496
6.97214	0.468
7.01015	0.456
7.04816	0.472
7.08617	0.535
7.12418	0.597
7.16219	0.638
7.2002	0.662
7.2382	0.66
7.27621	0.647
7.31422	0.627
7.35223	0.612
7.39024	0.6
7.42825	0.593
7.46626	0.585
7.50427	0.565
7.54227	0.544
7.58028	0.521
7.61829	0.483
7.6563	0.433
7.69431	0.417
7.73232	0.415
7.77033	0.441
7.80834	0.484
7.84634	0.537
7.88435	0.565
7.92236	0.574
7.96037	0.563
7.99838	0.54
8.03639	0.518
8.0744	0.496
8.11241	0.477
8.15041	0.455
8.18842	0.44
8.22643	0.425
8.26444	0.409
8.30245	0.399
8.34046	0.386
8.37847	0.372
8.41648	0.364
8.45449	0.356
8.49249	0.348
8.5305	0.339
8.56851	0.331
8.60652	0.325
8.64453	0.32
8.68254	0.315
8.72055	0.314
8.75856	0.315
8.79656	0.315
8.83457	0.315
8.87258	0.317
8.91059	0.317
8.9486	0.318
8.98661	0.323
9.02462	0.324
9.06263	0.327
9.10063	0.331
9.13864	0.333
9.17665	0.334
9.21466	0.334
9.25267	0.334
9.29068	0.334
9.32869	0.333
9.3667	0.331
9.4047	0.334
9.44271	0.339
9.48072	0.348
9.51873	0.358
9.55674	0.368
9.59475	0.383
9.63276	0.396
9.67077	0.415
9.70878	0.425
9.74678	0.433
9.78479	0.436
9.8228	0.441
9.86081	0.443
9.89882	0.443
9.93683	0.441
9.97484	0.441
10.0128	0.44
10.0509	0.439
10.0889	0.436
10.1269	0.434
10.1649	0.433
10.2029	0.431
10.2409	0.43
10.2789	0.428
10.3169	0.422
10.3549	0.418
10.3929	0.412
10.4309	0.406
10.469	0.397
10.507	0.39
10.545	0.383
10.583	0.374
10.621	0.368
10.659	0.361
10.697	0.356
10.735	0.35
10.773	0.346
10.811	0.34
10.849	0.337
10.887	0.334
10.9251	0.331
10.9631	0.328
11.0011	0.327
11.0391	0.325
11.0771	0.327
11.1151	0.327
11.1531	0.327
11.1911	0.327
11.2291	0.328
11.2671	0.327
11.3051	0.327
11.3432	0.327
11.3812	0.327
11.4192	0.327
11.4572	0.327
11.4952	0.325
11.5332	0.324
11.5712	0.32
11.6092	0.317
11.6472	0.315
11.6852	0.315
11.7232	0.314
11.7612	0.311
11.7993	0.306
11.8373	0.301
11.8753	0.298
11.9133	0.292
11.9513	0.287
11.9893	0.284
12.0273	0.284
12.0653	0.284
12.1033	0.283
12.1413	0.281
12.1793	0.283
12.2174	0.283
12.2554	0.287
12.2934	0.292
12.3314	0.295
12.3694	0.296
12.4074	0.299
12.4454	0.302
12.4834	0.303
12.5214	0.305
12.5594	0.306
12.5974	0.308
12.6355	0.308
12.6735	0.308
12.7115	0.308
12.7495	0.308
12.7875	0.309
12.8255	0.314
12.8635	0.314
12.9015	0.315
12.9395	0.318
12.9775	0.32
13.0155	0.324
13.0535	0.325
13.0916	0.328
13.1296	0.331
13.1676	0.337
13.2056	0.337
13.2436	0.34
13.2816	0.345
13.3196	0.349
13.3576	0.349
13.3956	0.355
13.4336	0.359
13.4716	0.361
13.5097	0.364
13.5477	0.365
13.5857	0.368
13.6237	0.374
13.6617	0.375
13.6997	0.378
13.7377	0.378
13.7757	0.38
13.8137	0.381
13.8517	0.384
13.8897	0.389
13.9278	0.392
13.9658	0.393
14.0038	0.395
14.0418	0.395
14.0798	0.396
14.1178	0.399
14.1558	0.403
14.1938	0.405
14.2318	0.406
14.2698	0.408
14.3078	0.409
14.3458	0.417
14.3839	0.418
14.4219	0.419
14.4599	0.422
14.4979	0.424
14.5359	0.427
14.5739	0.431
14.6119	0.433
14.6499	0.436
14.6879	0.437
14.7259	0.443
14.7639	0.446
14.802	0.449
14.84	0.449
14.878	0.452
14.916	0.456
14.954	0.465
14.992	0.48
