Infrared Spectrum: P-PHENYLENEDIAMINE, N,N'-DIETHYL-N,N'-DI-B-NAPHTHYL-
Formula: C30 H28 N2
State: SOLID (KBr PELLET)
Class: COBLENTZ
Instrument: Not specified, most likely a prism, grating, or hybrid spectrometer.
Sampling: TRANSMISSION
Resolution: 4
Origin: TENNESSEE EASTMAN COMPANY, RESEARCH LABORATORIES
MICROMETERS	TRANSMITTANCE
2.014	0.739
2.05494	0.749
2.09589	0.758
2.13683	0.763
2.17778	0.771
2.21872	0.778
2.25967	0.78
2.30061	0.785
2.34155	0.792
2.3825	0.799
2.42344	0.806
2.46439	0.804
2.50533	0.807
2.54627	0.814
2.58722	0.818
2.62816	0.821
2.66911	0.823
2.71005	0.821
2.751	0.799
2.79194	0.78
2.83288	0.766
2.87383	0.747
2.91477	0.735
2.95572	0.766
2.99666	0.802
3.03761	0.818
3.07855	0.83
3.11949	0.838
3.16044	0.849
3.20138	0.854
3.24233	0.751
3.28327	0.66
3.32421	0.687
3.36516	0.734
3.4061	0.723
3.44705	0.79
3.48799	0.835
3.52894	0.866
3.56988	0.891
3.61082	0.898
3.65177	0.893
3.69271	0.898
3.73366	0.902
3.7746	0.909
3.81555	0.907
3.85649	0.914
3.89743	0.921
3.93838	0.924
3.97932	0.922
4.02027	0.922
4.06121	0.926
4.10215	0.927
4.1431	0.926
4.18404	0.934
4.22499	0.945
4.26593	0.941
4.30688	0.939
4.34782	0.939
4.38876	0.948
4.42971	0.951
4.47065	0.958
4.5116	0.96
4.55254	0.958
4.59349	0.958
4.63443	0.962
4.67537	0.965
4.71632	0.967
4.75726	0.965
4.79821	0.965
4.83915	0.965
4.88009	0.965
4.92104	0.967
4.96198	0.965
5.00293	0.979
5.04387	0.97
5.08482	0.963
5.12576	0.921
5.1667	0.938
5.20765	0.909
5.24859	0.921
5.28954	0.946
5.33048	0.965
5.37143	0.97
5.41237	0.957
5.45331	0.953
5.49426	0.95
5.5352	0.948
5.57615	0.948
5.61709	0.939
5.65803	0.948
5.69898	0.95
5.73992	0.946
5.78087	0.941
5.82181	0.922
5.86276	0.9
5.9037	0.876
5.94464	0.876
5.98559	0.828
6.02653	0.799
6.06748	0.703
6.10842	0.262
6.14937	0.096
6.19031	0.444
6.23125	0.137
6.2722	0.514
6.31314	0.619
6.35409	0.72
6.39503	0.818
6.43597	0.831
6.47692	0.771
6.51786	0.615
6.55881	0.276
6.59975	0.022
6.6407	0.138
6.68164	0.512
6.72258	0.207
6.76353	0.06
6.80447	0.368
6.84542	0.523
6.88636	0.53
6.92731	0.679
6.96825	0.627
7.00919	0.682
7.05014	0.723
7.09108	0.5
7.13203	0.178
7.17297	0.274
7.21391	0.427
7.25486	0.2
7.2958	0.365
7.33675	0.593
7.37769	0.449
7.41864	0.598
7.45958	0.619
7.50052	0.473
7.54147	0.703
7.58241	0.759
7.62336	0.802
7.6643	0.825
7.70525	0.809
7.74619	0.747
7.78713	0.548
7.82808	0.346
7.86902	0.499
7.90997	0.197
7.95091	0.236
7.99185	0.169
8.0328	0.12
8.07374	0.241
8.11469	0.331
8.15563	0.464
8.19658	0.706
8.23752	0.795
8.27846	0.826
8.31941	0.701
8.36035	0.444
8.4013	0.674
8.44224	0.823
8.48319	0.854
8.52413	0.861
8.56507	0.831
8.60602	0.782
8.64696	0.624
8.68791	0.349
8.72885	0.303
8.76979	0.476
8.81074	0.627
8.85168	0.325
8.89263	0.418
8.93357	0.612
8.97452	0.77
9.01546	0.821
9.0564	0.83
9.09735	0.765
9.13829	0.356
9.17924	0.433
9.22018	0.703
9.26113	0.814
9.30207	0.843
9.34301	0.849
9.38396	0.809
9.4249	0.749
9.46585	0.722
9.50679	0.785
9.54773	0.855
9.58868	0.883
9.62962	0.895
9.67057	0.9
9.71151	0.902
9.75246	0.857
9.7934	0.847
9.83434	0.859
9.87529	0.849
9.91623	0.89
9.95718	0.912
9.99812	0.922
10.0391	0.927
10.08	0.927
10.121	0.927
10.1619	0.927
10.2028	0.929
10.2438	0.909
10.2847	0.895
10.3257	0.867
10.3666	0.765
10.4076	0.737
10.4485	0.758
10.4895	0.727
10.5304	0.797
10.5713	0.828
10.6123	0.857
10.6532	0.9
10.6942	0.912
10.7351	0.914
10.7761	0.883
10.817	0.801
10.8579	0.84
10.8989	0.864
10.9398	0.917
10.9808	0.931
11.0217	0.936
11.0627	0.938
11.1036	0.943
11.1446	0.95
11.1855	0.955
11.2264	0.955
11.2674	0.953
11.3083	0.953
11.3493	0.953
11.3902	0.953
11.4312	0.953
11.4721	0.945
11.5131	0.905
11.554	0.9
11.5949	0.914
11.6359	0.914
11.6768	0.895
11.7178	0.857
11.7587	0.79
11.7997	0.612
11.8406	0.478
11.8816	0.32
11.9225	0.09
11.9634	0.061
12.0044	0.229
12.0453	0.485
12.0863	0.607
12.1272	0.66
12.1682	0.644
12.2091	0.631
12.2501	0.574
12.291	0.356
12.3319	0.375
12.3729	0.566
12.4138	0.675
12.4548	0.809
12.4957	0.879
12.5367	0.919
12.5776	0.929
12.6186	0.934
12.6595	0.938
12.7004	0.941
12.7414	0.941
12.7823	0.941
12.8233	0.927
12.8642	0.905
12.9052	0.881
12.9461	0.845
12.987	0.759
13.028	0.641
13.0689	0.569
13.1099	0.56
13.1508	0.629
13.1918	0.72
13.2327	0.706
13.2737	0.626
13.3146	0.487
13.3555	0.265
13.3965	0.193
13.4374	0.469
13.4784	0.716
13.5193	0.833
13.5603	0.891
13.6012	0.922
13.6422	0.939
13.6831	0.951
13.724	0.962
13.765	0.97
13.8059	0.977
13.8469	0.982
13.8878	0.991
13.9288	0.993
13.9697	0.996
14.0107	0.998
14.0516	1
14.0925	1
14.1335	1
14.1744	1
14.2154	1.001
14.2563	1.001
14.2973	1.001
14.3382	1.001
14.3792	1.001
14.4201	1.003
14.461	1.003
14.502	1.003
14.5429	1.003
14.5839	1.003
14.6248	1
14.6658	1.001
14.7067	1.001
14.7476	1.001
14.7886	1
14.8295	0.998
14.8705	0.998
14.9114	0.994
14.9524	0.97
14.9933	0.953
15.0343	0.96
15.0752	0.965
15.1161	0.963
15.1571	0.934
15.198	0.891
15.239	0.838
15.2799	0.807
15.3209	0.804
15.3618	0.813
15.4028	0.83
15.4437	0.842
15.4846	0.847
15.5256	0.85
15.5665	0.849
15.6075	0.835
15.6484	0.816
15.6894	0.801
15.7303	0.78
15.7713	0.768
15.8122	0.765
15.8531	0.765
15.8941	0.763
15.935	0.759
15.976	0.756
