Infrared Spectrum: Purine,6-(2-aminoethyl thio)-
Formula: C7 H9 N5 S
State: SOLID (KBr DISC)
Class: COBLENTZ III
Instrument: PERKIN-ELMER 21 (GRATING)
Instrument parameters: FILTER CHANGE ABOUT 1090 CM^-^1
Sampling: TRANSMISSION
Resolution: 2
Origin: SOUTHERN RESEARCH INSTITUTE
1/CM	TRANSMITTANCE
603.749	0.7269
612.776	0.7219
621.803	0.6911
630.831	0.6414
639.858	0.4897
648.885	0.5301
657.912	0.7127
666.939	0.5483
675.966	0.7464
684.994	0.7137
694.021	0.7438
703.048	0.6574
712.075	0.639
721.102	0.6358
730.13	0.6392
739.157	0.6648
748.184	0.7105
757.211	0.6922
766.238	0.6361
775.265	0.7252
784.293	0.719
793.32	0.6384
802.347	0.7172
811.374	0.7187
820.401	0.704
829.429	0.6762
838.456	0.6335
847.483	0.5619
856.51	0.4345
865.537	0.4442
874.564	0.4321
883.592	0.5168
892.619	0.5135
901.646	0.4013
910.673	0.5128
919.7	0.6955
928.728	0.6326
937.755	0.3263
946.782	0.5175
955.809	0.7669
964.836	0.771
973.864	0.7979
982.891	0.7885
991.918	0.77
1000.95	0.7482
1009.97	0.7569
1019	0.7592
1028.03	0.7441
1037.05	0.7343
1046.08	0.7364
1055.11	0.7252
1064.14	0.7149
1073.16	0.7249
1082.19	0.7276
1091.22	0.7081
1100.24	0.6786
1109.27	0.6557
1118.3	0.5948
1127.33	0.4653
1136.35	0.3394
1145.38	0.3475
1154.41	0.5459
1163.43	0.3869
1172.46	0.6593
1181.49	0.7005
1190.52	0.6771
1199.54	0.6506
1208.57	0.5984
1217.6	0.5957
1226.62	0.601
1235.65	0.5412
1244.68	0.365
1253.71	0.1801
1262.73	0.3968
1271.76	0.6472
1280.79	0.5938
1289.81	0.4054
1298.84	0.3214
1307.87	0.2473
1316.9	0.3703
1325.92	0.3629
1334.95	0.2333
1343.98	0.2414
1353.01	0.4553
1362.03	0.6235
1371.06	0.6129
1380.09	0.6331
1389.11	0.6013
1398.14	0.5433
1407.17	0.3956
1416.2	0.4624
1425.22	0.5177
1434.25	0.5108
1443.28	0.4117
1452.3	0.3921
1461.33	0.3776
1470.36	0.4609
1479.39	0.5661
1488.41	0.5568
1497.44	0.5593
1506.47	0.5554
1515.49	0.5265
1524.52	0.4744
1533.55	0.402
1542.58	0.4045
1551.6	0.4303
1560.63	0.3543
1569.66	0.3212
1578.68	0.2525
1587.71	0.1385
1596.74	0.0305
1605.77	0.0248
1614.79	0.0261
1623.82	0.0372
1632.85	0.1414
1641.88	0.3191
1650.9	0.4097
1659.93	0.5502
1668.96	0.5923
1677.98	0.7083
1687.01	0.7399
1696.04	0.7443
1705.07	0.7449
1714.09	0.7631
1723.12	0.7843
1732.15	0.7856
1741.17	0.7898
1750.2	0.8009
1759.23	0.8108
1768.26	0.8087
1777.28	0.81
1786.31	0.8056
1795.34	0.804
1804.36	0.8116
1813.39	0.8025
1822.42	0.7951
1831.45	0.8016
1840.47	0.8034
1849.5	0.8001
1858.53	0.7978
1867.55	0.7948
1876.58	0.7886
1885.61	0.7818
1894.64	0.7803
1903.66	0.778
1912.69	0.7697
1921.72	0.7576
1930.74	0.7808
1939.77	0.786
1948.8	0.7836
1957.83	0.7786
1966.85	0.776
1975.88	0.7731
1984.91	0.7674
1993.94	0.7597
2002.96	0.7594
2011.99	0.7592
2021.02	0.7552
2030.04	0.75
2039.07	0.745
2048.1	0.7405
2057.13	0.7369
2066.15	0.7336
2075.18	0.7304
2084.21	0.7278
2093.23	0.7255
2102.26	0.7214
2111.29	0.7168
2120.32	0.7124
2129.34	0.708
2138.37	0.7027
2147.4	0.6972
2156.42	0.6919
2165.45	0.6893
2174.48	0.6872
2183.51	0.6838
2192.53	0.6776
2201.56	0.6721
2210.59	0.6676
2219.61	0.6647
2228.64	0.6608
2237.67	0.6552
2246.7	0.6487
2255.72	0.6411
2264.75	0.6327
2273.78	0.6243
2282.81	0.6154
2291.83	0.606
2300.86	0.5957
2309.89	0.5846
2318.91	0.5723
2327.94	0.559
2336.97	0.5495
2346	0.5503
2355.02	0.5483
2364.05	0.5503
2373.08	0.5498
2382.1	0.5437
2391.13	0.5359
2400.16	0.5278
2409.19	0.52
2418.21	0.5133
2427.24	0.5083
2436.27	0.5049
2445.29	0.4888
2454.32	0.4789
2463.35	0.4712
2472.38	0.4614
2481.4	0.4475
2490.43	0.4335
2499.46	0.4221
2508.48	0.408
2517.51	0.3934
2526.54	0.3851
2535.57	0.3841
2544.59	0.3869
2553.62	0.3946
2562.65	0.3987
2571.67	0.4013
2580.7	0.4084
2589.73	0.4026
2598.76	0.3961
2607.78	0.3891
2616.81	0.3879
2625.84	0.3847
2634.87	0.3743
2643.89	0.3636
2652.92	0.3544
2661.95	0.3465
2670.97	0.3449
2680	0.3469
2689.03	0.3499
2698.06	0.3494
2707.08	0.3439
2716.11	0.3388
2725.14	0.3341
2734.16	0.3304
2743.19	0.3304
2752.22	0.3297
2761.25	0.3245
2770.27	0.3169
2779.3	0.3094
2788.33	0.3057
2797.35	0.3115
2806.38	0.3215
2815.41	0.332
2824.44	0.3434
2833.46	0.3571
2842.49	0.3605
2851.52	0.3612
2860.54	0.3653
2869.57	0.3764
2878.6	0.3808
2887.63	0.3781
2896.65	0.3715
2905.68	0.3594
2914.71	0.3316
2923.74	0.3175
2932.76	0.3128
2941.79	0.3126
2950.82	0.3139
2959.84	0.3159
2968.87	0.3183
2977.9	0.3237
2986.93	0.3315
2995.95	0.3439
3004.98	0.3567
3014.01	0.3646
3023.03	0.376
3032.06	0.385
3041.09	0.384
3050.12	0.3788
3059.14	0.3704
3068.17	0.3542
3077.2	0.3552
3086.22	0.3634
3095.25	0.3716
3104.28	0.3806
3113.31	0.3917
3122.33	0.4053
3131.36	0.4147
3140.39	0.4224
3149.41	0.43
3158.44	0.4333
3167.47	0.4236
3176.5	0.411
3185.52	0.3763
3194.55	0.3559
3203.58	0.3364
3212.6	0.3298
3221.63	0.3333
3230.66	0.3446
3239.69	0.3533
3248.71	0.3548
3257.74	0.3551
3266.77	0.3573
3275.8	0.3664
3284.82	0.3878
3293.85	0.4176
3302.88	0.4408
3311.9	0.471
3320.93	0.5234
3329.96	0.5337
3338.99	0.5483
3348.01	0.5627
3357.04	0.5657
3366.07	0.5661
3375.09	0.5652
3384.12	0.5625
3393.15	0.5531
3402.18	0.5504
3411.2	0.5497
3420.23	0.5479
3429.26	0.5408
3438.28	0.5455
3447.31	0.5512
3456.34	0.5509
3465.37	0.5493
3474.39	0.5476
3483.42	0.5473
3492.45	0.5487
3501.47	0.5503
3510.5	0.5535
3519.53	0.5571
3528.56	0.5625
3537.58	0.5717
3546.61	0.5789
3555.64	0.5819
3564.67	0.5836
3573.69	0.5833
3582.72	0.5821
3591.75	0.5811
3600.77	0.58
3609.8	0.5797
3618.83	0.5826
3627.86	0.6009
3636.88	0.6099
3645.91	0.6095
3654.94	0.6092
3663.96	0.6092
3672.99	0.6104
3682.02	0.6173
3691.05	0.6276
3700.07	0.628
3709.1	0.6174
3718.13	0.6324
3727.15	0.63
3736.18	0.626
3745.21	0.622
3754.24	0.6209
3763.26	0.6321
3772.29	0.6329
3781.32	0.6376
3790.34	0.6326
3799.37	0.6187
3808.4	0.613
3817.43	0.6116
3826.45	0.6121
3835.48	0.6034
3844.51	0.6029
3853.53	0.6063
3862.56	0.6107
3871.59	0.6114
3880.62	0.6089
3889.64	0.6061
3898.67	0.606
3907.7	0.6103
3916.73	0.6069
3925.75	0.5972
3934.78	0.5948
3943.81	0.594
3952.83	0.5951
3961.86	0.5947
3970.89	0.5942
3979.92	0.5908
3988.94	0.5897
3997.97	0.5888
4007	0.5743
