Infrared Spectrum: GLYCINE, N-BENZYL-N-[6-CHLORO-5-(2,2,2-TRIFLUORO-N-METHYLACETAMIDO)PYRIMIDIN-4-YL]-, ETHYL ESTER
Formula: C18 H18 Cl F3 N4 O3
State: LIQUID (NEAT)
Class: COBLENTZ III
Instrument: PERKIN-ELMER 221 (GRATING)
Instrument parameters: FILTER CHANGE AT 980 CM^-^1, GRATING FOR 4000-1428 CM^-^1, NaCl PRISM FOR 1428-650 CM^-^1
Sampling: TRANSMISSION
Path length: CAPILLARY
Resolution: 4
Origin: SOUTHERN RESEARCH INSTITUTE
1/CM	TRANSMITTANCE
625.471	0.642
634.568	0.666
643.665	0.685
652.762	0.7
661.858	0.705
670.955	0.698
680.052	0.679
689.149	0.537
698.246	0.433
707.343	0.696
716.439	0.613
725.536	0.455
734.633	0.485
743.73	0.581
752.827	0.618
761.924	0.743
771.02	0.701
780.117	0.741
789.214	0.73
798.311	0.813
807.408	0.805
816.505	0.746
825.601	0.768
834.698	0.811
843.795	0.793
852.892	0.809
861.989	0.82
871.086	0.816
880.182	0.763
889.279	0.834
898.376	0.831
907.473	0.817
916.57	0.811
925.667	0.796
934.763	0.735
943.86	0.628
952.957	0.542
962.054	0.486
971.151	0.704
980.248	0.781
989.344	0.722
998.441	0.739
1007.54	0.676
1016.63	0.507
1025.73	0.445
1034.83	0.697
1043.93	0.598
1053.02	0.448
1062.12	0.587
1071.22	0.596
1080.31	0.619
1089.41	0.55
1098.51	0.456
1107.6	0.58
1116.7	0.568
1125.8	0.479
1134.89	0.321
1143.99	0.204
1153.09	0.176
1162.18	0.275
1171.28	0.307
1180.38	0.203
1189.47	0.112
1198.57	0.102
1207.67	0.111
1216.77	0.145
1225.86	0.204
1234.96	0.359
1244.06	0.404
1253.15	0.373
1262.25	0.459
1271.35	0.511
1280.44	0.522
1289.54	0.55
1298.64	0.627
1307.73	0.712
1316.83	0.698
1325.93	0.66
1335.02	0.554
1344.12	0.465
1353.22	0.423
1362.31	0.421
1371.41	0.434
1380.51	0.404
1389.61	0.329
1398.7	0.251
1407.8	0.453
1416.9	0.456
1425.99	0.438
1435.09	0.37
1444.19	0.342
1453.28	0.321
1462.38	0.452
1471.48	0.46
1480.57	0.45
1489.67	0.403
1498.77	0.423
1507.86	0.602
1516.96	0.436
1526.06	0.294
1535.15	0.208
1544.25	0.366
1553.35	0.274
1562.44	0.083
1571.54	0.13
1580.64	0.434
1589.74	0.528
1598.83	0.689
1607.93	0.644
1617.03	0.555
1626.12	0.637
1635.22	0.735
1644.32	0.778
1653.41	0.777
1662.51	0.76
1671.61	0.743
1680.7	0.692
1689.8	0.603
1698.9	0.481
1707.99	0.25
1717.09	0.17
1726.19	0.165
1735.28	0.237
1744.38	0.162
1753.48	0.137
1762.58	0.256
1771.67	0.626
1780.77	0.758
1789.87	0.789
1798.96	0.804
1808.06	0.81
1817.16	0.815
1826.25	0.822
1835.35	0.833
1844.45	0.837
1853.54	0.84
1862.64	0.842
1871.74	0.838
1880.83	0.835
1889.93	0.838
1899.03	0.843
1908.12	0.841
1917.22	0.839
1926.32	0.836
1935.42	0.834
1944.51	0.829
1953.61	0.833
1962.71	0.836
1971.8	0.837
1980.9	0.84
1990	0.842
1999.09	0.843
2008.19	0.844
2017.29	0.842
2026.38	0.84
2035.48	0.838
2044.58	0.836
2053.67	0.836
2062.77	0.836
2071.87	0.835
2080.96	0.835
2090.06	0.834
2099.16	0.834
2108.25	0.834
2117.35	0.832
2126.45	0.832
2135.55	0.832
2144.64	0.832
2153.74	0.831
2162.84	0.83
2171.93	0.828
2181.03	0.827
2190.13	0.826
2199.22	0.809
2208.32	0.805
2217.42	0.821
2226.51	0.824
2235.61	0.821
2244.71	0.82
2253.8	0.817
2262.9	0.816
2272	0.814
2281.09	0.813
2290.19	0.812
2299.29	0.81
2308.39	0.806
2317.48	0.801
2326.58	0.794
2335.68	0.792
2344.77	0.789
2353.87	0.787
2362.97	0.788
2372.06	0.79
2381.16	0.791
2390.26	0.792
2399.35	0.792
2408.45	0.792
2417.55	0.792
2426.64	0.792
2435.74	0.793
2444.84	0.793
2453.93	0.793
2463.03	0.793
2472.13	0.793
2481.23	0.793
2490.32	0.792
2499.42	0.792
2508.52	0.791
2517.61	0.789
2526.71	0.789
2535.81	0.788
2544.9	0.788
2554	0.787
2563.1	0.786
2572.19	0.784
2581.29	0.784
2590.39	0.782
2599.48	0.781
2608.58	0.78
2617.68	0.779
2626.77	0.779
2635.87	0.778
2644.97	0.777
2654.06	0.776
2663.16	0.775
2672.26	0.773
2681.36	0.77
2690.45	0.768
2699.55	0.766
2708.65	0.764
2717.74	0.761
2726.84	0.759
2735.94	0.758
2745.03	0.756
2754.13	0.754
2763.23	0.749
2772.32	0.746
2781.42	0.737
2790.52	0.73
2799.61	0.723
2808.71	0.712
2817.81	0.709
2826.9	0.707
2836	0.699
2845.1	0.696
2854.2	0.693
2863.29	0.685
2872.39	0.681
2881.49	0.676
2890.58	0.667
2899.68	0.642
2908.78	0.62
2917.87	0.616
2926.97	0.602
2936.07	0.572
2945.16	0.591
2954.26	0.612
2963.36	0.601
2972.45	0.586
2981.55	0.534
2990.65	0.521
2999.74	0.576
3008.84	0.612
3017.94	0.643
3027.04	0.634
3036.13	0.618
3045.23	0.662
3054.33	0.68
3063.42	0.663
3072.52	0.666
3081.62	0.707
3090.71	0.713
3099.81	0.728
3108.91	0.741
3118	0.744
3127.1	0.749
3136.2	0.751
3145.29	0.753
3154.39	0.754
3163.49	0.753
3172.58	0.751
3181.68	0.75
3190.78	0.75
3199.87	0.75
3208.97	0.75
3218.07	0.75
3227.17	0.749
3236.26	0.747
3245.36	0.745
3254.46	0.743
3263.55	0.741
3272.65	0.741
3281.75	0.741
3290.84	0.737
3299.94	0.731
3309.04	0.724
3318.13	0.72
3327.23	0.716
3336.33	0.715
3345.42	0.714
3354.52	0.715
3363.62	0.716
3372.71	0.721
3381.81	0.722
3390.91	0.72
3400.01	0.717
3409.1	0.717
3418.2	0.717
3427.3	0.718
3436.39	0.717
3445.49	0.715
3454.59	0.715
3463.68	0.715
3472.78	0.716
3481.88	0.717
3490.97	0.72
3500.07	0.721
3509.17	0.723
3518.26	0.724
3527.36	0.726
3536.46	0.729
3545.55	0.731
3554.65	0.731
3563.75	0.73
3572.85	0.73
3581.94	0.731
3591.04	0.732
3600.14	0.731
3609.23	0.729
3618.33	0.726
3627.43	0.724
3636.52	0.722
3645.62	0.723
3654.72	0.724
3663.81	0.729
3672.91	0.733
3682.01	0.736
3691.1	0.738
3700.2	0.738
3709.3	0.739
3718.39	0.739
3727.49	0.739
3736.59	0.739
3745.68	0.739
3754.78	0.739
3763.88	0.739
3772.98	0.739
3782.07	0.738
3791.17	0.737
3800.27	0.737
3809.36	0.736
3818.46	0.735
3827.56	0.734
3836.65	0.733
3845.75	0.732
3854.85	0.733
3863.94	0.734
3873.04	0.737
3882.14	0.735
3891.23	0.735
3900.33	0.734
3909.43	0.733
3918.52	0.732
3927.62	0.732
3936.72	0.732
3945.82	0.732
3954.91	0.732
3964.01	0.732
3973.11	0.731
3982.2	0.73
3991.3	0.729
4000.4	0.728
4009.49	0.727
4018.59	0.726
