Infrared Spectrum: 4-(2-Aminoethyl)catechol, hydrochloride
Formula: C8 H12 Cl N O2
State: SOLID (SPLIT MULL), FLUOROLUBE FOR 3800-1330 CM^-^1, NUJOL FOR 1330-400 CM^-^1
Class: COBLENTZ II
Instrument: DOW KBr FOREPRISM-GRATING
Instrument parameters: BLAZED AT 3.5, 12.0, 20.0 MICRON AND CHANGED AT 5.0, 7.5, 14.9 MICRON
Sampling: TRANSMISSION
Resolution: 2
Origin: DOW CHEMICAL COMPANY
1/CM	TRANSMITTANCE
3812	0.6651
3803	0.6657
3794	0.6668
3785	0.6686
3776	0.6721
3767	0.6758
3758	0.6796
3749	0.6834
3740	0.6872
3731	0.6911
3722	0.6955
3713	0.7
3704	0.7046
3695	0.7098
3686	0.715
3677	0.7201
3668	0.7254
3659	0.7305
3650	0.7356
3641	0.7406
3632	0.7445
3623	0.7484
3614	0.7522
3605	0.7561
3596	0.7599
3587	0.7637
3578	0.7675
3569	0.7708
3560	0.7744
3551	0.7781
3542	0.7818
3533	0.7858
3524	0.7904
3515	0.7925
3506	0.7911
3497	0.7846
3488	0.7768
3479	0.7689
3470	0.7625
3461	0.7567
3452	0.7505
3443	0.7425
3434	0.7274
3425	0.7128
3416	0.6835
3407	0.643
3398	0.5719
3389	0.532
3380	0.4874
3371	0.441
3362	0.3471
3353	0.2324
3344	0.2259
3335	0.2654
3326	0.3037
3317	0.315
3308	0.3137
3299	0.3079
3290	0.297
3281	0.2822
3272	0.2462
3263	0.2245
3254	0.2125
3245	0.1994
3236	0.1894
3227	0.1804
3218	0.1729
3209	0.1665
3200	0.1673
3191	0.1708
3182	0.1754
3173	0.1757
3164	0.1753
3155	0.1751
3146	0.1751
3137	0.1751
3128	0.1756
3119	0.1762
3110	0.1767
3101	0.176
3092	0.1712
3083	0.1619
3074	0.1529
3065	0.153
3056	0.1522
3047	0.1448
3038	0.1401
3029	0.1401
3020	0.164
3011	0.1956
3002	0.2263
2993	0.2508
2984	0.2696
2975	0.2768
2966	0.2674
2957	0.2466
2948	0.2419
2939	0.2448
2930	0.2574
2921	0.29
2912	0.3097
2903	0.3289
2894	0.3484
2885	0.3668
2876	0.3808
2867	0.3897
2858	0.4032
2849	0.4202
2840	0.4337
2831	0.4441
2822	0.4506
2813	0.4558
2804	0.4645
2795	0.4776
2786	0.4937
2777	0.5051
2768	0.5166
2759	0.5188
2750	0.5187
2741	0.5192
2732	0.5267
2723	0.5265
2714	0.5273
2705	0.5358
2696	0.5408
2687	0.5422
2678	0.548
2669	0.5552
2660	0.5588
2651	0.5626
2642	0.5362
2633	0.54
2624	0.5572
2615	0.5687
2606	0.5767
2597	0.5842
2588	0.5912
2579	0.5979
2570	0.6042
2561	0.606
2552	0.6019
2543	0.5936
2534	0.5906
2525	0.5912
2516	0.5943
2507	0.5992
2498	0.6162
2489	0.63
2480	0.6362
2471	0.6387
2462	0.6377
2453	0.6336
2444	0.6249
2435	0.6137
2426	0.6109
2417	0.6283
2408	0.633
2399	0.6371
2390	0.643
2381	0.6507
2372	0.6562
2363	0.6569
2354	0.6568
2345	0.6568
2336	0.6578
2327	0.6592
2318	0.6641
2309	0.6704
2300	0.6744
2291	0.6764
2282	0.6812
2273	0.6874
2264	0.6944
2255	0.7005
2246	0.7061
2237	0.7114
2228	0.7165
2219	0.7217
2210	0.7268
2201	0.7318
2192	0.7371
2183	0.7421
2174	0.7474
2165	0.7508
2156	0.7525
2147	0.7544
2138	0.7561
2129	0.7591
2120	0.7625
2111	0.7661
2102	0.7698
2093	0.7718
2084	0.7735
2075	0.7744
2066	0.7756
2057	0.7789
2048	0.7824
2039	0.7849
2030	0.7865
2021	0.7881
2012	0.7888
2003	0.7895
1994	0.7911
1985	0.7932
1976	0.7939
1967	0.7938
1958	0.7878
1949	0.7747
1940	0.7691
1931	0.7678
1922	0.7701
1913	0.7725
1904	0.7745
1895	0.7771
1886	0.7806
1877	0.7818
1868	0.7818
1859	0.784
1850	0.7961
1841	0.8078
1832	0.8119
1823	0.8175
1814	0.8195
1805	0.8137
1796	0.8172
1787	0.8207
1778	0.8244
1769	0.829
1760	0.8306
1751	0.8151
1742	0.8186
1733	0.8325
1724	0.8378
1715	0.8289
1706	0.832
1697	0.8391
1688	0.8445
1679	0.8495
1670	0.8543
1661	0.859
1652	0.8655
1643	0.8718
1634	0.8692
1625	0.7704
1616	0.457
1607	0.6291
1598	0.499
1589	0.6497
1580	0.6152
1571	0.7644
1562	0.7857
1553	0.8061
1544	0.8122
1535	0.8071
1526	0.6296
1517	0.5327
1508	0.1675
1499	0.0707
1490	0.359
1481	0.5379
1472	0.4014
1463	0.5697
1454	0.6382
1445	0.6758
1436	0.7011
1427	0.7214
1418	0.7301
1409	0.7372
1400	0.7451
1391	0.656
1382	0.7168
1373	0.7251
1364	0.6697
1355	0.5226
1346	0.3655
1337	0.412
1328	0.5459
1319	0.3077
1310	0.5525
1301	0.631
1292	0.1261
1283	0.2329
1274	0.3975
1265	0.3579
1256	0.4477
1247	0.611
1238	0.6386
1229	0.6312
1220	0.5706
1211	0.2998
1202	0.2973
1193	0.169
1184	0.3242
1175	0.1804
1166	0.5409
1157	0.5582
1148	0.3496
1139	0.5973
1130	0.6464
1121	0.4568
1112	0.6364
1103	0.6958
1094	0.6962
1085	0.5416
1076	0.6837
1067	0.7336
1058	0.7438
1049	0.7524
1040	0.755
1031	0.7575
1022	0.7534
1013	0.5926
1004	0.7434
995	0.7675
986	0.7778
977	0.7808
968	0.7143
959	0.7438
950	0.573
941	0.4697
932	0.5442
923	0.7744
914	0.7971
905	0.8076
896	0.8088
887	0.7981
878	0.4704
869	0.7982
860	0.8131
851	0.8156
842	0.8193
833	0.8175
824	0.7556
815	0.5541
806	0.7875
797	0.4648
788	0.6605
779	0.7092
770	0.8094
761	0.8103
752	0.7011
743	0.8024
734	0.8037
725	0.7692
716	0.8099
707	0.839
698	0.8471
689	0.8556
680	0.8537
671	0.8412
662	0.8303
653	0.8264
644	0.8124
635	0.7775
626	0.7635
617	0.7238
608	0.5332
599	0.492
590	0.7101
581	0.6414
572	0.5828
563	0.5318
554	0.5117
545	0.5188
536	0.5452
527	0.5852
518	0.6252
509	0.6651
500	0.6947
491	0.7094
482	0.7035
473	0.7089
464	0.7347
455	0.7515
446	0.7703
437	0.7725
428	0.7707
419	0.7678
410	0.7631
401	0.7599
392	0.7547
