Infrared Spectrum: 3,4-Dihydro-2H-pyran-2-methylamine
Formula: C6 H11 N O
State: LIQUID (NEAT)
Class: COBLENTZ III
Instrument: DOW KBr FOREPRISM-GRATING
Instrument parameters: BLAZED AT 3.5, 12.0, 20.0 MICRON AND CHANGED AT 5.0, 7.5, 14.9 MICRON
Sampling: TRANSMISSION
Path length: CAPILLARY
Resolution: 2
Origin: DOW CHEMICAL COMPANY
1/CM	TRANSMITTANCE
3800	0.9604
3791	0.9623
3782	0.962
3773	0.9613
3764	0.9612
3755	0.9615
3746	0.9625
3737	0.9638
3728	0.9635
3719	0.9595
3710	0.9577
3701	0.9559
3692	0.953
3683	0.9448
3674	0.9427
3665	0.9286
3656	0.9107
3647	0.8948
3638	0.8818
3629	0.87
3620	0.8585
3611	0.8486
3602	0.8396
3593	0.8309
3584	0.8225
3575	0.8141
3566	0.806
3557	0.7978
3548	0.7897
3539	0.7803
3530	0.7708
3521	0.7615
3512	0.753
3503	0.7445
3494	0.7358
3485	0.7271
3476	0.7185
3467	0.7087
3458	0.6965
3449	0.6855
3440	0.6747
3431	0.6631
3422	0.6518
3413	0.6375
3404	0.6165
3395	0.573
3386	0.5177
3377	0.503
3368	0.5162
3359	0.5444
3350	0.5712
3341	0.5891
3332	0.5936
3323	0.5879
3314	0.5791
3305	0.5721
3296	0.5716
3287	0.5766
3278	0.5838
3269	0.5923
3260	0.6023
3251	0.6128
3242	0.623
3233	0.629
3224	0.6315
3215	0.6326
3206	0.6341
3197	0.636
3188	0.6403
3179	0.6469
3170	0.6576
3161	0.6698
3152	0.6819
3143	0.6934
3134	0.7019
3125	0.7095
3116	0.7155
3107	0.7192
3098	0.7195
3089	0.7115
3080	0.7
3071	0.6725
3062	0.5433
3053	0.5716
3044	0.6992
3035	0.7451
3026	0.7567
3017	0.7636
3008	0.7661
2999	0.7625
2990	0.7581
2981	0.7453
2972	0.7205
2963	0.6453
2954	0.4841
2945	0.3616
2936	0.3424
2927	0.2914
2918	0.2774
2909	0.3845
2900	0.4862
2891	0.5235
2882	0.5246
2873	0.4904
2864	0.4382
2855	0.3682
2846	0.4824
2837	0.6626
2828	0.731
2819	0.7657
2810	0.8012
2801	0.8271
2792	0.8357
2783	0.8437
2774	0.8515
2765	0.8582
2756	0.8645
2747	0.8697
2738	0.8739
2729	0.8744
2720	0.8705
2711	0.8686
2702	0.8723
2693	0.8815
2684	0.8862
2675	0.8888
2666	0.8885
2657	0.886
2648	0.8831
2639	0.8845
2630	0.8907
2621	0.8991
2612	0.9068
2603	0.9112
2594	0.9125
2585	0.9134
2576	0.9135
2567	0.9134
2558	0.9135
2549	0.9138
2540	0.9143
2531	0.9159
2522	0.9175
2513	0.9194
2504	0.9201
2495	0.9201
2486	0.9192
2477	0.9178
2468	0.9184
2459	0.9194
2450	0.92
2441	0.9202
2432	0.9204
2423	0.9206
2414	0.9207
2405	0.921
2396	0.922
2387	0.9239
2378	0.9263
2369	0.9281
2360	0.9283
2351	0.9268
2342	0.9239
2333	0.9182
2324	0.9124
2315	0.9071
2306	0.9058
2297	0.909
2288	0.9111
2279	0.9124
2270	0.9125
2261	0.9127
2252	0.9127
2243	0.9111
2234	0.9091
2225	0.908
2216	0.91
2207	0.9104
2198	0.9108
2189	0.9105
2180	0.9095
2171	0.9086
2162	0.9049
2153	0.9006
2144	0.8974
2135	0.8965
2126	0.8996
2117	0.9037
2108	0.9071
2099	0.9099
2090	0.9111
2081	0.9104
2072	0.9095
2063	0.9084
2054	0.908
2045	0.9077
2036	0.9075
2027	0.9075
2018	0.9075
2009	0.9071
2000	0.9054
1991	0.8988
1982	0.8941
1973	0.8935
1964	0.8939
1955	0.8942
1946	0.8947
1937	0.8987
1928	0.9001
1919	0.8993
1910	0.9004
1901	0.9025
1892	0.9041
1883	0.9051
1874	0.9036
1865	0.9037
1856	0.9031
1847	0.9008
1838	0.8966
1829	0.8944
1820	0.8939
1811	0.8965
1802	0.9009
1793	0.9042
1784	0.9001
1775	0.9016
1766	0.9018
1757	0.8985
1748	0.8802
1739	0.8705
1730	0.8687
1721	0.8698
1712	0.866
1703	0.8521
1694	0.8312
1685	0.795
1676	0.7538
1667	0.6774
1658	0.3823
1649	0.0836
1640	0.3837
1631	0.6047
1622	0.6327
1613	0.6625
1604	0.6532
1595	0.6447
1586	0.6691
1577	0.7195
1568	0.7607
1559	0.7914
1550	0.8124
1541	0.8297
1532	0.8424
1523	0.8541
1514	0.8625
1505	0.8646
1496	0.8642
1487	0.8575
1478	0.8457
1469	0.8213
1460	0.7725
1451	0.6747
1442	0.7231
1433	0.7743
1424	0.841
1415	0.8488
1406	0.8433
1397	0.8167
1388	0.7808
1379	0.7887
1370	0.8111
1361	0.7969
1352	0.7728
1343	0.7833
1334	0.791
1325	0.7989
1316	0.8331
1307	0.8385
1298	0.8371
1289	0.8218
1280	0.8225
1271	0.8171
1262	0.7714
1253	0.4932
1244	0.0671
1235	0.2701
1226	0.4194
1217	0.7174
1208	0.8054
1199	0.8421
1190	0.8463
1181	0.8292
1172	0.8421
1163	0.8273
1154	0.8693
1145	0.8697
1136	0.858
1127	0.8357
1118	0.8168
1109	0.7992
1100	0.7826
1091	0.7057
1082	0.4449
1073	0.1399
1064	0.0736
1055	0.3682
1046	0.5751
1037	0.5479
1028	0.6356
1019	0.7571
1010	0.7758
1001	0.7757
992	0.6992
983	0.6771
974	0.6956
965	0.6553
956	0.6108
947	0.5697
938	0.53
929	0.5395
920	0.5869
911	0.5342
902	0.5059
893	0.5325
884	0.5324
875	0.5151
866	0.5392
857	0.5577
848	0.574
839	0.5972
830	0.6277
821	0.6543
812	0.6575
803	0.6135
794	0.6149
785	0.6753
776	0.7157
767	0.7237
758	0.651
749	0.5941
740	0.5839
731	0.4255
722	0.4253
713	0.6648
704	0.7498
695	0.7711
686	0.7808
677	0.7867
668	0.8036
659	0.8043
650	0.804
641	0.8041
632	0.7801
623	0.7689
614	0.7897
605	0.7999
596	0.8051
587	0.8095
578	0.8142
569	0.8121
560	0.8093
551	0.8011
542	0.7869
533	0.7558
524	0.7193
515	0.6781
506	0.7567
497	0.7699
488	0.7025
479	0.6908
470	0.7168
461	0.7369
