Infrared Spectrum: Pyrazole-3-amine, 4-phenyl-, hydrochloride
Formula: C9 H10 Cl N3
State: SOLID (KBr)
Class: COBLENTZ III
Instrument: PERKIN-ELMER 21 (GRATING)
Instrument parameters: NaCl PRISM
Sampling: TRANSMISSION
Resolution: 2
Origin: SMITH, KLINE & FRENCH LABS.
1/CM	TRANSMITTANCE
626	0.3963
635	0.4501
644	0.6288
653	0.6096
662	0.4374
671	0.4833
680	0.4568
689	0.4579
698	0.1753
707	0.485
716	0.2629
725	0.2979
734	0.4904
743	0.5723
752	0.4082
761	0.0857
770	0.3948
779	0.3567
788	0.3772
797	0.5971
806	0.687
815	0.722
824	0.73
833	0.7369
842	0.6834
851	0.4031
860	0.7101
869	0.7607
878	0.7662
887	0.7664
896	0.77
905	0.7236
914	0.6722
923	0.7433
932	0.7218
941	0.7462
950	0.7503
959	0.7375
968	0.7027
977	0.7047
986	0.6319
995	0.446
1004	0.5737
1013	0.5363
1022	0.6497
1031	0.5633
1040	0.5743
1049	0.5021
1058	0.5219
1067	0.4611
1076	0.4287
1085	0.2681
1094	0.2065
1103	0.3841
1112	0.4359
1121	0.3605
1130	0.4058
1139	0.5637
1148	0.5917
1157	0.5005
1166	0.2375
1175	0.2548
1184	0.4338
1193	0.6519
1202	0.6723
1211	0.5701
1220	0.4949
1229	0.6829
1238	0.674
1247	0.7021
1256	0.6981
1265	0.6854
1274	0.6551
1283	0.6907
1292	0.6819
1301	0.6571
1310	0.617
1319	0.5536
1328	0.5536
1337	0.5708
1346	0.5878
1355	0.5825
1364	0.5638
1373	0.4551
1382	0.2878
1391	0.2298
1400	0.3983
1409	0.4792
1418	0.465
1427	0.4108
1436	0.2764
1445	0.214
1454	0.446
1463	0.409
1472	0.2988
1481	0.2568
1490	0.1327
1499	0.0715
1508	0.1813
1517	0.2861
1526	0.435
1535	0.3909
1544	0.246
1553	0.2646
1562	0.2853
1571	0.2822
1580	0.3671
1589	0.3476
1598	0.2725
1607	0.244
1616	0.2563
1625	0.4056
1634	0.4425
1643	0.5471
1652	0.6194
1661	0.637
1670	0.6801
1679	0.6736
1688	0.6946
1697	0.6898
1706	0.7079
1715	0.7116
1724	0.7114
1733	0.722
1742	0.7172
1751	0.7078
1760	0.7046
1769	0.6957
1778	0.7101
1787	0.7102
1796	0.7077
1805	0.6969
1814	0.684
1823	0.6855
1832	0.6875
1841	0.6885
1850	0.687
1859	0.6782
1868	0.6651
1877	0.644
1886	0.6353
1895	0.632
1904	0.6336
1913	0.6386
1922	0.6256
1931	0.6207
1940	0.6149
1949	0.5911
1958	0.5677
1967	0.5718
1976	0.5857
1985	0.5819
1994	0.5702
2003	0.5695
2012	0.5826
2021	0.5945
2030	0.6091
2039	0.6251
2048	0.631
2057	0.6304
2066	0.619
2075	0.6182
2084	0.6202
2093	0.6213
2102	0.6146
2111	0.6099
2120	0.6041
2129	0.5951
2138	0.5868
2147	0.581
2156	0.5819
2165	0.5764
2174	0.5676
2183	0.559
2192	0.5581
2201	0.5591
2210	0.5569
2219	0.5397
2228	0.5277
2237	0.5231
2246	0.5207
2255	0.5137
2264	0.5102
2273	0.5033
2282	0.494
2291	0.4836
2300	0.474
2309	0.4633
2318	0.4533
2327	0.4443
2336	0.4365
2345	0.4298
2354	0.4251
2363	0.4233
2372	0.4217
2381	0.4137
2390	0.3997
2399	0.3867
2408	0.3701
2417	0.3513
2426	0.348
2435	0.3413
2444	0.3189
2453	0.2946
2462	0.2686
2471	0.2659
2480	0.2466
2489	0.2406
2498	0.236
2507	0.2233
2516	0.2068
2525	0.2042
2534	0.2028
2543	0.2016
2552	0.2005
2561	0.1998
2570	0.1992
2579	0.1991
2588	0.199
2597	0.1991
2606	0.199
2615	0.1987
2624	0.1962
2633	0.1886
2642	0.1797
2651	0.1667
2660	0.1613
2669	0.1607
2678	0.1576
2687	0.1503
2696	0.1432
2705	0.1358
2714	0.128
2723	0.1187
2732	0.1106
2741	0.106
2750	0.1038
2759	0.1018
2768	0.103
2777	0.1055
2786	0.1011
2795	0.0919
2804	0.0868
2813	0.0855
2822	0.086
2831	0.0886
2840	0.0905
2849	0.0909
2858	0.0908
2867	0.0906
2876	0.0919
2885	0.1008
2894	0.1041
2903	0.1046
2912	0.1051
2921	0.1056
2930	0.1056
2939	0.1055
2948	0.1054
2957	0.1055
2966	0.1072
2975	0.1095
2984	0.1097
2993	0.1084
3002	0.1067
3011	0.1054
3020	0.1082
3029	0.1167
3038	0.1176
3047	0.1174
3056	0.1187
3065	0.1226
3074	0.1247
3083	0.1247
3092	0.1246
3101	0.1245
3110	0.1247
3119	0.1249
3128	0.1253
3137	0.1266
3146	0.1268
3155	0.1204
3164	0.1097
3173	0.1005
3182	0.0936
3191	0.0885
3200	0.0863
3209	0.0859
3218	0.0873
3227	0.1319
3236	0.1852
3245	0.2031
3254	0.2111
3263	0.2132
3272	0.2134
3281	0.213
3290	0.2118
3299	0.2081
3308	0.1988
3317	0.1887
3326	0.1843
3335	0.185
3344	0.1938
3353	0.2059
3362	0.2165
3371	0.2476
3380	0.2885
3389	0.32
3398	0.3283
3407	0.3352
3416	0.3423
3425	0.3497
3434	0.3579
3443	0.3693
3452	0.3824
3461	0.3966
3470	0.4118
3479	0.4239
3488	0.4344
3497	0.443
3506	0.4516
3515	0.4613
3524	0.4721
3533	0.48
3542	0.4856
3551	0.4913
3560	0.4969
3569	0.5049
3578	0.5137
3587	0.5233
3596	0.535
3605	0.5508
3614	0.5586
3623	0.5619
3632	0.5641
3641	0.5653
3650	0.5664
3659	0.5673
3668	0.5701
3677	0.5733
3686	0.576
3695	0.5782
3704	0.5792
3713	0.5803
3722	0.5812
3731	0.5818
3740	0.5832
3749	0.586
3758	0.5838
3767	0.5783
3776	0.5708
3785	0.5668
3794	0.5656
3803	0.5648
3812	0.5614
3821	0.557
3830	0.5549
3839	0.554
3848	0.5536
3857	0.5535
3866	0.5534
3875	0.5535
3884	0.5537
3893	0.5538
3902	0.5537
3911	0.5536
3920	0.5523
3929	0.5507
3938	0.5491
3947	0.5472
3956	0.5432
3965	0.539
3974	0.5352
3983	0.5321
3992	0.5315
