Infrared Spectrum: SODIUM SALT OF METHYL ESTER OF Alpha-SULFO STEARIC ACID
Formula: C19 H37 S O5 Na
State: SOLID (MINERAL OIL MULL)
Class: COBLENTZ
Instrument: Not specified, most likely a prism, grating, or hybrid spectrometer.
Sampling: TRANSMISSION
Resolution: 4
Origin: WYANDOTTE CHEMICALS CORP., WYANDOTTE, MICHIGAN, USA
MICROMETERS	TRANSMITTANCE
2	0.621
2.03979	0.626
2.07958	0.639
2.11937	0.627
2.15917	0.624
2.19896	0.593
2.23875	0.586
2.27854	0.593
2.31833	0.593
2.35812	0.602
2.39791	0.616
2.43771	0.634
2.4775	0.637
2.51729	0.639
2.55708	0.649
2.59687	0.639
2.63666	0.656
2.67645	0.632
2.71625	0.531
2.75604	0.255
2.79583	0.182
2.83562	0.146
2.87541	0.121
2.9152	0.161
2.955	0.232
2.99479	0.305
3.03458	0.41
3.07437	0.453
3.11416	0.463
3.15395	0.465
3.19374	0.471
3.23354	0.516
3.27333	0.44
3.31312	0.387
3.35291	0.073
3.3927	0.028
3.43249	0.034
3.47228	0.053
3.51208	0.112
3.55187	0.34
3.59166	0.491
3.63145	0.561
3.67124	0.576
3.71103	0.599
3.75082	0.604
3.79062	0.609
3.83041	0.632
3.8702	0.642
3.90999	0.671
3.94978	0.686
3.98957	0.697
4.02936	0.71
4.06916	0.715
4.10895	0.72
4.14874	0.72
4.18853	0.725
4.22832	0.717
4.26811	0.691
4.3079	0.712
4.3477	0.724
4.38749	0.752
4.42728	0.745
4.46707	0.74
4.50686	0.749
4.54665	0.749
4.58645	0.755
4.62624	0.764
4.66603	0.764
4.70582	0.762
4.74561	0.759
4.7854	0.769
4.82519	0.762
4.86499	0.759
4.90478	0.769
4.94457	0.764
4.98436	0.77
5.02415	0.787
5.06394	0.789
5.10373	0.802
5.14353	0.823
5.18332	0.832
5.22311	0.833
5.2629	0.837
5.30269	0.835
5.34248	0.842
5.38227	0.843
5.42207	0.838
5.46186	0.842
5.50165	0.845
5.54144	0.838
5.58123	0.827
5.62102	0.812
5.66081	0.789
5.70061	0.616
5.7404	0.259
5.78019	0.081
5.81998	0.127
5.85977	0.315
5.89956	0.506
5.93936	0.579
5.97915	0.629
6.01894	0.593
6.05873	0.556
6.09852	0.49
6.13831	0.506
6.1781	0.619
6.2179	0.697
6.25769	0.749
6.29748	0.76
6.33727	0.765
6.37706	0.775
6.41685	0.774
6.45664	0.787
6.49644	0.785
6.53623	0.784
6.57602	0.787
6.61581	0.794
6.6556	0.754
6.69539	0.704
6.73518	0.44
6.77498	0.151
6.81477	0.179
6.85456	0.22
6.89435	0.247
6.93414	0.307
6.97393	0.504
7.01372	0.609
7.05352	0.604
7.09331	0.571
7.1331	0.626
7.17289	0.677
7.21268	0.531
7.25247	0.418
7.29226	0.504
7.33206	0.533
7.37185	0.476
7.41164	0.493
7.45143	0.536
7.49122	0.583
7.53101	0.556
7.57081	0.488
7.6106	0.476
7.65039	0.39
7.69018	0.372
7.72997	0.34
7.76976	0.234
7.80955	0.197
7.84935	0.204
7.88914	0.174
7.92893	0.162
7.96872	0.126
8.00851	0.094
8.0483	0.074
8.08809	0.064
8.12789	0.034
8.16768	0.048
8.20747	0.049
8.24726	0.053
8.28705	0.073
8.32684	0.083
8.36663	0.099
8.40643	0.121
8.44622	0.141
8.48601	0.151
8.5258	0.2
8.56559	0.254
8.60538	0.332
8.64517	0.392
8.68497	0.475
8.72476	0.526
8.76455	0.578
8.80434	0.561
8.84413	0.446
8.88392	0.401
8.92371	0.5
8.96351	0.601
9.0033	0.634
9.04309	0.652
9.08288	0.649
9.12267	0.671
9.16246	0.681
9.20226	0.674
9.24205	0.644
9.28184	0.531
9.32163	0.363
9.36142	0.292
9.40121	0.212
9.441	0.104
9.4808	0.098
9.52059	0.149
9.56038	0.194
9.60017	0.227
9.63996	0.294
9.67975	0.411
9.71954	0.498
9.75934	0.519
9.79913	0.461
9.83892	0.498
9.87871	0.541
9.9185	0.594
9.95829	0.596
9.99808	0.546
10.0379	0.579
10.0777	0.632
10.1175	0.677
10.1573	0.719
10.197	0.739
10.2368	0.737
10.2766	0.719
10.3164	0.722
10.3562	0.742
10.396	0.762
10.4358	0.755
10.4756	0.767
10.5154	0.785
10.5552	0.805
10.595	0.817
10.6347	0.825
10.6745	0.825
10.7143	0.838
10.7541	0.852
10.7939	0.86
10.8337	0.867
10.8735	0.867
10.9133	0.862
10.9531	0.867
10.9929	0.872
11.0327	0.87
11.0725	0.872
11.1122	0.87
11.152	0.878
11.1918	0.875
11.2316	0.867
11.2714	0.867
11.3112	0.87
11.351	0.865
11.3908	0.862
11.4306	0.847
11.4704	0.827
11.5102	0.76
11.55	0.74
11.5897	0.759
11.6295	0.732
11.6693	0.669
11.7091	0.602
11.7489	0.583
11.7887	0.607
11.8285	0.639
11.8683	0.689
11.9081	0.745
11.9479	0.794
11.9877	0.823
12.0274	0.857
12.0672	0.862
12.107	0.83
12.1468	0.837
12.1866	0.882
12.2264	0.925
12.2662	0.936
12.306	0.943
12.3458	0.953
12.3856	0.968
12.4254	0.971
12.4652	0.975
12.5049	0.971
12.5447	0.961
12.5845	0.945
12.6243	0.928
12.6641	0.931
12.7039	0.946
12.7437	0.95
12.7835	0.938
12.8233	0.931
12.8631	0.916
12.9029	0.903
12.9427	0.885
12.9824	0.875
13.0222	0.847
13.062	0.853
13.1018	0.875
13.1416	0.882
13.1814	0.875
13.2212	0.868
13.261	0.863
13.3008	0.855
13.3406	0.84
13.3804	0.828
13.4202	0.81
13.4599	0.802
13.4997	0.792
13.5395	0.744
13.5793	0.694
13.6191	0.642
13.6589	0.543
13.6987	0.448
13.7385	0.415
13.7783	0.388
13.8181	0.365
13.8579	0.328
13.8976	0.297
13.9374	0.312
13.9772	0.401
14.017	0.524
14.0568	0.624
14.0966	0.684
14.1364	0.73
14.1762	0.767
14.216	0.789
14.2558	0.803
14.2956	0.822
14.3354	0.838
14.3751	0.847
14.4149	0.85
14.4547	0.848
14.4945	0.843
14.5343	0.838
14.5741	0.838
14.6139	0.835
14.6537	0.835
14.6935	0.818
14.7333	0.813
14.7731	0.803
14.8129	0.799
14.8526	0.799
14.8924	0.794
14.9322	0.782
14.972	0.777
15.0118	0.74
15.0516	0.709
15.0914	0.705
15.1312	0.715
15.171	0.72
15.2108	0.705
15.2506	0.682
15.2903	0.677
15.3301	0.642
15.3699	0.614
15.4097	0.601
15.4495	0.591
15.4893	0.576
15.5291	0.571
15.5689	0.576
15.6087	0.584
15.6485	0.591
15.6883	0.602
15.7281	0.609
15.7678	0.606
15.8076	0.599
15.8474	0.602
15.8872	0.599
15.927	0.583
15.9668	0.571
