Infrared Spectrum: epi-Isopulegol (methyl axial)
Formula: C10 H18 O
State: SOLUTION (10% CCl4 FOR 4000-450 CM^-^1) VS SOLVENT
Class: COBLENTZ III
Instrument: CARY 90 (GRATING)
Instrument parameters: GRATING CHANGES: 3000, 2000, 1200 CM^-^1
Sampling: TRANSMISSION
Path length: 0.01 CM
Resolution: 2
Origin: WESTERN REGIONAL RES. USDA
1/CM	TRANSMITTANCE
508	0.8905
517	0.8999
526	0.8945
535	0.8832
544	0.88
553	0.8706
562	0.8882
571	0.8902
580	0.8864
589	0.8711
598	0.8584
607	0.8847
616	0.8535
625	0.7334
634	0.8493
643	0.8591
652	0.8556
661	0.8546
670	0.8253
679	0.7482
688	0.8473
697	0.8527
706	0.8537
715	0.85
724	0.8463
733	0.8425
742	0.8388
751	0.8351
760	0.8313
769	0.8276
778	0.8238
787	0.8201
796	0.8164
805	0.8126
814	0.8089
823	0.8052
832	0.7244
841	0.6789
850	0.8762
859	0.8869
868	0.8389
877	0.8253
886	0.5184
895	0.3073
904	0.4214
913	0.7555
922	0.8591
931	0.8413
940	0.7705
949	0.738
958	0.7425
967	0.5181
976	0.716
985	0.6883
994	0.8188
1003	0.6393
1012	0.5277
1021	0.5347
1030	0.5006
1039	0.6649
1048	0.6027
1057	0.652
1066	0.6533
1075	0.7336
1084	0.8144
1093	0.7539
1102	0.8029
1111	0.7965
1120	0.8284
1129	0.6479
1138	0.8886
1147	0.8899
1156	0.8813
1165	0.8327
1174	0.7108
1183	0.4164
1192	0.7719
1201	0.7903
1210	0.762
1219	0.7198
1228	0.5332
1237	0.5446
1246	0.6427
1255	0.6696
1264	0.7232
1273	0.7677
1282	0.7048
1291	0.7616
1300	0.7849
1309	0.7739
1318	0.6711
1327	0.4684
1336	0.596
1345	0.6545
1354	0.7275
1363	0.7233
1372	0.4748
1381	0.4783
1390	0.5327
1399	0.5986
1408	0.7371
1417	0.7595
1426	0.6964
1435	0.5178
1444	0.4395
1453	0.3544
1462	0.4425
1471	0.6656
1480	0.8133
1489	0.8564
1498	0.8735
1507	0.8765
1516	0.8812
1525	0.8794
1534	0.8678
1543	0.8546
1552	0.8553
1561	0.8633
1570	0.8666
1579	0.8665
1588	0.875
1597	0.8801
1606	0.8692
1615	0.8515
1624	0.8199
1633	0.7277
1642	0.4033
1651	0.7546
1660	0.8749
1669	0.8836
1678	0.8825
1687	0.8816
1696	0.889
1705	0.8868
1714	0.8654
1723	0.8006
1732	0.8035
1741	0.8775
1750	0.8895
1759	0.8999
1768	0.9014
1777	0.8983
1786	0.8927
1795	0.886
1804	0.8794
1813	0.8819
1822	0.8925
1831	0.9032
1840	0.9095
1849	0.9134
1858	0.9149
1867	0.9157
1876	0.9164
1885	0.9165
1894	0.9169
1903	0.9175
1912	0.9174
1921	0.9171
1930	0.9168
1939	0.9174
1948	0.9182
1957	0.9192
1966	0.9202
1975	0.9223
1984	0.9243
1993	0.9266
2002	0.888
2011	0.8827
2020	0.8813
2029	0.8803
2038	0.8803
2047	0.8811
2056	0.882
2065	0.8823
2074	0.8828
2083	0.8831
2092	0.8836
2101	0.8844
2110	0.8852
2119	0.8859
2128	0.8863
2137	0.8865
2146	0.8868
2155	0.8869
2164	0.8871
2173	0.8872
2182	0.8876
2191	0.8879
2200	0.8883
2209	0.8885
2218	0.8888
2227	0.8891
2236	0.8887
2245	0.8882
2254	0.8878
2263	0.8874
2272	0.8873
2281	0.8871
2290	0.8867
2299	0.8859
2308	0.8829
2317	0.878
2326	0.8708
2335	0.8623
2344	0.8564
2353	0.8573
2362	0.8596
2371	0.8638
2380	0.8785
2389	0.8879
2398	0.8932
2407	0.8937
2416	0.8941
2425	0.8942
2434	0.8943
2443	0.8947
2452	0.895
2461	0.895
2470	0.895
2479	0.8945
2488	0.8941
2497	0.8936
2506	0.8935
2515	0.8932
2524	0.893
2533	0.8927
2542	0.8925
2551	0.8921
2560	0.8907
2569	0.8893
2578	0.8878
2587	0.8862
2596	0.8845
2605	0.8812
2614	0.8747
2623	0.8657
2632	0.8577
2641	0.8551
2650	0.8526
2659	0.8466
2668	0.8396
2677	0.8325
2686	0.8288
2695	0.8318
2704	0.8388
2713	0.8389
2722	0.8313
2731	0.813
2740	0.8247
2749	0.8352
2758	0.8364
2767	0.833
2776	0.8197
2785	0.8116
2794	0.8164
2803	0.8122
2812	0.792
2821	0.7612
2830	0.7135
2839	0.5744
2848	0.3531
2857	0.2205
2866	0.2296
2875	0.1464
2884	0.1333
2893	0.1596
2902	0.1651
2911	0.0988
2920	0.0645
2929	0.0559
2938	0.0491
2947	0.0943
2956	0.1395
2965	0.2179
2974	0.3262
2983	0.4177
2992	0.415
3001	0.6082
3010	0.7363
3019	0.7784
3028	0.8071
3037	0.8213
3046	0.8303
3055	0.8309
3064	0.8243
3073	0.7899
3082	0.7263
3091	0.6914
3100	0.7538
3109	0.8191
3118	0.8546
3127	0.8764
3136	0.8852
3145	0.8869
3154	0.8874
3163	0.8875
3172	0.8875
3181	0.8874
3190	0.8873
3199	0.8872
3208	0.8866
3217	0.8866
3226	0.8863
3235	0.8858
3244	0.8854
3253	0.885
3262	0.8846
3271	0.8841
3280	0.8838
3289	0.883
3298	0.8818
3307	0.8804
3316	0.8781
3325	0.8753
3334	0.8718
3343	0.8678
3352	0.8634
3361	0.8588
3370	0.8544
3379	0.8501
3388	0.8459
3397	0.8414
3406	0.8365
3415	0.8301
3424	0.8236
3433	0.8157
3442	0.8067
3451	0.7965
3460	0.786
3469	0.7728
3478	0.7635
3487	0.7588
3496	0.7568
3505	0.7585
3514	0.7597
3523	0.758
3532	0.7511
3541	0.7274
3550	0.6648
3559	0.6013
3568	0.5543
3577	0.5667
3586	0.624
3595	0.6812
3604	0.7259
3613	0.7684
3622	0.7751
3631	0.7716
3640	0.7731
3649	0.8156
3658	0.8412
3667	0.8556
3676	0.8609
3685	0.8613
3694	0.8593
3703	0.8589
3712	0.8627
3721	0.8698
3730	0.8762
3739	0.8797
3748	0.8812
3757	0.8793
3766	0.8789
3775	0.8794
3784	0.8818
3793	0.8822
3802	0.8824
3811	0.8823
3820	0.8818
3829	0.8813
3838	0.8807
3847	0.8795
3856	0.8784
3865	0.8773
3874	0.8762
3883	0.8752
3892	0.8742
3901	0.8733
3910	0.873
3919	0.873
3928	0.8755
3937	0.8778
3946	0.8798
3955	0.8804
3964	0.8803
3973	0.8797
3982	0.879
3991	0.8783
4000	0.8777
