Infrared Spectrum: Glutamine, N-hydroxy-
Formula: C5 H10 N2 O4
State: SOLID (0.7 mg / 650 mg KBr DISC)
Class: COBLENTZ III
Instrument: PERKIN-ELMER 21 (GRATING)
Instrument parameters: FILTER CHANGE ABOUT 1075 CM^-^1
Sampling: TRANSMISSION
Resolution: 2
Origin: SOUTHERN RESEARCH INSTITUTE
1/CM	TRANSMITTANCE
608.06	0.9949
617.102	0.9813
626.145	0.9644
635.187	0.9569
644.229	0.9579
653.272	0.9614
662.314	0.9758
671.356	1.0096
680.398	1.0088
689.441	0.9967
698.483	0.9634
707.525	0.9296
716.568	0.8959
725.61	0.8616
734.652	0.8258
743.695	0.8025
752.737	0.7975
761.779	0.7524
770.822	0.66
779.864	0.778
788.906	0.8238
797.948	0.8318
806.991	0.8279
816.033	0.8202
825.075	0.8251
834.118	0.8409
843.16	0.8458
852.202	0.8445
861.245	0.8449
870.287	0.8449
879.329	0.8341
888.371	0.834
897.414	0.864
906.456	0.8696
915.498	0.8671
924.541	0.8637
933.583	0.8585
942.625	0.8343
951.668	0.771
960.71	0.7628
969.752	0.8199
978.795	0.8226
987.837	0.7876
996.879	0.8053
1005.92	0.8429
1014.96	0.8324
1024.01	0.8021
1033.05	0.7716
1042.09	0.6853
1051.13	0.4972
1060.18	0.6798
1069.22	0.852
1078.26	0.8323
1087.3	0.7723
1096.34	0.6597
1105.39	0.8118
1114.43	0.8064
1123.47	0.7506
1132.51	0.6193
1141.56	0.7649
1150.6	0.7849
1159.64	0.8527
1168.68	0.8515
1177.73	0.8412
1186.77	0.8067
1195.81	0.6743
1204.85	0.8087
1213.89	0.8415
1222.94	0.8389
1231.98	0.8303
1241.02	0.8178
1250.06	0.7958
1259.11	0.7593
1268.15	0.6258
1277.19	0.6819
1286.23	0.7239
1295.28	0.7516
1304.32	0.7103
1313.36	0.5595
1322.4	0.461
1331.44	0.6865
1340.49	0.6468
1349.53	0.5457
1358.57	0.6459
1367.61	0.6824
1376.66	0.6501
1385.7	0.5214
1394.74	0.6126
1403.78	0.6091
1412.83	0.5838
1421.87	0.5117
1430.91	0.4793
1439.95	0.5871
1448.99	0.5933
1458.04	0.4813
1467.08	0.4282
1476.12	0.3389
1485.16	0.2344
1494.21	0.245
1503.25	0.327
1512.29	0.4885
1521.33	0.5586
1530.38	0.6285
1539.42	0.6472
1548.46	0.6442
1557.5	0.6186
1566.54	0.5874
1575.59	0.4739
1584.63	0.3897
1593.67	0.3583
1602.71	0.3354
1611.76	0.2589
1620.8	0.2746
1629.84	0.2667
1638.88	0.2798
1647.93	0.3706
1656.97	0.4088
1666.01	0.3491
1675.05	0.3128
1684.09	0.3936
1693.14	0.5165
1702.18	0.6078
1711.22	0.6618
1720.26	0.7131
1729.31	0.7542
1738.35	0.7784
1747.39	0.7986
1756.43	0.8155
1765.48	0.8286
1774.52	0.8382
1783.56	0.8462
1792.6	0.8533
1801.64	0.8588
1810.69	0.8638
1819.73	0.8684
1828.77	0.8717
1837.81	0.8736
1846.86	0.8754
1855.9	0.8771
1864.94	0.8776
1873.98	0.8775
1883.03	0.877
1892.07	0.8762
1901.11	0.8752
1910.15	0.8739
1919.19	0.8725
1928.24	0.8711
1937.28	0.8699
1946.32	0.8655
1955.36	0.866
1964.41	0.8637
1973.45	0.8601
1982.49	0.8555
1991.53	0.8513
2000.58	0.8471
2009.62	0.8411
2018.66	0.8358
2027.7	0.8286
2036.74	0.8244
2045.79	0.8241
2054.83	0.8258
2063.87	0.8302
2072.91	0.8371
2081.96	0.8447
2091	0.8504
2100.04	0.8505
2109.08	0.8498
2118.13	0.8484
2127.17	0.8469
2136.21	0.8455
2145.25	0.8442
2154.29	0.8429
2163.34	0.842
2172.38	0.8414
2181.42	0.8406
2190.46	0.8389
2199.51	0.8361
2208.55	0.833
2217.59	0.8303
2226.63	0.8275
2235.68	0.8245
2244.72	0.8208
2253.76	0.8172
2262.8	0.8141
2271.84	0.8124
2280.89	0.8108
2289.93	0.8023
2298.97	0.792
2308.01	0.7801
2317.06	0.7671
2326.1	0.7555
2335.14	0.7535
2344.18	0.7538
2353.23	0.7535
2362.27	0.7526
2371.31	0.7529
2380.35	0.7521
2389.39	0.7485
2398.44	0.7398
2407.48	0.7298
2416.52	0.7184
2425.56	0.7052
2434.61	0.6917
2443.65	0.677
2452.69	0.6602
2461.73	0.6441
2470.78	0.6375
2479.82	0.6346
2488.86	0.6349
2497.9	0.6346
2506.94	0.6296
2515.99	0.617
2525.03	0.6013
2534.07	0.5863
2543.11	0.5728
2552.16	0.5591
2561.2	0.5469
2570.24	0.5382
2579.28	0.5306
2588.33	0.5226
2597.37	0.5156
2606.41	0.509
2615.45	0.5032
2624.49	0.4976
2633.54	0.4917
2642.58	0.484
2651.62	0.4708
2660.66	0.4581
2669.71	0.4494
2678.75	0.4433
2687.79	0.4284
2696.83	0.4163
2705.88	0.4059
2714.92	0.3949
2723.96	0.383
2733	0.3704
2742.04	0.3588
2751.09	0.3468
2760.13	0.3339
2769.17	0.3228
2778.21	0.3144
2787.26	0.3097
2796.3	0.3078
2805.34	0.3062
2814.38	0.3054
2823.42	0.3051
2832.47	0.3048
2841.51	0.3048
2850.55	0.3065
2859.59	0.3083
2868.64	0.311
2877.68	0.3142
2886.72	0.3161
2895.76	0.3221
2904.81	0.3338
2913.85	0.3392
2922.89	0.3405
2931.93	0.3402
2940.97	0.3394
2950.02	0.3383
2959.06	0.3371
2968.1	0.3353
2977.14	0.3341
2986.19	0.335
2995.23	0.3358
3004.27	0.3392
3013.31	0.3427
3022.36	0.3477
3031.4	0.3545
3040.44	0.3629
3049.48	0.3675
3058.52	0.371
3067.57	0.3803
3076.61	0.3849
3085.65	0.3923
3094.69	0.4031
3103.74	0.4178
3112.78	0.428
3121.82	0.4317
3130.86	0.4325
3139.91	0.4312
3148.95	0.4291
3157.99	0.4261
3167.03	0.4223
3176.07	0.4202
3185.12	0.4198
3194.16	0.4202
3203.2	0.4204
3212.24	0.4208
3221.29	0.4212
3230.33	0.4227
3239.37	0.4273
3248.41	0.4346
3257.46	0.4445
3266.5	0.4565
3275.54	0.4717
3284.58	0.4839
3293.62	0.4944
3302.67	0.5004
3311.71	0.5026
3320.75	0.5055
3329.79	0.5015
3338.84	0.5
3347.88	0.497
3356.92	0.4929
3365.96	0.4879
3375.01	0.4815
3384.05	0.4731
3393.09	0.4705
3402.13	0.4698
3411.17	0.4697
3420.22	0.4705
3429.26	0.472
3438.3	0.4741
3447.34	0.4777
3456.39	0.4817
3465.43	0.487
3474.47	0.4923
3483.51	0.4976
3492.56	0.5037
3501.6	0.5102
3510.64	0.5175
3519.68	0.5248
3528.72	0.5325
3537.77	0.5403
3546.81	0.5489
3555.85	0.5664
3564.89	0.578
3573.94	0.5854
3582.98	0.5925
3592.02	0.601
3601.06	0.6152
3610.11	0.634
3619.15	0.644
3628.19	0.6512
3637.23	0.6573
3646.27	0.6632
3655.32	0.6664
3664.36	0.6692
3673.4	0.6715
3682.44	0.673
3691.49	0.6737
3700.53	0.6745
3709.57	0.6749
3718.61	0.6748
3727.66	0.6751
3736.7	0.6753
3745.74	0.6753
3754.78	0.6753
3763.82	0.6752
3772.87	0.6751
3781.91	0.6745
3790.95	0.6738
3799.99	0.6732
3809.04	0.6728
3818.08	0.6724
3827.12	0.6715
3836.16	0.6706
3845.21	0.6694
3854.25	0.668
3863.29	0.6675
3872.33	0.6674
3881.37	0.6684
3890.42	0.6694
3899.46	0.6703
3908.5	0.6711
3917.54	0.6712
3926.59	0.6712
3935.63	0.6715
3944.67	0.6717
3953.71	0.672
3962.76	0.6721
3971.8	0.6718
3980.84	0.6713
3989.88	0.6711
3998.92	0.6722
4007.97	0.6781
