Infrared Spectrum: PHOSPHINIC ACID, ISOOCTYL-, ISOBUTYL ESTER
Formula: C12 H27 O2 P
State: LIQUID
Class: COBLENTZ
Instrument: PERKIN-ELMER
Sampling: TRANSMISSION
Path length: 0.0015 CM
Resolution: 4
Origin: STANDARD OIL OF OHIO
MICROMETERS	TRANSMITTANCE
2	0.95
2.03371	0.948
2.06743	0.948
2.10114	0.948
2.13486	0.95
2.16857	0.95
2.20229	0.95
2.236	0.95
2.26972	0.948
2.30343	0.93
2.33715	0.923
2.37086	0.925
2.40458	0.93
2.43829	0.931
2.472	0.933
2.50572	0.936
2.53943	0.942
2.57315	0.943
2.60686	0.945
2.64058	0.945
2.67429	0.945
2.70801	0.943
2.74172	0.938
2.77544	0.925
2.80915	0.896
2.84287	0.848
2.87658	0.77
2.91029	0.689
2.94401	0.684
2.97772	0.739
3.01144	0.81
3.04515	0.843
3.07887	0.863
3.11258	0.873
3.1463	0.879
3.18001	0.885
3.21373	0.892
3.24744	0.896
3.28116	0.882
3.31487	0.831
3.34858	0.555
3.3823	0.12
3.41601	0.117
3.44973	0.166
3.48344	0.247
3.51716	0.495
3.55087	0.693
3.58459	0.797
3.6183	0.838
3.65202	0.851
3.68573	0.851
3.71945	0.868
3.75316	0.879
3.78687	0.884
3.82059	0.889
3.8543	0.892
3.88802	0.897
3.92173	0.901
3.95545	0.906
3.98916	0.908
4.02288	0.906
4.05659	0.906
4.09031	0.901
4.12402	0.877
4.15774	0.856
4.19145	0.829
4.22516	0.817
4.25888	0.787
4.29259	0.744
4.32631	0.746
4.36002	0.798
4.39374	0.85
4.42745	0.88
4.46117	0.892
4.49488	0.901
4.5286	0.906
4.56231	0.909
4.59602	0.909
4.62974	0.913
4.66345	0.914
4.69717	0.916
4.73088	0.916
4.7646	0.918
4.79831	0.918
4.83203	0.919
4.86574	0.921
4.89946	0.923
4.93317	0.925
4.96689	0.925
5.0006	0.925
5.03431	0.925
5.06803	0.925
5.10174	0.926
5.13546	0.925
5.16917	0.925
5.20289	0.925
5.2366	0.923
5.27032	0.921
5.30403	0.919
5.33775	0.919
5.37146	0.919
5.40518	0.919
5.43889	0.919
5.4726	0.921
5.50632	0.921
5.54003	0.919
5.57375	0.919
5.60746	0.921
5.64118	0.921
5.67489	0.921
5.70861	0.921
5.74232	0.923
5.77604	0.918
5.80975	0.914
5.84347	0.914
5.87718	0.914
5.91089	0.916
5.94461	0.914
5.97832	0.906
6.01204	0.899
6.04575	0.897
6.07947	0.897
6.11318	0.897
6.1469	0.899
6.18061	0.902
6.21433	0.906
6.24804	0.909
6.28176	0.913
6.31547	0.914
6.34918	0.918
6.3829	0.916
6.41661	0.918
6.45033	0.916
6.48404	0.914
6.51776	0.911
6.55147	0.911
6.58519	0.908
6.6189	0.897
6.65262	0.884
6.68633	0.87
6.72005	0.829
6.75376	0.655
6.78747	0.39
6.82119	0.333
6.8549	0.385
6.88862	0.521
6.92233	0.662
6.95605	0.741
6.98976	0.783
7.02348	0.802
7.05719	0.797
7.09091	0.771
7.12462	0.708
7.15834	0.649
7.19205	0.647
7.22576	0.579
7.25948	0.574
7.29319	0.562
7.32691	0.594
7.36062	0.746
7.39434	0.79
7.42805	0.8
7.46177	0.805
7.49548	0.807
7.5292	0.812
7.56291	0.817
7.59663	0.816
7.63034	0.8
7.66405	0.778
7.69777	0.752
7.73148	0.724
7.7652	0.671
7.79891	0.586
7.83263	0.521
7.86634	0.495
7.90006	0.448
7.93377	0.379
7.96749	0.316
8.0012	0.294
8.03492	0.267
8.06863	0.223
8.10234	0.197
8.13606	0.202
8.16977	0.25
8.20349	0.298
8.2372	0.344
8.27092	0.376
8.30463	0.402
8.33835	0.429
8.37206	0.451
8.40578	0.499
8.43949	0.55
8.47321	0.563
8.50692	0.587
8.54063	0.609
8.57435	0.63
8.60806	0.662
8.64178	0.689
8.67549	0.715
8.70921	0.732
8.74292	0.747
8.77664	0.758
8.81035	0.752
8.84407	0.732
8.87778	0.727
8.91149	0.725
8.94521	0.717
8.97892	0.71
9.01264	0.701
9.04635	0.678
9.08007	0.664
9.11378	0.659
9.1475	0.647
9.18121	0.603
9.21493	0.572
9.24864	0.529
9.28236	0.497
9.31607	0.468
9.34978	0.42
9.3835	0.364
9.41721	0.31
9.45093	0.257
9.48464	0.211
9.51836	0.18
9.55207	0.163
9.58579	0.148
9.6195	0.143
9.65322	0.143
9.68693	0.148
9.72065	0.161
9.75436	0.175
9.78807	0.185
9.82179	0.197
9.8555	0.202
9.88922	0.206
9.92293	0.204
9.95665	0.201
9.99036	0.194
10.0241	0.189
10.0578	0.18
10.0915	0.172
10.1252	0.161
10.1589	0.144
10.1927	0.134
10.2264	0.129
10.2601	0.127
10.2938	0.129
10.3275	0.137
10.3612	0.146
10.3949	0.16
10.4287	0.197
10.4624	0.248
10.4961	0.289
10.5298	0.344
10.5635	0.4
10.5972	0.449
10.6309	0.512
10.6647	0.555
10.6984	0.594
10.7321	0.614
10.7658	0.626
10.7995	0.635
10.8332	0.649
10.8669	0.66
10.9007	0.664
10.9344	0.666
10.9681	0.672
11.0018	0.695
11.0355	0.717
11.0692	0.735
11.1029	0.746
11.1367	0.747
11.1704	0.749
11.2041	0.751
11.2378	0.751
11.2715	0.754
11.3052	0.758
11.3389	0.764
11.3727	0.763
11.4064	0.758
11.4401	0.742
11.4738	0.729
11.5075	0.715
11.5412	0.701
11.5749	0.691
11.6087	0.678
11.6424	0.664
11.6761	0.652
11.7098	0.64
11.7435	0.628
11.7772	0.618
11.811	0.616
11.8447	0.616
11.8784	0.616
11.9121	0.618
11.9458	0.623
11.9795	0.626
12.0132	0.632
12.047	0.633
12.0807	0.623
12.1144	0.606
12.1481	0.597
12.1818	0.597
12.2155	0.601
12.2492	0.608
12.283	0.613
12.3167	0.618
12.3504	0.628
12.3841	0.633
12.4178	0.64
12.4515	0.649
12.4852	0.654
12.519	0.662
12.5527	0.669
12.5864	0.674
12.6201	0.681
12.6538	0.689
12.6875	0.698
12.7212	0.708
12.755	0.717
12.7887	0.729
12.8224	0.737
12.8561	0.746
12.8898	0.751
12.9235	0.758
12.9572	0.766
12.991	0.773
13.0247	0.778
13.0584	0.783
13.0921	0.79
13.1258	0.792
13.1595	0.797
13.1933	0.8
13.227	0.807
13.2607	0.809
13.2944	0.812
13.3281	0.814
13.3618	0.816
13.3955	0.817
13.4293	0.819
13.463	0.819
13.4967	0.819
13.5304	0.817
13.5641	0.817
13.5978	0.819
13.6315	0.819
13.6653	0.817
13.699	0.814
13.7327	0.812
13.7664	0.812
13.8001	0.809
13.8338	0.807
13.8675	0.804
13.9013	0.802
13.935	0.8
13.9687	0.8
14.0024	0.798
14.0361	0.797
14.0698	0.795
14.1035	0.795
14.1373	0.795
14.171	0.795
14.2047	0.795
14.2384	0.795
14.2721	0.795
14.3058	0.795
14.3395	0.797
14.3733	0.797
14.407	0.798
14.4407	0.798
14.4744	0.795
14.5081	0.793
14.5418	0.79
14.5755	0.79
14.6093	0.788
14.643	0.783
14.6767	0.781
14.7104	0.778
14.7441	0.778
14.7778	0.776
14.8116	0.776
14.8453	0.771
14.879	0.77
14.9127	0.768
14.9464	0.766
14.9801	0.766
15.0138	0.761
15.0476	0.756
15.0813	0.751
15.115	0.749
15.1487	0.742
15.1824	0.741
15.2161	0.739
15.2498	0.73
15.2836	0.729
15.3173	0.724
15.351	0.718
15.3847	0.715
