Infrared Spectrum: 2-NORBORNANEACETONITRILE, EXO-
Formula: C9 H13 N
State: SOLUTION (10% CCl4 FOR 3800-1330, 10% CS2 FOR 1330-400 CM^-^1))
Boiling point: 102 C AT 10 mmHg
Class: COBLENTZ III
Instrument: BECKMAN IR-9 (GRATING)
Instrument parameters: ORDER CHANGES: 670, 1200, 2000 CM^-^1
Sampling: TRANSMISSION
Path length: 0.011 CM, 0.012 CM
Resolution: 2
Origin: DOW CHEMICAL COMPANY
1/CM	TRANSMITTANCE
404	0.1368
413	0.1884
422	0.4815
431	0.6283
440	0.7181
449	0.7875
458	0.8302
467	0.8613
476	0.8843
485	0.9062
494	0.9286
503	0.943
512	0.9537
521	0.9621
530	0.9674
539	0.9487
548	0.9387
557	0.9849
566	0.9916
575	0.9921
584	0.9799
593	0.9896
602	0.9875
611	0.9857
620	0.9896
629	0.9789
638	0.9585
647	0.9285
656	0.8788
665	0.9454
674	0.9599
683	0.974
692	0.9714
701	0.969
710	0.9733
719	0.9737
728	0.9689
737	0.9509
746	0.9561
755	0.9641
764	0.9033
773	0.9654
782	0.9663
791	0.9178
800	0.9014
809	0.8941
818	0.9461
827	0.9265
836	0.9044
845	0.8382
854	0.7617
863	0.7788
872	0.7856
881	0.8694
890	0.8652
899	0.8928
908	0.9477
917	0.9171
926	0.8521
935	0.9343
944	0.8364
953	0.8713
962	0.9293
971	0.9568
980	0.9655
989	0.9665
998	0.963
1007	0.9542
1016	0.9418
1025	0.9308
1034	0.9317
1043	0.916
1052	0.9478
1061	0.9528
1070	0.9489
1079	0.9275
1088	0.8404
1097	0.9163
1106	0.9189
1115	0.8861
1124	0.889
1133	0.869
1142	0.7324
1151	0.8464
1160	0.8551
1169	0.8625
1178	0.8968
1187	0.9108
1196	0.8817
1205	0.8725
1214	0.8111
1223	0.8788
1232	0.8399
1241	0.8766
1250	0.8509
1259	0.8665
1268	0.8525
1277	0.8674
1286	0.8468
1295	0.8325
1304	0.7124
1313	0.612
1322	0.6143
1331	0.9052
1340	0.922
1349	0.8696
1358	0.6551
1367	0.8877
1376	0.9253
1385	0.9327
1394	0.9268
1403	0.904
1412	0.8578
1421	0.5653
1430	0.6914
1439	0.8471
1448	0.6908
1457	0.2868
1466	0.8217
1475	0.8036
1484	0.8489
1493	0.849
1502	0.8025
1511	0.7521
1520	0.706
1529	0.639
1538	0.5771
1547	0.5224
1556	0.5025
1565	0.5954
1574	0.6391
1583	0.6693
1592	0.7147
1601	0.7955
1610	0.8557
1619	0.8945
1628	0.9165
1637	0.9304
1646	0.9403
1655	0.9454
1664	0.9485
1673	0.9511
1682	0.9528
1691	0.9521
1700	0.9368
1709	0.9041
1718	0.8747
1727	0.9268
1736	0.9506
1745	0.953
1754	0.9528
1763	0.9659
1772	0.9745
1781	0.974
1790	0.97
1799	0.9682
1808	0.9678
1817	0.966
1826	0.9639
1835	0.962
1844	0.9604
1853	0.9597
1862	0.9595
1871	0.9596
1880	0.96
1889	0.9617
1898	0.9643
1907	0.9677
1916	0.9699
1925	0.9701
1934	0.9713
1943	0.9673
1952	0.972
1961	0.9684
1970	0.9705
1979	0.9737
1988	0.9704
1997	0.9644
2006	0.9733
2015	0.9725
2024	0.9705
2033	0.9675
2042	0.9691
2051	0.9651
2060	0.9609
2069	0.9601
2078	0.9604
2087	0.961
2096	0.9621
2105	0.9633
2114	0.9649
2123	0.9713
2132	0.9735
2141	0.9724
2150	0.9627
2159	0.9597
2168	0.9596
2177	0.9591
2186	0.9582
2195	0.9566
2204	0.9551
2213	0.9536
2222	0.9412
2231	0.8806
2240	0.6654
2249	0.7195
2258	0.8756
2267	0.9067
2276	0.9217
2285	0.9274
2294	0.9321
2303	0.9363
2312	0.9402
2321	0.9453
2330	0.9464
2339	0.9484
2348	0.9603
2357	0.9614
2366	0.9588
2375	0.9562
2384	0.9549
2393	0.9566
2402	0.9611
2411	0.9663
2420	0.9668
2429	0.9625
2438	0.9612
2447	0.9616
2456	0.9631
2465	0.9647
2474	0.966
2483	0.967
2492	0.9677
2501	0.9677
2510	0.9678
2519	0.9678
2528	0.9678
2537	0.9678
2546	0.9662
2555	0.9598
2564	0.9543
2573	0.9568
2582	0.9607
2591	0.9587
2600	0.9555
2609	0.9523
2618	0.9564
2627	0.9559
2636	0.9584
2645	0.965
2654	0.9668
2663	0.9664
2672	0.9639
2681	0.961
2690	0.9589
2699	0.9582
2708	0.9591
2717	0.9604
2726	0.961
2735	0.961
2744	0.9598
2753	0.9565
2762	0.9523
2771	0.947
2780	0.9467
2789	0.9491
2798	0.9486
2807	0.9459
2816	0.937
2825	0.9168
2834	0.887
2843	0.8595
2852	0.7267
2861	0.4678
2870	0.1944
2879	0.1037
2888	0.4096
2897	0.5562
2906	0.502
2915	0.1885
2924	0.1425
2933	0.1886
2942	0.0522
2951	0.0155
2960	0.0044
2969	0.0221
2978	0.2893
2987	0.4451
2996	0.7111
3005	0.7943
3014	0.8417
3023	0.8695
3032	0.8868
3041	0.9023
3050	0.9171
3059	0.9291
3068	0.9375
3077	0.9449
3086	0.9494
3095	0.9514
3104	0.9527
3113	0.9531
3122	0.9533
3131	0.953
3140	0.9524
3149	0.9517
3158	0.9504
3167	0.9475
3176	0.9433
3185	0.9389
3194	0.9344
3203	0.935
3212	0.9393
3221	0.9455
3230	0.9485
3239	0.9485
3248	0.9473
3257	0.9459
3266	0.9459
3275	0.9466
3284	0.9459
3293	0.9445
3302	0.9425
3311	0.9405
3320	0.938
3329	0.9347
3338	0.9314
3347	0.9291
3356	0.9307
3365	0.9313
3374	0.9311
3383	0.9309
3392	0.9308
3401	0.9306
3410	0.93
3419	0.9295
3428	0.9295
3437	0.9298
3446	0.932
3455	0.9337
3464	0.934
3473	0.9337
3482	0.9335
3491	0.9325
3500	0.9318
3509	0.9316
3518	0.9311
3527	0.9302
3536	0.9302
3545	0.9313
3554	0.933
3563	0.9354
3572	0.9371
3581	0.9317
3590	0.9421
3599	0.9498
3608	0.9448
3617	0.9488
3626	0.9525
3635	0.9549
3644	0.9559
3653	0.956
3662	0.9548
3671	0.9509
3680	0.9427
3689	0.9347
3698	0.9337
3707	0.9397
3716	0.9417
3725	0.9411
3734	0.944
3743	0.9481
3752	0.952
3761	0.9553
3770	0.9575
3779	0.9585
3788	0.958
3797	0.9575
