Infrared Spectrum: ACETIC ACID, DICHLORO-, SODIUM SALT
Formula: C2 H Cl2 Na O2
State: SOLID (SPLIT MULL)
Class: COBLENTZ III
Instrument: BECKMAN IR-9 (GRATING)
Instrument parameters: ORDER CHANGES: 670, 1200, 2000 CM^-^1
Sampling: TRANSMISSION
Resolution: 2
Origin: DOW CHEMICAL COMPANY
1/CM	TRANSMITTANCE
3822	0.5568
3813	0.5585
3804	0.5608
3795	0.5637
3786	0.5673
3777	0.5709
3768	0.5745
3759	0.5782
3750	0.5823
3741	0.586
3732	0.5895
3723	0.5922
3714	0.5948
3705	0.5951
3696	0.5904
3687	0.5815
3678	0.569
3669	0.5557
3660	0.5429
3651	0.5301
3642	0.5247
3633	0.5246
3624	0.5243
3615	0.5228
3606	0.5202
3597	0.5141
3588	0.5025
3579	0.483
3570	0.4544
3561	0.4296
3552	0.3844
3543	0.3071
3534	0.2652
3525	0.2554
3516	0.2625
3507	0.2699
3498	0.267
3489	0.2605
3480	0.2508
3471	0.2395
3462	0.2261
3453	0.2132
3444	0.2031
3435	0.1936
3426	0.1872
3417	0.1832
3408	0.1819
3399	0.1835
3390	0.1854
3381	0.1874
3372	0.1907
3363	0.1939
3354	0.1972
3345	0.2002
3336	0.2032
3327	0.2062
3318	0.2087
3309	0.2106
3300	0.2125
3291	0.2143
3282	0.2174
3273	0.2205
3264	0.2245
3255	0.2287
3246	0.234
3237	0.2402
3228	0.2466
3219	0.2555
3210	0.2644
3201	0.2746
3192	0.2857
3183	0.2968
3174	0.3082
3165	0.3203
3156	0.333
3147	0.3434
3138	0.3534
3129	0.3628
3120	0.3718
3111	0.3806
3102	0.3882
3093	0.3959
3084	0.4036
3075	0.4107
3066	0.4159
3057	0.4202
3048	0.4254
3039	0.4239
3030	0.4174
3021	0.4055
3012	0.3866
3003	0.4064
2994	0.4126
2985	0.3586
2976	0.4132
2967	0.4395
2958	0.4524
2949	0.4605
2940	0.4671
2931	0.4725
2922	0.4777
2913	0.4828
2904	0.4878
2895	0.4927
2886	0.498
2877	0.5032
2868	0.5068
2859	0.5102
2850	0.514
2841	0.5177
2832	0.5215
2823	0.5252
2814	0.5291
2805	0.5328
2796	0.5366
2787	0.5406
2778	0.5448
2769	0.5489
2760	0.5535
2751	0.5581
2742	0.5627
2733	0.5672
2724	0.571
2715	0.5749
2706	0.577
2697	0.5788
2688	0.5806
2679	0.5818
2670	0.5827
2661	0.5847
2652	0.5872
2643	0.5903
2634	0.5948
2625	0.599
2616	0.6005
2607	0.6012
2598	0.6018
2589	0.6022
2580	0.6029
2571	0.6036
2562	0.6046
2553	0.6062
2544	0.6092
2535	0.6114
2526	0.6136
2517	0.6154
2508	0.6171
2499	0.6187
2490	0.6203
2481	0.622
2472	0.6237
2463	0.6246
2454	0.6255
2445	0.6264
2436	0.6276
2427	0.6291
2418	0.6315
2409	0.6354
2400	0.635
2391	0.621
2382	0.6253
2373	0.6478
2364	0.6591
2355	0.6621
2346	0.6638
2337	0.6658
2328	0.668
2319	0.6694
2310	0.6718
2301	0.6745
2292	0.6771
2283	0.6798
2274	0.684
2265	0.6882
2256	0.6921
2247	0.6961
2238	0.6997
2229	0.703
2220	0.706
2211	0.708
2202	0.7086
2193	0.709
2184	0.7091
2175	0.7086
2166	0.7084
2157	0.7083
2148	0.7105
2139	0.7139
2130	0.7188
2121	0.7246
2112	0.7314
2103	0.7368
2094	0.7419
2085	0.7469
2076	0.7517
2067	0.7561
2058	0.7611
2049	0.7664
2040	0.7706
2031	0.775
2022	0.7778
2013	0.7801
2004	0.7815
1995	0.7828
1986	0.7991
1977	0.8019
1968	0.8025
1959	0.8051
1950	0.8086
1941	0.8111
1932	0.8137
1923	0.8161
1914	0.8181
1905	0.8199
1896	0.8225
1887	0.8237
1878	0.8243
1869	0.8248
1860	0.827
1851	0.8296
1842	0.8328
1833	0.8363
1824	0.8406
1815	0.84
1806	0.8373
1797	0.8315
1788	0.8216
1779	0.8065
1770	0.7851
1761	0.7487
1752	0.7049
1743	0.6604
1734	0.6201
1725	0.5798
1716	0.5493
1707	0.5319
1698	0.5
1689	0.42
1680	0.294
1671	0.1739
1662	0.0871
1653	0.0404
1644	0.0451
1635	0.0431
1626	0.0301
1617	0.0305
1608	0.0507
1599	0.0735
1590	0.1072
1581	0.1614
1572	0.1999
1563	0.2463
1554	0.2988
1545	0.343
1536	0.3741
1527	0.4048
1518	0.429
1509	0.4506
1500	0.4681
1491	0.4816
1482	0.494
1473	0.5062
1464	0.516
1455	0.5246
1446	0.5281
1437	0.5252
1428	0.5123
1419	0.4703
1410	0.3494
1401	0.1615
1392	0.1463
1383	0.1837
1374	0.2014
1365	0.1929
1356	0.2238
1347	0.2506
1338	0.2813
1329	0.3134
1320	0.6614
1311	0.6724
1302	0.6758
1293	0.6858
1284	0.7067
1275	0.7301
1266	0.7495
1257	0.7569
1248	0.7397
1239	0.7011
1230	0.6588
1221	0.5127
1212	0.3075
1203	0.279
1194	0.5244
1185	0.7137
1176	0.77
1167	0.8043
1158	0.8256
1149	0.8408
1140	0.8553
1131	0.8666
1122	0.8748
1113	0.8781
1104	0.8758
1095	0.8659
1086	0.8599
1077	0.8614
1068	0.8618
1059	0.8706
1050	0.8713
1041	0.8756
1032	0.8758
1023	0.8754
1014	0.8713
1005	0.8681
996	0.8652
987	0.8613
978	0.8571
969	0.8577
960	0.8665
951	0.8791
942	0.8785
933	0.8668
924	0.8548
915	0.851
906	0.8585
897	0.8587
888	0.8528
879	0.8447
870	0.8289
861	0.7965
852	0.7575
843	0.6373
834	0.5238
825	0.3845
816	0.467
807	0.392
798	0.1084
789	0.2557
780	0.3321
771	0.2045
762	0.4106
753	0.5589
744	0.5269
735	0.4264
726	0.1792
717	0.2575
708	0.2443
699	0.3632
690	0.4373
681	0.491
672	0.5174
663	0.4478
654	0.2849
645	0.4324
636	0.619
627	0.6647
618	0.6876
609	0.6886
600	0.6841
591	0.675
582	0.6567
573	0.5981
564	0.4543
555	0.5162
546	0.561
537	0.549
528	0.5176
519	0.4804
510	0.4529
501	0.4346
492	0.4141
483	0.3978
474	0.411
465	0.4486
456	0.4927
447	0.5242
438	0.5447
429	0.5203
420	0.5652
411	0.559
402	0.5462
