Infrared Spectrum: (PHENYLDIMETHYLSILYL)-METHYL PYRAZINE
Formula: C13 H16 N2 Si
State: LIQUID
Class: COBLENTZ
Instrument: Not specified, most likely a prism, grating, or hybrid spectrometer.
Sampling: TRANSMISSION
Path length: 0.0015 CM
Resolution: 4
Origin: WYANDOTTE CHEMICALS CORP., WYANDOTTE, MICHIGAN, USA
MICROMETERS	TRANSMITTANCE
2.014	0.965
2.05486	0.95
2.09571	0.95
2.13657	0.955
2.17742	0.942
2.21828	0.942
2.25913	0.947
2.29999	0.936
2.34084	0.938
2.3817	0.926
2.42256	0.935
2.46341	0.943
2.50427	0.948
2.54512	0.947
2.58598	0.942
2.62683	0.931
2.66769	0.928
2.70854	0.914
2.7494	0.904
2.79025	0.89
2.83111	0.868
2.87197	0.838
2.91282	0.822
2.95368	0.807
2.99453	0.816
3.03539	0.839
3.07624	0.844
3.1171	0.848
3.15795	0.843
3.19881	0.805
3.23967	0.541
3.28052	0.49
3.32138	0.584
3.36223	0.299
3.40309	0.652
3.44394	0.7
3.4848	0.805
3.52565	0.846
3.56651	0.877
3.60736	0.908
3.64822	0.918
3.68908	0.923
3.72993	0.936
3.77079	0.931
3.81164	0.943
3.8525	0.947
3.89335	0.945
3.93421	0.936
3.97506	0.959
4.01592	0.942
4.05678	0.931
4.09763	0.936
4.13849	0.936
4.17934	0.94
4.2202	0.933
4.26105	0.945
4.30191	0.945
4.34276	0.96
4.38362	0.955
4.42447	0.938
4.46533	0.94
4.50619	0.942
4.54704	0.94
4.5879	0.947
4.62875	0.942
4.66961	0.95
4.71046	0.948
4.75132	0.945
4.79217	0.947
4.83303	0.942
4.87389	0.95
4.91474	0.938
4.9556	0.938
4.99645	0.938
5.03731	0.942
5.07816	0.923
5.11902	0.89
5.15987	0.851
5.20073	0.899
5.24158	0.908
5.28244	0.868
5.3233	0.856
5.36415	0.906
5.40501	0.923
5.44586	0.919
5.48672	0.884
5.52757	0.86
5.56843	0.908
5.60928	0.908
5.65014	0.89
5.691	0.889
5.73185	0.904
5.77271	0.89
5.81356	0.889
5.85442	0.889
5.89527	0.873
5.93613	0.858
5.97698	0.826
6.01784	0.795
6.05869	0.705
6.09955	0.487
6.14041	0.586
6.18126	0.684
6.22212	0.596
6.26297	0.64
6.30383	0.717
6.34468	0.771
6.38554	0.79
6.42639	0.768
6.46725	0.562
6.50811	0.541
6.54896	0.701
6.58982	0.727
6.63067	0.562
6.67153	0.592
6.71238	0.618
6.75324	0.494
6.79409	0.606
6.83495	0.587
6.8758	0.555
6.91666	0.475
6.95752	0.24
6.99837	0.219
7.03923	0.291
7.08008	0.197
7.12094	0.192
7.16179	0.39
7.20265	0.557
7.2435	0.577
7.28436	0.717
7.32522	0.768
7.36607	0.766
7.40693	0.756
7.44778	0.718
7.48864	0.698
7.52949	0.65
7.57035	0.62
7.6112	0.638
7.65206	0.597
7.69291	0.638
7.73377	0.674
7.77463	0.669
7.81548	0.606
7.85634	0.436
7.89719	0.158
7.93805	0.044
7.9789	0.059
8.01976	0.308
8.06061	0.575
8.10147	0.623
8.14233	0.58
8.18318	0.667
8.22404	0.717
8.26489	0.727
8.30575	0.72
8.3466	0.681
8.38746	0.642
8.42831	0.669
8.46917	0.649
8.51002	0.584
8.55088	0.504
8.59174	0.459
8.63259	0.398
8.67345	0.456
8.7143	0.488
8.75516	0.444
8.79601	0.367
8.83687	0.267
8.87772	0.073
8.91858	0.044
8.95944	0.095
9.00029	0.218
9.04115	0.233
9.082	0.195
9.12286	0.141
9.16371	0.1
9.20457	0.063
9.24542	0.049
9.28628	0.042
9.32713	0.042
9.36799	0.042
9.40885	0.042
9.4497	0.042
9.49056	0.042
9.53141	0.044
9.57227	0.044
9.61312	0.044
9.65398	0.061
9.69483	0.071
9.73569	0.052
9.77655	0.059
9.8174	0.073
9.85826	0.177
9.89911	0.281
9.93997	0.385
9.98082	0.395
10.0217	0.241
10.0625	0.526
10.1034	0.577
10.1442	0.601
10.1851	0.618
10.226	0.632
10.2668	0.649
10.3077	0.662
10.3485	0.681
10.3894	0.706
10.4302	0.717
10.4711	0.712
10.5119	0.708
10.5528	0.693
10.5937	0.693
10.6345	0.679
10.6754	0.678
10.7162	0.674
10.7571	0.674
10.7979	0.671
10.8388	0.664
10.8796	0.643
10.9205	0.632
10.9614	0.632
11.0022	0.657
11.0431	0.681
11.0839	0.7
11.1248	0.708
11.1656	0.7
11.2065	0.689
11.2473	0.671
11.2882	0.649
11.3291	0.628
11.3699	0.609
11.4108	0.592
11.4516	0.572
11.4925	0.548
11.5333	0.504
11.5742	0.461
11.615	0.412
11.6559	0.34
11.6968	0.279
11.7376	0.233
11.7785	0.201
11.8193	0.172
11.8602	0.141
11.901	0.1
11.9419	0.059
11.9827	0.052
12.0236	0.042
12.0645	0.049
12.1053	0.049
12.1462	0.051
12.187	0.071
12.2279	0.127
12.2687	0.183
12.3096	0.219
12.3504	0.228
12.3913	0.195
12.4322	0.132
12.473	0.08
12.5139	0.056
12.5547	0.047
12.5956	0.047
12.6364	0.051
12.6773	0.049
12.7181	0.049
12.759	0.052
12.7999	0.064
12.8407	0.105
12.8816	0.18
12.9224	0.277
12.9633	0.364
13.0041	0.437
13.045	0.49
13.0858	0.517
13.1267	0.529
13.1676	0.528
13.2084	0.5
13.2493	0.456
13.2901	0.366
13.331	0.26
13.3718	0.17
13.4127	0.139
13.4535	0.132
13.4944	0.141
13.5353	0.153
13.5761	0.17
13.617	0.178
13.6578	0.172
13.6987	0.149
13.7395	0.129
13.7804	0.115
13.8212	0.117
13.8621	0.153
13.903	0.226
13.9438	0.289
13.9847	0.323
14.0255	0.321
14.0664	0.289
14.1072	0.24
14.1481	0.175
14.1889	0.144
14.2298	0.132
14.2707	0.119
14.3115	0.107
14.3524	0.112
14.3932	0.127
14.4341	0.185
14.4749	0.275
14.5158	0.39
14.5566	0.478
14.5975	0.543
14.6383	0.567
14.6792	0.58
14.7201	0.591
14.7609	0.597
14.8018	0.594
14.8426	0.597
14.8835	0.618
14.9243	0.643
14.9652	0.664
15.006	0.683
15.0469	0.667
15.0878	0.679
15.1286	0.683
15.1695	0.712
15.2103	0.732
15.2512	0.741
15.292	0.734
15.3329	0.708
15.3737	0.666
15.4146	0.613
15.4555	0.568
15.4963	0.567
15.5372	0.609
15.578	0.669
15.6189	0.7
15.6597	0.727
15.7006	0.742
15.7414	0.749
15.7823	0.749
15.8232	0.744
15.864	0.739
15.9049	0.73
15.9457	0.735
15.9866	0.725
