Infrared Spectrum: STRONTIUM OXALATE
Formula: Sr C2 O4  * H2 O
State: SOLID (KBr DISC)
Class: COBLENTZ
Instrument: Not specified, most likely a prism, grating, or hybrid spectrometer.
Sampling: TRANSMISSION
Resolution: 4
MICROMETERS	TRANSMITTANCE
2.024	0.776
2.06201	0.782
2.10001	0.788
2.13802	0.794
2.17602	0.799
2.21403	0.806
2.25204	0.812
2.29004	0.819
2.32805	0.827
2.36605	0.833
2.40406	0.837
2.44206	0.841
2.48007	0.849
2.51808	0.852
2.55608	0.853
2.59409	0.856
2.63209	0.859
2.6701	0.861
2.70811	0.861
2.74611	0.812
2.78412	0.691
2.82212	0.573
2.86013	0.45
2.89813	0.451
2.93614	0.485
2.97415	0.494
3.01215	0.496
3.05016	0.555
3.08816	0.586
3.12617	0.602
3.16418	0.602
3.20218	0.581
3.24019	0.579
3.27819	0.598
3.3162	0.642
3.3542	0.695
3.39221	0.716
3.43022	0.731
3.46822	0.775
3.50623	0.799
3.54423	0.815
3.58224	0.83
3.62025	0.836
3.65825	0.847
3.69626	0.858
3.73426	0.87
3.77227	0.875
3.81027	0.881
3.84828	0.89
3.88629	0.893
3.92429	0.896
3.9623	0.896
4.0003	0.901
4.03831	0.905
4.07632	0.906
4.11432	0.911
4.15233	0.914
4.19033	0.914
4.22834	0.914
4.26634	0.908
4.30435	0.908
4.34236	0.911
4.38036	0.915
4.41837	0.915
4.45637	0.915
4.49438	0.914
4.53239	0.909
4.57039	0.909
4.6084	0.909
4.6464	0.911
4.68441	0.911
4.72241	0.911
4.76042	0.911
4.79843	0.912
4.83643	0.914
4.87444	0.914
4.91244	0.914
4.95045	0.914
4.98846	0.912
5.02646	0.911
5.06447	0.908
5.10247	0.903
5.14048	0.898
5.17848	0.89
5.21649	0.88
5.2545	0.871
5.2925	0.865
5.33051	0.864
5.36851	0.85
5.40652	0.838
5.44453	0.827
5.48253	0.812
5.52054	0.79
5.55854	0.771
5.59655	0.75
5.63455	0.716
5.67256	0.686
5.71057	0.663
5.74857	0.629
5.78658	0.584
5.82458	0.546
5.86259	0.481
5.9006	0.4
5.9386	0.33
5.97661	0.261
6.01461	0.184
6.05262	0.131
6.09062	0.098
6.12863	0.072
6.16664	0.064
6.20464	0.064
6.24265	0.106
6.28065	0.159
6.31866	0.215
6.35667	0.259
6.39467	0.295
6.43268	0.363
6.47068	0.392
6.50869	0.438
6.54669	0.46
6.5847	0.499
6.62271	0.531
6.66071	0.568
6.69872	0.592
6.73672	0.618
6.77473	0.626
6.81274	0.635
6.85074	0.639
6.88875	0.66
6.92675	0.683
6.96476	0.694
7.00276	0.716
7.04077	0.722
7.07878	0.731
7.11678	0.731
7.15479	0.72
7.19279	0.679
7.2308	0.648
7.26881	0.633
7.30681	0.633
7.34482	0.635
7.38282	0.621
7.42083	0.602
7.45883	0.561
7.49684	0.474
7.53485	0.323
7.57285	0.187
7.61086	0.134
7.64886	0.23
7.68687	0.323
7.72488	0.447
7.76288	0.539
7.80089	0.592
7.83889	0.633
7.8769	0.655
7.9149	0.683
7.95291	0.711
7.99092	0.726
8.02892	0.744
8.06693	0.756
8.10493	0.768
8.14294	0.775
8.18095	0.788
8.21895	0.793
8.25696	0.799
8.29496	0.803
8.33297	0.81
8.37097	0.815
8.40898	0.822
8.44699	0.827
8.48499	0.833
8.523	0.837
8.561	0.84
8.59901	0.843
8.63702	0.846
8.67502	0.847
8.71303	0.852
8.75103	0.853
8.78904	0.855
8.82704	0.856
8.86505	0.856
8.90306	0.858
8.94106	0.859
8.97907	0.861
9.01707	0.861
9.05508	0.862
9.09309	0.865
9.13109	0.865
9.1691	0.867
9.2071	0.867
9.24511	0.87
9.28311	0.87
9.32112	0.874
9.35913	0.878
9.39713	0.878
9.43514	0.88
9.47314	0.881
9.51115	0.881
9.54916	0.883
9.58716	0.884
9.62517	0.886
9.66317	0.889
9.70118	0.89
9.73918	0.892
9.77719	0.895
9.8152	0.895
9.8532	0.895
9.89121	0.896
9.92921	0.896
9.96722	0.898
10.0052	0.899
10.0432	0.899
10.0812	0.901
10.1192	0.901
10.1572	0.902
10.1953	0.903
10.2333	0.906
10.2713	0.905
10.3093	0.905
10.3473	0.905
10.3853	0.906
10.4233	0.906
10.4613	0.906
10.4993	0.906
10.5373	0.906
10.5753	0.905
10.6133	0.905
10.6513	0.905
10.6893	0.905
10.7273	0.905
10.7653	0.905
10.8033	0.903
10.8414	0.896
10.8794	0.893
10.9174	0.889
10.9554	0.886
10.9934	0.886
11.0314	0.889
11.0694	0.892
11.1074	0.895
11.1454	0.895
11.1834	0.896
11.2214	0.896
11.2594	0.896
11.2974	0.892
11.3354	0.89
11.3734	0.886
11.4114	0.88
11.4494	0.877
11.4875	0.871
11.5255	0.867
11.5635	0.862
11.6015	0.861
11.6395	0.856
11.6775	0.853
11.7155	0.85
11.7535	0.847
11.7915	0.847
11.8295	0.846
11.8675	0.846
11.9055	0.847
11.9435	0.849
11.9815	0.853
12.0195	0.855
12.0575	0.858
12.0955	0.859
12.1336	0.865
12.1716	0.868
12.2096	0.868
12.2476	0.868
12.2856	0.87
12.3236	0.87
12.3616	0.871
12.3996	0.871
12.4376	0.868
12.4756	0.858
12.5136	0.849
12.5516	0.833
12.5896	0.81
12.6276	0.784
12.6656	0.751
12.7036	0.709
12.7416	0.666
12.7797	0.618
12.8177	0.518
12.8557	0.357
12.8937	0.307
12.9317	0.373
12.9697	0.502
13.0077	0.559
13.0457	0.59
13.0837	0.607
13.1217	0.62
13.1597	0.627
13.1977	0.632
13.2357	0.633
13.2737	0.635
13.3117	0.633
13.3497	0.629
13.3877	0.626
13.4258	0.627
13.4638	0.632
13.5018	0.639
13.5398	0.652
13.5778	0.67
13.6158	0.68
13.6538	0.695
13.6918	0.707
13.7298	0.72
13.7678	0.729
13.8058	0.737
13.8438	0.75
13.8818	0.757
13.9198	0.763
13.9578	0.771
13.9958	0.774
14.0338	0.778
14.0718	0.784
14.1099	0.784
14.1479	0.785
14.1859	0.787
14.2239	0.788
14.2619	0.787
14.2999	0.788
14.3379	0.788
14.3759	0.788
14.4139	0.788
14.4519	0.788
14.4899	0.788
14.5279	0.788
14.5659	0.788
14.6039	0.787
14.6419	0.788
14.6799	0.788
14.7179	0.788
14.756	0.788
14.794	0.787
14.832	0.787
14.87	0.785
14.908	0.782
14.946	0.781
14.984	0.779
15.022	0.781
