Infrared Spectrum: METHYL NICOTINIUM P-TOLUENE SULFONATE HYDRAZIDE
Formula: C14 H17 N3 O4 S
State: SOLID (MULL)
Class: COBLENTZ
Instrument: Not specified, most likely a prism, grating, or hybrid spectrometer.
Sampling: TRANSMISSION
Resolution: 4
Origin: WYANDOTTE CHEMICALS CORP., WYANDOTTE, MICHIGAN, USA
MICROMETERS	TRANSMITTANCE
2.041	0.589
2.08095	0.605
2.12089	0.603
2.16084	0.615
2.20079	0.613
2.24074	0.607
2.28068	0.615
2.32063	0.633
2.36058	0.615
2.40053	0.637
2.44047	0.652
2.48042	0.657
2.52037	0.66
2.56032	0.673
2.60026	0.688
2.64021	0.682
2.68016	0.687
2.72011	0.633
2.76005	0.509
2.8	0.256
2.83995	0.231
2.8799	0.271
2.91984	0.317
2.95979	0.485
2.99974	0.5
3.03969	0.252
3.07963	0.118
3.11958	0.217
3.15953	0.316
3.19948	0.362
3.23942	0.312
3.27937	0.184
3.31932	0.212
3.35927	0.094
3.39921	0.041
3.43916	0.071
3.47911	0.116
3.51906	0.163
3.559	0.575
3.59895	0.675
3.6389	0.703
3.67885	0.7
3.71879	0.715
3.75874	0.73
3.79869	0.745
3.83864	0.755
3.87858	0.757
3.91853	0.76
3.95848	0.785
3.99843	0.801
4.03837	0.81
4.07832	0.818
4.11827	0.82
4.15822	0.82
4.19816	0.82
4.23811	0.816
4.27806	0.811
4.31801	0.818
4.35795	0.856
4.3979	0.87
4.43785	0.871
4.4778	0.871
4.51774	0.865
4.55769	0.861
4.59764	0.861
4.63759	0.863
4.67753	0.876
4.71748	0.873
4.75743	0.86
4.79738	0.863
4.83732	0.895
4.87727	0.905
4.91722	0.906
4.95717	0.911
4.99711	0.918
5.03706	0.913
5.07701	0.918
5.11696	0.911
5.1569	0.921
5.19685	0.916
5.2368	0.885
5.27675	0.921
5.31669	0.95
5.35664	0.971
5.39659	0.976
5.43654	0.971
5.47648	0.975
5.51643	0.943
5.55638	0.971
5.59633	0.971
5.63627	0.971
5.67622	0.983
5.71617	0.97
5.75612	0.928
5.79606	0.841
5.83601	0.833
5.87596	0.758
5.9159	0.527
5.95585	0.193
5.9958	0.084
6.03575	0.184
6.07569	0.196
6.11564	0.138
6.15559	0.146
6.19554	0.361
6.23548	0.312
6.27543	0.477
6.31538	0.607
6.35533	0.603
6.39527	0.457
6.43522	0.237
6.47517	0.198
6.51512	0.331
6.55506	0.371
6.59501	0.272
6.63496	0.237
6.67491	0.346
6.71485	0.432
6.7548	0.341
6.79475	0.244
6.8347	0.267
6.87464	0.334
6.91459	0.424
6.95454	0.55
6.99449	0.577
7.03443	0.642
7.07438	0.615
7.11433	0.59
7.15428	0.575
7.19422	0.424
7.23417	0.352
7.27412	0.46
7.31407	0.509
7.35401	0.492
7.39396	0.415
7.43391	0.462
7.47386	0.465
7.5138	0.434
7.55375	0.43
7.5937	0.452
7.63365	0.417
7.67359	0.384
7.71354	0.362
7.75349	0.372
7.79344	0.432
7.83338	0.514
7.87333	0.552
7.91328	0.572
7.95323	0.555
7.99317	0.512
8.03312	0.424
8.07307	0.251
8.11302	0.079
8.15296	0.041
8.19291	0.076
8.23286	0.116
8.27281	0.149
8.31275	0.189
8.3527	0.154
8.39265	0.093
8.4326	0.049
8.47254	0.036
8.51249	0.038
8.55244	0.049
8.59239	0.079
8.63233	0.176
8.67228	0.297
8.71223	0.354
8.75218	0.405
8.79212	0.389
8.83207	0.286
8.87202	0.184
8.91197	0.056
8.95191	0.116
8.99186	0.232
9.03181	0.332
9.07176	0.472
9.1117	0.54
9.15165	0.539
9.1916	0.534
9.23155	0.572
9.27149	0.612
9.31144	0.645
9.35139	0.663
9.39134	0.672
9.43128	0.685
9.47123	0.7
9.51118	0.698
9.55113	0.658
9.59107	0.452
9.63102	0.111
9.67097	0.061
9.71091	0.229
9.75086	0.534
9.79081	0.615
9.83076	0.572
9.8707	0.237
9.91065	0.089
9.9506	0.372
9.99055	0.512
10.0305	0.585
10.0704	0.6
10.1104	0.592
10.1503	0.552
10.1903	0.494
10.2302	0.409
10.2702	0.311
10.3101	0.246
10.3501	0.207
10.39	0.206
10.43	0.261
10.4699	0.324
10.5099	0.42
10.5498	0.53
10.5898	0.589
10.6297	0.633
10.6697	0.663
10.7096	0.7
10.7495	0.718
10.7895	0.738
10.8294	0.76
10.8694	0.75
10.9093	0.743
10.9493	0.75
10.9892	0.752
11.0292	0.742
11.0691	0.737
11.1091	0.723
11.149	0.703
11.189	0.708
11.2289	0.735
11.2689	0.77
11.3088	0.788
11.3488	0.801
11.3887	0.818
11.4287	0.825
11.4686	0.826
11.5086	0.826
11.5485	0.828
11.5884	0.83
11.6284	0.828
11.6683	0.825
11.7083	0.813
11.7482	0.797
11.7882	0.75
11.8281	0.698
11.8681	0.667
11.908	0.638
11.948	0.627
11.9879	0.565
12.0279	0.5
12.0678	0.455
12.1078	0.366
12.1477	0.209
12.1877	0.232
12.2276	0.465
12.2676	0.572
12.3075	0.707
12.3474	0.833
12.3874	0.866
12.4273	0.885
12.4673	0.881
12.5072	0.82
12.5472	0.737
12.5871	0.826
12.6271	0.898
12.667	0.926
12.707	0.94
12.7469	0.946
12.7869	0.946
12.8268	0.946
12.8668	0.941
12.9067	0.936
12.9467	0.935
12.9866	0.935
13.0266	0.935
13.0665	0.935
13.1065	0.931
13.1464	0.925
13.1863	0.913
13.2263	0.9
13.2662	0.876
13.3062	0.865
13.3461	0.868
13.3861	0.876
13.426	0.878
13.466	0.881
13.5059	0.87
13.5459	0.86
13.5858	0.851
13.6258	0.838
13.6657	0.826
13.7057	0.818
13.7456	0.81
13.7856	0.8
13.8255	0.78
13.8655	0.763
13.9054	0.752
13.9453	0.738
13.9853	0.725
14.0252	0.69
14.0652	0.632
14.1051	0.592
14.1451	0.58
14.185	0.557
14.225	0.502
14.2649	0.442
14.3049	0.366
14.3448	0.294
14.3848	0.237
14.4247	0.166
14.4647	0.123
14.5046	0.106
14.5446	0.106
14.5845	0.126
14.6245	0.146
14.6644	0.156
14.7043	0.154
14.7443	0.138
14.7842	0.116
14.8242	0.123
14.8641	0.144
14.9041	0.186
14.944	0.261
14.984	0.304
15.0239	0.357
15.0639	0.427
15.1038	0.477
15.1438	0.515
15.1837	0.542
15.2237	0.569
15.2636	0.565
15.3036	0.555
15.3435	0.535
15.3835	0.529
15.4234	0.514
15.4634	0.517
15.5033	0.529
15.5432	0.547
15.5832	0.562
15.6231	0.589
15.6631	0.602
15.703	0.608
15.743	0.608
15.7829	0.61
15.8229	0.612
15.8628	0.612
15.9028	0.605
15.9427	0.607
15.9827	0.602
