Infrared Spectrum: CADMIUM OXALATE
Formula: Cd C2 O4  * 3 H2 O
State: SOLID (KBr DISC)
Class: COBLENTZ
Instrument: Not specified, most likely a prism, grating, or hybrid spectrometer.
Sampling: TRANSMISSION
Resolution: 4
MICROMETERS	TRANSMITTANCE
1.998	0.939
2.0362	0.941
2.0744	0.942
2.1126	0.946
2.15081	0.954
2.18901	0.957
2.22721	0.961
2.26541	0.966
2.30361	0.97
2.34181	0.973
2.38001	0.974
2.41821	0.977
2.45642	0.977
2.49462	0.979
2.53282	0.979
2.57102	0.979
2.60922	0.982
2.64742	0.983
2.68562	0.983
2.72383	0.976
2.76203	0.914
2.80023	0.777
2.83843	0.578
2.87663	0.464
2.91483	0.407
2.95303	0.367
2.99124	0.374
3.02944	0.423
3.06764	0.441
3.10584	0.454
3.14404	0.482
3.18224	0.528
3.22044	0.576
3.25864	0.625
3.29685	0.668
3.33505	0.721
3.37325	0.749
3.41145	0.775
3.44965	0.793
3.48785	0.828
3.52605	0.853
3.56426	0.876
3.60246	0.89
3.64066	0.904
3.67886	0.915
3.71706	0.926
3.75526	0.943
3.79346	0.951
3.83167	0.955
3.86987	0.96
3.90807	0.964
3.94627	0.967
3.98447	0.97
4.02267	0.974
4.06087	0.976
4.09907	0.98
4.13728	0.985
4.17548	0.988
4.21368	0.988
4.25188	0.988
4.29008	0.988
4.32828	0.988
4.36648	0.989
4.40469	0.988
4.44289	0.988
4.48109	0.988
4.51929	0.988
4.55749	0.988
4.59569	0.988
4.63389	0.988
4.67209	0.988
4.7103	0.985
4.7485	0.983
4.7867	0.985
4.8249	0.986
4.8631	0.986
4.9013	0.988
4.9395	0.989
4.97771	0.991
5.01591	0.992
5.05411	0.992
5.09231	0.992
5.13051	0.992
5.16871	0.992
5.20691	0.986
5.24512	0.98
5.28332	0.977
5.32152	0.976
5.35972	0.973
5.39792	0.966
5.43612	0.961
5.47432	0.952
5.51252	0.936
5.55073	0.924
5.58893	0.914
5.62713	0.898
5.66533	0.874
5.70353	0.852
5.74173	0.831
5.77993	0.803
5.81814	0.741
5.85634	0.651
5.89454	0.575
5.93274	0.443
5.97094	0.308
6.00914	0.2
6.04734	0.165
6.08555	0.117
6.12375	0.098
6.16195	0.094
6.20015	0.094
6.23835	0.097
6.27655	0.129
6.31475	0.196
6.35295	0.272
6.39116	0.355
6.42936	0.429
6.46756	0.495
6.50576	0.55
6.54396	0.592
6.58216	0.615
6.62036	0.648
6.65857	0.676
6.69677	0.702
6.73497	0.719
6.77317	0.727
6.81137	0.728
6.84957	0.733
6.88777	0.746
6.92597	0.756
6.96418	0.766
7.00238	0.778
7.04058	0.787
7.07878	0.802
7.11698	0.811
7.15518	0.821
7.19338	0.823
7.23159	0.811
7.26979	0.752
7.30799	0.73
7.34619	0.715
7.38439	0.691
7.42259	0.666
7.46079	0.644
7.499	0.585
7.5372	0.495
7.5754	0.346
7.6136	0.289
7.6518	0.3
7.69	0.41
7.7282	0.522
7.7664	0.604
7.80461	0.685
7.84281	0.74
7.88101	0.78
7.91921	0.799
7.95741	0.823
7.99561	0.836
8.03381	0.849
8.07202	0.856
8.11022	0.861
8.14842	0.868
8.18662	0.873
8.22482	0.876
8.26302	0.879
8.30122	0.884
8.33943	0.893
8.37763	0.898
8.41583	0.899
8.45403	0.905
8.49223	0.907
8.53043	0.91
8.56863	0.914
8.60683	0.915
8.64504	0.917
8.68324	0.918
8.72144	0.921
8.75964	0.923
8.79784	0.924
8.83604	0.927
8.87424	0.929
8.91245	0.932
8.95065	0.932
8.98885	0.933
9.02705	0.933
9.06525	0.933
9.10345	0.935
9.14165	0.935
9.17985	0.936
9.21806	0.938
9.25626	0.938
9.29446	0.941
9.33266	0.943
9.37086	0.945
9.40906	0.945
9.44726	0.946
9.48547	0.948
9.52367	0.948
9.56187	0.948
9.60007	0.949
9.63827	0.949
9.67647	0.949
9.71467	0.951
9.75288	0.951
9.79108	0.952
9.82928	0.952
9.86748	0.952
9.90568	0.954
9.94388	0.954
9.98208	0.955
10.0203	0.957
10.0585	0.958
10.0967	0.96
10.1349	0.961
10.1731	0.961
10.2113	0.961
10.2495	0.96
10.2877	0.961
10.3259	0.963
10.3641	0.963
10.4023	0.963
10.4405	0.96
10.4787	0.96
10.5169	0.96
10.5551	0.961
10.5933	0.961
10.6315	0.958
10.6697	0.958
10.7079	0.957
10.7461	0.954
10.7843	0.952
10.8225	0.949
10.8607	0.945
10.8989	0.942
10.9371	0.941
10.9753	0.938
11.0135	0.933
11.0517	0.932
11.0899	0.929
11.1281	0.926
11.1663	0.921
11.2045	0.921
11.2427	0.92
11.2809	0.92
11.3191	0.92
11.3573	0.92
11.3955	0.92
11.4337	0.92
11.4719	0.92
11.5101	0.92
11.5483	0.915
11.5865	0.912
11.6247	0.911
11.6629	0.902
11.7011	0.896
11.7393	0.893
11.7775	0.887
11.8157	0.882
11.8539	0.876
11.8922	0.87
11.9304	0.859
11.9686	0.853
12.0068	0.852
12.045	0.848
12.0832	0.845
12.1214	0.84
12.1596	0.831
12.1978	0.823
12.236	0.811
12.2742	0.794
12.3124	0.766
12.3506	0.74
12.3888	0.691
12.427	0.623
12.4652	0.558
12.5034	0.511
12.5416	0.483
12.5798	0.464
12.618	0.46
12.6562	0.461
12.6944	0.489
12.7326	0.557
12.7708	0.591
12.809	0.617
12.8472	0.646
12.8854	0.669
12.9236	0.688
12.9618	0.709
13	0.734
13.0382	0.753
13.0764	0.764
13.1146	0.769
13.1528	0.775
13.191	0.777
13.2292	0.777
13.2674	0.777
13.3056	0.78
13.3438	0.781
13.382	0.78
13.4202	0.777
13.4584	0.774
13.4966	0.772
13.5348	0.768
13.573	0.764
13.6112	0.756
13.6494	0.75
13.6876	0.746
13.7258	0.744
13.764	0.74
13.8022	0.735
13.8404	0.733
13.8786	0.731
13.9168	0.734
13.955	0.733
13.9932	0.733
14.0314	0.734
14.0696	0.734
14.1078	0.735
14.146	0.737
14.1842	0.738
14.2224	0.74
14.2606	0.746
14.2988	0.749
14.337	0.75
14.3752	0.752
14.4134	0.752
14.4516	0.755
14.4898	0.755
14.528	0.756
14.5662	0.764
14.6044	0.766
14.6426	0.766
14.6809	0.766
14.7191	0.766
14.7573	0.768
14.7955	0.768
14.8337	0.769
14.8719	0.769
14.9101	0.768
14.9483	0.772
