Infrared Spectrum: Arsonium permanganate, tetraphenyl-
Formula: C24 H20 As Mn O4
State: SOLID (SPLIT MULL), FLUOROLUBE FOR 3800-1330 CM^-^1, NUJOL FOR 1330-460 CM^-^1
Class: COBLENTZ III
Instrument: DOW KBr FOREPRISM-GRATING
Instrument parameters: BLAZED AT 3.5, 12.0, 20.0 MICRON AND CHANGED AT 5.0, 7.5, 14.9 MICRON
Sampling: TRANSMISSION
Resolution: 2
Origin: DOW CHEMICAL COMPANY
1/CM	TRANSMITTANCE
455	0.3692
464	0.6399
473	0.6393
482	0.7008
491	0.7233
500	0.7227
509	0.7248
518	0.7348
527	0.7483
536	0.7578
545	0.7657
554	0.7738
563	0.7826
572	0.7917
581	0.8008
590	0.811
599	0.8147
608	0.8126
617	0.8193
626	0.8246
635	0.8291
644	0.8374
653	0.8392
662	0.8251
671	0.7911
680	0.6374
689	0.1983
698	0.716
707	0.7902
716	0.7553
725	0.6974
734	0.5503
743	0.085
752	0.7087
761	0.7925
770	0.8166
779	0.8338
788	0.8393
797	0.8391
806	0.8391
815	0.8348
824	0.8272
833	0.813
842	0.7669
851	0.7029
860	0.7963
869	0.7768
878	0.7286
887	0.6125
896	0.1637
905	0.0719
914	0.4368
923	0.6308
932	0.7874
941	0.8101
950	0.8222
959	0.818
968	0.8082
977	0.8148
986	0.7874
995	0.4302
1004	0.81
1013	0.8208
1022	0.6935
1031	0.8144
1040	0.8215
1049	0.8238
1058	0.8129
1067	0.762
1076	0.7609
1085	0.5173
1094	0.8117
1103	0.8228
1112	0.8287
1121	0.8294
1130	0.8283
1139	0.8091
1148	0.8091
1157	0.7994
1166	0.7876
1175	0.8072
1184	0.7688
1193	0.8117
1202	0.814
1211	0.8129
1220	0.8123
1229	0.812
1238	0.803
1247	0.7951
1256	0.7891
1265	0.7814
1274	0.7662
1283	0.7623
1292	0.7593
1301	0.7351
1310	0.657
1319	0.7143
1328	0.725
1337	0.6074
1346	0.7155
1355	0.7765
1364	0.7998
1373	0.7959
1382	0.7737
1391	0.7819
1400	0.8039
1409	0.8068
1418	0.7904
1427	0.7177
1436	0.2292
1445	0.8238
1454	0.8384
1463	0.8303
1472	0.7568
1481	0.4068
1490	0.8762
1499	0.8842
1508	0.8811
1517	0.8756
1526	0.8716
1535	0.8687
1544	0.8661
1553	0.8641
1562	0.8626
1571	0.8615
1580	0.8479
1589	0.8581
1598	0.859
1607	0.8501
1616	0.8461
1625	0.8483
1634	0.8419
1643	0.8377
1652	0.8334
1661	0.8314
1670	0.8317
1679	0.8351
1688	0.8332
1697	0.8404
1706	0.8493
1715	0.8505
1724	0.8382
1733	0.8243
1742	0.845
1751	0.8453
1760	0.8361
1769	0.8403
1778	0.8418
1787	0.8399
1796	0.8333
1805	0.8264
1814	0.8178
1823	0.8298
1832	0.8377
1841	0.8379
1850	0.8377
1859	0.8374
1868	0.8374
1877	0.834
1886	0.8251
1895	0.8165
1904	0.8205
1913	0.8199
1922	0.8213
1931	0.8269
1940	0.8274
1949	0.8266
1958	0.827
1967	0.8121
1976	0.8135
1985	0.8107
1994	0.8087
2003	0.8357
2012	0.835
2021	0.8368
2030	0.8382
2039	0.8366
2048	0.8344
2057	0.8311
2066	0.8263
2075	0.8232
2084	0.8213
2093	0.8189
2102	0.8124
2111	0.8122
2120	0.811
2129	0.8095
2138	0.808
2147	0.8028
2156	0.7889
2165	0.7944
2174	0.8001
2183	0.7965
2192	0.7942
2201	0.7925
2210	0.7897
2219	0.7852
2228	0.7804
2237	0.7757
2246	0.7711
2255	0.7691
2264	0.7692
2273	0.7659
2282	0.7647
2291	0.7625
2300	0.7581
2309	0.7549
2318	0.752
2327	0.7538
2336	0.7564
2345	0.7574
2354	0.7574
2363	0.7573
2372	0.7572
2381	0.757
2390	0.7568
2399	0.7566
2408	0.7565
2417	0.7562
2426	0.7561
2435	0.7558
2444	0.7557
2453	0.7554
2462	0.7551
2471	0.7546
2480	0.7541
2489	0.7536
2498	0.7532
2507	0.7524
2516	0.7516
2525	0.7498
2534	0.7476
2543	0.7434
2552	0.7389
2561	0.7374
2570	0.7374
2579	0.7377
2588	0.7389
2597	0.7389
2606	0.7378
2615	0.7363
2624	0.7338
2633	0.7304
2642	0.7203
2651	0.7161
2660	0.7245
2669	0.7283
2678	0.7281
2687	0.7276
2696	0.7269
2705	0.7253
2714	0.7238
2723	0.7223
2732	0.7208
2741	0.719
2750	0.7173
2759	0.7157
2768	0.7143
2777	0.7128
2786	0.7113
2795	0.7091
2804	0.707
2813	0.7048
2822	0.702
2831	0.699
2840	0.6949
2849	0.6906
2858	0.6889
2867	0.6871
2876	0.6852
2885	0.6832
2894	0.6789
2903	0.6739
2912	0.6674
2921	0.6662
2930	0.6665
2939	0.6674
2948	0.6623
2957	0.6654
2966	0.6665
2975	0.6665
2984	0.6651
2993	0.6606
3002	0.654
3011	0.6472
3020	0.6405
3029	0.6334
3038	0.6263
3047	0.6185
3056	0.6101
3065	0.6039
3074	0.6234
3083	0.6333
3092	0.639
3101	0.6418
3110	0.6445
3119	0.643
3128	0.6419
3137	0.6408
3146	0.629
3155	0.629
3164	0.6305
3173	0.6316
3182	0.6317
3191	0.6307
3200	0.6296
3209	0.6285
3218	0.6274
3227	0.626
3236	0.6242
3245	0.6223
3254	0.6203
3263	0.6182
3272	0.6161
3281	0.6143
3290	0.6127
3299	0.6111
3308	0.6096
3317	0.608
3326	0.6066
3335	0.6051
3344	0.6035
3353	0.6018
3362	0.6003
3371	0.599
3380	0.5981
3389	0.5973
3398	0.5964
3407	0.5956
3416	0.5948
3425	0.5942
3434	0.5936
3443	0.593
3452	0.5924
3461	0.5918
3470	0.5913
3479	0.5909
3488	0.5906
3497	0.5902
3506	0.5899
3515	0.5896
3524	0.5898
3533	0.59
3542	0.5902
3551	0.59
3560	0.5891
3569	0.5881
3578	0.5865
3587	0.5904
3596	0.5911
3605	0.591
3614	0.5909
3623	0.5906
3632	0.5903
3641	0.5899
3650	0.589
3659	0.5882
3668	0.587
3677	0.5851
3686	0.5838
3695	0.5864
3704	0.5863
3713	0.5857
3722	0.5851
3731	0.5843
3740	0.5821
3749	0.5782
3758	0.5754
3767	0.576
3776	0.5763
3785	0.5756
3794	0.5751
