Infrared Spectrum: Butric acid, 2-benzamido-4[(carboxymethyl)thio]-, dimethyl ester
Formula: C15 H19 N O5 S
State: SOLID (1 mg / 650 mg KBr DISC)
Class: COBLENTZ III
Instrument: PERKIN-ELMER 21 (GRATING)
Instrument parameters: FILTER CHANGE ABOUT 1090 CM^-^1
Sampling: TRANSMISSION
Resolution: 2
Origin: SOUTHERN RESEARCH INSTITUTE
1/CM	TRANSMITTANCE
601	0.8665
610	0.869
619	0.8592
628	0.8256
637	0.7756
646	0.7152
655	0.6658
664	0.6723
673	0.7194
682	0.7803
691	0.6693
700	0.5154
709	0.7148
718	0.589
727	0.4236
736	0.7793
745	0.8328
754	0.8602
763	0.8424
772	0.7936
781	0.8374
790	0.8412
799	0.8216
808	0.8004
817	0.8818
826	0.879
835	0.8598
844	0.835
853	0.8325
862	0.8338
871	0.7426
880	0.8071
889	0.8548
898	0.8507
907	0.8465
916	0.8346
925	0.8479
934	0.8095
943	0.7945
952	0.8433
961	0.8463
970	0.8277
979	0.7624
988	0.6761
997	0.6564
1006	0.6687
1015	0.7217
1024	0.7729
1033	0.7836
1042	0.7744
1051	0.7724
1060	0.768
1069	0.7491
1078	0.71
1087	0.6595
1096	0.6157
1105	0.7212
1114	0.7051
1123	0.6692
1132	0.5305
1141	0.2808
1150	0.5658
1159	0.573
1168	0.4905
1177	0.4404
1186	0.5936
1195	0.5879
1204	0.519
1213	0.3873
1222	0.207
1231	0.3846
1240	0.3661
1249	0.6008
1258	0.6267
1267	0.5819
1276	0.5077
1285	0.3893
1294	0.3316
1303	0.3549
1312	0.4263
1321	0.5494
1330	0.6058
1339	0.6898
1348	0.6863
1357	0.67
1366	0.6979
1375	0.6353
1384	0.6256
1393	0.746
1402	0.7618
1411	0.7534
1420	0.672
1429	0.7143
1438	0.5156
1447	0.4361
1456	0.5697
1465	0.6178
1474	0.7104
1483	0.7274
1492	0.6175
1501	0.714
1510	0.6874
1519	0.6011
1528	0.4548
1537	0.3523
1546	0.3305
1555	0.5204
1564	0.6573
1573	0.6544
1582	0.5382
1591	0.7256
1600	0.6394
1609	0.6302
1618	0.5694
1627	0.3523
1636	0.1811
1645	0.4119
1654	0.5648
1663	0.6309
1672	0.7146
1681	0.7395
1690	0.7274
1699	0.6539
1708	0.6153
1717	0.406
1726	0.2325
1735	0.2945
1744	0.2581
1753	0.3138
1762	0.5666
1771	0.6845
1780	0.7327
1789	0.7623
1798	0.7901
1807	0.805
1816	0.8198
1825	0.8319
1834	0.8415
1843	0.8497
1852	0.8573
1861	0.8658
1870	0.8723
1879	0.8738
1888	0.8778
1897	0.8798
1906	0.878
1915	0.871
1924	0.877
1933	0.8821
1942	0.8868
1951	0.891
1960	0.8905
1969	0.8783
1978	0.8712
1987	0.8708
1996	0.8834
2005	0.8893
2014	0.8914
2023	0.8938
2032	0.9003
2041	0.8999
2050	0.8992
2059	0.8985
2068	0.8977
2077	0.897
2086	0.8979
2095	0.8995
2104	0.9009
2113	0.9017
2122	0.9024
2131	0.904
2140	0.9051
2149	0.9063
2158	0.9077
2167	0.9084
2176	0.9079
2185	0.9077
2194	0.9079
2203	0.9068
2212	0.9058
2221	0.9051
2230	0.9051
2239	0.9055
2248	0.9051
2257	0.9037
2266	0.9032
2275	0.9033
2284	0.9032
2293	0.9031
2302	0.9023
2311	0.897
2320	0.8962
2329	0.8959
2338	0.8956
2347	0.8958
2356	0.8961
2365	0.8969
2374	0.8968
2383	0.8969
2392	0.8953
2401	0.8917
2410	0.8874
2419	0.8808
2428	0.8796
2437	0.8855
2446	0.8853
2455	0.8757
2464	0.8811
2473	0.8842
2482	0.885
2491	0.8855
2500	0.8804
2509	0.8778
2518	0.885
2527	0.8891
2536	0.887
2545	0.8836
2554	0.8785
2563	0.8803
2572	0.8805
2581	0.8757
2590	0.8797
2599	0.8832
2608	0.882
2617	0.8806
2626	0.8761
2635	0.8729
2644	0.8715
2653	0.8703
2662	0.8689
2671	0.8682
2680	0.8702
2689	0.8721
2698	0.873
2707	0.8721
2716	0.8696
2725	0.8664
2734	0.8638
2743	0.8598
2752	0.8564
2761	0.854
2770	0.8517
2779	0.8494
2788	0.8418
2797	0.8316
2806	0.823
2815	0.8134
2824	0.8125
2833	0.7944
2842	0.7802
2851	0.7722
2860	0.7727
2869	0.7803
2878	0.7769
2887	0.7817
2896	0.7776
2905	0.765
2914	0.7472
2923	0.7282
2932	0.7119
2941	0.6994
2950	0.6902
2959	0.6925
2968	0.7175
2977	0.7534
2986	0.7454
2995	0.7338
3004	0.7175
3013	0.7054
3022	0.7107
3031	0.7181
3040	0.7195
3049	0.7241
3058	0.7208
3067	0.7135
3076	0.7099
3085	0.7182
3094	0.7411
3103	0.7641
3112	0.7714
3121	0.7722
3130	0.7662
3139	0.7588
3148	0.7523
3157	0.7459
3166	0.7398
3175	0.7356
3184	0.7332
3193	0.7304
3202	0.719
3211	0.6946
3220	0.6717
3229	0.6396
3238	0.586
3247	0.5455
3256	0.4815
3265	0.4175
3274	0.3814
3283	0.3636
3292	0.3679
3301	0.4107
3310	0.4927
3319	0.5519
3328	0.5903
3337	0.6225
3346	0.6442
3355	0.6598
3364	0.662
3373	0.6705
3382	0.6761
3391	0.6778
3400	0.6764
3409	0.6729
3418	0.67
3427	0.6684
3436	0.6683
3445	0.6723
3454	0.6768
3463	0.6808
3472	0.6843
3481	0.6874
3490	0.6877
3499	0.6999
3508	0.7096
3517	0.7201
3526	0.7298
3535	0.7368
3544	0.7439
3553	0.751
3562	0.7584
3571	0.7643
3580	0.7724
3589	0.7824
3598	0.7935
3607	0.8014
3616	0.8053
3625	0.8229
3634	0.8319
3643	0.8364
3652	0.8459
3661	0.8496
3670	0.8562
3679	0.8532
3688	0.8553
3697	0.8604
3706	0.8583
3715	0.8578
3724	0.8617
3733	0.8675
3742	0.8741
3751	0.8848
3760	0.8922
3769	0.8912
3778	0.8899
3787	0.8898
3796	0.8889
3805	0.8836
3814	0.8848
3823	0.8881
3832	0.8889
3841	0.8845
3850	0.8794
3859	0.874
3868	0.8686
3877	0.8644
3886	0.8667
3895	0.868
3904	0.8719
3913	0.8745
3922	0.8729
3931	0.8731
3940	0.8773
3949	0.8751
3958	0.8759
3967	0.8713
3976	0.876
3985	0.8746
3994	0.8773
