Infrared Spectrum: BARIUM CHLORIDE
Formula: Ba Cl2  * 2 H2 O
State: SOLID (NUJOL MULLS)
Class: COBLENTZ
Instrument: Not specified, most likely a prism, grating, or hybrid spectrometer.
Sampling: TRANSMISSION
Resolution: 4
Origin: MELLON INSTITUTE
MICROMETERS	TRANSMITTANCE
2.063	0.75
2.10288	0.755
2.14276	0.763
2.18264	0.77
2.22251	0.775
2.26239	0.778
2.30227	0.782
2.34215	0.785
2.38203	0.79
2.42191	0.8
2.46179	0.804
2.50166	0.812
2.54154	0.82
2.58142	0.832
2.6213	0.847
2.66118	0.862
2.70106	0.871
2.74094	0.874
2.78081	0.82
2.82069	0.556
2.86057	0.224
2.90045	0.128
2.94033	0.09
2.98021	0.075
3.02009	0.095
3.05996	0.157
3.09984	0.271
3.13972	0.435
3.1796	0.574
3.21948	0.624
3.25936	0.644
3.29924	0.546
3.33911	0.231
3.37899	0.201
3.41887	0.301
3.45875	0.39
3.49863	0.75
3.53851	0.85
3.57838	0.874
3.61826	0.882
3.65814	0.887
3.69802	0.891
3.7379	0.894
3.77778	0.899
3.81766	0.901
3.85753	0.902
3.89741	0.906
3.93729	0.909
3.97717	0.911
4.01705	0.914
4.05693	0.917
4.09681	0.917
4.13668	0.917
4.17656	0.916
4.21644	0.916
4.25632	0.914
4.2962	0.911
4.33608	0.909
4.37596	0.906
4.41583	0.904
4.45571	0.904
4.49559	0.904
4.53547	0.901
4.57535	0.899
4.61523	0.896
4.65511	0.892
4.69498	0.891
4.73486	0.889
4.77474	0.886
4.81462	0.881
4.8545	0.879
4.89438	0.877
4.93426	0.879
4.97413	0.884
5.01401	0.896
5.05389	0.906
5.09377	0.911
5.13365	0.917
5.17353	0.922
5.21341	0.927
5.25328	0.931
5.29316	0.932
5.33304	0.934
5.37292	0.932
5.4128	0.932
5.45268	0.932
5.49256	0.934
5.53243	0.938
5.57231	0.943
5.61219	0.946
5.65207	0.949
5.69195	0.954
5.73183	0.959
5.77171	0.963
5.81158	0.963
5.85146	0.963
5.89134	0.961
5.93122	0.958
5.9711	0.951
6.01098	0.904
6.05086	0.542
6.09073	0.541
6.13061	0.659
6.17049	0.433
6.21037	0.705
6.25025	0.807
6.29013	0.855
6.33	0.879
6.36988	0.894
6.40976	0.904
6.44964	0.909
6.48952	0.914
6.5294	0.916
6.56928	0.914
6.60915	0.912
6.64903	0.906
6.68891	0.887
6.72879	0.829
6.76867	0.68
6.80855	0.594
6.84843	0.618
6.8883	0.703
6.92818	0.755
6.96806	0.805
7.00794	0.822
7.04782	0.825
7.0877	0.82
7.12758	0.8
7.16745	0.733
7.20733	0.656
7.24721	0.686
7.28709	0.735
7.32697	0.767
7.36685	0.783
7.40673	0.797
7.4466	0.805
7.48648	0.814
7.52636	0.822
7.56624	0.827
7.60612	0.834
7.646	0.839
7.68588	0.844
7.72575	0.845
7.76563	0.849
7.80551	0.85
7.84539	0.852
7.88527	0.852
7.92515	0.855
7.96503	0.855
8.0049	0.859
8.04478	0.86
8.08466	0.864
8.12454	0.867
8.16442	0.874
8.2043	0.877
8.24418	0.884
8.28405	0.887
8.32393	0.892
8.36381	0.896
8.40369	0.899
8.44357	0.902
8.48345	0.906
8.52333	0.907
8.5632	0.909
8.60308	0.914
8.64296	0.916
8.68284	0.917
8.72272	0.921
8.7626	0.922
8.80248	0.924
8.84235	0.926
8.88223	0.927
8.92211	0.929
8.96199	0.931
9.00187	0.934
9.04175	0.934
9.08162	0.939
9.1215	0.939
9.16138	0.943
9.20126	0.941
9.24114	0.943
9.28102	0.944
9.3209	0.944
9.36077	0.948
9.40065	0.949
9.44053	0.951
9.48041	0.951
9.52029	0.951
9.56017	0.954
9.60005	0.954
9.63992	0.954
9.6798	0.953
9.71968	0.953
9.75956	0.953
9.79944	0.953
9.83932	0.951
9.8792	0.949
9.91907	0.949
9.95895	0.948
9.99883	0.949
10.0387	0.946
10.0786	0.946
10.1185	0.948
10.1583	0.946
10.1982	0.948
10.2381	0.946
10.278	0.944
10.3179	0.944
10.3577	0.943
10.3976	0.943
10.4375	0.941
10.4774	0.939
10.5173	0.936
10.5571	0.936
10.597	0.934
10.6369	0.934
10.6768	0.932
10.7166	0.932
10.7565	0.932
10.7964	0.929
10.8363	0.929
10.8762	0.927
10.916	0.927
10.9559	0.926
10.9958	0.926
11.0357	0.927
11.0756	0.929
11.1154	0.931
11.1553	0.934
11.1952	0.938
11.2351	0.941
11.2749	0.943
11.3148	0.944
11.3547	0.944
11.3946	0.944
11.4345	0.944
11.4743	0.944
11.5142	0.944
11.5541	0.946
11.594	0.946
11.6339	0.949
11.6737	0.949
11.7136	0.948
11.7535	0.948
11.7934	0.946
11.8332	0.944
11.8731	0.941
11.913	0.938
11.9529	0.934
11.9928	0.931
12.0326	0.931
12.0725	0.926
12.1124	0.922
12.1523	0.921
12.1922	0.916
12.232	0.914
12.2719	0.909
12.3118	0.907
12.3517	0.906
12.3915	0.902
12.4314	0.901
12.4713	0.897
12.5112	0.894
12.5511	0.892
12.5909	0.889
12.6308	0.886
12.6707	0.882
12.7106	0.881
12.7505	0.877
12.7903	0.872
12.8302	0.867
12.8701	0.865
12.91	0.86
12.9498	0.854
12.9897	0.847
13.0296	0.842
13.0695	0.834
13.1094	0.822
13.1492	0.812
13.1891	0.802
13.229	0.785
13.2689	0.772
13.3088	0.755
13.3486	0.738
13.3885	0.72
13.4284	0.703
13.4683	0.676
13.5081	0.654
13.548	0.621
13.5879	0.604
13.6278	0.562
13.6677	0.53
13.7075	0.495
13.7474	0.46
13.7873	0.432
13.8272	0.403
13.8671	0.365
13.9069	0.335
13.9468	0.309
13.9867	0.283
14.0266	0.266
14.0664	0.254
14.1063	0.244
14.1462	0.241
14.1861	0.242
14.226	0.244
14.2658	0.246
14.3057	0.247
14.3456	0.249
14.3855	0.251
14.4254	0.252
14.4652	0.257
14.5051	0.261
14.545	0.269
14.5849	0.276
14.6247	0.283
14.6646	0.291
14.7045	0.301
14.7444	0.319
14.7843	0.345
14.8241	0.371
14.864	0.391
14.9039	0.398
14.9438	0.402
14.9837	0.415
15.0235	0.427
15.0634	0.44
15.1033	0.453
15.1432	0.463
15.183	0.475
15.2229	0.487
15.2628	0.499
15.3027	0.505
15.3426	0.517
15.3824	0.525
15.4223	0.532
15.4622	0.537
15.5021	0.541
15.542	0.544
15.5818	0.549
15.6217	0.556
15.6616	0.562
15.7015	0.567
15.7413	0.572
15.7812	0.572
15.8211	0.579
15.861	0.581
15.9009	0.587
15.9407	0.591
15.9806	0.683
