Infrared Spectrum: Benzoic acid, p-sulfo-, s-potassium salt
Formula: C7 H5 K O5 S
State: SOLID (SPLIT MULL)
Class: COBLENTZ III
Instrument: BECKMAN IR-9 (GRATING)
Instrument parameters: ORDER CHANGES: 670, 1200, 2000 CM^-^1
Sampling: TRANSMISSION
Resolution: 2
Origin: DOW CHEMICAL COMPANY
1/CM	TRANSMITTANCE
3800	0.7271
3791	0.7281
3782	0.7291
3773	0.7301
3764	0.7311
3755	0.7319
3746	0.7331
3737	0.7347
3728	0.7362
3719	0.7376
3710	0.7392
3701	0.7404
3692	0.7417
3683	0.7428
3674	0.7435
3665	0.7437
3656	0.7436
3647	0.7434
3638	0.7432
3629	0.7407
3620	0.7364
3611	0.7326
3602	0.7368
3593	0.7321
3584	0.7288
3575	0.7339
3566	0.7347
3557	0.7351
3548	0.7348
3539	0.7342
3530	0.7332
3521	0.7318
3512	0.7305
3503	0.7295
3494	0.7285
3485	0.7275
3476	0.7264
3467	0.7244
3458	0.7217
3449	0.7171
3440	0.7104
3431	0.7053
3422	0.7128
3413	0.7184
3404	0.7208
3395	0.7218
3386	0.7228
3377	0.7225
3368	0.7208
3359	0.7189
3350	0.7167
3341	0.714
3332	0.7111
3323	0.7076
3314	0.7038
3305	0.6993
3296	0.6934
3287	0.6872
3278	0.6807
3269	0.6721
3260	0.6635
3251	0.6545
3242	0.6447
3233	0.6338
3224	0.6226
3215	0.6097
3206	0.5938
3197	0.5762
3188	0.5585
3179	0.5395
3170	0.5191
3161	0.5009
3152	0.4778
3143	0.4604
3134	0.4559
3125	0.4502
3116	0.4409
3107	0.431
3098	0.4082
3089	0.3875
3080	0.3716
3071	0.3566
3062	0.3408
3053	0.3275
3044	0.3206
3035	0.3176
3026	0.3181
3017	0.3242
3008	0.3324
2999	0.3395
2990	0.3459
2981	0.3492
2972	0.3487
2963	0.3482
2954	0.3577
2945	0.3741
2936	0.392
2927	0.4086
2918	0.4236
2909	0.4389
2900	0.4546
2891	0.4706
2882	0.4843
2873	0.4981
2864	0.5128
2855	0.5262
2846	0.5408
2837	0.5562
2828	0.5672
2819	0.5731
2810	0.5741
2801	0.5667
2792	0.563
2783	0.5627
2774	0.5744
2765	0.5979
2756	0.6178
2747	0.6292
2738	0.6414
2729	0.6539
2720	0.6644
2711	0.6734
2702	0.6794
2693	0.6787
2684	0.6761
2675	0.669
2666	0.6581
2657	0.6451
2648	0.622
2639	0.5957
2630	0.5962
2621	0.6365
2612	0.68
2603	0.7006
2594	0.7146
2585	0.7215
2576	0.7271
2567	0.7321
2558	0.7375
2549	0.7404
2540	0.7361
2531	0.7249
2522	0.7139
2513	0.7053
2504	0.6989
2495	0.6997
2486	0.7115
2477	0.7333
2468	0.7506
2459	0.7628
2450	0.7739
2441	0.7792
2432	0.7831
2423	0.7837
2414	0.7839
2405	0.7862
2396	0.7922
2387	0.7953
2378	0.795
2369	0.795
2360	0.7955
2351	0.7958
2342	0.7962
2333	0.7976
2324	0.8036
2315	0.806
2306	0.8062
2297	0.8071
2288	0.809
2279	0.8117
2270	0.8151
2261	0.8183
2252	0.8224
2243	0.8274
2234	0.8318
2225	0.838
2216	0.8431
2207	0.8425
2198	0.8414
2189	0.8437
2180	0.8481
2171	0.8527
2162	0.8573
2153	0.8617
2144	0.8643
2135	0.865
2126	0.8663
2117	0.8674
2108	0.8685
2099	0.8692
2090	0.8697
2081	0.8692
2072	0.869
2063	0.869
2054	0.8692
2045	0.8703
2036	0.8744
2027	0.883
2018	0.8862
2009	0.886
2000	0.8803
1991	0.8741
1982	0.8728
1973	0.8733
1964	0.8732
1955	0.866
1946	0.8612
1937	0.8553
1928	0.8702
1919	0.8806
1910	0.8849
1901	0.8846
1892	0.8845
1883	0.8833
1874	0.8778
1865	0.8767
1856	0.8758
1847	0.8741
1838	0.866
1829	0.8621
1820	0.8611
1811	0.8581
1802	0.8578
1793	0.8557
1784	0.8524
1775	0.8382
1766	0.8141
1757	0.7728
1748	0.6876
1739	0.4776
1730	0.0309
1721	0.0897
1712	0.4801
1703	0.644
1694	0.6901
1685	0.6924
1676	0.7426
1667	0.7711
1658	0.7928
1649	0.8121
1640	0.8242
1631	0.8309
1622	0.8324
1613	0.8078
1604	0.709
1595	0.8273
1586	0.8538
1577	0.8014
1568	0.8552
1559	0.8721
1550	0.8811
1541	0.8868
1532	0.8863
1523	0.8932
1514	0.8886
1505	0.8783
1496	0.8092
1487	0.894
1478	0.8966
1469	0.8894
1460	0.866
1451	0.8638
1442	0.8658
1433	0.8527
1424	0.8289
1415	0.6475
1406	0.3464
1397	0.6133
1388	0.7245
1379	0.7818
1370	0.7695
1361	0.8069
1352	0.7907
1343	0.7415
1334	0.7308
1325	0.7032
1316	0.6224
1307	0.6696
1298	0.5419
1289	0.5666
1280	0.3477
1271	0.1035
1262	0.0246
1253	0.0034
1244	0.0454
1235	0.2741
1226	0.4215
1217	0.5732
1208	0.6016
1199	0.5733
1190	0.4357
1181	0.2293
1172	0.0397
1163	0.0577
1154	0.3672
1145	0.659
1136	0.4999
1127	0.2216
1118	0.5162
1109	0.2681
1100	0.211
1091	0.5292
1082	0.7267
1073	0.7594
1064	0.7722
1055	0.7545
1046	0.6907
1037	0.3932
1028	0.2092
1019	0.6865
1010	0.0467
1001	0.3576
992	0.668
983	0.7295
974	0.7397
965	0.7368
956	0.7555
947	0.7522
938	0.7461
929	0.7348
920	0.7154
911	0.6642
902	0.5949
893	0.531
884	0.6022
875	0.6908
866	0.7618
857	0.2963
848	0.6565
839	0.6818
830	0.7762
821	0.7967
812	0.8103
803	0.7988
794	0.7892
785	0.8206
776	0.7971
767	0.5131
758	0.8224
749	0.8412
740	0.8062
731	0.7512
722	0.6126
713	0.281
704	0.0475
695	0.5181
686	0.4624
677	0.834
668	0.8732
659	0.8768
650	0.8602
641	0.5415
632	0.0441
623	0.8128
614	0.8584
605	0.8691
596	0.8728
587	0.8648
578	0.7853
569	0.3258
560	0.39
551	0.795
542	0.8521
533	0.8373
524	0.7551
515	0.6678
506	0.8457
497	0.8507
488	0.8151
479	0.796
470	0.6778
461	0.5793
452	0.7515
443	0.7255
434	0.6604
425	0.5826
416	0.5357
407	0.5143
