Infrared Spectrum: O-NITRO CARBANILIC ACID, METHYL HEPTENOL ESTER
Formula: C15 H20 N2 O4
Class: COBLENTZ
Instrument: Not specified, most likely a grating spectrometer.
Sampling: TRANSMISSION
Path length: CAPILLARY
Resolution: 4
Origin: CITRUS EXPERIMENT STATION, UNIVERSITY OF FLORIDA (G. EDWARDS)
MICROMETERS	TRANSMITTANCE
2.033	0.85
2.06616	0.856
2.09932	0.858
2.13248	0.856
2.16564	0.856
2.1988	0.854
2.23195	0.853
2.26511	0.852
2.29827	0.853
2.33143	0.854
2.36459	0.856
2.39775	0.858
2.43091	0.86
2.46407	0.861
2.49723	0.862
2.53039	0.864
2.56355	0.868
2.5967	0.869
2.62986	0.868
2.66302	0.868
2.69618	0.862
2.72934	0.86
2.7625	0.86
2.79566	0.857
2.82882	0.856
2.86198	0.849
2.89514	0.828
2.9283	0.778
2.96145	0.521
2.99461	0.717
3.02777	0.833
3.06093	0.852
3.09409	0.853
3.12725	0.852
3.16041	0.838
3.19357	0.814
3.22673	0.81
3.25989	0.809
3.29305	0.801
3.3262	0.718
3.35936	0.529
3.39252	0.493
3.42568	0.608
3.45884	0.642
3.492	0.705
3.52516	0.82
3.55832	0.838
3.59148	0.842
3.62464	0.837
3.6578	0.852
3.69095	0.856
3.72411	0.854
3.75727	0.854
3.79043	0.854
3.82359	0.853
3.85675	0.849
3.88991	0.85
3.92307	0.846
3.95623	0.841
3.98939	0.838
4.02255	0.834
4.0557	0.838
4.08886	0.833
4.12202	0.83
4.15518	0.829
4.18834	0.829
4.2215	0.829
4.25466	0.829
4.28782	0.829
4.32098	0.828
4.35414	0.826
4.3873	0.826
4.42045	0.821
4.45361	0.818
4.48677	0.822
4.51993	0.824
4.55309	0.825
4.58625	0.824
4.61941	0.822
4.65257	0.821
4.68573	0.82
4.71889	0.82
4.75205	0.82
4.7852	0.82
4.81836	0.817
4.85152	0.817
4.88468	0.816
4.91784	0.814
4.951	0.812
4.98416	0.808
5.01732	0.804
5.05048	0.798
5.08364	0.798
5.1168	0.798
5.14995	0.8
5.18311	0.8
5.21627	0.8
5.24943	0.797
5.28259	0.796
5.31575	0.792
5.34891	0.788
5.38207	0.78
5.41523	0.776
5.44839	0.762
5.48155	0.754
5.5147	0.756
5.54786	0.756
5.58102	0.75
5.61418	0.729
5.64734	0.68
5.6805	0.502
5.71366	0.088
5.74682	0.17
5.77998	0.365
5.81314	0.652
5.8463	0.692
5.87945	0.716
5.91261	0.718
5.94577	0.716
5.97893	0.713
6.01209	0.704
6.04525	0.682
6.07841	0.68
6.11157	0.64
6.14473	0.521
6.17789	0.186
6.21105	0.25
6.2442	0.5
6.27736	0.33
6.31052	0.264
6.34368	0.602
6.37684	0.63
6.41	0.562
6.44316	0.49
6.47632	0.449
6.50948	0.392
6.54264	0.11
6.5758	0.054
6.60895	0.052
6.64211	0.1
6.67527	0.26
6.70843	0.484
6.74159	0.521
6.77475	0.472
6.80791	0.354
6.84107	0.176
6.87423	0.2
6.90739	0.208
6.94055	0.108
6.9737	0.152
7.00686	0.266
7.04002	0.404
7.07318	0.462
7.10634	0.52
7.1395	0.514
7.17266	0.501
7.20582	0.402
7.23898	0.381
7.27214	0.482
7.3053	0.514
7.33845	0.47
7.37161	0.326
7.40477	0.121
7.43793	0.06
7.47109	0.146
7.50425	0.326
7.53741	0.392
7.57057	0.3
7.60373	0.364
7.63689	0.402
7.67005	0.42
7.7032	0.406
7.73636	0.358
7.76952	0.284
7.80268	0.214
7.83584	0.229
7.869	0.284
7.90216	0.349
7.93532	0.346
7.96848	0.289
8.00164	0.108
8.0348	0.042
8.06795	0.07
8.10111	0.182
8.13427	0.329
8.16743	0.39
8.20059	0.361
8.23375	0.262
8.26691	0.126
8.30007	0.058
8.33323	0.08
8.36639	0.164
8.39955	0.274
8.4327	0.385
8.46586	0.461
8.49902	0.516
8.53218	0.514
8.56534	0.462
8.5985	0.406
8.63166	0.456
8.66482	0.493
8.69798	0.408
8.73114	0.392
8.7643	0.432
8.79745	0.402
8.83061	0.324
8.86377	0.278
8.89693	0.314
8.93009	0.393
8.96325	0.441
8.99641	0.468
9.02957	0.526
9.06273	0.549
9.09589	0.549
9.12905	0.513
9.1622	0.478
9.19536	0.425
9.22852	0.402
9.26168	0.481
9.29484	0.505
9.328	0.456
9.36116	0.362
9.39432	0.338
9.42748	0.369
9.46064	0.414
9.4938	0.444
9.52695	0.444
9.56011	0.4
9.59327	0.284
9.62643	0.24
9.65959	0.31
9.69275	0.421
9.72591	0.542
9.75907	0.598
9.79223	0.628
9.82539	0.649
9.85855	0.669
9.8917	0.682
9.92486	0.688
9.95802	0.7
9.99118	0.704
10.0243	0.704
10.0575	0.702
10.0907	0.697
10.1238	0.684
10.157	0.676
10.1901	0.674
10.2233	0.681
10.2565	0.702
10.2896	0.716
10.3228	0.721
10.3559	0.72
10.3891	0.714
10.4223	0.702
10.4554	0.7
10.4886	0.701
10.5217	0.713
10.5549	0.722
10.588	0.725
10.6212	0.722
10.6544	0.721
10.6875	0.721
10.7207	0.714
10.7538	0.7
10.787	0.676
10.8202	0.669
10.8533	0.682
10.8865	0.71
10.9196	0.736
10.9528	0.741
10.986	0.738
11.0191	0.726
11.0523	0.716
11.0854	0.721
11.1186	0.732
11.1517	0.741
11.1849	0.738
11.2181	0.73
11.2512	0.728
11.2844	0.73
11.3175	0.736
11.3507	0.745
11.3839	0.746
11.417	0.74
11.4502	0.725
11.4833	0.7
11.5165	0.649
11.5497	0.565
11.5828	0.5
11.616	0.482
11.6491	0.584
11.6823	0.656
11.7155	0.676
11.7486	0.681
11.7818	0.694
11.8149	0.704
11.8481	0.714
11.8812	0.72
11.9144	0.713
11.9476	0.708
11.9807	0.694
12.0139	0.673
12.047	0.65
12.0802	0.63
12.1134	0.62
12.1465	0.626
12.1797	0.641
12.2128	0.664
12.246	0.689
12.2792	0.704
12.3123	0.716
12.3455	0.721
12.3786	0.72
12.4118	0.713
12.445	0.708
12.4781	0.701
12.5113	0.69
12.5444	0.682
12.5776	0.672
12.6107	0.661
12.6439	0.644
12.6771	0.606
12.7102	0.552
12.7434	0.497
12.7765	0.449
12.8097	0.456
12.8429	0.524
12.876	0.582
12.9092	0.601
12.9423	0.593
12.9755	0.57
13.0087	0.545
13.0418	0.526
13.075	0.53
13.1081	0.544
13.1413	0.562
13.1745	0.59
13.2076	0.61
13.2408	0.62
13.2739	0.62
13.3071	0.601
13.3403	0.56
13.3734	0.486
13.4066	0.389
13.4397	0.289
13.4729	0.214
13.506	0.2
13.5392	0.233
13.5724	0.31
13.6055	0.406
13.6387	0.521
13.6718	0.581
13.705	0.617
13.7382	0.641
13.7713	0.654
13.8045	0.662
13.8376	0.666
13.8708	0.669
13.904	0.669
13.9371	0.669
13.9703	0.668
14.0034	0.666
14.0366	0.662
14.0698	0.661
14.1029	0.654
14.1361	0.65
14.1692	0.644
14.2024	0.642
14.2355	0.634
14.2687	0.624
14.3019	0.617
14.335	0.608
14.3682	0.596
14.4013	0.58
14.4345	0.55
14.4677	0.524
14.5008	0.498
14.534	0.486
14.5671	0.488
14.6003	0.497
14.6335	0.5
14.6666	0.493
14.6998	0.486
14.7329	0.47
14.7661	0.454
14.7993	0.442
14.8324	0.437
14.8656	0.44
14.8987	0.446
14.9319	0.452
14.965	0.454
14.9982	0.452
