Infrared Spectrum: CHONDROCURARINE, IODIDE
Formula: C38 H44 I2 N2 O6
State: SOLID (KI DISC)
Melting point: 277-280 C DECOMP.
Class: COBLENTZ III
Instrument: PERKIN-ELMER 21 (GRATING)
Instrument parameters: FILTER AT ABOUT 10 MICRONS
Sampling: TRANSMISSION
Resolution: 2
1/CM	TRANSMITTANCE
4000	0.619
3991	0.6189
3982	0.6189
3973	0.6188
3964	0.6193
3955	0.62
3946	0.6208
3937	0.6216
3928	0.6223
3919	0.6231
3910	0.6235
3901	0.6239
3892	0.6242
3883	0.6246
3874	0.624
3865	0.6232
3856	0.6225
3847	0.6218
3838	0.6212
3829	0.6207
3820	0.6201
3811	0.6196
3802	0.6192
3793	0.6193
3784	0.6194
3775	0.6196
3766	0.6197
3757	0.6199
3748	0.62
3739	0.6199
3730	0.6198
3721	0.6197
3712	0.6196
3703	0.6194
3694	0.6193
3685	0.619
3676	0.6188
3667	0.6184
3658	0.6179
3649	0.6171
3640	0.6128
3631	0.6071
3622	0.597
3613	0.5855
3604	0.5745
3595	0.5365
3586	0.499
3577	0.4615
3568	0.4539
3559	0.4602
3550	0.4767
3541	0.4932
3532	0.4998
3523	0.4997
3514	0.4982
3505	0.4933
3496	0.4862
3487	0.4749
3478	0.457
3469	0.4368
3460	0.4166
3451	0.3962
3442	0.3759
3433	0.3553
3424	0.3347
3415	0.3227
3406	0.3212
3397	0.321
3388	0.3249
3379	0.3326
3370	0.3409
3361	0.3499
3352	0.36
3343	0.3634
3334	0.365
3325	0.3664
3316	0.3678
3307	0.3696
3298	0.3716
3289	0.3734
3280	0.3754
3271	0.377
3262	0.3774
3253	0.3768
3244	0.3753
3235	0.3687
3226	0.3584
3217	0.3426
3208	0.3314
3199	0.3223
3190	0.316
3181	0.3125
3172	0.3128
3163	0.3174
3154	0.3378
3145	0.3605
3136	0.3812
3127	0.402
3118	0.423
3109	0.4441
3100	0.4653
3091	0.4866
3082	0.5081
3073	0.5296
3064	0.5432
3055	0.5477
3046	0.5498
3037	0.5514
3028	0.5496
3019	0.5457
3010	0.5403
3001	0.5323
2992	0.5265
2983	0.5254
2974	0.5286
2965	0.5308
2956	0.5323
2947	0.5326
2938	0.5317
2929	0.5298
2920	0.5286
2911	0.5287
2902	0.5373
2893	0.5547
2884	0.5737
2875	0.5905
2866	0.6041
2857	0.6112
2848	0.6124
2839	0.6119
2830	0.6114
2821	0.6147
2812	0.6282
2803	0.6401
2794	0.6519
2785	0.6625
2776	0.6711
2767	0.6761
2758	0.6771
2749	0.678
2740	0.6781
2731	0.678
2722	0.6774
2713	0.6762
2704	0.6754
2695	0.676
2686	0.6765
2677	0.6769
2668	0.6784
2659	0.6796
2650	0.6808
2641	0.6821
2632	0.6836
2623	0.6843
2614	0.6849
2605	0.6855
2596	0.6856
2587	0.6846
2578	0.6837
2569	0.6825
2560	0.6812
2551	0.6791
2542	0.6775
2533	0.6774
2524	0.6781
2515	0.6822
2506	0.6861
2497	0.6885
2488	0.6908
2479	0.6926
2470	0.6944
2461	0.6961
2452	0.6978
2443	0.6984
2434	0.6989
2425	0.6996
2416	0.7007
2407	0.7018
2398	0.7031
2389	0.7045
2380	0.7051
2371	0.7048
2362	0.7038
2353	0.7031
2344	0.7028
2335	0.7025
2326	0.7028
2317	0.7033
2308	0.7051
2299	0.7088
2290	0.7128
2281	0.7167
2272	0.7171
2263	0.7174
2254	0.7172
2245	0.7174
2236	0.7176
2227	0.7178
2218	0.7186
2209	0.7192
2200	0.719
2191	0.7182
2182	0.7174
2173	0.7168
2164	0.7165
2155	0.7161
2146	0.7158
2137	0.7158
2128	0.7157
2119	0.7155
2110	0.7154
2101	0.715
2092	0.7139
2083	0.7128
2074	0.7117
2065	0.7105
2056	0.71
2047	0.7094
2038	0.7096
2029	0.7091
2020	0.7084
2011	0.7076
2002	0.7068
1993	0.7061
1984	0.706
1975	0.7061
1966	0.7053
1957	0.7028
1948	0.7005
1939	0.6991
1930	0.6976
1921	0.6962
1912	0.6951
1903	0.6967
1894	0.6982
1885	0.6998
1876	0.7011
1867	0.7015
1858	0.7019
1849	0.7021
1840	0.7024
1831	0.7025
1822	0.7024
1813	0.7012
1804	0.6956
1795	0.6915
1786	0.6896
1777	0.6874
1768	0.6834
1759	0.6798
1750	0.6764
1741	0.6722
1732	0.6675
1723	0.6626
1714	0.6576
1705	0.6528
1696	0.6418
1687	0.6304
1678	0.6193
1669	0.609
1660	0.5965
1651	0.5852
1642	0.5604
1633	0.4845
1624	0.3586
1615	0.296
1606	0.3945
1597	0.4472
1588	0.4798
1579	0.57
1570	0.5852
1561	0.5759
1552	0.5508
1543	0.5066
1534	0.3698
1525	0.2308
1516	0.1129
1507	0.1096
1498	0.3112
1489	0.4009
1480	0.3508
1471	0.3355
1462	0.2465
1453	0.2654
1444	0.3185
1435	0.3604
1426	0.4298
1417	0.4587
1408	0.5771
1399	0.602
1390	0.5623
1381	0.4615
1372	0.4164
1363	0.4449
1354	0.36
1345	0.3699
1336	0.4188
1327	0.4495
1318	0.3978
1309	0.3516
1300	0.2827
1291	0.2048
1282	0.2314
1273	0.2767
1264	0.2333
1255	0.1906
1246	0.2599
1237	0.2474
1228	0.1757
1219	0.1704
1210	0.2535
1201	0.3521
1192	0.3902
1183	0.4386
1174	0.5143
1165	0.4165
1156	0.3894
1147	0.4854
1138	0.5226
1129	0.3573
1120	0.1895
1111	0.295
1102	0.3637
1093	0.54
1084	0.5924
1075	0.3759
1066	0.5058
1057	0.6189
1048	0.6228
1039	0.6411
1030	0.5575
1021	0.6202
1012	0.6216
1003	0.6141
994	0.5847
985	0.4625
976	0.6641
967	0.6737
958	0.6661
949	0.6412
940	0.6633
931	0.6848
922	0.563
913	0.5714
904	0.602
895	0.6496
886	0.5247
877	0.5931
868	0.558
859	0.4684
850	0.5034
841	0.4632
832	0.5159
823	0.6077
814	0.5604
805	0.442
796	0.6448
787	0.6494
778	0.6721
769	0.7262
760	0.6886
751	0.7125
742	0.7374
733	0.7424
724	0.7294
715	0.7442
706	0.7367
697	0.7578
688	0.7475
679	0.7556
670	0.7386
