Infrared Spectrum: ETHANOL, 2-AMINO-, HYDROCHLORIDE
Formula: C2 H8 Cl N O
State: SOLID (OIL MULL)
Class: COBLENTZ III
Instrument: BAIRD (GRATING)
Instrument parameters: NaCl PRISM
Sampling: TRANSMISSION
Resolution: 2
Origin: WYANDOTTE CHEMICALS CORP.
1/CM	TRANSMITTANCE
4000	0.8636
3991	0.8683
3982	0.8733
3973	0.8786
3964	0.884
3955	0.889
3946	0.8939
3937	0.8988
3928	0.9024
3919	0.9046
3910	0.9046
3901	0.9033
3892	0.9021
3883	0.9018
3874	0.9014
3865	0.9025
3856	0.9057
3847	0.9093
3838	0.9263
3829	0.9502
3820	0.9628
3811	0.9706
3802	0.9727
3793	0.9739
3784	0.9751
3775	0.9759
3766	0.976
3757	0.9771
3748	0.9775
3739	0.9778
3730	0.9777
3721	0.9773
3712	0.9768
3703	0.9759
3694	0.9746
3685	0.9732
3676	0.9683
3667	0.9617
3658	0.9512
3649	0.9398
3640	0.9232
3631	0.8968
3622	0.8644
3613	0.8334
3604	0.8121
3595	0.791
3586	0.7686
3577	0.7482
3568	0.7312
3559	0.7134
3550	0.6925
3541	0.6717
3532	0.6561
3523	0.6408
3514	0.6236
3505	0.6046
3496	0.5688
3487	0.5198
3478	0.4956
3469	0.4714
3460	0.4471
3451	0.4227
3442	0.3982
3433	0.3734
3424	0.3487
3415	0.3239
3406	0.3049
3397	0.2876
3388	0.2645
3379	0.2407
3370	0.225
3361	0.2105
3352	0.1959
3343	0.1674
3334	0.1436
3325	0.1317
3316	0.1196
3307	0.1056
3298	0.0934
3289	0.0855
3280	0.0818
3271	0.079
3262	0.0769
3253	0.0749
3244	0.0735
3235	0.0726
3226	0.0715
3217	0.0705
3208	0.0694
3199	0.0686
3190	0.0679
3181	0.0673
3172	0.0666
3163	0.0659
3154	0.0653
3145	0.0646
3136	0.0638
3127	0.0626
3118	0.0616
3109	0.0604
3100	0.0593
3091	0.0582
3082	0.0568
3073	0.0551
3064	0.0534
3055	0.0516
3046	0.0498
3037	0.0458
3028	0.0416
3019	0.0372
3010	0.0324
3001	0.0275
2992	0.0231
2983	0.0194
2974	0.0169
2965	0.0157
2956	0.0145
2947	0.0133
2938	0.013
2929	0.0126
2920	0.0122
2911	0.0122
2902	0.0131
2893	0.0145
2884	0.0166
2875	0.0196
2866	0.0241
2857	0.0334
2848	0.0431
2839	0.0528
2830	0.0613
2821	0.0688
2812	0.0764
2803	0.0839
2794	0.0891
2785	0.0943
2776	0.0996
2767	0.1033
2758	0.1069
2749	0.111
2740	0.1159
2731	0.1214
2722	0.129
2713	0.138
2704	0.1491
2695	0.1718
2686	0.1843
2677	0.1884
2668	0.1891
2659	0.1877
2650	0.1844
2641	0.1804
2632	0.1782
2623	0.1766
2614	0.1769
2605	0.1818
2596	0.1889
2587	0.1942
2578	0.1969
2569	0.1971
2560	0.1973
2551	0.1983
2542	0.2001
2533	0.2185
2524	0.261
2515	0.2996
2506	0.3148
2497	0.3146
2488	0.3065
2479	0.2942
2470	0.2744
2461	0.2553
2452	0.2329
2443	0.2345
2434	0.2567
2425	0.2837
2416	0.3038
2407	0.3276
2398	0.3518
2389	0.4004
2380	0.4086
2371	0.4053
2362	0.3952
2353	0.3956
2344	0.3993
2335	0.4042
2326	0.4119
2317	0.4222
2308	0.4325
2299	0.448
2290	0.4656
2281	0.4885
2272	0.5031
2263	0.5166
2254	0.5286
2245	0.5378
2236	0.5467
2227	0.5552
2218	0.563
2209	0.5709
2200	0.5785
2191	0.5846
2182	0.5873
2173	0.5898
2164	0.5912
2155	0.5899
2146	0.5868
2137	0.5838
2128	0.5838
2119	0.5882
2110	0.5908
2101	0.589
2092	0.5888
2083	0.5887
2074	0.5865
2065	0.556
2056	0.5331
2047	0.5132
2038	0.4944
2029	0.4749
2020	0.4586
2011	0.4736
2002	0.4675
1993	0.4621
1984	0.4898
1975	0.5178
1966	0.546
1957	0.5722
1948	0.5905
1939	0.6106
1930	0.6226
1921	0.6246
1912	0.6292
1903	0.659
1894	0.6865
1885	0.7034
1876	0.711
1867	0.7135
1858	0.7081
1849	0.6961
1840	0.6898
1831	0.6965
1822	0.7038
1813	0.7069
1804	0.7082
1795	0.7337
1786	0.7438
1777	0.7491
1768	0.7514
1759	0.7376
1750	0.7191
1741	0.7062
1732	0.6948
1723	0.6641
1714	0.6649
1705	0.6761
1696	0.6507
1687	0.6344
1678	0.6073
1669	0.5574
1660	0.4059
1651	0.2322
1642	0.1336
1633	0.2487
1624	0.3352
1615	0.4123
1606	0.3902
1597	0.3357
1588	0.4669
1579	0.4824
1570	0.508
1561	0.4717
1552	0.4718
1543	0.3897
1534	0.2997
1525	0.2123
1516	0.1315
1507	0.1038
1498	0.1524
1489	0.0961
1480	0.0797
1471	0.0597
1462	0.135
1453	0.2325
1444	0.3957
1435	0.4576
1426	0.4672
1417	0.4697
1408	0.4662
1399	0.4245
1390	0.2759
1381	0.2019
1372	0.334
1363	0.3604
1354	0.2359
1345	0.1465
1336	0.3328
1327	0.434
1318	0.429
1309	0.3119
1300	0.147
1291	0.2242
1282	0.2962
1273	0.1587
1264	0.306
1255	0.4566
1246	0.5121
1237	0.5398
1228	0.5549
1219	0.5615
1210	0.5707
1201	0.586
1192	0.5973
1183	0.5901
1174	0.4709
1165	0.2201
1156	0.4236
1147	0.6228
1138	0.6399
1129	0.4321
1120	0.2962
1111	0.468
1102	0.4495
1093	0.3194
1084	0.1915
1075	0.0957
1066	0.1377
1057	0.2535
1048	0.4014
1039	0.5454
1030	0.551
1021	0.4138
1012	0.1719
1003	0.0729
994	0.0564
985	0.0493
976	0.0943
967	0.1808
958	0.2541
949	0.3287
940	0.4094
931	0.492
922	0.503
913	0.5362
904	0.5686
895	0.5912
886	0.6067
877	0.4922
868	0.4672
859	0.5842
850	0.6131
841	0.5583
832	0.5766
823	0.594
814	0.5897
805	0.5832
796	0.5717
787	0.544
778	0.4955
769	0.4536
760	0.4306
751	0.4218
742	0.42
733	0.4167
724	0.4053
715	0.3808
706	0.3371
697	0.2768
688	0.2322
679	0.2329
670	0.2817
661	0.3402
652	0.4142
643	0.4614
634	0.4735
