Infrared Spectrum: CHROME YELLOW (MEDIUM)
Formula: Pb Cr O4
State: SOLID (0.8 mg / 300 mg CsI PELLET)
Class: COBLENTZ
Instrument: Not specified, most likely a grating spectrometer.
Sampling: TRANSMISSION
Resolution: 4
Origin: DESOTO CHEMICAL COATINGS, INC.
1/CM	TRANSMITTANCE
196.009	0.747
206.652	0.74
217.295	0.748
227.938	0.753
238.581	0.757
249.224	0.762
259.867	0.766
270.51	0.77
281.153	0.766
291.796	0.768
302.439	0.761
313.082	0.756
323.725	0.753
334.368	0.75
345.012	0.74
355.655	0.736
366.298	0.731
376.941	0.712
387.584	0.703
398.227	0.695
408.87	0.705
419.513	0.715
430.156	0.737
440.799	0.769
451.442	0.798
462.085	0.82
472.728	0.841
483.371	0.857
494.014	0.866
504.657	0.869
515.3	0.88
525.943	0.881
536.586	0.885
547.229	0.89
557.872	0.898
568.515	0.898
579.158	0.9
589.801	0.905
600.444	0.91
611.087	0.914
621.731	0.916
632.374	0.92
643.017	0.92
653.66	0.922
664.303	0.926
674.946	0.926
685.589	0.934
696.232	0.937
706.875	0.933
717.518	0.929
728.161	0.92
738.804	0.91
749.447	0.896
760.09	0.874
770.733	0.828
781.376	0.758
792.019	0.705
802.662	0.676
813.305	0.553
823.948	0.404
834.591	0.303
845.234	0.2951
855.877	0.187
866.52	0.198
877.163	0.249
887.806	0.298
898.449	0.346
909.093	0.359
919.736	0.529
930.379	0.749
941.022	0.832
951.665	0.886
962.308	0.925
972.951	0.936
983.594	0.941
994.237	0.942
1004.88	0.946
1015.52	0.941
1026.17	0.94
1036.81	0.934
1047.45	0.934
1058.1	0.93
1068.74	0.936
1079.38	0.932
1090.02	0.932
1100.67	0.933
1111.31	0.933
1121.95	0.934
1132.6	0.933
1143.24	0.938
1153.88	0.94
1164.53	0.942
1175.17	0.949
1185.81	0.953
1196.45	0.957
1207.1	0.96
1217.74	0.966
1228.38	0.968
1239.03	0.968
1249.67	0.974
1260.31	0.976
1270.96	0.977
1281.6	0.978
1292.24	0.982
1302.88	0.982
1313.53	0.981
1324.17	0.981
1334.81	0.98
1345.46	0.978
1356.1	0.974
1366.74	0.974
1377.39	0.972
1388.03	0.974
1398.67	0.974
1409.32	0.973
1419.96	0.972
1430.6	0.977
1441.24	0.978
1451.89	0.974
1462.53	0.972
1473.17	0.978
1483.82	0.976
1494.46	0.978
1505.1	0.98
1515.75	0.978
1526.39	0.977
1537.03	0.973
1547.67	0.97
1558.32	0.965
1568.96	0.96
1579.6	0.956
1590.25	0.94
1600.89	0.913
1611.53	0.89
1622.18	0.888
1632.82	0.9
1643.46	0.92
1654.11	0.929
1664.75	0.941
1675.39	0.946
1686.03	0.958
1696.68	0.958
1707.32	0.961
1717.96	0.964
1728.61	0.964
1739.25	0.966
1749.89	0.969
1760.54	0.973
1771.18	0.976
1781.82	0.974
1792.46	0.973
1803.11	0.978
1813.75	0.977
1824.39	0.976
1835.04	0.976
1845.68	0.977
1856.32	0.981
1866.97	0.981
1877.61	0.978
1888.25	0.976
1898.9	0.976
1909.54	0.973
1920.18	0.973
1930.82	0.973
1941.47	0.974
1952.11	0.97
1962.75	0.974
1973.4	0.973
1984.04	0.973
1994.68	0.973
2005.33	0.964
2015.97	0.958
2026.61	0.958
2037.25	0.954
2047.9	0.953
2058.54	0.952
2069.18	0.9559
2079.83	0.956
2090.47	0.956
2101.11	0.957
2111.76	0.957
2122.4	0.9541
2133.04	0.953
2143.68	0.953
2154.33	0.957
2164.97	0.9571
2175.61	0.9561
2186.26	0.954
2196.9	0.953
2207.54	0.954
2218.19	0.956
2228.83	0.956
2239.47	0.953
2250.12	0.954
2260.76	0.956
2271.4	0.954
2282.04	0.9539
2292.69	0.9558
2303.33	0.954
2313.97	0.952
2324.62	0.952
2335.26	0.9521
2345.9	0.95
2356.55	0.949
2367.19	0.95
2377.83	0.9517
2388.47	0.953
2399.12	0.958
2409.76	0.954
2420.4	0.954
2431.05	0.953
2441.69	0.952
2452.33	0.9539
2462.98	0.954
2473.62	0.952
2484.26	0.9483
2494.91	0.9498
2505.55	0.9482
2516.19	0.9488
2526.83	0.952
2537.48	0.952
2548.12	0.9516
2558.76	0.949
2569.41	0.949
2580.05	0.9496
2590.69	0.95
2601.34	0.95
2611.98	0.953
2622.62	0.9492
2633.26	0.9476
2643.91	0.9498
2654.55	0.95
2665.19	0.9482
2675.84	0.946
2686.48	0.946
2697.12	0.949
2707.77	0.948
2718.41	0.946
2729.05	0.9425
2739.69	0.9445
2750.34	0.941
2760.98	0.941
2771.62	0.9418
2782.27	0.9407
2792.91	0.942
2803.55	0.9425
2814.2	0.942
2824.84	0.9386
2835.48	0.936
2846.13	0.9349
2856.77	0.93
2867.41	0.932
2878.05	0.932
2888.7	0.932
2899.34	0.93
2909.98	0.9293
2920.63	0.9283
2931.27	0.925
2941.91	0.925
2952.56	0.925
2963.2	0.9274
2973.84	0.9287
2984.48	0.93
2995.13	0.93
3005.77	0.929
3016.41	0.929
3027.06	0.93
3037.7	0.929
3048.34	0.9284
3058.99	0.925
3069.63	0.926
3080.27	0.924
3090.92	0.924
3101.56	0.921
3112.2	0.92
3122.84	0.92
3133.49	0.9174
3144.13	0.9164
3154.77	0.9148
3165.42	0.9108
3176.06	0.9054
3186.7	0.904
3197.35	0.9028
3207.99	0.898
3218.63	0.897
3229.27	0.8948
3239.92	0.8908
3250.56	0.888
3261.2	0.885
3271.85	0.8814
3282.49	0.88
3293.13	0.8729
3303.78	0.8644
3314.42	0.858
3325.06	0.8447
3335.71	0.8334
3346.35	0.8194
3356.99	0.8023
3367.63	0.7874
3378.28	0.7714
3388.92	0.7554
3399.56	0.7419
3410.21	0.7315
3420.85	0.7228
3431.49	0.708
3442.14	0.704
3452.78	0.7005
3463.42	0.7
3474.06	0.702
3484.71	0.709
3495.35	0.7155
3505.99	0.7205
3516.64	0.7315
3527.28	0.738
3537.92	0.7469
3548.57	0.7599
3559.21	0.7733
3569.85	0.7984
3580.49	0.8133
3591.14	0.8311
3601.78	0.8513
3612.42	0.8638
3623.07	0.88
3633.71	0.8932
3644.35	0.9004
3655	0.906
3665.64	0.9149
3676.28	0.92
3686.93	0.922
3697.57	0.922
3708.21	0.921
3718.85	0.921
3729.5	0.9216
3740.14	0.9192
3750.78	0.917
3761.43	0.921
3772.07	0.92
3782.71	0.9176
3793.36	0.918
3804	0.918
3814.64	0.918
3825.28	0.918
3835.93	0.92
3846.57	0.918
3857.21	0.9176
3867.86	0.917
3878.5	0.9176
3889.14	0.917
3899.79	0.9164
3910.43	0.921
3921.07	0.9166
3931.72	0.918
3942.36	0.9166
3953	0.9167
3963.64	0.9193
3974.29	0.9153
