Infrared Spectrum: Copper,bis(hydrogen 2-hydroxy-e-oxo-1-cyclohexene-1-hexanato)-, dimethyl ester
Formula: C26 H38 O8 Cu
State: SOLID (0.6 mg / 650 mg KBr DISC)
Class: COBLENTZ III
Instrument: PERKIN-ELMER 21 (GRATING)
Instrument parameters: FILTER CHANGE AT 1090 CM^-^1
Sampling: TRANSMISSION
Resolution: 2
Origin: SOUTHERN RESEARCH INSTITUTE, W.C. Coburn, Jr.
1/CM	TRANSMITTANCE
597.776	1.0112
606.806	1.0114
615.835	0.9978
624.865	0.9726
633.895	0.945
642.924	0.9391
651.954	0.9276
660.984	0.8804
670.013	0.837
679.043	0.9008
688.073	0.8894
697.103	0.8911
706.132	0.8931
715.162	0.8765
724.192	0.8525
733.221	0.7229
742.251	0.8115
751.281	0.7683
760.31	0.7566
769.34	0.8435
778.37	0.8416
787.399	0.8315
796.429	0.817
805.459	0.822
814.488	0.8025
823.518	0.693
832.548	0.7718
841.577	0.826
850.607	0.8084
859.637	0.7866
868.667	0.7325
877.696	0.6822
886.726	0.7612
895.756	0.7937
904.785	0.7297
913.815	0.8146
922.845	0.8219
931.874	0.818
940.904	0.803
949.934	0.7935
958.963	0.7789
967.993	0.7329
977.023	0.6712
986.052	0.6249
995.082	0.7021
1004.11	0.6761
1013.14	0.793
1022.17	0.7878
1031.2	0.7745
1040.23	0.7619
1049.26	0.7568
1058.29	0.7434
1067.32	0.7129
1076.35	0.7141
1085.38	0.7403
1094.41	0.7066
1103.44	0.7107
1112.47	0.6854
1121.5	0.6428
1130.53	0.5789
1139.56	0.5152
1148.59	0.4341
1157.62	0.3123
1166.65	0.3235
1175.68	0.4333
1184.71	0.6361
1193.74	0.586
1202.76	0.6887
1211.79	0.6948
1220.82	0.6349
1229.85	0.7206
1238.88	0.6745
1247.91	0.6326
1256.94	0.5349
1265.97	0.3149
1275	0.4382
1284.03	0.6467
1293.06	0.6927
1302.09	0.6523
1311.12	0.5223
1320.15	0.6322
1329.18	0.5341
1338.21	0.451
1347.24	0.5895
1356.27	0.5143
1365.3	0.4224
1374.33	0.5567
1383.36	0.4799
1392.39	0.3616
1401.42	0.2851
1410.45	0.3369
1419.48	0.4614
1428.51	0.6288
1437.54	0.5853
1446.57	0.4153
1455.6	0.3115
1464.63	0.257
1473.66	0.2609
1482.69	0.4322
1491.71	0.5735
1500.74	0.6503
1509.77	0.6962
1518.8	0.7114
1527.83	0.712
1536.86	0.695
1545.89	0.6277
1554.92	0.5535
1563.95	0.4102
1572.98	0.1606
1582.01	0.1903
1591.04	0.3242
1600.07	0.5665
1609.1	0.6285
1618.13	0.6936
1627.16	0.7297
1636.19	0.7571
1645.22	0.796
1654.25	0.8087
1663.28	0.8209
1672.31	0.8246
1681.34	0.819
1690.37	0.8094
1699.4	0.7918
1708.43	0.7735
1717.46	0.6992
1726.49	0.5155
1735.52	0.3491
1744.55	0.4634
1753.58	0.6645
1762.61	0.7417
1771.63	0.805
1780.66	0.8287
1789.69	0.8406
1798.72	0.8531
1807.75	0.862
1816.78	0.8699
1825.81	0.876
1834.84	0.8799
1843.87	0.8842
1852.9	0.8863
1861.93	0.8878
1870.96	0.8878
1879.99	0.8884
1889.02	0.889
1898.05	0.8897
1907.08	0.8884
1916.11	0.8882
1925.14	0.8883
1934.17	0.8892
1943.2	0.8886
1952.23	0.8864
1961.26	0.8803
1970.29	0.8785
1979.32	0.8799
1988.35	0.8814
1997.38	0.8829
2006.41	0.8859
2015.44	0.8833
2024.47	0.8796
2033.5	0.8768
2042.53	0.8716
2051.56	0.8677
2060.58	0.8696
2069.61	0.871
2078.64	0.8726
2087.67	0.8729
2096.7	0.8729
2105.73	0.8732
2114.76	0.8736
2123.79	0.8735
2132.82	0.8731
2141.85	0.8716
2150.88	0.8703
2159.91	0.8713
2168.94	0.8715
2177.97	0.8717
2187	0.873
2196.03	0.8686
2205.06	0.8719
2214.09	0.8731
2223.12	0.8696
2232.15	0.8676
2241.18	0.8712
2250.21	0.8696
2259.24	0.8652
2268.27	0.8588
2277.3	0.8664
2286.33	0.8697
2295.36	0.8677
2304.39	0.8613
2313.42	0.852
2322.45	0.8393
2331.48	0.8369
2340.51	0.8429
2349.53	0.8431
2358.56	0.8337
2367.59	0.833
2376.62	0.8422
2385.65	0.851
2394.68	0.8579
2403.71	0.8594
2412.74	0.858
2421.77	0.8552
2430.8	0.8512
2439.83	0.8517
2448.86	0.8487
2457.89	0.8486
2466.92	0.8506
2475.95	0.8502
2484.98	0.8485
2494.01	0.8451
2503.04	0.8431
2512.07	0.8441
2521.1	0.8444
2530.13	0.8453
2539.16	0.8439
2548.19	0.8438
2557.22	0.8451
2566.25	0.843
2575.28	0.8422
2584.31	0.8353
2593.34	0.8314
2602.37	0.8281
2611.4	0.8294
2620.43	0.8317
2629.45	0.8329
2638.48	0.8335
2647.51	0.8325
2656.54	0.8301
2665.57	0.8268
2674.6	0.8237
2683.63	0.821
2692.66	0.8224
2701.69	0.8263
2710.72	0.8235
2719.75	0.8199
2728.78	0.8127
2737.81	0.8115
2746.84	0.8069
2755.87	0.8072
2764.9	0.8058
2773.93	0.8052
2782.96	0.7945
2791.99	0.7777
2801.02	0.7628
2810.05	0.7516
2819.08	0.7424
2828.11	0.7107
2837.14	0.6828
2846.17	0.6597
2855.2	0.6377
2864.23	0.6303
2873.26	0.643
2882.29	0.6637
2891.32	0.6664
2900.35	0.6532
2909.38	0.6111
2918.4	0.5608
2927.43	0.5154
2936.46	0.5047
2945.49	0.4925
2954.52	0.4899
2963.55	0.5558
2972.58	0.6861
2981.61	0.758
2990.64	0.7806
2999.67	0.777
3008.7	0.7784
3017.73	0.7843
3026.76	0.7915
3035.79	0.7925
3044.82	0.7937
3053.85	0.7964
3062.88	0.7945
3071.91	0.8091
3080.94	0.8112
3089.97	0.8106
3099	0.808
3108.03	0.811
3117.06	0.8106
3126.09	0.8046
3135.12	0.8006
3144.15	0.7904
3153.18	0.7913
3162.21	0.7952
3171.24	0.7968
3180.27	0.7967
3189.3	0.7955
3198.33	0.7932
3207.35	0.7898
3216.38	0.7856
3225.41	0.7827
3234.44	0.7808
3243.47	0.7788
3252.5	0.7719
3261.53	0.7685
3270.56	0.7638
3279.59	0.7635
3288.62	0.7665
3297.65	0.7543
3306.68	0.7534
3315.71	0.7521
3324.74	0.7488
3333.77	0.741
3342.8	0.7351
3351.83	0.7303
3360.86	0.7268
3369.89	0.7199
3378.92	0.7078
3387.95	0.6968
3396.98	0.6856
3406.01	0.6721
3415.04	0.6692
3424.07	0.6696
3433.1	0.6649
3442.13	0.66
3451.16	0.6561
3460.19	0.6588
3469.22	0.6623
3478.25	0.6666
3487.28	0.6738
3496.3	0.6778
3505.33	0.6815
3514.36	0.6869
3523.39	0.6965
3532.42	0.699
3541.45	0.7005
3550.48	0.7024
3559.51	0.7082
3568.54	0.7124
3577.57	0.7178
3586.6	0.7296
3595.63	0.7327
3604.66	0.7371
3613.69	0.7471
3622.72	0.7633
3631.75	0.7652
3640.78	0.7741
3649.81	0.7785
3658.84	0.7857
3667.87	0.7844
3676.9	0.7816
3685.93	0.7838
3694.96	0.7854
3703.99	0.7878
3713.02	0.7917
3722.05	0.7897
3731.08	0.7877
3740.11	0.7883
3749.14	0.7897
3758.17	0.7914
3767.2	0.7937
3776.22	0.796
3785.25	0.7953
3794.28	0.7918
3803.31	0.7937
3812.34	0.795
3821.37	0.7903
3830.4	0.7892
3839.43	0.7876
3848.46	0.7868
3857.49	0.7894
3866.52	0.7846
3875.55	0.7844
3884.58	0.7862
3893.61	0.7862
3902.64	0.785
3911.67	0.784
3920.7	0.7835
3929.73	0.7847
3938.76	0.7841
3947.79	0.7799
3956.82	0.787
3965.85	0.7797
3974.88	0.783
3983.91	0.7859
3992.94	0.782
4001.97	0.7893
4011	0.7978
