Infrared Spectrum: 1,1'-BIS(3-PHENYL-1,1,3,3-TETRAMETHYL DISILOXANYL) FERROCENE
Formula: C30 H42 Si4 O2 Fe
State: LIQUID
Class: COBLENTZ
Instrument: Not specified, most likely a prism, grating, or hybrid spectrometer.
Sampling: TRANSMISSION
Path length: 0.003 CM
Resolution: 4
Origin: WYANDOTTE CHEMICALS CORP., WYANDOTTE, MICHIGAN, USA
MICROMETERS	TRANSMITTANCE
2.053	0.947
2.09275	0.95
2.13251	0.95
2.17226	0.948
2.21202	0.925
2.25177	0.94
2.29153	0.947
2.33128	0.947
2.37104	0.95
2.41079	0.93
2.45054	0.94
2.4903	0.94
2.53005	0.96
2.56981	0.963
2.60956	0.948
2.64932	0.943
2.68907	0.93
2.72883	0.947
2.76858	0.953
2.80833	0.963
2.84809	0.966
2.88784	0.97
2.9276	0.968
2.96735	0.966
3.00711	0.966
3.04686	0.961
3.08661	0.963
3.12637	0.958
3.16612	0.945
3.20588	0.887
3.24563	0.58
3.28539	0.669
3.32514	0.646
3.3649	0.297
3.40465	0.576
3.4444	0.669
3.48416	0.838
3.52391	0.885
3.56367	0.905
3.60342	0.919
3.64318	0.96
3.68293	0.963
3.72269	0.966
3.76244	0.968
3.80219	0.978
3.84195	0.973
3.8817	0.968
3.92146	0.98
3.96121	0.983
4.00097	0.976
4.04072	0.973
4.08048	0.963
4.12023	0.98
4.15998	0.971
4.19974	0.98
4.23949	0.976
4.27925	0.986
4.319	0.976
4.35876	0.985
4.39851	0.97
4.43826	0.978
4.47802	0.976
4.51777	0.971
4.55753	0.975
4.59728	0.971
4.63704	0.976
4.67679	0.975
4.71655	0.981
4.7563	0.981
4.79605	0.983
4.83581	0.975
4.87556	0.968
4.91532	0.966
4.95507	0.97
4.99483	0.97
5.03458	0.985
5.07434	0.966
5.11409	0.963
5.15384	0.945
5.1936	0.909
5.23335	0.94
5.27311	0.96
5.31286	0.919
5.35262	0.919
5.39237	0.961
5.43213	0.975
5.47188	0.97
5.51163	0.952
5.55139	0.928
5.59114	0.966
5.6309	0.952
5.67065	0.92
5.71041	0.907
5.75016	0.902
5.78992	0.907
5.82967	0.904
5.86942	0.895
5.90918	0.89
5.94893	0.892
5.98869	0.889
6.02844	0.872
6.0682	0.849
6.10795	0.849
6.1477	0.829
6.18746	0.828
6.22721	0.814
6.26697	0.818
6.30672	0.889
6.34648	0.894
6.38623	0.9
6.42599	0.907
6.46574	0.917
6.50549	0.922
6.54525	0.919
6.585	0.917
6.62476	0.91
6.66451	0.9
6.70427	0.803
6.74402	0.866
6.78378	0.857
6.82353	0.838
6.86328	0.798
6.90304	0.747
6.94279	0.695
6.98255	0.381
7.0223	0.408
7.06206	0.537
7.10181	0.497
7.14157	0.591
7.18132	0.692
7.22107	0.705
7.26083	0.761
7.30058	0.68
7.34034	0.6
7.38009	0.808
7.41985	0.842
7.4596	0.834
7.49935	0.838
7.53911	0.836
7.57886	0.786
7.61862	0.791
7.65837	0.743
7.69813	0.684
7.73788	0.79
7.77764	0.795
7.81739	0.748
7.85714	0.651
7.8969	0.401
7.93665	0.076
7.97641	0.026
8.01616	0.052
8.05592	0.37
8.09567	0.657
8.13543	0.766
8.17518	0.804
8.21493	0.828
8.25469	0.839
8.29444	0.839
8.3342	0.833
8.37395	0.786
8.41371	0.689
8.45346	0.485
8.49322	0.489
8.53297	0.252
8.57272	0.049
8.61248	0.247
8.65223	0.583
8.69199	0.664
8.73174	0.68
8.7715	0.656
8.81125	0.578
8.85101	0.441
8.89076	0.176
8.93051	0.031
8.97027	0.112
9.01002	0.264
9.04978	0.249
9.08953	0.178
9.12929	0.117
9.16904	0.064
9.20879	0.036
9.24855	0.031
9.2883	0.029
9.32806	0.028
9.36781	0.028
9.40757	0.026
9.44732	0.026
9.48708	0.026
9.52683	0.026
9.56658	0.026
9.60634	0.026
9.64609	0.026
9.68585	0.026
9.7256	0.028
9.76536	0.029
9.80511	0.036
9.84487	0.061
9.88462	0.112
9.92437	0.206
9.96413	0.32
10.0039	0.299
10.0436	0.363
10.0834	0.527
10.1231	0.578
10.1629	0.609
10.2027	0.657
10.2424	0.682
10.2822	0.705
10.3219	0.72
10.3617	0.737
10.4014	0.761
10.4412	0.776
10.4809	0.78
10.5207	0.79
10.5604	0.801
10.6002	0.813
10.64	0.818
10.6797	0.823
10.7195	0.824
10.7592	0.823
10.799	0.821
10.8387	0.819
10.8785	0.808
10.9182	0.791
10.958	0.76
10.9977	0.745
11.0375	0.7
11.0773	0.561
11.117	0.472
11.1568	0.414
11.1965	0.423
11.2363	0.557
11.276	0.626
11.3158	0.647
11.3555	0.654
11.3953	0.636
11.435	0.611
11.4748	0.558
11.5146	0.479
11.5543	0.375
11.5941	0.322
11.6338	0.32
11.6736	0.314
11.7133	0.294
11.7531	0.251
11.7928	0.231
11.8326	0.2
11.8723	0.176
11.9121	0.135
11.9518	0.097
11.9916	0.059
12.0314	0.036
12.0711	0.033
12.1109	0.033
12.1506	0.033
12.1904	0.034
12.2301	0.034
12.2699	0.036
12.3096	0.042
12.3494	0.047
12.3891	0.067
12.4289	0.08
12.4687	0.077
12.5084	0.056
12.5482	0.039
12.5879	0.036
12.6277	0.036
12.6674	0.036
12.7072	0.036
12.7469	0.036
12.7867	0.038
12.8264	0.038
12.8662	0.044
12.906	0.062
12.9457	0.109
12.9855	0.195
13.0252	0.31
13.065	0.393
13.1047	0.459
13.1445	0.512
13.1842	0.537
13.224	0.555
13.2637	0.552
13.3035	0.522
13.3433	0.469
13.383	0.365
13.4228	0.271
13.4625	0.233
13.5023	0.224
13.542	0.226
13.5818	0.238
13.6215	0.256
13.6613	0.267
13.701	0.267
13.7408	0.251
13.7806	0.213
13.8203	0.198
13.8601	0.208
13.8998	0.28
13.9396	0.37
13.9793	0.429
14.0191	0.456
14.0588	0.447
14.0986	0.4
14.1383	0.323
14.1781	0.249
14.2179	0.186
14.2576	0.152
14.2974	0.135
14.3371	0.13
14.3769	0.135
14.4166	0.155
14.4564	0.233
14.4961	0.32
14.5359	0.385
14.5756	0.416
14.6154	0.419
14.6551	0.424
14.6949	0.434
14.7347	0.452
14.7744	0.48
14.8142	0.532
14.8539	0.575
14.8937	0.614
14.9334	0.644
14.9732	0.671
15.0129	0.679
15.0527	0.684
15.0924	0.689
15.1322	0.684
15.172	0.664
15.2117	0.613
15.2515	0.56
15.2912	0.519
15.331	0.494
15.3707	0.515
15.4105	0.566
15.4502	0.639
15.49	0.674
15.5297	0.717
15.5695	0.74
15.6093	0.752
15.649	0.753
15.6888	0.757
15.7285	0.763
15.7683	0.76
15.808	0.753
15.8478	0.747
15.8875	0.747
15.9273	0.733
15.967	0.728
16.0068	0.73
