Infrared Spectrum: GLYCEROL TRIBENZOATE
Formula: C24 H20 O6
State: SOLUTION (2% CCl4 FOR 5000-1330, 2% CS2 FOR 1330-625 CM^-^1)
Class: COBLENTZ
Instrument: Not specified, most likely a prism, grating, or hybrid spectrometer.
Sampling: TRANSMISSION
Path length: 0.0124 CM, 0.0119 CM
Resolution: 4
Origin: DOW CHEMICAL COMPANY
MICROMETERS	TRANSMITTANCE
2.13	0.905
2.1711	0.909
2.21219	0.907
2.25329	0.904
2.29438	0.902
2.33548	0.899
2.37657	0.897
2.41767	0.9
2.45876	0.9
2.49986	0.907
2.54096	0.916
2.58205	0.917
2.62315	0.917
2.66424	0.917
2.70534	0.917
2.74643	0.921
2.78753	0.929
2.82862	0.935
2.86972	0.936
2.91081	0.936
2.95191	0.936
2.99301	0.94
3.0341	0.943
3.0752	0.947
3.11629	0.945
3.15739	0.94
3.19848	0.931
3.23958	0.895
3.28067	0.894
3.32177	0.899
3.36287	0.895
3.40396	0.909
3.44506	0.923
3.48615	0.936
3.52725	0.936
3.56834	0.936
3.60944	0.936
3.65053	0.935
3.69163	0.929
3.73273	0.933
3.77382	0.935
3.81492	0.929
3.85601	0.929
3.89711	0.931
3.9382	0.931
3.9793	0.929
4.02039	0.928
4.06149	0.928
4.10259	0.926
4.14368	0.926
4.18478	0.912
4.22587	0.9
4.26697	0.897
4.30806	0.899
4.34916	0.911
4.39025	0.912
4.43135	0.924
4.47244	0.929
4.51354	0.933
4.55464	0.924
4.59573	0.923
4.63683	0.923
4.67792	0.919
4.71902	0.919
4.76011	0.916
4.80121	0.911
4.8423	0.907
4.8834	0.916
4.9245	0.921
4.96559	0.916
5.00669	0.909
5.04778	0.902
5.08888	0.897
5.12997	0.899
5.17107	0.9
5.21216	0.895
5.25326	0.89
5.29436	0.895
5.33545	0.9
5.37655	0.899
5.41764	0.897
5.45874	0.894
5.49983	0.887
5.54093	0.885
5.58202	0.878
5.62312	0.863
5.66421	0.846
5.70531	0.673
5.74641	0.312
5.7875	0.2
5.8286	0.697
5.86969	0.811
5.91079	0.844
5.95188	0.875
5.99298	0.885
6.03407	0.883
6.07517	0.882
6.11627	0.885
6.15736	0.883
6.19846	0.835
6.23955	0.815
6.28065	0.829
6.32174	0.844
6.36284	0.854
6.40393	0.856
6.44503	0.856
6.48613	0.858
6.52722	0.866
6.56832	0.873
6.60941	0.868
6.65051	0.868
6.6916	0.861
6.7327	0.87
6.77379	0.87
6.81489	0.822
6.85599	0.707
6.89708	0.779
6.93818	0.852
6.97927	0.87
7.02037	0.875
7.06146	0.875
7.10256	0.864
7.14365	0.849
7.18475	0.841
7.22584	0.837
7.26694	0.835
7.30804	0.847
7.34913	0.854
7.39023	0.844
7.43132	0.827
7.47242	0.815
7.51351	0.764
7.55461	0.641
7.5957	0.625
7.6368	0.7
7.6779	0.714
7.71899	0.615
7.76009	0.482
7.80118	0.42
7.84228	0.401
7.88337	0.21
7.92447	0.088
7.96556	0.21
8.00666	0.29
8.04776	0.382
8.08885	0.642
8.12995	0.757
8.17104	0.791
8.21214	0.815
8.25323	0.827
8.29433	0.829
8.33542	0.827
8.37652	0.823
8.41761	0.793
8.45871	0.695
8.49981	0.62
8.5409	0.723
8.582	0.764
8.62309	0.76
8.66419	0.738
8.70528	0.731
8.74638	0.726
8.78747	0.716
8.82857	0.697
8.86967	0.647
8.91076	0.581
8.95186	0.505
8.99295	0.403
9.03405	0.29
9.07514	0.278
9.11624	0.311
9.15733	0.309
9.19843	0.382
9.23953	0.529
9.28062	0.617
9.32172	0.627
9.36281	0.502
9.40391	0.541
9.445	0.688
9.4861	0.747
9.52719	0.776
9.56829	0.796
9.60939	0.805
9.65048	0.805
9.69158	0.757
9.73267	0.588
9.77377	0.646
9.81486	0.774
9.85596	0.806
9.89705	0.823
9.93815	0.83
9.97924	0.829
10.0203	0.827
10.0614	0.827
10.1025	0.829
10.1436	0.832
10.1847	0.837
10.2258	0.842
10.2669	0.852
10.308	0.852
10.3491	0.852
10.3902	0.852
10.4313	0.849
10.4724	0.846
10.5135	0.852
10.5546	0.858
10.5957	0.859
10.6368	0.856
10.6779	0.841
10.719	0.805
10.7601	0.817
10.8012	0.835
10.8423	0.842
10.8833	0.849
10.9244	0.852
10.9655	0.854
11.0066	0.863
11.0477	0.858
11.0888	0.852
11.1299	0.851
11.171	0.858
11.2121	0.854
11.2532	0.847
11.2943	0.846
11.3354	0.844
11.3765	0.842
11.4176	0.842
11.4587	0.842
11.4998	0.842
11.5409	0.842
11.582	0.839
11.6231	0.832
11.6642	0.829
11.7053	0.823
11.7464	0.818
11.7874	0.813
11.8285	0.811
11.8696	0.82
11.9107	0.827
11.9518	0.834
11.9929	0.852
12.034	0.852
12.0751	0.852
12.1162	0.847
12.1573	0.849
12.1984	0.852
12.2395	0.851
12.2806	0.847
12.3217	0.847
12.3628	0.849
12.4039	0.846
12.445	0.839
12.4861	0.832
12.5272	0.832
12.5683	0.842
12.6094	0.854
12.6505	0.856
12.6915	0.863
12.7326	0.864
12.7737	0.863
12.8148	0.861
12.8559	0.859
12.897	0.858
12.9381	0.861
12.9792	0.863
13.0203	0.864
13.0614	0.864
13.1025	0.861
13.1436	0.858
13.1847	0.856
13.2258	0.847
13.2669	0.847
13.308	0.844
13.3491	0.846
13.3902	0.852
13.4313	0.851
13.4724	0.846
13.5135	0.841
13.5546	0.835
13.5957	0.832
13.6367	0.829
13.6778	0.823
13.7189	0.817
13.76	0.796
13.8011	0.781
13.8422	0.76
13.8833	0.724
13.9244	0.651
13.9655	0.54
14.0066	0.403
14.0477	0.213
14.0888	0.117
14.1299	0.14
14.171	0.307
14.2121	0.461
14.2532	0.593
14.2943	0.651
14.3354	0.692
14.3765	0.702
14.4176	0.714
14.4587	0.712
14.4998	0.699
14.5408	0.676
14.5819	0.658
14.623	0.663
14.6641	0.68
14.7052	0.702
14.7463	0.712
14.7874	0.712
14.8285	0.712
14.8696	0.712
14.9107	0.709
14.9518	0.709
14.9929	0.711
15.034	0.721
15.0751	0.735
15.1162	0.733
15.1573	0.729
15.1984	0.724
15.2395	0.726
15.2806	0.726
15.3217	0.719
15.3628	0.716
15.4039	0.712
15.4449	0.709
15.486	0.699
15.5271	0.692
15.5682	0.683
15.6093	0.678
15.6504	0.673
15.6915	0.671
15.7326	0.659
15.7737	0.647
15.8148	0.637
15.8559	0.63
15.897	0.629
