Infrared Spectrum: IRON BLUE
Formula: C6 H4 N7 Fe2
State: SOLID (1 mg / 300 mg CsI DISC)
Class: COBLENTZ III
Instrument: BECKMAN IR-12 (GRATING)
Sampling: TRANSMISSION
Resolution: 4
Origin: DESOTO CHEMICAL COATINGS, INC.
1/CM	TRANSMITTANCE
200	0.662
210.643	0.657
221.286	0.634
231.929	0.5242
242.572	0.214
253.215	0.15
263.858	0.136
274.501	0.1739
285.144	0.3179
295.787	0.521
306.43	0.562
317.073	0.589
327.716	0.614
338.359	0.637
349.003	0.65
359.646	0.658
370.289	0.661
380.932	0.665
391.575	0.674
402.218	0.697
412.861	0.724
423.504	0.744
434.147	0.761
444.79	0.77
455.433	0.77
466.076	0.741
476.719	0.6811
487.362	0.4602
498.005	0.088
508.648	0.3279
519.291	0.518
529.934	0.65
540.577	0.726
551.22	0.778
561.863	0.8
572.506	0.802
583.149	0.7821
593.792	0.685
604.435	0.53
615.078	0.696
625.721	0.85
636.364	0.881
647.008	0.89
657.651	0.889
668.294	0.89
678.937	0.9
689.58	0.906
700.223	0.909
710.866	0.912
721.509	0.914
732.152	0.918
742.795	0.92
753.438	0.925
764.081	0.926
774.724	0.929
785.367	0.933
796.01	0.938
806.653	0.942
817.296	0.945
827.939	0.941
838.582	0.924
849.225	0.921
859.868	0.938
870.511	0.95
881.154	0.958
891.797	0.964
902.44	0.968
913.083	0.97
923.726	0.97
934.369	0.97
945.013	0.964
955.656	0.958
966.299	0.938
976.942	0.929
987.585	0.896
998.228	0.909
1008.87	0.932
1019.51	0.944
1030.16	0.936
1040.8	0.912
1051.44	0.885
1062.09	0.882
1072.73	0.889
1083.37	0.897
1094.02	0.901
1104.66	0.888
1115.3	0.873
1125.94	0.872
1136.59	0.877
1147.23	0.889
1157.87	0.905
1168.52	0.913
1179.16	0.917
1189.8	0.926
1200.45	0.937
1211.09	0.946
1221.73	0.957
1232.37	0.962
1243.02	0.962
1253.66	0.964
1264.3	0.964
1274.95	0.964
1285.59	0.962
1296.23	0.961
1306.88	0.957
1317.52	0.952
1328.16	0.944
1338.8	0.937
1349.45	0.921
1360.09	0.909
1370.73	0.894
1381.38	0.869
1392.02	0.812
1402.66	0.649
1413.31	0.326
1423.95	0.4781
1434.59	0.7099
1445.24	0.792
1455.88	0.836
1466.52	0.856
1477.16	0.884
1487.81	0.901
1498.45	0.914
1509.09	0.922
1519.74	0.922
1530.38	0.916
1541.02	0.913
1551.67	0.913
1562.31	0.909
1572.95	0.906
1583.59	0.892
1594.24	0.869
1604.88	0.821
1615.52	0.762
1626.17	0.83
1636.81	0.864
1647.45	0.885
1658.1	0.901
1668.74	0.912
1679.38	0.92
1690.03	0.93
1700.67	0.938
1711.31	0.944
1721.95	0.954
1732.6	0.961
1743.24	0.966
1753.88	0.97
1764.53	0.972
1775.17	0.973
1785.81	0.973
1796.46	0.972
1807.1	0.97
1817.74	0.97
1828.38	0.964
1839.03	0.961
1849.67	0.96
1860.31	0.96
1870.96	0.96
1881.6	0.962
1892.24	0.962
1902.89	0.962
1913.53	0.961
1924.17	0.958
1934.81	0.956
1945.46	0.952
1956.1	0.948
1966.74	0.938
1977.39	0.918
1988.03	0.892
1998.67	0.868
2009.32	0.8525
2019.96	0.8301
2030.6	0.7549
2041.25	0.5514
2051.89	0.2864
2062.53	0.0712
2073.17	0.02
2083.82	0.002
2094.46	0.002
2105.1	0.002
2115.75	0.0573
2126.39	0.4841
2137.03	0.6561
2147.68	0.7194
2158.32	0.7552
2168.96	0.8221
2179.6	0.8411
2190.25	0.8648
2200.89	0.8811
2211.53	0.8951
2222.18	0.9026
2232.82	0.9106
2243.46	0.9191
2254.11	0.921
2264.75	0.922
2275.39	0.924
2286.04	0.925
2296.68	0.9229
2307.32	0.918
2317.96	0.9165
2328.61	0.9134
2339.25	0.9085
2349.89	0.904
2360.54	0.905
2371.18	0.906
2381.82	0.9112
2392.47	0.9391
2403.11	0.9557
2413.75	0.958
2424.39	0.9591
2435.04	0.9616
2445.68	0.9646
2456.32	0.966
2466.97	0.969
2477.61	0.969
2488.25	0.969
2498.9	0.969
2509.54	0.969
2520.18	0.969
2530.82	0.969
2541.47	0.9684
2552.11	0.9644
2562.75	0.964
2573.4	0.962
2584.04	0.958
2594.68	0.96
2605.33	0.9604
2615.97	0.96
2626.61	0.9588
2637.26	0.958
2647.9	0.958
2658.54	0.958
2669.18	0.958
2679.83	0.9548
2690.47	0.9508
2701.11	0.9432
2711.76	0.9392
2722.4	0.941
2733.04	0.941
2743.69	0.9416
2754.33	0.942
2764.97	0.941
2775.61	0.942
2786.26	0.9404
2796.9	0.94
2807.54	0.932
2818.19	0.93
2828.83	0.9267
2839.47	0.9214
2850.12	0.9141
2860.76	0.8994
2871.4	0.8947
2882.05	0.8924
2892.69	0.8884
2903.33	0.8788
2913.97	0.8605
2924.62	0.8424
2935.26	0.834
2945.9	0.8377
2956.55	0.837
2967.19	0.8426
2977.83	0.859
2988.48	0.8727
2999.12	0.872
3009.76	0.8653
3020.4	0.8573
3031.05	0.847
3041.69	0.845
3052.33	0.841
3062.98	0.8323
3073.62	0.8243
3084.26	0.818
3094.91	0.8106
3105.55	0.803
3116.19	0.7966
3126.83	0.7789
3137.48	0.7663
3148.12	0.7499
3158.76	0.7331
3169.41	0.7203
3180.05	0.7095
3190.69	0.6952
3201.34	0.6832
3211.98	0.6622
3222.62	0.6354
3233.27	0.6027
3243.91	0.5664
3254.55	0.5412
3265.19	0.532
3275.84	0.5448
3286.48	0.5768
3297.12	0.6195
3307.77	0.6439
3318.41	0.6497
3329.05	0.6527
3339.7	0.654
3350.34	0.6539
3360.98	0.6468
3371.62	0.6413
3382.27	0.6373
3392.91	0.634
3403.55	0.6367
3414.2	0.6407
3424.84	0.644
3435.48	0.648
3446.13	0.6515
3456.77	0.656
3467.41	0.6617
3478.06	0.6712
3488.7	0.6795
3499.34	0.6882
3509.98	0.7
3520.63	0.7095
3531.27	0.7217
3541.91	0.7335
3552.56	0.7513
3563.2	0.7665
3573.84	0.7826
3584.49	0.7988
3595.13	0.8075
3605.77	0.8264
3616.41	0.8551
3627.06	0.8648
3637.7	0.872
3648.34	0.8791
3658.99	0.8991
3669.63	0.9088
3680.27	0.9171
3690.92	0.928
3701.56	0.9378
3712.2	0.9416
3722.84	0.9498
3733.49	0.952
3744.13	0.9538
3754.77	0.954
3765.42	0.958
3776.06	0.958
3786.7	0.96
3797.35	0.961
3807.99	0.96
3818.63	0.961
3829.28	0.9602
3839.92	0.9608
3850.56	0.96
3861.2	0.96
3871.85	0.96
3882.49	0.958
3893.13	0.9596
3903.78	0.96
3914.42	0.961
3925.06	0.961
3935.71	0.961
3946.35	0.961
3956.99	0.961
3967.63	0.961
3978.28	0.961
