Infrared Spectrum: 10-METHOXY-14-METHYL-5-OXO-5,7,8,14-TETRAHYDROINDOLO[2,3-c]-QUINAZO-[3,2-a]-PYRIDINE TARTRATE SESQUIHYDRATE
Formula: C24 H23 N3 O8
State: SOLID (OIL MULL)
Class: COBLENTZ III
Instrument: Not specified, most likely a prism spectrometer.
Instrument parameters: NaCl PRISM
Sampling: TRANSMISSION
Resolution: 2
Origin: SMITH KLINE & FRENCH LABS.
MICROMETERS	TRANSMITTANCE
2.017	0.259
2.05124	0.264
2.08549	0.278
2.11973	0.292
2.15397	0.307
2.18821	0.317
2.22246	0.332
2.2567	0.345
2.29094	0.355
2.32518	0.357
2.35943	0.37
2.39367	0.38
2.42791	0.399
2.46215	0.413
2.4964	0.426
2.53064	0.443
2.56488	0.452
2.59912	0.462
2.63337	0.483
2.66761	0.491
2.70185	0.512
2.73609	0.52
2.77034	0.539
2.80458	0.544
2.83882	0.526
2.87306	0.477
2.90731	0.408
2.94155	0.335
2.97579	0.34
3.01003	0.35
3.04428	0.392
3.07852	0.416
3.11276	0.425
3.14701	0.417
3.18125	0.398
3.21549	0.394
3.24973	0.388
3.28398	0.381
3.31822	0.373
3.35246	0.358
3.3867	0.239
3.42095	0.062
3.45519	0.035
3.48943	0.032
3.52367	0.054
3.55792	0.13
3.59216	0.477
3.6264	0.548
3.66064	0.585
3.69489	0.607
3.72913	0.606
3.76337	0.617
3.79761	0.628
3.83186	0.649
3.8661	0.659
3.90034	0.672
3.93458	0.685
3.96883	0.698
4.00307	0.71
4.03731	0.721
4.07155	0.724
4.1058	0.735
4.14004	0.739
4.17428	0.741
4.20853	0.746
4.24277	0.754
4.27701	0.758
4.31125	0.77
4.3455	0.766
4.37974	0.782
4.41398	0.794
4.44822	0.798
4.48247	0.803
4.51671	0.804
4.55095	0.806
4.58519	0.809
4.61944	0.82
4.65368	0.82
4.68792	0.829
4.72216	0.832
4.75641	0.833
4.79065	0.836
4.82489	0.839
4.85913	0.84
4.89338	0.839
4.92762	0.836
4.96186	0.829
4.9961	0.834
5.03035	0.834
5.06459	0.834
5.09883	0.834
5.13307	0.834
5.16732	0.833
5.20156	0.824
5.2358	0.82
5.27005	0.818
5.30429	0.822
5.33853	0.827
5.37277	0.827
5.40702	0.822
5.44126	0.816
5.4755	0.807
5.50974	0.804
5.54399	0.791
5.57823	0.77
5.61247	0.75
5.64671	0.728
5.68096	0.678
5.7152	0.632
5.74944	0.586
5.78368	0.527
5.81793	0.437
5.85217	0.289
5.88641	0.221
5.92065	0.243
5.9549	0.359
5.98914	0.384
6.02338	0.404
6.05762	0.44
6.09187	0.522
6.12611	0.549
6.16035	0.539
6.19459	0.426
6.22884	0.466
6.26308	0.608
6.29732	0.692
6.33157	0.711
6.36581	0.678
6.40005	0.573
6.43429	0.24
6.46854	0.181
6.50278	0.202
6.53702	0.518
6.57126	0.549
6.60551	0.306
6.63975	0.152
6.67399	0.199
6.70823	0.378
6.74248	0.357
6.77672	0.341
6.81096	0.277
6.8452	0.177
6.87945	0.118
6.91369	0.178
6.94793	0.204
6.98217	0.201
7.01642	0.254
7.05066	0.275
7.0849	0.42
7.11914	0.52
7.15339	0.57
7.18763	0.595
7.22187	0.501
7.25611	0.363
7.29036	0.3
7.3246	0.413
7.35884	0.425
7.39309	0.473
7.42733	0.507
7.46157	0.49
7.49581	0.444
7.53006	0.492
7.5643	0.472
7.59854	0.323
7.63278	0.218
7.66703	0.322
7.70127	0.394
7.73551	0.398
7.76975	0.45
7.804	0.474
7.83824	0.454
7.87248	0.4
7.90672	0.37
7.94097	0.38
7.97521	0.312
8.00945	0.399
8.04369	0.468
8.07794	0.464
8.11218	0.466
8.14642	0.468
8.18066	0.374
8.21491	0.208
8.24915	0.112
8.28339	0.08
8.31763	0.231
8.35188	0.386
8.38612	0.45
8.42036	0.475
8.45461	0.478
8.48885	0.483
8.52309	0.506
8.55733	0.489
8.59158	0.501
8.62582	0.561
8.66006	0.608
8.6943	0.612
8.72855	0.58
8.76279	0.51
8.79703	0.413
8.83127	0.388
8.86552	0.384
8.89976	0.368
8.934	0.392
8.96824	0.445
9.00249	0.527
9.03673	0.544
9.07097	0.514
9.10521	0.445
9.13946	0.469
9.1737	0.515
9.20794	0.504
9.24218	0.477
9.27643	0.474
9.31067	0.481
9.34491	0.503
9.37915	0.547
9.4134	0.599
9.44764	0.625
9.48188	0.614
9.51613	0.589
9.55037	0.564
9.58461	0.551
9.61885	0.621
9.6531	0.634
9.68734	0.635
9.72158	0.647
9.75582	0.637
9.79007	0.601
9.82431	0.554
9.85855	0.547
9.89279	0.549
9.92704	0.574
9.96128	0.595
9.99552	0.607
10.0298	0.629
10.064	0.649
10.0982	0.665
10.1325	0.677
10.1667	0.678
10.201	0.676
10.2352	0.663
10.2695	0.652
10.3037	0.652
10.3379	0.669
10.3722	0.671
10.4064	0.676
10.4407	0.673
10.4749	0.671
10.5092	0.675
10.5434	0.681
10.5776	0.689
10.6119	0.684
10.6461	0.689
10.6804	0.69
10.7146	0.695
10.7489	0.689
10.7831	0.693
10.8173	0.698
10.8516	0.706
10.8858	0.71
10.9201	0.723
10.9543	0.728
10.9886	0.729
11.0228	0.722
11.057	0.708
11.0913	0.67
11.1255	0.641
11.1598	0.568
11.194	0.567
11.2283	0.571
11.2625	0.576
11.2967	0.585
11.331	0.609
11.3652	0.62
11.3995	0.625
11.4337	0.628
11.468	0.626
11.5022	0.628
11.5364	0.634
11.5707	0.634
11.6049	0.631
11.6392	0.624
11.6734	0.605
11.7077	0.568
11.7419	0.56
11.7761	0.564
11.8104	0.579
11.8446	0.582
11.8789	0.568
11.9131	0.551
11.9473	0.533
11.9816	0.506
12.0158	0.458
12.0501	0.431
12.0843	0.426
12.1186	0.439
12.1528	0.479
12.187	0.471
12.2213	0.426
12.2555	0.434
12.2898	0.492
12.324	0.516
12.3583	0.533
12.3925	0.554
12.4267	0.579
12.461	0.59
12.4952	0.591
12.5295	0.599
12.5637	0.608
12.598	0.613
12.6322	0.606
12.6664	0.613
12.7007	0.63
12.7349	0.64
12.7692	0.648
12.8034	0.644
12.8377	0.63
12.8719	0.612
12.9061	0.602
12.9404	0.6
12.9746	0.585
13.0089	0.539
13.0431	0.474
13.0774	0.403
13.1116	0.379
13.1458	0.407
13.1801	0.456
13.2143	0.515
13.2486	0.554
13.2828	0.58
13.3171	0.595
13.3513	0.612
13.3855	0.619
13.4198	0.629
13.454	0.635
13.4883	0.637
13.5225	0.635
13.5567	0.632
13.591	0.628
13.6252	0.624
13.6595	0.628
13.6937	0.63
13.728	0.638
13.7622	0.643
13.7964	0.647
13.8307	0.65
13.8649	0.652
13.8992	0.652
13.9334	0.652
13.9677	0.654
14.0019	0.657
14.0361	0.661
14.0704	0.667
14.1046	0.671
14.1389	0.675
14.1731	0.679
14.2074	0.682
14.2416	0.683
14.2758	0.684
14.3101	0.684
14.3443	0.682
14.3786	0.673
14.4128	0.659
14.4471	0.647
14.4813	0.623
14.5155	0.595
14.5498	0.543
14.584	0.501
14.6183	0.481
14.6525	0.501
14.6868	0.524
14.721	0.536
14.7552	0.549
14.7895	0.549
14.8237	0.549
14.858	0.547
14.8922	0.543
14.9265	0.538
14.9607	0.533
14.9949	0.532
15.0292	0.535
15.0634	0.542
15.0977	0.547
15.1319	0.549
