Infrared Spectrum: ALUMINUM PALMITATE
Formula: C48 H93 O6 Al
State: SOLID (MINERAL OIL MULL)
Class: COBLENTZ
Instrument: Not specified, most likely a prism, grating, or hybrid spectrometer.
Sampling: TRANSMISSION
Resolution: 4
Origin: WYANDOTTE CHEMICALS CORP., WYANDOTTE, MICHIGAN, USA
MICROMETERS	TRANSMITTANCE
2.034	0.972
2.07484	0.972
2.11567	0.979
2.15651	0.979
2.19734	0.95
2.23818	0.902
2.27901	0.9
2.31985	0.898
2.36068	0.897
2.40152	0.902
2.44235	0.921
2.48319	0.931
2.52402	0.933
2.56486	0.933
2.60569	0.938
2.64653	0.934
2.68736	0.787
2.7282	0.881
2.76903	0.885
2.80987	0.847
2.8507	0.811
2.89154	0.806
2.93237	0.797
2.97321	0.813
3.01404	0.823
3.05488	0.821
3.09571	0.818
3.13655	0.803
3.17738	0.789
3.21822	0.777
3.25905	0.746
3.29989	0.654
3.34072	0.41
3.38156	0.029
3.42239	0.03
3.46323	0.039
3.50406	0.039
3.5449	0.184
3.58573	0.602
3.62657	0.722
3.6674	0.744
3.70824	0.753
3.74907	0.763
3.78991	0.78
3.83074	0.799
3.87158	0.821
3.91241	0.833
3.95325	0.859
3.99408	0.878
4.03492	0.89
4.07575	0.892
4.11659	0.898
4.15742	0.902
4.19826	0.902
4.23909	0.9
4.27993	0.9
4.32076	0.902
4.3616	0.91
4.40244	0.914
4.44327	0.914
4.48411	0.919
4.52494	0.919
4.56578	0.919
4.60661	0.919
4.64745	0.919
4.68828	0.921
4.72912	0.921
4.76995	0.921
4.81079	0.921
4.85162	0.924
4.89246	0.924
4.93329	0.921
4.97413	0.917
5.01496	0.917
5.0558	0.919
5.09663	0.919
5.13747	0.919
5.1783	0.921
5.21914	0.921
5.25997	0.921
5.30081	0.912
5.34164	0.912
5.38248	0.916
5.42331	0.916
5.46415	0.91
5.50498	0.905
5.54582	0.904
5.58665	0.876
5.62749	0.861
5.66832	0.833
5.70916	0.797
5.74999	0.643
5.79083	0.595
5.83166	0.592
5.8725	0.695
5.91333	0.75
5.95417	0.76
5.995	0.746
6.03584	0.696
6.07667	0.626
6.11751	0.578
6.15834	0.482
6.19918	0.255
6.24001	0.063
6.28085	0.051
6.32168	0.214
6.36252	0.405
6.40335	0.474
6.44419	0.371
6.48502	0.231
6.52586	0.527
6.56669	0.611
6.60753	0.597
6.64836	0.522
6.6892	0.368
6.73004	0.125
6.77087	0.059
6.81171	0.047
6.85254	0.083
6.89338	0.171
6.93421	0.248
6.97505	0.347
7.01588	0.433
7.05672	0.433
7.09755	0.534
7.13839	0.498
7.17922	0.553
7.22006	0.457
7.26089	0.282
7.30173	0.429
7.34256	0.529
7.3834	0.563
7.42423	0.585
7.46507	0.582
7.5059	0.553
7.54674	0.547
7.58757	0.599
7.62841	0.611
7.66924	0.613
7.71008	0.625
7.75091	0.647
7.79175	0.655
7.83258	0.654
7.87342	0.662
7.91425	0.66
7.95509	0.662
7.99592	0.664
8.03676	0.662
8.07759	0.657
8.11843	0.657
8.15926	0.657
8.2001	0.657
8.24093	0.654
8.28177	0.643
8.3226	0.638
8.36344	0.65
8.40427	0.638
8.44511	0.613
8.48594	0.594
8.52678	0.594
8.56761	0.604
8.60845	0.614
8.64928	0.623
8.69012	0.635
8.73095	0.65
8.77179	0.662
8.81262	0.666
8.85346	0.66
8.89429	0.623
8.93513	0.614
8.97596	0.652
9.0168	0.66
9.05764	0.652
9.09847	0.655
9.13931	0.666
9.18014	0.674
9.22098	0.683
9.26181	0.683
9.30265	0.683
9.34348	0.684
9.38432	0.686
9.42515	0.69
9.46599	0.693
9.50682	0.7
9.54766	0.708
9.58849	0.707
9.62933	0.702
9.67016	0.703
9.711	0.691
9.75183	0.683
9.79267	0.662
9.8335	0.635
9.87434	0.597
9.91517	0.556
9.95601	0.496
9.99684	0.41
10.0377	0.277
10.0785	0.178
10.1193	0.114
10.1602	0.102
10.201	0.15
10.2419	0.253
10.2827	0.398
10.3235	0.527
10.3644	0.594
10.4052	0.635
10.446	0.664
10.4869	0.679
10.5277	0.688
10.5685	0.695
10.6094	0.714
10.6502	0.726
10.691	0.727
10.7319	0.731
10.7727	0.732
10.8135	0.734
10.8544	0.741
10.8952	0.751
10.936	0.751
10.9769	0.76
11.0177	0.765
11.0586	0.768
11.0994	0.77
11.1402	0.773
11.1811	0.761
11.2219	0.761
11.2627	0.756
11.3036	0.751
11.3444	0.763
11.3852	0.761
11.4261	0.75
11.4669	0.744
11.5077	0.753
11.5486	0.761
11.5894	0.768
11.6302	0.77
11.6711	0.768
11.7119	0.768
11.7528	0.768
11.7936	0.763
11.8344	0.761
11.8753	0.765
11.9161	0.765
11.9569	0.765
11.9978	0.765
12.0386	0.763
12.0794	0.761
12.1203	0.755
12.1611	0.755
12.2019	0.761
12.2428	0.761
12.2836	0.755
12.3244	0.753
12.3653	0.744
12.4061	0.743
12.4469	0.743
12.4878	0.741
12.5286	0.734
12.5695	0.734
12.6103	0.729
12.6511	0.726
12.692	0.724
12.7328	0.712
12.7736	0.705
12.8145	0.698
12.8553	0.695
12.8961	0.693
12.937	0.684
12.9778	0.681
13.0186	0.676
13.0595	0.678
13.1003	0.678
13.1411	0.672
13.182	0.659
13.2228	0.654
13.2636	0.642
13.3045	0.625
13.3453	0.602
13.3862	0.578
13.427	0.561
13.4678	0.537
13.5087	0.525
13.5495	0.515
13.5903	0.505
13.6312	0.501
13.672	0.493
13.7128	0.477
13.7537	0.453
13.7945	0.417
13.8353	0.375
13.8762	0.351
13.917	0.34
13.9578	0.363
13.9987	0.426
14.0395	0.474
14.0804	0.503
14.1212	0.517
14.162	0.517
14.2029	0.517
14.2437	0.518
14.2845	0.51
14.3254	0.505
14.3662	0.501
14.407	0.493
14.4479	0.488
14.4887	0.484
14.5295	0.477
14.5704	0.472
14.6112	0.472
14.652	0.47
14.6929	0.465
14.7337	0.465
14.7745	0.465
14.8154	0.462
14.8562	0.46
14.8971	0.46
14.9379	0.457
14.9787	0.457
15.0196	0.46
15.0604	0.467
15.1012	0.47
15.1421	0.474
15.1829	0.469
15.2237	0.472
15.2646	0.481
15.3054	0.489
15.3462	0.496
15.3871	0.503
15.4279	0.508
15.4687	0.511
15.5096	0.518
15.5504	0.52
15.5912	0.525
15.6321	0.532
15.6729	0.537
15.7138	0.539
15.7546	0.541
15.7954	0.544
15.8363	0.551
15.8771	0.554
15.9179	0.556
15.9588	0.559
15.9996	0.558
