Infrared Spectrum: MAGNESIUM METABORATE
Formula: Mg ( B O2)2  * 8 H2 O
State: SOLID (NUJOL MULL)
Class: COBLENTZ
Instrument: Not specified, most likely a prism, grating, or hybrid spectrometer.
Sampling: TRANSMISSION
Resolution: 4
Origin: MELLON INSTITUTE
MICROMETERS	TRANSMITTANCE
2.008	0.943
2.04793	0.944
2.08785	0.946
2.12778	0.944
2.16771	0.943
2.20764	0.943
2.24756	0.941
2.28749	0.934
2.32742	0.919
2.36735	0.914
2.40727	0.914
2.4472	0.906
2.48713	0.906
2.52706	0.904
2.56698	0.899
2.60691	0.892
2.64684	0.882
2.68677	0.852
2.72669	0.805
2.76662	0.663
2.80655	0.474
2.84648	0.348
2.8864	0.311
2.92633	0.323
2.96626	0.299
3.00619	0.294
3.04611	0.314
3.08604	0.358
3.12597	0.437
3.1659	0.502
3.20582	0.556
3.24575	0.621
3.28568	0.691
3.32561	0.648
3.36553	0.314
3.40546	0.15
3.44539	0.355
3.48532	0.323
3.52524	0.636
3.56517	0.881
3.6051	0.931
3.64503	0.936
3.68495	0.938
3.72488	0.939
3.76481	0.941
3.80474	0.943
3.84466	0.946
3.88459	0.949
3.92452	0.949
3.96445	0.949
4.00437	0.948
4.0443	0.944
4.08423	0.939
4.12416	0.929
4.16408	0.924
4.20401	0.912
4.24394	0.892
4.28387	0.891
4.32379	0.889
4.36372	0.894
4.40365	0.904
4.44358	0.916
4.4835	0.917
4.52343	0.922
4.56336	0.926
4.60329	0.926
4.64321	0.926
4.68314	0.927
4.72307	0.929
4.763	0.929
4.80292	0.929
4.84285	0.932
4.88278	0.934
4.92271	0.934
4.96263	0.936
5.00256	0.936
5.04249	0.938
5.08242	0.938
5.12234	0.938
5.16227	0.939
5.2022	0.938
5.24213	0.939
5.28205	0.939
5.32198	0.938
5.36191	0.936
5.40184	0.936
5.44176	0.934
5.48169	0.932
5.52162	0.931
5.56155	0.929
5.60147	0.929
5.6414	0.927
5.68133	0.927
5.72126	0.929
5.76118	0.927
5.80111	0.919
5.84104	0.914
5.88097	0.902
5.92089	0.889
5.96082	0.854
6.00075	0.8
6.04068	0.785
6.0806	0.778
6.12053	0.777
6.16046	0.78
6.20039	0.834
6.24031	0.864
6.28024	0.877
6.32017	0.879
6.3601	0.877
6.40002	0.869
6.43995	0.864
6.47988	0.857
6.51981	0.85
6.55973	0.842
6.59966	0.834
6.63959	0.819
6.67952	0.777
6.71944	0.703
6.75937	0.587
6.7993	0.484
6.83923	0.385
6.87915	0.338
6.91908	0.306
6.95901	0.291
6.99894	0.278
7.03886	0.262
7.07879	0.261
7.11872	0.262
7.15865	0.276
7.19857	0.273
7.2385	0.247
7.27843	0.221
7.31836	0.214
7.35828	0.214
7.39821	0.227
7.43814	0.281
7.47807	0.378
7.51799	0.51
7.55792	0.574
7.59785	0.623
7.63778	0.668
7.6777	0.695
7.71763	0.711
7.75756	0.716
7.79749	0.716
7.83741	0.701
7.87734	0.676
7.91727	0.633
7.95719	0.584
7.99712	0.504
8.03705	0.458
8.07698	0.43
8.1169	0.42
8.15683	0.415
8.19676	0.413
8.23669	0.417
8.27661	0.423
8.31654	0.425
8.35647	0.425
8.3964	0.422
8.43632	0.412
8.47625	0.398
8.51618	0.365
8.55611	0.348
8.59603	0.331
8.63596	0.313
8.67589	0.299
8.71582	0.291
8.75574	0.283
8.79567	0.281
8.8356	0.279
8.87553	0.281
8.91545	0.281
8.95538	0.279
8.99531	0.273
9.03524	0.268
9.07516	0.261
9.11509	0.254
9.15502	0.251
9.19495	0.247
9.23487	0.247
9.2748	0.254
9.31473	0.291
9.35466	0.335
9.39458	0.395
9.43451	0.443
9.47444	0.482
9.51437	0.502
9.55429	0.509
9.59422	0.514
9.63415	0.504
9.67408	0.489
9.714	0.472
9.75393	0.452
9.79386	0.438
9.83379	0.428
9.87371	0.422
9.91364	0.418
9.95357	0.417
9.9935	0.418
10.0334	0.423
10.0734	0.44
10.1133	0.463
10.1532	0.499
10.1931	0.53
10.2331	0.564
10.273	0.597
10.3129	0.611
10.3528	0.616
10.3928	0.606
10.4327	0.572
10.4726	0.551
10.5126	0.549
10.5525	0.567
10.5924	0.611
10.6323	0.661
10.6723	0.703
10.7122	0.735
10.7521	0.76
10.792	0.78
10.832	0.798
10.8719	0.81
10.9118	0.815
10.9518	0.819
10.9917	0.815
11.0316	0.809
11.0715	0.798
11.1115	0.788
11.1514	0.78
11.1913	0.777
11.2312	0.782
11.2712	0.793
11.3111	0.798
11.351	0.798
11.391	0.788
11.4309	0.77
11.4708	0.752
11.5107	0.725
11.5507	0.688
11.5906	0.663
11.6305	0.631
11.6705	0.603
11.7104	0.586
11.7503	0.574
11.7902	0.564
11.8302	0.557
11.8701	0.552
11.91	0.551
11.9499	0.551
11.9899	0.549
12.0298	0.551
12.0697	0.552
12.1097	0.564
12.1496	0.567
12.1895	0.562
12.2294	0.539
12.2694	0.479
12.3093	0.428
12.3492	0.4
12.3891	0.391
12.4291	0.391
12.469	0.4
12.5089	0.43
12.5489	0.474
12.5888	0.517
12.6287	0.561
12.6686	0.599
12.7086	0.628
12.7485	0.654
12.7884	0.676
12.8283	0.691
12.8683	0.705
12.9082	0.72
12.9481	0.728
12.9881	0.738
13.028	0.748
13.0679	0.757
13.1078	0.763
13.1478	0.768
13.1877	0.773
13.2276	0.78
13.2676	0.782
13.3075	0.785
13.3474	0.79
13.3873	0.793
13.4273	0.795
13.4672	0.795
13.5071	0.793
13.547	0.79
13.587	0.787
13.6269	0.78
13.6668	0.773
13.7068	0.767
13.7467	0.755
13.7866	0.748
13.8265	0.737
13.8665	0.731
13.9064	0.723
13.9463	0.716
13.9862	0.71
14.0262	0.703
14.0661	0.7
14.106	0.696
14.146	0.695
14.1859	0.693
14.2258	0.693
14.2657	0.69
14.3057	0.69
14.3456	0.688
14.3855	0.683
14.4254	0.678
14.4654	0.673
14.5053	0.668
14.5452	0.664
14.5852	0.661
14.6251	0.656
14.665	0.653
14.7049	0.649
14.7449	0.648
14.7848	0.646
14.8247	0.643
14.8646	0.641
14.9046	0.639
14.9445	0.636
14.9844	0.633
15.0244	0.629
15.0643	0.628
15.1042	0.628
15.1441	0.626
15.1841	0.624
15.224	0.624
15.2639	0.623
15.3039	0.619
15.3438	0.618
15.3837	0.616
15.4236	0.613
15.4636	0.613
15.5035	0.611
15.5434	0.609
15.5833	0.608
15.6233	0.608
15.6632	0.606
15.7031	0.604
15.7431	0.603
15.783	0.603
