Infrared Spectrum: BARIUM SULFATE (SYNTHETIC)
Formula: O4 S Ba
State: SOLID (0.3 mg / 300 mg CsI DISC)
Class: COBLENTZ III
Instrument: BECKMAN IR-12 (GRATING)
Instrument parameters: GRATING BLAZED AT 3330, 1330, 445, 220 CM^-^1
Sampling: TRANSMISSION
Resolution: 4
Origin: DESOTO CHEMICAL COATINGS, INC.
1/CM	TRANSMITTANCE
201.329	0.67
211.964	0.671
222.599	0.7279
233.235	0.8
243.87	0.849
254.505	0.863
265.14	0.876
275.775	0.878
286.41	0.884
297.046	0.889
307.681	0.881
318.316	0.884
328.951	0.88
339.586	0.875
350.221	0.875
360.857	0.876
371.492	0.869
382.127	0.869
392.762	0.868
403.397	0.867
414.032	0.871
424.668	0.881
435.303	0.889
445.938	0.89
456.573	0.892
467.208	0.893
477.843	0.901
488.479	0.906
499.114	0.914
509.749	0.925
520.384	0.93
531.019	0.933
541.655	0.937
552.29	0.938
562.925	0.938
573.56	0.938
584.195	0.937
594.83	0.922
605.466	0.6032
616.101	0.489
626.736	0.813
637.371	0.5941
648.006	0.7909
658.641	0.888
669.277	0.921
679.912	0.936
690.547	0.942
701.182	0.948
711.817	0.95
722.452	0.954
733.088	0.96
743.723	0.96
754.358	0.958
764.993	0.96
775.628	0.964
786.264	0.96
796.899	0.96
807.534	0.961
818.169	0.961
828.804	0.964
839.439	0.966
850.075	0.969
860.71	0.969
871.345	0.969
881.98	0.969
892.615	0.965
903.25	0.965
913.886	0.964
924.521	0.958
935.156	0.948
945.791	0.945
956.426	0.949
967.061	0.945
977.697	0.933
988.332	0.8799
998.967	0.913
1009.6	0.902
1020.24	0.888
1030.87	0.861
1041.51	0.835
1052.14	0.752
1062.78	0.4822
1073.41	0.109
1084.05	0.135
1094.68	0.4
1105.32	0.404
1115.95	0.1792
1126.59	0.1869
1137.22	0.4729
1147.86	0.621
1158.49	0.638
1169.13	0.5021
1179.76	0.2681
1190.4	0.218
1201.04	0.47
1211.67	0.692
1222.31	0.772
1232.94	0.841
1243.58	0.881
1254.21	0.898
1264.85	0.909
1275.48	0.917
1286.12	0.921
1296.75	0.928
1307.39	0.93
1318.02	0.93
1328.66	0.936
1339.29	0.933
1349.93	0.933
1360.56	0.933
1371.2	0.93
1381.83	0.928
1392.47	0.924
1403.1	0.908
1413.74	0.918
1424.37	0.922
1435.01	0.908
1445.64	0.913
1456.28	0.922
1466.91	0.926
1477.55	0.932
1488.18	0.936
1498.82	0.94
1509.46	0.941
1520.09	0.944
1530.73	0.938
1541.36	0.94
1552	0.94
1562.63	0.933
1573.27	0.934
1583.9	0.928
1594.54	0.92
1605.17	0.908
1615.81	0.902
1626.44	0.908
1637.08	0.916
1647.71	0.921
1658.35	0.921
1668.98	0.924
1679.62	0.93
1690.25	0.934
1700.89	0.936
1711.52	0.936
1722.16	0.936
1732.79	0.938
1743.43	0.94
1754.06	0.942
1764.7	0.942
1775.33	0.944
1785.97	0.941
1796.6	0.944
1807.24	0.942
1817.88	0.941
1828.51	0.946
1839.15	0.944
1849.78	0.944
1860.42	0.944
1871.05	0.944
1881.69	0.941
1892.32	0.941
1902.96	0.941
1913.59	0.941
1924.23	0.938
1934.86	0.941
1945.5	0.941
1956.13	0.941
1966.77	0.938
1977.4	0.937
1988.04	0.938
1998.67	0.94
2009.31	0.949
2019.94	0.949
2030.58	0.9455
2041.21	0.944
2051.85	0.94
2062.48	0.936
2073.12	0.937
2083.75	0.9404
2094.39	0.941
2105.02	0.941
2115.66	0.9414
2126.3	0.9406
2136.93	0.941
2147.57	0.9416
2158.2	0.944
2168.84	0.941
2179.47	0.942
2190.11	0.942
2200.74	0.941
2211.38	0.942
2222.01	0.942
2232.65	0.944
2243.28	0.945
2253.92	0.944
2264.55	0.9427
2275.19	0.945
2285.82	0.945
2296.46	0.945
2307.09	0.946
2317.73	0.944
2328.36	0.942
2339	0.941
2349.63	0.942
2360.27	0.9417
2370.9	0.9395
2381.54	0.9403
2392.17	0.942
2402.81	0.944
2413.44	0.944
2424.08	0.944
2434.72	0.9412
2445.35	0.94
2455.99	0.9402
2466.62	0.94
2477.26	0.94
2487.89	0.9396
2498.53	0.941
2509.16	0.938
2519.8	0.94
2530.43	0.9383
2541.07	0.94
2551.7	0.9408
2562.34	0.937
2572.97	0.9371
2583.61	0.934
2594.24	0.936
2604.88	0.936
2615.51	0.937
2626.15	0.9379
2636.78	0.9362
2647.42	0.9339
2658.05	0.932
2668.69	0.9321
2679.32	0.936
2689.96	0.9339
2700.59	0.933
2711.23	0.929
2721.87	0.929
2732.5	0.929
2743.14	0.929
2753.77	0.929
2764.41	0.932
2775.04	0.93
2785.68	0.926
2796.31	0.929
2806.95	0.925
2817.58	0.929
2828.22	0.924
2838.85	0.922
2849.49	0.918
2860.12	0.9141
2870.76	0.914
2881.39	0.912
2892.03	0.91
2902.66	0.909
2913.3	0.9051
2923.93	0.904
2934.57	0.904
2945.2	0.908
2955.84	0.91
2966.47	0.91
2977.11	0.9139
2987.74	0.9179
2998.38	0.9171
3009.01	0.9143
3019.65	0.914
3030.29	0.914
3040.92	0.913
3051.56	0.912
3062.19	0.912
3072.83	0.912
3083.46	0.912
3094.1	0.912
3104.73	0.9104
3115.37	0.91
3126	0.909
3136.64	0.908
3147.27	0.908
3157.91	0.908
3168.54	0.905
3179.18	0.904
3189.81	0.902
3200.45	0.901
3211.08	0.898
3221.72	0.8923
3232.35	0.89
3242.99	0.888
3253.62	0.8853
3264.26	0.8813
3274.89	0.88
3285.53	0.875
3296.16	0.8696
3306.8	0.8656
3317.43	0.8596
3328.07	0.8513
3338.71	0.8433
3349.34	0.8353
3359.98	0.8277
3370.61	0.8203
3381.25	0.8075
3391.88	0.7994
3402.52	0.7924
3413.15	0.7851
3423.79	0.781
3434.42	0.7778
3445.06	0.776
3455.69	0.776
3466.33	0.777
3476.96	0.7822
3487.6	0.788
3498.23	0.7926
3508.87	0.797
3519.5	0.801
3530.14	0.8067
3540.77	0.8223
3551.41	0.828
3562.04	0.8372
3572.68	0.848
3583.31	0.856
3593.95	0.8605
3604.58	0.8706
3615.22	0.8775
3625.85	0.881
3636.49	0.8885
3647.13	0.8895
3657.76	0.891
3668.4	0.892
3679.03	0.893
3689.67	0.893
3700.3	0.893
3710.94	0.893
3721.57	0.893
3732.21	0.893
3742.84	0.893
3753.48	0.893
3764.11	0.893
3774.75	0.8934
3785.38	0.8926
3796.02	0.893
3806.65	0.8952
3817.29	0.8948
3827.92	0.894
3838.56	0.8926
3849.19	0.89
3859.83	0.8894
3870.46	0.892
3881.1	0.8927
3891.73	0.889
3902.37	0.889
3913	0.89
3923.64	0.89
3934.27	0.89
3944.91	0.89
3955.55	0.89
3966.18	0.889
3976.82	0.888
3987.45	0.886
