Infrared Spectrum: MALEIC ACID, POTASSIUM SALT
Formula: C4 H2 O4 K2
State: SOLID (KBr PELLET)
Class: COBLENTZ
Instrument: PERKIN-ELMER
Sampling: TRANSMISSION
Resolution: 4
Origin: STANDARD OIL OF OHIO
MICROMETERS	TRANSMITTANCE
2.04	0.838
2.07361	0.84
2.10722	0.842
2.14083	0.844
2.17444	0.844
2.20805	0.844
2.24167	0.844
2.27528	0.845
2.30889	0.849
2.3425	0.85
2.37611	0.85
2.40972	0.85
2.44333	0.852
2.47694	0.852
2.51055	0.852
2.54416	0.852
2.57778	0.85
2.61139	0.852
2.645	0.852
2.67861	0.85
2.71222	0.842
2.74583	0.803
2.77944	0.654
2.81305	0.474
2.84666	0.374
2.88027	0.323
2.91389	0.306
2.9475	0.379
2.98111	0.515
3.01472	0.586
3.04833	0.635
3.08194	0.689
3.11555	0.723
3.14916	0.754
3.18277	0.774
3.21638	0.784
3.25	0.784
3.28361	0.742
3.31722	0.737
3.35083	0.755
3.38444	0.779
3.41805	0.805
3.45166	0.811
3.48527	0.822
3.51888	0.838
3.55249	0.85
3.58611	0.854
3.61972	0.855
3.65333	0.861
3.68694	0.861
3.72055	0.862
3.75416	0.866
3.78777	0.867
3.82138	0.867
3.85499	0.867
3.8886	0.869
3.92222	0.872
3.95583	0.871
3.98944	0.869
4.02305	0.862
4.05666	0.859
4.09027	0.857
4.12388	0.859
4.15749	0.859
4.1911	0.859
4.22471	0.859
4.25833	0.857
4.29194	0.857
4.32555	0.857
4.35916	0.857
4.39277	0.857
4.42638	0.857
4.45999	0.859
4.4936	0.855
4.52721	0.85
4.56082	0.85
4.59444	0.85
4.62805	0.845
4.66166	0.842
4.69527	0.84
4.72888	0.837
4.76249	0.832
4.7961	0.83
4.82971	0.828
4.86332	0.825
4.89693	0.823
4.93055	0.82
4.96416	0.818
4.99777	0.815
5.03138	0.811
5.06499	0.81
5.0986	0.806
5.13221	0.803
5.16582	0.8
5.19943	0.796
5.23304	0.794
5.26666	0.789
5.30027	0.784
5.33388	0.776
5.36749	0.767
5.4011	0.759
5.43471	0.75
5.46832	0.74
5.50193	0.73
5.53554	0.718
5.56915	0.706
5.60277	0.689
5.63638	0.671
5.66999	0.652
5.7036	0.625
5.73721	0.598
5.77082	0.572
5.80443	0.549
5.83804	0.52
5.87165	0.489
5.90526	0.457
5.93888	0.413
5.97249	0.345
6.0061	0.266
6.03971	0.179
6.07332	0.138
6.10693	0.122
6.14054	0.098
6.17415	0.042
6.20776	0.011
6.24137	0.003
6.27499	0.001
6.3086	0.001
6.34221	0.001
6.37582	0.001
6.40943	0.003
6.44304	0.006
6.47665	0.033
6.51026	0.113
6.54387	0.159
6.57748	0.279
6.6111	0.313
6.64471	0.379
6.67832	0.428
6.71193	0.508
6.74554	0.533
6.77915	0.537
6.81276	0.522
6.84637	0.494
6.87998	0.411
6.91359	0.308
6.94721	0.128
6.98082	0.071
7.01443	0.052
7.04804	0.086
7.08165	0.108
7.11526	0.064
7.14887	0.035
7.18248	0.005
7.21609	0.03
7.2497	0.157
7.28332	0.22
7.31693	0.305
7.35054	0.405
7.38415	0.503
7.41776	0.579
7.45137	0.638
7.48498	0.671
7.51859	0.671
7.5522	0.459
7.58581	0.233
7.61943	0.069
7.65304	0.033
7.68665	0.176
7.72026	0.32
7.75387	0.438
7.78748	0.535
7.82109	0.611
7.8547	0.649
7.88831	0.674
7.92192	0.696
7.95554	0.708
7.98915	0.723
8.02276	0.735
8.05637	0.749
8.08998	0.759
8.12359	0.771
8.1572	0.774
8.19081	0.774
8.22442	0.776
8.25803	0.779
8.29165	0.786
8.32526	0.767
8.35887	0.674
8.39248	0.601
8.42609	0.544
8.4597	0.593
8.49331	0.674
8.52692	0.674
8.56053	0.733
8.59414	0.779
8.62776	0.8
8.66137	0.806
8.69498	0.813
8.72859	0.818
8.7622	0.823
8.79581	0.823
8.82942	0.815
8.86303	0.798
8.89664	0.8
8.93025	0.806
8.96387	0.811
8.99748	0.813
9.03109	0.818
9.0647	0.823
9.09831	0.827
9.13192	0.83
9.16553	0.827
9.19914	0.828
9.23275	0.83
9.26636	0.833
9.29998	0.84
9.33359	0.844
9.3672	0.849
9.40081	0.85
9.43442	0.854
9.46803	0.854
9.50164	0.854
9.53525	0.852
9.56886	0.854
9.60247	0.852
9.63609	0.85
9.6697	0.85
9.70331	0.85
9.73692	0.852
9.77053	0.852
9.80414	0.854
9.83775	0.855
9.87136	0.859
9.90497	0.859
9.93858	0.857
9.9722	0.849
10.0058	0.83
10.0394	0.783
10.073	0.752
10.1066	0.747
10.1403	0.754
10.1739	0.767
10.2075	0.745
10.2411	0.671
10.2747	0.686
10.3083	0.73
10.3419	0.772
10.3755	0.798
10.4091	0.813
10.4427	0.825
10.4764	0.827
10.51	0.815
10.5436	0.8
10.5772	0.805
10.6108	0.83
10.6444	0.847
10.678	0.852
10.7116	0.859
10.7452	0.864
10.7789	0.869
10.8125	0.871
10.8461	0.872
10.8797	0.872
10.9133	0.871
10.9469	0.871
10.9805	0.867
11.0141	0.864
11.0477	0.854
11.0814	0.84
11.115	0.791
11.1486	0.635
11.1822	0.645
11.2158	0.569
11.2494	0.498
11.283	0.538
11.3166	0.73
11.3502	0.769
11.3839	0.793
11.4175	0.801
11.4511	0.805
11.4847	0.793
11.5183	0.711
11.5519	0.552
11.5855	0.422
11.6191	0.333
11.6527	0.34
11.6864	0.372
11.72	0.333
11.7536	0.316
11.7872	0.386
11.8208	0.506
11.8544	0.606
11.888	0.716
11.9216	0.75
11.9552	0.771
11.9889	0.767
12.0225	0.747
12.0561	0.662
12.0897	0.567
12.1233	0.544
12.1569	0.555
12.1905	0.601
12.2241	0.638
12.2577	0.672
12.2914	0.681
12.325	0.681
12.3586	0.681
12.3922	0.681
12.4258	0.683
12.4594	0.686
12.493	0.689
12.5266	0.689
12.5602	0.691
12.5939	0.7
12.6275	0.705
12.6611	0.72
12.6947	0.723
12.7283	0.716
12.7619	0.684
12.7955	0.652
12.8291	0.63
12.8627	0.64
12.8964	0.691
12.93	0.713
12.9636	0.737
12.9972	0.759
13.0308	0.777
13.0644	0.8
13.098	0.808
13.1316	0.82
13.1652	0.828
13.1989	0.832
13.2325	0.833
13.2661	0.835
13.2997	0.837
13.3333	0.835
13.3669	0.835
13.4005	0.828
13.4341	0.816
13.4677	0.801
13.5014	0.786
13.535	0.788
13.5686	0.801
13.6022	0.815
13.6358	0.825
13.6694	0.83
13.703	0.833
13.7366	0.837
13.7702	0.838
13.8038	0.84
13.8375	0.84
13.8711	0.84
13.9047	0.84
13.9383	0.842
13.9719	0.844
14.0055	0.847
14.0391	0.845
14.0727	0.844
14.1063	0.844
14.14	0.842
14.1736	0.842
14.2072	0.838
14.2408	0.835
14.2744	0.835
14.308	0.833
14.3416	0.83
14.3752	0.83
14.4088	0.827
14.4425	0.818
14.4761	0.81
14.5097	0.801
14.5433	0.794
14.5769	0.783
14.6105	0.779
14.6441	0.772
14.6777	0.755
14.7113	0.723
14.745	0.667
14.7786	0.598
14.8122	0.533
14.8458	0.466
14.8794	0.405
14.913	0.383
14.9466	0.383
14.9802	0.418
15.0138	0.542
15.0475	0.622
15.0811	0.664
15.1147	0.686
15.1483	0.7
15.1819	0.706
15.2155	0.713
15.2491	0.716
15.2827	0.718
15.3163	0.718
15.35	0.716
