Infrared Spectrum: 5-THIA-1-AZABICYCLO[4.2.0]OCT-2-ENE-2-CARBOXYLIC ACID, 3-(HYDROXYMETHYL)-8-OXO-7-(3-PYRIDYLACETAMIDO)-, ACETATE, POTASSIUM SALT, MONOHYDRATE
Formula: C17 H16 N3 O6 S K  * H2 O
State: SOLID (OIL MULL)
Class: COBLENTZ III
Instrument: Not specified, most likely a prism spectrometer.
Instrument parameters: NaCl PRISM
Sampling: TRANSMISSION
Resolution: 2
Origin: SMITH KLINE & FRENCH LABS.
MICROMETERS	TRANSMITTANCE
2.004	0.748
2.03816	0.753
2.07232	0.759
2.10648	0.765
2.14065	0.77
2.17481	0.777
2.20897	0.779
2.24313	0.783
2.27729	0.785
2.31145	0.788
2.34561	0.789
2.37978	0.793
2.41394	0.793
2.4481	0.792
2.48226	0.794
2.51642	0.795
2.55058	0.808
2.58475	0.813
2.61891	0.816
2.65307	0.821
2.68723	0.822
2.72139	0.822
2.75555	0.813
2.78971	0.804
2.82388	0.776
2.85804	0.72
2.8922	0.663
2.92636	0.608
2.96052	0.553
2.99468	0.488
3.02884	0.432
3.06301	0.367
3.09717	0.326
3.13133	0.385
3.16549	0.447
3.19965	0.5
3.23381	0.559
3.26797	0.603
3.30214	0.615
3.3363	0.611
3.37046	0.501
3.40462	0.239
3.43878	0.135
3.47294	0.103
3.50711	0.097
3.54127	0.112
3.57543	0.285
3.60959	0.569
3.64375	0.672
3.67791	0.725
3.71207	0.75
3.74624	0.779
3.7804	0.798
3.81456	0.807
3.84872	0.818
3.88288	0.829
3.91704	0.841
3.9512	0.852
3.98537	0.859
4.01953	0.863
4.05369	0.866
4.08785	0.871
4.12201	0.875
4.15617	0.887
4.19034	0.894
4.2245	0.894
4.25866	0.887
4.29282	0.874
4.32698	0.865
4.36114	0.865
4.3953	0.88
4.42947	0.891
4.46363	0.893
4.49779	0.897
4.53195	0.9
4.56611	0.903
4.60027	0.908
4.63443	0.911
4.6686	0.911
4.70276	0.912
4.73692	0.916
4.77108	0.921
4.80524	0.926
4.8394	0.928
4.87356	0.932
4.90773	0.934
4.94189	0.938
4.97605	0.941
5.01021	0.944
5.04437	0.948
5.07853	0.946
5.1127	0.945
5.14686	0.944
5.18102	0.943
5.21518	0.94
5.24934	0.937
5.2835	0.937
5.31766	0.937
5.35183	0.937
5.38599	0.937
5.42015	0.935
5.45431	0.932
5.48847	0.911
5.52263	0.889
5.55679	0.836
5.59096	0.762
5.62512	0.655
5.65928	0.444
5.69344	0.166
5.7276	0.061
5.76176	0.078
5.79592	0.07
5.83009	0.438
5.86425	0.575
5.89841	0.659
5.93257	0.695
5.96673	0.688
6.00089	0.616
6.03506	0.347
6.06922	0.136
6.10338	0.22
6.13754	0.376
6.1717	0.296
6.20586	0.152
6.24002	0.17
6.27419	0.282
6.30835	0.492
6.34251	0.563
6.37667	0.656
6.41083	0.689
6.44499	0.673
6.47915	0.574
6.51332	0.356
6.54748	0.29
6.58164	0.435
6.6158	0.591
6.64996	0.68
6.68412	0.753
6.71829	0.754
6.75245	0.714
6.78661	0.623
6.82077	0.44
6.85493	0.367
6.88909	0.337
6.92325	0.349
6.95742	0.447
6.99158	0.515
7.02574	0.499
7.0599	0.517
7.09406	0.517
7.12822	0.447
7.16238	0.403
7.19655	0.318
7.23071	0.298
7.26487	0.267
7.29903	0.252
7.33319	0.303
7.36735	0.307
7.40151	0.314
7.43568	0.264
7.46984	0.343
7.504	0.463
7.53816	0.551
7.57232	0.634
7.60648	0.69
7.64065	0.696
7.67481	0.707
7.70897	0.713
7.74313	0.65
7.77729	0.568
7.81145	0.569
7.84561	0.609
7.87978	0.608
7.91394	0.577
7.9481	0.515
7.98226	0.332
8.01642	0.198
8.05058	0.188
8.08474	0.227
8.11891	0.224
8.15307	0.189
8.18723	0.295
8.22139	0.368
8.25555	0.391
8.28971	0.49
8.32387	0.607
8.35804	0.622
8.3922	0.58
8.42636	0.524
8.46052	0.655
8.49468	0.677
8.52884	0.662
8.56301	0.64
8.59717	0.673
8.63133	0.674
8.66549	0.623
8.69965	0.603
8.73381	0.678
8.76797	0.727
8.80214	0.778
8.8363	0.779
8.87046	0.782
8.90462	0.776
8.93878	0.73
8.97294	0.735
9.0071	0.749
9.04127	0.765
9.07543	0.778
9.10959	0.8
9.14375	0.813
9.17791	0.825
9.21207	0.83
9.24624	0.822
9.2804	0.782
9.31456	0.686
9.34872	0.613
9.38288	0.617
9.41704	0.703
9.4512	0.747
9.48537	0.753
9.51953	0.753
9.55369	0.749
9.58785	0.711
9.62201	0.675
9.65617	0.631
9.69033	0.564
9.7245	0.49
9.75866	0.54
9.79282	0.59
9.82698	0.603
9.86114	0.64
9.8953	0.698
9.92946	0.759
9.96363	0.794
9.99779	0.762
10.0319	0.717
10.0661	0.726
10.1003	0.767
10.1344	0.785
10.1686	0.805
10.2028	0.806
10.2369	0.799
10.2711	0.799
10.3052	0.796
10.3394	0.76
10.3736	0.735
10.4077	0.742
10.4419	0.733
10.476	0.707
10.5102	0.657
10.5444	0.701
10.5785	0.777
10.6127	0.805
10.6469	0.822
10.681	0.851
10.7152	0.851
10.7493	0.864
10.7835	0.871
10.8177	0.868
10.8518	0.863
10.886	0.858
10.9201	0.835
10.9543	0.844
10.9885	0.852
11.0226	0.873
11.0568	0.879
11.091	0.894
11.1251	0.897
11.1593	0.896
11.1934	0.896
11.2276	0.898
11.2618	0.9
11.2959	0.909
11.3301	0.912
11.3642	0.916
11.3984	0.917
11.4326	0.91
11.4667	0.896
11.5009	0.87
11.5351	0.866
11.5692	0.881
11.6034	0.899
11.6375	0.902
11.6717	0.894
11.7059	0.862
11.74	0.854
11.7742	0.853
11.8083	0.858
11.8425	0.889
11.8767	0.9
11.9108	0.903
11.945	0.904
11.9792	0.905
12.0133	0.906
12.0475	0.906
12.0816	0.906
12.1158	0.906
12.15	0.896
12.1841	0.866
12.2183	0.83
12.2524	0.817
12.2866	0.819
12.3208	0.822
12.3549	0.821
12.3891	0.798
12.4233	0.781
12.4574	0.762
12.4916	0.743
12.5257	0.711
12.5599	0.707
12.5941	0.713
12.6282	0.736
12.6624	0.742
12.6965	0.771
12.7307	0.799
12.7649	0.812
12.799	0.829
12.8332	0.84
12.8674	0.842
12.9015	0.848
12.9357	0.853
12.9698	0.852
13.004	0.851
13.0382	0.846
13.0723	0.845
13.1065	0.845
13.1406	0.845
13.1748	0.83
13.209	0.785
13.2431	0.77
13.2773	0.759
13.3115	0.761
13.3456	0.769
13.3798	0.766
13.4139	0.753
13.4481	0.742
13.4823	0.732
13.5164	0.726
13.5506	0.721
13.5847	0.718
13.6189	0.717
13.6531	0.708
13.6872	0.698
13.7214	0.701
13.7556	0.703
13.7897	0.704
13.8239	0.707
13.858	0.708
13.8922	0.709
13.9264	0.711
13.9605	0.712
13.9947	0.691
14.0288	0.638
14.063	0.596
14.0972	0.585
14.1313	0.621
14.1655	0.668
14.1997	0.709
14.2338	0.726
14.268	0.738
14.3021	0.748
14.3363	0.749
14.3705	0.75
14.4046	0.748
14.4388	0.748
14.4729	0.746
14.5071	0.743
14.5413	0.741
14.5754	0.737
14.6096	0.735
14.6437	0.732
14.6779	0.726
14.7121	0.72
14.7462	0.711
14.7804	0.712
14.8146	0.709
14.8487	0.704
