Infrared Spectrum: 4,6-ETHANO-1H,8H-PYRANO[3,4-c]PYRAN-1,8-DIONE, HEXAHYDRO-3,3,6-TRIMETHYL-8a-[2-(DIMETHYLAMINO)ETHYL]-
Formula: C17 H27 N O4
State: SOLUTION 7% (CHCl3 FOR 2.5-12.5 microns)
Class: COBLENTZ
Instrument: PERKIN-ELMER 21 (GRATING)
Instrument parameters: FILTER AT ABOUT 10 MICRONS
Path length: 0.01 CM
Resolution: 2
Origin: ABBOTT LABORATORIES
1/CM	TRANSMITTANCE
801	1.0124
809	0.9646
817	0.9291
825	0.8967
833	0.8347
841	0.8491
849	0.8511
857	0.8558
865	0.8685
873	0.8403
881	0.7753
889	0.7642
897	0.7888
905	0.8522
913	0.821
921	0.7376
929	0.5396
937	0.4633
945	0.5322
953	0.658
961	0.8092
969	0.7706
977	0.6555
985	0.6844
993	0.619
1001	0.7385
1009	0.7294
1017	0.6744
1025	0.6293
1033	0.6447
1041	0.6459
1049	0.7161
1057	0.5876
1065	0.6157
1073	0.6463
1081	0.5608
1089	0.4144
1097	0.5629
1105	0.4911
1113	0.5372
1121	0.5417
1129	0.2689
1137	0.1032
1145	0.2714
1153	0.2308
1161	0.2654
1169	0.456
1177	0.4753
1185	0.4957
1193	0.4936
1201	0.5613
1209	0.5233
1217	0.4879
1225	0.4811
1233	0.5025
1241	0.4692
1249	0.3378
1257	0.3413
1265	0.4286
1273	0.406
1281	0.3577
1289	0.4247
1297	0.5939
1305	0.6089
1313	0.5974
1321	0.6239
1329	0.6625
1337	0.5634
1345	0.685
1353	0.6665
1361	0.7232
1369	0.5569
1377	0.4618
1385	0.5665
1393	0.7545
1401	0.8276
1409	0.8266
1417	0.795
1425	0.7275
1433	0.6877
1441	0.5577
1449	0.4802
1457	0.4838
1465	0.5321
1473	0.7552
1481	0.8112
1489	0.8612
1497	0.879
1505	0.9076
1513	0.9123
1521	0.9169
1529	0.9111
1537	0.9058
1545	0.9044
1553	0.9025
1561	0.8969
1569	0.896
1577	0.8974
1585	0.8945
1593	0.8871
1601	0.8798
1609	0.8745
1617	0.8722
1625	0.8696
1633	0.8645
1641	0.8576
1649	0.8495
1657	0.8389
1665	0.8242
1673	0.796
1681	0.7576
1689	0.6632
1697	0.5412
1705	0.5041
1713	0.4841
1721	0.4146
1729	0.2413
1737	0.0685
1745	0.0581
1753	0.1149
1761	0.3526
1769	0.5903
1777	0.7216
1785	0.777
1793	0.8387
1801	0.8736
1809	0.8822
1817	0.888
1825	0.8931
1833	0.8976
1841	0.9014
1849	0.9044
1857	0.9074
1865	0.9102
1873	0.9128
1881	0.9153
1889	0.9172
1897	0.9181
1905	0.919
1913	0.9199
1921	0.9205
1929	0.9208
1937	0.9212
1945	0.9215
1953	0.9218
1961	0.9217
1969	0.9217
1977	0.9217
1985	0.9217
1993	0.9217
2001	0.9217
2009	0.9219
2017	0.9221
2025	0.9222
2033	0.9224
2041	0.9226
2049	0.9227
2057	0.9229
2065	0.9231
2073	0.9234
2081	0.9235
2089	0.9237
2097	0.9239
2105	0.9241
2113	0.9243
2121	0.9244
2129	0.9243
2137	0.9241
2145	0.9242
2153	0.9244
2161	0.9236
2169	0.9229
2177	0.922
2185	0.9216
2193	0.9217
2201	0.9218
2209	0.9219
2217	0.922
2225	0.9222
2233	0.9222
2241	0.9222
2249	0.9222
2257	0.9222
2265	0.9223
2273	0.9227
2281	0.923
2289	0.9237
2297	0.9246
2305	0.9263
2313	0.9318
2321	0.9332
2329	0.9334
2337	0.9337
2345	0.9338
2353	0.934
2361	0.9342
2369	0.9343
2377	0.9338
2385	0.9331
2393	0.9282
2401	0.919
2409	0.9077
2417	0.9007
2425	0.8966
2433	0.8959
2441	0.8953
2449	0.8947
2457	0.894
2465	0.8919
2473	0.8899
2481	0.8888
2489	0.8894
2497	0.8913
2505	0.8931
2513	0.8973
2521	0.9015
2529	0.9063
2537	0.9109
2545	0.9145
2553	0.9171
2561	0.9176
2569	0.9163
2577	0.9148
2585	0.9133
2593	0.9117
2601	0.9101
2609	0.9083
2617	0.9065
2625	0.9045
2633	0.9024
2641	0.9004
2649	0.8981
2657	0.8953
2665	0.8924
2673	0.8875
2681	0.8821
2689	0.8735
2697	0.8625
2705	0.8509
2713	0.8352
2721	0.8114
2729	0.7918
2737	0.7663
2745	0.7492
2753	0.7334
2761	0.6952
2769	0.6354
2777	0.5907
2785	0.5938
2793	0.6093
2801	0.6243
2809	0.6247
2817	0.6123
2825	0.6092
2833	0.6305
2841	0.6524
2849	0.6505
2857	0.6261
2865	0.6016
2873	0.5867
2881	0.5805
2889	0.5746
2897	0.5689
2905	0.5629
2913	0.554
2921	0.5254
2929	0.4874
2937	0.4497
2945	0.4249
2953	0.4268
2961	0.4406
2969	0.4529
2977	0.4584
2985	0.4673
2993	0.5269
3001	0.5961
3009	0.6649
3017	0.7333
3025	0.7673
3033	0.7829
3041	0.7992
3049	0.8138
3057	0.8223
3065	0.8307
3073	0.84
3081	0.8551
3089	0.8666
3097	0.8737
3105	0.8782
3113	0.8804
3121	0.8825
3129	0.8846
3137	0.8861
3145	0.8876
3153	0.8886
3161	0.8895
3169	0.8905
3177	0.8914
3185	0.8921
3193	0.8926
3201	0.8929
3209	0.8934
3217	0.8939
3225	0.8943
3233	0.8943
3241	0.8942
3249	0.8941
3257	0.894
3265	0.8939
3273	0.8938
3281	0.8937
3289	0.8936
3297	0.8928
3305	0.8919
3313	0.8911
3321	0.8902
3329	0.8892
3337	0.888
3345	0.8867
3353	0.8854
3361	0.8841
3369	0.8832
3377	0.8832
3385	0.8832
3393	0.8832
3401	0.8832
3409	0.8837
3417	0.884
3425	0.8844
3433	0.8847
3441	0.8851
3449	0.8855
3457	0.8861
3465	0.8872
3473	0.8883
3481	0.8893
3489	0.8904
3497	0.8915
3505	0.8934
3513	0.8954
3521	0.8972
3529	0.8986
3537	0.8999
3545	0.9013
3553	0.9026
3561	0.9035
3569	0.9041
3577	0.9047
3585	0.9052
3593	0.9057
3601	0.9063
3609	0.9067
3617	0.9071
3625	0.9074
3633	0.9077
3641	0.9081
3649	0.9084
3657	0.9087
3665	0.9087
3673	0.9087
3681	0.9087
3689	0.9088
3697	0.9088
3705	0.9088
3713	0.9089
3721	0.9089
3729	0.9089
3737	0.9089
3745	0.9088
3753	0.9086
3761	0.9084
3769	0.9082
3777	0.908
3785	0.9079
3793	0.9077
3801	0.9075
3809	0.9073
3817	0.9071
3825	0.907
3833	0.9068
3841	0.9065
3849	0.9064
3857	0.9062
3865	0.906
3873	0.9058
3881	0.9057
3889	0.9055
3897	0.9053
3905	0.9051
3913	0.9048
3921	0.9046
3929	0.9044
3937	0.9042
3945	0.9039
3953	0.9036
3961	0.9036
3969	0.9038
3977	0.904
3985	0.9042
3993	0.9044
