Infrared Spectrum: CHROMIC PHOSPHATE, TRIBASIC
Formula: Cr P O4  * H2 O
State: SOLID (NUJOL MULL)
Class: COBLENTZ
Instrument: Not specified, most likely a prism, grating, or hybrid spectrometer.
Sampling: TRANSMISSION
Resolution: 4
Origin: MELLON INSTITUTE
MICROMETERS	TRANSMITTANCE
2.03	0.964
2.06985	0.973
2.10971	0.973
2.14956	0.979
2.18942	0.979
2.22927	0.979
2.26913	0.983
2.30898	0.974
2.34883	0.969
2.38869	0.973
2.42854	0.971
2.4684	0.969
2.50825	0.981
2.54811	0.983
2.58796	0.978
2.62782	0.971
2.66767	0.979
2.70752	0.958
2.74738	0.941
2.78723	0.837
2.82709	0.63
2.86694	0.511
2.9068	0.438
2.94665	0.399
2.9865	0.376
3.02636	0.367
3.06621	0.359
3.10607	0.356
3.14592	0.371
3.18578	0.381
3.22563	0.392
3.26549	0.401
3.30534	0.401
3.34519	0.232
3.38505	0.117
3.4249	0.175
3.46476	0.215
3.50461	0.324
3.54447	0.531
3.58432	0.586
3.62417	0.622
3.66403	0.645
3.70388	0.67
3.74374	0.688
3.78359	0.702
3.82345	0.724
3.8633	0.744
3.90316	0.747
3.94301	0.757
3.98286	0.764
4.02272	0.764
4.06257	0.764
4.10243	0.772
4.14228	0.77
4.18214	0.772
4.22199	0.772
4.26184	0.764
4.3017	0.752
4.34155	0.757
4.38141	0.77
4.42126	0.792
4.46112	0.797
4.50097	0.802
4.54083	0.806
4.58068	0.809
4.62053	0.804
4.66039	0.812
4.70024	0.812
4.7401	0.821
4.77995	0.817
4.81981	0.821
4.85966	0.822
4.89951	0.822
4.93937	0.826
4.97922	0.822
5.01908	0.831
5.05893	0.834
5.09879	0.832
5.13864	0.837
5.1785	0.842
5.21835	0.839
5.2582	0.839
5.29806	0.839
5.33791	0.839
5.37777	0.846
5.41762	0.842
5.45748	0.847
5.49733	0.844
5.53718	0.844
5.57704	0.849
5.61689	0.844
5.65675	0.849
5.6966	0.844
5.73646	0.851
5.77631	0.847
5.81617	0.851
5.85602	0.832
5.89587	0.826
5.93573	0.817
5.97558	0.795
6.01544	0.765
6.05529	0.742
6.09515	0.72
6.135	0.709
6.17485	0.712
6.21471	0.727
6.25456	0.747
6.29442	0.759
6.33427	0.779
6.37413	0.774
6.41398	0.784
6.45384	0.787
6.49369	0.801
6.53354	0.807
6.5734	0.809
6.61325	0.807
6.65311	0.814
6.69296	0.824
6.73282	0.814
6.77267	0.79
6.81252	0.662
6.85238	0.602
6.89223	0.603
6.93209	0.66
6.97194	0.727
7.0118	0.797
7.05165	0.816
7.09151	0.829
7.13136	0.836
7.17121	0.829
7.21107	0.799
7.25092	0.73
7.29078	0.749
7.33063	0.77
7.37049	0.826
7.41034	0.834
7.45019	0.831
7.49005	0.837
7.5299	0.841
7.56976	0.842
7.60961	0.834
7.64947	0.834
7.68932	0.834
7.72918	0.832
7.76903	0.832
7.80888	0.834
7.84874	0.834
7.88859	0.821
7.92845	0.822
7.9683	0.811
8.00816	0.807
8.04801	0.811
8.08786	0.804
8.12772	0.799
8.16757	0.79
8.20743	0.78
8.24728	0.777
8.28714	0.762
8.32699	0.754
8.36685	0.739
8.4067	0.719
8.44655	0.702
8.48641	0.683
8.52626	0.652
8.56612	0.622
8.60597	0.596
8.64583	0.561
8.68568	0.536
8.72553	0.518
8.76539	0.488
8.80524	0.441
8.8451	0.421
8.88495	0.397
8.92481	0.382
8.96466	0.371
9.00452	0.351
9.04437	0.329
9.08422	0.306
9.12408	0.295
9.16393	0.284
9.20379	0.272
9.24364	0.26
9.2835	0.247
9.32335	0.239
9.3632	0.229
9.40306	0.222
9.44291	0.215
9.48277	0.22
9.52262	0.219
9.56248	0.217
9.60233	0.212
9.64219	0.209
9.68204	0.205
9.72189	0.209
9.76175	0.214
9.8016	0.219
9.84146	0.225
9.88131	0.23
9.92117	0.247
9.96102	0.255
10.0009	0.269
10.0407	0.28
10.0806	0.292
10.1204	0.302
10.1603	0.319
10.2001	0.339
10.24	0.357
10.2799	0.372
10.3197	0.396
10.3596	0.414
10.3994	0.438
10.4393	0.451
10.4791	0.459
10.519	0.469
10.5588	0.483
10.5987	0.493
10.6385	0.501
10.6784	0.513
10.7183	0.525
10.7581	0.535
10.798	0.54
10.8378	0.543
10.8777	0.55
10.9175	0.558
10.9574	0.563
10.9972	0.571
11.0371	0.576
11.0769	0.578
11.1168	0.585
11.1567	0.586
11.1965	0.593
11.2364	0.596
11.2762	0.598
11.3161	0.602
11.3559	0.607
11.3958	0.615
11.4356	0.62
11.4755	0.625
11.5153	0.633
11.5552	0.637
11.595	0.642
11.6349	0.647
11.6748	0.655
11.7146	0.662
11.7545	0.668
11.7943	0.675
11.8342	0.683
11.874	0.682
11.9139	0.687
11.9537	0.682
11.9936	0.685
12.0334	0.69
12.0733	0.687
12.1132	0.69
12.153	0.693
12.1929	0.695
12.2327	0.698
12.2726	0.702
12.3124	0.705
12.3523	0.709
12.3921	0.707
12.432	0.707
12.4718	0.709
12.5117	0.707
12.5516	0.704
12.5914	0.709
12.6313	0.707
12.6711	0.707
12.711	0.707
12.7508	0.71
12.7907	0.707
12.8305	0.709
12.8704	0.709
12.9102	0.709
12.9501	0.702
12.99	0.702
13.0298	0.704
13.0697	0.705
13.1095	0.704
13.1494	0.707
13.1892	0.702
13.2291	0.705
13.2689	0.702
13.3088	0.702
13.3486	0.702
13.3885	0.7
13.4284	0.705
13.4682	0.7
13.5081	0.697
13.5479	0.698
13.5878	0.698
13.6276	0.693
13.6675	0.697
13.7073	0.692
13.7472	0.693
13.787	0.688
13.8269	0.69
13.8667	0.685
13.9066	0.692
13.9465	0.693
13.9863	0.695
14.0262	0.688
14.066	0.687
14.1059	0.688
14.1457	0.69
14.1856	0.688
14.2254	0.687
14.2653	0.688
14.3051	0.682
14.345	0.677
14.3849	0.677
14.4247	0.677
14.4646	0.678
14.5044	0.677
14.5443	0.673
14.5841	0.668
14.624	0.667
14.6638	0.667
14.7037	0.663
14.7435	0.663
14.7834	0.662
14.8233	0.663
14.8631	0.66
14.903	0.655
14.9428	0.647
14.9827	0.643
15.0225	0.64
15.0624	0.637
15.1022	0.637
15.1421	0.635
15.1819	0.635
15.2218	0.633
15.2617	0.632
15.3015	0.627
15.3414	0.627
15.3812	0.62
15.4211	0.617
15.4609	0.615
15.5008	0.613
15.5406	0.613
15.5805	0.61
15.6203	0.615
15.6602	0.612
15.7	0.613
15.7399	0.612
15.7798	0.617
15.8196	0.615
15.8595	0.622
15.8993	0.627
15.9392	0.628
15.979	0.637
