Infrared Spectrum: 2-CARBOXYBENZOYL FERROCENE
Formula: C18 H14 O3 Fe
State: SOLID (MINERAL OIL MULL)
Melting point: 190-195 C
Class: COBLENTZ
Instrument: Not specified, most likely a prism, grating, or hybrid spectrometer.
Sampling: TRANSMISSION
Resolution: 4
Origin: WYANDOTTE CHEMICALS CORP., WYANDOTTE, MICHIGAN, USA
MICROMETERS	TRANSMITTANCE
2.075	0.588
2.1159	0.608
2.15679	0.618
2.19769	0.615
2.23859	0.629
2.27949	0.635
2.32038	0.647
2.36128	0.658
2.40218	0.668
2.44307	0.661
2.48397	0.67
2.52487	0.69
2.56576	0.697
2.60666	0.707
2.64756	0.719
2.68846	0.726
2.72935	0.728
2.77025	0.717
2.81115	0.695
2.85204	0.682
2.89294	0.659
2.93384	0.659
2.97473	0.651
3.01563	0.625
3.05653	0.61
3.09743	0.577
3.13832	0.528
3.17922	0.456
3.22012	0.336
3.26101	0.323
3.30191	0.215
3.34281	0.078
3.3837	0.054
3.4246	0.063
3.4655	0.064
3.5064	0.128
3.54729	0.285
3.58819	0.377
3.62909	0.4
3.66998	0.381
3.71088	0.307
3.75178	0.316
3.79267	0.369
3.83357	0.352
3.87447	0.3
3.91537	0.288
3.95626	0.335
3.99716	0.391
4.03806	0.449
4.07895	0.49
4.11985	0.517
4.16075	0.547
4.20164	0.577
4.24254	0.591
4.28344	0.61
4.32434	0.639
4.36523	0.678
4.40613	0.7
4.44703	0.705
4.48792	0.719
4.52882	0.733
4.56972	0.758
4.61061	0.762
4.65151	0.777
4.69241	0.8
4.73331	0.791
4.7742	0.8
4.8151	0.822
4.856	0.841
4.89689	0.849
4.93779	0.844
4.97869	0.851
5.01958	0.851
5.06048	0.841
5.10138	0.851
5.14228	0.83
5.18317	0.854
5.22407	0.83
5.26497	0.829
5.30586	0.83
5.34676	0.827
5.38766	0.841
5.42855	0.818
5.46945	0.82
5.51035	0.811
5.55125	0.781
5.59214	0.765
5.63304	0.728
5.67394	0.74
5.71483	0.76
5.75573	0.74
5.79663	0.651
5.83753	0.406
5.87842	0.092
5.91932	0.064
5.96022	0.105
6.00111	0.073
6.04201	0.241
6.08291	0.454
6.1238	0.558
6.1647	0.613
6.2056	0.35
6.2465	0.517
6.28739	0.27
6.32829	0.485
6.36919	0.654
6.41008	0.733
6.45098	0.782
6.49188	0.782
6.53277	0.789
6.57367	0.777
6.61457	0.735
6.65547	0.511
6.69636	0.577
6.73726	0.516
6.77816	0.259
6.81905	0.162
6.85995	0.15
6.90085	0.299
6.94174	0.182
6.98264	0.317
7.02354	0.461
7.06444	0.555
7.10533	0.652
7.14623	0.62
7.18713	0.56
7.22802	0.258
7.26892	0.497
7.30982	0.596
7.35071	0.591
7.39161	0.581
7.43251	0.509
7.47341	0.312
7.5143	0.117
7.5552	0.105
7.5961	0.088
7.63699	0.097
7.67789	0.176
7.71879	0.152
7.75968	0.09
7.80058	0.333
7.84148	0.569
7.88238	0.492
7.92327	0.271
7.96417	0.505
8.00507	0.644
8.04596	0.692
8.08686	0.716
8.12776	0.745
8.16865	0.774
8.20955	0.721
8.25045	0.77
8.29135	0.801
8.33224	0.808
8.37314	0.786
8.41404	0.781
8.45493	0.685
8.49583	0.43
8.53673	0.683
8.57762	0.683
8.61852	0.724
8.65942	0.753
8.70032	0.726
8.74121	0.822
8.78211	0.849
8.82301	0.876
8.8639	0.873
8.9048	0.866
8.9457	0.846
8.98659	0.56
9.02749	0.659
9.06839	0.791
9.10929	0.764
9.15018	0.541
9.19108	0.676
9.23198	0.805
9.27287	0.82
9.31377	0.781
9.35467	0.781
9.39557	0.745
9.43646	0.623
9.47736	0.54
9.51826	0.666
9.55915	0.635
9.60005	0.582
9.64095	0.687
9.68184	0.651
9.72274	0.61
9.76364	0.611
9.80454	0.765
9.84543	0.788
9.88633	0.752
9.92723	0.639
9.96812	0.598
10.009	0.687
10.0499	0.794
10.0908	0.827
10.1317	0.842
10.1726	0.823
10.2135	0.806
10.2544	0.772
10.2953	0.738
10.3362	0.639
10.3771	0.606
10.418	0.702
10.4589	0.654
10.4998	0.456
10.5407	0.466
10.5816	0.499
10.6225	0.434
10.6634	0.389
10.7043	0.413
10.7452	0.482
10.7861	0.558
10.827	0.61
10.8679	0.668
10.9088	0.707
10.9497	0.748
10.9905	0.755
11.0314	0.716
11.0723	0.717
11.1132	0.781
11.1541	0.81
11.195	0.801
11.2359	0.726
11.2768	0.687
11.3177	0.705
11.3586	0.784
11.3995	0.813
11.4404	0.873
11.4813	0.905
11.5222	0.897
11.5631	0.888
11.604	0.871
11.6449	0.823
11.6858	0.642
11.7267	0.413
11.7676	0.625
11.8085	0.767
11.8494	0.77
11.8903	0.818
11.9312	0.829
11.9721	0.7
12.013	0.663
12.0539	0.629
12.0948	0.48
12.1357	0.321
12.1766	0.35
12.2175	0.263
12.2584	0.22
12.2993	0.304
12.3401	0.439
12.381	0.476
12.4219	0.473
12.4628	0.437
12.5037	0.54
12.5446	0.723
12.5855	0.805
12.6264	0.866
12.6673	0.876
12.7082	0.805
12.7491	0.521
12.79	0.355
12.8309	0.589
12.8718	0.75
12.9127	0.839
12.9536	0.878
12.9945	0.912
13.0354	0.921
13.0763	0.928
13.1172	0.914
13.1581	0.904
13.199	0.875
13.2399	0.818
13.2808	0.719
13.3217	0.543
13.3626	0.321
13.4035	0.176
13.4444	0.247
13.4853	0.475
13.5262	0.666
13.5671	0.77
13.608	0.818
13.6489	0.849
13.6898	0.875
13.7306	0.89
13.7715	0.897
13.8124	0.897
13.8533	0.897
13.8942	0.883
13.9351	0.873
13.976	0.847
14.0169	0.743
14.0578	0.56
14.0987	0.333
14.1396	0.28
14.1805	0.464
14.2214	0.673
14.2623	0.794
14.3032	0.844
14.3441	0.887
14.385	0.909
14.4259	0.921
14.4668	0.929
14.5077	0.926
14.5486	0.912
14.5895	0.902
14.6304	0.883
14.6713	0.835
14.7122	0.77
14.7531	0.652
14.794	0.567
14.8349	0.552
14.8758	0.647
14.9167	0.747
14.9576	0.794
14.9985	0.788
15.0394	0.762
15.0802	0.784
15.1211	0.818
15.162	0.846
15.2029	0.851
15.2438	0.829
15.2847	0.8
15.3256	0.753
15.3665	0.671
15.4074	0.6
15.4483	0.591
15.4892	0.647
15.5301	0.7
15.571	0.735
15.6119	0.74
15.6528	0.741
15.6937	0.729
15.7346	0.723
15.7755	0.714
15.8164	0.699
15.8573	0.683
15.8982	0.68
15.9391	0.659
15.98	0.641
