Infrared Spectrum: 3-METHYLCYCLOPENTANONE 2,4-DINITROPHENYLHYDRAZONE
Formula: C12 H15 N4 O4
State: SOLID (OIL MULL)
Class: COBLENTZ
Instrument: Not specified, most likely a prism, grating, or hybrid spectrometer.
Sampling: TRANSMISSION
Resolution: 4
MICROMETERS	TRANSMITTANCE
2.013	0.33
2.05317	0.343
2.09333	0.353
2.1335	0.364
2.17367	0.374
2.21384	0.384
2.254	0.395
2.29417	0.407
2.33434	0.413
2.3745	0.422
2.41467	0.435
2.45484	0.446
2.49501	0.451
2.53517	0.466
2.57534	0.484
2.61551	0.49
2.65567	0.492
2.69584	0.502
2.73601	0.509
2.77618	0.515
2.81634	0.525
2.85651	0.52
2.89668	0.527
2.93685	0.536
2.97701	0.543
3.01718	0.476
3.05735	0.444
3.09751	0.52
3.13768	0.54
3.17785	0.541
3.21802	0.492
3.25818	0.517
3.29835	0.532
3.33852	0.489
3.37868	0.201
3.41885	0.095
3.45902	0.131
3.49919	0.169
3.53935	0.461
3.57952	0.569
3.61969	0.599
3.65985	0.627
3.70002	0.63
3.74019	0.637
3.78036	0.64
3.82052	0.642
3.86069	0.661
3.90086	0.666
3.94102	0.671
3.98119	0.676
4.02136	0.683
4.06153	0.686
4.10169	0.684
4.14186	0.688
4.18203	0.686
4.22219	0.702
4.26236	0.702
4.30253	0.704
4.3427	0.706
4.38286	0.711
4.42303	0.72
4.4632	0.724
4.50337	0.733
4.54353	0.737
4.5837	0.743
4.62387	0.748
4.66403	0.752
4.7042	0.76
4.74437	0.763
4.78454	0.768
4.8247	0.766
4.86487	0.766
4.90504	0.768
4.9452	0.771
4.98537	0.783
5.02554	0.784
5.06571	0.784
5.10587	0.775
5.14604	0.781
5.18621	0.793
5.22637	0.796
5.26654	0.796
5.30671	0.802
5.34688	0.802
5.38704	0.804
5.42721	0.801
5.46738	0.796
5.50754	0.806
5.54771	0.814
5.58788	0.817
5.62805	0.821
5.66821	0.822
5.70838	0.821
5.74855	0.821
5.78871	0.821
5.82888	0.817
5.86905	0.807
5.90922	0.799
5.94938	0.779
5.98955	0.727
6.02972	0.638
6.06989	0.55
6.11005	0.459
6.15022	0.149
6.19039	0.174
6.23055	0.362
6.27072	0.234
6.31089	0.302
6.35106	0.53
6.39122	0.633
6.43139	0.683
6.47156	0.692
6.51172	0.423
6.55189	0.266
6.59206	0.292
6.63223	0.399
6.67239	0.297
6.71256	0.436
6.75273	0.551
6.79289	0.522
6.83306	0.395
6.87323	0.384
6.9134	0.458
6.95356	0.507
6.99373	0.459
7.0339	0.338
7.07406	0.377
7.11423	0.584
7.1544	0.684
7.19457	0.696
7.23473	0.584
7.2749	0.528
7.31507	0.423
7.35524	0.297
7.3954	0.43
7.43557	0.367
7.47574	0.162
7.5159	0.152
7.55607	0.338
7.59624	0.293
7.63641	0.118
7.67657	0.16
7.71674	0.28
7.75691	0.28
7.79707	0.326
7.83724	0.233
7.87741	0.22
7.91758	0.297
7.95774	0.377
7.99791	0.44
8.03808	0.527
8.07824	0.566
8.11841	0.561
8.15858	0.515
8.19875	0.41
8.23891	0.5
8.27908	0.522
8.31925	0.589
8.35941	0.571
8.39958	0.615
8.43975	0.66
8.47992	0.678
8.52008	0.692
8.56025	0.711
8.60042	0.714
8.64058	0.699
8.68075	0.587
8.72092	0.495
8.76109	0.515
8.80125	0.528
8.84142	0.513
8.88159	0.507
8.92176	0.525
8.96192	0.536
9.00209	0.577
9.04226	0.615
9.08242	0.637
9.12259	0.651
9.16276	0.651
9.20293	0.645
9.24309	0.627
9.28326	0.577
9.32343	0.548
9.36359	0.387
9.40376	0.379
9.44393	0.55
9.4841	0.62
9.52426	0.619
9.56443	0.6
9.6046	0.599
9.64476	0.648
9.68493	0.673
9.7251	0.697
9.76527	0.699
9.80543	0.663
9.8456	0.679
9.88577	0.717
9.92593	0.752
9.9661	0.761
10.0063	0.756
10.0464	0.729
10.0866	0.724
10.1268	0.748
10.1669	0.768
10.2071	0.763
10.2473	0.771
10.2874	0.778
10.3276	0.783
10.3678	0.791
10.4079	0.791
10.4481	0.796
10.4883	0.798
10.5284	0.793
10.5686	0.793
10.6088	0.791
10.6489	0.779
10.6891	0.776
10.7293	0.755
10.7694	0.717
10.8096	0.6
10.8498	0.461
10.8899	0.504
10.9301	0.668
10.9703	0.733
11.0104	0.766
11.0506	0.776
11.0908	0.779
11.1309	0.781
11.1711	0.794
11.2113	0.799
11.2515	0.804
11.2916	0.811
11.3318	0.809
11.372	0.809
11.4121	0.811
11.4523	0.807
11.4925	0.802
11.5326	0.796
11.5728	0.778
11.613	0.77
11.6531	0.781
11.6933	0.793
11.7335	0.799
11.7736	0.793
11.8138	0.778
11.854	0.76
11.8941	0.587
11.9343	0.428
11.9745	0.589
12.0146	0.643
12.0548	0.755
12.095	0.786
12.1351	0.801
12.1753	0.811
12.2155	0.821
12.2556	0.821
12.2958	0.822
12.336	0.821
12.3761	0.824
12.4163	0.824
12.4565	0.824
12.4966	0.825
12.5368	0.819
12.577	0.821
12.6171	0.814
12.6573	0.812
12.6975	0.814
12.7376	0.814
12.7778	0.811
12.818	0.801
12.8581	0.793
12.8983	0.789
12.9385	0.794
12.9786	0.789
13.0188	0.789
13.059	0.773
13.0991	0.737
13.1393	0.766
13.1795	0.781
13.2196	0.783
13.2598	0.77
13.3	0.748
13.3401	0.697
13.3803	0.599
13.4205	0.413
13.4606	0.448
13.5008	0.633
13.541	0.701
13.5811	0.729
13.6213	0.74
13.6615	0.74
13.7016	0.715
13.7418	0.669
13.782	0.635
13.8222	0.645
13.8623	0.663
13.9025	0.684
13.9427	0.704
13.9828	0.732
14.023	0.74
14.0632	0.74
14.1033	0.738
14.1435	0.735
14.1837	0.737
14.2238	0.738
14.264	0.737
14.3042	0.725
14.3443	0.715
14.3845	0.712
14.4247	0.702
14.4648	0.696
14.505	0.683
14.5452	0.663
14.5853	0.643
14.6255	0.628
14.6657	0.633
14.7058	0.633
14.746	0.63
14.7862	0.605
14.8263	0.566
14.8665	0.54
14.9067	0.523
14.9468	0.532
14.987	0.568
15.0272	0.604
15.0673	0.609
15.1075	0.617
15.1477	0.61
15.1878	0.61
15.228	0.61
15.2682	0.609
15.3083	0.605
15.3485	0.602
15.3887	0.596
15.4288	0.591
15.469	0.589
