Infrared Spectrum: SODIUM DICHLOROISOCYANURATE
Formula: C3 Cl2 N3 O3 Na
State: SOLID (MINERAL OIL MULL)
Class: COBLENTZ
Instrument: Not specified, most likely a prism, grating, or hybrid spectrometer.
Sampling: TRANSMISSION
Resolution: 4
Origin: WYANDOTTE CHEMICALS CORP., WYANDOTTE, MICHIGAN, USA
MICROMETERS	TRANSMITTANCE
2.046	0.482
2.08579	0.492
2.12558	0.497
2.16537	0.497
2.20517	0.495
2.24496	0.502
2.28475	0.51
2.32454	0.514
2.36433	0.522
2.40412	0.53
2.44392	0.542
2.48371	0.545
2.5235	0.552
2.56329	0.558
2.60308	0.567
2.64287	0.573
2.68266	0.582
2.72246	0.52
2.76225	0.499
2.80204	0.512
2.84183	0.51
2.88162	0.533
2.92141	0.542
2.96121	0.542
3.001	0.548
3.04079	0.547
3.08058	0.537
3.12037	0.514
3.16016	0.517
3.19995	0.522
3.23975	0.509
3.27954	0.482
3.31933	0.409
3.35912	0.092
3.39891	0.044
3.4387	0.056
3.4785	0.089
3.51829	0.122
3.55808	0.51
3.59787	0.575
3.63766	0.59
3.67745	0.621
3.71724	0.645
3.75704	0.665
3.79683	0.691
3.83662	0.699
3.87641	0.713
3.9162	0.728
3.95599	0.739
3.99579	0.739
4.03558	0.741
4.07537	0.746
4.11516	0.762
4.15495	0.762
4.19474	0.774
4.23453	0.779
4.27433	0.772
4.31412	0.767
4.35391	0.772
4.3937	0.796
4.43349	0.824
4.47328	0.829
4.51308	0.824
4.55287	0.855
4.59266	0.854
4.63245	0.867
4.67224	0.875
4.71203	0.885
4.75182	0.895
4.79162	0.903
4.83141	0.913
4.8712	0.928
4.91099	0.93
4.95078	0.928
4.99057	0.932
5.03037	0.941
5.07016	0.93
5.10995	0.946
5.14974	0.953
5.18953	0.953
5.22932	0.95
5.26912	0.94
5.30891	0.94
5.3487	0.925
5.38849	0.9
5.42828	0.892
5.46807	0.862
5.50786	0.822
5.54766	0.724
5.58745	0.643
5.62724	0.47
5.66703	0.338
5.70682	0.227
5.74661	0.194
5.78641	0.17
5.8262	0.147
5.86599	0.109
5.90578	0.116
5.94557	0.119
5.98536	0.135
6.02515	0.135
6.06495	0.122
6.10474	0.106
6.14453	0.091
6.18432	0.081
6.22411	0.096
6.2639	0.117
6.3037	0.145
6.34349	0.177
6.38328	0.2
6.42307	0.237
6.46286	0.27
6.50265	0.301
6.54244	0.333
6.58224	0.354
6.62203	0.31
6.66182	0.333
6.70161	0.351
6.7414	0.331
6.78119	0.23
6.82099	0.145
6.86078	0.15
6.90057	0.154
6.94036	0.194
6.98015	0.225
7.01994	0.215
7.05973	0.169
7.09953	0.187
7.13932	0.232
7.17911	0.263
7.2189	0.222
7.25869	0.184
7.29848	0.238
7.33828	0.248
7.37807	0.228
7.41786	0.169
7.45765	0.124
7.49744	0.111
7.53723	0.116
7.57702	0.102
7.61682	0.092
7.65661	0.082
7.6964	0.081
7.73619	0.094
7.77598	0.112
7.81577	0.147
7.85557	0.195
7.89536	0.257
7.93515	0.296
7.97494	0.336
8.01473	0.371
8.05452	0.366
8.09431	0.422
8.13411	0.452
8.1739	0.459
8.21369	0.446
8.25348	0.482
8.29327	0.509
8.33306	0.52
8.37286	0.547
8.41265	0.555
8.45244	0.555
8.49223	0.567
8.53202	0.578
8.57181	0.577
8.6116	0.533
8.6514	0.545
8.69119	0.557
8.73098	0.615
8.77077	0.638
8.81056	0.651
8.85035	0.658
8.89015	0.663
8.92994	0.658
8.96973	0.665
9.00952	0.674
9.04931	0.684
9.0891	0.688
9.12889	0.684
9.16869	0.678
9.20848	0.679
9.24827	0.671
9.28806	0.65
9.32785	0.585
9.36764	0.509
9.40744	0.558
9.44723	0.585
9.48702	0.55
9.52681	0.53
9.5666	0.631
9.60639	0.673
9.64618	0.681
9.68598	0.691
9.72577	0.693
9.76556	0.696
9.80535	0.699
9.84514	0.708
9.88493	0.711
9.92473	0.714
9.96452	0.716
10.0043	0.718
10.0441	0.718
10.0839	0.718
10.1237	0.718
10.1635	0.718
10.2033	0.718
10.2431	0.714
10.2828	0.708
10.3226	0.713
10.3624	0.718
10.4022	0.723
10.442	0.724
10.4818	0.728
10.5216	0.731
10.5614	0.737
10.6012	0.739
10.641	0.741
10.6808	0.741
10.7206	0.742
10.7603	0.746
10.8001	0.751
10.8399	0.754
10.8797	0.757
10.9195	0.757
10.9593	0.762
10.9991	0.769
11.0389	0.772
11.0787	0.776
11.1185	0.776
11.1583	0.776
11.1981	0.779
11.2378	0.779
11.2776	0.781
11.3174	0.784
11.3572	0.786
11.397	0.789
11.4368	0.791
11.4766	0.791
11.5164	0.791
11.5562	0.792
11.596	0.791
11.6358	0.791
11.6756	0.794
11.7153	0.792
11.7551	0.787
11.7949	0.791
11.8347	0.784
11.8745	0.787
11.9143	0.792
11.9541	0.794
11.9939	0.791
12.0337	0.787
12.0735	0.784
12.1133	0.779
12.1531	0.772
12.1928	0.762
12.2326	0.742
12.2724	0.734
12.3122	0.729
12.352	0.739
12.3918	0.739
12.4316	0.709
12.4714	0.553
12.5112	0.467
12.551	0.56
12.5908	0.64
12.6306	0.658
12.6703	0.502
12.7101	0.334
12.7499	0.401
12.7897	0.519
12.8295	0.587
12.8693	0.606
12.9091	0.588
12.9489	0.618
12.9887	0.648
13.0285	0.676
13.0683	0.673
13.108	0.656
13.1478	0.598
13.1876	0.426
13.2274	0.29
13.2672	0.253
13.307	0.262
13.3468	0.139
13.3866	0.112
13.4264	0.177
13.4662	0.285
13.506	0.374
13.5458	0.47
13.5855	0.533
13.6253	0.575
13.6651	0.597
13.7049	0.532
13.7447	0.451
13.7845	0.467
13.8243	0.533
13.8641	0.475
13.9039	0.333
13.9437	0.29
13.9835	0.263
14.0233	0.218
14.063	0.364
14.1028	0.502
14.1426	0.588
14.1824	0.611
14.2222	0.63
14.262	0.66
14.3018	0.688
14.3416	0.698
14.3814	0.703
14.4212	0.701
14.461	0.713
14.5008	0.719
14.5405	0.724
14.5803	0.718
14.6201	0.721
14.6599	0.721
14.6997	0.718
14.7395	0.716
14.7793	0.718
14.8191	0.718
14.8589	0.716
14.8987	0.718
14.9385	0.719
14.9783	0.711
15.018	0.683
15.0578	0.646
15.0976	0.638
15.1374	0.678
15.1772	0.689
15.217	0.679
15.2568	0.668
15.2966	0.658
15.3364	0.648
15.3762	0.641
15.416	0.636
15.4558	0.628
15.4955	0.618
15.5353	0.613
15.5751	0.605
15.6149	0.6
15.6547	0.595
15.6945	0.588
15.7343	0.582
15.7741	0.58
15.8139	0.568
15.8537	0.555
15.8935	0.557
15.9332	0.548
15.973	0.542
