Infrared Spectrum: 1,5-Pentanediamine, dihydrochloride
Formula: C5 H16 Cl2 N2
State: SOLID (KBr DISC)
Class: COBLENTZ III
Instrument: PERKIN-ELMER 157
Sampling: TRANSMISSION
Resolution: 2
Origin: BRITISH PETROLEUM CO. LTD., ENGLAND
1/CM	TRANSMITTANCE
668	1.0235
677	1.0203
686	1.0125
695	0.9982
704	0.9669
713	0.9521
722	0.9036
731	0.7765
740	0.4654
749	0.577
758	0.8719
767	0.8302
776	0.8223
785	0.8694
794	0.8552
803	0.809
812	0.6505
821	0.1913
830	0.734
839	0.8337
848	0.8364
857	0.8229
866	0.7972
875	0.799
884	0.7766
893	0.7061
902	0.4283
911	0.5427
920	0.4099
929	0.1586
938	0.684
947	0.6371
956	0.6431
965	0.4216
974	0.3013
983	0.3923
992	0.3496
1001	0.1824
1010	0.4432
1019	0.4643
1028	0.4482
1037	0.5672
1046	0.6334
1055	0.6748
1064	0.6797
1073	0.6793
1082	0.6622
1091	0.6457
1100	0.5904
1109	0.4467
1118	0.2174
1127	0.1258
1136	0.4313
1145	0.6057
1154	0.5577
1163	0.517
1172	0.3968
1181	0.1319
1190	0.2994
1199	0.3872
1208	0.5996
1217	0.6257
1226	0.6326
1235	0.6214
1244	0.6
1253	0.5797
1262	0.509
1271	0.5675
1280	0.5556
1289	0.5363
1298	0.4821
1307	0.3957
1316	0.464
1325	0.4689
1334	0.4751
1343	0.4595
1352	0.5186
1361	0.5066
1370	0.4851
1379	0.4367
1388	0.3536
1397	0.2428
1406	0.1332
1415	0.3705
1424	0.3728
1433	0.3225
1442	0.2431
1451	0.1632
1460	0.0451
1469	0.0243
1478	0.0172
1487	0.021
1496	0.0375
1505	0.0624
1514	0.0646
1523	0.1309
1532	0.2548
1541	0.234
1550	0.1644
1559	0.1122
1568	0.0425
1577	0.0409
1586	0.0561
1595	0.0652
1604	0.0671
1613	0.0812
1622	0.2093
1631	0.3038
1640	0.3959
1649	0.4369
1658	0.4647
1667	0.4936
1676	0.5067
1685	0.5154
1694	0.5175
1703	0.5163
1712	0.5116
1721	0.506
1730	0.5002
1739	0.4986
1748	0.4992
1757	0.4996
1766	0.4972
1775	0.4944
1784	0.4912
1793	0.4865
1802	0.4811
1811	0.4731
1820	0.4575
1829	0.449
1838	0.4484
1847	0.4473
1856	0.4445
1865	0.4409
1874	0.4385
1883	0.4368
1892	0.4325
1901	0.4257
1910	0.4152
1919	0.4044
1928	0.3937
1937	0.3816
1946	0.3756
1955	0.3714
1964	0.3398
1973	0.3111
1982	0.3053
1991	0.2956
2000	0.2924
2009	0.292
2018	0.2942
2027	0.3069
2036	0.338
2045	0.3697
2054	0.4061
2063	0.4376
2072	0.4523
2081	0.4646
2090	0.4687
2099	0.4688
2108	0.4682
2117	0.4677
2126	0.4669
2135	0.466
2144	0.4644
2153	0.4585
2162	0.4523
2171	0.4481
2180	0.4451
2189	0.4419
2198	0.4385
2207	0.4342
2216	0.4286
2225	0.4224
2234	0.416
2243	0.4094
2252	0.4019
2261	0.3947
2270	0.3881
2279	0.3813
2288	0.3743
2297	0.3666
2306	0.3597
2315	0.3566
2324	0.3556
2333	0.3449
2342	0.3316
2351	0.3202
2360	0.3057
2369	0.2907
2378	0.2766
2387	0.2616
2396	0.253
2405	0.2483
2414	0.2398
2423	0.2324
2432	0.2272
2441	0.2222
2450	0.2179
2459	0.215
2468	0.1933
2477	0.1836
2486	0.1741
2495	0.164
2504	0.1543
2513	0.1521
2522	0.1557
2531	0.1578
2540	0.1593
2549	0.1591
2558	0.153
2567	0.1384
2576	0.1245
2585	0.1169
2594	0.1153
2603	0.1156
2612	0.116
2621	0.1162
2630	0.1141
2639	0.1036
2648	0.096
2657	0.0911
2666	0.0861
2675	0.0802
2684	0.0733
2693	0.066
2702	0.0582
2711	0.0511
2720	0.0446
2729	0.0405
2738	0.0372
2747	0.0346
2756	0.0301
2765	0.0244
2774	0.0207
2783	0.0181
2792	0.0164
2801	0.0155
2810	0.015
2819	0.0147
2828	0.0145
2837	0.0142
2846	0.014
2855	0.0138
2864	0.0136
2873	0.0134
2882	0.0132
2891	0.013
2900	0.0128
2909	0.0128
2918	0.0128
2927	0.0127
2936	0.0127
2945	0.0127
2954	0.0127
2963	0.0126
2972	0.0126
2981	0.0127
2990	0.0127
2999	0.0128
3008	0.0128
3017	0.0128
3026	0.0128
3035	0.0129
3044	0.0129
3053	0.0129
3062	0.013
3071	0.013
3080	0.0132
3089	0.0136
3098	0.014
3107	0.0144
3116	0.0147
3125	0.0152
3134	0.0157
3143	0.0178
3152	0.021
3161	0.0243
3170	0.0267
3179	0.0286
3188	0.0301
3197	0.0316
3206	0.0322
3215	0.033
3224	0.0336
3233	0.0389
3242	0.0481
3251	0.0618
3260	0.0826
3269	0.1109
3278	0.1436
3287	0.1674
3296	0.1903
3305	0.2063
3314	0.2155
3323	0.2247
3332	0.233
3341	0.2404
3350	0.2464
3359	0.2514
3368	0.2547
3377	0.2565
3386	0.2579
3395	0.2592
3404	0.2604
3413	0.2614
3422	0.2624
3431	0.2633
3440	0.2643
3449	0.265
3458	0.2658
3467	0.2665
3476	0.2673
3485	0.2679
3494	0.2685
3503	0.2691
3512	0.2697
3521	0.2703
3530	0.2768
3539	0.2849
3548	0.2863
3557	0.2867
3566	0.2871
3575	0.2874
3584	0.2875
3593	0.2875
3602	0.2875
3611	0.2875
3620	0.2876
3629	0.2876
3638	0.2875
3647	0.2875
3656	0.2875
3665	0.2875
3674	0.2875
3683	0.2875
3692	0.2874
3701	0.2871
3710	0.2869
3719	0.2868
3728	0.2866
3737	0.2859
3746	0.2835
3755	0.2816
3764	0.2799
3773	0.2782
3782	0.2768
3791	0.2761
3800	0.2753
3809	0.2749
3818	0.2747
3827	0.2746
3836	0.2743
3845	0.2742
3854	0.274
3863	0.2733
3872	0.2719
3881	0.2704
3890	0.2686
3899	0.2668
3908	0.2652
3917	0.2637
3926	0.2623
3935	0.261
3944	0.2598
3953	0.2586
3962	0.2574
3971	0.2563
3980	0.2551
3989	0.2539
3998	0.253
