Infrared Spectrum: 4,4'-METHYLENEDIANILINE DIHYDROCHLORIDE
Formula: C13 H16 Cl2 N2
State: SOLID (KBr PELLET)
Melting point: DECOMPOSES ABOVE 245 C
Class: COBLENTZ
Instrument: Not specified, most likely a prism, grating, or hybrid spectrometer.
Sampling: TRANSMISSION
Resolution: 4
Origin: TENNESSEE EASTMAN COMPANY, RESEARCH LABORATORIES
MICROMETERS	TRANSMITTANCE
2.041	0.809
2.08176	0.811
2.12251	0.813
2.16327	0.815
2.20402	0.818
2.24478	0.82
2.28554	0.821
2.32629	0.823
2.36705	0.825
2.40781	0.828
2.44856	0.832
2.48932	0.833
2.53007	0.837
2.57083	0.839
2.61159	0.84
2.65234	0.845
2.6931	0.832
2.73386	0.717
2.77461	0.611
2.81537	0.551
2.85612	0.5
2.89688	0.486
2.93764	0.568
2.97839	0.645
3.01915	0.69
3.05991	0.684
3.10066	0.631
3.14142	0.527
3.18217	0.4
3.22293	0.297
3.26369	0.186
3.30444	0.16
3.3452	0.126
3.38596	0.123
3.42671	0.13
3.46747	0.125
3.50822	0.119
3.54898	0.136
3.58974	0.159
3.63049	0.196
3.67125	0.27
3.71201	0.321
3.75276	0.354
3.79352	0.354
3.83427	0.301
3.87503	0.195
3.91579	0.243
3.95654	0.393
3.9973	0.501
4.03806	0.592
4.07881	0.647
4.11957	0.684
4.16032	0.724
4.20108	0.75
4.24184	0.753
4.28259	0.765
4.32335	0.787
4.3641	0.811
4.40486	0.818
4.44562	0.815
4.48637	0.813
4.52713	0.825
4.56789	0.835
4.60864	0.844
4.6494	0.842
4.69015	0.847
4.73091	0.852
4.77167	0.854
4.81242	0.847
4.85318	0.837
4.89394	0.837
4.93469	0.827
4.97545	0.811
5.0162	0.796
5.05696	0.791
5.09772	0.784
5.13847	0.777
5.17923	0.77
5.21999	0.77
5.26074	0.797
5.3015	0.815
5.34225	0.832
5.38301	0.842
5.42377	0.845
5.46452	0.851
5.50528	0.854
5.54604	0.856
5.58679	0.863
5.62755	0.873
5.6683	0.875
5.70906	0.875
5.74982	0.875
5.79057	0.873
5.83133	0.868
5.87209	0.851
5.91284	0.856
5.9536	0.844
5.99435	0.823
6.03511	0.782
6.07587	0.75
6.11662	0.719
6.15738	0.599
6.19814	0.587
6.23889	0.738
6.27965	0.672
6.3204	0.47
6.36116	0.513
6.40192	0.619
6.44267	0.708
6.48343	0.719
6.52418	0.441
6.56494	0.22
6.6057	0.155
6.64645	0.256
6.68721	0.501
6.72797	0.609
6.76872	0.722
6.80948	0.768
6.85023	0.773
6.89099	0.667
6.93175	0.765
6.9725	0.784
7.01326	0.823
7.05402	0.852
7.09477	0.859
7.13553	0.866
7.17628	0.875
7.21704	0.875
7.2578	0.876
7.29855	0.883
7.33931	0.885
7.38007	0.885
7.42082	0.886
7.46158	0.883
7.50233	0.823
7.54309	0.794
7.58385	0.828
7.6246	0.809
7.66536	0.837
7.70612	0.856
7.74687	0.864
7.78763	0.866
7.82838	0.868
7.86914	0.869
7.9099	0.869
7.95065	0.869
7.99141	0.864
8.03217	0.861
8.07292	0.861
8.11368	0.861
8.15443	0.857
8.19519	0.847
8.23595	0.787
8.2767	0.635
8.31746	0.712
8.35821	0.803
8.39897	0.785
8.43973	0.797
8.48048	0.823
8.52124	0.832
8.562	0.835
8.60275	0.833
8.64351	0.825
8.68426	0.82
8.72502	0.815
8.76578	0.801
8.80653	0.756
8.84729	0.654
8.88805	0.467
8.9288	0.493
8.96956	0.541
9.01031	0.577
9.05107	0.638
9.09183	0.707
9.13258	0.751
9.17334	0.777
9.2141	0.785
9.25485	0.787
9.29561	0.782
9.33636	0.755
9.37712	0.743
9.41788	0.763
9.45863	0.78
9.49939	0.791
9.54015	0.803
9.5809	0.815
9.62166	0.821
9.66241	0.818
9.70317	0.712
9.74393	0.712
9.78468	0.801
9.82544	0.832
9.8662	0.852
9.90695	0.857
9.94771	0.859
9.98846	0.863
10.0292	0.868
10.07	0.875
10.1107	0.875
10.1515	0.873
10.1922	0.878
10.233	0.876
10.2738	0.861
10.3145	0.861
10.3553	0.869
10.396	0.875
10.4368	0.88
10.4775	0.878
10.5183	0.88
10.5591	0.861
10.5998	0.863
10.6406	0.88
10.6813	0.892
10.7221	0.895
10.7628	0.895
10.8036	0.893
10.8443	0.888
10.8851	0.88
10.9259	0.873
10.9666	0.871
11.0074	0.885
11.0481	0.898
11.0889	0.902
11.1296	0.902
11.1704	0.907
11.2112	0.91
11.2519	0.91
11.2927	0.907
11.3334	0.904
11.3742	0.898
11.4149	0.881
11.4557	0.833
11.4964	0.753
11.5372	0.703
11.578	0.773
11.6187	0.813
11.6595	0.844
11.7002	0.856
11.741	0.859
11.7817	0.859
11.8225	0.859
11.8633	0.854
11.904	0.847
11.9448	0.842
11.9855	0.83
12.0263	0.816
12.067	0.801
12.1078	0.785
12.1485	0.777
12.1893	0.755
12.2301	0.696
12.2708	0.66
12.3116	0.462
12.3523	0.537
12.3931	0.693
12.4338	0.763
12.4746	0.792
12.5153	0.811
12.5561	0.828
12.5969	0.84
12.6376	0.851
12.6784	0.859
12.7191	0.859
12.7599	0.859
12.8006	0.857
12.8414	0.856
12.8822	0.852
12.9229	0.842
12.9637	0.821
13.0044	0.787
13.0452	0.678
13.0859	0.553
13.1267	0.452
13.1674	0.573
13.2082	0.71
13.249	0.77
13.2897	0.799
13.3305	0.818
13.3712	0.833
13.412	0.842
13.4527	0.849
13.4935	0.849
13.5343	0.851
13.575	0.851
13.6158	0.851
13.6565	0.852
13.6973	0.854
13.738	0.854
13.7788	0.856
13.8195	0.856
13.8603	0.856
13.9011	0.856
13.9418	0.857
13.9826	0.857
14.0233	0.854
14.0641	0.851
14.1048	0.845
14.1456	0.839
14.1864	0.828
14.2271	0.821
14.2679	0.82
14.3086	0.813
14.3494	0.794
14.3901	0.779
14.4309	0.772
14.4716	0.773
14.5124	0.782
14.5532	0.791
14.5939	0.797
14.6347	0.801
14.6754	0.804
14.7162	0.806
14.7569	0.806
14.7977	0.806
14.8385	0.806
14.8792	0.801
14.92	0.796
14.9607	0.78
15.0015	0.773
15.0422	0.772
15.083	0.768
15.1237	0.765
15.1645	0.758
15.2053	0.75
15.246	0.743
15.2868	0.734
15.3275	0.729
15.3683	0.724
15.409	0.712
15.4498	0.703
15.4906	0.696
15.5313	0.679
15.5721	0.659
15.6128	0.652
15.6536	0.648
15.6943	0.647
15.7351	0.648
15.7758	0.652
15.8166	0.652
15.8574	0.652
15.8981	0.652
15.9389	0.652
15.9796	0.652
