Infrared Spectrum: CUPRIC PHOSPHATE, TRIBASIC
Formula: Cu3 ( P O4)2  * 3 H2 O
State: SOLID (NUJOL MULL)
Class: COBLENTZ
Instrument: Not specified, most likely a prism, grating, or hybrid spectrometer.
Sampling: TRANSMISSION
Resolution: 4
Origin: MELLON INSTITUTE
MICROMETERS	TRANSMITTANCE
2.028	0.831
2.06795	0.838
2.1079	0.848
2.14785	0.854
2.1878	0.861
2.22775	0.869
2.2677	0.869
2.30765	0.851
2.3476	0.858
2.38755	0.864
2.4275	0.878
2.46745	0.881
2.5074	0.893
2.54735	0.898
2.5873	0.898
2.62725	0.901
2.6672	0.904
2.70715	0.899
2.7471	0.884
2.78705	0.819
2.827	0.762
2.86695	0.727
2.9069	0.704
2.94685	0.691
2.9868	0.689
3.02675	0.704
3.0667	0.721
3.10665	0.739
3.1466	0.757
3.18655	0.786
3.22651	0.803
3.26646	0.811
3.30641	0.752
3.34636	0.337
3.38631	0.058
3.42626	0.141
3.46621	0.166
3.50616	0.373
3.54611	0.797
3.58606	0.886
3.62601	0.914
3.66596	0.909
3.70591	0.918
3.74586	0.919
3.78581	0.926
3.82576	0.934
3.86571	0.943
3.90566	0.953
3.94561	0.959
3.98556	0.961
4.02551	0.963
4.06546	0.964
4.10541	0.966
4.14536	0.966
4.18531	0.966
4.22526	0.956
4.26521	0.941
4.30516	0.936
4.34511	0.931
4.38506	0.934
4.42501	0.951
4.46496	0.956
4.50491	0.956
4.54486	0.958
4.58481	0.944
4.62476	0.949
4.66471	0.948
4.70466	0.951
4.74461	0.949
4.78456	0.948
4.82451	0.949
4.86446	0.946
4.90441	0.941
4.94436	0.939
4.98431	0.939
5.02426	0.938
5.06421	0.938
5.10416	0.941
5.14411	0.938
5.18406	0.931
5.22401	0.929
5.26396	0.928
5.30391	0.916
5.34386	0.931
5.38381	0.923
5.42376	0.916
5.46371	0.911
5.50366	0.908
5.54361	0.903
5.58356	0.903
5.62352	0.903
5.66347	0.896
5.70342	0.896
5.74337	0.884
5.78332	0.883
5.82327	0.879
5.86322	0.871
5.90317	0.863
5.94312	0.846
5.98307	0.829
6.02302	0.808
6.06297	0.796
6.10292	0.772
6.14287	0.752
6.18282	0.744
6.22277	0.744
6.26272	0.741
6.30267	0.737
6.34262	0.732
6.38257	0.727
6.42252	0.722
6.46247	0.719
6.50242	0.716
6.54237	0.714
6.58232	0.716
6.62227	0.716
6.66222	0.716
6.70217	0.711
6.74212	0.696
6.78207	0.641
6.82202	0.435
6.86197	0.387
6.90192	0.398
6.94187	0.489
6.98182	0.609
7.02177	0.676
7.06172	0.702
7.10167	0.734
7.14162	0.744
7.18157	0.737
7.22152	0.644
7.26147	0.559
7.30142	0.612
7.34137	0.676
7.38132	0.707
7.42127	0.704
7.46122	0.706
7.50117	0.711
7.54112	0.694
7.58107	0.676
7.62102	0.664
7.66097	0.651
7.70092	0.642
7.74087	0.639
7.78082	0.639
7.82077	0.641
7.86072	0.642
7.90067	0.641
7.94062	0.646
7.98057	0.654
8.02053	0.651
8.06048	0.657
8.10043	0.666
8.14038	0.676
8.18033	0.684
8.22028	0.687
8.26023	0.684
8.30018	0.676
8.34013	0.669
8.38008	0.651
8.42003	0.619
8.45998	0.58
8.49993	0.524
8.53988	0.485
8.57983	0.424
8.61978	0.375
8.65973	0.34
8.69968	0.303
8.73963	0.282
8.77958	0.275
8.81953	0.282
8.85948	0.277
8.89943	0.253
8.93938	0.222
8.97933	0.188
9.01928	0.155
9.05923	0.141
9.09918	0.135
9.13913	0.135
9.17908	0.133
9.21903	0.126
9.25898	0.12
9.29893	0.115
9.33888	0.111
9.37883	0.111
9.41878	0.115
9.45873	0.123
9.49868	0.13
9.53863	0.135
9.57858	0.138
9.61853	0.14
9.65848	0.14
9.69843	0.136
9.73838	0.126
9.77833	0.116
9.81828	0.106
9.85823	0.101
9.89818	0.105
9.93813	0.111
9.97808	0.128
10.018	0.141
10.058	0.15
10.0979	0.175
10.1379	0.213
10.1778	0.238
10.2178	0.253
10.2577	0.257
10.2977	0.25
10.3376	0.207
10.3776	0.191
10.4175	0.188
10.4575	0.198
10.4974	0.227
10.5374	0.257
10.5773	0.267
10.6173	0.255
10.6572	0.227
10.6972	0.202
10.7371	0.186
10.7771	0.178
10.817	0.176
10.857	0.191
10.8969	0.228
10.9369	0.268
10.9768	0.295
11.0168	0.318
11.0567	0.34
11.0967	0.357
11.1366	0.368
11.1766	0.377
11.2165	0.382
11.2565	0.385
11.2964	0.38
11.3364	0.382
11.3763	0.367
11.4163	0.378
11.4562	0.377
11.4962	0.36
11.5361	0.363
11.5761	0.368
11.616	0.362
11.656	0.357
11.6959	0.355
11.7359	0.363
11.7758	0.357
11.8158	0.363
11.8557	0.363
11.8957	0.37
11.9356	0.38
11.9756	0.392
12.0155	0.397
12.0555	0.402
12.0954	0.407
12.1354	0.41
12.1753	0.415
12.2153	0.422
12.2552	0.43
12.2952	0.439
12.3351	0.449
12.3751	0.459
12.415	0.465
12.455	0.472
12.4949	0.482
12.5349	0.497
12.5748	0.505
12.6148	0.52
12.6547	0.525
12.6947	0.54
12.7346	0.557
12.7746	0.567
12.8145	0.574
12.8545	0.584
12.8944	0.595
12.9344	0.602
12.9743	0.612
13.0143	0.622
13.0542	0.629
13.0942	0.639
13.1341	0.651
13.1741	0.661
13.214	0.669
13.254	0.674
13.2939	0.681
13.3339	0.689
13.3738	0.694
13.4138	0.701
13.4537	0.702
13.4937	0.704
13.5336	0.711
13.5736	0.711
13.6135	0.711
13.6535	0.716
13.6934	0.717
13.7334	0.721
13.7733	0.719
13.8133	0.719
13.8532	0.719
13.8932	0.722
13.9331	0.727
13.9731	0.737
14.0131	0.742
14.053	0.751
14.093	0.744
14.1329	0.746
14.1729	0.751
14.2128	0.752
14.2528	0.757
14.2927	0.762
14.3327	0.762
14.3726	0.757
14.4126	0.756
14.4525	0.756
14.4925	0.742
14.5324	0.746
14.5724	0.747
14.6123	0.739
14.6523	0.717
14.6922	0.729
14.7322	0.719
14.7721	0.719
14.8121	0.719
14.852	0.717
14.892	0.714
14.9319	0.706
14.9719	0.697
15.0118	0.686
15.0518	0.674
15.0917	0.664
15.1317	0.656
15.1716	0.642
15.2116	0.634
15.2515	0.616
15.2915	0.601
15.3314	0.585
15.3714	0.574
15.4113	0.565
15.4513	0.557
15.4912	0.552
15.5312	0.55
15.5711	0.552
15.6111	0.557
15.651	0.56
15.691	0.557
15.7309	0.557
15.7709	0.559
15.8108	0.56
15.8508	0.56
15.8907	0.565
15.9307	0.565
15.9706	0.57
