Infrared Spectrum: Oxanilic acid, 2-tert-butyl-, ethyl ester
Formula: C14 H19 N O3
State: LIQUID (NEAT)
Class: COBLENTZ III
Instrument: BECKMAN IR-4 (HYBRID PRISM-GRATING)
Instrument parameters: NaCl PRISM
Sampling: TRANSMISSION
Path length: CAPILLARY
Resolution: 2
Origin: MONSANTO (J. FREEMAN)
1/CM	TRANSMITTANCE
626.607	0.8295
635.694	0.829
644.781	0.8346
653.868	0.8317
662.955	0.8402
672.042	0.8513
681.13	0.8663
690.217	0.8836
699.304	0.9228
708.391	0.9352
717.478	0.9399
726.565	0.905
735.652	0.8301
744.739	0.8146
753.826	0.5216
762.913	0.6049
772.001	0.7917
781.088	0.8654
790.175	0.8997
799.262	0.9087
808.349	0.9126
817.436	0.9156
826.523	0.914
835.61	0.842
844.697	0.8424
853.784	0.8755
862.872	0.8628
871.959	0.8966
881.046	0.9402
890.133	0.9601
899.22	0.9635
908.307	0.9587
917.394	0.9367
926.481	0.872
935.568	0.8749
944.655	0.8895
953.743	0.9002
962.83	0.9429
971.917	0.9479
981.004	0.9404
990.091	0.9155
999.178	0.823
1008.27	0.6497
1017.35	0.6061
1026.44	0.7845
1035.53	0.9068
1044.61	0.8886
1053.7	0.7997
1062.79	0.9401
1071.87	0.941
1080.96	0.9006
1090.05	0.8305
1099.14	0.864
1108.22	0.84
1117.31	0.8658
1126.4	0.7766
1135.48	0.8603
1144.57	0.7758
1153.66	0.546
1162.75	0.4494
1171.83	0.3904
1180.92	0.5163
1190.01	0.7166
1199.09	0.8143
1208.18	0.7849
1217.27	0.6804
1226.36	0.6589
1235.44	0.7031
1244.53	0.6679
1253.62	0.5759
1262.7	0.5301
1271.79	0.3497
1280.88	0.335
1289.97	0.2577
1299.05	0.2407
1308.14	0.3741
1317.23	0.6045
1326.31	0.8063
1335.4	0.8576
1344.49	0.8737
1353.57	0.8697
1362.66	0.6939
1371.75	0.6028
1380.84	0.8157
1389.92	0.759
1399.01	0.7657
1408.1	0.8497
1417.18	0.8504
1426.27	0.8251
1435.36	0.6765
1444.45	0.4558
1453.53	0.502
1462.62	0.6277
1471.71	0.5917
1480.79	0.5897
1489.88	0.6801
1498.97	0.6181
1508.06	0.5043
1517.14	0.4221
1526.23	0.3402
1535.32	0.329
1544.4	0.538
1553.49	0.7407
1562.58	0.8364
1571.67	0.7019
1580.75	0.5514
1589.84	0.7849
1598.93	0.8314
1608.01	0.8661
1617.1	0.8758
1626.19	0.8824
1635.28	0.8857
1644.36	0.8829
1653.45	0.8675
1662.54	0.8361
1671.62	0.7775
1680.71	0.6486
1689.8	0.5061
1698.88	0.3911
1707.97	0.1965
1717.06	0.1169
1726.15	0.2047
1735.23	0.3694
1744.32	0.5325
1753.41	0.6224
1762.49	0.5793
1771.58	0.706
1780.67	0.8521
1789.76	0.8808
1798.84	0.8917
1807.93	0.9004
1817.02	0.9074
1826.1	0.9135
1835.19	0.9192
1844.28	0.9242
1853.37	0.928
1862.45	0.931
1871.54	0.934
1880.63	0.9353
1889.71	0.9361
1898.8	0.9368
1907.89	0.9375
1916.98	0.938
1926.06	0.9376
1935.15	0.9373
1944.24	0.9379
1953.32	0.9388
1962.41	0.9402
1971.5	0.9435
1980.58	0.9444
1989.67	0.9441
1998.76	0.9441
2007.85	0.9441
2016.93	0.944
2026.02	0.944
2035.11	0.944
2044.19	0.9439
2053.28	0.9439
2062.37	0.9436
2071.46	0.9433
2080.54	0.9419
2089.63	0.9425
2098.72	0.9422
2107.8	0.9419
2116.89	0.9416
2125.98	0.9413
2135.07	0.9409
2144.15	0.9406
2153.24	0.9402
2162.33	0.9399
2171.41	0.9395
2180.5	0.9392
2189.59	0.939
2198.68	0.9387
2207.76	0.9385
2216.85	0.9383
2225.94	0.9381
2235.02	0.9379
2244.11	0.9376
2253.2	0.9374
2262.28	0.9372
2271.37	0.937
2280.46	0.9367
2289.55	0.9365
2298.63	0.9363
2307.72	0.9361
2316.81	0.9359
2325.89	0.9357
2334.98	0.9355
2344.07	0.9353
2353.16	0.9351
2362.24	0.9349
2371.33	0.9347
2380.42	0.9345
2389.5	0.9343
2398.59	0.9343
2407.68	0.9342
2416.77	0.9341
2425.85	0.934
2434.94	0.934
2444.03	0.9339
2453.11	0.9338
2462.2	0.9337
2471.29	0.9337
2480.38	0.9331
2489.46	0.9326
2498.55	0.9321
2507.64	0.9315
2516.72	0.931
2525.81	0.9305
2534.9	0.93
2543.99	0.9295
2553.07	0.929
2562.16	0.9284
2571.25	0.9278
2580.33	0.9271
2589.42	0.9263
2598.51	0.9256
2607.59	0.9251
2616.68	0.9244
2625.77	0.9236
2634.86	0.923
2643.94	0.9223
2653.03	0.9217
2662.12	0.9205
2671.2	0.9192
2680.29	0.9181
2689.38	0.9168
2698.47	0.9156
2707.55	0.9144
2716.64	0.9133
2725.73	0.912
2734.81	0.9109
2743.9	0.9097
2752.99	0.9083
2762.08	0.9066
2771.16	0.9048
2780.25	0.903
2789.34	0.9014
2798.42	0.8997
2807.51	0.8944
2816.6	0.8879
2825.69	0.8681
2834.77	0.8425
2843.86	0.8181
2852.95	0.7918
2862.03	0.7719
2871.12	0.7546
2880.21	0.7406
2889.29	0.7279
2898.38	0.7164
2907.47	0.7041
2916.56	0.6917
2925.64	0.6681
2934.73	0.6482
2943.82	0.6267
2952.9	0.5994
2961.99	0.5688
2971.08	0.5387
2980.17	0.5086
2989.25	0.4935
2998.34	0.5192
3007.43	0.6225
3016.51	0.7253
3025.6	0.8108
3034.69	0.8261
3043.78	0.8324
3052.86	0.8369
3061.95	0.8403
3071.04	0.8438
3080.12	0.8479
3089.21	0.8523
3098.3	0.8578
3107.39	0.8631
3116.47	0.868
3125.56	0.8728
3134.65	0.877
3143.73	0.8785
3152.82	0.8788
3161.91	0.8771
3170.99	0.875
3180.08	0.8712
3189.17	0.8665
3198.26	0.8607
3207.34	0.8533
3216.43	0.8454
3225.52	0.8377
3234.6	0.8288
3243.69	0.8203
3252.78	0.8136
3261.87	0.8071
3270.95	0.8016
3280.04	0.7976
3289.13	0.7936
3298.21	0.7917
3307.3	0.7907
3316.39	0.7895
3325.48	0.789
3334.56	0.7889
3343.65	0.7758
3352.74	0.7553
3361.82	0.7349
3370.91	0.7147
3380	0.6945
3389.09	0.6745
3398.17	0.6546
3407.26	0.6354
3416.35	0.6301
3425.43	0.655
3434.52	0.7252
3443.61	0.795
3452.69	0.8429
3461.78	0.8524
3470.87	0.8591
3479.96	0.8633
3489.04	0.8669
3498.13	0.8692
3507.22	0.871
3516.3	0.8727
3525.39	0.8745
3534.48	0.8759
3543.57	0.8769
3552.65	0.8779
3561.74	0.8788
3570.83	0.8798
3579.91	0.8803
3589	0.8805
3598.09	0.8807
3607.18	0.8808
3616.26	0.881
3625.35	0.8812
3634.44	0.8814
3643.52	0.8815
3652.61	0.8814
3661.7	0.8811
3670.79	0.8809
3679.87	0.8806
3688.96	0.8803
3698.05	0.8801
3707.13	0.8798
3716.22	0.8795
3725.31	0.8793
3734.4	0.8789
3743.48	0.8786
3752.57	0.8783
3761.66	0.8779
3770.74	0.8775
3779.83	0.8772
3788.92	0.8769
3798	0.8766
3807.09	0.8763
3816.18	0.8759
3825.27	0.8756
3834.35	0.8753
3843.44	0.8749
3852.53	0.8746
3861.61	0.8742
3870.7	0.8738
3879.79	0.8734
3888.88	0.873
3897.96	0.8725
3907.05	0.8722
3916.14	0.8718
3925.22	0.8714
3934.31	0.871
3943.4	0.8705
3952.49	0.8702
3961.57	0.8697
3970.66	0.8692
3979.75	0.8686
3988.83	0.8681
3997.92	0.8676
4007.01	0.867
4016.1	0.8665
4025.18	0.866
