Infrared Spectrum: COPPER SELENATE, PENTAHYDRATE
Formula: Cu Se O4  * 5 H2 O
State: SOLID (NUJOL MULL)
Class: COBLENTZ
Instrument: Not specified, most likely a prism, grating, or hybrid spectrometer.
Sampling: TRANSMISSION
Resolution: 4
Origin: MELLON INSTITUTE
MICROMETERS	TRANSMITTANCE
2.053	0.974
2.09389	0.982
2.13478	0.984
2.17567	0.984
2.21656	0.993
2.25746	0.984
2.29835	0.948
2.33924	0.952
2.38013	0.957
2.42102	0.957
2.46191	0.972
2.5028	0.979
2.54369	0.974
2.58459	0.976
2.62548	0.981
2.66637	0.986
2.70726	0.962
2.74815	0.864
2.78904	0.75
2.82993	0.614
2.87082	0.523
2.91172	0.482
2.95261	0.44
2.9935	0.458
3.03439	0.47
3.07528	0.464
3.11617	0.453
3.15706	0.465
3.19795	0.488
3.23884	0.513
3.27974	0.488
3.32063	0.191
3.36152	0.097
3.40241	0.181
3.4433	0.162
3.48419	0.448
3.52508	0.714
3.56597	0.799
3.60687	0.835
3.64776	0.849
3.68865	0.863
3.72954	0.878
3.77043	0.893
3.81132	0.905
3.85221	0.914
3.8931	0.928
3.934	0.94
3.97489	0.952
4.01578	0.96
4.05667	0.964
4.09756	0.965
4.13845	0.969
4.17934	0.943
4.22023	0.919
4.26112	0.916
4.30202	0.916
4.34291	0.945
4.3838	0.965
4.42469	0.969
4.46558	0.967
4.50647	0.97
4.54736	0.974
4.58825	0.974
4.62915	0.981
4.67004	0.982
4.71093	0.989
4.75182	0.993
4.79271	0.996
4.8336	0.998
4.87449	1.001
4.91538	1.003
4.95628	1.006
4.99717	1.008
5.03806	1.01
5.07895	1.013
5.11984	1.017
5.16073	1.022
5.20162	1.025
5.24251	1.022
5.2834	1.023
5.3243	1.022
5.36519	1.022
5.40608	1.022
5.44697	1.018
5.48786	1.01
5.52875	1.015
5.56964	1.02
5.61053	1.015
5.65143	1.011
5.69232	1
5.73321	0.994
5.7741	0.988
5.81499	0.989
5.85588	0.964
5.89677	0.952
5.93766	0.945
5.97856	0.931
6.01945	0.9
6.06034	0.883
6.10123	0.851
6.14212	0.837
6.18301	0.847
6.2239	0.775
6.26479	0.732
6.30569	0.83
6.34658	0.854
6.38747	0.885
6.42836	0.893
6.46925	0.914
6.51014	0.912
6.55103	0.909
6.59192	0.912
6.63281	0.909
6.67371	0.912
6.7146	0.878
6.75549	0.758
6.79638	0.474
6.83727	0.421
6.87816	0.489
6.91905	0.602
6.95994	0.734
7.00084	0.851
7.04173	0.892
7.08262	0.921
7.12351	0.924
7.1644	0.878
7.20529	0.684
7.24618	0.602
7.28707	0.72
7.32797	0.808
7.36886	0.861
7.40975	0.885
7.45064	0.902
7.49153	0.921
7.53242	0.929
7.57331	0.933
7.6142	0.933
7.65509	0.931
7.69599	0.936
7.73688	0.941
7.77777	0.945
7.81866	0.953
7.85955	0.958
7.90044	0.962
7.94133	0.964
7.98222	0.974
8.02312	0.972
8.06401	0.977
8.1049	0.979
8.14579	0.981
8.18668	0.984
8.22757	0.984
8.26846	0.979
8.30935	0.982
8.35025	0.982
8.39114	0.984
8.43203	0.979
8.47292	0.97
8.51381	0.969
8.5547	0.969
8.59559	0.969
8.63648	0.974
8.67737	0.976
8.71827	0.981
8.75916	0.979
8.80005	0.981
8.84094	0.986
8.88183	0.993
8.92272	0.984
8.96361	0.979
9.0045	0.976
9.0454	0.976
9.08629	0.981
9.12718	0.984
9.16807	0.991
9.20896	0.994
9.24985	0.993
9.29074	0.993
9.33163	0.988
9.37253	0.982
9.41342	0.981
9.45431	0.965
9.4952	0.962
9.53609	0.958
9.57698	0.967
9.61787	0.965
9.65876	0.972
9.69965	0.979
9.74055	0.979
9.78144	0.981
9.82233	0.982
9.86322	0.976
9.90411	0.977
9.945	0.974
9.98589	0.969
10.0268	0.964
10.0677	0.965
10.1086	0.965
10.1495	0.955
10.1903	0.952
10.2312	0.941
10.2721	0.931
10.313	0.926
10.3539	0.916
10.3948	0.905
10.4357	0.904
10.4766	0.897
10.5175	0.885
10.5584	0.866
10.5993	0.83
10.6402	0.799
10.681	0.741
10.7219	0.671
10.7628	0.643
10.8037	0.623
10.8446	0.618
10.8855	0.618
10.9264	0.619
10.9673	0.621
11.0082	0.625
11.0491	0.623
11.09	0.616
11.1308	0.602
11.1717	0.594
11.2126	0.57
11.2535	0.554
11.2944	0.539
11.3353	0.522
11.3762	0.501
11.4171	0.484
11.458	0.474
11.4989	0.453
11.5398	0.441
11.5807	0.433
11.6215	0.428
11.6624	0.429
11.7033	0.44
11.7442	0.446
11.7851	0.452
11.826	0.472
11.8669	0.491
11.9078	0.534
11.9487	0.556
11.9896	0.58
12.0305	0.621
12.0713	0.65
12.1122	0.672
12.1531	0.684
12.194	0.7
12.2349	0.708
12.2758	0.714
12.3167	0.72
12.3576	0.72
12.3985	0.72
12.4394	0.719
12.4803	0.712
12.5211	0.707
12.562	0.702
12.6029	0.691
12.6438	0.69
12.6847	0.683
12.7256	0.679
12.7665	0.667
12.8074	0.657
12.8483	0.654
12.8892	0.654
12.9301	0.654
12.971	0.654
13.0118	0.652
13.0527	0.654
13.0936	0.655
13.1345	0.662
13.1754	0.664
13.2163	0.678
13.2572	0.686
13.2981	0.695
13.339	0.702
13.3799	0.71
13.4208	0.715
13.4616	0.72
13.5025	0.726
13.5434	0.736
13.5843	0.743
13.6252	0.746
13.6661	0.751
13.707	0.76
13.7479	0.761
13.7888	0.758
13.8297	0.765
13.8706	0.773
13.9114	0.784
13.9523	0.799
13.9932	0.816
14.0341	0.825
14.075	0.835
14.1159	0.842
14.1568	0.852
14.1977	0.859
14.2386	0.864
14.2795	0.871
14.3204	0.878
14.3613	0.883
14.4021	0.885
14.443	0.888
14.4839	0.892
14.5248	0.892
14.5657	0.888
14.6066	0.888
14.6475	0.888
14.6884	0.883
14.7293	0.875
14.7702	0.876
14.8111	0.866
14.8519	0.857
14.8928	0.866
14.9337	0.875
14.9746	0.866
15.0155	0.863
15.0564	0.863
15.0973	0.854
15.1382	0.854
15.1791	0.84
15.22	0.837
15.2609	0.832
15.3017	0.825
15.3426	0.821
15.3835	0.821
15.4244	0.82
15.4653	0.815
15.5062	0.811
15.5471	0.806
15.588	0.801
15.6289	0.799
15.6698	0.796
15.7107	0.787
15.7516	0.78
15.7924	0.775
15.8333	0.773
15.8742	0.768
15.9151	0.765
15.956	0.753
15.9969	0.753
