Infrared Spectrum: CIS-POLYBUTADIENE
Formula: C4 H6 X2
State: SOLUTION (CS2)
Class: COBLENTZ
Instrument: Not specified, most likely a prism, grating, or hybrid spectrometer.
Sampling: TRANSMISSION
Path length: SMEAR
Resolution: 4
Origin: WYANDOTTE CHEMICALS CORP., WYANDOTTE, MICHIGAN, USA
MICROMETERS	TRANSMITTANCE
2.04	0.961
2.07987	0.943
2.11973	0.947
2.1596	0.95
2.19947	0.938
2.23933	0.85
2.2792	0.85
2.31907	0.844
2.35894	0.872
2.3988	0.885
2.43867	0.89
2.47854	0.899
2.5184	0.903
2.55827	0.908
2.59814	0.925
2.638	0.917
2.67787	0.92
2.71774	0.918
2.75761	0.908
2.79747	0.899
2.83734	0.887
2.87721	0.879
2.91707	0.872
2.95694	0.869
2.99681	0.867
3.03667	0.862
3.07654	0.849
3.11641	0.862
3.15628	0.864
3.19614	0.857
3.23601	0.812
3.27588	0.599
3.31574	0.114
3.35561	0.142
3.39548	0.091
3.43534	0.087
3.47521	0.11
3.51508	0.105
3.55495	0.284
3.59481	0.617
3.63468	0.733
3.67455	0.793
3.71441	0.812
3.75428	0.836
3.79415	0.824
3.83401	0.832
3.87388	0.864
3.91375	0.887
3.95362	0.884
3.99348	0.885
4.03335	0.877
4.07322	0.89
4.11308	0.892
4.15295	0.9
4.19282	0.915
4.23268	0.92
4.27255	0.892
4.31242	0.88
4.35229	0.902
4.39215	0.925
4.43202	0.942
4.47189	0.922
4.51175	0.915
4.55162	0.92
4.59149	0.923
4.63135	0.93
4.67122	0.935
4.71109	0.933
4.75095	0.933
4.79082	0.937
4.83069	0.938
4.87056	0.927
4.91042	0.91
4.95029	0.908
4.99016	0.913
5.03002	0.923
5.06989	0.912
5.10976	0.9
5.14962	0.895
5.18949	0.882
5.22936	0.895
5.26923	0.907
5.30909	0.92
5.34896	0.928
5.38883	0.928
5.42869	0.93
5.46856	0.91
5.50843	0.894
5.54829	0.885
5.58816	0.889
5.62803	0.884
5.6679	0.877
5.70776	0.852
5.74763	0.789
5.7875	0.773
5.82736	0.73
5.86723	0.693
5.9071	0.68
5.94696	0.683
5.98683	0.596
6.0267	0.389
6.06657	0.533
6.10643	0.677
6.1463	0.754
6.18617	0.779
6.22603	0.736
6.2659	0.784
6.30577	0.798
6.34563	0.817
6.3855	0.831
6.42537	0.847
6.46524	0.827
6.5051	0.836
6.54497	0.826
6.58484	0.821
6.6247	0.806
6.66457	0.774
6.70444	0.745
6.7443	0.663
6.78417	0.521
6.82404	0.213
6.86391	0.14
6.90377	0.158
6.94364	0.168
6.98351	0.256
7.02337	0.443
7.06324	0.498
7.10311	0.35
7.14297	0.44
7.18284	0.645
7.22271	0.718
7.26257	0.736
7.30244	0.751
7.34231	0.748
7.38218	0.75
7.42204	0.74
7.46191	0.703
7.50178	0.625
7.54164	0.539
7.58151	0.43
7.62138	0.336
7.66124	0.367
7.70111	0.549
7.74098	0.663
7.78085	0.67
7.82071	0.649
7.86058	0.594
7.90045	0.546
7.94031	0.556
7.98018	0.579
8.02005	0.559
8.05991	0.415
8.09978	0.488
8.13965	0.584
8.17952	0.599
8.21938	0.587
8.25925	0.581
8.29912	0.582
8.33898	0.609
8.37885	0.637
8.41872	0.65
8.45858	0.657
8.49845	0.653
8.53832	0.645
8.57819	0.65
8.61805	0.673
8.65792	0.687
8.69779	0.713
8.73765	0.746
8.77752	0.774
8.81739	0.789
8.85725	0.789
8.89712	0.783
8.93699	0.768
8.97686	0.751
9.01672	0.738
9.05659	0.723
9.09646	0.703
9.13632	0.69
9.17619	0.66
9.21606	0.639
9.25592	0.625
9.29579	0.61
9.33566	0.605
9.37553	0.596
9.41539	0.584
9.45526	0.562
9.49513	0.549
9.53499	0.538
9.57486	0.536
9.61473	0.523
9.65459	0.511
9.69446	0.491
9.73433	0.453
9.77419	0.435
9.81406	0.422
9.85393	0.417
9.8938	0.42
9.93366	0.413
9.97353	0.349
10.0134	0.276
10.0533	0.246
10.0931	0.271
10.133	0.311
10.1729	0.339
10.2127	0.364
10.2526	0.38
10.2925	0.377
10.3323	0.365
10.3722	0.365
10.4121	0.397
10.4519	0.443
10.4918	0.486
10.5317	0.514
10.5715	0.551
10.6114	0.577
10.6513	0.602
10.6911	0.617
10.731	0.627
10.7709	0.637
10.8107	0.647
10.8506	0.645
10.8905	0.591
10.9303	0.495
10.9702	0.389
11.0101	0.392
11.0499	0.476
11.0898	0.592
11.1297	0.653
11.1695	0.68
11.2094	0.698
11.2493	0.698
11.2891	0.693
11.329	0.692
11.3689	0.688
11.4087	0.685
11.4486	0.683
11.4885	0.68
11.5283	0.68
11.5682	0.68
11.6081	0.675
11.6479	0.663
11.6878	0.652
11.7277	0.63
11.7675	0.617
11.8074	0.605
11.8473	0.609
11.8871	0.615
11.927	0.62
11.9669	0.61
12.0067	0.594
12.0466	0.587
12.0865	0.582
12.1263	0.582
12.1662	0.592
12.2061	0.592
12.2459	0.589
12.2858	0.592
12.3257	0.596
12.3655	0.599
12.4054	0.6
12.4453	0.6
12.4851	0.599
12.525	0.591
12.5649	0.572
12.6048	0.544
12.6446	0.509
12.6845	0.463
12.7244	0.417
12.7642	0.372
12.8041	0.341
12.844	0.326
12.8838	0.317
12.9237	0.319
12.9636	0.326
13.0034	0.331
13.0433	0.332
13.0832	0.322
13.123	0.302
13.1629	0.276
13.2028	0.236
13.2426	0.203
13.2825	0.165
13.3224	0.15
13.3622	0.134
13.4021	0.129
13.442	0.124
13.4818	0.12
13.5217	0.119
13.5616	0.119
13.6014	0.119
13.6413	0.122
13.6812	0.122
13.721	0.124
13.7609	0.129
13.8008	0.132
13.8406	0.135
13.8805	0.139
13.9204	0.144
13.9602	0.149
14.0001	0.153
14.04	0.157
14.0798	0.165
14.1197	0.168
14.1596	0.173
14.1994	0.177
14.2393	0.187
14.2792	0.19
14.319	0.195
14.3589	0.2
14.3988	0.21
14.4386	0.215
14.4785	0.221
14.5184	0.233
14.5582	0.238
14.5981	0.25
14.638	0.259
14.6778	0.268
14.7177	0.281
14.7576	0.298
14.7974	0.309
14.8373	0.322
14.8772	0.339
14.917	0.349
14.9569	0.369
14.9968	0.38
15.0366	0.415
15.0765	0.44
15.1164	0.453
15.1562	0.456
15.1961	0.46
15.236	0.48
15.2758	0.491
15.3157	0.511
15.3556	0.529
15.3954	0.538
15.4353	0.552
15.4752	0.569
15.515	0.579
15.5549	0.587
15.5948	0.6
15.6346	0.604
15.6745	0.61
15.7144	0.619
15.7542	0.625
15.7941	0.627
15.834	0.637
15.8738	0.642
15.9137	0.647
15.9536	0.65
