Infrared Spectrum: CALCIUM CARBONATE
Formula: Ca C O3
State: SOLID (NUJOL MULL)
Class: COBLENTZ
Instrument: Not specified, most likely a prism, grating, or hybrid spectrometer.
Sampling: TRANSMISSION
Resolution: 4
Origin: MELLON INSTITUTE
MICROMETERS	TRANSMITTANCE
2.024	0.796
2.06497	0.79
2.10594	0.788
2.1469	0.79
2.18787	0.791
2.22884	0.788
2.26981	0.786
2.31077	0.786
2.35174	0.788
2.39271	0.79
2.43368	0.79
2.47464	0.791
2.51561	0.793
2.55658	0.793
2.59755	0.795
2.63851	0.796
2.67948	0.795
2.72045	0.795
2.76142	0.793
2.80238	0.791
2.84335	0.79
2.88432	0.788
2.92529	0.788
2.96626	0.784
3.00722	0.779
3.04819	0.774
3.08916	0.774
3.13013	0.779
3.17109	0.783
3.21206	0.79
3.25303	0.791
3.294	0.753
3.33496	0.5
3.37593	0.414
3.4169	0.511
3.45787	0.531
3.49883	0.753
3.5398	0.805
3.58077	0.833
3.62174	0.846
3.6627	0.851
3.70367	0.855
3.74464	0.855
3.78561	0.851
3.82657	0.851
3.86754	0.848
3.90851	0.839
3.94948	0.826
3.99045	0.833
4.03141	0.851
4.07238	0.853
4.11335	0.855
4.15432	0.855
4.19528	0.851
4.23625	0.839
4.27722	0.834
4.31819	0.833
4.35915	0.833
4.40012	0.833
4.44109	0.836
4.48206	0.841
4.52302	0.843
4.56399	0.846
4.60496	0.846
4.64593	0.843
4.68689	0.845
4.72786	0.845
4.76883	0.846
4.8098	0.851
4.85077	0.851
4.89173	0.851
4.9327	0.853
4.97367	0.855
5.01464	0.857
5.0556	0.862
5.09657	0.864
5.13754	0.867
5.17851	0.867
5.21947	0.87
5.26044	0.87
5.30141	0.872
5.34238	0.872
5.38334	0.874
5.42431	0.874
5.46528	0.877
5.50625	0.881
5.54721	0.882
5.58818	0.857
5.62915	0.865
5.67012	0.886
5.71109	0.891
5.75205	0.891
5.79302	0.895
5.83399	0.9
5.87496	0.9
5.91592	0.9
5.95689	0.895
5.99786	0.893
6.03883	0.888
6.07979	0.884
6.12076	0.879
6.16173	0.877
6.2027	0.869
6.24366	0.85
6.28463	0.831
6.3256	0.802
6.36657	0.75
6.40753	0.703
6.4485	0.597
6.48947	0.549
6.53044	0.473
6.5714	0.401
6.61237	0.327
6.65334	0.223
6.69431	0.148
6.73528	0.103
6.77624	0.077
6.81721	0.067
6.85818	0.051
6.89915	0.034
6.94011	0.029
6.98108	0.032
7.02205	0.034
7.06302	0.048
7.10398	0.108
7.14495	0.206
7.18592	0.313
7.22689	0.426
7.26785	0.528
7.30882	0.605
7.34979	0.669
7.39076	0.703
7.43172	0.733
7.47269	0.753
7.51366	0.771
7.55463	0.784
7.5956	0.8
7.63656	0.812
7.67753	0.824
7.7185	0.831
7.75947	0.838
7.80043	0.845
7.8414	0.853
7.88237	0.857
7.92334	0.865
7.9643	0.87
8.00527	0.876
8.04624	0.877
8.08721	0.881
8.12817	0.884
8.16914	0.888
8.21011	0.889
8.25108	0.891
8.29204	0.891
8.33301	0.891
8.37398	0.893
8.41495	0.893
8.45592	0.895
8.49688	0.895
8.53785	0.893
8.57882	0.893
8.61979	0.893
8.66075	0.895
8.70172	0.895
8.74269	0.896
8.78366	0.9
8.82462	0.9
8.86559	0.901
8.90656	0.901
8.94753	0.901
8.98849	0.903
9.02946	0.903
9.07043	0.903
9.1114	0.903
9.15236	0.903
9.19333	0.905
9.2343	0.905
9.27527	0.905
9.31624	0.905
9.3572	0.905
9.39817	0.905
9.43914	0.907
9.48011	0.907
9.52107	0.907
9.56204	0.908
9.60301	0.91
9.64398	0.912
9.68494	0.912
9.72591	0.912
9.76688	0.913
9.80785	0.915
9.84881	0.915
9.88978	0.915
9.93075	0.915
9.97172	0.915
10.0127	0.919
10.0537	0.917
10.0946	0.917
10.1356	0.919
10.1766	0.92
10.2175	0.92
10.2585	0.919
10.2995	0.92
10.3404	0.92
10.3814	0.922
10.4224	0.922
10.4633	0.922
10.5043	0.922
10.5453	0.922
10.5862	0.924
10.6272	0.924
10.6682	0.922
10.7091	0.924
10.7501	0.922
10.7911	0.924
10.832	0.924
10.873	0.924
10.914	0.924
10.9549	0.924
10.9959	0.924
11.0369	0.925
11.0778	0.925
11.1188	0.925
11.1598	0.924
11.2007	0.915
11.2417	0.886
11.2827	0.752
11.3236	0.609
11.3646	0.45
11.4056	0.426
11.4466	0.49
11.4875	0.66
11.5285	0.808
11.5695	0.855
11.6104	0.889
11.6514	0.901
11.6924	0.907
11.7333	0.91
11.7743	0.915
11.8153	0.922
11.8562	0.924
11.8972	0.924
11.9382	0.927
11.9791	0.931
12.0201	0.932
12.0611	0.934
12.102	0.932
12.143	0.934
12.184	0.934
12.2249	0.934
12.2659	0.934
12.3069	0.934
12.3478	0.934
12.3888	0.934
12.4298	0.934
12.4707	0.932
12.5117	0.931
12.5527	0.931
12.5936	0.931
12.6346	0.929
12.6756	0.927
12.7165	0.925
12.7575	0.924
12.7985	0.922
12.8394	0.919
12.8804	0.915
12.9214	0.912
12.9624	0.907
13.0033	0.907
13.0443	0.905
13.0853	0.903
13.1262	0.903
13.1672	0.9
13.2082	0.898
13.2491	0.895
13.2901	0.891
13.3311	0.886
13.372	0.884
13.413	0.879
13.454	0.876
13.4949	0.872
13.5359	0.867
13.5769	0.862
13.6178	0.855
13.6588	0.846
13.6998	0.839
13.7407	0.833
13.7817	0.824
13.8227	0.808
13.8636	0.788
13.9046	0.722
13.9456	0.662
13.9865	0.659
14.0275	0.702
14.0685	0.731
14.1094	0.748
14.1504	0.752
14.1914	0.755
14.2323	0.753
14.2733	0.753
14.3143	0.75
14.3553	0.743
14.3962	0.738
14.4372	0.734
14.4782	0.731
14.5191	0.726
14.5601	0.719
14.6011	0.71
14.642	0.705
14.683	0.7
14.724	0.695
14.7649	0.691
14.8059	0.69
14.8469	0.686
14.8878	0.685
14.9288	0.679
14.9698	0.674
15.0107	0.669
15.0517	0.669
15.0927	0.666
15.1336	0.666
15.1746	0.662
15.2156	0.657
15.2565	0.655
15.2975	0.654
15.3385	0.654
15.3794	0.652
15.4204	0.652
15.4614	0.652
15.5023	0.65
15.5433	0.652
15.5843	0.654
15.6252	0.654
15.6662	0.657
15.7072	0.66
15.7482	0.662
15.7891	0.667
15.8301	0.672
15.8711	0.676
15.912	0.679
15.953	0.685
