Infrared Spectrum: O-NITRO CARBANILIC ACID, CITRONELLOL ESTER
Formula: C17 H24 N2 O4
Class: COBLENTZ
Instrument: Not specified, most likely a grating spectrometer.
Sampling: TRANSMISSION
Path length: CAPILLARY
Resolution: 4
Origin: CITRUS EXPERIMENT STATION, UNIVERSITY OF FLORIDA (G. EDWARDS)
MICROMETERS	TRANSMITTANCE
2.033	0.909
2.06613	0.91
2.09925	0.914
2.13238	0.917
2.16551	0.917
2.19864	0.913
2.23176	0.91
2.26489	0.91
2.29802	0.91
2.33115	0.91
2.36427	0.909
2.3974	0.906
2.43053	0.904
2.46366	0.902
2.49678	0.901
2.52991	0.9
2.56304	0.9
2.59617	0.898
2.62929	0.898
2.66242	0.898
2.69555	0.898
2.72868	0.897
2.7618	0.897
2.79493	0.892
2.82806	0.88
2.86119	0.861
2.89431	0.835
2.92744	0.772
2.96057	0.801
2.9937	0.878
3.02682	0.896
3.05995	0.894
3.09308	0.89
3.12621	0.882
3.15933	0.868
3.19246	0.856
3.22559	0.852
3.25872	0.821
3.29184	0.776
3.32497	0.622
3.3581	0.587
3.39123	0.614
3.42435	0.7
3.45748	0.746
3.49061	0.833
3.52374	0.892
3.55686	0.9
3.58999	0.902
3.62312	0.904
3.65625	0.908
3.68937	0.909
3.7225	0.909
3.75563	0.904
3.78876	0.905
3.82188	0.909
3.85501	0.91
3.88814	0.91
3.92127	0.909
3.95439	0.909
3.98752	0.909
4.02065	0.908
4.05378	0.906
4.0869	0.909
4.12003	0.909
4.15316	0.905
4.18629	0.905
4.21941	0.909
4.25254	0.91
4.28567	0.912
4.3188	0.912
4.35192	0.91
4.38505	0.914
4.41818	0.912
4.45131	0.913
4.48443	0.913
4.51756	0.914
4.55069	0.914
4.58382	0.916
4.61694	0.914
4.65007	0.916
4.6832	0.918
4.71633	0.916
4.74945	0.916
4.78258	0.916
4.81571	0.918
4.84884	0.92
4.88196	0.92
4.91509	0.92
4.94822	0.92
4.98135	0.918
5.01447	0.916
5.0476	0.906
5.08073	0.905
5.11386	0.905
5.14698	0.906
5.18011	0.905
5.21324	0.904
5.24637	0.902
5.27949	0.902
5.31262	0.9
5.34575	0.886
5.37888	0.875
5.412	0.871
5.44513	0.863
5.47826	0.856
5.51139	0.847
5.54451	0.82
5.57764	0.796
5.61077	0.707
5.6439	0.635
5.67702	0.489
5.71015	0.529
5.74328	0.672
5.77641	0.764
5.80953	0.819
5.84266	0.82
5.87579	0.82
5.90892	0.811
5.94204	0.808
5.97517	0.796
6.0083	0.769
6.04143	0.744
6.07455	0.735
6.10768	0.676
6.14081	0.57
6.17394	0.482
6.20706	0.597
6.24019	0.598
6.27332	0.457
6.30645	0.594
6.33957	0.691
6.3727	0.651
6.40583	0.59
6.43896	0.533
6.47208	0.486
6.50521	0.429
6.53834	0.339
6.57147	0.341
6.60459	0.385
6.63772	0.461
6.67085	0.583
6.70398	0.632
6.7371	0.587
6.77023	0.511
6.80336	0.45
6.83649	0.444
6.86961	0.456
6.90274	0.436
6.93587	0.452
6.969	0.526
7.00212	0.614
7.03525	0.682
7.06838	0.694
7.10151	0.696
7.13463	0.676
7.16776	0.662
7.20089	0.64
7.23402	0.651
7.26714	0.667
7.30027	0.636
7.3334	0.594
7.36653	0.476
7.39965	0.319
7.43278	0.373
7.46591	0.506
7.49904	0.611
7.53216	0.591
7.56529	0.561
7.59842	0.595
7.63155	0.602
7.66467	0.598
7.6978	0.577
7.73093	0.53
7.76406	0.476
7.79718	0.458
7.83031	0.482
7.86344	0.53
7.89657	0.554
7.92969	0.529
7.96282	0.446
7.99595	0.331
8.02907	0.295
8.0622	0.352
8.09533	0.472
8.12846	0.578
8.16158	0.586
8.19471	0.539
8.22784	0.444
8.26097	0.329
8.29409	0.259
8.32722	0.291
8.36035	0.408
8.39348	0.558
8.4266	0.662
8.45973	0.706
8.49286	0.714
8.52599	0.699
8.55911	0.643
8.59224	0.618
8.62537	0.656
8.6585	0.67
8.69162	0.64
8.72475	0.702
8.75788	0.779
8.79101	0.801
8.82413	0.808
8.85726	0.804
8.89039	0.803
8.92352	0.796
8.95664	0.788
8.98977	0.781
9.0229	0.775
9.05603	0.764
9.08915	0.736
9.12228	0.694
9.15541	0.627
9.18854	0.577
9.22166	0.618
9.25479	0.684
9.28792	0.695
9.32105	0.656
9.35417	0.59
9.3873	0.557
9.42043	0.562
9.45356	0.59
9.48668	0.634
9.51981	0.651
9.55294	0.643
9.58607	0.642
9.61919	0.688
9.65232	0.732
9.68545	0.769
9.71858	0.792
9.7517	0.819
9.78483	0.836
9.81796	0.849
9.85109	0.853
9.88421	0.857
9.91734	0.856
9.95047	0.853
9.9836	0.851
10.0167	0.849
10.0499	0.844
10.083	0.839
10.1161	0.831
10.1492	0.827
10.1824	0.824
10.2155	0.821
10.2486	0.82
10.2817	0.819
10.3149	0.819
10.348	0.815
10.3811	0.812
10.4143	0.812
10.4474	0.819
10.4805	0.828
10.5136	0.837
10.5468	0.848
10.5799	0.851
10.613	0.853
10.6461	0.864
10.6793	0.872
10.7124	0.881
10.7455	0.888
10.7787	0.89
10.8118	0.893
10.8449	0.894
10.878	0.894
10.9112	0.893
10.9443	0.893
10.9774	0.9
11.0105	0.901
11.0437	0.901
11.0768	0.9
11.1099	0.898
11.1431	0.896
11.1762	0.894
11.2093	0.894
11.2424	0.892
11.2756	0.888
11.3087	0.877
11.3418	0.872
11.375	0.864
11.4081	0.845
11.4412	0.821
11.4743	0.792
11.5075	0.747
11.5406	0.699
11.5737	0.707
11.6068	0.755
11.64	0.799
11.6731	0.824
11.7062	0.835
11.7394	0.833
11.7725	0.832
11.8056	0.827
11.8387	0.817
11.8719	0.809
11.905	0.808
11.9381	0.808
11.9712	0.809
12.0044	0.813
12.0375	0.813
12.0706	0.817
12.1038	0.819
12.1369	0.82
12.17	0.824
12.2031	0.832
12.2363	0.837
12.2694	0.841
12.3025	0.841
12.3356	0.837
12.3688	0.835
12.4019	0.833
12.435	0.823
12.4682	0.812
12.5013	0.784
12.5344	0.755
12.5675	0.742
12.6007	0.73
12.6338	0.724
12.6669	0.715
12.7001	0.692
12.7332	0.66
12.7663	0.66
12.7994	0.68
12.8326	0.722
12.8657	0.75
12.8988	0.747
12.9319	0.732
12.9651	0.704
12.9982	0.683
13.0313	0.678
13.0645	0.687
13.0976	0.71
13.1307	0.732
13.1638	0.742
13.197	0.744
13.2301	0.742
13.2632	0.727
13.2963	0.698
13.3295	0.655
13.3626	0.583
13.3957	0.51
13.4289	0.454
13.462	0.437
13.4951	0.454
13.5282	0.509
13.5614	0.567
13.5945	0.634
13.6276	0.676
13.6607	0.703
13.6939	0.723
13.727	0.736
13.7601	0.748
13.7933	0.755
13.8264	0.761
13.8595	0.763
13.8926	0.761
13.9258	0.76
13.9589	0.759
13.992	0.755
14.0251	0.752
14.0583	0.75
14.0914	0.744
14.1245	0.74
14.1577	0.732
14.1908	0.727
14.2239	0.723
14.257	0.716
14.2902	0.708
14.3233	0.698
14.3564	0.69
14.3896	0.675
14.4227	0.656
14.4558	0.634
14.4889	0.619
14.5221	0.619
14.5552	0.622
14.5883	0.622
14.6214	0.617
14.6546	0.606
14.6877	0.598
14.7208	0.59
14.754	0.583
14.7871	0.583
14.8202	0.586
14.8533	0.59
14.8865	0.593
14.9196	0.59
14.9527	0.581
14.9858	0.579
15.019	0.571
