Infrared Spectrum: ETHYLAMINE, 2,2'-DITHIOBIS[N-[(2-BENZYLTHIO)ETHYL]-, DIHYDROCHLORIDE
Formula: C20 H30 Cl2 N2 S4
State: SOLID (1 mg / 650 mg KBr DISC)
Class: COBLENTZ III
Instrument: PERKIN-ELMER 521 (GRATING)
Instrument parameters: FILTERS AT 3150, 2500, 2000, 1150, 700, 410 CM ^-^1, GRATING CHANGES AT 2000, 630 CM ^-^1
Sampling: TRANSMISSION
Resolution: 4
Origin: SOUTHERN RES. INSTITUTE
1/CM	TRANSMITTANCE
247.866	0.351
257.012	0.381
266.159	0.455
275.305	0.54
284.451	0.63
293.598	0.723
302.744	0.772
311.89	0.791
321.037	0.809
330.183	0.831
339.329	0.859
348.476	0.887
357.622	0.907
366.768	0.932
375.915	0.944
385.061	0.947
394.207	0.95
403.354	0.958
412.5	0.958
421.646	0.956
430.793	0.955
439.939	0.954
449.085	0.951
458.232	0.938
467.378	0.818
476.524	0.901
485.671	0.932
494.817	0.93
503.963	0.921
513.11	0.918
522.256	0.954
531.402	0.971
540.549	0.974
549.695	0.976
558.841	0.976
567.988	0.977
577.134	0.977
586.28	0.978
595.427	0.978
604.573	0.966
613.719	0.961
622.866	0.969
632.012	0.965
641.158	0.952
650.305	0.952
659.451	0.942
668.597	0.89
677.743	0.683
686.89	0.461
696.036	0.797
705.182	0.936
714.329	0.894
723.475	0.476
732.621	0.356
741.768	0.808
750.914	0.894
760.06	0.878
769.207	0.872
778.353	0.962
787.499	0.965
796.646	0.957
805.792	0.915
814.938	0.964
824.085	0.946
833.231	0.945
842.377	0.956
851.524	0.945
860.67	0.904
869.816	0.883
878.963	0.902
888.109	0.928
897.255	0.947
906.402	0.955
915.548	0.95
924.694	0.931
933.841	0.898
942.987	0.864
952.133	0.888
961.28	0.924
970.426	0.866
979.572	0.885
988.719	0.842
997.865	0.871
1007.01	0.882
1016.16	0.72
1025.3	0.815
1034.45	0.85
1043.6	0.869
1052.74	0.832
1061.89	0.786
1071.04	0.866
1080.18	0.764
1089.33	0.855
1098.47	0.924
1107.62	0.932
1116.77	0.934
1125.91	0.93
1135.06	0.917
1144.21	0.916
1153.35	0.92
1162.5	0.918
1171.65	0.913
1180.79	0.908
1189.94	0.903
1199.08	0.867
1208.23	0.841
1217.38	0.886
1226.52	0.908
1235.67	0.87
1244.82	0.835
1253.96	0.853
1263.11	0.865
1272.25	0.86
1281.4	0.777
1290.55	0.773
1299.69	0.839
1308.84	0.874
1317.99	0.859
1327.13	0.82
1336.28	0.806
1345.43	0.837
1354.57	0.851
1363.72	0.829
1372.86	0.806
1382.01	0.753
1391.16	0.702
1400.3	0.648
1409.45	0.541
1418.6	0.609
1427.74	0.503
1436.89	0.403
1446.04	0.544
1455.18	0.538
1464.33	0.671
1473.47	0.627
1482.62	0.759
1491.77	0.923
1500.91	0.92
1510.06	0.916
1519.21	0.91
1528.35	0.902
1537.5	0.89
1546.64	0.868
1555.79	0.802
1564.94	0.701
1574.08	0.582
1583.23	0.773
1592.38	0.88
1601.52	0.899
1610.67	0.897
1619.82	0.892
1628.96	0.895
1638.11	0.898
1647.25	0.908
1656.4	0.919
1665.55	0.923
1674.69	0.925
1683.84	0.923
1692.99	0.92
1702.13	0.917
1711.28	0.914
1720.43	0.917
1729.57	0.919
1738.72	0.922
1747.86	0.923
1757.01	0.922
1766.16	0.917
1775.3	0.915
1784.45	0.914
1793.6	0.914
1802.74	0.913
1811.89	0.912
1821.03	0.905
1830.18	0.898
1839.33	0.89
1848.47	0.891
1857.62	0.902
1866.77	0.908
1875.91	0.91
1885.06	0.914
1894.21	0.914
1903.35	0.912
1912.5	0.908
1921.64	0.898
1930.79	0.896
1939.94	0.898
1949.08	0.901
1958.23	0.905
1967.38	0.908
1976.52	0.906
1985.67	0.903
1994.81	0.899
2003.96	0.895
2013.11	0.894
2022.25	0.892
2031.4	0.889
2040.55	0.885
2049.69	0.883
2058.84	0.88
2067.99	0.878
2077.13	0.875
2086.28	0.874
2095.42	0.871
2104.57	0.869
2113.72	0.866
2122.86	0.864
2132.01	0.861
2141.16	0.859
2150.3	0.857
2159.45	0.855
2168.6	0.852
2177.74	0.848
2186.89	0.845
2196.03	0.841
2205.18	0.837
2214.33	0.832
2223.47	0.83
2232.62	0.828
2241.77	0.823
2250.91	0.818
2260.06	0.813
2269.2	0.805
2278.35	0.8
2287.5	0.792
2296.64	0.783
2305.79	0.77
2314.94	0.757
2324.08	0.736
2333.23	0.722
2342.38	0.711
2351.52	0.702
2360.67	0.688
2369.81	0.671
2378.96	0.642
2388.11	0.605
2397.25	0.563
2406.4	0.521
2415.55	0.483
2424.69	0.456
2433.84	0.476
2442.99	0.55
2452.13	0.633
2461.28	0.709
2470.42	0.714
2479.57	0.71
2488.72	0.699
2497.86	0.678
2507.01	0.663
2516.16	0.645
2525.3	0.631
2534.45	0.608
2543.59	0.579
2552.74	0.546
2561.89	0.51
2571.03	0.474
2580.18	0.439
2589.33	0.42
2598.47	0.44
2607.62	0.448
2616.77	0.449
2625.91	0.44
2635.06	0.42
2644.2	0.423
2653.35	0.422
2662.5	0.404
2671.64	0.377
2680.79	0.339
2689.94	0.297
2699.08	0.261
2708.23	0.23
2717.38	0.21
2726.52	0.195
2735.67	0.182
2744.81	0.181
2753.96	0.21
2763.11	0.235
2772.25	0.266
2781.4	0.296
2790.55	0.321
2799.69	0.34
2808.84	0.372
2817.98	0.437
2827.13	0.472
2836.28	0.479
2845.42	0.48
2854.57	0.48
2863.72	0.473
2872.86	0.452
2882.01	0.417
2891.16	0.38
2900.3	0.347
2909.45	0.332
2918.59	0.315
2927.74	0.292
2936.89	0.286
2946.03	0.312
2955.18	0.358
2964.33	0.42
2973.47	0.465
2982.62	0.487
2991.76	0.497
3000.91	0.582
3010.06	0.625
3019.2	0.661
3028.35	0.692
3037.5	0.707
3046.64	0.692
3055.79	0.71
3064.94	0.761
3074.08	0.786
3083.23	0.815
3092.37	0.838
3101.52	0.853
3110.67	0.858
3119.81	0.859
3128.96	0.854
3138.11	0.849
3147.25	0.848
3156.4	0.853
3165.55	0.862
3174.69	0.868
3183.84	0.87
3192.98	0.87
3202.13	0.869
3211.28	0.867
3220.42	0.865
3229.57	0.863
3238.72	0.861
3247.86	0.858
3257.01	0.855
3266.15	0.852
3275.3	0.85
3284.45	0.847
3293.59	0.843
3302.74	0.84
3311.89	0.834
3321.03	0.829
3330.18	0.824
3339.33	0.814
3348.47	0.807
3357.62	0.798
3366.76	0.789
3375.91	0.782
3385.06	0.774
3394.2	0.767
3403.35	0.76
3412.5	0.755
3421.64	0.751
3430.79	0.75
3439.94	0.751
3449.08	0.753
3458.23	0.754
3467.37	0.755
3476.52	0.757
3485.67	0.759
3494.81	0.761
3503.96	0.765
3513.11	0.768
3522.25	0.771
3531.4	0.777
3540.54	0.782
3549.69	0.79
3558.84	0.793
3567.98	0.798
3577.13	0.802
3586.28	0.806
3595.42	0.81
3604.57	0.815
3613.72	0.82
3622.86	0.827
3632.01	0.831
3641.15	0.834
3650.3	0.835
3659.45	0.837
3668.59	0.836
3677.74	0.83
3686.89	0.828
3696.03	0.834
3705.18	0.837
3714.32	0.838
3723.47	0.837
3732.62	0.833
3741.76	0.83
3750.91	0.828
3760.06	0.831
3769.2	0.831
3778.35	0.832
3787.5	0.833
