Infrared Spectrum: 3-AMINO-P-TOLUENE SULFONIC ACID
Formula: C7 H9 O3 S
State: SOLID (MINERAL OIL MULL)
Class: COBLENTZ
Instrument: Not specified, most likely a prism, grating, or hybrid spectrometer.
Sampling: TRANSMISSION
Resolution: 4
Origin: WYANDOTTE CHEMICALS CORP., WYANDOTTE, MICHIGAN, USA
MICROMETERS	TRANSMITTANCE
2.014	0.563
2.05484	0.57
2.09567	0.576
2.13651	0.582
2.17734	0.583
2.21818	0.585
2.25901	0.588
2.29985	0.602
2.34068	0.614
2.38152	0.622
2.42235	0.637
2.46319	0.649
2.50402	0.659
2.54486	0.673
2.58569	0.692
2.62653	0.702
2.66736	0.719
2.7082	0.727
2.74903	0.698
2.78987	0.585
2.8307	0.514
2.87154	0.509
2.91237	0.473
2.95321	0.45
2.99404	0.45
3.03488	0.514
3.07571	0.526
3.11655	0.502
3.15738	0.502
3.19822	0.483
3.23905	0.39
3.27989	0.285
3.32072	0.197
3.36156	0.062
3.40239	0.027
3.44323	0.03
3.48406	0.04
3.5249	0.065
3.56573	0.299
3.60657	0.351
3.6474	0.38
3.68824	0.401
3.72907	0.419
3.76991	0.365
3.81074	0.329
3.85158	0.351
3.89241	0.375
3.93325	0.416
3.97408	0.461
4.01492	0.504
4.05575	0.531
4.09659	0.56
4.13742	0.573
4.17826	0.588
4.21909	0.604
4.25993	0.615
4.30076	0.619
4.3416	0.629
4.38244	0.664
4.42327	0.688
4.46411	0.697
4.50494	0.702
4.54578	0.703
4.58661	0.707
4.62745	0.712
4.66828	0.734
4.70912	0.744
4.74995	0.759
4.79079	0.766
4.83162	0.758
4.87246	0.739
4.91329	0.725
4.95413	0.722
4.99496	0.73
5.0358	0.758
5.07663	0.785
5.11747	0.812
5.1583	0.832
5.19914	0.842
5.23997	0.868
5.28081	0.866
5.32164	0.886
5.36248	0.898
5.40331	0.905
5.44415	0.906
5.48498	0.912
5.52582	0.922
5.56665	0.93
5.60749	0.896
5.64832	0.908
5.68916	0.927
5.72999	0.918
5.77083	0.915
5.81166	0.912
5.8525	0.905
5.89333	0.895
5.93417	0.869
5.975	0.862
6.01584	0.825
6.05667	0.769
6.09751	0.67
6.13834	0.59
6.17918	0.654
6.22001	0.744
6.26085	0.795
6.30168	0.796
6.34252	0.795
6.38335	0.796
6.42419	0.732
6.46502	0.553
6.50586	0.482
6.54669	0.646
6.58753	0.747
6.62836	0.749
6.6692	0.6
6.71004	0.62
6.75087	0.568
6.79171	0.27
6.83254	0.231
6.87338	0.324
6.91421	0.48
6.95505	0.664
6.99588	0.802
7.03672	0.827
7.07755	0.759
7.11839	0.783
7.15922	0.82
7.20006	0.771
7.24089	0.505
7.28173	0.604
7.32256	0.705
7.3634	0.818
7.40423	0.83
7.44507	0.849
7.4859	0.866
7.52674	0.874
7.56757	0.866
7.60841	0.84
7.64924	0.763
7.69008	0.67
7.73091	0.761
7.77175	0.78
7.81258	0.78
7.85342	0.742
7.89425	0.692
7.93509	0.602
7.97592	0.524
8.01676	0.431
8.05759	0.28
8.09843	0.187
8.13926	0.155
8.1801	0.138
8.22093	0.167
8.26177	0.199
8.3026	0.211
8.34344	0.187
8.38427	0.15
8.42511	0.153
8.46594	0.15
8.50678	0.153
8.54761	0.16
8.58845	0.191
8.62928	0.213
8.67012	0.235
8.71095	0.272
8.75179	0.309
8.79262	0.34
8.83346	0.382
8.87429	0.423
8.91513	0.429
8.95596	0.367
8.9968	0.257
9.03764	0.27
9.07847	0.394
9.11931	0.487
9.16014	0.538
9.20098	0.554
9.24181	0.571
9.28265	0.578
9.32348	0.587
9.36432	0.573
9.40515	0.538
9.44599	0.49
9.48682	0.407
9.52766	0.238
9.56849	0.135
9.60933	0.165
9.65016	0.243
9.691	0.291
9.73183	0.358
9.77267	0.438
9.8135	0.514
9.85434	0.571
9.89517	0.604
9.93601	0.573
9.97684	0.526
10.0177	0.568
10.0585	0.61
10.0993	0.648
10.1402	0.654
10.181	0.649
10.2219	0.649
10.2627	0.661
10.3035	0.69
10.3444	0.719
10.3852	0.736
10.426	0.742
10.4669	0.751
10.5077	0.761
10.5485	0.766
10.5894	0.773
10.6302	0.778
10.671	0.785
10.7119	0.788
10.7527	0.798
10.7935	0.81
10.8344	0.812
10.8752	0.815
10.916	0.82
10.9569	0.83
10.9977	0.834
11.0386	0.783
11.0794	0.688
11.1202	0.774
11.1611	0.786
11.2019	0.769
11.2427	0.786
11.2836	0.812
11.3244	0.812
11.3652	0.817
11.4061	0.818
11.4469	0.824
11.4877	0.829
11.5286	0.829
11.5694	0.83
11.6102	0.83
11.6511	0.825
11.6919	0.825
11.7328	0.827
11.7736	0.83
11.8144	0.832
11.8553	0.835
11.8961	0.839
11.9369	0.839
11.9778	0.834
12.0186	0.798
12.0594	0.732
12.1003	0.617
12.1411	0.558
12.1819	0.612
12.2228	0.71
12.2636	0.785
12.3044	0.829
12.3453	0.839
12.3861	0.846
12.4269	0.851
12.4678	0.852
12.5086	0.852
12.5495	0.849
12.5903	0.846
12.6311	0.837
12.672	0.832
12.7128	0.825
12.7536	0.817
12.7945	0.81
12.8353	0.803
12.8761	0.795
12.917	0.786
12.9578	0.781
12.9986	0.774
13.0395	0.768
13.0803	0.766
13.1211	0.768
13.162	0.768
13.2028	0.764
13.2436	0.759
13.2845	0.752
13.3253	0.739
13.3662	0.715
13.407	0.717
13.4478	0.729
13.4887	0.737
13.5295	0.734
13.5703	0.736
13.6112	0.736
13.652	0.734
13.6928	0.729
13.7337	0.734
13.7745	0.727
13.8153	0.72
13.8562	0.715
13.897	0.707
13.9378	0.714
13.9787	0.73
14.0195	0.739
14.0604	0.739
14.1012	0.734
14.142	0.715
14.1829	0.668
14.2237	0.598
14.2645	0.587
14.3054	0.602
14.3462	0.627
14.387	0.632
14.4279	0.615
14.4687	0.593
14.5095	0.561
14.5504	0.51
14.5912	0.461
14.632	0.404
14.6729	0.351
14.7137	0.316
14.7545	0.301
14.7954	0.316
14.8362	0.341
14.8771	0.382
14.9179	0.439
14.9587	0.473
14.9996	0.495
15.0404	0.502
15.0812	0.526
15.1221	0.568
15.1629	0.59
15.2037	0.598
15.2446	0.598
15.2854	0.6
15.3262	0.602
15.3671	0.605
15.4079	0.6
15.4487	0.593
15.4896	0.59
15.5304	0.588
15.5712	0.587
15.6121	0.583
15.6529	0.575
15.6938	0.568
15.7346	0.561
15.7754	0.558
15.8163	0.553
15.8571	0.541
15.8979	0.534
15.9388	0.529
15.9796	0.521
