Infrared Spectrum: PHENANTHRENE-D10
Formula: C14 D10
State: SOLUTION (SATURATED IN HEPTANE)
Class: COBLENTZ
Instrument: Not specified, most likely a prism, grating, or hybrid spectrometer.
Sampling: TRANSMISSION
Path length: 0.05 CM
Resolution: 4
Origin: CENTRE D'ETUDES NUCLEAIRES DE GRENOBLE
MICROMETERS	TRANSMITTANCE
15.048	0.824
15.104	0.829
15.16	0.809
15.2159	0.721
15.2719	0.603
15.3279	0.417
15.3839	0.363
15.4399	0.413
15.4959	0.544
15.5518	0.691
15.6078	0.758
15.6638	0.809
15.7198	0.832
15.7758	0.845
15.8318	0.844
15.8877	0.835
15.9437	0.827
15.9997	0.812
16.0557	0.76
16.1117	0.716
16.1677	0.636
16.2236	0.51
16.2796	0.353
16.3356	0.224
16.3916	0.195
16.4476	0.246
16.5036	0.391
16.5595	0.499
16.6155	0.546
16.6715	0.546
16.7275	0.527
16.7835	0.534
16.8395	0.621
16.8954	0.721
16.9514	0.783
17.0074	0.81
17.0634	0.822
17.1194	0.815
17.1754	0.798
17.2313	0.793
17.2873	0.802
17.3433	0.805
17.3993	0.8
17.4553	0.79
17.5113	0.765
17.5672	0.698
17.6232	0.631
17.6792	0.517
17.7352	0.361
17.7912	0.236
17.8472	0.174
17.9031	0.197
17.9591	0.286
18.0151	0.413
18.0711	0.562
18.1271	0.673
18.1831	0.748
18.239	0.8
18.295	0.824
18.351	0.844
18.407	0.859
18.463	0.867
18.519	0.874
18.5749	0.881
18.6309	0.886
18.6869	0.882
18.7429	0.874
18.7989	0.869
18.8549	0.869
18.9108	0.871
18.9668	0.877
19.0228	0.884
19.0788	0.889
19.1348	0.894
19.1908	0.896
19.2467	0.899
19.3027	0.899
19.3587	0.899
19.4147	0.897
19.4707	0.892
19.5267	0.896
19.5826	0.894
19.6386	0.896
19.6946	0.897
19.7506	0.897
19.8066	0.897
19.8626	0.901
19.9185	0.901
19.9745	0.899
20.0305	0.897
20.0865	0.897
20.1425	0.899
20.1985	0.901
20.2544	0.904
20.3104	0.906
20.3664	0.909
20.4224	0.909
20.4784	0.911
20.5344	0.911
20.5903	0.911
20.6463	0.911
20.7023	0.911
20.7583	0.909
20.8143	0.909
20.8703	0.907
20.9262	0.906
20.9822	0.904
21.0382	0.901
21.0942	0.899
21.1502	0.897
21.2062	0.897
21.2621	0.897
21.3181	0.897
21.3741	0.897
21.4301	0.897
21.4861	0.897
21.5421	0.897
21.598	0.897
21.654	0.897
21.71	0.892
21.766	0.886
21.822	0.874
21.8779	0.864
21.9339	0.86
21.9899	0.864
22.0459	0.867
22.1019	0.871
22.1579	0.871
22.2138	0.869
22.2698	0.867
22.3258	0.865
22.3818	0.855
22.4378	0.835
22.4938	0.819
22.5497	0.797
22.6057	0.777
22.6617	0.718
22.7177	0.656
22.7737	0.613
22.8297	0.581
22.8856	0.552
22.9416	0.551
22.9976	0.574
23.0536	0.616
23.1096	0.685
23.1656	0.715
23.2215	0.748
23.2775	0.773
23.3335	0.802
23.3895	0.83
23.4455	0.847
23.5015	0.854
23.5574	0.859
23.6134	0.867
23.6694	0.871
23.7254	0.874
23.7814	0.877
23.8374	0.881
23.8933	0.882
23.9493	0.881
24.0053	0.879
24.0613	0.876
24.1173	0.855
24.1733	0.845
24.2292	0.819
24.2852	0.8
24.3412	0.762
24.3972	0.735
24.4532	0.73
24.5092	0.75
24.5651	0.775
24.6211	0.795
24.6771	0.824
24.7331	0.844
24.7891	0.859
24.8451	0.862
24.901	0.862
24.957	0.864
25.013	0.869
25.069	0.869
25.125	0.86
25.181	0.855
25.2369	0.859
25.2929	0.85
25.3489	0.829
25.4049	0.815
25.4609	0.81
25.5169	0.8
25.5728	0.797
25.6288	0.793
25.6848	0.79
25.7408	0.783
25.7968	0.778
25.8528	0.772
25.9087	0.763
25.9647	0.752
26.0207	0.728
26.0767	0.706
26.1327	0.654
26.1887	0.628
26.2446	0.559
26.3006	0.504
26.3566	0.45
26.4126	0.366
26.4686	0.306
26.5246	0.249
26.5805	0.214
26.6365	0.195
26.6925	0.209
26.7485	0.244
26.8045	0.303
26.8605	0.375
26.9164	0.438
26.9724	0.482
27.0284	0.562
27.0844	0.641
27.1404	0.68
27.1964	0.71
27.2523	0.753
27.3083	0.775
27.3643	0.8
27.4203	0.81
27.4763	0.82
27.5323	0.832
27.5882	0.849
27.6442	0.854
27.7002	0.855
27.7562	0.864
27.8122	0.867
27.8682	0.871
27.9241	0.879
27.9801	0.882
28.0361	0.884
28.0921	0.887
28.1481	0.884
28.2041	0.884
28.26	0.887
28.316	0.887
28.372	0.889
28.428	0.891
28.484	0.886
28.5399	0.884
28.5959	0.891
28.6519	0.896
28.7079	0.897
28.7639	0.897
28.8199	0.897
28.8758	0.897
28.9318	0.897
28.9878	0.899
29.0438	0.899
29.0998	0.902
29.1558	0.904
29.2117	0.904
29.2677	0.907
29.3237	0.907
29.3797	0.906
29.4357	0.906
29.4917	0.904
29.5476	0.904
29.6036	0.904
29.6596	0.904
29.7156	0.907
29.7716	0.909
29.8276	0.909
29.8835	0.906
29.9395	0.904
29.9955	0.906
30.0515	0.909
30.1075	0.916
30.1635	0.917
30.2194	0.914
30.2754	0.911
30.3314	0.909
30.3874	0.911
30.4434	0.912
30.4994	0.916
30.5553	0.912
30.6113	0.912
30.6673	0.912
30.7233	0.914
30.7793	0.916
30.8353	0.917
30.8912	0.919
30.9472	0.917
31.0032	0.916
31.0592	0.916
31.1152	0.917
31.1712	0.917
31.2271	0.917
31.2831	0.919
31.3391	0.919
31.3951	0.919
31.4511	0.919
31.5071	0.919
31.563	0.916
31.619	0.914
31.675	0.917
31.731	0.917
31.787	0.921
31.843	0.914
31.8989	0.916
31.9549	0.917
32.0109	0.916
32.0669	0.917
32.1229	0.921
32.1789	0.922
32.2348	0.926
32.2908	0.922
32.3468	0.914
32.4028	0.919
32.4588	0.924
32.5148	0.924
32.5707	0.921
32.6267	0.917
32.6827	0.917
32.7387	0.914
32.7947	0.911
32.8507	0.911
32.9066	0.919
32.9626	0.914
33.0186	0.921
33.0746	0.922
33.1306	0.921
33.1866	0.916
33.2425	0.919
33.2985	0.917
33.3545	0.914
33.4105	0.916
33.4665	0.914
33.5225	0.917
33.5784	0.916
33.6344	0.924
33.6904	0.912
33.7464	0.919
33.8024	0.926
33.8584	0.926
33.9143	0.922
33.9703	0.921
34.0263	0.921
34.0823	0.924
34.1383	0.917
34.1943	0.919
34.2502	0.921
34.3062	0.919
34.3622	0.916
34.4182	0.919
34.4742	0.922
34.5302	0.922
34.5861	0.914
34.6421	0.917
34.6981	0.916
34.7541	0.914
34.8101	0.911
34.8661	0.912
34.922	0.907
34.978	0.906
35.034	0.907
