Infrared Spectrum: 9,10-DIBROMO ANTHRACENE
Formula: C14 H8 Br2
State: SOLID (MINERAL OIL MULL)
Melting point: 223-225 C
Class: COBLENTZ
Instrument: Not specified, most likely a prism, grating, or hybrid spectrometer.
Sampling: TRANSMISSION
Resolution: 4
Origin: WYANDOTTE CHEMICALS CORP., WYANDOTTE, MICHIGAN, USA
MICROMETERS	TRANSMITTANCE
2.022	0.379
2.06193	0.369
2.10185	0.382
2.14178	0.379
2.1817	0.387
2.22163	0.394
2.26156	0.401
2.30148	0.408
2.34141	0.433
2.38133	0.423
2.42126	0.448
2.46118	0.463
2.50111	0.469
2.54104	0.476
2.58096	0.489
2.62089	0.521
2.66081	0.53
2.70074	0.536
2.74067	0.545
2.78059	0.55
2.82052	0.571
2.86044	0.583
2.90037	0.588
2.94029	0.585
2.98022	0.583
3.02015	0.578
3.06007	0.586
3.1	0.596
3.13992	0.607
3.17985	0.61
3.21978	0.62
3.2597	0.62
3.29963	0.565
3.33955	0.471
3.37948	0.058
3.4194	0.01
3.45933	0.013
3.49926	0.023
3.53918	0.071
3.57911	0.23
3.61903	0.285
3.65896	0.289
3.69889	0.282
3.73881	0.292
3.77874	0.289
3.81866	0.306
3.85859	0.312
3.89851	0.326
3.93844	0.339
3.97837	0.346
4.01829	0.349
4.05822	0.359
4.09814	0.372
4.13807	0.371
4.178	0.371
4.21792	0.382
4.25785	0.377
4.29777	0.357
4.3377	0.367
4.37762	0.376
4.41755	0.411
4.45748	0.409
4.4974	0.414
4.53733	0.431
4.57725	0.438
4.61718	0.443
4.65711	0.441
4.69703	0.454
4.73696	0.459
4.77688	0.471
4.81681	0.479
4.85673	0.483
4.89666	0.486
4.93659	0.494
4.97651	0.5
5.01644	0.506
5.05636	0.511
5.09629	0.52
5.13622	0.526
5.17614	0.518
5.21607	0.505
5.25599	0.501
5.29592	0.523
5.33585	0.543
5.37577	0.558
5.4157	0.571
5.45562	0.558
5.49555	0.57
5.53547	0.553
5.5754	0.545
5.61533	0.553
5.65525	0.575
5.69518	0.586
5.7351	0.585
5.77503	0.588
5.81496	0.575
5.85488	0.548
5.89481	0.545
5.93473	0.565
5.97466	0.591
6.01458	0.603
6.05451	0.596
6.09444	0.615
6.13436	0.553
6.17429	0.57
6.21421	0.571
6.25414	0.6
6.29407	0.618
6.33399	0.618
6.37392	0.618
6.41384	0.645
6.45377	0.622
6.49369	0.642
6.53362	0.586
6.57355	0.571
6.61347	0.586
6.6534	0.59
6.69332	0.563
6.73325	0.498
6.77318	0.332
6.8131	0.102
6.85303	0.105
6.89295	0.16
6.93288	0.204
6.9728	0.302
7.01273	0.464
7.05266	0.58
7.09258	0.608
7.13251	0.625
7.17243	0.603
7.21236	0.461
7.25229	0.242
7.29221	0.294
7.33214	0.404
7.37206	0.575
7.41199	0.551
7.45191	0.598
7.49184	0.625
7.53177	0.642
7.57169	0.688
7.61162	0.719
7.65154	0.531
7.69147	0.245
7.7314	0.553
7.77132	0.63
7.81125	0.665
7.85117	0.662
7.8911	0.645
7.93103	0.498
7.97095	0.085
8.01088	0.324
8.0508	0.489
8.09073	0.588
8.13065	0.63
8.17058	0.648
8.21051	0.662
8.25043	0.67
8.29036	0.687
8.33028	0.672
8.37021	0.682
8.41014	0.7
8.45006	0.725
8.48999	0.725
8.52991	0.722
8.56984	0.707
8.60976	0.607
8.64969	0.672
8.68962	0.668
8.72954	0.678
8.76947	0.739
8.80939	0.762
8.84932	0.774
8.88925	0.787
8.92917	0.794
8.9691	0.806
9.00902	0.802
9.04895	0.809
9.08887	0.812
9.1288	0.802
9.16873	0.812
9.20865	0.804
9.24858	0.802
9.2885	0.806
9.32843	0.801
9.36836	0.814
9.40828	0.821
9.44821	0.821
9.48813	0.826
9.52806	0.827
9.56798	0.832
9.60791	0.827
9.64784	0.839
9.68776	0.801
9.72769	0.501
9.76761	0.7
9.80754	0.789
9.84747	0.804
9.88739	0.822
9.92732	0.839
9.96724	0.844
10.0072	0.847
10.0471	0.852
10.087	0.857
10.1269	0.851
10.1669	0.842
10.2068	0.817
10.2467	0.811
10.2866	0.787
10.3266	0.821
10.3665	0.841
10.4064	0.816
10.4464	0.749
10.4863	0.814
10.5262	0.794
10.5661	0.847
10.6061	0.903
10.646	0.904
10.6859	0.933
10.7258	0.939
10.7658	0.889
10.8057	0.479
10.8456	0.055
10.8855	0.197
10.9255	0.357
10.9654	0.566
11.0053	0.66
11.0452	0.704
11.0852	0.732
11.1251	0.742
11.165	0.764
11.2049	0.785
11.2449	0.787
11.2848	0.782
11.3247	0.779
11.3646	0.799
11.4046	0.826
11.4445	0.841
11.4844	0.821
11.5244	0.794
11.5643	0.822
11.6042	0.847
11.6441	0.859
11.6841	0.816
11.724	0.802
11.7639	0.829
11.8038	0.864
11.8438	0.834
11.8837	0.663
11.9236	0.775
11.9635	0.724
12.0035	0.772
12.0434	0.861
12.0833	0.886
12.1232	0.891
12.1632	0.894
12.2031	0.904
12.243	0.903
12.2829	0.918
12.3229	0.919
12.3628	0.924
12.4027	0.926
12.4426	0.918
12.4826	0.923
12.5225	0.918
12.5624	0.918
12.6023	0.909
12.6423	0.911
12.6822	0.911
12.7221	0.911
12.7621	0.911
12.802	0.892
12.8419	0.881
12.8818	0.882
12.9218	0.862
12.9617	0.846
13.0016	0.821
13.0415	0.801
13.0815	0.765
13.1214	0.724
13.1613	0.643
13.2012	0.503
13.2412	0.292
13.2811	0.098
13.321	0.083
13.3609	0.065
13.4009	0.033
13.4408	0.028
13.4807	0.071
13.5206	0.198
13.5606	0.329
13.6005	0.446
13.6404	0.533
13.6803	0.581
13.7203	0.628
13.7602	0.645
13.8001	0.633
13.8401	0.65
13.88	0.687
13.9199	0.727
13.9598	0.784
13.9998	0.812
14.0397	0.849
14.0796	0.874
14.1195	0.897
14.1595	0.906
14.1994	0.918
14.2393	0.923
14.2792	0.938
14.3192	0.934
14.3591	0.944
14.399	0.948
14.4389	0.946
14.4789	0.946
14.5188	0.943
14.5587	0.944
14.5986	0.934
14.6386	0.923
14.6785	0.916
14.7184	0.923
14.7583	0.913
14.7983	0.904
14.8382	0.852
14.8781	0.769
14.918	0.702
14.958	0.724
14.9979	0.752
15.0378	0.737
15.0778	0.712
15.1177	0.737
15.1576	0.801
15.1975	0.819
15.2375	0.806
15.2774	0.787
15.3173	0.779
15.3572	0.754
15.3972	0.742
15.4371	0.719
15.477	0.7
15.5169	0.688
15.5569	0.685
15.5968	0.665
15.6367	0.647
15.6766	0.633
15.7166	0.618
15.7565	0.6
15.7964	0.59
15.8363	0.57
15.8763	0.55
15.9162	0.535
15.9561	0.515
15.996	0.496
