Infrared Spectrum: 3-CHLOROQUINUCLIDINE, HYDROCHLORIDE, HYDRATE
Formula: C7 H13 Cl2 N  * H2 O
State: SOLID (SPLIT MULL), FLUOROLUBE FOR 3800-1330 CM^-^1, NUJOL FOR 1330-400 CM^-^1
Class: COBLENTZ III
Instrument: DOW KBr FOREPRISM-GRATING
Instrument parameters: BLAZED AT 3.5, 12.0, 20.0 MICRON AND CHANGED AT 5.0, 7.5, 14.9 MICRON
Sampling: TRANSMISSION
Path length: REFERENCE BEAM ATTENUATED; SLITS WIDER THAN NORMAL 3800-1330
Resolution: 2
Origin: DOW CHEMICAL COMPANY
1/CM	TRANSMITTANCE
384.889	0.694
393.778	0.696
402.667	0.696
411.556	0.7
420.445	0.714
429.334	0.74
438.222	0.757
447.111	0.769
456	0.78
464.889	0.793
473.778	0.804
482.667	0.812
491.556	0.816
500.445	0.816
509.334	0.818
518.223	0.819
527.112	0.819
536	0.818
544.889	0.814
553.778	0.798
562.667	0.812
571.556	0.811
580.445	0.807
589.334	0.8
598.223	0.796
607.112	0.769
616.001	0.586
624.89	0.723
633.778	0.798
642.667	0.798
651.556	0.797
660.445	0.796
669.334	0.782
678.223	0.762
687.112	0.704
696.001	0.604
704.89	0.167
713.779	0.705
722.668	0.711
731.556	0.714
740.445	0.75
749.334	0.775
758.223	0.794
767.112	0.796
776.001	0.797
784.89	0.797
793.779	0.789
802.668	0.679
811.557	0.687
820.446	0.703
829.334	0.595
838.223	0.654
847.112	0.2369
856.001	0.6471
864.89	0.771
873.779	0.805
882.668	0.797
891.557	0.735
900.446	0.5529
909.335	0.5401
918.224	0.794
927.112	0.782
936.001	0.758
944.89	0.696
953.779	0.209
962.668	0.676
971.557	0.575
980.446	0.608
989.335	0.685
998.224	0.732
1007.11	0.761
1016	0.762
1024.89	0.74
1033.78	0.687
1042.67	0.613
1051.56	0.73
1060.45	0.764
1069.33	0.755
1078.22	0.748
1087.11	0.729
1096	0.744
1104.89	0.742
1113.78	0.742
1122.67	0.739
1131.56	0.725
1140.45	0.692
1149.34	0.722
1158.22	0.723
1167.11	0.712
1176	0.693
1184.89	0.668
1193.78	0.632
1202.67	0.689
1211.56	0.683
1220.45	0.658
1229.34	0.647
1238.22	0.643
1247.11	0.621
1256	0.632
1264.89	0.578
1273.78	0.492
1282.67	0.59
1291.56	0.606
1300.45	0.4789
1309.34	0.367
1318.22	0.4101
1327.11	0.4491
1336	0.543
1344.89	0.472
1353.78	0.525
1362.67	0.563
1371.56	0.554
1380.45	0.4959
1389.34	0.533
1398.22	0.561
1407.11	0.547
1416	0.486
1424.89	0.239
1433.78	0.392
1442.67	0.543
1451.56	0.2509
1460.45	0.191
1469.34	0.778
1478.22	0.715
1487.11	0.5741
1496	0.908
1504.89	0.916
1513.78	0.918
1522.67	0.925
1531.56	0.932
1540.45	0.933
1549.34	0.926
1558.22	0.925
1567.11	0.918
1576	0.908
1584.89	0.89
1593.78	0.869
1602.67	0.85
1611.56	0.821
1620.45	0.8
1629.34	0.791
1638.23	0.793
1647.11	0.803
1656	0.811
1664.89	0.816
1673.78	0.823
1682.67	0.833
1691.56	0.843
1700.45	0.851
1709.34	0.854
1718.23	0.85
1727.11	0.84
1736	0.828
1744.89	0.816
1753.78	0.814
1762.67	0.812
1771.56	0.798
1780.45	0.79
1789.34	0.779
1798.23	0.773
1807.11	0.769
1816	0.757
1824.89	0.748
1833.78	0.743
1842.67	0.73
1851.56	0.719
1860.45	0.712
1869.34	0.703
1878.23	0.694
1887.11	0.686
1896	0.676
1904.89	0.665
1913.78	0.661
1922.67	0.647
1931.56	0.633
1940.45	0.622
1949.34	0.617
1958.23	0.608
1967.11	0.601
1976	0.583
1984.89	0.574
1993.78	0.565
2002.67	0.561
2011.56	0.556
2020.45	0.552
2029.34	0.5455
2038.23	0.5371
2047.11	0.5276
2056	0.5191
2064.89	0.5117
2073.78	0.5017
2082.67	0.4942
2091.56	0.4872
2100.45	0.4776
2109.34	0.4706
2118.23	0.4623
2127.12	0.4545
2136	0.4416
2144.89	0.43
2153.78	0.419
2162.67	0.406
2171.56	0.4
2180.45	0.3944
2189.34	0.3871
2198.23	0.3777
2207.12	0.3677
2216	0.3565
2224.89	0.3445
2233.78	0.3342
2242.67	0.3263
2251.56	0.3131
2260.45	0.2973
2269.34	0.2866
2278.23	0.2706
2287.12	0.2594
2296	0.2475
2304.89	0.2297
2313.78	0.2122
2322.67	0.181
2331.56	0.176
2340.45	0.17
2349.34	0.163
2358.23	0.159
2367.12	0.155
2376	0.1508
2384.89	0.1492
2393.78	0.1532
2402.67	0.1478
2411.56	0.1398
2420.45	0.131
2429.34	0.1229
2438.23	0.11
2447.12	0.101
2456	0.091
2464.89	0.08
2473.78	0.073
2482.67	0.0829
2491.56	0.085
2500.45	0.08
2509.34	0.074
2518.23	0.0671
2527.12	0.0631
2536	0.059
2544.89	0.054
2553.78	0.0492
2562.67	0.0423
2571.56	0.041
2580.45	0.0449
2589.34	0.047
2598.23	0.0519
2607.12	0.0744
2616.01	0.095
2624.89	0.0982
2633.78	0.0872
2642.67	0.0738
2651.56	0.089
2660.45	0.102
2669.34	0.1029
2678.23	0.1448
2687.12	0.2216
2696.01	0.2347
2704.89	0.2088
2713.78	0.1629
2722.67	0.14
2731.56	0.1462
2740.45	0.1495
2749.34	0.1434
2758.23	0.1529
2767.12	0.141
2776.01	0.164
2784.89	0.1584
2793.78	0.1269
2802.67	0.1374
2811.56	0.1836
2820.45	0.2394
2829.34	0.3175
2838.23	0.3297
2847.12	0.2386
2856.01	0.1694
2864.89	0.187
2873.78	0.1564
2882.67	0.1129
2891.56	0.1029
2900.45	0.0985
2909.34	0.0805
2918.23	0.0946
2927.12	0.1495
2936.01	0.17
2944.89	0.2054
2953.78	0.209
2962.67	0.1876
2971.56	0.1974
2980.45	0.2479
2989.34	0.3109
2998.23	0.3166
3007.12	0.3631
3016.01	0.3846
3024.89	0.3746
3033.78	0.373
3042.67	0.3804
3051.56	0.386
3060.45	0.389
3069.34	0.391
3078.23	0.389
3087.12	0.3857
3096.01	0.382
3104.9	0.377
3113.78	0.3724
3122.67	0.3667
3131.56	0.36
3140.45	0.3527
3149.34	0.3457
3158.23	0.3387
3167.12	0.3318
3176.01	0.3245
3184.9	0.3185
3193.78	0.3116
3202.67	0.3016
3211.56	0.2888
3220.45	0.2794
3229.34	0.2726
3238.23	0.2657
3247.12	0.2587
3256.01	0.252
3264.9	0.2459
3273.78	0.2389
3282.67	0.233
3291.56	0.2269
3300.45	0.2199
3309.34	0.2139
3318.23	0.2078
3327.12	0.2019
3336.01	0.1949
3344.9	0.1899
3353.78	0.1839
3362.67	0.177
3371.56	0.173
3380.45	0.17
3389.34	0.169
3398.23	0.167
3407.12	0.165
3416.01	0.165
3424.9	0.165
3433.78	0.166
3442.67	0.167
3451.56	0.167
3460.45	0.1699
3469.34	0.1728
3478.23	0.174
3487.12	0.1798
3496.01	0.1839
3504.9	0.187
3513.78	0.1909
3522.67	0.1959
3531.56	0.202
3540.45	0.2077
3549.34	0.2117
3558.23	0.216
3567.12	0.2198
3576.01	0.223
3584.9	0.2268
3593.79	0.23
3602.67	0.2338
3611.56	0.237
3620.45	0.238
3629.34	0.239
3638.23	0.241
3647.12	0.242
3656.01	0.242
3664.9	0.244
3673.79	0.244
3682.67	0.2426
3691.56	0.241
3700.45	0.239
3709.34	0.237
3718.23	0.234
3727.12	0.233
3736.01	0.23
3744.9	0.2264
3753.79	0.224
3762.67	0.221
3771.56	0.217
3780.45	0.2164
3789.34	0.214
3798.23	0.213
