Infrared Spectrum: 4,4'-DISULFANIC ACID BIPHENYL DIPOTASSIUM SALT
Formula: C12 H8 O6 K2 S2
Class: COBLENTZ
Instrument: Not specified, most likely a prism, grating, or hybrid spectrometer.
Sampling: TRANSMISSION
Resolution: 4
MICROMETERS	TRANSMITTANCE
1.82	0.484
1.85998	0.49
1.89996	0.502
1.93994	0.509
1.97992	0.521
2.0199	0.53
2.05987	0.538
2.09985	0.549
2.13983	0.553
2.17981	0.564
2.21979	0.561
2.25977	0.552
2.29975	0.552
2.33973	0.564
2.37971	0.574
2.41969	0.581
2.45967	0.592
2.49964	0.609
2.53962	0.621
2.5796	0.63
2.61958	0.641
2.65956	0.649
2.69954	0.653
2.73952	0.656
2.7795	0.658
2.81948	0.661
2.85946	0.661
2.89944	0.662
2.93941	0.668
2.97939	0.681
3.01937	0.685
3.05935	0.69
3.09933	0.692
3.13931	0.684
3.17929	0.677
3.21927	0.661
3.25925	0.602
3.29923	0.569
3.33921	0.236
3.37918	0.004
3.41916	0.009
3.45914	0.034
3.49912	0.152
3.5391	0.552
3.57908	0.706
3.61906	0.745
3.65904	0.737
3.69902	0.752
3.739	0.757
3.77898	0.776
3.81895	0.78
3.85893	0.797
3.89891	0.82
3.93889	0.833
3.97887	0.844
4.01885	0.846
4.05883	0.85
4.09881	0.854
4.13879	0.857
4.17877	0.858
4.21875	0.904
4.25872	0.892
4.2987	0.881
4.33868	0.876
4.37866	0.874
4.41864	0.876
4.45862	0.88
4.4986	0.885
4.53858	0.89
4.57856	0.898
4.61854	0.905
4.65852	0.909
4.69849	0.912
4.73847	0.916
4.77845	0.917
4.81843	0.914
4.85841	0.928
4.89839	0.932
4.93837	0.936
4.97835	0.938
5.01833	0.938
5.05831	0.94
5.09829	0.941
5.13826	0.933
5.17824	0.924
5.21822	0.942
5.2582	0.953
5.29818	0.956
5.33816	0.958
5.37814	0.96
5.41812	0.962
5.4581	0.962
5.49808	0.961
5.53806	0.958
5.57803	0.962
5.61801	0.966
5.65799	0.969
5.69797	0.972
5.73795	0.974
5.77793	0.973
5.81791	0.97
5.85789	0.966
5.89787	0.962
5.93785	0.96
5.97783	0.957
6.0178	0.957
6.05778	0.966
6.09776	0.97
6.13774	0.972
6.17772	0.972
6.2177	0.954
6.25768	0.913
6.29766	0.949
6.33764	0.964
6.37762	0.966
6.4176	0.913
6.45757	0.94
6.49755	0.972
6.53753	0.969
6.57751	0.965
6.61749	0.954
6.65747	0.941
6.69745	0.88
6.73743	0.702
6.77741	0.456
6.81739	0.189
6.85737	0.23
6.89734	0.338
6.93732	0.485
6.9773	0.732
7.01728	0.85
7.05726	0.889
7.09724	0.89
7.13722	0.864
7.1772	0.721
7.21718	0.501
7.25716	0.376
7.29714	0.57
7.33711	0.681
7.37709	0.737
7.41707	0.78
7.45705	0.809
7.49703	0.829
7.53701	0.838
7.57699	0.829
7.61697	0.812
7.65695	0.798
7.69693	0.793
7.73691	0.784
7.77688	0.757
7.81686	0.724
7.85684	0.637
7.89682	0.492
7.9368	0.464
7.97678	0.306
8.01676	0.225
8.05674	0.285
8.09672	0.224
8.1367	0.102
8.17668	0.061
8.21665	0.121
8.25663	0.15
8.29661	0.086
8.33659	0.07
8.37657	0.08
8.41655	0.11
8.45653	0.128
8.49651	0.198
8.53649	0.341
8.57647	0.413
8.61644	0.441
8.65642	0.43
8.6964	0.408
8.73638	0.378
8.77636	0.265
8.81634	0.092
8.85632	0.058
8.8963	0.096
8.93628	0.221
8.97626	0.272
9.01624	0.318
9.05621	0.38
9.09619	0.469
9.13617	0.54
9.17615	0.601
9.21613	0.646
9.25611	0.681
9.29609	0.713
9.33607	0.73
9.37605	0.746
9.41603	0.741
9.45601	0.714
9.49598	0.681
9.53596	0.389
9.57594	0.23
9.61592	0.102
9.6559	0.124
9.69588	0.332
9.73586	0.533
9.77584	0.692
9.81582	0.724
9.8558	0.512
9.89578	0.576
9.93575	0.772
9.97573	0.602
10.0157	0.185
10.0557	0.396
10.0957	0.586
10.1357	0.714
10.1756	0.737
10.2156	0.772
10.2556	0.784
10.2956	0.808
10.3355	0.822
10.3755	0.833
10.4155	0.848
10.4555	0.862
10.4955	0.878
10.5354	0.886
10.5754	0.894
10.6154	0.901
10.6554	0.906
10.6954	0.913
10.7353	0.918
10.7753	0.924
10.8153	0.929
10.8553	0.932
10.8953	0.934
10.9352	0.941
10.9752	0.945
11.0152	0.949
11.0552	0.954
11.0951	0.956
11.1351	0.957
11.1751	0.957
11.2151	0.958
11.2551	0.96
11.295	0.964
11.335	0.969
11.375	0.973
11.415	0.976
11.455	0.976
11.4949	0.973
11.5349	0.969
11.5749	0.964
11.6149	0.957
11.6549	0.956
11.6948	0.961
11.7348	0.966
11.7748	0.968
11.8148	0.964
11.8548	0.96
11.8947	0.956
11.9347	0.952
11.9747	0.942
12.0147	0.912
12.0546	0.854
12.0946	0.61
12.1346	0.308
12.1746	0.372
12.2146	0.696
12.2545	0.872
12.2945	0.946
12.3345	0.976
12.3745	0.989
12.4145	0.993
12.4544	0.996
12.4944	0.998
12.5344	1
12.5744	1.002
12.6144	1.004
12.6543	1.004
12.6943	0.998
12.7343	0.993
12.7743	0.985
12.8142	0.981
12.8542	0.981
12.8942	0.981
12.9342	0.98
12.9742	0.977
13.0141	0.974
13.0541	0.973
13.0941	0.976
13.1341	0.978
13.1741	0.978
13.214	0.976
13.254	0.969
13.294	0.961
13.334	0.953
13.374	0.937
13.4139	0.916
13.4539	0.898
13.4939	0.864
13.5339	0.821
13.5739	0.768
13.6138	0.682
13.6538	0.55
13.6938	0.388
13.7338	0.23
13.7737	0.133
13.8137	0.124
13.8537	0.161
13.8937	0.21
13.9337	0.253
13.9736	0.332
14.0136	0.432
14.0536	0.558
14.0936	0.646
14.1336	0.741
14.1735	0.785
14.2135	0.824
14.2535	0.85
14.2935	0.87
14.3335	0.884
14.3734	0.898
14.4134	0.909
14.4534	0.916
14.4934	0.918
14.5334	0.917
14.5733	0.914
14.6133	0.914
14.6533	0.929
14.6933	0.938
14.7332	0.945
14.7732	0.952
14.8132	0.954
14.8532	0.954
14.8932	0.949
14.9331	0.936
14.9731	0.937
15.0131	0.948
15.0531	0.934
15.0931	0.936
15.133	0.942
15.173	0.949
15.213	0.945
15.253	0.95
