Infrared Spectrum: PRAMOXINE HYDROCHLORIDE
Formula: C17 H28 Cl N O3
State: SOLID (1 mg / 200 mg KCl DISC) VS KCl
Class: COBLENTZ III
Instrument: PERKIN-ELMER 21 (GRATING)
Instrument parameters: FILTER AT ABOUT 10 MICRONS
Sampling: TRANSMISSION
Path length: 0.055 CM (THICKNESS)
Resolution: 2
1/CM	TRANSMITTANCE
4000	0.5174
3991	0.5195
3982	0.5212
3973	0.5227
3964	0.5242
3955	0.5258
3946	0.5273
3937	0.5285
3928	0.5292
3919	0.5301
3910	0.531
3901	0.5319
3892	0.5328
3883	0.5336
3874	0.5341
3865	0.5346
3856	0.5351
3847	0.5354
3838	0.536
3829	0.5376
3820	0.5391
3811	0.5406
3802	0.5423
3793	0.5439
3784	0.5456
3775	0.5475
3766	0.5494
3757	0.5512
3748	0.5532
3739	0.5551
3730	0.5567
3721	0.558
3712	0.5591
3703	0.5603
3694	0.5616
3685	0.5627
3676	0.5637
3667	0.5647
3658	0.5657
3649	0.5667
3640	0.5677
3631	0.5685
3622	0.5688
3613	0.5692
3604	0.5696
3595	0.5698
3586	0.5693
3577	0.5685
3568	0.5677
3559	0.5669
3550	0.566
3541	0.5653
3532	0.5644
3523	0.5635
3514	0.5626
3505	0.5618
3496	0.5609
3487	0.56
3478	0.559
3469	0.5582
3460	0.5573
3451	0.5568
3442	0.5565
3433	0.5562
3424	0.5559
3415	0.5559
3406	0.5562
3397	0.5569
3388	0.5587
3379	0.5621
3370	0.5655
3361	0.5689
3352	0.5724
3343	0.5758
3334	0.5793
3325	0.5828
3316	0.5862
3307	0.5882
3298	0.5898
3289	0.5915
3280	0.5934
3271	0.5954
3262	0.5979
3253	0.6007
3244	0.6036
3235	0.6065
3226	0.6094
3217	0.6121
3208	0.6141
3199	0.616
3190	0.6186
3181	0.6218
3172	0.6238
3163	0.6252
3154	0.6266
3145	0.6278
3136	0.6285
3127	0.6292
3118	0.6299
3109	0.63
3100	0.6295
3091	0.6283
3082	0.6252
3073	0.6235
3064	0.622
3055	0.6206
3046	0.6197
3037	0.6187
3028	0.6152
3019	0.6052
3010	0.5782
3001	0.5605
2992	0.5367
2983	0.4866
2974	0.4503
2965	0.4139
2956	0.3772
2947	0.3584
2938	0.3554
2929	0.3557
2920	0.3586
2911	0.3672
2902	0.37
2893	0.3687
2884	0.366
2875	0.3652
2866	0.3866
2857	0.4402
2848	0.494
2839	0.5125
2830	0.5264
2821	0.5426
2812	0.5581
2803	0.5698
2794	0.5768
2785	0.5819
2776	0.5846
2767	0.5835
2758	0.5824
2749	0.5817
2740	0.5816
2731	0.5816
2722	0.581
2713	0.5791
2704	0.5742
2695	0.5662
2686	0.5559
2677	0.5485
2668	0.5445
2659	0.5429
2650	0.5414
2641	0.5386
2632	0.5342
2623	0.5189
2614	0.4924
2605	0.4635
2596	0.4336
2587	0.4032
2578	0.3729
2569	0.3423
2560	0.3148
2551	0.31
2542	0.3095
2533	0.3122
2524	0.3202
2515	0.3309
2506	0.3434
2497	0.3337
2488	0.303
2479	0.2719
2470	0.2406
2461	0.2261
2452	0.229
2443	0.2447
2434	0.2875
2425	0.3305
2416	0.3738
2407	0.4176
2398	0.4497
2389	0.4631
2380	0.4703
2371	0.4756
2362	0.4814
2353	0.4942
2344	0.5088
2335	0.5182
2326	0.5318
2317	0.5635
2308	0.609
2299	0.6426
2290	0.6505
2281	0.6578
2272	0.6668
2263	0.6786
2254	0.6899
2245	0.6989
2236	0.7058
2227	0.7132
2218	0.7219
2209	0.7306
2200	0.7437
2191	0.7588
2182	0.7612
2173	0.7633
2164	0.7665
2155	0.7701
2146	0.7739
2137	0.7768
2128	0.7761
2119	0.7753
2110	0.7753
2101	0.7764
2092	0.7795
2083	0.7833
2074	0.7871
2065	0.7887
2056	0.7888
2047	0.7878
2038	0.7875
2029	0.7883
2020	0.7925
2011	0.7976
2002	0.8008
1993	0.8032
1984	0.806
1975	0.8099
1966	0.816
1957	0.8205
1948	0.8208
1939	0.822
1930	0.8236
1921	0.8255
1912	0.8281
1903	0.8304
1894	0.8304
1885	0.8252
1876	0.8221
1867	0.8218
1858	0.8248
1849	0.8312
1840	0.8374
1831	0.8436
1822	0.8501
1813	0.8546
1804	0.8554
1795	0.8548
1786	0.855
1777	0.856
1768	0.8563
1759	0.8553
1750	0.8538
1741	0.8532
1732	0.8528
1723	0.8528
1714	0.8533
1705	0.8544
1696	0.8561
1687	0.8574
1678	0.857
1669	0.8518
1660	0.8458
1651	0.8389
1642	0.8321
1633	0.8307
1624	0.8394
1615	0.8461
1606	0.8492
1597	0.8509
1588	0.8548
1579	0.8573
1570	0.8568
1561	0.8482
1552	0.8255
1543	0.7971
1534	0.7525
1525	0.649
1516	0.1967
1507	0.2628
1498	0.5922
1489	0.5376
1480	0.3402
1471	0.4046
1462	0.4315
1453	0.4044
1444	0.4909
1435	0.6165
1426	0.6178
1417	0.5691
1408	0.6327
1399	0.6267
1390	0.6878
1381	0.7224
1372	0.7498
1363	0.7604
1354	0.7726
1345	0.785
1336	0.8036
1327	0.7919
1318	0.784
1309	0.7468
1300	0.7308
1291	0.5579
1282	0.561
1273	0.6464
1264	0.5814
1255	0.6176
1246	0.4354
1237	0.1501
1228	0.0759
1219	0.0854
1210	0.2889
1201	0.531
1192	0.7089
1183	0.7958
1174	0.82
1165	0.8275
1156	0.7768
1147	0.7517
1138	0.7351
1129	0.639
1120	0.5762
1111	0.4036
1102	0.2641
1093	0.5543
1084	0.5257
1075	0.5862
1066	0.6785
1057	0.6515
1048	0.3912
1039	0.2344
1030	0.4634
1021	0.627
1012	0.6165
1003	0.7691
994	0.8564
985	0.8383
976	0.7578
967	0.789
958	0.8055
949	0.8015
940	0.7738
931	0.7874
922	0.8659
913	0.7945
904	0.6864
895	0.795
886	0.7995
877	0.7625
868	0.7054
859	0.8518
850	0.8665
841	0.8218
832	0.4885
823	0.6317
814	0.8096
805	0.867
796	0.8873
787	0.8903
778	0.6144
769	0.8225
760	0.7853
751	0.8506
742	0.821
733	0.8788
724	0.8767
715	0.9044
706	0.9294
697	0.9337
688	0.9371
679	0.9333
670	0.9271
