Infrared Spectrum: 1,3-PROPANEDIOL BIS(Alpha,Alpha-DI-CHLOROPROPIONATE)
Formula: C9 H12 Cl4 O4
State: SOLUTION (10% CCl4 FOR 5000-1330, 10% CS2 FOR 1330-625 CM^-^1)
Class: COBLENTZ
Instrument: Not specified, most likely a prism, grating, or hybrid spectrometer.
Sampling: TRANSMISSION
Path length: 0.0128 CM, 0.0122 CM
Resolution: 4
Origin: DOW CHEMICAL COMPANY
MICROMETERS	TRANSMITTANCE
2.014	0.9
2.05508	0.897
2.09615	0.9
2.13723	0.9
2.17831	0.894
2.21938	0.882
2.26046	0.882
2.30153	0.888
2.34261	0.89
2.38369	0.89
2.42476	0.888
2.46584	0.885
2.50692	0.897
2.54799	0.895
2.58907	0.897
2.63014	0.897
2.67122	0.894
2.7123	0.897
2.75337	0.892
2.79445	0.88
2.83553	0.878
2.8766	0.861
2.91768	0.887
2.95875	0.885
2.99983	0.88
3.04091	0.883
3.08198	0.887
3.12306	0.887
3.16414	0.882
3.20521	0.883
3.24629	0.878
3.28736	0.864
3.32844	0.748
3.36952	0.647
3.41059	0.774
3.45167	0.83
3.49275	0.863
3.53382	0.873
3.5749	0.88
3.61597	0.88
3.65705	0.88
3.69813	0.88
3.7392	0.88
3.78028	0.88
3.82136	0.882
3.86243	0.882
3.90351	0.88
3.94458	0.873
3.98566	0.87
4.02674	0.871
4.06781	0.875
4.10889	0.88
4.14997	0.866
4.19104	0.866
4.23212	0.871
4.27319	0.868
4.31427	0.868
4.35535	0.861
4.39642	0.871
4.4375	0.876
4.47858	0.878
4.51965	0.878
4.56073	0.87
4.6018	0.866
4.64288	0.87
4.68396	0.87
4.72503	0.87
4.76611	0.871
4.80719	0.876
4.84826	0.876
4.88934	0.873
4.93041	0.87
4.97149	0.87
5.01257	0.87
5.05364	0.87
5.09472	0.871
5.1358	0.875
5.17687	0.875
5.21795	0.871
5.25902	0.866
5.3001	0.866
5.34118	0.859
5.38225	0.851
5.42333	0.837
5.46441	0.817
5.50548	0.789
5.54656	0.736
5.58763	0.603
5.62871	0.312
5.66979	0.078
5.71086	0.049
5.75194	0.244
5.79302	0.601
5.83409	0.709
5.87517	0.767
5.91624	0.827
5.95732	0.841
5.9984	0.854
6.03947	0.858
6.08055	0.859
6.12163	0.849
6.1627	0.825
6.20378	0.769
6.24485	0.694
6.28593	0.605
6.32701	0.579
6.36808	0.531
6.40916	0.451
6.45024	0.442
6.49131	0.519
6.53239	0.582
6.57346	0.637
6.61454	0.692
6.65562	0.741
6.69669	0.76
6.73777	0.705
6.77885	0.564
6.81992	0.543
6.861	0.536
6.90208	0.432
6.94315	0.56
6.98423	0.678
7.0253	0.735
7.06638	0.758
7.10746	0.748
7.14853	0.707
7.18961	0.584
7.23069	0.374
7.27176	0.724
7.31284	0.731
7.35391	0.724
7.39499	0.76
7.43607	0.716
7.47714	0.62
7.51822	0.598
7.5593	0.647
7.60037	0.582
7.64145	0.504
7.68252	0.413
7.7236	0.326
7.76468	0.225
7.80575	0.111
7.84683	0.047
7.88791	0.03
7.92898	0.034
7.97006	0.046
8.01113	0.052
8.05221	0.068
8.09329	0.15
8.13436	0.323
8.17544	0.5
8.21652	0.611
8.25759	0.688
8.29867	0.735
8.33974	0.752
8.38082	0.755
8.4219	0.748
8.46297	0.729
8.50405	0.702
8.54513	0.67
8.5862	0.644
8.62728	0.634
8.66835	0.627
8.70943	0.576
8.75051	0.452
8.79158	0.278
8.83266	0.116
8.87374	0.051
8.91481	0.041
8.95589	0.059
8.99696	0.095
9.03804	0.152
9.07912	0.244
9.12019	0.256
9.16127	0.152
9.20235	0.08
9.24342	0.087
9.2845	0.119
9.32557	0.112
9.36665	0.244
9.40773	0.411
9.4488	0.524
9.48988	0.579
9.53096	0.588
9.57203	0.562
9.61311	0.494
9.65418	0.429
9.69526	0.403
9.73634	0.423
9.77741	0.519
9.81849	0.641
9.85957	0.719
9.90064	0.758
9.94172	0.769
9.98279	0.774
10.0239	0.777
10.0649	0.753
10.106	0.712
10.1471	0.649
10.1882	0.635
10.2293	0.675
10.2703	0.726
10.3114	0.741
10.3525	0.733
10.3936	0.683
10.4346	0.646
10.4757	0.654
10.5168	0.695
10.5579	0.721
10.5989	0.704
10.64	0.641
10.6811	0.581
10.7222	0.552
10.7632	0.608
10.8043	0.668
10.8454	0.707
10.8865	0.735
10.9275	0.75
10.9686	0.755
11.0097	0.748
11.0508	0.74
11.0919	0.738
11.1329	0.745
11.174	0.748
11.2151	0.747
11.2562	0.745
11.2972	0.733
11.3383	0.723
11.3794	0.705
11.4205	0.699
11.4615	0.687
11.5026	0.673
11.5437	0.661
11.5848	0.646
11.6258	0.634
11.6669	0.634
11.708	0.637
11.7491	0.656
11.7902	0.675
11.8312	0.712
11.8723	0.74
11.9134	0.752
11.9545	0.758
11.9955	0.769
12.0366	0.774
12.0777	0.772
12.1188	0.76
12.1598	0.757
12.2009	0.747
12.242	0.729
12.2831	0.728
12.3241	0.736
12.3652	0.747
12.4063	0.735
12.4474	0.697
12.4884	0.634
12.5295	0.541
12.5706	0.468
12.6117	0.487
12.6528	0.517
12.6938	0.547
12.7349	0.565
12.776	0.588
12.8171	0.613
12.8581	0.642
12.8992	0.661
12.9403	0.67
12.9814	0.68
13.0224	0.687
13.0635	0.695
13.1046	0.704
13.1457	0.704
13.1867	0.702
13.2278	0.7
13.2689	0.699
13.31	0.692
13.351	0.683
13.3921	0.673
13.4332	0.649
13.4743	0.617
13.5154	0.569
13.5564	0.507
13.5975	0.442
13.6386	0.394
13.6797	0.358
13.7207	0.355
13.7618	0.369
13.8029	0.398
13.844	0.439
13.885	0.473
13.9261	0.502
13.9672	0.517
14.0083	0.538
14.0493	0.545
14.0904	0.547
14.1315	0.543
14.1726	0.541
14.2136	0.533
14.2547	0.526
14.2958	0.512
14.3369	0.5
14.378	0.487
14.419	0.475
14.4601	0.458
14.5012	0.444
14.5423	0.43
14.5833	0.41
14.6244	0.389
14.6655	0.367
14.7066	0.347
14.7476	0.326
14.7887	0.304
14.8298	0.275
14.8709	0.249
14.9119	0.227
14.953	0.189
14.9941	0.14
15.0352	0.099
15.0763	0.068
15.1173	0.047
15.1584	0.042
15.1995	0.051
15.2406	0.058
15.2816	0.078
15.3227	0.114
15.3638	0.145
15.4049	0.201
15.4459	0.232
15.487	0.278
15.5281	0.304
15.5692	0.331
15.6102	0.347
15.6513	0.355
15.6924	0.365
15.7335	0.376
15.7745	0.382
15.8156	0.388
15.8567	0.389
