Infrared Spectrum: LITHIUM OXALATE
Formula: Li2 C2 O4
State: SOLID (KBr DISC)
Class: COBLENTZ
Instrument: Not specified, most likely a prism, grating, or hybrid spectrometer.
Sampling: TRANSMISSION
Resolution: 4
MICROMETERS	TRANSMITTANCE
2.061	0.752
2.09888	0.76
2.13676	0.764
2.17463	0.773
2.21251	0.779
2.25039	0.787
2.28827	0.79
2.32614	0.797
2.36402	0.803
2.4019	0.806
2.43978	0.809
2.47766	0.812
2.51553	0.818
2.55341	0.821
2.59129	0.826
2.62917	0.829
2.66705	0.836
2.70492	0.841
2.7428	0.844
2.78068	0.842
2.81856	0.823
2.85643	0.772
2.89431	0.745
2.93219	0.715
2.97007	0.712
3.00795	0.733
3.04582	0.773
3.0837	0.797
3.12158	0.817
3.15946	0.841
3.19734	0.851
3.23521	0.853
3.27309	0.86
3.31097	0.877
3.34885	0.881
3.38672	0.878
3.4246	0.881
3.46248	0.896
3.50036	0.908
3.53824	0.911
3.57611	0.911
3.61399	0.917
3.65187	0.926
3.68975	0.934
3.72762	0.938
3.7655	0.94
3.80338	0.943
3.84126	0.941
3.87914	0.944
3.91701	0.946
3.95489	0.947
3.99277	0.95
4.03065	0.953
4.06853	0.959
4.1064	0.962
4.14428	0.968
4.18216	0.968
4.22004	0.968
4.25791	0.97
4.29579	0.97
4.33367	0.968
4.37155	0.97
4.40943	0.976
4.4473	0.979
4.48518	0.979
4.52306	0.982
4.56094	0.982
4.59882	0.985
4.63669	0.983
4.67457	0.983
4.71245	0.983
4.75033	0.983
4.7882	0.979
4.82608	0.976
4.86396	0.973
4.90184	0.965
4.93972	0.961
4.97759	0.953
5.01547	0.946
5.05335	0.932
5.09123	0.916
5.1291	0.902
5.16698	0.893
5.20486	0.89
5.24274	0.875
5.28062	0.863
5.31849	0.841
5.35637	0.823
5.39425	0.793
5.43213	0.769
5.47001	0.75
5.50788	0.724
5.54576	0.7
5.58364	0.675
5.62152	0.634
5.65939	0.576
5.69727	0.549
5.73515	0.494
5.77303	0.405
5.81091	0.347
5.84878	0.241
5.88666	0.145
5.92454	0.094
5.96242	0.059
6.0003	0.059
6.03817	0.064
6.07605	0.094
6.11393	0.181
6.15181	0.233
6.18968	0.296
6.22756	0.339
6.26544	0.368
6.30332	0.41
6.3412	0.447
6.37907	0.473
6.41695	0.513
6.45483	0.531
6.49271	0.555
6.53059	0.57
6.56846	0.58
6.60634	0.603
6.64422	0.624
6.6821	0.636
6.71997	0.646
6.75785	0.655
6.79573	0.661
6.83361	0.666
6.87149	0.67
6.90936	0.67
6.94724	0.652
6.98512	0.615
7.023	0.579
7.06087	0.585
7.09875	0.609
7.13663	0.609
7.17451	0.594
7.21239	0.594
7.25026	0.594
7.28814	0.573
7.32602	0.507
7.3639	0.389
7.40178	0.239
7.43965	0.14
7.47753	0.097
7.51541	0.088
7.55329	0.103
7.59116	0.239
7.62904	0.368
7.66692	0.461
7.7048	0.544
7.74268	0.603
7.78055	0.648
7.81843	0.676
7.85631	0.703
7.89419	0.724
7.93207	0.741
7.96994	0.763
8.00782	0.781
8.0457	0.791
8.08358	0.802
8.12145	0.809
8.15933	0.817
8.19721	0.824
8.23509	0.832
8.27297	0.842
8.31084	0.848
8.34872	0.856
8.3866	0.859
8.42448	0.865
8.46235	0.869
8.50023	0.872
8.53811	0.877
8.57599	0.881
8.61387	0.884
8.65174	0.887
8.68962	0.89
8.7275	0.893
8.76538	0.895
8.80326	0.898
8.84113	0.902
8.87901	0.907
8.91689	0.908
8.95477	0.913
8.99264	0.914
9.03052	0.916
9.0684	0.917
9.10628	0.919
9.14416	0.919
9.18203	0.92
9.21991	0.922
9.25779	0.923
9.29567	0.923
9.33355	0.923
9.37142	0.925
9.4093	0.925
9.44718	0.928
9.48506	0.928
9.52293	0.926
9.56081	0.926
9.59869	0.928
9.63657	0.929
9.67445	0.931
9.71232	0.934
9.7502	0.935
9.78808	0.937
9.82596	0.937
9.86383	0.938
9.90171	0.938
9.93959	0.94
9.97747	0.94
10.0153	0.941
10.0532	0.94
10.0911	0.941
10.129	0.94
10.1669	0.94
10.2047	0.94
10.2426	0.94
10.2805	0.94
10.3184	0.94
10.3562	0.94
10.3941	0.94
10.432	0.94
10.4699	0.94
10.5078	0.941
10.5456	0.94
10.5835	0.941
10.6214	0.941
10.6593	0.941
10.6971	0.94
10.735	0.941
10.7729	0.941
10.8108	0.94
10.8487	0.94
10.8865	0.94
10.9244	0.94
10.9623	0.941
11.0002	0.941
11.038	0.941
11.0759	0.941
11.1138	0.941
11.1517	0.941
11.1896	0.941
11.2274	0.94
11.2653	0.94
11.3032	0.938
11.3411	0.938
11.3789	0.937
11.4168	0.935
11.4547	0.935
11.4926	0.934
11.5305	0.932
11.5683	0.929
11.6062	0.926
11.6441	0.925
11.682	0.922
11.7198	0.922
11.7577	0.92
11.7956	0.917
11.8335	0.916
11.8714	0.914
11.9092	0.911
11.9471	0.91
11.985	0.905
12.0229	0.899
12.0607	0.893
12.0986	0.889
12.1365	0.884
12.1744	0.88
12.2123	0.869
12.2501	0.863
12.288	0.853
12.3259	0.842
12.3638	0.826
12.4017	0.805
12.4395	0.785
12.4774	0.758
12.5153	0.729
12.5532	0.675
12.591	0.621
12.6289	0.553
12.6668	0.464
12.7047	0.381
12.7426	0.354
12.7804	0.332
12.8183	0.302
12.8562	0.27
12.8941	0.258
12.9319	0.26
12.9698	0.276
13.0077	0.344
13.0456	0.437
13.0835	0.538
13.1213	0.606
13.1592	0.669
13.1971	0.705
13.235	0.745
13.2728	0.772
13.3107	0.794
13.3486	0.811
13.3865	0.82
13.4244	0.829
13.4622	0.841
13.5001	0.847
13.538	0.854
13.5759	0.859
13.6137	0.863
13.6516	0.866
13.6895	0.872
13.7274	0.874
13.7653	0.877
13.8031	0.88
13.841	0.883
13.8789	0.883
13.9168	0.883
13.9546	0.886
13.9925	0.886
14.0304	0.886
14.0683	0.887
14.1062	0.887
14.144	0.887
14.1819	0.89
14.2198	0.89
14.2577	0.89
14.2955	0.89
14.3334	0.89
14.3713	0.889
14.4092	0.889
14.4471	0.889
14.4849	0.889
14.5228	0.889
14.5607	0.889
14.5986	0.889
14.6364	0.889
14.6743	0.889
14.7122	0.889
14.7501	0.889
14.788	0.889
14.8258	0.889
14.8637	0.889
14.9016	0.887
14.9395	0.89
14.9773	0.889
15.0152	0.889
15.0531	0.889
15.091	0.887
15.1289	0.886
15.1667	0.886
15.2046	0.884
15.2425	0.884
15.2804	0.884
15.3182	0.884
15.3561	0.884
15.394	0.884
15.4319	0.883
15.4698	0.883
15.5076	0.883
15.5455	0.881
15.5834	0.881
15.6213	0.88
15.6591	0.88
15.697	0.881
15.7349	0.88
