Infrared Spectrum: DI-ISOTRIDECYLAZELATE
Formula: C35 H68 O4
State: LIQUID
Class: COBLENTZ
Instrument: Not specified, most likely a prism, grating, or hybrid spectrometer.
Sampling: TRANSMISSION
Path length: 0.003 CM
Resolution: 4
Origin: WYANDOTTE CHEMICALS CORP., WYANDOTTE, MICHIGAN, USA
MICROMETERS	TRANSMITTANCE
2.019	0.953
2.05609	0.958
2.09317	0.961
2.13026	0.962
2.16734	0.948
2.20443	0.917
2.24152	0.897
2.2786	0.897
2.31569	0.906
2.35277	0.914
2.38986	0.916
2.42695	0.927
2.46403	0.931
2.50112	0.94
2.5382	0.947
2.57529	0.947
2.61238	0.953
2.64946	0.956
2.68655	0.956
2.72363	0.961
2.76072	0.959
2.7978	0.945
2.83489	0.94
2.87198	0.922
2.90906	0.895
2.94615	0.917
2.98323	0.925
3.02032	0.923
3.05741	0.922
3.09449	0.906
3.13158	0.874
3.16866	0.857
3.20575	0.84
3.24284	0.809
3.27992	0.76
3.31701	0.507
3.35409	0.038
3.39118	0.026
3.42827	0.034
3.46535	0.045
3.50244	0.069
3.53952	0.409
3.57661	0.68
3.6137	0.767
3.65078	0.785
3.68787	0.777
3.72495	0.812
3.76204	0.826
3.79913	0.84
3.83621	0.847
3.8733	0.857
3.91038	0.872
3.94747	0.899
3.98455	0.917
4.02164	0.916
4.05873	0.916
4.09581	0.913
4.1329	0.913
4.16998	0.913
4.20707	0.911
4.24416	0.909
4.28124	0.93
4.31833	0.933
4.35541	0.928
4.3925	0.93
4.42959	0.928
4.46667	0.93
4.50376	0.933
4.54084	0.936
4.57793	0.928
4.61502	0.933
4.6521	0.933
4.68919	0.937
4.72627	0.939
4.76336	0.94
4.80045	0.931
4.83753	0.94
4.87462	0.928
4.9117	0.931
4.94879	0.933
4.98588	0.927
5.02296	0.933
5.06005	0.925
5.09713	0.933
5.13422	0.931
5.17131	0.93
5.20839	0.933
5.24548	0.931
5.28256	0.928
5.31965	0.933
5.35673	0.927
5.39382	0.928
5.43091	0.922
5.46799	0.913
5.50508	0.899
5.54216	0.869
5.57925	0.838
5.61634	0.774
5.65342	0.7
5.69051	0.459
5.72759	0.038
5.76468	0.04
5.80177	0.299
5.83885	0.579
5.87594	0.638
5.91302	0.709
5.95011	0.782
5.9872	0.816
6.02428	0.827
6.06137	0.838
6.09845	0.846
6.13554	0.854
6.17263	0.86
6.20971	0.866
6.2468	0.866
6.28388	0.869
6.32097	0.869
6.35806	0.864
6.39514	0.864
6.43223	0.854
6.46931	0.836
6.5064	0.833
6.54348	0.829
6.58057	0.81
6.61766	0.784
6.65474	0.739
6.69183	0.624
6.72891	0.389
6.766	0.122
6.80309	0.082
6.84017	0.142
6.87726	0.273
6.91434	0.378
6.95143	0.458
6.98852	0.49
7.0256	0.478
7.06269	0.604
7.09977	0.599
7.13686	0.47
7.17395	0.299
7.21103	0.189
7.24812	0.18
7.2852	0.259
7.32229	0.25
7.35938	0.31
7.39646	0.338
7.43355	0.378
7.47063	0.414
7.50772	0.42
7.54481	0.391
7.58189	0.368
7.61898	0.358
7.65606	0.35
7.69315	0.344
7.73024	0.347
7.76732	0.318
7.80441	0.291
7.84149	0.271
7.87858	0.234
7.91566	0.197
7.95275	0.149
7.98984	0.127
8.02692	0.128
8.06401	0.133
8.10109	0.152
8.13818	0.167
8.17527	0.17
8.21235	0.17
8.24944	0.163
8.28652	0.144
8.32361	0.121
8.3607	0.097
8.39778	0.074
8.43487	0.059
8.47195	0.048
8.50904	0.043
8.54613	0.049
8.58321	0.068
8.6203	0.099
8.65738	0.128
8.69447	0.173
8.73156	0.234
8.76864	0.256
8.80573	0.259
8.84281	0.271
8.8799	0.322
8.91699	0.414
8.95407	0.479
8.99116	0.473
9.02824	0.399
9.06533	0.329
9.10241	0.302
9.1395	0.304
9.17659	0.319
9.21367	0.343
9.25076	0.374
9.28784	0.402
9.32493	0.43
9.36202	0.442
9.3991	0.448
9.43619	0.459
9.47327	0.478
9.51036	0.487
9.54745	0.493
9.58453	0.503
9.62162	0.503
9.6587	0.512
9.69579	0.51
9.73288	0.51
9.76996	0.509
9.80705	0.498
9.84413	0.487
9.88122	0.479
9.91831	0.476
9.95539	0.475
9.99248	0.472
10.0296	0.476
10.0666	0.475
10.1037	0.486
10.1408	0.5
10.1779	0.509
10.215	0.52
10.2521	0.534
10.2892	0.549
10.3263	0.571
10.3633	0.586
10.4004	0.607
10.4375	0.619
10.4746	0.638
10.5117	0.653
10.5488	0.669
10.5859	0.681
10.6229	0.692
10.66	0.703
10.6971	0.711
10.7342	0.722
10.7713	0.722
10.8084	0.72
10.8455	0.718
10.8825	0.718
10.9196	0.714
10.9567	0.726
10.9938	0.734
11.0309	0.737
11.068	0.745
11.1051	0.753
11.1421	0.754
11.1792	0.754
11.2163	0.754
11.2534	0.757
11.2905	0.759
11.3276	0.762
11.3647	0.763
11.4017	0.762
11.4388	0.762
11.4759	0.768
11.513	0.768
11.5501	0.767
11.5872	0.77
11.6243	0.781
11.6613	0.782
11.6984	0.787
11.7355	0.788
11.7726	0.788
11.8097	0.791
11.8468	0.793
11.8839	0.793
11.9209	0.791
11.958	0.791
11.9951	0.795
12.0322	0.798
12.0693	0.796
12.1064	0.785
12.1435	0.796
12.1805	0.798
12.2176	0.799
12.2547	0.799
12.2918	0.799
12.3289	0.801
12.366	0.802
12.4031	0.801
12.4401	0.802
12.4772	0.802
12.5143	0.804
12.5514	0.802
12.5885	0.801
12.6256	0.796
12.6627	0.793
12.6998	0.782
12.7368	0.77
12.7739	0.762
12.811	0.76
12.8481	0.751
12.8852	0.746
12.9223	0.743
12.9594	0.743
12.9964	0.745
13.0335	0.751
13.0706	0.754
13.1077	0.757
13.1448	0.762
13.1819	0.763
13.219	0.763
13.256	0.76
13.2931	0.762
13.3302	0.759
13.3673	0.759
13.4044	0.754
13.4415	0.753
13.4786	0.74
13.5156	0.737
13.5527	0.731
13.5898	0.728
13.6269	0.717
13.664	0.711
13.7011	0.709
13.7382	0.701
13.7752	0.698
13.8123	0.711
13.8494	0.722
13.8865	0.745
13.9236	0.763
13.9607	0.788
13.9978	0.799
14.0348	0.802
14.0719	0.812
14.109	0.815
14.1461	0.815
14.1832	0.822
14.2203	0.826
14.2574	0.826
14.2944	0.83
14.3315	0.83
14.3686	0.832
14.4057	0.838
14.4428	0.835
14.4799	0.838
14.517	0.835
14.554	0.838
14.5911	0.836
14.6282	0.838
14.6653	0.836
14.7024	0.838
14.7395	0.835
14.7766	0.836
14.8136	0.826
14.8507	0.83
14.8878	0.827
14.9249	0.824
14.962	0.813
14.9991	0.805
15.0362	0.787
15.0733	0.781
15.1103	0.795
15.1474	0.807
15.1845	0.802
15.2216	0.798
15.2587	0.79
15.2958	0.781
15.3329	0.771
15.3699	0.767
15.407	0.767
15.4441	0.763
15.4812	0.762
15.5183	0.753
15.5554	0.745
15.5925	0.74
15.6295	0.734
15.6666	0.728
15.7037	0.728
15.7408	0.717
15.7779	0.712
15.815	0.706
15.8521	0.706
15.8891	0.703
15.9262	0.698
15.9633	0.698
16.0004	0.697
