Infrared Spectrum: PHOSPHORIC ACID, DI-HEXADECYL ESTER, ALUMINUM SALT
Formula: C96 H198 Al O12 P3
State: SOLID (SPLIT MULL), FLUOROLUBE FOR 3800-1330 CM^-^1, NUJOL FOR 1330-400 CM^-^1
Class: COBLENTZ III
Instrument: DOW KBr FOREPRISM-GRATING
Instrument parameters: BLAZED AT 3.5, 12.0, 20.0 MICRON AND CHANGED AT 5.0, 7.5, 14.9 MICRON
Sampling: TRANSMISSION
Resolution: 2
Origin: DOW CHEMICAL COMPANY
1/CM	TRANSMITTANCE
387.915	0.74
396.758	0.754
405.601	0.777
414.444	0.794
423.287	0.797
432.13	0.797
440.973	0.79
449.816	0.771
458.659	0.777
467.502	0.75
476.345	0.728
485.188	0.726
494.031	0.765
502.874	0.747
511.717	0.737
520.56	0.746
529.404	0.804
538.247	0.838
547.09	0.835
555.933	0.809
564.776	0.751
573.619	0.742
582.462	0.784
591.305	0.823
600.148	0.828
608.991	0.831
617.834	0.817
626.677	0.853
635.52	0.871
644.363	0.933
653.206	0.962
662.049	0.969
670.892	0.973
679.735	0.973
688.578	0.966
697.421	0.947
706.264	0.914
715.107	0.8
723.95	0.515
732.793	0.78
741.636	0.837
750.479	0.87
759.322	0.896
768.165	0.888
777.008	0.9
785.851	0.922
794.695	0.903
803.538	0.913
812.381	0.918
821.224	0.895
830.067	0.864
838.91	0.87
847.753	0.841
856.596	0.811
865.439	0.811
874.282	0.842
883.125	0.841
891.968	0.837
900.811	0.831
909.654	0.835
918.497	0.805
927.34	0.728
936.183	0.595
945.026	0.59
953.869	0.659
962.712	0.651
971.555	0.651
980.398	0.641
989.241	0.579
998.084	0.525
1006.93	0.535
1015.77	0.456
1024.61	0.477
1033.46	0.449
1042.3	0.445
1051.14	0.422
1059.99	0.371
1068.83	0.34
1077.67	0.313
1086.51	0.251
1095.36	0.31
1104.2	0.365
1113.04	0.355
1121.89	0.354
1130.73	0.302
1139.57	0.231
1148.42	0.211
1157.26	0.222
1166.1	0.299
1174.94	0.325
1183.79	0.339
1192.63	0.353
1201.47	0.358
1210.32	0.333
1219.16	0.3
1228	0.346
1236.85	0.34
1245.69	0.358
1254.53	0.489
1263.38	0.576
1272.22	0.624
1281.06	0.644
1289.9	0.645
1298.75	0.628
1307.59	0.615
1316.43	0.606
1325.28	0.668
1334.12	0.67
1342.96	0.631
1351.81	0.725
1360.65	0.794
1369.49	0.813
1378.33	0.809
1387.18	0.835
1396.02	0.851
1404.86	0.855
1413.71	0.86
1422.55	0.862
1431.39	0.866
1440.24	0.867
1449.08	0.862
1457.92	0.826
1466.77	0.72
1475.61	0.819
1484.45	0.914
1493.29	0.931
1502.14	0.935
1510.98	0.936
1519.82	0.942
1528.67	0.943
1537.51	0.943
1546.35	0.946
1555.2	0.957
1564.04	0.958
1572.88	0.958
1581.72	0.966
1590.57	0.965
1599.41	0.965
1608.25	0.965
1617.1	0.961
1625.94	0.96
1634.78	0.955
1643.63	0.953
1652.47	0.946
1661.31	0.96
1670.15	0.961
1679	0.961
1687.84	0.961
1696.68	0.962
1705.53	0.961
1714.37	0.96
1723.21	0.96
1732.06	0.958
1740.9	0.96
1749.74	0.969
1758.59	0.968
1767.43	0.968
1776.27	0.965
1785.11	0.966
1793.96	0.972
1802.8	0.973
1811.64	0.977
1820.49	0.979
1829.33	0.98
1838.17	0.982
1847.02	0.982
1855.86	0.979
1864.7	0.977
1873.54	0.982
1882.39	0.983
1891.23	0.986
1900.07	0.988
1908.92	0.99
1917.76	0.991
1926.6	0.991
1935.45	0.993
1944.29	0.991
1953.13	0.99
1961.97	0.988
1970.82	0.987
1979.66	0.984
1988.5	0.979
1997.35	0.972
2006.19	0.9685
2015.03	0.9655
2023.88	0.963
2032.72	0.96
2041.56	0.957
2050.41	0.9535
2059.25	0.951
2068.09	0.9489
2076.93	0.9474
2085.78	0.9464
2094.62	0.9434
2103.46	0.94
2112.31	0.9364
2121.15	0.935
2129.99	0.935
2138.84	0.931
2147.68	0.9284
2156.52	0.9253
2165.36	0.9227
2174.21	0.92
2183.05	0.9156
2191.89	0.914
2200.74	0.914
2209.58	0.9116
2218.42	0.9073
2227.27	0.8998
2236.11	0.8888
2244.95	0.8843
2253.79	0.882
2262.64	0.8785
2271.48	0.8715
2280.32	0.87
2289.17	0.8672
2298.01	0.867
2306.85	0.868
2315.7	0.8732
2324.54	0.8857
2333.38	0.895
2342.23	0.8922
2351.07	0.891
2359.91	0.891
2368.75	0.891
2377.6	0.889
2386.44	0.889
2395.28	0.891
2404.13	0.892
2412.97	0.8948
2421.81	0.8969
2430.66	0.899
2439.5	0.9019
2448.34	0.903
2457.18	0.904
2466.03	0.906
2474.87	0.907
2483.71	0.91
2492.56	0.913
2501.4	0.915
2510.24	0.917
2519.09	0.918
2527.93	0.92
2536.77	0.92
2545.62	0.918
2554.46	0.918
2563.3	0.917
2572.14	0.915
2580.99	0.914
2589.83	0.914
2598.67	0.914
2607.52	0.913
2616.36	0.911
2625.2	0.9109
2634.05	0.91
2642.89	0.9079
2651.73	0.9057
2660.57	0.902
2669.42	0.9
2678.26	0.899
2687.1	0.897
2695.95	0.896
2704.79	0.895
2713.63	0.892
2722.48	0.8888
2731.32	0.885
2740.16	0.8808
2749	0.8765
2757.85	0.8725
2766.69	0.8675
2775.53	0.862
2784.38	0.8538
2793.22	0.8431
2802.06	0.8281
2810.91	0.8095
2819.75	0.7794
2828.59	0.704
2837.44	0.573
2846.28	0.2978
2855.12	0.4929
2863.96	0.6392
2872.81	0.6452
2881.65	0.6291
2890.49	0.5534
2899.34	0.4559
2908.18	0.2869
2917.02	0.1464
2925.87	0.2704
2934.71	0.4816
2943.55	0.6265
2952.39	0.5926
2961.24	0.6586
2970.08	0.8002
2978.92	0.8824
2987.77	0.906
2996.61	0.9135
3005.45	0.915
3014.3	0.915
3023.14	0.915
3031.98	0.915
3040.82	0.915
3049.67	0.915
3058.51	0.915
3067.35	0.914
3076.2	0.914
3085.04	0.914
3093.88	0.914
3102.73	0.915
3111.57	0.915
3120.41	0.915
3129.26	0.915
3138.1	0.914
3146.94	0.914
3155.78	0.913
3164.63	0.913
3173.47	0.911
3182.31	0.911
3191.16	0.91
3200	0.91
3208.84	0.908
3217.69	0.907
3226.53	0.9063
3235.37	0.906
3244.21	0.904
3253.06	0.904
3261.9	0.903
3270.74	0.903
3279.59	0.902
3288.43	0.9
3297.27	0.9
3306.12	0.9
3314.96	0.902
3323.8	0.9038
3332.64	0.906
3341.49	0.907
3350.33	0.907
3359.17	0.908
3368.02	0.908
3376.86	0.908
3385.7	0.908
3394.55	0.91
3403.39	0.908
3412.23	0.91
3421.08	0.91
3429.92	0.911
3438.76	0.911
3447.6	0.913
3456.45	0.913
3465.29	0.914
3474.13	0.914
3482.98	0.915
3491.82	0.917
3500.66	0.917
3509.51	0.92
3518.35	0.9221
3527.19	0.928
3536.03	0.931
3544.88	0.932
3553.72	0.9331
3562.56	0.935
3571.41	0.9348
3580.25	0.9293
3589.09	0.9323
3597.94	0.943
3606.78	0.9461
3615.62	0.9483
3624.47	0.951
3633.31	0.953
3642.15	0.954
3650.99	0.9542
3659.84	0.955
3668.68	0.955
3677.52	0.955
3686.37	0.955
3695.21	0.955
3704.05	0.957
3712.9	0.958
3721.74	0.958
3730.58	0.958
3739.42	0.957
3748.27	0.957
3757.11	0.955
3765.95	0.955
3774.8	0.955
3783.64	0.955
3792.48	0.955
3801.33	0.955
