Infrared Spectrum: 11Beta,17Alpha-DIHYDROXY-2Alpha,21-DIACETOXYPREGNA-4-ENE-3,20-DIONE
Formula: C25 H34 O8
State: SOLID (KBr DISC)
Class: COBLENTZ III
Instrument: BECKMAN IR-7
Sampling: TRANSMISSION
Resolution: 4
Origin: THE WORCESTER FOUNDATION FOR EXPERIMENTAL BIOLOGY, Neal L. McNiven
1/CM	TRANSMITTANCE
600.168	0.273
608.912	0.386
617.657	0.407
626.401	0.456
635.146	0.442
643.89	0.363
652.634	0.397
661.379	0.422
670.123	0.474
678.868	0.504
687.612	0.547
696.356	0.511
705.101	0.59
713.845	0.555
722.59	0.714
731.334	0.742
740.078	0.733
748.823	0.651
757.567	0.6819
766.312	0.736
775.056	0.639
783.8	0.414
792.545	0.669
801.289	0.744
810.034	0.784
818.778	0.808
827.522	0.78
836.267	0.7
845.011	0.5701
853.756	0.4531
862.5	0.483
871.244	0.553
879.989	0.4341
888.733	0.349
897.478	0.614
906.222	0.408
914.966	0.605
923.711	0.517
932.455	0.717
941.2	0.6961
949.944	0.648
958.688	0.66
967.433	0.653
976.177	0.534
984.922	0.506
993.666	0.349
1002.41	0.442
1011.15	0.405
1019.9	0.463
1028.64	0.2961
1037.39	0.154
1046.13	0.119
1054.88	0.111
1063.62	0.174
1072.37	0.424
1081.11	0.338
1089.85	0.385
1098.6	0.248
1107.34	0.235
1116.09	0.285
1124.83	0.154
1133.58	0.373
1142.32	0.53
1151.07	0.518
1159.81	0.393
1168.55	0.384
1177.3	0.354
1186.04	0.394
1194.79	0.238
1203.53	0.184
1212.28	0.066
1221.02	0.031
1229.76	0.072
1238.51	0.04
1247.25	0.026
1256	0.072
1264.74	0.14
1273.49	0.2099
1282.23	0.266
1290.98	0.365
1299.72	0.448
1308.46	0.509
1317.21	0.481
1325.95	0.341
1334.7	0.417
1343.44	0.473
1352.19	0.415
1360.93	0.264
1369.68	0.183
1378.42	0.092
1387.16	0.247
1395.91	0.43
1404.65	0.345
1413.4	0.3439
1422.14	0.399
1430.89	0.318
1439.63	0.397
1448.37	0.332
1457.12	0.446
1465.86	0.559
1474.61	0.6
1483.35	0.721
1492.1	0.784
1500.84	0.806
1509.59	0.827
1518.33	0.836
1527.07	0.86
1535.82	0.859
1544.56	0.87
1553.31	0.866
1562.05	0.862
1570.8	0.846
1579.54	0.792
1588.29	0.745
1597.03	0.6531
1605.77	0.456
1614.52	0.205
1623.26	0.3839
1632.01	0.584
1640.75	0.604
1649.5	0.576
1658.24	0.547
1666.99	0.441
1675.73	0.28
1684.47	0.194
1693.22	0.062
1701.96	0.052
1710.71	0.109
1719.45	0.058
1728.2	0.065
1736.94	0.025
1745.68	0.034
1754.43	0.158
1763.17	0.375
1771.92	0.5339
1780.66	0.669
1789.41	0.725
1798.15	0.752
1806.9	0.756
1815.64	0.808
1824.38	0.834
1833.13	0.86
1841.87	0.874
1850.62	0.9
1859.36	0.921
1868.11	0.946
1876.85	0.954
1885.6	0.963
1894.34	0.97
1903.08	0.973
1911.83	0.972
1920.57	0.969
1929.32	0.964
1938.06	0.957
1946.81	0.953
1955.55	0.954
1964.29	0.964
1973.04	0.968
1981.78	0.976
1990.53	0.979
1999.27	0.981
2008.02	0.981
2016.76	0.981
2025.51	0.981
2034.25	0.981
2042.99	0.981
2051.74	0.981
2060.48	0.981
2069.23	0.981
2077.97	0.981
2086.72	0.981
2095.46	0.981
2104.21	0.981
2112.95	0.982
2121.69	0.9828
2130.44	0.982
2139.18	0.984
2147.93	0.984
2156.67	0.984
2165.42	0.9849
2174.16	0.986
2182.9	0.9879
2191.65	0.989
2200.39	0.99
2209.14	0.992
2217.88	0.992
2226.63	0.992
2235.37	0.9911
2244.12	0.991
2252.86	0.99
2261.6	0.9909
2270.35	0.9901
2279.09	0.99
2287.84	0.99
2296.58	0.9871
2305.33	0.9841
2314.07	0.981
2322.82	0.978
2331.56	0.975
2340.3	0.972
2349.05	0.9621
2357.79	0.957
2366.54	0.957
2375.28	0.96
2384.03	0.964
2392.77	0.965
2401.51	0.964
2410.26	0.959
2419	0.957
2427.75	0.955
2436.49	0.954
2445.24	0.952
2453.98	0.95
2462.73	0.949
2471.47	0.946
2480.21	0.946
2488.96	0.945
2497.7	0.946
2506.45	0.946
2515.19	0.946
2523.94	0.946
2532.68	0.944
2541.43	0.9408
2550.17	0.9358
2558.91	0.9309
2567.66	0.9289
2576.4	0.9276
2585.15	0.9199
2593.89	0.9149
2602.64	0.9117
2611.38	0.9067
2620.12	0.9005
2628.87	0.8905
2637.61	0.8762
2646.36	0.8635
2655.1	0.8564
2663.85	0.8592
2672.59	0.8648
2681.34	0.867
2690.08	0.8634
2698.82	0.8518
2707.57	0.8544
2716.31	0.8612
2725.06	0.8642
2733.8	0.8623
2742.55	0.8555
2751.29	0.8552
2760.04	0.8615
2768.78	0.8637
2777.52	0.8595
2786.27	0.8516
2795.01	0.8312
2803.76	0.7919
2812.5	0.731
2821.25	0.6416
2829.99	0.564
2838.73	0.5082
2847.48	0.5534
2856.22	0.4954
2864.97	0.3749
2873.71	0.33
2882.46	0.285
2891.2	0.3407
2899.95	0.372
2908.69	0.3408
2917.43	0.2869
2926.18	0.2137
2934.92	0.205
2943.67	0.2133
2952.41	0.2426
2961.16	0.2959
2969.9	0.3792
2978.65	0.4612
2987.39	0.5789
2996.13	0.648
3004.88	0.599
3013.62	0.536
3022.37	0.6244
3031.11	0.6673
3039.86	0.745
3048.6	0.7826
3057.34	0.8047
3066.09	0.8164
3074.83	0.8215
3083.58	0.825
3092.32	0.826
3101.07	0.826
3109.81	0.826
3118.56	0.826
3127.3	0.8255
3136.04	0.825
3144.79	0.825
3153.53	0.8245
3162.28	0.8235
3171.02	0.822
3179.77	0.8189
3188.51	0.8149
3197.26	0.8019
3206	0.7924
3214.74	0.7864
3223.49	0.7854
3232.23	0.784
3240.98	0.7814
3249.72	0.7762
3258.47	0.7682
3267.21	0.7586
3275.95	0.7486
3284.7	0.7365
3293.44	0.7269
3302.19	0.7103
3310.93	0.6906
3319.68	0.6697
3328.42	0.6517
3337.17	0.6117
3345.91	0.575
3354.65	0.51
3363.4	0.4575
3372.14	0.3852
3380.89	0.3293
3389.63	0.2588
3398.38	0.1981
3407.12	0.1569
3415.87	0.1569
3424.61	0.2008
3433.35	0.2331
3442.1	0.2724
3450.84	0.2927
3459.59	0.2995
3468.33	0.2983
3477.08	0.2923
3485.82	0.2718
3494.56	0.2307
3503.31	0.1962
3512.05	0.1505
3520.8	0.1178
3529.54	0.11
3538.29	0.129
3547.03	0.2337
3555.78	0.3362
3564.52	0.4154
3573.26	0.4897
3582.01	0.538
3590.75	0.5676
3599.5	0.5352
3608.24	0.4736
3616.99	0.4234
3625.73	0.318
3634.48	0.2168
3643.22	0.3318
3651.96	0.4648
3660.71	0.6357
3669.45	0.6857
3678.2	0.7659
3686.94	0.8028
3695.69	0.8207
3704.43	0.8337
3713.18	0.8428
3721.92	0.8479
3730.66	0.8489
3739.41	0.848
3748.15	0.8489
3756.9	0.8549
3765.64	0.8569
3774.39	0.858
3783.13	0.858
3791.87	0.859
3800.62	0.8599
3809.36	0.858
3818.11	0.858
3826.85	0.856
3835.6	0.854
3844.34	0.853
3853.09	0.853
3861.83	0.853
3870.57	0.853
3879.32	0.854
3888.06	0.853
3896.81	0.852
3905.55	0.85
3914.3	0.848
3923.04	0.8399
3931.79	0.836
3940.53	0.832
3949.27	0.8299
3958.02	0.8289
3966.76	0.8259
3975.51	0.8239
3984.25	0.821
3993	0.822
4001.74	0.824
4010.48	0.824
4019.23	0.824
