Infrared Spectrum: RHODANILIC ACID AMMONIUM SALT
Formula: C16 H18 N7 S4 Cr
State: SOLID (MINERAL OIL MULL)
Class: COBLENTZ
Instrument: Not specified, most likely a prism, grating, or hybrid spectrometer.
Sampling: TRANSMISSION
Resolution: 4
Origin: WYANDOTTE CHEMICALS CORP., WYANDOTTE, MICHIGAN, USA
MICROMETERS	TRANSMITTANCE
2.019	0.222
2.05615	0.23
2.0933	0.224
2.13045	0.229
2.1676	0.227
2.20475	0.227
2.2419	0.232
2.27905	0.233
2.3162	0.233
2.35335	0.252
2.39049	0.252
2.42764	0.263
2.46479	0.27
2.50194	0.267
2.53909	0.264
2.57624	0.289
2.61339	0.304
2.65054	0.315
2.68769	0.318
2.72484	0.266
2.76199	0.182
2.79914	0.164
2.83629	0.153
2.87344	0.14
2.91059	0.131
2.94774	0.128
2.98489	0.148
3.02204	0.179
3.05919	0.156
3.09633	0.072
3.13348	0.041
3.17063	0.058
3.20778	0.046
3.24493	0.071
3.28208	0.063
3.31923	0.046
3.35638	0.013
3.39353	0.017
3.43068	0.017
3.46783	0.017
3.50498	0.02
3.54213	0.139
3.57928	0.238
3.61643	0.292
3.65358	0.306
3.69073	0.312
3.72788	0.348
3.76503	0.362
3.80217	0.396
3.83932	0.407
3.87647	0.441
3.91362	0.456
3.95077	0.476
3.98792	0.493
4.02507	0.507
4.06222	0.512
4.09937	0.53
4.13652	0.535
4.17367	0.563
4.21082	0.586
4.24797	0.6
4.28512	0.602
4.32227	0.605
4.35942	0.608
4.39657	0.611
4.43372	0.662
4.47086	0.69
4.50801	0.746
4.54516	0.82
4.58231	0.873
4.61946	0.924
4.65661	0.961
4.69376	0.896
4.73091	0.6
4.76806	0.086
4.80521	0.023
4.84236	0.023
4.87951	0.027
4.91666	0.03
4.95381	0.052
4.99096	0.083
5.02811	0.128
5.06526	0.157
5.10241	0.199
5.13956	0.229
5.1767	0.232
5.21385	0.266
5.251	0.3
5.28815	0.326
5.3253	0.342
5.36245	0.356
5.3996	0.369
5.43675	0.393
5.4739	0.408
5.51105	0.419
5.5482	0.422
5.58535	0.434
5.6225	0.434
5.65965	0.45
5.6968	0.467
5.73395	0.472
5.7711	0.472
5.80825	0.478
5.8454	0.481
5.88254	0.487
5.91969	0.476
5.95684	0.465
5.99399	0.469
6.03114	0.475
6.06829	0.495
6.10544	0.489
6.14259	0.431
6.17974	0.266
6.21689	0.21
6.25404	0.241
6.29119	0.08
6.32834	0.295
6.36549	0.366
6.40264	0.407
6.43979	0.413
6.47694	0.452
6.51409	0.467
6.55124	0.484
6.58838	0.498
6.62553	0.495
6.66268	0.125
6.69983	0.277
6.73698	0.226
6.77413	0.035
6.81128	0.032
6.84843	0.04
6.88558	0.054
6.92273	0.083
6.95988	0.108
6.99703	0.126
7.03418	0.128
7.07133	0.143
7.10848	0.162
7.14563	0.199
7.18278	0.208
7.21993	0.114
7.25708	0.097
7.29422	0.221
7.33137	0.311
7.36852	0.402
7.40567	0.421
7.44282	0.436
7.47997	0.484
7.51712	0.507
7.55427	0.523
7.59142	0.524
7.62857	0.534
7.66572	0.529
7.70287	0.554
7.74002	0.566
7.77717	0.582
7.81432	0.586
7.85147	0.588
7.88862	0.599
7.92577	0.605
7.96291	0.616
8.00006	0.617
8.03721	0.626
8.07436	0.628
8.11151	0.648
8.14866	0.592
8.18581	0.537
8.22296	0.63
8.26011	0.651
8.29726	0.665
8.33441	0.678
8.37156	0.688
8.40871	0.698
8.44586	0.691
8.48301	0.586
8.52016	0.637
8.55731	0.637
8.59446	0.594
8.63161	0.469
8.66875	0.256
8.7059	0.091
8.74305	0.04
8.7802	0.075
8.81735	0.145
8.8545	0.233
8.89165	0.343
8.9288	0.421
8.96595	0.47
9.0031	0.507
9.04025	0.532
9.0774	0.566
9.11455	0.582
9.1517	0.588
9.18885	0.6
9.226	0.609
9.26315	0.595
9.3003	0.465
9.33745	0.41
9.37459	0.537
9.41174	0.594
9.44889	0.614
9.48604	0.639
9.52319	0.637
9.56034	0.64
9.59749	0.647
9.63464	0.653
9.67179	0.647
9.70894	0.583
9.74609	0.49
9.78324	0.611
9.82039	0.645
9.85754	0.654
9.89469	0.659
9.93184	0.67
9.96899	0.64
10.0061	0.667
10.0433	0.665
10.0804	0.64
10.1176	0.657
10.1547	0.668
10.1919	0.662
10.229	0.647
10.2662	0.63
10.3033	0.611
10.3405	0.586
10.3776	0.566
10.4148	0.583
10.4519	0.58
10.4891	0.575
10.5262	0.578
10.5634	0.597
10.6005	0.613
10.6377	0.634
10.6748	0.654
10.712	0.667
10.7491	0.678
10.7863	0.685
10.8234	0.707
10.8606	0.704
10.8977	0.705
10.9349	0.713
10.972	0.722
11.0092	0.707
11.0463	0.679
11.0835	0.684
11.1206	0.639
11.1578	0.688
11.1949	0.727
11.2321	0.726
11.2692	0.749
11.3064	0.756
11.3435	0.767
11.3807	0.77
11.4178	0.778
11.455	0.786
11.4921	0.786
11.5293	0.791
11.5664	0.798
11.6036	0.787
11.6407	0.791
11.6779	0.789
11.715	0.787
11.7522	0.783
11.7893	0.775
11.8265	0.777
11.8636	0.767
11.9008	0.739
11.9379	0.719
11.9751	0.729
12.0122	0.733
12.0494	0.736
12.0865	0.727
12.1237	0.724
12.1608	0.738
12.198	0.721
12.2351	0.719
12.2723	0.722
12.3094	0.747
12.3466	0.756
12.3837	0.744
12.4209	0.656
12.458	0.498
12.4952	0.441
12.5323	0.554
12.5694	0.668
12.6066	0.743
12.6437	0.778
12.6809	0.795
12.718	0.806
12.7552	0.804
12.7923	0.798
12.8295	0.778
12.8666	0.756
12.9038	0.696
12.9409	0.566
12.9781	0.393
13.0152	0.318
13.0524	0.334
13.0895	0.388
13.1267	0.343
13.1638	0.196
13.201	0.109
13.2381	0.219
13.2753	0.391
13.3124	0.513
13.3496	0.583
13.3867	0.634
13.4239	0.659
13.461	0.676
13.4982	0.674
13.5353	0.681
13.5725	0.685
13.6096	0.69
13.6468	0.695
13.6839	0.696
13.7211	0.708
13.7582	0.699
13.7954	0.704
13.8325	0.696
13.8697	0.698
13.9068	0.701
13.944	0.724
13.9811	0.746
14.0183	0.763
14.0554	0.777
14.0926	0.786
14.1297	0.789
14.1669	0.795
14.204	0.789
14.2412	0.753
14.2783	0.704
14.3155	0.616
14.3526	0.464
14.3898	0.343
14.4269	0.255
14.4641	0.212
14.5012	0.269
14.5384	0.391
14.5755	0.515
14.6127	0.586
14.6498	0.62
14.687	0.626
14.7241	0.634
14.7613	0.631
14.7984	0.611
14.8356	0.595
14.8727	0.575
14.9099	0.551
14.947	0.537
14.9842	0.52
15.0213	0.484
15.0585	0.434
15.0956	0.408
15.1328	0.399
15.1699	0.405
15.2071	0.424
15.2442	0.452
15.2814	0.472
15.3185	0.498
15.3557	0.512
15.3928	0.52
15.43	0.534
15.4671	0.537
15.5043	0.534
15.5414	0.537
15.5786	0.534
15.6157	0.537
15.6529	0.526
15.69	0.513
15.7272	0.507
15.7643	0.495
15.8015	0.484
15.8386	0.478
15.8758	0.473
15.9129	0.452
15.9501	0.441
15.9872	0.434
