Infrared Spectrum: L-HISTIDINE, HYDROCHLORIDE, HYDRATE
Formula: C6 H10 Cl N3 O2  * H2 O
State: SOLID (MULL)
Melting point: 80 C
Class: COBLENTZ III
Instrument: PERKIN-ELMER 521 (GRATING)
Instrument parameters: ORDER CHANGES: 1999, 690 CM^-^1
Sampling: TRANSMISSION
Path length: KBr PLATES
Resolution: 2
Origin: SMITH KLINE & FRENCH LABS.
1/CM	TRANSMITTANCE
4010	0.6697
4000	0.671
3990	0.6726
3980	0.6803
3970	0.6786
3960	0.6793
3950	0.6803
3940	0.6791
3930	0.6783
3920	0.6818
3910	0.6856
3900	0.6864
3890	0.6856
3880	0.6861
3870	0.6868
3860	0.6885
3850	0.6915
3840	0.6914
3830	0.6907
3820	0.6903
3810	0.6904
3800	0.6905
3790	0.6907
3780	0.6915
3770	0.6931
3760	0.694
3750	0.6954
3740	0.6982
3730	0.6998
3720	0.699
3710	0.6932
3700	0.6944
3690	0.6953
3680	0.696
3670	0.6961
3660	0.6961
3650	0.6962
3640	0.6945
3630	0.6854
3620	0.6831
3610	0.6769
3600	0.6678
3590	0.6547
3580	0.6436
3570	0.6331
3560	0.6196
3550	0.6077
3540	0.5972
3530	0.5819
3520	0.5578
3510	0.5352
3500	0.5027
3490	0.4666
3480	0.4344
3470	0.4062
3460	0.3566
3450	0.3322
3440	0.2943
3430	0.2281
3420	0.1748
3410	0.1676
3400	0.1974
3390	0.2409
3380	0.2824
3370	0.3195
3360	0.3652
3350	0.3924
3340	0.4055
3330	0.4135
3320	0.408
3310	0.3976
3300	0.3936
3290	0.3879
3280	0.3798
3270	0.3714
3260	0.363
3250	0.3577
3240	0.355
3230	0.3534
3220	0.3518
3210	0.3482
3200	0.3399
3190	0.3297
3180	0.316
3170	0.2889
3160	0.2522
3150	0.2841
3140	0.2899
3130	0.2768
3120	0.2291
3110	0.1579
3100	0.1787
3090	0.1795
3080	0.1611
3070	0.1708
3060	0.1987
3050	0.2151
3040	0.2153
3030	0.1894
3020	0.1704
3010	0.1734
3000	0.1734
2990	0.1754
2980	0.1734
2970	0.141
2960	0.114
2950	0.1119
2940	0.105
2930	0.0882
2920	0.0861
2910	0.1073
2900	0.1334
2890	0.1539
2880	0.1726
2870	0.1667
2860	0.1639
2850	0.1899
2840	0.2737
2830	0.343
2820	0.3729
2810	0.3836
2800	0.3997
2790	0.4164
2780	0.4144
2770	0.4152
2760	0.416
2750	0.416
2740	0.4059
2730	0.4
2720	0.393
2710	0.393
2700	0.4025
2690	0.4181
2680	0.4342
2670	0.446
2660	0.4488
2650	0.4428
2640	0.4131
2630	0.3807
2620	0.3694
2610	0.3828
2600	0.3973
2590	0.4034
2580	0.4059
2570	0.4066
2560	0.4082
2550	0.4129
2540	0.4239
2530	0.4366
2520	0.437
2510	0.431
2500	0.4362
2490	0.4409
2480	0.44
2470	0.4395
2460	0.4412
2450	0.4586
2440	0.4642
2430	0.4699
2420	0.4894
2410	0.4878
2400	0.4896
2390	0.4927
2380	0.4967
2370	0.5024
2360	0.5096
2350	0.5182
2340	0.5294
2330	0.5383
2320	0.5502
2310	0.5667
2300	0.5666
2290	0.5676
2280	0.5684
2270	0.5744
2260	0.5835
2250	0.5855
2240	0.59
2230	0.5956
2220	0.6007
2210	0.6051
2200	0.6079
2190	0.608
2180	0.606
2170	0.6068
2160	0.6075
2150	0.6078
2140	0.6082
2130	0.6069
2120	0.6015
2110	0.5885
2100	0.5782
2090	0.573
2080	0.5631
2070	0.5462
2060	0.526
2050	0.4928
2040	0.4816
2030	0.4804
2020	0.4788
2010	0.4774
2000	0.4758
1990	0.4858
1980	0.5029
1970	0.5178
1960	0.5335
1950	0.5468
1940	0.5545
1930	0.5591
1920	0.5723
1910	0.5908
1900	0.607
1890	0.6173
1880	0.6204
1870	0.6258
1860	0.6329
1850	0.6418
1840	0.6487
1830	0.6558
1820	0.6676
1810	0.6772
1800	0.6842
1790	0.688
1780	0.6861
1770	0.685
1760	0.6868
1750	0.6874
1740	0.6849
1730	0.676
1720	0.6608
1710	0.6596
1700	0.6286
1690	0.6015
1680	0.564
1670	0.4865
1660	0.4032
1650	0.3662
1640	0.2973
1630	0.2133
1620	0.2279
1610	0.2198
1600	0.1574
1590	0.2756
1580	0.2325
1570	0.2502
1560	0.4073
1550	0.4966
1540	0.5659
1530	0.5939
1520	0.5858
1510	0.5237
1500	0.2321
1490	0.2026
1480	0.4197
1470	0.4256
1460	0.4242
1450	0.4254
1440	0.4768
1430	0.5517
1420	0.4975
1410	0.2345
1400	0.321
1390	0.5155
1380	0.5409
1370	0.4577
1360	0.5488
1350	0.5334
1340	0.2695
1330	0.1471
1320	0.4499
1310	0.5446
1300	0.4795
1290	0.5442
1280	0.441
1270	0.6218
1260	0.6353
1250	0.6567
1240	0.6784
1230	0.6967
1220	0.6993
1210	0.7048
1200	0.6846
1190	0.695
1180	0.555
1170	0.6217
1160	0.5865
1150	0.6464
1140	0.429
1130	0.6158
1120	0.5089
1110	0.6511
1100	0.6999
1090	0.6951
1080	0.6462
1070	0.6062
1060	0.435
1050	0.6654
1040	0.7014
1030	0.7118
1020	0.7271
1010	0.7417
1000	0.7511
990	0.7697
980	0.7635
970	0.6907
960	0.5699
950	0.608
940	0.7514
930	0.7765
920	0.639
910	0.5745
900	0.6826
890	0.7104
880	0.7368
870	0.4954
860	0.5027
850	0.6691
840	0.658
830	0.5519
820	0.4101
810	0.5771
800	0.5406
790	0.7467
780	0.7815
770	0.7967
760	0.8028
750	0.8051
740	0.8054
730	0.8054
720	0.8021
710	0.7912
700	0.7607
690	0.634
680	0.7625
670	0.7688
660	0.749
650	0.6839
640	0.6328
630	0.495
620	0.5692
610	0.564
600	0.5942
590	0.6384
580	0.6615
570	0.6521
560	0.6059
550	0.5485
540	0.552
530	0.5152
520	0.5139
510	0.6352
500	0.6772
490	0.6736
480	0.6707
470	0.7058
460	0.7153
450	0.7225
440	0.7193
430	0.6701
420	0.6795
410	0.6718
400	0.6368
390	0.6184
380	0.517
370	0.4121
360	0.4256
350	0.4003
340	0.3014
330	0.2242
320	0.2016
310	0.147
300	0.1296
290	0.121
280	0.1179
270	0.1223
260	0.1163
250	0.1159
240	0.1225
230	0.1288
220	0.1307
210	0.1364
