Infrared Spectrum: Benzylcarbamic acid, benzylamine salt
Formula: C15 H18 N2 O2
State: SOLID (SPLIT MULL), FLUOROLUBE FOR 3800-1330 CM^-^1, NUJOL FOR 1330-400 CM^-^1
Class: COBLENTZ III
Instrument: BECKMAN IR-9 (GRATING)
Instrument parameters: ORDER CHANGES: 670, 1200, 2000 CM^-^1
Sampling: TRANSMISSION
Resolution: 2
Origin: DOW CHEMICAL COMPANY
1/CM	TRANSMITTANCE
3768	0.6401
3759	0.6437
3750	0.6482
3741	0.6525
3732	0.6561
3723	0.6593
3714	0.6558
3705	0.6515
3696	0.6515
3687	0.6599
3678	0.6658
3669	0.67
3660	0.6739
3651	0.6771
3642	0.6804
3633	0.6835
3624	0.6862
3615	0.689
3606	0.6918
3597	0.6946
3588	0.6978
3579	0.7011
3570	0.7044
3561	0.7076
3552	0.711
3543	0.7142
3534	0.7175
3525	0.7208
3516	0.7241
3507	0.7265
3498	0.7289
3489	0.7311
3480	0.7335
3471	0.736
3462	0.7386
3453	0.7411
3444	0.7439
3435	0.7462
3426	0.7487
3417	0.7508
3408	0.7528
3399	0.7531
3390	0.7528
3381	0.7511
3372	0.7471
3363	0.7397
3354	0.7299
3345	0.7178
3336	0.6983
3327	0.6605
3318	0.6195
3309	0.5242
3300	0.3686
3291	0.2929
3282	0.3441
3273	0.4692
3264	0.52
3255	0.573
3246	0.6026
3237	0.6227
3228	0.632
3219	0.634
3210	0.6328
3201	0.6277
3192	0.6172
3183	0.6023
3174	0.5842
3165	0.565
3156	0.5435
3147	0.518
3138	0.4922
3129	0.4632
3120	0.4309
3111	0.3959
3102	0.3643
3093	0.323
3084	0.2861
3075	0.2655
3066	0.2605
3057	0.2622
3048	0.2985
3039	0.287
3030	0.299
3021	0.3362
3012	0.3097
3003	0.3127
2994	0.3153
2985	0.3169
2976	0.3308
2967	0.333
2958	0.3282
2949	0.3364
2940	0.348
2931	0.3604
2922	0.3758
2913	0.3882
2904	0.3937
2895	0.4014
2886	0.4178
2877	0.4399
2868	0.4587
2859	0.4757
2850	0.494
2841	0.5152
2832	0.5309
2823	0.535
2814	0.5273
2805	0.5231
2796	0.5278
2787	0.5435
2778	0.557
2769	0.5635
2760	0.5692
2751	0.5789
2742	0.5902
2733	0.6029
2724	0.6174
2715	0.6243
2706	0.6236
2697	0.6162
2688	0.6168
2679	0.6236
2670	0.6369
2661	0.6501
2652	0.6575
2643	0.661
2634	0.6617
2625	0.661
2616	0.6608
2607	0.6608
2598	0.6604
2589	0.6596
2580	0.6562
2571	0.6501
2562	0.6433
2553	0.6388
2544	0.6328
2535	0.6248
2526	0.6177
2517	0.6109
2508	0.604
2499	0.5971
2490	0.5915
2481	0.5953
2472	0.5991
2463	0.5985
2454	0.597
2445	0.5954
2436	0.5952
2427	0.5951
2418	0.5968
2409	0.5996
2400	0.6025
2391	0.6104
2382	0.6319
2373	0.6469
2364	0.6457
2355	0.6415
2346	0.6408
2337	0.6398
2328	0.6408
2319	0.6424
2310	0.6444
2301	0.6486
2292	0.6536
2283	0.6597
2274	0.6715
2265	0.6868
2256	0.6984
2247	0.7071
2238	0.7138
2229	0.7175
2220	0.7128
2211	0.7081
2202	0.6935
2193	0.6788
2184	0.6691
2175	0.6622
2166	0.6606
2157	0.6632
2148	0.6675
2139	0.6653
2130	0.6556
2121	0.649
2112	0.6454
2103	0.6406
2094	0.6408
2085	0.6448
2076	0.6497
2067	0.6553
2058	0.6608
2049	0.6661
2040	0.6712
2031	0.6765
2022	0.6826
2013	0.6887
2004	0.6943
1995	0.7017
1986	0.7069
1977	0.7212
1968	0.7301
1959	0.7289
1950	0.7414
1941	0.7415
1932	0.7408
1923	0.7418
1914	0.7445
1905	0.7456
1896	0.7553
1887	0.7578
1878	0.7717
1869	0.7861
1860	0.7968
1851	0.8046
1842	0.8101
1833	0.8115
1824	0.8175
1815	0.8371
1806	0.8557
1797	0.863
1788	0.8617
1779	0.8662
1770	0.8728
1761	0.8791
1752	0.8839
1743	0.8831
1734	0.8791
1725	0.8721
1716	0.8773
1707	0.8849
1698	0.8878
1689	0.8821
1680	0.854
1671	0.8158
1662	0.7625
1653	0.6598
1644	0.4579
1635	0.3712
1626	0.3697
1617	0.4954
1608	0.4749
1599	0.4605
1590	0.36
1581	0.2741
1572	0.1007
1563	0.1222
1554	0.2442
1545	0.2532
1536	0.2305
1527	0.2246
1518	0.2268
1509	0.2226
1500	0.1693
1491	0.1901
1482	0.1474
1473	0.1587
1464	0.1435
1455	0.0879
1446	0.1318
1437	0.1863
1428	0.26
1419	0.3337
1410	0.3088
1401	0.1637
1392	0.17
1383	0.2222
1374	0.4232
1365	0.5478
1356	0.5133
1347	0.2565
1338	0.0832
1329	0.1292
1320	0.2919
1311	0.1637
1302	0.1791
1293	0.3078
1284	0.257
1275	0.3384
1266	0.3907
1257	0.4221
1248	0.4396
1239	0.4406
1230	0.4095
1221	0.4469
1212	0.4153
1203	0.4729
1194	0.4866
1185	0.4777
1176	0.5004
1167	0.4865
1158	0.4423
1149	0.3541
1140	0.4041
1131	0.4248
1122	0.412
1113	0.4068
1104	0.408
1095	0.4134
1086	0.4181
1077	0.3512
1068	0.4792
1059	0.5137
1050	0.4859
1041	0.2327
1032	0.4956
1023	0.6134
1014	0.6711
1005	0.569
996	0.6495
987	0.7011
978	0.7285
969	0.761
960	0.7743
951	0.7918
942	0.7728
933	0.6628
924	0.7968
915	0.8031
906	0.8218
897	0.7925
888	0.8432
879	0.8501
870	0.8423
861	0.8207
852	0.8303
843	0.8208
834	0.7824
825	0.7621
816	0.4425
807	0.7797
798	0.7761
789	0.7771
780	0.7769
771	0.7551
762	0.7033
753	0.4554
744	0.1575
735	0.3357
726	0.5318
717	0.6359
708	0.4671
699	0.1042
690	0.5746
681	0.7335
672	0.7657
663	0.7922
654	0.7901
645	0.718
636	0.5114
627	0.4959
618	0.6377
609	0.6015
600	0.7435
591	0.8285
582	0.7448
573	0.6789
564	0.865
555	0.8747
546	0.8701
537	0.8571
528	0.8374
519	0.8157
510	0.7855
501	0.7486
492	0.7004
483	0.6132
474	0.4595
465	0.4003
456	0.6431
447	0.6436
438	0.6139
429	0.5562
420	0.4755
411	0.3155
