Infrared Spectrum: 2-ISOBUTYLBENZOXAZONE-4
Formula: C12 H15 N O2
State: SOLUTION (7% CHCl3)
Class: COBLENTZ
Instrument: Not specified, most likely a prism, grating, or hybrid spectrometer.
Sampling: TRANSMISSION
Path length: 0.009 CM
Resolution: 4
MICROMETERS	TRANSMITTANCE
2.042	0.98
2.07775	0.978
2.11349	0.973
2.14924	0.973
2.18498	0.968
2.22073	0.968
2.25648	0.968
2.29222	0.962
2.32797	0.954
2.36372	0.954
2.39946	0.954
2.43521	0.95
2.47095	0.952
2.5067	0.952
2.54245	0.955
2.57819	0.954
2.61394	0.954
2.64968	0.952
2.68543	0.952
2.72118	0.954
2.75692	0.948
2.79267	0.978
2.82842	0.938
2.86416	0.917
2.89991	0.892
2.93565	0.7
2.9714	0.828
3.00715	0.814
3.04289	0.786
3.07864	0.705
3.11438	0.603
3.15013	0.613
3.18588	0.686
3.22162	0.696
3.25737	0.677
3.29311	0.71
3.32886	0.583
3.36461	0.393
3.40035	0.396
3.4361	0.566
3.47185	0.587
3.50759	0.703
3.54334	0.816
3.57908	0.848
3.61483	0.874
3.65058	0.885
3.68632	0.888
3.72207	0.899
3.75781	0.906
3.79356	0.913
3.82931	0.911
3.86505	0.915
3.9008	0.915
3.93655	0.917
3.97229	0.904
4.00804	0.91
4.04378	0.906
4.07953	0.911
4.11528	0.91
4.15102	0.92
4.18677	0.936
4.22251	0.94
4.25826	0.94
4.29401	0.938
4.32975	0.936
4.3655	0.924
4.40125	0.924
4.43699	0.931
4.47274	0.936
4.50848	0.927
4.54423	0.925
4.57998	0.929
4.61572	0.929
4.65147	0.929
4.68721	0.927
4.72296	0.925
4.75871	0.924
4.79445	0.924
4.8302	0.924
4.86595	0.924
4.90169	0.924
4.93744	0.925
4.97318	0.927
5.00893	0.927
5.04468	0.924
5.08042	0.92
5.11617	0.904
5.15191	0.91
5.18766	0.906
5.22341	0.911
5.25915	0.913
5.2949	0.915
5.33065	0.913
5.36639	0.911
5.40214	0.913
5.43788	0.91
5.47363	0.908
5.50938	0.899
5.54512	0.901
5.58087	0.913
5.61661	0.908
5.65236	0.908
5.68811	0.901
5.72385	0.897
5.7596	0.873
5.79534	0.83
5.83109	0.797
5.86684	0.574
5.90258	0.336
5.93833	0.051
5.97408	0.014
6.00982	0.102
6.04557	0.37
6.08131	0.552
6.11706	0.654
6.15281	0.576
6.18855	0.32
6.2243	0.382
6.26004	0.721
6.29579	0.719
6.33154	0.693
6.36728	0.795
6.40303	0.844
6.43878	0.858
6.47452	0.88
6.51027	0.887
6.54601	0.892
6.58176	0.887
6.61751	0.848
6.65325	0.821
6.689	0.761
6.72474	0.626
6.76049	0.386
6.79624	0.206
6.83198	0.072
6.86773	0.317
6.90348	0.44
6.93922	0.4
6.97497	0.38
7.01071	0.522
7.04646	0.698
7.08221	0.716
7.11795	0.62
7.1537	0.518
7.18944	0.396
7.22519	0.379
7.26094	0.463
7.29668	0.557
7.33243	0.564
7.36818	0.636
7.40392	0.55
7.43967	0.37
7.47541	0.209
7.51116	0.317
7.54691	0.548
7.58265	0.634
7.6184	0.673
7.65414	0.65
7.68989	0.703
7.72564	0.781
7.76138	0.804
7.79713	0.813
7.83287	0.814
7.86862	0.82
7.90437	0.802
7.94011	0.744
7.97586	0.754
8.01161	0.774
8.04735	0.758
8.0831	0.664
8.11884	0.569
8.15459	0.5
8.19034	0.518
8.22608	0.537
8.26183	0.559
8.29757	0.583
8.33332	0.707
8.36907	0.865
8.40481	0.894
8.44056	0.894
8.47631	0.885
8.51205	0.851
8.5478	0.797
8.58354	0.784
8.61929	0.707
8.65504	0.671
8.69078	0.657
8.72653	0.52
8.76227	0.451
8.79802	0.55
8.83377	0.703
8.86951	0.761
8.90526	0.813
8.94101	0.835
8.97675	0.844
9.0125	0.823
9.04824	0.798
9.08399	0.753
9.11974	0.719
9.15548	0.716
9.19123	0.724
9.22697	0.71
9.26272	0.694
9.29847	0.705
9.33421	0.728
9.36996	0.749
9.40571	0.763
9.44145	0.793
9.4772	0.823
9.51294	0.834
9.54869	0.821
9.58444	0.797
9.62018	0.737
9.65593	0.7
9.69167	0.723
9.72742	0.746
9.76317	0.724
9.79891	0.818
9.83466	0.85
9.87041	0.873
9.90615	0.88
9.9419	0.885
9.97764	0.883
10.0134	0.88
10.0491	0.869
10.0849	0.835
10.1206	0.772
10.1564	0.7
10.1921	0.668
10.2279	0.65
10.2636	0.657
10.2994	0.726
10.3351	0.786
10.3709	0.813
10.4066	0.8
10.4423	0.761
10.4781	0.696
10.5138	0.712
10.5496	0.79
10.5853	0.83
10.6211	0.851
10.6568	0.873
10.6926	0.892
10.7283	0.902
10.7641	0.908
10.7998	0.892
10.8356	0.873
10.8713	0.873
10.907	0.878
10.9428	0.876
10.9785	0.892
11.0143	0.892
11.05	0.892
11.0858	0.89
11.1215	0.89
11.1573	0.881
11.193	0.873
11.2288	0.846
11.2645	0.802
11.3003	0.754
11.336	0.675
11.3717	0.668
11.4075	0.749
11.4432	0.795
11.479	0.804
11.5147	0.791
11.5505	0.814
11.5862	0.837
11.622	0.846
11.6577	0.85
11.6935	0.846
11.7292	0.844
11.765	0.844
11.8007	0.846
11.8364	0.85
11.8722	0.85
11.9079	0.848
11.9437	0.834
11.9794	0.807
12.0152	0.797
12.0509	0.763
12.0867	0.768
12.1224	0.79
12.1582	0.813
12.1939	0.83
12.2297	0.843
12.2654	0.857
12.3011	0.873
12.3369	0.88
12.3726	0.888
12.4084	0.901
12.4441	0.906
12.4799	0.918
12.5156	0.931
12.5514	0.945
12.5871	0.959
12.6229	0.977
12.6586	0.982
12.6944	0.994
12.7301	1.001
12.7658	1.007
12.8016	1.01
12.8373	1.012
12.8731	1.012
12.9088	1.012
12.9446	1.012
12.9803	1.012
13.0161	1.01
13.0518	1.01
13.0876	1.008
13.1233	1.008
13.1591	1.008
13.1948	1.007
13.2305	1.007
13.2663	1.007
13.302	1.007
13.3378	1.007
13.3735	1.007
13.4093	1.007
13.445	1.007
13.4808	1.007
13.5165	1.007
13.5523	1.007
13.588	1.007
13.6237	1.008
13.6595	1.008
13.6952	1.008
13.731	1.008
13.7667	1.008
13.8025	1.003
13.8382	0.991
13.874	0.98
13.9097	0.948
13.9455	0.925
13.9812	0.908
14.017	0.892
14.0527	0.876
14.0884	0.86
14.1242	0.843
14.1599	0.828
14.1957	0.818
14.2314	0.811
14.2672	0.805
14.3029	0.795
14.3387	0.781
14.3744	0.753
14.4102	0.696
14.4459	0.656
14.4817	0.664
14.5174	0.686
14.5531	0.731
14.5889	0.79
14.6246	0.85
14.6604	0.883
14.6961	0.899
14.7319	0.917
14.7676	0.938
14.8034	0.947
14.8391	0.954
14.8749	0.955
14.9106	0.943
14.9464	0.936
14.9821	0.927
15.0178	0.895
15.0536	0.85
15.0893	0.837
15.1251	0.844
15.1608	0.855
15.1966	0.867
15.2323	0.871
15.2681	0.881
15.3038	0.888
15.3396	0.89
15.3753	0.892
15.4111	0.894
15.4468	0.897
