Infrared Spectrum: SODIUM TRIPOLYPHOSPHATE, FORM I
Formula: Na5 P3 O10
State: SOLID (1.3 mg / 400 mg KBr PELLET)
Class: COBLENTZ
Instrument: PERKIN-ELMER
Sampling: TRANSMISSION
Resolution: 4
Origin: PROCTER AND GAMBLE CO.
1/CM	TRANSMITTANCE
538.346	0.465
547.369	0.464
556.391	0.4161
565.414	0.397
574.436	0.448
583.459	0.517
592.482	0.61
601.504	0.617
610.527	0.569
619.549	0.532
628.572	0.668
637.595	0.735
646.617	0.742
655.64	0.738
664.662	0.708
673.685	0.704
682.708	0.699
691.73	0.677
700.753	0.604
709.775	0.532
718.798	0.549
727.821	0.607
736.843	0.651
745.866	0.738
754.888	0.687
763.911	0.742
772.933	0.745
781.956	0.769
790.979	0.784
800.001	0.781
809.024	0.781
818.046	0.781
827.069	0.776
836.092	0.764
845.114	0.73
854.137	0.672
863.159	0.5461
872.182	0.3631
881.205	0.291
890.227	0.284
899.25	0.286
908.272	0.298
917.295	0.341
926.318	0.407
935.34	0.484
944.363	0.547
953.385	0.58
962.408	0.587
971.431	0.655
980.453	0.713
989.476	0.726
998.498	0.796
1007.52	0.819
1016.54	0.815
1025.57	0.8
1034.59	0.793
1043.61	0.761
1052.63	0.687
1061.66	0.593
1070.68	0.47
1079.7	0.353
1088.72	0.353
1097.75	0.343
1106.77	0.418
1115.79	0.298
1124.81	0.158
1133.84	0.165
1142.86	0.168
1151.88	0.138
1160.91	0.17
1169.93	0.247
1178.95	0.3439
1187.97	0.426
1197	0.448
1206.02	0.249
1215.04	0.238
1224.06	0.3489
1233.09	0.459
1242.11	0.535
1251.13	0.588
1260.15	0.629
1269.18	0.66
1278.2	0.684
1287.22	0.704
1296.24	0.716
1305.27	0.73
1314.29	0.74
1323.31	0.754
1332.33	0.757
1341.36	0.764
1350.38	0.771
1359.4	0.773
1368.42	0.774
1377.45	0.769
1386.47	0.769
1395.49	0.771
1404.52	0.767
1413.54	0.771
1422.56	0.778
1431.58	0.778
1440.61	0.781
1449.63	0.776
1458.65	0.774
1467.67	0.776
1476.7	0.791
1485.72	0.793
1494.74	0.793
1503.76	0.8
1512.79	0.802
1521.81	0.803
1530.83	0.805
1539.85	0.81
1548.88	0.802
1557.9	0.791
1566.92	0.786
1575.94	0.783
1584.97	0.778
1593.99	0.769
1603.01	0.761
1612.03	0.742
1621.06	0.723
1630.08	0.699
1639.1	0.67
1648.13	0.641
1657.15	0.648
1666.17	0.653
1675.19	0.655
1684.22	0.662
1693.24	0.694
1702.26	0.732
1711.28	0.757
1720.31	0.778
1729.33	0.793
1738.35	0.802
1747.37	0.81
1756.4	0.817
1765.42	0.824
1774.44	0.825
1783.46	0.831
1792.49	0.836
1801.51	0.839
1810.53	0.843
1819.55	0.848
1828.58	0.848
1837.6	0.849
1846.62	0.853
1855.64	0.851
1864.67	0.854
1873.69	0.856
1882.71	0.858
1891.74	0.86
1900.76	0.861
1909.78	0.86
1918.8	0.86
1927.83	0.863
1936.85	0.863
1945.87	0.865
1954.89	0.861
1963.92	0.861
1972.94	0.861
1981.96	0.861
1990.98	0.861
2000.01	0.865
2009.03	0.866
2018.05	0.8668
2027.07	0.868
2036.1	0.868
2045.12	0.87
2054.14	0.87
2063.16	0.8668
2072.19	0.8604
2081.21	0.8564
2090.23	0.856
2099.25	0.854
2108.28	0.853
2117.3	0.853
2126.32	0.853
2135.35	0.853
2144.37	0.853
2153.39	0.853
2162.41	0.853
2171.44	0.853
2180.46	0.853
2189.48	0.853
2198.5	0.853
2207.53	0.853
2216.55	0.851
2225.57	0.849
2234.59	0.851
2243.62	0.849
2252.64	0.846
2261.66	0.848
2270.68	0.8461
2279.71	0.846
2288.73	0.848
2297.75	0.846
2306.77	0.848
2315.8	0.846
2324.82	0.844
2333.84	0.844
2342.87	0.846
2351.89	0.844
2360.91	0.844
2369.93	0.848
2378.96	0.846
2387.98	0.846
2397	0.844
2406.02	0.844
2415.05	0.844
2424.07	0.841
2433.09	0.842
2442.11	0.846
2451.14	0.846
2460.16	0.846
2469.18	0.846
2478.2	0.846
2487.23	0.846
2496.25	0.8431
2505.27	0.841
2514.29	0.839
2523.32	0.839
2532.34	0.839
2541.36	0.841
2550.38	0.841
2559.41	0.841
2568.43	0.841
2577.45	0.841
2586.48	0.839
2595.5	0.837
2604.52	0.836
2613.54	0.837
2622.57	0.837
2631.59	0.8361
2640.61	0.8338
2649.63	0.832
2658.66	0.832
2667.68	0.831
2676.7	0.829
2685.72	0.831
2694.75	0.831
2703.77	0.83
2712.79	0.8256
2721.81	0.8267
2730.84	0.822
2739.86	0.82
2748.88	0.819
2757.9	0.8177
2766.93	0.8124
2775.95	0.81
2784.97	0.807
2793.99	0.805
2803.02	0.8023
2812.04	0.7954
2821.06	0.7879
2830.09	0.784
2839.11	0.7767
2848.13	0.757
2857.15	0.752
2866.18	0.7519
2875.2	0.749
2884.22	0.7431
2893.24	0.7387
2902.27	0.7287
2911.29	0.7074
2920.31	0.6785
2929.33	0.6794
2938.36	0.6853
2947.38	0.686
2956.4	0.6789
2965.42	0.677
2974.45	0.675
2983.47	0.6687
2992.49	0.6633
3001.51	0.6509
3010.54	0.6369
3019.56	0.6238
3028.58	0.6065
3037.6	0.5925
3046.63	0.5779
3055.65	0.5606
3064.67	0.5432
3073.7	0.5369
3082.72	0.5295
3091.74	0.52
3100.76	0.5141
3109.79	0.5048
3118.81	0.5
3127.83	0.4964
3136.85	0.4859
3145.88	0.4698
3154.9	0.462
3163.92	0.45
3172.94	0.4374
3181.97	0.43
3190.99	0.4068
3200.01	0.3986
3209.03	0.3782
3218.06	0.3668
3227.08	0.349
3236.1	0.3353
3245.12	0.3282
3254.15	0.3166
3263.17	0.3107
3272.19	0.298
3281.21	0.296
3290.24	0.296
3299.26	0.2918
3308.28	0.2864
3317.31	0.2811
3326.33	0.2706
3335.35	0.2652
3344.37	0.2579
3353.4	0.2492
3362.42	0.2421
3371.44	0.228
3380.46	0.2256
3389.49	0.2256
3398.51	0.226
3407.53	0.2279
3416.55	0.228
3425.58	0.23
3434.6	0.2326
3443.62	0.237
3452.64	0.2418
3461.67	0.2473
3470.69	0.2544
3479.71	0.2592
3488.73	0.2705
3497.76	0.2778
3506.78	0.2913
3515.8	0.3037
3524.83	0.3141
3533.85	0.3242
3542.87	0.3477
3551.89	0.3584
3560.92	0.3797
3569.94	0.3967
3578.96	0.4099
3587.98	0.4209
3597.01	0.4463
3606.03	0.457
3615.05	0.447
3624.07	0.3842
3633.1	0.3979
3642.12	0.4524
3651.14	0.5099
3660.16	0.5478
3669.19	0.5902
3678.21	0.6038
3687.23	0.6104
3696.25	0.6183
3705.28	0.6265
3714.3	0.6324
3723.32	0.6427
3732.34	0.6501
3741.37	0.655
3750.39	0.658
3759.41	0.658
3768.44	0.66
3777.46	0.6621
3786.48	0.665
3795.5	0.6675
3804.53	0.67
3813.55	0.67
3822.57	0.6722
3831.59	0.6776
3840.62	0.679
3849.64	0.6776
3858.66	0.675
3867.68	0.677
3876.71	0.679
3885.73	0.679
3894.75	0.6814
3903.77	0.684
3912.8	0.684
3921.82	0.6846
3930.84	0.685
3939.86	0.686
3948.89	0.686
3957.91	0.686
3966.93	0.686
3975.95	0.686
3984.98	0.686
3994	0.686
