Infrared Spectrum: TRIS ETHYLENE DIAMINE COBALT CHLORIDE
Formula: C6 H24 Cl3 Co N6
State: SOLID (2.2% KBr PELLET)
Class: COBLENTZ
Instrument: Not specified, most likely a prism, grating, or hybrid spectrometer.
Sampling: TRANSMISSION
Path length: 0.0031 CM THICK
Resolution: 4
MICROMETERS	TRANSMITTANCE
2.04	0.133
2.08	0.178
2.12	0.21
2.16	0.233
2.2	0.255
2.23999	0.273
2.27999	0.283
2.31999	0.301
2.35999	0.306
2.39999	0.326
2.43999	0.326
2.47999	0.335
2.51999	0.358
2.55999	0.396
2.59999	0.421
2.63998	0.435
2.67998	0.405
2.71998	0.28
2.75998	0.13
2.79998	0.043
2.83998	0.033
2.87998	0.056
2.91998	0.141
2.95998	0.23
2.99997	0.236
3.03997	0.115
3.07997	0.028
3.11997	0.021
3.15997	0.015
3.19997	0.015
3.23997	0.05
3.27997	0.141
3.31997	0.165
3.35997	0.216
3.39996	0.256
3.43996	0.325
3.47996	0.41
3.51996	0.463
3.55996	0.506
3.59996	0.535
3.63996	0.55
3.67996	0.58
3.71996	0.576
3.75995	0.563
3.79995	0.581
3.83995	0.626
3.87995	0.64
3.91995	0.621
3.95995	0.626
3.99995	0.64
4.03995	0.655
4.07995	0.62
4.11995	0.628
4.15994	0.61
4.19994	0.543
4.23994	0.611
4.27994	0.643
4.31994	0.673
4.35994	0.675
4.39994	0.675
4.43994	0.721
4.47994	0.765
4.51993	0.791
4.55993	0.778
4.59993	0.755
4.63993	0.746
4.67993	0.74
4.71993	0.746
4.75993	0.741
4.79993	0.736
4.83993	0.73
4.87993	0.728
4.91992	0.743
4.95992	0.768
4.99992	0.823
5.03992	0.848
5.07992	0.873
5.11992	0.86
5.15992	0.853
5.19992	0.888
5.23992	0.928
5.27991	0.956
5.31991	0.963
5.35991	0.97
5.39991	0.973
5.43991	0.985
5.47991	0.975
5.51991	0.958
5.55991	0.956
5.59991	0.961
5.63991	0.981
5.6799	0.97
5.7199	0.961
5.7599	0.923
5.7999	0.916
5.8399	0.933
5.8799	0.923
5.9199	0.955
5.9599	0.948
5.9999	0.908
6.03989	0.841
6.07989	0.793
6.11989	0.588
6.15989	0.253
6.19989	0.165
6.23989	0.16
6.27989	0.078
6.31989	0.083
6.35989	0.133
6.39989	0.088
6.43988	0.155
6.47988	0.395
6.51988	0.565
6.55988	0.645
6.59988	0.725
6.63988	0.791
6.67988	0.741
6.71988	0.785
6.75988	0.61
6.79988	0.373
6.83987	0.278
6.87987	0.631
6.91987	0.741
6.95987	0.808
6.99987	0.853
7.03987	0.898
7.07987	0.911
7.11987	0.9
7.15987	0.893
7.19986	0.893
7.23986	0.88
7.27986	0.715
7.31986	0.385
7.35986	0.746
7.39986	0.913
7.43986	0.916
7.47986	0.778
7.51986	0.423
7.55986	0.558
7.59985	0.773
7.63985	0.806
7.67985	0.793
7.71985	0.863
7.75985	0.795
7.79985	0.628
7.83985	0.653
7.87985	0.768
7.91985	0.76
7.95984	0.635
7.99984	0.598
8.03984	0.72
8.07984	0.853
8.11984	0.89
8.15984	0.868
8.19984	0.806
8.23984	0.84
8.27984	0.898
8.31984	0.93
8.35983	0.935
8.39983	0.918
8.43983	0.88
8.47983	0.888
8.51983	0.87
8.55983	0.681
8.59983	0.4
8.63983	0.348
8.67983	0.558
8.71982	0.755
8.75982	0.823
8.79982	0.821
8.83982	0.735
8.87982	0.49
8.91982	0.508
8.95982	0.665
8.99982	0.725
9.03982	0.828
9.07982	0.873
9.11981	0.895
9.15981	0.901
9.19981	0.896
9.23981	0.871
9.27981	0.841
9.31981	0.791
9.35981	0.63
9.39981	0.39
9.43981	0.19
9.4798	0.156
9.5198	0.291
9.5598	0.523
9.5998	0.685
9.6398	0.75
9.6798	0.763
9.7198	0.765
9.7598	0.763
9.7998	0.751
9.8398	0.758
9.87979	0.768
9.91979	0.715
9.95979	0.688
9.99979	0.766
10.0398	0.803
10.0798	0.826
10.1198	0.831
10.1598	0.841
10.1998	0.846
10.2398	0.85
10.2798	0.856
10.3198	0.851
10.3598	0.86
10.3998	0.858
10.4398	0.858
10.4798	0.861
10.5198	0.87
10.5598	0.87
10.5998	0.871
10.6398	0.868
10.6798	0.87
10.7198	0.873
10.7598	0.881
10.7998	0.878
10.8398	0.871
10.8798	0.875
10.9198	0.871
10.9598	0.861
10.9998	0.863
11.0398	0.858
11.0798	0.855
11.1198	0.816
11.1598	0.731
11.1998	0.72
11.2398	0.793
11.2798	0.835
11.3198	0.808
11.3598	0.798
11.3998	0.82
11.4398	0.848
11.4798	0.88
11.5198	0.89
11.5598	0.891
11.5997	0.898
11.6397	0.901
11.6797	0.901
11.7197	0.9
11.7597	0.905
11.7997	0.905
11.8397	0.906
11.8797	0.91
11.9197	0.908
11.9597	0.915
11.9997	0.91
12.0397	0.906
12.0797	0.905
12.1197	0.908
12.1597	0.906
12.1997	0.9
12.2397	0.895
12.2797	0.886
12.3197	0.871
12.3597	0.861
12.3997	0.848
12.4397	0.823
12.4797	0.8
12.5197	0.766
12.5597	0.73
12.5997	0.67
12.6397	0.56
12.6797	0.443
12.7197	0.36
12.7597	0.278
12.7997	0.221
12.8397	0.195
12.8797	0.168
12.9197	0.173
12.9597	0.24
12.9997	0.295
13.0397	0.398
13.0797	0.491
13.1197	0.523
13.1597	0.568
13.1997	0.603
13.2397	0.618
13.2797	0.645
13.3197	0.655
13.3597	0.658
13.3997	0.66
13.4397	0.663
13.4797	0.665
13.5197	0.681
13.5597	0.726
13.5997	0.761
13.6397	0.798
13.6797	0.823
13.7197	0.853
13.7597	0.868
13.7997	0.883
13.8397	0.873
13.8797	0.88
13.9197	0.88
13.9597	0.881
13.9997	0.883
14.0397	0.866
14.0797	0.838
14.1197	0.796
14.1597	0.763
14.1997	0.705
14.2397	0.63
14.2797	0.568
14.3197	0.511
14.3597	0.49
14.3997	0.511
14.4397	0.585
14.4797	0.718
14.5197	0.78
14.5597	0.813
14.5997	0.835
14.6397	0.848
14.6797	0.851
14.7197	0.853
14.7597	0.851
14.7997	0.853
14.8397	0.855
14.8797	0.86
14.9197	0.85
14.9597	0.853
14.9997	0.85
15.0397	0.831
15.0797	0.833
15.1197	0.813
15.1597	0.82
15.1997	0.811
15.2397	0.805
15.2797	0.805
15.3197	0.8
15.3597	0.793
15.3996	0.788
15.4396	0.781
15.4796	0.776
15.5196	0.77
15.5596	0.758
15.5996	0.751
15.6396	0.745
15.6796	0.733
15.7196	0.721
15.7596	0.715
15.7996	0.711
15.8396	0.7
15.8796	0.693
15.9196	0.68
15.9596	0.671
15.9996	0.67
