Infrared Spectrum: 1,8-ANTHRAQUINONE SULFONIC ACID, DISODIUM SALT
Formula: C14 H6 O8 S2 Na2
State: SOLID (KBr PELLET)
Class: COBLENTZ
Instrument: Not specified, most likely a prism, grating, or hybrid spectrometer.
Sampling: TRANSMISSION
Resolution: 4
Origin: CORN PRODUCTS COMPANY
MICROMETERS	TRANSMITTANCE
2.041	0.782
2.0748	0.784
2.10861	0.791
2.14241	0.792
2.17622	0.796
2.21002	0.796
2.24382	0.796
2.27763	0.796
2.31143	0.797
2.34524	0.799
2.37904	0.801
2.41284	0.801
2.44665	0.801
2.48045	0.803
2.51426	0.806
2.54806	0.808
2.58186	0.804
2.61567	0.801
2.64947	0.801
2.68328	0.804
2.71708	0.804
2.75088	0.794
2.78469	0.738
2.81849	0.563
2.8523	0.451
2.8861	0.383
2.9199	0.337
2.95371	0.324
2.98751	0.346
3.02132	0.422
3.05512	0.541
3.08892	0.601
3.12273	0.629
3.15653	0.685
3.19034	0.726
3.22414	0.758
3.25794	0.769
3.29175	0.77
3.32555	0.777
3.35936	0.787
3.39316	0.791
3.42696	0.804
3.46077	0.811
3.49457	0.816
3.52838	0.82
3.56218	0.821
3.59598	0.821
3.62979	0.82
3.66359	0.821
3.6974	0.821
3.7312	0.821
3.765	0.821
3.79881	0.823
3.83261	0.825
3.86642	0.828
3.90022	0.826
3.93402	0.82
3.96783	0.823
4.00163	0.825
4.03544	0.826
4.06924	0.826
4.10304	0.828
4.13685	0.828
4.17065	0.826
4.20446	0.823
4.23826	0.821
4.27206	0.821
4.30587	0.82
4.33967	0.818
4.37348	0.818
4.40728	0.821
4.44108	0.818
4.47489	0.818
4.50869	0.821
4.5425	0.82
4.5763	0.818
4.6101	0.818
4.64391	0.818
4.67771	0.816
4.71152	0.816
4.74532	0.814
4.77912	0.814
4.81293	0.813
4.84673	0.811
4.88054	0.809
4.91434	0.808
4.94814	0.809
4.98195	0.811
5.01575	0.809
5.04956	0.809
5.08336	0.813
5.11716	0.816
5.15097	0.816
5.18477	0.816
5.21858	0.818
5.25238	0.82
5.28618	0.821
5.31999	0.821
5.35379	0.821
5.3876	0.823
5.4214	0.823
5.45521	0.825
5.48901	0.825
5.52281	0.823
5.55662	0.821
5.59042	0.82
5.62423	0.82
5.65803	0.818
5.69183	0.816
5.72564	0.813
5.75944	0.811
5.79325	0.804
5.82705	0.77
5.86085	0.691
5.89466	0.616
5.92846	0.58
5.96227	0.539
5.99607	0.58
6.02987	0.624
6.06368	0.623
6.09748	0.611
6.13129	0.604
6.16509	0.612
6.19889	0.646
6.2327	0.684
6.2665	0.719
6.30031	0.723
6.33411	0.645
6.36791	0.665
6.40172	0.736
6.43552	0.762
6.46933	0.786
6.50313	0.791
6.53693	0.797
6.57074	0.803
6.60454	0.804
6.63835	0.804
6.67215	0.808
6.70595	0.806
6.73976	0.804
6.77356	0.803
6.80737	0.803
6.84117	0.801
6.87497	0.789
6.90878	0.792
6.94258	0.796
6.97639	0.792
7.01019	0.791
7.04399	0.789
7.0778	0.794
7.1116	0.799
7.14541	0.799
7.17921	0.797
7.21301	0.794
7.24682	0.784
7.28062	0.787
7.31443	0.789
7.34823	0.787
7.38203	0.784
7.41584	0.777
7.44964	0.755
7.48345	0.702
7.51725	0.541
7.55105	0.458
7.58486	0.436
7.61866	0.573
7.65247	0.609
7.68627	0.628
7.72007	0.65
7.75388	0.674
7.78768	0.701
7.82149	0.709
7.85529	0.689
7.88909	0.604
7.9229	0.47
7.9567	0.402
7.99051	0.404
8.02431	0.414
8.05811	0.404
8.09192	0.353
8.12572	0.295
8.15953	0.268
8.19333	0.246
8.22713	0.23
8.26094	0.229
8.29474	0.229
8.32855	0.256
8.36235	0.329
8.39615	0.393
8.42996	0.466
8.46376	0.533
8.49757	0.568
8.53137	0.601
8.56517	0.631
8.59898	0.634
8.63278	0.628
8.66659	0.626
8.70039	0.624
8.73419	0.606
8.768	0.611
8.8018	0.645
8.83561	0.663
8.86941	0.672
8.90321	0.687
8.93702	0.697
8.97082	0.702
9.00463	0.709
9.03843	0.718
9.07223	0.723
9.10604	0.738
9.13984	0.743
9.17365	0.745
9.20745	0.745
9.24125	0.747
9.27506	0.748
9.30886	0.748
9.34267	0.741
9.37647	0.733
9.41027	0.73
9.44408	0.692
9.47788	0.58
9.51169	0.402
9.54549	0.29
9.57929	0.261
9.6131	0.324
9.6469	0.482
9.68071	0.643
9.71451	0.709
9.74831	0.736
9.78212	0.755
9.81592	0.76
9.84973	0.767
9.88353	0.782
9.91733	0.779
9.95114	0.772
9.98494	0.77
10.0187	0.765
10.0526	0.769
10.0864	0.765
10.1202	0.765
10.154	0.769
10.1878	0.762
10.2216	0.748
10.2554	0.707
10.2892	0.682
10.323	0.677
10.3568	0.699
10.3906	0.721
10.4244	0.74
10.4582	0.753
10.492	0.758
10.5258	0.76
10.5596	0.76
10.5934	0.762
10.6272	0.769
10.661	0.772
10.6948	0.774
10.7286	0.777
10.7624	0.78
10.7962	0.782
10.83	0.784
10.8638	0.78
10.8977	0.78
10.9315	0.777
10.9653	0.758
10.9991	0.748
11.0329	0.748
11.0667	0.758
11.1005	0.764
11.1343	0.769
11.1681	0.774
11.2019	0.775
11.2357	0.779
11.2695	0.78
11.3033	0.78
11.3371	0.78
11.3709	0.78
11.4047	0.78
11.4385	0.78
11.4723	0.78
11.5061	0.78
11.5399	0.779
11.5737	0.779
11.6075	0.775
11.6413	0.77
11.6751	0.753
11.7089	0.748
11.7428	0.736
11.7766	0.718
11.8104	0.718
11.8442	0.728
11.878	0.75
11.9118	0.764
11.9456	0.769
11.9794	0.772
12.0132	0.772
12.047	0.772
12.0808	0.774
12.1146	0.775
12.1484	0.774
12.1822	0.772
12.216	0.77
12.2498	0.764
12.2836	0.758
12.3174	0.757
12.3512	0.75
12.385	0.741
12.4188	0.714
12.4526	0.697
12.4864	0.68
12.5202	0.667
12.554	0.662
12.5879	0.675
12.6217	0.719
12.6555	0.74
12.6893	0.748
12.7231	0.757
12.7569	0.758
12.7907	0.76
12.8245	0.758
12.8583	0.758
12.8921	0.757
12.9259	0.753
12.9597	0.752
12.9935	0.75
13.0273	0.748
13.0611	0.73
13.0949	0.701
13.1287	0.667
13.1625	0.65
13.1963	0.665
13.2301	0.697
13.2639	0.714
13.2977	0.721
13.3315	0.723
13.3653	0.724
13.3991	0.721
13.433	0.714
13.4668	0.709
13.5006	0.692
13.5344	0.65
13.5682	0.602
13.602	0.578
13.6358	0.587
13.6696	0.619
13.7034	0.658
13.7372	0.682
13.771	0.709
13.8048	0.713
13.8386	0.716
13.8724	0.718
13.9062	0.721
13.94	0.719
13.9738	0.718
14.0076	0.716
14.0414	0.716
14.0752	0.713
14.109	0.711
14.1428	0.711
14.1766	0.709
14.2104	0.709
14.2442	0.707
14.2781	0.711
14.3119	0.713
14.3457	0.711
14.3795	0.707
14.4133	0.707
14.4471	0.706
14.4809	0.704
14.5147	0.699
14.5485	0.694
14.5823	0.689
14.6161	0.684
14.6499	0.668
14.6837	0.655
14.7175	0.646
14.7513	0.643
14.7851	0.634
14.8189	0.634
14.8527	0.634
14.8865	0.634
14.9203	0.634
14.9541	0.629
14.9879	0.626
15.0217	0.633
15.0555	0.636
15.0893	0.634
15.1232	0.629
15.157	0.626
15.1908	0.619
15.2246	0.604
15.2584	0.58
15.2922	0.567
15.326	0.534
15.3598	0.502
15.3936	0.478
15.4274	0.439
15.4612	0.404
15.495	0.376
15.5288	0.339
