Infrared Spectrum: PYRIMIDINE, 2,5-BIS(TRIFLUOROACETAMIDO)-4,6-BIS(METHYLTHIO)-
Formula: C10 H8 F6 N4 O2 S2
State: SOLID (0.7 mg / 500 mg KBr DISC)
Class: COBLENTZ III
Instrument: PERKIN-ELMER 221 (GRATING)
Instrument parameters: FILTER CHANGE AT 980, 2490 CM^-^1, GRATING FOR 4000-1428 CM^-^1, NaCl PRISM FOR 1428-650 CM^-^1
Sampling: TRANSMISSION
Resolution: 4
Origin: SOUTHERN RESEARCH INSTITUTE
1/CM	TRANSMITTANCE
618.729	0.775
627.759	0.774
636.789	0.769
645.819	0.737
654.849	0.708
663.88	0.744
672.91	0.79
681.94	0.766
690.97	0.644
700	0.575
709.03	0.646
718.06	0.764
727.09	0.461
736.12	0.578
745.15	0.842
754.181	0.85
763.211	0.878
772.241	0.784
781.271	0.564
790.301	0.89
799.331	0.877
808.361	0.852
817.391	0.517
826.421	0.635
835.451	0.688
844.482	0.906
853.512	0.937
862.542	0.938
871.572	0.938
880.602	0.938
889.632	0.931
898.662	0.921
907.692	0.871
916.722	0.741
925.753	0.794
934.783	0.912
943.813	0.892
952.843	0.859
961.873	0.894
970.903	0.909
979.933	0.913
988.963	0.912
997.993	0.912
1007.02	0.911
1016.05	0.909
1025.08	0.907
1034.11	0.901
1043.14	0.89
1052.17	0.884
1061.2	0.875
1070.23	0.868
1079.26	0.85
1088.29	0.833
1097.32	0.803
1106.35	0.776
1115.38	0.716
1124.41	0.477
1133.44	0.364
1142.48	0.237
1151.51	0.121
1160.54	0.131
1169.57	0.158
1178.6	0.243
1187.63	0.345
1196.66	0.261
1205.69	0.129
1214.72	0.35
1223.75	0.436
1232.78	0.349
1241.81	0.579
1250.84	0.76
1259.87	0.771
1268.9	0.759
1277.93	0.701
1286.96	0.504
1295.99	0.65
1305.02	0.69
1314.05	0.639
1323.08	0.594
1332.11	0.596
1341.14	0.494
1350.17	0.462
1359.2	0.567
1368.23	0.518
1377.26	0.292
1386.29	0.171
1395.32	0.307
1404.35	0.542
1413.38	0.668
1422.41	0.728
1431.44	0.744
1440.47	0.786
1449.5	0.821
1458.53	0.813
1467.56	0.795
1476.59	0.773
1485.62	0.689
1494.65	0.536
1503.68	0.384
1512.71	0.261
1521.74	0.228
1530.77	0.28
1539.8	0.409
1548.83	0.548
1557.86	0.619
1566.89	0.532
1575.92	0.297
1584.95	0.268
1593.98	0.535
1603.01	0.728
1612.04	0.803
1621.07	0.823
1630.1	0.842
1639.13	0.855
1648.16	0.866
1657.19	0.871
1666.22	0.871
1675.25	0.87
1684.28	0.868
1693.31	0.824
1702.34	0.771
1711.37	0.696
1720.4	0.581
1729.43	0.201
1738.46	0.11
1747.49	0.308
1756.52	0.379
1765.55	0.534
1774.58	0.731
1783.61	0.819
1792.64	0.849
1801.67	0.863
1810.7	0.881
1819.73	0.885
1828.76	0.89
1837.79	0.894
1846.82	0.896
1855.85	0.903
1864.88	0.903
1873.91	0.905
1882.94	0.905
1891.97	0.905
1901	0.905
1910.03	0.905
1919.06	0.905
1928.09	0.905
1937.12	0.905
1946.15	0.904
1955.18	0.904
1964.21	0.905
1973.24	0.905
1982.27	0.905
1991.3	0.905
2000.33	0.905
2009.36	0.905
2018.4	0.905
2027.43	0.905
2036.46	0.905
2045.49	0.905
2054.52	0.904
2063.55	0.905
2072.58	0.905
2081.61	0.905
2090.64	0.905
2099.67	0.905
2108.7	0.905
2117.73	0.905
2126.76	0.905
2135.79	0.905
2144.82	0.906
2153.85	0.906
2162.88	0.906
2171.91	0.906
2180.94	0.906
2189.97	0.906
2199	0.906
2208.03	0.906
2217.06	0.905
2226.09	0.904
2235.12	0.904
2244.15	0.903
2253.18	0.903
2262.21	0.902
2271.24	0.901
2280.27	0.9
2289.3	0.898
2298.33	0.897
2307.36	0.897
2316.39	0.895
2325.42	0.895
2334.45	0.895
2343.48	0.894
2352.51	0.895
2361.54	0.895
2370.57	0.896
2379.6	0.897
2388.63	0.897
2397.66	0.897
2406.69	0.895
2415.72	0.894
2424.75	0.894
2433.78	0.893
2442.81	0.894
2451.84	0.894
2460.87	0.894
2469.9	0.894
2478.93	0.894
2487.96	0.895
2496.99	0.895
2506.02	0.895
2515.05	0.896
2524.08	0.896
2533.11	0.896
2542.14	0.896
2551.17	0.896
2560.2	0.895
2569.23	0.894
2578.26	0.894
2587.29	0.893
2596.32	0.891
2605.35	0.889
2614.38	0.888
2623.41	0.886
2632.44	0.885
2641.47	0.884
2650.5	0.884
2659.53	0.884
2668.56	0.884
2677.59	0.884
2686.62	0.884
2695.65	0.884
2704.68	0.884
2713.71	0.883
2722.74	0.883
2731.77	0.883
2740.8	0.882
2749.83	0.882
2758.86	0.882
2767.89	0.882
2776.92	0.881
2785.95	0.88
2794.98	0.876
2804.01	0.871
2813.04	0.868
2822.07	0.861
2831.1	0.852
2840.13	0.846
2849.16	0.842
2858.19	0.844
2867.22	0.845
2876.25	0.848
2885.29	0.849
2894.32	0.849
2903.35	0.847
2912.38	0.842
2921.41	0.837
2930.44	0.818
2939.47	0.81
2948.5	0.828
2957.53	0.851
2966.56	0.853
2975.59	0.85
2984.62	0.838
2993.65	0.833
3002.68	0.807
3011.71	0.78
3020.74	0.76
3029.77	0.759
3038.8	0.769
3047.83	0.776
3056.86	0.78
3065.89	0.78
3074.92	0.78
3083.95	0.78
3092.98	0.779
3102.01	0.773
3111.04	0.768
3120.07	0.757
3129.1	0.741
3138.13	0.72
3147.16	0.695
3156.19	0.699
3165.22	0.704
3174.25	0.701
3183.28	0.67
3192.31	0.64
3201.34	0.585
3210.37	0.532
3219.4	0.406
3228.43	0.339
3237.46	0.338
3246.49	0.376
3255.52	0.425
3264.55	0.459
3273.58	0.478
3282.61	0.48
3291.64	0.49
3300.67	0.543
3309.7	0.598
3318.73	0.647
3327.76	0.686
3336.79	0.718
3345.82	0.74
3354.85	0.754
3363.88	0.759
3372.91	0.761
3381.94	0.762
3390.97	0.762
3400	0.761
3409.03	0.761
3418.06	0.761
3427.09	0.761
3436.12	0.761
3445.15	0.762
3454.18	0.763
3463.21	0.77
3472.24	0.772
3481.27	0.775
3490.3	0.777
3499.33	0.78
3508.36	0.785
3517.39	0.789
3526.42	0.796
3535.45	0.802
3544.48	0.807
3553.51	0.812
3562.54	0.814
3571.57	0.815
3580.6	0.824
3589.63	0.831
3598.66	0.833
3607.69	0.836
3616.72	0.838
3625.75	0.84
3634.78	0.842
3643.81	0.842
3652.84	0.842
3661.87	0.843
3670.9	0.843
3679.93	0.843
3688.96	0.843
3697.99	0.844
3707.02	0.844
3716.05	0.844
3725.08	0.844
3734.11	0.844
3743.14	0.844
3752.18	0.844
3761.21	0.844
3770.24	0.844
3779.27	0.844
3788.3	0.843
3797.33	0.843
3806.36	0.842
3815.39	0.842
3824.42	0.842
3833.45	0.842
3842.48	0.841
3851.51	0.841
3860.54	0.841
3869.57	0.841
3878.6	0.841
3887.63	0.841
3896.66	0.84
3905.69	0.84
3914.72	0.839
3923.75	0.839
3932.78	0.839
3941.81	0.839
3950.84	0.838
3959.87	0.837
3968.9	0.835
3977.93	0.834
3986.96	0.834
3995.99	0.834
4005.02	0.834
