Infrared Spectrum: COPPER ACETATE, HYDRATE
Formula: C4 H6 Cu O4  * H2 O
State: SOLID (SPLIT MULL)
Class: COBLENTZ III
Instrument: DOW KBr FOREPRISM-GRATING
Instrument parameters: BLAZED AT 3.5, 12.0, 20.0 MICRON AND CHANGED AT 5.0, 7.5, 14.9 MICRON
Sampling: TRANSMISSION
Resolution: 2
Origin: DOW CHEMICAL COMPANY
1/CM	TRANSMITTANCE
3788	0.8906
3779	0.8799
3770	0.8854
3761	0.8921
3752	0.8941
3743	0.8918
3734	0.8933
3725	0.8918
3716	0.8904
3707	0.8845
3698	0.8795
3689	0.8837
3680	0.887
3671	0.883
3662	0.8757
3653	0.8784
3644	0.8756
3635	0.8713
3626	0.8691
3617	0.8656
3608	0.8538
3599	0.8344
3590	0.8174
3581	0.8022
3572	0.7857
3563	0.7662
3554	0.7376
3545	0.7117
3536	0.681
3527	0.6492
3518	0.6216
3509	0.5814
3500	0.5427
3491	0.5039
3482	0.4876
3473	0.4993
3464	0.5188
3455	0.5375
3446	0.5556
3437	0.5736
3428	0.5824
3419	0.5828
3410	0.5706
3401	0.5243
3392	0.4839
3383	0.4451
3374	0.4396
3365	0.4847
3356	0.536
3347	0.5899
3338	0.6246
3329	0.6551
3320	0.6751
3311	0.6956
3302	0.7125
3293	0.6978
3284	0.6386
3275	0.6231
3266	0.6222
3257	0.6678
3248	0.7075
3239	0.7371
3230	0.7595
3221	0.7751
3212	0.7878
3203	0.7993
3194	0.8071
3185	0.8139
3176	0.8208
3167	0.8278
3158	0.835
3149	0.8402
3140	0.8447
3131	0.849
3122	0.8518
3113	0.8541
3104	0.8565
3095	0.8583
3086	0.8596
3077	0.8578
3068	0.8574
3059	0.8581
3050	0.8596
3041	0.8615
3032	0.8614
3023	0.8549
3014	0.8581
3005	0.8594
2996	0.8514
2987	0.8389
2978	0.8403
2969	0.8489
2960	0.8517
2951	0.8521
2942	0.8374
2933	0.8303
2924	0.8349
2915	0.839
2906	0.8494
2897	0.8606
2888	0.8651
2879	0.8683
2870	0.8705
2861	0.8723
2852	0.8686
2843	0.8634
2834	0.8724
2825	0.8785
2816	0.8825
2807	0.8852
2798	0.8859
2789	0.8866
2780	0.8877
2771	0.8889
2762	0.8902
2753	0.8914
2744	0.8921
2735	0.8928
2726	0.8934
2717	0.8936
2708	0.8933
2699	0.8925
2690	0.8925
2681	0.8928
2672	0.8945
2663	0.896
2654	0.8974
2645	0.8965
2636	0.8963
2627	0.8971
2618	0.8967
2609	0.8978
2600	0.8993
2591	0.8982
2582	0.8956
2573	0.8927
2564	0.893
2555	0.895
2546	0.8968
2537	0.8978
2528	0.8975
2519	0.8973
2510	0.8978
2501	0.8967
2492	0.8937
2483	0.8904
2474	0.8864
2465	0.8818
2456	0.8868
2447	0.8871
2438	0.8873
2429	0.8894
2420	0.8889
2411	0.8878
2402	0.8865
2393	0.8849
2384	0.883
2375	0.881
2366	0.8833
2357	0.8875
2348	0.8854
2339	0.8846
2330	0.8857
2321	0.8842
2312	0.8808
2303	0.8783
2294	0.8773
2285	0.8784
2276	0.8785
2267	0.8761
2258	0.8771
2249	0.8793
2240	0.8805
2231	0.8824
2222	0.8839
2213	0.8848
2204	0.8856
2195	0.8868
2186	0.888
2177	0.889
2168	0.8913
2159	0.8967
2150	0.8983
2141	0.8949
2132	0.8966
2123	0.8982
2114	0.8993
2105	0.9003
2096	0.9021
2087	0.9036
2078	0.9047
2069	0.9044
2060	0.9048
2051	0.9065
2042	0.9085
2033	0.9104
2024	0.9108
2015	0.9098
2006	0.9099
1997	0.9125
1988	0.911
1979	0.9091
1970	0.9098
1961	0.9118
1952	0.9149
1943	0.9165
1934	0.9166
1925	0.9157
1916	0.915
1907	0.9144
1898	0.9139
1889	0.9132
1880	0.9124
1871	0.911
1862	0.9088
1853	0.9096
1844	0.9097
1835	0.9095
1826	0.9083
1817	0.9067
1808	0.9054
1799	0.9044
1790	0.9023
1781	0.9021
1772	0.9042
1763	0.9021
1754	0.8997
1745	0.8843
1736	0.8773
1727	0.869
1718	0.8783
1709	0.8738
1700	0.8854
1691	0.8813
1682	0.8786
1673	0.8618
1664	0.8278
1655	0.7708
1646	0.6444
1637	0.6695
1628	0.3572
1619	0.1005
1610	0.0546
1601	0.0473
1592	0.1889
1583	0.4538
1574	0.5562
1565	0.6212
1556	0.6647
1547	0.6898
1538	0.7207
1529	0.7415
1520	0.763
1511	0.7465
1502	0.746
1493	0.7518
1484	0.7614
1475	0.763
1466	0.6619
1457	0.2923
1448	0.1583
1439	0.2137
1430	0.3227
1421	0.2907
1412	0.5352
1403	0.6683
1394	0.7285
1385	0.7808
1376	0.7958
1367	0.8104
1358	0.7556
1349	0.7505
1340	0.7708
1331	0.7964
1322	0.7988
1313	0.798
1304	0.7953
1295	0.7983
1286	0.8062
1277	0.8124
1268	0.8165
1259	0.8215
1250	0.8316
1241	0.8443
1232	0.86
1223	0.8699
1214	0.8688
1205	0.8648
1196	0.8683
1187	0.8646
1178	0.8478
1169	0.8495
1160	0.8452
1151	0.8425
1142	0.8435
1133	0.8528
1124	0.8503
1115	0.8424
1106	0.8515
1097	0.8538
1088	0.8489
1079	0.837
1070	0.8315
1061	0.7804
1052	0.6522
1043	0.7526
1034	0.6282
1025	0.7715
1016	0.8328
1007	0.8567
998	0.8652
989	0.8674
980	0.8655
971	0.8644
962	0.8649
953	0.8684
944	0.8698
935	0.8746
926	0.8775
917	0.8786
908	0.8815
899	0.8835
890	0.8825
881	0.8871
872	0.8954
863	0.8981
854	0.896
845	0.8966
836	0.8993
827	0.8997
818	0.8988
809	0.8966
800	0.8945
791	0.8885
782	0.8798
773	0.8764
764	0.8683
755	0.8554
746	0.8353
737	0.8112
728	0.7801
719	0.7339
710	0.6867
701	0.476
692	0.1674
683	0.4422
674	0.6557
665	0.7286
656	0.7589
647	0.7401
638	0.6945
629	0.4301
620	0.6837
611	0.7268
602	0.7328
593	0.7242
584	0.7061
575	0.7025
566	0.6862
557	0.6633
548	0.6598
539	0.6528
530	0.6434
521	0.6365
512	0.6359
503	0.64
494	0.6482
485	0.6564
476	0.6668
467	0.6789
458	0.685
