Infrared Spectrum: BRILLIANT CRESYL BLUE (CERT.)
Formula: C17 H20 Cl N3 O
State: SOLID (MINERAL OIL MULL, AFTER ETHANOL PPTN.)
Class: COBLENTZ
Instrument: Not specified, most likely a prism, grating, or hybrid spectrometer.
Sampling: TRANSMISSION
Resolution: 4
Origin: WYANDOTTE CHEMICALS CORP., WYANDOTTE, MICHIGAN, USA
MICROMETERS	TRANSMITTANCE
2.028	0.162
2.06795	0.167
2.10789	0.175
2.14784	0.197
2.18779	0.202
2.22774	0.2
2.26768	0.198
2.30763	0.202
2.34758	0.207
2.38753	0.212
2.42747	0.215
2.46742	0.23
2.50737	0.242
2.54732	0.249
2.58726	0.252
2.62721	0.264
2.66716	0.282
2.7071	0.294
2.74705	0.297
2.787	0.289
2.82695	0.26
2.86689	0.234
2.90684	0.2
2.94679	0.178
2.98674	0.163
3.02668	0.135
3.06663	0.11
3.10658	0.09
3.14652	0.085
3.18647	0.068
3.22642	0.063
3.26637	0.061
3.30631	0.046
3.34626	0.03
3.38621	0.02
3.42616	0.02
3.4661	0.016
3.50605	0.018
3.546	0.026
3.58595	0.083
3.62589	0.122
3.66584	0.13
3.70579	0.142
3.74573	0.152
3.78568	0.172
3.82563	0.192
3.86558	0.198
3.90552	0.219
3.94547	0.225
3.98542	0.242
4.02537	0.26
4.06531	0.269
4.10526	0.289
4.14521	0.301
4.18515	0.312
4.2251	0.337
4.26505	0.337
4.305	0.346
4.34494	0.366
4.38489	0.394
4.42484	0.431
4.46479	0.451
4.50473	0.466
4.54468	0.479
4.58463	0.486
4.62458	0.503
4.66452	0.513
4.70447	0.53
4.74442	0.551
4.78436	0.573
4.82431	0.588
4.86426	0.598
4.90421	0.61
4.94415	0.618
4.9841	0.628
5.02405	0.648
5.064	0.665
5.10394	0.69
5.14389	0.712
5.18384	0.73
5.22378	0.757
5.26373	0.772
5.30368	0.795
5.34363	0.824
5.38357	0.832
5.42352	0.871
5.46347	0.886
5.50342	0.904
5.54336	0.923
5.58331	0.938
5.62326	0.949
5.66321	0.948
5.70315	0.963
5.7431	0.958
5.78305	0.931
5.82299	0.882
5.86294	0.851
5.90289	0.831
5.94284	0.73
5.98278	0.541
6.02273	0.321
6.06268	0.312
6.10263	0.264
6.14257	0.153
6.18252	0.068
6.22247	0.066
6.26241	0.112
6.30236	0.17
6.34231	0.21
6.38226	0.229
6.4222	0.227
6.46215	0.202
6.5021	0.163
6.54205	0.14
6.58199	0.105
6.62194	0.098
6.66189	0.113
6.70184	0.113
6.74178	0.088
6.78173	0.046
6.82168	0.026
6.86162	0.035
6.90157	0.058
6.94152	0.085
6.98147	0.142
7.02141	0.183
7.06136	0.152
7.10131	0.118
7.14126	0.108
7.1812	0.127
7.22115	0.076
7.2611	0.063
7.30104	0.093
7.34099	0.127
7.38094	0.096
7.42089	0.061
7.46083	0.061
7.50078	0.065
7.54073	0.066
7.58068	0.07
7.62062	0.068
7.66057	0.07
7.70052	0.075
7.74047	0.086
7.78041	0.096
7.82036	0.105
7.86031	0.125
7.90025	0.127
7.9402	0.148
7.98015	0.187
8.0201	0.214
8.06004	0.235
8.09999	0.247
8.13994	0.272
8.17989	0.289
8.21983	0.29
8.25978	0.252
8.29973	0.224
8.33967	0.262
8.37962	0.307
8.41957	0.324
8.45952	0.289
8.49946	0.249
8.53941	0.158
8.57936	0.123
8.61931	0.115
8.65925	0.11
8.6992	0.112
8.73915	0.117
8.7791	0.132
8.81904	0.145
8.85899	0.147
8.89894	0.162
8.93888	0.205
8.97883	0.259
9.01878	0.326
9.05873	0.364
9.09867	0.403
9.13862	0.429
9.17857	0.454
9.21852	0.469
9.25846	0.483
9.29841	0.501
9.33836	0.516
9.3783	0.528
9.41825	0.523
9.4582	0.501
9.49815	0.506
9.53809	0.489
9.57804	0.484
9.61799	0.486
9.65794	0.503
9.69788	0.501
9.73783	0.486
9.77778	0.464
9.81773	0.461
9.85767	0.469
9.89762	0.513
9.93757	0.561
9.97751	0.615
10.0175	0.658
10.0574	0.672
10.0974	0.678
10.1373	0.693
10.1773	0.697
10.2172	0.702
10.2571	0.72
10.2971	0.732
10.337	0.74
10.377	0.759
10.4169	0.767
10.4569	0.769
10.4968	0.77
10.5368	0.76
10.5767	0.75
10.6167	0.71
10.6566	0.623
10.6966	0.568
10.7365	0.57
10.7765	0.632
10.8164	0.72
10.8564	0.774
10.8963	0.806
10.9362	0.822
10.9762	0.826
11.0161	0.836
11.0561	0.826
11.096	0.811
11.136	0.801
11.1759	0.77
11.2159	0.74
11.2558	0.698
11.2958	0.682
11.3357	0.683
11.3757	0.693
11.4156	0.702
11.4556	0.692
11.4955	0.645
11.5355	0.633
11.5754	0.643
11.6154	0.658
11.6553	0.658
11.6952	0.642
11.7352	0.623
11.7751	0.6
11.8151	0.581
11.855	0.56
11.895	0.546
11.9349	0.521
11.9749	0.513
12.0148	0.5
12.0548	0.503
12.0947	0.521
12.1347	0.545
12.1746	0.568
12.2146	0.598
12.2545	0.648
12.2945	0.7
12.3344	0.755
12.3744	0.779
12.4143	0.812
12.4542	0.841
12.4942	0.861
12.5341	0.871
12.5741	0.881
12.614	0.886
12.654	0.894
12.6939	0.904
12.7339	0.904
12.7738	0.904
12.8138	0.904
12.8537	0.903
12.8937	0.901
12.9336	0.889
12.9736	0.877
13.0135	0.852
13.0535	0.852
13.0934	0.857
13.1334	0.854
13.1733	0.859
13.2132	0.851
13.2532	0.827
13.2931	0.816
13.3331	0.801
13.373	0.757
13.413	0.73
13.4529	0.722
13.4929	0.722
13.5328	0.72
13.5728	0.714
13.6127	0.688
13.6527	0.683
13.6926	0.687
13.7326	0.69
13.7725	0.683
13.8125	0.67
13.8524	0.655
13.8924	0.653
13.9323	0.667
13.9722	0.693
14.0122	0.712
14.0521	0.732
14.0921	0.749
14.132	0.759
14.172	0.754
14.2119	0.747
14.2519	0.73
14.2918	0.688
14.3318	0.643
14.3717	0.59
14.4117	0.583
14.4516	0.598
14.4916	0.632
14.5315	0.652
14.5715	0.675
14.6114	0.682
14.6513	0.688
14.6913	0.698
14.7312	0.692
14.7712	0.688
14.8111	0.685
14.8511	0.677
14.891	0.673
14.931	0.673
14.9709	0.67
15.0109	0.637
15.0508	0.6
15.0908	0.56
15.1307	0.561
15.1707	0.578
15.2106	0.6
15.2506	0.603
15.2905	0.603
15.3305	0.6
15.3704	0.596
15.4103	0.588
15.4503	0.586
15.4902	0.57
15.5302	0.565
15.5701	0.561
15.6101	0.54
15.65	0.521
15.69	0.516
15.7299	0.503
15.7699	0.501
15.8098	0.493
15.8498	0.481
15.8897	0.476
15.9297	0.466
15.9696	0.453
