Infrared Spectrum: 3,4-Dichlorotetrahydrofuran
Formula: C4 H6 Cl2 O
State: SOLUTION (10% CCl4 FOR 3800-1340, 10% CS2 FOR 1340-450 CM^-^1)
Class: COBLENTZ III
Instrument: DOW KBr FOREPRISM-GRATING
Instrument parameters: BLAZED AT 3.5, 12.0, 20.0 MICRON AND CHANGED AT 5.0, 7.5, 14.9 MICRON
Sampling: TRANSMISSION
Path length: 0.011 CM, 0.011 CM
Resolution: 2
Origin: DOW CHEMICAL COMPANY
1/CM	TRANSMITTANCE
454	0.8828
463	0.894
472	0.9034
481	0.91
490	0.9146
499	0.9199
508	0.9264
517	0.9335
526	0.94
535	0.9459
544	0.95
553	0.9555
562	0.9615
571	0.9655
580	0.9616
589	0.9542
598	0.9403
607	0.9241
616	0.902
625	0.8586
634	0.783
643	0.6991
652	0.5677
661	0.3026
670	0.2703
679	0.4583
688	0.3936
697	0.5083
706	0.6713
715	0.7055
724	0.6949
733	0.76
742	0.8152
751	0.8503
760	0.8598
769	0.8469
778	0.8463
787	0.8482
796	0.8335
805	0.8242
814	0.8109
823	0.8129
832	0.8266
841	0.8229
850	0.8436
859	0.8826
868	0.8821
877	0.8535
886	0.6964
895	0.2666
904	0.1906
913	0.5309
922	0.6495
931	0.7006
940	0.7432
949	0.7826
958	0.8333
967	0.8545
976	0.8199
985	0.8655
994	0.8437
1003	0.8258
1012	0.817
1021	0.7015
1030	0.7661
1039	0.7307
1048	0.6653
1057	0.5188
1066	0.4285
1075	0.0293
1084	-0.0036
1093	0.2912
1102	0.611
1111	0.7702
1120	0.8577
1129	0.8836
1138	0.8676
1147	0.8538
1156	0.8688
1165	0.8805
1174	0.8505
1183	0.747
1192	0.7417
1201	0.6228
1210	0.2643
1219	0.6175
1228	0.707
1237	0.7995
1246	0.7922
1255	0.7
1264	0.7197
1273	0.5832
1282	0.4942
1291	0.7952
1300	0.8393
1309	0.8547
1318	0.8755
1327	0.7932
1336	0.8965
1345	0.9007
1354	0.9231
1363	0.9098
1372	0.9042
1381	0.9062
1390	0.9005
1399	0.8956
1408	0.894
1417	0.8953
1426	0.8944
1435	0.8875
1444	0.88
1453	0.8523
1462	0.5816
1471	0.5533
1480	0.8454
1489	0.8696
1498	0.8571
1507	0.8484
1516	0.8412
1525	0.828
1534	0.7731
1543	0.7628
1552	0.7529
1561	0.754
1570	0.7963
1579	0.8092
1588	0.8108
1597	0.8929
1606	0.8909
1615	0.8931
1624	0.8962
1633	0.8999
1642	0.8944
1651	0.8983
1660	0.9044
1669	0.9052
1678	0.9044
1687	0.9048
1696	0.9039
1705	0.8994
1714	0.892
1723	0.8775
1732	0.8557
1741	0.8567
1750	0.8793
1759	0.8958
1768	0.8955
1777	0.8406
1786	0.8556
1795	0.8601
1804	0.8494
1813	0.8598
1822	0.889
1831	0.8946
1840	0.8987
1849	0.9014
1858	0.9051
1867	0.9081
1876	0.9096
1885	0.9098
1894	0.9118
1903	0.9075
1912	0.9098
1921	0.9091
1930	0.9085
1939	0.9055
1948	0.9022
1957	0.8979
1966	0.8819
1975	0.8665
1984	0.8798
1993	0.8756
2002	0.8994
2011	0.9071
2020	0.9102
2029	0.9117
2038	0.9151
2047	0.9188
2056	0.9226
2065	0.9194
2074	0.9213
2083	0.9189
2092	0.9177
2101	0.9174
2110	0.917
2119	0.9161
2128	0.9155
2137	0.9147
2146	0.9138
2155	0.9134
2164	0.9131
2173	0.9147
2182	0.9135
2191	0.9137
2200	0.9154
2209	0.9145
2218	0.914
2227	0.9155
2236	0.917
2245	0.9165
2254	0.9128
2263	0.9111
2272	0.9078
2281	0.9066
2290	0.9116
2299	0.9128
2308	0.9158
2317	0.9195
2326	0.9215
2335	0.92
2344	0.9258
2353	0.9275
2362	0.9218
2371	0.9235
2380	0.9176
2389	0.9113
2398	0.9088
2407	0.91
2416	0.9103
2425	0.9099
2434	0.9091
2443	0.908
2452	0.9067
2461	0.9051
2470	0.9083
2479	0.9118
2488	0.9116
2497	0.912
2506	0.9114
2515	0.9099
2524	0.9088
2533	0.9075
2542	0.9063
2551	0.906
2560	0.9095
2569	0.9116
2578	0.912
2587	0.9112
2596	0.9103
2605	0.9087
2614	0.9071
2623	0.9057
2632	0.9036
2641	0.9004
2650	0.9016
2659	0.9008
2668	0.8871
2677	0.8561
2686	0.8734
2695	0.8954
2704	0.8976
2713	0.8982
2722	0.8978
2731	0.897
2740	0.897
2749	0.897
2758	0.8973
2767	0.8941
2776	0.8884
2785	0.8809
2794	0.8793
2803	0.8777
2812	0.8687
2821	0.8546
2830	0.8219
2839	0.7699
2848	0.7081
2857	0.6032
2866	0.4525
2875	0.3137
2884	0.4309
2893	0.5743
2902	0.7329
2911	0.7359
2920	0.7052
2929	0.6339
2938	0.5542
2947	0.6249
2956	0.5964
2965	0.5593
2974	0.5622
2983	0.6464
2992	0.711
3001	0.7075
3010	0.7382
3019	0.8145
3028	0.8404
3037	0.8615
3046	0.8643
3055	0.8683
3064	0.8733
3073	0.8807
3082	0.8799
3091	0.8885
3100	0.8835
3109	0.8787
3118	0.8799
3127	0.8814
3136	0.8832
3145	0.8832
3154	0.8859
3163	0.8871
3172	0.8862
3181	0.8866
3190	0.8879
3199	0.8886
3208	0.8873
3217	0.8885
3226	0.8868
3235	0.8878
3244	0.8864
3253	0.8864
3262	0.8857
3271	0.885
3280	0.8831
3289	0.882
3298	0.8812
3307	0.8807
3316	0.8798
3325	0.8801
3334	0.8805
3343	0.8807
3352	0.8805
3361	0.8802
3370	0.8815
3379	0.8805
3388	0.881
3397	0.8814
3406	0.8826
3415	0.8834
3424	0.885
3433	0.887
3442	0.8887
3451	0.8898
3460	0.8911
3469	0.8923
3478	0.8935
3487	0.8946
3496	0.8949
3505	0.8943
3514	0.8928
3523	0.8942
3532	0.8984
3541	0.8988
3550	0.8997
3559	0.9006
3568	0.8958
3577	0.8961
3586	0.9031
3595	0.8925
3604	0.899
3613	0.9035
3622	0.9074
3631	0.9104
3640	0.9104
3649	0.9109
3658	0.9106
3667	0.9071
3676	0.9035
3685	0.9035
3694	0.9115
3703	0.9164
3712	0.916
3721	0.9155
3730	0.9153
3739	0.9135
3748	0.9114
3757	0.909
3766	0.9071
3775	0.9055
3784	0.9094
3793	0.9143
