Infrared Spectrum: STANNOUS OXALATE
Formula: Sn C2 O4
State: SOLID (KBr DISC)
Class: COBLENTZ
Instrument: Not specified, most likely a prism, grating, or hybrid spectrometer.
Sampling: TRANSMISSION
Resolution: 4
MICROMETERS	TRANSMITTANCE
1.985	0.65
2.02317	0.656
2.06133	0.662
2.0995	0.671
2.13767	0.677
2.17583	0.684
2.214	0.688
2.25217	0.696
2.29033	0.702
2.3285	0.711
2.36667	0.718
2.40483	0.724
2.443	0.73
2.48117	0.736
2.51933	0.738
2.5575	0.739
2.59567	0.742
2.63383	0.75
2.672	0.752
2.71017	0.754
2.74833	0.75
2.7865	0.691
2.82467	0.639
2.86283	0.592
2.901	0.556
2.93917	0.534
2.97733	0.547
3.0155	0.614
3.05367	0.662
3.09183	0.7
3.13	0.736
3.16817	0.755
3.20633	0.766
3.2445	0.775
3.28267	0.785
3.32083	0.796
3.359	0.805
3.39717	0.806
3.43533	0.808
3.4735	0.811
3.51167	0.821
3.54983	0.83
3.588	0.836
3.62617	0.839
3.66433	0.84
3.7025	0.843
3.74067	0.849
3.77883	0.857
3.817	0.858
3.85517	0.864
3.89333	0.866
3.9315	0.867
3.96967	0.867
4.00783	0.869
4.046	0.869
4.08417	0.876
4.12233	0.879
4.1605	0.88
4.19867	0.879
4.23683	0.88
4.275	0.88
4.31317	0.879
4.35133	0.882
4.3895	0.891
4.42767	0.898
4.46583	0.901
4.504	0.906
4.54217	0.907
4.58033	0.907
4.6185	0.909
4.65667	0.91
4.69483	0.912
4.733	0.913
4.77117	0.916
4.80933	0.919
4.8475	0.921
4.88567	0.922
4.92383	0.924
4.962	0.927
5.00017	0.927
5.03833	0.93
5.0765	0.931
5.11467	0.933
5.15283	0.931
5.191	0.928
5.22917	0.924
5.26733	0.921
5.3055	0.916
5.34367	0.916
5.38183	0.921
5.42	0.924
5.45817	0.925
5.49633	0.927
5.5345	0.922
5.57267	0.915
5.61083	0.903
5.649	0.882
5.68717	0.843
5.72533	0.76
5.7635	0.566
5.80167	0.474
5.83983	0.392
5.878	0.261
5.91617	0.104
5.95433	0.077
5.9925	0.081
6.03067	0.133
6.06883	0.211
6.107	0.202
6.14517	0.101
6.18333	0.052
6.2215	0.047
6.25967	0.089
6.29783	0.232
6.336	0.308
6.37417	0.395
6.41233	0.492
6.4505	0.535
6.48867	0.569
6.52683	0.608
6.565	0.633
6.60317	0.666
6.64133	0.715
6.6795	0.751
6.71767	0.778
6.75583	0.796
6.794	0.802
6.83217	0.805
6.87033	0.808
6.9085	0.806
6.94667	0.8
6.98483	0.779
7.023	0.739
7.06117	0.711
7.09933	0.684
7.1375	0.665
7.17567	0.653
7.21383	0.648
7.252	0.644
7.29017	0.645
7.32833	0.656
7.3665	0.656
7.40467	0.583
7.44283	0.468
7.481	0.531
7.51917	0.623
7.55733	0.666
7.5955	0.68
7.63367	0.598
7.67183	0.316
7.71	0.25
7.74817	0.357
7.78633	0.505
7.8245	0.639
7.86267	0.687
7.90083	0.726
7.939	0.744
7.97717	0.751
8.01533	0.764
8.0535	0.778
8.09167	0.794
8.12983	0.809
8.168	0.83
8.20617	0.851
8.24433	0.866
8.2825	0.873
8.32067	0.883
8.35883	0.891
8.397	0.895
8.43517	0.897
8.47333	0.9
8.5115	0.903
8.54967	0.904
8.58783	0.906
8.626	0.909
8.66417	0.91
8.70233	0.912
8.7405	0.916
8.77867	0.918
8.81683	0.919
8.855	0.921
8.89317	0.922
8.93133	0.924
8.9695	0.925
9.00767	0.927
9.04583	0.928
9.084	0.928
9.12217	0.927
9.16033	0.928
9.1985	0.928
9.23667	0.931
9.27483	0.931
9.313	0.933
9.35117	0.933
9.38933	0.933
9.4275	0.934
9.46567	0.936
9.50383	0.936
9.542	0.937
9.58017	0.936
9.61833	0.936
9.6565	0.936
9.69467	0.936
9.73283	0.937
9.771	0.938
9.80917	0.937
9.84733	0.937
9.8855	0.937
9.92367	0.937
9.96183	0.938
10	0.937
10.0382	0.938
10.0763	0.937
10.1145	0.937
10.1527	0.938
10.1908	0.938
10.229	0.938
10.2672	0.938
10.3053	0.938
10.3435	0.938
10.3817	0.938
10.4198	0.938
10.458	0.938
10.4962	0.938
10.5343	0.938
10.5725	0.938
10.6107	0.938
10.6488	0.938
10.687	0.938
10.7252	0.938
10.7633	0.938
10.8015	0.937
10.8397	0.937
10.8778	0.937
10.916	0.936
10.9542	0.937
10.9923	0.936
11.0305	0.934
11.0687	0.927
11.1068	0.918
11.145	0.907
11.1832	0.903
11.2213	0.901
11.2595	0.906
11.2977	0.913
11.3358	0.921
11.374	0.927
11.4122	0.931
11.4503	0.934
11.4885	0.937
11.5267	0.938
11.5648	0.938
11.603	0.94
11.6412	0.94
11.6793	0.94
11.7175	0.94
11.7557	0.94
11.7938	0.94
11.832	0.94
11.8702	0.94
11.9083	0.937
11.9465	0.933
11.9847	0.931
12.0228	0.928
12.061	0.924
12.0992	0.922
12.1373	0.919
12.1755	0.918
12.2137	0.913
12.2518	0.906
12.29	0.895
12.3282	0.876
12.3663	0.834
12.4045	0.791
12.4427	0.712
12.4808	0.63
12.519	0.467
12.5572	0.346
12.5953	0.263
12.6335	0.232
12.6717	0.238
12.7098	0.27
12.748	0.447
12.7862	0.552
12.8243	0.636
12.8625	0.73
12.9007	0.77
12.9388	0.809
12.977	0.836
13.0152	0.855
13.0533	0.864
13.0915	0.873
13.1297	0.879
13.1678	0.882
13.206	0.888
13.2442	0.892
13.2823	0.894
13.3205	0.897
13.3587	0.9
13.3968	0.901
13.435	0.904
13.4732	0.904
13.5113	0.904
13.5495	0.906
13.5877	0.906
13.6258	0.906
13.664	0.906
13.7022	0.906
13.7403	0.904
13.7785	0.906
13.8167	0.906
13.8548	0.906
13.893	0.906
13.9312	0.906
13.9693	0.906
14.0075	0.906
14.0457	0.906
14.0838	0.906
14.122	0.906
14.1602	0.904
14.1983	0.904
14.2365	0.904
14.2747	0.903
14.3128	0.903
14.351	0.903
14.3892	0.903
14.4273	0.903
14.4655	0.903
14.5037	0.903
14.5418	0.903
14.58	0.901
14.6182	0.898
14.6563	0.898
14.6945	0.898
14.7327	0.895
14.7708	0.895
14.809	0.895
14.8472	0.894
14.8853	0.892
14.9235	0.891
14.9617	0.891
14.9998	0.885
15.038	0.883
15.0762	0.883
15.1143	0.885
15.1525	0.885
15.1907	0.885
15.2288	0.885
15.267	0.885
15.3052	0.883
15.3433	0.883
15.3815	0.883
15.4197	0.882
15.4578	0.882
15.496	0.88
