Infrared Spectrum: Hexadecane-1-sulfonic acid, sodium salt
Formula: C16 H33 O3 S Na
State: SOLID (1 mg / 100 mg KBr DISC)
Class: COBLENTZ III
Instrument: BECKMAN IR-12 (GRATING)
Instrument parameters: GRATING
Sampling: TRANSMISSION
Resolution: 2
Origin: COLGATE-PALMOLIVE COMPANY (KELLENBACH)
1/CM	TRANSMITTANCE
205	0.0876
215	0.0992
225	0.2158
235	0.35
245	0.4654
255	0.5559
265	0.6696
275	0.7688
285	0.7938
295	0.8458
305	0.8514
315	0.8461
325	0.8551
335	0.8433
345	0.8292
355	0.8203
365	0.8302
375	0.8556
385	0.8667
395	0.9014
405	0.912
415	0.9286
425	0.8966
435	0.9244
445	0.9303
455	0.9293
465	0.9315
475	0.9242
485	0.9316
495	0.9419
505	0.9313
515	0.9178
525	0.874
535	0.8036
545	0.809
555	0.8033
565	0.8527
575	0.9142
585	0.9425
595	0.9473
605	0.8708
615	0.6804
625	0.5529
635	0.8017
645	0.9364
655	0.946
665	0.9395
675	0.9377
685	0.9409
695	0.9402
705	0.9325
715	0.8443
725	0.7514
735	0.8668
745	0.9131
755	0.9255
765	0.9228
775	0.9315
785	0.9033
795	0.8028
805	0.7808
815	0.9152
825	0.9455
835	0.9459
845	0.9439
855	0.9408
865	0.9381
875	0.9348
885	0.9306
895	0.9226
905	0.9128
915	0.9046
925	0.9001
935	0.9015
945	0.9021
955	0.8994
965	0.895
975	0.8866
985	0.8697
995	0.8612
1005	0.8611
1015	0.863
1025	0.8624
1035	0.8307
1045	0.6975
1055	0.5226
1065	0.3478
1075	0.3911
1085	0.6877
1095	0.7761
1105	0.7943
1115	0.8203
1125	0.8291
1135	0.8058
1145	0.7603
1155	0.5706
1165	0.3796
1175	0.1893
1185	0.1799
1195	0.2064
1205	0.212
1215	0.2371
1225	0.3654
1235	0.4404
1245	0.5568
1255	0.5891
1265	0.7218
1275	0.7273
1285	0.7813
1295	0.7734
1305	0.795
1315	0.8188
1325	0.8399
1335	0.8491
1345	0.8508
1355	0.8582
1365	0.8553
1375	0.8431
1385	0.8436
1395	0.8682
1405	0.8577
1415	0.8393
1425	0.8487
1435	0.8424
1445	0.8317
1455	0.7959
1465	0.608
1475	0.6111
1485	0.824
1495	0.8538
1505	0.8573
1515	0.8593
1525	0.8592
1535	0.8583
1545	0.8573
1555	0.8565
1565	0.8574
1575	0.8604
1585	0.8634
1595	0.8628
1605	0.8586
1615	0.8497
1625	0.839
1635	0.8281
1645	0.8224
1655	0.8203
1665	0.8265
1675	0.8394
1685	0.8474
1695	0.8531
1705	0.8541
1715	0.8536
1725	0.8532
1735	0.8527
1745	0.8528
1755	0.8553
1765	0.8581
1775	0.8587
1785	0.8592
1795	0.857
1805	0.8545
1815	0.8515
1825	0.8491
1835	0.8491
1845	0.8498
1855	0.8526
1865	0.8564
1875	0.853
1885	0.8464
1895	0.8431
1905	0.8413
1915	0.8399
1925	0.8384
1935	0.8369
1945	0.8357
1955	0.8348
1965	0.8337
1975	0.8319
1985	0.8312
1995	0.8311
2005	0.828
2015	0.825
2025	0.8221
2035	0.8194
2045	0.8167
2055	0.8145
2065	0.8126
2075	0.8108
2085	0.8092
2095	0.8077
2105	0.8061
2115	0.8048
2125	0.8038
2135	0.8027
2145	0.8017
2155	0.8008
2165	0.7998
2175	0.7989
2185	0.7977
2195	0.7961
2205	0.7945
2215	0.7914
2225	0.786
2235	0.7828
2245	0.7838
2255	0.7851
2265	0.7868
2275	0.7865
2285	0.7858
2295	0.7816
2305	0.7775
2315	0.7736
2325	0.7707
2335	0.7646
2345	0.7514
2355	0.746
2365	0.7471
2375	0.7555
2385	0.7722
2395	0.7793
2405	0.7787
2415	0.7772
2425	0.7753
2435	0.7736
2445	0.7722
2455	0.7708
2465	0.7696
2475	0.7685
2485	0.7673
2495	0.766
2505	0.7645
2515	0.763
2525	0.7615
2535	0.76
2545	0.7581
2555	0.7558
2565	0.7536
2575	0.7515
2585	0.7495
2595	0.7475
2605	0.7454
2615	0.7429
2625	0.7403
2635	0.7378
2645	0.7361
2655	0.7346
2665	0.733
2675	0.7317
2685	0.7306
2695	0.7296
2705	0.7285
2715	0.725
2725	0.7214
2735	0.7192
2745	0.7173
2755	0.7172
2765	0.7161
2775	0.7105
2785	0.7034
2795	0.695
2805	0.6819
2815	0.6608
2825	0.6343
2835	0.5982
2845	0.3704
2855	0.1338
2865	0.3878
2875	0.4304
2885	0.3983
2895	0.3109
2905	0.2236
2915	0.1362
2925	0.0609
2935	0.1612
2945	0.29
2955	0.344
2965	0.3813
2975	0.4963
2985	0.5636
2995	0.5949
3005	0.6087
3015	0.6184
3025	0.6263
3035	0.6327
3045	0.6373
3055	0.6402
3065	0.6429
3075	0.644
3085	0.6449
3095	0.6456
3105	0.6463
3115	0.6462
3125	0.6459
3135	0.6459
3145	0.6463
3155	0.6466
3165	0.645
3175	0.6418
3185	0.6373
3195	0.6358
3205	0.6356
3215	0.636
3225	0.6363
3235	0.636
3245	0.6334
3255	0.6288
3265	0.6235
3275	0.6195
3285	0.6156
3295	0.6117
3305	0.6078
3315	0.6042
3325	0.6006
3335	0.5966
3345	0.5922
3355	0.5879
3365	0.5825
3375	0.5763
3385	0.5701
3395	0.5616
3405	0.553
3415	0.5458
3425	0.5393
3435	0.5355
3445	0.5336
3455	0.5324
3465	0.5324
3475	0.5323
3485	0.5327
3495	0.534
3505	0.5359
3515	0.5378
3525	0.5407
3535	0.5439
3545	0.5472
3555	0.5504
3565	0.5533
3575	0.5576
3585	0.5626
3595	0.5612
3605	0.5619
3615	0.5643
3625	0.5676
3635	0.5705
3645	0.5726
3655	0.5734
3665	0.5739
3675	0.573
3685	0.572
3695	0.5705
3705	0.5688
3715	0.5669
3725	0.5645
3735	0.5623
3745	0.5618
3755	0.5635
3765	0.5666
3775	0.5673
3785	0.5667
3795	0.5648
3805	0.5624
3815	0.56
3825	0.5588
3835	0.5578
3845	0.5537
3855	0.5482
3865	0.5482
3875	0.5515
3885	0.5516
3895	0.5513
3905	0.5502
3915	0.549
3925	0.5474
3935	0.5458
3945	0.5439
3955	0.5418
3965	0.5397
3975	0.5379
3985	0.537
3995	0.5364
