Infrared Spectrum: 2,4-DIHYDROXYBENZOYL FERROCENE
Formula: C17 H14 O3 Fe
State: SOLID (MINERAL OIL MULL)
Melting point: 172-174 C
Class: COBLENTZ
Instrument: Not specified, most likely a prism, grating, or hybrid spectrometer.
Sampling: TRANSMISSION
Resolution: 4
Origin: WYANDOTTE CHEMICALS CORP., WYANDOTTE, MICHIGAN, USA
MICROMETERS	TRANSMITTANCE
2	0.449
2.04084	0.458
2.08167	0.463
2.12251	0.478
2.16334	0.485
2.20418	0.478
2.24501	0.495
2.28585	0.511
2.32668	0.523
2.36752	0.535
2.40835	0.55
2.44919	0.552
2.49002	0.555
2.53086	0.589
2.57169	0.588
2.61253	0.611
2.65336	0.611
2.6942	0.61
2.73503	0.605
2.77587	0.601
2.8167	0.601
2.85754	0.605
2.89837	0.601
2.93921	0.589
2.98004	0.557
3.02088	0.473
3.06171	0.357
3.10255	0.256
3.14338	0.198
3.18422	0.17
3.22505	0.201
3.26589	0.223
3.30672	0.099
3.34756	0.029
3.38839	0.029
3.42923	0.035
3.47006	0.051
3.5109	0.275
3.55173	0.466
3.59257	0.512
3.6334	0.524
3.67424	0.519
3.71507	0.548
3.75591	0.586
3.79674	0.608
3.83758	0.591
3.87841	0.622
3.91925	0.666
3.96008	0.687
4.00092	0.717
4.04175	0.721
4.08259	0.731
4.12342	0.731
4.16426	0.755
4.20509	0.753
4.24593	0.738
4.28676	0.757
4.3276	0.805
4.36843	0.839
4.40927	0.822
4.4501	0.829
4.49094	0.837
4.53177	0.851
4.57261	0.856
4.61344	0.861
4.65428	0.863
4.69511	0.871
4.73595	0.888
4.77678	0.885
4.81762	0.902
4.85845	0.904
4.89929	0.912
4.94012	0.912
4.98096	0.912
5.02179	0.923
5.06263	0.924
5.10346	0.931
5.1443	0.929
5.18513	0.936
5.22597	0.924
5.2668	0.941
5.30764	0.952
5.34847	0.953
5.38931	0.962
5.43014	0.96
5.47098	0.965
5.51181	0.965
5.55265	0.953
5.59348	0.941
5.63432	0.945
5.67515	0.936
5.71599	0.931
5.75682	0.912
5.79766	0.895
5.8385	0.892
5.87933	0.887
5.92017	0.873
5.961	0.813
6.00184	0.666
6.04267	0.452
6.08351	0.124
6.12434	0.147
6.16518	0.288
6.20601	0.169
6.24685	0.29
6.28768	0.442
6.32852	0.341
6.36935	0.155
6.41019	0.222
6.45102	0.376
6.49186	0.35
6.53269	0.283
6.57353	0.35
6.61436	0.208
6.6552	0.229
6.69603	0.341
6.73687	0.222
6.7777	0.087
6.81854	0.059
6.85937	0.035
6.90021	0.073
6.94104	0.145
6.98188	0.252
7.02271	0.391
7.06355	0.408
7.10438	0.381
7.14522	0.389
7.18605	0.141
7.22689	0.085
7.26772	0.206
7.30856	0.343
7.34939	0.336
7.39023	0.483
7.43106	0.276
7.4719	0.164
7.51273	0.206
7.55357	0.222
7.5944	0.251
7.63524	0.384
7.67607	0.406
7.71691	0.205
7.75774	0.099
7.79858	0.059
7.83941	0.2
7.88025	0.36
7.92108	0.401
7.96192	0.357
8.00275	0.124
8.04359	0.085
8.08442	0.198
8.12526	0.329
8.16609	0.417
8.20693	0.547
8.24776	0.452
8.2886	0.283
8.32943	0.435
8.37027	0.411
8.4111	0.552
8.45194	0.492
8.49277	0.347
8.53361	0.275
8.57444	0.374
8.61528	0.606
8.65611	0.705
8.69695	0.752
8.73778	0.782
8.77862	0.683
8.81945	0.458
8.86029	0.398
8.90112	0.174
8.94196	0.557
8.98279	0.514
9.02363	0.69
9.06446	0.764
9.1053	0.788
9.14613	0.801
9.18697	0.8
9.2278	0.789
9.26864	0.716
9.30947	0.603
9.35031	0.658
9.39114	0.74
9.43198	0.666
9.47281	0.611
9.51365	0.521
9.55448	0.707
9.59532	0.714
9.63616	0.752
9.67699	0.782
9.71783	0.806
9.75866	0.823
9.7995	0.83
9.84033	0.834
9.88117	0.801
9.922	0.658
9.96284	0.598
10.0037	0.767
10.0445	0.81
10.0853	0.781
10.1262	0.646
10.167	0.69
10.2078	0.543
10.2487	0.707
10.2895	0.776
10.3304	0.789
10.3712	0.798
10.412	0.82
10.4529	0.822
10.4937	0.82
10.5345	0.779
10.5754	0.738
10.6162	0.724
10.657	0.782
10.6979	0.835
10.7387	0.859
10.7795	0.864
10.8204	0.883
10.8612	0.873
10.902	0.875
10.9429	0.871
10.9837	0.861
11.0245	0.815
11.0654	0.82
11.1062	0.83
11.1471	0.852
11.1879	0.87
11.2287	0.871
11.2696	0.871
11.3104	0.851
11.3512	0.8
11.3921	0.709
11.4329	0.736
11.4737	0.798
11.5146	0.781
11.5554	0.623
11.5962	0.552
11.6371	0.492
11.6779	0.475
11.7187	0.398
11.7596	0.261
11.8004	0.365
11.8412	0.517
11.8821	0.572
11.9229	0.555
11.9638	0.389
12.0046	0.37
12.0454	0.353
12.0863	0.283
12.1271	0.353
12.1679	0.447
12.2088	0.562
12.2496	0.634
12.2904	0.699
12.3313	0.716
12.3721	0.658
12.4129	0.632
12.4538	0.632
12.4946	0.601
12.5354	0.55
12.5763	0.505
12.6171	0.476
12.6579	0.461
12.6988	0.464
12.7396	0.444
12.7805	0.398
12.8213	0.343
12.8621	0.37
12.903	0.482
12.9438	0.598
12.9846	0.67
13.0255	0.702
13.0663	0.714
13.1071	0.707
13.148	0.707
13.1888	0.711
13.2296	0.719
13.2705	0.743
13.3113	0.753
13.3521	0.728
13.393	0.651
13.4338	0.647
13.4747	0.666
13.5155	0.67
13.5563	0.651
13.5972	0.647
13.638	0.647
13.6788	0.651
13.7197	0.652
13.7605	0.652
13.8013	0.658
13.8422	0.661
13.883	0.663
13.9238	0.688
13.9647	0.711
14.0055	0.723
14.0463	0.702
14.0872	0.635
14.128	0.613
14.1688	0.641
14.2097	0.688
14.2505	0.733
14.2914	0.769
14.3322	0.801
14.373	0.813
14.4139	0.82
14.4547	0.83
14.4955	0.834
14.5364	0.834
14.5772	0.841
14.618	0.844
14.6589	0.846
14.6997	0.841
14.7405	0.837
14.7814	0.842
14.8222	0.834
14.863	0.834
14.9039	0.83
14.9447	0.823
14.9855	0.798
15.0264	0.741
15.0672	0.702
15.1081	0.694
15.1489	0.69
15.1897	0.692
15.2306	0.697
15.2714	0.721
15.3122	0.692
15.3531	0.642
15.3939	0.589
15.4347	0.541
15.4756	0.541
15.5164	0.576
15.5572	0.608
15.5981	0.606
15.6389	0.582
15.6797	0.553
15.7206	0.533
15.7614	0.564
15.8022	0.596
15.8431	0.613
15.8839	0.617
15.9248	0.62
15.9656	0.613
