Infrared Spectrum: BROMODIBORANE
Formula: Br B2 H5
State: VAPOR AT 26 mmHg PRESSURE;
Class: COBLENTZ
Instrument: Not specified, most likely a prism, grating, or hybrid spectrometer.
Sampling: TRANSMISSION
Path length: 5 CM
Resolution: 4
Origin: KALLERY CHEMICAL COMPANY
1/CM	TRANSMITTANCE
624.116	0.728
631.914	0.734
639.712	0.746
647.51	0.758
655.307	0.761
663.105	0.758
670.903	0.744
678.701	0.746
686.499	0.74
694.297	0.759
702.095	0.821
709.893	0.825
717.69	0.825
725.488	0.825
733.286	0.83
741.084	0.861
748.882	0.89
756.68	0.912
764.478	0.915
772.275	0.907
780.073	0.903
787.871	0.912
795.669	0.903
803.467	0.8301
811.265	0.6911
819.063	0.629
826.861	0.507
834.658	0.62
842.456	0.747
850.254	0.801
858.052	0.849
865.85	0.873
873.648	0.9
881.446	0.905
889.243	0.898
897.041	0.885
904.839	0.876
912.637	0.852
920.435	0.845
928.233	0.866
936.031	0.869
943.828	0.849
951.626	0.83
959.424	0.835
967.222	0.831
975.02	0.886
982.818	0.924
990.616	0.922
998.414	0.917
1006.21	0.9
1014.01	0.85
1021.81	0.801
1029.61	0.77
1037.4	0.6821
1045.2	0.614
1053	0.217
1060.8	0.204
1068.59	0.162
1076.39	0.253
1084.19	0.507
1091.99	0.789
1099.79	0.854
1107.58	0.864
1115.38	0.866
1123.18	0.871
1130.98	0.862
1138.78	0.845
1146.57	0.777
1154.37	0.641
1162.17	0.622
1169.97	0.602
1177.76	0.651
1185.56	0.756
1193.36	0.811
1201.16	0.83
1208.96	0.842
1216.75	0.842
1224.55	0.835
1232.35	0.823
1240.15	0.777
1247.95	0.698
1255.74	0.605
1263.54	0.535
1271.34	0.528
1279.14	0.566
1286.93	0.617
1294.73	0.66
1302.53	0.699
1310.33	0.715
1318.13	0.722
1325.92	0.723
1333.72	0.722
1341.52	0.723
1349.32	0.74
1357.12	0.761
1364.91	0.78
1372.71	0.79
1380.51	0.792
1388.31	0.795
1396.1	0.807
1403.9	0.813
1411.7	0.813
1419.5	0.806
1427.3	0.801
1435.09	0.785
1442.89	0.758
1450.69	0.728
1458.49	0.704
1466.29	0.691
1474.08	0.663
1481.88	0.59
1489.68	0.518
1497.48	0.499
1505.27	0.504
1513.07	0.622
1520.87	0.74
1528.67	0.696
1536.47	0.6019
1544.26	0.409
1552.06	0.1519
1559.86	0.063
1567.66	0.015
1575.46	0.013
1583.25	0.015
1591.05	0.044
1598.85	0.197
1606.65	0.495
1614.44	0.638
1622.24	0.67
1630.04	0.696
1637.84	0.716
1645.64	0.804
1653.43	0.897
1661.23	0.924
1669.03	0.929
1676.83	0.927
1684.63	0.926
1692.42	0.919
1700.22	0.909
1708.02	0.874
1715.82	0.8249
1723.62	0.775
1731.41	0.777
1739.21	0.797
1747.01	0.886
1754.81	0.919
1762.6	0.933
1770.4	0.941
1778.2	0.948
1786	0.951
1793.8	0.951
1801.59	0.946
1809.39	0.945
1817.19	0.945
1824.99	0.951
1832.79	0.953
1840.58	0.955
1848.38	0.948
1856.18	0.943
1863.98	0.945
1871.77	0.939
1879.57	0.931
1887.37	0.927
1895.17	0.929
1902.97	0.929
1910.76	0.936
1918.56	0.945
1926.36	0.946
1934.16	0.945
1941.96	0.95
1949.75	0.955
1957.55	0.953
1965.35	0.96
1973.15	0.962
1980.94	0.963
1988.74	0.963
1996.54	0.963
2004.34	0.963
2012.14	0.963
2019.93	0.963
2027.73	0.963
2035.53	0.963
2043.33	0.9639
2051.13	0.963
2058.92	0.96
2066.72	0.9613
2074.52	0.9588
2082.32	0.958
2090.11	0.958
2097.91	0.958
2105.71	0.958
2113.51	0.9598
2121.31	0.963
2129.1	0.9659
2136.9	0.9697
2144.7	0.9739
2152.5	0.9774
2160.3	0.9799
2168.09	0.982
2175.89	0.982
2183.69	0.984
2191.49	0.984
2199.28	0.984
2207.08	0.984
2214.88	0.984
2222.68	0.9831
2230.48	0.9856
2238.27	0.9838
2246.07	0.982
2253.87	0.9832
2261.67	0.982
2269.47	0.981
2277.26	0.981
2285.06	0.9817
2292.86	0.9857
2300.66	0.9897
2308.45	0.993
2316.25	0.994
2324.05	0.996
2331.85	0.998
2339.65	1
2347.44	1
2355.24	1
2363.04	0.998
2370.84	0.9949
2378.64	0.9932
2386.43	0.9911
2394.23	0.9966
2402.03	0.9991
2409.83	1.001
2417.63	1.001
2425.42	1.001
2433.22	1.001
2441.02	0.9984
2448.82	0.9957
2456.61	0.9889
2464.41	0.975
2472.21	0.9576
2480.01	0.9428
2487.81	0.8856
2495.6	0.7674
2503.4	0.5989
2511.2	0.5692
2519	0.5595
2526.8	0.5692
2534.59	0.7238
2542.39	0.773
2550.19	0.7542
2557.99	0.7074
2565.78	0.6532
2573.58	0.5978
2581.38	0.5472
2589.18	0.4537
2596.98	0.4592
2604.77	0.4888
2612.57	0.5373
2620.37	0.6089
2628.17	0.6921
2635.97	0.7781
2643.76	0.8621
2651.56	0.8945
2659.36	0.9422
2667.16	0.9801
2674.95	0.9885
2682.75	0.991
2690.55	0.993
2698.35	0.9945
2706.15	0.9995
2713.94	1
2721.74	1.001
2729.54	1.003
2737.34	1.005
2745.14	1.003
2752.93	1.003
2760.73	1.003
2768.53	1.0013
2776.33	1.001
2784.12	0.9999
2791.92	0.998
2799.72	0.9962
2807.52	0.996
2815.32	0.9951
2823.11	0.996
2830.91	0.9999
2838.71	1
2846.51	1
2854.31	0.9985
2862.1	0.996
2869.9	0.994
2877.7	0.993
2885.5	0.993
2893.29	0.993
2901.09	0.9937
2908.89	0.9936
2916.69	0.994
2924.49	0.996
2932.28	0.998
2940.08	1
2947.88	1
2955.68	1.0001
2963.48	1.001
2971.27	1.001
2979.07	1.003
2986.87	1.001
2994.67	1.0006
3002.46	1
3010.26	0.998
3018.06	0.998
3025.86	0.998
3033.66	0.998
3041.45	0.998
3049.25	0.998
3057.05	0.998
3064.85	0.998
3072.65	0.998
3080.44	0.998
3088.24	0.996
3096.04	0.994
3103.84	0.993
3111.64	0.993
3119.43	0.993
3127.23	0.991
3135.03	0.9907
3142.83	0.9882
3150.62	0.989
3158.42	0.989
3166.22	0.989
3174.02	0.989
3181.82	0.987
3189.61	0.987
3197.41	0.9855
3205.21	0.986
3213.01	0.9862
3220.81	0.984
3228.6	0.984
3236.4	0.984
3244.2	0.982
3252	0.982
3259.79	0.9833
3267.59	0.982
3275.39	0.982
3283.19	0.9811
3290.99	0.982
3298.78	0.981
3306.58	0.981
3314.38	0.982
3322.18	0.982
3329.98	0.982
3337.77	0.982
3345.57	0.982
3353.37	0.981
3361.17	0.979
3368.96	0.979
3376.76	0.979
3384.56	0.98
3392.36	0.9774
3400.16	0.9751
3407.95	0.977
3415.75	0.9759
3423.55	0.9742
3431.35	0.972
3439.15	0.9713
3446.94	0.97
3454.74	0.9691
3462.54	0.9667
3470.34	0.9626
3478.13	0.9607
3485.93	0.958
3493.73	0.958
3501.53	0.9541
3509.33	0.9503
3517.12	0.9451
3524.92	0.9379
3532.72	0.9335
3540.52	0.931
3548.32	0.922
3556.11	0.9185
3563.91	0.917
3571.71	0.915
3579.51	0.914
3587.3	0.9156
3595.1	0.9201
3602.9	0.9237
3610.7	0.9294
3618.5	0.9378
3626.29	0.9472
3634.09	0.9509
3641.89	0.9533
3649.69	0.9574
3657.49	0.9613
3665.28	0.9629
3673.08	0.9704
3680.88	0.975
3688.68	0.9848
3696.47	0.9889
3704.27	0.9915
3712.07	0.997
3719.87	0.998
