Infrared Spectrum: YELLOW IRON OXIDE
Formula: O3 Fe2  * H2 O
State: SOLID (0.8 mg / 300 mg CsI DISC)
Class: COBLENTZ III
Instrument: BECKMAN IR-12 (GRATING)
Sampling: TRANSMISSION
Resolution: 4
Origin: DESOTO CHEMICAL COATINGS, INC.
1/CM	TRANSMITTANCE
200	0.676
210.635	0.676
221.27	0.685
231.905	0.693
242.541	0.696
253.176	0.678
263.811	0.6421
274.446	0.3361
285.081	0.271
295.716	0.368
306.352	0.41
316.987	0.4889
327.622	0.568
338.257	0.607
348.892	0.611
359.527	0.589
370.163	0.4721
380.798	0.3501
391.433	0.2981
402.068	0.089
412.703	0.061
423.338	0.084
433.974	0.139
444.609	0.224
455.244	0.258
465.879	0.269
476.514	0.3259
487.149	0.389
497.785	0.431
508.42	0.589
519.055	0.659
529.69	0.694
540.325	0.716
550.96	0.72
561.596	0.702
572.231	0.669
582.866	0.5741
593.501	0.484
604.136	0.439
614.771	0.441
625.407	0.489
636.042	0.5659
646.677	0.635
657.312	0.665
667.947	0.663
678.582	0.673
689.218	0.734
699.853	0.783
710.488	0.809
721.123	0.828
731.758	0.843
742.393	0.843
753.029	0.828
763.664	0.792
774.299	0.717
784.934	0.544
795.569	0.4081
806.204	0.4809
816.84	0.659
827.475	0.761
838.11	0.805
848.745	0.816
859.38	0.8
870.015	0.749
880.651	0.594
891.286	0.421
901.921	0.353
912.556	0.5299
923.191	0.724
933.826	0.82
944.462	0.867
955.097	0.888
965.732	0.892
976.367	0.895
987.002	0.9
997.637	0.904
1008.27	0.91
1018.91	0.911
1029.54	0.911
1040.18	0.906
1050.81	0.903
1061.45	0.903
1072.08	0.908
1082.72	0.91
1093.35	0.912
1103.99	0.91
1114.62	0.898
1125.26	0.887
1135.89	0.882
1146.53	0.887
1157.16	0.902
1167.8	0.912
1178.44	0.917
1189.07	0.919
1199.71	0.926
1210.34	0.927
1220.98	0.935
1231.61	0.941
1242.25	0.951
1252.88	0.958
1263.52	0.969
1274.15	0.971
1284.79	0.973
1295.42	0.974
1306.06	0.975
1316.69	0.978
1327.33	0.983
1337.96	0.978
1348.6	0.977
1359.23	0.977
1369.87	0.975
1380.5	0.975
1391.14	0.975
1401.77	0.973
1412.41	0.97
1423.04	0.965
1433.68	0.962
1444.31	0.962
1454.95	0.959
1465.58	0.966
1476.22	0.97
1486.85	0.973
1497.49	0.974
1508.13	0.974
1518.76	0.975
1529.4	0.975
1540.03	0.967
1550.67	0.967
1561.3	0.962
1571.94	0.959
1582.57	0.954
1593.21	0.941
1603.84	0.921
1614.48	0.898
1625.11	0.9
1635.75	0.906
1646.38	0.91
1657.02	0.904
1667.65	0.908
1678.29	0.923
1688.92	0.934
1699.56	0.949
1710.19	0.954
1720.83	0.957
1731.46	0.954
1742.1	0.951
1752.73	0.949
1763.37	0.947
1774	0.942
1784.64	0.938
1795.27	0.937
1805.91	0.938
1816.55	0.943
1827.18	0.954
1837.82	0.961
1848.45	0.962
1859.09	0.97
1869.72	0.967
1880.36	0.966
1890.99	0.969
1901.63	0.966
1912.26	0.965
1922.9	0.965
1933.53	0.967
1944.17	0.967
1954.8	0.966
1965.44	0.966
1976.07	0.965
1986.71	0.966
1997.34	0.967
2007.98	0.963
2018.61	0.962
2029.25	0.963
2039.88	0.962
2050.52	0.961
2061.15	0.962
2071.79	0.961
2082.42	0.962
2093.06	0.962
2103.69	0.9629
2114.33	0.9649
2124.96	0.965
2135.6	0.966
2146.24	0.966
2156.87	0.967
2167.51	0.967
2178.14	0.9661
2188.78	0.9659
2199.41	0.9669
2210.05	0.967
2220.68	0.967
2231.32	0.965
2241.95	0.9669
2252.59	0.967
2263.22	0.966
2273.86	0.966
2284.49	0.966
2295.13	0.963
2305.76	0.962
2316.4	0.961
2327.03	0.961
2337.67	0.9594
2348.3	0.9572
2358.94	0.955
2369.57	0.9565
2380.21	0.958
2390.84	0.961
2401.48	0.961
2412.11	0.961
2422.75	0.961
2433.38	0.959
2444.02	0.957
2454.66	0.9543
2465.29	0.954
2475.93	0.955
2486.56	0.953
2497.2	0.953
2507.83	0.953
2518.47	0.953
2529.1	0.9533
2539.74	0.953
2550.37	0.951
2561.01	0.949
2571.64	0.9454
2582.28	0.9414
2592.91	0.941
2603.55	0.941
2614.18	0.9374
2624.82	0.934
2635.45	0.931
2646.09	0.9306
2656.72	0.931
2667.36	0.93
2677.99	0.9278
2688.63	0.9224
2699.26	0.921
2709.9	0.9184
2720.53	0.9129
2731.17	0.911
2741.8	0.91
2752.44	0.9049
2763.07	0.8995
2773.71	0.8955
2784.35	0.892
2794.98	0.8915
2805.62	0.89
2816.25	0.8875
2826.89	0.885
2837.52	0.8765
2848.16	0.8705
2858.79	0.87
2869.43	0.866
2880.06	0.8625
2890.7	0.859
2901.33	0.8531
2911.97	0.8447
2922.6	0.836
2933.24	0.835
2943.87	0.832
2954.51	0.8282
2965.14	0.8188
2975.78	0.8126
2986.41	0.8006
2997.05	0.7935
3007.68	0.7796
3018.32	0.7631
3028.95	0.7442
3039.59	0.7238
3050.22	0.6912
3060.86	0.6596
3071.49	0.6172
3082.13	0.5633
3092.76	0.53
3103.4	0.4964
3114.04	0.4741
3124.67	0.4597
3135.31	0.453
3145.94	0.453
3156.58	0.4576
3167.21	0.4683
3177.85	0.4796
3188.48	0.4888
3199.12	0.5051
3209.75	0.5163
3220.39	0.5362
3231.02	0.5525
3241.66	0.5669
3252.29	0.5805
3262.93	0.5942
3273.56	0.6102
3284.2	0.6186
3294.83	0.6302
3305.47	0.6386
3316.1	0.6434
3326.74	0.6505
3337.37	0.6582
3348.01	0.6622
3358.64	0.6652
3369.28	0.666
3379.91	0.6663
3390.55	0.668
3401.18	0.669
3411.82	0.6703
3422.46	0.673
3433.09	0.676
3443.73	0.6801
3454.36	0.6842
3465	0.6931
3475.63	0.7013
3486.27	0.7123
3496.9	0.7227
3507.54	0.7401
3518.17	0.7511
3528.81	0.7643
3539.44	0.7813
3550.08	0.8002
3560.71	0.8162
3571.35	0.8342
3581.98	0.8511
3592.62	0.8661
3603.25	0.89
3613.89	0.902
3624.52	0.914
3635.16	0.922
3645.79	0.926
3656.43	0.931
3667.06	0.933
3677.7	0.934
3688.33	0.938
3698.97	0.939
3709.6	0.941
3720.24	0.9419
3730.87	0.9411
3741.51	0.937
3752.15	0.939
3762.78	0.939
3773.42	0.941
3784.05	0.9429
3794.69	0.943
3805.32	0.9411
3815.96	0.939
3826.59	0.939
3837.23	0.938
3847.86	0.941
3858.5	0.941
3869.13	0.941
3879.77	0.941
3890.4	0.941
3901.04	0.938
3911.67	0.938
3922.31	0.9405
3932.94	0.9394
3943.58	0.9394
3954.21	0.941
3964.85	0.938
3975.48	0.938
