Infrared Spectrum: BENZIMIDAZOLE, 5-AMINO-2-(TRIFLUOROMETHYL)-, DIHYDROCHLORIDE
Formula: C8 H8 Cl2 F3 N3
State: SOLID (KBr DISC)
Class: COBLENTZ III
Instrument: UNICAM SP-200
Sampling: TRANSMISSION
Resolution: 2
Origin: FISONS LTD., VIA S.D.C. (DR. G. T. NEWBOLD)
1/CM	TRANSMITTANCE
652.116	0.859
663.697	0.857
675.279	0.851
686.86	0.84
698.441	0.832
710.023	0.826
721.604	0.818
733.185	0.696
744.766	0.819
756.348	0.6581
767.929	0.808
779.51	0.698
791.092	0.741
802.673	0.8
814.254	0.78
825.836	0.714
837.417	0.659
848.998	0.539
860.58	0.442
872.161	0.5229
883.742	0.682
895.323	0.64
906.905	0.753
918.486	0.788
930.067	0.81
941.649	0.811
953.23	0.809
964.811	0.746
976.393	0.769
987.974	0.6691
999.555	0.782
1011.14	0.796
1022.72	0.791
1034.3	0.788
1045.88	0.78
1057.46	0.766
1069.04	0.75
1080.62	0.723
1092.21	0.662
1103.79	0.5251
1115.37	0.552
1126.95	0.573
1138.53	0.461
1150.11	0.361
1161.69	0.283
1173.27	0.13
1184.86	0.082
1196.44	0.238
1208.02	0.211
1219.6	0.1998
1231.18	0.273
1242.76	0.113
1254.34	0.431
1265.93	0.319
1277.51	0.223
1289.09	0.5369
1300.67	0.656
1312.25	0.707
1323.83	0.58
1335.41	0.3
1346.99	0.188
1358.58	0.2769
1370.16	0.566
1381.74	0.6929
1393.32	0.711
1404.9	0.4671
1416.48	0.6959
1428.06	0.745
1439.64	0.759
1451.23	0.747
1462.81	0.661
1474.39	0.592
1485.97	0.619
1497.55	0.698
1509.13	0.646
1520.71	0.561
1532.3	0.541
1543.88	0.424
1555.46	0.601
1567.04	0.654
1578.62	0.62
1590.2	0.55
1601.78	0.595
1613.36	0.694
1624.95	0.695
1636.53	0.65
1648.11	0.634
1659.69	0.64
1671.27	0.622
1682.85	0.6
1694.43	0.591
1706.02	0.605
1717.6	0.651
1729.18	0.69
1740.76	0.713
1752.34	0.726
1763.92	0.732
1775.5	0.745
1787.08	0.752
1798.67	0.763
1810.25	0.771
1821.83	0.769
1833.41	0.765
1844.99	0.761
1856.57	0.761
1868.15	0.76
1879.73	0.75
1891.32	0.741
1902.9	0.73
1914.48	0.725
1926.06	0.725
1937.64	0.721
1949.22	0.723
1960.8	0.699
1972.39	0.688
1983.97	0.691
1995.55	0.695
2007.13	0.698
2018.71	0.7
2030.29	0.7041
2041.87	0.709
2053.45	0.7191
2065.04	0.7241
2076.62	0.7287
2088.2	0.73
2099.78	0.7286
2111.36	0.7246
2122.94	0.721
2134.52	0.7189
2146.1	0.7128
2157.69	0.7084
2169.27	0.7
2180.85	0.6925
2192.43	0.6681
2204.01	0.6597
2215.59	0.655
2227.17	0.6363
2238.76	0.628
2250.34	0.6262
2261.92	0.6118
2273.5	0.5987
2285.08	0.5923
2296.66	0.5724
2308.24	0.5553
2319.82	0.5358
2331.41	0.512
2342.99	0.4906
2354.57	0.4771
2366.15	0.469
2377.73	0.4672
2389.31	0.4599
2400.89	0.45
2412.47	0.4358
2424.06	0.392
2435.64	0.3195
2447.22	0.276
2458.8	0.2503
2470.38	0.2342
2481.96	0.2212
2493.54	0.196
2505.13	0.1742
2516.71	0.1479
2528.29	0.145
2539.87	0.1434
2551.45	0.1447
2563.03	0.149
2574.61	0.1397
2586.19	0.1282
2597.78	0.12
2609.36	0.1178
2620.94	0.117
2632.52	0.124
2644.1	0.1325
2655.68	0.1493
2667.26	0.151
2678.84	0.151
2690.43	0.1683
2702.01	0.1773
2713.59	0.19
2725.17	0.198
2736.75	0.202
2748.33	0.2211
2759.91	0.2346
2771.5	0.2338
2783.08	0.2266
2794.66	0.2174
2806.24	0.2084
2817.82	0.2025
2829.4	0.1957
2840.98	0.1807
2852.56	0.17
2864.15	0.154
2875.73	0.1495
2887.31	0.1408
2898.89	0.1248
2910.47	0.122
2922.05	0.1273
2933.63	0.1338
2945.21	0.1442
2956.8	0.1599
2968.38	0.1746
2979.96	0.1889
2991.54	0.2014
3003.12	0.23
3014.7	0.2501
3026.28	0.2654
3037.87	0.2797
3049.45	0.2963
3061.03	0.3198
3072.61	0.3417
3084.19	0.3505
3095.77	0.3537
3107.35	0.363
3118.93	0.3923
3130.52	0.4318
3142.1	0.4515
3153.68	0.4793
3165.26	0.5019
3176.84	0.5209
3188.42	0.5366
3200	0.5464
3211.59	0.5595
3223.17	0.571
3234.75	0.5902
3246.33	0.604
3257.91	0.6207
3269.49	0.6297
3281.07	0.6504
3292.65	0.6578
3304.24	0.6647
3315.82	0.6669
3327.4	0.6716
3338.98	0.6785
3350.56	0.68
3362.14	0.681
3373.72	0.683
3385.3	0.6846
3396.89	0.686
3408.47	0.685
3420.05	0.6792
3431.63	0.674
3443.21	0.6691
3454.79	0.666
3466.37	0.666
3477.96	0.667
3489.54	0.67
3501.12	0.6746
3512.7	0.678
3524.28	0.6853
3535.86	0.6904
3547.44	0.699
3559.02	0.706
3570.61	0.71
3582.19	0.719
3593.77	0.7205
3605.35	0.7275
3616.93	0.7302
3628.51	0.7386
3640.09	0.741
3651.67	0.7543
3663.26	0.7616
3674.84	0.7684
3686.42	0.7747
3698	0.7799
3709.58	0.7862
3721.16	0.79
3732.74	0.7926
3744.33	0.7971
3755.91	0.7993
3767.49	0.8056
3779.07	0.8079
3790.65	0.8101
3802.23	0.813
3813.81	0.813
3825.39	0.814
3836.98	0.815
3848.56	0.815
3860.14	0.8158
3871.72	0.818
3883.3	0.818
3894.88	0.818
3906.46	0.8151
3918.04	0.814
3929.63	0.814
3941.21	0.814
3952.79	0.814
3964.37	0.8137
3975.95	0.813
3987.53	0.8112
3999.11	0.81
4010.7	0.809
4022.28	0.809
4033.86	0.8061
4045.44	0.806
4057.02	0.8041
4068.6	0.7996
4080.18	0.799
4091.76	0.799
4103.35	0.7979
4114.93	0.7924
4126.51	0.792
4138.09	0.793
4149.67	0.794
4161.25	0.794
4172.83	0.7928
4184.41	0.7905
4196	0.79
4207.58	0.79
4219.16	0.79
4230.74	0.79
4242.32	0.791
4253.9	0.792
4265.48	0.793
4277.07	0.7914
4288.65	0.79
4300.23	0.7836
4311.81	0.78
4323.39	0.7793
4334.97	0.778
4346.55	0.779
4358.13	0.7796
4369.72	0.78
4381.3	0.78
4392.88	0.78
4404.46	0.7783
4416.04	0.7789
4427.62	0.779
4439.2	0.778
4450.79	0.778
4462.37	0.777
4473.95	0.776
4485.53	0.776
4497.11	0.7742
4508.69	0.7718
4520.27	0.77
4531.85	0.769
4543.44	0.768
4555.02	0.768
4566.6	0.769
4578.18	0.769
4589.76	0.768
4601.34	0.767
4612.92	0.767
4624.5	0.7653
4636.09	0.7649
4647.67	0.764
4659.25	0.7606
4670.83	0.757
4682.41	0.757
4693.99	0.7595
4705.57	0.76
4717.16	0.76
4728.74	0.7587
4740.32	0.758
4751.9	0.7589
4763.48	0.7589
4775.06	0.76
4786.64	0.7603
4798.22	0.756
4809.81	0.755
4821.39	0.7535
4832.97	0.753
4844.55	0.7551
4856.13	0.7573
4867.71	0.758
4879.29	0.7589
4890.87	0.758
4902.46	0.7553
4914.04	0.7503
4925.62	0.75
4937.2	0.7498
4948.78	0.749
4960.36	0.75
4971.94	0.75
