Infrared Spectrum: Aniline, N-tert-butyl-2-ethyl-
Formula: C12 H19 N
State: LIQUID (NEAT)
Class: COBLENTZ III
Instrument: BECKMAN IR-4 (HYBRID PRISM-GRATING)
Instrument parameters: NaCl PRISM
Sampling: TRANSMISSION
Path length: CAPILLARY
Resolution: 2
Origin: MONSANTO (J. FREEMAN)
1/CM	TRANSMITTANCE
625.997	0.6792
634.871	0.6677
643.744	0.6577
652.618	0.6684
661.491	0.6836
670.365	0.7009
679.238	0.7253
688.112	0.7642
696.985	0.7821
705.859	0.7604
714.732	0.739
723.606	0.7052
732.479	0.3715
741.353	0.0497
750.226	0.1711
759.1	0.4828
767.973	0.7181
776.847	0.8148
785.72	0.8368
794.594	0.8093
803.467	0.7841
812.341	0.8717
821.214	0.8687
830.088	0.8374
838.961	0.8394
847.835	0.8837
856.708	0.9209
865.582	0.9351
874.455	0.9465
883.329	0.9513
892.203	0.9501
901.076	0.9393
909.95	0.9033
918.823	0.7967
927.697	0.8062
936.57	0.8749
945.444	0.841
954.317	0.766
963.191	0.7387
972.064	0.7246
980.938	0.835
989.811	0.9102
998.685	0.9262
1007.56	0.9231
1016.43	0.8931
1025.31	0.8064
1034.18	0.769
1043.05	0.8221
1051.93	0.6378
1060.8	0.6088
1069.67	0.8254
1078.55	0.9036
1087.42	0.9246
1096.29	0.9235
1105.17	0.8754
1114.04	0.8169
1122.91	0.8191
1131.79	0.9043
1140.66	0.9047
1149.53	0.886
1158.41	0.7751
1167.28	0.7862
1176.16	0.6366
1185.03	0.6687
1193.9	0.55
1202.78	0.2746
1211.65	0.1534
1220.52	0.0773
1229.4	0.2255
1238.27	0.4048
1247.14	0.453
1256.02	0.2676
1264.89	0.2504
1273.76	0.5474
1282.64	0.6581
1291.51	0.5346
1300.38	0.417
1309.26	0.3351
1318.13	0.3148
1327	0.397
1335.88	0.616
1344.75	0.7069
1353.63	0.6366
1362.5	0.4424
1371.37	0.3053
1380.25	0.6589
1389.12	0.3393
1397.99	0.5285
1406.87	0.7788
1415.74	0.7719
1424.61	0.7175
1433.49	0.5725
1442.36	0.4032
1451.23	0.1676
1460.11	0.1397
1468.98	0.192
1477.85	0.188
1486.73	0.2384
1495.6	0.3518
1504.48	0.2437
1513.35	0.1366
1522.22	0.1421
1531.1	0.3452
1539.97	0.5459
1548.84	0.7542
1557.72	0.7902
1566.59	0.7848
1575.46	0.5986
1584.34	0.2783
1593.21	0.3394
1602.08	0.2005
1610.96	0.284
1619.83	0.6527
1628.7	0.7428
1637.58	0.8446
1646.45	0.8736
1655.32	0.8902
1664.2	0.8936
1673.07	0.8981
1681.95	0.9131
1690.82	0.9178
1699.69	0.9218
1708.57	0.9249
1717.44	0.929
1726.31	0.9337
1735.19	0.9397
1744.06	0.9461
1752.93	0.9435
1761.81	0.9341
1770.68	0.925
1779.55	0.9269
1788.43	0.9309
1797.3	0.9306
1806.17	0.9299
1815.05	0.9307
1823.92	0.9372
1832.8	0.9405
1841.67	0.939
1850.54	0.9376
1859.42	0.9372
1868.29	0.938
1877.16	0.9228
1886.04	0.9036
1894.91	0.9051
1903.78	0.912
1912.66	0.9158
1921.53	0.9148
1930.4	0.9199
1939.28	0.9318
1948.15	0.9437
1957.02	0.9547
1965.9	0.9635
1974.77	0.9666
1983.65	0.9672
1992.52	0.9671
2001.39	0.9671
2010.27	0.9672
2019.14	0.9674
2028.01	0.9674
2036.89	0.9674
2045.76	0.9674
2054.63	0.9674
2063.51	0.9674
2072.38	0.9673
2081.25	0.9673
2090.13	0.9671
2099	0.9663
2107.87	0.9655
2116.75	0.9647
2125.62	0.964
2134.49	0.9632
2143.37	0.9625
2152.24	0.9631
2161.12	0.9631
2169.99	0.9638
2178.86	0.9644
2187.74	0.9649
2196.61	0.9654
2205.48	0.9657
2214.36	0.9662
2223.23	0.9665
2232.1	0.9669
2240.98	0.9671
2249.85	0.9673
2258.72	0.9669
2267.6	0.9651
2276.47	0.9631
2285.34	0.9625
2294.22	0.963
2303.09	0.965
2311.97	0.9671
2320.84	0.9692
2329.71	0.9709
2338.59	0.9724
2347.46	0.9731
2356.33	0.9734
2365.21	0.9769
2374.08	0.9802
2382.95	0.9785
2391.83	0.9672
2400.7	0.9646
2409.57	0.9634
2418.45	0.9611
2427.32	0.9577
2436.19	0.954
2445.07	0.9531
2453.94	0.954
2462.82	0.9579
2471.69	0.9603
2480.56	0.9606
2489.44	0.9599
2498.31	0.9589
2507.18	0.9579
2516.06	0.9569
2524.93	0.9555
2533.8	0.9541
2542.68	0.952
2551.55	0.949
2560.42	0.9448
2569.3	0.938
2578.17	0.9289
2587.04	0.9224
2595.92	0.9219
2604.79	0.9253
2613.66	0.9291
2622.54	0.9322
2631.41	0.9336
2640.29	0.9341
2649.16	0.935
2658.03	0.9362
2666.91	0.9379
2675.78	0.9405
2684.65	0.9429
2693.53	0.943
2702.4	0.9417
2711.27	0.9393
2720.15	0.9361
2729.02	0.9304
2737.89	0.924
2746.77	0.9194
2755.64	0.9186
2764.51	0.9187
2773.39	0.9184
2782.26	0.9176
2791.14	0.9137
2800.01	0.8995
2808.88	0.8868
2817.76	0.8719
2826.63	0.8561
2835.5	0.8183
2844.38	0.7777
2853.25	0.6908
2862.12	0.5545
2871	0.3928
2879.87	0.3237
2888.74	0.3466
2897.62	0.3742
2906.49	0.3613
2915.36	0.3159
2924.24	0.2709
2933.11	0.2261
2941.98	0.1816
2950.86	0.1373
2959.73	0.0934
2968.61	0.0874
2977.48	0.0983
2986.35	0.1879
2995.23	0.2811
3004.1	0.3737
3012.97	0.4657
3021.85	0.5572
3030.72	0.6023
3039.59	0.5984
3048.47	0.595
3057.34	0.6152
3066.21	0.65
3075.09	0.6845
3083.96	0.7189
3092.83	0.7371
3101.71	0.7466
3110.58	0.8364
3119.46	0.8604
3128.33	0.8722
3137.2	0.8828
3146.08	0.89
3154.95	0.8957
3163.82	0.8983
3172.7	0.9005
3181.57	0.9025
3190.44	0.9042
3199.32	0.9059
3208.19	0.9078
3217.06	0.91
3225.94	0.9124
3234.81	0.9151
3243.68	0.9179
3252.56	0.9188
3261.43	0.9194
3270.31	0.9199
3279.18	0.9211
3288.05	0.9191
3296.93	0.9183
3305.8	0.9166
3314.67	0.9149
3323.55	0.9128
3332.42	0.9104
3341.29	0.9073
3350.17	0.9025
3359.04	0.8965
3367.91	0.8902
3376.79	0.8833
3385.66	0.8762
3394.53	0.8662
3403.41	0.8578
3412.28	0.8369
3421.15	0.7988
3430.03	0.761
3438.9	0.7233
3447.78	0.7126
3456.65	0.7301
3465.52	0.8026
3474.4	0.8519
3483.27	0.8773
3492.14	0.8871
3501.02	0.8942
3509.89	0.9001
3518.76	0.9049
3527.64	0.9092
3536.51	0.9125
3545.38	0.9152
3554.26	0.9176
3563.13	0.9198
3572	0.9207
3580.88	0.9215
3589.75	0.9223
3598.63	0.9225
3607.5	0.9228
3616.37	0.9231
3625.25	0.9233
3634.12	0.9235
3642.99	0.9237
3651.87	0.9239
3660.74	0.9241
3669.61	0.9242
3678.49	0.9242
3687.36	0.9243
3696.23	0.9244
3705.11	0.9245
3713.98	0.9246
3722.85	0.9247
3731.73	0.9247
3740.6	0.9248
3749.48	0.9248
3758.35	0.9247
3767.22	0.9245
3776.1	0.9242
3784.97	0.924
3793.84	0.9236
3802.72	0.9234
3811.59	0.923
3820.46	0.9227
3829.34	0.9223
3838.21	0.922
3847.08	0.9217
3855.96	0.9213
3864.83	0.921
3873.7	0.9204
3882.58	0.92
3891.45	0.9196
3900.32	0.9191
3909.2	0.9186
3918.07	0.918
3926.95	0.9168
3935.82	0.9156
3944.69	0.9143
