Infrared Spectrum: ALUMINUM PALMITATE
Formula: C36 H70 O4 Pb
State: SOLID (MINERAL OIL MULL)
Class: COBLENTZ
Instrument: Not specified, most likely a prism, grating, or hybrid spectrometer.
Sampling: TRANSMISSION
Resolution: 4
Origin: WYANDOTTE CHEMICALS CORP., WYANDOTTE, MICHIGAN, USA
MICROMETERS	TRANSMITTANCE
2.068	0.831
2.1089	0.833
2.14979	0.836
2.19069	0.824
2.23159	0.798
2.27249	0.809
2.31338	0.812
2.35428	0.822
2.39518	0.839
2.43607	0.851
2.47697	0.86
2.51787	0.863
2.55876	0.867
2.59966	0.872
2.64056	0.882
2.68146	0.887
2.72235	0.889
2.76325	0.889
2.80415	0.877
2.84504	0.884
2.88594	0.882
2.92684	0.88
2.96774	0.88
3.00863	0.885
3.04953	0.885
3.09043	0.884
3.13132	0.87
3.17222	0.87
3.21312	0.863
3.25401	0.819
3.29491	0.735
3.33581	0.299
3.37671	0.034
3.4176	0.045
3.4585	0.063
3.4994	0.069
3.54029	0.482
3.58119	0.724
3.62209	0.792
3.66299	0.804
3.70388	0.829
3.74478	0.827
3.78568	0.833
3.82657	0.855
3.86747	0.873
3.90837	0.894
3.94927	0.914
3.99016	0.919
4.03106	0.918
4.07196	0.914
4.11285	0.919
4.15375	0.916
4.19465	0.914
4.23554	0.914
4.27644	0.928
4.31734	0.931
4.35824	0.936
4.39913	0.923
4.44003	0.931
4.48093	0.933
4.52182	0.94
4.56272	0.938
4.60362	0.943
4.64452	0.94
4.68541	0.947
4.72631	0.947
4.76721	0.954
4.8081	0.95
4.849	0.95
4.8899	0.952
4.93079	0.95
4.97169	0.945
5.01259	0.95
5.05349	0.952
5.09438	0.952
5.13528	0.952
5.17618	0.947
5.21707	0.954
5.25797	0.954
5.29887	0.948
5.33977	0.95
5.38066	0.954
5.42156	0.952
5.46246	0.95
5.50335	0.952
5.54425	0.954
5.58515	0.948
5.62604	0.95
5.66694	0.948
5.70784	0.933
5.74874	0.931
5.78963	0.942
5.83053	0.938
5.87143	0.94
5.91232	0.936
5.95322	0.933
5.99412	0.923
6.03502	0.911
6.07591	0.884
6.11681	0.873
6.15771	0.865
6.1986	0.86
6.2395	0.836
6.2804	0.812
6.3213	0.752
6.36219	0.652
6.40309	0.323
6.44399	0.11
6.48488	0.396
6.52578	0.362
6.56668	0.247
6.60757	0.141
6.64847	0.052
6.68937	0.042
6.73027	0.042
6.77116	0.063
6.81206	0.061
6.85296	0.097
6.89385	0.136
6.93475	0.177
6.97565	0.269
7.01655	0.308
7.05744	0.318
7.09834	0.235
7.13924	0.204
7.18013	0.26
7.22103	0.236
7.26193	0.277
7.30282	0.393
7.34372	0.456
7.38462	0.47
7.42552	0.526
7.46641	0.586
7.50731	0.66
7.54821	0.674
7.5891	0.691
7.63	0.689
7.6709	0.678
7.7118	0.701
7.75269	0.698
7.79359	0.712
7.83449	0.712
7.87538	0.754
7.91628	0.734
7.95718	0.764
7.99807	0.771
8.03897	0.741
8.07987	0.78
8.12077	0.775
8.16166	0.77
8.20256	0.809
8.24346	0.785
8.28435	0.776
8.32525	0.819
8.36615	0.829
8.40705	0.805
8.44794	0.831
8.48884	0.846
8.52974	0.856
8.57063	0.865
8.61153	0.867
8.65243	0.873
8.69332	0.88
8.73422	0.901
8.77512	0.911
8.81602	0.904
8.85691	0.889
8.89781	0.877
8.93871	0.844
8.9796	0.744
9.0205	0.597
9.0614	0.57
9.1023	0.763
9.14319	0.817
9.18409	0.833
9.22499	0.841
9.26588	0.843
9.30678	0.85
9.34768	0.85
9.38858	0.848
9.42947	0.848
9.47037	0.855
9.51127	0.85
9.55216	0.86
9.59306	0.862
9.63396	0.865
9.67485	0.87
9.71575	0.865
9.75665	0.865
9.79755	0.87
9.83844	0.87
9.87934	0.872
9.92024	0.872
9.96113	0.879
10.002	0.88
10.0429	0.877
10.0838	0.872
10.1247	0.865
10.1656	0.872
10.2065	0.868
10.2474	0.862
10.2883	0.851
10.3292	0.862
10.3701	0.863
10.411	0.87
10.4519	0.865
10.4928	0.862
10.5337	0.863
10.5746	0.863
10.6155	0.867
10.6564	0.867
10.6973	0.86
10.7382	0.853
10.7791	0.822
10.82	0.838
10.8609	0.844
10.9018	0.856
10.9427	0.85
10.9836	0.858
11.0245	0.865
11.0654	0.868
11.1063	0.867
11.1471	0.863
11.188	0.863
11.2289	0.844
11.2698	0.829
11.3107	0.843
11.3516	0.858
11.3925	0.858
11.4334	0.851
11.4743	0.862
11.5152	0.862
11.5561	0.858
11.597	0.853
11.6379	0.858
11.6788	0.853
11.7197	0.85
11.7606	0.851
11.8015	0.836
11.8424	0.827
11.8833	0.824
11.9242	0.827
11.9651	0.833
12.006	0.838
12.0469	0.841
12.0878	0.839
12.1287	0.843
12.1696	0.841
12.2105	0.839
12.2514	0.834
12.2923	0.833
12.3332	0.831
12.3741	0.826
12.415	0.822
12.4559	0.822
12.4968	0.826
12.5376	0.824
12.5785	0.822
12.6194	0.822
12.6603	0.822
12.7012	0.821
12.7421	0.812
12.783	0.802
12.8239	0.792
12.8648	0.795
12.9057	0.795
12.9466	0.795
12.9875	0.793
13.0284	0.783
13.0693	0.775
13.1102	0.773
13.1511	0.773
13.192	0.776
13.2329	0.783
13.2738	0.783
13.3147	0.785
13.3556	0.781
13.3965	0.77
13.4374	0.766
13.4783	0.756
13.5192	0.749
13.5601	0.746
13.601	0.735
13.6419	0.715
13.6828	0.647
13.7237	0.56
13.7646	0.522
13.8055	0.577
13.8464	0.614
13.8873	0.625
13.9281	0.591
13.969	0.551
14.0099	0.591
14.0508	0.683
14.0917	0.732
14.1326	0.759
14.1735	0.764
14.2144	0.771
14.2553	0.773
14.2962	0.778
14.3371	0.78
14.378	0.783
14.4189	0.783
14.4598	0.78
14.5007	0.775
14.5416	0.776
14.5825	0.77
14.6234	0.758
14.6643	0.739
14.7052	0.717
14.7461	0.705
14.787	0.71
14.8279	0.73
14.8688	0.758
14.9097	0.766
14.9506	0.768
14.9915	0.759
15.0324	0.746
15.0733	0.727
15.1142	0.737
15.1551	0.754
15.196	0.742
15.2369	0.727
15.2778	0.718
15.3186	0.703
15.3595	0.701
15.4004	0.691
15.4413	0.691
15.4822	0.691
15.5231	0.691
15.564	0.693
15.6049	0.698
15.6458	0.703
15.6867	0.698
15.7276	0.698
15.7685	0.698
15.8094	0.693
15.8503	0.693
15.8912	0.688
15.9321	0.681
15.973	0.683
16.0139	0.683
