Infrared Spectrum: Carbamic acid, ethyldithio-, compound with ethylamine
Formula: C5 H14 N2 S2
State: LIQUID (NEAT)
Class: COBLENTZ III
Instrument: BECKMAN IR-9 (GRATING)
Instrument parameters: ORDER CHANGES: 670, 1200, 2000 CM^-^1
Sampling: TRANSMISSION
Path length: SMEAR
Resolution: 2
Origin: DOW CHEMICAL COMPANY
1/CM	TRANSMITTANCE
405	0.3253
414	0.2923
423	0.2962
432	0.3787
441	0.4125
450	0.4112
459	0.4388
468	0.4856
477	0.4903
486	0.4798
495	0.4729
504	0.4864
513	0.4791
522	0.4397
531	0.4888
540	0.511
549	0.5027
558	0.4948
567	0.494
576	0.5052
585	0.5408
594	0.5399
603	0.5025
612	0.4514
621	0.4673
630	0.5154
639	0.52
648	0.5094
657	0.4858
666	0.4779
675	0.4978
684	0.5176
693	0.523
702	0.5264
711	0.5405
720	0.565
729	0.5877
738	0.61
747	0.6354
756	0.6535
765	0.6625
774	0.6601
783	0.5885
792	0.3778
801	0.2824
810	0.5346
819	0.6769
828	0.7336
837	0.749
846	0.7572
855	0.7486
864	0.7276
873	0.6208
882	0.4356
891	0.304
900	0.4021
909	0.6165
918	0.6761
927	0.6603
936	0.5568
945	0.2884
954	0.0625
963	0.0409
972	0.117
981	0.2491
990	0.3938
999	0.5239
1008	0.6294
1017	0.6891
1026	0.6903
1035	0.545
1044	0.3688
1053	0.3971
1062	0.5673
1071	0.6765
1080	0.6848
1089	0.6264
1098	0.5992
1107	0.6575
1116	0.6625
1125	0.649
1134	0.6208
1143	0.5736
1152	0.352
1161	0.1344
1170	0.4999
1179	0.5497
1188	0.5154
1197	0.4875
1206	0.5007
1215	0.5124
1224	0.4962
1233	0.5168
1242	0.4831
1251	0.4354
1260	0.3886
1269	0.3209
1278	0.2233
1287	0.1557
1296	0.1927
1305	0.1999
1314	0.1812
1323	0.2646
1332	0.4026
1341	0.4364
1350	0.4685
1359	0.4136
1368	0.2807
1377	0.2954
1386	0.3684
1395	0.3346
1404	0.4774
1413	0.5364
1422	0.5462
1431	0.4918
1440	0.3708
1449	0.2499
1458	0.1981
1467	0.2036
1476	0.1179
1485	0.0685
1494	0.0565
1503	0.0673
1512	0.0937
1521	0.1452
1530	0.2206
1539	0.3493
1548	0.3198
1557	0.2356
1566	0.2463
1575	0.33
1584	0.3759
1593	0.3827
1602	0.386
1611	0.404
1620	0.4395
1629	0.4804
1638	0.5291
1647	0.5862
1656	0.6356
1665	0.6814
1674	0.7217
1683	0.7557
1692	0.7735
1701	0.7846
1710	0.7957
1719	0.8101
1728	0.8233
1737	0.8275
1746	0.8295
1755	0.8297
1764	0.8305
1773	0.8303
1782	0.8325
1791	0.8393
1800	0.8483
1809	0.8514
1818	0.8494
1827	0.8478
1836	0.8446
1845	0.8406
1854	0.8346
1863	0.8282
1872	0.8206
1881	0.8128
1890	0.804
1899	0.7912
1908	0.7812
1917	0.7704
1926	0.7606
1935	0.7514
1944	0.7426
1953	0.7351
1962	0.7187
1971	0.7195
1980	0.7118
1989	0.7071
1998	0.7038
2007	0.7032
2016	0.7042
2025	0.7087
2034	0.7149
2043	0.7226
2052	0.731
2061	0.7405
2070	0.7526
2079	0.7632
2088	0.7734
2097	0.7834
2106	0.79
2115	0.7961
2124	0.8015
2133	0.8065
2142	0.8101
2151	0.8122
2160	0.8125
2169	0.8122
2178	0.8108
2187	0.8104
2196	0.8104
2205	0.8114
2214	0.8142
2223	0.8182
2232	0.821
2241	0.819
2250	0.8162
2259	0.8122
2268	0.8087
2277	0.8053
2286	0.8021
2295	0.7988
2304	0.7964
2313	0.7939
2322	0.791
2331	0.7861
2340	0.781
2349	0.7744
2358	0.7665
2367	0.7569
2376	0.7458
2385	0.7325
2394	0.7192
2403	0.7021
2412	0.683
2421	0.6617
2430	0.6338
2439	0.5994
2448	0.5607
2457	0.5255
2466	0.4905
2475	0.467
2484	0.4656
2493	0.4742
2502	0.491
2511	0.5097
2520	0.5197
2529	0.511
2538	0.4952
2547	0.4735
2556	0.4489
2565	0.4307
2574	0.4245
2583	0.424
2592	0.4282
2601	0.4349
2610	0.4439
2619	0.4364
2628	0.4199
2637	0.4018
2646	0.3825
2655	0.36
2664	0.3338
2673	0.304
2682	0.2745
2691	0.2607
2700	0.2499
2709	0.243
2718	0.2385
2727	0.2352
2736	0.2269
2745	0.2101
2754	0.1878
2763	0.1674
2772	0.1533
2781	0.1475
2790	0.1434
2799	0.1403
2808	0.138
2817	0.1362
2826	0.1352
2835	0.1272
2844	0.114
2853	0.0989
2862	0.0824
2871	0.0646
2880	0.0551
2889	0.052
2898	0.0506
2907	0.0494
2916	0.0482
2925	0.0461
2934	0.0366
2943	0.031
2952	0.033
2961	0.034
2970	0.0315
2979	0.0198
2988	0.0191
2997	0.0236
3006	0.0357
3015	0.0467
3024	0.0504
3033	0.0542
3042	0.0572
3051	0.0607
3060	0.065
3069	0.0704
3078	0.0755
3087	0.0809
3096	0.0864
3105	0.0924
3114	0.0996
3123	0.1084
3132	0.1202
3141	0.1295
3150	0.1351
3159	0.1365
3168	0.1361
3177	0.1352
3186	0.133
3195	0.1296
3204	0.1242
3213	0.1171
3222	0.1122
3231	0.1118
3240	0.1142
3249	0.1184
3258	0.1239
3267	0.129
3276	0.1349
3285	0.1409
3294	0.147
3303	0.1544
3312	0.1619
3321	0.1695
3330	0.1776
3339	0.1861
3348	0.1933
3357	0.2016
3366	0.2101
3375	0.2188
3384	0.2284
3393	0.238
3402	0.2478
3411	0.2577
3420	0.2683
3429	0.2788
3438	0.2892
3447	0.2995
3456	0.3106
3465	0.3239
3474	0.3372
3483	0.3512
3492	0.366
3501	0.3816
3510	0.3988
3519	0.417
3528	0.4358
3537	0.4553
3546	0.4771
3555	0.4988
3564	0.514
3573	0.5469
3582	0.5823
3591	0.6068
3600	0.6355
3609	0.6671
3618	0.6971
3627	0.7293
3636	0.7554
3645	0.7778
3654	0.7989
3663	0.8242
3672	0.8468
3681	0.8647
3690	0.8747
3699	0.8802
3708	0.8845
3717	0.8867
3726	0.8885
3735	0.8889
3744	0.8893
3753	0.8893
3762	0.8896
3771	0.89
3780	0.8906
3789	0.8911
3798	0.8911
