Infrared Spectrum: PIPECOLOXYLIDIDE, 1-METHYL-,HYDROCHLORIDE
Formula: C15 H23 Cl N2 O
State: SOLID (KCl DISC) VS KCl
Class: COBLENTZ III
Instrument: PERKIN-ELMER 21 (GRATING)
Instrument parameters: FILTER AT ABOUT 10 MICRONS
Sampling: TRANSMISSION
Resolution: 2
1/CM	TRANSMITTANCE
4000	0.7372
3991	0.7384
3982	0.7395
3973	0.7407
3964	0.7418
3955	0.743
3946	0.7442
3937	0.7454
3928	0.7465
3919	0.7478
3910	0.749
3901	0.7501
3892	0.7514
3883	0.7526
3874	0.7539
3865	0.7551
3856	0.7565
3847	0.7578
3838	0.7594
3829	0.761
3820	0.7625
3811	0.7641
3802	0.7657
3793	0.7672
3784	0.7687
3775	0.7699
3766	0.771
3757	0.7721
3748	0.7735
3739	0.7745
3730	0.7755
3721	0.7765
3712	0.7774
3703	0.7783
3694	0.7791
3685	0.78
3676	0.7808
3667	0.781
3658	0.7811
3649	0.7806
3640	0.7798
3631	0.779
3622	0.7771
3613	0.7749
3604	0.7705
3595	0.7622
3586	0.7483
3577	0.7397
3568	0.7324
3559	0.7251
3550	0.7178
3541	0.7106
3532	0.7035
3523	0.6962
3514	0.6891
3505	0.6818
3496	0.6762
3487	0.6724
3478	0.6683
3469	0.6642
3460	0.6601
3451	0.6558
3442	0.6506
3433	0.6454
3424	0.6408
3415	0.6388
3406	0.6387
3397	0.6396
3388	0.6407
3379	0.6442
3370	0.6485
3361	0.6533
3352	0.6582
3343	0.6637
3334	0.6701
3325	0.6765
3316	0.6828
3307	0.6875
3298	0.6899
3289	0.6919
3280	0.6933
3271	0.6936
3262	0.6935
3253	0.6925
3244	0.689
3235	0.6782
3226	0.6647
3217	0.6489
3208	0.6224
3199	0.593
3190	0.5633
3181	0.5336
3172	0.5065
3163	0.4895
3154	0.4734
3145	0.4605
3136	0.4525
3127	0.4482
3118	0.4469
3109	0.454
3100	0.4681
3091	0.4823
3082	0.4966
3073	0.511
3064	0.5212
3055	0.5149
3046	0.485
3037	0.4535
3028	0.4219
3019	0.39
3010	0.358
3001	0.3257
2992	0.2933
2983	0.2607
2974	0.2279
2965	0.2034
2956	0.1993
2947	0.1977
2938	0.1964
2929	0.1964
2920	0.1981
2911	0.2045
2902	0.2218
2893	0.2397
2884	0.2628
2875	0.2871
2866	0.31
2857	0.3393
2848	0.375
2839	0.3977
2830	0.4073
2821	0.4169
2812	0.4267
2803	0.4358
2794	0.4436
2785	0.4498
2776	0.454
2767	0.4573
2758	0.4595
2749	0.461
2740	0.462
2731	0.4616
2722	0.4593
2713	0.4535
2704	0.4437
2695	0.4326
2686	0.4202
2677	0.4036
2668	0.3897
2659	0.3857
2650	0.3812
2641	0.3749
2632	0.3666
2623	0.3594
2614	0.3545
2605	0.3521
2596	0.3516
2587	0.353
2578	0.3582
2569	0.3705
2560	0.3773
2551	0.3788
2542	0.3834
2533	0.3909
2524	0.3945
2515	0.3904
2506	0.3824
2497	0.3759
2488	0.3716
2479	0.3699
2470	0.371
2461	0.3808
2452	0.4
2443	0.4237
2434	0.4469
2425	0.4702
2416	0.4937
2407	0.5174
2398	0.5412
2389	0.5653
2380	0.5876
2371	0.5918
2362	0.5965
2353	0.6025
2344	0.6094
2335	0.6181
2326	0.6319
2317	0.6583
2308	0.6846
2299	0.6987
2290	0.7118
2281	0.7237
2272	0.7337
2263	0.7428
2254	0.7515
2245	0.7601
2236	0.7685
2227	0.7751
2218	0.7818
2209	0.7886
2200	0.7947
2191	0.8008
2182	0.8065
2173	0.8114
2164	0.8161
2155	0.8207
2146	0.8254
2137	0.8299
2128	0.8346
2119	0.8386
2110	0.8424
2101	0.845
2092	0.8455
2083	0.8449
2074	0.8451
2065	0.8471
2056	0.8508
2047	0.8549
2038	0.8584
2029	0.8617
2020	0.8643
2011	0.8668
2002	0.8695
1993	0.8721
1984	0.8745
1975	0.8753
1966	0.8761
1957	0.8767
1948	0.8775
1939	0.8799
1930	0.8867
1921	0.8908
1912	0.8933
1903	0.8965
1894	0.8966
1885	0.8964
1876	0.8974
1867	0.8994
1858	0.9037
1849	0.9086
1840	0.9114
1831	0.9115
1822	0.9118
1813	0.9118
1804	0.9121
1795	0.9127
1786	0.9138
1777	0.9138
1768	0.913
1759	0.9118
1750	0.9102
1741	0.9075
1732	0.9039
1723	0.8946
1714	0.816
1705	0.6483
1696	0.3416
1687	0.0813
1678	0.1313
1669	0.3293
1660	0.4982
1651	0.6229
1642	0.6691
1633	0.7051
1624	0.7418
1615	0.7551
1606	0.6871
1597	0.6924
1588	0.7315
1579	0.7312
1570	0.6745
1561	0.5338
1552	0.3162
1543	0.2639
1534	0.3154
1525	0.4178
1516	0.5167
1507	0.5975
1498	0.5971
1489	0.429
1480	0.2663
1471	0.2987
1462	0.3658
1453	0.3682
1444	0.3758
1435	0.4679
1426	0.5199
1417	0.5876
1408	0.4375
1399	0.348
1390	0.4041
1381	0.3984
1372	0.4132
1363	0.5004
1354	0.5819
1345	0.694
1336	0.7276
1327	0.7433
1318	0.5853
1309	0.6368
1300	0.6736
1291	0.4181
1282	0.3896
1273	0.5445
1264	0.643
1255	0.7315
1246	0.6897
1237	0.4775
1228	0.5512
1219	0.6618
1210	0.781
1201	0.8151
1192	0.8089
1183	0.7972
1174	0.8371
1165	0.7532
1156	0.8141
1147	0.8631
1138	0.867
1129	0.6858
1120	0.5988
1111	0.8071
1102	0.8195
1093	0.6661
1084	0.6162
1075	0.739
1066	0.7732
1057	0.8359
1048	0.8221
1039	0.6411
1030	0.7414
1021	0.8368
1012	0.7447
1003	0.7593
994	0.6376
985	0.7275
976	0.8525
967	0.8723
958	0.8244
949	0.33
940	0.5908
931	0.8003
922	0.8206
913	0.8311
904	0.8843
895	0.8871
886	0.8737
877	0.875
868	0.8956
859	0.9141
850	0.9041
841	0.8433
832	0.9012
823	0.9165
814	0.9145
805	0.9007
796	0.81
787	0.515
778	0.4473
769	0.628
760	0.7688
751	0.7955
742	0.839
733	0.8321
724	0.596
715	0.6944
706	0.7705
697	0.7633
688	0.818
679	0.7634
