Infrared Spectrum: 5-Cyclo-5Alpha-androstan-6Beta-ol, 17-ethylenedioxy-3Alpha, p-nitrobenzoate
Formula: C28 H35 N O6
State: SOLUTION (7% CHCl3 FOR 2.5-12.5 MICRON) VS SOLVENT
Melting point: 187-189 C
Class: COBLENTZ
Instrument: PERKIN-ELMER 21 (GRATING)
Instrument parameters: FILTER AT ABOUT 10 MICRONS
Path length: 0.010 CM
Resolution: 2
Origin: ABBOTT LABORATORIES
1/CM	TRANSMITTANCE
797	0.9975
806	0.9403
815	0.9312
824	0.8596
833	0.8746
842	0.8689
851	0.7061
860	0.7379
869	0.7218
878	0.8009
887	0.841
896	0.8843
905	0.7285
914	0.7603
923	0.8528
932	0.7773
941	0.7351
950	0.7529
959	0.8011
968	0.7944
977	0.8582
986	0.758
995	0.7439
1004	0.4988
1013	0.6082
1022	0.7215
1031	0.6687
1040	0.5711
1049	0.5821
1058	0.6201
1067	0.7332
1076	0.7044
1085	0.6447
1094	0.5068
1103	0.2662
1112	0.3952
1121	0.4485
1130	0.6474
1139	0.699
1148	0.7196
1157	0.5614
1166	0.5212
1175	0.6798
1184	0.752
1193	0.7903
1202	0.6923
1211	0.6464
1220	0.6333
1229	0.6013
1238	0.6183
1247	0.6772
1256	0.6022
1265	0.3898
1274	0.0746
1283	0.1178
1292	0.5176
1301	0.5348
1310	0.5551
1319	0.5747
1328	0.512
1337	0.4871
1346	0.3721
1355	0.5253
1364	0.7226
1373	0.7086
1382	0.682
1391	0.7545
1400	0.8027
1409	0.8245
1418	0.8745
1427	0.8272
1436	0.8016
1445	0.7916
1454	0.7299
1463	0.7556
1472	0.7683
1481	0.8413
1490	0.8705
1499	0.8638
1508	0.8077
1517	0.6518
1526	0.2946
1535	0.515
1544	0.835
1553	0.8725
1562	0.8761
1571	0.875
1580	0.8732
1589	0.8671
1598	0.8123
1607	0.7055
1616	0.7312
1625	0.8901
1634	0.8969
1643	0.8921
1652	0.8874
1661	0.8834
1670	0.8717
1679	0.8664
1688	0.8377
1697	0.7412
1706	0.4756
1715	0.2726
1724	0.4628
1733	0.7136
1742	0.8862
1751	0.9159
1760	0.9345
1769	0.9438
1778	0.9447
1787	0.9436
1796	0.9405
1805	0.939
1814	0.9442
1823	0.9492
1832	0.9523
1841	0.9538
1850	0.9544
1859	0.9549
1868	0.9552
1877	0.9552
1886	0.955
1895	0.955
1904	0.955
1913	0.9543
1922	0.9527
1931	0.9415
1940	0.94
1949	0.9488
1958	0.9536
1967	0.9547
1976	0.9554
1985	0.9555
1994	0.9554
2003	0.9553
2012	0.9551
2021	0.9549
2030	0.9547
2039	0.9544
2048	0.9535
2057	0.9528
2066	0.9523
2075	0.9511
2084	0.9513
2093	0.9545
2102	0.9559
2111	0.956
2120	0.9556
2129	0.9554
2138	0.9552
2147	0.955
2156	0.9545
2165	0.954
2174	0.9536
2183	0.9533
2192	0.9529
2201	0.9525
2210	0.9522
2219	0.9519
2228	0.9518
2237	0.9516
2246	0.9514
2255	0.9513
2264	0.9511
2273	0.951
2282	0.9509
2291	0.9508
2300	0.9507
2309	0.9506
2318	0.9508
2327	0.951
2336	0.9513
2345	0.9516
2354	0.9518
2363	0.9524
2372	0.9527
2381	0.9526
2390	0.9522
2399	0.9457
2408	0.941
2417	0.9397
2426	0.9392
2435	0.9392
2444	0.9391
2453	0.9395
2462	0.9402
2471	0.9407
2480	0.9411
2489	0.9416
2498	0.942
2507	0.9423
2516	0.9428
2525	0.9432
2534	0.9436
2543	0.944
2552	0.9445
2561	0.9449
2570	0.9445
2579	0.9442
2588	0.9438
2597	0.9434
2606	0.9428
2615	0.941
2624	0.9392
2633	0.9386
2642	0.9385
2651	0.9384
2660	0.9381
2669	0.937
2678	0.9359
2687	0.9349
2696	0.934
2705	0.9331
2714	0.9329
2723	0.9328
2732	0.9324
2741	0.9309
2750	0.9281
2759	0.9244
2768	0.9199
2777	0.912
2786	0.8993
2795	0.8831
2804	0.8717
2813	0.8564
2822	0.8106
2831	0.7524
2840	0.6946
2849	0.6371
2858	0.5808
2867	0.5635
2876	0.5622
2885	0.5602
2894	0.5549
2903	0.5292
2912	0.4938
2921	0.4871
2930	0.4882
2939	0.4958
2948	0.5471
2957	0.6021
2966	0.6568
2975	0.7112
2984	0.7652
2993	0.8189
3002	0.8653
3011	0.8723
3020	0.8757
3029	0.8873
3038	0.889
3047	0.8904
3056	0.8935
3065	0.9048
3074	0.9107
3083	0.9131
3092	0.9142
3101	0.9148
3110	0.9152
3119	0.9148
3128	0.9142
3137	0.9137
3146	0.913
3155	0.9122
3164	0.9114
3173	0.9105
3182	0.9097
3191	0.9088
3200	0.9077
3209	0.9066
3218	0.9054
3227	0.9041
3236	0.9028
3245	0.9015
3254	0.9003
3263	0.8994
3272	0.8987
3281	0.8978
3290	0.8972
3299	0.8969
3308	0.8966
3317	0.8964
3326	0.8966
3335	0.8967
3344	0.8969
3353	0.8975
3362	0.8981
3371	0.8988
3380	0.8995
3389	0.9007
3398	0.9019
3407	0.9032
3416	0.9044
3425	0.9057
3434	0.9071
3443	0.9087
3452	0.9102
3461	0.9112
3470	0.9119
3479	0.9126
3488	0.9132
3497	0.9135
3506	0.9137
3515	0.914
3524	0.9142
3533	0.9145
3542	0.9144
3551	0.9144
3560	0.9143
3569	0.9142
3578	0.9141
3587	0.914
3596	0.914
3605	0.9138
3614	0.9137
3623	0.9136
3632	0.9135
3641	0.9135
3650	0.9135
3659	0.9135
3668	0.9135
3677	0.9135
3686	0.9135
3695	0.9134
3704	0.9133
3713	0.9133
3722	0.9132
3731	0.9132
3740	0.9132
3749	0.9131
3758	0.913
3767	0.9127
3776	0.9124
3785	0.9121
3794	0.9117
3803	0.9114
3812	0.9112
3821	0.9109
3830	0.9106
3839	0.9103
3848	0.91
3857	0.9096
3866	0.9093
3875	0.909
3884	0.9086
3893	0.9077
3902	0.9062
3911	0.9038
3920	0.9007
3929	0.8976
3938	0.8954
3947	0.8938
3956	0.8926
3965	0.8924
3974	0.8922
3983	0.8919
3992	0.8917
