Infrared Spectrum: Benzamidine, p-(3-isobutyl-3-methyltriazeno)-, hydrochloride
Formula: C12 H20 Cl N5
State: SOLID (1 mg / 650 mg KBr DISC)
Class: COBLENTZ III
Instrument: PERKIN-ELMER 521 (GRATING)
Instrument parameters: FILTERS AT 3130, 2475, 2000, 1150, 700, 410. GRATING CHANGES: 2000, 620 CM^-^1
Sampling: TRANSMISSION
Resolution: 2
Origin: SOUTHERN RESEARCH INSTITUTE, W.C. Coburn, Jr.
1/CM	TRANSMITTANCE
248	0.4534
258	0.4805
268	0.5212
278	0.5966
288	0.686
298	0.7223
308	0.7438
318	0.7613
328	0.7822
338	0.8313
348	0.8627
358	0.881
368	0.8896
378	0.8903
388	0.8693
398	0.8625
408	0.8838
418	0.8932
428	0.8886
438	0.893
448	0.9076
458	0.9147
468	0.9131
478	0.9111
488	0.9181
498	0.9064
508	0.8675
518	0.8622
528	0.835
538	0.8529
548	0.8671
558	0.853
568	0.7935
578	0.6809
588	0.8206
598	0.8098
608	0.7948
618	0.7745
628	0.69
638	0.7094
648	0.6514
658	0.6949
668	0.664
678	0.594
688	0.5872
698	0.5874
708	0.6069
718	0.6989
728	0.7957
738	0.8452
748	0.7342
758	0.8606
768	0.8839
778	0.8765
788	0.8809
798	0.878
808	0.8729
818	0.8704
828	0.7814
838	0.8336
848	0.5098
858	0.9454
868	0.9608
878	0.954
888	0.9397
898	0.9367
908	0.9155
918	0.8485
928	0.9152
938	0.9158
948	0.9294
958	0.922
968	0.9179
978	0.9115
988	0.9035
998	0.8871
1008	0.8659
1018	0.8568
1028	0.8282
1038	0.7748
1048	0.6235
1058	0.666
1068	0.731
1078	0.661
1088	0.5312
1098	0.5904
1108	0.6325
1118	0.4406
1128	0.3927
1138	0.7123
1148	0.6409
1158	0.4383
1168	0.3551
1178	0.7458
1188	0.7879
1198	0.7598
1208	0.6733
1218	0.5264
1228	0.5988
1238	0.7129
1248	0.7092
1258	0.6668
1268	0.6193
1278	0.5549
1288	0.4667
1298	0.3818
1308	0.322
1318	0.2204
1328	0.2483
1338	0.2664
1348	0.1126
1358	0.2436
1368	0.3993
1378	0.5801
1388	0.6545
1398	0.7203
1408	0.463
1418	0.2045
1428	0.5165
1438	0.5559
1448	0.3342
1458	0.2244
1468	0.33
1478	0.3789
1488	0.4411
1498	0.7269
1508	0.8416
1518	0.7262
1528	0.5151
1538	0.655
1548	0.823
1558	0.8553
1568	0.829
1578	0.7645
1588	0.6349
1598	0.2507
1608	0.5797
1618	0.7776
1628	0.7123
1638	0.4998
1648	0.3215
1658	0.1794
1668	0.3466
1678	0.6232
1688	0.8274
1698	0.9202
1708	0.9641
1718	0.9843
1728	0.9931
1738	0.9995
1748	1.0048
1758	1.0077
1768	1.0077
1778	1.0058
1788	1.0074
1798	1.0117
1808	1.016
1818	1.0154
1828	1.0135
1838	1.0114
1848	1.009
1858	1.0058
1868	1.0016
1878	0.9964
1888	0.9916
1898	0.9878
1908	0.9833
1918	0.9807
1928	0.9818
1938	0.9842
1948	0.9853
1958	0.9845
1968	0.9831
1978	0.9807
1988	0.9779
1998	0.9735
2008	0.9718
2018	0.9713
2028	0.971
2038	0.9708
2048	0.9699
2058	0.9666
2068	0.9614
2078	0.9574
2088	0.9548
2098	0.9515
2108	0.9482
2118	0.945
2128	0.9422
2138	0.9401
2148	0.938
2158	0.9361
2168	0.9342
2178	0.9329
2188	0.932
2198	0.9316
2208	0.9311
2218	0.9302
2228	0.9286
2238	0.9235
2248	0.9159
2258	0.9121
2268	0.9102
2278	0.9097
2288	0.9089
2298	0.9079
2308	0.9066
2318	0.9051
2328	0.9039
2338	0.9037
2348	0.9035
2358	0.9028
2368	0.9019
2378	0.9006
2388	0.8993
2398	0.8969
2408	0.8946
2418	0.8915
2428	0.8876
2438	0.8833
2448	0.8796
2458	0.8759
2468	0.8725
2478	0.87
2488	0.8675
2498	0.866
2508	0.8646
2518	0.8612
2528	0.8583
2538	0.8554
2548	0.8545
2558	0.8529
2568	0.8493
2578	0.8401
2588	0.8299
2598	0.8275
2608	0.8283
2618	0.831
2628	0.8318
2638	0.8302
2648	0.8233
2658	0.8128
2668	0.8114
2678	0.807
2688	0.7972
2698	0.7832
2708	0.7671
2718	0.7494
2728	0.7255
2738	0.719
2748	0.722
2758	0.7413
2768	0.7467
2778	0.7474
2788	0.744
2798	0.7354
2808	0.723
2818	0.7076
2828	0.6923
2838	0.6785
2848	0.6643
2858	0.6273
2868	0.5778
2878	0.6114
2888	0.5918
2898	0.5432
2908	0.5225
2918	0.4919
2928	0.492
2938	0.4977
2948	0.4216
2958	0.3679
2968	0.4503
2978	0.4899
2988	0.4671
2998	0.4408
3008	0.4138
3018	0.3821
3028	0.3402
3038	0.2955
3048	0.2569
3058	0.2239
3068	0.2088
3078	0.2073
3088	0.2149
3098	0.2283
3108	0.241
3118	0.2573
3128	0.2733
3138	0.2959
3148	0.3216
3158	0.3524
3168	0.3798
3178	0.3898
3188	0.393
3198	0.3958
3208	0.3977
3218	0.3966
3228	0.3841
3238	0.3631
3248	0.3406
3258	0.3136
3268	0.3047
3278	0.3102
3288	0.3242
3298	0.3401
3308	0.3673
3318	0.3919
3328	0.4249
3338	0.4588
3348	0.5007
3358	0.5607
3368	0.62
3378	0.6609
3388	0.6949
3398	0.7207
3408	0.7331
3418	0.7431
3428	0.7515
3438	0.7591
3448	0.7661
3458	0.7708
3468	0.7746
3478	0.7783
3488	0.7844
3498	0.7905
3508	0.7963
3518	0.8019
3528	0.8074
3538	0.8128
3548	0.8191
3558	0.8273
3568	0.8357
3578	0.8401
3588	0.8442
3598	0.8465
3608	0.8483
3618	0.8499
3628	0.8512
3638	0.8513
3648	0.8515
3658	0.8508
3668	0.8497
3678	0.8492
3688	0.8496
3698	0.8516
3708	0.8512
3718	0.849
3728	0.8464
3738	0.8441
3748	0.8419
3758	0.8398
3768	0.8377
3778	0.836
3788	0.8344
3798	0.8327
3808	0.8313
3818	0.8301
3828	0.8289
3838	0.8274
3848	0.8257
3858	0.824
3868	0.8223
3878	0.8205
3888	0.8186
3898	0.8169
3908	0.8157
3918	0.8145
3928	0.8134
3938	0.8126
3948	0.8117
3958	0.8115
3968	0.8113
3978	0.8097
3988	0.8068
3998	0.8039
