Infrared Spectrum: SODIUM TRIPOLYPHOSPHATE, FORM I
Formula: O10 P3 Na5
State: SOLID (MULL IN COCONITRILE)
Class: COBLENTZ III
Instrument: PERKIN-ELMER 421 (GRATING)
Instrument parameters: GRATING CHANGE AT 1999 CM^-^1
Sampling: TRANSMISSION
Resolution: 4
Origin: PROCTER AND GAMBLE CO.
1/CM	TRANSMITTANCE
481.955	0.596
490.978	0.596
500	0.598
509.023	0.598
518.045	0.598
527.068	0.598
536.091	0.5821
545.113	0.4062
554.136	0.357
563.158	0.239
572.181	0.239
581.204	0.3189
590.226	0.4149
599.249	0.473
608.271	0.461
617.294	0.43
626.317	0.5717
635.339	0.697
644.362	0.716
653.384	0.712
662.407	0.678
671.429	0.646
680.452	0.62
689.475	0.562
698.497	0.459
707.52	0.317
716.542	0.3189
725.565	0.4849
734.588	0.545
743.61	0.584
752.633	0.4
761.655	0.5928
770.678	0.671
779.701	0.688
788.723	0.687
797.746	0.676
806.768	0.663
815.791	0.642
824.814	0.623
833.836	0.601
842.859	0.574
851.881	0.533
860.904	0.485
869.927	0.41
878.949	0.304
887.972	0.176
896.994	0.099
906.017	0.082
915.04	0.075
924.062	0.08
933.085	0.1
942.107	0.143
951.13	0.205
960.153	0.266
969.175	0.331
978.198	0.393
987.22	0.386
996.243	0.473
1005.27	0.558
1014.29	0.565
1023.31	0.529
1032.33	0.567
1041.36	0.57
1050.38	0.55
1059.4	0.524
1068.42	0.499
1077.45	0.449
1086.47	0.3171
1095.49	0.167
1104.51	0.263
1113.54	0.176
1122.56	0.08
1131.58	0.025
1140.6	0.011
1149.63	0.01
1158.65	0.011
1167.67	0.02
1176.69	0.041
1185.72	0.099
1194.74	0.147
1203.76	0.1
1212.79	0.035
1221.81	0.047
1230.83	0.147
1239.85	0.264
1248.88	0.3821
1257.9	0.495
1266.92	0.586
1275.94	0.632
1284.97	0.668
1293.99	0.694
1303.01	0.707
1312.03	0.719
1321.06	0.723
1330.08	0.728
1339.1	0.728
1348.12	0.724
1357.15	0.719
1366.17	0.711
1375.19	0.712
1384.21	0.699
1393.24	0.688
1402.26	0.683
1411.28	0.697
1420.3	0.721
1429.33	0.736
1438.35	0.733
1447.37	0.733
1456.4	0.738
1465.42	0.741
1474.44	0.74
1483.46	0.729
1492.49	0.731
1501.51	0.731
1510.53	0.731
1519.55	0.731
1528.58	0.731
1537.6	0.731
1546.62	0.729
1555.64	0.729
1564.67	0.721
1573.69	0.717
1582.71	0.719
1591.73	0.719
1600.76	0.719
1609.78	0.717
1618.8	0.712
1627.82	0.711
1636.85	0.711
1645.87	0.707
1654.89	0.705
1663.91	0.705
1672.94	0.705
1681.96	0.705
1690.98	0.705
1700.01	0.709
1709.03	0.716
1718.05	0.723
1727.07	0.729
1736.1	0.736
1745.12	0.741
1754.14	0.745
1763.16	0.747
1772.19	0.75
1781.21	0.758
1790.23	0.762
1799.25	0.769
1808.28	0.772
1817.3	0.776
1826.32	0.779
1835.34	0.782
1844.37	0.786
1853.39	0.791
1862.41	0.794
1871.43	0.796
1880.46	0.801
1889.48	0.803
1898.5	0.803
1907.52	0.806
1916.55	0.81
1925.57	0.811
1934.59	0.818
1943.62	0.82
1952.64	0.82
1961.66	0.822
1970.68	0.82
1979.71	0.822
1988.73	0.822
1997.75	0.82
2006.77	0.818
2015.8	0.818
2024.82	0.82
2033.84	0.82
2042.86	0.822
2051.89	0.823
2060.91	0.823
2069.93	0.823
2078.95	0.8249
2087.98	0.823
2097	0.823
2106.02	0.822
2115.04	0.82
2124.07	0.818
2133.09	0.8148
2142.11	0.8124
2151.14	0.811
2160.16	0.811
2169.18	0.8128
2178.2	0.815
2187.23	0.815
2196.25	0.815
2205.27	0.817
2214.29	0.817
2223.32	0.8201
2232.34	0.8235
2241.36	0.8283
2250.38	0.839
2259.41	0.8253
2268.43	0.82
2277.45	0.817
2286.47	0.815
2295.5	0.813
2304.52	0.811
2313.54	0.81
2322.56	0.8096
2331.59	0.808
2340.61	0.81
2349.63	0.811
2358.65	0.813
2367.68	0.815
2376.7	0.815
2385.72	0.815
2394.75	0.815
2403.77	0.815
2412.79	0.817
2421.81	0.817
2430.84	0.8175
2439.86	0.817
2448.88	0.818
2457.9	0.82
2466.93	0.82
2475.95	0.82
2484.97	0.8214
2493.99	0.8229
2503.02	0.829
2512.04	0.83
2521.06	0.832
2530.08	0.832
2539.11	0.834
2548.13	0.835
2557.15	0.8354
2566.17	0.837
2575.2	0.837
2584.22	0.8406
2593.24	0.841
2602.26	0.8424
2611.29	0.844
2620.31	0.844
2629.33	0.844
2638.36	0.844
2647.38	0.844
2656.4	0.844
2665.42	0.844
2674.45	0.844
2683.47	0.844
2692.49	0.844
2701.51	0.844
2710.54	0.844
2719.56	0.8454
2728.58	0.844
2737.6	0.842
2746.63	0.8417
2755.65	0.841
2764.67	0.837
2773.69	0.837
2782.72	0.835
2791.74	0.834
2800.76	0.8311
2809.78	0.83
2818.81	0.829
2827.83	0.8249
2836.85	0.8195
2845.87	0.8011
2854.9	0.7051
2863.92	0.7206
2872.94	0.817
2881.97	0.8166
2890.99	0.801
2900.01	0.7856
2909.03	0.7563
2918.06	0.6231
2927.08	0.543
2936.1	0.6304
2945.12	0.7406
2954.15	0.785
2963.17	0.7959
2972.19	0.796
2981.21	0.7953
2990.24	0.793
2999.26	0.7895
3008.28	0.7792
3017.3	0.777
3026.33	0.7747
3035.35	0.7695
3044.37	0.7656
3053.39	0.762
3062.42	0.7527
3071.44	0.7464
3080.46	0.739
3089.48	0.7337
3098.51	0.7281
3107.53	0.7209
3116.55	0.715
3125.58	0.7081
3134.6	0.7044
3143.62	0.7003
3152.64	0.7
3161.67	0.6985
3170.69	0.695
3179.71	0.694
3188.73	0.694
3197.76	0.692
3206.78	0.692
3215.8	0.69
3224.82	0.688
3233.85	0.688
3242.87	0.688
3251.89	0.6883
3260.91	0.6907
3269.94	0.694
3278.96	0.6947
3287.98	0.6989
3297	0.7023
3306.03	0.705
3315.05	0.71
3324.07	0.7134
3333.09	0.7158
3342.12	0.7172
3351.14	0.719
3360.16	0.722
3369.19	0.723
3378.21	0.724
3387.23	0.7281
3396.25	0.7315
3405.28	0.7364
3414.3	0.7423
3423.32	0.7478
3432.34	0.752
3441.37	0.755
3450.39	0.7589
3459.41	0.7646
3468.43	0.7715
3477.46	0.777
3486.48	0.7812
3495.5	0.7868
3504.52	0.791
3513.55	0.7956
3522.57	0.8
3531.59	0.803
3540.61	0.8054
3549.64	0.81
3558.66	0.813
3567.68	0.818
3576.7	0.818
3585.73	0.8187
3594.75	0.8236
3603.77	0.8347
3612.8	0.8418
3621.82	0.846
3630.84	0.8463
3639.86	0.8551
3648.89	0.8637
3657.91	0.8709
3666.93	0.8751
3675.95	0.8786
3684.98	0.883
3694	0.883
3703.02	0.883
3712.04	0.883
3721.07	0.883
3730.09	0.883
3739.11	0.882
3748.13	0.885
3757.16	0.8901
3766.18	0.8924
3775.2	0.895
3784.22	0.895
3793.25	0.895
3802.27	0.895
3811.29	0.895
3820.32	0.894
3829.34	0.894
3838.36	0.894
3847.38	0.894
3856.41	0.894
3865.43	0.894
3874.45	0.8929
3883.47	0.892
3892.5	0.892
3901.52	0.894
3910.54	0.895
3919.56	0.897
3928.59	0.897
3937.61	0.897
3946.63	0.895
3955.65	0.895
3964.68	0.895
3973.7	0.895
3982.72	0.895
3991.74	0.895
