Infrared Spectrum: Aniline, 4-tert-butyl-N-ethyl-
Formula: C12 H19 N
State: LIQUID (NEAT)
Class: COBLENTZ III
Instrument: BECKMAN IR-4 (HYBRID PRISM-GRATING)
Instrument parameters: NaCl PRISM
Sampling: TRANSMISSION
Path length: CAPILLARY
Resolution: 2
Origin: MONSANTO (J. FREEMAN)
1/CM	TRANSMITTANCE
3968.25	0.8797
3959.34	0.8802
3950.43	0.8807
3941.52	0.8812
3932.61	0.8818
3923.7	0.8824
3914.78	0.883
3905.87	0.8837
3896.96	0.8843
3888.05	0.8849
3879.14	0.8858
3870.23	0.8867
3861.32	0.8875
3852.41	0.8884
3843.5	0.8906
3834.59	0.8931
3825.67	0.8951
3816.76	0.8956
3807.85	0.8962
3798.94	0.8968
3790.03	0.8973
3781.12	0.8971
3772.21	0.8968
3763.3	0.8965
3754.39	0.8961
3745.48	0.8958
3736.57	0.8953
3727.65	0.895
3718.74	0.8946
3709.83	0.8945
3700.92	0.8949
3692.01	0.8953
3683.1	0.8958
3674.19	0.8961
3665.28	0.8962
3656.37	0.8962
3647.46	0.8963
3638.55	0.8962
3629.63	0.896
3620.72	0.8957
3611.81	0.8954
3602.9	0.8944
3593.99	0.8933
3585.08	0.8908
3576.17	0.8875
3567.26	0.8842
3558.35	0.8798
3549.44	0.8754
3540.52	0.8708
3531.61	0.8642
3522.7	0.8566
3513.79	0.8493
3504.88	0.842
3495.97	0.8336
3487.06	0.8181
3478.15	0.7677
3469.24	0.7457
3460.33	0.731
3451.42	0.7082
3442.5	0.663
3433.59	0.6187
3424.68	0.5742
3415.77	0.5295
3406.86	0.5151
3397.95	0.5158
3389.04	0.5442
3380.13	0.5797
3371.22	0.6153
3362.31	0.6509
3353.39	0.6869
3344.48	0.7232
3335.57	0.7595
3326.66	0.796
3317.75	0.8321
3308.84	0.8483
3299.93	0.8575
3291.02	0.866
3282.11	0.8743
3273.2	0.8795
3264.29	0.8817
3255.37	0.8836
3246.46	0.8838
3237.55	0.8839
3228.64	0.883
3219.73	0.8814
3210.82	0.8796
3201.91	0.8774
3193	0.8752
3184.09	0.8729
3175.18	0.8694
3166.27	0.8649
3157.35	0.8591
3148.44	0.8526
3139.53	0.8446
3130.62	0.8336
3121.71	0.7985
3112.8	0.7601
3103.89	0.7212
3094.98	0.6822
3086.07	0.6431
3077.16	0.6037
3068.24	0.5688
3059.33	0.5642
3050.42	0.5615
3041.51	0.5563
3032.6	0.5324
3023.69	0.4884
3014.78	0.4377
3005.87	0.3475
2996.96	0.2568
2988.05	0.1655
2979.14	0.0797
2970.22	0.0783
2961.31	0.0795
2952.4	0.0955
2943.49	0.1364
2934.58	0.1776
2925.67	0.2032
2916.76	0.2054
2907.85	0.2073
2898.94	0.2098
2890.03	0.2152
2881.12	0.2243
2872.2	0.2394
2863.29	0.3465
2854.38	0.4864
2845.47	0.6159
2836.56	0.6606
2827.65	0.6985
2818.74	0.7368
2809.83	0.7752
2800.92	0.8139
2792.01	0.8516
2783.09	0.8656
2774.18	0.8679
2765.27	0.8698
2756.36	0.8715
2747.45	0.8734
2738.54	0.8785
2729.63	0.8871
2720.72	0.8951
2711.81	0.9028
2702.9	0.9101
2693.99	0.9159
2685.07	0.9202
2676.16	0.9238
2667.25	0.9255
2658.34	0.9262
2649.43	0.9264
2640.52	0.9219
2631.61	0.9136
2622.7	0.9107
2613.79	0.9092
2604.88	0.9087
2595.96	0.9097
2587.05	0.9124
2578.14	0.9175
2569.23	0.924
2560.32	0.9309
2551.41	0.9372
2542.5	0.943
2533.59	0.9485
2524.68	0.9526
2515.77	0.9553
2506.86	0.9559
2497.94	0.9549
2489.03	0.9529
2480.12	0.9508
2471.21	0.9496
2462.3	0.9484
2453.39	0.9476
2444.48	0.9471
2435.57	0.9469
2426.66	0.9483
2417.75	0.9511
2408.84	0.9547
2399.92	0.9591
2391.01	0.9632
2382.1	0.9662
2373.19	0.9643
2364.28	0.9581
2355.37	0.954
2346.46	0.9515
2337.55	0.9495
2328.64	0.9483
2319.73	0.9478
2310.81	0.9482
2301.9	0.9489
2292.99	0.9501
2284.08	0.9524
2275.17	0.9553
2266.26	0.9584
2257.35	0.9605
2248.44	0.9597
2239.53	0.9543
2230.62	0.9522
2221.71	0.9525
2212.79	0.9532
2203.88	0.954
2194.97	0.9545
2186.06	0.9542
2177.15	0.9533
2168.24	0.9517
2159.33	0.9507
2150.42	0.95
2141.51	0.9496
2132.6	0.9491
2123.68	0.9483
2114.77	0.9475
2105.86	0.9466
2096.95	0.9461
2088.04	0.9457
2079.13	0.9453
2070.22	0.9448
2061.31	0.9444
2052.4	0.944
2043.49	0.9436
2034.58	0.9433
2025.66	0.943
2016.75	0.9428
2007.84	0.9425
1998.93	0.9421
1990.02	0.9415
1981.11	0.9409
1972.2	0.9401
1963.29	0.9393
1954.38	0.9385
1945.47	0.9377
1936.56	0.9365
1927.64	0.9337
1918.73	0.9266
1909.82	0.9138
1900.91	0.8944
1892	0.8658
1883.09	0.8537
1874.18	0.8748
1865.27	0.8934
1856.36	0.9079
1847.45	0.9192
1838.53	0.9245
1829.62	0.9277
1820.71	0.9296
1811.8	0.9306
1802.89	0.9314
1793.98	0.9303
1785.07	0.9245
1776.16	0.9165
1767.25	0.9163
1758.34	0.9198
1749.43	0.9284
1740.51	0.9396
1731.6	0.9399
1722.69	0.934
1713.78	0.9281
1704.87	0.9199
1695.96	0.9109
1687.05	0.9008
1678.14	0.8915
1669.23	0.8795
1660.32	0.8272
1651.41	0.7634
1642.49	0.6787
1633.58	0.4924
1624.67	0.2311
1615.76	0.1122
1606.85	0.3587
1597.94	0.6817
1589.03	0.6613
1580.12	0.7207
1571.21	0.7681
1562.3	0.7111
1553.38	0.6473
1544.47	0.4152
1535.56	0.2041
1526.65	0.0822
1517.74	0.1334
1508.83	0.4359
1499.92	0.4379
1491.01	0.2463
1482.1	0.2024
1473.19	0.2923
1464.28	0.2979
1455.36	0.3088
1446.45	0.495
1437.54	0.7181
1428.63	0.775
1419.72	0.7416
1410.81	0.523
1401.9	0.548
1392.99	0.5061
1384.08	0.4783
1375.17	0.4642
1366.25	0.2693
1357.34	0.5928
1348.43	0.6342
1339.52	0.5178
1330.61	0.1821
1321.7	0.3046
1312.79	0.2021
1303.88	0.3072
1294.97	0.4637
1286.06	0.383
1277.15	0.3168
1268.23	0.1707
1259.32	0.1166
1250.41	0.2893
1241.5	0.6455
1232.59	0.7734
1223.68	0.7754
1214.77	0.7257
1205.86	0.5249
1196.95	0.1994
1188.04	0.5701
1179.13	0.7685
1170.21	0.7185
1161.3	0.5462
1152.39	0.2895
1143.48	0.5089
1134.57	0.7115
1125.66	0.7439
1116.75	0.6226
1107.84	0.689
1098.93	0.7359
1090.02	0.7805
1081.1	0.8827
1072.19	0.8858
1063.28	0.804
1054.37	0.7363
1045.46	0.8873
1036.55	0.9315
1027.64	0.9145
1018.73	0.9217
1009.82	0.9109
1000.91	0.9649
991.995	0.9662
983.084	0.9617
974.173	0.9608
965.263	0.9595
956.352	0.9477
947.441	0.9295
938.53	0.8887
929.619	0.7992
920.708	0.9229
911.797	0.955
902.886	0.9614
893.975	0.9631
885.064	0.9578
876.153	0.9509
867.242	0.9365
858.331	0.9021
849.42	0.8507
840.509	0.7843
831.598	0.5508
822.687	0.201
813.777	0.1326
804.866	0.4793
795.955	0.7935
787.044	0.9048
778.133	0.8981
769.222	0.8644
760.311	0.9036
751.4	0.812
742.489	0.7544
733.578	0.8372
724.667	0.9059
715.756	0.9274
706.845	0.9278
697.934	0.9322
689.023	0.9563
