Infrared Spectrum: SODIUM TARTRATE DIHYDRATE
Formula: C4 H4 O6 Na2  * 2 H2 O
State: SOLID (MINERAL OIL MULL)
Class: COBLENTZ
Instrument: Not specified, most likely a prism, grating, or hybrid spectrometer.
Sampling: TRANSMISSION
Resolution: 4
Origin: DOW CHEMICAL COMPANY
MICROMETERS	TRANSMITTANCE
2.04	0.899
2.0801	0.903
2.12019	0.903
2.16029	0.899
2.20038	0.898
2.24048	0.878
2.28057	0.869
2.32067	0.874
2.36076	0.878
2.40086	0.878
2.44096	0.883
2.48105	0.889
2.52115	0.889
2.56124	0.889
2.60134	0.891
2.64143	0.879
2.68153	0.866
2.72163	0.803
2.76172	0.706
2.80182	0.557
2.84191	0.555
2.88201	0.417
2.9221	0.342
2.9622	0.429
3.00229	0.479
3.04239	0.475
3.08249	0.452
3.12258	0.489
3.16268	0.606
3.20277	0.669
3.24287	0.692
3.28296	0.681
3.32306	0.565
3.36316	0.196
3.40325	0.05
3.44335	0.121
3.48344	0.213
3.52354	0.717
3.56363	0.803
3.60373	0.831
3.64382	0.833
3.68392	0.841
3.72402	0.841
3.76411	0.844
3.80421	0.869
3.8443	0.876
3.8844	0.883
3.92449	0.888
3.96459	0.894
4.00469	0.899
4.04478	0.903
4.08488	0.899
4.12497	0.901
4.16507	0.888
4.20516	0.893
4.24526	0.899
4.28535	0.904
4.32545	0.896
4.36555	0.894
4.40564	0.899
4.44574	0.901
4.48583	0.898
4.52593	0.896
4.56602	0.896
4.60612	0.894
4.64621	0.901
4.68631	0.903
4.72641	0.903
4.7665	0.901
4.8066	0.903
4.84669	0.904
4.88679	0.906
4.92688	0.909
4.96698	0.914
5.00708	0.914
5.04717	0.916
5.08727	0.916
5.12736	0.916
5.16746	0.913
5.20755	0.913
5.24765	0.911
5.28774	0.906
5.32784	0.901
5.36794	0.904
5.40803	0.903
5.44813	0.899
5.48822	0.893
5.52832	0.886
5.56841	0.883
5.60851	0.871
5.64861	0.866
5.6887	0.854
5.7288	0.846
5.76889	0.833
5.80899	0.806
5.84908	0.767
5.88918	0.674
5.92927	0.57
5.96937	0.504
6.00947	0.422
6.04956	0.387
6.08966	0.272
6.12975	0.138
6.16985	0.118
6.20994	0.215
6.25004	0.288
6.29014	0.48
6.33023	0.597
6.37033	0.644
6.41042	0.712
6.45052	0.729
6.49061	0.754
6.53071	0.752
6.5708	0.769
6.6109	0.766
6.651	0.751
6.69109	0.731
6.73119	0.657
6.77128	0.502
6.81138	0.332
6.85147	0.308
6.89157	0.393
6.93166	0.445
6.97176	0.515
7.01186	0.442
7.05195	0.307
7.09205	0.307
7.13214	0.373
7.17224	0.325
7.21233	0.242
7.25243	0.196
7.29253	0.277
7.33262	0.352
7.37272	0.353
7.41281	0.293
7.45291	0.345
7.493	0.547
7.5331	0.607
7.57319	0.667
7.61329	0.701
7.65339	0.744
7.69348	0.739
7.73358	0.744
7.77367	0.696
7.81377	0.676
7.85386	0.704
7.89396	0.736
7.93406	0.746
7.97415	0.731
8.01425	0.704
8.05434	0.721
8.09444	0.781
8.13453	0.801
8.17463	0.792
8.21472	0.741
8.25482	0.736
8.29492	0.772
8.33501	0.796
8.37511	0.816
8.4152	0.826
8.4553	0.826
8.49539	0.824
8.53549	0.821
8.57559	0.821
8.61568	0.826
8.65578	0.821
8.69587	0.819
8.73597	0.819
8.77606	0.809
8.81616	0.787
8.85625	0.746
8.89635	0.666
8.93645	0.529
8.97654	0.357
9.01664	0.353
9.05673	0.564
9.09683	0.687
9.13692	0.754
9.17702	0.777
9.21711	0.779
9.25721	0.749
9.29731	0.667
9.3374	0.514
9.3775	0.36
9.41759	0.419
9.45769	0.619
9.49778	0.716
9.53788	0.769
9.57798	0.792
9.61807	0.809
9.65817	0.819
9.69826	0.824
9.73836	0.834
9.77845	0.843
9.81855	0.844
9.85864	0.841
9.89874	0.841
9.93884	0.831
9.97893	0.784
10.019	0.721
10.0591	0.699
10.0992	0.752
10.1393	0.789
10.1794	0.814
10.2195	0.824
10.2596	0.831
10.2997	0.833
10.3398	0.834
10.3799	0.841
10.42	0.839
10.4601	0.843
10.5002	0.848
10.5403	0.844
10.5804	0.843
10.6205	0.843
10.6606	0.833
10.7007	0.823
10.7407	0.794
10.7808	0.726
10.8209	0.611
10.861	0.569
10.9011	0.664
10.9412	0.762
10.9813	0.794
11.0214	0.816
11.0615	0.823
11.1016	0.819
11.1417	0.814
11.1818	0.801
11.2219	0.769
11.262	0.726
11.3021	0.719
11.3422	0.776
11.3823	0.813
11.4224	0.828
11.4625	0.833
11.5026	0.836
11.5427	0.838
11.5828	0.833
11.6229	0.828
11.6629	0.826
11.703	0.814
11.7431	0.797
11.7832	0.779
11.8233	0.792
11.8634	0.803
11.9035	0.808
11.9436	0.808
11.9837	0.811
12.0238	0.808
12.0639	0.799
12.104	0.792
12.1441	0.787
12.1842	0.779
12.2243	0.771
12.2644	0.762
12.3045	0.752
12.3446	0.739
12.3847	0.731
12.4248	0.732
12.4649	0.747
12.505	0.749
12.5451	0.747
12.5851	0.734
12.6252	0.717
12.6653	0.704
12.7054	0.687
12.7455	0.671
12.7856	0.652
12.8257	0.637
12.8658	0.621
12.9059	0.606
12.946	0.595
12.9861	0.589
13.0262	0.587
13.0663	0.59
13.1064	0.599
13.1465	0.604
13.1866	0.607
13.2267	0.607
13.2668	0.609
13.3069	0.614
13.347	0.611
13.3871	0.602
13.4272	0.595
13.4673	0.582
13.5073	0.572
13.5474	0.56
13.5875	0.547
13.6276	0.53
13.6677	0.519
13.7078	0.497
13.7479	0.482
13.788	0.46
13.8281	0.447
13.8682	0.437
13.9083	0.444
13.9484	0.464
13.9885	0.472
14.0286	0.49
14.0687	0.497
14.1088	0.504
14.1489	0.507
14.189	0.51
14.2291	0.509
14.2692	0.512
14.3093	0.509
14.3494	0.509
14.3894	0.51
14.4295	0.507
14.4696	0.505
14.5097	0.504
14.5498	0.504
14.5899	0.5
14.63	0.495
14.6701	0.497
14.7102	0.495
14.7503	0.487
14.7904	0.485
14.8305	0.477
14.8706	0.472
14.9107	0.47
14.9508	0.465
14.9909	0.457
15.031	0.454
15.0711	0.447
15.1112	0.435
15.1513	0.427
15.1914	0.42
15.2315	0.412
15.2716	0.402
15.3116	0.395
15.3517	0.372
15.3918	0.353
15.4319	0.332
15.472	0.312
15.5121	0.287
15.5522	0.268
15.5923	0.255
15.6324	0.243
15.6725	0.24
15.7126	0.235
15.7527	0.233
15.7928	0.228
15.8329	0.228
15.873	0.227
