Infrared Spectrum: PENICILLIN G, POTASSIUM SALT
Formula: C16 H17 N2 O4 S K
State: SOLID (0.8 mg / 650 mg KBr DISC)
Class: COBLENTZ III
Instrument: PERKIN-ELMER 21 (GRATING)
Instrument parameters: FILTER CHANGE AT 1075 CM^-^1
Sampling: TRANSMISSION
Resolution: 2
Origin: SOUTHERN RESEARCH INSTITUTE, W.C. Coburn, Jr.
1/CM	TRANSMITTANCE
637.7	1.0232
646.746	0.9773
655.792	0.9132
664.839	1.0281
673.885	1.0123
682.931	0.9399
691.977	0.6403
701.024	0.9101
710.07	0.8084
719.116	0.7157
728.162	0.9345
737.209	0.8919
746.255	0.8013
755.301	0.5543
764.347	0.9627
773.394	0.9912
782.44	0.9994
791.486	0.974
800.532	0.9534
809.579	1.0181
818.625	1.0193
827.671	1.0116
836.717	1.0163
845.764	1.0129
854.81	1.0011
863.856	0.9791
872.902	0.9535
881.949	0.8828
890.995	0.9853
900.041	0.9696
909.087	0.9449
918.134	0.9291
927.18	0.9109
936.226	0.9776
945.272	0.9797
954.319	0.9806
963.365	0.9852
972.411	0.9696
981.457	0.9638
990.504	0.9453
999.55	0.9041
1008.6	0.9444
1017.64	0.9067
1026.69	0.9367
1035.73	0.9544
1044.78	0.945
1053.83	0.9298
1062.87	0.9067
1071.92	0.8945
1080.97	0.9065
1090.01	0.8547
1099.06	0.7823
1108.1	0.8887
1117.15	0.8505
1126.2	0.8239
1135.24	0.8766
1144.29	0.8345
1153.34	0.8172
1162.38	0.8644
1171.43	0.844
1180.47	0.8268
1189.52	0.805
1198.57	0.7896
1207.61	0.7156
1216.66	0.6978
1225.71	0.7473
1234.75	0.7647
1243.8	0.5667
1252.84	0.6177
1261.89	0.7681
1270.94	0.8318
1279.98	0.8221
1289.03	0.7847
1298.08	0.7076
1307.12	0.603
1316.17	0.3622
1325.21	0.3315
1334.26	0.2714
1343.31	0.4904
1352.35	0.7245
1361.4	0.7289
1370.45	0.6941
1379.49	0.6597
1388.54	0.4587
1397.58	0.3285
1406.63	0.538
1415.68	0.5401
1424.72	0.7361
1433.77	0.7485
1442.82	0.7338
1451.86	0.6244
1460.91	0.6495
1469.95	0.6589
1479	0.5108
1488.05	0.162
1497.09	0.2889
1506.14	0.5565
1515.19	0.6345
1524.23	0.7224
1533.28	0.766
1542.32	0.7826
1551.37	0.7787
1560.42	0.7655
1569.46	0.7215
1578.51	0.6386
1587.56	0.5531
1596.6	0.1924
1605.65	0.0384
1614.69	0.1406
1623.74	0.4033
1632.79	0.5994
1641.83	0.5873
1650.88	0.5124
1659.93	0.2345
1668.97	0.2936
1678.02	0.574
1687.06	0.758
1696.11	0.8339
1705.16	0.8317
1714.2	0.821
1723.25	0.7852
1732.3	0.6847
1741.34	0.3392
1750.39	0.2892
1759.43	0.2252
1768.48	0.1109
1777.53	0.3386
1786.57	0.5284
1795.62	0.7263
1804.67	0.8203
1813.71	0.9024
1822.76	0.9295
1831.8	0.9442
1840.85	0.9498
1849.9	0.9499
1858.94	0.9496
1867.99	0.9583
1877.04	0.9706
1886.08	0.9729
1895.13	0.9787
1904.17	0.9862
1913.22	0.9938
1922.27	0.9958
1931.31	0.9947
1940.36	0.9954
1949.41	1.0025
1958.45	1.007
1967.5	1.0138
1976.54	1.0175
1985.59	1.0191
1994.64	1.0198
2003.68	1.0195
2012.73	1.0193
2021.78	1.0191
2030.82	1.019
2039.87	1.0189
2048.91	1.0189
2057.96	1.0189
2067.01	1.0188
2076.05	1.0189
2085.1	1.0194
2094.15	1.0199
2103.19	1.0206
2112.24	1.0213
2121.28	1.0221
2130.33	1.0229
2139.38	1.0238
2148.42	1.0246
2157.47	1.026
2166.52	1.0277
2175.56	1.0269
2184.61	1.0269
2193.65	1.0275
2202.7	1.0271
2211.75	1.0263
2220.79	1.0244
2229.84	1.0234
2238.89	1.0227
2247.93	1.0216
2256.98	1.0217
2266.02	1.0229
2275.07	1.0239
2284.12	1.0248
2293.16	1.0278
2302.21	1.0302
2311.26	1.0307
2320.3	1.0318
2329.35	1.0329
2338.39	1.0337
2347.44	1.0334
2356.49	1.0318
2365.53	1.0299
2374.58	1.0247
2383.63	1.0233
2392.67	1.0237
2401.72	1.0241
2410.76	1.0247
2419.81	1.0265
2428.86	1.0239
2437.9	1.0196
2446.95	1.019
2455.99	1.0195
2465.04	1.0209
2474.09	1.0215
2483.13	1.0214
2492.18	1.0212
2501.23	1.0208
2510.27	1.0198
2519.32	1.0196
2528.36	1.0199
2537.41	1.0215
2546.46	1.023
2555.5	1.0232
2564.55	1.0234
2573.6	1.0236
2582.64	1.0234
2591.69	1.0222
2600.73	1.0182
2609.78	1.0158
2618.83	1.0149
2627.87	1.0149
2636.92	1.0153
2645.97	1.0156
2655.01	1.0148
2664.06	1.0118
2673.1	1.0091
2682.15	1.0086
2691.2	1.0077
2700.24	1.0064
2709.29	1.0054
2718.34	1.0045
2727.38	1.0036
2736.43	1.0032
2745.47	1.0028
2754.52	0.9997
2763.57	0.9916
2772.61	0.9895
2781.66	0.9871
2790.71	0.9818
2799.75	0.9689
2808.8	0.952
2817.84	0.9371
2826.89	0.9274
2835.94	0.9214
2844.98	0.9182
2854.03	0.915
2863.08	0.9079
2872.12	0.8921
2881.17	0.8749
2890.21	0.8476
2899.26	0.8214
2908.31	0.8171
2917.35	0.8214
2926.4	0.7896
2935.45	0.7501
2944.49	0.7469
2953.54	0.8014
2962.58	0.8654
2971.63	0.882
2980.68	0.8867
2989.72	0.8877
2998.77	0.8867
3007.82	0.8835
3016.86	0.8952
3025.91	0.9211
3034.95	0.9287
3044	0.928
3053.05	0.9284
3062.09	0.9317
3071.14	0.9407
3080.19	0.9531
3089.23	0.9636
3098.28	0.9678
3107.32	0.968
3116.37	0.966
3125.42	0.9628
3134.46	0.9555
3143.51	0.9483
3152.56	0.9448
3161.6	0.9418
3170.65	0.9389
3179.69	0.9361
3188.74	0.9312
3197.79	0.9261
3206.83	0.9204
3215.88	0.9147
3224.93	0.9074
3233.97	0.899
3243.02	0.8907
3252.06	0.8821
3261.11	0.8734
3270.16	0.8646
3279.2	0.8549
3288.25	0.8437
3297.3	0.8307
3306.34	0.8114
3315.39	0.7866
3324.43	0.7522
3333.48	0.7152
3342.53	0.6735
3351.57	0.6298
3360.62	0.6303
3369.67	0.6487
3378.71	0.7167
3387.76	0.7551
3396.8	0.7606
3405.85	0.7648
3414.9	0.7687
3423.94	0.7724
3432.99	0.7763
3442.04	0.786
3451.08	0.7895
3460.13	0.7968
3469.17	0.8069
3478.22	0.8179
3487.27	0.8289
3496.31	0.8403
3505.36	0.8525
3514.41	0.8647
3523.45	0.8762
3532.5	0.8863
3541.54	0.8934
3550.59	0.905
3559.64	0.9208
3568.68	0.9343
3577.73	0.9489
3586.78	0.9618
3595.82	0.9722
3604.87	0.9815
3613.91	0.9891
3622.96	0.9955
3632.01	1.0004
3641.05	1.0024
3650.1	1.0092
3659.15	1.0143
3668.19	1.0165
3677.24	1.0177
3686.28	1.0197
3695.33	1.0217
3704.38	1.0231
3713.42	1.0241
3722.47	1.0253
3731.52	1.0258
3740.56	1.0264
3749.61	1.0269
3758.65	1.0274
3767.7	1.0267
3776.75	1.0255
3785.79	1.0243
3794.84	1.0238
3803.89	1.0234
3812.93	1.0229
3821.98	1.0222
3831.02	1.0216
3840.07	1.0208
3849.12	1.0197
3858.16	1.0187
3867.21	1.0179
3876.26	1.0173
3885.3	1.0169
3894.35	1.017
3903.39	1.0172
3912.44	1.0178
3921.49	1.0189
3930.53	1.0198
3939.58	1.0213
3948.63	1.0228
3957.67	1.0243
3966.72	1.0258
3975.76	1.0272
3984.81	1.0283
3993.86	1.0291
4002.9	1.0292
4011.95	1.0258
