Infrared Spectrum: Ethomeen C/25 hydrochloride
Formula: C42-44 H88-92 Cl N O15
State: LIQUID (NEAT
Class: COBLENTZ
Instrument: PERKIN-ELMER 157
Sampling: TRANSMISSION
Resolution: 2
Origin: BRITISH PETROLEUM CO. LTD., ENGLAND
1/CM	TRANSMITTANCE
668	0.254
677	0.2632
686	0.2929
695	0.2931
704	0.3082
713	0.2914
722	0.2656
731	0.3134
740	0.3498
749	0.3783
758	0.4023
767	0.4194
776	0.4211
785	0.4101
794	0.3703
803	0.3216
812	0.2675
821	0.2266
830	0.1792
839	0.1498
848	0.1529
857	0.1773
866	0.1825
875	0.1671
884	0.1224
893	0.1297
902	0.1836
911	0.1534
920	0.1125
929	0.0703
938	0.0442
947	0.0413
956	0.0538
965	0.1252
974	0.1641
983	0.1466
992	0.1222
1001	0.115
1010	0.0983
1019	0.0584
1028	0.0293
1037	0
1046	0
1055	0
1064	0
1073	0
1082	0
1091	0
1100	0
1109	0
1118	0
1127	0.0001
1136	0.0001
1145	0.0001
1154	0.0053
1163	0.0435
1172	0.1306
1181	0.2214
1190	0.2725
1199	0.291
1208	0.2676
1217	0.2222
1226	0.1654
1235	0.1178
1244	0.0454
1253	0.048
1262	0.0844
1271	0.1045
1280	0.0803
1289	0.0513
1298	0.0568
1307	0.0841
1316	0.1151
1325	0.1195
1334	0.1405
1343	0.071
1352	0.0321
1361	0.0628
1370	0.1084
1379	0.1196
1388	0.1625
1397	0.1659
1406	0.1656
1415	0.1529
1424	0.1516
1433	0.1061
1442	0.0466
1451	0.0348
1460	0.0314
1469	0.0529
1478	0.0942
1487	0.1839
1496	0.3614
1505	0.5342
1514	0.5654
1523	0.6059
1532	0.619
1541	0.6221
1550	0.6228
1559	0.6227
1568	0.6217
1577	0.6202
1586	0.6069
1595	0.5895
1604	0.5433
1613	0.4745
1622	0.3876
1631	0.3216
1640	0.2937
1649	0.3169
1658	0.3446
1667	0.417
1676	0.5418
1685	0.6168
1694	0.6506
1703	0.6708
1712	0.6727
1721	0.6764
1730	0.6953
1739	0.7092
1748	0.72
1757	0.7377
1766	0.751
1775	0.7577
1784	0.7638
1793	0.7674
1802	0.7696
1811	0.7715
1820	0.7699
1829	0.768
1838	0.7665
1847	0.7639
1856	0.7595
1865	0.7513
1874	0.7454
1883	0.7342
1892	0.7195
1901	0.7043
1910	0.6899
1919	0.6651
1928	0.6393
1937	0.6208
1946	0.6097
1955	0.6079
1964	0.6113
1973	0.6188
1982	0.6315
1991	0.6473
2000	0.6615
2009	0.6704
2018	0.6731
2027	0.6729
2036	0.6702
2045	0.6641
2054	0.6572
2063	0.6502
2072	0.6416
2081	0.6317
2090	0.6265
2099	0.6233
2108	0.6167
2117	0.6091
2126	0.6069
2135	0.6047
2144	0.603
2153	0.6014
2162	0.5998
2171	0.5981
2180	0.5963
2189	0.5944
2198	0.5925
2207	0.5898
2216	0.5862
2225	0.5763
2234	0.5679
2243	0.5603
2252	0.5513
2261	0.5446
2270	0.5392
2279	0.5333
2288	0.5267
2297	0.5176
2306	0.494
2315	0.4766
2324	0.4654
2333	0.4501
2342	0.4322
2351	0.4168
2360	0.4015
2369	0.3917
2378	0.3805
2387	0.3694
2396	0.3561
2405	0.3334
2414	0.3167
2423	0.3029
2432	0.2772
2441	0.2617
2450	0.246
2459	0.2383
2468	0.2353
2477	0.2334
2486	0.2318
2495	0.2308
2504	0.2302
2513	0.2296
2522	0.2289
2531	0.227
2540	0.2208
2549	0.2135
2558	0.205
2567	0.1974
2576	0.1953
2585	0.1945
2594	0.1939
2603	0.1938
2612	0.1937
2621	0.1943
2630	0.195
2639	0.1959
2648	0.1967
2657	0.1975
2666	0.1951
2675	0.1851
2684	0.1674
2693	0.1558
2702	0.149
2711	0.146
2720	0.1444
2729	0.1431
2738	0.1421
2747	0.1412
2756	0.137
2765	0.1199
2774	0.1017
2783	0.0837
2792	0.0658
2801	0.0482
2810	0.0327
2819	0.0217
2828	0.0172
2837	0.0151
2846	0.0144
2855	0.0141
2864	0.014
2873	0.0138
2882	0.0139
2891	0.0146
2900	0.0152
2909	0.0163
2918	0.0175
2927	0.0193
2936	0.0242
2945	0.064
2954	0.1104
2963	0.1565
2972	0.2023
2981	0.2354
2990	0.2539
2999	0.2681
3008	0.2758
3017	0.2806
3026	0.283
3035	0.2836
3044	0.2835
3053	0.2824
3062	0.28
3071	0.2745
3080	0.2655
3089	0.2566
3098	0.2478
3107	0.2389
3116	0.2244
3125	0.2042
3134	0.184
3143	0.164
3152	0.1441
3161	0.1243
3170	0.1046
3179	0.0793
3188	0.0604
3197	0.0526
3206	0.0483
3215	0.0441
3224	0.0408
3233	0.0377
3242	0.0351
3251	0.0327
3260	0.0307
3269	0.03
3278	0.0293
3287	0.0287
3296	0.0281
3305	0.0276
3314	0.0273
3323	0.0272
3332	0.0275
3341	0.0279
3350	0.0283
3359	0.0286
3368	0.0292
3377	0.0298
3386	0.0304
3395	0.0312
3404	0.0321
3413	0.0331
3422	0.0337
3431	0.0339
3440	0.0341
3449	0.0343
3458	0.0344
3467	0.0343
3476	0.0342
3485	0.0342
3494	0.0353
3503	0.0368
3512	0.0411
3521	0.0508
3530	0.0592
3539	0.0659
3548	0.072
3557	0.0791
3566	0.0876
3575	0.1198
3584	0.1679
3593	0.2157
3602	0.2633
3611	0.3107
3620	0.3578
3629	0.4047
3638	0.4514
3647	0.4978
3656	0.544
3665	0.59
3674	0.6358
3683	0.6813
3692	0.7379
3701	0.7598
3710	0.7639
3719	0.7665
3728	0.7683
3737	0.77
3746	0.7713
3755	0.7721
3764	0.7726
3773	0.7731
3782	0.773
3791	0.7724
3800	0.7717
3809	0.7708
3818	0.77
3827	0.769
3836	0.7677
3845	0.7663
3854	0.765
3863	0.7633
3872	0.7614
3881	0.7596
3890	0.7567
3899	0.7536
3908	0.7506
3917	0.7476
3926	0.743
3935	0.7381
3944	0.7322
3953	0.7256
3962	0.7152
3971	0.7079
3980	0.7006
3989	0.6938
3998	0.6887
