Infrared Spectrum: PICRIC ACID, CALCIUM SALT
Formula: C12 H4 N6 O14 Ca
State: SOLID (KBr PELLET)
Class: COBLENTZ
Instrument: Not specified, most likely a prism, grating, or hybrid spectrometer.
Sampling: TRANSMISSION
Resolution: 4
Origin: TENNESSEE EASTMAN COMPANY, RESEARCH LABORATORIES
MICROMETERS	TRANSMITTANCE
2.191	0.401
2.23198	0.423
2.27295	0.435
2.31393	0.441
2.35491	0.452
2.39588	0.464
2.43686	0.478
2.47784	0.483
2.51882	0.495
2.55979	0.5
2.60077	0.505
2.64175	0.512
2.68272	0.516
2.7237	0.37
2.76468	0.237
2.80565	0.172
2.84663	0.135
2.88761	0.116
2.92859	0.126
2.96956	0.177
3.01054	0.258
3.05152	0.316
3.09249	0.365
3.13347	0.435
3.17445	0.5
3.21542	0.461
3.2564	0.538
3.29738	0.603
3.33836	0.615
3.37933	0.584
3.42031	0.623
3.46129	0.634
3.50226	0.647
3.54324	0.668
3.58422	0.685
3.62519	0.699
3.66617	0.704
3.70715	0.716
3.74813	0.719
3.7891	0.726
3.83008	0.731
3.87106	0.733
3.91203	0.741
3.95301	0.74
3.99399	0.738
4.03496	0.733
4.07594	0.745
4.11692	0.753
4.1579	0.75
4.19887	0.767
4.23985	0.772
4.28083	0.76
4.3218	0.76
4.36278	0.77
4.40376	0.772
4.44473	0.764
4.48571	0.776
4.52669	0.781
4.56767	0.786
4.60864	0.789
4.64962	0.791
4.6906	0.791
4.73157	0.793
4.77255	0.794
4.81353	0.798
4.8545	0.798
4.89548	0.798
4.93646	0.805
4.97744	0.808
5.01841	0.805
5.05939	0.81
5.10037	0.818
5.14134	0.82
5.18232	0.825
5.2233	0.822
5.26427	0.823
5.30525	0.813
5.34623	0.789
5.38721	0.813
5.42818	0.822
5.46916	0.827
5.51014	0.823
5.55111	0.832
5.59209	0.825
5.63307	0.829
5.67404	0.818
5.71502	0.81
5.756	0.801
5.79698	0.793
5.83795	0.76
5.87893	0.758
5.91991	0.735
5.96088	0.678
6.00186	0.553
6.04284	0.423
6.08381	0.094
6.12479	0.034
6.16577	0.073
6.20675	0.133
6.24772	0.343
6.2887	0.372
6.32968	0.261
6.37065	0.083
6.41163	0.249
6.45261	0.312
6.49358	0.326
6.53456	0.406
6.57554	0.473
6.61652	0.435
6.65749	0.312
6.69847	0.218
6.73945	0.429
6.78042	0.63
6.8214	0.67
6.86238	0.635
6.90335	0.396
6.94433	0.382
6.98531	0.511
7.02629	0.574
7.06726	0.618
7.10824	0.661
7.14922	0.673
7.19019	0.632
7.23117	0.541
7.27215	0.201
7.31312	0.174
7.3541	0.259
7.39508	0.194
7.43606	0.049
7.47703	0.025
7.51801	0.047
7.55899	0.155
7.59996	0.29
7.64094	0.401
7.68192	0.435
7.72289	0.442
7.76387	0.29
7.80485	0.085
7.84583	0.066
7.8868	0.097
7.92778	0.225
7.96876	0.376
8.00973	0.461
8.05071	0.482
8.09169	0.591
8.13266	0.694
8.17364	0.745
8.21462	0.777
8.2556	0.786
8.29657	0.798
8.33755	0.815
8.37853	0.82
8.4195	0.817
8.46048	0.784
8.50146	0.695
8.54243	0.581
8.58341	0.526
8.62439	0.685
8.66537	0.735
8.70634	0.8
8.74732	0.827
8.7883	0.841
8.82927	0.849
8.87025	0.852
8.91123	0.854
8.9522	0.858
8.99318	0.856
9.03416	0.856
9.07514	0.844
9.11611	0.791
9.15709	0.721
9.19807	0.622
9.23904	0.637
9.28002	0.77
9.321	0.811
9.36197	0.83
9.40295	0.835
9.44393	0.832
9.48491	0.829
9.52588	0.825
9.56686	0.823
9.60784	0.829
9.64881	0.832
9.68979	0.829
9.73077	0.825
9.77174	0.823
9.81272	0.822
9.8537	0.825
9.89468	0.832
9.93565	0.841
9.97663	0.849
10.0176	0.851
10.0586	0.846
10.0996	0.851
10.1405	0.854
10.1815	0.851
10.2225	0.856
10.2635	0.854
10.3044	0.854
10.3454	0.854
10.3864	0.854
10.4274	0.854
10.4684	0.852
10.5093	0.834
10.5503	0.798
10.5913	0.772
10.6323	0.735
10.6732	0.598
10.7142	0.671
10.7552	0.719
10.7962	0.702
10.8371	0.68
10.8781	0.682
10.9191	0.699
10.9601	0.682
11.0011	0.531
11.042	0.613
11.083	0.741
11.124	0.8
11.165	0.825
11.2059	0.839
11.2469	0.844
11.2879	0.844
11.3289	0.846
11.3698	0.849
11.4108	0.852
11.4518	0.852
11.4928	0.852
11.5338	0.854
11.5747	0.854
11.6157	0.854
11.6567	0.854
11.6977	0.852
11.7386	0.844
11.7796	0.834
11.8206	0.827
11.8616	0.825
11.9025	0.823
11.9435	0.818
11.9845	0.817
12.0255	0.823
12.0665	0.823
12.1074	0.829
12.1484	0.835
12.1894	0.846
12.2304	0.849
12.2713	0.851
12.3123	0.851
12.3533	0.854
12.3943	0.854
12.4352	0.852
12.4762	0.83
12.5172	0.673
12.5582	0.442
12.5992	0.584
12.6401	0.651
12.6811	0.758
12.7221	0.811
12.7631	0.834
12.804	0.839
12.845	0.841
12.886	0.841
12.927	0.839
12.968	0.835
13.0089	0.834
13.0499	0.829
13.0909	0.823
13.1319	0.815
13.1728	0.801
13.2138	0.779
13.2548	0.728
13.2958	0.6
13.3367	0.411
13.3777	0.415
13.4187	0.526
13.4597	0.646
13.5007	0.697
13.5416	0.719
13.5826	0.702
13.6236	0.68
13.6646	0.697
13.7055	0.697
13.7465	0.668
13.7875	0.63
13.8285	0.596
13.8694	0.569
13.9104	0.543
13.9514	0.514
13.9924	0.482
14.0334	0.43
14.0743	0.418
14.1153	0.423
14.1563	0.442
14.1973	0.454
14.2382	0.509
14.2792	0.581
14.3202	0.641
14.3612	0.68
14.4021	0.711
14.4431	0.724
14.4841	0.733
14.5251	0.738
14.5661	0.74
14.607	0.74
14.648	0.741
14.689	0.74
14.73	0.74
14.7709	0.735
14.8119	0.731
14.8529	0.731
14.8939	0.726
14.9348	0.724
14.9758	0.707
15.0168	0.695
15.0578	0.68
15.0988	0.685
15.1397	0.685
15.1807	0.676
15.2217	0.67
15.2627	0.664
15.3036	0.658
15.3446	0.652
15.3856	0.646
15.4266	0.642
15.4675	0.634
15.5085	0.629
15.5495	0.627
15.5905	0.622
15.6315	0.613
15.6724	0.611
15.7134	0.61
15.7544	0.605
15.7954	0.598
15.8363	0.593
