Infrared Spectrum: CD3-2-PHENANTHRENE
Formula: C15 H9 D3
State: SOLID (1% IN KBr)
Class: COBLENTZ
Instrument: Not specified, most likely a prism, grating, or hybrid spectrometer.
Sampling: TRANSMISSION
Resolution: 4
Origin: CENTRE D'ETUDES NUCLEAIRES DE GRENOBLE
MICROMETERS	TRANSMITTANCE
1.989	0.235
2.02892	0.24
2.06884	0.246
2.10876	0.253
2.14868	0.261
2.18859	0.266
2.22851	0.278
2.26843	0.296
2.30835	0.305
2.34827	0.311
2.38819	0.316
2.42811	0.336
2.46803	0.341
2.50794	0.351
2.54786	0.361
2.58778	0.365
2.6277	0.366
2.66762	0.381
2.70754	0.393
2.74746	0.401
2.78738	0.405
2.82729	0.398
2.86721	0.391
2.90713	0.386
2.94705	0.386
2.98697	0.398
3.02689	0.421
3.06681	0.438
3.10673	0.45
3.14664	0.463
3.18656	0.476
3.22648	0.486
3.2664	0.46
3.30632	0.356
3.34624	0.396
3.38616	0.458
3.42608	0.466
3.46599	0.478
3.50591	0.508
3.54583	0.523
3.58575	0.55
3.62567	0.561
3.66559	0.568
3.70551	0.575
3.74543	0.58
3.78534	0.583
3.82526	0.586
3.86518	0.593
3.9051	0.6
3.94502	0.606
3.98494	0.611
4.02486	0.618
4.06478	0.623
4.1047	0.63
4.14461	0.635
4.18453	0.641
4.22445	0.646
4.26437	0.641
4.30429	0.636
4.34421	0.641
4.38413	0.648
4.42405	0.655
4.46396	0.653
4.50388	0.625
4.5438	0.611
4.58372	0.59
4.62364	0.643
4.66356	0.673
4.70348	0.665
4.7434	0.575
4.78331	0.68
4.82323	0.693
4.86315	0.686
4.90307	0.613
4.94299	0.7
4.98291	0.71
5.02283	0.718
5.06275	0.723
5.10266	0.725
5.14258	0.72
5.1825	0.711
5.22242	0.703
5.26234	0.701
5.30226	0.715
5.34218	0.726
5.3821	0.746
5.42201	0.76
5.46193	0.736
5.50185	0.728
5.54177	0.721
5.58169	0.728
5.62161	0.738
5.66153	0.71
5.70145	0.708
5.74137	0.726
5.78128	0.735
5.8212	0.73
5.86112	0.735
5.90104	0.74
5.94096	0.735
5.98088	0.725
6.0208	0.721
6.06072	0.726
6.10063	0.725
6.14055	0.711
6.18047	0.641
6.22039	0.525
6.26031	0.59
6.30023	0.595
6.34015	0.681
6.38007	0.703
6.41998	0.706
6.4599	0.716
6.49982	0.728
6.53974	0.736
6.57966	0.743
6.61958	0.736
6.6595	0.758
6.69942	0.758
6.73933	0.615
6.77925	0.713
6.81917	0.726
6.85909	0.638
6.89901	0.538
6.93893	0.718
6.97885	0.751
7.01877	0.716
7.05868	0.626
7.0986	0.663
7.13852	0.733
7.17844	0.741
7.21836	0.726
7.25828	0.681
7.2982	0.731
7.33812	0.746
7.37803	0.763
7.41795	0.775
7.45787	0.758
7.49779	0.78
7.53771	0.805
7.57763	0.813
7.61755	0.815
7.65747	0.723
7.69739	0.695
7.7373	0.76
7.77722	0.803
7.81714	0.811
7.85706	0.813
7.89698	0.803
7.9369	0.781
7.97682	0.656
8.01674	0.483
8.05665	0.608
8.09657	0.663
8.13649	0.55
8.17641	0.7
8.21633	0.76
8.25625	0.783
8.29617	0.806
8.33609	0.785
8.376	0.773
8.41592	0.78
8.45584	0.788
8.49576	0.748
8.53568	0.773
8.5756	0.803
8.61552	0.766
8.65544	0.773
8.69535	0.751
8.73527	0.771
8.77519	0.66
8.81511	0.795
8.85503	0.811
8.89495	0.806
8.93487	0.801
8.97479	0.8
9.0147	0.8
9.05462	0.806
9.09454	0.788
9.13446	0.731
9.17438	0.778
9.2143	0.796
9.25422	0.805
9.29414	0.806
9.33405	0.808
9.37397	0.808
9.41389	0.803
9.45381	0.79
9.49373	0.746
9.53365	0.7
9.57357	0.703
9.61349	0.706
9.65341	0.66
9.69332	0.705
9.73324	0.781
9.77316	0.791
9.81308	0.791
9.853	0.788
9.89292	0.801
9.93284	0.816
9.97276	0.801
10.0127	0.716
10.0526	0.811
10.0925	0.84
10.1324	0.848
10.1723	0.853
10.2123	0.858
10.2522	0.858
10.2921	0.855
10.332	0.855
10.3719	0.845
10.4119	0.855
10.4518	0.835
10.4917	0.813
10.5316	0.83
10.5715	0.76
10.6115	0.696
10.6514	0.783
10.6913	0.85
10.7312	0.87
10.7711	0.871
10.811	0.868
10.851	0.848
10.8909	0.775
10.9308	0.403
10.9707	0.295
11.0106	0.396
11.0506	0.58
11.0905	0.736
11.1304	0.813
11.1703	0.841
11.2102	0.855
11.2502	0.865
11.2901	0.871
11.33	0.871
11.3699	0.875
11.4098	0.88
11.4498	0.87
11.4897	0.808
11.5296	0.69
11.5695	0.68
11.6094	0.785
11.6493	0.841
11.6893	0.86
11.7292	0.871
11.7691	0.876
11.809	0.88
11.8489	0.878
11.8889	0.883
11.9288	0.875
11.9687	0.868
12.0086	0.858
12.0485	0.853
12.0885	0.838
12.1284	0.8
12.1683	0.711
12.2082	0.403
12.2481	0.12
12.288	0.06
12.328	0.153
12.3679	0.363
12.4078	0.466
12.4477	0.505
12.4876	0.561
12.5276	0.656
12.5675	0.75
12.6074	0.795
12.6473	0.816
12.6872	0.835
12.7272	0.845
12.7671	0.858
12.807	0.863
12.8469	0.861
12.8868	0.848
12.9267	0.83
12.9667	0.795
13.0066	0.673
13.0465	0.463
13.0864	0.466
13.1263	0.558
13.1663	0.626
13.2062	0.673
13.2461	0.68
13.286	0.61
13.3259	0.371
13.3659	0.168
13.4058	0.095
13.4457	0.07
13.4856	0.095
13.5255	0.248
13.5654	0.433
13.6054	0.563
13.6453	0.668
13.6852	0.733
13.7251	0.786
13.765	0.801
13.805	0.816
13.8449	0.836
13.8848	0.845
13.9247	0.841
13.9646	0.841
14.0046	0.851
14.0445	0.848
14.0844	0.831
14.1243	0.708
14.1642	0.52
14.2041	0.578
14.2441	0.69
14.284	0.786
14.3239	0.841
14.3638	0.87
14.4037	0.88
14.4437	0.885
14.4836	0.886
14.5235	0.89
14.5634	0.888
14.6033	0.891
14.6433	0.888
14.6832	0.888
14.7231	0.89
14.763	0.888
14.8029	0.888
14.8428	0.883
14.8828	0.888
14.9227	0.883
14.9626	0.881
15.0025	0.811
15.0424	0.68
15.0824	0.713
15.1223	0.805
15.1622	0.853
15.2021	0.873
15.242	0.881
15.282	0.886
15.3219	0.886
15.3618	0.883
15.4017	0.878
15.4416	0.878
15.4815	0.88
15.5215	0.883
15.5614	0.888
15.6013	0.891
15.6412	0.893
15.6811	0.895
15.7211	0.896
15.761	0.896
15.8009	0.895
15.8408	0.891
15.8807	0.888
