Infrared Spectrum: 1,4-Benzenediamine, N,N'-dioctyl-, dihydrochloride
Formula: C22 H42 Cl2 N2
State: SOLID (KBr DISC, 0.8% WT.)
Class: COBLENTZ III
Instrument: PERKIN-ELMER 157
Sampling: TRANSMISSION
Resolution: 2
Origin: BRITISH PETROLEUM CO. LTD., ENGLAND
1/CM	TRANSMITTANCE
667	0.961
676	0.9471
685	0.931
694	0.9087
703	0.8905
712	0.8632
721	0.8279
730	0.7953
739	0.5668
748	0.4321
757	0.6162
766	0.5716
775	0.5795
784	0.6401
793	0.6584
802	0.6812
811	0.7044
820	0.6786
829	0.6423
838	0.6144
847	0.5742
856	0.6269
865	0.7023
874	0.7094
883	0.6518
892	0.5769
901	0.593
910	0.4855
919	0.4725
928	0.4785
937	0.4887
946	0.4959
955	0.5046
964	0.482
973	0.4181
982	0.5343
991	0.6399
1000	0.6573
1009	0.6385
1018	0.5716
1027	0.4474
1036	0.6804
1045	0.6494
1054	0.632
1063	0.6658
1072	0.6554
1081	0.6499
1090	0.6908
1099	0.6968
1108	0.6169
1117	0.5722
1126	0.398
1135	0.4188
1144	0.4488
1153	0.5416
1162	0.5622
1171	0.657
1180	0.6558
1189	0.5927
1198	0.3615
1207	0.5524
1216	0.608
1225	0.5875
1234	0.5976
1243	0.5626
1252	0.5392
1261	0.5429
1270	0.5406
1279	0.5171
1288	0.5186
1297	0.5141
1306	0.513
1315	0.4631
1324	0.3904
1333	0.3662
1342	0.312
1351	0.3091
1360	0.3512
1369	0.3069
1378	0.1966
1387	0.1837
1396	0.163
1405	0.2053
1414	0.2302
1423	0.2011
1432	0.1748
1441	0.169
1450	0.1041
1459	0.0601
1468	0.0637
1477	0.2624
1486	0.2771
1495	0.312
1504	0.3021
1513	0.051
1522	0.1276
1531	0.2997
1540	0.4659
1549	0.4766
1558	0.4416
1567	0.3078
1576	0.1608
1585	0.1593
1594	0.2299
1603	0.387
1612	0.4988
1621	0.5065
1630	0.5523
1639	0.6036
1648	0.6252
1657	0.6287
1666	0.6296
1675	0.6311
1684	0.6337
1693	0.6374
1702	0.6503
1711	0.6515
1720	0.6515
1729	0.6512
1738	0.6512
1747	0.6512
1756	0.6512
1765	0.651
1774	0.6507
1783	0.6502
1792	0.6474
1801	0.6347
1810	0.6318
1819	0.6326
1828	0.6427
1837	0.6488
1846	0.6509
1855	0.6514
1864	0.6485
1873	0.6442
1882	0.6412
1891	0.6327
1900	0.6189
1909	0.6007
1918	0.5786
1927	0.5557
1936	0.5366
1945	0.5179
1954	0.512
1963	0.519
1972	0.5267
1981	0.5293
1990	0.5306
1999	0.5304
2008	0.5253
2017	0.5122
2026	0.503
2035	0.5083
2044	0.5186
2053	0.534
2062	0.5594
2071	0.5717
2080	0.5731
2089	0.573
2098	0.5717
2107	0.5595
2116	0.5515
2125	0.5467
2134	0.5406
2143	0.5295
2152	0.5293
2161	0.5361
2170	0.5461
2179	0.5479
2188	0.5468
2197	0.5406
2206	0.5281
2215	0.5107
2224	0.4856
2233	0.47
2242	0.4658
2251	0.4596
2260	0.4367
2269	0.4165
2278	0.3947
2287	0.375
2296	0.3368
2305	0.3035
2314	0.2732
2323	0.2431
2332	0.2049
2341	0.1849
2350	0.1612
2359	0.1378
2368	0.1209
2377	0.1057
2386	0.0819
2395	0.0616
2404	0.0508
2413	0.0418
2422	0.0385
2431	0.0383
2440	0.0321
2449	0.0208
2458	0.0189
2467	0.0179
2476	0.0171
2485	0.0168
2494	0.0169
2503	0.0171
2512	0.0178
2521	0.0187
2530	0.0193
2539	0.0184
2548	0.0164
2557	0.014
2566	0.0128
2575	0.0123
2584	0.0122
2593	0.0122
2602	0.0121
2611	0.012
2620	0.0119
2629	0.0117
2638	0.0116
2647	0.0114
2656	0.0113
2665	0.0113
2674	0.0112
2683	0.0111
2692	0.0111
2701	0.0112
2710	0.0114
2719	0.0116
2728	0.0117
2737	0.0119
2746	0.0123
2755	0.0127
2764	0.0131
2773	0.0135
2782	0.0143
2791	0.0162
2800	0.0185
2809	0.0206
2818	0.0224
2827	0.0233
2836	0.024
2845	0.0244
2854	0.0248
2863	0.0249
2872	0.025
2881	0.0252
2890	0.0253
2899	0.0254
2908	0.0255
2917	0.0255
2926	0.0256
2935	0.0258
2944	0.0259
2953	0.0261
2962	0.0267
2971	0.0277
2980	0.0329
2989	0.0443
2998	0.0602
3007	0.0798
3016	0.0897
3025	0.0956
3034	0.1005
3043	0.123
3052	0.149
3061	0.1749
3070	0.2006
3079	0.2268
3088	0.2422
3097	0.2479
3106	0.2505
3115	0.2522
3124	0.2539
3133	0.2566
3142	0.2619
3151	0.274
3160	0.2938
3169	0.3146
3178	0.3313
3187	0.3371
3196	0.3393
3205	0.3403
3214	0.3414
3223	0.3418
3232	0.3422
3241	0.3423
3250	0.3424
3259	0.3422
3268	0.3419
3277	0.3416
3286	0.3414
3295	0.3411
3304	0.3408
3313	0.3408
3322	0.3408
3331	0.3408
3340	0.3408
3349	0.3408
3358	0.3408
3367	0.3408
3376	0.3408
3385	0.3407
3394	0.3407
3403	0.3407
3412	0.3408
3421	0.3408
3430	0.3408
3439	0.3408
3448	0.3408
3457	0.3409
3466	0.3409
3475	0.3424
3484	0.3466
3493	0.3508
3502	0.3539
3511	0.3568
3520	0.3594
3529	0.3673
3538	0.3715
3547	0.3735
3556	0.3745
3565	0.3751
3574	0.3756
3583	0.376
3592	0.3763
3601	0.3765
3610	0.3767
3619	0.3769
3628	0.377
3637	0.3768
3646	0.3767
3655	0.3766
3664	0.3765
3673	0.3764
3682	0.3761
3691	0.376
3700	0.3757
3709	0.3756
3718	0.3753
3727	0.3748
3736	0.3742
3745	0.3726
3754	0.3704
3763	0.3677
3772	0.3651
3781	0.3626
3790	0.3624
3799	0.3624
3808	0.3624
3817	0.3624
3826	0.3622
3835	0.3618
3844	0.3614
3853	0.3609
3862	0.3591
3871	0.3567
3880	0.354
3889	0.351
3898	0.3478
3907	0.3433
3916	0.3427
3925	0.3425
3934	0.3423
3943	0.3422
3952	0.3419
3961	0.3417
3970	0.3414
3979	0.3412
3988	0.3409
3997	0.3408
