Infrared Spectrum: CALCIUM SULFITE
Formula: Ca S O3  * 2 H2 O
State: SOLID (NUJOL MULL)
Class: COBLENTZ
Instrument: Not specified, most likely a prism, grating, or hybrid spectrometer.
Sampling: TRANSMISSION
Resolution: 4
Origin: MELLON INSTITUTE
MICROMETERS	TRANSMITTANCE
2.035	0.958
2.07493	0.961
2.11486	0.964
2.15479	0.964
2.19471	0.966
2.23464	0.964
2.27457	0.961
2.3145	0.953
2.35443	0.954
2.39436	0.959
2.43429	0.954
2.47422	0.959
2.51414	0.963
2.55407	0.958
2.594	0.958
2.63393	0.964
2.67386	0.953
2.71379	0.958
2.75372	0.948
2.79365	0.921
2.83357	0.847
2.8735	0.73
2.91343	0.618
2.95336	0.552
2.99329	0.71
3.03322	0.809
3.07315	0.835
3.11307	0.865
3.153	0.894
3.19293	0.904
3.23286	0.911
3.27279	0.906
3.31272	0.876
3.35265	0.591
3.39258	0.266
3.4325	0.514
3.47243	0.494
3.51236	0.79
3.55229	0.916
3.59222	0.944
3.63215	0.953
3.67208	0.954
3.71201	0.959
3.75193	0.961
3.79186	0.961
3.83179	0.964
3.87172	0.968
3.91165	0.968
3.95158	0.969
3.99151	0.971
4.03144	0.974
4.07136	0.973
4.11129	0.974
4.15122	0.974
4.19115	0.974
4.23108	0.961
4.27101	0.949
4.31094	0.941
4.35086	0.938
4.39079	0.954
4.43072	0.973
4.47065	0.971
4.51058	0.969
4.55051	0.968
4.59044	0.966
4.63037	0.964
4.67029	0.964
4.71022	0.964
4.75015	0.964
4.79008	0.964
4.83001	0.964
4.86994	0.963
4.90987	0.959
4.9498	0.956
4.98972	0.961
5.02965	0.963
5.06958	0.961
5.10951	0.959
5.14944	0.958
5.18937	0.954
5.2293	0.958
5.26922	0.956
5.30915	0.956
5.34908	0.959
5.38901	0.963
5.42894	0.964
5.46887	0.966
5.5088	0.964
5.54873	0.966
5.58865	0.969
5.62858	0.969
5.66851	0.969
5.70844	0.968
5.74837	0.969
5.7883	0.969
5.82823	0.971
5.86816	0.964
5.90808	0.964
5.94801	0.964
5.98794	0.954
6.02787	0.949
6.0678	0.927
6.10773	0.854
6.14766	0.762
6.18758	0.815
6.22751	0.911
6.26744	0.936
6.30737	0.944
6.3473	0.948
6.38723	0.951
6.42716	0.948
6.46709	0.949
6.50701	0.951
6.54694	0.953
6.58687	0.953
6.6268	0.949
6.66673	0.953
6.70666	0.949
6.74659	0.941
6.78652	0.907
6.82644	0.8
6.86637	0.758
6.9063	0.763
6.94623	0.82
6.98616	0.854
7.02609	0.887
7.06602	0.899
7.10594	0.924
7.14587	0.929
7.1858	0.921
7.22573	0.892
7.26566	0.849
7.30559	0.864
7.34552	0.892
7.38545	0.911
7.42537	0.919
7.4653	0.919
7.50523	0.926
7.54516	0.932
7.58509	0.936
7.62502	0.936
7.66495	0.938
7.70488	0.938
7.7448	0.939
7.78473	0.943
7.82466	0.946
7.86459	0.943
7.90452	0.941
7.94445	0.941
7.98438	0.936
8.02431	0.941
8.06423	0.939
8.10416	0.946
8.14409	0.941
8.18402	0.934
8.22395	0.922
8.26388	0.914
8.30381	0.917
8.34373	0.929
8.38366	0.931
8.42359	0.934
8.46352	0.929
8.50345	0.927
8.54338	0.921
8.58331	0.917
8.62324	0.916
8.66316	0.912
8.70309	0.911
8.74302	0.902
8.78295	0.896
8.82288	0.892
8.86281	0.891
8.90274	0.889
8.94267	0.887
8.98259	0.882
9.02252	0.882
9.06245	0.882
9.10238	0.882
9.14231	0.882
9.18224	0.884
9.22217	0.891
9.26209	0.887
9.30202	0.887
9.34195	0.894
9.38188	0.886
9.42181	0.876
9.46174	0.865
9.50167	0.859
9.5416	0.847
9.58152	0.829
9.62145	0.809
9.66138	0.767
9.70131	0.691
9.74124	0.634
9.78117	0.552
9.8211	0.455
9.86103	0.378
9.90095	0.329
9.94088	0.291
9.98081	0.264
10.0207	0.236
10.0607	0.211
10.1006	0.189
10.1405	0.17
10.1805	0.159
10.2204	0.149
10.2603	0.142
10.3002	0.14
10.3402	0.149
10.3801	0.17
10.42	0.175
10.46	0.177
10.4999	0.174
10.5398	0.174
10.5797	0.174
10.6197	0.175
10.6596	0.18
10.6995	0.189
10.7395	0.211
10.7794	0.271
10.8193	0.346
10.8592	0.428
10.8992	0.499
10.9391	0.552
10.979	0.616
11.019	0.676
11.0589	0.72
11.0988	0.755
11.1387	0.787
11.1787	0.802
11.2186	0.817
11.2585	0.83
11.2985	0.844
11.3384	0.854
11.3783	0.867
11.4182	0.877
11.4582	0.889
11.4981	0.899
11.538	0.904
11.578	0.911
11.6179	0.912
11.6578	0.914
11.6977	0.916
11.7377	0.921
11.7776	0.927
11.8175	0.924
11.8575	0.926
11.8974	0.929
11.9373	0.932
11.9772	0.934
12.0172	0.938
12.0571	0.941
12.097	0.938
12.137	0.938
12.1769	0.944
12.2168	0.943
12.2567	0.944
12.2967	0.949
12.3366	0.951
12.3765	0.951
12.4165	0.951
12.4564	0.953
12.4963	0.954
12.5362	0.951
12.5762	0.953
12.6161	0.954
12.656	0.954
12.696	0.958
12.7359	0.958
12.7758	0.961
12.8157	0.963
12.8557	0.959
12.8956	0.954
12.9355	0.954
12.9755	0.956
13.0154	0.954
13.0553	0.953
13.0953	0.953
13.1352	0.953
13.1751	0.953
13.215	0.954
13.255	0.953
13.2949	0.954
13.3348	0.956
13.3748	0.959
13.4147	0.963
13.4546	0.963
13.4945	0.963
13.5345	0.963
13.5744	0.964
13.6143	0.961
13.6543	0.959
13.6942	0.953
13.7341	0.951
13.774	0.948
13.814	0.948
13.8539	0.944
13.8938	0.941
13.9338	0.941
13.9737	0.943
14.0136	0.949
14.0535	0.949
14.0935	0.951
14.1334	0.951
14.1733	0.944
14.2133	0.941
14.2532	0.938
14.2931	0.934
14.333	0.931
14.373	0.924
14.4129	0.917
14.4528	0.912
14.4928	0.904
14.5327	0.901
14.5726	0.896
14.6125	0.892
14.6525	0.886
14.6924	0.877
14.7323	0.871
14.7723	0.862
14.8122	0.852
14.8521	0.842
14.892	0.835
14.932	0.825
14.9719	0.809
15.0118	0.783
15.0518	0.757
15.0917	0.73
15.1316	0.71
15.1715	0.693
15.2115	0.68
15.2514	0.675
15.2913	0.67
15.3313	0.668
15.3712	0.671
15.4111	0.675
15.451	0.678
15.491	0.681
15.5309	0.685
15.5708	0.691
15.6108	0.696
15.6507	0.698
15.6906	0.701
15.7305	0.705
15.7705	0.706
15.8104	0.71
15.8503	0.71
15.8903	0.713
15.9302	0.715
15.9701	0.716
16.01	0.718
