Infrared Spectrum: Phenethylamine, p-methoxy-, hydrochloride
Formula: C9 H14 Cl N O
State: SOLID (KBr DISC)
Class: COBLENTZ III
Instrument: BECKMAN IR-4 (HYBRID PRISM-GRATING)
Sampling: TRANSMISSION
Resolution: 2
Origin: UNIVERSITY OF FLORIDA
1/CM	TRANSMITTANCE
667	0.6668
676	0.6696
685	0.6573
694	0.6403
703	0.641
712	0.6148
721	0.6627
730	0.652
739	0.6188
748	0.4765
757	0.5515
766	0.6242
775	0.5578
784	0.4811
793	0.5878
802	0.5399
811	0.1856
820	0.279
829	0.4213
838	0.4168
847	0.5462
856	0.6361
865	0.6432
874	0.6388
883	0.6258
892	0.6154
901	0.6049
910	0.5849
919	0.5641
928	0.4893
937	0.4873
946	0.3556
955	0.5182
964	0.5852
973	0.6053
982	0.5905
991	0.5488
1000	0.5435
1009	0.4801
1018	0.3796
1027	0.1232
1036	0.3217
1045	0.5653
1054	0.5937
1063	0.6059
1072	0.5962
1081	0.5808
1090	0.5926
1099	0.5751
1108	0.5351
1117	0.3375
1126	0.5078
1135	0.5251
1144	0.3291
1153	0.4219
1162	0.5261
1171	0.52
1180	0.2171
1189	0.3079
1198	0.5433
1207	0.5532
1216	0.5181
1225	0.4568
1234	0.3115
1243	0.1165
1252	0.1071
1261	0.3653
1270	0.3167
1279	0.4391
1288	0.5175
1297	0.5639
1306	0.333
1315	0.4699
1324	0.4325
1333	0.5324
1342	0.5826
1351	0.5904
1360	0.5939
1369	0.5966
1378	0.5892
1387	0.5547
1396	0.5133
1405	0.546
1414	0.559
1423	0.549
1432	0.5228
1441	0.4832
1450	0.3602
1459	0.3345
1468	0.2895
1477	0.1799
1486	0.1871
1495	0.3101
1504	0.3761
1513	0.3669
1522	0.2597
1531	0.2896
1540	0.3906
1549	0.4307
1558	0.5331
1567	0.5502
1576	0.5577
1585	0.496
1594	0.4525
1603	0.3295
1612	0.27
1621	0.3379
1630	0.4965
1639	0.5471
1648	0.579
1657	0.5933
1666	0.5996
1675	0.6052
1684	0.6093
1693	0.6103
1702	0.6131
1711	0.6166
1720	0.6188
1729	0.6222
1738	0.626
1747	0.6258
1756	0.6255
1765	0.625
1774	0.6239
1783	0.6208
1792	0.6202
1801	0.6219
1810	0.6228
1819	0.6209
1828	0.6211
1837	0.6227
1846	0.6236
1855	0.6176
1864	0.6082
1873	0.6032
1882	0.5965
1891	0.5885
1900	0.5851
1909	0.5883
1918	0.5924
1927	0.5963
1936	0.5958
1945	0.5944
1954	0.5921
1963	0.5873
1972	0.5861
1981	0.5849
1990	0.5803
1999	0.5714
2008	0.5586
2017	0.5473
2026	0.5353
2035	0.5203
2044	0.5018
2053	0.4798
2062	0.4609
2071	0.4626
2080	0.4769
2089	0.4983
2098	0.5182
2107	0.5353
2116	0.548
2125	0.5542
2134	0.5583
2143	0.5613
2152	0.5635
2161	0.5656
2170	0.5675
2179	0.5695
2188	0.5715
2197	0.5735
2206	0.5728
2215	0.571
2224	0.5695
2233	0.5682
2242	0.5649
2251	0.5576
2260	0.5527
2269	0.5503
2278	0.5484
2287	0.5497
2296	0.5505
2305	0.5491
2314	0.5485
2323	0.5498
2332	0.5506
2341	0.5496
2350	0.5478
2359	0.5437
2368	0.5393
2377	0.5318
2386	0.523
2395	0.5034
2404	0.4803
2413	0.4578
2422	0.4443
2431	0.4457
2440	0.458
2449	0.4765
2458	0.4823
2467	0.4859
2476	0.4834
2485	0.4769
2494	0.4729
2503	0.4716
2512	0.4694
2521	0.4634
2530	0.4527
2539	0.4328
2548	0.4213
2557	0.4121
2566	0.4119
2575	0.4165
2584	0.4191
2593	0.4179
2602	0.4086
2611	0.4015
2620	0.4009
2629	0.403
2638	0.4056
2647	0.4076
2656	0.4086
2665	0.4074
2674	0.4035
2683	0.397
2692	0.3898
2701	0.3819
2710	0.3681
2719	0.3474
2728	0.3261
2737	0.3096
2746	0.2955
2755	0.2809
2764	0.2766
2773	0.275
2782	0.2739
2791	0.2703
2800	0.2622
2809	0.2513
2818	0.2502
2827	0.2511
2836	0.2514
2845	0.2457
2854	0.2284
2863	0.211
2872	0.1971
2881	0.1827
2890	0.1692
2899	0.1568
2908	0.1473
2917	0.1388
2926	0.1306
2935	0.1227
2944	0.1147
2953	0.1063
2962	0.0979
2971	0.0891
2980	0.0814
2989	0.075
2998	0.0698
3007	0.066
3016	0.0635
3025	0.0626
3034	0.063
3043	0.0654
3052	0.0677
3061	0.0696
3070	0.0726
3079	0.0776
3088	0.0856
3097	0.0959
3106	0.1191
3115	0.1614
3124	0.1907
3133	0.2226
3142	0.2544
3151	0.286
3160	0.3174
3169	0.3296
3178	0.3464
3187	0.3648
3196	0.3828
3205	0.4067
3214	0.4178
3223	0.427
3232	0.4354
3241	0.4428
3250	0.4492
3259	0.4549
3268	0.4621
3277	0.4742
3286	0.4884
3295	0.5033
3304	0.5168
3313	0.5284
3322	0.5355
3331	0.5392
3340	0.5414
3349	0.5427
3358	0.5435
3367	0.5436
3376	0.5434
3385	0.5434
3394	0.544
3403	0.5446
3412	0.5461
3421	0.5476
3430	0.5491
3439	0.5498
3448	0.5499
3457	0.5501
3466	0.5502
3475	0.5502
3484	0.55
3493	0.5498
3502	0.5482
3511	0.5495
3520	0.5492
3529	0.549
3538	0.5488
3547	0.5486
3556	0.5485
3565	0.5483
3574	0.5481
3583	0.5479
3592	0.5476
3601	0.5472
3610	0.5468
3619	0.5464
3628	0.546
3637	0.5456
3646	0.5451
3655	0.5445
3664	0.544
3673	0.543
3682	0.5419
3691	0.5409
3700	0.5399
3709	0.5389
3718	0.5378
3727	0.5368
3736	0.5357
3745	0.5345
3754	0.5334
3763	0.5324
3772	0.532
3781	0.5316
3790	0.5313
3799	0.531
3808	0.5307
3817	0.531
3826	0.5312
3835	0.5312
3844	0.5299
3853	0.5285
3862	0.5248
3871	0.5216
3880	0.5196
3889	0.5187
3898	0.518
3907	0.5174
3916	0.5167
3925	0.5161
3934	0.5155
3943	0.5149
3952	0.5137
3961	0.5126
3970	0.5114
3979	0.5097
3988	0.5078
3997	0.5061
