Infrared Spectrum: 5',5''-DIBROMO-O-CRESOL SULFONE PHTHALEIN SODIUM SALT
Formula: C21 H15 Br2 O5 S Na
Class: COBLENTZ
Instrument: Not specified, most likely a prism, grating, or hybrid spectrometer.
Sampling: TRANSMISSION
Resolution: 4
Origin: WYANDOTTE CHEMICALS CORP., WYANDOTTE, MICHIGAN, USA
MICROMETERS	TRANSMITTANCE
2.028	0.629
2.06686	0.637
2.10572	0.643
2.14458	0.648
2.18344	0.64
2.2223	0.634
2.26116	0.64
2.30002	0.656
2.33889	0.665
2.37775	0.666
2.41661	0.674
2.45547	0.684
2.49433	0.699
2.53319	0.704
2.57205	0.713
2.61091	0.738
2.64977	0.743
2.68863	0.734
2.72749	0.705
2.76635	0.655
2.80521	0.63
2.84407	0.59
2.88293	0.572
2.92179	0.557
2.96066	0.551
2.99952	0.554
3.03838	0.56
3.07724	0.573
3.1161	0.572
3.15496	0.57
3.19382	0.572
3.23268	0.565
3.27154	0.429
3.3104	0.456
3.34926	0.043
3.38812	0.032
3.42698	0.032
3.46584	0.035
3.5047	0.042
3.54356	0.23
3.58243	0.556
3.62129	0.627
3.66015	0.663
3.69901	0.691
3.73787	0.736
3.77673	0.752
3.81559	0.752
3.85445	0.765
3.89331	0.778
3.93217	0.796
3.97103	0.809
4.00989	0.816
4.04875	0.827
4.08761	0.832
4.12647	0.835
4.16534	0.832
4.2042	0.834
4.24306	0.832
4.28192	0.835
4.32078	0.811
4.35964	0.801
4.3985	0.842
4.43736	0.85
4.47622	0.86
4.51508	0.858
4.55394	0.865
4.5928	0.865
4.63166	0.868
4.67052	0.866
4.70938	0.873
4.74824	0.894
4.78711	0.897
4.82597	0.892
4.86483	0.895
4.90369	0.9
4.94255	0.905
4.98141	0.905
5.02027	0.894
5.05913	0.899
5.09799	0.895
5.13685	0.881
5.17571	0.881
5.21457	0.886
5.25343	0.894
5.29229	0.905
5.33115	0.912
5.37002	0.913
5.40888	0.921
5.44774	0.926
5.4866	0.926
5.52546	0.93
5.56432	0.928
5.60318	0.933
5.64204	0.921
5.6809	0.918
5.71976	0.907
5.75862	0.882
5.79748	0.814
5.83634	0.751
5.8752	0.8
5.91406	0.839
5.95292	0.835
5.99179	0.832
6.03065	0.801
6.06951	0.743
6.10837	0.6
6.14723	0.505
6.18609	0.497
6.22495	0.491
6.26381	0.531
6.30267	0.713
6.34153	0.751
6.38039	0.71
6.41925	0.691
6.45811	0.721
6.49697	0.733
6.53583	0.639
6.57469	0.588
6.61356	0.585
6.65242	0.601
6.69128	0.476
6.73014	0.356
6.769	0.284
6.80786	0.191
6.84672	0.195
6.88558	0.2
6.92444	0.237
6.9633	0.347
7.00216	0.534
7.04102	0.57
7.07988	0.51
7.11874	0.452
7.1576	0.487
7.19647	0.435
7.23533	0.284
7.27419	0.159
7.31305	0.2
7.35191	0.112
7.39077	0.147
7.42963	0.273
7.46849	0.325
7.50735	0.388
7.54621	0.304
7.58507	0.323
7.62393	0.45
7.66279	0.478
7.70165	0.43
7.74051	0.461
7.77937	0.518
7.81824	0.487
7.8571	0.489
7.89596	0.495
7.93482	0.492
7.97368	0.492
8.01254	0.502
8.0514	0.478
8.09026	0.434
8.12912	0.404
8.16798	0.39
8.20684	0.377
8.2457	0.341
8.28456	0.273
8.32342	0.201
8.36228	0.165
8.40114	0.204
8.44001	0.248
8.47887	0.235
8.51773	0.19
8.55659	0.173
8.59545	0.169
8.63431	0.178
8.67317	0.195
8.71203	0.193
8.75089	0.17
8.78975	0.121
8.82861	0.061
8.86747	0.039
8.90633	0.04
8.94519	0.047
8.98405	0.065
9.02292	0.079
9.06178	0.053
9.10064	0.039
9.1395	0.034
9.17836	0.034
9.21722	0.034
9.25608	0.039
9.29494	0.053
9.3338	0.099
9.37266	0.17
9.41152	0.243
9.45038	0.305
9.48924	0.347
9.5281	0.375
9.56696	0.4
9.60582	0.396
9.64469	0.378
9.68355	0.344
9.72241	0.313
9.76127	0.26
9.80013	0.243
9.83899	0.245
9.87785	0.256
9.91671	0.312
9.95557	0.369
9.99443	0.426
10.0333	0.458
10.0722	0.476
10.111	0.465
10.1499	0.461
10.1887	0.476
10.2276	0.517
10.2665	0.57
10.3053	0.598
10.3442	0.595
10.383	0.559
10.4219	0.56
10.4608	0.585
10.4996	0.606
10.5385	0.627
10.5773	0.637
10.6162	0.622
10.6551	0.604
10.6939	0.611
10.7328	0.63
10.7716	0.629
10.8105	0.582
10.8494	0.593
10.8882	0.611
10.9271	0.621
10.9659	0.642
11.0048	0.64
11.0437	0.629
11.0825	0.621
11.1214	0.593
11.1603	0.583
11.1991	0.595
11.238	0.601
11.2768	0.531
11.3157	0.474
11.3546	0.526
11.3934	0.608
11.4323	0.671
11.4711	0.715
11.51	0.76
11.5489	0.778
11.5877	0.785
11.6266	0.773
11.6654	0.764
11.7043	0.746
11.7432	0.723
11.782	0.695
11.8209	0.669
11.8597	0.661
11.8986	0.653
11.9375	0.669
11.9763	0.704
12.0152	0.746
12.054	0.767
12.0929	0.775
12.1318	0.778
12.1706	0.765
12.2095	0.749
12.2483	0.752
12.2872	0.739
12.3261	0.721
12.3649	0.702
12.4038	0.695
12.4427	0.7
12.4815	0.694
12.5204	0.673
12.5592	0.639
12.5981	0.598
12.637	0.536
12.6758	0.494
12.7147	0.469
12.7535	0.455
12.7924	0.424
12.8313	0.373
12.8701	0.338
12.909	0.334
12.9478	0.378
12.9867	0.4
13.0256	0.408
13.0644	0.411
13.1033	0.413
13.1421	0.401
13.181	0.385
13.2199	0.367
13.2587	0.328
13.2976	0.297
13.3364	0.269
13.3753	0.25
13.4142	0.237
13.453	0.213
13.4919	0.211
13.5307	0.248
13.5696	0.313
13.6085	0.369
13.6473	0.403
13.6862	0.427
13.7251	0.416
13.7639	0.391
13.8028	0.362
13.8416	0.343
13.8805	0.323
13.9194	0.304
13.9582	0.3
13.9971	0.304
14.0359	0.315
14.0748	0.341
14.1137	0.365
14.1525	0.388
14.1914	0.4
14.2302	0.401
14.2691	0.4
14.308	0.396
14.3468	0.388
14.3857	0.378
14.4245	0.38
14.4634	0.388
14.5023	0.4
14.5411	0.426
14.58	0.471
14.6188	0.507
14.6577	0.552
14.6966	0.585
14.7354	0.622
14.7743	0.639
14.8132	0.653
14.852	0.665
14.8909	0.673
14.9297	0.671
14.9686	0.674
15.0075	0.665
15.0463	0.645
15.0852	0.624
15.124	0.614
15.1629	0.616
15.2018	0.629
15.2406	0.629
15.2795	0.63
15.3183	0.614
15.3572	0.608
15.3961	0.601
15.4349	0.586
15.4738	0.582
15.5126	0.575
15.5515	0.57
15.5904	0.57
15.6292	0.577
15.6681	0.583
15.7069	0.582
15.7458	0.58
15.7847	0.575
15.8235	0.569
15.8624	0.572
15.9012	0.569
15.9401	0.565
15.979	0.564
