Infrared Spectrum: 4-OXO-2-PYRIDINIUM-3-(2,4,6-TRIOXO-1,3-DIAZACYCLOHEXYLIDENE-5)-1-NAPHTHOXIDE
Formula: C19 H11 N3 O5
State: SOLID (KBr PRESSING)
Melting point: 345 C
Class: COBLENTZ
Instrument: Not specified, most likely a prism, grating, or hybrid spectrometer.
Sampling: TRANSMISSION
Resolution: 4
Origin: EASTMAN KODAK COMPANY, RESEARCH LABORATORIES, ROCHESTER, N.Y.
MICROMETERS	TRANSMITTANCE
2.007	0.681
2.04692	0.685
2.08685	0.688
2.12677	0.696
2.16669	0.704
2.20661	0.711
2.24654	0.711
2.28646	0.714
2.32638	0.719
2.36631	0.721
2.40623	0.722
2.44615	0.722
2.48608	0.721
2.526	0.721
2.56592	0.729
2.60584	0.74
2.64577	0.747
2.68569	0.748
2.72561	0.735
2.76554	0.672
2.80546	0.566
2.84538	0.502
2.88531	0.451
2.92523	0.438
2.96515	0.458
3.00507	0.417
3.045	0.363
3.08492	0.438
3.12484	0.446
3.16477	0.446
3.20469	0.425
3.24461	0.446
3.28453	0.417
3.32446	0.458
3.36438	0.477
3.4043	0.466
3.44423	0.508
3.48415	0.556
3.52407	0.548
3.564	0.564
3.60392	0.579
3.64384	0.631
3.68376	0.691
3.72369	0.701
3.76361	0.73
3.80353	0.748
3.84346	0.766
3.88338	0.774
3.9233	0.789
3.96323	0.797
4.00315	0.802
4.04307	0.812
4.08299	0.815
4.12292	0.823
4.16284	0.831
4.20276	0.828
4.24269	0.835
4.28261	0.848
4.32253	0.858
4.36246	0.854
4.40238	0.849
4.4423	0.851
4.48222	0.856
4.52215	0.853
4.56207	0.862
4.60199	0.849
4.64192	0.859
4.68184	0.854
4.72176	0.854
4.76168	0.854
4.80161	0.854
4.84153	0.856
4.88145	0.867
4.92138	0.871
4.9613	0.874
5.00122	0.874
5.04115	0.876
5.08107	0.876
5.12099	0.877
5.16091	0.879
5.20084	0.88
5.24076	0.884
5.28068	0.889
5.32061	0.889
5.36053	0.871
5.40045	0.89
5.44038	0.892
5.4803	0.871
5.52022	0.871
5.56014	0.866
5.60007	0.858
5.63999	0.81
5.67991	0.768
5.71984	0.709
5.75976	0.649
5.79968	0.544
5.8396	0.318
5.87953	0.158
5.91945	0.125
5.95937	0.089
5.9993	0.15
6.03922	0.161
6.07914	0.128
6.11907	0.19
6.15899	0.135
6.19891	0.11
6.23883	0.089
6.27876	0.12
6.31868	0.128
6.3586	0.189
6.39853	0.213
6.43845	0.226
6.47837	0.329
6.5183	0.448
6.55822	0.557
6.59814	0.603
6.63806	0.619
6.67799	0.628
6.71791	0.556
6.75783	0.507
6.79776	0.458
6.83768	0.287
6.8776	0.349
6.91752	0.249
6.95745	0.228
6.99737	0.243
7.03729	0.278
7.07722	0.339
7.11714	0.252
7.15706	0.27
7.19699	0.357
7.23691	0.398
7.27683	0.355
7.31675	0.456
7.35668	0.487
7.3966	0.499
7.43652	0.533
7.47645	0.517
7.51637	0.443
7.55629	0.314
7.59622	0.383
7.63614	0.443
7.67606	0.43
7.71598	0.329
7.75591	0.135
7.79583	0.097
7.83575	0.205
7.87568	0.347
7.9156	0.417
7.95552	0.522
7.99545	0.546
8.03537	0.598
8.07529	0.646
8.11521	0.699
8.15514	0.719
8.19506	0.721
8.23498	0.69
8.27491	0.639
8.31483	0.611
8.35475	0.59
8.39467	0.701
8.4346	0.738
8.47452	0.758
8.51444	0.766
8.55437	0.763
8.59429	0.752
8.63421	0.73
8.67414	0.729
8.71406	0.763
8.75398	0.763
8.7939	0.758
8.83383	0.738
8.87375	0.668
8.91367	0.629
8.9536	0.716
8.99352	0.74
9.03344	0.727
9.07337	0.711
9.11329	0.73
9.15321	0.737
9.19313	0.75
9.23306	0.703
9.27298	0.717
9.3129	0.74
9.35283	0.747
9.39275	0.737
9.43267	0.722
9.47259	0.738
9.51252	0.727
9.55244	0.722
9.59236	0.727
9.63229	0.73
9.67221	0.737
9.71213	0.752
9.75206	0.716
9.79198	0.707
9.8319	0.598
9.87182	0.639
9.91175	0.694
9.95167	0.738
9.99159	0.776
10.0315	0.802
10.0714	0.805
10.1114	0.822
10.1513	0.823
10.1912	0.836
10.2311	0.828
10.2711	0.828
10.311	0.812
10.3509	0.814
10.3908	0.835
10.4307	0.838
10.4707	0.838
10.5106	0.836
10.5505	0.84
10.5904	0.841
10.6304	0.843
10.6703	0.848
10.7102	0.841
10.7501	0.841
10.7901	0.84
10.83	0.841
10.8699	0.841
10.9098	0.836
10.9497	0.828
10.9897	0.822
11.0296	0.799
11.0695	0.786
11.1094	0.773
11.1494	0.753
11.1893	0.752
11.2292	0.737
11.2691	0.729
11.3091	0.735
11.349	0.737
11.3889	0.738
11.4288	0.729
11.4687	0.712
11.5087	0.719
11.5486	0.732
11.5885	0.74
11.6284	0.756
11.6684	0.758
11.7083	0.758
11.7482	0.747
11.7881	0.748
11.828	0.763
11.868	0.763
11.9079	0.765
11.9478	0.761
11.9877	0.755
12.0277	0.737
12.0676	0.712
12.1075	0.707
12.1474	0.711
12.1874	0.729
12.2273	0.717
12.2672	0.69
12.3071	0.657
12.347	0.691
12.387	0.693
12.4269	0.673
12.4668	0.657
12.5067	0.626
12.5467	0.624
12.5866	0.641
12.6265	0.668
12.6664	0.686
12.7064	0.683
12.7463	0.668
12.7862	0.619
12.8261	0.538
12.866	0.531
12.906	0.567
12.9459	0.557
12.9858	0.495
13.0257	0.513
13.0657	0.595
13.1056	0.662
13.1455	0.706
13.1854	0.722
13.2254	0.722
13.2653	0.712
13.3052	0.707
13.3451	0.693
13.385	0.683
13.425	0.678
13.4649	0.691
13.5048	0.699
13.5447	0.706
13.5847	0.698
13.6246	0.668
13.6645	0.6
13.7044	0.499
13.7444	0.437
13.7843	0.477
13.8242	0.525
13.8641	0.548
13.904	0.567
13.944	0.595
13.9839	0.646
14.0238	0.675
14.0637	0.69
14.1037	0.688
14.1436	0.65
14.1835	0.608
14.2234	0.567
14.2634	0.566
14.3033	0.574
14.3432	0.584
14.3831	0.601
14.423	0.637
14.463	0.668
14.5029	0.68
14.5428	0.681
14.5827	0.663
14.6227	0.641
14.6626	0.601
14.7025	0.58
14.7424	0.549
14.7823	0.546
14.8223	0.546
14.8622	0.549
14.9021	0.539
14.942	0.541
14.982	0.52
15.0219	0.515
15.0618	0.548
15.1017	0.554
15.1417	0.556
15.1816	0.564
15.2215	0.587
15.2614	0.601
15.3013	0.608
15.3413	0.615
15.3812	0.61
15.4211	0.603
15.461	0.605
15.501	0.605
15.5409	0.603
15.5808	0.601
15.6207	0.598
15.6607	0.597
15.7006	0.595
15.7405	0.588
15.7804	0.59
15.8203	0.58
15.8603	0.577
15.9002	0.57
15.9401	0.569
15.98	0.569
