Infrared Spectrum: ADONITOL
Formula: C5 H12 O5
State: SOLID (SPLIT MULL), FLUOROLUBE FOR 3800-1330 CM^-^1, NUJOL FOR 1330-450 CM^-^1
Melting point: 101 C
Class: COBLENTZ III
Instrument: DOW KBr FOREPRISM-GRATING
Instrument parameters: BLAZED AT 3.5, 12.0, 20.0 MICRON AND CHANGED AT 5.0, 7.5, 14.9 MICRON
Sampling: TRANSMISSION
Resolution: 2
Origin: DOW CHEMICAL COMPANY
1/CM	TRANSMITTANCE
457	0.6621
466	0.6283
475	0.5827
484	0.6451
493	0.6241
502	0.5806
511	0.5249
520	0.4762
529	0.3897
538	0.33
547	0.2835
556	0.239
565	0.1987
574	0.1713
583	0.17
592	0.191
601	0.2416
610	0.2713
619	0.2388
628	0.1535
637	0.2187
646	0.2783
655	0.3175
664	0.3764
673	0.421
682	0.4442
691	0.4134
700	0.3893
709	0.4382
718	0.4662
727	0.5044
736	0.5094
745	0.4331
754	0.5135
763	0.6968
772	0.7684
781	0.827
790	0.8521
799	0.8699
808	0.8836
817	0.8887
826	0.888
835	0.8796
844	0.8405
853	0.5832
862	0.6333
871	0.7801
880	0.6333
889	0.2091
898	0.4918
907	0.6476
916	0.3039
925	0.8571
934	0.8715
943	0.8364
952	0.7668
961	0.8618
970	0.8618
979	0.8504
988	0.8303
997	0.7996
1006	0.7351
1015	0.6066
1024	0.2818
1033	0.0196
1042	0.0675
1051	0.1821
1060	0.2882
1069	0.0293
1078	0.007
1087	0.059
1096	0.1624
1105	0.1392
1114	0.2597
1123	0.3024
1132	0.5736
1141	0.7418
1150	0.7796
1159	0.7938
1168	0.8006
1177	0.8001
1186	0.8061
1195	0.8005
1204	0.7758
1213	0.7343
1222	0.7776
1231	0.7769
1240	0.7584
1249	0.7457
1258	0.6989
1267	0.5856
1276	0.6681
1285	0.6768
1294	0.639
1303	0.6443
1312	0.6018
1321	0.4565
1330	0.3656
1339	0.4381
1348	0.3977
1357	0.5176
1366	0.499
1375	0.5371
1384	0.7115
1393	0.7043
1402	0.6618
1411	0.591
1420	0.5333
1429	0.5407
1438	0.5499
1447	0.4842
1456	0.367
1465	0.3308
1474	0.4026
1483	0.5771
1492	0.6784
1501	0.7398
1510	0.7775
1519	0.7993
1528	0.8155
1537	0.8292
1546	0.8394
1555	0.8475
1564	0.8523
1573	0.8564
1582	0.8584
1591	0.8575
1600	0.8549
1609	0.8543
1618	0.8553
1627	0.8601
1636	0.8663
1645	0.8717
1654	0.8723
1663	0.8656
1672	0.8693
1681	0.8717
1690	0.8734
1699	0.8766
1708	0.874
1717	0.8788
1726	0.8745
1735	0.8836
1744	0.8781
1753	0.8785
1762	0.8777
1771	0.8753
1780	0.8725
1789	0.8691
1798	0.869
1807	0.87
1816	0.8715
1825	0.8724
1834	0.8737
1843	0.8734
1852	0.8721
1861	0.8718
1870	0.8709
1879	0.8705
1888	0.8698
1897	0.8687
1906	0.8671
1915	0.8645
1924	0.8618
1933	0.8639
1942	0.8657
1951	0.8663
1960	0.8652
1969	0.8636
1978	0.8621
1987	0.861
1996	0.8594
2005	0.8578
2014	0.8568
2023	0.8556
2032	0.8532
2041	0.8509
2050	0.8495
2059	0.848
2068	0.8465
2077	0.8447
2086	0.8428
2095	0.8402
2104	0.8364
2113	0.8378
2122	0.8383
2131	0.8374
2140	0.8359
2149	0.8336
2158	0.8311
2167	0.8282
2176	0.8254
2185	0.8227
2194	0.8214
2203	0.8213
2212	0.8218
2221	0.8221
2230	0.8216
2239	0.8182
2248	0.8147
2257	0.8112
2266	0.8085
2275	0.8056
2284	0.8026
2293	0.7996
2302	0.7968
2311	0.7946
2320	0.7925
2329	0.7915
2338	0.7905
2347	0.7892
2356	0.7878
2365	0.7865
2374	0.785
2383	0.7821
2392	0.7788
2401	0.7754
2410	0.7717
2419	0.7678
2428	0.7641
2437	0.7601
2446	0.7561
2455	0.7521
2464	0.7481
2473	0.7421
2482	0.7354
2491	0.7281
2500	0.725
2509	0.7226
2518	0.7212
2527	0.7191
2536	0.7143
2545	0.7071
2554	0.6982
2563	0.6954
2572	0.6949
2581	0.6925
2590	0.6897
2599	0.6888
2608	0.6867
2617	0.6835
2626	0.6737
2635	0.6605
2644	0.6471
2653	0.6315
2662	0.614
2671	0.5966
2680	0.5906
2689	0.5939
2698	0.6004
2707	0.6035
2716	0.5952
2725	0.5837
2734	0.571
2743	0.561
2752	0.5546
2761	0.5518
2770	0.5512
2779	0.5536
2788	0.556
2797	0.5497
2806	0.5344
2815	0.5135
2824	0.494
2833	0.4725
2842	0.4605
2851	0.4567
2860	0.4564
2869	0.4439
2878	0.4072
2887	0.3842
2896	0.3816
2905	0.3637
2914	0.3163
2923	0.2344
2932	0.3173
2941	0.2981
2950	0.2022
2959	0.4219
2968	0.3686
2977	0.5538
2986	0.55
2995	0.5381
3004	0.5227
3013	0.5047
3022	0.4851
3031	0.4682
3040	0.4518
3049	0.4341
3058	0.4142
3067	0.3946
3076	0.3727
3085	0.3456
3094	0.3192
3103	0.2903
3112	0.2663
3121	0.2441
3130	0.2233
3139	0.2021
3148	0.1807
3157	0.1587
3166	0.1405
3175	0.1239
3184	0.1075
3193	0.0861
3202	0.0716
3211	0.0602
3220	0.0504
3229	0.0414
3238	0.0347
3247	0.0312
3256	0.029
3265	0.0273
3274	0.0265
3283	0.0254
3292	0.0222
3301	0.0173
3310	0.0113
3319	0.0071
3328	0.0059
3337	0.0054
3346	0.0068
3355	0.01
3364	0.0196
3373	0.039
3382	0.0544
3391	0.0719
3400	0.1029
3409	0.1628
3418	0.2206
3427	0.2759
3436	0.3239
3445	0.3829
3454	0.4368
3463	0.4783
3472	0.5151
3481	0.5817
3490	0.6343
3499	0.6787
3508	0.7171
3517	0.7476
3526	0.7707
3535	0.7964
3544	0.8183
3553	0.8321
3562	0.8424
3571	0.8515
3580	0.86
3589	0.8678
3598	0.8755
3607	0.8812
3616	0.8848
3625	0.8874
3634	0.8901
3643	0.8898
3652	0.8902
3661	0.89
3670	0.8896
3679	0.8894
3688	0.8895
3697	0.8894
3706	0.8891
3715	0.8886
3724	0.8875
3733	0.886
3742	0.8809
3751	0.8766
3760	0.8747
3769	0.8732
3778	0.8718
3787	0.8701
3796	0.8692
