Infrared Spectrum: N-ACETYL-N-(p-PHTHALIMIDOBENZE-SULFONYL)-2-AMINO-4,6-DIMETHYLPYRIMIDINE
Formula: C22 H18 N4 O5 S
State: SOLID (NUJOL MULL)
Class: COBLENTZ
Instrument: PERKIN-ELMER
Sampling: TRANSMISSION
Resolution: 4
Origin: ABBOTT LABORATORIES - WASHBURN
MICROMETERS	TRANSMITTANCE
2.053	0.538
2.093	0.541
2.133	0.5559
2.17301	0.561
2.21301	0.5648
2.25301	0.575
2.29301	0.57
2.33301	0.5828
2.37302	0.596
2.41302	0.6
2.45302	0.61
2.49302	0.618
2.53302	0.625
2.57303	0.6378
2.61303	0.643
2.65303	0.65
2.69303	0.653
2.73303	0.6549
2.77304	0.6551
2.81304	0.6582
2.85304	0.651
2.89304	0.655
2.93304	0.655
2.97305	0.6578
3.01305	0.6701
3.05305	0.675
3.09305	0.671
3.13305	0.6581
3.17306	0.6181
3.21306	0.616
3.25306	0.6049
3.29306	0.4233
3.33306	0.1646
3.37307	0.0667
3.41307	0.0704
3.45307	0.1101
3.49307	0.4996
3.53307	0.6444
3.57308	0.7108
3.61308	0.716
3.65308	0.71
3.69308	0.716
3.73308	0.7229
3.77309	0.728
3.81309	0.733
3.85309	0.746
3.89309	0.753
3.93309	0.761
3.9731	0.766
4.0131	0.7659
4.0531	0.761
4.0931	0.768
4.1331	0.7629
4.17311	0.7651
4.21311	0.7648
4.25311	0.775
4.29311	0.793
4.33311	0.786
4.37312	0.791
4.41312	0.791
4.45312	0.795
4.49312	0.801
4.53312	0.7961
4.57313	0.796
4.61313	0.8
4.65313	0.81
4.69313	0.813
4.73313	0.811
4.77314	0.8482
4.81314	0.816
4.85314	0.816
4.89314	0.816
4.93314	0.821
4.97315	0.8198
5.01315	0.823
5.05315	0.8183
5.09315	0.818
5.13315	0.811
5.17316	0.8249
5.21316	0.82
5.25316	0.825
5.29316	0.83
5.33316	0.8237
5.37317	0.818
5.41317	0.8186
5.45317	0.8159
5.49317	0.7931
5.53317	0.6629
5.57318	0.6946
5.61318	0.6358
5.65318	0.4578
5.69318	0.2154
5.73318	0.3001
5.77319	0.0781
5.81319	0.2519
5.85319	0.5069
5.89319	0.6472
5.93319	0.686
5.9732	0.7235
6.0132	0.7501
6.0532	0.758
6.0932	0.7353
6.1332	0.6225
6.17321	0.2543
6.21321	0.3107
6.25321	0.3446
6.29321	0.6133
6.33321	0.6793
6.37322	0.688
6.41322	0.662
6.45322	0.6268
6.49322	0.5558
6.53322	0.567
6.57323	0.591
6.61323	0.5381
6.65323	0.406
6.69323	0.5476
6.73323	0.5077
6.77324	0.2447
6.81324	0.2244
6.85324	0.2514
6.89324	0.2857
6.93324	0.3483
6.97325	0.4506
7.01325	0.5144
7.05325	0.4124
7.09325	0.4849
7.13325	0.5164
7.17326	0.3745
7.21326	0.1402
7.25326	0.082
7.29326	0.043
7.33326	0.0515
7.37327	0.1472
7.41327	0.3322
7.45327	0.3741
7.49327	0.2272
7.53327	0.3052
7.57328	0.4873
7.61328	0.5231
7.65328	0.521
7.69328	0.5084
7.73328	0.5723
7.77329	0.6014
7.81329	0.5687
7.85329	0.4792
7.89329	0.3763
7.93329	0.2541
7.9733	0.212
8.0133	0.317
8.0533	0.4503
8.0933	0.532
8.1333	0.5141
8.17331	0.4719
8.21331	0.5997
8.25331	0.6325
8.29331	0.6612
8.33331	0.6588
8.37332	0.4665
8.41332	0.29
8.45332	0.3418
8.49332	0.1508
8.53332	0.26
8.57333	0.4306
8.61333	0.5205
8.65333	0.6041
8.69333	0.651
8.73333	0.6727
8.77334	0.6752
8.81334	0.6381
8.85334	0.596
8.89334	0.4196
8.93334	0.363
8.97335	0.3679
9.01335	0.5204
9.05335	0.6226
9.09335	0.6398
9.13335	0.5954
9.17336	0.5023
9.21336	0.4455
9.25336	0.481
9.29336	0.404
9.33336	0.351
9.37337	0.501
9.41337	0.5806
9.45337	0.6262
9.49337	0.6657
9.53337	0.6806
9.57338	0.6694
9.61338	0.6344
9.65338	0.5899
9.69338	0.5644
9.73338	0.4232
9.77339	0.3461
9.81339	0.5121
9.85339	0.5808
9.89339	0.6716
9.93339	0.691
9.9734	0.6704
10.0134	0.7044
10.0534	0.748
10.0934	0.7624
10.1334	0.7654
10.1734	0.7624
10.2134	0.7595
10.2534	0.758
10.2934	0.7551
10.3334	0.7259
10.3734	0.6505
10.4134	0.6628
10.4534	0.7222
10.4934	0.7491
10.5334	0.7655
10.5734	0.773
10.6134	0.778
10.6534	0.7736
10.6934	0.7727
10.7334	0.7648
10.7734	0.7367
10.8134	0.6752
10.8534	0.5659
10.8934	0.4932
10.9334	0.5726
10.9734	0.6848
11.0134	0.7583
11.0534	0.7783
11.0935	0.7904
11.1335	0.79
11.1735	0.785
11.2135	0.7631
11.2535	0.6881
11.2935	0.5884
11.3335	0.385
11.3735	0.5666
11.4135	0.603
11.4535	0.6309
11.4935	0.7223
11.5335	0.7653
11.5735	0.7842
11.6135	0.792
11.6535	0.7906
11.6935	0.7772
11.7335	0.763
11.7735	0.7651
11.8135	0.7334
11.8535	0.6579
11.8935	0.5384
11.9335	0.4169
11.9735	0.4173
12.0135	0.5739
12.0535	0.6826
12.0935	0.7152
12.1335	0.7665
12.1735	0.7954
12.2135	0.801
12.2535	0.8084
12.2935	0.8134
12.3335	0.8183
12.3735	0.818
12.4135	0.8178
12.4535	0.8082
12.4935	0.7343
12.5335	0.6671
12.5735	0.6295
12.6135	0.6543
12.6535	0.7569
12.6935	0.765
12.7335	0.776
12.7735	0.7455
12.8135	0.6088
12.8535	0.4079
12.8935	0.5193
12.9335	0.6898
12.9735	0.7579
13.0135	0.7727
13.0535	0.7857
13.0936	0.793
13.1336	0.791
13.1736	0.7996
13.2136	0.795
13.2536	0.793
13.2936	0.7873
13.3336	0.7858
13.3736	0.7753
13.4136	0.7677
13.4536	0.741
13.4936	0.6989
13.5336	0.4837
13.5736	0.3534
13.6136	0.5202
13.6536	0.6112
13.6936	0.6515
13.7336	0.6066
13.7736	0.5053
13.8136	0.4372
13.8536	0.4061
13.8936	0.4312
13.9336	0.4222
13.9736	0.2917
14.0136	0.1929
14.0536	0.4249
14.0936	0.569
14.1336	0.6628
14.1736	0.6994
14.2136	0.661
14.2536	0.5905
14.2936	0.6405
14.3336	0.7166
14.3736	0.74
14.4136	0.745
14.4536	0.7478
14.4936	0.741
14.5336	0.728
14.5736	0.7151
14.6136	0.692
14.6536	0.6575
14.6936	0.5495
14.7336	0.3022
14.7736	0.159
14.8136	0.16
14.8536	0.3279
14.8936	0.4599
14.9336	0.5252
14.9736	0.6084
15.0136	0.6429
15.0536	0.645
15.0937	0.6559
15.1337	0.66
15.1737	0.663
15.2137	0.6615
15.2537	0.661
15.2937	0.658
15.3337	0.655
15.3737	0.6471
