Infrared Spectrum: SODIUM TRIPOLYPHOSPHATE, HEXAHYDRATE
Formula: Na5 P3 O10  * 6 H2 O
State: SOLID (1.46 mg / 400 mg KBr PELLET)
Class: COBLENTZ
Instrument: PERKIN-ELMER
Sampling: TRANSMISSION
Resolution: 4
Origin: PROCTER AND GAMBLE CO.
1/CM	TRANSMITTANCE
474.08	0.575
483.096	0.573
492.112	0.573
501.127	0.573
510.143	0.573
519.159	0.571
528.175	0.569
537.191	0.558
546.206	0.503
555.222	0.525
564.238	0.43
573.254	0.482
582.27	0.5349
591.285	0.638
600.301	0.634
609.317	0.564
618.333	0.503
627.349	0.6559
636.365	0.776
645.38	0.803
654.396	0.781
663.412	0.721
672.428	0.733
681.444	0.767
690.459	0.773
699.475	0.713
708.491	0.634
717.507	0.609
726.523	0.636
735.538	0.68
744.554	0.793
753.57	0.843
762.586	0.825
771.602	0.802
780.617	0.836
789.633	0.872
798.649	0.882
807.665	0.883
816.681	0.89
825.696	0.892
834.712	0.889
843.728	0.841
852.744	0.755
861.76	0.595
870.775	0.402
879.791	0.25
888.807	0.226
897.823	0.283
906.839	0.36
915.854	0.465
924.87	0.568
933.886	0.636
942.902	0.692
951.918	0.692
960.934	0.633
969.949	0.747
978.965	0.822
987.981	0.848
996.997	0.861
1006.01	0.873
1015.03	0.819
1024.04	0.849
1033.06	0.832
1042.08	0.798
1051.09	0.733
1060.11	0.617
1069.12	0.4741
1078.14	0.341
1087.15	0.336
1096.17	0.329
1105.19	0.4451
1114.2	0.5101
1123.22	0.2181
1132.23	0.179
1141.25	0.23
1150.27	0.136
1159.28	0.1329
1168.3	0.278
1177.31	0.406
1186.33	0.489
1195.34	0.537
1204.36	0.3032
1213.38	0.2449
1222.39	0.407
1231.41	0.515
1240.42	0.583
1249.44	0.621
1258.46	0.662
1267.47	0.692
1276.49	0.711
1285.5	0.735
1294.52	0.754
1303.53	0.769
1312.55	0.778
1321.57	0.79
1330.58	0.802
1339.6	0.81
1348.61	0.82
1357.63	0.829
1366.64	0.834
1375.66	0.839
1384.68	0.844
1393.69	0.851
1402.71	0.856
1411.72	0.858
1420.74	0.858
1429.76	0.861
1438.77	0.861
1447.79	0.858
1456.8	0.856
1465.82	0.853
1474.83	0.865
1483.85	0.875
1492.87	0.877
1501.88	0.882
1510.9	0.885
1519.91	0.889
1528.93	0.894
1537.95	0.894
1546.96	0.89
1555.98	0.885
1564.99	0.878
1574.01	0.878
1583.02	0.88
1592.04	0.875
1601.06	0.872
1610.07	0.868
1619.09	0.854
1628.1	0.831
1637.12	0.783
1646.13	0.726
1655.15	0.699
1664.17	0.713
1673.18	0.699
1682.2	0.697
1691.21	0.715
1700.23	0.776
1709.25	0.829
1718.26	0.863
1727.28	0.878
1736.29	0.889
1745.31	0.899
1754.32	0.914
1763.34	0.923
1772.36	0.926
1781.37	0.931
1790.39	0.936
1799.4	0.94
1808.42	0.941
1817.44	0.941
1826.45	0.945
1835.47	0.947
1844.48	0.948
1853.5	0.948
1862.51	0.952
1871.53	0.952
1880.55	0.952
1889.56	0.953
1898.58	0.955
1907.59	0.955
1916.61	0.957
1925.62	0.96
1934.64	0.96
1943.66	0.96
1952.67	0.96
1961.69	0.962
1970.7	0.959
1979.72	0.957
1988.74	0.96
1997.75	0.955
2006.77	0.954
2015.78	0.9646
2024.8	0.965
2033.81	0.965
2042.83	0.965
2051.85	0.965
2060.86	0.964
2069.88	0.96
2078.89	0.957
2087.91	0.95
2096.93	0.9454
2105.94	0.94
2114.96	0.9408
2123.97	0.94
2132.99	0.9402
2142	0.941
2151.02	0.941
2160.04	0.941
2169.05	0.943
2178.07	0.943
2187.08	0.943
2196.1	0.943
2205.11	0.945
2214.13	0.947
2223.15	0.945
2232.16	0.945
2241.18	0.943
2250.19	0.943
2259.21	0.943
2268.23	0.941
2277.24	0.9406
2286.26	0.9368
2295.27	0.935
2304.29	0.935
2313.3	0.935
2322.32	0.935
2331.34	0.9356
2340.35	0.94
2349.37	0.94
2358.38	0.94
2367.4	0.94
2376.41	0.94
2385.43	0.9408
2394.45	0.9411
2403.46	0.943
2412.48	0.943
2421.49	0.943
2430.51	0.943
2439.53	0.943
2448.54	0.943
2457.56	0.943
2466.57	0.943
2475.59	0.943
2484.6	0.941
2493.62	0.9408
2502.64	0.94
2511.65	0.938
2520.67	0.938
2529.68	0.938
2538.7	0.938
2547.72	0.938
2556.73	0.94
2565.75	0.94
2574.76	0.94
2583.78	0.941
2592.79	0.941
2601.81	0.941
2610.83	0.943
2619.84	0.943
2628.86	0.943
2637.87	0.943
2646.89	0.943
2655.9	0.943
2664.92	0.943
2673.94	0.943
2682.95	0.943
2691.97	0.943
2700.98	0.941
2710	0.941
2719.02	0.94
2728.03	0.941
2737.05	0.94
2746.06	0.94
2755.08	0.938
2764.09	0.9375
2773.11	0.936
2782.13	0.9354
2791.14	0.933
2800.16	0.931
2809.17	0.928
2818.19	0.9235
2827.21	0.9183
2836.22	0.9123
2845.24	0.9015
2854.25	0.8525
2863.27	0.8583
2872.28	0.8727
2881.3	0.873
2890.32	0.8719
2899.33	0.8622
2908.35	0.8467
2917.36	0.8218
2926.38	0.7792
2935.39	0.7883
2944.41	0.8118
2953.43	0.819
2962.44	0.8123
2971.46	0.8129
2980.47	0.817
2989.49	0.8115
2998.51	0.8016
3007.52	0.7861
3016.54	0.7731
3025.55	0.7534
3034.57	0.7302
3043.58	0.7052
3052.6	0.678
3061.62	0.6621
3070.63	0.653
3079.65	0.6553
3088.66	0.6589
3097.68	0.6627
3106.7	0.667
3115.71	0.665
3124.73	0.662
3133.74	0.6591
3142.76	0.6523
3151.77	0.6434
3160.79	0.6327
3169.81	0.6182
3178.82	0.6027
3187.84	0.5846
3196.85	0.5619
3205.87	0.5364
3214.88	0.513
3223.9	0.4916
3232.92	0.4729
3241.93	0.4558
3250.95	0.4356
3259.96	0.4232
3268.98	0.413
3278	0.4076
3287.01	0.4042
3296.03	0.401
3305.04	0.3984
3314.06	0.395
3323.07	0.3926
3332.09	0.3891
3341.11	0.3829
3350.12	0.3777
3359.14	0.3725
3368.15	0.3552
3377.17	0.3298
3386.19	0.3241
3395.2	0.3334
3404.22	0.3445
3413.23	0.3504
3422.25	0.3539
3431.26	0.358
3440.28	0.3616
3449.3	0.3655
3458.31	0.3727
3467.33	0.378
3476.34	0.3821
3485.36	0.3929
3494.37	0.4005
3503.39	0.4095
3512.41	0.4255
3521.42	0.4358
3530.44	0.452
3539.45	0.4665
3548.47	0.4848
3557.49	0.5005
3566.5	0.5237
3575.52	0.5399
3584.53	0.5645
3593.55	0.5835
3602.56	0.611
3611.58	0.6279
3620.6	0.5641
3629.61	0.3535
3638.63	0.4075
3647.64	0.4437
3656.66	0.4977
3665.68	0.5484
3674.69	0.5685
3683.71	0.5906
3692.72	0.6096
3701.74	0.6224
3710.75	0.6319
3719.77	0.6406
3728.79	0.6496
3737.8	0.6557
3746.82	0.6621
3755.83	0.6679
3764.85	0.673
3773.86	0.6764
3782.88	0.679
3791.9	0.682
3800.91	0.684
3809.93	0.6865
3818.94	0.6904
3827.96	0.692
3836.98	0.694
3845.99	0.696
3855.01	0.697
3864.02	0.7004
3873.04	0.7028
3882.05	0.704
3891.07	0.704
3900.09	0.706
3909.1	0.706
3918.12	0.706
3927.13	0.706
3936.15	0.706
3945.17	0.706
3954.18	0.706
3963.2	0.706
3972.21	0.704
3981.23	0.703
3990.24	0.6999
3999.26	0.697
