Infrared Spectrum: Pyrimido[5,4-e]-as-triazin-5[6H]-one, 1,2-dihydro-
Formula: C5 H5 N5 O
State: SOLID (0.9 mg / 650 mg KBr DISC)
Class: COBLENTZ III
Instrument: PERKIN-ELMER 21 (GRATING)
Instrument parameters: FILTER CHANGE ABOUT 1090 CM^-^1
Sampling: TRANSMISSION
Resolution: 2
Origin: SOUTHERN RESEARCH INSTITUTE
1/CM	TRANSMITTANCE
603	0.7443
612	0.7234
621	0.7302
630	0.7203
639	0.4762
648	0.7148
657	0.8894
666	0.8645
675	0.8376
684	0.8324
693	0.8245
702	0.8229
711	0.7997
720	0.6987
729	0.5391
738	0.7122
747	0.7863
756	0.7774
765	0.7518
774	0.7128
783	0.499
792	0.541
801	0.7134
810	0.7036
819	0.6923
828	0.6801
837	0.6588
846	0.6416
855	0.586
864	0.5299
873	0.5022
882	0.4702
891	0.4517
900	0.454
909	0.4654
918	0.4707
927	0.5228
936	0.6479
945	0.6795
954	0.676
963	0.6683
972	0.6538
981	0.6183
990	0.5838
999	0.5495
1008	0.407
1017	0.3285
1026	0.3659
1035	0.6383
1044	0.6749
1053	0.5333
1062	0.4128
1071	0.4929
1080	0.6031
1089	0.7159
1098	0.7073
1107	0.6976
1116	0.6802
1125	0.6299
1134	0.5444
1143	0.5677
1152	0.6395
1161	0.583
1170	0.5837
1179	0.6912
1188	0.6837
1197	0.6604
1206	0.6279
1215	0.5318
1224	0.3585
1233	0.2669
1242	0.3811
1251	0.6424
1260	0.7259
1269	0.718
1278	0.6987
1287	0.6862
1296	0.6615
1305	0.5164
1314	0.468
1323	0.5951
1332	0.3976
1341	0.4581
1350	0.6012
1359	0.7061
1368	0.6947
1377	0.6619
1386	0.5321
1395	0.6298
1404	0.5952
1413	0.4817
1422	0.5434
1431	0.6711
1440	0.6825
1449	0.6713
1458	0.6468
1467	0.5928
1476	0.5303
1485	0.5329
1494	0.652
1503	0.6354
1512	0.6016
1521	0.5917
1530	0.5927
1539	0.5369
1548	0.5105
1557	0.4898
1566	0.5335
1575	0.4877
1584	0.4046
1593	0.3885
1602	0.4847
1611	0.4698
1620	0.3989
1629	0.3173
1638	0.2078
1647	0.1657
1656	0.2145
1665	0.2511
1674	0.1356
1683	0.0631
1692	0.0363
1701	0.0457
1710	0.1665
1719	0.3208
1728	0.4752
1737	0.5824
1746	0.6007
1755	0.6135
1764	0.6423
1773	0.7058
1782	0.7213
1791	0.7433
1800	0.7618
1809	0.7744
1818	0.7815
1827	0.7766
1836	0.7782
1845	0.7802
1854	0.7755
1863	0.7814
1872	0.7855
1881	0.7835
1890	0.7816
1899	0.7691
1908	0.763
1917	0.7558
1926	0.7535
1935	0.7545
1944	0.7557
1953	0.7583
1962	0.7649
1971	0.7676
1980	0.7726
1989	0.7733
1998	0.7697
2007	0.7682
2016	0.7713
2025	0.7642
2034	0.7614
2043	0.7593
2052	0.7577
2061	0.7559
2070	0.7545
2079	0.754
2088	0.7548
2097	0.7556
2106	0.7547
2115	0.7525
2124	0.7493
2133	0.7524
2142	0.7518
2151	0.7498
2160	0.7463
2169	0.7416
2178	0.7399
2187	0.7381
2196	0.7362
2205	0.7342
2214	0.7321
2223	0.7302
2232	0.7285
2241	0.7251
2250	0.7223
2259	0.7217
2268	0.7205
2277	0.7162
2286	0.7094
2295	0.7051
2304	0.7035
2313	0.6992
2322	0.6967
2331	0.6982
2340	0.693
2349	0.6835
2358	0.684
2367	0.6886
2376	0.6865
2385	0.6855
2394	0.6826
2403	0.6754
2412	0.6712
2421	0.6669
2430	0.6646
2439	0.653
2448	0.6473
2457	0.6417
2466	0.6339
2475	0.6309
2484	0.6266
2493	0.6173
2502	0.6084
2511	0.6067
2520	0.6023
2529	0.5886
2538	0.5852
2547	0.5769
2556	0.5679
2565	0.5398
2574	0.5223
2583	0.5145
2592	0.5017
2601	0.4948
2610	0.487
2619	0.4805
2628	0.4804
2637	0.4802
2646	0.4705
2655	0.459
2664	0.4573
2673	0.4556
2682	0.4416
2691	0.4395
2700	0.437
2709	0.433
2718	0.4201
2727	0.4053
2736	0.4022
2745	0.389
2754	0.368
2763	0.3507
2772	0.3449
2781	0.3432
2790	0.332
2799	0.3201
2808	0.3142
2817	0.3158
2826	0.3173
2835	0.3177
2844	0.3266
2853	0.3354
2862	0.3382
2871	0.3447
2880	0.3472
2889	0.3624
2898	0.38
2907	0.3866
2916	0.3862
2925	0.3857
2934	0.3859
2943	0.3934
2952	0.4036
2961	0.4019
2970	0.3813
2979	0.3669
2988	0.3487
2997	0.3357
3006	0.3064
3015	0.2745
3024	0.2667
3033	0.2741
3042	0.2944
3051	0.2966
3060	0.2797
3069	0.2597
3078	0.2569
3087	0.2593
3096	0.2649
3105	0.2774
3114	0.3047
3123	0.3436
3132	0.3795
3141	0.4133
3150	0.4338
3159	0.4628
3168	0.4733
3177	0.495
3186	0.5049
3195	0.5056
3204	0.4962
3213	0.4679
3222	0.4303
3231	0.406
3240	0.4084
3249	0.4396
3258	0.4755
3267	0.5038
3276	0.554
3285	0.5706
3294	0.5897
3303	0.6009
3312	0.6091
3321	0.6095
3330	0.6059
3339	0.5975
3348	0.5868
3357	0.5837
3366	0.5807
3375	0.5733
3384	0.5649
3393	0.5599
3402	0.5613
3411	0.5628
3420	0.5687
3429	0.5726
3438	0.5742
3447	0.574
3456	0.5716
3465	0.582
3474	0.5904
3483	0.6053
3492	0.6182
3501	0.6261
3510	0.627
3519	0.6348
3528	0.6431
3537	0.6485
3546	0.6481
3555	0.6563
3564	0.6686
3573	0.6758
3582	0.6848
3591	0.691
3600	0.694
3609	0.6953
3618	0.6917
3627	0.6886
3636	0.6906
3645	0.6924
3654	0.6938
3663	0.6957
3672	0.6974
3681	0.6984
3690	0.7003
3699	0.6975
3708	0.6924
3717	0.6908
3726	0.6962
3735	0.6972
3744	0.6982
3753	0.7001
3762	0.6997
3771	0.6954
3780	0.6883
3789	0.6873
3798	0.6869
3807	0.6868
3816	0.6845
3825	0.6824
3834	0.6872
3843	0.6932
3852	0.693
3861	0.6917
3870	0.6876
3879	0.6809
3888	0.6754
3897	0.6759
3906	0.6768
3915	0.6762
3924	0.6741
3933	0.6722
3942	0.6765
3951	0.6713
3960	0.6687
3969	0.6693
3978	0.6699
3987	0.6692
3996	0.6594
