Infrared Spectrum: BUTYLATED HYDROXYANISOL (BHA)
Formula: C11 H16 O2
State: SOLID (KBr PELLET)
Class: COBLENTZ
Instrument: PERKIN-ELMER
Sampling: TRANSMISSION
Resolution: 4
Origin: HORMEL INSTITUTE
MICROMETERS	TRANSMITTANCE
2.041	0.95
2.0748	0.952
2.1086	0.945
2.1424	0.944
2.1762	0.944
2.21	0.945
2.2438	0.942
2.2776	0.923
2.3114	0.92
2.34519	0.922
2.37899	0.923
2.41279	0.923
2.44659	0.92
2.48039	0.92
2.51419	0.92
2.54799	0.925
2.58179	0.927
2.61559	0.932
2.64939	0.937
2.68319	0.938
2.71699	0.932
2.75079	0.903
2.78459	0.828
2.81839	0.679
2.85219	0.515
2.88599	0.396
2.91979	0.22
2.95358	0.094
2.98738	0.161
3.02118	0.32
3.05498	0.469
3.08878	0.61
3.12258	0.698
3.15638	0.761
3.19018	0.8
3.22398	0.82
3.25778	0.832
3.29158	0.815
3.32538	0.672
3.35918	0.493
3.39298	0.198
3.42678	0.325
3.46058	0.43
3.49438	0.461
3.52818	0.632
3.56197	0.783
3.59577	0.849
3.62957	0.871
3.66337	0.879
3.69717	0.876
3.73097	0.864
3.76477	0.877
3.79857	0.888
3.83237	0.891
3.86617	0.891
3.89997	0.889
3.93377	0.874
3.96757	0.871
4.00137	0.879
4.03517	0.881
4.06897	0.884
4.10277	0.879
4.13657	0.886
4.17036	0.894
4.20416	0.894
4.23796	0.894
4.27176	0.896
4.30556	0.9
4.33936	0.913
4.37316	0.911
4.40696	0.913
4.44076	0.92
4.47456	0.92
4.50836	0.92
4.54216	0.918
4.57596	0.915
4.60976	0.911
4.64356	0.918
4.67736	0.91
4.71116	0.908
4.74496	0.908
4.77875	0.908
4.81255	0.91
4.84635	0.891
4.88015	0.877
4.91395	0.886
4.94775	0.879
4.98155	0.883
5.01535	0.893
5.04915	0.903
5.08295	0.901
5.11675	0.898
5.15055	0.903
5.18435	0.905
5.21815	0.91
5.25195	0.903
5.28575	0.91
5.31955	0.91
5.35335	0.905
5.38714	0.876
5.42094	0.855
5.45474	0.888
5.48854	0.896
5.52234	0.901
5.55614	0.901
5.58994	0.894
5.62374	0.894
5.65754	0.9
5.69134	0.898
5.72514	0.891
5.75894	0.879
5.79274	0.881
5.82654	0.876
5.86034	0.859
5.89414	0.874
5.92794	0.877
5.96174	0.869
5.99553	0.857
6.02933	0.844
6.06313	0.82
6.09693	0.767
6.13073	0.735
6.16453	0.703
6.19833	0.566
6.23213	0.574
6.26593	0.583
6.29973	0.625
6.33353	0.752
6.36733	0.81
6.40113	0.82
6.43493	0.813
6.46873	0.796
6.50253	0.772
6.53633	0.738
6.57013	0.584
6.60392	0.152
6.63772	0.052
6.67152	0.166
6.70532	0.277
6.73912	0.32
6.77292	0.315
6.80672	0.138
6.84052	0.262
6.87432	0.252
6.90812	0.364
6.94192	0.444
6.97572	0.371
7.00952	0.166
7.04332	0.061
7.07712	0.101
7.11092	0.34
7.14472	0.535
7.17852	0.369
7.21231	0.652
7.24611	0.666
7.27991	0.511
7.31371	0.252
7.34751	0.337
7.38131	0.42
7.41511	0.381
7.44891	0.44
7.48271	0.552
7.51651	0.618
7.55031	0.661
7.58411	0.679
7.61791	0.689
7.65171	0.689
7.68551	0.64
7.71931	0.464
7.75311	0.296
7.78691	0.33
7.8207	0.313
7.8545	0.403
7.8883	0.523
7.9221	0.562
7.9559	0.472
7.9897	0.313
8.0235	0.41
8.0573	0.418
8.0911	0.291
8.1249	0.12
8.1587	0.04
8.1925	0.059
8.2263	0.062
8.2601	0.03
8.2939	0.013
8.3277	0.008
8.3615	0.011
8.3953	0.032
8.42909	0.113
8.46289	0.118
8.49669	0.172
8.53049	0.281
8.56429	0.4
8.59809	0.474
8.63189	0.549
8.66569	0.581
8.69949	0.596
8.73329	0.561
8.76709	0.505
8.80089	0.444
8.83469	0.608
8.86849	0.693
8.90229	0.733
8.93609	0.745
8.96989	0.754
9.00369	0.762
9.03748	0.766
9.07128	0.767
9.10508	0.766
9.13888	0.75
9.17268	0.693
9.20648	0.644
9.24028	0.598
9.27408	0.505
9.30788	0.466
9.34168	0.667
9.37548	0.715
9.40928	0.671
9.44308	0.544
9.47688	0.444
9.51068	0.394
9.54448	0.386
9.57828	0.377
9.61208	0.315
9.64587	0.152
9.67967	0.111
9.71347	0.233
9.74727	0.342
9.78107	0.301
9.81487	0.381
9.84867	0.545
9.88247	0.644
9.91627	0.706
9.95007	0.742
9.98387	0.766
10.0177	0.793
10.0515	0.811
10.0853	0.822
10.1191	0.832
10.1529	0.84
10.1867	0.844
10.2205	0.85
10.2543	0.859
10.2881	0.861
10.3219	0.864
10.3557	0.862
10.3895	0.862
10.4233	0.864
10.4571	0.867
10.4909	0.864
10.5247	0.857
10.5585	0.852
10.5923	0.845
10.6261	0.832
10.6599	0.8
10.6937	0.738
10.7275	0.681
10.7613	0.681
10.7951	0.733
10.8289	0.762
10.8627	0.742
10.8965	0.552
10.9303	0.427
10.9641	0.588
10.9979	0.705
11.0317	0.757
11.0655	0.801
11.0993	0.822
11.133	0.84
11.1668	0.85
11.2006	0.85
11.2344	0.844
11.2682	0.833
11.302	0.813
11.3358	0.788
11.3696	0.737
11.4034	0.691
11.4372	0.679
11.471	0.684
11.5048	0.708
11.5386	0.722
11.5724	0.722
11.6062	0.655
11.64	0.474
11.6738	0.306
11.7076	0.413
11.7414	0.659
11.7752	0.761
11.809	0.8
11.8428	0.818
11.8766	0.832
11.9104	0.833
11.9442	0.832
11.978	0.822
12.0118	0.81
12.0456	0.794
12.0794	0.764
12.1132	0.698
12.147	0.561
12.1808	0.344
12.2146	0.189
12.2484	0.145
12.2822	0.24
12.316	0.432
12.3498	0.479
12.3836	0.491
12.4174	0.493
12.4512	0.498
12.485	0.53
12.5188	0.589
12.5526	0.65
12.5864	0.71
12.6202	0.75
12.654	0.757
12.6878	0.761
12.7216	0.75
12.7554	0.73
12.7892	0.686
12.823	0.581
12.8568	0.447
12.8906	0.266
12.9244	0.201
12.9582	0.284
12.992	0.288
13.0258	0.247
13.0596	0.364
13.0934	0.438
13.1272	0.53
13.161	0.549
13.1948	0.501
13.2286	0.462
13.2624	0.455
13.2962	0.488
13.33	0.559
13.3638	0.586
13.3976	0.608
13.4314	0.644
13.4652	0.7
13.499	0.718
13.5328	0.72
13.5666	0.706
13.6004	0.716
13.6342	0.75
13.668	0.771
13.7018	0.783
13.7356	0.794
13.7694	0.801
13.8032	0.81
13.837	0.813
13.8708	0.816
13.9046	0.818
13.9384	0.818
13.9722	0.815
14.006	0.813
14.0398	0.813
14.0736	0.808
14.1074	0.805
14.1412	0.801
14.175	0.803
14.2088	0.8
14.2426	0.794
14.2764	0.783
14.3102	0.771
14.344	0.752
14.3778	0.72
14.4116	0.698
14.4454	0.698
14.4792	0.718
14.513	0.733
14.5468	0.735
14.5806	0.713
14.6144	0.645
14.6482	0.561
14.682	0.55
14.7158	0.622
14.7496	0.681
14.7834	0.722
14.8172	0.738
14.851	0.745
14.8848	0.752
14.9186	0.75
14.9524	0.747
14.9862	0.747
15.02	0.762
15.0538	0.759
15.0876	0.747
15.1214	0.745
15.1552	0.742
15.189	0.742
15.2228	0.735
15.2566	0.733
15.2904	0.728
15.3242	0.723
15.358	0.716
