Infrared Spectrum: 2-(m-CARBOMETHOXY PHENOXY)-3-METHYL PYRAZINE
Formula: C13 H12 N2 O3
State: SOLID (MINERAL OIL MULL)
Melting point: 74.5 C
Class: COBLENTZ
Instrument: Not specified, most likely a prism, grating, or hybrid spectrometer.
Sampling: TRANSMISSION
Resolution: 4
Origin: WYANDOTTE CHEMICALS CORP., WYANDOTTE, MICHIGAN, USA
MICROMETERS	TRANSMITTANCE
2.02	0.791
2.06092	0.798
2.10184	0.803
2.14275	0.808
2.18367	0.803
2.22459	0.801
2.26551	0.806
2.30642	0.827
2.34734	0.823
2.38826	0.825
2.42918	0.839
2.4701	0.837
2.51101	0.846
2.55193	0.849
2.59285	0.856
2.63377	0.859
2.67468	0.861
2.7156	0.863
2.75652	0.863
2.79744	0.852
2.83836	0.846
2.87927	0.839
2.92019	0.823
2.96111	0.822
3.00203	0.822
3.04294	0.818
3.08386	0.82
3.12478	0.813
3.1657	0.813
3.20662	0.808
3.24753	0.755
3.28845	0.75
3.32937	0.547
3.37029	0.143
3.4112	0.129
3.45212	0.288
3.49304	0.285
3.53396	0.635
3.57488	0.817
3.61579	0.847
3.65671	0.854
3.69763	0.856
3.73855	0.876
3.77946	0.878
3.82038	0.888
3.8613	0.894
3.90222	0.902
3.94314	0.909
3.98405	0.912
4.02497	0.907
4.06589	0.909
4.10681	0.899
4.14772	0.9
4.18864	0.904
4.22956	0.895
4.27048	0.895
4.3114	0.926
4.35231	0.938
4.39323	0.941
4.43415	0.933
4.47507	0.936
4.51598	0.941
4.5569	0.948
4.59782	0.948
4.63874	0.941
4.67966	0.943
4.72057	0.948
4.76149	0.953
4.80241	0.97
4.84333	0.967
4.88424	0.969
4.92516	0.972
4.96608	0.976
5.007	0.981
5.04792	0.977
5.08883	0.982
5.12975	0.972
5.17067	0.97
5.21159	0.972
5.2525	0.974
5.29342	0.974
5.33434	0.991
5.37526	0.986
5.41618	0.989
5.45709	0.982
5.49801	0.981
5.53893	0.965
5.57985	0.941
5.62076	0.935
5.66168	0.941
5.7026	0.883
5.74352	0.504
5.78444	0.305
5.82535	0.741
5.86627	0.805
5.90719	0.829
5.94811	0.815
5.98902	0.844
6.02994	0.846
6.07086	0.851
6.11178	0.868
6.1527	0.871
6.19361	0.825
6.23453	0.562
6.27545	0.687
6.31637	0.847
6.35728	0.875
6.3982	0.866
6.43912	0.711
6.48004	0.536
6.52096	0.813
6.56187	0.878
6.60279	0.842
6.64371	0.784
6.68463	0.56
6.72554	0.519
6.76646	0.552
6.80738	0.398
6.8483	0.37
6.88922	0.198
6.93013	0.247
6.97105	0.401
7.01197	0.343
7.05289	0.247
7.0938	0.121
7.13472	0.158
7.17564	0.422
7.21656	0.48
7.25747	0.374
7.29839	0.63
7.33931	0.76
7.38023	0.793
7.42115	0.791
7.46206	0.752
7.50298	0.652
7.5439	0.555
7.58482	0.432
7.62573	0.251
7.66665	0.104
7.70757	0.095
7.74849	0.14
7.78941	0.232
7.83032	0.41
7.87124	0.083
7.91216	0.246
7.95308	0.468
7.99399	0.533
8.03491	0.611
8.07583	0.656
8.11675	0.641
8.15767	0.476
8.19858	0.379
8.2395	0.136
8.28042	0.259
8.32134	0.43
8.36225	0.601
8.40317	0.659
8.44409	0.569
8.48501	0.367
8.52593	0.613
8.56684	0.376
8.60776	0.229
8.64868	0.249
8.6896	0.47
8.73051	0.629
8.77143	0.695
8.81235	0.735
8.85327	0.743
8.89419	0.753
8.9351	0.776
8.97602	0.777
9.01694	0.767
9.05786	0.61
9.09877	0.576
9.13969	0.705
9.18061	0.593
9.22153	0.294
9.26245	0.458
9.30336	0.647
9.34428	0.704
9.3852	0.75
9.42612	0.767
9.46703	0.779
9.50795	0.791
9.54887	0.791
9.58979	0.786
9.63071	0.774
9.67162	0.758
9.71254	0.762
9.75346	0.77
9.79438	0.788
9.83529	0.782
9.87621	0.789
9.91713	0.786
9.95805	0.719
9.99897	0.743
10.0399	0.74
10.0808	0.738
10.1217	0.704
10.1626	0.529
10.2036	0.264
10.2445	0.335
10.2854	0.492
10.3263	0.606
10.3672	0.656
10.4081	0.697
10.4491	0.729
10.49	0.75
10.5309	0.767
10.5718	0.772
10.6127	0.784
10.6537	0.786
10.6946	0.786
10.7355	0.705
10.7764	0.7
10.8173	0.782
10.8582	0.818
10.8992	0.827
10.9401	0.834
10.981	0.841
11.0219	0.851
11.0628	0.859
11.1037	0.851
11.1447	0.834
11.1856	0.724
11.2265	0.441
11.2674	0.729
11.3083	0.834
11.3493	0.861
11.3902	0.868
11.4311	0.856
11.472	0.825
11.5129	0.745
11.5538	0.74
11.5948	0.764
11.6357	0.591
11.6766	0.502
11.7175	0.758
11.7584	0.851
11.7993	0.897
11.8403	0.909
11.8812	0.909
11.9221	0.919
11.963	0.923
12.0039	0.928
12.0449	0.919
12.0858	0.928
12.1267	0.924
12.1676	0.933
12.2085	0.919
12.2494	0.902
12.2904	0.852
12.3313	0.777
12.3722	0.81
12.4131	0.851
12.454	0.876
12.4949	0.745
12.5359	0.475
12.5768	0.694
12.6177	0.847
12.6586	0.885
12.6995	0.895
12.7405	0.876
12.7814	0.772
12.8223	0.707
12.8632	0.82
12.9041	0.875
12.945	0.883
12.986	0.89
13.0269	0.87
13.0678	0.8
13.1087	0.716
13.1496	0.779
13.1906	0.837
13.2315	0.846
13.2724	0.813
13.3133	0.745
13.3542	0.582
13.3951	0.432
13.4361	0.273
13.477	0.208
13.5179	0.362
13.5588	0.569
13.5997	0.726
13.6406	0.82
13.6816	0.866
13.7225	0.885
13.7634	0.897
13.8043	0.907
13.8452	0.911
13.8862	0.912
13.9271	0.911
13.968	0.921
14.0089	0.929
14.0498	0.929
14.0907	0.935
14.1317	0.938
14.1726	0.943
14.2135	0.938
14.2544	0.943
14.2953	0.935
14.3362	0.933
14.3772	0.929
14.4181	0.929
14.459	0.919
14.4999	0.904
14.5408	0.849
14.5818	0.743
14.6227	0.658
14.6636	0.668
14.7045	0.776
14.7454	0.849
14.7863	0.861
14.8273	0.83
14.8682	0.791
14.9091	0.755
14.95	0.738
14.9909	0.747
15.0319	0.77
15.0728	0.813
15.1137	0.861
15.1546	0.89
15.1955	0.89
15.2364	0.888
15.2774	0.875
15.3183	0.863
15.3592	0.868
15.4001	0.864
15.441	0.861
15.4819	0.851
15.5229	0.842
15.5638	0.834
15.6047	0.825
15.6456	0.823
15.6865	0.817
15.7275	0.81
15.7684	0.8
15.8093	0.779
15.8502	0.776
15.8911	0.772
15.932	0.77
15.973	0.765
