Infrared Spectrum: CHLOROACETYL FERROCENE
Formula: C12 H11 Cl Fe O
State: SOLID (MINERAL OIL MULL)
Class: COBLENTZ
Instrument: Not specified, most likely a prism, grating, or hybrid spectrometer.
Sampling: TRANSMISSION
Resolution: 4
Origin: WYANDOTTE CHEMICALS CORP., WYANDOTTE, MICHIGAN, USA
MICROMETERS	TRANSMITTANCE
2.007	0.402
2.0478	0.408
2.08859	0.415
2.12939	0.422
2.17019	0.427
2.21099	0.429
2.25178	0.432
2.29258	0.441
2.33338	0.446
2.37417	0.451
2.41497	0.475
2.45577	0.47
2.49656	0.466
2.53736	0.483
2.57816	0.5
2.61896	0.499
2.65975	0.514
2.70055	0.519
2.74135	0.517
2.78214	0.521
2.82294	0.524
2.86374	0.519
2.90454	0.516
2.94533	0.521
2.98613	0.509
3.02693	0.504
3.06772	0.517
3.10852	0.516
3.14932	0.514
3.19012	0.5
3.23091	0.442
3.27171	0.456
3.31251	0.431
3.3533	0.189
3.3941	0.083
3.4349	0.074
3.47569	0.163
3.51649	0.153
3.55729	0.505
3.59809	0.642
3.63888	0.672
3.67968	0.667
3.72048	0.669
3.76127	0.667
3.80207	0.681
3.84287	0.686
3.88367	0.693
3.92446	0.703
3.96526	0.712
4.00606	0.713
4.04685	0.718
4.08765	0.71
4.12845	0.713
4.16925	0.724
4.21004	0.727
4.25084	0.727
4.29164	0.718
4.33243	0.727
4.37323	0.737
4.41403	0.761
4.45482	0.763
4.49562	0.761
4.53642	0.763
4.57722	0.773
4.61801	0.78
4.65881	0.78
4.69961	0.788
4.7404	0.8
4.7812	0.821
4.822	0.816
4.8628	0.817
4.90359	0.821
4.94439	0.819
4.98519	0.833
5.02598	0.834
5.06678	0.838
5.10758	0.841
5.14838	0.844
5.18917	0.843
5.22997	0.846
5.27077	0.851
5.31156	0.865
5.35236	0.87
5.39316	0.865
5.43395	0.867
5.47475	0.873
5.51555	0.86
5.55635	0.856
5.59714	0.855
5.63794	0.834
5.67874	0.821
5.71953	0.814
5.76033	0.816
5.80113	0.797
5.84193	0.708
5.88272	0.568
5.92352	0.293
5.96432	0.122
6.00511	0.39
6.04591	0.524
6.08671	0.596
6.12751	0.718
6.1683	0.773
6.2091	0.792
6.2499	0.816
6.29069	0.824
6.33149	0.831
6.37229	0.829
6.41308	0.841
6.45388	0.831
6.49468	0.839
6.53548	0.836
6.57627	0.848
6.61707	0.846
6.65787	0.826
6.69866	0.8
6.73946	0.739
6.78026	0.567
6.82106	0.327
6.86185	0.19
6.90265	0.308
6.94345	0.504
6.98424	0.676
7.02504	0.705
7.06584	0.55
7.10664	0.299
7.14743	0.477
7.18823	0.649
7.22903	0.514
7.26982	0.408
7.31062	0.62
7.35142	0.691
7.39221	0.686
7.43301	0.693
7.47381	0.722
7.51461	0.78
7.5554	0.766
7.5962	0.638
7.637	0.536
7.67779	0.659
7.71859	0.764
7.75939	0.79
7.80019	0.819
7.84098	0.831
7.88178	0.836
7.92258	0.829
7.96337	0.766
8.00417	0.657
8.04497	0.267
8.08577	0.19
8.12656	0.468
8.16736	0.626
8.20816	0.671
8.24895	0.727
8.28975	0.754
8.33055	0.766
8.37134	0.781
8.41214	0.785
8.45294	0.781
8.49374	0.771
8.53453	0.708
8.57533	0.742
8.61613	0.787
8.65692	0.8
8.69772	0.81
8.73852	0.833
8.77932	0.85
8.82011	0.856
8.86091	0.86
8.90171	0.851
8.9425	0.85
8.9833	0.831
9.0241	0.672
9.0649	0.637
9.10569	0.766
9.14649	0.795
9.18729	0.79
9.22808	0.771
9.26888	0.703
9.30968	0.524
9.35047	0.313
9.39127	0.42
9.43207	0.546
9.47287	0.603
9.51366	0.655
9.55446	0.718
9.59526	0.729
9.63605	0.669
9.67685	0.432
9.71765	0.546
9.75845	0.701
9.79924	0.749
9.84004	0.764
9.88084	0.778
9.92163	0.727
9.96243	0.536
10.0032	0.473
10.044	0.536
10.0848	0.655
10.1256	0.746
10.1664	0.775
10.2072	0.788
10.248	0.792
10.2888	0.792
10.3296	0.793
10.3704	0.797
10.4112	0.804
10.452	0.809
10.4928	0.809
10.5336	0.812
10.5744	0.809
10.6152	0.81
10.656	0.809
10.6968	0.8
10.7376	0.79
10.7784	0.781
10.8192	0.773
10.86	0.747
10.9008	0.696
10.9416	0.701
10.9824	0.739
11.0232	0.768
11.064	0.778
11.1047	0.781
11.1455	0.741
11.1863	0.609
11.2271	0.536
11.2679	0.62
11.3087	0.727
11.3495	0.763
11.3903	0.792
11.4311	0.797
11.4719	0.797
11.5127	0.78
11.5535	0.778
11.5943	0.787
11.6351	0.775
11.6759	0.759
11.7167	0.766
11.7575	0.77
11.7983	0.766
11.8391	0.752
11.8799	0.7
11.9207	0.594
11.9615	0.439
12.0023	0.485
12.0431	0.599
12.0839	0.562
12.1247	0.444
12.1655	0.32
12.2063	0.241
12.2471	0.379
12.2879	0.524
12.3287	0.623
12.3695	0.671
12.4103	0.681
12.4511	0.693
12.4918	0.713
12.5326	0.724
12.5734	0.741
12.6142	0.742
12.655	0.727
12.6958	0.654
12.7366	0.565
12.7774	0.488
12.8182	0.444
12.859	0.487
12.8998	0.545
12.9406	0.632
12.9814	0.693
13.0222	0.741
13.063	0.764
13.1038	0.78
13.1446	0.8
13.1854	0.809
13.2262	0.824
13.267	0.831
13.3078	0.834
13.3486	0.839
13.3894	0.839
13.4302	0.839
13.471	0.838
13.5118	0.839
13.5526	0.836
13.5934	0.836
13.6342	0.829
13.675	0.812
13.7158	0.783
13.7566	0.749
13.7974	0.669
13.8382	0.531
13.879	0.357
13.9197	0.306
13.9605	0.352
14.0013	0.475
14.0421	0.565
14.0829	0.65
14.1237	0.698
14.1645	0.729
14.2053	0.763
14.2461	0.792
14.2869	0.798
14.3277	0.819
14.3685	0.821
14.4093	0.824
14.4501	0.834
14.4909	0.833
14.5317	0.838
14.5725	0.836
14.6133	0.833
14.6541	0.829
14.6949	0.821
14.7357	0.821
14.7765	0.812
14.8173	0.812
14.8581	0.805
14.8989	0.8
14.9397	0.792
14.9805	0.788
15.0213	0.77
15.0621	0.729
15.1029	0.678
15.1437	0.672
15.1845	0.698
15.2253	0.717
15.2661	0.729
15.3068	0.734
15.3476	0.73
15.3884	0.73
15.4292	0.718
15.47	0.701
15.5108	0.683
15.5516	0.672
15.5924	0.654
15.6332	0.64
15.674	0.637
15.7148	0.632
15.7556	0.632
15.7964	0.633
15.8372	0.628
15.878	0.628
15.9188	0.621
15.9596	0.618
