Infrared Spectrum: Benzenesulfonic acid, trimethylphenylammonium salt
Formula: C15 H19 N O3 S
State: SOLID (KBr DISC)
Class: COBLENTZ III
Instrument: BECKMAN IR-4 (HYBRID PRISM-GRATING)
Sampling: TRANSMISSION
Resolution: 2
Origin: UNIVERSITY OF FLORIDA
1/CM	TRANSMITTANCE
669	0.7019
678	0.6584
687	0.3714
696	0.489
705	0.7296
714	0.7395
723	0.5555
732	0.5826
741	0.7971
750	0.4114
759	0.6844
768	0.5759
777	0.8173
786	0.8428
795	0.8415
804	0.8429
813	0.8403
822	0.8317
831	0.8282
840	0.7956
849	0.6688
858	0.8037
867	0.8238
876	0.8254
885	0.8215
894	0.8118
903	0.8027
912	0.7807
921	0.7307
930	0.7628
939	0.7212
948	0.6023
957	0.6005
966	0.6798
975	0.7431
984	0.7293
993	0.6664
1002	0.6407
1011	0.6386
1020	0.3795
1029	0.6732
1038	0.3811
1047	0.7389
1056	0.7594
1065	0.7195
1074	0.6876
1083	0.7314
1092	0.6981
1101	0.649
1110	0.6122
1119	0.4861
1128	0.3341
1137	0.5265
1146	0.5475
1155	0.5697
1164	0.4769
1173	0.3664
1182	0.2728
1191	0.1882
1200	0.2008
1209	0.2827
1218	0.2368
1227	0.2244
1236	0.3177
1245	0.4226
1254	0.514
1263	0.5936
1272	0.6461
1281	0.6771
1290	0.7023
1299	0.706
1308	0.7044
1317	0.7284
1326	0.7522
1335	0.7558
1344	0.7652
1353	0.7795
1362	0.787
1371	0.7937
1380	0.7973
1389	0.7906
1398	0.7908
1407	0.7904
1416	0.7825
1425	0.6971
1434	0.6661
1443	0.6995
1452	0.5206
1461	0.5707
1470	0.5613
1479	0.579
1488	0.5189
1497	0.5405
1506	0.5167
1515	0.4951
1524	0.5876
1533	0.6293
1542	0.7013
1551	0.7187
1560	0.7344
1569	0.7573
1578	0.7673
1587	0.7603
1596	0.7041
1605	0.7018
1614	0.7306
1623	0.747
1632	0.7653
1641	0.7733
1650	0.778
1659	0.7792
1668	0.7806
1677	0.7824
1686	0.7831
1695	0.7828
1704	0.7819
1713	0.7804
1722	0.7777
1731	0.7735
1740	0.7707
1749	0.7693
1758	0.7661
1767	0.7594
1776	0.7514
1785	0.7511
1794	0.7546
1803	0.7589
1812	0.7601
1821	0.7598
1830	0.7597
1839	0.7596
1848	0.7604
1857	0.7616
1866	0.7628
1875	0.763
1884	0.762
1893	0.7578
1902	0.7511
1911	0.7457
1920	0.7448
1929	0.7503
1938	0.7578
1947	0.7586
1956	0.7547
1965	0.7479
1974	0.7424
1983	0.74
1992	0.7422
2001	0.7475
2010	0.7514
2019	0.7544
2028	0.7553
2037	0.7551
2046	0.7549
2055	0.7548
2064	0.7546
2073	0.7541
2082	0.7536
2091	0.7521
2100	0.7506
2109	0.7497
2118	0.749
2127	0.7483
2136	0.7475
2145	0.7468
2154	0.7459
2163	0.7443
2172	0.7426
2181	0.7408
2190	0.738
2199	0.7351
2208	0.7322
2217	0.7293
2226	0.7268
2235	0.7245
2244	0.7226
2253	0.7218
2262	0.7212
2271	0.7204
2280	0.72
2289	0.7199
2298	0.7199
2307	0.7199
2316	0.7198
2325	0.7198
2334	0.7197
2343	0.7197
2352	0.7193
2361	0.7187
2370	0.7181
2379	0.7176
2388	0.7164
2397	0.7151
2406	0.7138
2415	0.7125
2424	0.7109
2433	0.7093
2442	0.7078
2451	0.7061
2460	0.7046
2469	0.7033
2478	0.702
2487	0.7006
2496	0.6993
2505	0.6979
2514	0.6963
2523	0.6948
2532	0.6941
2541	0.6938
2550	0.6938
2559	0.6936
2568	0.6929
2577	0.6905
2586	0.6877
2595	0.6877
2604	0.688
2613	0.6881
2622	0.6882
2631	0.6882
2640	0.688
2649	0.6873
2658	0.6865
2667	0.6857
2676	0.6848
2685	0.6835
2694	0.6821
2703	0.6808
2712	0.6795
2721	0.6782
2730	0.6769
2739	0.6755
2748	0.6742
2757	0.6728
2766	0.6715
2775	0.6701
2784	0.6687
2793	0.6674
2802	0.6661
2811	0.665
2820	0.664
2829	0.6628
2838	0.6617
2847	0.6579
2856	0.6533
2865	0.649
2874	0.6456
2883	0.6424
2892	0.6398
2901	0.6371
2910	0.6341
2919	0.6295
2928	0.6234
2937	0.6173
2946	0.6095
2955	0.6074
2964	0.6075
2973	0.6079
2982	0.6084
2991	0.6089
3000	0.6082
3009	0.5944
3018	0.5682
3027	0.5387
3036	0.5152
3045	0.4942
3054	0.4814
3063	0.4753
3072	0.4747
3081	0.4772
3090	0.4932
3099	0.5103
3108	0.5227
3117	0.5357
3126	0.5415
3135	0.5453
3144	0.5866
3153	0.6035
3162	0.6071
3171	0.6108
3180	0.6144
3189	0.6168
3198	0.6189
3207	0.621
3216	0.6231
3225	0.6245
3234	0.6258
3243	0.6271
3252	0.6284
3261	0.6293
3270	0.6298
3279	0.6304
3288	0.6309
3297	0.6315
3306	0.6319
3315	0.6321
3324	0.6323
3333	0.6324
3342	0.6326
3351	0.6327
3360	0.6324
3369	0.6314
3378	0.6305
3387	0.6295
3396	0.6285
3405	0.6271
3414	0.6255
3423	0.6238
3432	0.6221
3441	0.6205
3450	0.6189
3459	0.6176
3468	0.6167
3477	0.616
3486	0.6151
3495	0.6144
3504	0.6136
3513	0.6128
3522	0.6121
3531	0.6121
3540	0.6119
3549	0.6117
3558	0.6115
3567	0.6114
3576	0.6113
3585	0.6111
3594	0.6112
3603	0.6113
3612	0.6114
3621	0.6115
3630	0.6117
3639	0.6117
3648	0.6119
3657	0.612
3666	0.6121
3675	0.6121
3684	0.6121
3693	0.6121
3702	0.6121
3711	0.6121
3720	0.612
3729	0.612
3738	0.612
3747	0.612
3756	0.612
3765	0.612
3774	0.6119
3783	0.6119
3792	0.6117
3801	0.6114
3810	0.6111
3819	0.6107
3828	0.6104
3837	0.6101
3846	0.6098
3855	0.6095
3864	0.6091
3873	0.6088
3882	0.6085
3891	0.6083
3900	0.6078
3909	0.6071
3918	0.6065
3927	0.6059
3936	0.6052
3945	0.6046
3954	0.604
3963	0.6034
3972	0.6028
3981	0.6021
3990	0.6016
3999	0.601
