Infrared Spectrum: ETHYL-2-(3-METHYLPYRAZINYL MERCAPTO) ACETATE
Formula: C9 H12 N2 O2
State: LIQUID
Class: COBLENTZ
Instrument: Not specified, most likely a prism, grating, or hybrid spectrometer.
Sampling: TRANSMISSION
Path length: 0.0015 CM
Resolution: 4
Origin: WYANDOTTE CHEMICALS CORP., WYANDOTTE, MICHIGAN, USA
MICROMETERS	TRANSMITTANCE
2.027	0.996
2.06683	0.993
2.10666	0.991
2.14649	0.986
2.18631	0.958
2.22614	0.945
2.26597	0.951
2.3058	0.961
2.34563	0.96
2.38546	0.976
2.42529	0.983
2.46512	0.981
2.50494	0.976
2.54477	0.981
2.5846	0.996
2.62443	0.986
2.66426	1
2.70409	0.991
2.74392	0.971
2.78375	0.968
2.82357	0.956
2.8634	0.933
2.90323	0.888
2.94306	0.88
2.98289	0.905
3.02272	0.915
3.06255	0.913
3.10238	0.891
3.1422	0.886
3.18203	0.871
3.22186	0.818
3.26169	0.7
3.30152	0.55
3.34135	0.198
3.38118	0.337
3.421	0.369
3.46083	0.585
3.50066	0.73
3.54049	0.843
3.58032	0.895
3.62015	0.925
3.65998	0.925
3.69981	0.935
3.73963	0.966
3.77946	0.971
3.81929	0.978
3.85912	0.99
3.89895	0.988
3.93878	0.983
3.97861	0.978
4.01844	0.983
4.05826	0.976
4.09809	0.971
4.13792	0.966
4.17775	0.965
4.21758	0.97
4.25741	0.926
4.29724	0.938
4.33707	0.941
4.37689	0.958
4.41672	0.98
4.45655	0.98
4.49638	0.981
4.53621	0.981
4.57604	0.98
4.61587	0.995
4.65569	0.995
4.69552	0.985
4.73535	0.988
4.77518	0.99
4.81501	0.986
4.85484	0.981
4.89467	0.975
4.9345	0.971
4.97432	0.966
5.01415	0.963
5.05398	0.971
5.09381	0.983
5.13364	0.975
5.17347	0.96
5.2133	0.958
5.25313	0.928
5.29295	0.916
5.33278	0.916
5.37261	0.923
5.41244	0.94
5.45227	0.916
5.4921	0.891
5.53193	0.85
5.57175	0.805
5.61158	0.745
5.65141	0.608
5.69124	0.229
5.73107	0.049
5.7709	0.028
5.81073	0.109
5.85056	0.331
5.89038	0.522
5.93021	0.655
5.97004	0.752
6.00987	0.765
6.0497	0.778
6.08953	0.8
6.12936	0.806
6.16919	0.82
6.20901	0.813
6.24884	0.833
6.28867	0.825
6.3285	0.775
6.36833	0.742
6.40816	0.73
6.44799	0.713
6.48782	0.603
6.52764	0.366
6.56747	0.217
6.6073	0.374
6.64713	0.59
6.68696	0.597
6.72679	0.437
6.76662	0.352
6.80644	0.264
6.84627	0.199
6.8861	0.158
6.92593	0.188
6.96576	0.181
7.00559	0.244
7.04542	0.242
7.08525	0.186
7.12507	0.126
7.1649	0.101
7.20473	0.051
7.24456	0.023
7.28439	0.044
7.32422	0.029
7.36405	0.039
7.40388	0.069
7.4437	0.319
7.48353	0.529
7.52336	0.514
7.56319	0.417
7.60302	0.219
7.64285	0.039
7.68268	0.023
7.72251	0.019
7.76233	0.028
7.80216	0.041
7.84199	0.041
7.88182	0.031
7.92165	0.029
7.96148	0.046
8.00131	0.108
8.04113	0.244
8.08096	0.327
8.12079	0.357
8.16062	0.297
8.20045	0.154
8.24028	0.148
8.28011	0.184
8.31994	0.118
8.35976	0.096
8.39959	0.054
8.43942	0.023
8.47925	0.021
8.51908	0.021
8.55891	0.021
8.59874	0.021
8.63857	0.023
8.67839	0.026
8.71822	0.026
8.75805	0.036
8.79788	0.048
8.83771	0.079
8.87754	0.143
8.91737	0.174
8.9572	0.139
8.99702	0.078
9.03685	0.034
9.07668	0.024
9.11651	0.023
9.15634	0.038
9.19617	0.186
9.236	0.389
9.27582	0.449
9.31565	0.264
9.35548	0.081
9.39531	0.198
9.43514	0.397
9.47497	0.449
9.5148	0.41
9.55463	0.309
9.59445	0.193
9.63428	0.084
9.67411	0.031
9.71394	0.029
9.75377	0.034
9.7936	0.076
9.83343	0.161
9.87326	0.307
9.91308	0.489
9.95291	0.603
9.99274	0.657
10.0326	0.678
10.0724	0.673
10.1122	0.632
10.1521	0.549
10.1919	0.445
10.2317	0.329
10.2715	0.264
10.3114	0.314
10.3512	0.415
10.391	0.54
10.4309	0.643
10.4707	0.698
10.5105	0.718
10.5503	0.698
10.5902	0.655
10.63	0.63
10.6698	0.638
10.7097	0.683
10.7495	0.707
10.7893	0.705
10.8291	0.692
10.869	0.683
10.9088	0.712
10.9486	0.743
10.9885	0.735
11.0283	0.705
11.0681	0.675
11.1079	0.655
11.1478	0.615
11.1876	0.587
11.2274	0.575
11.2673	0.574
11.3071	0.6
11.3469	0.632
11.3867	0.658
11.4266	0.643
11.4664	0.577
11.5062	0.49
11.5461	0.409
11.5859	0.362
11.6257	0.344
11.6655	0.337
11.7054	0.304
11.7452	0.239
11.785	0.184
11.8249	0.168
11.8647	0.211
11.9045	0.282
11.9443	0.377
11.9842	0.525
12.024	0.665
12.0638	0.75
12.1037	0.801
12.1435	0.83
12.1833	0.845
12.2231	0.846
12.263	0.838
12.3028	0.821
12.3426	0.8
12.3825	0.79
12.4223	0.78
12.4621	0.777
12.502	0.782
12.5418	0.8
12.5816	0.803
12.6214	0.81
12.6613	0.803
12.7011	0.788
12.7409	0.777
12.7808	0.762
12.8206	0.745
12.8604	0.727
12.9002	0.713
12.9401	0.727
12.9799	0.745
13.0197	0.748
13.0596	0.755
13.0994	0.793
13.1392	0.823
13.179	0.841
13.2189	0.855
13.2587	0.88
13.2985	0.893
13.3384	0.9
13.3782	0.885
13.418	0.84
13.4578	0.8
13.4977	0.833
13.5375	0.876
13.5773	0.911
13.6172	0.928
13.657	0.931
13.6968	0.933
13.7366	0.931
13.7765	0.928
13.8163	0.93
13.8561	0.926
13.896	0.916
13.9358	0.906
13.9756	0.896
14.0154	0.876
14.0553	0.863
14.0951	0.838
14.1349	0.825
14.1748	0.801
14.2146	0.785
14.2544	0.77
14.2942	0.757
14.3341	0.75
14.3739	0.738
14.4137	0.737
14.4536	0.737
14.4934	0.75
14.5332	0.762
14.573	0.77
14.6129	0.782
14.6527	0.79
14.6925	0.795
14.7324	0.785
14.7722	0.773
14.812	0.745
14.8518	0.74
14.8917	0.755
14.9315	0.792
14.9713	0.81
15.0112	0.836
15.051	0.848
15.0908	0.883
15.1306	0.901
15.1705	0.913
15.2103	0.911
15.2501	0.91
15.29	0.913
15.3298	0.911
15.3696	0.911
15.4094	0.911
15.4493	0.906
15.4891	0.901
15.5289	0.9
15.5688	0.896
15.6086	0.898
15.6484	0.898
15.6882	0.893
15.7281	0.886
15.7679	0.886
15.8077	0.885
15.8476	0.87
15.8874	0.861
15.9272	0.856
15.967	0.855
