Infrared Spectrum: Ammonium yttrium oxalate, hydrate
Formula: C8 H8 N2 O16 Y2  * 6-8 H2 O
State: SOLID (SPLIT MULL), FLUOROLUBE FOR 3800-1330 CM^-^1, NUJOL FOR 1330-400 CM^-^1
Class: COBLENTZ III
Instrument: DOW KBr FOREPRISM-GRATING
Instrument parameters: BLAZED AT 3.5, 12.0, 20.0 MICRON AND CHANGED AT 5.0, 7.5, 14.9 MICRON
Sampling: TRANSMISSION
Resolution: 2
Origin: DOW CHEMICAL COMPANY
1/CM	TRANSMITTANCE
3798	0.8762
3789	0.8762
3780	0.8763
3771	0.8771
3762	0.8778
3753	0.88
3744	0.8821
3735	0.8838
3726	0.885
3717	0.887
3708	0.8888
3699	0.8902
3690	0.8911
3681	0.8914
3672	0.8911
3663	0.8896
3654	0.8863
3645	0.8804
3636	0.871
3627	0.8525
3618	0.8207
3609	0.7681
3600	0.7504
3591	0.7517
3582	0.7497
3573	0.7458
3564	0.7418
3555	0.7306
3546	0.6901
3537	0.6418
3528	0.6302
3519	0.6205
3510	0.6072
3501	0.5869
3492	0.5657
3483	0.5521
3474	0.5412
3465	0.5321
3456	0.5291
3447	0.5353
3438	0.5437
3429	0.5571
3420	0.5692
3411	0.5804
3402	0.5919
3393	0.6027
3384	0.6104
3375	0.6179
3366	0.6241
3357	0.6287
3348	0.632
3339	0.6343
3330	0.6358
3321	0.6359
3312	0.6359
3303	0.6345
3294	0.6318
3285	0.6276
3276	0.6206
3267	0.6108
3258	0.599
3249	0.5852
3240	0.5682
3231	0.5533
3222	0.5401
3213	0.5294
3204	0.521
3195	0.5143
3186	0.5103
3177	0.51
3168	0.5126
3159	0.521
3150	0.5342
3141	0.5498
3132	0.561
3123	0.5656
3114	0.5618
3105	0.556
3096	0.5496
3087	0.5427
3078	0.5397
3069	0.5383
3060	0.5379
3051	0.5421
3042	0.548
3033	0.5562
3024	0.5648
3015	0.5737
3006	0.5835
2997	0.5934
2988	0.6036
2979	0.6118
2970	0.6184
2961	0.625
2952	0.633
2943	0.6414
2934	0.6497
2925	0.659
2916	0.6678
2907	0.6748
2898	0.6798
2889	0.6821
2880	0.6689
2871	0.6538
2862	0.648
2853	0.6526
2844	0.6624
2835	0.6742
2826	0.6856
2817	0.695
2808	0.7038
2799	0.7115
2790	0.7191
2781	0.7257
2772	0.7324
2763	0.7378
2754	0.7433
2745	0.7487
2736	0.7528
2727	0.7565
2718	0.7601
2709	0.7639
2700	0.7672
2691	0.7707
2682	0.7742
2673	0.7775
2664	0.781
2655	0.7844
2646	0.7878
2637	0.7911
2628	0.7945
2619	0.7971
2610	0.7998
2601	0.8025
2592	0.805
2583	0.8071
2574	0.8094
2565	0.8115
2556	0.8134
2547	0.8145
2538	0.8158
2529	0.8169
2520	0.818
2511	0.8191
2502	0.8202
2493	0.8212
2484	0.8221
2475	0.823
2466	0.824
2457	0.8247
2448	0.8253
2439	0.8258
2430	0.8263
2421	0.8267
2412	0.8271
2403	0.8274
2394	0.8278
2385	0.8283
2376	0.8291
2367	0.83
2358	0.8308
2349	0.8312
2340	0.8315
2331	0.8308
2322	0.8267
2313	0.8221
2304	0.8203
2295	0.8187
2286	0.818
2277	0.8178
2268	0.8193
2259	0.8209
2250	0.8227
2241	0.8247
2232	0.8273
2223	0.8303
2214	0.8336
2205	0.8364
2196	0.839
2187	0.8414
2178	0.8437
2169	0.8458
2160	0.848
2151	0.8499
2142	0.8518
2133	0.8543
2124	0.8566
2115	0.8588
2106	0.8609
2097	0.8625
2088	0.8643
2079	0.866
2070	0.8678
2061	0.8697
2052	0.8712
2043	0.8718
2034	0.873
2025	0.8737
2016	0.8743
2007	0.8759
1998	0.8773
1989	0.8687
1980	0.8762
1971	0.8767
1962	0.8721
1953	0.8688
1944	0.865
1935	0.8608
1926	0.8571
1917	0.8542
1908	0.8501
1899	0.8461
1890	0.8425
1881	0.8382
1872	0.8339
1863	0.8284
1854	0.8214
1845	0.8121
1836	0.8015
1827	0.7915
1818	0.781
1809	0.7683
1800	0.7557
1791	0.7418
1782	0.7271
1773	0.7078
1764	0.6837
1755	0.6424
1746	0.5448
1737	0.5298
1728	0.526
1719	0.496
1710	0.4373
1701	0.3296
1692	0.2513
1683	0.1865
1674	0.1335
1665	0.0961
1656	0.0678
1647	0.0475
1638	0.0415
1629	0.0532
1620	0.0962
1611	0.1546
1602	0.2239
1593	0.2944
1584	0.365
1575	0.4142
1566	0.4616
1557	0.5095
1548	0.5496
1539	0.5846
1530	0.6145
1521	0.6417
1512	0.6668
1503	0.6883
1494	0.6997
1485	0.6368
1476	0.6565
1467	0.6815
1458	0.6731
1449	0.5797
1440	0.6301
1431	0.6678
1422	0.6943
1413	0.7118
1404	0.7214
1395	0.7272
1386	0.6994
1377	0.6339
1368	0.5438
1359	0.5085
1350	0.5332
1341	0.558
1332	0.5418
1323	0.3308
1314	0.3841
1305	0.4879
1296	0.4306
1287	0.5442
1278	0.616
1269	0.6359
1260	0.631
1251	0.6064
1242	0.5916
1233	0.5804
1224	0.5731
1215	0.5738
1206	0.5873
1197	0.5975
1188	0.616
1179	0.6236
1170	0.6324
1161	0.6406
1152	0.6661
1143	0.7105
1134	0.7442
1125	0.7695
1116	0.7855
1107	0.7943
1098	0.7987
1089	0.8006
1080	0.7462
1071	0.7145
1062	0.7356
1053	0.7275
1044	0.7385
1035	0.7465
1026	0.7211
1017	0.7138
1008	0.746
999	0.7795
990	0.811
981	0.8332
972	0.8461
963	0.8568
954	0.8671
945	0.8761
936	0.8821
927	0.885
918	0.8775
909	0.8751
900	0.8384
891	0.7603
882	0.7422
873	0.7281
864	0.7608
855	0.7635
846	0.7939
837	0.8221
828	0.8168
819	0.7201
810	0.4925
801	0.4926
792	0.7044
783	0.7869
774	0.8101
765	0.8164
756	0.8128
747	0.8071
738	0.8018
729	0.7834
720	0.7651
711	0.7761
702	0.7871
693	0.7884
684	0.7861
675	0.7747
666	0.7706
657	0.771
648	0.7748
639	0.7775
630	0.7806
621	0.7814
612	0.7381
603	0.6899
594	0.7136
585	0.635
576	0.6533
567	0.7111
558	0.7544
549	0.7664
540	0.7661
531	0.7554
522	0.7358
513	0.7042
504	0.6355
495	0.5717
486	0.5688
477	0.6447
468	0.6875
459	0.7032
450	0.7071
441	0.6981
432	0.6861
423	0.6831
414	0.6725
405	0.6628
396	0.659
387	0.6589
