Infrared Spectrum: BARIUM CARBONATE
Formula: Ba C O3
State: SOLID (NUJOL MULL)
Class: COBLENTZ
Instrument: Not specified, most likely a prism, grating, or hybrid spectrometer.
Sampling: TRANSMISSION
Resolution: 4
Origin: MELLON INSTITUTE
MICROMETERS	TRANSMITTANCE
2.009	0.843
2.04999	0.847
2.09099	0.847
2.13198	0.848
2.17298	0.853
2.21397	0.85
2.25496	0.847
2.29596	0.845
2.33695	0.848
2.37795	0.847
2.41894	0.853
2.45994	0.853
2.50093	0.859
2.54192	0.864
2.58292	0.865
2.62391	0.869
2.66491	0.865
2.7059	0.867
2.74689	0.864
2.78789	0.865
2.82888	0.865
2.86988	0.865
2.91087	0.865
2.95187	0.864
2.99286	0.862
3.03385	0.862
3.07485	0.862
3.11584	0.864
3.15684	0.865
3.19783	0.867
3.23882	0.867
3.27982	0.838
3.32081	0.524
3.36181	0.39
3.4028	0.479
3.44379	0.527
3.48479	0.78
3.52578	0.859
3.56678	0.888
3.60777	0.893
3.64877	0.895
3.68976	0.9
3.73075	0.902
3.77175	0.903
3.81274	0.903
3.85374	0.903
3.89473	0.905
3.93572	0.905
3.97672	0.903
4.01771	0.896
4.05871	0.893
4.0997	0.905
4.1407	0.908
4.18169	0.907
4.22268	0.903
4.26368	0.902
4.30467	0.9
4.34567	0.9
4.38666	0.905
4.42765	0.907
4.46865	0.903
4.50964	0.9
4.55064	0.903
4.59163	0.905
4.63262	0.907
4.67362	0.91
4.71461	0.908
4.75561	0.908
4.7966	0.908
4.8376	0.908
4.87859	0.908
4.91958	0.91
4.96058	0.912
5.00157	0.915
5.04257	0.917
5.08356	0.915
5.12455	0.917
5.16555	0.917
5.20654	0.92
5.24754	0.922
5.28853	0.924
5.32952	0.926
5.37052	0.926
5.41151	0.929
5.45251	0.931
5.4935	0.932
5.5345	0.934
5.57549	0.936
5.61648	0.938
5.65748	0.936
5.69847	0.934
5.73947	0.924
5.78046	0.932
5.82145	0.943
5.86245	0.943
5.90344	0.945
5.94444	0.946
5.98543	0.948
6.02643	0.948
6.06742	0.946
6.10841	0.941
6.14941	0.936
6.1904	0.934
6.2314	0.927
6.27239	0.922
6.31338	0.908
6.35438	0.903
6.39537	0.903
6.43637	0.902
6.47736	0.898
6.51835	0.883
6.55935	0.843
6.60034	0.79
6.64134	0.611
6.68233	0.457
6.72333	0.321
6.76432	0.211
6.80531	0.147
6.84631	0.118
6.8873	0.075
6.9283	0.07
6.96929	0.072
7.01028	0.092
7.05128	0.237
7.09227	0.505
7.13327	0.666
7.17426	0.747
7.21526	0.749
7.25625	0.769
7.29724	0.821
7.33824	0.862
7.37923	0.891
7.42023	0.891
7.46122	0.898
7.50221	0.907
7.54321	0.908
7.5842	0.907
7.6252	0.908
7.66619	0.914
7.70718	0.917
7.74818	0.92
7.78917	0.924
7.83017	0.929
7.87116	0.932
7.91216	0.932
7.95315	0.936
7.99414	0.938
8.03514	0.941
8.07613	0.945
8.11713	0.946
8.15812	0.941
8.19911	0.946
8.24011	0.948
8.2811	0.946
8.3221	0.946
8.36309	0.951
8.40409	0.951
8.44508	0.951
8.48607	0.951
8.52707	0.95
8.56806	0.951
8.60906	0.951
8.65005	0.95
8.69104	0.95
8.73204	0.95
8.77303	0.951
8.81403	0.95
8.85502	0.945
8.89601	0.946
8.93701	0.945
8.978	0.943
9.019	0.95
9.05999	0.95
9.10099	0.948
9.14198	0.948
9.18297	0.95
9.22397	0.948
9.26496	0.945
9.30596	0.951
9.34695	0.95
9.38794	0.95
9.42894	0.932
9.46993	0.941
9.51093	0.945
9.55192	0.95
9.59291	0.951
9.63391	0.951
9.6749	0.953
9.7159	0.955
9.75689	0.955
9.79789	0.957
9.83888	0.957
9.87987	0.957
9.92087	0.957
9.96186	0.957
10.0029	0.957
10.0439	0.957
10.0848	0.957
10.1258	0.957
10.1668	0.957
10.2078	0.957
10.2488	0.957
10.2898	0.957
10.3308	0.958
10.3718	0.958
10.4128	0.957
10.4538	0.953
10.4948	0.953
10.5358	0.958
10.5768	0.958
10.6178	0.958
10.6588	0.955
10.6998	0.96
10.7408	0.96
10.7817	0.962
10.8227	0.96
10.8637	0.96
10.9047	0.962
10.9457	0.963
10.9867	0.965
11.0277	0.965
11.0687	0.967
11.1097	0.97
11.1507	0.97
11.1917	0.97
11.2327	0.969
11.2737	0.967
11.3147	0.967
11.3557	0.969
11.3967	0.969
11.4377	0.969
11.4786	0.969
11.5196	0.955
11.5606	0.898
11.6016	0.702
11.6426	0.584
11.6836	0.637
11.7246	0.79
11.7656	0.872
11.8066	0.914
11.8476	0.929
11.8886	0.936
11.9296	0.95
11.9706	0.962
12.0116	0.967
12.0526	0.969
12.0936	0.975
12.1346	0.982
12.1755	0.982
12.2165	0.984
12.2575	0.982
12.2985	0.982
12.3395	0.981
12.3805	0.982
12.4215	0.984
12.4625	0.984
12.5035	0.982
12.5445	0.981
12.5855	0.977
12.6265	0.977
12.6675	0.974
12.7085	0.972
12.7495	0.97
12.7905	0.97
12.8315	0.967
12.8724	0.965
12.9134	0.967
12.9544	0.969
12.9954	0.967
13.0364	0.965
13.0774	0.96
13.1184	0.953
13.1594	0.951
13.2004	0.95
13.2414	0.945
13.2824	0.948
13.3234	0.948
13.3644	0.946
13.4054	0.943
13.4464	0.941
13.4874	0.938
13.5284	0.936
13.5693	0.932
13.6103	0.926
13.6513	0.924
13.6923	0.919
13.7333	0.919
13.7743	0.919
13.8153	0.915
13.8563	0.912
13.8973	0.907
13.9383	0.907
13.9793	0.905
14.0203	0.902
14.0613	0.9
14.1023	0.895
14.1433	0.893
14.1843	0.886
14.2253	0.879
14.2662	0.831
14.3072	0.707
14.3482	0.697
14.3892	0.743
14.4302	0.778
14.4712	0.797
14.5122	0.81
14.5532	0.812
14.5942	0.814
14.6352	0.814
14.6762	0.812
14.7172	0.81
14.7582	0.807
14.7992	0.804
14.8402	0.81
14.8812	0.802
14.9222	0.798
14.9631	0.79
15.0041	0.785
15.0451	0.781
15.0861	0.78
15.1271	0.78
15.1681	0.778
15.2091	0.78
15.2501	0.776
15.2911	0.771
15.3321	0.768
15.3731	0.766
15.4141	0.764
15.4551	0.766
15.4961	0.768
15.5371	0.766
15.5781	0.766
15.6191	0.766
15.66	0.766
15.701	0.764
15.742	0.766
15.783	0.769
15.824	0.773
15.865	0.771
15.906	0.781
15.947	0.783
15.988	0.781
