Infrared Spectrum: POTASSIUM PHOSPHATE, DIBASIC
Formula: K2 H P O4
State: SOLID (NUJOL AND FLUOROLUBE MULLS)
Class: COBLENTZ
Instrument: Not specified, most likely a prism, grating, or hybrid spectrometer.
Sampling: TRANSMISSION
Resolution: 4
Origin: MELLON INSTITUTE
MICROMETERS	TRANSMITTANCE
2.031	0.867
2.07083	0.871
2.11066	0.881
2.15049	0.892
2.19033	0.896
2.23016	0.901
2.26999	0.904
2.30982	0.909
2.34965	0.921
2.38948	0.926
2.42931	0.929
2.46915	0.934
2.50898	0.938
2.54881	0.944
2.58864	0.949
2.62847	0.954
2.6683	0.959
2.70814	0.963
2.74797	0.963
2.7878	0.961
2.82763	0.946
2.86746	0.904
2.90729	0.876
2.94712	0.851
2.98696	0.841
3.02679	0.824
3.06662	0.804
3.10645	0.785
3.14628	0.767
3.18611	0.75
3.22594	0.727
3.26578	0.7
3.30561	0.668
3.34544	0.638
3.38527	0.62
3.4251	0.605
3.46493	0.6
3.50477	0.598
3.5446	0.598
3.58443	0.602
3.62426	0.623
3.66409	0.657
3.70392	0.698
3.74375	0.73
3.78359	0.725
3.82342	0.7
3.86325	0.648
3.90308	0.615
3.94291	0.57
3.98274	0.55
4.02257	0.545
4.06241	0.543
4.10224	0.54
4.14207	0.536
4.1819	0.53
4.22173	0.533
4.26156	0.535
4.3014	0.533
4.34123	0.538
4.38106	0.551
4.42089	0.585
4.46072	0.62
4.50055	0.648
4.54038	0.66
4.58022	0.67
4.62005	0.687
4.65988	0.697
4.69971	0.707
4.73954	0.712
4.77937	0.715
4.8192	0.715
4.85904	0.714
4.89887	0.714
4.9387	0.71
4.97853	0.7
5.01836	0.677
5.05819	0.657
5.09803	0.637
5.13786	0.607
5.17769	0.58
5.21752	0.566
5.25735	0.558
5.29718	0.55
5.33701	0.538
5.37685	0.535
5.41668	0.531
5.45651	0.533
5.49634	0.536
5.53617	0.543
5.576	0.563
5.61583	0.598
5.65567	0.615
5.6955	0.638
5.73533	0.663
5.77516	0.672
5.81499	0.687
5.85482	0.702
5.89465	0.715
5.93449	0.729
5.97432	0.739
6.01415	0.77
6.05398	0.787
6.09381	0.802
6.13364	0.816
6.17348	0.842
6.21331	0.861
6.25314	0.876
6.29297	0.881
6.3328	0.884
6.37263	0.892
6.41246	0.897
6.4523	0.904
6.49213	0.908
6.53196	0.908
6.57179	0.911
6.61162	0.916
6.65145	0.928
6.69128	0.934
6.73112	0.939
6.77095	0.944
6.81078	0.948
6.85061	0.948
6.89044	0.946
6.93027	0.943
6.97011	0.939
7.00994	0.931
7.04977	0.926
7.0896	0.924
7.12943	0.924
7.16926	0.921
7.20909	0.891
7.24893	0.847
7.28876	0.797
7.32859	0.685
7.36842	0.526
7.40825	0.436
7.44808	0.55
7.48791	0.667
7.52775	0.732
7.56758	0.774
7.60741	0.802
7.64724	0.816
7.68707	0.824
7.7269	0.832
7.76674	0.834
7.80657	0.831
7.8464	0.832
7.88623	0.837
7.92606	0.841
7.96589	0.841
8.00572	0.841
8.04556	0.836
8.08539	0.829
8.12522	0.812
8.16505	0.799
8.20488	0.787
8.24471	0.762
8.28454	0.745
8.32438	0.72
8.36421	0.687
8.40404	0.607
8.44387	0.523
8.4837	0.429
8.52353	0.314
8.56336	0.205
8.6032	0.142
8.64303	0.113
8.68286	0.088
8.72269	0.075
8.76252	0.061
8.80235	0.05
8.84219	0.048
8.88202	0.05
8.92185	0.05
8.96168	0.05
9.00151	0.05
9.04134	0.048
9.08117	0.053
9.12101	0.063
9.16084	0.065
9.20067	0.07
9.2405	0.076
9.28033	0.083
9.32016	0.09
9.35999	0.122
9.39983	0.16
9.43966	0.2
9.47949	0.255
9.51932	0.331
9.55915	0.399
9.59898	0.468
9.63882	0.585
9.67865	0.637
9.71848	0.678
9.75831	0.704
9.79814	0.727
9.83797	0.734
9.8778	0.734
9.91764	0.727
9.95747	0.68
9.9973	0.632
10.0371	0.635
10.077	0.635
10.1168	0.635
10.1566	0.63
10.1965	0.63
10.2363	0.623
10.2761	0.605
10.316	0.553
10.3558	0.496
10.3956	0.443
10.4354	0.357
10.4753	0.277
10.5151	0.222
10.5549	0.177
10.5948	0.158
10.6346	0.15
10.6744	0.14
10.7143	0.142
10.7541	0.167
10.7939	0.222
10.8338	0.301
10.8736	0.403
10.9134	0.473
10.9533	0.536
10.9931	0.581
11.0329	0.662
11.0727	0.709
11.1126	0.74
11.1524	0.767
11.1922	0.787
11.2321	0.797
11.2719	0.802
11.3117	0.807
11.3516	0.812
11.3914	0.811
11.4312	0.806
11.4711	0.785
11.5109	0.764
11.5507	0.692
11.5906	0.62
11.6304	0.503
11.6702	0.424
11.7101	0.346
11.7499	0.237
11.7897	0.192
11.8295	0.155
11.8694	0.143
11.9092	0.138
11.949	0.133
11.9889	0.132
12.0287	0.137
12.0685	0.168
12.1084	0.214
12.1482	0.292
12.188	0.347
12.2279	0.419
12.2677	0.476
12.3075	0.516
12.3474	0.551
12.3872	0.588
12.427	0.622
12.4669	0.642
12.5067	0.665
12.5465	0.682
12.5863	0.698
12.6262	0.71
12.666	0.72
12.7058	0.729
12.7457	0.74
12.7855	0.75
12.8253	0.755
12.8652	0.762
12.905	0.77
12.9448	0.78
12.9847	0.787
13.0245	0.79
13.0643	0.797
13.1042	0.802
13.144	0.806
13.1838	0.812
13.2236	0.817
13.2635	0.817
13.3033	0.821
13.3431	0.822
13.383	0.824
13.4228	0.827
13.4626	0.829
13.5025	0.831
13.5423	0.831
13.5821	0.829
13.622	0.829
13.6618	0.826
13.7016	0.826
13.7415	0.826
13.7813	0.821
13.8211	0.819
13.861	0.816
13.9008	0.811
13.9406	0.807
13.9804	0.804
14.0203	0.804
14.0601	0.801
14.0999	0.794
14.1398	0.792
14.1796	0.785
14.2194	0.78
14.2593	0.777
14.2991	0.77
14.3389	0.765
14.3788	0.764
14.4186	0.762
14.4584	0.757
14.4983	0.752
14.5381	0.742
14.5779	0.74
14.6178	0.742
14.6576	0.74
14.6974	0.734
14.7372	0.725
14.7771	0.724
14.8169	0.725
14.8567	0.729
14.8966	0.724
14.9364	0.715
14.9762	0.709
15.0161	0.707
15.0559	0.704
15.0957	0.695
15.1356	0.688
15.1754	0.688
15.2152	0.69
15.2551	0.69
15.2949	0.685
15.3347	0.682
15.3746	0.677
15.4144	0.675
15.4542	0.677
15.494	0.677
15.5339	0.677
15.5737	0.677
15.6135	0.678
15.6534	0.682
15.6932	0.678
15.733	0.677
15.7729	0.682
15.8127	0.688
15.8525	0.687
15.8924	0.693
15.9322	0.693
15.972	0.7
