Infrared Spectrum: 1,1'-BIS[N-METHYL-N-(4-NITROPHENYL)-CARBOXAMIDO] FERROCENE
Formula: C26 H22 Fe N4 O6
State: SOLID (MINERAL OIL MULL)
Class: COBLENTZ
Instrument: Not specified, most likely a prism, grating, or hybrid spectrometer.
Sampling: TRANSMISSION
Resolution: 4
Origin: WYANDOTTE CHEMICALS CORP., WYANDOTTE, MICHIGAN, USA
MICROMETERS	TRANSMITTANCE
2.02	0.385
2.0609	0.39
2.10179	0.388
2.14269	0.39
2.18359	0.395
2.22448	0.404
2.26538	0.402
2.30628	0.41
2.34717	0.409
2.38807	0.419
2.42897	0.424
2.46986	0.417
2.51076	0.422
2.55166	0.443
2.59255	0.453
2.63345	0.455
2.67435	0.46
2.71524	0.46
2.75614	0.464
2.79704	0.464
2.83793	0.465
2.87883	0.467
2.91972	0.467
2.96062	0.464
3.00152	0.465
3.04241	0.474
3.08331	0.46
3.12421	0.446
3.1651	0.44
3.206	0.398
3.2469	0.292
3.28779	0.321
3.32869	0.318
3.36959	0.125
3.41048	0.025
3.45138	0.039
3.49228	0.089
3.53317	0.181
3.57407	0.525
3.61497	0.604
3.65586	0.619
3.69676	0.614
3.73766	0.611
3.77855	0.606
3.81945	0.609
3.86035	0.609
3.90124	0.625
3.94214	0.645
3.98304	0.662
4.02393	0.678
4.06483	0.683
4.10573	0.683
4.14662	0.63
4.18752	0.657
4.22842	0.679
4.26931	0.691
4.31021	0.674
4.35111	0.684
4.392	0.7
4.4329	0.726
4.4738	0.729
4.51469	0.748
4.55559	0.761
4.59648	0.761
4.63738	0.738
4.67828	0.768
4.71917	0.784
4.76007	0.799
4.80097	0.815
4.84186	0.828
4.88276	0.844
4.92366	0.849
4.96455	0.849
5.00545	0.859
5.04635	0.868
5.08724	0.873
5.12814	0.885
5.16904	0.9
5.20993	0.885
5.25083	0.842
5.29173	0.876
5.33262	0.926
5.37352	0.929
5.41442	0.943
5.45531	0.95
5.49621	0.96
5.53711	0.941
5.578	0.955
5.6189	0.849
5.6598	0.936
5.70069	0.979
5.74159	0.976
5.78249	0.97
5.82338	0.945
5.86428	0.946
5.90518	0.924
5.94607	0.849
5.98697	0.772
6.02787	0.559
6.06876	0.246
6.10966	0.056
6.15056	0.071
6.19145	0.325
6.23235	0.111
6.27324	0.051
6.31414	0.051
6.35504	0.152
6.39593	0.263
6.43683	0.328
6.47773	0.303
6.51862	0.196
6.55952	0.07
6.60042	0.063
6.64131	0.099
6.68221	0.142
6.72311	0.097
6.764	0.126
6.8049	0.077
6.8458	0.037
6.88669	0.027
6.92759	0.035
6.96849	0.179
7.00938	0.419
7.05028	0.395
7.09118	0.191
7.13207	0.157
7.17297	0.136
7.21387	0.125
7.25476	0.058
7.29566	0.047
7.33656	0.154
7.37745	0.095
7.41835	0.029
7.45925	0.017
7.50014	0.015
7.54104	0.02
7.58194	0.022
7.62283	0.034
7.66373	0.022
7.70463	0.022
7.74552	0.061
7.78642	0.041
7.82732	0.041
7.86821	0.065
7.90911	0.128
7.95	0.239
7.9909	0.321
8.0318	0.359
8.07269	0.38
8.11359	0.436
8.15449	0.498
8.19538	0.522
8.23628	0.554
8.27718	0.327
8.31807	0.27
8.35897	0.236
8.39987	0.366
8.44076	0.489
8.48166	0.53
8.52256	0.527
8.56345	0.422
8.60435	0.498
8.64525	0.592
8.68614	0.614
8.72704	0.63
8.76794	0.65
8.80883	0.647
8.84973	0.597
8.89063	0.554
8.93152	0.535
8.97242	0.431
9.01332	0.222
9.05421	0.075
9.09511	0.03
9.13601	0.035
9.1769	0.106
9.2178	0.193
9.2587	0.261
9.29959	0.32
9.34049	0.363
9.38139	0.426
9.42228	0.479
9.46318	0.506
9.50408	0.505
9.54497	0.481
9.58587	0.599
9.62676	0.667
9.66766	0.715
9.70856	0.547
9.74945	0.214
9.79035	0.375
9.83125	0.601
9.87214	0.681
9.91304	0.672
9.95394	0.347
9.99483	0.373
10.0357	0.313
10.0766	0.409
10.1175	0.575
10.1584	0.648
10.1993	0.69
10.2402	0.707
10.2811	0.712
10.322	0.717
10.3629	0.732
10.4038	0.748
10.4447	0.743
10.4856	0.633
10.5265	0.541
10.5674	0.702
10.6083	0.791
10.6492	0.821
10.6901	0.84
10.731	0.83
10.7719	0.837
10.8128	0.837
10.8537	0.837
10.8946	0.83
10.9355	0.775
10.9764	0.535
11.0172	0.282
11.0581	0.44
11.099	0.65
11.1399	0.739
11.1808	0.7
11.2217	0.751
11.2626	0.792
11.3035	0.809
11.3444	0.821
11.3853	0.818
11.4262	0.804
11.4671	0.761
11.508	0.648
11.5489	0.386
11.5898	0.352
11.6307	0.239
11.6716	0.143
11.7125	0.056
11.7534	0.044
11.7943	0.082
11.8352	0.162
11.8761	0.446
11.917	0.667
11.9579	0.751
11.9988	0.736
12.0397	0.58
12.0806	0.38
12.1215	0.494
12.1624	0.41
12.2032	0.174
12.2441	0.082
12.285	0.101
12.3259	0.099
12.3668	0.248
12.4077	0.404
12.4486	0.511
12.4895	0.568
12.5304	0.613
12.5713	0.633
12.6122	0.66
12.6531	0.655
12.694	0.647
12.7349	0.667
12.7758	0.708
12.8167	0.734
12.8576	0.758
12.8985	0.753
12.9394	0.76
12.9803	0.76
13.0212	0.746
13.0621	0.727
13.103	0.69
13.1439	0.619
13.1848	0.469
13.2257	0.318
13.2666	0.214
13.3075	0.121
13.3484	0.203
13.3893	0.464
13.4301	0.7
13.471	0.816
13.5119	0.886
13.5528	0.916
13.5937	0.907
13.6346	0.909
13.6755	0.926
13.7164	0.94
13.7573	0.933
13.7982	0.94
13.8391	0.931
13.88	0.926
13.9209	0.912
13.9618	0.892
14.0027	0.851
14.0436	0.715
14.0845	0.609
14.1254	0.676
14.1663	0.758
14.2072	0.751
14.2481	0.674
14.289	0.537
14.3299	0.366
14.3708	0.202
14.4117	0.136
14.4526	0.138
14.4935	0.253
14.5344	0.422
14.5753	0.609
14.6161	0.714
14.657	0.772
14.6979	0.84
14.7388	0.873
14.7797	0.895
14.8206	0.909
14.8615	0.909
14.9024	0.912
14.9433	0.909
14.9842	0.909
15.0251	0.907
15.066	0.871
15.1069	0.796
15.1478	0.738
15.1887	0.741
15.2296	0.772
15.2705	0.789
15.3114	0.806
15.3523	0.801
15.3932	0.784
15.4341	0.751
15.475	0.746
15.5159	0.724
15.5568	0.707
15.5977	0.696
15.6386	0.679
15.6795	0.662
15.7204	0.65
15.7613	0.638
15.8021	0.621
15.843	0.595
15.8839	0.575
15.9248	0.546
15.9657	0.506
