Infrared Spectrum: UREA, (2-MERCAPTOETHYL)-
Formula: C3 H8 O S
State: SOLID (0.8 mg / 650 mg, KBr DISC)
Class: COBLENTZ III
Instrument: PERKIN-ELMER 21 (GRATING)
Instrument parameters: FILTER CHANGE AT ABOUT 1020 CM^-^1
Sampling: TRANSMISSION
Resolution: 2
Origin: SOUTHERN RESEARCH INSTITUTE
1/CM	TRANSMITTANCE
605.941	0.423
615.106	0.424
624.272	0.4346
633.437	0.4398
642.602	0.4478
651.768	0.4537
660.933	0.4577
670.098	0.4688
679.264	0.4944
688.429	0.5463
697.594	0.5743
706.759	0.5924
715.925	0.6039
725.09	0.6185
734.255	0.6358
743.421	0.6575
752.586	0.6811
761.751	0.679
770.917	0.6671
780.082	0.662
789.247	0.6996
798.413	0.7563
807.578	0.7887
816.743	0.7897
825.909	0.7894
835.074	0.7869
844.239	0.774
853.404	0.7754
862.57	0.777
871.735	0.7753
880.9	0.7845
890.066	0.789
899.231	0.785
908.396	0.7769
917.562	0.768
926.727	0.758
935.892	0.749
945.058	0.742
954.223	0.746
963.388	0.7458
972.554	0.7383
981.719	0.7301
990.884	0.7078
1000.05	0.6905
1009.21	0.6735
1018.38	0.662
1027.55	0.6566
1036.71	0.6527
1045.88	0.649
1055.04	0.6408
1064.21	0.6347
1073.37	0.6319
1082.54	0.628
1091.7	0.6182
1100.87	0.5819
1110.03	0.5361
1119.2	0.511
1128.36	0.508
1137.53	0.4736
1146.69	0.3634
1155.86	0.4335
1165.03	0.5295
1174.19	0.58
1183.36	0.5695
1192.52	0.5154
1201.69	0.3359
1210.85	0.5011
1220.02	0.6005
1229.18	0.6027
1238.35	0.5506
1247.51	0.5129
1256.68	0.626
1265.84	0.6221
1275.01	0.6114
1284.17	0.5915
1293.34	0.5428
1302.5	0.4234
1311.67	0.459
1320.84	0.4745
1330	0.3911
1339.17	0.2649
1348.33	0.18
1357.5	0.3679
1366.66	0.492
1375.83	0.3996
1384.99	0.5213
1394.16	0.6357
1403.32	0.656
1412.49	0.6471
1421.65	0.6061
1430.82	0.5011
1439.98	0.3416
1449.15	0.2983
1458.32	0.576
1467.48	0.5628
1476.65	0.5276
1485.81	0.4761
1494.98	0.3945
1504.14	0.343
1513.31	0.2624
1522.47	0.1664
1531.64	0.0718
1540.8	0.047
1549.97	0.0583
1559.13	0.0751
1568.3	0.1118
1577.46	0.126
1586.63	0.0957
1595.79	0.039
1604.96	0.0432
1614.13	0.0784
1623.29	0.1158
1632.46	0.1185
1641.62	0.0507
1650.79	0.0506
1659.95	0.081
1669.12	0.1552
1678.28	0.2379
1687.45	0.3174
1696.61	0.4078
1705.78	0.4925
1714.94	0.5648
1724.11	0.609
1733.27	0.6427
1742.44	0.6839
1751.61	0.7257
1760.77	0.7453
1769.94	0.7656
1779.1	0.7857
1788.27	0.8022
1797.43	0.8264
1806.6	0.8405
1815.76	0.8524
1824.93	0.8678
1834.09	0.8743
1843.26	0.882
1852.42	0.8872
1861.59	0.8942
1870.75	0.905
1879.92	0.907
1889.09	0.911
1898.25	0.912
1907.42	0.9159
1916.58	0.918
1925.75	0.9235
1934.91	0.924
1944.08	0.926
1953.24	0.928
1962.41	0.928
1971.57	0.928
1980.74	0.928
1989.9	0.9293
1999.07	0.934
2008.23	0.9297
2017.4	0.928
2026.56	0.9283
2035.73	0.93
2044.9	0.932
2054.06	0.929
2063.23	0.928
2072.39	0.926
2081.56	0.926
2090.72	0.9283
2099.89	0.9306
2109.05	0.939
2118.22	0.943
2127.38	0.943
2136.55	0.943
2145.71	0.943
2154.88	0.943
2164.04	0.942
2173.21	0.942
2182.38	0.942
2191.54	0.941
2200.71	0.9383
2209.87	0.939
2219.04	0.939
2228.2	0.941
2237.37	0.942
2246.53	0.941
2255.7	0.9387
2264.86	0.937
2274.03	0.9347
2283.19	0.93
2292.36	0.928
2301.52	0.928
2310.69	0.928
2319.85	0.9274
2329.02	0.926
2338.19	0.926
2347.35	0.928
2356.52	0.9323
2365.68	0.935
2374.85	0.9343
2384.01	0.928
2393.18	0.925
2402.34	0.9257
2411.51	0.925
2420.67	0.9217
2429.84	0.9153
2439	0.9117
2448.17	0.905
2457.33	0.8942
2466.5	0.8877
2475.67	0.884
2484.83	0.886
2494	0.8873
2503.16	0.891
2512.33	0.888
2521.49	0.886
2530.66	0.884
2539.82	0.881
2548.99	0.8841
2558.15	0.8926
2567.32	0.901
2576.48	0.904
2585.65	0.904
2594.81	0.904
2603.98	0.9033
2613.14	0.903
2622.31	0.9037
2631.48	0.8971
2640.64	0.891
2649.81	0.887
2658.97	0.883
2668.14	0.883
2677.3	0.8827
2686.47	0.873
2695.63	0.869
2704.8	0.861
2713.96	0.8521
2723.13	0.8477
2732.29	0.847
2741.46	0.845
2750.62	0.845
2759.79	0.845
2768.96	0.845
2778.12	0.847
2787.29	0.847
2796.45	0.8424
2805.62	0.8299
2814.78	0.8137
2823.95	0.7977
2833.11	0.788
2842.28	0.7847
2851.44	0.7837
2860.61	0.7767
2869.77	0.7704
2878.94	0.7627
2888.1	0.7499
2897.27	0.7026
2906.43	0.6754
2915.6	0.6424
2924.77	0.6397
2933.93	0.6456
2943.1	0.7041
2952.26	0.7308
2961.43	0.734
2970.59	0.734
2979.76	0.7416
2988.92	0.754
2998.09	0.754
3007.25	0.754
3016.42	0.7467
3025.58	0.745
3034.75	0.7364
3043.91	0.7282
3053.08	0.6994
3062.25	0.6661
3071.41	0.6484
3080.58	0.6367
3089.74	0.6294
3098.91	0.6189
3108.07	0.61
3117.24	0.5739
3126.4	0.5363
3135.57	0.5116
3144.73	0.4719
3153.9	0.398
3163.06	0.3567
3172.23	0.2952
3181.39	0.2514
3190.56	0.247
3199.73	0.247
3208.89	0.2493
3218.06	0.2589
3227.22	0.27
3236.39	0.27
3245.55	0.2654
3254.72	0.2497
3263.88	0.2307
3273.05	0.2084
3282.21	0.1967
3291.38	0.1831
3300.54	0.1701
3309.71	0.159
3318.87	0.1456
3328.04	0.1297
3337.2	0.124
3346.37	0.121
3355.54	0.124
3364.7	0.126
3373.87	0.126
3383.03	0.126
3392.2	0.126
3401.36	0.126
3410.53	0.1283
3419.69	0.1356
3428.86	0.1586
3438.02	0.1888
3447.19	0.239
3456.35	0.286
3465.52	0.3516
3474.68	0.411
3483.85	0.466
3493.02	0.4994
3502.18	0.5714
3511.35	0.6109
3520.51	0.6347
3529.68	0.6754
3538.84	0.7061
3548.01	0.7293
3557.17	0.7476
3566.34	0.7599
3575.5	0.7753
3584.67	0.7923
3593.83	0.8101
3603	0.8336
3612.16	0.8473
3621.33	0.8578
3630.49	0.8709
3639.66	0.8796
3648.83	0.8873
3657.99	0.892
3667.16	0.8966
3676.32	0.9003
3685.49	0.9083
3694.65	0.9123
3703.82	0.916
3712.98	0.918
3722.15	0.92
3731.31	0.9213
3740.48	0.924
3749.64	0.926
3758.81	0.93
3767.97	0.934
3777.14	0.935
3786.31	0.934
3795.47	0.932
3804.64	0.93
3813.8	0.93
3822.97	0.929
3832.13	0.929
3841.3	0.929
3850.46	0.929
3859.63	0.929
3868.79	0.929
3877.96	0.929
3887.12	0.9293
3896.29	0.929
3905.45	0.929
3914.62	0.929
3923.78	0.929
3932.95	0.929
3942.12	0.929
3951.28	0.929
3960.45	0.928
3969.61	0.928
3978.78	0.928
3987.94	0.928
3997.11	0.926
4006.27	0.926
