Infrared Spectrum: NICOTINE SILICOTUNGSTATE
Formula: C20 H32 N4 O40 Si W12
State: SOLID (NUJOL MULL)
Class: COBLENTZ
Instrument: Not specified, most likely a prism, grating, or hybrid spectrometer.
Sampling: TRANSMISSION
Resolution: 4
Origin: TENNESSEE EASTMAN COMPANY, RESEARCH LABORATORIES
MICROMETERS	TRANSMITTANCE
2.023	0.323
2.06289	0.33
2.10278	0.337
2.14267	0.343
2.18257	0.35
2.22246	0.358
2.26235	0.358
2.30224	0.358
2.34213	0.36
2.38202	0.372
2.42191	0.38
2.4618	0.388
2.5017	0.405
2.54159	0.42
2.58148	0.432
2.62137	0.439
2.66126	0.447
2.70115	0.462
2.74104	0.469
2.78093	0.439
2.82083	0.429
2.86072	0.425
2.90061	0.427
2.9405	0.439
2.98039	0.447
3.02028	0.462
3.06017	0.469
3.10006	0.467
3.13996	0.465
3.17985	0.454
3.21974	0.439
3.25963	0.404
3.29952	0.363
3.33941	0.205
3.3793	0.001
3.4192	0.001
3.45909	0.026
3.49898	0.083
3.53887	0.402
3.57876	0.485
3.61865	0.517
3.65854	0.509
3.69843	0.512
3.73833	0.522
3.77822	0.524
3.81811	0.539
3.858	0.55
3.89789	0.569
3.93778	0.589
3.97767	0.601
4.01756	0.612
4.05746	0.622
4.09735	0.634
4.13724	0.642
4.17713	0.649
4.21702	0.656
4.25691	0.681
4.2968	0.694
4.33669	0.697
4.37659	0.696
4.41648	0.696
4.45637	0.699
4.49626	0.706
4.53615	0.707
4.57604	0.711
4.61593	0.716
4.65583	0.722
4.69572	0.727
4.73561	0.732
4.7755	0.736
4.81539	0.742
4.85528	0.746
4.89517	0.747
4.93506	0.749
4.97496	0.756
5.01485	0.761
5.05474	0.762
5.09463	0.761
5.13452	0.764
5.17441	0.767
5.2143	0.771
5.25419	0.774
5.29409	0.777
5.33398	0.787
5.37387	0.789
5.41376	0.796
5.45365	0.797
5.49354	0.799
5.53343	0.801
5.57332	0.804
5.61322	0.808
5.65311	0.809
5.693	0.811
5.73289	0.811
5.77278	0.811
5.81267	0.814
5.85256	0.814
5.89246	0.814
5.93235	0.816
5.97224	0.814
6.01213	0.816
6.05202	0.813
6.09191	0.774
6.1318	0.759
6.17169	0.756
6.21159	0.731
6.25148	0.762
6.29137	0.796
6.33126	0.803
6.37115	0.777
6.41104	0.762
6.45093	0.766
6.49082	0.797
6.53072	0.808
6.57061	0.808
6.6105	0.801
6.65039	0.781
6.69028	0.746
6.73017	0.585
6.77006	0.363
6.80995	0.173
6.84985	0.181
6.88974	0.287
6.92963	0.434
6.96952	0.629
7.00941	0.706
7.0493	0.739
7.08919	0.759
7.12909	0.754
7.16898	0.707
7.20887	0.489
7.24876	0.33
7.28865	0.409
7.32854	0.492
7.36843	0.637
7.40832	0.672
7.44822	0.687
7.48811	0.699
7.528	0.724
7.56789	0.739
7.60778	0.751
7.64767	0.752
7.68756	0.756
7.72745	0.766
7.76735	0.771
7.80724	0.777
7.84713	0.776
7.88702	0.767
7.92691	0.769
7.9668	0.781
8.00669	0.796
8.04658	0.797
8.08648	0.801
8.12637	0.808
8.16626	0.809
8.20615	0.809
8.24604	0.806
8.28593	0.801
8.32582	0.803
8.36572	0.804
8.40561	0.804
8.4455	0.803
8.48539	0.801
8.52528	0.786
8.56517	0.786
8.60506	0.786
8.64495	0.787
8.68485	0.791
8.72474	0.797
8.76463	0.809
8.80452	0.809
8.84441	0.808
8.8843	0.806
8.92419	0.804
8.96408	0.804
9.00398	0.801
9.04387	0.794
9.08376	0.791
9.12365	0.791
9.16354	0.789
9.20343	0.789
9.24332	0.789
9.28321	0.791
9.32311	0.791
9.363	0.789
9.40289	0.779
9.44278	0.766
9.48267	0.761
9.52256	0.754
9.56245	0.749
9.60235	0.742
9.64224	0.726
9.68213	0.704
9.72202	0.669
9.76191	0.617
9.8018	0.557
9.84169	0.542
9.88158	0.599
9.92148	0.661
9.96137	0.682
10.0013	0.649
10.0411	0.599
10.081	0.535
10.1209	0.454
10.1608	0.368
10.2007	0.31
10.2406	0.273
10.2805	0.268
10.3204	0.3
10.3603	0.365
10.4002	0.455
10.4401	0.525
10.48	0.542
10.5198	0.519
10.5597	0.457
10.5996	0.367
10.6395	0.29
10.6794	0.243
10.7193	0.202
10.7592	0.17
10.7991	0.14
10.839	0.11
10.8789	0.098
10.9188	0.095
10.9586	0.118
10.9985	0.183
11.0384	0.3
11.0783	0.387
11.1182	0.454
11.1581	0.462
11.198	0.465
11.2379	0.465
11.2778	0.447
11.3177	0.437
11.3576	0.434
11.3975	0.44
11.4373	0.474
11.4772	0.53
11.5171	0.579
11.557	0.612
11.5969	0.646
11.6368	0.651
11.6767	0.659
11.7166	0.659
11.7565	0.656
11.7964	0.649
11.8363	0.627
11.8761	0.601
11.916	0.564
11.9559	0.517
11.9958	0.47
12.0357	0.415
12.0756	0.347
12.1155	0.3
12.1554	0.26
12.1953	0.237
12.2352	0.208
12.2751	0.19
12.315	0.176
12.3548	0.16
12.3947	0.143
12.4346	0.121
12.4745	0.111
12.5144	0.103
12.5543	0.09
12.5942	0.085
12.6341	0.081
12.674	0.08
12.7139	0.078
12.7538	0.076
12.7936	0.076
12.8335	0.078
12.8734	0.078
12.9133	0.083
12.9532	0.088
12.9931	0.101
13.033	0.113
13.0729	0.121
13.1128	0.133
13.1527	0.151
13.1926	0.166
13.2325	0.181
13.2723	0.202
13.3122	0.218
13.3521	0.237
13.392	0.255
13.4319	0.272
13.4718	0.288
13.5117	0.3
13.5516	0.315
13.5915	0.328
13.6314	0.343
13.6713	0.358
13.7111	0.37
13.751	0.385
13.7909	0.397
13.8308	0.405
13.8707	0.435
13.9106	0.454
13.9505	0.467
13.9904	0.477
14.0303	0.487
14.0702	0.497
14.1101	0.509
14.15	0.517
14.1898	0.527
14.2297	0.534
14.2696	0.539
14.3095	0.544
14.3494	0.549
14.3893	0.55
14.4292	0.552
14.4691	0.552
14.509	0.549
14.5489	0.532
14.5888	0.509
14.6286	0.487
14.6685	0.469
14.7084	0.454
14.7483	0.447
14.7882	0.444
14.8281	0.445
14.868	0.449
14.9079	0.462
14.9478	0.477
14.9877	0.509
15.0276	0.53
15.0675	0.534
15.1073	0.535
15.1472	0.534
15.1871	0.54
15.227	0.544
15.2669	0.547
15.3068	0.549
15.3467	0.552
15.3866	0.554
15.4265	0.555
15.4664	0.559
15.5063	0.56
15.5461	0.56
15.586	0.562
15.6259	0.564
15.6658	0.567
15.7057	0.569
15.7456	0.57
15.7855	0.572
15.8254	0.579
15.8653	0.584
15.9052	0.589
15.9451	0.592
15.985	0.594
