Infrared Spectrum: 2-BIPHENYLYLPENICILLIN, SODIUM SALT
Formula: C21 H19 N2 O4 S Na
State: SOLID (OIL MULL)
Class: COBLENTZ III
Instrument: Not specified, most likely a prism spectrometer.
Instrument parameters: NaCl PRISM
Sampling: TRANSMISSION
Resolution: 2
Origin: SMITH KLINE & FRENCH LABS.
MICROMETERS	TRANSMITTANCE
1.997	0.716
2.03126	0.719
2.06551	0.724
2.09977	0.727
2.13403	0.732
2.16829	0.737
2.20254	0.739
2.2368	0.742
2.27106	0.736
2.30532	0.697
2.33957	0.672
2.37383	0.673
2.40809	0.687
2.44234	0.694
2.4766	0.699
2.51086	0.726
2.54512	0.738
2.57937	0.742
2.61363	0.749
2.64789	0.754
2.68214	0.76
2.7164	0.764
2.75066	0.766
2.78492	0.768
2.81917	0.768
2.85343	0.755
2.88769	0.75
2.92195	0.731
2.9562	0.623
2.99046	0.649
3.02472	0.727
3.05897	0.731
3.09323	0.731
3.12749	0.73
3.16175	0.722
3.196	0.719
3.23026	0.714
3.26452	0.673
3.29877	0.622
3.33303	0.527
3.36729	0.31
3.40155	0.129
3.4358	0.057
3.47006	0.057
3.50432	0.057
3.53858	0.056
3.57283	0.361
3.60709	0.589
3.64135	0.691
3.6756	0.692
3.70986	0.681
3.74412	0.689
3.77838	0.704
3.81263	0.709
3.84689	0.719
3.88115	0.752
3.91541	0.77
3.94966	0.787
3.98392	0.796
4.01818	0.8
4.05243	0.815
4.08669	0.827
4.12095	0.829
4.15521	0.829
4.18946	0.829
4.22372	0.827
4.25798	0.829
4.29223	0.831
4.32649	0.835
4.36075	0.836
4.39501	0.842
4.42926	0.849
4.46352	0.853
4.49778	0.86
4.53204	0.864
4.56629	0.869
4.60055	0.87
4.63481	0.875
4.66906	0.877
4.70332	0.88
4.73758	0.885
4.77184	0.891
4.80609	0.893
4.84035	0.894
4.87461	0.893
4.90887	0.894
4.94312	0.896
4.97738	0.898
5.01164	0.901
5.04589	0.901
5.08015	0.903
5.11441	0.904
5.14867	0.897
5.18292	0.904
5.21718	0.914
5.25144	0.909
5.28569	0.907
5.31995	0.912
5.35421	0.912
5.38847	0.912
5.42272	0.91
5.45698	0.91
5.49124	0.905
5.5255	0.891
5.55975	0.87
5.59401	0.759
5.62827	0.644
5.66252	0.177
5.69678	0.084
5.73104	0.253
5.7653	0.584
5.79955	0.725
5.83381	0.781
5.86807	0.809
5.90232	0.81
5.93658	0.807
5.97084	0.732
6.0051	0.625
6.03935	0.15
6.07361	0.321
6.10787	0.598
6.14213	0.313
6.17638	0.417
6.21064	0.347
6.2449	0.08
6.27915	0.21
6.31341	0.493
6.34767	0.539
6.38193	0.638
6.41618	0.672
6.45044	0.698
6.4847	0.7
6.51896	0.66
6.55321	0.493
6.58747	0.25
6.62173	0.173
6.65598	0.288
6.69024	0.401
6.7245	0.45
6.75876	0.304
6.79301	0.214
6.82727	0.089
6.86153	0.084
6.89578	0.085
6.93004	0.118
6.9643	0.2
6.99856	0.302
7.03281	0.369
7.06707	0.269
7.10133	0.279
7.13559	0.416
7.16984	0.509
7.2041	0.47
7.23836	0.224
7.27261	0.166
7.30687	0.184
7.34113	0.245
7.37539	0.409
7.40964	0.495
7.4439	0.483
7.47816	0.4
7.51241	0.404
7.54667	0.268
7.58093	0.214
7.61519	0.269
7.64944	0.449
7.6837	0.517
7.71796	0.559
7.75222	0.582
7.78647	0.544
7.82073	0.576
7.85499	0.571
7.88924	0.301
7.9235	0.445
7.95776	0.575
7.99202	0.606
8.02627	0.611
8.06053	0.616
8.09479	0.675
8.12905	0.704
8.1633	0.722
8.19756	0.732
8.23182	0.736
8.26607	0.735
8.30033	0.7
8.33459	0.673
8.36885	0.671
8.4031	0.702
8.43736	0.711
8.47162	0.665
8.50587	0.654
8.54013	0.653
8.57439	0.637
8.60865	0.6
8.6429	0.534
8.67716	0.605
8.71142	0.665
8.74568	0.704
8.77993	0.722
8.81419	0.728
8.84845	0.714
8.8827	0.639
8.91696	0.617
8.95122	0.664
8.98548	0.725
9.01973	0.735
9.05399	0.744
9.08825	0.757
9.12251	0.759
9.15676	0.744
9.19102	0.572
9.22528	0.561
9.25953	0.659
9.29379	0.702
9.32805	0.708
9.36231	0.743
9.39656	0.769
9.43082	0.775
9.46508	0.778
9.49933	0.781
9.53359	0.781
9.56785	0.78
9.60211	0.778
9.63636	0.777
9.67062	0.776
9.70488	0.774
9.73914	0.769
9.77339	0.749
9.80765	0.749
9.84191	0.769
9.87616	0.783
9.91042	0.774
9.94468	0.715
9.97894	0.736
10.0132	0.738
10.0475	0.728
10.0817	0.725
10.116	0.724
10.1502	0.717
10.1845	0.715
10.2187	0.728
10.253	0.733
10.2873	0.738
10.3215	0.741
10.3558	0.743
10.39	0.735
10.4243	0.724
10.4585	0.719
10.4928	0.713
10.5271	0.752
10.5613	0.778
10.5956	0.78
10.6298	0.783
10.6641	0.786
10.6983	0.788
10.7326	0.788
10.7669	0.788
10.8011	0.77
10.8354	0.704
10.8696	0.703
10.9039	0.769
10.9381	0.797
10.9724	0.818
11.0067	0.832
11.0409	0.838
11.0752	0.848
11.1094	0.848
11.1437	0.847
11.1779	0.841
11.2122	0.815
11.2465	0.744
11.2807	0.744
11.315	0.792
11.3492	0.798
11.3835	0.803
11.4177	0.809
11.452	0.816
11.4863	0.825
11.5205	0.83
11.5548	0.816
11.589	0.782
11.6233	0.799
11.6575	0.825
11.6918	0.843
11.7261	0.852
11.7603	0.855
11.7946	0.86
11.8288	0.866
11.8631	0.873
11.8973	0.879
11.9316	0.882
11.9659	0.887
12.0001	0.892
12.0344	0.897
12.0686	0.901
12.1029	0.904
12.1371	0.904
12.1714	0.903
12.2057	0.881
12.2399	0.846
12.2742	0.843
12.3084	0.847
12.3427	0.852
12.3769	0.871
12.4112	0.887
12.4455	0.896
12.4797	0.907
12.514	0.912
12.5482	0.915
12.5825	0.916
12.6167	0.916
12.651	0.915
12.6853	0.914
12.7195	0.868
12.7538	0.733
12.788	0.742
12.8223	0.731
12.8565	0.742
12.8908	0.799
12.9251	0.811
12.9593	0.813
12.9936	0.803
13.0278	0.733
13.0621	0.593
13.0963	0.599
13.1306	0.645
13.1649	0.656
13.1991	0.559
13.2334	0.451
13.2676	0.503
13.3019	0.636
13.3361	0.702
13.3704	0.704
13.4047	0.641
13.4389	0.477
13.4732	0.275
13.5074	0.201
13.5417	0.335
13.5759	0.47
13.6102	0.59
13.6445	0.634
13.6787	0.653
13.713	0.661
13.7472	0.682
13.7815	0.694
13.8157	0.721
13.85	0.725
13.8843	0.728
13.9185	0.737
13.9528	0.759
13.987	0.772
14.0213	0.791
14.0555	0.808
14.0898	0.813
14.1241	0.813
14.1583	0.78
14.1926	0.738
14.2268	0.644
14.2611	0.54
14.2953	0.376
14.3296	0.334
14.3639	0.476
14.3981	0.632
14.4324	0.736
14.4666	0.778
14.5009	0.796
14.5351	0.813
14.5694	0.824
14.6037	0.826
14.6379	0.835
14.6722	0.84
14.7064	0.84
14.7407	0.838
14.7749	0.835
14.8092	0.833
