Infrared Spectrum: Pyridine, 4-( (1-pyrenylimino)-methyl)-
Formula: C22 H14 N2
State: SOLID (SPLIT MULL), FLUOROLUBE FOR 3800-1330 CM^-^1, NUJOL FOR 1330-400 CM^-^1
Class: COBLENTZ III
Instrument: DOW KBr FOREPRISM-GRATING
Instrument parameters: BLAZED AT 3.5, 12.0, 20.0 MICRON AND CHANGED AT 5.0, 7.5, 14.9 MICRON
Sampling: TRANSMISSION
Resolution: 2
Origin: DOW CHEMICAL COMPANY
1/CM	TRANSMITTANCE
386	0.7977
395	0.7986
404	0.8023
413	0.8057
422	0.8088
431	0.8489
440	0.8516
449	0.8506
458	0.8689
467	0.805
476	0.8786
485	0.8202
494	0.8955
503	0.8578
512	0.867
521	0.6614
530	0.9018
539	0.852
548	0.8854
557	0.8917
566	0.8912
575	0.8864
584	0.8622
593	0.7676
602	0.8738
611	0.8277
620	0.8179
629	0.8272
638	0.7776
647	0.8912
656	0.8827
665	0.8746
674	0.8007
683	0.8682
692	0.8699
701	0.863
710	0.8121
719	0.3485
728	0.775
737	0.7338
746	0.8234
755	0.7896
764	0.5952
773	0.7966
782	0.8226
791	0.8043
800	0.7634
809	0.6099
818	0.2817
827	0.7523
836	0.7033
845	0.3712
854	0.3091
863	0.7353
872	0.6572
881	0.7717
890	0.763
899	0.7149
908	0.7761
917	0.7755
926	0.7697
935	0.757
944	0.6824
953	0.7288
962	0.6156
971	0.6462
980	0.693
989	0.7478
998	0.753
1007	0.7511
1016	0.7426
1025	0.731
1034	0.7265
1043	0.7137
1052	0.6684
1061	0.7186
1070	0.7182
1079	0.7117
1088	0.7046
1097	0.6585
1106	0.7072
1115	0.7062
1124	0.7026
1133	0.6906
1142	0.6449
1151	0.6932
1160	0.6923
1169	0.6684
1178	0.5634
1187	0.5931
1196	0.6612
1205	0.6554
1214	0.6824
1223	0.6609
1232	0.6192
1241	0.6062
1250	0.6788
1259	0.6791
1268	0.6723
1277	0.6543
1286	0.6231
1295	0.5905
1304	0.5665
1313	0.5997
1322	0.6353
1331	0.6262
1340	0.6014
1349	0.6476
1358	0.6994
1367	0.6975
1376	0.6394
1385	0.6964
1394	0.6795
1403	0.6837
1412	0.3723
1421	0.7105
1430	0.8056
1439	0.8261
1448	0.8214
1457	0.7792
1466	0.8292
1475	0.8242
1484	0.8192
1493	0.8349
1502	0.8221
1511	0.8136
1520	0.8123
1529	0.7858
1538	0.7434
1547	0.7642
1556	0.7746
1565	0.7701
1574	0.7203
1583	0.5092
1592	0.4757
1601	0.5149
1610	0.7627
1619	0.8247
1628	0.8182
1637	0.8263
1646	0.8278
1655	0.8257
1664	0.8222
1673	0.8151
1682	0.8051
1691	0.8118
1700	0.8139
1709	0.8124
1718	0.809
1727	0.8003
1736	0.7951
1745	0.7912
1754	0.789
1763	0.7828
1772	0.7719
1781	0.7614
1790	0.7506
1799	0.7588
1808	0.7668
1817	0.7633
1826	0.7586
1835	0.7538
1844	0.7493
1853	0.7436
1862	0.7354
1871	0.7264
1880	0.7208
1889	0.7203
1898	0.7235
1907	0.7186
1916	0.7006
1925	0.6837
1934	0.6881
1943	0.6931
1952	0.6928
1961	0.6924
1970	0.6908
1979	0.6874
1988	0.6796
1997	0.6744
2006	0.6783
2015	0.6761
2024	0.672
2033	0.6678
2042	0.6639
2051	0.659
2060	0.6539
2069	0.6493
2078	0.6447
2087	0.6392
2096	0.6337
2105	0.6273
2114	0.6209
2123	0.6157
2132	0.6107
2141	0.6055
2150	0.6003
2159	0.5951
2168	0.5902
2177	0.5857
2186	0.5812
2195	0.5768
2204	0.5724
2213	0.5683
2222	0.5644
2231	0.5602
2240	0.5558
2249	0.5514
2258	0.5472
2267	0.5433
2276	0.5409
2285	0.5399
2294	0.5398
2303	0.5399
2312	0.5405
2321	0.5409
2330	0.5414
2339	0.5427
2348	0.5445
2357	0.5457
2366	0.5466
2375	0.5473
2384	0.5483
2393	0.5494
2402	0.5505
2411	0.5512
2420	0.5519
2429	0.5519
2438	0.5518
2447	0.5516
2456	0.5515
2465	0.5513
2474	0.5512
2483	0.5508
2492	0.5505
2501	0.5492
2510	0.548
2519	0.5467
2528	0.5454
2537	0.5438
2546	0.542
2555	0.5402
2564	0.5383
2573	0.5359
2582	0.5335
2591	0.5311
2600	0.5281
2609	0.525
2618	0.5219
2627	0.5187
2636	0.5147
2645	0.5106
2654	0.5066
2663	0.5025
2672	0.4981
2681	0.4934
2690	0.4888
2699	0.4841
2708	0.4795
2717	0.4749
2726	0.4701
2735	0.4653
2744	0.4606
2753	0.4558
2762	0.4512
2771	0.4465
2780	0.4419
2789	0.4372
2798	0.4326
2807	0.4268
2816	0.4209
2825	0.4149
2834	0.4086
2843	0.4008
2852	0.3932
2861	0.3912
2870	0.3909
2879	0.3913
2888	0.3902
2897	0.3876
2906	0.3841
2915	0.3801
2924	0.3753
2933	0.3707
2942	0.3665
2951	0.3622
2960	0.3582
2969	0.3542
2978	0.3503
2987	0.3454
2996	0.3403
3005	0.3331
3014	0.3244
3023	0.3246
3032	0.3294
3041	0.3394
3050	0.3491
3059	0.3561
3068	0.3606
3077	0.3645
3086	0.3642
3095	0.3614
3104	0.3586
3113	0.3556
3122	0.3525
3131	0.3491
3140	0.3458
3149	0.3422
3158	0.3385
3167	0.3348
3176	0.3311
3185	0.3277
3194	0.3244
3203	0.3211
3212	0.3178
3221	0.3145
3230	0.3113
3239	0.3083
3248	0.3054
3257	0.3024
3266	0.2995
3275	0.2969
3284	0.2945
3293	0.292
3302	0.2896
3311	0.2872
3320	0.2848
3329	0.2824
3338	0.28
3347	0.2776
3356	0.2752
3365	0.2728
3374	0.2705
3383	0.2681
3392	0.2657
3401	0.2636
3410	0.2616
3419	0.2595
3428	0.2575
3437	0.2555
3446	0.2534
3455	0.2514
3464	0.2497
3473	0.248
3482	0.2463
3491	0.2446
3500	0.243
3509	0.2412
3518	0.2395
3527	0.2376
3536	0.2358
3545	0.234
3554	0.233
3563	0.2322
3572	0.2314
3581	0.2306
3590	0.2297
3599	0.2288
3608	0.2278
3617	0.2269
3626	0.2252
3635	0.2232
3644	0.2212
3653	0.2191
3662	0.2171
3671	0.2149
3680	0.2128
3689	0.2109
3698	0.2091
3707	0.2073
3716	0.2057
3725	0.2046
3734	0.2036
3743	0.2026
3752	0.2016
3761	0.2007
3770	0.1998
3779	0.1989
3788	0.198
3797	0.1971
