Infrared Spectrum: MANGANESE TETRABORATE
Formula: Mn B4 O7  * 8 H2 O
State: SOLID (NUJOL MULL)
Class: COBLENTZ
Instrument: Not specified, most likely a prism, grating, or hybrid spectrometer.
Sampling: TRANSMISSION
Resolution: 4
Origin: MELLON INSTITUTE
MICROMETERS	TRANSMITTANCE
2.057	0.974
2.09683	0.978
2.13666	0.976
2.17649	0.981
2.21633	0.984
2.25616	0.984
2.29599	0.973
2.33582	0.973
2.37565	0.976
2.41548	0.978
2.45531	0.978
2.49515	0.981
2.53498	0.979
2.57481	0.978
2.61464	0.981
2.65447	0.961
2.6943	0.958
2.73413	0.862
2.77396	0.717
2.8138	0.575
2.85363	0.478
2.89346	0.431
2.93329	0.406
2.97312	0.401
3.01295	0.419
3.05278	0.448
3.09262	0.484
3.13245	0.525
3.17228	0.591
3.21211	0.628
3.25194	0.662
3.29177	0.625
3.3316	0.26
3.37144	0.128
3.41127	0.284
3.4511	0.285
3.49093	0.548
3.53076	0.834
3.57059	0.899
3.61042	0.923
3.65026	0.931
3.69009	0.939
3.72992	0.944
3.76975	0.949
3.80958	0.958
3.84941	0.963
3.88924	0.968
3.92908	0.961
3.96891	0.974
4.00874	0.971
4.04857	0.968
4.0884	0.968
4.12823	0.973
4.16806	0.966
4.20789	0.948
4.24773	0.938
4.28756	0.931
4.32739	0.938
4.36722	0.949
4.40705	0.963
4.44688	0.958
4.48671	0.956
4.52655	0.953
4.56638	0.953
4.60621	0.953
4.64604	0.946
4.68587	0.949
4.7257	0.951
4.76553	0.953
4.80537	0.954
4.8452	0.951
4.88503	0.949
4.92486	0.954
4.96469	0.959
5.00452	0.959
5.04435	0.961
5.08419	0.961
5.12402	0.964
5.16385	0.963
5.20368	0.961
5.24351	0.958
5.28334	0.963
5.32317	0.961
5.363	0.961
5.40284	0.961
5.44267	0.958
5.4825	0.956
5.52233	0.954
5.56216	0.958
5.60199	0.954
5.64182	0.953
5.68166	0.948
5.72149	0.946
5.76132	0.936
5.80115	0.938
5.84098	0.928
5.88081	0.916
5.92064	0.894
5.96048	0.879
6.00031	0.851
6.04014	0.826
6.07997	0.814
6.1198	0.819
6.15963	0.842
6.19946	0.877
6.2393	0.891
6.27913	0.897
6.31896	0.896
6.35879	0.897
6.39862	0.891
6.43845	0.889
6.47828	0.882
6.51811	0.871
6.55795	0.857
6.59778	0.849
6.63761	0.817
6.67744	0.774
6.71727	0.7
6.7571	0.598
6.79693	0.436
6.83677	0.413
6.8766	0.399
6.91643	0.397
6.95626	0.401
6.99609	0.411
7.03592	0.411
7.07575	0.403
7.11559	0.397
7.15542	0.377
7.19525	0.346
7.23508	0.306
7.27491	0.299
7.31474	0.302
7.35457	0.314
7.39441	0.319
7.43424	0.327
7.47407	0.344
7.5139	0.364
7.55373	0.386
7.59356	0.416
7.63339	0.449
7.67323	0.478
7.71306	0.506
7.75289	0.53
7.79272	0.55
7.83255	0.568
7.87238	0.576
7.91221	0.58
7.95204	0.578
7.99188	0.573
8.03171	0.57
8.07154	0.561
8.11137	0.548
8.1512	0.536
8.19103	0.525
8.23086	0.51
8.2707	0.476
8.31053	0.449
8.35036	0.418
8.39019	0.392
8.43002	0.366
8.46985	0.352
8.50968	0.327
8.54952	0.306
8.58935	0.287
8.62918	0.282
8.66901	0.279
8.70884	0.275
8.74867	0.274
8.7885	0.275
8.82834	0.274
8.86817	0.267
8.908	0.264
8.94783	0.262
8.98766	0.259
9.02749	0.257
9.06732	0.254
9.10715	0.249
9.14699	0.242
9.18682	0.235
9.22665	0.227
9.26648	0.222
9.30631	0.22
9.34614	0.22
9.38597	0.222
9.42581	0.225
9.46564	0.225
9.50547	0.232
9.5453	0.24
9.58513	0.244
9.62496	0.245
9.66479	0.249
9.70463	0.252
9.74446	0.252
9.78429	0.254
9.82412	0.254
9.86395	0.255
9.90378	0.255
9.94361	0.259
9.98345	0.257
10.0233	0.255
10.0631	0.254
10.1029	0.257
10.1428	0.257
10.1826	0.257
10.2224	0.264
10.2623	0.27
10.3021	0.277
10.3419	0.284
10.3818	0.292
10.4216	0.301
10.4614	0.306
10.5013	0.316
10.5411	0.327
10.5809	0.331
10.6207	0.336
10.6606	0.344
10.7004	0.347
10.7402	0.354
10.7801	0.362
10.8199	0.372
10.8597	0.382
10.8996	0.397
10.9394	0.409
10.9792	0.418
11.0191	0.424
11.0589	0.428
11.0987	0.434
11.1386	0.439
11.1784	0.444
11.2182	0.446
11.258	0.451
11.2979	0.459
11.3377	0.466
11.3775	0.471
11.4174	0.476
11.4572	0.483
11.497	0.488
11.5369	0.493
11.5767	0.503
11.6165	0.511
11.6564	0.518
11.6962	0.53
11.736	0.536
11.7759	0.55
11.8157	0.568
11.8555	0.586
11.8954	0.598
11.9352	0.608
11.975	0.623
12.0148	0.637
12.0547	0.65
12.0945	0.662
12.1343	0.673
12.1742	0.677
12.214	0.682
12.2538	0.685
12.2937	0.69
12.3335	0.695
12.3733	0.698
12.4132	0.702
12.453	0.704
12.4928	0.709
12.5327	0.71
12.5725	0.715
12.6123	0.72
12.6521	0.725
12.692	0.729
12.7318	0.732
12.7716	0.735
12.8115	0.74
12.8513	0.74
12.8911	0.742
12.931	0.742
12.9708	0.742
13.0106	0.742
13.0505	0.742
13.0903	0.742
13.1301	0.742
13.17	0.74
13.2098	0.739
13.2496	0.739
13.2895	0.737
13.3293	0.739
13.3691	0.739
13.4089	0.74
13.4488	0.74
13.4886	0.74
13.5284	0.74
13.5683	0.739
13.6081	0.739
13.6479	0.739
13.6878	0.737
13.7276	0.735
13.7674	0.735
13.8073	0.734
13.8471	0.734
13.8869	0.734
13.9268	0.734
13.9666	0.737
14.0064	0.739
14.0462	0.739
14.0861	0.74
14.1259	0.74
14.1657	0.739
14.2056	0.737
14.2454	0.739
14.2852	0.737
14.3251	0.734
14.3649	0.73
14.4047	0.725
14.4446	0.725
14.4844	0.725
14.5242	0.725
14.5641	0.73
14.6039	0.729
14.6437	0.727
14.6835	0.725
14.7234	0.724
14.7632	0.72
14.803	0.72
14.8429	0.719
14.8827	0.719
14.9225	0.72
14.9624	0.719
15.0022	0.717
15.042	0.719
15.0819	0.717
15.1217	0.717
15.1615	0.715
15.2014	0.714
15.2412	0.714
15.281	0.712
15.3209	0.71
15.3607	0.705
15.4005	0.704
15.4403	0.7
15.4802	0.695
15.52	0.692
15.5598	0.687
15.5997	0.685
15.6395	0.682
15.6793	0.68
15.7192	0.678
15.759	0.677
15.7988	0.677
15.8387	0.677
15.8785	0.678
15.9183	0.678
15.9582	0.678
15.998	0.678
