Infrared Spectrum: LEAD NITRATE
Formula: Pb ( N O3)2
State: SOLID (NUJOL MULL)
Class: COBLENTZ
Instrument: Not specified, most likely a prism, grating, or hybrid spectrometer.
Sampling: TRANSMISSION
Resolution: 4
Origin: MELLON INSTITUTE
MICROMETERS	TRANSMITTANCE
2.041	0.619
2.08095	0.619
2.12091	0.618
2.16086	0.616
2.20081	0.619
2.24077	0.624
2.28072	0.624
2.32067	0.628
2.36062	0.629
2.40058	0.633
2.44053	0.633
2.48048	0.634
2.52044	0.639
2.56039	0.646
2.60034	0.651
2.6403	0.661
2.68025	0.664
2.7202	0.668
2.76015	0.67
2.80011	0.671
2.84006	0.673
2.88001	0.673
2.91997	0.673
2.95992	0.673
2.99987	0.675
3.03983	0.676
3.07978	0.68
3.11973	0.683
3.15968	0.686
3.19964	0.691
3.23959	0.695
3.27954	0.691
3.3195	0.599
3.35945	0.437
3.3994	0.417
3.43936	0.458
3.47931	0.53
3.51926	0.671
3.55921	0.715
3.59917	0.735
3.63912	0.745
3.67907	0.748
3.71903	0.752
3.75898	0.755
3.79893	0.757
3.83889	0.758
3.87884	0.76
3.91879	0.762
3.95875	0.762
3.9987	0.763
4.03865	0.763
4.0786	0.763
4.11856	0.763
4.15851	0.763
4.19846	0.763
4.23842	0.763
4.27837	0.763
4.31832	0.765
4.35828	0.77
4.39823	0.772
4.43818	0.773
4.47813	0.775
4.51809	0.775
4.55804	0.775
4.59799	0.775
4.63795	0.777
4.6779	0.777
4.71785	0.777
4.75781	0.777
4.79776	0.778
4.83771	0.78
4.87766	0.778
4.91762	0.78
4.95757	0.783
4.99752	0.785
5.03748	0.787
5.07743	0.792
5.11738	0.795
5.15734	0.798
5.19729	0.8
5.23724	0.805
5.2772	0.805
5.31715	0.809
5.3571	0.809
5.39705	0.809
5.43701	0.812
5.47696	0.815
5.51691	0.82
5.55687	0.824
5.59682	0.827
5.63677	0.834
5.67673	0.839
5.71668	0.845
5.75663	0.854
5.79658	0.859
5.83654	0.862
5.87649	0.864
5.91644	0.867
5.9564	0.871
5.99635	0.872
6.0363	0.874
6.07626	0.874
6.11621	0.876
6.15616	0.876
6.19611	0.877
6.23607	0.879
6.27602	0.879
6.31597	0.881
6.35593	0.879
6.39588	0.876
6.43583	0.877
6.47579	0.876
6.51574	0.876
6.55569	0.872
6.59564	0.867
6.6356	0.865
6.67555	0.862
6.7155	0.85
6.75546	0.795
6.79541	0.715
6.83536	0.675
6.87532	0.675
6.91527	0.683
6.95522	0.68
6.99518	0.641
7.03513	0.5
7.07508	0.402
7.11503	0.286
7.15499	0.229
7.19494	0.197
7.23489	0.187
7.27485	0.201
7.3148	0.244
7.35475	0.326
7.39471	0.447
7.43466	0.515
7.47461	0.554
7.51456	0.581
7.55452	0.603
7.59447	0.628
7.63442	0.653
7.67438	0.675
7.71433	0.701
7.75428	0.728
7.79424	0.748
7.83419	0.765
7.87414	0.782
7.91409	0.793
7.95405	0.804
7.994	0.815
8.03395	0.825
8.07391	0.834
8.11386	0.842
8.15381	0.847
8.19377	0.852
8.23372	0.854
8.27367	0.86
8.31362	0.864
8.35358	0.865
8.39353	0.869
8.43348	0.872
8.47344	0.876
8.51339	0.877
8.55334	0.877
8.5933	0.879
8.63325	0.879
8.6732	0.879
8.71316	0.879
8.75311	0.879
8.79306	0.879
8.83301	0.879
8.87297	0.879
8.91292	0.879
8.95287	0.879
8.99283	0.881
9.03278	0.879
9.07273	0.879
9.11269	0.879
9.15264	0.881
9.19259	0.881
9.23254	0.881
9.2725	0.882
9.31245	0.882
9.3524	0.884
9.39236	0.886
9.43231	0.886
9.47226	0.889
9.51222	0.891
9.55217	0.891
9.59212	0.889
9.63207	0.889
9.67203	0.891
9.71198	0.891
9.75193	0.891
9.79189	0.891
9.83184	0.891
9.87179	0.894
9.91175	0.894
9.9517	0.896
9.99165	0.897
10.0316	0.899
10.0716	0.901
10.1115	0.901
10.1515	0.901
10.1914	0.901
10.2314	0.902
10.2713	0.902
10.3113	0.904
10.3512	0.902
10.3912	0.902
10.4311	0.902
10.4711	0.902
10.511	0.902
10.551	0.902
10.5909	0.904
10.6309	0.906
10.6709	0.904
10.7108	0.904
10.7508	0.906
10.7907	0.906
10.8307	0.904
10.8706	0.904
10.9106	0.904
10.9505	0.907
10.9905	0.907
11.0304	0.907
11.0704	0.907
11.1103	0.907
11.1503	0.906
11.1902	0.906
11.2302	0.912
11.2701	0.914
11.3101	0.916
11.3501	0.914
11.39	0.916
11.43	0.917
11.4699	0.919
11.5099	0.921
11.5498	0.921
11.5898	0.921
11.6297	0.922
11.6697	0.921
11.7096	0.922
11.7496	0.924
11.7895	0.929
11.8295	0.931
11.8694	0.924
11.9094	0.809
11.9494	0.852
11.9893	0.889
12.0293	0.904
12.0692	0.916
12.1092	0.922
12.1491	0.927
12.1891	0.929
12.229	0.929
12.269	0.929
12.3089	0.926
12.3489	0.919
12.3888	0.917
12.4288	0.924
12.4687	0.929
12.5087	0.934
12.5486	0.932
12.5886	0.931
12.6286	0.932
12.6685	0.932
12.7085	0.931
12.7484	0.931
12.7884	0.932
12.8283	0.932
12.8683	0.932
12.9082	0.934
12.9482	0.931
12.9881	0.927
13.0281	0.926
13.068	0.924
13.108	0.922
13.1479	0.921
13.1879	0.916
13.2278	0.914
13.2678	0.911
13.3078	0.904
13.3477	0.902
13.3877	0.901
13.4276	0.899
13.4676	0.899
13.5075	0.899
13.5475	0.899
13.5874	0.894
13.6274	0.886
13.6673	0.879
13.7073	0.842
13.7472	0.792
13.7872	0.778
13.8271	0.79
13.8671	0.829
13.907	0.844
13.947	0.847
13.987	0.847
14.0269	0.845
14.0669	0.844
14.1068	0.84
14.1468	0.837
14.1867	0.83
14.2267	0.825
14.2666	0.819
14.3066	0.812
14.3465	0.805
14.3865	0.8
14.4264	0.793
14.4664	0.785
14.5063	0.777
14.5463	0.772
14.5862	0.765
14.6262	0.755
14.6662	0.75
14.7061	0.743
14.7461	0.738
14.786	0.733
14.826	0.726
14.8659	0.721
14.9059	0.716
14.9458	0.711
14.9858	0.705
15.0257	0.701
15.0657	0.698
15.1056	0.691
15.1456	0.686
15.1855	0.683
15.2255	0.678
15.2655	0.673
15.3054	0.668
15.3454	0.663
15.3853	0.661
15.4253	0.659
15.4652	0.654
15.5052	0.654
15.5451	0.653
15.5851	0.653
15.625	0.653
15.665	0.651
15.7049	0.649
15.7449	0.648
15.7848	0.646
15.8248	0.646
15.8647	0.644
15.9047	0.644
15.9447	0.644
15.9846	0.644
