Infrared Spectrum: SULFONYL-O,O'-DIPHENACYLDIBENZOATE
Formula: C30 H22 O8 S
State: SOLID (NUJOL MULL)
Class: COBLENTZ
Instrument: Not specified, most likely a prism, grating, or hybrid spectrometer.
Sampling: TRANSMISSION
Resolution: 4
Origin: TENNESSEE EASTMAN COMPANY, RESEARCH LABORATORIES
MICROMETERS	TRANSMITTANCE
2.022	0.637
2.06086	0.64
2.09972	0.642
2.13858	0.647
2.17744	0.652
2.2163	0.656
2.25516	0.658
2.29402	0.656
2.33288	0.658
2.37174	0.658
2.4106	0.663
2.44946	0.673
2.48833	0.682
2.52719	0.695
2.56605	0.708
2.60491	0.711
2.64377	0.715
2.68263	0.724
2.72149	0.729
2.76035	0.733
2.79921	0.733
2.83807	0.737
2.87693	0.741
2.91579	0.744
2.95465	0.745
2.99351	0.749
3.03237	0.757
3.07123	0.762
3.11009	0.762
3.14895	0.763
3.18781	0.762
3.22667	0.76
3.26553	0.739
3.30439	0.695
3.34325	0.516
3.38211	0.268
3.42098	0.08
3.45984	0.106
3.4987	0.119
3.53756	0.548
3.57642	0.797
3.61528	0.83
3.65414	0.834
3.693	0.831
3.73186	0.833
3.77072	0.834
3.80958	0.836
3.84844	0.839
3.8873	0.843
3.92616	0.857
3.96502	0.868
4.00388	0.877
4.04274	0.885
4.0816	0.894
4.12046	0.896
4.15932	0.896
4.19818	0.898
4.23704	0.909
4.2759	0.923
4.31477	0.928
4.35363	0.928
4.39249	0.928
4.43135	0.928
4.47021	0.93
4.50907	0.933
4.54793	0.938
4.58679	0.943
4.62565	0.946
4.66451	0.946
4.70337	0.949
4.74223	0.953
4.78109	0.957
4.81995	0.959
4.85881	0.961
4.89767	0.961
4.93653	0.964
4.97539	0.966
5.01425	0.972
5.05311	0.972
5.09197	0.972
5.13083	0.972
5.16969	0.974
5.20855	0.975
5.24742	0.977
5.28628	0.987
5.32514	0.99
5.364	0.993
5.40286	0.993
5.44172	0.993
5.48058	0.993
5.51944	0.995
5.5583	1.001
5.59716	1
5.63602	0.993
5.67488	0.956
5.71374	0.741
5.7526	0.459
5.79146	0.846
5.83032	0.786
5.86918	0.532
5.90804	0.621
5.9469	0.826
5.98576	0.868
6.02462	0.915
6.06348	0.935
6.10234	0.949
6.14121	0.966
6.18007	0.97
6.21893	0.974
6.25779	0.857
6.29665	0.896
6.33551	0.902
6.37437	0.909
6.41323	0.966
6.45209	0.987
6.49095	0.988
6.52981	0.988
6.56867	0.988
6.60753	0.988
6.64639	0.983
6.68525	0.954
6.72411	0.838
6.76297	0.673
6.80183	0.427
6.84069	0.407
6.87955	0.432
6.91841	0.576
6.95727	0.733
6.99613	0.828
7.03499	0.839
7.07386	0.825
7.11272	0.87
7.15158	0.902
7.19044	0.846
7.2293	0.674
7.26816	0.483
7.30702	0.537
7.34588	0.742
7.38474	0.836
7.4236	0.867
7.46246	0.868
7.50132	0.805
7.54018	0.576
7.57904	0.627
7.6179	0.716
7.65676	0.622
7.69562	0.512
7.73448	0.42
7.77334	0.462
7.8122	0.593
7.85106	0.733
7.88992	0.679
7.92878	0.614
7.96765	0.713
8.00651	0.724
8.04537	0.728
8.08423	0.665
8.12309	0.377
8.16195	0.472
8.20081	0.658
8.23967	0.744
8.27853	0.797
8.31739	0.841
8.35625	0.851
8.39511	0.867
8.43397	0.877
8.47283	0.896
8.51169	0.893
8.55055	0.815
8.58941	0.697
8.62827	0.587
8.66713	0.658
8.70599	0.697
8.74485	0.668
8.78371	0.66
8.82257	0.522
8.86144	0.359
8.9003	0.338
8.93916	0.423
8.97802	0.555
9.01688	0.695
9.05574	0.749
9.0946	0.797
9.13346	0.833
9.17232	0.839
9.21118	0.83
9.25004	0.796
9.2889	0.749
9.32776	0.77
9.36662	0.83
9.40548	0.86
9.44434	0.878
9.4832	0.899
9.52206	0.914
9.56092	0.914
9.59978	0.893
9.63864	0.836
9.6775	0.841
9.71636	0.857
9.75522	0.875
9.79409	0.902
9.83295	0.928
9.87181	0.94
9.91067	0.922
9.94953	0.796
9.98839	0.817
10.0272	0.893
10.0661	0.907
10.105	0.909
10.1438	0.92
10.1827	0.922
10.2215	0.911
10.2604	0.909
10.2993	0.894
10.3381	0.763
10.377	0.642
10.4159	0.616
10.4547	0.69
10.4936	0.765
10.5324	0.834
10.5713	0.851
10.6102	0.883
10.649	0.899
10.6879	0.911
10.7267	0.92
10.7656	0.92
10.8045	0.928
10.8433	0.944
10.8822	0.951
10.921	0.959
10.9599	0.966
10.9988	0.97
11.0376	0.974
11.0765	0.977
11.1153	0.98
11.1542	0.978
11.1931	0.98
11.2319	0.982
11.2708	0.983
11.3096	0.985
11.3485	0.98
11.3874	0.966
11.4262	0.967
11.4651	0.97
11.5039	0.977
11.5428	0.983
11.5817	0.991
11.6205	0.995
11.6594	0.998
11.6982	1
11.7371	1
11.776	1
11.8148	1
11.8537	1
11.8925	1
11.9314	1
11.9703	1
12.0091	1
12.048	1
12.0869	1
12.1257	0.998
12.1646	0.998
12.2034	0.991
12.2423	0.98
12.2812	0.974
12.32	0.975
12.3589	0.977
12.3977	0.978
12.4366	0.98
12.4755	0.977
12.5143	0.972
12.5532	0.966
12.592	0.962
12.6309	0.962
12.6698	0.961
12.7086	0.961
12.7475	0.961
12.7863	0.961
12.8252	0.944
12.8641	0.859
12.9029	0.796
12.9418	0.817
12.9806	0.851
13.0195	0.849
13.0584	0.815
13.0972	0.766
13.1361	0.694
13.1749	0.597
13.2138	0.48
13.2527	0.501
13.2915	0.684
13.3304	0.763
13.3692	0.783
13.4081	0.754
13.447	0.687
13.4858	0.642
13.5247	0.629
13.5635	0.616
13.6024	0.61
13.6413	0.631
13.6801	0.699
13.719	0.747
13.7578	0.781
13.7967	0.797
13.8356	0.823
13.8744	0.847
13.9133	0.851
13.9522	0.855
13.991	0.868
14.0299	0.88
14.0687	0.886
14.1076	0.888
14.1465	0.888
14.1853	0.888
14.2242	0.888
14.263	0.886
14.3019	0.877
14.3408	0.847
14.3796	0.807
14.4185	0.733
14.4573	0.679
14.4962	0.66
14.5351	0.661
14.5739	0.708
14.6128	0.765
14.6516	0.799
14.6905	0.809
14.7294	0.817
14.7682	0.822
14.8071	0.822
14.8459	0.822
14.8848	0.818
14.9237	0.805
14.9625	0.8
15.0014	0.799
15.0402	0.799
15.0791	0.797
15.118	0.788
15.1568	0.781
15.1957	0.775
15.2345	0.768
15.2734	0.762
15.3123	0.762
15.3511	0.763
15.39	0.763
15.4288	0.766
15.4677	0.768
15.5066	0.77
15.5454	0.77
15.5843	0.771
15.6231	0.77
15.662	0.771
15.7009	0.771
15.7397	0.773
15.7786	0.773
15.8175	0.776
15.8563	0.778
15.8952	0.778
15.934	0.779
15.9729	0.783
