Infrared Spectrum: 9H-Purine-9-acetamide, 1,6-dihydro-6-thioxo-
Formula: C7 H7 N5 O S
State: SOLID (1 mg / 650 mg KBr DISC)
Class: COBLENTZ III
Instrument: PERKIN-ELMER 21 (GRATING)
Instrument parameters: FILTER CHANGE ABOUT 1025 CM^-^1
Sampling: TRANSMISSION
Resolution: 2
Origin: SOUTHERN RESEARCH INSTITUTE
1/CM	TRANSMITTANCE
602.563	0.4285
611.602	0.4287
620.641	0.4245
629.681	0.4134
638.72	0.4053
647.759	0.4017
656.798	0.395
665.838	0.4066
674.877	0.488
683.916	0.5019
692.955	0.5223
701.994	0.5336
711.034	0.5373
720.073	0.54
729.112	0.5413
738.151	0.5409
747.191	0.5376
756.23	0.5329
765.269	0.5174
774.308	0.4517
783.348	0.493
792.387	0.3948
801.426	0.267
810.465	0.3087
819.504	0.5421
828.544	0.552
837.583	0.5485
846.622	0.5302
855.661	0.4986
864.701	0.4751
873.74	0.3754
882.779	0.4018
891.818	0.4775
900.857	0.5413
909.897	0.5389
918.936	0.5127
927.975	0.4668
937.014	0.454
946.054	0.414
955.093	0.3583
964.132	0.3974
973.171	0.2278
982.211	0.3444
991.25	0.5108
1000.29	0.5156
1009.33	0.5301
1018.37	0.5389
1027.41	0.5044
1036.45	0.5628
1045.49	0.5616
1054.52	0.5612
1063.56	0.5604
1072.6	0.5539
1081.64	0.536
1090.68	0.5112
1099.72	0.4692
1108.76	0.4231
1117.8	0.4458
1126.84	0.4863
1135.88	0.4794
1144.92	0.4119
1153.96	0.4581
1163	0.4733
1172.03	0.446
1181.07	0.326
1190.11	0.1721
1199.15	0.0659
1208.19	0.1577
1217.23	0.2684
1226.27	0.3425
1235.31	0.4186
1244.35	0.4969
1253.39	0.5121
1262.43	0.5067
1271.47	0.4797
1280.5	0.4487
1289.54	0.4019
1298.58	0.3016
1307.62	0.2293
1316.66	0.3357
1325.7	0.3538
1334.74	0.2256
1343.78	0.3795
1352.82	0.3878
1361.86	0.3592
1370.9	0.3454
1379.94	0.3451
1388.98	0.2754
1398.01	0.1983
1407.05	0.1163
1416.09	0.1017
1425.13	0.2093
1434.17	0.3353
1443.21	0.4444
1452.25	0.5113
1461.29	0.5219
1470.33	0.5098
1479.37	0.4805
1488.41	0.4184
1497.45	0.4161
1506.49	0.4682
1515.52	0.4551
1524.56	0.3178
1533.6	0.1797
1542.64	0.1324
1551.68	0.1493
1560.72	0.1884
1569.76	0.1756
1578.8	0.1138
1587.84	0.0509
1596.88	0.0239
1605.92	0.0428
1614.96	0.1144
1624	0.1882
1633.03	0.2477
1642.07	0.2611
1651.11	0.2453
1660.15	0.1985
1669.19	0.0757
1678.23	0.0306
1687.27	0.0507
1696.31	0.1324
1705.35	0.2193
1714.39	0.307
1723.43	0.4103
1732.47	0.4771
1741.51	0.5129
1750.54	0.5254
1759.58	0.5389
1768.62	0.5518
1777.66	0.5634
1786.7	0.5728
1795.74	0.579
1804.78	0.5801
1813.82	0.578
1822.86	0.5744
1831.9	0.5692
1840.94	0.5611
1849.98	0.5498
1859.02	0.5407
1868.05	0.5495
1877.09	0.5614
1886.13	0.5638
1895.17	0.5586
1904.21	0.5535
1913.25	0.5467
1922.29	0.5443
1931.33	0.5457
1940.37	0.5467
1949.41	0.5474
1958.45	0.5444
1967.49	0.5374
1976.53	0.5273
1985.56	0.5223
1994.6	0.5228
2003.64	0.5263
2012.68	0.5308
2021.72	0.5358
2030.76	0.5412
2039.8	0.5467
2048.84	0.5515
2057.88	0.5546
2066.92	0.5553
2075.96	0.5561
2085	0.5575
2094.04	0.5605
2103.07	0.563
2112.11	0.5648
2121.15	0.5644
2130.19	0.565
2139.23	0.5657
2148.27	0.5657
2157.31	0.5653
2166.35	0.565
2175.39	0.5652
2184.43	0.5651
2193.47	0.5646
2202.51	0.5632
2211.55	0.5621
2220.58	0.5606
2229.62	0.5599
2238.66	0.5585
2247.7	0.5571
2256.74	0.5566
2265.78	0.5563
2274.82	0.556
2283.86	0.5535
2292.9	0.5453
2301.94	0.536
2310.98	0.5274
2320.02	0.5216
2329.06	0.5176
2338.09	0.5155
2347.13	0.5152
2356.17	0.5157
2365.21	0.5195
2374.25	0.5268
2383.29	0.5273
2392.33	0.5153
2401.37	0.502
2410.41	0.498
2419.45	0.4931
2428.49	0.4855
2437.53	0.4783
2446.57	0.4712
2455.6	0.4644
2464.64	0.4576
2473.68	0.4493
2482.72	0.4411
2491.76	0.4338
2500.8	0.4258
2509.84	0.4174
2518.88	0.4089
2527.92	0.402
2536.96	0.3953
2546	0.3891
2555.04	0.3831
2564.08	0.3769
2573.11	0.3684
2582.15	0.358
2591.19	0.3523
2600.23	0.3468
2609.27	0.3399
2618.31	0.3315
2627.35	0.3285
2636.39	0.3251
2645.43	0.3186
2654.47	0.313
2663.51	0.3092
2672.55	0.3056
2681.59	0.3004
2690.62	0.2945
2699.66	0.2895
2708.7	0.285
2717.74	0.2832
2726.78	0.2832
2735.82	0.2874
2744.86	0.2931
2753.9	0.2987
2762.94	0.3016
2771.98	0.3029
2781.02	0.3031
2790.06	0.3029
2799.09	0.3014
2808.13	0.2992
2817.17	0.2971
2826.21	0.2955
2835.25	0.2939
2844.29	0.294
2853.33	0.2966
2862.37	0.3002
2871.41	0.3037
2880.45	0.3108
2889.49	0.3194
2898.53	0.3224
2907.57	0.3229
2916.6	0.3226
2925.64	0.3216
2934.68	0.3204
2943.72	0.3175
2952.76	0.3128
2961.8	0.3032
2970.84	0.2971
2979.88	0.2922
2988.92	0.2876
2997.96	0.2848
3007	0.2815
3016.04	0.2805
3025.08	0.2825
3034.11	0.286
3043.15	0.286
3052.19	0.2777
3061.23	0.2723
3070.27	0.272
3079.31	0.2769
3088.35	0.2954
3097.39	0.2949
3106.43	0.2866
3115.47	0.2594
3124.51	0.2493
3133.55	0.2428
3142.59	0.2386
3151.62	0.2297
3160.66	0.2239
3169.7	0.2122
3178.74	0.2002
3187.78	0.1997
3196.82	0.2016
3205.86	0.2059
3214.9	0.2171
3223.94	0.2181
3232.98	0.2167
3242.02	0.2155
3251.06	0.2089
3260.1	0.1997
3269.13	0.192
3278.17	0.1847
3287.21	0.1776
3296.25	0.1709
3305.29	0.1648
3314.33	0.159
3323.37	0.1536
3332.41	0.1462
3341.45	0.1368
3350.49	0.1227
3359.53	0.1134
3368.57	0.1097
3377.61	0.1062
3386.64	0.1032
3395.68	0.1005
3404.72	0.0984
3413.76	0.0972
3422.8	0.0972
3431.84	0.0982
3440.88	0.0997
3449.92	0.1022
3458.96	0.105
3468	0.1068
3477.04	0.1127
3486.08	0.1248
3495.12	0.1379
3504.15	0.1505
3513.19	0.165
3522.23	0.1813
3531.27	0.1938
3540.31	0.2034
3549.35	0.2148
3558.39	0.2279
3567.43	0.2424
3576.47	0.2592
3585.51	0.2704
3594.55	0.2834
3603.59	0.3065
3612.63	0.3277
3621.66	0.3547
3630.7	0.3761
3639.74	0.3966
3648.78	0.4158
3657.82	0.4339
3666.86	0.4507
3675.9	0.4587
3684.94	0.4612
3693.98	0.4645
3703.02	0.4722
3712.06	0.4894
3721.1	0.4965
3730.14	0.5015
3739.17	0.5053
3748.21	0.5098
3757.25	0.5114
3766.29	0.5093
3775.33	0.5091
3784.37	0.5112
3793.41	0.5136
3802.45	0.5169
3811.49	0.5219
3820.53	0.5278
3829.57	0.529
3838.61	0.5209
3847.65	0.5091
3856.68	0.5028
3865.72	0.5011
3874.76	0.5026
3883.8	0.5038
3892.84	0.5049
3901.88	0.5062
3910.92	0.5062
3919.96	0.5062
3929	0.5064
3938.04	0.5066
3947.08	0.5063
3956.12	0.5061
3965.16	0.506
3974.19	0.5048
3983.23	0.5013
3992.27	0.5007
4001.31	0.5023
4010.35	0.5076
