Infrared Spectrum: d-1-(3-METHYL-4-MORPHOLINO-2,2-DIPHENYLBUTYRYL) PYRROLIDINE, TARTRATE
Formula: C29 H38 N2 O8
State: SOLID (NUJOL MULL)
Class: COBLENTZ III
Instrument: PERKIN-ELMER 21 (GRATING)
Instrument parameters: NaCl PRISM
Sampling: TRANSMISSION
Resolution: 2
Origin: SMITH KLINE & FRENCH LABS.
1/CM	TRANSMITTANCE
665	0.6395
674	0.5518
683	0.5561
692	0.6813
701	0.6631
710	0.4649
719	0.3848
728	0.6661
737	0.7488
746	0.7691
755	0.6419
764	0.7289
773	0.7502
782	0.8379
791	0.8626
800	0.8481
809	0.8425
818	0.7338
827	0.8362
836	0.8259
845	0.8119
854	0.7778
863	0.6648
872	0.7646
881	0.7997
890	0.7228
899	0.7332
908	0.7507
917	0.7279
926	0.7701
935	0.782
944	0.7848
953	0.7402
962	0.7554
971	0.7047
980	0.6129
989	0.7262
998	0.7323
1007	0.7068
1016	0.6782
1025	0.6333
1034	0.6026
1043	0.5884
1052	0.6105
1061	0.598
1070	0.6025
1079	0.4727
1088	0.6186
1097	0.6158
1106	0.5226
1115	0.4308
1124	0.2798
1133	0.5194
1142	0.6038
1151	0.6349
1160	0.5672
1169	0.5643
1178	0.5997
1187	0.5191
1196	0.5434
1205	0.5277
1214	0.4432
1223	0.499
1232	0.3456
1241	0.3231
1250	0.3783
1259	0.483
1268	0.3958
1277	0.5888
1286	0.5923
1295	0.6128
1304	0.6268
1313	0.6186
1322	0.5833
1331	0.5556
1340	0.4764
1349	0.4014
1358	0.2591
1367	0.2207
1376	0.2356
1385	0.4116
1394	0.4644
1403	0.3357
1412	0.2223
1421	0.2647
1430	0.2894
1439	0.2069
1448	0.1881
1457	0.1962
1466	0.2431
1475	0.4664
1484	0.5009
1493	0.5419
1502	0.7089
1511	0.7322
1520	0.7376
1529	0.7087
1538	0.6585
1547	0.625
1556	0.5365
1565	0.4998
1574	0.3872
1583	0.2539
1592	0.1801
1601	0.1592
1610	0.1669
1619	0.4255
1628	0.5703
1637	0.6775
1646	0.6574
1655	0.6376
1664	0.6295
1673	0.6029
1682	0.4851
1691	0.3444
1700	0.4674
1709	0.6331
1718	0.7489
1727	0.7812
1736	0.8022
1745	0.8162
1754	0.8227
1763	0.8309
1772	0.8339
1781	0.8314
1790	0.83
1799	0.831
1808	0.8337
1817	0.8348
1826	0.8253
1835	0.8129
1844	0.8005
1853	0.7917
1862	0.786
1871	0.7763
1880	0.7608
1889	0.7497
1898	0.7398
1907	0.737
1916	0.7349
1925	0.7334
1934	0.7319
1943	0.7306
1952	0.7293
1961	0.7287
1970	0.7285
1979	0.7287
1988	0.7299
1997	0.7335
2006	0.7379
2015	0.7426
2024	0.7475
2033	0.7524
2042	0.7558
2051	0.759
2060	0.7622
2069	0.7661
2078	0.7697
2087	0.7718
2096	0.7715
2105	0.771
2114	0.77
2123	0.7682
2132	0.766
2141	0.7636
2150	0.7614
2159	0.7591
2168	0.7559
2177	0.7527
2186	0.7495
2195	0.7469
2204	0.7456
2213	0.743
2222	0.737
2231	0.7332
2240	0.7311
2249	0.7294
2258	0.728
2267	0.7269
2276	0.7261
2285	0.7256
2294	0.7255
2303	0.7262
2312	0.7282
2321	0.7308
2330	0.7308
2339	0.7285
2348	0.7236
2357	0.7176
2366	0.7113
2375	0.7037
2384	0.6969
2393	0.6919
2402	0.689
2411	0.687
2420	0.6869
2429	0.6865
2438	0.6731
2447	0.6612
2456	0.6568
2465	0.6548
2474	0.6535
2483	0.6489
2492	0.6483
2501	0.6481
2510	0.648
2519	0.6474
2528	0.6466
2537	0.6448
2546	0.6421
2555	0.6388
2564	0.634
2573	0.6277
2582	0.62
2591	0.6114
2600	0.6026
2609	0.5972
2618	0.5945
2627	0.5936
2636	0.5927
2645	0.59
2654	0.5833
2663	0.5755
2672	0.5677
2681	0.5597
2690	0.5552
2699	0.556
2708	0.561
2717	0.5644
2726	0.5646
2735	0.5639
2744	0.5627
2753	0.5607
2762	0.5584
2771	0.5544
2780	0.5462
2789	0.4939
2798	0.381
2807	0.2689
2816	0.1506
2825	0.0784
2834	0.0667
2843	0.0642
2852	0.0633
2861	0.0625
2870	0.0553
2879	0.0467
2888	0.0424
2897	0.0423
2906	0.0433
2915	0.0456
2924	0.0492
2933	0.0569
2942	0.1025
2951	0.1823
2960	0.2616
2969	0.3405
2978	0.4116
2987	0.4502
2996	0.5014
3005	0.5721
3014	0.5899
3023	0.606
3032	0.6173
3041	0.6274
3050	0.6373
3059	0.6462
3068	0.6534
3077	0.6568
3086	0.6596
3095	0.6603
3104	0.6602
3113	0.6593
3122	0.6584
3131	0.657
3140	0.6555
3149	0.654
3158	0.6525
3167	0.651
3176	0.6487
3185	0.6461
3194	0.6429
3203	0.6387
3212	0.6345
3221	0.6303
3230	0.6261
3239	0.6212
3248	0.6163
3257	0.6114
3266	0.6062
3275	0.5992
3284	0.5919
3293	0.5828
3302	0.5717
3311	0.5595
3320	0.5461
3329	0.5273
3338	0.4999
3347	0.4687
3356	0.4376
3365	0.4068
3374	0.376
3383	0.3456
3392	0.3375
3401	0.4107
3410	0.485
3419	0.559
3428	0.6481
3437	0.6937
3446	0.7084
3455	0.7146
3464	0.7185
3473	0.722
3482	0.7268
3491	0.7326
3500	0.7362
3509	0.737
3518	0.7361
3527	0.7352
3536	0.7342
3545	0.7332
3554	0.732
3563	0.7307
3572	0.7305
3581	0.7308
3590	0.7317
3599	0.7329
3608	0.7342
3617	0.7355
3626	0.736
3635	0.7363
3644	0.736
3653	0.7354
3662	0.7344
3671	0.7334
3680	0.7324
3689	0.7305
3698	0.728
3707	0.7259
3716	0.7241
3725	0.7231
3734	0.7226
3743	0.7221
3752	0.7217
3761	0.7213
3770	0.7209
3779	0.7204
3788	0.7199
3797	0.7196
3806	0.7191
3815	0.7187
3824	0.718
3833	0.7153
3842	0.7127
3851	0.7098
3860	0.7059
3869	0.7018
3878	0.6976
3887	0.6936
3896	0.6895
3905	0.6853
3914	0.6817
3923	0.6804
3932	0.679
3941	0.6776
3950	0.6762
3959	0.6742
3968	0.6722
3977	0.6693
3986	0.6664
3995	0.6629
