Infrared Spectrum: CODEINE, SULFATE (PENTAHYDRATE)
Formula: C36 H44 N2 O10 S  * 5 H2 O
State: SOLID (1.5 mg / 250 mg KBr DISC)
Class: COBLENTZ III
Instrument: PERKIN-ELMER 21 (GRATING)
Instrument parameters: FILTER AT ABOUT 10 MICRONS
Sampling: TRANSMISSION
Resolution: 2
Origin: BUREAU OF CUSTOMS
1/CM	TRANSMITTANCE
4000	0.8395
3991	0.8408
3982	0.8421
3973	0.8434
3964	0.8448
3955	0.8461
3946	0.8473
3937	0.8486
3928	0.8497
3919	0.851
3910	0.8521
3901	0.8534
3892	0.8546
3883	0.8559
3874	0.8571
3865	0.8584
3856	0.8597
3847	0.8609
3838	0.8623
3829	0.8639
3820	0.8657
3811	0.8675
3802	0.8696
3793	0.872
3784	0.8758
3775	0.8842
3766	0.8882
3757	0.8901
3748	0.8918
3739	0.8935
3730	0.8949
3721	0.8963
3712	0.8975
3703	0.8986
3694	0.8997
3685	0.9007
3676	0.9017
3667	0.9023
3658	0.9021
3649	0.8999
3640	0.8957
3631	0.8875
3622	0.8714
3613	0.8381
3604	0.8115
3595	0.7849
3586	0.7581
3577	0.7311
3568	0.7041
3559	0.6768
3550	0.6495
3541	0.622
3532	0.5944
3523	0.5666
3514	0.5387
3505	0.5106
3496	0.4825
3487	0.4541
3478	0.4256
3469	0.3968
3460	0.3682
3451	0.3392
3442	0.3101
3433	0.2825
3424	0.2726
3415	0.2637
3406	0.2574
3397	0.2559
3388	0.2556
3379	0.2553
3370	0.2567
3361	0.2584
3352	0.2645
3343	0.2709
3334	0.2787
3325	0.2877
3316	0.2962
3307	0.3031
3298	0.3075
3289	0.3116
3280	0.3167
3271	0.3259
3262	0.3416
3253	0.3577
3244	0.3732
3235	0.3887
3226	0.4042
3217	0.4199
3208	0.4357
3199	0.4515
3190	0.4675
3181	0.4835
3172	0.4996
3163	0.5159
3154	0.5322
3145	0.5485
3136	0.565
3127	0.5817
3118	0.5983
3109	0.6151
3100	0.632
3091	0.649
3082	0.666
3073	0.6803
3064	0.6819
3055	0.6821
3046	0.6808
3037	0.6767
3028	0.6575
3019	0.6297
3010	0.6018
3001	0.5736
2992	0.5559
2983	0.5607
2974	0.5748
2965	0.5828
2956	0.5854
2947	0.5849
2938	0.5782
2929	0.5629
2920	0.5556
2911	0.5567
2902	0.579
2893	0.6069
2884	0.635
2875	0.6632
2866	0.6799
2857	0.6798
2848	0.6782
2839	0.6737
2830	0.6651
2821	0.6626
2812	0.6758
2803	0.6915
2794	0.6945
2785	0.6948
2776	0.6854
2767	0.6728
2758	0.6617
2749	0.6551
2740	0.6488
2731	0.641
2722	0.6328
2713	0.6254
2704	0.6188
2695	0.6121
2686	0.6045
2677	0.5951
2668	0.5852
2659	0.5735
2650	0.5632
2641	0.5547
2632	0.5512
2623	0.5491
2614	0.5487
2605	0.5487
2596	0.5489
2587	0.5497
2578	0.5509
2569	0.5518
2560	0.5515
2551	0.5401
2542	0.5266
2533	0.5214
2524	0.5179
2515	0.5102
2506	0.4998
2497	0.4906
2488	0.4831
2479	0.4797
2470	0.4785
2461	0.4812
2452	0.4886
2443	0.4965
2434	0.501
2425	0.5023
2416	0.5037
2407	0.505
2398	0.5089
2389	0.5177
2380	0.528
2371	0.5386
2362	0.5498
2353	0.5615
2344	0.5726
2335	0.583
2326	0.5935
2317	0.6024
2308	0.611
2299	0.6198
2290	0.6282
2281	0.6367
2272	0.6451
2263	0.6536
2254	0.6615
2245	0.6696
2236	0.6775
2227	0.6851
2218	0.6925
2209	0.6984
2200	0.7043
2191	0.7101
2182	0.7161
2173	0.7221
2164	0.7284
2155	0.7354
2146	0.7425
2137	0.7496
2128	0.7568
2119	0.7643
2110	0.7719
2101	0.7798
2092	0.7878
2083	0.7965
2074	0.8061
2065	0.8138
2056	0.8198
2047	0.828
2038	0.836
2029	0.8433
2020	0.8508
2011	0.8581
2002	0.8647
1993	0.8711
1984	0.8775
1975	0.8843
1966	0.8912
1957	0.8988
1948	0.9063
1939	0.9135
1930	0.9208
1921	0.9282
1912	0.9357
1903	0.943
1894	0.943
1885	0.9452
1876	0.9505
1867	0.9559
1858	0.9608
1849	0.9662
1840	0.9703
1831	0.9734
1822	0.9743
1813	0.9651
1804	0.9662
1795	0.9737
1786	0.9786
1777	0.9796
1768	0.9778
1759	0.9698
1750	0.9598
1741	0.9536
1732	0.9455
1723	0.9443
1714	0.9463
1705	0.9178
1696	0.8801
1687	0.848
1678	0.8375
1669	0.8342
1660	0.8054
1651	0.6886
1642	0.572
1633	0.4614
1624	0.5972
1615	0.6805
1606	0.5409
1597	0.7698
1588	0.8371
1579	0.8856
1570	0.9027
1561	0.9133
1552	0.9158
1543	0.9037
1534	0.8025
1525	0.6322
1516	0.4396
1507	0.2017
1498	0.294
1489	0.5597
1480	0.5167
1471	0.4018
1462	0.395
1453	0.1704
1444	0.2087
1435	0.3988
1426	0.6024
1417	0.7006
1408	0.7887
1399	0.8183
1390	0.8225
1381	0.8075
1372	0.7084
1363	0.621
1354	0.7619
1345	0.7801
1336	0.6565
1327	0.5299
1318	0.4604
1309	0.606
1300	0.7618
1291	0.589
1282	0.3966
1273	0.1376
1264	0.4394
1255	0.5412
1246	0.5238
1237	0.6525
1228	0.7074
1219	0.6728
1210	0.6014
1201	0.5727
1192	0.3823
1183	0.524
1174	0.5446
1165	0.334
1156	0.187
1147	0.2026
1138	0.1398
1129	0.1129
1120	0.1287
1111	0.2509
1102	0.2929
1093	0.1576
1084	0.1071
1075	0.0864
1066	0.1292
1057	0.1579
1048	0.0867
1039	0.1042
1030	0.1468
1021	0.1774
1012	0.3058
1003	0.3822
994	0.478
985	0.5588
976	0.5062
967	0.3818
958	0.6003
949	0.6105
940	0.3923
931	0.4746
922	0.575
913	0.5253
904	0.6572
895	0.765
886	0.7957
877	0.7501
868	0.5649
859	0.8014
850	0.8258
841	0.4862
832	0.7228
823	0.8271
814	0.8336
805	0.7755
796	0.5809
787	0.27
778	0.6182
769	0.6767
760	0.7753
751	0.4427
742	0.723
733	0.7486
724	0.7119
715	0.5005
706	0.6379
697	0.4888
688	0.5366
679	0.5129
670	0.4964
661	0.5018
652	0.4509
