Infrared Spectrum: Cephalosporin C, potassium salt, monohydrate
Formula: C16 H20 K N3 O8 S  * H2 O
State: SOLID (OIL MULL)
Class: COBLENTZ
Instrument: PERKIN-ELMER 21 (GRATING)
Instrument parameters: NaCl PRISM
Sampling: TRANSMISSION
Resolution: 2
Origin: SMITH KLINE & FRENCH LABS.
1/CM	TRANSMITTANCE
662	0.6493
671	0.6814
680	0.706
689	0.7255
698	0.735
707	0.7347
716	0.7286
725	0.7302
734	0.7097
743	0.7422
752	0.7568
761	0.7218
770	0.6989
779	0.7581
788	0.7042
797	0.7599
806	0.7586
815	0.748
824	0.7867
833	0.7886
842	0.7847
851	0.7588
860	0.7257
869	0.78
878	0.7876
887	0.799
896	0.7862
905	0.7752
914	0.7192
923	0.764
932	0.7531
941	0.7505
950	0.7544
959	0.7042
968	0.6865
977	0.7418
986	0.7337
995	0.7371
1004	0.7467
1013	0.7086
1022	0.6283
1031	0.4955
1040	0.6875
1049	0.6879
1058	0.6912
1067	0.6225
1076	0.7213
1085	0.7139
1094	0.7354
1103	0.7212
1112	0.6957
1121	0.7266
1130	0.7252
1139	0.6937
1148	0.6297
1157	0.6608
1166	0.6177
1175	0.6244
1184	0.6734
1193	0.6285
1202	0.6082
1211	0.5265
1220	0.3831
1229	0.4001
1238	0.3723
1247	0.3628
1256	0.5534
1265	0.5976
1274	0.569
1283	0.5433
1292	0.6376
1301	0.6295
1310	0.5491
1319	0.4647
1328	0.3789
1337	0.4303
1346	0.4975
1355	0.3117
1364	0.3437
1373	0.3295
1382	0.3855
1391	0.436
1400	0.4575
1409	0.4543
1418	0.528
1427	0.5362
1436	0.4389
1445	0.339
1454	0.2945
1463	0.2955
1472	0.5169
1481	0.5233
1490	0.4175
1499	0.3504
1508	0.3344
1517	0.2512
1526	0.3996
1535	0.5528
1544	0.5524
1553	0.4702
1562	0.4292
1571	0.3708
1580	0.2271
1589	0.2371
1598	0.3255
1607	0.3827
1616	0.4113
1625	0.3927
1634	0.4045
1643	0.2595
1652	0.295
1661	0.4623
1670	0.6176
1679	0.6871
1688	0.7161
1697	0.7134
1706	0.6627
1715	0.4536
1724	0.3276
1733	0.4476
1742	0.3898
1751	0.3166
1760	0.4081
1769	0.4489
1778	0.5513
1787	0.6855
1796	0.7581
1805	0.7866
1814	0.8057
1823	0.8265
1832	0.8374
1841	0.8329
1850	0.8376
1859	0.843
1868	0.8436
1877	0.8434
1886	0.8427
1895	0.8404
1904	0.8361
1913	0.8376
1922	0.8386
1931	0.8405
1940	0.8411
1949	0.8406
1958	0.8401
1967	0.8398
1976	0.8396
1985	0.8382
1994	0.8368
2003	0.8329
2012	0.8285
2021	0.824
2030	0.8187
2039	0.8138
2048	0.8143
2057	0.8108
2066	0.8045
2075	0.7996
2084	0.7943
2093	0.7907
2102	0.788
2111	0.7862
2120	0.785
2129	0.78
2138	0.7745
2147	0.7691
2156	0.7777
2165	0.7915
2174	0.7955
2183	0.7982
2192	0.8084
2201	0.8148
2210	0.8152
2219	0.8137
2228	0.8118
2237	0.8097
2246	0.8065
2255	0.8024
2264	0.7969
2273	0.7919
2282	0.788
2291	0.7859
2300	0.7841
2309	0.7836
2318	0.7829
2327	0.7811
2336	0.7746
2345	0.7661
2354	0.7603
2363	0.7585
2372	0.755
2381	0.7508
2390	0.7482
2399	0.7476
2408	0.7442
2417	0.7337
2426	0.7285
2435	0.7248
2444	0.721
2453	0.7167
2462	0.712
2471	0.7073
2480	0.703
2489	0.7011
2498	0.6991
2507	0.6972
2516	0.6962
2525	0.6971
2534	0.6986
2543	0.6995
2552	0.6947
2561	0.6841
2570	0.6747
2579	0.6702
2588	0.6683
2597	0.6674
2606	0.6595
2615	0.6567
2624	0.6555
2633	0.6533
2642	0.6471
2651	0.6412
2660	0.6388
2669	0.6383
2678	0.6353
2687	0.6162
2696	0.599
2705	0.581
2714	0.5667
2723	0.5493
2732	0.5314
2741	0.5137
2750	0.4979
2759	0.4759
2768	0.4348
2777	0.3789
2786	0.3243
2795	0.2446
2804	0.201
2813	0.1982
2822	0.1976
2831	0.1989
2840	0.2048
2849	0.2143
2858	0.2245
2867	0.2483
2876	0.2625
2885	0.2833
2894	0.3105
2903	0.3527
2912	0.4327
2921	0.4913
2930	0.5496
2939	0.6055
2948	0.6302
2957	0.6596
2966	0.6809
2975	0.698
2984	0.7103
2993	0.716
3002	0.7209
3011	0.7224
3020	0.7229
3029	0.7228
3038	0.7231
3047	0.7243
3056	0.7256
3065	0.7287
3074	0.7364
3083	0.7458
3092	0.7488
3101	0.7482
3110	0.7471
3119	0.7432
3128	0.7387
3137	0.7345
3146	0.7316
3155	0.7301
3164	0.729
3173	0.7286
3182	0.7286
3191	0.7287
3200	0.7287
3209	0.7279
3218	0.7188
3227	0.7088
3236	0.702
3245	0.6976
3254	0.695
3263	0.6947
3272	0.6946
3281	0.698
3290	0.7016
3299	0.7105
3308	0.755
3317	0.764
3326	0.768
3335	0.7728
3344	0.7779
3353	0.7835
3362	0.7893
3371	0.795
3380	0.8016
3389	0.8099
3398	0.8162
3407	0.8184
3416	0.8193
3425	0.8203
3434	0.8213
3443	0.8224
3452	0.8234
3461	0.8246
3470	0.826
3479	0.8278
3488	0.831
3497	0.8341
3506	0.8373
3515	0.8404
3524	0.8445
3533	0.85
3542	0.8578
3551	0.8666
3560	0.8755
3569	0.8871
3578	0.894
3587	0.8968
3596	0.8994
3605	0.9011
3614	0.9018
3623	0.9019
3632	0.902
3641	0.9022
3650	0.9022
3659	0.9016
3668	0.9011
3677	0.8996
3686	0.8978
3695	0.8961
3704	0.8945
3713	0.8928
3722	0.8919
3731	0.8933
3740	0.8947
3749	0.8958
3758	0.8958
3767	0.8955
3776	0.8952
3785	0.8943
3794	0.8933
3803	0.8924
3812	0.8915
3821	0.8915
3830	0.8917
3839	0.892
3848	0.8927
3857	0.8924
3866	0.8919
3875	0.8915
3884	0.891
3893	0.8902
3902	0.8886
3911	0.8871
3920	0.8856
3929	0.884
3938	0.8817
3947	0.8791
3956	0.8777
3965	0.8778
3974	0.878
3983	0.8783
3992	0.8785
