Infrared Spectrum: BENZENAMINE, N-BIS-(3,4,5-TRIMETHYLPHENYL)-,HYDROCHLORIDE
Formula: C24 H28 Cl N
State: SOLID (KBr DISC, 0.8% WT.)
Class: COBLENTZ III
Instrument: PERKIN-ELMER 157
Sampling: TRANSMISSION
Resolution: 2
Origin: BRITISH PETROLEUM CO. LTD., ENGLAND
1/CM	TRANSMITTANCE
667	0.7294
676	0.9556
685	0.9419
694	0.8447
703	0.355
712	0.5337
721	0.8571
730	0.8229
739	0.6878
748	0.1341
757	0.7738
766	0.8625
775	0.8539
784	0.8466
793	0.8455
802	0.8461
811	0.8446
820	0.8272
829	0.8087
838	0.7539
847	0.6718
856	0.2626
865	0.6472
874	0.2722
883	0.4439
892	0.7768
901	0.7265
910	0.7571
919	0.7972
928	0.7928
937	0.7715
946	0.7356
955	0.6405
964	0.5472
973	0.7144
982	0.687
991	0.6106
1000	0.4339
1009	0.293
1018	0.2229
1027	0.4184
1036	0.5646
1045	0.5646
1054	0.705
1063	0.7029
1072	0.629
1081	0.589
1090	0.708
1099	0.7274
1108	0.7324
1117	0.7303
1126	0.7039
1135	0.5905
1144	0.665
1153	0.6781
1162	0.5759
1171	0.6959
1180	0.6908
1189	0.6456
1198	0.5374
1207	0.5512
1216	0.6297
1225	0.6453
1234	0.5505
1243	0.6409
1252	0.656
1261	0.6362
1270	0.5792
1279	0.3847
1288	0.5096
1297	0.5267
1306	0.5595
1315	0.5162
1324	0.3393
1333	0.4212
1342	0.5494
1351	0.5199
1360	0.4454
1369	0.3236
1378	0.2065
1387	0.2052
1396	0.1872
1405	0.1336
1414	0.2936
1423	0.2837
1432	0.1884
1441	0.0892
1450	0.0905
1459	0.0678
1468	0.0345
1477	0.0289
1486	0.0519
1495	0.2562
1504	0.3738
1513	0.4841
1522	0.5253
1531	0.5254
1540	0.4959
1549	0.4586
1558	0.3649
1567	0.3728
1576	0.3725
1585	0.2991
1594	0.1813
1603	0.0769
1612	0.2287
1621	0.4646
1630	0.5911
1639	0.6411
1648	0.6751
1657	0.6787
1666	0.682
1675	0.677
1684	0.6664
1693	0.6549
1702	0.629
1711	0.6242
1720	0.6369
1729	0.6309
1738	0.6084
1747	0.588
1756	0.6075
1765	0.657
1774	0.6665
1783	0.6675
1792	0.6671
1801	0.6672
1810	0.6634
1819	0.6546
1828	0.6427
1837	0.6312
1846	0.6288
1855	0.6246
1864	0.6053
1873	0.5809
1882	0.5609
1891	0.5556
1900	0.5508
1909	0.5244
1918	0.5151
1927	0.4988
1936	0.4689
1945	0.4174
1954	0.4109
1963	0.4355
1972	0.4904
1981	0.4981
1990	0.4898
1999	0.4858
2008	0.461
2017	0.4419
2026	0.4332
2035	0.4174
2044	0.3848
2053	0.3679
2062	0.348
2071	0.3166
2080	0.3582
2089	0.4141
2098	0.3958
2107	0.3412
2116	0.3004
2125	0.2915
2134	0.3418
2143	0.375
2152	0.3695
2161	0.3594
2170	0.3547
2179	0.3429
2188	0.3291
2197	0.3155
2206	0.3054
2215	0.287
2224	0.2708
2233	0.2421
2242	0.2096
2251	0.1839
2260	0.1615
2269	0.143
2278	0.1244
2287	0.1076
2296	0.0921
2305	0.0763
2314	0.0599
2323	0.049
2332	0.0414
2341	0.0346
2350	0.0322
2359	0.0316
2368	0.0313
2377	0.0309
2386	0.0306
2395	0.0304
2404	0.0302
2413	0.03
2422	0.03
2431	0.03
2440	0.0301
2449	0.0302
2458	0.0303
2467	0.0305
2476	0.0307
2485	0.031
2494	0.0314
2503	0.0319
2512	0.0323
2521	0.0329
2530	0.0335
2539	0.0341
2548	0.0345
2557	0.035
2566	0.035
2575	0.0347
2584	0.0344
2593	0.034
2602	0.0334
2611	0.0326
2620	0.0318
2629	0.0311
2638	0.0306
2647	0.031
2656	0.0316
2665	0.033
2674	0.0361
2683	0.0408
2692	0.0458
2701	0.0513
2710	0.0577
2719	0.0636
2728	0.069
2737	0.0733
2746	0.0769
2755	0.0794
2764	0.0807
2773	0.0811
2782	0.0803
2791	0.0787
2800	0.0771
2809	0.0752
2818	0.0737
2827	0.0724
2836	0.0713
2845	0.0706
2854	0.071
2863	0.0709
2872	0.0704
2881	0.0684
2890	0.067
2899	0.0682
2908	0.0913
2917	0.1043
2926	0.1167
2935	0.1351
2944	0.146
2953	0.1766
2962	0.2131
2971	0.2495
2980	0.2715
2989	0.2802
2998	0.2863
3007	0.2939
3016	0.3085
3025	0.3379
3034	0.3558
3043	0.3939
3052	0.4078
3061	0.4106
3070	0.4124
3079	0.4172
3088	0.4208
3097	0.4232
3106	0.4246
3115	0.4256
3124	0.426
3133	0.4266
3142	0.4257
3151	0.4249
3160	0.4233
3169	0.4213
3178	0.4192
3187	0.4173
3196	0.4157
3205	0.4147
3214	0.414
3223	0.4133
3232	0.412
3241	0.4108
3250	0.4087
3259	0.4059
3268	0.4021
3277	0.3975
3286	0.393
3295	0.3888
3304	0.3841
3313	0.3767
3322	0.3701
3331	0.3627
3340	0.3497
3349	0.3356
3358	0.3268
3367	0.3234
3376	0.323
3385	0.3236
3394	0.3323
3403	0.3417
3412	0.346
3421	0.3469
3430	0.3476
3439	0.3482
3448	0.3487
3457	0.3491
3466	0.3495
3475	0.3499
3484	0.3514
3493	0.3536
3502	0.357
3511	0.3602
3520	0.3629
3529	0.365
3538	0.3665
3547	0.3672
3556	0.3676
3565	0.3679
3574	0.3681
3583	0.3683
3592	0.3685
3601	0.3686
3610	0.3687
3619	0.3689
3628	0.369
3637	0.369
3646	0.369
3655	0.3691
3664	0.3691
3673	0.369
3682	0.3687
3691	0.3683
3700	0.368
3709	0.3675
3718	0.3667
3727	0.3658
3736	0.3644
3745	0.362
3754	0.3596
3763	0.3574
3772	0.3551
3781	0.3524
3790	0.3497
3799	0.3473
3808	0.3448
3817	0.3425
3826	0.3401
3835	0.3378
3844	0.3354
3853	0.3336
3862	0.3329
3871	0.3323
3880	0.3318
3889	0.3312
3898	0.329
3907	0.3271
3916	0.3252
3925	0.3235
3934	0.3221
3943	0.3208
3952	0.318
3961	0.3148
3970	0.3134
3979	0.3122
3988	0.311
3997	0.3099
