Infrared Spectrum: 4-AMINO-2-METHYLPHENOL, SULFATE
Formula: C14 H20 N2 O6 S
State: SOLID (OIL MULL)
Class: COBLENTZ III
Instrument: BAIRD NaCl PRISM
Sampling: TRANSMISSION
Resolution: 4
Origin: WYANDOTTE CHEMICALS CORP.
MICROMETERS	TRANSMITTANCE
2.022	0.303
2.0611	0.31
2.10021	0.328
2.13931	0.33
2.17842	0.331
2.21752	0.35
2.25663	0.368
2.29573	0.378
2.33484	0.399
2.37394	0.408
2.41305	0.433
2.45215	0.449
2.49125	0.47
2.53036	0.49
2.56946	0.509
2.60857	0.532
2.64767	0.554
2.68678	0.581
2.72588	0.591
2.76499	0.553
2.80409	0.439
2.8432	0.291
2.8823	0.237
2.92141	0.247
2.96051	0.265
2.99961	0.271
3.03872	0.266
3.07782	0.247
3.11693	0.232
3.15603	0.181
3.19514	0.159
3.23424	0.121
3.27335	0.067
3.31245	0.025
3.35156	0.023
3.39066	0.02
3.42976	0.02
3.46887	0.036
3.50797	0.08
3.54708	0.122
3.58618	0.138
3.62529	0.148
3.66439	0.154
3.7035	0.151
3.7426	0.138
3.78171	0.141
3.82081	0.157
3.85992	0.181
3.89902	0.214
3.93812	0.247
3.97723	0.282
4.01633	0.309
4.05544	0.332
4.09454	0.358
4.13365	0.384
4.17275	0.4
4.21186	0.417
4.25096	0.424
4.29007	0.438
4.32917	0.454
4.36827	0.482
4.40738	0.504
4.44648	0.527
4.48559	0.532
4.52469	0.545
4.5638	0.552
4.6029	0.567
4.64201	0.583
4.68111	0.6
4.72022	0.614
4.75932	0.621
4.79843	0.624
4.83753	0.629
4.87663	0.623
4.91574	0.624
4.95484	0.632
4.99395	0.638
5.03305	0.645
5.07216	0.658
5.11126	0.665
5.15037	0.671
5.18947	0.7
5.22858	0.709
5.26768	0.722
5.30678	0.75
5.34589	0.762
5.38499	0.766
5.4241	0.767
5.4632	0.782
5.50231	0.8
5.54141	0.817
5.58052	0.832
5.61962	0.838
5.65873	0.844
5.69783	0.843
5.73694	0.833
5.77604	0.831
5.81514	0.833
5.85425	0.835
5.89335	0.839
5.93246	0.829
5.97156	0.784
6.01067	0.543
6.04977	0.501
6.08888	0.478
6.12798	0.282
6.16709	0.266
6.20619	0.373
6.24529	0.45
6.2844	0.457
6.3235	0.389
6.36261	0.257
6.40171	0.301
6.44082	0.403
6.47992	0.321
6.51903	0.2
6.55813	0.16
6.59724	0.222
6.63634	0.309
6.67545	0.31
6.71455	0.203
6.75365	0.059
6.79276	0.052
6.83186	0.1
6.87097	0.168
6.91007	0.25
6.94918	0.38
6.98828	0.514
7.02739	0.561
7.06649	0.572
7.1056	0.555
7.1447	0.461
7.1838	0.231
7.22291	0.178
7.26201	0.214
7.30112	0.26
7.34022	0.294
7.37933	0.391
7.41843	0.482
7.45754	0.589
7.49664	0.635
7.53575	0.665
7.57485	0.645
7.61396	0.63
7.65306	0.623
7.69216	0.494
7.73127	0.275
7.77037	0.177
7.80948	0.179
7.84858	0.33
7.88769	0.399
7.92679	0.472
7.9659	0.542
8.005	0.581
8.04411	0.586
8.08321	0.563
8.12231	0.493
8.16142	0.418
8.20052	0.28
8.23963	0.2
8.27873	0.167
8.31784	0.209
8.35694	0.281
8.39605	0.308
8.43515	0.302
8.47426	0.272
8.51336	0.233
8.55247	0.182
8.59157	0.132
8.63067	0.106
8.66978	0.101
8.70888	0.099
8.74799	0.094
8.78709	0.088
8.8262	0.094
8.8653	0.082
8.90441	0.079
8.94351	0.08
8.98262	0.079
9.02172	0.08
9.06082	0.08
9.09993	0.075
9.13903	0.077
9.17814	0.079
9.21724	0.086
9.25635	0.091
9.29545	0.101
9.33456	0.104
9.37366	0.111
9.41277	0.112
9.45187	0.117
9.49098	0.111
9.53008	0.099
9.56918	0.095
9.60829	0.089
9.64739	0.089
9.6865	0.09
9.7256	0.097
9.76471	0.101
9.80381	0.11
9.84292	0.133
9.88202	0.157
9.92113	0.175
9.96023	0.184
9.99933	0.2
10.0384	0.214
10.0775	0.249
10.1166	0.283
10.1558	0.312
10.1949	0.324
10.234	0.323
10.2731	0.326
10.3122	0.348
10.3513	0.375
10.3904	0.402
10.4295	0.416
10.4686	0.438
10.5077	0.452
10.5468	0.466
10.5859	0.473
10.625	0.488
10.6641	0.49
10.7032	0.5
10.7423	0.516
10.7814	0.52
10.8205	0.52
10.8596	0.526
10.8987	0.536
10.9378	0.559
10.9769	0.571
11.0161	0.585
11.0552	0.597
11.0943	0.607
11.1334	0.619
11.1725	0.623
11.2116	0.611
11.2507	0.588
11.2898	0.576
11.3289	0.581
11.368	0.578
11.4071	0.555
11.4462	0.501
11.4853	0.468
11.5244	0.461
11.5635	0.458
11.6026	0.463
11.6417	0.511
11.6808	0.555
11.7199	0.588
11.759	0.602
11.7981	0.62
11.8373	0.634
11.8764	0.643
11.9155	0.646
11.9546	0.652
11.9937	0.657
12.0328	0.663
12.0719	0.663
12.111	0.656
12.1501	0.642
12.1892	0.625
12.2283	0.574
12.2674	0.451
12.3065	0.301
12.3456	0.232
12.3847	0.201
12.4238	0.238
12.4629	0.34
12.502	0.456
12.5411	0.529
12.5802	0.576
12.6193	0.6
12.6584	0.623
12.6976	0.645
12.7367	0.643
12.7758	0.615
12.8149	0.571
12.854	0.572
12.8931	0.597
12.9322	0.619
12.9713	0.634
13.0104	0.642
13.0495	0.649
13.0886	0.648
13.1277	0.653
13.1668	0.653
13.2059	0.653
13.245	0.653
13.2841	0.657
13.3232	0.659
13.3623	0.652
13.4014	0.646
13.4405	0.638
13.4796	0.637
13.5187	0.634
13.5579	0.625
13.597	0.615
13.6361	0.602
13.6752	0.598
13.7143	0.593
13.7534	0.582
13.7925	0.563
13.8316	0.548
13.8707	0.536
13.9098	0.536
13.9489	0.563
13.988	0.597
14.0271	0.616
14.0662	0.649
14.1053	0.653
14.1444	0.657
14.1835	0.657
14.2226	0.653
14.2617	0.643
14.3008	0.642
14.3399	0.637
14.379	0.634
14.4182	0.634
14.4573	0.631
14.4964	0.623
14.5355	0.62
14.5746	0.614
14.6137	0.614
14.6528	0.608
14.6919	0.607
14.731	0.599
14.7701	0.599
14.8092	0.589
14.8483	0.593
14.8874	0.591
14.9265	0.586
14.9656	0.581
15.0047	0.57
15.0438	0.555
15.0829	0.554
15.122	0.559
15.1611	0.56
15.2002	0.553
15.2393	0.548
15.2785	0.549
15.3176	0.541
15.3567	0.541
15.3958	0.539
15.4349	0.528
15.474	0.526
15.5131	0.523
15.5522	0.515
15.5913	0.512
15.6304	0.505
15.6695	0.498
15.7086	0.484
15.7477	0.478
15.7868	0.467
15.8259	0.451
15.865	0.443
15.9041	0.416
15.9432	0.403
15.9823	0.401
