Infrared Spectrum: 2-HYDROXY-3-(N-OCTYLAMINO) PROPYL-TRIMETHYLAMMONIUM p-TOSYLATE
Formula: C21 H40 N2 O4 S
State: SOLID (KBr PELLET)
Melting point: 114.5-115.5 C
Class: COBLENTZ
Instrument: Not specified, most likely a prism, grating, or hybrid spectrometer.
Sampling: TRANSMISSION
Resolution: 4
Origin: EASTMAN KODAK COMPANY, RESEARCH LABORATORIES, ROCHESTER, N.Y.
MICROMETERS	TRANSMITTANCE
2.02	0.694
2.05994	0.711
2.09989	0.725
2.13983	0.732
2.17977	0.742
2.21971	0.747
2.25966	0.761
2.2996	0.763
2.33954	0.758
2.37949	0.769
2.41943	0.769
2.45937	0.787
2.49932	0.794
2.53926	0.796
2.5792	0.802
2.61914	0.822
2.65909	0.833
2.69903	0.828
2.73897	0.818
2.77892	0.787
2.81886	0.745
2.8588	0.69
2.89875	0.637
2.93869	0.5
2.97863	0.381
3.01857	0.261
3.05852	0.184
3.09846	0.318
3.1384	0.492
3.17835	0.611
3.21829	0.704
3.25823	0.755
3.29818	0.699
3.33812	0.686
3.37806	0.536
3.418	0.269
3.45795	0.326
3.49789	0.305
3.53783	0.329
3.57778	0.572
3.61772	0.755
3.65766	0.773
3.69761	0.814
3.73755	0.859
3.77749	0.867
3.81743	0.876
3.85738	0.9
3.89732	0.903
3.93726	0.908
3.97721	0.926
4.01715	0.939
4.05709	0.947
4.09703	0.967
4.13698	0.957
4.17692	0.951
4.21686	0.949
4.25681	0.969
4.29675	0.977
4.33669	0.996
4.37664	0.996
4.41658	0.99
4.45652	0.983
4.49646	0.982
4.53641	0.985
4.57635	0.988
4.61629	0.998
4.65624	1.011
4.69618	1.004
4.73612	1.006
4.77607	1.017
4.81601	1.011
4.85595	1.006
4.89589	1.013
4.93584	1.011
4.97578	1.014
5.01572	1.011
5.05567	1.017
5.09561	1.016
5.13555	1.009
5.1755	1
5.21544	0.995
5.25538	0.996
5.29532	1.004
5.33527	1.013
5.37521	1.014
5.41515	1.011
5.4551	1.009
5.49504	1.014
5.53498	1.013
5.57493	1.001
5.61487	0.996
5.65481	0.996
5.69475	1
5.7347	1.001
5.77464	1.001
5.81458	0.993
5.85453	0.988
5.89447	1.003
5.93441	0.99
5.97435	0.977
6.0143	0.97
6.05424	0.931
6.09418	0.931
6.13413	0.928
6.17407	0.911
6.21401	0.908
6.25396	0.838
6.2939	0.926
6.33384	0.946
6.37378	0.955
6.41373	0.952
6.45367	0.947
6.49361	0.944
6.53356	0.939
6.5735	0.921
6.61344	0.848
6.65339	0.797
6.69333	0.497
6.73327	0.246
6.77321	0.337
6.81316	0.383
6.8531	0.415
6.89304	0.508
6.93299	0.634
6.97293	0.707
7.01287	0.706
7.05282	0.784
7.09276	0.756
7.1327	0.735
7.17264	0.765
7.21259	0.714
7.25253	0.734
7.29247	0.716
7.33242	0.721
7.37236	0.756
7.4123	0.789
7.45225	0.575
7.49219	0.621
7.53213	0.841
7.57207	0.835
7.61202	0.799
7.65196	0.67
7.6919	0.761
7.73185	0.812
7.77179	0.833
7.81173	0.82
7.85168	0.831
7.89162	0.83
7.93156	0.796
7.9715	0.769
8.01145	0.763
8.05139	0.721
8.09133	0.619
8.13128	0.415
8.17122	0.199
8.21116	0.047
8.2511	0.048
8.29105	0.096
8.33099	0.189
8.37093	0.215
8.41088	0.102
8.45082	0.042
8.49076	0.083
8.53071	0.216
8.57065	0.22
8.61059	0.399
8.65053	0.559
8.69048	0.654
8.73042	0.538
8.77036	0.486
8.81031	0.474
8.85025	0.274
8.89019	0.202
8.93014	0.088
8.97008	0.231
9.01002	0.345
9.04996	0.262
9.08991	0.393
9.12985	0.435
9.16979	0.394
9.20974	0.575
9.24968	0.691
9.28962	0.747
9.32957	0.768
9.36951	0.799
9.40945	0.799
9.44939	0.794
9.48934	0.779
9.52928	0.704
9.56922	0.703
9.60917	0.647
9.64911	0.194
9.68905	0.153
9.729	0.526
9.76894	0.742
9.80888	0.786
9.84882	0.641
9.88877	0.075
9.92871	0.326
9.96865	0.57
10.0086	0.699
10.0485	0.814
10.0885	0.867
10.1284	0.866
10.1684	0.853
10.2083	0.792
10.2483	0.598
10.2882	0.277
10.3281	0.306
10.3681	0.508
10.408	0.686
10.448	0.8
10.4879	0.848
10.5279	0.846
10.5678	0.812
10.6077	0.665
10.6477	0.598
10.6876	0.409
10.7276	0.646
10.7675	0.831
10.8075	0.885
10.8474	0.916
10.8873	0.913
10.9273	0.915
10.9672	0.897
11.0072	0.74
11.0471	0.567
11.0871	0.765
11.127	0.921
11.1669	0.949
11.2069	0.969
11.2468	0.965
11.2868	0.973
11.3267	0.993
11.3667	0.975
11.4066	0.973
11.4465	0.949
11.4865	0.924
11.5264	0.924
11.5664	0.926
11.6063	0.955
11.6463	0.969
11.6862	0.977
11.7261	0.931
11.7661	0.918
11.806	0.929
11.846	0.946
11.8859	0.972
11.9259	0.959
11.9658	0.955
12.0057	0.947
12.0457	0.92
12.0856	0.9
12.1256	0.856
12.1655	0.796
12.2055	0.737
12.2454	0.629
12.2853	0.412
12.3253	0.267
12.3652	0.254
12.4052	0.305
12.4451	0.412
12.4851	0.569
12.525	0.626
12.5649	0.582
12.6049	0.535
12.6448	0.59
12.6848	0.673
12.7247	0.729
12.7647	0.758
12.8046	0.794
12.8445	0.82
12.8845	0.836
12.9244	0.849
12.9644	0.874
13.0043	0.876
13.0443	0.864
13.0842	0.822
13.1241	0.851
13.1641	0.856
13.204	0.84
13.244	0.836
13.2839	0.872
13.3239	0.89
13.3638	0.9
13.4037	0.895
13.4437	0.903
13.4836	0.907
13.5236	0.902
13.5635	0.895
13.6035	0.893
13.6434	0.887
13.6834	0.856
13.7233	0.827
13.7632	0.763
13.8032	0.725
13.8431	0.721
13.8831	0.745
13.923	0.69
13.963	0.584
14.0029	0.657
14.0428	0.734
14.0828	0.743
14.1227	0.734
14.1627	0.712
14.2026	0.69
14.2426	0.644
14.2825	0.613
14.3224	0.541
14.3624	0.476
14.4023	0.417
14.4423	0.353
14.4822	0.287
14.5222	0.221
14.5621	0.199
14.602	0.2
14.642	0.216
14.6819	0.264
14.7219	0.349
14.7618	0.407
14.8018	0.479
14.8417	0.517
14.8816	0.562
14.9216	0.58
14.9615	0.561
15.0015	0.608
15.0414	0.634
15.0814	0.603
15.1213	0.597
15.1612	0.598
15.2012	0.601
15.2411	0.582
15.2811	0.58
15.321	0.575
15.361	0.582
15.4009	0.574
15.4408	0.572
15.4808	0.554
15.5207	0.561
15.5607	0.567
15.6006	0.561
15.6406	0.548
15.6805	0.546
15.7204	0.556
15.7604	0.553
15.8003	0.553
15.8403	0.543
15.8802	0.543
15.9202	0.539
15.9601	0.538
16	0.535
