Infrared Spectrum: VINYL CYCLOHEXENE DIOXIDE
Formula: C8 H12 O2
State: LIQUID
Class: COBLENTZ
Instrument: Not specified, most likely a prism, grating, or hybrid spectrometer.
Sampling: TRANSMISSION
Path length: 0.005 CM
Resolution: 4
Origin: WYANDOTTE CHEMICALS CORP., WYANDOTTE, MICHIGAN, USA
MICROMETERS	TRANSMITTANCE
2.014	0.979
2.05489	0.979
2.09579	0.976
2.13668	0.962
2.17757	0.962
2.21847	0.952
2.25936	0.938
2.30025	0.933
2.34115	0.933
2.38204	0.933
2.42294	0.936
2.46383	0.93
2.50472	0.93
2.54562	0.931
2.58651	0.93
2.6274	0.926
2.6683	0.928
2.70919	0.948
2.75008	0.947
2.79098	0.94
2.83187	0.921
2.87276	0.911
2.91366	0.908
2.95455	0.911
2.99544	0.913
3.03634	0.913
3.07723	0.911
3.11813	0.906
3.15902	0.901
3.19991	0.885
3.24081	0.843
3.2817	0.567
3.32259	0.296
3.36349	0.119
3.40438	0.078
3.44527	0.161
3.48617	0.333
3.52706	0.345
3.56795	0.71
3.60885	0.814
3.64974	0.839
3.69063	0.86
3.73153	0.862
3.77242	0.868
3.81331	0.88
3.85421	0.884
3.8951	0.889
3.936	0.899
3.97689	0.901
4.01778	0.901
4.05868	0.896
4.09957	0.894
4.14046	0.892
4.18136	0.892
4.22225	0.882
4.26314	0.882
4.30404	0.899
4.34493	0.902
4.38582	0.909
4.42672	0.875
4.46761	0.863
4.5085	0.863
4.5494	0.868
4.59029	0.868
4.63119	0.87
4.67208	0.875
4.71297	0.88
4.75387	0.889
4.79476	0.892
4.83565	0.89
4.87655	0.889
4.91744	0.887
4.95833	0.887
4.99923	0.885
5.04012	0.885
5.08101	0.884
5.12191	0.882
5.1628	0.88
5.20369	0.88
5.24459	0.882
5.28548	0.882
5.32638	0.884
5.36727	0.885
5.40816	0.885
5.44906	0.882
5.48995	0.879
5.53084	0.875
5.57174	0.87
5.61263	0.868
5.65352	0.868
5.69442	0.868
5.73531	0.868
5.7762	0.814
5.8171	0.826
5.85799	0.841
5.89888	0.851
5.93978	0.831
5.98067	0.824
6.02157	0.838
6.06246	0.841
6.10335	0.836
6.14425	0.834
6.18514	0.822
6.22603	0.817
6.26693	0.816
6.30782	0.819
6.34871	0.824
6.38961	0.829
6.4305	0.826
6.47139	0.824
6.51229	0.819
6.55318	0.812
6.59407	0.798
6.63497	0.752
6.67586	0.662
6.71675	0.444
6.75765	0.56
6.79854	0.637
6.83944	0.451
6.88033	0.335
6.92122	0.219
6.96212	0.165
7.00301	0.316
7.0439	0.425
7.0848	0.511
7.12569	0.494
7.16658	0.652
7.20748	0.727
7.24837	0.734
7.28926	0.681
7.33016	0.645
7.37105	0.563
7.41194	0.601
7.45284	0.56
7.49373	0.672
7.53463	0.747
7.57552	0.78
7.61641	0.773
7.65731	0.718
7.6982	0.628
7.73909	0.681
7.77999	0.701
7.82088	0.66
7.86177	0.589
7.90267	0.437
7.94356	0.316
7.98445	0.333
8.02535	0.359
8.06624	0.538
8.10713	0.671
8.14803	0.691
8.18892	0.623
8.22982	0.666
8.27071	0.735
8.3116	0.751
8.3525	0.77
8.39339	0.78
8.43428	0.764
8.47518	0.683
8.51607	0.664
8.55696	0.66
8.59786	0.671
8.63875	0.691
8.67964	0.654
8.72054	0.608
8.76143	0.604
8.80232	0.57
8.84322	0.591
8.88411	0.632
8.92501	0.659
8.9659	0.696
9.00679	0.708
9.04769	0.744
9.08858	0.764
9.12947	0.761
9.17037	0.754
9.21126	0.727
9.25215	0.717
9.29305	0.684
9.33394	0.681
9.37483	0.712
9.41573	0.725
9.45662	0.683
9.49751	0.599
9.53841	0.594
9.5793	0.594
9.6202	0.606
9.66109	0.643
9.70198	0.671
9.74288	0.684
9.78377	0.705
9.82466	0.691
9.86556	0.652
9.90645	0.623
9.94734	0.626
9.98824	0.623
10.0291	0.437
10.07	0.332
10.1109	0.419
10.1518	0.446
10.1927	0.408
10.2336	0.325
10.2745	0.265
10.3154	0.376
10.3563	0.505
10.3972	0.574
10.4381	0.592
10.479	0.57
10.5199	0.543
10.5607	0.509
10.6016	0.473
10.6425	0.494
10.6834	0.497
10.7243	0.434
10.7652	0.356
10.8061	0.287
10.847	0.204
10.8879	0.231
10.9288	0.308
10.9697	0.301
11.0106	0.381
11.0515	0.449
11.0924	0.419
11.1333	0.39
11.1741	0.436
11.215	0.499
11.2559	0.502
11.2968	0.424
11.3377	0.332
11.3786	0.202
11.4195	0.122
11.4604	0.137
11.5013	0.134
11.5422	0.114
11.5831	0.097
11.624	0.081
11.6649	0.061
11.7058	0.064
11.7467	0.073
11.7876	0.095
11.8284	0.158
11.8693	0.264
11.9102	0.378
11.9511	0.471
11.992	0.531
12.0329	0.558
12.0738	0.563
12.1147	0.519
12.1556	0.437
12.1965	0.277
12.2374	0.148
12.2783	0.091
12.3192	0.095
12.3601	0.183
12.401	0.335
12.4418	0.403
12.4827	0.369
12.5236	0.253
12.5645	0.151
12.6054	0.114
12.6463	0.102
12.6872	0.074
12.7281	0.103
12.769	0.245
12.8099	0.354
12.8508	0.405
12.8917	0.478
12.9326	0.562
12.9735	0.596
13.0144	0.594
13.0553	0.577
13.0961	0.572
13.137	0.58
13.1779	0.582
13.2188	0.56
13.2597	0.522
13.3006	0.487
13.3415	0.449
13.3824	0.402
13.4233	0.395
13.4642	0.436
13.5051	0.5
13.546	0.577
13.5869	0.626
13.6278	0.674
13.6687	0.703
13.7095	0.725
13.7504	0.741
13.7913	0.749
13.8322	0.759
13.8731	0.763
13.914	0.771
13.9549	0.77
13.9958	0.773
14.0367	0.776
14.0776	0.778
14.1185	0.778
14.1594	0.778
14.2003	0.776
14.2412	0.773
14.2821	0.764
14.323	0.759
14.3638	0.758
14.4047	0.758
14.4456	0.763
14.4865	0.761
14.5274	0.766
14.5683	0.766
14.6092	0.766
14.6501	0.766
14.691	0.766
14.7319	0.766
14.7728	0.759
14.8137	0.758
14.8546	0.752
14.8955	0.751
14.9364	0.742
14.9772	0.735
15.0181	0.718
15.059	0.701
15.0999	0.695
15.1408	0.698
15.1817	0.708
15.2226	0.718
15.2635	0.722
15.3044	0.72
15.3453	0.71
15.3862	0.701
15.4271	0.701
15.468	0.701
15.5089	0.705
15.5498	0.71
15.5906	0.71
15.6315	0.713
15.6724	0.715
15.7133	0.717
15.7542	0.713
15.7951	0.712
15.836	0.712
15.8769	0.708
15.9178	0.701
15.9587	0.698
15.9996	0.696
