Infrared Spectrum: THIAMINE HYDROCHLORIDE
Formula: C12 H18 Cl2 N4 O S
State: SOLID (MINERAL OIL MULL)
Class: COBLENTZ
Instrument: Not specified, most likely a prism, grating, or hybrid spectrometer.
Sampling: TRANSMISSION
Path length: THICK LAYER
Resolution: 4
Origin: DOW CHEMICAL COMPANY
MICROMETERS	TRANSMITTANCE
2.041	0.377
2.0821	0.399
2.12319	0.42
2.16429	0.433
2.20539	0.447
2.24649	0.451
2.28758	0.451
2.32868	0.459
2.36978	0.481
2.41087	0.502
2.45197	0.523
2.49307	0.545
2.53416	0.564
2.57526	0.578
2.61636	0.598
2.65746	0.626
2.69855	0.636
2.73965	0.67
2.78075	0.677
2.82184	0.655
2.86294	0.44
2.90404	0.346
2.94513	0.277
2.98623	0.428
3.02733	0.204
3.06843	0.125
3.10952	0.126
3.15062	0.174
3.19172	0.149
3.23281	0.073
3.27391	0.056
3.31501	0.058
3.35611	0.049
3.3972	0.046
3.4383	0.013
3.4794	0.018
3.52049	0.029
3.56159	0.087
3.60269	0.109
3.64378	0.072
3.68488	0.053
3.72598	0.058
3.76708	0.072
3.80817	0.116
3.84927	0.147
3.89037	0.185
3.93146	0.243
3.97256	0.31
4.01366	0.401
4.05475	0.461
4.09585	0.492
4.13695	0.538
4.17805	0.579
4.21914	0.59
4.26024	0.608
4.30134	0.665
4.34243	0.713
4.38353	0.723
4.42463	0.747
4.46573	0.759
4.50682	0.773
4.54792	0.778
4.58902	0.778
4.63011	0.787
4.67121	0.801
4.71231	0.804
4.7534	0.797
4.7945	0.792
4.8356	0.806
4.8767	0.84
4.91779	0.857
4.95889	0.864
4.99999	0.857
5.04108	0.825
5.08218	0.799
5.12328	0.855
5.16437	0.864
5.20547	0.878
5.24657	0.879
5.28767	0.878
5.32876	0.874
5.36986	0.893
5.41096	0.919
5.45205	0.917
5.49315	0.895
5.53425	0.869
5.57535	0.843
5.61644	0.766
5.65754	0.734
5.69864	0.821
5.73973	0.852
5.78083	0.89
5.82193	0.902
5.86302	0.845
5.90412	0.783
5.94522	0.614
5.98632	0.397
6.02741	0.096
6.06851	0.022
6.10961	0.072
6.1507	0.222
6.1918	0.317
6.2329	0.123
6.27399	0.192
6.31509	0.475
6.35619	0.547
6.39729	0.557
6.43838	0.466
6.47948	0.315
6.52058	0.236
6.56167	0.216
6.60277	0.214
6.64387	0.219
6.68497	0.233
6.72606	0.271
6.76716	0.214
6.80826	0.159
6.84935	0.109
6.89045	0.082
6.93155	0.089
6.97264	0.162
7.01374	0.283
7.05484	0.348
7.09594	0.361
7.13703	0.279
7.17813	0.241
7.21923	0.185
7.26032	0.114
7.30142	0.207
7.34252	0.233
7.38361	0.176
7.42471	0.269
7.46581	0.305
7.50691	0.379
7.548	0.449
7.5891	0.481
7.6302	0.492
7.67129	0.526
7.71239	0.552
7.75349	0.524
7.79458	0.481
7.83568	0.626
7.87678	0.67
7.91788	0.698
7.95897	0.68
8.00007	0.535
8.04117	0.425
8.08226	0.49
8.12336	0.512
8.16446	0.531
8.20556	0.392
8.24665	0.576
8.28775	0.692
8.32885	0.722
8.36994	0.691
8.41104	0.644
8.45214	0.679
8.49323	0.691
8.53433	0.723
8.57543	0.759
8.61653	0.78
8.65762	0.782
8.69872	0.783
8.73982	0.795
8.78091	0.806
8.82201	0.818
8.86311	0.821
8.9042	0.821
8.9453	0.819
8.9864	0.814
9.0275	0.804
9.06859	0.789
9.10969	0.74
9.15079	0.694
9.19188	0.706
9.23298	0.732
9.27408	0.692
9.31518	0.627
9.35627	0.612
9.39737	0.588
9.43847	0.524
9.47956	0.526
9.52066	0.483
9.56176	0.37
9.60285	0.272
9.64395	0.365
9.68505	0.511
9.72615	0.559
9.76724	0.584
9.80834	0.653
9.84944	0.722
9.89053	0.734
9.93163	0.698
9.97273	0.694
10.0138	0.716
10.0549	0.728
10.096	0.759
10.1371	0.711
10.1782	0.679
10.2193	0.775
10.2604	0.819
10.3015	0.831
10.3426	0.838
10.3837	0.84
10.4248	0.83
10.4659	0.783
10.507	0.701
10.5481	0.662
10.5892	0.722
10.6303	0.77
10.6714	0.725
10.7125	0.715
10.7536	0.795
10.7947	0.828
10.8358	0.823
10.8769	0.795
10.918	0.756
10.9591	0.708
11.0002	0.679
11.0413	0.677
11.0823	0.651
11.1234	0.588
11.1645	0.562
11.2056	0.607
11.2467	0.677
11.2878	0.746
11.3289	0.787
11.37	0.814
11.4111	0.831
11.4522	0.831
11.4933	0.792
11.5344	0.742
11.5755	0.768
11.6166	0.838
11.6577	0.869
11.6988	0.881
11.7399	0.885
11.781	0.883
11.8221	0.867
11.8632	0.855
11.9043	0.826
11.9454	0.794
11.9865	0.732
12.0276	0.636
12.0687	0.542
12.1098	0.6
12.1509	0.732
12.192	0.775
12.2331	0.789
12.2742	0.751
12.3153	0.653
12.3564	0.602
12.3975	0.639
12.4386	0.722
12.4796	0.783
12.5207	0.806
12.5618	0.819
12.6029	0.825
12.644	0.818
12.6851	0.797
12.7262	0.789
12.7673	0.771
12.8084	0.74
12.8495	0.704
12.8906	0.627
12.9317	0.511
12.9728	0.43
13.0139	0.524
13.055	0.636
13.0961	0.668
13.1372	0.665
13.1783	0.631
13.2194	0.595
13.2605	0.552
13.3016	0.478
13.3427	0.451
13.3838	0.488
13.4249	0.54
13.466	0.583
13.5071	0.605
13.5482	0.622
13.5893	0.629
13.6304	0.629
13.6715	0.627
13.7126	0.62
13.7537	0.605
13.7948	0.598
13.8358	0.586
13.8769	0.581
13.918	0.581
13.9591	0.579
14.0002	0.579
14.0413	0.567
14.0824	0.542
14.1235	0.504
14.1646	0.454
14.2057	0.409
14.2468	0.367
14.2879	0.339
14.329	0.339
14.3701	0.365
14.4112	0.415
14.4523	0.451
14.4934	0.461
14.5345	0.456
14.5756	0.432
14.6167	0.413
14.6578	0.406
14.6989	0.411
14.74	0.43
14.7811	0.451
14.8222	0.457
14.8633	0.463
14.9044	0.464
14.9455	0.466
14.9866	0.469
15.0277	0.471
15.0688	0.469
15.1099	0.464
15.151	0.459
15.1921	0.452
15.2331	0.445
15.2742	0.44
15.3153	0.432
15.3564	0.428
15.3975	0.42
15.4386	0.409
15.4797	0.391
15.5208	0.373
15.5619	0.355
15.603	0.334
15.6441	0.32
15.6852	0.307
15.7263	0.293
15.7674	0.288
15.8085	0.283
15.8496	0.271
15.8907	0.269
