Infrared Spectrum: TRICHLOROACETIC ACID, TRIETHYLENE GLYCOL DIESTER
Formula: C10 H12 Cl6 O6
State: SOLUTION (10% CCl4 FOR 5000-1330, 10% CS2 FOR 1330-625 CM^-^1)
Class: COBLENTZ
Instrument: Not specified, most likely a prism, grating, or hybrid spectrometer.
Sampling: TRANSMISSION
Path length: 0.012 CM, 0.012 CM
Resolution: 4
MICROMETERS	TRANSMITTANCE
2.027	0.915
2.06702	0.916
2.10703	0.92
2.14705	0.915
2.18707	0.908
2.22709	0.901
2.2671	0.908
2.30712	0.91
2.34714	0.916
2.38716	0.915
2.42717	0.913
2.46719	0.918
2.50721	0.921
2.54722	0.92
2.58724	0.926
2.62726	0.921
2.66728	0.92
2.70729	0.915
2.74731	0.9
2.78733	0.886
2.82735	0.866
2.86736	0.88
2.90738	0.871
2.9474	0.863
2.98741	0.858
3.02743	0.848
3.06745	0.84
3.10747	0.845
3.14748	0.85
3.1875	0.848
3.22752	0.836
3.26754	0.823
3.30755	0.76
3.34757	0.599
3.38759	0.555
3.4276	0.499
3.46762	0.64
3.50764	0.772
3.54766	0.821
3.58767	0.836
3.62769	0.85
3.66771	0.87
3.70773	0.886
3.74774	0.885
3.78776	0.876
3.82778	0.878
3.86779	0.881
3.90781	0.891
3.94783	0.89
3.98785	0.888
4.02786	0.89
4.06788	0.903
4.1079	0.905
4.14792	0.905
4.18793	0.898
4.22795	0.895
4.26797	0.895
4.30798	0.888
4.348	0.898
4.38802	0.903
4.42804	0.906
4.46805	0.905
4.50807	0.906
4.54809	0.906
4.58811	0.91
4.62812	0.91
4.66814	0.913
4.70816	0.911
4.74817	0.906
4.78819	0.906
4.82821	0.9
4.86823	0.905
4.90824	0.905
4.94826	0.905
4.98828	0.9
5.0283	0.896
5.06831	0.898
5.10833	0.9
5.14835	0.9
5.18836	0.898
5.22838	0.898
5.2684	0.898
5.30842	0.89
5.34843	0.881
5.38845	0.87
5.42847	0.855
5.46849	0.828
5.5085	0.78
5.54852	0.599
5.58854	0.209
5.62856	0.061
5.66857	0.404
5.70859	0.68
5.74861	0.758
5.78862	0.801
5.82864	0.853
5.86866	0.87
5.90868	0.875
5.94869	0.875
5.98871	0.87
6.02873	0.863
6.06875	0.868
6.10876	0.86
6.14878	0.835
6.1888	0.787
6.22881	0.715
6.26883	0.638
6.30885	0.607
6.34887	0.56
6.38888	0.499
6.4289	0.464
6.46892	0.539
6.50894	0.603
6.54895	0.647
6.58897	0.68
6.62899	0.737
6.669	0.767
6.70902	0.765
6.74904	0.727
6.78906	0.682
6.82907	0.599
6.86909	0.574
6.90911	0.663
6.94913	0.782
6.98914	0.798
7.02916	0.797
7.06918	0.782
7.10919	0.77
7.14921	0.752
7.18923	0.747
7.22925	0.73
7.26926	0.71
7.30928	0.668
7.3493	0.63
7.38932	0.765
7.42933	0.773
7.46935	0.765
7.50937	0.758
7.54938	0.72
7.5894	0.648
7.62942	0.549
7.66944	0.484
7.70945	0.429
7.74947	0.377
7.78949	0.336
7.82951	0.307
7.86952	0.249
7.90954	0.149
7.94956	0.059
7.98957	0.029
8.02959	0.021
8.06961	0.021
8.10963	0.016
8.14964	0.061
8.18966	0.186
8.22968	0.351
8.2697	0.497
8.30971	0.569
8.34973	0.612
8.38975	0.628
8.42976	0.632
8.46978	0.62
8.5098	0.587
8.54982	0.529
8.58983	0.437
8.62985	0.296
8.66987	0.204
8.70989	0.171
8.7499	0.164
8.78992	0.161
8.82994	0.163
8.86995	0.199
8.90997	0.232
8.94999	0.276
8.99001	0.309
9.03002	0.357
9.07004	0.402
9.11006	0.444
9.15008	0.469
9.19009	0.494
9.23011	0.52
9.27013	0.532
9.31014	0.539
9.35016	0.549
9.39018	0.564
9.4302	0.564
9.47021	0.537
9.51023	0.485
9.55025	0.424
9.59027	0.342
9.63028	0.226
9.6703	0.164
9.71032	0.178
9.75033	0.269
9.79035	0.352
9.83037	0.435
9.87039	0.457
9.9104	0.459
9.95042	0.475
9.99044	0.519
10.0305	0.559
10.0705	0.58
10.1105	0.569
10.1505	0.524
10.1905	0.487
10.2305	0.479
10.2706	0.51
10.3106	0.547
10.3506	0.569
10.3906	0.577
10.4306	0.587
10.4706	0.599
10.5107	0.617
10.5507	0.627
10.5907	0.623
10.6307	0.62
10.6707	0.622
10.7107	0.638
10.7508	0.648
10.7908	0.657
10.8308	0.657
10.8708	0.655
10.9108	0.662
10.9509	0.682
10.9909	0.692
11.0309	0.697
11.0709	0.693
11.1109	0.663
11.1509	0.625
11.191	0.567
11.231	0.472
11.271	0.352
11.311	0.241
11.351	0.209
11.391	0.226
11.4311	0.266
11.4711	0.316
11.5111	0.357
11.5511	0.387
11.5911	0.405
11.6311	0.415
11.6712	0.412
11.7112	0.397
11.7512	0.361
11.7912	0.314
11.8312	0.244
11.8713	0.184
11.9113	0.158
11.9513	0.138
11.9913	0.113
12.0313	0.059
12.0713	0.028
12.1114	0.013
12.1514	0.023
12.1914	0.059
12.2314	0.119
12.2714	0.201
12.3114	0.291
12.3515	0.384
12.3915	0.464
12.4315	0.529
12.4715	0.567
12.5115	0.605
12.5515	0.637
12.5916	0.662
12.6316	0.687
12.6716	0.703
12.7116	0.717
12.7516	0.723
12.7916	0.733
12.8317	0.735
12.8717	0.735
12.9117	0.735
12.9517	0.72
12.9917	0.702
13.0318	0.673
13.0718	0.63
13.1118	0.594
13.1518	0.539
13.1918	0.502
13.2318	0.475
13.2719	0.462
13.3119	0.457
13.3519	0.454
13.3919	0.465
13.4319	0.502
13.4719	0.552
13.512	0.595
13.552	0.633
13.592	0.66
13.632	0.667
13.672	0.677
13.712	0.677
13.7521	0.668
13.7921	0.658
13.8321	0.655
13.8721	0.648
13.9121	0.643
13.9521	0.635
13.9922	0.635
14.0322	0.622
14.0722	0.617
14.1122	0.603
14.1522	0.597
14.1923	0.575
14.2323	0.565
14.2723	0.537
14.3123	0.515
14.3523	0.474
14.3923	0.432
14.4324	0.372
14.4724	0.304
14.5124	0.209
14.5524	0.143
14.5924	0.069
14.6324	0.029
14.6725	0
14.7125	0.011
14.7525	0.026
14.7925	0.083
14.8325	0.139
14.8725	0.202
14.9126	0.262
14.9526	0.339
14.9926	0.382
15.0326	0.42
15.0726	0.434
15.1126	0.444
15.1527	0.452
15.1927	0.45
15.2327	0.447
15.2727	0.447
15.3127	0.447
15.3528	0.449
15.3928	0.444
15.4328	0.437
15.4728	0.432
15.5128	0.432
15.5528	0.432
15.5929	0.43
15.6329	0.417
15.6729	0.409
15.7129	0.405
15.7529	0.402
15.7929	0.397
15.833	0.394
