Infrared Spectrum: Benzaldehyde, purin-2-yl Hydrazone
Formula: C12 H10 N6
State: SOLID (0.5 mg / 650 mg KBr DISC)
Class: COBLENTZ III
Instrument: PERKIN-ELMER 21 (GRATING)
Instrument parameters: FILTER CHANGE ABOUT 1100 CM^-^1
Sampling: TRANSMISSION
Resolution: 2
Origin: SOUTHERN RESEARCH INSTITUTE
1/CM	TRANSMITTANCE
602.36	0.4498
611.38	0.5028
620.4	0.481
629.421	0.4412
638.441	0.4979
647.461	0.6794
656.481	0.6452
665.502	0.5848
674.522	0.5546
683.542	0.5118
692.562	0.4289
701.583	0.3159
710.603	0.6219
719.623	0.6254
728.643	0.6162
737.664	0.6035
746.684	0.5915
755.704	0.5553
764.724	0.3858
773.745	0.5934
782.765	0.6305
791.785	0.5144
800.805	0.4988
809.826	0.6446
818.846	0.6906
827.866	0.6932
836.886	0.6935
845.907	0.6922
854.927	0.6794
863.947	0.6701
872.967	0.6555
881.988	0.5474
891.008	0.5878
900.028	0.5756
909.048	0.6229
918.069	0.6098
927.089	0.4184
936.109	0.4869
945.129	0.5651
954.15	0.6748
963.17	0.6676
972.19	0.6509
981.21	0.6544
990.231	0.6533
999.251	0.6363
1008.27	0.6128
1017.29	0.5916
1026.31	0.5603
1035.33	0.6073
1044.35	0.6096
1053.37	0.596
1062.39	0.5694
1071.41	0.5214
1080.43	0.5278
1089.45	0.5806
1098.47	0.4706
1107.49	0.4226
1116.51	0.3236
1125.53	0.2053
1134.55	0.3899
1143.57	0.5518
1152.6	0.5679
1161.62	0.5522
1170.64	0.5258
1179.66	0.508
1188.68	0.3254
1197.7	0.5626
1206.72	0.5498
1215.74	0.5146
1224.76	0.258
1233.78	0.1224
1242.8	0.269
1251.82	0.5289
1260.84	0.5315
1269.86	0.4996
1278.88	0.536
1287.9	0.5329
1296.92	0.504
1305.94	0.4724
1314.96	0.3076
1323.98	0.2654
1333	0.4585
1342.02	0.5243
1351.04	0.4957
1360.06	0.3216
1369.08	0.3873
1378.1	0.3968
1387.12	0.3402
1396.14	0.2504
1405.16	0.1269
1414.18	0.0224
1423.2	0.0333
1432.22	0.3179
1441.24	0.485
1450.26	0.4479
1459.28	0.4245
1468.3	0.567
1477.32	0.5764
1486.34	0.5517
1495.36	0.4517
1504.38	0.3524
1513.4	0.389
1522.43	0.4812
1531.45	0.3945
1540.47	0.3529
1549.49	0.139
1558.51	0.1239
1567.53	0.2814
1576.55	0.352
1585.57	0.2413
1594.59	0.0558
1603.61	0.1128
1612.63	0.1533
1621.65	0.1293
1630.67	0.2044
1639.69	0.3789
1648.71	0.4828
1657.73	0.6124
1666.75	0.662
1675.77	0.6955
1684.79	0.7077
1693.81	0.7068
1702.83	0.7109
1711.85	0.7241
1720.87	0.7259
1729.89	0.7137
1738.91	0.69
1747.93	0.6584
1756.95	0.6876
1765.97	0.7125
1774.99	0.7109
1784.01	0.7132
1793.03	0.7084
1802.05	0.7028
1811.07	0.7029
1820.09	0.7109
1829.11	0.7049
1838.13	0.6987
1847.15	0.6956
1856.17	0.6901
1865.19	0.6896
1874.21	0.6911
1883.24	0.6955
1892.26	0.6975
1901.28	0.6899
1910.3	0.6857
1919.32	0.6855
1928.34	0.6832
1937.36	0.6827
1946.38	0.6846
1955.4	0.6848
1964.42	0.6826
1973.44	0.6801
1982.46	0.6778
1991.48	0.6759
2000.5	0.6724
2009.52	0.6687
2018.54	0.6683
2027.56	0.6694
2036.58	0.6696
2045.6	0.6696
2054.62	0.6689
2063.64	0.6679
2072.66	0.6664
2081.68	0.6654
2090.7	0.6637
2099.72	0.6605
2108.74	0.657
2117.76	0.6559
2126.78	0.6554
2135.8	0.6552
2144.82	0.6527
2153.84	0.6496
2162.86	0.6477
2171.88	0.649
2180.9	0.6493
2189.92	0.6387
2198.94	0.6332
2207.96	0.6312
2216.98	0.6322
2226	0.6323
2235.02	0.6324
2244.05	0.6325
2253.07	0.6326
2262.09	0.6327
2271.11	0.6325
2280.13	0.632
2289.15	0.6311
2298.17	0.6291
2307.19	0.6228
2316.21	0.6124
2325.23	0.606
2334.25	0.6009
2343.27	0.5978
2352.29	0.5977
2361.31	0.5983
2370.33	0.5992
2379.35	0.5986
2388.37	0.5973
2397.39	0.5954
2406.41	0.5928
2415.43	0.5881
2424.45	0.5872
2433.47	0.5861
2442.49	0.5821
2451.51	0.5825
2460.53	0.582
2469.55	0.5802
2478.57	0.5699
2487.59	0.5634
2496.61	0.5605
2505.63	0.5599
2514.65	0.5602
2523.67	0.5596
2532.69	0.5589
2541.71	0.5583
2550.73	0.5577
2559.75	0.5573
2568.77	0.5563
2577.79	0.5482
2586.81	0.5502
2595.83	0.5521
2604.85	0.5492
2613.88	0.5431
2622.9	0.5353
2631.92	0.5283
2640.94	0.5223
2649.96	0.5163
2658.98	0.51
2668	0.5041
2677.02	0.5035
2686.04	0.5037
2695.06	0.4935
2704.08	0.4885
2713.1	0.4883
2722.12	0.4907
2731.14	0.493
2740.16	0.4875
2749.18	0.4718
2758.2	0.4535
2767.22	0.4318
2776.24	0.4108
2785.26	0.398
2794.28	0.4091
2803.3	0.4277
2812.32	0.4248
2821.34	0.4208
2830.36	0.4148
2839.38	0.4065
2848.4	0.3954
2857.42	0.3863
2866.44	0.3861
2875.46	0.3855
2884.48	0.3773
2893.5	0.3674
2902.52	0.3578
2911.54	0.3473
2920.56	0.3363
2929.58	0.3248
2938.6	0.3127
2947.62	0.3002
2956.64	0.2881
2965.66	0.277
2974.69	0.2704
2983.71	0.2552
2992.73	0.2526
3001.75	0.2536
3010.77	0.2535
3019.79	0.2488
3028.81	0.2425
3037.83	0.2369
3046.85	0.2376
3055.87	0.248
3064.89	0.252
3073.91	0.2478
3082.93	0.2428
3091.95	0.2492
3100.97	0.2526
3109.99	0.2538
3119.01	0.2735
3128.03	0.2865
3137.05	0.2862
3146.07	0.2802
3155.09	0.275
3164.11	0.2722
3173.13	0.2717
3182.15	0.2747
3191.17	0.2806
3200.19	0.2901
3209.21	0.3134
3218.23	0.3458
3227.25	0.379
3236.27	0.3987
3245.29	0.4161
3254.31	0.4264
3263.33	0.4388
3272.35	0.4498
3281.37	0.4567
3290.39	0.4629
3299.41	0.4658
3308.43	0.4666
3317.45	0.4644
3326.47	0.4594
3335.49	0.4525
3344.52	0.4428
3353.54	0.4344
3362.56	0.4275
3371.58	0.4248
3380.6	0.4097
3389.62	0.3996
3398.64	0.3931
3407.66	0.387
3416.68	0.378
3425.7	0.3745
3434.72	0.3732
3443.74	0.3749
3452.76	0.3777
3461.78	0.378
3470.8	0.3857
3479.82	0.3839
3488.84	0.3882
3497.86	0.3892
3506.88	0.3973
3515.9	0.4077
3524.92	0.4168
3533.94	0.4251
3542.96	0.4311
3551.98	0.4351
3561	0.4385
3570.02	0.4433
3579.04	0.4519
3588.06	0.4587
3597.08	0.465
3606.1	0.4802
3615.12	0.4884
3624.14	0.4913
3633.16	0.4947
3642.18	0.5021
3651.2	0.512
3660.22	0.5167
3669.24	0.5168
3678.26	0.5162
3687.28	0.5155
3696.3	0.5154
3705.33	0.5162
3714.35	0.5171
3723.37	0.5172
3732.39	0.5223
3741.41	0.5226
3750.43	0.5165
3759.45	0.5093
3768.47	0.5126
3777.49	0.5124
3786.51	0.5105
3795.53	0.515
3804.55	0.5172
3813.57	0.5135
3822.59	0.5065
3831.61	0.5063
3840.63	0.5086
3849.65	0.5087
3858.67	0.5068
3867.69	0.5032
3876.71	0.4992
3885.73	0.4988
3894.75	0.5003
3903.77	0.5002
3912.79	0.5
3921.81	0.4998
3930.83	0.5006
3939.85	0.5037
3948.87	0.5031
3957.89	0.4945
3966.91	0.4905
3975.93	0.4918
3984.95	0.4936
3993.97	0.4925
4002.99	0.4909
