Infrared Spectrum: N-(3-Aminopropyl)-1,4-butanediamine, trihydrochloride
Formula: C7 H22 Cl3 N3
State: SOLID (SPLIT MULL), FLUOROLUBE FOR 3800-1330 CM^-^1, NUJOL FOR 1330-400 CM^-^1
Class: COBLENTZ III
Instrument: DOW KBr FOREPRISM-GRATING
Instrument parameters: BLAZED AT 3.5, 12.0, 20.0 MICRON AND CHANGED AT 5.0, 7.5, 14.9 MICRON
Sampling: TRANSMISSION
Resolution: 2
Origin: DOW CHEMICAL COMPANY
1/CM	TRANSMITTANCE
384	0.8155
393	0.8141
402	0.8071
411	0.7874
420	0.6986
429	0.8302
438	0.8378
447	0.8341
456	0.8291
465	0.8266
474	0.8282
483	0.8317
492	0.8308
501	0.7895
510	0.8318
519	0.8175
528	0.8406
537	0.8448
546	0.846
555	0.8471
564	0.8483
573	0.8488
582	0.8496
591	0.8508
600	0.8525
609	0.855
618	0.8581
627	0.8618
636	0.8671
645	0.8715
654	0.8675
663	0.8644
672	0.8451
681	0.8457
690	0.8434
699	0.8359
708	0.8174
717	0.7585
726	0.7181
735	0.7568
744	0.7691
753	0.7576
762	0.7365
771	0.7481
780	0.6998
789	0.7711
798	0.7783
807	0.7864
816	0.785
825	0.78
834	0.7688
843	0.7458
852	0.7703
861	0.7649
870	0.7453
879	0.6805
888	0.5203
897	0.7421
906	0.7486
915	0.7421
924	0.7365
933	0.7143
942	0.6892
951	0.6901
960	0.7191
969	0.7112
978	0.6941
987	0.6184
996	0.575
1005	0.3926
1014	0.6954
1023	0.6598
1032	0.641
1041	0.6447
1050	0.531
1059	0.5088
1068	0.6247
1077	0.6836
1086	0.6921
1095	0.6895
1104	0.6655
1113	0.6608
1122	0.6678
1131	0.6069
1140	0.5797
1149	0.6222
1158	0.5784
1167	0.6106
1176	0.6571
1185	0.6933
1194	0.6953
1203	0.696
1212	0.6968
1221	0.6958
1230	0.6721
1239	0.6135
1248	0.6788
1257	0.6451
1266	0.507
1275	0.6542
1284	0.6347
1293	0.575
1302	0.5989
1311	0.6281
1320	0.6415
1329	0.6149
1338	0.6947
1347	0.6999
1356	0.7191
1365	0.8032
1374	0.8098
1383	0.8301
1392	0.7767
1401	0.5346
1410	0.7146
1419	0.7675
1428	0.7885
1437	0.775
1446	0.7348
1455	0.5904
1464	0.4412
1473	0.7245
1482	0.6375
1491	0.7175
1500	0.6481
1509	0.596
1518	0.4664
1527	0.2969
1536	0.754
1545	0.8018
1554	0.8067
1563	0.8084
1572	0.7993
1581	0.7772
1590	0.7072
1599	0.5797
1608	0.4536
1617	0.7601
1626	0.8303
1635	0.8397
1644	0.8415
1653	0.8428
1662	0.8455
1671	0.847
1680	0.8508
1689	0.8578
1698	0.8641
1707	0.8673
1716	0.8695
1725	0.8717
1734	0.8734
1743	0.8753
1752	0.8777
1761	0.8795
1770	0.8812
1779	0.8778
1788	0.8744
1797	0.8733
1806	0.8712
1815	0.8671
1824	0.8603
1833	0.8567
1842	0.8578
1851	0.8502
1860	0.8485
1869	0.853
1878	0.8602
1887	0.8662
1896	0.8695
1905	0.8694
1914	0.8671
1923	0.8597
1932	0.8555
1941	0.8513
1950	0.8425
1959	0.8343
1968	0.8241
1977	0.8101
1986	0.7971
1995	0.786
2004	0.7505
2013	0.7483
2022	0.7528
2031	0.7575
2040	0.7643
2049	0.7721
2058	0.7815
2067	0.7934
2076	0.808
2085	0.8141
2094	0.8184
2103	0.8218
2112	0.8245
2121	0.8266
2130	0.8275
2139	0.8277
2148	0.827
2157	0.8263
2166	0.8254
2175	0.8238
2184	0.8218
2193	0.8195
2202	0.8171
2211	0.8115
2220	0.8072
2229	0.8024
2238	0.7989
2247	0.7969
2256	0.7938
2265	0.7891
2274	0.7842
2283	0.7781
2292	0.7717
2301	0.7645
2310	0.7568
2319	0.7481
2328	0.7368
2337	0.725
2346	0.7128
2355	0.7015
2364	0.69
2373	0.6783
2382	0.6722
2391	0.6758
2400	0.6662
2409	0.5876
2418	0.4966
2427	0.5002
2436	0.6327
2445	0.611
2454	0.5645
2463	0.5198
2472	0.5865
2481	0.6205
2490	0.6022
2499	0.567
2508	0.4673
2517	0.3684
2526	0.4342
2535	0.5317
2544	0.536
2553	0.5612
2562	0.5652
2571	0.5541
2580	0.5691
2589	0.5549
2598	0.5125
2607	0.4657
2616	0.4585
2625	0.4587
2634	0.4592
2643	0.458
2652	0.4465
2661	0.426
2670	0.3949
2679	0.3288
2688	0.2759
2697	0.2575
2706	0.2556
2715	0.2428
2724	0.1998
2733	0.144
2742	0.1124
2751	0.0906
2760	0.0943
2769	0.1192
2778	0.1304
2787	0.1377
2796	0.141
2805	0.1416
2814	0.1415
2823	0.1415
2832	0.1425
2841	0.1527
2850	0.1874
2859	0.1877
2868	0.1757
2877	0.1317
2886	0.0921
2895	0.0698
2904	0.057
2913	0.0524
2922	0.0537
2931	0.0604
2940	0.0737
2949	0.0703
2958	0.0596
2967	0.0642
2976	0.0767
2985	0.11
2994	0.1203
3003	0.1553
3012	0.1839
3021	0.191
3030	0.1981
3039	0.2083
3048	0.2285
3057	0.2713
3066	0.3105
3075	0.3412
3084	0.3682
3093	0.3882
3102	0.4046
3111	0.4201
3120	0.4344
3129	0.4487
3138	0.4701
3147	0.5037
3156	0.5339
3165	0.5759
3174	0.6164
3183	0.6628
3192	0.7091
3201	0.7351
3210	0.7475
3219	0.7521
3228	0.7519
3237	0.7515
3246	0.7701
3255	0.8383
3264	0.8734
3273	0.8924
3282	0.9031
3291	0.9104
3300	0.9128
3309	0.9134
3318	0.9134
3327	0.9131
3336	0.9128
3345	0.9118
3354	0.911
3363	0.9099
3372	0.9087
3381	0.9074
3390	0.9061
3399	0.9047
3408	0.9033
3417	0.9018
3426	0.9004
3435	0.8989
3444	0.8978
3453	0.897
3462	0.8962
3471	0.8956
3480	0.8952
3489	0.895
3498	0.8951
3507	0.8953
3516	0.8954
3525	0.8955
3534	0.8958
3543	0.896
3552	0.8963
3561	0.8965
3570	0.8965
3579	0.8966
3588	0.8966
3597	0.8986
3606	0.9021
3615	0.9024
3624	0.9016
3633	0.9005
3642	0.8993
3651	0.8978
3660	0.8965
3669	0.8953
3678	0.8948
3687	0.8943
3696	0.8938
3705	0.8931
3714	0.8925
3723	0.892
3732	0.8914
3741	0.8908
3750	0.8902
3759	0.8896
3768	0.8891
3777	0.8885
3786	0.8875
3795	0.8865
3804	0.8854
