Infrared Spectrum: 2,6-DIAMINO-4-OXO-1,3,3a,7-TETRAZAINDENE MONO-HYDROCHLORIDE
Formula: C5 H7 Cl N6 O
State: SOLID (KBr PRESSING)
Melting point: ABOVE 380 C
Class: COBLENTZ
Instrument: Not specified, most likely a prism, grating, or hybrid spectrometer.
Sampling: TRANSMISSION
Resolution: 4
Origin: EASTMAN KODAK COMPANY, RESEARCH LABORATORIES, ROCHESTER, N.Y.
MICROMETERS	TRANSMITTANCE
2.036	0.762
2.07119	0.769
2.10638	0.778
2.14157	0.783
2.17676	0.79
2.21195	0.792
2.24714	0.795
2.28233	0.802
2.31751	0.808
2.3527	0.809
2.38789	0.811
2.42308	0.82
2.45827	0.821
2.49346	0.823
2.52865	0.827
2.56384	0.83
2.59903	0.839
2.63422	0.844
2.66941	0.842
2.7046	0.825
2.73979	0.727
2.77498	0.582
2.81017	0.488
2.84535	0.403
2.88054	0.317
2.91573	0.242
2.95092	0.244
2.98611	0.216
3.0213	0.195
3.05649	0.228
3.09168	0.254
3.12687	0.247
3.16206	0.226
3.19725	0.2
3.23244	0.204
3.26763	0.249
3.30282	0.268
3.33801	0.336
3.37319	0.363
3.40838	0.35
3.44357	0.399
3.47876	0.42
3.51395	0.46
3.54914	0.492
3.58433	0.502
3.61952	0.499
3.65471	0.507
3.6899	0.507
3.72509	0.483
3.76028	0.478
3.79547	0.488
3.83066	0.511
3.86584	0.52
3.90103	0.542
3.93622	0.558
3.97141	0.579
4.0066	0.614
4.04179	0.642
4.07698	0.666
4.11217	0.689
4.14736	0.699
4.18255	0.701
4.21774	0.701
4.25293	0.705
4.28812	0.727
4.32331	0.757
4.3585	0.778
4.39368	0.79
4.42887	0.804
4.46406	0.811
4.49925	0.82
4.53444	0.825
4.56963	0.834
4.60482	0.842
4.64001	0.842
4.6752	0.846
4.71039	0.846
4.74558	0.851
4.78077	0.853
4.81596	0.855
4.85115	0.853
4.88634	0.856
4.92152	0.862
4.95671	0.869
4.9919	0.883
5.02709	0.883
5.06228	0.879
5.09747	0.881
5.13266	0.881
5.16785	0.886
5.20304	0.89
5.23823	0.888
5.27342	0.888
5.30861	0.883
5.3438	0.874
5.37899	0.883
5.41418	0.876
5.44936	0.872
5.48455	0.865
5.51974	0.858
5.55493	0.853
5.59012	0.844
5.62531	0.834
5.6605	0.825
5.69569	0.804
5.73088	0.792
5.76607	0.75
5.80126	0.705
5.83645	0.636
5.87164	0.448
5.90683	0.319
5.94202	0.129
5.9772	0.092
6.01239	0.061
6.04758	0.071
6.08277	0.09
6.11796	0.104
6.15315	0.073
6.18834	0.125
6.22353	0.139
6.25872	0.13
6.29391	0.195
6.3291	0.246
6.36429	0.312
6.39948	0.352
6.43467	0.403
6.46985	0.439
6.50504	0.504
6.54023	0.521
6.57542	0.364
6.61061	0.2
6.6458	0.267
6.68099	0.363
6.71618	0.399
6.75137	0.45
6.78656	0.488
6.82175	0.549
6.85694	0.568
6.89213	0.551
6.92732	0.581
6.96251	0.584
6.99769	0.499
7.03288	0.39
7.06807	0.371
7.10326	0.431
7.13845	0.49
7.17364	0.507
7.20883	0.525
7.24402	0.57
7.27921	0.588
7.3144	0.56
7.34959	0.541
7.38478	0.528
7.41997	0.541
7.45516	0.567
7.49035	0.598
7.52553	0.623
7.56072	0.64
7.59591	0.64
7.6311	0.607
7.66629	0.528
7.70148	0.539
7.73667	0.596
7.77186	0.635
7.80705	0.649
7.84224	0.657
7.87743	0.661
7.91262	0.657
7.94781	0.661
7.983	0.684
8.01819	0.698
8.05337	0.703
8.08856	0.701
8.12375	0.691
8.15894	0.656
8.19413	0.575
8.22932	0.467
8.26451	0.417
8.2997	0.458
8.33489	0.523
8.37008	0.549
8.40527	0.56
8.44046	0.56
8.47565	0.581
8.51084	0.605
8.54603	0.623
8.58121	0.636
8.6164	0.647
8.65159	0.642
8.68678	0.652
8.72197	0.668
8.75716	0.68
8.79235	0.684
8.82754	0.689
8.86273	0.689
8.89792	0.691
8.93311	0.689
8.9683	0.687
9.00349	0.685
9.03868	0.685
9.07387	0.685
9.10905	0.685
9.14424	0.685
9.17943	0.685
9.21462	0.689
9.24981	0.694
9.285	0.699
9.32019	0.71
9.35538	0.715
9.39057	0.713
9.42576	0.708
9.46095	0.699
9.49614	0.713
9.53133	0.726
9.56652	0.708
9.6017	0.663
9.63689	0.628
9.67208	0.609
9.70727	0.623
9.74246	0.647
9.77765	0.689
9.81284	0.715
9.84803	0.731
9.88322	0.738
9.91841	0.72
9.9536	0.664
9.98879	0.575
10.024	0.467
10.0592	0.45
10.0944	0.567
10.1295	0.63
10.1647	0.687
10.1999	0.72
10.2351	0.732
10.2703	0.739
10.3055	0.745
10.3407	0.748
10.3759	0.752
10.4111	0.752
10.4462	0.75
10.4814	0.75
10.5166	0.752
10.5518	0.752
10.587	0.752
10.6222	0.743
10.6574	0.739
10.6926	0.739
10.7278	0.732
10.763	0.729
10.7981	0.727
10.8333	0.717
10.8685	0.713
10.9037	0.712
10.9389	0.71
10.9741	0.708
11.0093	0.699
11.0445	0.694
11.0797	0.698
11.1148	0.703
11.15	0.706
11.1852	0.706
11.2204	0.705
11.2556	0.699
11.2908	0.692
11.326	0.691
11.3612	0.691
11.3964	0.699
11.4315	0.705
11.4667	0.703
11.5019	0.699
11.5371	0.705
11.5723	0.729
11.6075	0.738
11.6427	0.739
11.6779	0.741
11.7131	0.741
11.7483	0.739
11.7834	0.739
11.8186	0.738
11.8538	0.738
11.889	0.739
11.9242	0.741
11.9594	0.739
11.9946	0.746
12.0298	0.752
12.065	0.755
12.1001	0.764
12.1353	0.759
12.1705	0.75
12.2057	0.743
12.2409	0.731
12.2761	0.701
12.3113	0.645
12.3465	0.581
12.3817	0.547
12.4169	0.528
12.452	0.568
12.4872	0.623
12.5224	0.656
12.5576	0.677
12.5928	0.694
12.628	0.703
12.6632	0.708
12.6984	0.71
12.7336	0.701
12.7687	0.673
12.8039	0.636
12.8391	0.57
12.8743	0.534
12.9095	0.541
12.9447	0.57
12.9799	0.589
13.0151	0.603
13.0503	0.609
13.0854	0.598
13.1206	0.581
13.1558	0.565
13.191	0.551
13.2262	0.547
13.2614	0.544
13.2966	0.518
13.3318	0.521
13.367	0.589
13.4022	0.635
13.4373	0.656
13.4725	0.68
13.5077	0.692
13.5429	0.701
13.5781	0.706
13.6133	0.705
13.6485	0.712
13.6837	0.713
13.7189	0.717
13.754	0.724
13.7892	0.724
13.8244	0.722
13.8596	0.72
13.8948	0.71
13.93	0.698
13.9652	0.691
14.0004	0.687
14.0356	0.682
14.0707	0.678
14.1059	0.67
14.1411	0.649
14.1763	0.612
14.2115	0.561
14.2467	0.509
14.2819	0.467
14.3171	0.438
14.3523	0.415
14.3875	0.415
14.4226	0.469
14.4578	0.547
14.493	0.61
14.5282	0.654
14.5634	0.675
14.5986	0.685
14.6338	0.685
14.669	0.692
14.7042	0.696
14.7393	0.696
14.7745	0.685
14.8097	0.684
14.8449	0.682
14.8801	0.677
14.9153	0.673
14.9505	0.673
14.9857	0.671
15.0209	0.654
15.0561	0.624
15.0912	0.609
15.1264	0.593
15.1616	0.582
15.1968	0.582
15.232	0.589
15.2672	0.595
15.3024	0.602
15.3376	0.607
15.3728	0.616
15.4079	0.621
15.4431	0.631
15.4783	0.635
15.5135	0.638
15.5487	0.649
15.5839	0.65
15.6191	0.649
15.6543	0.649
15.6895	0.645
15.7246	0.643
15.7598	0.64
15.795	0.636
15.8302	0.633
15.8654	0.619
15.9006	0.614
15.9358	0.607
15.971	0.595
16.0062	0.588
