Infrared Spectrum: TITANIUM OXALATE
Formula: Ti2 ( C2 O4)3  * 10 H2 O
State: SOLID (KBr DISC)
Class: COBLENTZ
Instrument: Not specified, most likely a prism, grating, or hybrid spectrometer.
Sampling: TRANSMISSION
Resolution: 4
MICROMETERS	TRANSMITTANCE
2.024	0.542
2.06201	0.545
2.10001	0.555
2.13802	0.574
2.17602	0.588
2.21403	0.6
2.25204	0.607
2.29004	0.614
2.32805	0.623
2.36605	0.631
2.40406	0.638
2.44206	0.648
2.48007	0.656
2.51808	0.66
2.55608	0.662
2.59409	0.665
2.63209	0.678
2.6701	0.684
2.70811	0.687
2.74611	0.648
2.78412	0.462
2.82212	0.382
2.86013	0.348
2.89813	0.32
2.93614	0.274
2.97415	0.266
3.01215	0.318
3.05016	0.354
3.08816	0.364
3.12617	0.373
3.16418	0.377
3.20218	0.386
3.24019	0.417
3.27819	0.454
3.3162	0.482
3.3542	0.506
3.39221	0.524
3.43022	0.545
3.46822	0.567
3.50623	0.592
3.54423	0.61
3.58224	0.625
3.62025	0.648
3.65825	0.665
3.69626	0.681
3.73426	0.7
3.77227	0.717
3.81027	0.727
3.84828	0.736
3.88629	0.746
3.92429	0.752
3.9623	0.758
4.0003	0.767
4.03831	0.771
4.07632	0.774
4.11432	0.779
4.15233	0.782
4.19033	0.783
4.22834	0.783
4.26634	0.782
4.30435	0.782
4.34236	0.785
4.38036	0.8
4.41837	0.802
4.45637	0.808
4.49438	0.816
4.53239	0.819
4.57039	0.825
4.6084	0.826
4.6464	0.831
4.68441	0.834
4.72241	0.837
4.76042	0.84
4.79843	0.844
4.83643	0.847
4.87444	0.85
4.91244	0.853
4.95045	0.856
4.98846	0.856
5.02646	0.857
5.06447	0.857
5.10247	0.857
5.14048	0.857
5.17848	0.857
5.21649	0.856
5.2545	0.856
5.2925	0.854
5.33051	0.851
5.36851	0.841
5.40652	0.837
5.44453	0.828
5.48253	0.81
5.52054	0.791
5.55854	0.773
5.59655	0.745
5.63455	0.7
5.67256	0.632
5.71057	0.468
5.74857	0.269
5.78658	0.192
5.82458	0.171
5.86259	0.154
5.9006	0.125
5.9386	0.115
5.97661	0.114
6.01461	0.112
6.05262	0.13
6.09062	0.164
6.12863	0.216
6.16664	0.287
6.20464	0.386
6.24265	0.456
6.28065	0.518
6.31866	0.564
6.35667	0.597
6.39467	0.611
6.43268	0.638
6.47068	0.648
6.50869	0.672
6.54669	0.677
6.5847	0.708
6.62271	0.725
6.66071	0.733
6.69872	0.736
6.73672	0.709
6.77473	0.662
6.81274	0.619
6.85074	0.601
6.88875	0.591
6.92675	0.597
6.96476	0.598
7.00276	0.586
7.04077	0.561
7.07878	0.527
7.11678	0.515
7.15479	0.515
7.19279	0.531
7.2308	0.555
7.26881	0.554
7.30681	0.531
7.34482	0.565
7.38282	0.611
7.42083	0.642
7.45883	0.651
7.49684	0.634
7.53485	0.546
7.57285	0.505
7.61086	0.543
7.64886	0.57
7.68687	0.598
7.72488	0.617
7.76288	0.637
7.80089	0.647
7.83889	0.648
7.8769	0.648
7.9149	0.648
7.95291	0.65
7.99092	0.651
8.02892	0.656
8.06693	0.663
8.10493	0.672
8.14294	0.687
8.18095	0.703
8.21895	0.72
8.25696	0.728
8.29496	0.736
8.33297	0.742
8.37097	0.745
8.40898	0.746
8.44699	0.752
8.48499	0.752
8.523	0.748
8.561	0.742
8.59901	0.733
8.63702	0.724
8.67502	0.715
8.71303	0.706
8.75103	0.69
8.78904	0.668
8.82704	0.659
8.86505	0.645
8.90306	0.631
8.94106	0.611
8.97907	0.604
9.01707	0.592
9.05508	0.58
9.09309	0.568
9.13109	0.552
9.1691	0.537
9.2071	0.527
9.24511	0.515
9.28312	0.503
9.32112	0.494
9.35913	0.481
9.39713	0.474
9.43514	0.466
9.47314	0.463
9.51115	0.46
9.54916	0.453
9.58716	0.45
9.62517	0.447
9.66317	0.447
9.70118	0.447
9.73919	0.448
9.77719	0.454
9.8152	0.46
9.8532	0.468
9.89121	0.477
9.92921	0.488
9.96722	0.503
10.0052	0.514
10.0432	0.53
10.0812	0.542
10.1192	0.554
10.1572	0.567
10.1953	0.582
10.2333	0.592
10.2713	0.602
10.3093	0.61
10.3473	0.616
10.3853	0.622
10.4233	0.623
10.4613	0.628
10.4993	0.631
10.5373	0.632
10.5753	0.632
10.6133	0.631
10.6513	0.625
10.6893	0.616
10.7273	0.611
10.7653	0.605
10.8033	0.601
10.8414	0.601
10.8794	0.6
10.9174	0.595
10.9554	0.591
10.9934	0.58
11.0314	0.574
11.0694	0.571
11.1074	0.57
11.1454	0.568
11.1834	0.567
11.2214	0.567
11.2594	0.565
11.2974	0.564
11.3354	0.56
11.3734	0.552
11.4114	0.543
11.4494	0.539
11.4875	0.531
11.5255	0.521
11.5635	0.512
11.6015	0.503
11.6395	0.49
11.6775	0.481
11.7155	0.469
11.7535	0.465
11.7915	0.46
11.8295	0.456
11.8675	0.448
11.9055	0.44
11.9435	0.431
11.9815	0.419
12.0195	0.405
12.0575	0.391
12.0955	0.379
12.1336	0.371
12.1716	0.365
12.2096	0.362
12.2476	0.36
12.2856	0.355
12.3236	0.348
12.3616	0.345
12.3996	0.342
12.4376	0.342
12.4756	0.342
12.5136	0.346
12.5516	0.352
12.5896	0.364
12.6276	0.376
12.6656	0.386
12.7036	0.401
12.7416	0.41
12.7797	0.419
12.8177	0.425
12.8557	0.429
12.8937	0.434
12.9317	0.44
12.9697	0.444
13.0077	0.45
13.0457	0.456
13.0837	0.46
13.1217	0.465
13.1597	0.469
13.1977	0.472
13.2357	0.475
13.2737	0.48
13.3117	0.484
13.3497	0.487
13.3877	0.491
13.4258	0.494
13.4638	0.5
13.5018	0.503
13.5398	0.506
13.5778	0.511
13.6158	0.514
13.6538	0.515
13.6918	0.52
13.7298	0.522
13.7678	0.525
13.8058	0.527
13.8438	0.531
13.8818	0.537
13.9198	0.539
13.9578	0.542
13.9958	0.543
14.0338	0.545
14.0719	0.549
14.1099	0.551
14.1479	0.554
14.1859	0.557
14.2239	0.56
14.2619	0.561
14.2999	0.565
14.3379	0.567
14.3759	0.567
14.4139	0.57
14.4519	0.571
14.4899	0.571
14.5279	0.576
14.5659	0.577
14.6039	0.579
14.6419	0.577
14.6799	0.577
14.7179	0.579
14.756	0.579
14.794	0.582
14.832	0.582
14.87	0.582
14.908	0.582
14.946	0.58
14.984	0.58
15.022	0.58
