Infrared Spectrum: POTASSIUM MOLYBDATE
Formula: K2 Mo O4  * 5 H2 O
State: SOLID (NUJOL MULL)
Class: COBLENTZ
Instrument: Not specified, most likely a prism, grating, or hybrid spectrometer.
Sampling: TRANSMISSION
Resolution: 4
Origin: MELLON INSTITUTE
MICROMETERS	TRANSMITTANCE
2.059	0.919
2.09992	0.919
2.14084	0.917
2.18175	0.917
2.22267	0.915
2.26359	0.914
2.30451	0.914
2.34542	0.912
2.38634	0.912
2.42726	0.912
2.46818	0.914
2.50909	0.912
2.55001	0.912
2.59093	0.91
2.63185	0.912
2.67276	0.915
2.71368	0.919
2.7546	0.917
2.79552	0.905
2.83644	0.895
2.87735	0.879
2.91827	0.855
2.95919	0.837
3.00011	0.806
3.04102	0.783
3.08194	0.809
3.12286	0.837
3.16378	0.861
3.20469	0.873
3.24561	0.878
3.28653	0.859
3.32745	0.694
3.36836	0.325
3.40928	0.457
3.4502	0.492
3.49112	0.689
3.53204	0.89
3.57295	0.921
3.61387	0.929
3.65479	0.933
3.69571	0.933
3.73662	0.934
3.77754	0.933
3.81846	0.934
3.85938	0.934
3.90029	0.936
3.94121	0.938
3.98213	0.939
4.02305	0.939
4.06396	0.939
4.10488	0.938
4.1458	0.938
4.18672	0.938
4.22764	0.938
4.26855	0.936
4.30947	0.934
4.35039	0.933
4.39131	0.931
4.43222	0.929
4.47314	0.927
4.51406	0.924
4.55498	0.926
4.59589	0.924
4.63681	0.926
4.67773	0.927
4.71865	0.929
4.75957	0.931
4.80048	0.931
4.8414	0.931
4.88232	0.933
4.92324	0.933
4.96415	0.934
5.00507	0.938
5.04599	0.939
5.08691	0.941
5.12782	0.943
5.16874	0.943
5.20966	0.941
5.25058	0.943
5.29149	0.941
5.33241	0.943
5.37333	0.945
5.41425	0.946
5.45517	0.946
5.49608	0.946
5.537	0.946
5.57792	0.948
5.61884	0.95
5.65975	0.953
5.70067	0.955
5.74159	0.955
5.78251	0.958
5.82342	0.958
5.86434	0.957
5.90526	0.955
5.94618	0.951
5.98709	0.955
6.02801	0.957
6.06893	0.96
6.10985	0.965
6.15077	0.97
6.19168	0.972
6.2326	0.975
6.27352	0.979
6.31444	0.975
6.35535	0.975
6.39627	0.974
6.43719	0.972
6.47811	0.972
6.51902	0.972
6.55994	0.972
6.60086	0.97
6.64178	0.972
6.68269	0.967
6.72361	0.963
6.76453	0.948
6.80545	0.828
6.84637	0.773
6.88728	0.814
6.9282	0.874
6.96912	0.909
7.01004	0.945
7.05095	0.963
7.09187	0.972
7.13279	0.97
7.17371	0.958
7.21462	0.915
7.25554	0.883
7.29646	0.914
7.33738	0.941
7.37829	0.957
7.41921	0.965
7.46013	0.972
7.50105	0.974
7.54197	0.977
7.58288	0.979
7.6238	0.981
7.66472	0.981
7.70564	0.982
7.74655	0.982
7.78747	0.982
7.82839	0.984
7.86931	0.989
7.91022	0.991
7.95114	0.993
7.99206	0.993
8.03298	0.994
8.07389	0.994
8.11481	0.994
8.15573	0.996
8.19665	0.996
8.23757	0.998
8.27848	0.998
8.3194	0.998
8.36032	0.998
8.40124	0.998
8.44215	0.998
8.48307	0.998
8.52399	0.996
8.56491	0.994
8.60582	0.991
8.64674	0.989
8.68766	0.989
8.72858	0.987
8.7695	0.987
8.81041	0.987
8.85133	0.984
8.89225	0.986
8.93317	0.984
8.97408	0.986
9.015	0.986
9.05592	0.984
9.09684	0.986
9.13775	0.986
9.17867	0.984
9.21959	0.986
9.26051	0.986
9.30142	0.986
9.34234	0.986
9.38326	0.984
9.42418	0.986
9.4651	0.987
9.50601	0.987
9.54693	0.989
9.58785	0.989
9.62877	0.991
9.66968	0.991
9.7106	0.993
9.75152	0.993
9.79244	0.993
9.83335	0.991
9.87427	0.991
9.91519	0.991
9.95611	0.987
9.99702	0.993
10.0379	0.989
10.0789	0.986
10.1198	0.984
10.1607	0.975
10.2016	0.974
10.2425	0.974
10.2834	0.974
10.3244	0.975
10.3653	0.979
10.4062	0.979
10.4471	0.977
10.488	0.975
10.529	0.975
10.5699	0.972
10.6108	0.974
10.6517	0.969
10.6926	0.965
10.7335	0.962
10.7745	0.957
10.8154	0.951
10.8563	0.939
10.8972	0.893
10.9381	0.842
10.979	0.789
11.02	0.749
11.0609	0.728
11.1018	0.727
11.1427	0.735
11.1836	0.747
11.2246	0.718
11.2655	0.679
11.3064	0.641
11.3473	0.605
11.3882	0.519
11.4291	0.456
11.4701	0.415
11.511	0.365
11.5519	0.32
11.5928	0.288
11.6337	0.257
11.6746	0.229
11.7156	0.205
11.7565	0.188
11.7974	0.171
11.8383	0.159
11.8792	0.147
11.9202	0.14
11.9611	0.13
12.002	0.121
12.0429	0.113
12.0838	0.104
12.1247	0.106
12.1657	0.126
12.2066	0.207
12.2475	0.315
12.2884	0.413
12.3293	0.519
12.3702	0.591
12.4112	0.663
12.4521	0.73
12.493	0.768
12.5339	0.799
12.5748	0.823
12.6158	0.847
12.6567	0.867
12.6976	0.881
12.7385	0.897
12.7794	0.902
12.8203	0.905
12.8613	0.907
12.9022	0.907
12.9431	0.907
12.984	0.907
13.0249	0.909
13.0658	0.914
13.1068	0.917
13.1477	0.921
13.1886	0.919
13.2295	0.917
13.2704	0.922
13.3114	0.926
13.3523	0.929
13.3932	0.931
13.4341	0.933
13.475	0.931
13.5159	0.929
13.5569	0.927
13.5978	0.929
13.6387	0.929
13.6796	0.929
13.7205	0.927
13.7614	0.922
13.8024	0.922
13.8433	0.921
13.8842	0.921
13.9251	0.919
13.966	0.921
14.007	0.917
14.0479	0.915
14.0888	0.914
14.1297	0.909
14.1706	0.905
14.2115	0.902
14.2525	0.898
14.2934	0.893
14.3343	0.89
14.3752	0.886
14.4161	0.878
14.457	0.873
14.498	0.866
14.5389	0.862
14.5798	0.857
14.6207	0.852
14.6616	0.847
14.7026	0.843
14.7435	0.838
14.7844	0.831
14.8253	0.828
14.8662	0.821
14.9071	0.816
14.9481	0.809
14.989	0.804
15.0299	0.795
15.0708	0.792
15.1117	0.787
15.1526	0.778
15.1936	0.777
15.2345	0.771
15.2754	0.765
15.3163	0.758
15.3572	0.753
15.3982	0.746
15.4391	0.74
15.48	0.735
15.5209	0.73
15.5618	0.727
15.6027	0.722
15.6437	0.72
15.6846	0.713
15.7255	0.711
15.7664	0.706
15.8073	0.703
15.8482	0.698
15.8892	0.698
15.9301	0.692
15.971	0.689
