Infrared Spectrum: m-Aminobenzoic acid, ethyl ester, methanesulfonate
Formula: C10 H15 N O5 S
State: SOLID (SPLIT MULL), FLUOROLUBE FOR 3800-1330 CM^-^1, NUJOL FOR 1330-460 CM^-^1
Class: COBLENTZ III
Instrument: DOW KBr FOREPRISM-GRATING
Instrument parameters: BLAZED AT 3.5, 12.0, 20.0 MICRON AND CHANGED AT 5.0, 7.5, 14.9 MICRON
Sampling: TRANSMISSION
Resolution: 2
Origin: DOW CHEMICAL COMPANY
1/CM	TRANSMITTANCE
3796	0.6482
3787	0.6511
3778	0.6546
3769	0.6571
3760	0.659
3751	0.6611
3742	0.6628
3733	0.6642
3724	0.6657
3715	0.6675
3706	0.6694
3697	0.6712
3688	0.6732
3679	0.6749
3670	0.6765
3661	0.678
3652	0.6796
3643	0.6812
3634	0.6831
3625	0.685
3616	0.6868
3607	0.6887
3598	0.6907
3589	0.6925
3580	0.6945
3571	0.6965
3562	0.6984
3553	0.7001
3544	0.7021
3535	0.704
3526	0.7058
3517	0.7072
3508	0.7089
3499	0.7104
3490	0.7121
3481	0.7138
3472	0.7156
3463	0.7178
3454	0.7201
3445	0.7219
3436	0.7239
3427	0.7221
3418	0.7178
3409	0.7242
3400	0.7306
3391	0.7341
3382	0.7354
3373	0.7356
3364	0.7371
3355	0.74
3346	0.7441
3337	0.7478
3328	0.7505
3319	0.7534
3310	0.7565
3301	0.758
3292	0.7591
3283	0.7581
3274	0.7555
3265	0.7508
3256	0.744
3247	0.7361
3238	0.7242
3229	0.7095
3220	0.6924
3211	0.6731
3202	0.6556
3193	0.6304
3184	0.6
3175	0.5844
3166	0.5736
3157	0.5616
3148	0.5475
3139	0.5326
3130	0.5178
3121	0.5054
3112	0.493
3103	0.4841
3094	0.4736
3085	0.44
3076	0.4099
3067	0.4004
3058	0.3905
3049	0.3879
3040	0.377
3031	0.3498
3022	0.3371
3013	0.328
3004	0.2583
2995	0.2454
2986	0.2572
2977	0.2687
2968	0.2675
2959	0.2779
2950	0.2807
2941	0.2818
2932	0.2921
2923	0.2974
2914	0.2935
2905	0.2952
2896	0.3034
2887	0.3049
2878	0.3024
2869	0.2995
2860	0.2972
2851	0.2959
2842	0.2985
2833	0.3073
2824	0.3205
2815	0.3321
2806	0.3438
2797	0.3558
2788	0.368
2779	0.3809
2770	0.3962
2761	0.4114
2752	0.4252
2743	0.4381
2734	0.4508
2725	0.4602
2716	0.4612
2707	0.454
2698	0.4472
2689	0.4403
2680	0.4325
2671	0.4032
2662	0.3484
2653	0.325
2644	0.3189
2635	0.3268
2626	0.3482
2617	0.3728
2608	0.3996
2599	0.4207
2590	0.4397
2581	0.4631
2572	0.4857
2563	0.5047
2554	0.5215
2545	0.5378
2536	0.5533
2527	0.5656
2518	0.5774
2509	0.5879
2500	0.5964
2491	0.604
2482	0.6116
2473	0.6192
2464	0.626
2455	0.6328
2446	0.6395
2437	0.6435
2428	0.6475
2419	0.6521
2410	0.6544
2401	0.6555
2392	0.6548
2383	0.6564
2374	0.6622
2365	0.6621
2356	0.6618
2347	0.6612
2338	0.6607
2329	0.66
2320	0.6617
2311	0.6668
2302	0.6735
2293	0.6801
2284	0.6864
2275	0.6922
2266	0.6964
2257	0.6989
2248	0.6998
2239	0.7072
2230	0.7155
2221	0.7234
2212	0.7311
2203	0.7388
2194	0.7462
2185	0.7533
2176	0.7588
2167	0.7643
2158	0.7695
2149	0.7744
2140	0.7793
2131	0.7838
2122	0.7878
2113	0.7908
2104	0.7942
2095	0.7975
2086	0.8006
2077	0.8033
2068	0.8053
2059	0.8068
2050	0.8082
2041	0.809
2032	0.8099
2023	0.8105
2014	0.8093
2005	0.8069
1996	0.7998
1987	0.7956
1978	0.7948
1969	0.7992
1960	0.8028
1951	0.8048
1942	0.8046
1933	0.8022
1924	0.8032
1915	0.806
1906	0.8101
1897	0.8156
1888	0.8186
1879	0.8225
1870	0.8267
1861	0.8294
1852	0.8285
1843	0.8271
1834	0.8301
1825	0.8268
1816	0.8366
1807	0.8428
1798	0.8443
1789	0.8456
1780	0.8521
1771	0.8621
1762	0.8687
1753	0.8618
1744	0.8506
1735	0.7951
1726	0.5747
1717	0.0378
1708	0.2664
1699	0.5659
1690	0.6541
1681	0.6951
1672	0.7039
1663	0.7476
1654	0.7508
1645	0.6507
1636	0.5572
1627	0.7053
1618	0.7457
1609	0.6728
1600	0.6029
1591	0.5739
1582	0.6005
1573	0.6633
1564	0.7011
1555	0.666
1546	0.4458
1537	0.402
1528	0.536
1519	0.6703
1510	0.7068
1501	0.6719
1492	0.4668
1483	0.6787
1474	0.5818
1465	0.7237
1456	0.6538
1447	0.6706
1438	0.7508
1429	0.7258
1420	0.7375
1411	0.7678
1402	0.7591
1393	0.6935
1384	0.7371
1375	0.5393
1366	0.5157
1357	0.6804
1348	0.5984
1339	0.5132
1330	0.5619
1321	0.2681
1312	0.2234
1303	0.4441
1294	0.1727
1285	0.1279
1276	0.4231
1267	0.4787
1258	0.4353
1249	0.52
1240	0.5321
1231	0.401
1222	0.1912
1213	0.0333
1204	0.0139
1195	0.0427
1186	0.0473
1177	0.0416
1168	0.05
1159	0.1654
1150	0.2393
1141	0.3262
1132	0.4498
1123	0.3232
1114	0.3003
1105	0.2172
1096	0.5194
1087	0.5981
1078	0.4832
1069	0.6439
1060	0.6731
1051	0.1756
1042	0.2564
1033	0.6258
1024	0.4845
1015	0.6104
1006	0.6891
997	0.7058
988	0.743
979	0.7546
970	0.7507
961	0.758
952	0.7701
943	0.7775
934	0.7432
925	0.7568
916	0.7597
907	0.7818
898	0.7888
889	0.7918
880	0.7865
871	0.6405
862	0.7765
853	0.7989
844	0.8033
835	0.7971
826	0.6537
817	0.7956
808	0.7133
799	0.8085
790	0.8089
781	0.2008
772	0.6471
763	0.6193
754	0.2801
745	0.7615
736	0.7893
727	0.7846
718	0.7791
709	0.8249
700	0.8373
691	0.8399
682	0.4547
673	0.7696
664	0.8375
655	0.8439
646	0.8497
637	0.8538
628	0.8439
619	0.8266
610	0.849
601	0.8532
592	0.8484
583	0.8418
574	0.8287
565	0.4676
556	0.4068
547	0.516
538	0.4468
529	0.4922
520	0.6794
511	0.666
502	0.6428
493	0.7539
484	0.7837
475	0.7954
466	0.7956
