Infrared Spectrum: 15,16-DIHYDROXY TRIACONTANE
Formula: C30 H62 O2
State: SOLID (SPLIT MULL, HEXACHLOROBUTADIENE FOR 2-6, 6.6-8, 13.2-14.4, AND MINERAL OIL FOR 6-6.6, 8-13.2, 14.4-15.6 MICRONS)
Class: COBLENTZ
Instrument: PERKIN-ELMER
Sampling: TRANSMISSION
Resolution: 4
Origin: HORMEL INSTITUTE
MICROMETERS	TRANSMITTANCE
2.02	0.716
2.0538	0.718
2.0876	0.718
2.1214	0.716
2.15521	0.716
2.18901	0.72
2.22281	0.72
2.25661	0.718
2.29041	0.716
2.32421	0.708
2.35802	0.706
2.39182	0.705
2.42562	0.703
2.45942	0.706
2.49322	0.708
2.52702	0.71
2.56083	0.711
2.59463	0.713
2.62843	0.715
2.66223	0.716
2.69603	0.716
2.72983	0.718
2.76364	0.718
2.79744	0.716
2.83124	0.711
2.86504	0.706
2.89884	0.698
2.93264	0.674
2.96645	0.647
3.00025	0.596
3.03405	0.532
3.06785	0.447
3.10165	0.437
3.13545	0.437
3.16925	0.437
3.20306	0.469
3.23686	0.511
3.27066	0.561
3.30446	0.579
3.33826	0.589
3.37206	0.51
3.40587	0.281
3.43967	0.189
3.47347	0.245
3.50727	0.233
3.54107	0.41
3.57487	0.589
3.60868	0.635
3.64248	0.654
3.67628	0.662
3.71008	0.669
3.74388	0.672
3.77768	0.677
3.81149	0.681
3.84529	0.688
3.87909	0.691
3.91289	0.701
3.94669	0.706
3.98049	0.718
4.01429	0.72
4.0481	0.72
4.0819	0.722
4.1157	0.72
4.1495	0.722
4.1833	0.72
4.2171	0.716
4.25091	0.715
4.28471	0.718
4.31851	0.718
4.35231	0.722
4.38611	0.725
4.41991	0.727
4.45372	0.727
4.48752	0.723
4.52132	0.725
4.55512	0.72
4.58892	0.72
4.62272	0.718
4.65653	0.716
4.69033	0.713
4.72413	0.713
4.75793	0.713
4.79173	0.713
4.82553	0.713
4.85934	0.711
4.89314	0.708
4.92694	0.71
4.96074	0.708
4.99454	0.708
5.02834	0.708
5.06214	0.708
5.09595	0.708
5.12975	0.708
5.16355	0.706
5.19735	0.708
5.23115	0.705
5.26495	0.703
5.29876	0.701
5.33256	0.698
5.36636	0.696
5.40016	0.693
5.43396	0.693
5.46776	0.691
5.50157	0.693
5.53537	0.693
5.56917	0.693
5.60297	0.693
5.63677	0.693
5.67057	0.693
5.70438	0.689
5.73818	0.689
5.77198	0.688
5.80578	0.683
5.83958	0.683
5.87338	0.683
5.90718	0.683
5.94099	0.683
5.97479	0.683
6.00859	0.84
6.04239	0.95
6.07619	0.95
6.10999	0.947
6.1438	0.947
6.1776	0.945
6.2114	0.944
6.2452	0.937
6.279	0.933
6.3128	0.933
6.34661	0.932
6.38041	0.932
6.41421	0.932
6.44801	0.911
6.48181	0.911
6.51561	0.9
6.54942	0.891
6.58322	0.871
6.61702	0.832
6.65082	0.583
6.68462	0.576
6.71842	0.589
6.75223	0.594
6.78603	0.469
6.81983	0.415
6.85363	0.532
6.88743	0.572
6.92123	0.6
6.95503	0.615
6.98884	0.622
7.02264	0.623
7.05644	0.635
7.09024	0.642
7.12404	0.645
7.15784	0.645
7.19165	0.64
7.22545	0.627
7.25925	0.622
7.29305	0.632
7.32685	0.633
7.36065	0.635
7.39446	0.633
7.42826	0.623
7.46206	0.627
7.49586	0.618
7.52966	0.618
7.56346	0.618
7.59727	0.613
7.63107	0.613
7.66487	0.61
7.69867	0.588
7.73247	0.603
7.76627	0.611
7.80007	0.611
7.83388	0.615
7.86768	0.616
7.90148	0.613
7.93528	0.608
7.96908	0.61
8.00288	0.681
8.03669	0.798
8.07049	0.803
8.10429	0.806
8.13809	0.808
8.17189	0.82
8.20569	0.832
8.2395	0.815
8.2733	0.801
8.3071	0.813
8.3409	0.837
8.3747	0.838
8.4085	0.83
8.44231	0.835
8.47611	0.842
8.50991	0.844
8.54371	0.832
8.57751	0.823
8.61131	0.83
8.64512	0.828
8.67892	0.828
8.71272	0.83
8.74652	0.837
8.78032	0.842
8.81412	0.844
8.84792	0.815
8.88173	0.811
8.91553	0.842
8.94933	0.832
8.98313	0.791
9.01693	0.722
9.05073	0.757
9.08454	0.822
9.11834	0.838
9.15214	0.828
9.18594	0.801
9.21974	0.75
9.25354	0.662
9.28735	0.491
9.32115	0.41
9.35495	0.545
9.38875	0.711
9.42255	0.75
9.45635	0.762
9.49016	0.762
9.52396	0.779
9.55776	0.808
9.59156	0.774
9.62536	0.723
9.65916	0.75
9.69296	0.803
9.72677	0.82
9.76057	0.776
9.79437	0.749
9.82817	0.783
9.86197	0.82
9.89577	0.838
9.92958	0.847
9.96338	0.85
9.99718	0.847
10.031	0.823
10.0648	0.823
10.0986	0.844
10.1324	0.847
10.1662	0.82
10.2	0.808
10.2338	0.813
10.2676	0.813
10.3014	0.82
10.3352	0.833
10.369	0.837
10.4028	0.84
10.4366	0.84
10.4704	0.844
10.5042	0.847
10.538	0.844
10.5718	0.832
10.6056	0.786
10.6394	0.771
10.6732	0.791
10.707	0.822
10.7408	0.842
10.7746	0.852
10.8084	0.855
10.8422	0.852
10.876	0.85
10.9098	0.828
10.9436	0.779
10.9774	0.749
11.0112	0.794
11.045	0.85
11.0788	0.869
11.1126	0.879
11.1464	0.881
11.1802	0.877
11.214	0.871
11.2478	0.864
11.2816	0.862
11.3154	0.845
11.3492	0.822
11.383	0.844
11.4168	0.877
11.4506	0.891
11.4845	0.896
11.5183	0.903
11.5521	0.906
11.5859	0.906
11.6197	0.906
11.6535	0.908
11.6873	0.908
11.7211	0.908
11.7549	0.906
11.7887	0.9
11.8225	0.889
11.8563	0.888
11.8901	0.893
11.9239	0.896
11.9577	0.9
11.9915	0.901
12.0253	0.905
12.0591	0.908
12.0929	0.908
12.1267	0.91
12.1605	0.911
12.1943	0.91
12.2281	0.906
12.2619	0.901
12.2957	0.901
12.3295	0.896
12.3633	0.896
12.3971	0.898
12.4309	0.898
12.4647	0.898
12.4985	0.896
12.5323	0.894
12.5661	0.893
12.5999	0.891
12.6337	0.888
12.6675	0.881
12.7013	0.877
12.7351	0.864
12.7689	0.855
12.8027	0.85
12.8365	0.84
12.8703	0.832
12.9041	0.83
12.9379	0.822
12.9717	0.813
13.0055	0.808
13.0393	0.803
13.0731	0.8
13.1069	0.791
13.1407	0.781
13.1745	0.779
13.2083	0.772
13.2421	0.764
13.2759	0.484
13.3097	0.474
13.3435	0.471
13.3773	0.464
13.4111	0.459
13.4449	0.452
13.4787	0.45
13.5125	0.449
13.5463	0.442
13.5801	0.438
13.614	0.437
13.6478	0.433
13.6816	0.432
13.7154	0.422
13.7492	0.401
13.783	0.379
13.8168	0.371
13.8506	0.361
13.8844	0.347
13.9182	0.34
13.952	0.349
13.9858	0.377
14.0196	0.401
14.0534	0.413
14.0872	0.422
14.121	0.423
14.1548	0.433
14.1886	0.438
14.2224	0.442
14.2562	0.444
14.29	0.449
14.3238	0.452
14.3576	0.455
14.3914	0.462
14.4252	0.747
14.459	0.749
14.4928	0.749
14.5266	0.749
14.5604	0.747
14.5942	0.74
14.628	0.74
14.6618	0.74
14.6956	0.738
14.7294	0.735
14.7632	0.732
14.797	0.725
14.8308	0.722
14.8646	0.72
14.8984	0.718
14.9322	0.72
14.966	0.733
14.9998	0.725
15.0336	0.681
15.0674	0.679
15.1012	0.686
15.135	0.688
15.1688	0.689
15.2026	0.689
15.2364	0.688
15.2702	0.681
15.304	0.681
15.3378	0.681
15.3716	0.681
15.4054	0.681
15.4392	0.679
15.473	0.679
