Infrared Spectrum: 4-NITROSORESORCINOL, SODIUM SALT
Formula: C6 H4 O3 N Na
State: SOLID (MINERAL OIL MULL)
Class: COBLENTZ
Instrument: Not specified, most likely a prism, grating, or hybrid spectrometer.
Sampling: TRANSMISSION
Resolution: 4
Origin: WYANDOTTE CHEMICALS CORP., WYANDOTTE, MICHIGAN, USA
MICROMETERS	TRANSMITTANCE
2.027	0.763
2.06679	0.769
2.10658	0.779
2.14637	0.783
2.18617	0.784
2.22596	0.783
2.26575	0.788
2.30554	0.791
2.34533	0.801
2.38512	0.806
2.42492	0.812
2.46471	0.817
2.5045	0.821
2.54429	0.822
2.58408	0.85
2.62387	0.826
2.66366	0.86
2.70346	0.859
2.74325	0.847
2.78304	0.852
2.82283	0.832
2.86262	0.812
2.90241	0.801
2.94221	0.786
2.982	0.778
3.02179	0.753
3.06158	0.716
3.10137	0.662
3.14116	0.627
3.18095	0.577
3.22075	0.543
3.26054	0.531
3.30033	0.501
3.34012	0.463
3.37991	0.12
3.4197	0.087
3.4595	0.144
3.49929	0.167
3.53908	0.236
3.57887	0.332
3.61866	0.346
3.65845	0.37
3.69824	0.399
3.73804	0.442
3.77783	0.49
3.81762	0.495
3.85741	0.521
3.8972	0.561
3.93699	0.579
3.97679	0.599
4.01658	0.632
4.05637	0.652
4.09616	0.677
4.13595	0.695
4.17574	0.715
4.21553	0.733
4.25533	0.743
4.29512	0.731
4.33491	0.758
4.3747	0.801
4.41449	0.834
4.45428	0.829
4.49408	0.826
4.53387	0.834
4.57366	0.854
4.61345	0.869
4.65324	0.877
4.69303	0.887
4.73282	0.897
4.77262	0.908
4.81241	0.92
4.8522	0.928
4.89199	0.933
4.93178	0.932
4.97157	0.915
5.01137	0.917
5.05116	0.937
5.09095	0.93
5.13074	0.942
5.17053	0.955
5.21032	0.938
5.25012	0.948
5.28991	0.958
5.3297	0.951
5.36949	0.956
5.40928	0.953
5.44907	0.938
5.48886	0.956
5.52866	0.95
5.56845	0.937
5.60824	0.93
5.64803	0.928
5.68782	0.937
5.72761	0.932
5.76741	0.93
5.8072	0.932
5.84699	0.925
5.88678	0.91
5.92657	0.9
5.96636	0.855
6.00615	0.771
6.04595	0.683
6.08574	0.463
6.12553	0.096
6.16532	0.259
6.20511	0.551
6.2449	0.645
6.2847	0.71
6.32449	0.731
6.36428	0.604
6.40407	0.427
6.44386	0.16
6.48365	0.153
6.52344	0.105
6.56324	0.117
6.60303	0.142
6.64282	0.162
6.68261	0.238
6.7224	0.417
6.76219	0.402
6.80199	0.245
6.84178	0.225
6.88157	0.344
6.92136	0.475
6.96115	0.614
7.00094	0.67
7.04073	0.526
7.08053	0.206
7.12032	0.327
7.16011	0.493
7.1999	0.501
7.23969	0.423
7.27948	0.456
7.31928	0.619
7.35907	0.728
7.39886	0.758
7.43865	0.698
7.47844	0.539
7.51823	0.605
7.55802	0.682
7.59782	0.718
7.63761	0.723
7.6774	0.751
7.71719	0.768
7.75698	0.733
7.79677	0.455
7.83657	0.16
7.87636	0.342
7.91615	0.624
7.95594	0.715
7.99573	0.745
8.03552	0.758
8.07531	0.759
8.11511	0.801
8.1549	0.809
8.19469	0.779
8.23448	0.617
8.27427	0.665
8.31406	0.748
8.35386	0.844
8.39365	0.87
8.43344	0.879
8.47323	0.879
8.51302	0.88
8.55281	0.879
8.5926	0.887
8.6324	0.89
8.67219	0.882
8.71198	0.844
8.75177	0.688
8.79156	0.44
8.83135	0.281
8.87115	0.471
8.91094	0.703
8.95073	0.811
8.99052	0.832
9.03031	0.854
9.0701	0.865
9.10989	0.867
9.14969	0.864
9.18948	0.859
9.22927	0.865
9.26906	0.869
9.30885	0.87
9.34864	0.864
9.38844	0.852
9.42823	0.826
9.46802	0.773
9.50781	0.68
9.5476	0.516
9.58739	0.342
9.62718	0.193
9.66698	0.162
9.70677	0.2
9.74656	0.307
9.78635	0.45
9.82614	0.604
9.86593	0.687
9.90573	0.736
9.94552	0.769
9.98531	0.796
10.0251	0.826
10.0649	0.841
10.1047	0.855
10.1445	0.854
10.1843	0.849
10.2241	0.849
10.2638	0.849
10.3036	0.849
10.3434	0.85
10.3832	0.862
10.423	0.875
10.4628	0.877
10.5026	0.877
10.5424	0.874
10.5822	0.874
10.622	0.867
10.6618	0.855
10.7016	0.822
10.7413	0.756
10.7811	0.769
10.8209	0.837
10.8607	0.862
10.9005	0.875
10.9403	0.88
10.9801	0.879
11.0199	0.877
11.0597	0.869
11.0995	0.867
11.1393	0.86
11.1791	0.85
11.2188	0.832
11.2586	0.821
11.2984	0.804
11.3382	0.783
11.378	0.763
11.4178	0.74
11.4576	0.725
11.4974	0.713
11.5372	0.7
11.577	0.688
11.6168	0.69
11.6566	0.7
11.6963	0.711
11.7361	0.72
11.7759	0.736
11.8157	0.746
11.8555	0.748
11.8953	0.751
11.9351	0.735
11.9749	0.697
12.0147	0.61
12.0545	0.498
12.0943	0.326
12.1341	0.25
12.1738	0.364
12.2136	0.546
12.2534	0.591
12.2932	0.629
12.333	0.649
12.3728	0.617
12.4126	0.581
12.4524	0.615
12.4922	0.528
12.532	0.425
12.5718	0.35
12.6116	0.4
12.6513	0.574
12.6911	0.697
12.7309	0.766
12.7707	0.807
12.8105	0.827
12.8503	0.837
12.8901	0.846
12.9299	0.852
12.9697	0.855
13.0095	0.852
13.0493	0.855
13.089	0.857
13.1288	0.85
13.1686	0.844
13.2084	0.827
13.2482	0.816
13.288	0.811
13.3278	0.806
13.3676	0.812
13.4074	0.816
13.4472	0.809
13.487	0.786
13.5268	0.756
13.5665	0.733
13.6063	0.731
13.6461	0.75
13.6859	0.746
13.7257	0.726
13.7655	0.718
13.8053	0.746
13.8451	0.774
13.8849	0.789
13.9247	0.806
13.9645	0.821
14.0043	0.836
14.044	0.849
14.0838	0.864
14.1236	0.877
14.1634	0.885
14.2032	0.895
14.243	0.903
14.2828	0.907
14.3226	0.912
14.3624	0.91
14.4022	0.908
14.442	0.905
14.4818	0.899
14.5215	0.892
14.5613	0.884
14.6011	0.874
14.6409	0.877
14.6807	0.859
14.7205	0.841
14.7603	0.806
14.8001	0.793
14.8399	0.789
14.8797	0.806
14.9195	0.831
14.9593	0.847
14.999	0.837
15.0388	0.819
15.0786	0.827
15.1184	0.857
15.1582	0.87
15.198	0.867
15.2378	0.86
15.2776	0.85
15.3174	0.832
15.3572	0.817
15.397	0.799
15.4368	0.766
15.4765	0.733
15.5163	0.715
15.5561	0.715
15.5959	0.733
15.6357	0.751
15.6755	0.759
15.7153	0.761
15.7551	0.756
15.7949	0.748
15.8347	0.738
15.8745	0.733
15.9142	0.73
15.954	0.721
