Infrared Spectrum: 1,5-BIS(1'-PHENYLDIMETHYLSILYL-1-FERROCENYL)-1,1,3,3,5,5-HEXAMETHYLTRISILOXANE
Formula: C42 H56 Fe2 O2 Si5
State: LIQUID
Class: COBLENTZ
Instrument: Not specified, most likely a prism, grating, or hybrid spectrometer.
Sampling: TRANSMISSION
Path length: CAPILLARY
Resolution: 4
Origin: WYANDOTTE CHEMICALS CORP., WYANDOTTE, MICHIGAN, USA
MICROMETERS	TRANSMITTANCE
2.041	0.977
2.08184	0.976
2.12267	0.972
2.16351	0.971
2.20434	0.972
2.24518	0.974
2.28601	0.969
2.32685	0.972
2.36768	0.971
2.40852	0.969
2.44935	0.954
2.49019	0.962
2.53102	0.981
2.57186	0.974
2.61269	0.974
2.65353	0.971
2.69436	0.976
2.7352	0.979
2.77603	0.979
2.81687	0.976
2.8577	0.977
2.89854	0.976
2.93937	0.971
2.98021	0.969
3.02104	0.969
3.06188	0.96
3.10271	0.957
3.14355	0.943
3.18438	0.891
3.22522	0.63
3.26605	0.765
3.30689	0.753
3.34772	0.396
3.38856	0.801
3.42939	0.756
3.47023	0.897
3.51106	0.921
3.5519	0.93
3.59273	0.942
3.63357	0.972
3.6744	0.971
3.71524	0.976
3.75607	0.977
3.79691	0.982
3.83774	0.979
3.87858	0.979
3.91941	0.982
3.96025	0.984
4.00108	0.984
4.04192	0.974
4.08275	0.977
4.12359	0.977
4.16442	0.977
4.20526	0.977
4.24609	0.969
4.28693	0.981
4.32776	0.989
4.3686	0.998
4.40943	0.993
4.45027	0.984
4.4911	0.979
4.53194	0.979
4.57277	0.976
4.61361	0.979
4.65444	0.981
4.69528	0.982
4.73611	0.982
4.77695	0.982
4.81778	0.979
4.85862	0.972
4.89945	0.972
4.94029	0.972
4.98113	0.976
5.02196	0.981
5.0628	0.979
5.10363	0.976
5.14447	0.962
5.1853	0.942
5.22614	0.957
5.26697	0.96
5.30781	0.948
5.34864	0.952
5.38948	0.976
5.43031	0.979
5.47115	0.976
5.51198	0.964
5.55282	0.959
5.59365	0.964
5.63449	0.933
5.67532	0.92
5.71616	0.908
5.75699	0.908
5.79783	0.901
5.83866	0.896
5.8795	0.886
5.92033	0.886
5.96117	0.879
6.002	0.867
6.04284	0.855
6.08367	0.863
6.12451	0.889
6.16534	0.901
6.20618	0.906
6.24701	0.877
6.28785	0.901
6.32868	0.891
6.36952	0.897
6.41035	0.913
6.45119	0.913
6.49202	0.925
6.53286	0.921
6.57369	0.926
6.61453	0.921
6.65536	0.901
6.6962	0.823
6.73703	0.869
6.77787	0.886
6.8187	0.863
6.85954	0.826
6.90037	0.78
6.94121	0.681
6.98204	0.329
7.02288	0.494
7.06371	0.54
7.10455	0.595
7.14538	0.695
7.18622	0.76
7.22705	0.697
7.26789	0.794
7.30872	0.6
7.34956	0.777
7.39039	0.865
7.43123	0.874
7.47206	0.862
7.5129	0.875
7.55373	0.848
7.59457	0.831
7.6354	0.799
7.67624	0.714
7.71707	0.806
7.75791	0.836
7.79874	0.823
7.83958	0.75
7.88042	0.537
7.92125	0.098
7.96209	0.042
8.00292	0.085
8.04376	0.301
8.08459	0.719
8.12543	0.801
8.16626	0.835
8.2071	0.85
8.24793	0.852
8.28877	0.829
8.3296	0.789
8.37044	0.773
8.41127	0.656
8.45211	0.481
8.49294	0.508
8.53378	0.241
8.57461	0.062
8.61545	0.277
8.65628	0.602
8.69712	0.721
8.73795	0.748
8.77879	0.753
8.81962	0.719
8.86046	0.664
8.90129	0.544
8.94213	0.331
8.98296	0.151
9.0238	0.231
9.06463	0.261
9.10547	0.205
9.1463	0.156
9.18714	0.119
9.22797	0.098
9.26881	0.09
9.30964	0.083
9.35048	0.073
9.39131	0.062
9.43215	0.057
9.47298	0.056
9.51382	0.049
9.55465	0.039
9.59549	0.032
9.63632	0.03
9.67716	0.034
9.71799	0.039
9.75883	0.056
9.79966	0.096
9.8405	0.17
9.88133	0.267
9.92217	0.384
9.963	0.476
10.0038	0.515
10.0447	0.61
10.0855	0.683
10.1263	0.717
10.1672	0.748
10.208	0.773
10.2488	0.794
10.2897	0.804
10.3305	0.812
10.3714	0.829
10.4122	0.843
10.453	0.852
10.4939	0.855
10.5347	0.858
10.5755	0.865
10.6164	0.87
10.6572	0.87
10.698	0.875
10.7389	0.875
10.7797	0.874
10.8205	0.869
10.8614	0.852
10.9022	0.838
10.943	0.818
10.9839	0.778
11.0247	0.736
11.0656	0.664
11.1064	0.527
11.1472	0.51
11.1881	0.501
11.2289	0.528
11.2697	0.624
11.3106	0.683
11.3514	0.704
11.3922	0.709
11.4331	0.675
11.4739	0.61
11.5147	0.5
11.5556	0.406
11.5964	0.363
11.6372	0.353
11.6781	0.358
11.7189	0.369
11.7597	0.389
11.8006	0.401
11.8414	0.403
11.8823	0.387
11.9231	0.345
11.9639	0.287
12.0048	0.204
12.0456	0.122
12.0864	0.068
12.1273	0.045
12.1681	0.039
12.2089	0.035
12.2498	0.035
12.2906	0.039
12.3314	0.039
12.3723	0.037
12.4131	0.032
12.4539	0.03
12.4948	0.028
12.5356	0.027
12.5764	0.03
12.6173	0.028
12.6581	0.027
12.699	0.034
12.7398	0.045
12.7806	0.057
12.8215	0.068
12.8623	0.066
12.9031	0.068
12.944	0.086
12.9848	0.117
13.0256	0.202
13.0665	0.319
13.1073	0.452
13.1481	0.527
13.189	0.573
13.2298	0.6
13.2706	0.59
13.3115	0.554
13.3523	0.511
13.3931	0.5
13.434	0.518
13.4748	0.527
13.5157	0.493
13.5565	0.408
13.5973	0.331
13.6382	0.273
13.679	0.246
13.7198	0.232
13.7607	0.238
13.8015	0.309
13.8423	0.46
13.8832	0.564
13.924	0.632
13.9648	0.673
14.0057	0.681
14.0465	0.673
14.0873	0.647
14.1282	0.583
14.169	0.494
14.2099	0.382
14.2507	0.282
14.2915	0.204
14.3324	0.171
14.3732	0.168
14.414	0.2
14.4549	0.273
14.4957	0.382
14.5365	0.448
14.5774	0.489
14.6182	0.513
14.659	0.527
14.6999	0.539
14.7407	0.552
14.7815	0.573
14.8224	0.591
14.8632	0.624
14.904	0.651
14.9449	0.676
14.9857	0.681
15.0266	0.668
15.0674	0.636
15.1082	0.593
15.1491	0.557
15.1899	0.542
15.2307	0.54
15.2716	0.535
15.3124	0.539
15.3532	0.534
15.3941	0.537
15.4349	0.564
15.4757	0.608
15.5166	0.656
15.5574	0.693
15.5982	0.722
15.6391	0.729
15.6799	0.739
15.7207	0.739
15.7616	0.736
15.8024	0.732
15.8433	0.724
15.8841	0.719
15.9249	0.707
15.9658	0.697
16.0066	0.697
