Infrared Spectrum: ISOPROPOXYACETIC ACID, SODIUM SALT
Formula: C5 H9 O3 Na
State: SOLID (MINERAL OIL MULL)
Class: COBLENTZ
Instrument: Not specified, most likely a prism, grating, or hybrid spectrometer.
Sampling: TRANSMISSION
Resolution: 4
Origin: WYANDOTTE CHEMICALS CORP., WYANDOTTE, MICHIGAN, USA
MICROMETERS	TRANSMITTANCE
2.031	0.933
2.06818	0.934
2.10537	0.934
2.14255	0.897
2.17974	0.83
2.21692	0.825
2.2541	0.824
2.29129	0.832
2.32847	0.842
2.36566	0.844
2.40284	0.877
2.44002	0.883
2.47721	0.895
2.51439	0.905
2.55158	0.923
2.58876	0.897
2.62594	0.931
2.66313	0.898
2.70031	0.846
2.7375	0.743
2.77468	0.575
2.81186	0.466
2.84905	0.367
2.88623	0.3
2.92342	0.303
2.9606	0.348
2.99779	0.39
3.03497	0.447
3.07215	0.447
3.10934	0.427
3.14652	0.446
3.18371	0.496
3.22089	0.528
3.25807	0.503
3.29526	0.332
3.33244	0.02
3.36963	0.026
3.40681	0.027
3.44399	0.031
3.48118	0.057
3.51836	0.267
3.55555	0.569
3.59273	0.674
3.62991	0.704
3.6671	0.685
3.70428	0.743
3.74147	0.765
3.77865	0.729
3.81583	0.794
3.85302	0.835
3.8902	0.855
3.92739	0.88
3.96457	0.906
4.00175	0.933
4.03894	0.936
4.07612	0.934
4.11331	0.95
4.15049	0.94
4.18767	0.944
4.22486	0.926
4.26204	0.891
4.29923	0.942
4.33641	0.97
4.37359	0.964
4.41078	0.933
4.44796	0.93
4.48515	0.942
4.52233	0.933
4.55951	0.942
4.5967	0.958
4.63388	0.939
4.67107	0.942
4.70825	0.951
4.74544	0.97
4.78262	0.978
4.8198	0.972
4.85699	0.967
4.89417	0.979
4.93136	0.968
4.96854	0.953
5.00572	0.973
5.04291	0.986
5.08009	0.995
5.11728	0.967
5.15446	0.989
5.19164	0.981
5.22883	0.951
5.26601	0.97
5.3032	0.942
5.34038	0.928
5.37756	0.931
5.41475	0.917
5.45193	0.919
5.48912	0.909
5.5263	0.888
5.56348	0.853
5.60067	0.825
5.63785	0.763
5.67504	0.765
5.71222	0.751
5.7494	0.704
5.78659	0.615
5.82377	0.502
5.86096	0.475
5.89814	0.402
5.93532	0.387
5.97251	0.309
6.00969	0.171
6.04688	0.054
6.08406	0.032
6.12124	0.041
6.15843	0.032
6.19561	0.026
6.2328	0.046
6.26998	0.104
6.30716	0.2
6.34435	0.275
6.38153	0.41
6.41872	0.437
6.4559	0.533
6.49309	0.541
6.53027	0.576
6.56745	0.57
6.60464	0.601
6.64182	0.541
6.67901	0.475
6.71619	0.34
6.75337	0.11
6.79056	0.057
6.82774	0.076
6.86493	0.079
6.90211	0.099
6.93929	0.102
6.97648	0.029
7.01366	0.113
7.05085	0.251
7.08803	0.331
7.12521	0.401
7.1624	0.323
7.19958	0.135
7.23677	0.08
7.27395	0.091
7.31113	0.223
7.34832	0.363
7.3855	0.483
7.42269	0.511
7.45987	0.433
7.49705	0.39
7.53424	0.178
7.57142	0.066
7.60861	0.197
7.64579	0.398
7.68297	0.471
7.72016	0.597
7.75734	0.643
7.79453	0.673
7.83171	0.668
7.86889	0.674
7.90608	0.678
7.94326	0.668
7.98045	0.617
8.01763	0.573
8.05481	0.575
8.092	0.611
8.12918	0.699
8.16637	0.704
8.20355	0.698
8.24074	0.673
8.27792	0.67
8.3151	0.651
8.35229	0.617
8.38947	0.536
8.42666	0.363
8.46384	0.256
8.50102	0.34
8.53821	0.41
8.57539	0.435
8.61258	0.37
8.64976	0.256
8.68694	0.167
8.72413	0.185
8.76131	0.175
8.7985	0.122
8.83568	0.105
8.87286	0.164
8.91005	0.278
8.94723	0.303
8.98442	0.255
9.0216	0.133
9.05878	0.062
9.09597	0.048
9.13315	0.054
9.17034	0.065
9.20752	0.108
9.2447	0.191
9.28189	0.275
9.31907	0.343
9.35626	0.424
9.39344	0.477
9.43062	0.522
9.46781	0.542
9.50499	0.528
9.54218	0.58
9.57936	0.614
9.61654	0.626
9.65373	0.643
9.69091	0.66
9.7281	0.659
9.76528	0.632
9.80246	0.614
9.83965	0.67
9.87683	0.69
9.91402	0.707
9.9512	0.732
9.98839	0.741
10.0256	0.749
10.0628	0.763
10.0999	0.762
10.1371	0.752
10.1743	0.754
10.2115	0.738
10.2487	0.721
10.2859	0.729
10.323	0.724
10.3602	0.718
10.3974	0.709
10.4346	0.692
10.4718	0.65
10.509	0.606
10.5461	0.5
10.5833	0.348
10.6205	0.295
10.6577	0.357
10.6949	0.323
10.7321	0.259
10.7692	0.234
10.8064	0.3
10.8436	0.373
10.8808	0.472
10.918	0.576
10.9552	0.632
10.9924	0.678
11.0295	0.713
11.0667	0.738
11.1039	0.755
11.1411	0.758
11.1783	0.757
11.2155	0.766
11.2526	0.763
11.2898	0.777
11.327	0.774
11.3642	0.783
11.4014	0.786
11.4386	0.79
11.4757	0.786
11.5129	0.78
11.5501	0.772
11.5873	0.765
11.6245	0.758
11.6617	0.734
11.6989	0.726
11.736	0.706
11.7732	0.674
11.8104	0.629
11.8476	0.53
11.8848	0.381
11.922	0.279
11.9591	0.401
11.9963	0.533
12.0335	0.597
12.0707	0.614
12.1079	0.623
12.1451	0.611
12.1822	0.612
12.2194	0.597
12.2566	0.583
12.2938	0.578
12.331	0.569
12.3682	0.559
12.4053	0.544
12.4425	0.533
12.4797	0.522
12.5169	0.517
12.5541	0.524
12.5913	0.517
12.6285	0.528
12.6656	0.519
12.7028	0.525
12.74	0.53
12.7772	0.531
12.8144	0.541
12.8516	0.547
12.8887	0.55
12.9259	0.561
12.9631	0.572
13.0003	0.58
13.0375	0.587
13.0747	0.589
13.1118	0.598
13.149	0.609
13.1862	0.603
13.2234	0.614
13.2606	0.623
13.2978	0.625
13.3349	0.626
13.3721	0.631
13.4093	0.634
13.4465	0.626
13.4837	0.618
13.5209	0.615
13.5581	0.601
13.5952	0.601
13.6324	0.589
13.6696	0.594
13.7068	0.584
13.744	0.576
13.7812	0.576
13.8183	0.558
13.8555	0.548
13.8927	0.541
13.9299	0.528
13.9671	0.522
14.0043	0.511
14.0414	0.494
14.0786	0.472
14.1158	0.443
14.153	0.418
14.1902	0.393
14.2274	0.377
14.2645	0.371
14.3017	0.349
14.3389	0.334
14.3761	0.317
14.4133	0.328
14.4505	0.349
14.4877	0.39
14.5248	0.437
14.562	0.489
14.5992	0.533
14.6364	0.572
14.6736	0.597
14.7108	0.618
14.7479	0.629
14.7851	0.651
14.8223	0.653
14.8595	0.654
14.8967	0.664
14.9339	0.664
14.971	0.662
15.0082	0.642
15.0454	0.612
15.0826	0.601
15.1198	0.62
15.157	0.628
15.1942	0.639
15.2313	0.662
15.2685	0.668
15.3057	0.667
15.3429	0.659
15.3801	0.657
15.4173	0.65
15.4544	0.656
15.4916	0.642
15.5288	0.648
15.566	0.65
15.6032	0.648
15.6404	0.634
15.6775	0.636
15.7147	0.631
15.7519	0.62
15.7891	0.623
15.8263	0.62
15.8635	0.615
15.9006	0.614
15.9378	0.608
15.975	0.601
16.0122	0.603
