Infrared Spectrum: D-(+)-MALTOSE
Formula: C12 H22 O11  * H2 O
Melting point: 120 C
Class: COBLENTZ
Instrument: Not specified, most likely a prism, grating, or hybrid spectrometer.
Sampling: TRANSMISSION
Resolution: 4
Origin: WYANDOTTE CHEMICALS CORP., WYANDOTTE, MICHIGAN, USA
MICROMETERS	TRANSMITTANCE
2.061	0.904
2.10071	0.911
2.14041	0.922
2.18012	0.93
2.21982	0.897
2.25953	0.887
2.29923	0.884
2.33894	0.901
2.37865	0.897
2.41835	0.884
2.45806	0.899
2.49776	0.915
2.53747	0.927
2.57717	0.948
2.61688	0.957
2.65659	0.948
2.69629	0.96
2.736	0.94
2.7757	0.802
2.81541	0.614
2.85511	0.37
2.89482	0.207
2.93453	0.12
2.97423	0.075
3.01394	0.051
3.05364	0.049
3.09335	0.054
3.13306	0.064
3.17276	0.087
3.21247	0.151
3.25217	0.225
3.29188	0.268
3.33158	0.199
3.37129	0.031
3.411	0.031
3.4507	0.032
3.49041	0.036
3.53011	0.085
3.56982	0.372
3.60952	0.482
3.64923	0.548
3.68894	0.548
3.72864	0.555
3.76835	0.593
3.80805	0.642
3.84776	0.67
3.88746	0.688
3.92717	0.703
3.96688	0.724
4.00658	0.744
4.04629	0.757
4.08599	0.769
4.1257	0.777
4.1654	0.79
4.20511	0.815
4.24482	0.817
4.28452	0.813
4.32423	0.828
4.36393	0.843
4.40364	0.873
4.44334	0.874
4.48305	0.866
4.52276	0.873
4.56246	0.873
4.60217	0.866
4.64187	0.859
4.68158	0.853
4.72129	0.848
4.76099	0.864
4.8007	0.871
4.8404	0.881
4.88011	0.891
4.91981	0.889
4.95952	0.891
4.99923	0.896
5.03893	0.902
5.07864	0.906
5.11834	0.907
5.15805	0.907
5.19775	0.907
5.23746	0.907
5.27717	0.919
5.31687	0.919
5.35658	0.919
5.39628	0.93
5.43599	0.919
5.47569	0.922
5.5154	0.924
5.55511	0.911
5.59481	0.912
5.63452	0.902
5.67422	0.901
5.71393	0.894
5.75363	0.887
5.79334	0.855
5.83305	0.843
5.87275	0.823
5.91246	0.8
5.95216	0.767
5.99187	0.757
6.03157	0.761
6.07128	0.777
6.11099	0.794
6.15069	0.803
6.1904	0.802
6.2301	0.818
6.26981	0.807
6.30952	0.813
6.34922	0.795
6.38893	0.787
6.42863	0.759
6.46834	0.744
6.50804	0.746
6.54775	0.739
6.58746	0.708
6.62716	0.662
6.66687	0.596
6.70657	0.418
6.74628	0.237
6.78598	0.077
6.82569	0.088
6.8654	0.1
6.9051	0.128
6.94481	0.14
6.98451	0.257
7.02422	0.362
7.06392	0.393
7.10363	0.359
7.14334	0.355
7.18304	0.23
7.22275	0.131
7.26245	0.177
7.30216	0.2
7.34186	0.215
7.38157	0.235
7.42128	0.319
7.46098	0.39
7.50069	0.347
7.54039	0.395
7.5801	0.423
7.6198	0.342
7.65951	0.429
7.69922	0.456
7.73892	0.429
7.77863	0.395
7.81833	0.281
7.85804	0.306
7.89774	0.448
7.93745	0.421
7.97716	0.393
8.01686	0.429
8.05657	0.466
8.09627	0.481
8.13598	0.495
8.17569	0.527
8.21539	0.505
8.2551	0.448
8.2948	0.517
8.33451	0.548
8.37421	0.568
8.41392	0.583
8.45363	0.563
8.49333	0.517
8.53304	0.469
8.57274	0.388
8.61245	0.299
8.65215	0.182
8.69186	0.161
8.73157	0.13
8.77127	0.11
8.81098	0.113
8.85068	0.148
8.89039	0.138
8.93009	0.102
8.9698	0.088
9.00951	0.074
9.04921	0.082
9.08892	0.103
9.12862	0.102
9.16833	0.079
9.20803	0.072
9.24774	0.057
9.28745	0.049
9.32715	0.072
9.36686	0.126
9.40656	0.151
9.44627	0.148
9.48597	0.102
9.52568	0.065
9.56539	0.046
9.60509	0.041
9.6448	0.042
9.6845	0.042
9.72421	0.042
9.76392	0.054
9.80362	0.067
9.84333	0.098
9.88303	0.12
9.92274	0.123
9.96244	0.14
10.0021	0.136
10.0419	0.08
10.0816	0.097
10.1213	0.163
10.161	0.243
10.2007	0.299
10.2404	0.35
10.2801	0.398
10.3198	0.436
10.3595	0.461
10.3992	0.489
10.4389	0.502
10.4786	0.52
10.5183	0.528
10.558	0.551
10.5977	0.558
10.6374	0.558
10.6771	0.56
10.7169	0.561
10.7566	0.55
10.7963	0.533
10.836	0.512
10.8757	0.51
10.9154	0.481
10.9551	0.393
10.9948	0.255
11.0345	0.224
11.0742	0.303
11.1139	0.329
11.1536	0.398
11.1933	0.459
11.233	0.482
11.2727	0.497
11.3124	0.499
11.3521	0.484
11.3919	0.476
11.4316	0.462
11.4713	0.451
11.511	0.439
11.5507	0.439
11.5904	0.436
11.6301	0.429
11.6698	0.418
11.7095	0.398
11.7492	0.35
11.7889	0.321
11.8286	0.37
11.8683	0.449
11.908	0.482
11.9477	0.5
11.9874	0.523
12.0271	0.533
12.0668	0.551
12.1066	0.548
12.1463	0.561
12.186	0.563
12.2257	0.56
12.2654	0.553
12.3051	0.553
12.3448	0.546
12.3845	0.538
12.4242	0.53
12.4639	0.517
12.5036	0.499
12.5433	0.489
12.583	0.474
12.6227	0.441
12.6624	0.42
12.7021	0.393
12.7418	0.352
12.7816	0.319
12.8213	0.294
12.861	0.309
12.9007	0.329
12.9404	0.349
12.9801	0.354
13.0198	0.36
13.0595	0.354
13.0992	0.349
13.1389	0.347
13.1786	0.345
13.2183	0.344
13.258	0.339
13.2977	0.336
13.3374	0.336
13.3771	0.339
13.4168	0.341
13.4565	0.334
13.4963	0.334
13.536	0.336
13.5757	0.332
13.6154	0.327
13.6551	0.327
13.6948	0.324
13.7345	0.329
13.7742	0.319
13.8139	0.319
13.8536	0.309
13.8933	0.308
13.933	0.311
13.9727	0.314
14.0124	0.336
14.0521	0.349
14.0918	0.357
14.1315	0.357
14.1713	0.355
14.211	0.355
14.2507	0.352
14.2904	0.344
14.3301	0.344
14.3698	0.341
14.4095	0.337
14.4492	0.332
14.4889	0.332
14.5286	0.331
14.5683	0.329
14.608	0.322
14.6477	0.322
14.6874	0.322
14.7271	0.331
14.7668	0.324
14.8065	0.331
14.8463	0.339
14.886	0.342
14.9257	0.339
14.9654	0.354
15.0051	0.362
15.0448	0.369
15.0845	0.362
15.1242	0.35
15.1639	0.354
15.2036	0.372
15.2433	0.378
15.283	0.4
15.3227	0.403
15.3624	0.416
15.4021	0.423
15.4418	0.429
15.4815	0.438
15.5212	0.441
15.561	0.436
15.6007	0.436
15.6404	0.448
15.6801	0.456
15.7198	0.469
15.7595	0.481
15.7992	0.495
15.8389	0.5
15.8786	0.504
15.9183	0.51
15.958	0.518
