Infrared Spectrum: CERIUM, TRIS(2,4-PENTANEDIONATO)-, HYDRATE
Formula: C15 H21 Ce O6
State: SOLID (SPLIT MULL), FLUOROLUBE FOR 3800-1330 CM^-^1, NUJOL FOR 1330-470 CM^-^1
Class: COBLENTZ III
Instrument: DOW KBr FOREPRISM-GRATING
Instrument parameters: BLAZED AT 3.5, 12.0, 20.0 MICRON AND CHANGED AT 5.0, 7.5, 14.9 MICRON
Sampling: TRANSMISSION
Resolution: 2
Origin: DOW CHEMICAL COMPANY
1/CM	TRANSMITTANCE
470	0.8528
479	0.8452
488	0.8381
497	0.8301
506	0.8183
515	0.7901
524	0.6768
533	0.5826
542	0.6568
551	0.8064
560	0.8082
569	0.8082
578	0.808
587	0.8039
596	0.7974
605	0.7942
614	0.7915
623	0.7874
632	0.7828
641	0.7778
650	0.7108
659	0.66
668	0.7261
677	0.7549
686	0.7611
695	0.7656
704	0.7671
713	0.7661
722	0.7361
731	0.733
740	0.7521
749	0.7439
758	0.5736
767	0.611
776	0.7014
785	0.602
794	0.7753
803	0.8136
812	0.8527
821	0.8666
830	0.8649
839	0.8633
848	0.8601
857	0.8551
866	0.8478
875	0.8386
884	0.8225
893	0.7872
902	0.7336
911	0.5689
920	0.4084
929	0.5962
938	0.8038
947	0.7898
956	0.8421
965	0.8412
974	0.8271
983	0.8062
992	0.7696
1001	0.6925
1010	0.484
1019	0.32
1028	0.5277
1037	0.7115
1046	0.8058
1055	0.824
1064	0.8324
1073	0.8395
1082	0.8447
1091	0.8489
1100	0.8516
1109	0.8514
1118	0.8478
1127	0.8417
1136	0.8345
1145	0.8239
1154	0.7993
1163	0.7908
1172	0.7744
1181	0.7683
1190	0.7201
1199	0.7501
1208	0.7489
1217	0.7348
1226	0.7172
1235	0.6874
1244	0.6373
1253	0.5009
1262	0.2675
1271	0.4544
1280	0.5909
1289	0.5809
1298	0.5356
1307	0.4723
1316	0.4339
1325	0.4145
1334	0.3818
1343	0.3622
1352	0.3278
1361	0.2078
1370	0.1935
1379	0.1423
1388	0.1055
1397	0.0855
1406	0.1068
1415	0.1428
1424	0.1935
1433	0.2534
1442	0.2838
1451	0.2889
1460	0.338
1469	0.4588
1478	0.5114
1487	0.5229
1496	0.4671
1505	0.3732
1514	0.2223
1523	0.0621
1532	0.0363
1541	0.1763
1550	0.2934
1559	0.343
1568	0.3284
1577	0.2497
1586	0.097
1595	0.0587
1604	0.0707
1613	0.1142
1622	0.3828
1631	0.5871
1640	0.6697
1649	0.7268
1658	0.7381
1667	0.7319
1676	0.7062
1685	0.6747
1694	0.6798
1703	0.7338
1712	0.7849
1721	0.8178
1730	0.8405
1739	0.8536
1748	0.8628
1757	0.8691
1766	0.8731
1775	0.874
1784	0.8745
1793	0.8745
1802	0.8738
1811	0.8733
1820	0.8728
1829	0.8724
1838	0.8718
1847	0.871
1856	0.8694
1865	0.8675
1874	0.8655
1883	0.8634
1892	0.8613
1901	0.8589
1910	0.857
1919	0.8561
1928	0.8565
1937	0.8547
1946	0.8527
1955	0.8501
1964	0.8608
1973	0.852
1982	0.8505
1991	0.8495
2000	0.8466
2009	0.8478
2018	0.8565
2027	0.8542
2036	0.851
2045	0.8474
2054	0.8437
2063	0.8403
2072	0.8367
2081	0.8331
2090	0.8291
2099	0.8253
2108	0.8218
2117	0.8183
2126	0.8148
2135	0.8118
2144	0.8093
2153	0.8058
2162	0.8017
2171	0.7971
2180	0.7934
2189	0.7905
2198	0.788
2207	0.7867
2216	0.7853
2225	0.7833
2234	0.778
2243	0.7719
2252	0.7654
2261	0.758
2270	0.7504
2279	0.7437
2288	0.7403
2297	0.7394
2306	0.7391
2315	0.7384
2324	0.7383
2333	0.7382
2342	0.7382
2351	0.7385
2360	0.7389
2369	0.7394
2378	0.7405
2387	0.7415
2396	0.7435
2405	0.7471
2414	0.7475
2423	0.7469
2432	0.7438
2441	0.7406
2450	0.7378
2459	0.7361
2468	0.7382
2477	0.7422
2486	0.7444
2495	0.7435
2504	0.7424
2513	0.7411
2522	0.7403
2531	0.7393
2540	0.7378
2549	0.7364
2558	0.7348
2567	0.733
2576	0.7311
2585	0.729
2594	0.7268
2603	0.7248
2612	0.7222
2621	0.7195
2630	0.7168
2639	0.714
2648	0.7115
2657	0.7089
2666	0.7062
2675	0.7037
2684	0.7011
2693	0.6986
2702	0.6961
2711	0.6936
2720	0.6915
2729	0.6892
2738	0.6871
2747	0.6841
2756	0.6807
2765	0.6771
2774	0.6738
2783	0.6703
2792	0.6667
2801	0.6628
2810	0.6589
2819	0.655
2828	0.6505
2837	0.6458
2846	0.6411
2855	0.6354
2864	0.6293
2873	0.6215
2882	0.6145
2891	0.6067
2900	0.5936
2909	0.5771
2918	0.5584
2927	0.5532
2936	0.5582
2945	0.5606
2954	0.5567
2963	0.5444
2972	0.5376
2981	0.5372
2990	0.5336
2999	0.5317
3008	0.5353
3017	0.5393
3026	0.5397
3035	0.5368
3044	0.531
3053	0.5249
3062	0.5186
3071	0.5123
3080	0.5075
3089	0.5036
3098	0.4996
3107	0.4945
3116	0.4875
3125	0.4803
3134	0.4732
3143	0.4662
3152	0.4595
3161	0.4517
3170	0.4422
3179	0.4339
3188	0.4273
3197	0.4218
3206	0.418
3215	0.4142
3224	0.4106
3233	0.4074
3242	0.4064
3251	0.4059
3260	0.4062
3269	0.407
3278	0.4098
3287	0.4127
3296	0.416
3305	0.4198
3314	0.4236
3323	0.4274
3332	0.4312
3341	0.436
3350	0.4416
3359	0.4473
3368	0.4531
3377	0.459
3386	0.465
3395	0.4712
3404	0.479
3413	0.4865
3422	0.4966
3431	0.5076
3440	0.5231
3449	0.5388
3458	0.5543
3467	0.5676
3476	0.5816
3485	0.5956
3494	0.6073
3503	0.6174
3512	0.626
3521	0.6342
3530	0.6419
3539	0.649
3548	0.6558
3557	0.6615
3566	0.6671
3575	0.6707
3584	0.6735
3593	0.6747
3602	0.6761
3611	0.6771
3620	0.678
3629	0.6789
3638	0.6797
3647	0.6806
3656	0.6815
3665	0.6819
3674	0.6818
3683	0.6815
3692	0.681
3701	0.68
3710	0.6789
3719	0.6778
3728	0.6765
3737	0.6749
3746	0.6733
3755	0.6708
3764	0.6687
3773	0.6674
3782	0.6664
3791	0.6654
3800	0.6645
