Infrared Spectrum: POTASSIUM FERRICYANIDE
Formula: K3 Fe ( C N)6
State: SOLID (NUJOL MULL)
Class: COBLENTZ
Instrument: Not specified, most likely a prism, grating, or hybrid spectrometer.
Sampling: TRANSMISSION
Resolution: 4
Origin: MELLON INSTITUTE
MICROMETERS	TRANSMITTANCE
2.018	0.368
2.05807	0.375
2.09815	0.383
2.13822	0.395
2.17829	0.4
2.21837	0.409
2.25844	0.415
2.29852	0.417
2.33859	0.42
2.37866	0.424
2.41874	0.432
2.45881	0.442
2.49888	0.454
2.53896	0.462
2.57903	0.469
2.6191	0.474
2.65918	0.48
2.69925	0.485
2.73932	0.49
2.7794	0.492
2.81947	0.49
2.85955	0.492
2.89962	0.492
2.93969	0.494
2.97977	0.494
3.01984	0.494
3.05991	0.497
3.09999	0.494
3.14006	0.497
3.18013	0.497
3.22021	0.497
3.26028	0.469
3.30035	0.393
3.34043	0.195
3.3805	0.103
3.42058	0.091
3.46065	0.09
3.50072	0.327
3.5408	0.659
3.58087	0.737
3.62094	0.756
3.66102	0.756
3.70109	0.757
3.74116	0.759
3.78124	0.762
3.82131	0.767
3.86138	0.781
3.90146	0.781
3.94153	0.779
3.98161	0.776
4.02168	0.781
4.06175	0.789
4.10183	0.796
4.1419	0.801
4.18197	0.804
4.22205	0.804
4.26212	0.808
4.30219	0.809
4.34227	0.814
4.38234	0.818
4.42241	0.819
4.46249	0.821
4.50256	0.823
4.54264	0.826
4.58271	0.829
4.62278	0.834
4.66286	0.844
4.70293	0.858
4.743	0.657
4.78308	0.475
4.82315	0.509
4.86322	0.534
4.9033	0.579
4.94337	0.617
4.98344	0.662
5.02352	0.699
5.06359	0.724
5.10367	0.752
5.14374	0.767
5.18381	0.787
5.22389	0.801
5.26396	0.806
5.30403	0.811
5.34411	0.816
5.38418	0.819
5.42425	0.823
5.46433	0.828
5.5044	0.831
5.54447	0.841
5.58455	0.848
5.62462	0.851
5.6647	0.853
5.70477	0.861
5.74484	0.864
5.78492	0.868
5.82499	0.868
5.86506	0.873
5.90514	0.878
5.94521	0.879
5.98528	0.879
6.02536	0.874
6.06543	0.869
6.10551	0.864
6.14558	0.864
6.18565	0.873
6.22573	0.886
6.2658	0.889
6.30587	0.888
6.34595	0.886
6.38602	0.883
6.42609	0.879
6.46617	0.884
6.50624	0.881
6.54631	0.879
6.58639	0.879
6.62646	0.869
6.66654	0.844
6.70661	0.784
6.74668	0.701
6.78676	0.474
6.82683	0.327
6.8669	0.333
6.90698	0.43
6.94705	0.585
6.98712	0.711
7.0272	0.791
7.06727	0.824
7.10734	0.829
7.14742	0.806
7.18749	0.631
7.22757	0.497
7.26764	0.579
7.30771	0.677
7.34779	0.736
7.38786	0.764
7.42793	0.779
7.46801	0.811
7.50808	0.831
7.54815	0.839
7.58823	0.839
7.6283	0.841
7.66837	0.843
7.70845	0.849
7.74852	0.856
7.7886	0.858
7.82867	0.861
7.86874	0.863
7.90882	0.863
7.94889	0.868
7.98896	0.869
8.02904	0.873
8.06911	0.873
8.10918	0.874
8.14926	0.883
8.18933	0.888
8.2294	0.891
8.26948	0.894
8.30955	0.899
8.34963	0.901
8.3897	0.908
8.42977	0.911
8.46985	0.913
8.50992	0.914
8.54999	0.913
8.59007	0.909
8.63014	0.909
8.67021	0.909
8.71029	0.908
8.75036	0.908
8.79043	0.909
8.83051	0.911
8.87058	0.911
8.91066	0.911
8.95073	0.914
8.9908	0.918
9.03088	0.921
9.07095	0.919
9.11102	0.919
9.1511	0.919
9.19117	0.921
9.23124	0.919
9.27132	0.918
9.31139	0.921
9.35146	0.926
9.39154	0.926
9.43161	0.926
9.47169	0.924
9.51176	0.926
9.55183	0.924
9.59191	0.921
9.63198	0.919
9.67205	0.923
9.71213	0.921
9.7522	0.923
9.79227	0.923
9.83235	0.924
9.87242	0.928
9.91249	0.931
9.95257	0.929
9.99264	0.928
10.0327	0.931
10.0728	0.933
10.1129	0.933
10.1529	0.929
10.193	0.929
10.2331	0.926
10.2732	0.926
10.3132	0.923
10.3533	0.921
10.3934	0.921
10.4335	0.921
10.4735	0.923
10.5136	0.919
10.5537	0.919
10.5937	0.919
10.6338	0.914
10.6739	0.914
10.714	0.919
10.754	0.923
10.7941	0.923
10.8342	0.923
10.8743	0.926
10.9143	0.928
10.9544	0.924
10.9945	0.926
11.0346	0.931
11.0746	0.931
11.1147	0.926
11.1548	0.928
11.1948	0.924
11.2349	0.924
11.275	0.924
11.3151	0.924
11.3551	0.929
11.3952	0.929
11.4353	0.933
11.4754	0.933
11.5154	0.938
11.5555	0.939
11.5956	0.943
11.6357	0.944
11.6757	0.944
11.7158	0.948
11.7559	0.953
11.796	0.949
11.836	0.949
11.8761	0.951
11.9162	0.954
11.9562	0.956
11.9963	0.956
12.0364	0.954
12.0765	0.954
12.1165	0.958
12.1566	0.954
12.1967	0.954
12.2368	0.954
12.2768	0.958
12.3169	0.954
12.357	0.951
12.3971	0.954
12.4371	0.954
12.4772	0.951
12.5173	0.951
12.5574	0.953
12.5974	0.949
12.6375	0.951
12.6776	0.949
12.7176	0.949
12.7577	0.943
12.7978	0.933
12.8379	0.931
12.8779	0.929
12.918	0.928
12.9581	0.926
12.9982	0.933
13.0382	0.933
13.0783	0.933
13.1184	0.931
13.1585	0.931
13.1985	0.931
13.2386	0.933
13.2787	0.931
13.3187	0.926
13.3588	0.923
13.3989	0.919
13.439	0.909
13.479	0.899
13.5191	0.893
13.5592	0.888
13.5993	0.879
13.6393	0.866
13.6794	0.851
13.7195	0.839
13.7596	0.823
13.7996	0.813
13.8397	0.813
13.8798	0.821
13.9199	0.834
13.9599	0.849
14	0.854
14.0401	0.861
14.0801	0.871
14.1202	0.876
14.1603	0.878
14.2004	0.879
14.2404	0.873
14.2805	0.868
14.3206	0.859
14.3607	0.853
14.4007	0.849
14.4408	0.836
14.4809	0.826
14.521	0.819
14.561	0.816
14.6011	0.811
14.6412	0.803
14.6813	0.794
14.7213	0.789
14.7614	0.781
14.8015	0.774
14.8415	0.769
14.8816	0.759
14.9217	0.754
14.9618	0.747
15.0018	0.742
15.0419	0.729
15.082	0.721
15.1221	0.716
15.1621	0.702
15.2022	0.696
15.2423	0.682
15.2824	0.676
15.3224	0.669
15.3625	0.662
15.4026	0.659
15.4426	0.659
15.4827	0.654
15.5228	0.647
15.5629	0.644
15.6029	0.639
15.643	0.634
15.6831	0.624
15.7232	0.619
15.7632	0.616
15.8033	0.612
15.8434	0.604
15.8835	0.602
15.9235	0.594
15.9636	0.589
