Infrared Spectrum: Bicyclo[2.2.1]heptane, endo-2-aminomethyl-, sulfate (2 to 1)
Formula: C16 H32 N2 O4 S
State: SOLID (MULL)
Class: COBLENTZ III
Instrument: PERKIN-ELMER 21 (GRATING)
Instrument parameters: NaCl PRISM
Resolution: 2
Origin: SMITH KLINE & FRENCH LABS.
1/CM	TRANSMITTANCE
663	0.7642
672	0.7948
681	0.8159
690	0.8311
699	0.8462
708	0.8427
717	0.8317
726	0.8421
735	0.8596
744	0.8744
753	0.883
762	0.896
771	0.9098
780	0.9046
789	0.8726
798	0.9094
807	0.9116
816	0.9063
825	0.8614
834	0.8876
843	0.8803
852	0.8607
861	0.8411
870	0.8497
879	0.8477
888	0.8329
897	0.8525
906	0.8491
915	0.8276
924	0.799
933	0.79
942	0.7424
951	0.6984
960	0.6742
969	0.6427
978	0.6258
987	0.5808
996	0.5521
1005	0.5081
1014	0.3971
1023	0.2542
1032	0.2336
1041	0.2375
1050	0.2034
1059	0.2292
1068	0.2209
1077	0.2351
1086	0.2848
1095	0.3224
1104	0.3412
1113	0.3676
1122	0.383
1131	0.4043
1140	0.4316
1149	0.4881
1158	0.5701
1167	0.6436
1176	0.6694
1185	0.672
1194	0.7405
1203	0.8096
1212	0.8123
1221	0.8011
1230	0.8099
1239	0.8351
1248	0.8532
1257	0.8644
1266	0.8766
1275	0.8735
1284	0.8677
1293	0.8413
1302	0.7888
1311	0.8319
1320	0.8357
1329	0.8353
1338	0.8167
1347	0.7751
1356	0.7221
1365	0.6834
1374	0.5911
1383	0.8113
1392	0.8586
1401	0.8939
1410	0.8934
1419	0.8573
1428	0.7635
1437	0.6543
1446	0.3968
1455	0.3702
1464	0.4464
1473	0.6958
1482	0.7897
1491	0.807
1500	0.7644
1509	0.7154
1518	0.6863
1527	0.6747
1536	0.681
1545	0.6802
1554	0.7889
1563	0.8242
1572	0.8368
1581	0.8277
1590	0.7972
1599	0.7516
1608	0.6995
1617	0.6819
1626	0.6914
1635	0.7384
1644	0.7847
1653	0.7969
1662	0.8362
1671	0.9267
1680	0.9363
1689	0.9402
1698	0.9437
1707	0.9462
1716	0.9493
1725	0.9517
1734	0.9531
1743	0.9532
1752	0.9529
1761	0.9515
1770	0.9499
1779	0.9489
1788	0.9483
1797	0.9477
1806	0.9474
1815	0.9471
1824	0.9469
1833	0.9468
1842	0.9468
1851	0.9467
1860	0.9465
1869	0.9463
1878	0.9461
1887	0.9455
1896	0.9443
1905	0.9431
1914	0.9418
1923	0.9402
1932	0.9366
1941	0.9317
1950	0.9297
1959	0.9281
1968	0.9195
1977	0.9106
1986	0.9023
1995	0.8937
2004	0.8854
2013	0.8781
2022	0.8721
2031	0.8689
2040	0.8664
2049	0.8629
2058	0.8589
2067	0.856
2076	0.8592
2085	0.859
2094	0.8562
2103	0.8573
2112	0.8621
2121	0.8683
2130	0.8749
2139	0.8816
2148	0.8883
2157	0.8942
2166	0.9007
2175	0.9073
2184	0.9102
2193	0.9113
2202	0.9121
2211	0.9119
2220	0.9108
2229	0.9082
2238	0.9051
2247	0.9011
2256	0.8963
2265	0.8898
2274	0.8811
2283	0.8751
2292	0.8709
2301	0.8623
2310	0.8557
2319	0.8514
2328	0.8496
2337	0.8469
2346	0.8442
2355	0.8411
2364	0.838
2373	0.8348
2382	0.8301
2391	0.8244
2400	0.8178
2409	0.811
2418	0.8042
2427	0.7945
2436	0.7834
2445	0.771
2454	0.754
2463	0.7348
2472	0.7181
2481	0.7077
2490	0.6936
2499	0.6807
2508	0.6692
2517	0.6552
2526	0.6409
2535	0.6198
2544	0.6007
2553	0.5918
2562	0.5856
2571	0.5807
2580	0.5752
2589	0.5556
2598	0.5415
2607	0.5298
2616	0.5214
2625	0.5178
2634	0.5158
2643	0.5145
2652	0.513
2661	0.5097
2670	0.5036
2679	0.4971
2688	0.4916
2697	0.4848
2706	0.4756
2715	0.4648
2724	0.4526
2733	0.4362
2742	0.4154
2751	0.3973
2760	0.3789
2769	0.3573
2778	0.322
2787	0.2034
2796	0.1149
2805	0.0438
2814	0.028
2823	0.0269
2832	0.027
2841	0.027
2850	0.0271
2859	0.0274
2868	0.0289
2877	0.0327
2886	0.0407
2895	0.0516
2904	0.0642
2913	0.0919
2922	0.1465
2931	0.165
2940	0.2405
2949	0.3051
2958	0.3622
2967	0.387
2976	0.4026
2985	0.4108
2994	0.4169
3003	0.4232
3012	0.4304
3021	0.443
3030	0.4574
3039	0.4709
3048	0.4824
3057	0.5065
3066	0.5412
3075	0.5618
3084	0.5862
3093	0.6023
3102	0.6207
3111	0.6383
3120	0.6559
3129	0.6733
3138	0.6907
3147	0.708
3156	0.7256
3165	0.7507
3174	0.7628
3183	0.7774
3192	0.7945
3201	0.8144
3210	0.8296
3219	0.8483
3228	0.8592
3237	0.8693
3246	0.8781
3255	0.8858
3264	0.8887
3273	0.891
3282	0.8927
3291	0.8929
3300	0.893
3309	0.8928
3318	0.8921
3327	0.8915
3336	0.8912
3345	0.8918
3354	0.8935
3363	0.8964
3372	0.9006
3381	0.9053
3390	0.9088
3399	0.9115
3408	0.9146
3417	0.9195
3426	0.9236
3435	0.9269
3444	0.9293
3453	0.9302
3462	0.9341
3471	0.9385
3480	0.9427
3489	0.9466
3498	0.9505
3507	0.9544
3516	0.9593
3525	0.9641
3534	0.9686
3543	0.9725
3552	0.9756
3561	0.977
3570	0.9784
3579	0.9798
3588	0.9812
3597	0.9821
3606	0.983
3615	0.9836
3624	0.984
3633	0.9843
3642	0.9847
3651	0.985
3660	0.9849
3669	0.9847
3678	0.9845
3687	0.9844
3696	0.9842
3705	0.9834
3714	0.9822
3723	0.981
3732	0.9799
3741	0.9783
3750	0.9758
3759	0.9733
3768	0.9711
3777	0.9694
3786	0.9686
3795	0.9683
3804	0.968
3813	0.9677
3822	0.9675
3831	0.9673
3840	0.9671
3849	0.9668
3858	0.9666
3867	0.966
3876	0.9654
3885	0.965
3894	0.9645
3903	0.9639
3912	0.9633
3921	0.9625
3930	0.9617
3939	0.9609
3948	0.9601
3957	0.9592
3966	0.9585
3975	0.9577
3984	0.9569
3993	0.9559
