Infrared Spectrum: TRANS-2-(3-THIANAPHTHENYL)-CYCLOPROPANAMINE, SULFATE
Formula: C22 H24 N2 O4 S3
State: SOLID (OIL MULL)
Class: COBLENTZ III
Instrument: PERKIN-ELMER 21 (GRATING)
Instrument parameters: NaCl PRISM
Sampling: TRANSMISSION
Resolution: 2
Origin: SMITH KLINE & FRENCH LABS.
1/CM	TRANSMITTANCE
652	0.7771
661	0.8062
670	0.8293
679	0.8415
688	0.8538
697	0.8566
706	0.7552
715	0.8394
724	0.7889
733	0.2939
742	0.8472
751	0.3975
760	0.7746
769	0.8298
778	0.7062
787	0.9175
796	0.8857
805	0.758
814	0.9235
823	0.9236
832	0.8912
841	0.7749
850	0.8629
859	0.8585
868	0.9024
877	0.8785
886	0.7618
895	0.8633
904	0.8574
913	0.8291
922	0.8332
931	0.842
940	0.7965
949	0.827
958	0.8122
967	0.7797
976	0.7885
985	0.7783
994	0.7378
1003	0.6747
1012	0.5914
1021	0.4806
1030	0.4005
1039	0.2675
1048	0.2065
1057	0.194
1066	0.193
1075	0.163
1084	0.2756
1093	0.3919
1102	0.4413
1111	0.3389
1120	0.3757
1129	0.3366
1138	0.4137
1147	0.6675
1156	0.7758
1165	0.7723
1174	0.818
1183	0.7838
1192	0.7808
1201	0.7669
1210	0.814
1219	0.8331
1228	0.7612
1237	0.8152
1246	0.8644
1255	0.8701
1264	0.8834
1273	0.8848
1282	0.883
1291	0.873
1300	0.8593
1309	0.8452
1318	0.8488
1327	0.8652
1336	0.8521
1345	0.8365
1354	0.8151
1363	0.7298
1372	0.5713
1381	0.6576
1390	0.8227
1399	0.8559
1408	0.8359
1417	0.8002
1426	0.6238
1435	0.5725
1444	0.575
1453	0.4156
1462	0.3984
1471	0.4518
1480	0.7009
1489	0.82
1498	0.8491
1507	0.8456
1516	0.8291
1525	0.8106
1534	0.7795
1543	0.683
1552	0.5456
1561	0.628
1570	0.7571
1579	0.7834
1588	0.7795
1597	0.7333
1606	0.6706
1615	0.6086
1624	0.629
1633	0.7357
1642	0.8046
1651	0.8417
1660	0.8614
1669	0.872
1678	0.8784
1687	0.8806
1696	0.8846
1705	0.8881
1714	0.8876
1723	0.8896
1732	0.8925
1741	0.896
1750	0.9003
1759	0.9045
1768	0.907
1777	0.906
1786	0.9036
1795	0.9024
1804	0.904
1813	0.9052
1822	0.8986
1831	0.893
1840	0.8952
1849	0.9021
1858	0.8995
1867	0.8952
1876	0.8913
1885	0.8919
1894	0.891
1903	0.8881
1912	0.8848
1921	0.8837
1930	0.8802
1939	0.872
1948	0.865
1957	0.8676
1966	0.8688
1975	0.8626
1984	0.8553
1993	0.8477
2002	0.8416
2011	0.8356
2020	0.83
2029	0.8263
2038	0.8228
2047	0.8192
2056	0.817
2065	0.8151
2074	0.8133
2083	0.8136
2092	0.8138
2101	0.8142
2110	0.8168
2119	0.82
2128	0.8234
2137	0.8266
2146	0.83
2155	0.8332
2164	0.8365
2173	0.8394
2182	0.8421
2191	0.8432
2200	0.8427
2209	0.8419
2218	0.8407
2227	0.8396
2236	0.8384
2245	0.8369
2254	0.8353
2263	0.8337
2272	0.8322
2281	0.8307
2290	0.8283
2299	0.8241
2308	0.8163
2317	0.8076
2326	0.7989
2335	0.7897
2344	0.7832
2353	0.7808
2362	0.7793
2371	0.7777
2380	0.772
2389	0.7645
2398	0.7568
2407	0.7536
2416	0.7507
2425	0.743
2434	0.7288
2443	0.7157
2452	0.7047
2461	0.6993
2470	0.6979
2479	0.6964
2488	0.6933
2497	0.6831
2506	0.6709
2515	0.6565
2524	0.6392
2533	0.6089
2542	0.5868
2551	0.5681
2560	0.5522
2569	0.5429
2578	0.5373
2587	0.5319
2596	0.5247
2605	0.5097
2614	0.4875
2623	0.468
2632	0.4534
2641	0.4406
2650	0.4299
2659	0.422
2668	0.414
2677	0.4064
2686	0.399
2695	0.3929
2704	0.3877
2713	0.3826
2722	0.3824
2731	0.3942
2740	0.423
2749	0.4422
2758	0.447
2767	0.4442
2776	0.4348
2785	0.4176
2794	0.401
2803	0.3835
2812	0.3571
2821	0.3249
2830	0.2931
2839	0.2109
2848	0.1668
2857	0.1414
2866	0.1394
2875	0.1396
2884	0.1343
2893	0.1262
2902	0.1178
2911	0.1119
2920	0.1088
2929	0.1084
2938	0.1106
2947	0.1167
2956	0.127
2965	0.139
2974	0.1848
2983	0.2217
2992	0.2463
3001	0.2709
3010	0.2946
3019	0.3136
3028	0.3459
3037	0.3948
3046	0.4091
3055	0.4523
3064	0.4791
3073	0.4852
3082	0.4831
3091	0.479
3100	0.4781
3109	0.4803
3118	0.5027
3127	0.5385
3136	0.5624
3145	0.5942
3154	0.6334
3163	0.669
3172	0.6839
3181	0.6966
3190	0.7062
3199	0.7143
3208	0.7243
3217	0.7373
3226	0.7502
3235	0.7635
3244	0.7809
3253	0.8034
3262	0.8149
3271	0.8199
3280	0.8234
3289	0.8269
3298	0.8292
3307	0.8308
3316	0.8313
3325	0.8318
3334	0.8323
3343	0.8327
3352	0.8332
3361	0.8336
3370	0.834
3379	0.8345
3388	0.8346
3397	0.8346
3406	0.8346
3415	0.8346
3424	0.8346
3433	0.8344
3442	0.8343
3451	0.8342
3460	0.834
3469	0.8339
3478	0.8338
3487	0.8336
3496	0.8336
3505	0.8334
3514	0.8333
3523	0.8331
3532	0.833
3541	0.8329
3550	0.8328
3559	0.8327
3568	0.8325
3577	0.8324
3586	0.8323
3595	0.832
3604	0.8317
3613	0.8313
3622	0.831
3631	0.8307
3640	0.8303
3649	0.83
3658	0.8295
3667	0.8292
3676	0.8289
3685	0.8285
3694	0.8279
3703	0.8273
3712	0.8267
3721	0.8261
3730	0.8255
3739	0.8249
3748	0.8244
3757	0.8238
3766	0.8231
3775	0.8222
3784	0.8213
3793	0.8204
3802	0.8196
3811	0.8187
3820	0.8179
3829	0.8171
3838	0.8162
3847	0.8154
3856	0.8146
3865	0.8139
3874	0.8131
3883	0.8124
3892	0.8116
3901	0.8109
3910	0.8101
3919	0.8096
3928	0.8096
3937	0.8096
3946	0.8096
3955	0.8097
3964	0.8087
3973	0.8072
3982	0.8057
3991	0.8043
4000	0.8028
