Infrared Spectrum: RAW UMBER
Formula: O3 Fe2
State: SOLID (2.5 mg / 300 mg CsI DISC)
Class: COBLENTZ
Instrument: Not specified, most likely a grating spectrometer.
Sampling: TRANSMISSION
Resolution: 4
Origin: DESOTO CHEMICAL COATINGS, INC.
1/CM	TRANSMITTANCE
198.67	0.962
209.313	0.965
219.956	0.969
230.599	0.966
241.242	0.958
251.885	0.948
262.528	0.912
273.171	0.861
283.814	0.83
294.457	0.675
305.1	0.569
315.743	0.4801
326.386	0.311
337.029	0.219
347.672	0.201
358.315	0.206
368.959	0.237
379.602	0.2869
390.245	0.348
400.888	0.348
411.531	0.367
422.174	0.331
432.817	0.2551
443.46	0.181
454.103	0.123
464.746	0.103
475.389	0.083
486.032	0.11
496.675	0.154
507.318	0.175
517.961	0.158
528.604	0.109
539.247	0.087
549.89	0.081
560.533	0.093
571.176	0.109
581.819	0.137
592.462	0.167
603.105	0.202
613.748	0.234
624.391	0.279
635.034	0.32
645.677	0.378
656.32	0.459
666.963	0.544
677.606	0.604
688.25	0.648
698.893	0.68
709.536	0.732
720.179	0.789
730.822	0.825
741.465	0.842
752.108	0.848
762.751	0.848
773.394	0.829
784.037	0.805
794.68	0.792
805.323	0.81
815.966	0.889
826.609	0.906
837.252	0.916
847.895	0.92
858.538	0.91
869.181	0.881
879.824	0.849
890.467	0.812
901.11	0.7691
911.753	0.717
922.396	0.703
933.039	0.692
943.682	0.669
954.325	0.612
964.968	0.52
975.611	0.415
986.254	0.33
996.897	0.26
1007.54	0.199
1018.18	0.181
1028.83	0.173
1039.47	0.173
1050.11	0.198
1060.76	0.215
1071.4	0.221
1082.04	0.218
1092.68	0.226
1103.33	0.264
1113.97	0.322
1124.61	0.391
1135.26	0.46
1145.9	0.517
1156.54	0.569
1167.19	0.597
1177.83	0.64
1188.47	0.684
1199.12	0.731
1209.76	0.769
1220.4	0.798
1231.04	0.829
1241.69	0.85
1252.33	0.868
1262.97	0.882
1273.62	0.888
1284.26	0.892
1294.9	0.896
1305.55	0.896
1316.19	0.898
1326.83	0.9
1337.47	0.898
1348.12	0.897
1358.76	0.9
1369.4	0.897
1380.05	0.893
1390.69	0.897
1401.33	0.894
1411.98	0.886
1422.62	0.885
1433.26	0.881
1443.9	0.876
1454.55	0.88
1465.19	0.89
1475.83	0.898
1486.48	0.906
1497.12	0.909
1507.76	0.909
1518.41	0.908
1529.05	0.905
1539.69	0.897
1550.34	0.885
1560.98	0.873
1571.62	0.856
1582.26	0.822
1592.91	0.798
1603.55	0.76
1614.19	0.741
1624.84	0.745
1635.48	0.765
1646.12	0.8
1656.77	0.82
1667.41	0.85
1678.05	0.868
1688.69	0.881
1699.34	0.89
1709.98	0.897
1720.62	0.904
1731.27	0.913
1741.91	0.916
1752.55	0.918
1763.2	0.921
1773.84	0.916
1784.48	0.918
1795.12	0.914
1805.77	0.913
1816.41	0.913
1827.05	0.913
1837.7	0.913
1848.34	0.909
1858.98	0.908
1869.63	0.906
1880.27	0.9
1890.91	0.893
1901.56	0.892
1912.2	0.89
1922.84	0.889
1933.48	0.886
1944.13	0.884
1954.77	0.881
1965.41	0.877
1976.06	0.873
1986.7	0.873
1997.34	0.869
2007.99	0.864
2018.63	0.861
2029.27	0.86
2039.91	0.8581
2050.56	0.854
2061.2	0.852
2071.84	0.8501
2082.49	0.849
2093.13	0.845
2103.77	0.841
2114.42	0.84
2125.06	0.836
2135.7	0.833
2146.34	0.8301
2156.99	0.83
2167.63	0.828
2178.27	0.826
2188.92	0.8241
2199.56	0.8181
2210.2	0.8142
2220.85	0.8121
2231.49	0.8091
2242.13	0.8062
2252.78	0.805
2263.42	0.804
2274.06	0.802
2284.7	0.8001
2295.35	0.7982
2305.99	0.797
2316.63	0.796
2327.28	0.793
2337.92	0.79
2348.56	0.789
2359.21	0.7862
2369.85	0.785
2380.49	0.784
2391.13	0.778
2401.78	0.7731
2412.42	0.768
2423.06	0.7642
2433.71	0.7611
2444.35	0.7563
2454.99	0.7532
2465.64	0.7503
2476.28	0.752
2486.92	0.7492
2497.57	0.7472
2508.21	0.743
2518.85	0.7414
2529.49	0.7392
2540.14	0.7357
2550.78	0.733
2561.42	0.7314
2572.07	0.729
2582.71	0.7256
2593.35	0.7214
2604	0.7192
2614.64	0.7162
2625.28	0.7112
2635.92	0.7074
2646.57	0.703
2657.21	0.7015
2667.85	0.6992
2678.5	0.6937
2689.14	0.6895
2699.78	0.6872
2710.43	0.6842
2721.07	0.6802
2731.71	0.6775
2742.35	0.673
2753	0.672
2763.64	0.6695
2774.28	0.6673
2784.93	0.6643
2795.57	0.661
2806.21	0.6553
2816.86	0.6488
2827.5	0.64
2838.14	0.6356
2848.79	0.628
2859.43	0.6233
2870.07	0.6193
2880.71	0.6156
2891.36	0.6113
2902	0.6043
2912.64	0.5993
2923.29	0.5923
2933.93	0.5856
2944.57	0.581
2955.22	0.58
2965.86	0.581
2976.5	0.5823
2987.14	0.581
2997.79	0.5777
3008.43	0.5677
3019.07	0.565
3029.72	0.564
3040.36	0.558
3051	0.5531
3061.65	0.551
3072.29	0.549
3082.93	0.5484
3093.57	0.545
3104.22	0.5404
3114.86	0.5378
3125.5	0.5314
3136.15	0.529
3146.79	0.5234
3157.43	0.5146
3168.08	0.5084
3178.72	0.5004
3189.36	0.499
3200.01	0.4932
3210.65	0.4868
3221.29	0.48
3231.93	0.4768
3242.58	0.4688
3253.22	0.4594
3263.86	0.456
3274.51	0.4529
3285.15	0.4457
3295.79	0.4394
3306.44	0.4329
3317.08	0.4274
3327.72	0.4185
3338.36	0.4093
3349.01	0.3985
3359.65	0.3854
3370.29	0.3749
3380.94	0.3689
3391.58	0.3564
3402.22	0.3439
3412.87	0.334
3423.51	0.3275
3434.15	0.32
3444.79	0.3155
3455.44	0.3155
3466.08	0.318
3476.72	0.318
3487.37	0.32
3498.01	0.3255
3508.65	0.33
3519.3	0.337
3529.94	0.347
3540.58	0.3545
3551.23	0.359
3561.87	0.3705
3572.51	0.3819
3583.15	0.3915
3593.8	0.3989
3604.44	0.4025
3615.08	0.4075
3625.73	0.4129
3636.37	0.4253
3647.01	0.4384
3657.66	0.4469
3668.3	0.4584
3678.94	0.468
3689.58	0.466
3700.23	0.4664
3710.87	0.474
3721.51	0.479
3732.16	0.478
3742.8	0.475
3753.44	0.474
3764.09	0.4768
3774.73	0.479
3785.37	0.475
3796.02	0.4716
3806.66	0.4692
3817.3	0.468
3827.94	0.468
3838.59	0.4636
3849.23	0.462
3859.87	0.463
3870.52	0.4626
3881.16	0.459
3891.8	0.459
3902.45	0.4546
3913.09	0.4533
3923.73	0.4506
3934.37	0.4493
3945.02	0.4476
3955.66	0.446
3966.3	0.444
3976.95	0.4413
3987.59	0.4387
