Infrared Spectrum: Benzanilide, N,4-di-tert-butyl-
Formula: C21 H27 N O
State: SOLID (NUJOL MULL)
Class: COBLENTZ III
Instrument: BECKMAN IR-4 (HYBRID PRISM-GRATING)
Instrument parameters: NaCl PRISM
Sampling: TRANSMISSION
Resolution: 2
Origin: MONSANTO (J. FREEMAN)
1/CM	TRANSMITTANCE
626	0.8322
635	0.8881
644	0.917
653	0.927
662	0.7794
671	0.8953
680	0.9468
689	0.8182
698	0.5585
707	0.8619
716	0.7583
725	0.7036
734	0.7635
743	0.7661
752	0.857
761	0.8709
770	0.7439
779	0.7452
788	0.8275
797	0.7855
806	0.8511
815	0.6329
824	0.6399
833	0.65
842	0.8198
851	0.911
860	0.925
869	0.9142
878	0.9186
887	0.9185
896	0.9153
905	0.8952
914	0.8581
923	0.8322
932	0.8703
941	0.853
950	0.8656
959	0.8475
968	0.8234
977	0.8856
986	0.8962
995	0.9055
1004	0.895
1013	0.8185
1022	0.7647
1031	0.823
1040	0.885
1049	0.9008
1058	0.8955
1067	0.8754
1076	0.8517
1085	0.8914
1094	0.8821
1103	0.819
1112	0.6298
1121	0.815
1130	0.8041
1139	0.7102
1148	0.8234
1157	0.806
1166	0.7851
1175	0.7006
1184	0.6182
1193	0.3382
1202	0.3761
1211	0.5174
1220	0.412
1229	0.44
1238	0.644
1247	0.6329
1256	0.5484
1265	0.4608
1274	0.5321
1283	0.5645
1292	0.4786
1301	0.5582
1310	0.4424
1319	0.499
1328	0.3768
1337	0.303
1346	0.2159
1355	0.1724
1364	0.1479
1373	0.2086
1382	0.329
1391	0.4404
1400	0.4826
1409	0.6579
1418	0.7616
1427	0.7401
1436	0.5657
1445	0.346
1454	0.2039
1463	0.1232
1472	0.1252
1481	0.3037
1490	0.5161
1499	0.5756
1508	0.5047
1517	0.2626
1526	0.2171
1535	0.5008
1544	0.6736
1553	0.7788
1562	0.8225
1571	0.8121
1580	0.7623
1589	0.7539
1598	0.7109
1607	0.6046
1616	0.4997
1625	0.4715
1634	0.4089
1643	0.2462
1652	0.1961
1661	0.2375
1670	0.4967
1679	0.7269
1688	0.8372
1697	0.8764
1706	0.9131
1715	0.9283
1724	0.9348
1733	0.938
1742	0.9361
1751	0.9278
1760	0.9181
1769	0.9186
1778	0.92
1787	0.9196
1796	0.9165
1805	0.9135
1814	0.9114
1823	0.9124
1832	0.9165
1841	0.9162
1850	0.9137
1859	0.9095
1868	0.9045
1877	0.8988
1886	0.8962
1895	0.8951
1904	0.8949
1913	0.8953
1922	0.8957
1931	0.8987
1940	0.9021
1949	0.9026
1958	0.9
1967	0.8977
1976	0.8992
1985	0.9007
1994	0.902
2003	0.9022
2012	0.9021
2021	0.9014
2030	0.9007
2039	0.8999
2048	0.8991
2057	0.8984
2066	0.8977
2075	0.897
2084	0.896
2093	0.8949
2102	0.8938
2111	0.8928
2120	0.8918
2129	0.8905
2138	0.8893
2147	0.8881
2156	0.8869
2165	0.8854
2174	0.8839
2183	0.8824
2192	0.8809
2201	0.8794
2210	0.8779
2219	0.8763
2228	0.8747
2237	0.873
2246	0.8713
2255	0.8692
2264	0.8669
2273	0.8647
2282	0.8625
2291	0.8615
2300	0.8609
2309	0.8615
2318	0.8624
2327	0.863
2336	0.8632
2345	0.8625
2354	0.8619
2363	0.8604
2372	0.859
2381	0.8561
2390	0.8522
2399	0.8501
2408	0.8484
2417	0.8476
2426	0.8468
2435	0.8461
2444	0.8456
2453	0.8447
2462	0.8435
2471	0.8424
2480	0.8412
2489	0.8402
2498	0.8391
2507	0.8381
2516	0.8367
2525	0.8348
2534	0.8329
2543	0.8303
2552	0.8274
2561	0.8246
2570	0.82
2579	0.815
2588	0.81
2597	0.8051
2606	0.8003
2615	0.7959
2624	0.7918
2633	0.788
2642	0.7843
2651	0.7807
2660	0.7776
2669	0.7745
2678	0.7715
2687	0.7685
2696	0.7658
2705	0.763
2714	0.7603
2723	0.7575
2732	0.7547
2741	0.7518
2750	0.751
2759	0.7544
2768	0.7594
2777	0.7611
2786	0.7606
2795	0.7551
2804	0.7432
2813	0.7307
2822	0.7161
2831	0.6982
2840	0.6706
2849	0.5758
2858	0.5419
2867	0.3917
2876	0.2112
2885	0.0394
2894	0.0133
2903	0.0348
2912	0.0426
2921	0.0382
2930	0.0251
2939	0.0087
2948	0.0005
2957	0.0004
2966	0.0002
2975	0.0001
2984	0.006
2993	0.0726
3002	0.1388
3011	0.2045
3020	0.2979
3029	0.4578
3038	0.4808
3047	0.5036
3056	0.5263
3065	0.5504
3074	0.5662
3083	0.5979
3092	0.613
3101	0.6279
3110	0.6428
3119	0.6576
3128	0.6724
3137	0.6869
3146	0.6969
3155	0.6991
3164	0.7005
3173	0.7009
3182	0.7011
3191	0.7017
3200	0.7024
3209	0.7036
3218	0.7048
3227	0.7066
3236	0.7087
3245	0.7102
3254	0.7112
3263	0.7122
3272	0.7125
3281	0.7121
3290	0.7119
3299	0.7112
3308	0.7104
3317	0.7095
3326	0.7083
3335	0.7071
3344	0.7054
3353	0.7029
3362	0.7003
3371	0.6962
3380	0.692
3389	0.6886
3398	0.6858
3407	0.6844
3416	0.6834
3425	0.6806
3434	0.6835
3443	0.6843
3452	0.6853
3461	0.6863
3470	0.6881
3479	0.6917
3488	0.6948
3497	0.6977
3506	0.7
3515	0.702
3524	0.7028
3533	0.7031
3542	0.7033
3551	0.7034
3560	0.7035
3569	0.7034
3578	0.7033
3587	0.7032
3596	0.7027
3605	0.7022
3614	0.7017
3623	0.7012
3632	0.7004
3641	0.6997
3650	0.699
3659	0.6983
3668	0.6977
3677	0.6969
3686	0.6962
3695	0.6956
3704	0.6945
3713	0.6933
3722	0.692
3731	0.6908
3740	0.6896
3749	0.6884
3758	0.6869
3767	0.6853
3776	0.6838
3785	0.6824
3794	0.6809
3803	0.6794
3812	0.678
3821	0.6765
3830	0.6751
3839	0.6737
3848	0.6723
3857	0.6709
3866	0.6694
3875	0.6681
3884	0.6666
3893	0.6653
3902	0.6639
3911	0.6625
3920	0.6609
3929	0.6593
3938	0.6577
3947	0.6561
3956	0.6545
3965	0.6529
3974	0.6513
3983	0.6498
3992	0.6483
