Infrared Spectrum: ANTIMONY OXIDE
Formula: O3 Sb2
State: SOLID (0.5 mg / 300 mg CsI DISC)
Class: COBLENTZ
Instrument: BECKMAN IR-12 (GRATING)
Instrument parameters: GRATING BLAZED AT 3330, 1330, 445, 220 CM^-^1
Sampling: TRANSMISSION
Resolution: 4
Origin: DESOTO, INC.
1/CM	TRANSMITTANCE
203.988	0.888
214.623	0.888
225.258	0.885
235.893	0.876
246.529	0.7691
257.164	0.503
267.799	0.438
278.434	0.448
289.069	0.501
299.704	0.591
310.34	0.636
320.975	0.6979
331.61	0.757
342.245	0.795
352.88	0.808
363.515	0.811
374.151	0.804
384.786	0.5997
395.421	0.5379
406.056	0.735
416.691	0.788
427.326	0.811
437.962	0.821
448.597	0.829
459.232	0.832
469.867	0.836
480.502	0.836
491.137	0.829
501.773	0.828
512.408	0.829
523.043	0.839
533.678	0.841
544.313	0.833
554.948	0.825
565.584	0.811
576.219	0.801
586.854	0.785
597.489	0.768
608.124	0.759
618.759	0.755
629.395	0.755
640.03	0.759
650.665	0.765
661.3	0.771
671.935	0.769
682.57	0.771
693.206	0.769
703.841	0.753
714.476	0.6701
725.111	0.3391
735.746	0.158
746.381	0.126
757.017	0.2079
767.652	0.3279
778.287	0.511
788.922	0.687
799.557	0.8309
810.192	0.884
820.828	0.918
831.463	0.929
842.098	0.932
852.733	0.94
863.368	0.952
874.003	0.965
884.639	0.974
895.274	0.976
905.909	0.97
916.544	0.964
927.179	0.957
937.814	0.95
948.45	0.938
959.085	0.92
969.72	0.913
980.355	0.914
990.99	0.921
1001.63	0.934
1012.26	0.945
1022.9	0.953
1033.53	0.953
1044.17	0.954
1054.8	0.957
1065.44	0.957
1076.07	0.952
1086.71	0.95
1097.34	0.95
1107.98	0.95
1118.61	0.953
1129.25	0.956
1139.88	0.957
1150.52	0.957
1161.15	0.958
1171.79	0.961
1182.42	0.961
1193.06	0.965
1203.69	0.966
1214.33	0.966
1224.96	0.968
1235.6	0.969
1246.23	0.97
1256.87	0.972
1267.5	0.972
1278.14	0.972
1288.77	0.974
1299.41	0.972
1310.05	0.972
1320.68	0.97
1331.32	0.972
1341.95	0.972
1352.59	0.972
1363.22	0.972
1373.86	0.969
1384.49	0.972
1395.13	0.973
1405.76	0.972
1416.4	0.972
1427.03	0.972
1437.67	0.97
1448.3	0.972
1458.94	0.97
1469.57	0.97
1480.21	0.972
1490.84	0.972
1501.48	0.972
1512.11	0.974
1522.75	0.97
1533.38	0.969
1544.02	0.968
1554.65	0.968
1565.29	0.965
1575.92	0.96
1586.56	0.944
1597.19	0.924
1607.83	0.892
1618.47	0.869
1629.1	0.865
1639.74	0.884
1650.37	0.901
1661.01	0.918
1671.64	0.938
1682.28	0.95
1692.91	0.954
1703.55	0.961
1714.18	0.965
1724.82	0.966
1735.45	0.968
1746.09	0.969
1756.72	0.972
1767.36	0.973
1777.99	0.973
1788.63	0.974
1799.26	0.974
1809.9	0.973
1820.53	0.972
1831.17	0.973
1841.8	0.969
1852.44	0.972
1863.07	0.972
1873.71	0.972
1884.34	0.972
1894.98	0.97
1905.61	0.97
1916.25	0.969
1926.88	0.968
1937.52	0.965
1948.16	0.968
1958.79	0.968
1969.43	0.966
1980.06	0.968
1990.7	0.966
2001.33	0.966
2011.97	0.9645
2022.6	0.961
2033.24	0.96
2043.87	0.961
2054.51	0.962
2065.14	0.961
2075.78	0.962
2086.41	0.962
2097.05	0.961
2107.68	0.961
2118.32	0.96
2128.95	0.9631
2139.59	0.9656
2150.22	0.964
2160.86	0.9616
2171.49	0.964
2182.13	0.9644
2192.76	0.962
2203.4	0.9631
2214.03	0.968
2224.67	0.966
2235.3	0.968
2245.94	0.9654
2256.57	0.965
2267.21	0.964
2277.85	0.962
2288.48	0.962
2299.12	0.9632
2309.75	0.9656
2320.39	0.965
2331.02	0.9644
2341.66	0.965
2352.29	0.962
2362.93	0.964
2373.56	0.964
2384.2	0.965
2394.83	0.968
2405.47	0.968
2416.1	0.9653
2426.74	0.964
2437.37	0.964
2448.01	0.964
2458.64	0.964
2469.28	0.962
2479.91	0.961
2490.55	0.9617
2501.18	0.962
2511.82	0.964
2522.45	0.965
2533.09	0.964
2543.72	0.965
2554.36	0.965
2564.99	0.965
2575.63	0.9643
2586.27	0.962
2596.9	0.962
2607.54	0.962
2618.17	0.961
2628.81	0.961
2639.44	0.961
2650.08	0.961
2660.71	0.961
2671.35	0.961
2681.98	0.961
2692.62	0.961
2703.25	0.961
2713.89	0.961
2724.52	0.961
2735.16	0.96
2745.79	0.96
2756.43	0.96
2767.06	0.96
2777.7	0.96
2788.33	0.9584
2798.97	0.958
2809.6	0.957
2820.24	0.957
2830.87	0.956
2841.51	0.956
2852.14	0.956
2862.78	0.956
2873.41	0.954
2884.05	0.954
2894.68	0.953
2905.32	0.953
2915.96	0.952
2926.59	0.9503
2937.23	0.95
2947.86	0.949
2958.5	0.949
2969.13	0.9463
2979.77	0.946
2990.4	0.946
3001.04	0.946
3011.67	0.946
3022.31	0.945
3032.94	0.945
3043.58	0.944
3054.21	0.942
3064.85	0.941
3075.48	0.94
3086.12	0.938
3096.75	0.937
3107.39	0.9342
3118.02	0.933
3128.66	0.9301
3139.29	0.929
3149.93	0.928
3160.56	0.925
3171.2	0.9181
3181.83	0.916
3192.47	0.9101
3203.1	0.909
3213.74	0.904
3224.38	0.901
3235.01	0.8931
3245.65	0.8901
3256.28	0.884
3266.92	0.877
3277.55	0.871
3288.19	0.861
3298.82	0.853
3309.46	0.839
3320.09	0.825
3330.73	0.8069
3341.36	0.7949
3352	0.7789
3362.63	0.7569
3373.27	0.7389
3383.9	0.7198
3394.54	0.7019
3405.17	0.6898
3415.81	0.6698
3426.44	0.6599
3437.08	0.6519
3447.71	0.6479
3458.35	0.6459
3468.98	0.644
3479.62	0.648
3490.25	0.6562
3500.89	0.6643
3511.52	0.6792
3522.16	0.6883
3532.79	0.7003
3543.43	0.7206
3554.07	0.7408
3564.7	0.7608
3575.34	0.7817
3585.97	0.8053
3596.61	0.8218
3607.24	0.8458
3617.88	0.8658
3628.51	0.8895
3639.15	0.9024
3649.78	0.9134
3660.42	0.9223
3671.05	0.928
3681.69	0.932
3692.32	0.9332
3702.96	0.936
3713.59	0.936
3724.23	0.937
3734.86	0.937
3745.5	0.938
3756.13	0.94
3766.77	0.94
3777.4	0.94
3788.04	0.94
3798.67	0.94
3809.31	0.9394
3819.94	0.937
3830.58	0.937
3841.21	0.94
3851.85	0.94
3862.48	0.9384
3873.12	0.94
3883.76	0.937
3894.39	0.937
3905.03	0.937
3915.66	0.937
3926.3	0.938
3936.93	0.938
3947.57	0.938
3958.2	0.938
3968.84	0.938
3979.47	0.938
