Infrared Spectrum: t-BUTYLAMINE, COMPOUND WITH BORON TRIHYDRIDE
Formula: C4 H14 B N
State: SOLID (SPLIT MULL), FLUOROLUBE FOR 3800-1330 CM^-^1, NUJOL FOR 1330-450 CM^-^1
Class: COBLENTZ III
Instrument: DOW KBr FOREPRISM-GRATING
Instrument parameters: BLAZED AT 3.5, 12.0, 20.0 MICRON AND CHANGED AT 5.0, 7.5, 14.9 MICRON
Sampling: TRANSMISSION
Resolution: 2
Origin: DOW CHEMICAL COMPANY
1/CM	TRANSMITTANCE
459	0.7089
468	0.7248
477	0.7542
486	0.7811
495	0.7946
504	0.7994
513	0.8156
522	0.828
531	0.8365
540	0.8412
549	0.8371
558	0.8418
567	0.864
576	0.8728
585	0.8802
594	0.8845
603	0.8853
612	0.8816
621	0.8901
630	0.8854
639	0.8786
648	0.8821
657	0.8754
666	0.8677
675	0.8781
684	0.8597
693	0.7574
702	0.8141
711	0.81
720	0.7391
729	0.761
738	0.7961
747	0.7961
756	0.832
765	0.8335
774	0.8401
783	0.8384
792	0.8008
801	0.8149
810	0.8528
819	0.8406
828	0.8245
837	0.7961
846	0.8143
855	0.7972
864	0.7601
873	0.6731
882	0.4658
891	0.5294
900	0.768
909	0.7983
918	0.7944
927	0.6875
936	0.7472
945	0.7694
954	0.7096
963	0.6084
972	0.557
981	0.5132
990	0.6872
999	0.7117
1008	0.6955
1017	0.6728
1026	0.6471
1035	0.6441
1044	0.5074
1053	0.3898
1062	0.6398
1071	0.6534
1080	0.6565
1089	0.6671
1098	0.6807
1107	0.6918
1116	0.6949
1125	0.6697
1134	0.6558
1143	0.5393
1152	0.2826
1161	0.0437
1170	0.0248
1179	0.0863
1188	0.0439
1197	0.1223
1206	0.1756
1215	0.3272
1224	0.1863
1233	0.292
1242	0.6256
1251	0.6408
1260	0.5617
1269	0.5189
1278	0.5209
1287	0.525
1296	0.5562
1305	0.4699
1314	0.4925
1323	0.43
1332	0.2452
1341	0.0664
1350	0.2837
1359	0.4456
1368	0.5317
1377	0.0465
1386	0.5345
1395	0.5837
1404	0.4333
1413	0.6626
1422	0.7189
1431	0.7331
1440	0.7294
1449	0.7287
1458	0.7076
1467	0.6336
1476	0.48
1485	0.6911
1494	0.7756
1503	0.7968
1512	0.8078
1521	0.8119
1530	0.8108
1539	0.8011
1548	0.7889
1557	0.7975
1566	0.7456
1575	0.7311
1584	0.4185
1593	0.1469
1602	0.7624
1611	0.8365
1620	0.8455
1629	0.8454
1638	0.8503
1647	0.8521
1656	0.8427
1665	0.8543
1674	0.8741
1683	0.8775
1692	0.8808
1701	0.8836
1710	0.8825
1719	0.8804
1728	0.8775
1737	0.8762
1746	0.8753
1755	0.8743
1764	0.874
1773	0.8758
1782	0.8798
1791	0.8836
1800	0.8834
1809	0.8801
1818	0.8803
1827	0.8818
1836	0.8796
1845	0.8764
1854	0.8752
1863	0.874
1872	0.8725
1881	0.8708
1890	0.8684
1899	0.8657
1908	0.8628
1917	0.8594
1926	0.8551
1935	0.8618
1944	0.8671
1953	0.859
1962	0.864
1971	0.8671
1980	0.8633
1989	0.8589
1998	0.8457
2007	0.7599
2016	0.726
2025	0.7261
2034	0.731
2043	0.7235
2052	0.7253
2061	0.7285
2070	0.7246
2079	0.7165
2088	0.7028
2097	0.6862
2106	0.6692
2115	0.6385
2124	0.6171
2133	0.5986
2142	0.5986
2151	0.607
2160	0.5935
2169	0.5855
2178	0.569
2187	0.5736
2196	0.5793
2205	0.5714
2214	0.5297
2223	0.49
2232	0.4604
2241	0.426
2250	0.3334
2259	0.2546
2268	0.1076
2277	0.0539
2286	0.0812
2295	0.108
2304	0.0316
2313	0.0356
2322	0.0489
2331	0.0672
2340	0.0831
2349	0.0976
2358	0.1086
2367	0.1158
2376	0.1199
2385	0.1136
2394	0.0922
2403	0.0834
2412	0.1106
2421	0.1916
2430	0.2663
2439	0.4095
2448	0.5589
2457	0.6249
2466	0.6558
2475	0.6811
2484	0.7
2493	0.7132
2502	0.7158
2511	0.7045
2520	0.6846
2529	0.6831
2538	0.6954
2547	0.7044
2556	0.6938
2565	0.7025
2574	0.7287
2583	0.7491
2592	0.7525
2601	0.754
2610	0.754
2619	0.7512
2628	0.7487
2637	0.7542
2646	0.7631
2655	0.7508
2664	0.7322
2673	0.7286
2682	0.7408
2691	0.7558
2700	0.7721
2709	0.7711
2718	0.775
2727	0.7735
2736	0.7584
2745	0.7694
2754	0.7768
2763	0.7698
2772	0.7731
2781	0.7733
2790	0.7668
2799	0.7582
2808	0.7484
2817	0.7374
2826	0.7256
2835	0.713
2844	0.6996
2853	0.6854
2862	0.6711
2871	0.5633
2880	0.556
2889	0.58
2898	0.5667
2907	0.4938
2916	0.4935
2925	0.4849
2934	0.4623
2943	0.4141
2952	0.4091
2961	0.3058
2970	0.2507
2979	0.176
2988	0.3237
2997	0.3594
3006	0.6811
3015	0.6936
3024	0.6984
3033	0.7015
3042	0.7028
3051	0.7028
3060	0.7036
3069	0.7078
3078	0.7053
3087	0.6981
3096	0.6875
3105	0.6742
3114	0.6538
3123	0.627
3132	0.5765
3141	0.1964
3150	0.4482
3159	0.5988
3168	0.5994
3177	0.5748
3186	0.5393
3195	0.4745
3204	0.3457
3213	0.0389
3222	0.0183
3231	0.1683
3240	0.1265
3249	0.0277
3258	0.2155
3267	0.625
3276	0.6983
3285	0.7511
3294	0.7785
3303	0.7889
3312	0.7951
3321	0.7974
3330	0.7978
3339	0.7971
3348	0.796
3357	0.7938
3366	0.7914
3375	0.7894
3384	0.7835
3393	0.7815
3402	0.7815
3411	0.7817
3420	0.7822
3429	0.7828
3438	0.7841
3447	0.7867
3456	0.7901
3465	0.7847
3474	0.7705
3483	0.7819
3492	0.7993
3501	0.8057
3510	0.8094
3519	0.8121
3528	0.8148
3537	0.8172
3546	0.8191
3555	0.8208
3564	0.8225
3573	0.824
3582	0.8252
3591	0.8264
3600	0.8273
3609	0.8282
3618	0.8291
3627	0.8293
3636	0.8294
3645	0.8298
3654	0.8302
3663	0.8302
3672	0.8299
3681	0.8304
3690	0.8312
3699	0.8325
3708	0.8342
3717	0.8353
3726	0.8358
3735	0.8363
3744	0.8371
3753	0.8378
3762	0.8378
3771	0.8373
3780	0.837
3789	0.8375
3798	0.8381
