Infrared Spectrum: Ethomeen S/20 hydrochloride
Formula: C46-48 H74-78 Cl N O10
State: LIQUID (NEAT)
Class: COBLENTZ III
Instrument: PERKIN-ELMER 157
Sampling: TRANSMISSION
Resolution: 2
Origin: BRITISH PETROLEUM CO. LTD., ENGLAND
1/CM	TRANSMITTANCE
667	0.4364
676	0.4776
685	0.5
694	0.5113
703	0.5086
712	0.4694
721	0.3909
730	0.4473
739	0.4871
748	0.5146
757	0.534
766	0.541
775	0.5411
784	0.5292
793	0.499
802	0.4535
811	0.4166
820	0.3721
829	0.3282
838	0.3074
847	0.3071
856	0.3261
865	0.317
874	0.3038
883	0.2566
892	0.2719
901	0.311
910	0.2796
919	0.2319
928	0.1905
937	0.154
946	0.1533
955	0.1797
964	0.2264
973	0.2658
982	0.2427
991	0.2209
1000	0.2153
1009	0.2013
1018	0.1503
1027	0.094
1036	0.0549
1045	0.0455
1054	0.0259
1063	0.0143
1072	0.0141
1081	0.0139
1090	0.0138
1099	0.0136
1108	0.0134
1117	0.0119
1126	0.013
1135	0.0129
1144	0.0148
1153	0.0315
1162	0.1254
1171	0.2542
1180	0.3414
1189	0.3726
1198	0.3753
1207	0.3462
1216	0.3075
1225	0.2626
1234	0.1877
1243	0.1361
1252	0.142
1261	0.1922
1270	0.2049
1279	0.1693
1288	0.1418
1297	0.145
1306	0.1885
1315	0.2184
1324	0.2393
1333	0.257
1342	0.1536
1351	0.1244
1360	0.1792
1369	0.2019
1378	0.226
1387	0.2674
1396	0.2669
1405	0.264
1414	0.2491
1423	0.2082
1432	0.1473
1441	0.1011
1450	0.0679
1459	0.0666
1468	0.1017
1477	0.1751
1486	0.3631
1495	0.5113
1504	0.6287
1513	0.6377
1522	0.664
1531	0.6692
1540	0.6703
1549	0.671
1558	0.671
1567	0.6706
1576	0.6696
1585	0.6607
1594	0.6411
1603	0.6154
1612	0.591
1621	0.5719
1630	0.5594
1639	0.5673
1648	0.5887
1657	0.5993
1666	0.6529
1675	0.6699
1684	0.6716
1693	0.6668
1702	0.6576
1711	0.6531
1720	0.6625
1729	0.7002
1738	0.7071
1747	0.7191
1756	0.7325
1765	0.7472
1774	0.753
1783	0.7541
1792	0.754
1801	0.7537
1810	0.7535
1819	0.7529
1828	0.7511
1837	0.7488
1846	0.7441
1855	0.7382
1864	0.7296
1873	0.7273
1882	0.7193
1891	0.7094
1900	0.7005
1909	0.6865
1918	0.6728
1927	0.6659
1936	0.6614
1945	0.659
1954	0.6594
1963	0.6621
1972	0.6688
1981	0.673
1990	0.6744
1999	0.6757
2008	0.676
2017	0.6756
2026	0.6746
2035	0.6729
2044	0.6706
2053	0.6666
2062	0.6607
2071	0.6554
2080	0.648
2089	0.6412
2098	0.6361
2107	0.6309
2116	0.6257
2125	0.6206
2134	0.6155
2143	0.6103
2152	0.6047
2161	0.5992
2170	0.5937
2179	0.5889
2188	0.584
2197	0.5774
2206	0.5702
2215	0.5616
2224	0.5518
2233	0.5417
2242	0.5318
2251	0.5234
2260	0.5145
2269	0.5033
2278	0.4926
2287	0.482
2296	0.4712
2305	0.4584
2314	0.4414
2323	0.4172
2332	0.4015
2341	0.3859
2350	0.3705
2359	0.3564
2368	0.3523
2377	0.3507
2386	0.3467
2395	0.3351
2404	0.3218
2413	0.3136
2422	0.3044
2431	0.2931
2440	0.2792
2449	0.2662
2458	0.2614
2467	0.2602
2476	0.2598
2485	0.2596
2494	0.2594
2503	0.259
2512	0.2585
2521	0.2573
2530	0.2552
2539	0.251
2548	0.2493
2557	0.2489
2566	0.2491
2575	0.2502
2584	0.2515
2593	0.253
2602	0.2546
2611	0.256
2620	0.2575
2629	0.2588
2638	0.2596
2647	0.259
2656	0.2575
2665	0.2541
2674	0.2491
2683	0.2438
2692	0.2386
2701	0.2357
2710	0.2341
2719	0.2325
2728	0.2306
2737	0.2284
2746	0.2258
2755	0.2208
2764	0.2105
2773	0.1901
2782	0.1591
2791	0.129
2800	0.0992
2809	0.0694
2818	0.0404
2827	0.0261
2836	0.0197
2845	0.0179
2854	0.0174
2863	0.0173
2872	0.0174
2881	0.0175
2890	0.0182
2899	0.019
2908	0.0202
2917	0.0216
2926	0.0232
2935	0.0279
2944	0.0611
2953	0.1182
2962	0.175
2971	0.2314
2980	0.2875
2989	0.3432
2998	0.3862
3007	0.3941
3016	0.3974
3025	0.3987
3034	0.3994
3043	0.3996
3052	0.3988
3061	0.3972
3070	0.3948
3079	0.3914
3088	0.3849
3097	0.37
3106	0.3537
3115	0.3376
3124	0.3215
3133	0.3057
3142	0.2898
3151	0.274
3160	0.2583
3169	0.2428
3178	0.2273
3187	0.2119
3196	0.1965
3205	0.1824
3214	0.1705
3223	0.1546
3232	0.1342
3241	0.1244
3250	0.1155
3259	0.1084
3268	0.1023
3277	0.098
3286	0.0954
3295	0.0938
3304	0.0934
3313	0.0932
3322	0.0931
3331	0.093
3340	0.0929
3349	0.0929
3358	0.0928
3367	0.0928
3376	0.0938
3385	0.095
3394	0.0966
3403	0.0988
3412	0.1017
3421	0.1059
3430	0.1117
3439	0.1189
3448	0.1288
3457	0.1433
3466	0.156
3475	0.1655
3484	0.1747
3493	0.1852
3502	0.2235
3511	0.2471
3520	0.2883
3529	0.3092
3538	0.3283
3547	0.3553
3556	0.3991
3565	0.4442
3574	0.4889
3583	0.5336
3592	0.5779
3601	0.6221
3610	0.6624
3619	0.6939
3628	0.7295
3637	0.7385
3646	0.7463
3655	0.7517
3664	0.7548
3673	0.7565
3682	0.7574
3691	0.7581
3700	0.7585
3709	0.7587
3718	0.7587
3727	0.7585
3736	0.7582
3745	0.7578
3754	0.7569
3763	0.7556
3772	0.7542
3781	0.7521
3790	0.75
3799	0.7478
3808	0.746
3817	0.7441
3826	0.7422
3835	0.7403
3844	0.7384
3853	0.7364
3862	0.7345
3871	0.7328
3880	0.7315
3889	0.7303
3898	0.7273
3907	0.7235
3916	0.7213
3925	0.7195
3934	0.7176
3943	0.7158
3952	0.7139
3961	0.7121
3970	0.7103
3979	0.7085
3988	0.7067
3997	0.7055
