Infrared Spectrum: ESTRADIOL MONOBENZOATE
Formula: C52 H60 O6
State: SOLUTION (1.9% IN CS2)
Melting point: 195-197 C (CORR.)
Class: COBLENTZ
Instrument: Not specified, most likely a prism, grating, or hybrid spectrometer.
Sampling: TRANSMISSION
Path length: 0.1 CM
Resolution: 4
Origin: DEPARTMENT OF PHARMACOLOGY, THE STATE UNIVERSITY OF IOWA, IOWA
MICROMETERS	TRANSMITTANCE
2.031	0.636
2.06828	0.637
2.10556	0.634
2.14285	0.636
2.18013	0.636
2.21741	0.634
2.25469	0.633
2.29198	0.63
2.32926	0.628
2.36654	0.627
2.40382	0.627
2.44111	0.627
2.47839	0.628
2.51567	0.63
2.55295	0.63
2.59024	0.631
2.62752	0.63
2.6648	0.627
2.70208	0.6
2.73937	0.479
2.77665	0.52
2.81393	0.553
2.85121	0.572
2.8885	0.585
2.92578	0.596
2.96306	0.6
3.00034	0.605
3.03763	0.607
3.07491	0.61
3.11219	0.616
3.14947	0.616
3.18675	0.603
3.22404	0.551
3.26132	0.528
3.2986	0.52
3.33588	0.344
3.37317	0.13
3.41045	0.158
3.44773	0.17
3.48501	0.223
3.5223	0.397
3.55958	0.539
3.59686	0.56
3.63414	0.579
3.67143	0.599
3.70871	0.606
3.74599	0.609
3.78327	0.612
3.82056	0.615
3.85784	0.618
3.89512	0.622
3.9324	0.625
3.96969	0.628
4.00697	0.633
4.04425	0.633
4.08153	0.636
4.11882	0.636
4.1561	0.636
4.19338	0.636
4.23066	0.636
4.26794	0.636
4.30523	0.637
4.34251	0.636
4.37979	0.637
4.41707	0.637
4.45436	0.64
4.49164	0.642
4.52892	0.64
4.5662	0.64
4.60349	0.64
4.64077	0.642
4.67805	0.642
4.71533	0.639
4.75262	0.639
4.7899	0.639
4.82718	0.64
4.86446	0.64
4.90175	0.643
4.93903	0.646
4.97631	0.647
5.01359	0.643
5.05088	0.64
5.08816	0.633
5.12544	0.634
5.16272	0.636
5.20001	0.633
5.23729	0.631
5.27457	0.63
5.31185	0.628
5.34913	0.634
5.38642	0.642
5.4237	0.631
5.46098	0.609
5.49826	0.606
5.53555	0.605
5.57283	0.596
5.61011	0.562
5.64739	0.52
5.68468	0.415
5.72196	0.048
5.75924	0.085
5.79652	0.285
5.83381	0.409
5.87109	0.445
5.90837	0.5
5.94565	0.528
5.98294	0.55
6.02022	0.559
6.0575	0.556
6.09478	0.553
6.13207	0.55
6.16935	0.55
6.20663	0.55
6.24391	0.548
6.2812	0.548
6.31848	0.547
6.35576	0.544
6.39304	0.544
6.43032	0.542
6.46761	0.542
6.50489	0.542
6.54217	0.542
6.57945	0.541
6.61674	0.539
6.65402	0.539
6.6913	0.538
6.72858	0.539
6.76587	0.539
6.80315	0.538
6.84043	0.538
6.87771	0.536
6.915	0.536
6.95228	0.535
6.98956	0.534
7.02684	0.531
7.06413	0.531
7.10141	0.529
7.13869	0.529
7.17597	0.52
7.21326	0.494
7.25054	0.46
7.28782	0.445
7.3251	0.446
7.36239	0.457
7.39967	0.465
7.43695	0.463
7.47423	0.449
7.51151	0.428
7.5488	0.423
7.58608	0.394
7.62336	0.328
7.66064	0.31
7.69793	0.31
7.73521	0.304
7.77249	0.278
7.80977	0.217
7.84706	0.149
7.88434	0.091
7.92162	0.045
7.9589	0.02
7.99619	0.01
8.03347	0.008
8.07075	0.023
8.10803	0.057
8.14532	0.06
8.1826	0.032
8.21988	0.014
8.25716	0.014
8.29445	0.082
8.33173	0.177
8.36901	0.254
8.40629	0.331
8.44357	0.369
8.48086	0.366
8.51814	0.248
8.55542	0.13
8.5927	0.26
8.62999	0.281
8.66727	0.269
8.70455	0.144
8.74183	0.143
8.77912	0.189
8.8164	0.207
8.85368	0.208
8.89096	0.215
8.92825	0.269
8.96553	0.286
9.00281	0.288
9.04009	0.285
9.07738	0.281
9.11466	0.272
9.15194	0.329
9.18922	0.356
9.22651	0.286
9.26379	0.11
9.30107	0.09
9.33835	0.094
9.37564	0.103
9.41292	0.075
9.4502	0.051
9.48748	0.051
9.52476	0.085
9.56205	0.127
9.59933	0.174
9.63661	0.264
9.67389	0.307
9.71118	0.328
9.74846	0.236
9.78574	0.105
9.82302	0.202
9.86031	0.244
9.89759	0.275
9.93487	0.292
9.97215	0.306
10.0094	0.346
10.0467	0.39
10.084	0.436
10.1213	0.47
10.1586	0.488
10.1958	0.508
10.2331	0.517
10.2704	0.522
10.3077	0.526
10.345	0.529
10.3823	0.526
10.4195	0.511
10.4568	0.525
10.4941	0.534
10.5314	0.539
10.5687	0.541
10.606	0.542
10.6432	0.542
10.6805	0.539
10.7178	0.525
10.7551	0.507
10.7924	0.498
10.8296	0.48
10.8669	0.485
10.9042	0.492
10.9415	0.471
10.9788	0.455
11.0161	0.473
11.0533	0.474
11.0906	0.46
11.1279	0.443
11.1652	0.427
11.2025	0.316
11.2398	0.295
11.277	0.294
11.3143	0.315
11.3516	0.362
11.3889	0.402
11.4262	0.43
11.4635	0.455
11.5007	0.471
11.538	0.48
11.5753	0.485
11.6126	0.488
11.6499	0.489
11.6871	0.492
11.7244	0.494
11.7617	0.495
11.799	0.498
11.8363	0.507
11.8736	0.516
11.9108	0.52
11.9481	0.523
11.9854	0.528
12.0227	0.532
12.06	0.541
12.0973	0.541
12.1345	0.541
12.1718	0.539
12.2091	0.523
12.2464	0.494
12.2837	0.451
12.3209	0.446
12.3582	0.479
12.3955	0.513
12.4328	0.547
12.4701	0.563
12.5074	0.563
12.5446	0.553
12.5819	0.559
12.6192	0.562
12.6565	0.556
12.6938	0.535
12.7311	0.5
12.7683	0.463
12.8056	0.464
12.8429	0.47
12.8802	0.5
12.9175	0.536
12.9547	0.562
12.992	0.576
13.0293	0.599
13.0666	0.612
13.1039	0.624
13.1412	0.633
13.1784	0.636
13.2157	0.637
13.253	0.639
13.2903	0.639
13.3276	0.634
13.3649	0.628
13.4021	0.622
13.4394	0.605
13.4767	0.597
13.514	0.562
13.5513	0.553
13.5885	0.548
13.6258	0.554
13.6631	0.573
13.7004	0.588
13.7377	0.591
13.775	0.597
13.8122	0.6
13.8495	0.602
13.8868	0.602
13.9241	0.591
13.9614	0.568
13.9987	0.517
14.0359	0.439
14.0732	0.35
14.1105	0.193
14.1478	0.125
14.1851	0.073
14.2223	0.056
14.2596	0.054
14.2969	0.105
14.3342	0.21
14.3715	0.332
14.4088	0.392
14.446	0.423
14.4833	0.445
14.5206	0.47
14.5579	0.468
14.5952	0.455
14.6325	0.437
14.6697	0.43
14.707	0.437
14.7443	0.465
14.7816	0.468
14.8189	0.47
14.8561	0.473
14.8934	0.5
14.9307	0.51
14.968	0.52
15.0053	0.569
15.0426	0.605
15.0798	0.615
15.1171	0.619
15.1544	0.624
15.1917	0.627
15.229	0.63
