Infrared Spectrum: ANILINE, 3-METHYL-, HYDROCHLORIDE
Formula: C7 H10 Cl N
State: SOLID (SPLIT MULL), FLUOROLUBE FOR 3800-1330 CM^-^1, NUJOL FOR 1330-450 CM^-^1
Class: COBLENTZ III
Instrument: DOW KBr FOREPRISM-GRATING
Instrument parameters: BLAZED AT 3.5, 12.0, 20.0 MICRON AND CHANGED AT 5.0, 7.5, 14.9 MICRON
Sampling: TRANSMISSION
Resolution: 2
Origin: DOW CHEMICAL COMPANY
1/CM	TRANSMITTANCE
452.877	0.852
461.275	0.86
469.673	0.867
478.071	0.873
486.47	0.877
494.868	0.883
503.266	0.886
511.664	0.886
520.062	0.867
528.46	0.829
536.859	0.871
545.257	0.8579
553.655	0.903
562.053	0.913
570.451	0.918
578.849	0.924
587.247	0.921
595.646	0.925
604.044	0.93
612.442	0.931
620.84	0.932
629.238	0.932
637.636	0.932
646.035	0.932
654.433	0.931
662.831	0.927
671.229	0.916
679.627	0.361
688.025	0.895
696.423	0.905
704.822	0.899
713.22	0.87
721.618	0.813
730.016	0.82
738.414	0.873
746.812	0.887
755.211	0.871
763.609	0.5371
772.007	0.839
780.405	0.883
788.803	0.897
797.201	0.902
805.599	0.903
813.998	0.905
822.396	0.903
830.794	0.905
839.192	0.903
847.59	0.902
855.988	0.902
864.386	0.813
872.785	0.897
881.183	0.893
889.581	0.884
897.979	0.897
906.377	0.892
914.775	0.865
923.174	0.895
931.572	0.89
939.97	0.89
948.368	0.887
956.766	0.88
965.164	0.879
973.562	0.881
981.961	0.881
990.359	0.881
998.757	0.876
1007.16	0.874
1015.55	0.871
1023.95	0.87
1032.35	0.867
1040.75	0.846
1049.15	0.848
1057.54	0.861
1065.94	0.855
1074.34	0.848
1082.74	0.857
1091.14	0.854
1099.53	0.835
1107.93	0.848
1116.33	0.841
1124.73	0.814
1133.13	0.827
1141.53	0.849
1149.92	0.849
1158.32	0.857
1166.72	0.86
1175.12	0.871
1183.52	0.879
1191.91	0.886
1200.31	0.892
1208.71	0.887
1217.11	0.887
1225.51	0.89
1233.91	0.886
1242.3	0.871
1250.7	0.816
1259.1	0.849
1267.5	0.845
1275.9	0.851
1284.29	0.845
1292.69	0.83
1301.09	0.825
1309.49	0.823
1317.89	0.833
1326.28	0.833
1334.68	0.817
1343.08	0.797
1351.48	0.832
1359.88	0.889
1368.28	0.895
1376.67	0.889
1385.07	0.851
1393.47	0.89
1401.87	0.89
1410.27	0.887
1418.66	0.879
1427.06	0.876
1435.46	0.871
1443.86	0.879
1452.26	0.87
1460.66	0.858
1469.05	0.858
1477.45	0.862
1485.85	0.803
1494.25	0.723
1502.65	0.807
1511.04	0.822
1519.44	0.782
1527.84	0.724
1536.24	0.562
1544.64	0.25
1553.04	0.4999
1561.43	0.723
1569.83	0.74
1578.23	0.741
1586.63	0.87
1595.03	0.893
1603.42	0.76
1611.82	0.947
1620.22	0.965
1628.62	0.954
1637.02	0.978
1645.41	0.982
1653.81	0.985
1662.21	0.986
1670.61	0.994
1679.01	0.998
1687.41	0.995
1695.8	0.998
1704.2	0.998
1712.6	0.994
1721	0.976
1729.4	0.979
1737.79	0.978
1746.19	0.978
1754.59	0.967
1762.99	0.967
1771.39	0.967
1779.79	0.954
1788.18	0.96
1796.58	0.962
1804.98	0.963
1813.38	0.962
1821.78	0.963
1830.17	0.963
1838.57	0.962
1846.97	0.963
1855.37	0.954
1863.77	0.96
1872.16	0.966
1880.56	0.966
1888.96	0.966
1897.36	0.963
1905.76	0.965
1914.16	0.965
1922.55	0.966
1930.95	0.96
1939.35	0.966
1947.75	0.975
1956.15	0.973
1964.54	0.966
1972.94	0.969
1981.34	0.967
1989.74	0.967
1998.14	0.944
2006.54	0.9805
2014.93	0.997
2023.33	1.0005
2031.73	1
2040.13	0.9974
2048.53	0.9889
2056.92	0.985
2065.32	0.9819
2073.72	0.9842
2082.12	0.988
2090.52	0.986
2098.91	0.9847
2107.31	0.982
2115.71	0.979
2124.11	0.976
2132.51	0.9728
2140.91	0.9676
2149.3	0.962
2157.7	0.9593
2166.1	0.957
2174.5	0.957
2182.9	0.9538
2191.29	0.9502
2199.69	0.947
2208.09	0.9445
2216.49	0.9407
2224.89	0.937
2233.29	0.9334
2241.68	0.9224
2250.08	0.916
2258.48	0.9112
2266.88	0.9043
2275.28	0.902
2283.67	0.9013
2292.07	0.899
2300.47	0.8942
2308.87	0.892
2317.27	0.8896
2325.67	0.8861
2334.06	0.881
2342.46	0.8791
2350.86	0.8765
2359.26	0.873
2367.66	0.8705
2376.05	0.868
2384.45	0.8645
2392.85	0.861
2401.25	0.853
2409.65	0.849
2418.04	0.845
2426.44	0.8388
2434.84	0.8339
2443.24	0.8318
2451.64	0.8264
2460.04	0.8167
2468.43	0.8104
2476.83	0.804
2485.23	0.7944
2493.63	0.7836
2502.03	0.776
2510.42	0.7617
2518.82	0.7493
2527.22	0.7326
2535.62	0.7191
2544.02	0.6939
2552.42	0.6688
2560.81	0.6433
2569.21	0.619
2577.61	0.5729
2586.01	0.5419
2594.41	0.5133
2602.8	0.5309
2611.2	0.5517
2619.6	0.5482
2628	0.5434
2636.4	0.5298
2644.79	0.5945
2653.19	0.66
2661.59	0.685
2669.99	0.6956
2678.39	0.6942
2686.79	0.6823
2695.18	0.6624
2703.58	0.6482
2711.98	0.6357
2720.38	0.6192
2728.78	0.6046
2737.17	0.5911
2745.57	0.5715
2753.97	0.5581
2762.37	0.5455
2770.77	0.524
2779.17	0.5035
2787.56	0.4749
2795.96	0.4608
2804.36	0.4376
2812.76	0.412
2821.16	0.3918
2829.55	0.3782
2837.95	0.3667
2846.35	0.354
2854.75	0.345
2863.15	0.3446
2871.55	0.348
2879.94	0.352
2888.34	0.357
2896.74	0.3617
2905.14	0.3684
2913.54	0.3754
2921.93	0.3846
2930.33	0.402
2938.73	0.4159
2947.13	0.4309
2955.53	0.444
2963.92	0.4628
2972.32	0.488
2980.72	0.5057
2989.12	0.529
2997.52	0.5568
3005.92	0.5783
3014.31	0.6014
3022.71	0.621
3031.11	0.6508
3039.51	0.6641
3047.91	0.6929
3056.3	0.7059
3064.7	0.717
3073.1	0.711
3081.5	0.709
3089.9	0.7184
3098.3	0.7496
3106.69	0.7959
3115.09	0.8257
3123.49	0.8483
3131.89	0.8678
3140.29	0.8865
3148.68	0.892
3157.08	0.9046
3165.48	0.916
3173.88	0.9277
3182.28	0.94
3190.67	0.9471
3199.07	0.9561
3207.47	0.9626
3215.87	0.965
3224.27	0.965
3232.67	0.966
3241.06	0.966
3249.46	0.966
3257.86	0.966
3266.26	0.9658
3274.66	0.965
3283.05	0.9628
3291.45	0.96
3299.85	0.957
3308.25	0.956
3316.65	0.954
3325.05	0.9503
3333.44	0.9468
3341.84	0.9415
3350.24	0.941
3358.64	0.94
3367.04	0.938
3375.43	0.937
3383.83	0.935
3392.23	0.934
3400.63	0.932
3409.03	0.931
3417.42	0.9293
3425.82	0.927
3434.22	0.9246
3442.62	0.922
3451.02	0.919
3459.42	0.919
3467.81	0.919
3476.21	0.918
3484.61	0.918
3493.01	0.918
3501.41	0.918
3509.8	0.918
3518.2	0.916
3526.6	0.916
3535	0.915
3543.4	0.913
3551.8	0.9125
3560.19	0.912
3568.59	0.911
3576.99	0.9109
3585.39	0.909
3593.79	0.908
3602.18	0.906
3610.58	0.905
3618.98	0.903
3627.38	0.902
3635.78	0.9
3644.18	0.8987
3652.57	0.8963
3660.97	0.895
3669.37	0.8923
3677.77	0.8898
3686.17	0.889
3694.56	0.889
3702.96	0.889
3711.36	0.887
3719.76	0.884
3728.16	0.883
3736.55	0.881
3744.95	0.8797
3753.35	0.877
3761.75	0.876
3770.15	0.873
3778.55	0.871
3786.94	0.87
3795.34	0.868
3803.74	0.868
