Infrared Spectrum: (3-METHYL-1-BUTEN-2-YL) HYDANTOIN
Formula: C8 H12 N2 O2
State: SOLID (KBr PELLET)
Class: COBLENTZ
Instrument: PERKIN-ELMER
Sampling: TRANSMISSION
Resolution: 4
Origin: ABBOTT LABORATORIES - WASHBURN
MICROMETERS	TRANSMITTANCE
2.033	0.709
2.06688	0.709
2.10075	0.7146
2.13463	0.722
2.1685	0.729
2.20238	0.726
2.23625	0.731
2.27013	0.7341
2.304	0.742
2.33788	0.734
2.37175	0.7342
2.40563	0.7413
2.4395	0.749
2.47338	0.744
2.50725	0.7421
2.54113	0.752
2.575	0.756
2.60888	0.747
2.64275	0.7492
2.67663	0.7572
2.7105	0.764
2.74438	0.7589
2.77825	0.757
2.81213	0.7469
2.846	0.724
2.87988	0.69
2.91375	0.6579
2.94763	0.6325
2.9815	0.6042
3.01538	0.5637
3.04925	0.4942
3.08313	0.3771
3.117	0.247
3.15088	0.1761
3.18475	0.1488
3.21863	0.1599
3.2525	0.2204
3.28638	0.2308
3.32025	0.2236
3.35413	0.3173
3.388	0.336
3.42188	0.3218
3.45575	0.414
3.48963	0.4735
3.5235	0.4792
3.55738	0.5322
3.59125	0.5512
3.62513	0.574
3.659	0.566
3.69288	0.5958
3.72675	0.6613
3.76063	0.7077
3.7945	0.7395
3.82838	0.757
3.86225	0.759
3.89613	0.7591
3.93	0.768
3.96388	0.769
3.99775	0.7657
4.03163	0.7642
4.0655	0.7694
4.09938	0.7689
4.13325	0.769
4.16713	0.7679
4.201	0.764
4.23488	0.768
4.26875	0.7731
4.30263	0.781
4.3365	0.7832
4.37038	0.7911
4.40425	0.793
4.43813	0.794
4.472	0.793
4.50588	0.793
4.53975	0.788
4.57363	0.788
4.6075	0.7859
4.64138	0.7789
4.67525	0.779
4.70913	0.781
4.74301	0.781
4.77688	0.784
4.81076	0.7808
4.84463	0.7687
4.87851	0.764
4.91238	0.761
4.94626	0.763
4.98013	0.768
5.01401	0.771
5.04788	0.766
5.08176	0.768
5.11563	0.768
5.14951	0.761
5.18338	0.763
5.21726	0.761
5.25113	0.7545
5.28501	0.7428
5.31888	0.7118
5.35276	0.6961
5.38663	0.6818
5.42051	0.6517
5.45438	0.6046
5.48826	0.5143
5.52213	0.4193
5.55601	0.1981
5.58988	0.0781
5.62376	0.0237
5.65763	0.075
5.69151	0.186
5.72538	0.1215
5.75926	0.1419
5.79313	0.1049
5.82701	0.0242
5.86088	0.0894
5.89476	0.2584
5.92863	0.2846
5.96251	0.3618
5.99638	0.1367
6.03026	0.08
6.06413	0.2022
6.09801	0.3857
6.13188	0.4587
6.16576	0.5226
6.19963	0.5539
6.23351	0.5708
6.26738	0.5899
6.30126	0.6167
6.33513	0.6264
6.36901	0.6354
6.40288	0.642
6.43676	0.647
6.47063	0.6551
6.50451	0.6579
6.53838	0.662
6.57226	0.663
6.60613	0.67
6.64001	0.665
6.67388	0.67
6.70776	0.6656
6.74163	0.6499
6.77551	0.6039
6.80938	0.4717
6.84326	0.4255
6.87713	0.4572
6.91101	0.5028
6.94488	0.517
6.97876	0.4909
7.01263	0.3805
7.04651	0.2744
7.08038	0.2123
7.11426	0.1858
7.14813	0.1722
7.18201	0.1573
7.21588	0.2226
7.24976	0.2714
7.28363	0.2712
7.31751	0.3429
7.35138	0.392
7.38526	0.4837
7.41914	0.5197
7.45301	0.5395
7.48689	0.5389
7.52076	0.5069
7.55464	0.539
7.58851	0.4829
7.62239	0.3489
7.65626	0.25
7.69014	0.2789
7.72401	0.3383
7.75789	0.4393
7.79176	0.5258
7.82564	0.5668
7.85951	0.6035
7.89339	0.6229
7.92726	0.6498
7.96114	0.6649
7.99501	0.6862
8.02889	0.694
8.06276	0.6763
8.09664	0.5771
8.13051	0.4546
8.16439	0.4241
8.19826	0.5042
8.23214	0.5575
8.26601	0.6027
8.29989	0.6267
8.33376	0.6424
8.36764	0.6597
8.40151	0.677
8.43539	0.6875
8.46926	0.6958
8.50314	0.7054
8.53701	0.6982
8.57089	0.6499
8.60476	0.62
8.63864	0.6579
8.67251	0.6939
8.70639	0.705
8.74026	0.709
8.77414	0.707
8.80801	0.6791
8.84189	0.6211
8.87576	0.5367
8.90964	0.5069
8.94351	0.5918
8.97739	0.6266
9.01126	0.6451
9.04514	0.6062
9.07901	0.5178
9.11289	0.3565
9.14676	0.2885
9.18064	0.3066
9.21451	0.4462
9.24839	0.5469
9.28226	0.6077
9.31614	0.6472
9.35001	0.673
9.38389	0.69
9.41776	0.7
9.45164	0.7066
9.48551	0.71
9.51939	0.712
9.55326	0.71
9.58714	0.7013
9.62101	0.6548
9.65489	0.5477
9.68876	0.475
9.72264	0.5134
9.75651	0.5683
9.79039	0.601
9.82426	0.6057
9.85814	0.6007
9.89201	0.6066
9.92589	0.6376
9.95976	0.6707
9.99364	0.6904
10.0275	0.7143
10.0614	0.727
10.0953	0.734
10.1291	0.7438
10.163	0.7486
10.1969	0.752
10.2308	0.7568
10.2646	0.759
10.2985	0.761
10.3324	0.757
10.3663	0.7593
10.4001	0.7612
10.434	0.7619
10.4679	0.7564
10.5018	0.7563
10.5356	0.761
10.5695	0.7654
10.6034	0.769
10.6373	0.7654
10.6711	0.768
10.705	0.764
10.7389	0.7609
10.7728	0.7488
10.8066	0.737
10.8405	0.7419
10.8744	0.7456
10.9083	0.737
10.9421	0.7406
10.976	0.756
11.0099	0.7637
11.0438	0.769
11.0776	0.768
11.1115	0.7677
11.1454	0.776
11.1793	0.7702
11.2131	0.7673
11.247	0.766
11.2809	0.768
11.3148	0.763
11.3486	0.766
11.3825	0.764
11.4164	0.763
11.4503	0.761
11.4841	0.7609
11.518	0.7539
11.5519	0.746
11.5858	0.739
11.6196	0.7228
11.6535	0.6882
11.6874	0.6222
11.7213	0.5483
11.7551	0.552
11.789	0.5973
11.8229	0.6412
11.8568	0.6772
11.8906	0.6981
11.9245	0.709
11.9584	0.712
11.9923	0.714
12.0261	0.7097
12.06	0.7136
12.0939	0.7087
12.1278	0.7037
12.1616	0.6968
12.1955	0.6918
12.2294	0.6848
12.2633	0.675
12.2971	0.6653
12.331	0.6597
12.3649	0.6472
12.3988	0.6316
12.4326	0.6173
12.4665	0.606
12.5004	0.5955
12.5343	0.588
12.5681	0.572
12.602	0.5676
12.6359	0.563
12.6698	0.5636
12.7036	0.564
12.7375	0.5625
12.7714	0.5502
12.8053	0.5246
12.8391	0.4537
12.873	0.3306
12.9069	0.3382
12.9408	0.3979
12.9746	0.4209
13.0085	0.3986
13.0424	0.3407
13.0763	0.2703
13.1101	0.2897
13.144	0.3053
13.1779	0.2906
13.2118	0.3049
13.2456	0.3392
13.2795	0.3701
13.3134	0.3958
13.3473	0.3747
13.3811	0.3278
13.415	0.2814
13.4489	0.2772
13.4828	0.3018
13.5166	0.3372
13.5505	0.3771
13.5844	0.4142
13.6183	0.4422
13.6521	0.4669
13.686	0.478
13.7199	0.4937
13.7538	0.5119
13.7876	0.5208
13.8215	0.53
13.8554	0.5318
13.8893	0.5317
13.9231	0.536
13.957	0.532
13.9909	0.536
14.0248	0.534
14.0586	0.529
14.0925	0.522
14.1264	0.519
14.1603	0.5133
14.1941	0.502
14.228	0.4986
14.2619	0.4886
14.2958	0.4814
14.3296	0.475
14.3635	0.468
14.3974	0.468
14.4313	0.468
14.4651	0.468
14.499	0.4603
14.5329	0.4481
14.5668	0.44
14.6006	0.438
14.6345	0.4414
14.6684	0.4378
14.7023	0.442
14.7361	0.434
14.77	0.43
14.8039	0.4354
14.8378	0.442
14.8716	0.4436
14.9055	0.4523
14.9394	0.4522
14.9733	0.4557
15.0071	0.4732
15.041	0.4647
15.0749	0.4469
15.1088	0.431
15.1426	0.4059
15.1765	0.3693
15.2104	0.3135
15.2443	0.2733
15.2781	0.2454
15.312	0.2515
15.3459	0.2761
15.3798	0.3122
