Infrared Spectrum: ZINC SULFITE
Formula: Zn S O3  * 2 H2 O
State: SOLID (NUJOL MULL)
Class: COBLENTZ
Instrument: Not specified, most likely a prism, grating, or hybrid spectrometer.
Sampling: TRANSMISSION
Resolution: 4
Origin: MELLON INSTITUTE
MICROMETERS	TRANSMITTANCE
2.062	0.944
2.10193	0.951
2.14185	0.954
2.18178	0.961
2.22171	0.966
2.26164	0.961
2.30156	0.946
2.34149	0.946
2.38142	0.944
2.42134	0.944
2.46127	0.953
2.5012	0.961
2.54113	0.958
2.58105	0.953
2.62098	0.956
2.66091	0.951
2.70084	0.927
2.74076	0.876
2.78069	0.762
2.82062	0.572
2.86054	0.453
2.90047	0.415
2.9404	0.407
2.98033	0.398
3.02025	0.4
3.06018	0.375
3.10011	0.338
3.14003	0.324
3.17996	0.329
3.21989	0.405
3.25982	0.455
3.29974	0.475
3.33967	0.229
3.3796	0.083
3.41953	0.236
3.45945	0.237
3.49938	0.457
3.53931	0.797
3.57923	0.862
3.61916	0.889
3.65909	0.896
3.69902	0.901
3.73894	0.911
3.77887	0.917
3.8188	0.922
3.85872	0.927
3.89865	0.938
3.93858	0.943
3.97851	0.946
4.01843	0.949
4.05836	0.953
4.09829	0.953
4.13822	0.949
4.17814	0.946
4.21807	0.929
4.258	0.911
4.29792	0.902
4.33785	0.902
4.37778	0.906
4.41771	0.912
4.45763	0.911
4.49756	0.909
4.53749	0.906
4.57741	0.912
4.61734	0.916
4.65727	0.919
4.6972	0.921
4.73712	0.924
4.77705	0.929
4.81698	0.932
4.85691	0.934
4.89683	0.938
4.93676	0.938
4.97669	0.939
5.01661	0.941
5.05654	0.944
5.09647	0.948
5.1364	0.951
5.17632	0.951
5.21625	0.951
5.25618	0.956
5.2961	0.956
5.33603	0.954
5.37596	0.956
5.41589	0.954
5.45581	0.954
5.49574	0.953
5.53567	0.953
5.5756	0.953
5.61552	0.953
5.65545	0.951
5.69538	0.944
5.7353	0.943
5.77523	0.936
5.81516	0.926
5.85509	0.914
5.89501	0.902
5.93494	0.892
5.97487	0.855
6.01479	0.814
6.05472	0.773
6.09465	0.716
6.13458	0.718
6.1745	0.797
6.21443	0.842
6.25436	0.862
6.29429	0.867
6.33421	0.859
6.37414	0.859
6.41407	0.855
6.45399	0.862
6.49392	0.869
6.53385	0.864
6.57378	0.872
6.6137	0.876
6.65363	0.882
6.69356	0.876
6.73348	0.859
6.77341	0.8
6.81334	0.614
6.85327	0.561
6.89319	0.579
6.93312	0.666
6.97305	0.772
7.01298	0.85
7.0529	0.872
7.09283	0.897
7.13276	0.899
7.17268	0.867
7.21261	0.792
7.25254	0.73
7.29247	0.778
7.33239	0.84
7.37232	0.869
7.41225	0.882
7.45217	0.887
7.4921	0.899
7.53203	0.911
7.57196	0.912
7.61188	0.912
7.65181	0.912
7.69174	0.919
7.73167	0.916
7.77159	0.916
7.81152	0.921
7.85145	0.922
7.89137	0.919
7.9313	0.921
7.97123	0.924
8.01116	0.922
8.05108	0.919
8.09101	0.921
8.13094	0.917
8.17086	0.921
8.21079	0.927
8.25072	0.927
8.29065	0.919
8.33057	0.917
8.3705	0.911
8.41043	0.884
8.45036	0.871
8.49028	0.83
8.53021	0.798
8.57014	0.773
8.61006	0.762
8.64999	0.77
8.68992	0.8
8.72985	0.827
8.76977	0.839
8.8097	0.839
8.84963	0.83
8.88955	0.819
8.92948	0.785
8.96941	0.765
9.00934	0.75
9.04926	0.745
9.08919	0.742
9.12912	0.743
9.16905	0.747
9.20897	0.748
9.2489	0.75
9.28883	0.755
9.32875	0.758
9.36868	0.76
9.40861	0.76
9.44854	0.753
9.48846	0.747
9.52839	0.738
9.56832	0.731
9.60824	0.703
9.64817	0.658
9.6881	0.582
9.72803	0.504
9.76795	0.442
9.80788	0.432
9.84781	0.438
9.88774	0.452
9.92766	0.472
9.96759	0.489
10.0075	0.509
10.0474	0.52
10.0874	0.534
10.1273	0.537
10.1672	0.536
10.2072	0.527
10.2471	0.514
10.287	0.499
10.3269	0.48
10.3669	0.455
10.4068	0.442
10.4467	0.433
10.4866	0.43
10.5266	0.425
10.5665	0.425
10.6064	0.428
10.6464	0.432
10.6863	0.44
10.7262	0.448
10.7661	0.448
10.8061	0.445
10.846	0.443
10.8859	0.437
10.9258	0.433
10.9658	0.432
11.0057	0.432
11.0456	0.432
11.0856	0.43
11.1255	0.43
11.1654	0.428
11.2053	0.423
11.2453	0.418
11.2852	0.412
11.3251	0.402
11.365	0.396
11.405	0.385
11.4449	0.375
11.4848	0.368
11.5248	0.356
11.5647	0.353
11.6046	0.351
11.6445	0.346
11.6845	0.345
11.7244	0.346
11.7643	0.348
11.8042	0.36
11.8442	0.37
11.8841	0.38
11.924	0.388
11.964	0.398
12.0039	0.413
12.0438	0.427
12.0837	0.438
12.1237	0.45
12.1636	0.458
12.2035	0.47
12.2434	0.495
12.2834	0.515
12.3233	0.524
12.3632	0.53
12.4032	0.551
12.4431	0.571
12.483	0.579
12.5229	0.584
12.5629	0.599
12.6028	0.618
12.6427	0.626
12.6826	0.634
12.7226	0.638
12.7625	0.649
12.8024	0.656
12.8423	0.663
12.8823	0.673
12.9222	0.676
12.9621	0.683
13.0021	0.695
13.042	0.683
13.0819	0.685
13.1218	0.7
13.1618	0.69
13.2017	0.69
13.2416	0.69
13.2815	0.673
13.3215	0.676
13.3614	0.685
13.4013	0.671
13.4413	0.666
13.4812	0.671
13.5211	0.664
13.561	0.661
13.601	0.656
13.6409	0.651
13.6808	0.648
13.7207	0.648
13.7607	0.643
13.8006	0.643
13.8405	0.639
13.8805	0.638
13.9204	0.639
13.9603	0.638
14.0002	0.639
14.0402	0.641
14.0801	0.639
14.12	0.639
14.1599	0.638
14.1999	0.636
14.2398	0.633
14.2797	0.629
14.3197	0.624
14.3596	0.616
14.3995	0.611
14.4394	0.608
14.4794	0.604
14.5193	0.603
14.5592	0.599
14.5991	0.596
14.6391	0.592
14.679	0.587
14.7189	0.582
14.7589	0.581
14.7988	0.579
14.8387	0.577
14.8786	0.572
14.9186	0.567
14.9585	0.562
14.9984	0.556
15.0383	0.549
15.0783	0.542
15.1182	0.539
15.1581	0.536
15.1981	0.534
15.238	0.529
15.2779	0.522
15.3178	0.522
15.3578	0.519
15.3977	0.519
15.4376	0.519
15.4775	0.52
15.5175	0.519
15.5574	0.522
15.5973	0.522
15.6373	0.524
15.6772	0.527
15.7171	0.529
15.757	0.53
15.797	0.53
15.8369	0.534
15.8768	0.541
15.9167	0.544
15.9567	0.551
15.9966	0.552
