Infrared Spectrum: Formic acid, (phenylazo)thio-, 2-phenylhydrazide, Ni-complex
Formula: C26 H22 N8 Ni S2
State: SOLID (SPLIT MULL), FLUOROLUBE FOR 3800-1330 CM^-^1, NUJOL FOR 1330-400 CM^-^1
Class: COBLENTZ III
Instrument: DOW KBr FOREPRISM-GRATING
Instrument parameters: BLAZED AT 3.5, 12.0, 20.0 MICRON AND CHANGED AT 5.0, 7.5, 14.9 MICRON
Sampling: TRANSMISSION
Resolution: 2
Origin: DOW CHEMICAL COMPANY
1/CM	TRANSMITTANCE
382	0.8421
391	0.8485
400	0.8525
409	0.8528
418	0.846
427	0.8051
436	0.8706
445	0.867
454	0.8608
463	0.854
472	0.8438
481	0.823
490	0.6924
499	0.6208
508	0.8015
517	0.7291
526	0.6926
535	0.8217
544	0.7551
553	0.8618
562	0.8662
571	0.8632
580	0.85
589	0.8297
598	0.8235
607	0.859
616	0.855
625	0.8858
634	0.8954
643	0.8965
652	0.8927
661	0.8857
670	0.8614
679	0.8111
688	0.527
697	0.8373
706	0.8596
715	0.8171
724	0.7637
733	0.6972
742	0.7665
751	0.5821
760	0.7262
769	0.838
778	0.8474
787	0.8277
796	0.8589
805	0.859
814	0.8428
823	0.8387
832	0.8344
841	0.8324
850	0.8473
859	0.8212
868	0.8367
877	0.8331
886	0.8072
895	0.8051
904	0.7907
913	0.7801
922	0.7891
931	0.7735
940	0.7078
949	0.8011
958	0.7821
967	0.7957
976	0.7853
985	0.7784
994	0.7571
1003	0.7568
1012	0.7674
1021	0.7474
1030	0.7092
1039	0.7093
1048	0.7435
1057	0.7499
1066	0.7087
1075	0.5957
1084	0.6999
1093	0.6588
1102	0.5651
1111	0.5954
1120	0.6964
1129	0.7099
1138	0.7075
1147	0.7044
1156	0.6965
1165	0.6878
1174	0.5236
1183	0.5952
1192	0.537
1201	0.5044
1210	0.3682
1219	0.1414
1228	0.0264
1237	0.0524
1246	0.3782
1255	0.4977
1264	0.5978
1273	0.6129
1282	0.5351
1291	0.4794
1300	0.631
1309	0.5512
1318	0.5588
1327	0.3391
1336	0.1134
1345	0.4776
1354	0.7633
1363	0.8017
1372	0.8283
1381	0.8597
1390	0.8616
1399	0.8733
1408	0.8748
1417	0.8683
1426	0.854
1435	0.7882
1444	0.8268
1453	0.6198
1462	0.7947
1471	0.6515
1480	0.7161
1489	0.6546
1498	0.5546
1507	0.7417
1516	0.6262
1525	0.2856
1534	0.1522
1543	0.7537
1552	0.8485
1561	0.862
1570	0.8455
1579	0.7971
1588	0.6465
1597	0.3366
1606	0.7933
1615	0.8875
1624	0.8864
1633	0.8717
1642	0.8537
1651	0.8492
1660	0.8559
1669	0.8627
1678	0.8685
1687	0.8732
1696	0.8758
1705	0.8765
1714	0.8804
1723	0.884
1732	0.8865
1741	0.8871
1750	0.8873
1759	0.8837
1768	0.8746
1777	0.8765
1786	0.8814
1795	0.8827
1804	0.882
1813	0.8799
1822	0.8775
1831	0.8743
1840	0.8693
1849	0.8692
1858	0.8659
1867	0.8652
1876	0.8658
1885	0.8652
1894	0.8625
1903	0.8584
1912	0.8555
1921	0.857
1930	0.8485
1939	0.8433
1948	0.8464
1957	0.8399
1966	0.834
1975	0.8432
1984	0.8445
1993	0.8351
2002	0.8459
2011	0.8425
2020	0.8387
2029	0.8356
2038	0.8315
2047	0.8275
2056	0.8225
2065	0.8176
2074	0.8148
2083	0.8119
2092	0.8092
2101	0.8065
2110	0.8038
2119	0.801
2128	0.798
2137	0.7948
2146	0.7917
2155	0.7884
2164	0.7851
2173	0.7811
2182	0.7769
2191	0.7733
2200	0.7701
2209	0.7669
2218	0.7639
2227	0.7601
2236	0.7562
2245	0.7525
2254	0.7488
2263	0.7449
2272	0.741
2281	0.7381
2290	0.7357
2299	0.7281
2308	0.7181
2317	0.7165
2326	0.7154
2335	0.7132
2344	0.7118
2353	0.7121
2362	0.7118
2371	0.7107
2380	0.708
2389	0.7051
2398	0.7025
2407	0.7
2416	0.6975
2425	0.6949
2434	0.6925
2443	0.6906
2452	0.6911
2461	0.691
2470	0.6901
2479	0.6891
2488	0.6867
2497	0.6833
2506	0.6799
2515	0.6761
2524	0.6722
2533	0.6684
2542	0.6647
2551	0.661
2560	0.6572
2569	0.6541
2578	0.6511
2587	0.6481
2596	0.6451
2605	0.6419
2614	0.6391
2623	0.636
2632	0.6331
2641	0.6301
2650	0.6271
2659	0.6241
2668	0.6205
2677	0.6168
2686	0.6131
2695	0.6095
2704	0.6065
2713	0.6034
2722	0.6016
2731	0.6007
2740	0.5985
2749	0.595
2758	0.591
2767	0.5874
2776	0.5838
2785	0.5802
2794	0.577
2803	0.5737
2812	0.5706
2821	0.5673
2830	0.5642
2839	0.561
2848	0.558
2857	0.5548
2866	0.5518
2875	0.549
2884	0.5462
2893	0.5433
2902	0.5406
2911	0.538
2920	0.5354
2929	0.5328
2938	0.5303
2947	0.5278
2956	0.5253
2965	0.5227
2974	0.519
2983	0.5144
2992	0.5092
3001	0.5041
3010	0.4992
3019	0.4936
3028	0.4869
3037	0.4768
3046	0.4579
3055	0.4642
3064	0.45
3073	0.4853
3082	0.4832
3091	0.4797
3100	0.4818
3109	0.4831
3118	0.4812
3127	0.4778
3136	0.4748
3145	0.4718
3154	0.4687
3163	0.4655
3172	0.4622
3181	0.4589
3190	0.455
3199	0.4506
3208	0.4462
3217	0.4402
3226	0.4336
3235	0.4202
3244	0.3854
3253	0.3273
3262	0.4475
3271	0.4494
3280	0.4473
3289	0.4451
3298	0.4432
3307	0.4415
3316	0.4397
3325	0.4381
3334	0.4366
3343	0.435
3352	0.4337
3361	0.4322
3370	0.4307
3379	0.429
3388	0.4274
3397	0.4256
3406	0.4237
3415	0.4217
3424	0.4198
3433	0.4178
3442	0.4156
3451	0.4132
3460	0.4109
3469	0.4084
3478	0.4062
3487	0.4042
3496	0.4021
3505	0.4
3514	0.3979
3523	0.3956
3532	0.3927
3541	0.3898
3550	0.3868
3559	0.384
3568	0.3814
3577	0.3793
3586	0.3771
3595	0.3749
3604	0.3727
3613	0.3709
3622	0.3694
3631	0.3678
3640	0.3662
3649	0.3646
3658	0.363
3667	0.3614
3676	0.3599
3685	0.3582
3694	0.3568
3703	0.3552
3712	0.3536
3721	0.3518
3730	0.3503
3739	0.3486
3748	0.3468
3757	0.3452
3766	0.3434
3775	0.3416
3784	0.3399
3793	0.338
