Infrared Spectrum: P-PHENYLAZO CARBANILIC ACID, CITRONELLOL ESTER
Formula: C23 H29 N3 O2
State: SOLID (1.5 mg / 100 mg KBr)
Melting point: 75.5 C (SHARP)
Class: COBLENTZ
Instrument: Not specified, most likely a grating spectrometer.
Sampling: TRANSMISSION
Resolution: 4
Origin: CITRUS EXPERIMENT STATION, UNIVERSITY OF FLORIDA (G. EDWARDS)
MICROMETERS	TRANSMITTANCE
2.013	0.575
2.04619	0.582
2.07938	0.586
2.11258	0.59
2.14577	0.595
2.17896	0.597
2.21215	0.597
2.24535	0.607
2.27854	0.609
2.31173	0.617
2.34492	0.625
2.37812	0.627
2.41131	0.631
2.4445	0.64
2.47769	0.646
2.51089	0.652
2.54408	0.655
2.57727	0.66
2.61046	0.67
2.64366	0.676
2.67685	0.679
2.71004	0.678
2.74323	0.68
2.77642	0.683
2.80962	0.69
2.84281	0.692
2.876	0.695
2.90919	0.696
2.94239	0.68
2.97558	0.589
3.00877	0.46
3.04196	0.597
3.07516	0.667
3.10835	0.687
3.14154	0.699
3.17473	0.702
3.20793	0.704
3.24112	0.684
3.27431	0.69
3.3075	0.711
3.3407	0.652
3.37389	0.527
3.40708	0.505
3.44027	0.606
3.47346	0.603
3.50666	0.679
3.53985	0.734
3.57304	0.742
3.60623	0.743
3.63943	0.753
3.67262	0.764
3.70581	0.773
3.739	0.775
3.7722	0.776
3.80539	0.779
3.83858	0.78
3.87177	0.781
3.90497	0.788
3.93816	0.797
3.97135	0.801
4.00454	0.803
4.03774	0.804
4.07093	0.805
4.10412	0.812
4.13731	0.817
4.17051	0.821
4.2037	0.829
4.23689	0.829
4.27008	0.827
4.30327	0.825
4.33647	0.827
4.36966	0.831
4.40285	0.831
4.43604	0.831
4.46924	0.837
4.50243	0.843
4.53562	0.844
4.56881	0.844
4.60201	0.845
4.6352	0.847
4.66839	0.851
4.70158	0.853
4.73478	0.856
4.76797	0.859
4.80116	0.86
4.83435	0.86
4.86755	0.861
4.90074	0.863
4.93393	0.864
4.96712	0.865
5.00031	0.865
5.03351	0.865
5.0667	0.865
5.09989	0.865
5.13308	0.865
5.16628	0.865
5.19947	0.865
5.23266	0.867
5.26585	0.871
5.29905	0.873
5.33224	0.885
5.36543	0.885
5.39862	0.886
5.43182	0.885
5.46501	0.88
5.4982	0.878
5.53139	0.875
5.56459	0.872
5.59778	0.878
5.63097	0.876
5.66416	0.867
5.69735	0.837
5.73055	0.773
5.76374	0.647
5.79693	0.542
5.83012	0.428
5.86332	0.432
5.89651	0.639
5.9297	0.772
5.96289	0.803
5.99609	0.824
6.02928	0.844
6.06247	0.848
6.09566	0.851
6.12886	0.843
6.16205	0.772
6.19524	0.647
6.22843	0.361
6.26163	0.474
6.29482	0.695
6.32801	0.788
6.3612	0.785
6.39439	0.647
6.42759	0.386
6.46078	0.287
6.49397	0.309
6.52716	0.478
6.56036	0.632
6.59355	0.652
6.62674	0.644
6.65993	0.694
6.69313	0.776
6.72632	0.797
6.75951	0.781
6.7927	0.724
6.8259	0.643
6.85909	0.72
6.89228	0.736
6.92547	0.704
6.95867	0.577
6.99186	0.715
7.02505	0.76
7.05824	0.625
7.09144	0.646
7.12463	0.765
7.15782	0.801
7.19101	0.801
7.2242	0.757
7.2574	0.743
7.29059	0.787
7.32378	0.797
7.35697	0.816
7.39017	0.816
7.42336	0.809
7.45655	0.777
7.48974	0.716
7.52294	0.613
7.55613	0.594
7.58932	0.585
7.62251	0.481
7.65571	0.55
7.6889	0.668
7.72209	0.779
7.75528	0.815
7.78848	0.816
7.82167	0.801
7.85486	0.791
7.88805	0.777
7.92124	0.752
7.95444	0.72
7.98763	0.703
8.02082	0.586
8.05401	0.409
8.08721	0.186
8.1204	0.131
8.15359	0.183
8.18678	0.309
8.21998	0.448
8.25317	0.541
8.28636	0.621
8.31955	0.682
8.35275	0.722
8.38594	0.763
8.41913	0.783
8.45232	0.803
8.48552	0.82
8.51871	0.836
8.5519	0.844
8.58509	0.819
8.61828	0.695
8.65148	0.446
8.68467	0.563
8.71786	0.664
8.75105	0.692
8.78425	0.761
8.81744	0.812
8.85063	0.832
8.88382	0.839
8.91702	0.84
8.95021	0.833
8.9834	0.815
9.01659	0.817
9.04979	0.84
9.08298	0.853
9.11617	0.855
9.14936	0.849
9.18256	0.837
9.21575	0.819
9.24894	0.792
9.28213	0.719
9.31532	0.594
9.34852	0.488
9.38171	0.458
9.4149	0.518
9.44809	0.583
9.48129	0.646
9.51448	0.686
9.54767	0.71
9.58086	0.715
9.61406	0.723
9.64725	0.752
9.68044	0.787
9.71363	0.82
9.74683	0.832
9.78002	0.837
9.81321	0.825
9.8464	0.807
9.8796	0.821
9.91279	0.832
9.94598	0.856
9.97917	0.863
10.0124	0.861
10.0456	0.886
10.0787	0.888
10.1119	0.889
10.1451	0.889
10.1783	0.89
10.2115	0.892
10.2447	0.892
10.2779	0.888
10.3111	0.88
10.3443	0.873
10.3775	0.888
10.4107	0.904
10.4439	0.908
10.4771	0.917
10.5103	0.92
10.5434	0.92
10.5766	0.921
10.6098	0.921
10.643	0.924
10.6762	0.928
10.7094	0.932
10.7426	0.93
10.7758	0.925
10.809	0.916
10.8422	0.893
10.8754	0.886
10.9086	0.897
10.9418	0.906
10.9749	0.924
11.0081	0.929
11.0413	0.933
11.0745	0.936
11.1077	0.945
11.1409	0.941
11.1741	0.94
11.2073	0.94
11.2405	0.936
11.2737	0.933
11.3069	0.934
11.3401	0.937
11.3733	0.938
11.4064	0.936
11.4396	0.93
11.4728	0.93
11.506	0.929
11.5392	0.926
11.5724	0.917
11.6056	0.908
11.6388	0.882
11.672	0.841
11.7052	0.791
11.7384	0.739
11.7716	0.716
11.8048	0.715
11.8379	0.739
11.8711	0.771
11.9043	0.796
11.9375	0.832
11.9707	0.851
12.0039	0.861
12.0371	0.869
12.0703	0.876
12.1035	0.88
12.1367	0.886
12.1699	0.89
12.2031	0.897
12.2363	0.906
12.2694	0.913
12.3026	0.917
12.3358	0.916
12.369	0.914
12.4022	0.914
12.4354	0.918
12.4686	0.92
12.5018	0.921
12.535	0.924
12.5682	0.925
12.6014	0.925
12.6346	0.926
12.6678	0.926
12.7009	0.922
12.7341	0.918
12.7673	0.916
12.8005	0.912
12.8337	0.902
12.8669	0.884
12.9001	0.867
12.9333	0.828
12.9665	0.779
12.9997	0.726
13.0329	0.663
13.0661	0.643
13.0993	0.692
13.1324	0.767
13.1656	0.815
13.1988	0.845
13.232	0.853
13.2652	0.859
13.2984	0.863
13.3316	0.864
13.3648	0.865
13.398	0.871
13.4312	0.875
13.4644	0.876
13.4976	0.876
13.5308	0.875
13.564	0.876
13.5971	0.876
13.6303	0.875
13.6635	0.873
13.6967	0.872
13.7299	0.869
13.7631	0.869
13.7963	0.868
13.8295	0.851
13.8627	0.833
13.8959	0.804
13.9291	0.801
13.9623	0.804
13.9955	0.803
14.0286	0.809
14.0618	0.815
14.095	0.827
14.1282	0.832
14.1614	0.832
14.1946	0.832
14.2278	0.829
14.261	0.827
14.2942	0.827
14.3274	0.821
14.3606	0.807
14.3938	0.796
14.427	0.781
14.4601	0.764
14.4933	0.73
14.5265	0.678
14.5597	0.63
14.5929	0.611
14.6261	0.617
14.6593	0.651
14.6925	0.69
14.7257	0.72
14.7589	0.742
14.7921	0.75
14.8253	0.755
14.8585	0.753
14.8916	0.748
14.9248	0.715
14.958	0.706
14.9912	0.767
