Infrared Spectrum: 2-PYRIDINAMINE, N-2-PYRIDINYL-, HYDROCHLORIDE
Formula: C10 H10 Cl N3
State: SOLID (KBr DISC, 0.9% WT.)
Class: COBLENTZ III
Instrument: PERKIN-ELMER 157
Sampling: TRANSMISSION
Resolution: 2
Origin: BRITISH PETROLEUM CO. LTD., ENGLAND
1/CM	TRANSMITTANCE
667	0.508
676	0.5682
685	0.5753
694	0.5392
703	0.4935
712	0.4631
721	0.3962
730	0.3833
739	0.3644
748	0.3401
757	0.252
766	0.0875
775	0.0248
784	0.1409
793	0.2982
802	0.3125
811	0.2601
820	0.1875
829	0.1209
838	0.1053
847	0.1921
856	0.4094
865	0.4411
874	0.2935
883	0.1611
892	0.2937
901	0.2688
910	0.4075
919	0.3659
928	0.2747
937	0.3047
946	0.4012
955	0.434
964	0.3957
973	0.3405
982	0.2766
991	0.258
1000	0.2982
1009	0.4143
1018	0.4542
1027	0.4073
1036	0.4437
1045	0.4694
1054	0.4784
1063	0.4685
1072	0.4592
1081	0.4293
1090	0.3976
1099	0.4332
1108	0.4258
1117	0.3864
1126	0.3701
1135	0.317
1144	0.1467
1153	0.1248
1162	0.2765
1171	0.4174
1180	0.4519
1189	0.443
1198	0.4256
1207	0.3607
1216	0.3378
1225	0.2958
1234	0.1501
1243	0.0484
1252	0.1879
1261	0.1756
1270	0.3948
1279	0.432
1288	0.3814
1297	0.2514
1306	0.3506
1315	0.3862
1324	0.4271
1333	0.4297
1342	0.3895
1351	0.3846
1360	0.3704
1369	0.3302
1378	0.2723
1387	0.2583
1396	0.2477
1405	0.223
1414	0.1405
1423	0.1271
1432	0.0858
1441	0.0164
1450	0.0281
1459	0.1353
1468	0.1758
1477	0.1323
1486	0.1361
1495	0.0595
1504	0.0753
1513	0.1469
1522	0.137
1531	0.0791
1540	0.0409
1549	0.0299
1558	0.0293
1567	0.0434
1576	0.0341
1585	0.0152
1594	0.0136
1603	0.0234
1612	0.0618
1621	0.0667
1630	0.061
1639	0.0451
1648	0.032
1657	0.0229
1666	0.0277
1675	0.0473
1684	0.1844
1693	0.3342
1702	0.5218
1711	0.5571
1720	0.6175
1729	0.6654
1738	0.6924
1747	0.7105
1756	0.7196
1765	0.7185
1774	0.7166
1783	0.716
1792	0.709
1801	0.7025
1810	0.6904
1819	0.6655
1828	0.6557
1837	0.6534
1846	0.6451
1855	0.6233
1864	0.6022
1873	0.6011
1882	0.5999
1891	0.5926
1900	0.5849
1909	0.5791
1918	0.5756
1927	0.5731
1936	0.5659
1945	0.5548
1954	0.5491
1963	0.536
1972	0.512
1981	0.494
1990	0.4872
1999	0.4883
2008	0.4914
2017	0.4715
2026	0.4447
2035	0.4281
2044	0.4106
2053	0.4097
2062	0.4164
2071	0.4262
2080	0.433
2089	0.4369
2098	0.4349
2107	0.4306
2116	0.4262
2125	0.4223
2134	0.4199
2143	0.4197
2152	0.4205
2161	0.4227
2170	0.4261
2179	0.4274
2188	0.4279
2197	0.4278
2206	0.427
2215	0.4256
2224	0.4234
2233	0.4229
2242	0.4237
2251	0.417
2260	0.413
2269	0.4116
2278	0.4079
2287	0.3975
2296	0.3888
2305	0.3811
2314	0.3724
2323	0.3686
2332	0.3667
2341	0.3642
2350	0.3573
2359	0.3494
2368	0.3454
2377	0.3391
2386	0.3318
2395	0.3261
2404	0.3233
2413	0.3145
2422	0.3061
2431	0.299
2440	0.2911
2449	0.2845
2458	0.2757
2467	0.2682
2476	0.2598
2485	0.2563
2494	0.2515
2503	0.2426
2512	0.2315
2521	0.2244
2530	0.2223
2539	0.2205
2548	0.2145
2557	0.2055
2566	0.197
2575	0.1881
2584	0.1791
2593	0.1678
2602	0.1563
2611	0.1462
2620	0.139
2629	0.1329
2638	0.1276
2647	0.1231
2656	0.119
2665	0.114
2674	0.1088
2683	0.1035
2692	0.0965
2701	0.0892
2710	0.0823
2719	0.0759
2728	0.0702
2737	0.0644
2746	0.0585
2755	0.0537
2764	0.0501
2773	0.0475
2782	0.0466
2791	0.0464
2800	0.0463
2809	0.0463
2818	0.0463
2827	0.0465
2836	0.0469
2845	0.0474
2854	0.0483
2863	0.0495
2872	0.051
2881	0.0532
2890	0.0543
2899	0.0545
2908	0.0543
2917	0.0539
2926	0.0537
2935	0.0571
2944	0.0613
2953	0.0664
2962	0.0712
2971	0.0717
2980	0.0717
2989	0.0718
2998	0.0718
3007	0.0719
3016	0.0725
3025	0.0733
3034	0.0751
3043	0.0782
3052	0.0826
3061	0.0875
3070	0.0902
3079	0.0912
3088	0.091
3097	0.0905
3106	0.0877
3115	0.0833
3124	0.0789
3133	0.0738
3142	0.0679
3151	0.0619
3160	0.0559
3169	0.0519
3178	0.0498
3187	0.0485
3196	0.0478
3205	0.0467
3214	0.0445
3223	0.0401
3232	0.0354
3241	0.0306
3250	0.0256
3259	0.0219
3268	0.0186
3277	0.0153
3286	0.0118
3295	0.0104
3304	0.0093
3313	0.0084
3322	0.0078
3331	0.0076
3340	0.0076
3349	0.0078
3358	0.0081
3367	0.0083
3376	0.0086
3385	0.0097
3394	0.011
3403	0.0127
3412	0.0158
3421	0.0189
3430	0.022
3439	0.0249
3448	0.0278
3457	0.031
3466	0.0432
3475	0.0534
3484	0.0654
3493	0.08
3502	0.0985
3511	0.1117
3520	0.1251
3529	0.1438
3538	0.1624
3547	0.1809
3556	0.1994
3565	0.2176
3574	0.2359
3583	0.254
3592	0.2695
3601	0.2763
3610	0.2818
3619	0.2845
3628	0.2862
3637	0.2871
3646	0.2876
3655	0.2881
3664	0.2881
3673	0.288
3682	0.2877
3691	0.2874
3700	0.2861
3709	0.2835
3718	0.2798
3727	0.2759
3736	0.2718
3745	0.2669
3754	0.2625
3763	0.2607
3772	0.2597
3781	0.2591
3790	0.2586
3799	0.2576
3808	0.2567
3817	0.2557
3826	0.2538
3835	0.2492
3844	0.2434
3853	0.2407
3862	0.24
3871	0.2393
3880	0.2389
3889	0.2386
3898	0.2382
3907	0.2377
3916	0.2368
3925	0.2346
3934	0.2317
3943	0.2281
3952	0.2262
3961	0.2247
3970	0.2238
3979	0.2231
3988	0.2224
3997	0.2218
