Infrared Spectrum: CYCLOHEXANE, D12
Formula: C6 D12
State: SOLUTION (10% CCl4 FOR 3800-1330, 10% CS2 FOR 1330-460 CM^-^1)
Class: COBLENTZ III
Instrument: DOW KBr FOREPRISM-GRATING
Instrument parameters: BLAZED AT 3.5, 12.0, 20.0 MICRON AND CHANGED AT 5.0, 7.5, 14.9 MICRON
Sampling: TRANSMISSION
Path length: 0.012 CM, 0.012 CM
Resolution: 2
Origin: DOW CHEMICAL COMPANY
1/CM	TRANSMITTANCE
460	0.8325
469	0.8378
478	0.8414
487	0.8468
496	0.8518
505	0.8534
514	0.8595
523	0.869
532	0.8802
541	0.8889
550	0.8978
559	0.906
568	0.912
577	0.918
586	0.9227
595	0.9301
604	0.9333
613	0.936
622	0.9424
631	0.9359
640	0.9217
649	0.9097
658	0.9191
667	0.9404
676	0.9081
685	0.6942
694	0.8665
703	0.9161
712	0.9082
721	0.7389
730	0.9252
739	0.9471
748	0.951
757	0.9497
766	0.9466
775	0.9375
784	0.9211
793	0.9067
802	0.922
811	0.9478
820	0.958
829	0.9617
838	0.9366
847	0.8816
856	0.8092
865	0.8212
874	0.8577
883	0.8999
892	0.9386
901	0.9385
910	0.7725
919	0.6588
928	0.8925
937	0.9018
946	0.9271
955	0.9461
964	0.9404
973	0.9143
982	0.7898
991	0.728
1000	0.8881
1009	0.9387
1018	0.9462
1027	0.9498
1036	0.9507
1045	0.9408
1054	0.9135
1063	0.8707
1072	0.8258
1081	0.5996
1090	0.7382
1099	0.89
1108	0.9101
1117	0.9215
1126	0.9468
1135	0.9594
1144	0.9533
1153	0.8761
1162	0.675
1171	0.9558
1180	0.9666
1189	0.982
1198	0.9767
1207	0.9654
1216	0.9749
1225	0.9901
1234	0.9964
1243	0.9918
1252	0.9821
1261	0.9839
1270	0.9857
1279	0.9849
1288	0.9792
1297	0.9695
1306	0.9648
1315	0.98
1324	0.9793
1333	0.9853
1342	0.9846
1351	0.9777
1360	0.9788
1369	0.978
1378	0.9665
1387	0.9578
1396	0.9764
1405	0.9684
1414	0.9675
1423	0.9668
1432	0.9627
1441	0.9591
1450	0.9568
1459	0.9524
1468	0.953
1477	0.9398
1486	0.9058
1495	0.8604
1504	0.8143
1513	0.7565
1522	0.6885
1531	0.616
1540	0.5295
1549	0.4739
1558	0.5095
1567	0.6104
1576	0.6549
1585	0.6747
1594	0.7605
1603	0.8634
1612	0.9156
1621	0.9375
1630	0.9598
1639	0.9773
1648	0.9814
1657	0.9816
1666	0.9798
1675	0.978
1684	0.9746
1693	0.9699
1702	0.9688
1711	0.9685
1720	0.9728
1729	0.9678
1738	0.9694
1747	0.9705
1756	0.9703
1765	0.972
1774	0.975
1783	0.9661
1792	0.9603
1801	0.9642
1810	0.9642
1819	0.9642
1828	0.9637
1837	0.9627
1846	0.9601
1855	0.9549
1864	0.9558
1873	0.9544
1882	0.9553
1891	0.94
1900	0.9517
1909	0.9597
1918	0.9559
1927	0.9509
1936	0.9503
1945	0.9358
1954	0.9595
1963	0.9625
1972	0.9537
1981	0.9321
1990	0.8744
1999	0.8069
2008	0.9601
2017	0.9971
2026	0.9971
2035	0.9871
2044	0.9692
2053	0.897
2062	0.8185
2071	0.8382
2080	0.7443
2089	0.4415
2098	0.0342
2107	0.0366
2116	0.1964
2125	0.2863
2134	0.3163
2143	0.3929
2152	0.5471
2161	0.4884
2170	0.279
2179	0.2999
2188	0.2163
2197	0.0184
2206	0.0326
2215	0.028
2224	0.1558
2233	0.4873
2242	0.5249
2251	0.8615
2260	0.8995
2269	0.8963
2278	0.8618
2287	0.7695
2296	0.9368
2305	0.9552
2314	0.9695
2323	0.9794
2332	0.9827
2341	0.9707
2350	0.9603
2359	0.9349
2368	0.9264
2377	0.9521
2386	0.9561
2395	0.9446
2404	0.9384
2413	0.9759
2422	0.9861
2431	0.9865
2440	0.9874
2449	0.9868
2458	0.9862
2467	0.9862
2476	0.9863
2485	0.9862
2494	0.9862
2503	0.9868
2512	0.9875
2521	0.9875
2530	0.9865
2539	0.9843
2548	0.9816
2557	0.979
2566	0.9778
2575	0.9792
2584	0.9789
2593	0.982
2602	0.9871
2611	0.9886
2620	0.989
2629	0.9894
2638	0.9894
2647	0.9892
2656	0.9893
2665	0.9895
2674	0.9895
2683	0.9891
2692	0.987
2701	0.9846
2710	0.9818
2719	0.9818
2728	0.9831
2737	0.984
2746	0.9848
2755	0.9851
2764	0.9852
2773	0.9839
2782	0.9823
2791	0.9852
2800	0.9875
2809	0.9863
2818	0.984
2827	0.98
2836	0.9724
2845	0.9578
2854	0.9451
2863	0.933
2872	0.9074
2881	0.8965
2890	0.9036
2899	0.8862
2908	0.8757
2917	0.8887
2926	0.9105
2935	0.927
2944	0.9401
2953	0.9402
2962	0.9528
2971	0.9668
2980	0.9766
2989	0.9836
2998	0.9861
3007	0.9839
3016	0.9818
3025	0.9859
3034	0.9908
3043	0.9908
3052	0.9908
3061	0.9905
3070	0.9889
3079	0.9854
3088	0.9812
3097	0.9821
3106	0.9788
3115	0.973
3124	0.9709
3133	0.9711
3142	0.9564
3151	0.9409
3160	0.9437
3169	0.9564
3178	0.9636
3187	0.9653
3196	0.9728
3205	0.9778
3214	0.9741
3223	0.9741
3232	0.9755
3241	0.9709
3250	0.9728
3259	0.9771
3268	0.9811
3277	0.9816
3286	0.9828
3295	0.9875
3304	0.9868
3313	0.9836
3322	0.9842
3331	0.9875
3340	0.9923
3349	0.994
3358	0.9943
3367	0.9943
3376	0.9954
3385	0.9964
3394	0.9967
3403	0.997
3412	0.9973
3421	0.9973
3430	0.9973
3439	0.997
3448	0.9967
3457	0.9967
3466	0.9968
3475	0.9971
3484	0.9968
3493	0.9966
3502	0.9964
3511	0.9962
3520	0.9961
3529	0.9954
3538	0.9947
3547	0.9939
3556	0.9934
3565	0.9928
3574	0.9925
3583	0.9931
3592	0.9936
3601	0.9939
3610	0.9938
3619	0.9933
3628	0.9915
3637	0.9898
3646	0.9906
3655	0.9918
3664	0.9939
3673	0.9948
3682	0.9906
3691	0.9874
3700	0.9899
3709	0.9923
3718	0.9932
3727	0.993
3736	0.9923
3745	0.9904
3754	0.9896
3763	0.9895
3772	0.9901
3781	0.9908
3790	0.9917
3799	0.9904
