Infrared Spectrum: VINYL CYCLOHEXENE MONOXIDE
Formula: C8 H12 O
State: LIQUID
Class: COBLENTZ
Instrument: Not specified, most likely a prism, grating, or hybrid spectrometer.
Sampling: TRANSMISSION
Path length: 0.003 CM
Resolution: 4
Origin: WYANDOTTE CHEMICALS CORP., WYANDOTTE, MICHIGAN, USA
MICROMETERS	TRANSMITTANCE
2.014	0.953
2.05488	0.953
2.09575	0.953
2.13663	0.94
2.1775	0.931
2.21838	0.912
2.25926	0.911
2.30013	0.912
2.34101	0.914
2.38189	0.914
2.42276	0.918
2.46364	0.911
2.50451	0.909
2.54539	0.916
2.58627	0.912
2.62714	0.907
2.66802	0.919
2.7089	0.921
2.74977	0.918
2.79065	0.909
2.83152	0.904
2.8724	0.899
2.91328	0.899
2.95415	0.897
2.99503	0.883
3.03591	0.868
3.07678	0.866
3.11766	0.87
3.15853	0.863
3.19941	0.832
3.24029	0.506
3.28116	0.662
3.32204	0.083
3.36291	0.201
3.40379	0.092
3.44467	0.296
3.48554	0.303
3.52642	0.467
3.5673	0.793
3.60817	0.827
3.64905	0.841
3.68992	0.844
3.7308	0.837
3.77168	0.861
3.81255	0.87
3.85343	0.87
3.89431	0.87
3.93518	0.87
3.97606	0.872
4.01693	0.868
4.05781	0.868
4.09869	0.865
4.13956	0.865
4.18044	0.865
4.22132	0.861
4.26219	0.868
4.30307	0.878
4.34394	0.885
4.38482	0.875
4.4257	0.861
4.46657	0.856
4.50745	0.858
4.54832	0.858
4.5892	0.86
4.63008	0.861
4.67095	0.86
4.71183	0.861
4.75271	0.863
4.79358	0.868
4.83446	0.861
4.87533	0.858
4.91621	0.861
4.95709	0.868
4.99796	0.866
5.03884	0.863
5.07972	0.848
5.12059	0.848
5.16147	0.851
5.20234	0.854
5.24322	0.854
5.2841	0.851
5.32497	0.851
5.36585	0.848
5.40672	0.827
5.4476	0.808
5.48848	0.773
5.52935	0.79
5.57023	0.824
5.61111	0.829
5.65198	0.829
5.69286	0.822
5.73373	0.813
5.77461	0.819
5.81549	0.825
5.85636	0.829
5.89724	0.817
5.93812	0.805
5.97899	0.778
6.01987	0.737
6.06074	0.247
6.10162	0.701
6.1425	0.771
6.18337	0.793
6.22425	0.803
6.26513	0.8
6.306	0.795
6.34688	0.798
6.38775	0.805
6.42863	0.813
6.46951	0.813
6.51038	0.81
6.55126	0.802
6.59213	0.779
6.63301	0.747
6.67389	0.738
6.71476	0.742
6.75564	0.715
6.79652	0.634
6.83739	0.411
6.87827	0.32
6.91914	0.235
6.96002	0.221
7.0009	0.319
7.04177	0.436
7.08265	0.639
7.12353	0.701
7.1644	0.738
7.20528	0.747
7.24615	0.725
7.28703	0.709
7.32791	0.689
7.36878	0.65
7.40966	0.61
7.45054	0.617
7.49141	0.701
7.53229	0.749
7.57316	0.752
7.61404	0.704
7.65492	0.68
7.69579	0.687
7.73667	0.68
7.77754	0.703
7.81842	0.689
7.8593	0.65
7.90017	0.5
7.94105	0.496
7.98193	0.539
8.0228	0.624
8.06368	0.697
8.10455	0.723
8.14543	0.68
8.18631	0.709
8.22718	0.747
8.26806	0.767
8.30894	0.778
8.34981	0.779
8.39069	0.776
8.43156	0.738
8.47244	0.656
8.51332	0.668
8.55419	0.704
8.59507	0.73
8.63595	0.721
8.67682	0.728
8.7177	0.747
8.75857	0.75
8.79945	0.709
8.84033	0.699
8.8812	0.682
8.92208	0.709
8.96295	0.711
9.00383	0.726
9.04471	0.762
9.08558	0.762
9.12646	0.759
9.16734	0.74
9.20821	0.699
9.24909	0.711
9.28996	0.74
9.33084	0.759
9.37172	0.755
9.41259	0.74
9.45347	0.689
9.49435	0.651
9.53522	0.651
9.5761	0.634
9.61697	0.636
9.65785	0.655
9.69873	0.658
9.7396	0.645
9.78048	0.614
9.82136	0.564
9.86223	0.534
9.90311	0.5
9.94398	0.39
9.98486	0.269
10.0257	0.121
10.0666	0.1
10.1075	0.213
10.1484	0.305
10.1892	0.353
10.2301	0.325
10.271	0.349
10.3119	0.36
10.3527	0.397
10.3936	0.522
10.4345	0.551
10.4754	0.534
10.5163	0.539
10.5571	0.578
10.598	0.595
10.6389	0.573
10.6798	0.501
10.7206	0.402
10.7615	0.242
10.8024	0.162
10.8433	0.131
10.8841	0.1
10.925	0.08
10.9659	0.056
11.0068	0.066
11.0476	0.092
11.0885	0.141
11.1294	0.189
11.1703	0.305
11.2111	0.469
11.252	0.58
11.2929	0.621
11.3338	0.643
11.3747	0.65
11.4155	0.602
11.4564	0.51
11.4973	0.404
11.5382	0.457
11.579	0.547
11.6199	0.578
11.6608	0.554
11.7017	0.472
11.7425	0.356
11.7834	0.339
11.8243	0.481
11.8652	0.607
11.906	0.662
11.9469	0.68
11.9878	0.694
12.0287	0.692
12.0695	0.687
12.1104	0.679
12.1513	0.653
12.1922	0.617
12.2331	0.515
12.2739	0.378
12.3148	0.237
12.3557	0.199
12.3966	0.237
12.4374	0.325
12.4783	0.375
12.5192	0.31
12.5601	0.186
12.6009	0.095
12.6418	0.073
12.6827	0.158
12.7236	0.356
12.7644	0.486
12.8053	0.518
12.8462	0.53
12.8871	0.593
12.9279	0.636
12.9688	0.653
13.0097	0.658
13.0506	0.651
13.0915	0.651
13.1323	0.658
13.1732	0.651
13.2141	0.617
13.255	0.568
13.2958	0.496
13.3367	0.419
13.3776	0.389
13.4185	0.448
13.4593	0.544
13.5002	0.612
13.5411	0.66
13.582	0.682
13.6228	0.709
13.6637	0.726
13.7046	0.738
13.7455	0.749
13.7863	0.749
13.8272	0.755
13.8681	0.755
13.909	0.754
13.9499	0.752
13.9907	0.754
14.0316	0.757
14.0725	0.757
14.1134	0.755
14.1542	0.752
14.1951	0.747
14.236	0.749
14.2769	0.74
14.3177	0.733
14.3586	0.73
14.3995	0.737
14.4404	0.74
14.4812	0.74
14.5221	0.74
14.563	0.737
14.6039	0.733
14.6447	0.732
14.6856	0.72
14.7265	0.713
14.7674	0.704
14.8083	0.687
14.8491	0.674
14.89	0.656
14.9309	0.641
14.9718	0.624
15.0126	0.616
15.0535	0.6
15.0944	0.587
15.1353	0.558
15.1761	0.547
15.217	0.54
15.2579	0.542
15.2988	0.551
15.3396	0.561
15.3805	0.569
15.4214	0.581
15.4623	0.598
15.5031	0.61
15.544	0.619
15.5849	0.627
15.6258	0.629
15.6667	0.636
15.7075	0.641
15.7484	0.65
15.7893	0.653
15.8302	0.655
15.871	0.658
15.9119	0.663
15.9528	0.672
15.9937	0.675
