Infrared Spectrum: 1-NITRO OCTANE
Formula: C8 H12 N O2
State: SOLID (KBr DISC)
Class: COBLENTZ
Instrument: Not specified, most likely a prism, grating, or hybrid spectrometer.
Sampling: TRANSMISSION
Resolution: 4
MICROMETERS	TRANSMITTANCE
2.1	0.803
2.13988	0.805
2.17975	0.81
2.21963	0.806
2.25951	0.801
2.29938	0.787
2.33926	0.787
2.37914	0.79
2.41902	0.793
2.45889	0.793
2.49877	0.801
2.53865	0.805
2.57852	0.806
2.6184	0.81
2.65828	0.803
2.69815	0.815
2.73803	0.81
2.77791	0.803
2.81778	0.803
2.85766	0.803
2.89754	0.803
2.93741	0.805
2.97729	0.805
3.01717	0.806
3.05705	0.806
3.09692	0.805
3.1368	0.803
3.17668	0.8
3.21655	0.795
3.25643	0.79
3.29631	0.768
3.33618	0.712
3.37606	0.407
3.41594	0.091
3.45581	0.244
3.49569	0.289
3.53557	0.374
3.57544	0.697
3.61532	0.758
3.6552	0.77
3.69508	0.777
3.73495	0.785
3.77483	0.787
3.81471	0.798
3.85458	0.805
3.89446	0.806
3.93434	0.808
3.97421	0.81
4.01409	0.816
4.05397	0.815
4.09384	0.81
4.13372	0.81
4.1736	0.813
4.21347	0.816
4.25335	0.821
4.29323	0.825
4.33311	0.825
4.37298	0.82
4.41286	0.82
4.45274	0.818
4.49261	0.818
4.53249	0.82
4.57237	0.82
4.61224	0.821
4.65212	0.823
4.692	0.823
4.73187	0.823
4.77175	0.825
4.81163	0.826
4.8515	0.826
4.89138	0.826
4.93126	0.826
4.97114	0.828
5.01101	0.828
5.05089	0.83
5.09077	0.83
5.13064	0.83
5.17052	0.83
5.2104	0.831
5.25027	0.831
5.29015	0.833
5.33003	0.833
5.3699	0.833
5.40978	0.833
5.44966	0.833
5.48953	0.833
5.52941	0.833
5.56929	0.831
5.60917	0.833
5.64904	0.831
5.68892	0.828
5.7288	0.826
5.76867	0.826
5.80855	0.823
5.84843	0.825
5.8883	0.83
5.92818	0.828
5.96806	0.825
6.00793	0.821
6.04781	0.81
6.08769	0.79
6.12756	0.748
6.16744	0.703
6.20732	0.718
6.2472	0.702
6.28707	0.65
6.32695	0.567
6.36683	0.402
6.4067	0.161
6.44658	0.061
6.48646	0.044
6.52633	0.322
6.56621	0.48
6.60609	0.579
6.64596	0.638
6.68584	0.672
6.72572	0.692
6.76559	0.678
6.80547	0.522
6.84535	0.342
6.88523	0.387
6.9251	0.477
6.96498	0.392
7.00486	0.419
7.04473	0.608
7.08461	0.668
7.12449	0.675
7.16436	0.628
7.20424	0.417
7.24412	0.224
7.28399	0.289
7.32387	0.429
7.36375	0.542
7.40362	0.557
7.4435	0.599
7.48338	0.62
7.52326	0.69
7.56313	0.725
7.60301	0.728
7.64289	0.723
7.68276	0.717
7.72264	0.717
7.76252	0.717
7.80239	0.69
7.84227	0.673
7.88215	0.703
7.92202	0.723
7.9619	0.733
8.00178	0.737
8.04165	0.735
8.08153	0.732
8.12141	0.722
8.16129	0.718
8.20116	0.725
8.24104	0.733
8.28092	0.713
8.32079	0.723
8.36067	0.727
8.40055	0.723
8.44042	0.717
8.4803	0.713
8.52018	0.715
8.56005	0.73
8.59993	0.753
8.63981	0.768
8.67969	0.772
8.71956	0.755
8.75944	0.727
8.79932	0.697
8.83919	0.697
8.87907	0.7
8.91895	0.713
8.95882	0.75
8.9987	0.772
9.03858	0.783
9.07845	0.787
9.11833	0.785
9.15821	0.785
9.19808	0.782
9.23796	0.782
9.27784	0.777
9.31772	0.77
9.35759	0.768
9.39747	0.768
9.43735	0.77
9.47722	0.775
9.5171	0.778
9.55698	0.783
9.59685	0.783
9.63673	0.785
9.67661	0.785
9.71648	0.785
9.75636	0.787
9.79624	0.788
9.83611	0.788
9.87599	0.792
9.91587	0.795
9.95575	0.797
9.99562	0.801
10.0355	0.805
10.0754	0.805
10.1153	0.805
10.1551	0.805
10.195	0.805
10.2349	0.805
10.2748	0.803
10.3146	0.805
10.3545	0.801
10.3944	0.8
10.4343	0.798
10.4741	0.798
10.514	0.8
10.5539	0.801
10.5938	0.803
10.6337	0.803
10.6735	0.805
10.7134	0.805
10.7533	0.805
10.7932	0.805
10.833	0.805
10.8729	0.805
10.9128	0.8
10.9527	0.792
10.9925	0.783
11.0324	0.775
11.0723	0.777
11.1122	0.78
11.1521	0.78
11.1919	0.778
11.2318	0.775
11.2717	0.765
11.3116	0.752
11.3514	0.73
11.3913	0.725
11.4312	0.733
11.4711	0.738
11.5109	0.747
11.5508	0.753
11.5907	0.758
11.6306	0.765
11.6705	0.773
11.7103	0.778
11.7502	0.785
11.7901	0.792
11.83	0.795
11.8698	0.798
11.9097	0.798
11.9496	0.798
11.9895	0.798
12.0293	0.793
12.0692	0.79
12.1091	0.783
12.149	0.783
12.1889	0.782
12.2287	0.782
12.2686	0.787
12.3085	0.79
12.3484	0.792
12.3882	0.793
12.4281	0.798
12.468	0.792
12.5079	0.797
12.5477	0.797
12.5876	0.793
12.6275	0.79
12.6674	0.785
12.7072	0.778
12.7471	0.772
12.787	0.76
12.8269	0.752
12.8668	0.74
12.9066	0.732
12.9465	0.732
12.9864	0.733
13.0263	0.742
13.0661	0.752
13.106	0.753
13.1459	0.753
13.1858	0.753
13.2256	0.753
13.2655	0.752
13.3054	0.745
13.3453	0.742
13.3852	0.733
13.425	0.727
13.4649	0.715
13.5048	0.713
13.5447	0.71
13.5845	0.707
13.6244	0.698
13.6643	0.69
13.7042	0.673
13.744	0.652
13.7839	0.623
13.8238	0.602
13.8637	0.602
13.9036	0.617
13.9434	0.643
13.9833	0.658
14.0232	0.672
14.0631	0.68
14.1029	0.688
14.1428	0.692
14.1827	0.693
14.2226	0.698
14.2624	0.7
14.3023	0.703
14.3422	0.703
14.3821	0.712
14.422	0.713
14.4618	0.715
14.5017	0.717
14.5416	0.72
14.5815	0.722
14.6213	0.717
14.6612	0.718
14.7011	0.718
14.741	0.717
14.7808	0.713
14.8207	0.708
14.8606	0.708
14.9005	0.702
14.9404	0.698
14.9802	0.7
15.0201	0.703
15.06	0.702
15.0999	0.69
15.1397	0.687
15.1796	0.673
15.2195	0.673
15.2594	0.665
15.2992	0.662
15.3391	0.655
15.379	0.647
15.4189	0.642
15.4588	0.642
15.4986	0.635
15.5385	0.625
15.5784	0.623
15.6183	0.622
15.6581	0.617
15.698	0.613
15.7379	0.613
15.7778	0.613
15.8176	0.603
15.8575	0.605
15.8974	0.602
15.9373	0.602
15.9772	0.6
