Infrared Spectrum: POTASSIUM TETRABORATE
Formula: K2 B4 O7  * 5 H2 O
State: SOLID (NUJOL MULL)
Class: COBLENTZ
Instrument: Not specified, most likely a prism, grating, or hybrid spectrometer.
Sampling: TRANSMISSION
Resolution: 4
Origin: MELLON INSTITUTE
MICROMETERS	TRANSMITTANCE
2.068	0.991
2.10795	0.991
2.1479	0.989
2.18785	0.989
2.2278	0.989
2.26775	0.984
2.3077	0.971
2.34765	0.974
2.3876	0.969
2.42755	0.969
2.4675	0.974
2.50745	0.978
2.5474	0.974
2.58735	0.971
2.6273	0.966
2.66725	0.956
2.7072	0.938
2.74716	0.879
2.78711	0.749
2.82706	0.474
2.86701	0.531
2.90696	0.397
2.94691	0.285
2.98686	0.357
3.02681	0.364
3.06676	0.364
3.10671	0.488
3.14666	0.568
3.18661	0.59
3.22656	0.59
3.26651	0.588
3.30646	0.496
3.34641	0.25
3.38636	0.093
3.42631	0.275
3.46626	0.257
3.50621	0.668
3.54616	0.775
3.58611	0.809
3.62606	0.836
3.66601	0.849
3.70596	0.859
3.74591	0.864
3.78586	0.867
3.82581	0.879
3.86576	0.894
3.90571	0.903
3.94566	0.897
3.98561	0.884
4.02557	0.876
4.06552	0.886
4.10547	0.899
4.14542	0.906
4.18537	0.904
4.22532	0.896
4.26527	0.887
4.30522	0.884
4.34517	0.891
4.38512	0.901
4.42507	0.914
4.46502	0.913
4.50497	0.914
4.54492	0.921
4.58487	0.921
4.62482	0.923
4.66477	0.924
4.70472	0.924
4.74467	0.923
4.78462	0.926
4.82457	0.931
4.86452	0.934
4.90447	0.933
4.94442	0.931
4.98437	0.933
5.02432	0.929
5.06427	0.928
5.10422	0.931
5.14417	0.933
5.18412	0.934
5.22407	0.933
5.26402	0.929
5.30398	0.926
5.34393	0.926
5.38388	0.926
5.42383	0.921
5.46378	0.916
5.50373	0.911
5.54368	0.908
5.58363	0.914
5.62358	0.913
5.66353	0.914
5.70348	0.914
5.74343	0.913
5.78338	0.913
5.82333	0.906
5.86328	0.891
5.90323	0.872
5.94318	0.847
5.98313	0.822
6.02308	0.822
6.06303	0.824
6.10298	0.832
6.14293	0.849
6.18288	0.859
6.22283	0.874
6.26278	0.886
6.30273	0.882
6.34268	0.869
6.38263	0.852
6.42258	0.831
6.46253	0.811
6.50248	0.802
6.54243	0.779
6.58239	0.745
6.62234	0.702
6.66229	0.618
6.70224	0.489
6.74219	0.352
6.78214	0.267
6.82209	0.2
6.86204	0.185
6.90199	0.177
6.94194	0.173
6.98189	0.177
7.02184	0.209
7.06179	0.275
7.10174	0.309
7.14169	0.322
7.18164	0.309
7.22159	0.262
7.26154	0.237
7.30149	0.214
7.34144	0.183
7.38139	0.17
7.42134	0.16
7.46129	0.158
7.50124	0.165
7.54119	0.185
7.58114	0.195
7.62109	0.212
7.66104	0.234
7.70099	0.362
7.74094	0.461
7.78089	0.526
7.82084	0.545
7.8608	0.548
7.90075	0.546
7.9407	0.54
7.98065	0.515
8.0206	0.496
8.06055	0.489
8.1005	0.496
8.14045	0.525
8.1804	0.556
8.22035	0.593
8.2603	0.612
8.30025	0.627
8.3402	0.632
8.38015	0.63
8.4201	0.62
8.46005	0.588
8.5	0.536
8.53995	0.491
8.5799	0.438
8.61985	0.414
8.6598	0.409
8.69975	0.404
8.7397	0.399
8.77965	0.381
8.8196	0.362
8.85955	0.356
8.8995	0.352
8.93945	0.346
8.9794	0.336
9.01935	0.312
9.0593	0.287
9.09925	0.264
9.1392	0.254
9.17916	0.25
9.21911	0.254
9.25906	0.265
9.29901	0.279
9.33896	0.292
9.37891	0.299
9.41886	0.306
9.45881	0.311
9.49876	0.326
9.53871	0.342
9.57866	0.364
9.61861	0.364
9.65856	0.351
9.69851	0.337
9.73846	0.312
9.77841	0.297
9.81836	0.28
9.85831	0.252
9.89826	0.23
9.93821	0.222
9.97816	0.215
10.0181	0.22
10.0581	0.23
10.098	0.257
10.138	0.292
10.1779	0.336
10.2179	0.394
10.2578	0.444
10.2978	0.479
10.3377	0.518
10.3777	0.546
10.4176	0.561
10.4576	0.573
10.4975	0.575
10.5375	0.553
10.5774	0.528
10.6174	0.488
10.6573	0.454
10.6973	0.438
10.7372	0.399
10.7772	0.371
10.8171	0.347
10.8571	0.341
10.897	0.339
10.937	0.344
10.9769	0.367
11.0169	0.408
11.0568	0.461
11.0968	0.493
11.1367	0.528
11.1767	0.551
11.2166	0.58
11.2566	0.6
11.2965	0.613
11.3365	0.618
11.3764	0.622
11.4164	0.618
11.4563	0.612
11.4963	0.602
11.5362	0.583
11.5762	0.56
11.6161	0.533
11.6561	0.503
11.696	0.491
11.736	0.473
11.7759	0.454
11.8159	0.441
11.8558	0.424
11.8958	0.401
11.9357	0.392
11.9757	0.384
12.0156	0.381
12.0556	0.384
12.0955	0.391
12.1355	0.419
12.1754	0.449
12.2154	0.489
12.2553	0.52
12.2953	0.541
12.3352	0.563
12.3752	0.588
12.4151	0.61
12.4551	0.632
12.495	0.648
12.535	0.658
12.5749	0.665
12.6149	0.67
12.6548	0.67
12.6948	0.668
12.7347	0.662
12.7747	0.655
12.8146	0.663
12.8546	0.678
12.8945	0.692
12.9345	0.697
12.9744	0.702
13.0144	0.705
13.0543	0.709
13.0943	0.712
13.1342	0.714
13.1742	0.719
13.2141	0.72
13.2541	0.724
13.294	0.725
13.334	0.727
13.3739	0.729
13.4139	0.73
13.4538	0.729
13.4938	0.722
13.5337	0.712
13.5737	0.702
13.6136	0.693
13.6536	0.692
13.6935	0.688
13.7335	0.683
13.7734	0.677
13.8134	0.67
13.8533	0.665
13.8933	0.658
13.9332	0.653
13.9732	0.653
14.0131	0.65
14.0531	0.652
14.093	0.65
14.133	0.652
14.1729	0.653
14.2129	0.65
14.2528	0.647
14.2928	0.65
14.3327	0.655
14.3727	0.658
14.4126	0.665
14.4526	0.672
14.4925	0.677
14.5325	0.683
14.5724	0.687
14.6124	0.688
14.6523	0.693
14.6923	0.693
14.7322	0.695
14.7722	0.7
14.8121	0.698
14.8521	0.702
14.892	0.704
14.932	0.705
14.972	0.709
15.0119	0.709
15.0519	0.71
15.0918	0.71
15.1318	0.712
15.1717	0.712
15.2117	0.712
15.2516	0.714
15.2916	0.71
15.3315	0.71
15.3715	0.705
15.4114	0.704
15.4514	0.702
15.4913	0.702
15.5313	0.704
15.5712	0.704
15.6112	0.705
15.6511	0.702
15.6911	0.698
15.731	0.7
15.771	0.702
15.8109	0.702
15.8509	0.705
15.8908	0.705
15.9308	0.707
15.9707	0.709
