Infrared Spectrum: d-Sodium tartrate
Formula: C4 H4 Na2 O6  * 2 H2 O
State: SOLID (SPLIT MULL)
Class: COBLENTZ II
Instrument: DOW KBr FOREPRISM-GRATING
Instrument parameters: BLAZED AT 3.5, 12.0, 20.0 MICRON AND CHANGED AT 5.0, 7.5, 14.9 MICRON
Sampling: TRANSMISSION
Resolution: 2
Origin: DOW CHEMICAL COMPANY
1/CM	TRANSMITTANCE
3820	0.819
3811	0.8196
3802	0.8202
3793	0.8208
3784	0.8214
3775	0.8217
3766	0.8218
3757	0.8215
3748	0.8208
3739	0.8192
3730	0.8191
3721	0.8221
3712	0.8208
3703	0.818
3694	0.8136
3685	0.8086
3676	0.8018
3667	0.7943
3658	0.7846
3649	0.7748
3640	0.7651
3631	0.7522
3622	0.7362
3613	0.7125
3604	0.6464
3595	0.5622
3586	0.5132
3577	0.4521
3568	0.4537
3559	0.4934
3550	0.5378
3541	0.5667
3532	0.5775
3523	0.5701
3514	0.5508
3505	0.5204
3496	0.4693
3487	0.4405
3478	0.4133
3469	0.3825
3460	0.3666
3451	0.3616
3442	0.3566
3433	0.3256
3424	0.2862
3415	0.2641
3406	0.2709
3397	0.2895
3388	0.3165
3379	0.343
3370	0.3666
3361	0.386
3352	0.4018
3343	0.4136
3334	0.4223
3325	0.4288
3316	0.4337
3307	0.4362
3298	0.4316
3289	0.4288
3280	0.4297
3271	0.4326
3262	0.4356
3253	0.4366
3244	0.4302
3235	0.4126
3226	0.391
3217	0.3608
3208	0.3629
3199	0.3794
3190	0.3976
3181	0.4215
3172	0.4517
3163	0.4856
3154	0.5106
3145	0.529
3136	0.5456
3127	0.5594
3118	0.5732
3109	0.5873
3100	0.6009
3091	0.6135
3082	0.623
3073	0.6312
3064	0.6392
3055	0.6456
3046	0.6518
3037	0.6588
3028	0.6657
3019	0.6728
3010	0.681
3001	0.6906
2992	0.7028
2983	0.7125
2974	0.5612
2965	0.6825
2956	0.7044
2947	0.7153
2938	0.7161
2929	0.6892
2920	0.7217
2911	0.7321
2902	0.7399
2893	0.746
2884	0.7507
2875	0.7531
2866	0.7538
2857	0.7562
2848	0.7592
2839	0.7621
2830	0.765
2821	0.7662
2812	0.7676
2803	0.769
2794	0.7704
2785	0.7715
2776	0.773
2767	0.7741
2758	0.775
2749	0.776
2740	0.7774
2731	0.7787
2722	0.7801
2713	0.7828
2704	0.7856
2695	0.7875
2686	0.7893
2677	0.791
2668	0.7925
2659	0.7931
2650	0.7928
2641	0.7922
2632	0.7919
2623	0.7945
2614	0.7971
2605	0.8001
2596	0.8036
2587	0.8065
2578	0.8088
2569	0.8098
2560	0.8078
2551	0.8058
2542	0.8042
2533	0.8048
2524	0.8074
2515	0.8099
2506	0.8121
2497	0.8119
2488	0.8126
2479	0.813
2470	0.8128
2461	0.8125
2452	0.8122
2443	0.8119
2434	0.8117
2425	0.8112
2416	0.8108
2407	0.8106
2398	0.8104
2389	0.8106
2380	0.8112
2371	0.8119
2362	0.8126
2353	0.8132
2344	0.8139
2335	0.8145
2326	0.8121
2317	0.8062
2308	0.8025
2299	0.7991
2290	0.7978
2281	0.798
2272	0.8005
2263	0.8036
2254	0.8062
2245	0.8089
2236	0.8115
2227	0.8145
2218	0.8178
2209	0.821
2200	0.8243
2191	0.8275
2182	0.8301
2173	0.8325
2164	0.8349
2155	0.837
2146	0.8389
2137	0.841
2128	0.8432
2119	0.8453
2110	0.8475
2101	0.8497
2092	0.8518
2083	0.8542
2074	0.8574
2065	0.8606
2056	0.8634
2047	0.8661
2038	0.8685
2029	0.8706
2020	0.8725
2011	0.8742
2002	0.8747
1993	0.873
1984	0.8759
1975	0.8783
1966	0.8801
1957	0.8805
1948	0.881
1939	0.8821
1930	0.8835
1921	0.8837
1912	0.8828
1903	0.882
1894	0.8812
1885	0.8804
1876	0.8793
1867	0.8814
1858	0.8774
1849	0.8765
1840	0.8756
1831	0.8745
1822	0.8734
1813	0.8723
1804	0.8712
1795	0.8708
1786	0.8706
1777	0.8697
1768	0.8686
1759	0.8668
1750	0.8577
1741	0.8538
1732	0.8521
1723	0.8491
1714	0.8316
1705	0.7984
1696	0.7344
1687	0.6214
1678	0.5403
1669	0.483
1660	0.3982
1651	0.3962
1642	0.3126
1633	0.1598
1624	0.0814
1615	0.0986
1606	0.201
1597	0.2384
1588	0.3142
1579	0.4398
1570	0.5182
1561	0.5744
1552	0.6191
1543	0.6588
1534	0.6848
1525	0.7068
1516	0.7293
1507	0.7451
1498	0.7415
1489	0.7353
1480	0.744
1471	0.7514
1462	0.7465
1453	0.7221
1444	0.6142
1435	0.5662
1426	0.547
1417	0.3232
1408	0.284
1399	0.3775
1390	0.3027
1381	0.2796
1372	0.2993
1363	0.3534
1354	0.3659
1345	0.2306
1336	0.2699
1327	0.4099
1318	0.5206
1309	0.5944
1300	0.6515
1291	0.701
1282	0.7205
1273	0.639
1264	0.6843
1255	0.725
1246	0.7361
1237	0.6793
1228	0.7571
1219	0.8132
1210	0.7537
1201	0.7376
1192	0.7828
1183	0.8138
1174	0.8232
1165	0.8254
1156	0.8253
1147	0.8245
1138	0.8199
1129	0.7994
1120	0.7225
1111	0.2852
1102	0.4833
1093	0.708
1084	0.7555
1075	0.7525
1066	0.2526
1057	0.5323
1048	0.7041
1039	0.7768
1030	0.8072
1021	0.8275
1012	0.839
1003	0.8445
994	0.6819
985	0.7525
976	0.8
967	0.8058
958	0.8191
949	0.8275
940	0.8304
931	0.8171
922	0.4876
913	0.7028
904	0.8021
895	0.8125
886	0.7775
877	0.7887
868	0.823
859	0.8253
850	0.795
841	0.8017
832	0.8082
823	0.7978
814	0.7661
805	0.7335
796	0.7533
787	0.7071
778	0.614
769	0.5877
760	0.6198
751	0.6482
742	0.6307
733	0.5602
724	0.4571
715	0.5404
706	0.6078
697	0.648
688	0.6804
679	0.7088
670	0.7308
661	0.7378
652	0.7341
643	0.5941
634	0.4827
625	0.553
616	0.5799
607	0.3955
598	0.625
589	0.6782
580	0.6864
571	0.6884
562	0.6915
553	0.7008
544	0.7265
535	0.7397
526	0.6762
517	0.7215
508	0.74
499	0.7431
490	0.6128
481	0.5546
472	0.6528
463	0.7097
454	0.7269
445	0.7319
436	0.7308
427	0.7242
418	0.7141
409	0.7001
400	0.6925
391	0.6914
