Infrared Spectrum: AMMONIUM THIOSULFATE
Formula: ( N H4)2 S2 O3
State: SOLID (NUJOL AND FLUOROLUBE MULLS)
Class: COBLENTZ
Instrument: Not specified, most likely a prism, grating, or hybrid spectrometer.
Sampling: TRANSMISSION
Resolution: 4
Origin: MELLON INSTITUTE
MICROMETERS	TRANSMITTANCE
2.036	0.444
2.07588	0.449
2.11576	0.454
2.15564	0.459
2.19552	0.464
2.2354	0.467
2.27528	0.475
2.31516	0.485
2.35504	0.497
2.39492	0.507
2.4348	0.52
2.47468	0.532
2.51456	0.547
2.55444	0.56
2.59432	0.575
2.6342	0.597
2.67408	0.614
2.71396	0.632
2.75384	0.652
2.79372	0.674
2.8336	0.699
2.87348	0.722
2.91336	0.742
2.95324	0.771
2.99312	0.796
3.033	0.777
3.07288	0.614
3.11276	0.507
3.15264	0.464
3.19252	0.444
3.2324	0.435
3.27228	0.425
3.31216	0.412
3.35204	0.402
3.39192	0.4
3.4318	0.404
3.47168	0.412
3.51156	0.409
3.55144	0.405
3.59132	0.402
3.6312	0.41
3.67108	0.422
3.71096	0.434
3.75084	0.449
3.79072	0.464
3.8306	0.475
3.87048	0.494
3.91036	0.505
3.95024	0.517
3.99012	0.527
4.03	0.539
4.06988	0.55
4.10976	0.56
4.14964	0.574
4.18952	0.582
4.2294	0.597
4.26928	0.604
4.30916	0.616
4.34904	0.624
4.38892	0.632
4.4288	0.642
4.46868	0.651
4.50856	0.657
4.54844	0.667
4.58832	0.674
4.6282	0.684
4.66808	0.694
4.70796	0.702
4.74784	0.711
4.78772	0.716
4.8276	0.722
4.86748	0.726
4.90736	0.734
4.94724	0.739
4.98712	0.746
5.027	0.749
5.06688	0.756
5.10676	0.762
5.14664	0.769
5.18652	0.776
5.2264	0.784
5.26628	0.791
5.30616	0.796
5.34604	0.803
5.38592	0.806
5.4258	0.809
5.46568	0.814
5.50556	0.819
5.54544	0.824
5.58532	0.828
5.6252	0.833
5.66508	0.836
5.70496	0.839
5.74484	0.843
5.78472	0.846
5.8246	0.853
5.86448	0.856
5.90436	0.858
5.94424	0.856
5.98412	0.828
6.024	0.813
6.06388	0.806
6.10376	0.838
6.14364	0.873
6.18352	0.901
6.2234	0.931
6.26328	0.953
6.30316	0.964
6.34304	0.969
6.38292	0.974
6.4228	0.976
6.46268	0.983
6.50256	0.984
6.54244	0.983
6.58232	0.983
6.6222	0.991
6.66208	0.986
6.70196	0.971
6.74184	0.928
6.78172	0.859
6.8216	0.769
6.86148	0.704
6.90136	0.627
6.94124	0.549
6.98112	0.5
7.021	0.454
7.06088	0.42
7.10076	0.404
7.14064	0.4
7.18052	0.398
7.2204	0.398
7.26028	0.41
7.30016	0.447
7.34004	0.465
7.37992	0.489
7.4198	0.547
7.45968	0.594
7.49956	0.647
7.53944	0.684
7.57932	0.704
7.6192	0.722
7.65908	0.736
7.69896	0.757
7.73884	0.781
7.77872	0.801
7.8186	0.819
7.85848	0.836
7.89836	0.853
7.93824	0.863
7.97812	0.873
8.018	0.883
8.05788	0.891
8.09776	0.898
8.13764	0.903
8.17752	0.906
8.2174	0.909
8.25728	0.909
8.29716	0.908
8.33704	0.906
8.37692	0.899
8.4168	0.893
8.45668	0.874
8.49656	0.854
8.53644	0.824
8.57632	0.794
8.6162	0.751
8.65608	0.717
8.69596	0.674
8.73584	0.632
8.77572	0.597
8.8156	0.559
8.85548	0.525
8.89536	0.5
8.93524	0.477
8.97512	0.455
9.015	0.442
9.05488	0.424
9.09476	0.412
9.13464	0.402
9.17452	0.397
9.2144	0.388
9.25428	0.385
9.29416	0.383
9.33404	0.383
9.37392	0.383
9.4138	0.382
9.45368	0.38
9.49356	0.378
9.53344	0.38
9.57332	0.383
9.6132	0.397
9.65308	0.414
9.69296	0.435
9.73284	0.454
9.77272	0.472
9.8126	0.505
9.85248	0.529
9.89236	0.552
9.93224	0.57
9.97212	0.577
10.012	0.577
10.0519	0.569
10.0918	0.545
10.1316	0.519
10.1715	0.489
10.2114	0.46
10.2513	0.444
10.2912	0.427
10.331	0.409
10.3709	0.4
10.4108	0.393
10.4507	0.39
10.4906	0.39
10.5304	0.393
10.5703	0.397
10.6102	0.404
10.6501	0.415
10.69	0.435
10.7298	0.45
10.7697	0.467
10.8096	0.485
10.8495	0.504
10.8894	0.527
10.9292	0.544
10.9691	0.559
11.009	0.577
11.0489	0.594
11.0888	0.606
11.1286	0.624
11.1685	0.641
11.2084	0.657
11.2483	0.666
11.2882	0.676
11.328	0.686
11.3679	0.699
11.4078	0.709
11.4477	0.717
11.4876	0.726
11.5274	0.734
11.5673	0.742
11.6072	0.757
11.6471	0.766
11.687	0.777
11.7268	0.786
11.7667	0.794
11.8066	0.804
11.8465	0.813
11.8864	0.821
11.9262	0.829
11.9661	0.838
12.006	0.844
12.0459	0.849
12.0858	0.853
12.1256	0.858
12.1655	0.864
12.2054	0.873
12.2453	0.879
12.2852	0.884
12.325	0.889
12.3649	0.894
12.4048	0.899
12.4447	0.901
12.4846	0.904
12.5244	0.908
12.5643	0.909
12.6042	0.913
12.6441	0.914
12.684	0.916
12.7238	0.921
12.7637	0.923
12.8036	0.924
12.8435	0.924
12.8834	0.926
12.9232	0.928
12.9631	0.928
13.003	0.929
13.0429	0.931
13.0828	0.933
13.1226	0.934
13.1625	0.936
13.2024	0.936
13.2423	0.936
13.2822	0.938
13.322	0.938
13.3619	0.938
13.4018	0.939
13.4417	0.938
13.4816	0.938
13.5214	0.938
13.5613	0.938
13.6012	0.938
13.6411	0.938
13.681	0.938
13.7208	0.936
13.7607	0.936
13.8006	0.936
13.8405	0.938
13.8804	0.938
13.9202	0.934
13.9601	0.933
14	0.934
14.0399	0.933
14.0798	0.933
14.1196	0.929
14.1595	0.929
14.1994	0.924
14.2393	0.921
14.2792	0.909
14.319	0.893
14.3589	0.866
14.3988	0.839
14.4387	0.808
14.4786	0.759
14.5184	0.722
14.5583	0.679
14.5982	0.649
14.6381	0.617
14.678	0.601
14.7178	0.577
14.7577	0.569
14.7976	0.562
14.8375	0.555
14.8774	0.552
14.9172	0.549
14.9571	0.545
14.997	0.542
15.0369	0.539
15.0768	0.535
15.1166	0.534
15.1565	0.532
15.1964	0.53
15.2363	0.529
15.2762	0.527
15.316	0.529
15.3559	0.525
15.3958	0.525
15.4357	0.524
15.4756	0.525
15.5154	0.524
15.5553	0.524
15.5952	0.524
15.6351	0.522
15.675	0.52
15.7148	0.522
15.7547	0.52
15.7946	0.522
15.8345	0.519
15.8744	0.519
15.9142	0.517
15.9541	0.519
15.994	0.52
