Infrared Spectrum: 1,2,5-SELENADIAZOLE-3-CARBOXYLIC ACID, 4-UREIDO POTASSIUM SALT
Formula: C4 H3 K N4 O3 Se
State: SOLID (0.7 mg / 500 mg KBr DISC)
Class: COBLENTZ III
Instrument: PERKIN-ELMER 221 (GRATING)
Instrument parameters: FILTER CHANGE ABOUT 1100 CM ^-^1
Sampling: TRANSMISSION
Resolution: 4
Origin: SOUTHERN RES. INSTITUTE
1/CM	TRANSMITTANCE
610.769	0.794
620	0.791
629.231	0.796
638.461	0.803
647.692	0.813
656.923	0.819
666.154	0.83
675.384	0.845
684.615	0.84
693.846	0.817
703.077	0.755
712.307	0.835
721.538	0.856
730.769	0.853
740	0.833
749.231	0.79
758.461	0.638
767.692	0.702
776.923	0.67
786.154	0.65
795.384	0.687
804.615	0.562
813.846	0.618
823.077	0.8
832.307	0.686
841.538	0.861
850.769	0.872
860	0.876
869.231	0.882
878.461	0.882
887.692	0.88
896.923	0.871
906.154	0.863
915.384	0.85
924.615	0.853
933.846	0.865
943.077	0.875
952.307	0.876
961.538	0.881
970.769	0.875
980	0.862
989.231	0.824
998.461	0.867
1007.69	0.873
1016.92	0.871
1026.15	0.87
1035.38	0.866
1044.62	0.865
1053.85	0.864
1063.08	0.863
1072.31	0.859
1081.54	0.855
1090.77	0.837
1100	0.852
1109.23	0.839
1118.46	0.831
1127.69	0.811
1136.92	0.786
1146.15	0.764
1155.38	0.745
1164.62	0.76
1173.85	0.794
1183.08	0.807
1192.31	0.813
1201.54	0.812
1210.77	0.81
1220	0.8
1229.23	0.782
1238.46	0.756
1247.69	0.545
1256.92	0.629
1266.15	0.787
1275.38	0.787
1284.62	0.785
1293.85	0.786
1303.08	0.782
1312.31	0.776
1321.54	0.76
1330.77	0.718
1340	0.663
1349.23	0.4
1358.46	0.359
1367.69	0.45
1376.92	0.53
1386.15	0.624
1395.38	0.651
1404.62	0.61
1413.85	0.55
1423.08	0.592
1432.31	0.526
1441.54	0.618
1450.77	0.726
1460	0.713
1469.23	0.63
1478.46	0.513
1487.69	0.475
1496.92	0.515
1506.15	0.562
1515.38	0.602
1524.62	0.62
1533.85	0.571
1543.08	0.546
1552.31	0.625
1561.54	0.692
1570.77	0.685
1580	0.611
1589.23	0.473
1598.46	0.366
1607.69	0.346
1616.92	0.359
1626.15	0.25
1635.38	0.343
1644.62	0.553
1653.85	0.649
1663.08	0.714
1672.31	0.716
1681.54	0.649
1690.77	0.396
1700	0.232
1709.23	0.295
1718.46	0.399
1727.69	0.576
1736.92	0.664
1746.15	0.724
1755.38	0.764
1764.62	0.793
1773.85	0.821
1783.08	0.838
1792.31	0.852
1801.54	0.86
1810.77	0.869
1820	0.87
1829.23	0.876
1838.46	0.876
1847.69	0.876
1856.92	0.876
1866.15	0.879
1875.38	0.881
1884.62	0.882
1893.85	0.882
1903.08	0.882
1912.31	0.883
1921.54	0.883
1930.77	0.885
1940	0.883
1949.23	0.88
1958.46	0.878
1967.69	0.883
1976.92	0.89
1986.15	0.891
1995.38	0.89
2004.62	0.887
2013.85	0.886
2023.08	0.89
2032.31	0.89
2041.54	0.889
2050.77	0.891
2060	0.892
2069.23	0.892
2078.46	0.89
2087.69	0.888
2096.92	0.885
2106.15	0.886
2115.38	0.889
2124.62	0.887
2133.85	0.886
2143.08	0.886
2152.31	0.886
2161.54	0.886
2170.77	0.885
2180	0.885
2189.23	0.883
2198.46	0.883
2207.69	0.886
2216.92	0.886
2226.15	0.883
2235.38	0.881
2244.62	0.878
2253.85	0.876
2263.08	0.877
2272.31	0.88
2281.54	0.879
2290.77	0.878
2300	0.879
2309.23	0.873
2318.46	0.872
2327.69	0.871
2336.92	0.872
2346.15	0.873
2355.38	0.873
2364.62	0.873
2373.85	0.873
2383.08	0.872
2392.31	0.872
2401.54	0.872
2410.77	0.871
2420	0.869
2429.23	0.866
2438.46	0.865
2447.69	0.865
2456.92	0.864
2466.15	0.861
2475.38	0.859
2484.62	0.858
2493.85	0.857
2503.08	0.856
2512.31	0.856
2521.54	0.855
2530.77	0.854
2540	0.852
2549.23	0.849
2558.46	0.848
2567.69	0.846
2576.92	0.845
2586.15	0.846
2595.38	0.846
2604.62	0.844
2613.85	0.844
2623.08	0.843
2632.31	0.841
2641.54	0.84
2650.77	0.838
2660	0.836
2669.23	0.833
2678.46	0.831
2687.69	0.829
2696.92	0.826
2706.15	0.827
2715.38	0.826
2724.62	0.823
2733.85	0.82
2743.08	0.818
2752.31	0.815
2761.54	0.812
2770.77	0.808
2780	0.806
2789.23	0.801
2798.46	0.798
2807.69	0.793
2816.92	0.788
2826.15	0.786
2835.38	0.79
2844.62	0.788
2853.85	0.785
2863.08	0.783
2872.31	0.775
2881.54	0.767
2890.77	0.763
2900	0.757
2909.23	0.741
2918.46	0.732
2927.69	0.726
2936.92	0.72
2946.15	0.707
2955.38	0.705
2964.62	0.703
2973.85	0.7
2983.08	0.698
2992.31	0.693
3001.54	0.68
3010.77	0.672
3020	0.653
3029.23	0.646
3038.46	0.636
3047.69	0.62
3056.92	0.595
3066.15	0.576
3075.38	0.563
3084.62	0.539
3093.85	0.53
3103.08	0.52
3112.31	0.518
3121.54	0.525
3130.77	0.556
3140	0.585
3149.23	0.616
3158.46	0.635
3167.69	0.643
3176.92	0.658
3186.15	0.663
3195.38	0.674
3204.62	0.684
3213.85	0.696
3223.08	0.71
3232.31	0.715
3241.54	0.72
3250.77	0.727
3260	0.726
3269.23	0.721
3278.46	0.719
3287.69	0.716
3296.92	0.713
3306.15	0.709
3315.38	0.7
3324.62	0.675
3333.85	0.653
3343.08	0.618
3352.31	0.573
3361.54	0.509
3370.77	0.473
3380	0.463
3389.23	0.515
3398.46	0.613
3407.69	0.684
3416.92	0.703
3426.15	0.718
3435.38	0.731
3444.62	0.752
3453.85	0.755
3463.08	0.763
3472.31	0.769
3481.54	0.775
3490.77	0.778
3500	0.783
3509.23	0.788
3518.46	0.793
3527.69	0.8
3536.92	0.805
3546.15	0.804
3555.38	0.804
3564.62	0.806
3573.85	0.81
3583.08	0.819
3592.31	0.822
3601.54	0.826
3610.77	0.829
3620	0.831
3629.23	0.833
3638.46	0.836
3647.69	0.834
3656.92	0.835
3666.15	0.836
3675.38	0.838
3684.62	0.84
3693.85	0.84
3703.08	0.841
3712.31	0.841
3721.54	0.84
3730.77	0.839
3740	0.838
3749.23	0.837
3758.46	0.835
3767.69	0.83
3776.92	0.83
3786.15	0.83
3795.38	0.831
3804.62	0.832
3813.85	0.831
3823.08	0.83
3832.31	0.83
3841.54	0.83
3850.77	0.83
3860	0.829
3869.23	0.827
3878.46	0.826
3887.69	0.826
3896.92	0.825
3906.15	0.824
3915.38	0.822
3924.62	0.821
3933.85	0.821
3943.08	0.821
3952.31	0.821
3961.54	0.82
3970.77	0.818
3980	0.816
3989.23	0.813
3998.46	0.81
