Infrared Spectrum: Thallium, (2,4-pentanedinato)-
Formula: C5 H7 O2 Tl
State: SOLID (SPLIT MULL), FLUOROLUBE FOR 3800-1330 CM^-^1, NUJOL FOR 1330-400 CM^-^1
Melting point: 154 C (DECOMPOSES)
Class: COBLENTZ II
Instrument: BECKMAN IR-9 (GRATING)
Instrument parameters: ORDER CHANGES: 670, 1200, 2000 CM^-^1
Sampling: TRANSMISSION
Resolution: 2
Origin: DOW CHEMICAL COMPANY
1/CM	TRANSMITTANCE
3800	0.5751
3791	0.5755
3782	0.5759
3773	0.5768
3764	0.5795
3755	0.5824
3746	0.5854
3737	0.5878
3728	0.5895
3719	0.5912
3710	0.5926
3701	0.5938
3692	0.595
3683	0.5955
3674	0.596
3665	0.5967
3656	0.5977
3647	0.5986
3638	0.5992
3629	0.5998
3620	0.6006
3611	0.601
3602	0.6021
3593	0.5983
3584	0.5995
3575	0.6049
3566	0.6065
3557	0.6074
3548	0.6082
3539	0.6085
3530	0.6089
3521	0.6092
3512	0.6094
3503	0.6093
3494	0.6091
3485	0.609
3476	0.6088
3467	0.6089
3458	0.6098
3449	0.6106
3440	0.6115
3431	0.6124
3422	0.6134
3413	0.6145
3404	0.6156
3395	0.6167
3386	0.6178
3377	0.6189
3368	0.6201
3359	0.6212
3350	0.6229
3341	0.6246
3332	0.6262
3323	0.6276
3314	0.6291
3305	0.6304
3296	0.6319
3287	0.6332
3278	0.6347
3269	0.636
3260	0.6374
3251	0.6386
3242	0.6398
3233	0.641
3224	0.6421
3215	0.6434
3206	0.6447
3197	0.6458
3188	0.6471
3179	0.6483
3170	0.6493
3161	0.6501
3152	0.6508
3143	0.6512
3134	0.6528
3125	0.6546
3116	0.6547
3107	0.654
3098	0.6528
3089	0.6496
3080	0.6438
3071	0.6344
3062	0.6366
3053	0.6428
3044	0.6451
3035	0.6454
3026	0.6448
3017	0.6431
3008	0.6399
2999	0.6318
2990	0.6122
2981	0.5879
2972	0.617
2963	0.6187
2954	0.6166
2945	0.6197
2936	0.6136
2927	0.6082
2918	0.611
2909	0.6273
2900	0.6389
2891	0.6476
2882	0.6538
2873	0.6543
2864	0.6544
2855	0.6615
2846	0.6697
2837	0.6753
2828	0.6798
2819	0.683
2810	0.6862
2801	0.6895
2792	0.6926
2783	0.6958
2774	0.6991
2765	0.7021
2756	0.7053
2747	0.7083
2738	0.7111
2729	0.7138
2720	0.7162
2711	0.7189
2702	0.7215
2693	0.724
2684	0.7265
2675	0.7291
2666	0.7311
2657	0.7331
2648	0.7349
2639	0.7364
2630	0.7378
2621	0.7391
2612	0.7403
2603	0.7411
2594	0.7394
2585	0.7404
2576	0.7418
2567	0.7434
2558	0.7449
2549	0.7462
2540	0.7476
2531	0.749
2522	0.7501
2513	0.7512
2504	0.7524
2495	0.7535
2486	0.7547
2477	0.7558
2468	0.7572
2459	0.7569
2450	0.7575
2441	0.7567
2432	0.7547
2423	0.7555
2414	0.7571
2405	0.759
2396	0.761
2387	0.7637
2378	0.7721
2369	0.7792
2360	0.7765
2351	0.7742
2342	0.7725
2333	0.7707
2324	0.7687
2315	0.7669
2306	0.7675
2297	0.769
2288	0.7715
2279	0.7738
2270	0.776
2261	0.778
2252	0.7811
2243	0.7848
2234	0.7891
2225	0.793
2216	0.7971
2207	0.7996
2198	0.8015
2189	0.8033
2180	0.8053
2171	0.808
2162	0.8106
2153	0.8125
2144	0.8147
2135	0.8167
2126	0.8197
2117	0.8227
2108	0.8253
2099	0.8268
2090	0.8283
2081	0.8301
2072	0.8317
2063	0.8331
2054	0.8342
2045	0.8346
2036	0.8354
2027	0.8362
2018	0.8375
2009	0.8392
2000	0.8347
1991	0.8328
1982	0.8371
1973	0.8411
1964	0.8442
1955	0.8434
1946	0.8408
1937	0.8375
1928	0.8391
1919	0.8489
1910	0.8528
1901	0.8542
1892	0.8533
1883	0.8533
1874	0.8563
1865	0.8594
1856	0.8624
1847	0.8639
1838	0.8647
1829	0.8667
1820	0.869
1811	0.8716
1802	0.8742
1793	0.8766
1784	0.8791
1775	0.8808
1766	0.8821
1757	0.8828
1748	0.8832
1739	0.883
1730	0.8818
1721	0.8815
1712	0.8809
1703	0.88
1694	0.8732
1685	0.8718
1676	0.8782
1667	0.8771
1658	0.8733
1649	0.8673
1640	0.8425
1631	0.8026
1622	0.7528
1613	0.5844
1604	0.2831
1595	0.2791
1586	0.3602
1577	0.4762
1568	0.5882
1559	0.6026
1550	0.6397
1541	0.6485
1532	0.6091
1523	0.6262
1514	0.5736
1505	0.2923
1496	0.262
1487	0.6094
1478	0.7106
1469	0.6941
1460	0.6059
1451	0.4535
1442	0.4628
1433	0.4419
1424	0.5028
1415	0.4852
1406	0.3642
1397	0.1462
1388	0.0777
1379	0.09
1370	0.2321
1361	0.3799
1352	0.4605
1343	0.4722
1334	0.4842
1325	0.5793
1316	0.6169
1307	0.637
1298	0.6549
1289	0.6728
1280	0.6907
1271	0.7074
1262	0.7232
1253	0.7315
1244	0.7204
1235	0.5108
1226	0.6329
1217	0.7319
1208	0.7435
1199	0.6369
1190	0.7318
1181	0.7485
1172	0.7528
1163	0.7593
1154	0.763
1145	0.7721
1136	0.7815
1127	0.7865
1118	0.7953
1109	0.7978
1100	0.7984
1091	0.7993
1082	0.7983
1073	0.8017
1064	0.8034
1055	0.8053
1046	0.8068
1037	0.8015
1028	0.7804
1019	0.7048
1010	0.4642
1001	0.6739
992	0.7792
983	0.7953
974	0.8026
965	0.813
956	0.8193
947	0.8242
938	0.8216
929	0.8156
920	0.738
911	0.5322
902	0.7244
893	0.7962
884	0.8145
875	0.8233
866	0.8286
857	0.8304
848	0.8332
839	0.8375
830	0.8412
821	0.8441
812	0.8448
803	0.8427
794	0.8387
785	0.8278
776	0.7391
767	0.605
758	0.778
749	0.8083
740	0.8022
731	0.7794
722	0.7615
713	0.8264
704	0.8564
695	0.8685
686	0.8731
677	0.8685
668	0.8739
659	0.854
650	0.7592
641	0.8534
632	0.8761
623	0.8781
614	0.8786
605	0.8815
596	0.8808
587	0.879
578	0.8787
569	0.8795
560	0.8812
551	0.8806
542	0.8717
533	0.8342
524	0.5901
515	0.8462
506	0.863
497	0.8605
488	0.8521
479	0.8396
470	0.8264
461	0.8115
452	0.7901
443	0.7603
434	0.708
425	0.6347
416	0.5554
407	0.4555
