Infrared Spectrum: 2-Imidazoline, 2,2'-[dithiobis(ethyleneimino)]di-, dihydroiodide
Formula: C10 H22 I2 N6 S2
State: SOLID (0.8 mg / 650 mg KBr DISC)
Class: COBLENTZ III
Instrument: PERKIN-ELMER 221 (GRATING)
Instrument parameters: FILTER AT 2490, 980 CM^-^1. GRATING 4000-1428 CM^-^1, NaCl PRISM 1428-650 CM^-^1
Sampling: TRANSMISSION
Resolution: 2
Origin: SOUTHERN RESEARCH INSTITUTE
1/CM	TRANSMITTANCE
576.6	0.9908
585.656	0.9851
594.713	0.9836
603.769	0.9818
612.825	0.9798
621.881	0.9782
630.938	0.9761
639.994	0.9696
649.05	0.9585
658.107	0.9406
667.163	0.9111
676.219	0.9055
685.275	0.9205
694.332	0.9102
703.388	0.865
712.444	0.8411
721.501	0.8919
730.557	0.9277
739.613	0.9343
748.669	0.9345
757.726	0.8901
766.782	0.8733
775.838	0.9366
784.895	0.9417
793.951	0.9441
803.007	0.9446
812.064	0.9442
821.12	0.9429
830.176	0.941
839.232	0.9389
848.289	0.9346
857.345	0.9292
866.401	0.9224
875.458	0.9152
884.514	0.9067
893.57	0.8976
902.626	0.8884
911.683	0.8759
920.739	0.8588
929.795	0.8463
938.852	0.8495
947.908	0.8408
956.964	0.8114
966.02	0.7416
975.077	0.7312
984.133	0.7911
993.189	0.7787
1002.25	0.7602
1011.3	0.7249
1020.36	0.7219
1029.41	0.7603
1038.47	0.7466
1047.53	0.6491
1056.58	0.6006
1065.64	0.8064
1074.7	0.8252
1083.75	0.8244
1092.81	0.815
1101.86	0.813
1110.92	0.8189
1119.98	0.81
1129.03	0.8071
1138.09	0.8218
1147.15	0.8214
1156.2	0.8117
1165.26	0.8062
1174.32	0.7935
1183.37	0.7632
1192.43	0.7342
1201.48	0.7849
1210.54	0.7898
1219.6	0.6684
1228.65	0.7856
1237.71	0.8094
1246.77	0.7974
1255.82	0.7407
1264.88	0.6753
1273.93	0.4323
1282.99	0.6851
1292.05	0.7254
1301.1	0.7703
1310.16	0.8557
1319.22	0.8464
1328.27	0.7663
1337.33	0.7792
1346.38	0.805
1355.44	0.8136
1364.5	0.8165
1373.55	0.7999
1382.61	0.6517
1391.67	0.7426
1400.72	0.7711
1409.78	0.8288
1418.83	0.8283
1427.89	0.8633
1436.95	0.844
1446	0.8295
1455.06	0.7083
1464.12	0.7277
1473.17	0.829
1482.23	0.8302
1491.29	0.8295
1500.34	0.8217
1509.4	0.807
1518.45	0.7875
1527.51	0.7703
1536.57	0.7261
1545.62	0.7107
1554.68	0.6845
1563.74	0.6376
1572.79	0.58
1581.85	0.3845
1590.9	0.1582
1599.96	0.2309
1609.02	0.5514
1618.07	0.6235
1627.13	0.6155
1636.19	0.5819
1645.24	0.5092
1654.3	0.2978
1663.35	0.1866
1672.41	0.1883
1681.47	0.3012
1690.52	0.5559
1699.58	0.754
1708.64	0.8248
1717.69	0.9054
1726.75	0.9279
1735.81	0.9464
1744.86	0.9599
1753.92	0.97
1762.97	0.9731
1772.03	0.9717
1781.09	0.9644
1790.14	0.9594
1799.2	0.9555
1808.26	0.9516
1817.31	0.9472
1826.37	0.9445
1835.42	0.9416
1844.48	0.9378
1853.54	0.9337
1862.59	0.9298
1871.65	0.9255
1880.71	0.9218
1889.76	0.9177
1898.82	0.9136
1907.87	0.9096
1916.93	0.9074
1925.99	0.9002
1935.04	0.8916
1944.1	0.8886
1953.16	0.8869
1962.21	0.8861
1971.27	0.8844
1980.32	0.8829
1989.38	0.8827
1998.44	0.88
2007.49	0.8679
2016.55	0.8657
2025.61	0.8638
2034.66	0.8613
2043.72	0.8584
2052.78	0.8556
2061.83	0.8527
2070.89	0.85
2079.94	0.8484
2089	0.847
2098.06	0.8456
2107.11	0.8441
2116.17	0.8424
2125.23	0.8407
2134.28	0.8389
2143.34	0.837
2152.39	0.8349
2161.45	0.8329
2170.51	0.8308
2179.56	0.8291
2188.62	0.8274
2197.68	0.8258
2206.73	0.8241
2215.79	0.8227
2224.84	0.8214
2233.9	0.8201
2242.96	0.818
2252.01	0.8152
2261.07	0.8124
2270.13	0.811
2279.18	0.81
2288.24	0.8083
2297.3	0.8027
2306.35	0.7966
2315.41	0.7893
2324.46	0.7841
2333.52	0.7815
2342.58	0.7802
2351.63	0.779
2360.69	0.778
2369.75	0.777
2378.8	0.7775
2387.86	0.7789
2396.91	0.7797
2405.97	0.7755
2415.03	0.7725
2424.08	0.7702
2433.14	0.7681
2442.2	0.7662
2451.25	0.7643
2460.31	0.7613
2469.36	0.758
2478.42	0.7566
2487.48	0.7566
2496.53	0.7563
2505.59	0.7533
2514.65	0.7501
2523.7	0.7477
2532.76	0.7453
2541.81	0.7421
2550.87	0.7385
2559.93	0.735
2568.98	0.731
2578.04	0.7271
2587.1	0.7232
2596.15	0.7195
2605.21	0.7159
2614.27	0.7123
2623.32	0.7086
2632.38	0.7048
2641.43	0.7013
2650.49	0.6986
2659.55	0.6961
2668.6	0.6948
2677.66	0.6943
2686.72	0.6943
2695.77	0.6946
2704.83	0.6942
2713.88	0.6885
2722.94	0.6804
2732	0.6717
2741.05	0.6684
2750.11	0.6652
2759.17	0.6547
2768.22	0.6438
2777.28	0.6394
2786.33	0.6468
2795.39	0.6508
2804.45	0.647
2813.5	0.6404
2822.56	0.6305
2831.62	0.6141
2840.67	0.5973
2849.73	0.5824
2858.78	0.572
2867.84	0.5593
2876.9	0.5439
2885.95	0.5402
2895.01	0.5385
2904.07	0.5365
2913.12	0.5333
2922.18	0.5294
2931.24	0.5289
2940.29	0.5301
2949.35	0.5282
2958.4	0.5329
2967.46	0.5346
2976.52	0.5274
2985.57	0.5218
2994.63	0.5167
3003.69	0.5099
3012.74	0.5075
3021.8	0.5073
3030.85	0.4888
3039.91	0.4507
3048.97	0.4447
3058.02	0.4499
3067.08	0.4446
3076.14	0.4261
3085.19	0.4065
3094.25	0.3841
3103.3	0.3548
3112.36	0.3237
3121.42	0.3021
3130.47	0.2825
3139.53	0.2594
3148.59	0.2355
3157.64	0.2114
3166.7	0.1864
3175.76	0.1589
3184.81	0.1379
3193.87	0.1264
3202.92	0.1241
3211.98	0.1257
3221.04	0.1431
3230.09	0.2047
3239.15	0.267
3248.21	0.2918
3257.26	0.304
3266.32	0.3123
3275.37	0.3162
3284.43	0.3219
3293.49	0.3514
3302.54	0.3945
3311.6	0.4276
3320.66	0.4793
3329.71	0.5186
3338.77	0.5629
3347.82	0.6024
3356.88	0.6425
3365.94	0.666
3374.99	0.694
3384.05	0.7094
3393.11	0.7147
3402.16	0.7165
3411.22	0.7194
3420.27	0.7204
3429.33	0.7207
3438.39	0.7218
3447.44	0.723
3456.5	0.7239
3465.56	0.7244
3474.61	0.725
3483.67	0.7256
3492.73	0.7265
3501.78	0.7279
3510.84	0.73
3519.89	0.7329
3528.95	0.7376
3538.01	0.7419
3547.06	0.7457
3556.12	0.7493
3565.18	0.7525
3574.23	0.7556
3583.29	0.7581
3592.34	0.7605
3601.4	0.7628
3610.46	0.7649
3619.51	0.7664
3628.57	0.767
3637.63	0.7674
3646.68	0.7668
3655.74	0.7656
3664.79	0.7639
3673.85	0.7623
3682.91	0.7607
3691.96	0.7591
3701.02	0.7574
3710.08	0.7557
3719.13	0.7533
3728.19	0.7497
3737.25	0.7466
3746.3	0.7448
3755.36	0.7451
3764.41	0.7446
3773.47	0.7422
3782.53	0.7397
3791.58	0.7374
3800.64	0.7364
3809.7	0.7354
3818.75	0.7348
3827.81	0.7342
3836.86	0.7335
3845.92	0.7326
3854.98	0.7316
3864.03	0.7305
3873.09	0.7295
3882.15	0.7278
3891.2	0.7262
3900.26	0.7262
3909.31	0.7212
3918.37	0.7201
3927.43	0.7194
3936.48	0.7188
3945.54	0.719
3954.6	0.7191
3963.65	0.7191
3972.71	0.7191
3981.76	0.719
3990.82	0.7185
3999.88	0.7179
4008.93	0.7173
4017.99	0.7167
