Infrared Spectrum: SABINANE (CIS)
Formula: C10 H18
Class: COBLENTZ
Instrument: Not specified, most likely a prism, grating, or hybrid spectrometer.
Sampling: TRANSMISSION
Resolution: 4
Origin: INTERNATIONAL FLAVORS & FRAGRANCES, INC.
MICROMETERS	TRANSMITTANCE
2.036	0.946
2.07222	0.947
2.10843	0.949
2.14465	0.9499
2.18086	0.949
2.21708	0.944
2.2533	0.927
2.28951	0.8864
2.32573	0.869
2.36194	0.8808
2.39816	0.9011
2.43438	0.906
2.47059	0.9012
2.50681	0.9147
2.54302	0.918
2.57924	0.929
2.61545	0.93
2.65167	0.932
2.68789	0.9439
2.7241	0.946
2.76032	0.947
2.79653	0.952
2.83275	0.952
2.86897	0.949
2.90518	0.946
2.9414	0.943
2.97761	0.941
3.01383	0.943
3.05005	0.946
3.08626	0.9399
3.12248	0.9012
3.15869	0.897
3.19491	0.898
3.23113	0.6926
3.26734	0.5567
3.30356	0.2557
3.33977	0.1017
3.37599	0.076
3.41221	0.079
3.44842	0.0855
3.48464	0.4227
3.52085	0.6926
3.55707	0.8009
3.59328	0.86
3.6295	0.863
3.66572	0.8628
3.70193	0.8967
3.73815	0.906
3.77436	0.909
3.81058	0.907
3.8468	0.9069
3.88301	0.924
3.91923	0.9381
3.95544	0.947
3.99166	0.95
4.02788	0.953
4.06409	0.956
4.10031	0.958
4.13652	0.956
4.17274	0.9491
4.20896	0.946
4.24517	0.961
4.28139	0.967
4.3176	0.969
4.35382	0.967
4.39003	0.955
4.42625	0.958
4.46247	0.958
4.49868	0.958
4.5349	0.96
4.57111	0.966
4.60733	0.966
4.64355	0.9612
4.67976	0.9609
4.71598	0.963
4.75219	0.967
4.78841	0.969
4.82463	0.9632
4.86084	0.9521
4.89706	0.946
4.93327	0.9518
4.96949	0.953
5.00571	0.953
5.04192	0.9575
5.07814	0.963
5.11435	0.96
5.15057	0.958
5.18679	0.9639
5.223	0.966
5.25922	0.9617
5.29543	0.958
5.33165	0.953
5.36786	0.9523
5.40408	0.961
5.4403	0.9594
5.47651	0.958
5.51273	0.963
5.54894	0.964
5.58516	0.953
5.62138	0.9603
5.65759	0.961
5.69381	0.955
5.73002	0.956
5.76624	0.955
5.80246	0.952
5.83867	0.9475
5.87489	0.9465
5.9111	0.941
5.94732	0.937
5.98354	0.937
6.01975	0.933
6.05597	0.9376
6.09218	0.9376
6.1284	0.938
6.16462	0.941
6.20083	0.937
6.23705	0.9394
6.27326	0.94
6.30948	0.938
6.34569	0.94
6.38191	0.938
6.41813	0.943
6.45434	0.94
6.49056	0.9317
6.52677	0.9207
6.56299	0.9072
6.59921	0.8927
6.63542	0.8572
6.67164	0.81
6.70785	0.6328
6.74407	0.4688
6.78029	0.1821
6.8165	0.1716
6.85272	0.251
6.88893	0.3251
6.92515	0.4125
6.96137	0.6459
6.99758	0.7364
7.0338	0.7917
7.07001	0.814
7.10623	0.82
7.14244	0.8117
7.17866	0.6732
7.21488	0.304
7.25109	0.3666
7.28731	0.3695
7.32352	0.3613
7.35974	0.6711
7.39596	0.5635
7.43217	0.5338
7.46839	0.7652
7.5046	0.8191
7.54082	0.7741
7.57704	0.7721
7.61325	0.7474
7.64947	0.7947
7.68568	0.8332
7.7219	0.8165
7.75812	0.8055
7.79433	0.8602
7.83055	0.8746
7.86676	0.8909
7.90298	0.8897
7.9392	0.8393
7.97541	0.6697
8.01163	0.8295
8.04784	0.8819
8.08406	0.8986
8.12027	0.8958
8.15649	0.857
8.19271	0.8874
8.22892	0.8975
8.26514	0.9077
8.30135	0.912
8.33757	0.906
8.37379	0.8878
8.41	0.7823
8.44622	0.8086
8.48243	0.8
8.51865	0.8727
8.55487	0.8919
8.59108	0.8769
8.6273	0.7793
8.66351	0.7312
8.69973	0.7694
8.73595	0.8039
8.77216	0.8604
8.80838	0.867
8.84459	0.864
8.88081	0.8555
8.91703	0.7881
8.95324	0.7949
8.98946	0.7954
9.02567	0.8067
9.06189	0.837
9.0981	0.8012
9.13432	0.7212
9.17054	0.7993
9.20675	0.8669
9.24297	0.8834
9.27918	0.884
9.3154	0.8801
9.35162	0.884
9.38783	0.8652
9.42405	0.7372
9.46026	0.532
9.49648	0.6956
9.5327	0.7949
9.56891	0.7918
9.60513	0.8411
9.64134	0.8634
9.67756	0.8638
9.71378	0.8366
9.74999	0.7229
9.78621	0.5435
9.82242	0.5504
9.85864	0.4727
9.89486	0.5942
9.93107	0.7004
9.96729	0.7943
10.0035	0.8575
10.0397	0.8908
10.0759	0.9031
10.1122	0.91
10.1484	0.913
10.1846	0.9107
10.2208	0.8937
10.257	0.8376
10.2932	0.8124
10.3294	0.8678
10.3657	0.8884
10.4019	0.8838
10.4381	0.8217
10.4743	0.8023
10.5105	0.831
10.5467	0.82
10.583	0.7933
10.6192	0.7942
10.6554	0.8273
10.6916	0.846
10.7278	0.8448
10.764	0.7989
10.8003	0.7116
10.8365	0.7331
10.8727	0.7903
10.9089	0.815
10.9451	0.7868
10.9813	0.768
11.0175	0.7931
11.0538	0.8481
11.09	0.8801
11.1262	0.9033
11.1624	0.9165
11.1986	0.926
11.2348	0.9225
11.2711	0.9199
11.3073	0.917
11.3435	0.917
11.3797	0.9206
11.4159	0.927
11.4521	0.9237
11.4884	0.915
11.5246	0.8742
11.5608	0.7743
11.597	0.8305
11.6332	0.883
11.6694	0.9072
11.7057	0.9235
11.7419	0.926
11.7781	0.926
11.8143	0.9112
11.8505	0.8886
11.8867	0.7478
11.9229	0.7566
11.9592	0.7916
11.9954	0.8379
12.0316	0.8816
12.0678	0.9061
12.104	0.9149
12.1402	0.915
12.1765	0.917
12.2127	0.9127
12.2489	0.8929
12.2851	0.8497
12.3213	0.7782
12.3575	0.7594
12.3938	0.8161
12.43	0.8556
12.4662	0.872
12.5024	0.8839
12.5386	0.887
12.5748	0.889
12.611	0.8893
12.6473	0.89
12.6835	0.892
12.7197	0.886
12.7559	0.8866
12.7921	0.8931
12.8283	0.8756
12.8646	0.866
12.9008	0.8736
12.937	0.8823
12.9732	0.873
13.0094	0.8373
13.0456	0.7552
13.0819	0.654
13.1181	0.7159
13.1543	0.7826
13.1905	0.8191
13.2267	0.8525
13.2629	0.8721
13.2992	0.8858
13.3354	0.8947
13.3716	0.897
13.4078	0.897
13.444	0.897
13.4802	0.894
13.5164	0.892
13.5527	0.89
13.5889	0.8854
13.6251	0.881
13.6613	0.8739
13.6975	0.8602
13.7337	0.8493
13.77	0.8295
13.8062	0.814
13.8424	0.809
13.8786	0.8119
13.9148	0.8255
13.951	0.8391
13.9873	0.8464
14.0235	0.8504
14.0597	0.855
14.0959	0.858
14.1321	0.8588
14.1683	0.858
14.2045	0.8547
14.2408	0.849
14.277	0.8443
14.3132	0.8403
14.3494	0.8315
14.3856	0.807
14.4218	0.7748
14.4581	0.777
14.4943	0.7925
14.5305	0.801
14.5667	0.8071
14.6029	0.8172
14.6391	0.8179
14.6754	0.8141
14.7116	0.811
14.7478	0.809
14.784	0.798
14.8202	0.7949
14.8564	0.7831
14.8927	0.7687
14.9289	0.7472
14.9651	0.7333
15.0013	0.7252
