Infrared Spectrum: PIPERIDINE, 2,4,6-TRIMETHYL-
Formula: C8 H17 N
State: SOLUTION (10% CCl4 FOR 3800-450 CM^-^1)
Class: COBLENTZ
Instrument: DOW KBr FOREPRISM-GRATING
Instrument parameters: BLAZED AT 3.5, 12.0, 20.0 MICRON AND CHANGED AT 5.0, 7.5, 14.9 MICRON
Sampling: TRANSMISSION
Path length: 0.011 CM
Resolution: 2
Origin: DOW CHEMICAL COMPANY
1/CM	TRANSMITTANCE
451	0.7301
460	0.735
469	0.7275
478	0.643
487	0.6414
496	0.6724
505	0.7928
514	0.8446
523	0.8582
532	0.8295
541	0.7855
550	0.4724
559	0.8359
568	0.8248
577	0.8665
586	0.8943
595	0.8327
604	0.8996
613	0.8948
622	0.8524
631	0.8078
640	0.8335
649	0.8637
658	0.8663
667	0.8477
676	0.7951
685	0.7488
694	0.6938
703	0.5256
712	0.4125
721	0.2634
730	0.071
739	0.0005
748	0.0005
757	0.0006
766	0.0006
775	0.0007
784	0.0007
793	0.0007
802	0.0008
811	0.0259
820	0.2106
829	0.4658
838	0.5859
847	0.619
856	0.6528
865	0.6611
874	0.7367
883	0.7815
892	0.7957
901	0.8137
910	0.8058
919	0.8196
928	0.8068
937	0.7972
946	0.8017
955	0.7512
964	0.6978
973	0.6291
982	0.5933
991	0.6137
1000	0.6097
1009	0.6325
1018	0.6782
1027	0.6591
1036	0.7817
1045	0.7482
1054	0.7714
1063	0.7708
1072	0.7606
1081	0.8015
1090	0.7735
1099	0.6858
1108	0.5656
1117	0.4549
1126	0.5008
1135	0.5229
1144	0.6521
1153	0.6574
1162	0.6188
1171	0.6925
1180	0.4674
1189	0.31
1198	0.5731
1207	0.6785
1216	0.6475
1225	0.6981
1234	0.698
1243	0.653
1252	0.6129
1261	0.5847
1270	0.6954
1279	0.6797
1288	0.7471
1297	0.708
1306	0.6342
1315	0.0665
1324	0.6258
1333	0.6553
1342	0.6697
1351	0.7008
1360	0.6265
1369	0.5216
1378	0.1944
1387	0.524
1396	0.7267
1405	0.7261
1414	0.6939
1423	0.415
1432	0.487
1441	0.3562
1450	0.1852
1459	0.1741
1468	0.3305
1477	0.6475
1486	0.7142
1495	0.7168
1504	0.6908
1513	0.6553
1522	0.6167
1531	0.5642
1540	0.4821
1549	0.4377
1558	0.474
1567	0.5465
1576	0.58
1585	0.5919
1594	0.6715
1603	0.7051
1612	0.6921
1621	0.7889
1630	0.8019
1639	0.8058
1648	0.8046
1657	0.8069
1666	0.7954
1675	0.8145
1684	0.821
1693	0.8235
1702	0.8252
1711	0.8261
1720	0.8249
1729	0.8091
1738	0.7832
1747	0.8069
1756	0.8305
1765	0.8337
1774	0.8334
1783	0.8327
1792	0.8328
1801	0.8327
1810	0.8321
1819	0.8315
1828	0.8301
1837	0.8282
1846	0.826
1855	0.8234
1864	0.8245
1873	0.8265
1882	0.8285
1891	0.8302
1900	0.8312
1909	0.8318
1918	0.8327
1927	0.8337
1936	0.8347
1945	0.8357
1954	0.8362
1963	0.8364
1972	0.8367
1981	0.8374
1990	0.8381
1999	0.8374
2008	0.8335
2017	0.8328
2026	0.8328
2035	0.8333
2044	0.8334
2053	0.8335
2062	0.8336
2071	0.8336
2080	0.8339
2089	0.8344
2098	0.834
2107	0.8334
2116	0.8325
2125	0.8312
2134	0.8312
2143	0.833
2152	0.8345
2161	0.8344
2170	0.8339
2179	0.8332
2188	0.8325
2197	0.8321
2206	0.8317
2215	0.831
2224	0.8304
2233	0.8297
2242	0.8288
2251	0.8275
2260	0.8238
2269	0.82
2278	0.8158
2287	0.8134
2296	0.8131
2305	0.8137
2314	0.8151
2323	0.8175
2332	0.823
2341	0.8306
2350	0.8308
2359	0.83
2368	0.8293
2377	0.8284
2386	0.8275
2395	0.8267
2404	0.8254
2413	0.8241
2422	0.8228
2431	0.8209
2440	0.8178
2449	0.8105
2458	0.8026
2467	0.7925
2476	0.7907
2485	0.8074
2494	0.8183
2503	0.8201
2512	0.8182
2521	0.8133
2530	0.8044
2539	0.8003
2548	0.7981
2557	0.7922
2566	0.7787
2575	0.7483
2584	0.6894
2593	0.7118
2602	0.6519
2611	0.5427
2620	0.7095
2629	0.7268
2638	0.7196
2647	0.7271
2656	0.7096
2665	0.6861
2674	0.6697
2683	0.6426
2692	0.597
2701	0.4943
2710	0.481
2719	0.5632
2728	0.5676
2737	0.5997
2746	0.6072
2755	0.5593
2764	0.5075
2773	0.4132
2782	0.3398
2791	0.282
2800	0.1889
2809	0.236
2818	0.317
2827	0.2584
2836	0.2153
2845	0.2456
2854	0.2474
2863	0.1669
2872	0.0644
2881	0.1486
2890	0.0976
2899	0.0465
2908	0.0208
2917	0.0172
2926	0.0197
2935	0.0628
2944	0.0768
2953	0.01
2962	0.0121
2971	0.0313
2980	0.2072
2989	0.5043
2998	0.6148
3007	0.7146
3016	0.7571
3025	0.7818
3034	0.7995
3043	0.8085
3052	0.8142
3061	0.8175
3070	0.8211
3079	0.8242
3088	0.8267
3097	0.8273
3106	0.8271
3115	0.8254
3124	0.8249
3133	0.8259
3142	0.8262
3151	0.8242
3160	0.8205
3169	0.8193
3178	0.8155
3187	0.8251
3196	0.8299
3205	0.8366
3214	0.8421
3223	0.8457
3232	0.8468
3241	0.8468
3250	0.8458
3259	0.8446
3268	0.8436
3277	0.8428
3286	0.8435
3295	0.8427
3304	0.8408
3313	0.8391
3322	0.8411
3331	0.8444
3340	0.8475
3349	0.8502
3358	0.8528
3367	0.8548
3376	0.8565
3385	0.8582
3394	0.8599
3403	0.8615
3412	0.8632
3421	0.8636
3430	0.8642
3439	0.8646
3448	0.865
3457	0.8657
3466	0.8671
3475	0.8713
3484	0.8725
3493	0.8728
3502	0.873
3511	0.8731
3520	0.8733
3529	0.8735
3538	0.8737
3547	0.874
3556	0.874
3565	0.8736
3574	0.8733
3583	0.8728
3592	0.8725
3601	0.8723
3610	0.872
3619	0.8717
3628	0.8714
3637	0.8698
3646	0.868
3655	0.8645
3664	0.8566
3673	0.8592
3682	0.8625
3691	0.8673
3700	0.8711
3709	0.8725
3718	0.8735
3727	0.8736
3736	0.8737
3745	0.8734
3754	0.8732
3763	0.8732
3772	0.8735
3781	0.8737
3790	0.8739
3799	0.8741
