Infrared Spectrum: N-METHYL MORPHOLINE HYDROCHLORIDE
Formula: C5 H12 Cl N O
State: SOLID (KBr PELLET)
Class: COBLENTZ
Instrument: PERKIN-ELMER
Sampling: TRANSMISSION
Resolution: 4
Origin: STANDARD OIL OF OHIO
MICROMETERS	TRANSMITTANCE
2.027	0.252
2.06085	0.262
2.09471	0.272
2.12856	0.282
2.16241	0.291
2.19627	0.301
2.23012	0.308
2.26397	0.301
2.29783	0.308
2.33168	0.325
2.36554	0.333
2.39939	0.347
2.43324	0.356
2.4671	0.361
2.50095	0.374
2.5348	0.39
2.56866	0.4
2.60251	0.403
2.63636	0.408
2.67022	0.419
2.70407	0.431
2.73792	0.431
2.77178	0.407
2.80563	0.347
2.83949	0.32
2.87334	0.281
2.90719	0.272
2.94105	0.275
2.9749	0.311
3.00875	0.349
3.04261	0.379
3.07646	0.393
3.11031	0.419
3.14417	0.431
3.17802	0.439
3.21187	0.439
3.24573	0.42
3.27958	0.385
3.31343	0.267
3.34729	0.247
3.38114	0.146
3.415	0.064
3.44885	0.057
3.4827	0.09
3.51656	0.24
3.55041	0.291
3.58426	0.264
3.61812	0.206
3.65197	0.102
3.68582	0.063
3.71968	0.02
3.75353	0.013
3.78738	0.013
3.82124	0.011
3.85509	0.022
3.88895	0.073
3.9228	0.11
3.95665	0.117
3.99051	0.122
4.02436	0.076
4.05821	0.115
4.09207	0.294
4.12592	0.39
4.15977	0.451
4.19363	0.497
4.22748	0.526
4.26133	0.538
4.29519	0.551
4.32904	0.584
4.36289	0.614
4.39675	0.623
4.4306	0.626
4.46446	0.654
4.49831	0.672
4.53216	0.676
4.56602	0.693
4.59987	0.696
4.63372	0.7
4.66758	0.703
4.70143	0.705
4.73528	0.703
4.76914	0.706
4.80299	0.712
4.83684	0.718
4.8707	0.718
4.90455	0.722
4.93841	0.734
4.97226	0.742
5.00611	0.746
5.03997	0.746
5.07382	0.718
5.10767	0.73
5.14153	0.749
5.17538	0.749
5.20923	0.751
5.24309	0.761
5.27694	0.764
5.31079	0.77
5.34465	0.775
5.3785	0.778
5.41235	0.778
5.44621	0.781
5.48006	0.787
5.51392	0.785
5.54777	0.785
5.58162	0.788
5.61548	0.79
5.64933	0.787
5.68318	0.785
5.71704	0.783
5.75089	0.773
5.78474	0.739
5.8186	0.734
5.85245	0.73
5.8863	0.732
5.92016	0.739
5.95401	0.746
5.98787	0.737
6.02172	0.725
6.05557	0.717
6.08943	0.703
6.12328	0.693
6.15713	0.691
6.19099	0.701
6.22484	0.718
6.25869	0.742
6.29255	0.759
6.3264	0.763
6.36025	0.751
6.39411	0.749
6.42796	0.737
6.46181	0.722
6.49567	0.717
6.52952	0.701
6.56338	0.698
6.59723	0.689
6.63108	0.678
6.66494	0.652
6.69879	0.645
6.73264	0.601
6.7665	0.321
6.80035	0.098
6.8342	0.112
6.86806	0.18
6.90191	0.361
6.93576	0.378
6.96962	0.304
7.00347	0.388
7.03733	0.383
7.07118	0.575
7.10503	0.592
7.13889	0.5
7.17274	0.502
7.20659	0.577
7.24045	0.403
7.2743	0.337
7.30815	0.555
7.34201	0.633
7.37586	0.698
7.40971	0.706
7.44357	0.713
7.47742	0.724
7.51127	0.606
7.54513	0.613
7.57898	0.65
7.61284	0.436
7.64669	0.551
7.68054	0.698
7.7144	0.749
7.74825	0.764
7.7821	0.766
7.81596	0.71
7.84981	0.488
7.88366	0.609
7.91752	0.739
7.95137	0.775
7.98522	0.785
8.01908	0.793
8.05293	0.8
8.08679	0.804
8.12064	0.804
8.15449	0.804
8.18835	0.804
8.2222	0.802
8.25605	0.798
8.28991	0.746
8.32376	0.63
8.35761	0.729
8.39147	0.342
8.42532	0.415
8.45917	0.672
8.49303	0.744
8.52688	0.776
8.56073	0.787
8.59459	0.797
8.62844	0.802
8.6623	0.804
8.69615	0.8
8.73	0.793
8.76386	0.78
8.79771	0.768
8.83156	0.739
8.86542	0.703
8.89927	0.671
8.93312	0.613
8.96698	0.439
9.00083	0.212
9.03468	0.051
9.06854	0.027
9.10239	0.069
9.13625	0.163
9.1701	0.11
9.20395	0.141
9.23781	0.364
9.27166	0.54
9.30551	0.654
9.33937	0.701
9.37322	0.691
9.40707	0.436
9.44093	0.373
9.47478	0.47
9.50863	0.437
9.54249	0.538
9.57634	0.645
9.61019	0.63
9.64405	0.264
9.6779	0.282
9.71176	0.522
9.74561	0.57
9.77946	0.333
9.81332	0.381
9.84717	0.58
9.88102	0.669
9.91488	0.72
9.94873	0.749
9.98258	0.761
10.0164	0.756
10.0503	0.681
10.0841	0.347
10.118	0.144
10.1519	0.255
10.1857	0.34
10.2196	0.533
10.2534	0.649
10.2873	0.71
10.3211	0.741
10.355	0.771
10.3888	0.788
10.4227	0.812
10.4565	0.829
10.4904	0.833
10.5242	0.833
10.5581	0.85
10.5919	0.856
10.6258	0.856
10.6597	0.856
10.6935	0.855
10.7274	0.856
10.7612	0.863
10.7951	0.863
10.8289	0.863
10.8628	0.865
10.8966	0.87
10.9305	0.875
10.9643	0.873
10.9982	0.863
11.032	0.843
11.0659	0.81
11.0998	0.771
11.1336	0.679
11.1675	0.398
11.2013	0.114
11.2352	0.25
11.269	0.533
11.3029	0.701
11.3367	0.778
11.3706	0.802
11.4044	0.809
11.4383	0.798
11.4721	0.746
11.506	0.567
11.5398	0.119
11.5737	0.063
11.6076	0.248
11.6414	0.499
11.6753	0.666
11.7091	0.752
11.743	0.78
11.7768	0.802
11.8107	0.826
11.8445	0.858
11.8784	0.879
11.9122	0.884
11.9461	0.884
11.9799	0.882
12.0138	0.88
12.0477	0.884
12.0815	0.892
12.1154	0.896
12.1492	0.901
12.1831	0.901
12.2169	0.904
12.2508	0.909
12.2846	0.913
12.3185	0.911
12.3523	0.908
12.3862	0.906
12.42	0.902
12.4539	0.902
12.4877	0.901
12.5216	0.899
12.5555	0.897
12.5893	0.889
12.6232	0.885
12.657	0.885
12.6909	0.882
12.7247	0.875
12.7586	0.873
12.7924	0.879
12.8263	0.889
12.8601	0.897
12.894	0.899
12.9278	0.901
12.9617	0.901
12.9955	0.902
13.0294	0.901
13.0633	0.901
13.0971	0.899
13.131	0.894
13.1648	0.894
13.1987	0.897
13.2325	0.897
13.2664	0.896
13.3002	0.89
13.3341	0.887
13.3679	0.882
13.4018	0.882
13.4356	0.887
13.4695	0.889
13.5034	0.889
13.5372	0.885
13.5711	0.875
13.6049	0.873
13.6388	0.87
13.6726	0.872
13.7065	0.877
13.7403	0.877
13.7742	0.873
13.808	0.862
13.8419	0.856
13.8757	0.855
13.9096	0.855
13.9434	0.858
13.9773	0.86
14.0112	0.862
14.045	0.856
14.0789	0.85
14.1127	0.846
14.1466	0.844
14.1804	0.843
14.2143	0.843
14.2481	0.843
14.282	0.843
14.3158	0.834
14.3497	0.827
14.3835	0.822
14.4174	0.819
14.4513	0.817
14.4851	0.816
14.519	0.814
14.5528	0.814
14.5867	0.809
14.6205	0.802
14.6544	0.795
14.6882	0.792
14.7221	0.785
14.7559	0.785
14.7898	0.778
14.8236	0.776
14.8575	0.776
14.8913	0.766
14.9252	0.761
14.9591	0.761
14.9929	0.756
15.0268	0.742
15.0606	0.742
15.0945	0.744
15.1283	0.744
15.1622	0.744
15.196	0.742
15.2299	0.732
15.2637	0.732
15.2976	0.729
15.3314	0.72
15.3653	0.713
15.3992	0.712
15.433	0.7
15.4669	0.705
