Infrared Spectrum: 3',3''-DICHLOROPHENOL SULFONEPHTHALEIN MONO SODIUM SALT
Formula: C19 H11 Cl2 O5 S Na
State: SOLID (MULL)
Class: COBLENTZ
Instrument: Not specified, most likely a prism, grating, or hybrid spectrometer.
Sampling: TRANSMISSION
Resolution: 4
Origin: WYANDOTTE CHEMICALS CORP., WYANDOTTE, MICHIGAN, USA
MICROMETERS	TRANSMITTANCE
2.006	0.333
2.04488	0.327
2.08377	0.325
2.12265	0.324
2.16153	0.322
2.20042	0.325
2.2393	0.327
2.27818	0.327
2.31707	0.327
2.35595	0.337
2.39483	0.346
2.43372	0.358
2.4726	0.364
2.51148	0.366
2.55037	0.38
2.58925	0.392
2.62813	0.4
2.66702	0.406
2.7059	0.379
2.74478	0.317
2.78367	0.27
2.82255	0.231
2.86143	0.213
2.90032	0.197
2.9392	0.181
2.97808	0.186
3.01697	0.192
3.05585	0.194
3.09473	0.192
3.13362	0.189
3.1725	0.192
3.21138	0.189
3.25027	0.184
3.28915	0.166
3.32803	0.061
3.36692	0.03
3.4058	0.035
3.44468	0.035
3.48357	0.035
3.52245	0.23
3.56133	0.358
3.60022	0.38
3.6391	0.377
3.67798	0.372
3.71687	0.382
3.75575	0.387
3.79463	0.395
3.83352	0.408
3.8724	0.419
3.91128	0.423
3.95017	0.452
3.98905	0.468
4.02793	0.484
4.06682	0.486
4.1057	0.492
4.14458	0.494
4.18347	0.513
4.22235	0.52
4.26123	0.525
4.30012	0.536
4.339	0.552
4.37788	0.575
4.41677	0.591
4.45565	0.596
4.49453	0.601
4.53342	0.609
4.5723	0.611
4.61118	0.625
4.65007	0.628
4.68895	0.636
4.72783	0.643
4.76672	0.659
4.8056	0.674
4.84448	0.687
4.88337	0.692
4.92225	0.703
4.96113	0.706
5.00002	0.722
5.0389	0.732
5.07778	0.739
5.11667	0.747
5.15555	0.758
5.19443	0.766
5.23332	0.781
5.2722	0.799
5.31108	0.807
5.34997	0.816
5.38885	0.836
5.42773	0.842
5.46662	0.849
5.5055	0.867
5.54438	0.88
5.58327	0.896
5.62215	0.904
5.66103	0.928
5.69992	0.93
5.7388	0.938
5.77768	0.923
5.81657	0.935
5.85545	0.94
5.89433	0.918
5.93322	0.878
5.9721	0.769
6.01098	0.632
6.04987	0.478
6.08875	0.264
6.12763	0.188
6.16652	0.2
6.2054	0.163
6.24428	0.186
6.28317	0.235
6.32205	0.247
6.36093	0.285
6.39982	0.397
6.4387	0.461
6.47758	0.492
6.51647	0.413
6.55535	0.317
6.59423	0.244
6.63312	0.188
6.672	0.181
6.71088	0.153
6.74977	0.069
6.78865	0.051
6.82753	0.085
6.86642	0.149
6.9053	0.213
6.94418	0.257
6.98307	0.286
7.02195	0.293
7.06083	0.296
7.09972	0.338
7.1386	0.364
7.17748	0.247
7.21637	0.149
7.25525	0.228
7.29413	0.265
7.33302	0.21
7.3719	0.149
7.41078	0.199
7.44967	0.209
7.48855	0.212
7.52743	0.272
7.56632	0.314
7.6052	0.286
7.64408	0.236
7.68297	0.246
7.72185	0.264
7.76073	0.309
7.79962	0.348
7.8385	0.354
7.87738	0.335
7.91627	0.303
7.95515	0.272
7.99403	0.241
8.03292	0.184
8.0718	0.152
8.11068	0.144
8.14957	0.147
8.18845	0.15
8.22733	0.157
8.26622	0.155
8.3051	0.15
8.34398	0.15
8.38287	0.145
8.42175	0.139
8.46063	0.147
8.49952	0.153
8.5384	0.17
8.57728	0.202
8.61617	0.233
8.65505	0.236
8.69393	0.181
8.73282	0.149
8.7717	0.158
8.81058	0.173
8.84947	0.217
8.88835	0.299
8.92723	0.353
8.96612	0.414
9.005	0.455
9.04388	0.416
9.08277	0.299
9.12165	0.244
9.16053	0.272
9.19942	0.345
9.2383	0.426
9.27718	0.47
9.31607	0.515
9.35495	0.52
9.39383	0.45
9.43272	0.431
9.4716	0.46
9.51048	0.426
9.54937	0.431
9.58825	0.52
9.62713	0.507
9.66602	0.388
9.7049	0.197
9.74378	0.139
9.78267	0.147
9.82155	0.218
9.86043	0.34
9.89932	0.423
9.9382	0.489
9.97708	0.531
10.016	0.564
10.0549	0.585
10.0937	0.598
10.1326	0.609
10.1715	0.615
10.2104	0.619
10.2493	0.606
10.2882	0.533
10.327	0.473
10.3659	0.437
10.4048	0.447
10.4437	0.447
10.4826	0.448
10.5215	0.448
10.5603	0.455
10.5992	0.518
10.6381	0.521
10.677	0.465
10.7159	0.419
10.7548	0.419
10.7936	0.447
10.8325	0.453
10.8714	0.482
10.9103	0.533
10.9492	0.564
10.9881	0.576
11.0269	0.58
11.0658	0.573
11.1047	0.572
11.1436	0.58
11.1825	0.591
11.2214	0.602
11.2602	0.609
11.2991	0.614
11.338	0.632
11.3769	0.645
11.4158	0.67
11.4547	0.685
11.4935	0.696
11.5324	0.692
11.5713	0.67
11.6102	0.643
11.6491	0.622
11.688	0.602
11.7268	0.593
11.7657	0.593
11.8046	0.589
11.8435	0.573
11.8824	0.538
11.9213	0.499
11.9601	0.458
11.999	0.427
12.0379	0.393
12.0768	0.398
12.1157	0.424
12.1546	0.468
12.1934	0.536
12.2323	0.601
12.2712	0.641
12.3101	0.667
12.349	0.698
12.3879	0.703
12.4267	0.706
12.4656	0.721
12.5045	0.737
12.5434	0.743
12.5823	0.745
12.6212	0.75
12.66	0.74
12.6989	0.73
12.7378	0.698
12.7767	0.674
12.8156	0.638
12.8545	0.599
12.8933	0.554
12.9322	0.521
12.9711	0.5
13.01	0.476
13.0489	0.457
13.0878	0.437
13.1266	0.442
13.1655	0.45
13.2044	0.481
13.2433	0.491
13.2822	0.489
13.3211	0.489
13.3599	0.505
13.3988	0.492
13.4377	0.482
13.4766	0.476
13.5155	0.476
13.5544	0.494
13.5932	0.515
13.6321	0.52
13.671	0.513
13.7099	0.5
13.7488	0.499
13.7877	0.5
13.8265	0.495
13.8654	0.504
13.9043	0.513
13.9432	0.525
13.9821	0.529
14.021	0.539
14.0598	0.538
14.0987	0.544
14.1376	0.546
14.1765	0.549
14.2154	0.554
14.2543	0.564
14.2931	0.567
14.332	0.567
14.3709	0.555
14.4098	0.539
14.4487	0.523
14.4876	0.51
14.5264	0.51
14.5653	0.508
14.6042	0.517
14.6431	0.526
14.682	0.534
14.7209	0.531
14.7597	0.547
14.7986	0.536
14.8375	0.536
14.8764	0.538
14.9153	0.541
14.9542	0.533
14.993	0.507
15.0319	0.491
15.0708	0.486
15.1097	0.504
15.1486	0.518
15.1875	0.531
15.2263	0.542
15.2652	0.542
15.3041	0.533
15.343	0.526
15.3819	0.518
15.4208	0.521
15.4596	0.526
15.4985	0.525
15.5374	0.523
15.5763	0.521
15.6152	0.523
15.6541	0.525
15.6929	0.525
15.7318	0.518
15.7707	0.512
15.8096	0.504
15.8485	0.499
15.8874	0.484
15.9262	0.473
15.9651	0.461
16.004	0.452
