Infrared Spectrum: MANGANESE SULFATE
Formula: Mn S O4  * 2 H2 O
State: SOLID (NUJOL MULL)
Class: COBLENTZ
Instrument: Not specified, most likely a prism, grating, or hybrid spectrometer.
Sampling: TRANSMISSION
Resolution: 4
Origin: MELLON INSTITUTE
MICROMETERS	TRANSMITTANCE
2.042	0.909
2.0819	0.912
2.12181	0.916
2.16171	0.917
2.20161	0.917
2.24151	0.916
2.28142	0.916
2.32132	0.914
2.36122	0.914
2.40113	0.914
2.44103	0.916
2.48093	0.916
2.52083	0.919
2.56074	0.917
2.60064	0.919
2.64054	0.921
2.68045	0.921
2.72035	0.924
2.76025	0.922
2.80015	0.916
2.84006	0.902
2.87996	0.865
2.91986	0.814
2.95977	0.748
2.99967	0.708
3.03957	0.695
3.07947	0.681
3.11938	0.68
3.15928	0.68
3.19918	0.685
3.23909	0.693
3.27899	0.701
3.31889	0.668
3.35879	0.412
3.3987	0.351
3.4386	0.457
3.4785	0.467
3.51841	0.783
3.55831	0.859
3.59821	0.891
3.63811	0.904
3.67802	0.914
3.71792	0.921
3.75782	0.927
3.79773	0.931
3.83763	0.932
3.87753	0.936
3.91743	0.939
3.95734	0.941
3.99724	0.943
4.03714	0.944
4.07705	0.946
4.11695	0.948
4.15685	0.951
4.19675	0.946
4.23666	0.944
4.27656	0.944
4.31646	0.943
4.35637	0.944
4.39627	0.943
4.43617	0.941
4.47607	0.938
4.51598	0.934
4.55588	0.936
4.59578	0.939
4.63569	0.939
4.67559	0.939
4.71549	0.936
4.75539	0.938
4.7953	0.936
4.8352	0.938
4.8751	0.939
4.91501	0.939
4.95491	0.939
4.99481	0.939
5.03471	0.941
5.07462	0.941
5.11452	0.943
5.15442	0.944
5.19433	0.943
5.23423	0.946
5.27413	0.948
5.31403	0.949
5.35394	0.953
5.39384	0.953
5.43374	0.953
5.47365	0.954
5.51355	0.958
5.55345	0.961
5.59335	0.961
5.63326	0.964
5.67316	0.964
5.71306	0.964
5.75297	0.966
5.79287	0.969
5.83277	0.971
5.87267	0.971
5.91258	0.969
5.95248	0.968
5.99238	0.964
6.03229	0.959
6.07219	0.956
6.11209	0.956
6.15199	0.956
6.1919	0.958
6.2318	0.964
6.2717	0.968
6.31161	0.966
6.35151	0.964
6.39141	0.964
6.43131	0.964
6.47122	0.963
6.51112	0.956
6.55102	0.944
6.59093	0.931
6.63083	0.917
6.67073	0.901
6.71063	0.889
6.75054	0.876
6.79044	0.81
6.83034	0.748
6.87025	0.767
6.91015	0.822
6.95005	0.86
6.98995	0.916
7.02986	0.929
7.06976	0.944
7.10966	0.956
7.14957	0.959
7.18947	0.927
7.22937	0.881
7.26927	0.904
7.30918	0.927
7.34908	0.943
7.38898	0.953
7.42889	0.954
7.46879	0.959
7.50869	0.963
7.54859	0.964
7.5885	0.968
7.6284	0.968
7.6683	0.968
7.70821	0.966
7.74811	0.966
7.78801	0.966
7.82791	0.961
7.86782	0.956
7.90772	0.951
7.94762	0.946
7.98753	0.944
8.02743	0.936
8.06733	0.922
8.10723	0.911
8.14714	0.891
8.18704	0.844
8.22694	0.797
8.26685	0.72
8.30675	0.648
8.34665	0.557
8.38655	0.432
8.42646	0.351
8.46636	0.284
8.50626	0.237
8.54617	0.195
8.58607	0.174
8.62597	0.152
8.66587	0.149
8.70578	0.137
8.74568	0.128
8.78558	0.125
8.82549	0.125
8.86539	0.125
8.90529	0.127
8.94519	0.132
8.9851	0.137
9.025	0.149
9.0649	0.167
9.10481	0.206
9.14471	0.257
9.18461	0.329
9.22451	0.403
9.26442	0.489
9.30432	0.551
9.34422	0.587
9.38413	0.651
9.42403	0.701
9.46393	0.726
9.50383	0.752
9.54374	0.768
9.58364	0.788
9.62354	0.807
9.66345	0.82
9.70335	0.824
9.74325	0.778
9.78315	0.757
9.82306	0.77
9.86296	0.804
9.90286	0.825
9.94277	0.839
9.98267	0.85
10.0226	0.862
10.0625	0.869
10.1024	0.876
10.1423	0.881
10.1822	0.886
10.2221	0.894
10.262	0.906
10.3019	0.914
10.3418	0.919
10.3817	0.924
10.4216	0.924
10.4615	0.926
10.5014	0.926
10.5413	0.927
10.5812	0.929
10.6211	0.929
10.661	0.927
10.7009	0.927
10.7408	0.926
10.7807	0.927
10.8206	0.926
10.8605	0.927
10.9004	0.927
10.9403	0.927
10.9802	0.929
11.0201	0.929
11.06	0.926
11.0999	0.926
11.1399	0.926
11.1798	0.924
11.2197	0.919
11.2596	0.917
11.2995	0.914
11.3394	0.907
11.3793	0.902
11.4192	0.891
11.4591	0.887
11.499	0.869
11.5389	0.865
11.5788	0.854
11.6187	0.837
11.6586	0.817
11.6985	0.802
11.7384	0.777
11.7783	0.76
11.8182	0.747
11.8581	0.715
11.898	0.693
11.9379	0.67
11.9778	0.656
12.0177	0.644
12.0576	0.634
12.0975	0.631
12.1374	0.631
12.1773	0.633
12.2172	0.639
12.2571	0.653
12.297	0.673
12.3369	0.688
12.3768	0.703
12.4167	0.72
12.4566	0.742
12.4965	0.762
12.5365	0.778
12.5764	0.788
12.6163	0.802
12.6562	0.807
12.6961	0.819
12.736	0.832
12.7759	0.839
12.8158	0.847
12.8557	0.857
12.8956	0.867
12.9355	0.879
12.9754	0.886
13.0153	0.892
13.0552	0.896
13.0951	0.902
13.135	0.902
13.1749	0.904
13.2148	0.906
13.2547	0.906
13.2946	0.907
13.3345	0.906
13.3744	0.906
13.4143	0.904
13.4542	0.901
13.4941	0.901
13.534	0.899
13.5739	0.899
13.6138	0.896
13.6537	0.896
13.6936	0.891
13.7335	0.882
13.7734	0.877
13.8133	0.874
13.8532	0.872
13.8931	0.876
13.9331	0.876
13.973	0.872
14.0129	0.871
14.0528	0.869
14.0927	0.867
14.1326	0.865
14.1725	0.864
14.2124	0.859
14.2523	0.855
14.2922	0.852
14.3321	0.847
14.372	0.842
14.4119	0.839
14.4518	0.832
14.4917	0.829
14.5316	0.824
14.5715	0.817
14.6114	0.814
14.6513	0.812
14.6912	0.804
14.7311	0.797
14.771	0.78
14.8109	0.777
14.8508	0.782
14.8907	0.77
14.9306	0.747
14.9705	0.726
15.0104	0.706
15.0503	0.683
15.0902	0.67
15.1301	0.659
15.17	0.654
15.2099	0.661
15.2498	0.668
15.2897	0.673
15.3297	0.678
15.3696	0.681
15.4095	0.685
15.4494	0.688
15.4893	0.688
15.5292	0.686
15.5691	0.69
15.609	0.693
15.6489	0.696
15.6888	0.698
15.7287	0.703
15.7686	0.703
15.8085	0.705
15.8484	0.705
15.8883	0.71
15.9282	0.713
15.9681	0.72
16.008	0.723
