Infrared Spectrum: SODIUM PHOSPHATE, DIBASIC
Formula: Na2 H P O4  * 12 H2 O
State: SOLID (NUJOL MULL)
Class: COBLENTZ
Instrument: Not specified, most likely a prism, grating, or hybrid spectrometer.
Sampling: TRANSMISSION
Resolution: 4
Origin: MELLON INSTITUTE
MICROMETERS	TRANSMITTANCE
2.043	0.911
2.08288	0.914
2.12276	0.921
2.16264	0.924
2.20251	0.928
2.24239	0.921
2.28227	0.914
2.32215	0.904
2.36203	0.903
2.40191	0.903
2.44178	0.897
2.48166	0.892
2.52154	0.882
2.56142	0.879
2.6013	0.866
2.64118	0.832
2.68105	0.799
2.72093	0.687
2.76081	0.453
2.80069	0.255
2.84057	0.147
2.88045	0.081
2.92033	0.06
2.9602	0.055
3.00008	0.05
3.03996	0.045
3.07984	0.045
3.11972	0.051
3.1596	0.061
3.19947	0.076
3.23935	0.117
3.27923	0.177
3.31911	0.16
3.35899	0.075
3.39887	0.14
3.43874	0.185
3.47862	0.389
3.5185	0.6
3.55838	0.729
3.59826	0.765
3.63814	0.801
3.67802	0.824
3.71789	0.849
3.75777	0.866
3.79765	0.874
3.83753	0.891
3.87741	0.894
3.91729	0.894
3.95716	0.892
3.99704	0.884
4.03692	0.871
4.0768	0.861
4.11668	0.852
4.15656	0.842
4.19643	0.836
4.23631	0.832
4.27619	0.829
4.31607	0.829
4.35595	0.824
4.39583	0.821
4.43571	0.814
4.47558	0.811
4.51546	0.809
4.55534	0.811
4.59522	0.812
4.6351	0.819
4.67498	0.824
4.71485	0.832
4.75473	0.836
4.79461	0.842
4.83449	0.856
4.87437	0.864
4.91425	0.871
4.95412	0.876
4.994	0.884
5.03388	0.887
5.07376	0.892
5.11364	0.897
5.15352	0.903
5.1934	0.906
5.23327	0.909
5.27315	0.914
5.31303	0.919
5.35291	0.916
5.39279	0.914
5.43267	0.911
5.47254	0.906
5.51242	0.908
5.5523	0.911
5.59218	0.913
5.63206	0.911
5.67194	0.911
5.71181	0.903
5.75169	0.903
5.79157	0.889
5.83145	0.851
5.87133	0.809
5.91121	0.772
5.95108	0.707
5.99096	0.682
6.03084	0.658
6.07072	0.623
6.1106	0.578
6.15048	0.578
6.19036	0.705
6.23023	0.759
6.27011	0.782
6.30999	0.797
6.34987	0.806
6.38975	0.801
6.42963	0.819
6.4695	0.821
6.50938	0.822
6.54926	0.826
6.58914	0.822
6.62902	0.834
6.6689	0.832
6.70877	0.812
6.74865	0.709
6.78853	0.618
6.82841	0.576
6.86829	0.605
6.90817	0.682
6.94805	0.754
6.98792	0.784
7.0278	0.799
7.06768	0.816
7.10756	0.817
7.14744	0.782
7.18732	0.702
7.22719	0.695
7.26707	0.734
7.30695	0.769
7.34683	0.782
7.38671	0.79
7.42659	0.795
7.46646	0.797
7.50634	0.799
7.54622	0.794
7.5861	0.789
7.62598	0.782
7.66586	0.78
7.70574	0.77
7.74561	0.75
7.78549	0.732
7.82537	0.705
7.86525	0.668
7.90513	0.652
7.94501	0.648
7.98488	0.665
8.02476	0.678
8.06464	0.69
8.10452	0.693
8.1444	0.688
8.18428	0.673
8.22415	0.645
8.26403	0.63
8.30391	0.615
8.34379	0.581
8.38367	0.561
8.42355	0.555
8.46343	0.553
8.5033	0.568
8.54318	0.58
8.58306	0.581
8.62294	0.568
8.66282	0.541
8.7027	0.474
8.74257	0.364
8.78245	0.352
8.82233	0.332
8.86221	0.299
8.90209	0.289
8.94197	0.282
8.98184	0.265
9.02172	0.212
9.0616	0.14
9.10148	0.091
9.14136	0.056
9.18124	0.041
9.22112	0.03
9.26099	0.023
9.30087	0.015
9.34075	0.011
9.38063	0.01
9.42051	0.011
9.46039	0.02
9.50026	0.048
9.54014	0.091
9.58002	0.152
9.6199	0.255
9.65978	0.352
9.69966	0.436
9.73953	0.478
9.77941	0.515
9.81929	0.538
9.85917	0.538
9.89905	0.515
9.93893	0.479
9.97881	0.429
10.0187	0.336
10.0586	0.214
10.0984	0.167
10.1383	0.135
10.1782	0.137
10.2181	0.195
10.258	0.239
10.2978	0.292
10.3377	0.329
10.3776	0.344
10.4175	0.351
10.4573	0.362
10.4972	0.416
10.5371	0.473
10.577	0.541
10.6169	0.612
10.6567	0.655
10.6966	0.698
10.7365	0.722
10.7764	0.744
10.8163	0.759
10.8561	0.767
10.896	0.772
10.9359	0.779
10.9758	0.779
11.0156	0.777
11.0555	0.774
11.0954	0.769
11.1353	0.759
11.1752	0.74
11.215	0.704
11.2549	0.672
11.2948	0.642
11.3347	0.573
11.3745	0.521
11.4144	0.429
11.4543	0.397
11.4942	0.364
11.5341	0.331
11.5739	0.319
11.6138	0.329
11.6537	0.371
11.6936	0.404
11.7335	0.458
11.7733	0.493
11.8132	0.53
11.8531	0.553
11.893	0.575
11.9328	0.588
11.9727	0.585
12.0126	0.588
12.0525	0.591
12.0924	0.59
12.1322	0.593
12.1721	0.598
12.212	0.6
12.2519	0.6
12.2918	0.602
12.3316	0.612
12.3715	0.617
12.4114	0.622
12.4513	0.625
12.4911	0.627
12.531	0.625
12.5709	0.625
12.6108	0.615
12.6507	0.607
12.6905	0.602
12.7304	0.595
12.7703	0.585
12.8102	0.573
12.8501	0.563
12.8899	0.561
12.9298	0.551
12.9697	0.536
13.0096	0.528
13.0494	0.516
13.0893	0.506
13.1292	0.505
13.1691	0.503
13.209	0.498
13.2488	0.488
13.2887	0.483
13.3286	0.471
13.3685	0.464
13.4083	0.456
13.4482	0.449
13.4881	0.443
13.528	0.438
13.5679	0.431
13.6077	0.424
13.6476	0.423
13.6875	0.416
13.7274	0.409
13.7673	0.404
13.8071	0.399
13.847	0.401
13.8869	0.399
13.9268	0.397
13.9666	0.396
14.0065	0.397
14.0464	0.396
14.0863	0.392
14.1262	0.392
14.166	0.394
14.2059	0.384
14.2458	0.384
14.2857	0.381
14.3256	0.381
14.3654	0.381
14.4053	0.379
14.4452	0.379
14.4851	0.377
14.5249	0.376
14.5648	0.374
14.6047	0.371
14.6446	0.369
14.6845	0.371
14.7243	0.371
14.7642	0.372
14.8041	0.392
14.844	0.403
14.8839	0.396
14.9237	0.382
14.9636	0.381
15.0035	0.382
15.0434	0.382
15.0832	0.386
15.1231	0.391
15.163	0.396
15.2029	0.404
15.2428	0.411
15.2826	0.413
15.3225	0.416
15.3624	0.429
15.4023	0.431
15.4421	0.433
15.482	0.439
15.5219	0.444
15.5618	0.454
15.6017	0.464
15.6415	0.473
15.6814	0.479
15.7213	0.491
15.7612	0.505
15.8011	0.523
15.8409	0.535
15.8808	0.545
15.9207	0.551
15.9606	0.558
