Infrared Spectrum: N-ISO AMYL ANILINE
Formula: C11 H17 N
State: LIQUID
Class: COBLENTZ
Instrument: Not specified, most likely a grating spectrometer.
Sampling: TRANSMISSION
Path length: 0.0032 CM
Resolution: 4
Origin: STANDARD OIL OF OHIO
MICROMETERS	TRANSMITTANCE
2.039	0.989
2.0726	0.984
2.10619	0.984
2.13979	0.988
2.17338	0.979
2.20698	0.972
2.24058	0.986
2.27417	0.983
2.30777	0.949
2.34136	0.925
2.37496	0.935
2.40856	0.947
2.44215	0.94
2.47575	0.907
2.50934	0.92
2.54294	0.959
2.57654	0.966
2.61013	0.962
2.64373	0.962
2.67732	0.969
2.71092	0.976
2.74452	0.971
2.77811	0.962
2.81171	0.964
2.8453	0.956
2.8789	0.92
2.9125	0.533
2.94609	0.261
2.97969	0.552
3.01328	0.826
3.04688	0.898
3.08048	0.932
3.11407	0.929
3.14767	0.907
3.18126	0.903
3.21486	0.797
3.24846	0.518
3.28205	0.351
3.31565	0.378
3.34925	0.295
3.38284	0.021
3.41644	0.015
3.45003	0.033
3.48363	0.043
3.51723	0.146
3.55082	0.434
3.58442	0.606
3.61801	0.778
3.65161	0.81
3.68521	0.814
3.7188	0.839
3.7524	0.868
3.78599	0.878
3.81959	0.881
3.85319	0.871
3.88678	0.856
3.92038	0.861
3.95397	0.913
3.98757	0.932
4.02117	0.937
4.05476	0.937
4.08836	0.942
4.12195	0.952
4.15555	0.947
4.18915	0.94
4.22274	0.944
4.25634	0.942
4.28993	0.94
4.32353	0.94
4.35713	0.942
4.39072	0.945
4.42432	0.952
4.45791	0.959
4.49151	0.959
4.52511	0.956
4.5587	0.957
4.5923	0.951
4.62589	0.949
4.65949	0.942
4.69309	0.939
4.72668	0.94
4.76028	0.942
4.79387	0.944
4.82747	0.944
4.86107	0.945
4.89466	0.944
4.92826	0.942
4.96185	0.942
4.99545	0.94
5.02905	0.942
5.06264	0.939
5.09624	0.93
5.12983	0.905
5.16343	0.851
5.19703	0.805
5.23062	0.804
5.26422	0.868
5.29781	0.905
5.33141	0.92
5.36501	0.915
5.3986	0.903
5.4322	0.881
5.46579	0.849
5.49939	0.849
5.53299	0.885
5.56658	0.902
5.60018	0.896
5.63378	0.866
5.66737	0.846
5.70097	0.861
5.73456	0.88
5.76816	0.876
5.80176	0.876
5.83535	0.866
5.86895	0.849
5.90254	0.804
5.93614	0.771
5.96974	0.777
6.00333	0.795
6.03693	0.778
6.07052	0.731
6.10412	0.594
6.13772	0.339
6.17131	0.023
6.20491	0.003
6.2385	0.006
6.2721	0.113
6.3057	0.329
6.33929	0.501
6.37289	0.555
6.40648	0.557
6.44008	0.559
6.47368	0.543
6.50727	0.43
6.54087	0.226
6.57446	0.077
6.60806	0.01
6.64166	0.003
6.67525	0.037
6.70885	0.096
6.74244	0.055
6.77604	0.045
6.80964	0.038
6.84323	0.162
6.87683	0.297
6.91042	0.388
6.94402	0.275
6.97762	0.152
7.01121	0.4
7.04481	0.554
7.0784	0.635
7.112	0.66
7.1456	0.646
7.17919	0.467
7.21279	0.266
7.24638	0.287
7.27998	0.231
7.31358	0.265
7.34717	0.496
7.38077	0.53
7.41436	0.449
7.44796	0.206
7.48156	0.143
7.51515	0.059
7.54875	0.015
7.58234	0.018
7.61594	0.082
7.64954	0.157
7.68313	0.189
7.71673	0.195
7.75032	0.243
7.78392	0.211
7.81752	0.201
7.85111	0.165
7.88471	0.131
7.9183	0.119
7.9519	0.116
7.9855	0.087
8.01909	0.168
8.05269	0.376
8.08629	0.484
8.11988	0.494
8.15348	0.432
8.18707	0.41
8.22067	0.547
8.25427	0.603
8.28786	0.636
8.32146	0.652
8.35505	0.643
8.38865	0.601
8.42225	0.452
8.45584	0.146
8.48944	0.136
8.52303	0.31
8.55663	0.38
8.59023	0.423
8.62382	0.305
8.65742	0.162
8.69101	0.197
8.72461	0.285
8.75821	0.39
8.7918	0.52
8.8254	0.552
8.85899	0.577
8.89259	0.641
8.92619	0.684
8.95978	0.701
8.99338	0.679
9.02697	0.652
9.06057	0.609
9.09417	0.493
9.12776	0.359
9.16136	0.298
9.19495	0.385
9.22855	0.527
9.26215	0.564
9.29574	0.51
9.32934	0.451
9.36293	0.543
9.39653	0.631
9.43013	0.689
9.46372	0.702
9.49732	0.677
9.53091	0.663
9.56451	0.699
9.59811	0.719
9.6317	0.719
9.6653	0.592
9.69889	0.542
9.73249	0.591
9.76609	0.699
9.79968	0.722
9.83328	0.726
9.86687	0.716
9.90047	0.711
9.93407	0.701
9.96766	0.657
10.0013	0.53
10.0349	0.381
10.0685	0.422
10.102	0.574
10.1356	0.633
10.1692	0.665
10.2028	0.682
10.2364	0.706
10.27	0.724
10.3036	0.734
10.3372	0.75
10.3708	0.761
10.4044	0.77
10.438	0.761
10.4716	0.753
10.5052	0.741
10.5388	0.733
10.5724	0.728
10.606	0.729
10.6396	0.746
10.6732	0.768
10.7068	0.783
10.7404	0.792
10.774	0.787
10.8076	0.76
10.8412	0.733
10.8748	0.736
10.9084	0.763
10.9419	0.777
10.9755	0.783
11.0091	0.787
11.0427	0.79
11.0763	0.802
11.1099	0.81
11.1435	0.817
11.1771	0.82
11.2107	0.822
11.2443	0.812
11.2779	0.795
11.3115	0.763
11.3451	0.731
11.3787	0.655
11.4123	0.55
11.4459	0.42
11.4795	0.358
11.5131	0.339
11.5467	0.395
11.5803	0.503
11.6139	0.592
11.6475	0.635
11.6811	0.658
11.7147	0.687
11.7483	0.717
11.7818	0.741
11.8154	0.753
11.849	0.76
11.8826	0.765
11.9162	0.771
11.9498	0.775
11.9834	0.775
12.017	0.773
12.0506	0.77
12.0842	0.758
12.1178	0.741
12.1514	0.728
12.185	0.709
12.2186	0.701
12.2522	0.69
12.2858	0.689
12.3194	0.689
12.353	0.687
12.3866	0.695
12.4202	0.702
12.4538	0.706
12.4874	0.711
12.521	0.714
12.5546	0.711
12.5882	0.707
12.6217	0.701
12.6553	0.689
12.6889	0.68
12.7225	0.668
12.7561	0.662
12.7897	0.65
12.8233	0.635
12.8569	0.618
12.8905	0.604
12.9241	0.581
12.9577	0.547
12.9913	0.515
13.0249	0.467
13.0585	0.41
13.0921	0.336
13.1257	0.258
13.1593	0.187
13.1929	0.104
13.2265	0.03
13.2601	0.015
13.2937	0.008
13.3273	0.006
13.3609	0.003
13.3945	0.005
13.4281	0.008
13.4616	0.018
13.4952	0.084
13.5288	0.158
13.5624	0.251
13.596	0.342
13.6296	0.423
13.6632	0.462
13.6968	0.503
13.7304	0.527
13.764	0.548
13.7976	0.555
13.8312	0.564
13.8648	0.57
13.8984	0.576
13.932	0.576
13.9656	0.576
13.9992	0.574
14.0328	0.567
14.0664	0.56
14.1	0.543
14.1336	0.521
14.1672	0.498
14.2008	0.439
14.2344	0.368
14.268	0.285
14.3016	0.202
14.3351	0.146
14.3687	0.101
14.4023	0.054
14.4359	0.032
14.4695	0.03
14.5031	0.055
14.5367	0.114
14.5703	0.194
14.6039	0.304
14.6375	0.361
14.6711	0.402
14.7047	0.43
14.7383	0.449
14.7719	0.464
14.8055	0.483
14.8391	0.498
14.8727	0.501
14.9063	0.511
14.9399	0.52
14.9735	0.537
15.0071	0.533
15.0407	0.527
15.0743	0.525
15.1079	0.523
15.1415	0.523
15.175	0.525
15.2086	0.527
15.2422	0.527
15.2758	0.53
15.3094	0.533
15.343	0.537
15.3766	0.54
