Infrared Spectrum: 4,6-DICHLORO-1-PHENOL-2-SULFONIC ACID, SODIUM SALT
Formula: C6 H3 Cl2 O4 S Na
State: SOLID (MINERAL OIL MULL)
Class: COBLENTZ
Instrument: Not specified, most likely a prism, grating, or hybrid spectrometer.
Sampling: TRANSMISSION
Resolution: 4
Origin: WYANDOTTE CHEMICALS CORP., WYANDOTTE, MICHIGAN, USA
MICROMETERS	TRANSMITTANCE
2.013	0.69
2.05281	0.698
2.09262	0.708
2.13243	0.712
2.17225	0.712
2.21206	0.703
2.25187	0.705
2.29168	0.717
2.33149	0.722
2.3713	0.732
2.41111	0.755
2.45093	0.75
2.49074	0.753
2.53055	0.768
2.57036	0.787
2.61017	0.788
2.64998	0.806
2.6898	0.803
2.72961	0.77
2.76942	0.66
2.80923	0.379
2.84904	0.277
2.88885	0.371
2.92866	0.52
2.96848	0.594
3.00829	0.638
3.0481	0.652
3.08791	0.635
3.12772	0.554
3.16753	0.507
3.20734	0.56
3.24716	0.618
3.28697	0.642
3.32678	0.567
3.36659	0.136
3.4064	0.038
3.44621	0.058
3.48603	0.098
3.52584	0.171
3.56565	0.599
3.60546	0.74
3.64527	0.78
3.68508	0.782
3.72489	0.793
3.76471	0.803
3.80452	0.813
3.84433	0.82
3.88414	0.835
3.92395	0.856
3.96376	0.865
4.00357	0.866
4.04339	0.866
4.0832	0.871
4.12301	0.881
4.16282	0.885
4.20263	0.885
4.24244	0.881
4.28226	0.866
4.32207	0.876
4.36188	0.885
4.40169	0.913
4.4415	0.908
4.48131	0.903
4.52112	0.906
4.56094	0.91
4.60075	0.91
4.64056	0.908
4.68037	0.915
4.72018	0.925
4.75999	0.931
4.7998	0.925
4.83962	0.926
4.87943	0.935
4.91924	0.933
4.95905	0.935
4.99886	0.95
5.03867	0.958
5.07849	0.946
5.1183	0.95
5.15811	0.965
5.19792	0.965
5.23773	0.968
5.27754	0.973
5.31735	0.971
5.35717	0.97
5.39698	0.973
5.43679	0.976
5.4766	0.981
5.51641	0.976
5.55622	0.98
5.59603	0.978
5.63585	0.976
5.67566	0.961
5.71547	0.95
5.75528	0.93
5.79509	0.931
5.8349	0.961
5.87472	0.963
5.91453	0.965
5.95434	0.955
5.99415	0.943
6.03396	0.928
6.07377	0.921
6.11358	0.896
6.1534	0.813
6.19321	0.788
6.23302	0.855
6.27283	0.732
6.31264	0.72
6.35245	0.89
6.39226	0.931
6.43208	0.933
6.47189	0.93
6.5117	0.933
6.55151	0.918
6.59132	0.908
6.63113	0.883
6.67095	0.8
6.71076	0.603
6.75057	0.264
6.79038	0.064
6.83019	0.038
6.87	0.091
6.90981	0.166
6.94963	0.286
6.98944	0.346
7.02925	0.396
7.06906	0.594
7.10887	0.677
7.14868	0.698
7.18849	0.68
7.22831	0.544
7.26812	0.361
7.30793	0.467
7.34774	0.572
7.38755	0.647
7.42736	0.705
7.46718	0.738
7.50699	0.758
7.5468	0.743
7.58661	0.607
7.62642	0.698
7.66623	0.678
7.70604	0.743
7.74586	0.743
7.78567	0.667
7.82548	0.662
7.86529	0.618
7.9051	0.579
7.94491	0.43
7.98472	0.207
8.02454	0.113
8.06435	0.088
8.10416	0.212
8.14397	0.367
8.18378	0.419
8.22359	0.379
8.2634	0.222
8.30322	0.124
8.34303	0.051
8.38284	0.046
8.42265	0.059
8.46246	0.063
8.50227	0.083
8.54209	0.058
8.5819	0.051
8.62171	0.078
8.66152	0.123
8.70133	0.156
8.74114	0.171
8.78095	0.202
8.82077	0.239
8.86058	0.256
8.90039	0.289
8.9402	0.331
8.98001	0.327
9.01982	0.417
9.05963	0.505
9.09945	0.539
9.13926	0.445
9.17907	0.277
9.21888	0.193
9.25869	0.291
9.2985	0.507
9.33832	0.61
9.37813	0.653
9.41794	0.672
9.45775	0.672
9.49756	0.658
9.53737	0.607
9.57718	0.432
9.617	0.141
9.65681	0.094
9.69662	0.326
9.73643	0.487
9.77624	0.622
9.81605	0.69
9.85586	0.723
9.89568	0.747
9.93549	0.773
9.9753	0.78
10.0151	0.797
10.0549	0.8
10.0947	0.81
10.1345	0.813
10.1744	0.816
10.2142	0.82
10.254	0.818
10.2938	0.818
10.3336	0.823
10.3734	0.826
10.4132	0.831
10.453	0.833
10.4928	0.836
10.5327	0.841
10.5725	0.845
10.6123	0.85
10.6521	0.851
10.6919	0.851
10.7317	0.851
10.7715	0.855
10.8113	0.858
10.8512	0.861
10.891	0.866
10.9308	0.868
10.9706	0.871
11.0104	0.875
11.0502	0.881
11.09	0.886
11.1298	0.885
11.1696	0.88
11.2095	0.87
11.2493	0.838
11.2891	0.747
11.3289	0.831
11.3687	0.775
11.4085	0.762
11.4483	0.8
11.4881	0.567
11.5279	0.341
11.5678	0.334
11.6076	0.227
11.6474	0.42
11.6872	0.72
11.727	0.821
11.7668	0.868
11.8066	0.885
11.8464	0.89
11.8863	0.898
11.9261	0.901
11.9659	0.905
12.0057	0.905
12.0455	0.896
12.0853	0.898
12.1251	0.905
12.1649	0.906
12.2047	0.908
12.2446	0.911
12.2844	0.913
12.3242	0.901
12.364	0.858
12.4038	0.72
12.4436	0.657
12.4834	0.742
12.5232	0.84
12.563	0.881
12.6029	0.901
12.6427	0.91
12.6825	0.91
12.7223	0.908
12.7621	0.908
12.8019	0.905
12.8417	0.903
12.8815	0.898
12.9214	0.883
12.9612	0.865
13.001	0.838
13.0408	0.805
13.0806	0.765
13.1204	0.743
13.1602	0.683
13.2	0.6
13.2398	0.464
13.2797	0.487
13.3195	0.562
13.3593	0.565
13.3991	0.509
13.4389	0.399
13.4787	0.281
13.5185	0.222
13.5583	0.221
13.5981	0.259
13.638	0.324
13.6778	0.397
13.7176	0.474
13.7574	0.525
13.7972	0.559
13.837	0.544
13.8768	0.417
13.9166	0.455
13.9564	0.623
13.9963	0.722
14.0361	0.76
14.0759	0.783
14.1157	0.793
14.1555	0.797
14.1953	0.801
14.2351	0.808
14.2749	0.811
14.3148	0.81
14.3546	0.806
14.3944	0.803
14.4342	0.801
14.474	0.797
14.5138	0.792
14.5536	0.785
14.5934	0.782
14.6332	0.777
14.6731	0.765
14.7129	0.757
14.7527	0.75
14.7925	0.742
14.8323	0.725
14.8721	0.715
14.9119	0.692
14.9517	0.677
14.9915	0.657
15.0314	0.633
15.0712	0.6
15.111	0.565
15.1508	0.527
15.1906	0.484
15.2304	0.445
15.2702	0.409
15.31	0.376
15.3499	0.354
15.3897	0.337
15.4295	0.336
15.4693	0.339
15.5091	0.349
15.5489	0.372
15.5887	0.387
15.6285	0.405
15.6683	0.432
15.7082	0.459
15.748	0.475
15.7878	0.499
15.8276	0.515
15.8674	0.532
15.9072	0.54
15.947	0.552
