Infrared Spectrum: STEARIC ACID, LITHIUM SALT
Formula: C18 H35 Li O2
State: SOLID (OIL MULL)
Class: COBLENTZ III
Instrument: BAIRD (PRISM)
Instrument parameters: NaCl PRISM
Sampling: TRANSMISSION
Resolution: 2
Origin: WYANDOTTE CHEMICALS CORP.
MICROMETERS	TRANSMITTANCE
1.99	0.875
2.02904	0.877
2.06808	0.881
2.10712	0.881
2.14616	0.881
2.1852	0.852
2.22424	0.796
2.26328	0.794
2.30232	0.797
2.34136	0.803
2.38041	0.822
2.41945	0.843
2.45849	0.851
2.49753	0.857
2.53657	0.866
2.57561	0.875
2.61465	0.884
2.65369	0.892
2.69273	0.893
2.73177	0.888
2.77081	0.888
2.80985	0.889
2.84889	0.883
2.88793	0.873
2.92697	0.87
2.96601	0.86
3.00505	0.857
3.04409	0.857
3.08313	0.848
3.12217	0.823
3.16122	0.816
3.20026	0.807
3.2393	0.75
3.27834	0.613
3.31738	0.269
3.35642	0.025
3.39546	0.036
3.4345	0.034
3.47354	0.04
3.51258	0.111
3.55162	0.552
3.59066	0.689
3.6297	0.736
3.66874	0.738
3.70778	0.779
3.74682	0.768
3.78586	0.783
3.8249	0.812
3.86394	0.833
3.90298	0.854
3.94203	0.876
3.98107	0.881
4.02011	0.889
4.05915	0.89
4.09819	0.909
4.13723	0.906
4.17627	0.904
4.21531	0.905
4.25435	0.908
4.29339	0.911
4.33243	0.916
4.37147	0.917
4.41051	0.917
4.44955	0.919
4.48859	0.924
4.52763	0.93
4.56667	0.933
4.60571	0.933
4.64475	0.936
4.68379	0.936
4.72284	0.937
4.76188	0.939
4.80092	0.943
4.83996	0.942
4.879	0.942
4.91804	0.939
4.95708	0.938
4.99612	0.936
5.03516	0.941
5.0742	0.943
5.11324	0.941
5.15228	0.941
5.19132	0.937
5.23036	0.938
5.2694	0.938
5.30844	0.937
5.34748	0.942
5.38652	0.941
5.42556	0.939
5.4646	0.941
5.50365	0.939
5.54269	0.938
5.58173	0.933
5.62077	0.931
5.65981	0.924
5.69885	0.903
5.73789	0.895
5.77693	0.904
5.81597	0.872
5.85501	0.886
5.89405	0.886
5.93309	0.881
5.97213	0.867
6.01117	0.85
6.05021	0.812
6.08925	0.751
6.12829	0.671
6.16733	0.528
6.20637	0.283
6.24541	0.071
6.28446	0.042
6.3235	0.144
6.36254	0.098
6.40158	0.172
6.44062	0.351
6.47966	0.531
6.5187	0.555
6.55774	0.638
6.59678	0.661
6.63582	0.631
6.67486	0.584
6.7139	0.46
6.75294	0.15
6.79198	0.069
6.83102	0.073
6.87006	0.055
6.9091	0.123
6.94814	0.334
6.98718	0.523
7.02622	0.589
7.06527	0.36
7.10431	0.166
7.14335	0.424
7.18239	0.47
7.22143	0.34
7.26047	0.375
7.29951	0.49
7.33855	0.585
7.37759	0.585
7.41663	0.605
7.45567	0.615
7.49471	0.689
7.53375	0.613
7.57279	0.704
7.61183	0.672
7.65087	0.634
7.68991	0.693
7.72895	0.716
7.76799	0.747
7.80703	0.735
7.84608	0.768
7.88512	0.767
7.92416	0.773
7.9632	0.778
8.00224	0.786
8.04128	0.786
8.08032	0.767
8.11936	0.779
8.1584	0.805
8.19744	0.812
8.23648	0.799
8.27552	0.803
8.31456	0.825
8.3536	0.822
8.39264	0.805
8.43168	0.827
8.47072	0.833
8.50976	0.832
8.5488	0.825
8.58784	0.824
8.62689	0.825
8.66593	0.829
8.70497	0.845
8.74401	0.851
8.78305	0.852
8.82209	0.851
8.86113	0.833
8.90017	0.765
8.93921	0.786
8.97825	0.829
9.01729	0.791
9.05633	0.757
9.09537	0.813
9.13441	0.835
9.17345	0.835
9.21249	0.829
9.25153	0.825
9.29057	0.824
9.32961	0.825
9.36866	0.829
9.4077	0.832
9.44674	0.833
9.48578	0.833
9.52482	0.83
9.56386	0.832
9.6029	0.834
9.64194	0.829
9.68098	0.827
9.72002	0.83
9.75906	0.832
9.7981	0.829
9.83714	0.825
9.87618	0.814
9.91522	0.828
9.95426	0.843
9.9933	0.852
10.0323	0.859
10.0714	0.854
10.1104	0.857
10.1495	0.854
10.1885	0.852
10.2275	0.843
10.2666	0.829
10.3056	0.829
10.3447	0.841
10.3837	0.845
10.4227	0.844
10.4618	0.841
10.5008	0.829
10.5399	0.825
10.5789	0.838
10.618	0.849
10.657	0.838
10.696	0.821
10.7351	0.781
10.7741	0.752
10.8132	0.772
10.8522	0.803
10.8912	0.819
10.9303	0.822
10.9693	0.834
11.0084	0.846
11.0474	0.854
11.0864	0.852
11.1255	0.848
11.1645	0.844
11.2036	0.817
11.2426	0.799
11.2816	0.796
11.3207	0.822
11.3597	0.813
11.3988	0.802
11.4378	0.825
11.4768	0.835
11.5159	0.843
11.5549	0.845
11.594	0.84
11.633	0.837
11.672	0.825
11.7111	0.811
11.7501	0.753
11.7892	0.74
11.8282	0.801
11.8672	0.806
11.9063	0.821
11.9453	0.825
11.9844	0.83
12.0234	0.833
12.0624	0.834
12.1015	0.828
12.1405	0.827
12.1796	0.822
12.2186	0.801
12.2577	0.765
12.2967	0.727
12.3357	0.738
12.3748	0.79
12.4138	0.818
12.4529	0.824
12.4919	0.827
12.5309	0.828
12.57	0.823
12.609	0.811
12.6481	0.801
12.6871	0.757
12.7261	0.694
12.7652	0.713
12.8042	0.79
12.8433	0.811
12.8823	0.814
12.9213	0.813
12.9604	0.808
12.9994	0.802
13.0385	0.781
13.0775	0.745
13.1165	0.738
13.1556	0.763
13.1946	0.781
13.2337	0.789
13.2727	0.792
13.3117	0.779
13.3508	0.763
13.3898	0.745
13.4289	0.715
13.4679	0.683
13.5069	0.655
13.546	0.665
13.585	0.655
13.6241	0.612
13.6631	0.552
13.7022	0.481
13.7412	0.444
13.7802	0.474
13.8193	0.488
13.8583	0.471
13.8974	0.408
13.9364	0.349
13.9754	0.443
14.0145	0.589
14.0535	0.639
14.0926	0.654
14.1316	0.654
14.1706	0.653
14.2097	0.65
14.2487	0.649
14.2878	0.647
14.3268	0.645
14.3658	0.649
14.4049	0.659
14.4439	0.665
14.483	0.675
14.522	0.68
14.561	0.697
14.6001	0.702
14.6391	0.713
14.6782	0.72
14.7172	0.727
14.7562	0.736
14.7953	0.746
14.8343	0.752
14.8734	0.757
14.9124	0.762
14.9514	0.764
14.9905	0.763
15.0295	0.754
15.0686	0.753
15.1076	0.768
15.1466	0.781
15.1857	0.783
15.2247	0.78
15.2638	0.778
15.3028	0.774
15.3419	0.77
15.3809	0.767
15.4199	0.763
15.459	0.756
15.498	0.751
15.5371	0.748
15.5761	0.748
15.6151	0.748
15.6542	0.742
15.6932	0.737
15.7323	0.732
15.7713	0.727
15.8103	0.721
15.8494	0.719
15.8884	0.715
15.9275	0.712
15.9665	0.708
