Infrared Spectrum: Adenine, 3-benzyl-2-methyl-
Formula: C13 H13 N5
State: SOLID (1 mg / 650 mg KBr DISC)
Class: COBLENTZ III
Instrument: PERKIN-ELMER 221 (GRATING)
Instrument parameters: FILTER AT 2490, 980 CM^-^1. GRATING 4000-1428 CM^-^1, NaCl PRISM 1428-650 CM^-^1
Sampling: TRANSMISSION
Resolution: 2
Origin: SOUTHERN RESEARCH INSTITUTE
1/CM	TRANSMITTANCE
599	0.8312
608	0.8333
617	0.8321
626	0.8268
635	0.8395
644	0.8279
653	0.7505
662	0.8478
671	0.8649
680	0.8575
689	0.7471
698	0.8324
707	0.7183
716	0.648
725	0.6839
734	0.7695
743	0.771
752	0.8085
761	0.8193
770	0.8287
779	0.8187
788	0.9052
797	0.9106
806	0.9146
815	0.9169
824	0.9186
833	0.9182
842	0.9168
851	0.9152
860	0.9134
869	0.8986
878	0.8677
887	0.8537
896	0.8074
905	0.8892
914	0.8966
923	0.8944
932	0.8817
941	0.851
950	0.8749
959	0.8607
968	0.8249
977	0.7469
986	0.7415
995	0.7933
1004	0.8057
1013	0.8087
1022	0.776
1031	0.7467
1040	0.7638
1049	0.7603
1058	0.7392
1067	0.7176
1076	0.7618
1085	0.8019
1094	0.8047
1103	0.7895
1112	0.7233
1121	0.6637
1130	0.7662
1139	0.778
1148	0.7663
1157	0.7326
1166	0.5593
1175	0.3748
1184	0.7887
1193	0.8191
1202	0.7679
1211	0.7789
1220	0.7857
1229	0.7453
1238	0.807
1247	0.8008
1256	0.763
1265	0.7045
1274	0.7231
1283	0.8048
1292	0.8096
1301	0.807
1310	0.7936
1319	0.7412
1328	0.5776
1337	0.7586
1346	0.8162
1355	0.7401
1364	0.6954
1373	0.6932
1382	0.7873
1391	0.7584
1400	0.4874
1409	0.4769
1418	0.5061
1427	0.6141
1436	0.6565
1445	0.4885
1454	0.4678
1463	0.7263
1472	0.8206
1481	0.8193
1490	0.6092
1499	0.7794
1508	0.8252
1517	0.8246
1526	0.8033
1535	0.7524
1544	0.6831
1553	0.3939
1562	0.6973
1571	0.7366
1580	0.6709
1589	0.6132
1598	0.4317
1607	0.2426
1616	0.3608
1625	0.473
1634	0.234
1643	0.0926
1652	0.2679
1661	0.462
1670	0.6656
1679	0.8181
1688	0.8524
1697	0.8603
1706	0.8709
1715	0.8882
1724	0.8958
1733	0.8992
1742	0.8999
1751	0.8984
1760	0.8951
1769	0.893
1778	0.8909
1787	0.8916
1796	0.905
1805	0.9146
1814	0.9172
1823	0.9188
1832	0.9188
1841	0.9187
1850	0.9184
1859	0.918
1868	0.9173
1877	0.9167
1886	0.9155
1895	0.9138
1904	0.9121
1913	0.9104
1922	0.9067
1931	0.9021
1940	0.8993
1949	0.8987
1958	0.8985
1967	0.8983
1976	0.8984
1985	0.8985
1994	0.8986
2003	0.8986
2012	0.8984
2021	0.8982
2030	0.898
2039	0.8977
2048	0.8973
2057	0.8968
2066	0.8963
2075	0.896
2084	0.8958
2093	0.8957
2102	0.8952
2111	0.8946
2120	0.8941
2129	0.8936
2138	0.893
2147	0.8925
2156	0.8922
2165	0.8918
2174	0.8914
2183	0.891
2192	0.8906
2201	0.8902
2210	0.8895
2219	0.8888
2228	0.888
2237	0.8872
2246	0.8849
2255	0.8824
2264	0.8806
2273	0.8792
2282	0.8781
2291	0.8778
2300	0.8777
2309	0.8778
2318	0.878
2327	0.878
2336	0.878
2345	0.8779
2354	0.8761
2363	0.874
2372	0.8719
2381	0.87
2390	0.868
2399	0.8661
2408	0.8642
2417	0.8625
2426	0.8608
2435	0.8596
2444	0.8597
2453	0.8605
2462	0.8623
2471	0.87
2480	0.883
2489	0.8595
2498	0.8507
2507	0.8484
2516	0.8462
2525	0.8439
2534	0.842
2543	0.84
2552	0.8374
2561	0.8348
2570	0.8322
2579	0.8297
2588	0.8276
2597	0.8257
2606	0.8238
2615	0.8218
2624	0.8197
2633	0.8176
2642	0.8157
2651	0.8139
2660	0.812
2669	0.8105
2678	0.8094
2687	0.8061
2696	0.8
2705	0.7939
2714	0.7878
2723	0.7816
2732	0.7783
2741	0.7763
2750	0.775
2759	0.7738
2768	0.7732
2777	0.7726
2786	0.77
2795	0.7648
2804	0.7585
2813	0.75
2822	0.7415
2831	0.7318
2840	0.7225
2849	0.7155
2858	0.7113
2867	0.7049
2876	0.6969
2885	0.6881
2894	0.6763
2903	0.6629
2912	0.658
2921	0.6568
2930	0.6567
2939	0.6558
2948	0.6515
2957	0.6439
2966	0.6336
2975	0.6217
2984	0.6088
2993	0.5969
3002	0.5853
3011	0.5718
3020	0.5575
3029	0.5415
3038	0.5381
3047	0.5206
3056	0.5124
3065	0.5072
3074	0.5049
3083	0.5048
3092	0.5073
3101	0.5116
3110	0.519
3119	0.529
3128	0.543
3137	0.5595
3146	0.574
3155	0.5839
3164	0.6237
3173	0.636
3182	0.6495
3191	0.6693
3200	0.6878
3209	0.6943
3218	0.6968
3227	0.6976
3236	0.6985
3245	0.6933
3254	0.6671
3263	0.6507
3272	0.6433
3281	0.6352
3290	0.6029
3299	0.5995
3308	0.6241
3317	0.6339
3326	0.6512
3335	0.6491
3344	0.6445
3353	0.6334
3362	0.6145
3371	0.5843
3380	0.5368
3389	0.4653
3398	0.3652
3407	0.3394
3416	0.429
3425	0.5464
3434	0.6308
3443	0.6503
3452	0.6621
3461	0.6708
3470	0.6789
3479	0.6864
3488	0.693
3497	0.6996
3506	0.71
3515	0.7384
3524	0.7433
3533	0.7472
3542	0.7513
3551	0.7577
3560	0.7675
3569	0.779
3578	0.7898
3587	0.7984
3596	0.8054
3605	0.8125
3614	0.8217
3623	0.8307
3632	0.836
3641	0.8379
3650	0.8396
3659	0.8411
3668	0.8427
3677	0.8442
3686	0.8449
3695	0.8455
3704	0.8461
3713	0.8466
3722	0.8472
3731	0.8477
3740	0.8479
3749	0.8477
3758	0.8474
3767	0.8472
3776	0.8469
3785	0.8467
3794	0.8464
3803	0.846
3812	0.8456
3821	0.8452
3830	0.8448
3839	0.8444
3848	0.844
3857	0.8435
3866	0.8431
3875	0.8426
3884	0.8419
3893	0.841
3902	0.84
3911	0.839
3920	0.8384
3929	0.8383
3938	0.8383
3947	0.8382
3956	0.8387
3965	0.8393
3974	0.84
3983	0.8395
3992	0.8387
