Infrared Spectrum: 1,1'-FERROCENE DICARBOXYLIC ACID, DIETHYL ESTER
Formula: C16 H18 Fe O4
State: SOLID (MINERAL OIL MULL)
Melting point: 41.5-42 C
Class: COBLENTZ
Instrument: Not specified, most likely a prism, grating, or hybrid spectrometer.
Sampling: TRANSMISSION
Resolution: 4
Origin: WYANDOTTE CHEMICALS CORP., WYANDOTTE, MICHIGAN, USA
MICROMETERS	TRANSMITTANCE
2.034	0.752
2.07476	0.759
2.11551	0.761
2.15627	0.761
2.19702	0.752
2.23778	0.758
2.27854	0.77
2.31929	0.768
2.36005	0.773
2.40081	0.781
2.44156	0.78
2.48232	0.776
2.52307	0.79
2.56383	0.814
2.60459	0.8
2.64534	0.824
2.6861	0.826
2.72686	0.821
2.76761	0.826
2.80837	0.81
2.84912	0.802
2.88988	0.792
2.93064	0.788
2.97139	0.763
3.01215	0.776
3.05291	0.78
3.09366	0.771
3.13442	0.763
3.17517	0.742
3.21593	0.616
3.25669	0.727
3.29744	0.647
3.3382	0.287
3.37896	0.151
3.41971	0.206
3.46047	0.361
3.50122	0.35
3.54198	0.785
3.58274	0.856
3.62349	0.875
3.66425	0.872
3.70501	0.882
3.74576	0.889
3.78652	0.892
3.82727	0.896
3.86803	0.904
3.90879	0.911
3.94954	0.909
3.9903	0.914
4.03106	0.911
4.07181	0.911
4.11257	0.909
4.15332	0.908
4.19408	0.902
4.23484	0.906
4.27559	0.911
4.31635	0.919
4.3571	0.942
4.39786	0.943
4.43862	0.923
4.47937	0.928
4.52013	0.93
4.56089	0.935
4.60164	0.943
4.6424	0.948
4.68315	0.95
4.72391	0.948
4.76467	0.954
4.80542	0.96
4.84618	0.959
4.88694	0.952
4.92769	0.952
4.96845	0.952
5.0092	0.95
5.04996	0.945
5.09072	0.952
5.13147	0.96
5.17223	0.965
5.21299	0.969
5.25374	0.965
5.2945	0.954
5.33525	0.954
5.37601	0.957
5.41677	0.962
5.45752	0.95
5.49828	0.933
5.53904	0.904
5.57979	0.885
5.62055	0.848
5.6613	0.812
5.70206	0.758
5.74282	0.568
5.78357	0.172
5.82433	0.059
5.86509	0.117
5.90584	0.332
5.9466	0.524
5.98735	0.606
6.02811	0.684
6.06887	0.756
6.10962	0.783
6.15038	0.8
6.19114	0.817
6.23189	0.838
6.27265	0.853
6.3134	0.875
6.35416	0.848
6.39492	0.843
6.43567	0.833
6.47643	0.85
6.51718	0.841
6.55794	0.846
6.5987	0.843
6.63945	0.812
6.68021	0.674
6.72097	0.339
6.76172	0.333
6.80248	0.241
6.84323	0.311
6.88399	0.47
6.92475	0.586
6.9655	0.749
7.00626	0.778
7.04702	0.775
7.08777	0.734
7.12853	0.521
7.16928	0.55
7.21004	0.332
7.2508	0.229
7.29155	0.437
7.33231	0.688
7.37307	0.749
7.41382	0.758
7.45458	0.816
7.49533	0.831
7.53609	0.814
7.57685	0.775
7.6176	0.672
7.65836	0.548
7.69912	0.415
7.73987	0.144
7.78063	0.035
7.82138	0.035
7.86214	0.093
7.9029	0.267
7.94365	0.48
7.98441	0.623
8.02517	0.698
8.06592	0.747
8.10668	0.775
8.14743	0.788
8.18819	0.744
8.22895	0.783
8.2697	0.819
8.31046	0.822
8.35121	0.78
8.39197	0.693
8.43273	0.7
8.47348	0.628
8.51424	0.502
8.555	0.367
8.59575	0.236
8.63651	0.163
8.67726	0.078
8.71802	0.052
8.75878	0.081
8.79953	0.202
8.84029	0.4
8.88105	0.548
8.9218	0.601
8.96256	0.62
9.00331	0.708
9.04407	0.754
9.08483	0.773
9.12558	0.797
9.16634	0.802
9.2071	0.814
9.24785	0.81
9.28861	0.766
9.32936	0.804
9.37012	0.812
9.41088	0.805
9.45163	0.81
9.49239	0.732
9.53315	0.521
9.5739	0.448
9.61466	0.388
9.65541	0.291
9.69617	0.238
9.73693	0.398
9.77768	0.431
9.81844	0.333
9.8592	0.441
9.89995	0.596
9.94071	0.695
9.98146	0.752
10.0222	0.79
10.063	0.807
10.1037	0.824
10.1445	0.834
10.1852	0.844
10.226	0.85
10.2668	0.856
10.3075	0.86
10.3483	0.868
10.389	0.873
10.4298	0.877
10.4705	0.88
10.5113	0.877
10.5521	0.88
10.5928	0.88
10.6336	0.872
10.6743	0.841
10.7151	0.773
10.7558	0.565
10.7966	0.442
10.8373	0.458
10.8781	0.628
10.9189	0.732
10.9596	0.788
11.0004	0.8
11.0411	0.79
11.0819	0.81
11.1226	0.846
11.1634	0.86
11.2042	0.862
11.2449	0.867
11.2857	0.873
11.3264	0.873
11.3672	0.884
11.4079	0.882
11.4487	0.855
11.4894	0.85
11.5302	0.826
11.571	0.77
11.6117	0.735
11.6525	0.78
11.6932	0.829
11.734	0.822
11.7747	0.717
11.8155	0.698
11.8563	0.698
11.897	0.718
11.9378	0.724
11.9785	0.587
12.0193	0.538
12.06	0.604
12.1008	0.73
12.1415	0.785
12.1823	0.79
12.2231	0.822
12.2638	0.86
12.3046	0.87
12.3453	0.875
12.3861	0.877
12.4268	0.882
12.4676	0.88
12.5084	0.889
12.5491	0.88
12.5899	0.879
12.6306	0.882
12.6714	0.884
12.7121	0.88
12.7529	0.833
12.7936	0.751
12.8344	0.626
12.8752	0.487
12.9159	0.408
12.9567	0.625
12.9974	0.742
13.0382	0.8
13.0789	0.822
13.1197	0.833
13.1604	0.838
13.2012	0.851
13.242	0.856
13.2827	0.872
13.3235	0.88
13.3642	0.889
13.405	0.901
13.4457	0.897
13.4865	0.899
13.5273	0.901
13.568	0.902
13.6088	0.902
13.6495	0.901
13.6903	0.909
13.731	0.908
13.7718	0.902
13.8125	0.911
13.8533	0.908
13.8941	0.904
13.9348	0.913
13.9756	0.919
14.0163	0.926
14.0571	0.928
14.0978	0.93
14.1386	0.931
14.1794	0.933
14.2201	0.93
14.2609	0.933
14.3016	0.94
14.3424	0.931
14.3831	0.93
14.4239	0.921
14.4646	0.916
14.5054	0.918
14.5462	0.916
14.5869	0.911
14.6277	0.913
14.6684	0.913
14.7092	0.904
14.7499	0.899
14.7907	0.901
14.8315	0.896
14.8722	0.899
14.913	0.899
14.9537	0.89
14.9945	0.868
15.0352	0.827
15.076	0.814
15.1167	0.846
15.1575	0.872
15.1983	0.873
15.239	0.858
15.2798	0.848
15.3205	0.841
15.3613	0.834
15.402	0.827
15.4428	0.817
15.4836	0.809
15.5243	0.798
15.5651	0.79
15.6058	0.79
15.6466	0.781
15.6873	0.77
15.7281	0.759
15.7688	0.749
15.8096	0.746
15.8504	0.724
15.8911	0.724
15.9319	0.722
15.9726	0.7
