Infrared Spectrum: DECABORANE
Formula: B10 H14
State: SOLUTION (21.2 mg/ml IN 2,2-DIMETHYLBUTANE)
Class: COBLENTZ
Instrument: Not specified, most likely a prism, grating, or hybrid spectrometer.
Sampling: TRANSMISSION
Path length: 0.0217 CM CELL, COMPENSATED
Resolution: 4
Origin: KALLERY CHEMICAL COMPANY
MICROMETERS	TRANSMITTANCE
2.013	0.965
2.04727	0.965
2.08154	0.964
2.1158	0.964
2.15007	0.965
2.18434	0.967
2.21861	0.972
2.25287	0.979
2.28714	0.984
2.32141	0.988
2.35568	0.989
2.38995	0.988
2.42421	0.986
2.45848	0.981
2.49275	0.976
2.52702	0.974
2.56128	0.972
2.59555	0.969
2.62982	0.967
2.66409	0.965
2.69836	0.964
2.73262	0.959
2.76689	0.954
2.80116	0.95
2.83543	0.943
2.86969	0.933
2.90396	0.926
2.93823	0.916
2.9725	0.906
3.00677	0.899
3.04103	0.896
3.0753	0.899
3.10957	0.906
3.14384	0.918
3.1781	0.928
3.21237	0.945
3.24664	0.947
3.28091	0.948
3.31518	0.948
3.34944	0.948
3.38371	0.947
3.41798	0.947
3.45225	0.95
3.48651	0.952
3.52078	0.955
3.55505	0.957
3.58932	0.962
3.62359	0.971
3.65785	0.971
3.69212	0.96
3.72639	0.914
3.76066	0.77
3.79492	0.289
3.82919	0.137
3.86346	0.359
3.89773	0.678
3.932	0.87
3.96626	0.902
4.00053	0.926
4.0348	0.943
4.06907	0.95
4.10333	0.954
4.1376	0.955
4.17187	0.957
4.20614	0.96
4.24041	0.96
4.27467	0.96
4.30894	0.96
4.34321	0.959
4.37748	0.959
4.41174	0.959
4.44601	0.955
4.48028	0.954
4.51455	0.95
4.54882	0.945
4.58308	0.945
4.61735	0.948
4.65162	0.955
4.68589	0.957
4.72015	0.959
4.75442	0.959
4.78869	0.959
4.82296	0.959
4.85723	0.959
4.89149	0.959
4.92576	0.957
4.96003	0.954
4.9943	0.931
5.02856	0.926
5.06283	0.913
5.0971	0.884
5.13137	0.826
5.16564	0.843
5.1999	0.829
5.23417	0.77
5.26844	0.768
5.30271	0.814
5.33697	0.873
5.37124	0.897
5.40551	0.909
5.43978	0.911
5.47405	0.918
5.50831	0.921
5.54258	0.918
5.57685	0.921
5.61112	0.926
5.64538	0.935
5.67965	0.94
5.71392	0.94
5.74819	0.936
5.78246	0.93
5.81672	0.928
5.85099	0.928
5.88526	0.928
5.91953	0.928
5.95379	0.928
5.98806	0.926
6.02233	0.925
6.0566	0.919
6.09087	0.909
6.12513	0.897
6.1594	0.885
6.19367	0.875
6.22794	0.856
6.2622	0.735
6.29647	0.689
6.33074	0.689
6.36501	0.696
6.39928	0.684
6.43354	0.645
6.46781	0.586
6.50208	0.512
6.53635	0.437
6.57061	0.369
6.60488	0.345
6.63915	0.35
6.67342	0.39
6.70769	0.41
6.74195	0.432
6.77622	0.439
6.81049	0.442
6.84476	0.442
6.87902	0.442
6.91329	0.442
6.94756	0.449
6.98183	0.471
7.0161	0.654
7.05036	0.766
7.08463	0.819
7.1189	0.848
7.15317	0.85
7.18743	0.846
7.2217	0.843
7.25597	0.841
7.29024	0.841
7.32451	0.843
7.35877	0.85
7.39304	0.863
7.42731	0.89
7.46158	0.916
7.49584	0.93
7.53011	0.943
7.56438	0.952
7.59865	0.957
7.63292	0.964
7.66718	0.967
7.70145	0.972
7.73572	0.976
7.76999	0.981
7.80425	0.984
7.83852	0.982
7.87279	0.979
7.90706	0.974
7.94133	0.964
7.97559	0.955
8.00986	0.954
8.04413	0.954
8.0784	0.957
8.11266	0.957
8.14693	0.96
8.1812	0.959
8.21547	0.959
8.24974	0.955
8.284	0.95
8.31827	0.94
8.35254	0.931
8.38681	0.926
8.42107	0.925
8.45534	0.931
8.48961	0.936
8.52388	0.942
8.55815	0.947
8.59241	0.954
8.62668	0.96
8.66095	0.965
8.69522	0.969
8.72948	0.974
8.76375	0.976
8.79802	0.976
8.83229	0.976
8.86656	0.974
8.90082	0.965
8.93509	0.955
8.96936	0.947
9.00363	0.945
9.03789	0.936
9.07216	0.931
9.10643	0.931
9.1407	0.933
9.17497	0.933
9.20923	0.933
9.2435	0.935
9.27777	0.938
9.31204	0.94
9.3463	0.943
9.38057	0.945
9.41484	0.947
9.44911	0.947
9.48338	0.947
9.51764	0.945
9.55191	0.94
9.58618	0.928
9.62045	0.923
9.65471	0.925
9.68898	0.926
9.72325	0.926
9.75752	0.911
9.79179	0.86
9.82605	0.735
9.86032	0.577
9.89459	0.374
9.92886	0.391
9.96312	0.698
9.99739	0.78
10.0317	0.848
10.0659	0.879
10.1002	0.896
10.1345	0.911
10.1687	0.916
10.203	0.913
10.2373	0.897
10.2715	0.844
10.3058	0.787
10.3401	0.737
10.3743	0.737
10.4086	0.795
10.4429	0.831
10.4771	0.844
10.5114	0.872
10.5457	0.877
10.5799	0.851
10.6142	0.834
10.6485	0.787
10.6827	0.696
10.717	0.705
10.7513	0.712
10.7856	0.688
10.8198	0.616
10.8541	0.582
10.8884	0.621
10.9226	0.71
10.9569	0.805
10.9912	0.867
11.0254	0.875
11.0597	0.868
11.094	0.822
11.1282	0.715
11.1625	0.725
11.1968	0.824
11.231	0.848
11.2653	0.882
11.2996	0.894
11.3338	0.913
11.3681	0.918
11.4024	0.919
11.4366	0.913
11.4709	0.904
11.5052	0.868
11.5394	0.816
11.5737	0.698
11.608	0.643
11.6422	0.642
11.6765	0.695
11.7108	0.778
11.745	0.821
11.7793	0.856
11.8136	0.877
11.8479	0.889
11.8821	0.89
11.9164	0.884
11.9507	0.884
11.9849	0.885
12.0192	0.885
12.0535	0.868
12.0877	0.833
12.122	0.754
12.1563	0.688
12.1905	0.633
12.2248	0.633
12.2591	0.642
12.2933	0.625
12.3276	0.596
12.3619	0.592
12.3961	0.599
12.4304	0.701
12.4647	0.773
12.4989	0.819
12.5332	0.848
12.5675	0.867
12.6017	0.882
12.636	0.885
12.6703	0.884
12.7045	0.879
12.7388	0.865
12.7731	0.855
12.8073	0.826
12.8416	0.798
12.8759	0.725
12.9102	0.647
12.9444	0.575
12.9787	0.531
13.013	0.509
13.0472	0.512
13.0815	0.592
13.1158	0.625
13.15	0.729
13.1843	0.768
13.2186	0.812
13.2528	0.844
13.2871	0.853
13.3214	0.853
13.3556	0.848
13.3899	0.839
13.4242	0.817
13.4584	0.783
13.4927	0.775
13.527	0.787
13.5612	0.804
13.5955	0.81
13.6298	0.809
13.664	0.788
13.6983	0.77
13.7326	0.713
13.7668	0.657
13.8011	0.56
13.8354	0.454
13.8697	0.424
13.9039	0.422
13.9382	0.468
13.9725	0.541
14.0067	0.616
14.041	0.659
14.0753	0.688
14.1095	0.696
14.1438	0.695
14.1781	0.686
14.2123	0.681
14.2466	0.695
14.2809	0.71
14.3151	0.73
14.3494	0.761
14.3837	0.785
14.4179	0.809
14.4522	0.824
14.4865	0.858
14.5207	0.879
14.555	0.894
14.5893	0.902
14.6235	0.906
14.6578	0.914
14.6921	0.919
14.7263	0.926
14.7606	0.93
14.7949	0.933
14.8291	0.936
14.8634	0.938
14.8977	0.94
14.932	0.942
14.9662	0.94
15.0005	0.936
15.0348	0.933
15.069	0.931
15.1033	0.928
15.1376	0.926
15.1718	0.925
15.2061	0.921
15.2404	0.919
15.2746	0.918
15.3089	0.914
15.3432	0.911
15.3774	0.909
15.4117	0.906
15.446	0.901
15.4802	0.897
15.5145	0.894
15.5488	0.89
15.583	0.885
