Infrared Spectrum: Oleic acid, sodium salt
Formula: C18 H33 Na O2
State: SOLUTION (CCl4 FOR 2-11, CS2 FOR 11-16 MICRON) VS SOLVENT
Class: COBLENTZ III
Instrument: BAIRD (GRATING)
Instrument parameters: NaCl PRISM
Path length: 0.01 CM, AND 0.01 CM , REFERENCE CELLS : 0.005 CM
Resolution: 2
Origin: WYANDOTTE CHEMICALS CORP.
1/CM	TRANSMITTANCE
626	0.4216
635	0.4668
644	0.5079
653	0.5394
662	0.5603
671	0.586
680	0.579
689	0.5204
698	0.4187
707	0.4961
716	0.4823
725	0.3914
734	0.4478
743	0.493
752	0.5135
761	0.5109
770	0.5139
779	0.522
788	0.5264
797	0.5958
806	0.6047
815	0.5894
824	0.5367
833	0.5623
842	0.5525
851	0.5397
860	0.5461
869	0.5539
878	0.5592
887	0.5581
896	0.5524
905	0.5512
914	0.7104
923	0.6041
932	0.7473
941	0.7759
950	0.7788
959	0.7592
968	0.7346
977	0.7183
986	0.7115
995	0.737
1004	0.7246
1013	0.7372
1022	0.7829
1031	0.8063
1040	0.8025
1049	0.7982
1058	0.7926
1067	0.7761
1076	0.7828
1085	0.7919
1094	0.7701
1103	0.7589
1112	0.7757
1121	0.7778
1130	0.8248
1139	0.8367
1148	0.8534
1157	0.856
1166	0.8464
1175	0.834
1184	0.8137
1193	0.7796
1202	0.7293
1211	0.7315
1220	0.7162
1229	0.7031
1238	0.6788
1247	0.7165
1256	0.6983
1265	0.6957
1274	0.7014
1283	0.6407
1292	0.7178
1301	0.7201
1310	0.6845
1319	0.6576
1328	0.6409
1337	0.675
1346	0.6217
1355	0.5849
1364	0.6437
1373	0.6017
1382	0.5803
1391	0.5667
1400	0.5272
1409	0.356
1418	0.2652
1427	0.2157
1436	0.1394
1445	0.2169
1454	0.16
1463	0.1756
1472	0.2003
1481	0.3944
1490	0.6447
1499	0.6779
1508	0.6669
1517	0.6302
1526	0.5204
1535	0.4062
1544	0.2351
1553	0.1427
1562	0.0698
1571	0.0649
1580	0.0495
1589	0.0972
1598	0.2306
1607	0.3614
1616	0.4735
1625	0.5891
1634	0.6538
1643	0.7779
1652	0.8154
1661	0.8343
1670	0.8311
1679	0.8929
1688	0.9196
1697	0.9257
1706	0.9345
1715	0.9442
1724	0.9519
1733	0.9605
1742	0.9772
1751	0.9916
1760	0.9964
1769	0.9995
1778	1.0002
1787	1.0011
1796	1.0011
1805	1.0001
1814	0.9989
1823	0.9977
1832	0.9969
1841	0.9962
1850	0.9986
1859	1.0005
1868	1.0003
1877	0.9991
1886	0.998
1895	0.9969
1904	0.9961
1913	0.9952
1922	0.9945
1931	0.9938
1940	0.9926
1949	0.9914
1958	0.9901
1967	0.9886
1976	0.9863
1985	0.9851
1994	0.9844
2003	0.985
2012	0.9858
2021	0.9861
2030	0.9848
2039	0.9838
2048	0.9829
2057	0.982
2066	0.9803
2075	0.9824
2084	0.989
2093	0.9836
2102	0.9795
2111	0.9787
2120	0.9817
2129	0.9809
2138	0.9755
2147	0.9696
2156	0.9633
2165	0.9621
2174	0.9624
2183	0.962
2192	0.9605
2201	0.9588
2210	0.9541
2219	0.9474
2228	0.9419
2237	0.9379
2246	0.9342
2255	0.9323
2264	0.9306
2273	0.9309
2282	0.9308
2291	0.9294
2300	0.9272
2309	0.9247
2318	0.9225
2327	0.9216
2336	0.9212
2345	0.9173
2354	0.9084
2363	0.9025
2372	0.9009
2381	0.8999
2390	0.8989
2399	0.8977
2408	0.8961
2417	0.8946
2426	0.8927
2435	0.8907
2444	0.8883
2453	0.8838
2462	0.8795
2471	0.8743
2480	0.8688
2489	0.868
2498	0.8671
2507	0.8659
2516	0.8647
2525	0.8636
2534	0.8619
2543	0.86
2552	0.8581
2561	0.856
2570	0.8537
2579	0.8503
2588	0.8465
2597	0.8412
2606	0.8351
2615	0.828
2624	0.82
2633	0.8115
2642	0.8016
2651	0.7923
2660	0.7843
2669	0.7764
2678	0.7714
2687	0.7699
2696	0.7685
2705	0.7628
2714	0.7525
2723	0.7414
2732	0.7319
2741	0.7234
2750	0.7163
2759	0.7087
2768	0.6971
2777	0.6697
2786	0.6371
2795	0.6144
2804	0.5781
2813	0.547
2822	0.4715
2831	0.3618
2840	0.2527
2849	0.1596
2858	0.1572
2867	0.1873
2876	0.2209
2885	0.2445
2894	0.2428
2903	0.2127
2912	0.1802
2921	0.1478
2930	0.1156
2939	0.0836
2948	0.0674
2957	0.1506
2966	0.255
2975	0.3588
2984	0.4618
2993	0.5644
3002	0.6086
3011	0.581
3020	0.5443
3029	0.5854
3038	0.6971
3047	0.7929
3056	0.8181
3065	0.8341
3074	0.8435
3083	0.8493
3092	0.8542
3101	0.858
3110	0.8609
3119	0.8633
3128	0.8644
3137	0.8651
3146	0.8649
3155	0.8648
3164	0.864
3173	0.8628
3182	0.8616
3191	0.8611
3200	0.8609
3209	0.861
3218	0.8607
3227	0.859
3236	0.8583
3245	0.8582
3254	0.8582
3263	0.8581
3272	0.8579
3281	0.8577
3290	0.8576
3299	0.8567
3308	0.8554
3317	0.8536
3326	0.8513
3335	0.8501
3344	0.8512
3353	0.8526
3362	0.8541
3371	0.8559
3380	0.858
3389	0.8607
3398	0.8649
3407	0.8696
3416	0.8734
3425	0.8756
3434	0.8774
3443	0.8795
3452	0.8819
3461	0.8841
3470	0.8864
3479	0.8886
3488	0.8908
3497	0.8931
3506	0.8956
3515	0.898
3524	0.9005
3533	0.9029
3542	0.9053
3551	0.9077
3560	0.9103
3569	0.9137
3578	0.9172
3587	0.9206
3596	0.9238
3605	0.9269
3614	0.9295
3623	0.9315
3632	0.9334
3641	0.9346
3650	0.9351
3659	0.9356
3668	0.9361
3677	0.9365
3686	0.9367
3695	0.937
3704	0.9373
3713	0.9375
3722	0.9384
3731	0.94
3740	0.9422
3749	0.9458
3758	0.95
3767	0.9538
3776	0.9575
3785	0.9607
3794	0.9636
3803	0.9643
3812	0.9646
3821	0.9608
3830	0.9559
3839	0.9509
3848	0.9445
3857	0.9417
3866	0.9421
3875	0.9428
3884	0.9441
3893	0.9462
3902	0.947
3911	0.9473
3920	0.9473
3929	0.9464
3938	0.945
3947	0.9414
3956	0.9371
3965	0.9327
3974	0.9292
3983	0.9268
3992	0.9254
