Infrared Spectrum: ZIRCONIUM SULFATE
Formula: Zr S O4  * 4 H2 O
State: SOLID (NUJOL MULL)
Class: COBLENTZ
Instrument: Not specified, most likely a prism, grating, or hybrid spectrometer.
Sampling: TRANSMISSION
Resolution: 4
Origin: MELLON INSTITUTE
MICROMETERS	TRANSMITTANCE
2.016	0.886
2.05588	0.889
2.09576	0.889
2.13564	0.891
2.17552	0.891
2.2154	0.892
2.25528	0.894
2.29516	0.886
2.33504	0.884
2.37492	0.882
2.4148	0.882
2.45468	0.881
2.49456	0.884
2.53444	0.876
2.57432	0.869
2.6142	0.876
2.65408	0.856
2.69396	0.869
2.73384	0.854
2.77372	0.811
2.8136	0.735
2.85348	0.662
2.89336	0.561
2.93324	0.483
2.97312	0.389
3.013	0.334
3.05288	0.321
3.09276	0.299
3.13264	0.29
3.17252	0.299
3.2124	0.322
3.25228	0.364
3.29216	0.403
3.33204	0.367
3.37192	0.202
3.4118	0.245
3.45168	0.332
3.49156	0.399
3.53144	0.635
3.57132	0.678
3.6112	0.704
3.65108	0.719
3.69096	0.734
3.73084	0.744
3.77072	0.755
3.8106	0.767
3.85048	0.774
3.89036	0.782
3.93024	0.787
3.97012	0.789
4.01	0.792
4.04988	0.794
4.08976	0.789
4.12964	0.787
4.16952	0.782
4.2094	0.769
4.24928	0.765
4.28916	0.76
4.32904	0.765
4.36892	0.79
4.4088	0.802
4.44868	0.802
4.48856	0.811
4.52844	0.816
4.56832	0.814
4.6082	0.819
4.64808	0.822
4.68796	0.826
4.72784	0.832
4.76772	0.832
4.8076	0.834
4.84748	0.839
4.88736	0.842
4.92724	0.847
4.96712	0.852
5.007	0.857
5.04688	0.862
5.08676	0.864
5.12664	0.867
5.16652	0.871
5.2064	0.876
5.24628	0.876
5.28616	0.881
5.32604	0.886
5.36592	0.889
5.4058	0.886
5.44568	0.891
5.48556	0.894
5.52544	0.899
5.56532	0.901
5.6052	0.899
5.64508	0.901
5.68496	0.903
5.72484	0.908
5.76472	0.911
5.8046	0.913
5.84448	0.909
5.88436	0.906
5.92424	0.901
5.96412	0.886
6.004	0.749
6.04388	0.638
6.08376	0.613
6.12364	0.546
6.16352	0.662
6.2034	0.789
6.24328	0.842
6.28316	0.862
6.32304	0.874
6.36292	0.879
6.4028	0.886
6.44268	0.889
6.48256	0.896
6.52244	0.897
6.56232	0.899
6.6022	0.903
6.64208	0.918
6.68196	0.913
6.72184	0.911
6.76172	0.891
6.8016	0.802
6.84148	0.73
6.88136	0.735
6.92124	0.774
6.96112	0.826
7.001	0.866
7.04088	0.884
7.08076	0.906
7.12064	0.913
7.16052	0.916
7.2004	0.887
7.24028	0.829
7.28017	0.839
7.32005	0.859
7.35993	0.899
7.39981	0.908
7.43969	0.901
7.47957	0.913
7.51945	0.913
7.55933	0.911
7.59921	0.911
7.63909	0.911
7.67897	0.909
7.71885	0.903
7.75873	0.899
7.79861	0.891
7.83849	0.881
7.87837	0.857
7.91825	0.841
7.95813	0.821
7.99801	0.807
8.03789	0.779
8.07777	0.759
8.11765	0.727
8.15753	0.68
8.19741	0.64
8.23729	0.6
8.27717	0.56
8.31705	0.511
8.35693	0.471
8.39681	0.428
8.43669	0.399
8.47657	0.367
8.51645	0.342
8.55633	0.316
8.59621	0.284
8.63609	0.272
8.67597	0.255
8.71585	0.247
8.75573	0.235
8.79561	0.224
8.83549	0.214
8.87537	0.207
8.91525	0.205
8.95513	0.202
8.99501	0.197
9.03489	0.188
9.07477	0.18
9.11465	0.173
9.15453	0.17
9.19441	0.162
9.23429	0.153
9.27417	0.153
9.31405	0.162
9.35393	0.19
9.39381	0.219
9.43369	0.275
9.47357	0.314
9.51345	0.352
9.55333	0.384
9.59321	0.423
9.63309	0.443
9.67297	0.441
9.71285	0.411
9.75273	0.416
9.79261	0.453
9.83249	0.491
9.87237	0.54
9.91225	0.561
9.95213	0.583
9.99201	0.602
10.0319	0.63
10.0718	0.647
10.1116	0.663
10.1515	0.678
10.1914	0.697
10.2313	0.709
10.2712	0.722
10.311	0.735
10.3509	0.744
10.3908	0.754
10.4307	0.762
10.4706	0.774
10.5104	0.789
10.5503	0.799
10.5902	0.802
10.6301	0.812
10.67	0.821
10.7098	0.827
10.7497	0.834
10.7896	0.834
10.8295	0.834
10.8694	0.837
10.9092	0.844
10.9491	0.857
10.989	0.862
11.0289	0.874
11.0688	0.892
11.1086	0.903
11.1485	0.913
11.1884	0.921
11.2283	0.926
11.2682	0.928
11.308	0.936
11.3479	0.941
11.3878	0.948
11.4277	0.951
11.4676	0.958
11.5074	0.961
11.5473	0.963
11.5872	0.966
11.6271	0.973
11.667	0.979
11.7068	0.981
11.7467	0.983
11.7866	0.984
11.8265	0.984
11.8664	0.989
11.9062	0.991
11.9461	0.996
11.986	0.998
12.0259	1
12.0658	0.998
12.1056	1
12.1455	0.998
12.1854	1
12.2253	1
12.2652	1
12.305	0.998
12.3449	1
12.3848	1
12.4247	1
12.4646	0.998
12.5045	0.996
12.5443	0.993
12.5842	0.983
12.6241	0.978
12.664	0.963
12.7039	0.954
12.7437	0.948
12.7836	0.943
12.8235	0.941
12.8634	0.934
12.9033	0.926
12.9431	0.924
12.983	0.918
13.0229	0.916
13.0628	0.916
13.1027	0.911
13.1425	0.913
13.1824	0.913
13.2223	0.909
13.2622	0.909
13.3021	0.899
13.3419	0.896
13.3818	0.889
13.4217	0.882
13.4616	0.872
13.5015	0.849
13.5413	0.831
13.5812	0.824
13.6211	0.812
13.661	0.802
13.7009	0.777
13.7407	0.772
13.7806	0.76
13.8205	0.754
13.8604	0.752
13.9003	0.752
13.9401	0.767
13.98	0.772
14.0199	0.777
14.0598	0.784
14.0997	0.789
14.1395	0.789
14.1794	0.785
14.2193	0.792
14.2592	0.792
14.2991	0.795
14.3389	0.79
14.3788	0.785
14.4187	0.775
14.4586	0.774
14.4985	0.772
14.5383	0.77
14.5782	0.765
14.6181	0.757
14.658	0.747
14.6979	0.742
14.7377	0.734
14.7776	0.729
14.8175	0.725
14.8574	0.724
14.8973	0.71
14.9371	0.688
14.977	0.673
15.0169	0.667
15.0568	0.658
15.0967	0.645
15.1365	0.64
15.1764	0.64
15.2163	0.647
15.2562	0.633
15.2961	0.632
15.3359	0.632
15.3758	0.632
15.4157	0.633
15.4556	0.632
15.4955	0.632
15.5353	0.637
15.5752	0.64
15.6151	0.648
15.655	0.655
15.6949	0.653
15.7347	0.655
15.7746	0.658
15.8145	0.658
15.8544	0.658
15.8943	0.662
15.9341	0.66
15.974	0.667
