Infrared Spectrum: Indole, 2-methyl-, hydrochloride
Formula: C9 H10 Cl N
State: SOLID (KBr DISC, 0.9% WT.)
Class: COBLENTZ III
Instrument: PERKIN-ELMER 157
Sampling: TRANSMISSION
Resolution: 2
Origin: BRITISH PETROLEUM CO. LTD., ENGLAND
1/CM	TRANSMITTANCE
668	0.4556
677	0.4706
686	0.5021
695	0.5187
704	0.5187
713	0.5081
722	0.4986
731	0.3098
740	0.0718
749	0.0563
758	0.1118
767	0.2143
776	0.4153
785	0.5024
794	0.5394
803	0.5758
812	0.5881
821	0.5324
830	0.5991
839	0.5854
848	0.5329
857	0.5478
866	0.4977
875	0.5126
884	0.5184
893	0.5645
902	0.6047
911	0.5999
920	0.586
929	0.5858
938	0.6032
947	0.6284
956	0.6184
965	0.6126
974	0.6015
983	0.5636
992	0.4944
1001	0.5211
1010	0.4066
1019	0.442
1028	0.5044
1037	0.5549
1046	0.5535
1055	0.404
1064	0.4569
1073	0.5812
1082	0.5838
1091	0.5503
1100	0.4806
1109	0.4469
1118	0.4524
1127	0.3841
1136	0.4344
1145	0.3904
1154	0.3605
1163	0.3877
1172	0.3605
1181	0.3471
1190	0.2986
1199	0.3243
1208	0.322
1217	0.2414
1226	0.2201
1235	0.2208
1244	0.2052
1253	0.1978
1262	0.2696
1271	0.3122
1280	0.2914
1289	0.2608
1298	0.2301
1307	0.2659
1316	0.2185
1325	0.183
1334	0.1748
1343	0.2011
1352	0.1709
1361	0.1264
1370	0.1526
1379	0.1399
1388	0.2139
1397	0.2621
1406	0.2572
1415	0.1928
1424	0.1368
1433	0.1363
1442	0.1101
1451	0.0457
1460	0.0495
1469	0.2023
1478	0.1696
1487	0.1598
1496	0.3468
1505	0.3391
1514	0.3138
1523	0.2889
1532	0.2748
1541	0.2415
1550	0.1854
1559	0.0796
1568	0.0936
1577	0.1681
1586	0.2264
1595	0.2268
1604	0.2477
1613	0.2504
1622	0.2797
1631	0.3306
1640	0.3735
1649	0.4498
1658	0.499
1667	0.5467
1676	0.5545
1685	0.5229
1694	0.453
1703	0.4629
1712	0.6253
1721	0.7359
1730	0.7489
1739	0.7447
1748	0.7413
1757	0.7401
1766	0.7394
1775	0.739
1784	0.7385
1793	0.7381
1802	0.7377
1811	0.7373
1820	0.7363
1829	0.7317
1838	0.7254
1847	0.7146
1856	0.6994
1865	0.6882
1874	0.6825
1883	0.6731
1892	0.6691
1901	0.6671
1910	0.663
1919	0.6584
1928	0.656
1937	0.6551
1946	0.6548
1955	0.6549
1964	0.6553
1973	0.6561
1982	0.6563
1991	0.6545
2000	0.651
2009	0.6473
2018	0.6447
2027	0.6443
2036	0.6426
2045	0.6368
2054	0.6292
2063	0.6215
2072	0.6178
2081	0.6164
2090	0.614
2099	0.6077
2108	0.6024
2117	0.6011
2126	0.5993
2135	0.5944
2144	0.5892
2153	0.584
2162	0.5788
2171	0.5727
2180	0.5662
2189	0.5595
2198	0.5536
2207	0.5448
2216	0.5366
2225	0.5228
2234	0.5079
2243	0.4931
2252	0.4735
2261	0.4629
2270	0.4521
2279	0.4385
2288	0.4255
2297	0.4136
2306	0.3943
2315	0.3776
2324	0.3649
2333	0.3269
2342	0.3168
2351	0.3112
2360	0.3071
2369	0.299
2378	0.2836
2387	0.2749
2396	0.2619
2405	0.2364
2414	0.2207
2423	0.1922
2432	0.1808
2441	0.1721
2450	0.1697
2459	0.1718
2468	0.1768
2477	0.1808
2486	0.1812
2495	0.1795
2504	0.1745
2513	0.168
2522	0.1612
2531	0.1531
2540	0.1448
2549	0.1358
2558	0.1274
2567	0.1251
2576	0.1244
2585	0.1239
2594	0.1235
2603	0.1234
2612	0.1233
2621	0.1227
2630	0.1218
2639	0.1179
2648	0.1122
2657	0.1047
2666	0.1026
2675	0.1019
2684	0.1021
2693	0.1023
2702	0.1026
2711	0.1025
2720	0.1021
2729	0.1006
2738	0.0972
2747	0.0921
2756	0.0866
2765	0.0827
2774	0.081
2783	0.0808
2792	0.0807
2801	0.0806
2810	0.0805
2819	0.0804
2828	0.0803
2837	0.0803
2846	0.0805
2855	0.0807
2864	0.0809
2873	0.0811
2882	0.0815
2891	0.0818
2900	0.0825
2909	0.0836
2918	0.085
2927	0.0871
2936	0.0981
2945	0.1145
2954	0.1301
2963	0.1349
2972	0.1368
2981	0.1372
2990	0.1374
2999	0.1376
3008	0.1377
3017	0.1378
3026	0.1405
3035	0.1496
3044	0.1542
3053	0.1544
3062	0.154
3071	0.1523
3080	0.1487
3089	0.1445
3098	0.1385
3107	0.1332
3116	0.1279
3125	0.1222
3134	0.1158
3143	0.1055
3152	0.0909
3161	0.0845
3170	0.0828
3179	0.0824
3188	0.0822
3197	0.0822
3206	0.0827
3215	0.0832
3224	0.0837
3233	0.0844
3242	0.0859
3251	0.0937
3260	0.1004
3269	0.1052
3278	0.1088
3287	0.1122
3296	0.115
3305	0.116
3314	0.1159
3323	0.114
3332	0.1121
3341	0.11
3350	0.108
3359	0.1068
3368	0.1071
3377	0.1094
3386	0.1258
3395	0.1432
3404	0.1597
3413	0.1959
3422	0.2222
3431	0.232
3440	0.2372
3449	0.2475
3458	0.2645
3467	0.2815
3476	0.2983
3485	0.3151
3494	0.3317
3503	0.3514
3512	0.3783
3521	0.397
3530	0.414
3539	0.4288
3548	0.457
3557	0.4731
3566	0.4855
3575	0.4955
3584	0.5081
3593	0.5281
3602	0.5492
3611	0.5787
3620	0.593
3629	0.6033
3638	0.6445
3647	0.6593
3656	0.664
3665	0.6658
3674	0.6661
3683	0.6653
3692	0.6633
3701	0.6594
3710	0.655
3719	0.65
3728	0.648
3737	0.6471
3746	0.6471
3755	0.6473
3764	0.6475
3773	0.6476
3782	0.6467
3791	0.6433
3800	0.6393
3809	0.6348
3818	0.6297
3827	0.6242
3836	0.6203
3845	0.6167
3854	0.6132
3863	0.6098
3872	0.6058
3881	0.6015
3890	0.5977
3899	0.5944
3908	0.5922
3917	0.5901
3926	0.5882
3935	0.5869
3944	0.586
3953	0.5851
3962	0.5842
3971	0.5834
3980	0.5826
3989	0.5818
3998	0.5811
