Infrared Spectrum: 3-METHYL-1,4-BENZODIOXAN-2-CARBOXYLIC ACID, ETHYL ESTER
Formula: C12 H14 O4
State: SOLUTION (10% IN CCl4 FOR 3800-1330 CM^-^1, 10% IN CS2 FOR 1330-460 CM^-^1) VS. SOLVENT
Class: COBLENTZ III
Instrument: DOW KBr FOREPRISM-GRATING
Instrument parameters: GRATING BLAZED AT 3.5, 12.0, 20.0 MICRONS AND CHANGED AT 5.0, 7.5, 14.9 MICRONS
Sampling: TRANSMISSION
Path length: 0.011 CM, 0.011 CM
Resolution: 4
Origin: DOW CHEMICAL COMPANY
1/CM	TRANSMITTANCE
457.018	0.859
465.79	0.892
474.562	0.929
483.334	0.933
492.106	0.954
500.878	0.971
509.65	0.946
518.422	0.954
527.194	0.971
535.965	0.969
544.737	0.976
553.509	0.973
562.281	0.966
571.053	0.982
579.825	0.973
588.597	0.995
597.369	1.001
606.141	1.008
614.913	1.001
623.685	0.983
632.457	0.968
641.229	0.973
650.001	0.995
658.773	1.023
667.545	1.046
676.317	1.031
685.088	1.03
693.86	1.023
702.632	1.008
711.404	0.984
720.176	0.936
728.948	0.776
737.72	0.5168
746.492	0.078
755.264	0.5601
764.036	0.825
772.808	0.842
781.58	0.881
790.352	0.909
799.124	0.92
807.896	0.928
816.668	0.925
825.439	0.975
834.211	0.932
842.983	0.584
851.755	0.658
860.527	0.703
869.299	0.6761
878.071	0.915
886.843	0.94
895.615	0.756
904.387	0.969
913.159	0.946
921.931	0.604
930.703	0.88
939.475	0.663
948.247	0.862
957.019	0.902
965.791	0.915
974.562	0.931
983.334	0.942
992.106	0.92
1000.88	0.8049
1009.65	0.564
1018.42	0.4129
1027.19	0.1739
1035.97	0.3731
1044.74	0.636
1053.51	0.588
1062.28	0.3549
1071.05	0.213
1079.83	0.261
1088.6	0.513
1097.37	0.4489
1106.14	0.5041
1114.91	0.575
1123.69	0.2519
1132.46	0.399
1141.23	0.415
1150	0.2821
1158.77	0.573
1167.55	0.373
1176.32	0.194
1185.09	0.112
1193.86	0.09
1202.63	0.097
1211.4	0.123
1220.18	0.3441
1228.95	0.439
1237.72	0.3299
1246.49	0.077
1255.26	0.028
1264.04	0.012
1272.81	0.027
1281.58	0.132
1290.35	0.231
1299.12	0.314
1307.9	0.3961
1316.67	0.535
1325.44	0.241
1334.21	0.4871
1342.98	0.672
1351.76	0.479
1360.53	0.5751
1369.3	0.4707
1378.07	0.399
1386.84	0.3411
1395.62	0.636
1404.39	0.786
1413.16	0.862
1421.93	0.874
1430.7	0.844
1439.48	0.7279
1448.25	0.5271
1457.02	0.575
1465.79	0.3371
1474.56	0.5999
1483.33	0.3118
1492.11	0.005
1500.88	0.2421
1509.65	0.425
1518.42	0.4129
1527.19	0.7351
1535.97	0.914
1544.74	0.971
1553.51	0.982
1562.28	0.969
1571.05	0.954
1579.83	0.891
1588.6	0.7068
1597.37	0.166
1606.14	0.596
1614.91	0.7981
1623.69	0.911
1632.46	0.944
1641.23	0.951
1650	0.957
1658.77	0.94
1667.55	0.921
1676.32	0.922
1685.09	0.892
1693.86	0.86
1702.63	0.811
1711.41	0.7249
1720.18	0.5859
1728.95	0.2468
1737.72	0.031
1746.49	0.077
1755.27	0.086
1764.04	0.05
1772.81	0.2572
1781.58	0.7281
1790.35	0.844
1799.12	0.88
1807.9	0.91
1816.67	0.94
1825.44	0.953
1834.21	0.961
1842.98	0.962
1851.76	0.958
1860.53	0.972
1869.3	0.968
1878.07	0.943
1886.84	0.911
1895.62	0.964
1904.39	0.976
1913.16	0.965
1921.93	0.95
1930.7	0.984
1939.48	0.99
1948.25	0.993
1957.02	0.997
1965.79	1.002
1974.56	1.011
1983.34	1.015
1992.11	1.02
2000.88	1.024
2009.65	1.027
2018.42	1.029
2027.2	1.031
2035.97	1.034
2044.74	1.036
2053.51	1.041
2062.28	1.0445
2071.05	1.047
2079.83	1.049
2088.6	1.051
2097.37	1.053
2106.14	1.054
2114.91	1.053
2123.69	1.0445
2132.46	1.041
2141.23	1.042
2150	1.0445
2158.77	1.048
2167.55	1.0485
2176.32	1.042
2185.09	1.0525
2193.86	1.053
2202.63	1.0475
2211.41	1.042
2220.18	1.0345
2228.95	1.031
2237.72	1.031
2246.49	1.03
2255.27	1.03
2264.04	1.027
2272.81	1.027
2281.58	1.03
2290.35	1.0275
2299.13	1.0225
2307.9	1.0165
2316.67	1.024
2325.44	1.029
2334.21	1.0305
2342.99	1.0305
2351.76	1.031
2360.53	1.029
2369.3	1.0235
2378.07	1.0195
2386.84	1.0125
2395.62	1.0165
2404.39	1.015
2413.16	1.012
2421.93	1.0185
2430.7	1.021
2439.48	1.0195
2448.25	1.0075
2457.02	1.003
2465.79	1.005
2474.56	1.007
2483.34	1.011
2492.11	1.012
2500.88	1.011
2509.65	1.008
2518.42	1.003
2527.2	1.001
2535.97	1.002
2544.74	1.0085
2553.51	1.013
2562.28	1.005
2571.06	1.0025
2579.83	1.0085
2588.6	1.003
2597.37	0.991
2606.14	0.9805
2614.92	0.9865
2623.69	1.0005
2632.46	1.0095
2641.23	1.0155
2650	1.0155
2658.77	1.013
2667.55	1.013
2676.32	1.015
2685.09	1.011
2693.86	1.013
2702.63	1.015
2711.41	1.015
2720.18	1.0125
2728.95	1.01
2737.72	1.0055
2746.49	1.0005
2755.27	0.995
2764.04	1.0005
2772.81	1.007
2781.58	1.007
2790.35	1.005
2799.13	1.003
2807.9	1
2816.67	0.989
2825.44	0.986
2834.21	0.983
2842.99	0.9795
2851.76	0.9635
2860.53	0.947
2869.3	0.8855
2878.07	0.8065
2886.85	0.795
2895.62	0.7435
2904.39	0.712
2913.16	0.7495
2921.93	0.7685
2930.71	0.7194
2939.48	0.6015
2948.25	0.7131
2957.02	0.741
2965.79	0.66
2974.56	0.5885
2983.34	0.302
2992.11	0.3515
3000.88	0.5142
3009.65	0.7074
3018.42	0.8616
3027.2	0.8975
3035.97	0.8975
3044.74	0.785
3053.51	0.7436
3062.28	0.864
3071.06	0.888
3079.83	0.846
3088.6	0.8755
3097.37	0.9315
3106.14	0.963
3114.92	0.978
3123.69	0.985
3132.46	0.989
3141.23	0.993
3150	0.993
3158.78	0.993
3167.55	0.99
3176.32	0.9875
3185.09	0.986
3193.86	0.987
3202.64	0.988
3211.41	0.99
3220.18	0.987
3228.95	0.989
3237.72	0.988
3246.49	0.988
3255.27	0.987
3264.04	0.987
3272.81	0.985
3281.58	0.985
3290.35	0.9835
3299.13	0.98
3307.9	0.977
3316.67	0.9755
3325.44	0.9715
3334.21	0.968
3342.99	0.9655
3351.76	0.9605
3360.53	0.955
3369.3	0.948
3378.07	0.9395
3386.85	0.9335
3395.62	0.9215
3404.39	0.9115
3413.16	0.901
3421.93	0.8905
3430.71	0.8795
3439.48	0.868
3448.25	0.856
3457.02	0.849
3465.79	0.851
3474.57	0.855
3483.34	0.861
3492.11	0.8685
3500.88	0.8765
3509.65	0.887
3518.43	0.8975
3527.2	0.9065
3535.97	0.9035
3544.74	0.89
3553.51	0.868
3562.28	0.877
3571.06	0.912
3579.83	0.9425
3588.6	0.9615
3597.37	0.961
3606.14	0.9505
3614.92	0.9595
3623.69	0.9725
3632.46	0.977
3641.23	0.991
3650	0.9815
3658.78	0.982
3667.55	0.983
3676.32	0.976
3685.09	0.9755
3693.86	0.98
3702.64	0.9855
3711.41	0.986
3720.18	0.99
3728.95	0.994
3737.72	0.992
3746.5	0.9875
3755.27	0.983
3764.04	0.98
3772.81	0.979
3781.58	0.9825
3790.36	0.981
