Infrared Spectrum: 1,7-Heptanediamine, dihydrochloride
Formula: C7 H20 Cl2 N2
State: SOLID (KBr DISC, 0.8% WT.)
Class: COBLENTZ III
Instrument: PERKIN-ELMER 157
Sampling: TRANSMISSION
Resolution: 2
Origin: BRITISH PETROLEUM CO. LTD., ENGLAND
1/CM	TRANSMITTANCE
668	0.9312
677	0.9165
686	0.9001
695	0.8821
704	0.8639
713	0.8468
722	0.8083
731	0.6876
740	0.3677
749	0.7815
758	0.7917
767	0.746
776	0.4154
785	0.6825
794	0.7971
803	0.794
812	0.7478
821	0.7664
830	0.7912
839	0.7901
848	0.7867
857	0.7785
866	0.7558
875	0.6914
884	0.3938
893	0.5246
902	0.73
911	0.7182
920	0.6448
929	0.3667
938	0.4484
947	0.124
956	0.5343
965	0.7003
974	0.7192
983	0.6852
992	0.6082
1001	0.1621
1010	0.3627
1019	0.3398
1028	0.502
1037	0.3348
1046	0.3888
1055	0.5407
1064	0.6235
1073	0.6986
1082	0.6998
1091	0.6978
1100	0.6903
1109	0.6658
1118	0.6099
1127	0.4855
1136	0.1579
1145	0.4176
1154	0.5924
1163	0.4018
1172	0.0759
1181	0.3801
1190	0.515
1199	0.6302
1208	0.6598
1217	0.6625
1226	0.6207
1235	0.5727
1244	0.6447
1253	0.6586
1262	0.6018
1271	0.3856
1280	0.3168
1289	0.5581
1298	0.5608
1307	0.5652
1316	0.5444
1325	0.5688
1334	0.5489
1343	0.5146
1352	0.583
1361	0.5721
1370	0.529
1379	0.5056
1388	0.3122
1397	0.2789
1406	0.4125
1415	0.4886
1424	0.4426
1433	0.3613
1442	0.2818
1451	0.1181
1460	0.0585
1469	0.034
1478	0.0667
1487	0.2179
1496	0.1542
1505	0.049
1514	0.3661
1523	0.4192
1532	0.4193
1541	0.3526
1550	0.2412
1559	0.1392
1568	0.1021
1577	0.2022
1586	0.1991
1595	0.1553
1604	0.1024
1613	0.2023
1622	0.3804
1631	0.4473
1640	0.508
1649	0.5278
1658	0.5642
1667	0.581
1676	0.5841
1685	0.5848
1694	0.5853
1703	0.5851
1712	0.5849
1721	0.5849
1730	0.5849
1739	0.5849
1748	0.5847
1757	0.5846
1766	0.5845
1775	0.5847
1784	0.5848
1793	0.5759
1802	0.5635
1811	0.5555
1820	0.5499
1829	0.5455
1838	0.5387
1847	0.5332
1856	0.5305
1865	0.5284
1874	0.5218
1883	0.5157
1892	0.512
1901	0.5106
1910	0.5089
1919	0.5073
1928	0.5055
1937	0.5032
1946	0.49
1955	0.4663
1964	0.4296
1973	0.3923
1982	0.3554
1991	0.3187
2000	0.3149
2009	0.3433
2018	0.3878
2027	0.432
2036	0.4758
2045	0.5192
2054	0.5539
2063	0.5737
2072	0.5834
2081	0.5866
2090	0.5868
2099	0.5864
2108	0.5852
2117	0.5835
2126	0.5778
2135	0.5729
2144	0.5702
2153	0.5678
2162	0.5638
2171	0.5553
2180	0.552
2189	0.5509
2198	0.5497
2207	0.5491
2216	0.5478
2225	0.5356
2234	0.529
2243	0.5222
2252	0.5158
2261	0.5112
2270	0.5058
2279	0.4948
2288	0.4918
2297	0.4906
2306	0.4852
2315	0.4779
2324	0.4707
2333	0.4625
2342	0.4535
2351	0.4271
2360	0.4097
2369	0.3991
2378	0.3873
2387	0.3742
2396	0.3634
2405	0.355
2414	0.3418
2423	0.3246
2432	0.3125
2441	0.3014
2450	0.268
2459	0.2605
2468	0.2586
2477	0.2581
2486	0.2544
2495	0.2377
2504	0.2244
2513	0.2259
2522	0.2348
2531	0.237
2540	0.226
2549	0.2224
2558	0.2222
2567	0.2219
2576	0.2185
2585	0.1945
2594	0.167
2603	0.155
2612	0.1523
2621	0.151
2630	0.15
2639	0.149
2648	0.1475
2657	0.1455
2666	0.1381
2675	0.1232
2684	0.1126
2693	0.1063
2702	0.0965
2711	0.0756
2720	0.0572
2729	0.0523
2738	0.05
2747	0.0492
2756	0.0467
2765	0.0403
2774	0.0317
2783	0.0256
2792	0.0203
2801	0.0165
2810	0.0151
2819	0.0142
2828	0.0138
2837	0.0134
2846	0.013
2855	0.0126
2864	0.0123
2873	0.0122
2882	0.0122
2891	0.0121
2900	0.012
2909	0.0119
2918	0.0118
2927	0.0118
2936	0.0117
2945	0.0117
2954	0.0118
2963	0.012
2972	0.012
2981	0.0122
2990	0.0123
2999	0.0124
3008	0.0128
3017	0.0132
3026	0.0135
3035	0.0139
3044	0.0142
3053	0.0146
3062	0.015
3071	0.0166
3080	0.0185
3089	0.0205
3098	0.0215
3107	0.0222
3116	0.0226
3125	0.023
3134	0.0261
3143	0.0297
3152	0.0317
3161	0.0323
3170	0.0329
3179	0.0335
3188	0.0342
3197	0.0359
3206	0.0473
3215	0.057
3224	0.0657
3233	0.1024
3242	0.1179
3251	0.1513
3260	0.1653
3269	0.1835
3278	0.2166
3287	0.2332
3296	0.2428
3305	0.2496
3314	0.2535
3323	0.2555
3332	0.2575
3341	0.2589
3350	0.2597
3359	0.2606
3368	0.2614
3377	0.2623
3386	0.2631
3395	0.2639
3404	0.2647
3413	0.2654
3422	0.2661
3431	0.2669
3440	0.2676
3449	0.2684
3458	0.2708
3467	0.2731
3476	0.2755
3485	0.2781
3494	0.2819
3503	0.2859
3512	0.2898
3521	0.2938
3530	0.2985
3539	0.3031
3548	0.3077
3557	0.3117
3566	0.3157
3575	0.3197
3584	0.3245
3593	0.3293
3602	0.334
3611	0.3385
3620	0.3429
3629	0.3469
3638	0.3508
3647	0.3531
3656	0.3543
3665	0.3554
3674	0.3565
3683	0.357
3692	0.3569
3701	0.3566
3710	0.356
3719	0.3551
3728	0.3542
3737	0.3533
3746	0.3524
3755	0.351
3764	0.3495
3773	0.348
3782	0.3465
3791	0.3449
3800	0.3433
3809	0.3417
3818	0.3401
3827	0.3386
3836	0.337
3845	0.335
3854	0.333
3863	0.3311
3872	0.3292
3881	0.3273
3890	0.3253
3899	0.3235
3908	0.3216
3917	0.3195
3926	0.3168
3935	0.3139
3944	0.3123
3953	0.3118
3962	0.3112
3971	0.3108
3980	0.3102
3989	0.3097
3998	0.3092
