Infrared Spectrum: 1-AMINO-4-BROMO-2-ANTHRAQUINONE SULFONIC ACID, SODIUM SALT
Formula: C14 H7 Br N S O5 Na
State: SOLID (KBr PELLET)
Class: COBLENTZ
Instrument: Not specified, most likely a prism, grating, or hybrid spectrometer.
Sampling: TRANSMISSION
Resolution: 4
Origin: CORN PRODUCTS COMPANY
MICROMETERS	TRANSMITTANCE
2.014	0.74
2.04785	0.744
2.08171	0.747
2.11556	0.747
2.14942	0.75
2.18327	0.755
2.21713	0.759
2.25098	0.761
2.28483	0.761
2.31869	0.761
2.35254	0.762
2.3864	0.767
2.42025	0.769
2.4541	0.767
2.48796	0.766
2.52181	0.764
2.55567	0.761
2.58952	0.759
2.62338	0.761
2.65723	0.761
2.69108	0.762
2.72494	0.755
2.75879	0.674
2.79265	0.476
2.8265	0.294
2.86036	0.227
2.89421	0.177
2.92806	0.132
2.96192	0.122
2.99577	0.21
3.02963	0.294
3.06348	0.335
3.09733	0.447
3.13119	0.537
3.16504	0.593
3.1989	0.638
3.23275	0.664
3.26661	0.683
3.30046	0.679
3.33431	0.691
3.36817	0.708
3.40202	0.723
3.43588	0.728
3.46973	0.74
3.50359	0.744
3.53744	0.747
3.57129	0.761
3.60515	0.771
3.639	0.772
3.67286	0.776
3.70671	0.776
3.74056	0.772
3.77442	0.772
3.80827	0.774
3.84213	0.779
3.87598	0.779
3.90984	0.779
3.94369	0.779
3.97754	0.786
4.0114	0.788
4.04525	0.788
4.07911	0.788
4.11296	0.786
4.14682	0.786
4.18067	0.786
4.21452	0.788
4.24838	0.788
4.28223	0.788
4.31609	0.784
4.34994	0.783
4.38379	0.783
4.41765	0.781
4.4515	0.779
4.48536	0.777
4.51921	0.777
4.55307	0.781
4.58692	0.781
4.62077	0.777
4.65463	0.777
4.68848	0.774
4.72234	0.772
4.75619	0.771
4.79005	0.769
4.8239	0.766
4.85775	0.764
4.89161	0.764
4.92546	0.762
4.95932	0.762
4.99317	0.762
5.02702	0.764
5.06088	0.766
5.09473	0.769
5.12859	0.772
5.16244	0.776
5.1963	0.781
5.23015	0.781
5.264	0.781
5.29786	0.781
5.33171	0.783
5.36557	0.781
5.39942	0.783
5.43328	0.781
5.46713	0.777
5.50098	0.777
5.53484	0.781
5.56869	0.779
5.60255	0.777
5.6364	0.771
5.67025	0.771
5.70411	0.769
5.73796	0.767
5.77182	0.762
5.80567	0.745
5.83953	0.727
5.87338	0.701
5.90723	0.64
5.94109	0.491
5.97494	0.291
6.0088	0.345
6.04265	0.389
6.07651	0.294
6.11036	0.24
6.14421	0.233
6.17807	0.269
6.21192	0.245
6.24578	0.15
6.27963	0.123
6.31348	0.227
6.34734	0.401
6.38119	0.566
6.41505	0.591
6.4489	0.537
6.48276	0.4
6.51661	0.281
6.55046	0.364
6.58432	0.491
6.61817	0.601
6.65203	0.679
6.68588	0.694
6.71973	0.705
6.75359	0.705
6.78744	0.706
6.8213	0.71
6.85515	0.693
6.88901	0.696
6.92286	0.7
6.95671	0.679
6.99057	0.647
7.02442	0.613
7.05828	0.613
7.09213	0.622
7.12599	0.622
7.15984	0.542
7.19369	0.345
7.22755	0.306
7.2614	0.445
7.29526	0.572
7.32911	0.628
7.36296	0.655
7.39682	0.659
7.43067	0.62
7.46453	0.52
7.49838	0.447
7.53224	0.501
7.56609	0.567
7.59994	0.586
7.6338	0.598
7.66765	0.576
7.70151	0.523
7.73536	0.396
7.76922	0.249
7.80307	0.181
7.83692	0.159
7.87078	0.157
7.90463	0.15
7.93849	0.149
7.97234	0.164
8.00619	0.177
8.04005	0.164
8.0739	0.154
8.10776	0.155
8.14161	0.149
8.17547	0.145
8.20932	0.14
8.24317	0.133
8.27703	0.106
8.31088	0.084
8.34474	0.083
8.37859	0.089
8.41245	0.106
8.4463	0.15
8.48015	0.162
8.51401	0.166
8.54786	0.171
8.58172	0.164
8.61557	0.152
8.64942	0.155
8.68328	0.152
8.71713	0.138
8.75099	0.123
8.78484	0.113
8.8187	0.111
8.85255	0.113
8.8864	0.127
8.92026	0.149
8.95411	0.147
8.98797	0.145
9.02182	0.179
9.05568	0.25
9.08953	0.33
9.12338	0.389
9.15724	0.438
9.19109	0.466
9.22495	0.508
9.2588	0.52
9.29265	0.535
9.32651	0.557
9.36036	0.554
9.39422	0.516
9.42807	0.371
9.46193	0.184
9.49578	0.137
9.52963	0.189
9.56349	0.286
9.59734	0.31
9.6312	0.3
9.66505	0.384
9.69891	0.503
9.73276	0.538
9.76661	0.535
9.80047	0.455
9.83432	0.281
9.86818	0.25
9.90203	0.32
9.93588	0.461
9.96974	0.566
10.0036	0.606
10.0374	0.628
10.0713	0.65
10.1052	0.662
10.139	0.681
10.1729	0.683
10.2067	0.683
10.2406	0.679
10.2744	0.683
10.3083	0.683
10.3421	0.683
10.376	0.683
10.4098	0.674
10.4437	0.645
10.4776	0.586
10.5114	0.533
10.5453	0.528
10.5791	0.562
10.613	0.601
10.6468	0.632
10.6807	0.65
10.7145	0.662
10.7484	0.674
10.7822	0.683
10.8161	0.683
10.8499	0.681
10.8838	0.672
10.9177	0.672
10.9515	0.679
10.9854	0.683
11.0192	0.684
11.0531	0.691
11.0869	0.691
11.1208	0.684
11.1546	0.655
11.1885	0.561
11.2223	0.533
11.2562	0.589
11.2901	0.645
11.3239	0.681
11.3578	0.691
11.3916	0.705
11.4255	0.715
11.4593	0.718
11.4932	0.722
11.527	0.727
11.5609	0.728
11.5947	0.728
11.6286	0.727
11.6624	0.725
11.6963	0.723
11.7302	0.722
11.764	0.72
11.7979	0.723
11.8317	0.727
11.8656	0.727
11.8994	0.727
11.9333	0.725
11.9671	0.722
12.001	0.72
12.0348	0.72
12.0687	0.72
12.1026	0.716
12.1364	0.701
12.1703	0.684
12.2041	0.683
12.238	0.686
12.2718	0.691
12.3057	0.694
12.3395	0.684
12.3734	0.645
12.4072	0.591
12.4411	0.561
12.475	0.574
12.5088	0.601
12.5427	0.616
12.5765	0.642
12.6104	0.662
12.6442	0.686
12.6781	0.689
12.7119	0.693
12.7458	0.696
12.7796	0.7
12.8135	0.696
12.8473	0.693
12.8812	0.691
12.9151	0.686
12.9489	0.686
12.9828	0.684
13.0166	0.681
13.0505	0.676
13.0843	0.666
13.1182	0.652
13.152	0.635
13.1859	0.606
13.2197	0.562
13.2536	0.481
13.2875	0.406
13.3213	0.335
13.3552	0.322
13.389	0.357
13.4229	0.374
13.4567	0.364
13.4906	0.337
13.5244	0.332
13.5583	0.355
13.5921	0.418
13.626	0.467
13.6598	0.496
13.6937	0.496
13.7276	0.459
13.7614	0.408
13.7953	0.354
13.8291	0.315
13.863	0.281
13.8968	0.284
13.9307	0.355
13.9645	0.433
13.9984	0.464
14.0322	0.474
14.0661	0.476
14.1	0.496
14.1338	0.528
14.1677	0.561
14.2015	0.576
14.2354	0.586
14.2692	0.594
14.3031	0.6
14.3369	0.603
14.3708	0.605
14.4046	0.603
14.4385	0.601
14.4723	0.598
14.5062	0.594
14.5401	0.588
14.5739	0.579
14.6078	0.572
14.6416	0.566
14.6755	0.55
14.7093	0.542
14.7432	0.535
14.777	0.53
14.8109	0.53
14.8447	0.513
14.8786	0.486
14.9125	0.442
14.9463	0.406
14.9802	0.372
15.014	0.337
15.0479	0.323
15.0817	0.337
15.1156	0.393
15.1494	0.42
15.1833	0.455
15.2171	0.471
15.251	0.474
15.2848	0.481
15.3187	0.477
15.3526	0.474
15.3864	0.466
15.4203	0.447
15.4541	0.433
15.488	0.4
15.5218	0.362
