Infrared Spectrum: 1,1'-BIS-(METHYL DIETHOXYSILYL) FERROCENE
Formula: C20 H34 Fe O4 Si2
State: LIQUID
Class: COBLENTZ
Instrument: Not specified, most likely a prism, grating, or hybrid spectrometer.
Sampling: TRANSMISSION
Path length: CAPILLARY
Resolution: 4
Origin: WYANDOTTE CHEMICALS CORP., WYANDOTTE, MICHIGAN, USA
MICROMETERS	TRANSMITTANCE
2.046	0.983
2.08583	0.988
2.12566	0.986
2.16549	0.981
2.20533	0.971
2.24516	0.976
2.28499	0.981
2.32482	0.98
2.36465	0.973
2.40448	0.971
2.44431	0.966
2.48415	0.97
2.52398	0.981
2.56381	0.991
2.60364	0.986
2.64347	0.985
2.6833	0.986
2.72313	0.991
2.76296	0.993
2.8028	0.988
2.84263	0.985
2.88246	0.988
2.92229	0.981
2.96212	0.975
3.00195	0.973
3.04178	0.971
3.08162	0.968
3.12145	0.961
3.16128	0.948
3.20111	0.9
3.24094	0.808
3.28077	0.903
3.3206	0.657
3.36044	0.317
3.40027	0.509
3.4401	0.43
3.47993	0.49
3.51976	0.795
3.55959	0.89
3.59942	0.92
3.63926	0.91
3.67909	0.9
3.71892	0.96
3.75875	0.971
3.79858	0.97
3.83841	0.973
3.87824	0.976
3.91808	0.981
3.95791	0.981
3.99774	0.98
4.03757	0.978
4.0774	0.975
4.11723	0.971
4.15706	0.971
4.19689	0.978
4.23673	0.973
4.27656	0.971
4.31639	0.983
4.35622	0.993
4.39605	0.993
4.43588	0.985
4.47571	0.98
4.51555	0.98
4.55538	0.98
4.59521	0.98
4.63504	0.98
4.67487	0.976
4.7147	0.978
4.75453	0.981
4.79437	0.981
4.8342	0.981
4.87403	0.981
4.91386	0.981
4.95369	0.983
4.99352	0.983
5.03335	0.98
5.07319	0.976
5.11302	0.976
5.15285	0.976
5.19268	0.975
5.23251	0.968
5.27234	0.963
5.31217	0.958
5.352	0.956
5.39184	0.961
5.43167	0.96
5.4715	0.958
5.51133	0.955
5.55116	0.953
5.59099	0.945
5.63082	0.935
5.67066	0.925
5.71049	0.92
5.75032	0.916
5.79015	0.918
5.82998	0.92
5.86981	0.908
5.90964	0.905
5.94948	0.901
5.98931	0.9
6.02914	0.9
6.06897	0.9
6.1088	0.91
6.14863	0.921
6.18846	0.931
6.2283	0.938
6.26813	0.94
6.30796	0.94
6.34779	0.936
6.38762	0.935
6.42745	0.935
6.46728	0.933
6.50711	0.93
6.54695	0.926
6.58678	0.921
6.62661	0.915
6.66644	0.886
6.70627	0.798
6.7461	0.813
6.78593	0.846
6.82577	0.801
6.8656	0.727
6.90543	0.625
6.94526	0.665
6.98509	0.66
7.02492	0.628
7.06475	0.722
7.10459	0.697
7.14442	0.65
7.18425	0.42
7.22408	0.514
7.26391	0.69
7.30374	0.603
7.34357	0.633
7.38341	0.833
7.42324	0.866
7.46307	0.883
7.5029	0.893
7.54273	0.895
7.58256	0.89
7.62239	0.868
7.66223	0.772
7.70206	0.705
7.74189	0.705
7.78172	0.787
7.82155	0.815
7.86138	0.795
7.90121	0.618
7.94104	0.259
7.98088	0.312
8.02071	0.65
8.06054	0.806
8.10037	0.838
8.1402	0.851
8.18003	0.851
8.21986	0.848
8.2597	0.84
8.29953	0.823
8.33936	0.788
8.37919	0.707
8.41902	0.53
8.45885	0.422
8.49868	0.321
8.53852	0.138
8.57835	0.124
8.61818	0.249
8.65801	0.41
8.69784	0.49
8.73767	0.51
8.7775	0.48
8.81734	0.391
8.85717	0.307
8.897	0.181
8.93683	0.121
8.97666	0.073
9.01649	0.059
9.05632	0.058
9.09615	0.083
9.13599	0.101
9.17582	0.076
9.21565	0.053
9.25548	0.048
9.29531	0.054
9.33514	0.083
9.37497	0.169
9.41481	0.272
9.45464	0.352
9.49447	0.429
9.5343	0.502
9.57413	0.399
9.61396	0.242
9.65379	0.237
9.69363	0.444
9.73346	0.534
9.77329	0.59
9.81312	0.678
9.85295	0.73
9.89278	0.763
9.93261	0.79
9.97245	0.81
10.0123	0.83
10.0521	0.836
10.0919	0.835
10.1318	0.831
10.1716	0.823
10.2114	0.81
10.2513	0.777
10.2911	0.727
10.3309	0.665
10.3708	0.555
10.4106	0.405
10.4504	0.311
10.4903	0.231
10.5301	0.193
10.5699	0.189
10.6097	0.206
10.6496	0.231
10.6894	0.267
10.7292	0.316
10.7691	0.389
10.8089	0.479
10.8487	0.582
10.8886	0.693
10.9284	0.757
10.9682	0.8
11.0081	0.813
11.0479	0.805
11.0877	0.767
11.1276	0.743
11.1674	0.732
11.2072	0.73
11.247	0.768
11.2869	0.811
11.3267	0.836
11.3665	0.85
11.4064	0.851
11.4462	0.84
11.486	0.813
11.5259	0.772
11.5657	0.742
11.6055	0.737
11.6454	0.762
11.6852	0.78
11.725	0.788
11.7649	0.777
11.8047	0.753
11.8445	0.727
11.8844	0.687
11.9242	0.657
11.964	0.607
12.0038	0.552
12.0437	0.479
12.0835	0.409
12.1233	0.349
12.1632	0.296
12.203	0.237
12.2428	0.198
12.2827	0.169
12.3225	0.164
12.3623	0.189
12.4022	0.212
12.442	0.237
12.4818	0.244
12.5217	0.252
12.5615	0.271
12.6013	0.281
12.6411	0.249
12.681	0.199
12.7208	0.159
12.7606	0.143
12.8005	0.168
12.8403	0.241
12.8801	0.322
12.92	0.397
12.9598	0.419
12.9996	0.377
13.0395	0.314
13.0793	0.241
13.1191	0.196
13.159	0.183
13.1988	0.198
13.2386	0.244
13.2785	0.326
13.3183	0.435
13.3581	0.52
13.3979	0.59
13.4378	0.645
13.4776	0.685
13.5174	0.712
13.5573	0.727
13.5971	0.733
13.6369	0.728
13.6768	0.72
13.7166	0.705
13.7564	0.69
13.7963	0.69
13.8361	0.708
13.8759	0.717
13.9158	0.74
13.9556	0.768
13.9954	0.792
14.0352	0.805
14.0751	0.821
14.1149	0.835
14.1547	0.841
14.1946	0.846
14.2344	0.853
14.2742	0.85
14.3141	0.85
14.3539	0.848
14.3937	0.846
14.4336	0.841
14.4734	0.831
14.5132	0.82
14.5531	0.801
14.5929	0.787
14.6327	0.762
14.6725	0.738
14.7124	0.717
14.7522	0.692
14.792	0.673
14.8319	0.66
14.8717	0.647
14.9115	0.643
14.9514	0.638
14.9912	0.643
15.031	0.648
15.0709	0.663
15.1107	0.685
15.1505	0.707
15.1904	0.727
15.2302	0.748
15.27	0.765
15.3099	0.782
15.3497	0.801
15.3895	0.806
15.4293	0.811
15.4692	0.821
15.509	0.826
15.5488	0.833
15.5887	0.841
15.6285	0.843
15.6683	0.846
15.7082	0.846
15.748	0.843
15.7878	0.836
15.8277	0.83
15.8675	0.816
15.9073	0.801
15.9472	0.8
15.987	0.795
