Infrared Spectrum: UREA, AMIDINO-, SULFATE
Formula: C4 H14 N8 O6 S
State: SOLID (SPLIT MULL)
Class: COBLENTZ III
Instrument: DOW KBr FOREPRISM-GRATING
Instrument parameters: BLAZED AT 3.5, 12.0, 20.0 MICRON AND CHANGED AT 5.0, 7.5, 14.9 MICRON
Sampling: TRANSMISSION
Resolution: 2
Origin: DOW CHEMICAL COMPANY
1/CM	TRANSMITTANCE
3786	0.8243
3777	0.829
3768	0.8341
3759	0.8405
3750	0.8468
3741	0.8533
3732	0.8598
3723	0.8662
3714	0.872
3705	0.8771
3696	0.8821
3687	0.8865
3678	0.891
3669	0.8951
3660	0.8981
3651	0.9011
3642	0.9034
3633	0.9052
3624	0.907
3615	0.9078
3606	0.9077
3597	0.9036
3588	0.895
3579	0.8815
3570	0.8657
3561	0.8501
3552	0.8362
3543	0.8201
3534	0.7951
3525	0.7601
3516	0.7269
3507	0.6945
3498	0.6565
3489	0.6088
3480	0.542
3471	0.4708
3462	0.4097
3453	0.33
3444	0.2369
3435	0.1744
3426	0.132
3417	0.1124
3408	0.1059
3399	0.1095
3390	0.1152
3381	0.1213
3372	0.1273
3363	0.1333
3354	0.14
3345	0.1466
3336	0.1524
3327	0.1583
3318	0.1596
3309	0.1562
3300	0.1491
3291	0.1486
3282	0.1518
3273	0.1592
3264	0.1693
3255	0.1778
3246	0.1867
3237	0.194
3228	0.1944
3219	0.1862
3210	0.1724
3201	0.1595
3192	0.1496
3183	0.147
3174	0.1523
3165	0.1633
3156	0.1748
3147	0.186
3138	0.1966
3129	0.2072
3120	0.2201
3111	0.2342
3102	0.2501
3093	0.2658
3084	0.2815
3075	0.2969
3066	0.3112
3057	0.3228
3048	0.3318
3039	0.3384
3030	0.3434
3021	0.3464
3012	0.3514
3003	0.3556
2994	0.3593
2985	0.3598
2976	0.3571
2967	0.3544
2958	0.3525
2949	0.3518
2940	0.3543
2931	0.36
2922	0.368
2913	0.3792
2904	0.3888
2895	0.3976
2886	0.4084
2877	0.4194
2868	0.4309
2859	0.4432
2850	0.4555
2841	0.4672
2832	0.479
2823	0.4899
2814	0.5
2805	0.51
2796	0.5185
2787	0.5259
2778	0.5334
2769	0.5409
2760	0.5486
2751	0.5562
2742	0.5639
2733	0.5719
2724	0.5804
2715	0.5889
2706	0.5977
2697	0.6065
2688	0.6154
2679	0.6242
2670	0.6329
2661	0.6411
2652	0.6494
2643	0.6561
2634	0.6628
2625	0.6694
2616	0.6761
2607	0.6834
2598	0.691
2589	0.6984
2580	0.7051
2571	0.7111
2562	0.7161
2553	0.7203
2544	0.7239
2535	0.7272
2526	0.7308
2517	0.7344
2508	0.7382
2499	0.7418
2490	0.7451
2481	0.7486
2472	0.7518
2463	0.7549
2454	0.7589
2445	0.7628
2436	0.7649
2427	0.7672
2418	0.7688
2409	0.769
2400	0.7682
2391	0.7676
2382	0.7675
2373	0.7671
2364	0.7669
2355	0.7668
2346	0.7667
2337	0.7671
2328	0.7675
2319	0.7686
2310	0.7715
2301	0.7761
2292	0.7811
2283	0.7861
2274	0.7912
2265	0.7971
2256	0.8056
2247	0.8151
2238	0.8244
2229	0.834
2220	0.8396
2211	0.8442
2202	0.8489
2193	0.8554
2184	0.862
2175	0.8687
2166	0.8756
2157	0.8818
2148	0.8884
2139	0.8959
2130	0.9028
2121	0.9093
2112	0.9138
2103	0.9159
2094	0.9161
2085	0.9166
2076	0.9203
2067	0.925
2058	0.9306
2049	0.9362
2040	0.9444
2031	0.9521
2022	0.9596
2013	0.9618
2004	0.9565
1995	0.9574
1986	0.9628
1977	0.9687
1968	0.976
1959	0.9846
1950	0.9834
1941	0.9866
1932	0.9892
1923	0.9888
1914	0.9865
1905	0.9875
1896	0.9865
1887	0.9797
1878	0.9731
1869	0.968
1860	0.9668
1851	0.9699
1842	0.9717
1833	0.969
1824	0.9637
1815	0.9562
1806	0.9424
1797	0.916
1788	0.878
1779	0.8257
1770	0.7153
1761	0.4437
1752	0.3247
1743	0.1317
1734	0.0803
1725	0.2989
1716	0.3795
1707	0.1384
1698	0.0787
1689	0.0979
1680	0.2647
1671	0.4276
1662	0.5317
1653	0.5372
1644	0.526
1635	0.5037
1626	0.4364
1617	0.1798
1608	0.1636
1599	0.1752
1590	0.1346
1581	0.2644
1572	0.3662
1563	0.42
1554	0.4612
1545	0.4962
1536	0.5156
1527	0.5481
1518	0.587
1509	0.6095
1500	0.6198
1491	0.5987
1482	0.4985
1473	0.4207
1464	0.4192
1455	0.4312
1446	0.459
1437	0.501
1428	0.5448
1419	0.5973
1410	0.6275
1401	0.6154
1392	0.5479
1383	0.4687
1374	0.3942
1365	0.3434
1356	0.3164
1347	0.3147
1338	0.3532
1329	0.4053
1320	0.482
1311	0.5383
1302	0.5789
1293	0.6045
1284	0.6222
1275	0.6352
1266	0.6411
1257	0.6491
1248	0.6598
1239	0.6474
1230	0.6418
1221	0.6362
1212	0.6296
1203	0.6229
1194	0.614
1185	0.5935
1176	0.5645
1167	0.5101
1158	0.4669
1149	0.3808
1140	0.2912
1131	0.1935
1122	0.1308
1113	0.1056
1104	0.0859
1095	0.065
1086	0.0648
1077	0.0822
1068	0.0745
1059	0.0803
1050	0.1541
1041	0.2323
1032	0.3239
1023	0.3859
1014	0.5229
1005	0.5762
996	0.6191
987	0.6591
978	0.6008
969	0.6574
960	0.706
951	0.7148
942	0.6608
933	0.5499
924	0.6536
915	0.7232
906	0.7661
897	0.7784
888	0.791
879	0.8171
870	0.826
861	0.825
852	0.8157
843	0.8104
834	0.8068
825	0.7997
816	0.7843
807	0.755
798	0.7343
789	0.7271
780	0.7124
771	0.6302
762	0.4649
753	0.545
744	0.4951
735	0.4599
726	0.4771
717	0.4128
708	0.4201
699	0.4195
690	0.426
681	0.4745
672	0.4543
663	0.4086
654	0.3703
645	0.3069
636	0.2539
627	0.2115
618	0.2312
609	0.2198
600	0.2772
591	0.2884
582	0.3071
573	0.3534
564	0.398
555	0.4016
546	0.4386
537	0.4752
528	0.5125
519	0.5391
510	0.5344
501	0.514
492	0.4947
483	0.4774
474	0.4612
