Infrared Spectrum: SILVER BROMATE
Formula: Ag Br O3
State: SOLID (NUJOL MULL)
Class: COBLENTZ
Instrument: Not specified, most likely a prism, grating, or hybrid spectrometer.
Sampling: TRANSMISSION
Resolution: 4
Origin: MELLON INSTITUTE
MICROMETERS	TRANSMITTANCE
2.031	0.748
2.07194	0.752
2.11289	0.759
2.15383	0.764
2.19478	0.765
2.23572	0.765
2.27666	0.767
2.31761	0.771
2.35855	0.774
2.3995	0.781
2.44044	0.786
2.48138	0.791
2.52233	0.798
2.56327	0.8
2.60422	0.803
2.64516	0.803
2.6861	0.805
2.72705	0.807
2.76799	0.803
2.80894	0.803
2.84988	0.802
2.89083	0.802
2.93177	0.803
2.97271	0.803
3.01366	0.802
3.0546	0.803
3.09555	0.805
3.13649	0.808
3.17743	0.814
3.21838	0.815
3.25932	0.814
3.30027	0.759
3.34121	0.43
3.38215	0.302
3.4231	0.54
3.46404	0.495
3.50499	0.769
3.54593	0.845
3.58687	0.857
3.62782	0.864
3.66876	0.867
3.70971	0.87
3.75065	0.87
3.79159	0.872
3.83254	0.874
3.87348	0.874
3.91443	0.876
3.95537	0.877
3.99631	0.879
4.03726	0.881
4.0782	0.881
4.11915	0.881
4.16009	0.881
4.20104	0.881
4.24198	0.881
4.28292	0.877
4.32387	0.874
4.36481	0.872
4.40576	0.87
4.4467	0.869
4.48764	0.869
4.52859	0.869
4.56953	0.867
4.61048	0.869
4.65142	0.867
4.69236	0.867
4.73331	0.87
4.77425	0.872
4.8152	0.876
4.85614	0.876
4.89708	0.877
4.93803	0.881
4.97897	0.882
5.01992	0.884
5.06086	0.886
5.1018	0.888
5.14275	0.889
5.18369	0.891
5.22464	0.891
5.26558	0.893
5.30652	0.895
5.34747	0.896
5.38841	0.9
5.42936	0.9
5.4703	0.9
5.51124	0.903
5.55219	0.905
5.59313	0.912
5.63408	0.913
5.67502	0.912
5.71597	0.912
5.75691	0.915
5.79785	0.915
5.8388	0.92
5.87974	0.925
5.92069	0.929
5.96163	0.932
6.00257	0.938
6.04352	0.936
6.08446	0.934
6.12541	0.932
6.16635	0.932
6.20729	0.934
6.24824	0.934
6.28918	0.934
6.33013	0.934
6.37107	0.934
6.41201	0.931
6.45296	0.931
6.4939	0.929
6.53485	0.925
6.57579	0.925
6.61673	0.925
6.65768	0.927
6.69862	0.922
6.73957	0.915
6.78051	0.841
6.82145	0.76
6.8624	0.746
6.90334	0.805
6.94429	0.839
6.98523	0.862
7.02618	0.882
7.06712	0.857
7.10806	0.834
7.14901	0.81
7.18995	0.776
7.2309	0.736
7.27184	0.786
7.31278	0.829
7.35373	0.865
7.39467	0.9
7.43562	0.908
7.47656	0.913
7.5175	0.92
7.55845	0.929
7.59939	0.932
7.64034	0.934
7.68128	0.936
7.72222	0.936
7.76317	0.941
7.80411	0.944
7.84506	0.946
7.886	0.944
7.92694	0.944
7.96789	0.944
8.00883	0.944
8.04978	0.946
8.09072	0.946
8.13166	0.946
8.17261	0.946
8.21355	0.946
8.2545	0.944
8.29544	0.944
8.33639	0.946
8.37733	0.944
8.41827	0.946
8.45922	0.946
8.50016	0.946
8.54111	0.946
8.58205	0.946
8.62299	0.946
8.66394	0.943
8.70488	0.941
8.74583	0.939
8.78677	0.938
8.82771	0.938
8.86866	0.938
8.9096	0.938
8.95055	0.939
8.99149	0.939
9.03243	0.939
9.07338	0.939
9.11432	0.939
9.15527	0.941
9.19621	0.941
9.23715	0.939
9.2781	0.939
9.31904	0.939
9.35999	0.941
9.40093	0.943
9.44187	0.941
9.48282	0.941
9.52376	0.943
9.56471	0.941
9.60565	0.943
9.64659	0.943
9.68754	0.943
9.72848	0.944
9.76943	0.944
9.81037	0.944
9.85132	0.944
9.89226	0.946
9.9332	0.946
9.97415	0.944
10.0151	0.944
10.056	0.944
10.097	0.943
10.1379	0.943
10.1789	0.943
10.2198	0.944
10.2608	0.944
10.3017	0.944
10.3426	0.946
10.3836	0.944
10.4245	0.944
10.4655	0.944
10.5064	0.946
10.5474	0.95
10.5883	0.953
10.6293	0.955
10.6702	0.956
10.7111	0.956
10.7521	0.958
10.793	0.96
10.834	0.96
10.8749	0.96
10.9159	0.96
10.9568	0.962
10.9977	0.962
11.0387	0.962
11.0796	0.963
11.1206	0.963
11.1615	0.965
11.2025	0.967
11.2434	0.967
11.2844	0.967
11.3253	0.969
11.3662	0.97
11.4072	0.972
11.4481	0.972
11.4891	0.975
11.53	0.977
11.571	0.977
11.6119	0.975
11.6529	0.972
11.6938	0.967
11.7347	0.96
11.7757	0.955
11.8166	0.941
11.8576	0.919
11.8985	0.884
11.9395	0.833
11.9804	0.788
12.0214	0.712
12.0623	0.64
12.1032	0.586
12.1442	0.54
12.1851	0.506
12.2261	0.475
12.267	0.426
12.308	0.364
12.3489	0.306
12.3898	0.261
12.4308	0.206
12.4717	0.139
12.5127	0.098
12.5536	0.086
12.5946	0.099
12.6355	0.185
12.6765	0.244
12.7174	0.301
12.7583	0.33
12.7993	0.345
12.8402	0.347
12.8812	0.345
12.9221	0.335
12.9631	0.323
13.004	0.313
13.045	0.302
13.0859	0.304
13.1268	0.33
13.1678	0.366
13.2087	0.428
13.2497	0.521
13.2906	0.592
13.3316	0.652
13.3725	0.703
13.4134	0.738
13.4544	0.772
13.4953	0.793
13.5363	0.808
13.5772	0.824
13.6182	0.834
13.6591	0.843
13.7001	0.848
13.741	0.853
13.7819	0.857
13.8229	0.857
13.8638	0.86
13.9048	0.864
13.9457	0.867
13.9867	0.867
14.0276	0.867
14.0686	0.867
14.1095	0.867
14.1504	0.867
14.1914	0.864
14.2323	0.857
14.2733	0.851
14.3142	0.846
14.3552	0.839
14.3961	0.834
14.437	0.826
14.478	0.819
14.5189	0.81
14.5599	0.805
14.6008	0.798
14.6418	0.791
14.6827	0.783
14.7237	0.776
14.7646	0.771
14.8055	0.762
14.8465	0.755
14.8874	0.745
14.9284	0.736
14.9693	0.726
15.0103	0.719
15.0512	0.712
15.0922	0.703
15.1331	0.697
15.174	0.691
15.215	0.679
15.2559	0.674
15.2969	0.669
15.3378	0.662
15.3788	0.659
15.4197	0.652
15.4607	0.643
15.5016	0.638
15.5425	0.631
15.5835	0.624
15.6244	0.617
15.6654	0.611
15.7063	0.604
15.7473	0.6
15.7882	0.595
15.8291	0.592
15.8701	0.59
15.911	0.588
15.952	0.585
