Infrared Spectrum: Imidazole-5-sulfonic acid,1-methyl-4-nitro-, sodium salt
Formula: C4 H4 Na N3 O5 S
State: SOLID (0.9 mg / 650 mg KBr DISC)
Melting point: 312 C
Class: COBLENTZ III
Instrument: PERKIN-ELMER 21 (GRATING)
Instrument parameters: FILTER CHANGE ABOUT 1030 CM^-^1
Sampling: TRANSMISSION
Resolution: 2
Origin: SOUTHERN RESEARCH INSTITUTE
1/CM	TRANSMITTANCE
635.117	0.7813
643.163	0.5038
651.208	0.3084
659.254	0.1651
667.299	0.463
675.345	0.66
683.391	0.7539
691.436	0.7786
699.482	0.7944
707.527	0.7997
715.573	0.7371
723.619	0.4442
731.664	0.8163
739.71	0.8379
747.755	0.8537
755.801	0.8726
763.847	0.7964
771.892	0.8612
779.938	0.864
787.984	0.8608
796.029	0.8547
804.075	0.8487
812.12	0.8431
820.166	0.8231
828.212	0.7843
836.257	0.7061
844.303	0.4827
852.348	0.7829
860.394	0.8725
868.44	0.873
876.485	0.8624
884.531	0.8405
892.576	0.8125
900.622	0.6001
908.668	0.8328
916.713	0.8347
924.759	0.8319
932.804	0.8264
940.85	0.8195
948.896	0.8122
956.941	0.8077
964.987	0.8046
973.032	0.7904
981.078	0.7778
989.124	0.7619
997.169	0.7416
1005.21	0.7089
1013.26	0.5751
1021.31	0.737
1029.35	0.7181
1037.4	0.6836
1045.44	0.5912
1053.49	0.3146
1061.53	0.6706
1069.58	0.6331
1077.63	0.3388
1085.67	0.6727
1093.72	0.7508
1101.76	0.7579
1109.81	0.7445
1117.85	0.7102
1125.9	0.6733
1133.94	0.617
1141.99	0.5089
1150.04	0.7044
1158.08	0.7161
1166.13	0.6998
1174.17	0.6727
1182.22	0.6362
1190.26	0.5976
1198.31	0.5384
1206.36	0.4704
1214.4	0.3609
1222.45	0.2598
1230.49	0.1409
1238.54	0.1313
1246.58	0.2519
1254.63	0.3512
1262.67	0.326
1270.72	0.2047
1278.77	0.2323
1286.81	0.4103
1294.86	0.3753
1302.9	0.4259
1310.95	0.4192
1318.99	0.3254
1327.04	0.3784
1335.08	0.4997
1343.13	0.5554
1351.18	0.5761
1359.22	0.6719
1367.27	0.7139
1375.31	0.5603
1383.36	0.3987
1391.4	0.638
1399.45	0.6758
1407.5	0.7175
1415.54	0.7179
1423.59	0.6992
1431.63	0.6635
1439.68	0.6206
1447.72	0.6734
1455.77	0.68
1463.81	0.5921
1471.86	0.4022
1479.91	0.4896
1487.95	0.6245
1496	0.4793
1504.04	0.4555
1512.09	0.472
1520.13	0.6394
1528.18	0.6449
1536.22	0.5221
1544.27	0.3108
1552.32	0.3686
1560.36	0.5758
1568.41	0.6229
1576.45	0.6935
1584.5	0.7192
1592.54	0.7315
1600.59	0.7356
1608.64	0.7401
1616.68	0.7428
1624.73	0.745
1632.77	0.753
1640.82	0.7626
1648.86	0.7719
1656.91	0.7863
1664.95	0.7967
1673	0.806
1681.05	0.8137
1689.09	0.8186
1697.14	0.8211
1705.18	0.8231
1713.23	0.8246
1721.27	0.8237
1729.32	0.8215
1737.37	0.8244
1745.41	0.8281
1753.46	0.822
1761.5	0.8001
1769.55	0.7779
1777.59	0.712
1785.64	0.8102
1793.68	0.8393
1801.73	0.8395
1809.78	0.8398
1817.82	0.8359
1825.87	0.837
1833.91	0.8393
1841.96	0.8399
1850	0.8375
1858.05	0.8351
1866.09	0.8326
1874.14	0.8311
1882.19	0.8327
1890.23	0.8344
1898.28	0.8342
1906.32	0.833
1914.37	0.8318
1922.41	0.8322
1930.46	0.8335
1938.51	0.8307
1946.55	0.8289
1954.6	0.8279
1962.64	0.8285
1970.69	0.8267
1978.73	0.8286
1986.78	0.8302
1994.82	0.8307
2002.87	0.8289
2010.92	0.8258
2018.96	0.8223
2027.01	0.8188
2035.05	0.8175
2043.1	0.8221
2051.14	0.82
2059.19	0.822
2067.23	0.8231
2075.28	0.8196
2083.33	0.8166
2091.37	0.8146
2099.42	0.8132
2107.46	0.8157
2115.51	0.8234
2123.55	0.809
2131.6	0.8082
2139.65	0.8105
2147.69	0.8125
2155.74	0.8127
2163.78	0.8117
2171.83	0.8201
2179.87	0.8061
2187.92	0.8083
2195.96	0.8123
2204.01	0.8151
2212.06	0.8154
2220.1	0.808
2228.15	0.8049
2236.19	0.8049
2244.24	0.8052
2252.28	0.803
2260.33	0.7982
2268.38	0.7957
2276.42	0.7933
2284.47	0.7911
2292.51	0.7914
2300.56	0.7895
2308.6	0.7861
2316.65	0.7853
2324.69	0.7874
2332.74	0.7781
2340.79	0.7771
2348.83	0.7816
2356.88	0.7837
2364.92	0.7858
2372.97	0.7884
2381.01	0.7911
2389.06	0.7902
2397.1	0.785
2405.15	0.7863
2413.2	0.788
2421.24	0.7885
2429.29	0.7845
2437.33	0.7832
2445.38	0.7813
2453.42	0.7842
2461.47	0.7854
2469.52	0.7859
2477.56	0.7857
2485.61	0.7884
2493.65	0.7793
2501.7	0.7753
2509.74	0.7719
2517.79	0.7719
2525.83	0.7677
2533.88	0.7702
2541.93	0.7699
2549.97	0.7698
2558.02	0.7684
2566.06	0.7657
2574.11	0.7625
2582.15	0.7585
2590.2	0.7543
2598.24	0.757
2606.29	0.7608
2614.34	0.7628
2622.38	0.7632
2630.43	0.7665
2638.47	0.7658
2646.52	0.7638
2654.56	0.7636
2662.61	0.765
2670.66	0.7665
2678.7	0.769
2686.75	0.771
2694.79	0.7669
2702.84	0.763
2710.88	0.7608
2718.93	0.7595
2726.97	0.7584
2735.02	0.7576
2743.07	0.7572
2751.11	0.7552
2759.16	0.7513
2767.2	0.7502
2775.25	0.7513
2783.29	0.7504
2791.34	0.7468
2799.39	0.7495
2807.43	0.7467
2815.48	0.7434
2823.52	0.7434
2831.57	0.7427
2839.61	0.7448
2847.66	0.7437
2855.7	0.7408
2863.75	0.7372
2871.8	0.7339
2879.84	0.729
2887.89	0.7281
2895.93	0.7306
2903.98	0.7269
2912.02	0.7319
2920.07	0.733
2928.11	0.7302
2936.16	0.7248
2944.21	0.7177
2952.25	0.7133
2960.3	0.7117
2968.34	0.7118
2976.39	0.7113
2984.43	0.7101
2992.48	0.7087
3000.53	0.707
3008.57	0.7039
3016.62	0.7006
3024.66	0.6957
3032.71	0.6876
3040.75	0.6822
3048.8	0.6702
3056.84	0.6396
3064.89	0.5985
3072.94	0.5285
3080.98	0.4675
3089.03	0.5285
3097.07	0.6946
3105.12	0.7341
3113.16	0.7396
3121.21	0.7377
3129.25	0.7338
3137.3	0.7301
3145.35	0.7291
3153.39	0.7289
3161.44	0.728
3169.48	0.7255
3177.53	0.7222
3185.57	0.7165
3193.62	0.7124
3201.67	0.711
3209.71	0.7098
3217.76	0.7085
3225.8	0.707
3233.85	0.7049
3241.89	0.7025
3249.94	0.7
3257.98	0.6966
3266.03	0.6957
3274.08	0.692
3282.12	0.6809
3290.17	0.6751
3298.21	0.6693
3306.26	0.665
3314.3	0.6598
3322.35	0.6547
3330.4	0.6497
3338.44	0.6462
3346.49	0.6432
3354.53	0.6334
3362.58	0.6283
3370.62	0.6236
3378.67	0.6161
3386.71	0.6092
3394.76	0.6046
3402.81	0.6037
3410.85	0.6034
3418.9	0.6038
3426.94	0.6048
3434.99	0.606
3443.03	0.6068
3451.08	0.6095
3459.12	0.6144
3467.17	0.621
3475.22	0.6292
3483.26	0.6359
3491.31	0.6409
3499.35	0.6444
3507.4	0.6475
3515.44	0.6517
3523.49	0.66
3531.54	0.6626
3539.58	0.6658
3547.63	0.6701
3555.67	0.6782
3563.72	0.6876
3571.76	0.6946
3579.81	0.7
3587.85	0.7048
3595.9	0.7099
3603.95	0.7151
3611.99	0.72
3620.04	0.7231
3628.08	0.7231
3636.13	0.723
3644.17	0.7251
3652.22	0.7219
3660.26	0.7225
3668.31	0.7245
3676.36	0.7251
3684.4	0.7267
3692.45	0.7365
3700.49	0.7279
3708.54	0.7224
3716.58	0.7234
3724.63	0.7262
3732.68	0.7296
3740.72	0.7276
3748.77	0.7239
3756.81	0.7247
3764.86	0.7324
3772.9	0.7263
3780.95	0.7239
3788.99	0.7345
3797.04	0.7267
3805.09	0.7226
3813.13	0.7274
