Infrared Spectrum: PHENYLMERCURIC NITRATE
Formula: C12 H11 N O4 Hg2
State: SOLID (MINERAL OIL MULL)
Melting point: 249-251 C
Class: COBLENTZ
Instrument: Not specified, most likely a prism, grating, or hybrid spectrometer.
Sampling: TRANSMISSION
Resolution: 4
Origin: WYANDOTTE CHEMICALS CORP., WYANDOTTE, MICHIGAN, USA
MICROMETERS	TRANSMITTANCE
2.019	0.387
2.05613	0.391
2.09327	0.399
2.1304	0.404
2.16753	0.407
2.20467	0.401
2.2418	0.395
2.27893	0.412
2.31607	0.416
2.3532	0.412
2.39033	0.413
2.42747	0.423
2.4646	0.43
2.50173	0.438
2.53887	0.449
2.576	0.452
2.61313	0.454
2.65027	0.466
2.6874	0.483
2.72453	0.477
2.76167	0.468
2.7988	0.466
2.83593	0.447
2.87307	0.441
2.9102	0.429
2.94733	0.391
2.98447	0.365
3.0216	0.337
3.05873	0.307
3.09587	0.307
3.133	0.307
3.17013	0.312
3.20727	0.332
3.2444	0.335
3.28153	0.289
3.31867	0.231
3.3558	0.038
3.39293	0.026
3.43007	0.035
3.4672	0.049
3.50433	0.06
3.54147	0.354
3.5786	0.505
3.61573	0.545
3.65287	0.545
3.69	0.528
3.72713	0.538
3.76427	0.547
3.8014	0.559
3.83853	0.569
3.87567	0.58
3.9128	0.587
3.94993	0.603
3.98707	0.6
4.0242	0.611
4.06133	0.614
4.09847	0.611
4.1356	0.609
4.17273	0.608
4.20987	0.592
4.247	0.595
4.28413	0.614
4.32127	0.629
4.3584	0.654
4.39553	0.654
4.43267	0.653
4.4698	0.648
4.50693	0.659
4.54407	0.646
4.5812	0.659
4.61833	0.673
4.65547	0.667
4.6926	0.679
4.72973	0.684
4.76687	0.696
4.804	0.707
4.84113	0.707
4.87827	0.71
4.9154	0.724
4.95253	0.715
4.98967	0.726
5.0268	0.73
5.06393	0.738
5.10107	0.729
5.1382	0.732
5.17533	0.73
5.21247	0.748
5.2496	0.752
5.28673	0.758
5.32387	0.741
5.361	0.754
5.39813	0.774
5.43527	0.769
5.4724	0.771
5.50953	0.765
5.54667	0.776
5.5838	0.793
5.62093	0.79
5.65807	0.772
5.6952	0.771
5.73233	0.772
5.76947	0.813
5.8066	0.799
5.84373	0.807
5.88087	0.818
5.918	0.8
5.95513	0.807
5.99227	0.816
6.0294	0.802
6.06653	0.8
6.10367	0.811
6.1408	0.822
6.17793	0.839
6.21507	0.827
6.2522	0.839
6.28933	0.78
6.32647	0.765
6.3636	0.819
6.40073	0.846
6.43787	0.847
6.475	0.874
6.51213	0.863
6.54927	0.869
6.5864	0.858
6.62353	0.869
6.66067	0.836
6.6978	0.634
6.73493	0.446
6.77207	0.281
6.8092	0.22
6.84633	0.283
6.88347	0.365
6.9206	0.468
6.95773	0.337
6.99487	0.587
7.032	0.628
7.06913	0.556
7.10627	0.455
7.1434	0.315
7.18053	0.161
7.21767	0.055
7.2548	0.051
7.29193	0.085
7.32907	0.153
7.3662	0.23
7.40333	0.251
7.44047	0.202
7.4776	0.132
7.51473	0.143
7.55187	0.149
7.589	0.115
7.62613	0.121
7.66327	0.15
7.7004	0.203
7.73753	0.255
7.77467	0.306
7.8118	0.356
7.84893	0.393
7.88607	0.419
7.9232	0.458
7.96033	0.489
7.99747	0.514
8.0346	0.531
8.07173	0.556
8.10887	0.578
8.146	0.594
8.18313	0.604
8.22027	0.617
8.2574	0.625
8.29453	0.64
8.33167	0.65
8.3688	0.65
8.40593	0.653
8.44307	0.654
8.4802	0.659
8.51733	0.657
8.55447	0.653
8.5916	0.643
8.62873	0.657
8.66587	0.632
8.703	0.656
8.74013	0.664
8.77727	0.66
8.8144	0.657
8.85153	0.646
8.88867	0.628
8.9258	0.609
8.96293	0.603
9.00007	0.6
9.0372	0.597
9.07433	0.6
9.11147	0.606
9.1486	0.615
9.18573	0.623
9.22287	0.634
9.26	0.623
9.29713	0.622
9.33427	0.634
9.3714	0.628
9.40853	0.64
9.44567	0.665
9.4828	0.69
9.51993	0.69
9.55707	0.578
9.5942	0.637
9.63133	0.673
9.66847	0.69
9.7056	0.699
9.74273	0.564
9.77987	0.489
9.817	0.636
9.85413	0.671
9.89127	0.688
9.9284	0.713
9.96553	0.727
10.0027	0.684
10.0398	0.678
10.0769	0.723
10.1141	0.729
10.1512	0.73
10.1883	0.735
10.2255	0.732
10.2626	0.735
10.2997	0.734
10.3369	0.735
10.374	0.751
10.4111	0.752
10.4483	0.754
10.4854	0.766
10.5225	0.777
10.5597	0.791
10.5968	0.791
10.6339	0.793
10.6711	0.796
10.7082	0.796
10.7453	0.799
10.7825	0.808
10.8196	0.813
10.8567	0.814
10.8939	0.788
10.931	0.79
10.9681	0.769
11.0053	0.772
11.0424	0.828
11.0795	0.855
11.1167	0.856
11.1538	0.867
11.1909	0.869
11.2281	0.872
11.2652	0.874
11.3023	0.881
11.3395	0.883
11.3766	0.891
11.4137	0.903
11.4509	0.903
11.488	0.903
11.5251	0.9
11.5623	0.898
11.5994	0.897
11.6365	0.903
11.6737	0.88
11.7108	0.874
11.7479	0.894
11.7851	0.9
11.8222	0.906
11.8593	0.911
11.8965	0.911
11.9336	0.92
11.9707	0.919
12.0079	0.92
12.045	0.919
12.0821	0.925
12.1193	0.92
12.1564	0.914
12.1935	0.875
12.2307	0.799
12.2678	0.693
12.3049	0.715
12.3421	0.881
12.3792	0.93
12.4163	0.933
12.4535	0.933
12.4906	0.933
12.5277	0.936
12.5649	0.934
12.602	0.944
12.6391	0.942
12.6763	0.94
12.7134	0.94
12.7505	0.94
12.7877	0.937
12.8248	0.942
12.8619	0.937
12.8991	0.934
12.9362	0.931
12.9733	0.928
13.0105	0.928
13.0476	0.925
13.0847	0.925
13.1219	0.922
13.159	0.919
13.1961	0.917
13.2333	0.914
13.2704	0.905
13.3075	0.9
13.3447	0.891
13.3818	0.881
13.4189	0.87
13.4561	0.847
13.4932	0.744
13.5303	0.698
13.5675	0.626
13.6046	0.553
13.6417	0.424
13.6789	0.258
13.716	0.133
13.7531	0.102
13.7903	0.185
13.8274	0.356
13.8645	0.503
13.9017	0.606
13.9388	0.699
13.9759	0.757
14.0131	0.8
14.0502	0.83
14.0873	0.844
14.1245	0.841
14.1616	0.85
14.1987	0.836
14.2359	0.805
14.273	0.741
14.3101	0.632
14.3473	0.53
14.3844	0.446
14.4215	0.376
14.4587	0.337
14.4958	0.381
14.5329	0.496
14.5701	0.603
14.6072	0.662
14.6443	0.71
14.6815	0.735
14.7186	0.749
14.7557	0.76
14.7929	0.776
14.83	0.771
14.8671	0.765
14.9043	0.744
14.9414	0.723
14.9785	0.712
15.0157	0.685
15.0528	0.639
15.0899	0.626
15.1271	0.629
15.1642	0.657
15.2013	0.688
15.2385	0.71
15.2756	0.72
15.3127	0.715
15.3499	0.71
15.387	0.71
15.4241	0.709
15.4613	0.701
15.4984	0.692
15.5355	0.678
15.5727	0.673
15.6098	0.67
15.6469	0.664
15.6841	0.654
15.7212	0.643
15.7583	0.629
15.7955	0.609
15.8326	0.601
15.8697	0.592
15.9069	0.584
15.944	0.58
15.9811	0.562
