Infrared Spectrum: 1-HYDROXY-2(1H)-PYRIDINETHIONE, MANGANESE SALT
Formula: C10 H10 N2 O2 S2 Mn
State: SOLID (MINERAL OIL MULL)
Class: COBLENTZ
Instrument: Not specified, most likely a prism, grating, or hybrid spectrometer.
Sampling: TRANSMISSION
Resolution: 4
Origin: WYANDOTTE CHEMICALS CORP., WYANDOTTE, MICHIGAN, USA
MICROMETERS	TRANSMITTANCE
2.025	0.348
2.06225	0.35
2.0995	0.353
2.13675	0.362
2.174	0.38
2.21125	0.381
2.24851	0.381
2.28576	0.389
2.32301	0.401
2.36026	0.414
2.39751	0.423
2.43476	0.429
2.47201	0.437
2.50926	0.447
2.54651	0.451
2.58376	0.464
2.62102	0.473
2.65827	0.479
2.69552	0.493
2.73277	0.498
2.77002	0.501
2.80727	0.503
2.84452	0.5
2.88177	0.501
2.91902	0.503
2.95627	0.503
2.99352	0.501
3.03078	0.507
3.06803	0.509
3.10528	0.517
3.14253	0.514
3.17978	0.51
3.21703	0.507
3.25428	0.419
3.29153	0.415
3.32878	0.367
3.36603	0.138
3.40329	0.042
3.44054	0.043
3.47779	0.088
3.51504	0.099
3.55229	0.381
3.58954	0.59
3.62679	0.633
3.66404	0.647
3.70129	0.644
3.73854	0.649
3.77579	0.66
3.81305	0.677
3.8503	0.685
3.88755	0.69
3.9248	0.7
3.96205	0.713
3.9993	0.736
4.03655	0.739
4.0738	0.744
4.11105	0.749
4.1483	0.75
4.18556	0.749
4.22281	0.753
4.26006	0.753
4.29731	0.75
4.33456	0.761
4.37181	0.778
4.40906	0.799
4.44631	0.803
4.48356	0.808
4.52081	0.811
4.55807	0.813
4.59532	0.825
4.63257	0.83
4.66982	0.831
4.70707	0.831
4.74432	0.838
4.78157	0.858
4.81882	0.866
4.85607	0.869
4.89332	0.869
4.93057	0.873
4.96783	0.883
5.00508	0.886
5.04233	0.88
5.07958	0.876
5.11683	0.89
5.15408	0.9
5.19133	0.909
5.22858	0.906
5.26583	0.911
5.30308	0.912
5.34034	0.911
5.37759	0.908
5.41484	0.922
5.45209	0.923
5.48934	0.931
5.52659	0.937
5.56384	0.928
5.60109	0.922
5.63834	0.934
5.67559	0.948
5.71284	0.95
5.7501	0.948
5.78735	0.959
5.8246	0.95
5.86185	0.939
5.8991	0.94
5.93635	0.92
5.9736	0.926
6.01085	0.928
6.0481	0.914
6.08535	0.911
6.12261	0.889
6.15986	0.858
6.19711	0.591
6.23436	0.7
6.27161	0.855
6.30886	0.919
6.34611	0.922
6.38336	0.919
6.42061	0.655
6.45786	0.355
6.49511	0.579
6.53237	0.764
6.56962	0.858
6.60687	0.872
6.64412	0.892
6.68137	0.795
6.71862	0.808
6.75587	0.557
6.79312	0.123
6.83037	0.076
6.86762	0.233
6.90488	0.443
6.94213	0.605
6.97938	0.657
7.01663	0.582
7.05388	0.247
7.09113	0.479
7.12838	0.654
7.16563	0.697
7.20288	0.637
7.24013	0.503
7.27738	0.563
7.31464	0.657
7.35189	0.769
7.38914	0.802
7.42639	0.817
7.46364	0.828
7.50089	0.858
7.53814	0.878
7.57539	0.878
7.61264	0.88
7.64989	0.881
7.68715	0.912
7.7244	0.922
7.76165	0.923
7.7989	0.866
7.83615	0.747
7.8734	0.752
7.91065	0.791
7.9479	0.869
7.98515	0.881
8.0224	0.883
8.05965	0.894
8.09691	0.867
8.13416	0.638
8.17141	0.599
8.20866	0.679
8.24591	0.633
8.28316	0.73
8.32041	0.806
8.35766	0.76
8.39491	0.456
8.43216	0.322
8.46942	0.5
8.50667	0.627
8.54392	0.325
8.58117	0.358
8.61842	0.26
8.65567	0.302
8.69292	0.5
8.73017	0.514
8.76742	0.655
8.80467	0.718
8.84192	0.749
8.87918	0.799
8.91643	0.827
8.95368	0.833
8.99093	0.845
9.02818	0.847
9.06543	0.842
9.10268	0.794
9.13993	0.504
9.17718	0.242
9.21443	0.518
9.25169	0.623
9.28894	0.707
9.32619	0.744
9.36344	0.769
9.40069	0.786
9.43794	0.8
9.47519	0.78
9.51244	0.699
9.54969	0.738
9.58694	0.757
9.6242	0.671
9.66145	0.643
9.6987	0.746
9.73595	0.794
9.7732	0.83
9.81045	0.847
9.8477	0.858
9.88495	0.873
9.9222	0.887
9.95945	0.901
9.9967	0.917
10.034	0.928
10.0712	0.928
10.1085	0.917
10.1457	0.923
10.183	0.928
10.2202	0.923
10.2575	0.908
10.2947	0.883
10.332	0.904
10.3692	0.931
10.4065	0.94
10.4437	0.943
10.481	0.939
10.5182	0.919
10.5555	0.92
10.5927	0.931
10.63	0.923
10.6672	0.915
10.7045	0.934
10.7417	0.956
10.779	0.965
10.8162	0.967
10.8535	0.968
10.8907	0.973
10.928	0.979
10.9652	0.984
11.0025	0.996
11.0397	1
11.077	1
11.1142	1
11.1515	1
11.1887	1
11.226	1
11.2632	1
11.3005	1.001
11.3377	1.001
11.375	1.003
11.4122	1.006
11.4495	1.004
11.4867	1.007
11.524	1.004
11.5612	1.003
11.5985	1.003
11.6357	1.004
11.673	1.001
11.7102	1.001
11.7475	0.998
11.7848	0.992
11.822	0.992
11.8593	0.995
11.8965	0.993
11.9338	0.992
11.971	0.982
12.0083	0.967
12.0455	0.936
12.0828	0.859
12.12	0.654
12.1573	0.431
12.1945	0.313
12.2318	0.336
12.269	0.501
12.3063	0.632
12.3435	0.732
12.3808	0.805
12.418	0.869
12.4553	0.915
12.4925	0.948
12.5298	0.964
12.567	0.979
12.6043	0.985
12.6415	0.989
12.6788	0.99
12.716	0.99
12.7533	0.989
12.7905	0.985
12.8278	0.984
12.865	0.981
12.9023	0.951
12.9395	0.928
12.9768	0.886
13.014	0.78
13.0513	0.646
13.0885	0.584
13.1258	0.476
13.163	0.348
13.2003	0.422
13.2375	0.627
13.2748	0.714
13.312	0.727
13.3493	0.609
13.3865	0.384
13.4238	0.232
13.461	0.352
13.4983	0.613
13.5355	0.764
13.5728	0.839
13.61	0.889
13.6473	0.909
13.6845	0.92
13.7218	0.928
13.7591	0.931
13.7963	0.934
13.8336	0.931
13.8708	0.928
13.9081	0.915
13.9453	0.909
13.9826	0.876
14.0198	0.775
14.0571	0.584
14.0943	0.419
14.1316	0.344
14.1688	0.461
14.2061	0.627
14.2433	0.694
14.2806	0.73
14.3178	0.783
14.3551	0.842
14.3923	0.894
14.4296	0.925
14.4668	0.945
14.5041	0.951
14.5413	0.95
14.5786	0.951
14.6158	0.95
14.6531	0.95
14.6903	0.948
14.7276	0.947
14.7648	0.939
14.8021	0.926
14.8393	0.919
14.8766	0.917
14.9138	0.911
14.9511	0.903
14.9883	0.856
15.0256	0.791
15.0628	0.744
15.1001	0.753
15.1373	0.794
15.1746	0.811
15.2118	0.814
15.2491	0.814
15.2863	0.803
15.3236	0.788
15.3608	0.774
15.3981	0.764
15.4353	0.753
15.4726	0.736
15.5098	0.727
15.5471	0.713
15.5843	0.7
15.6216	0.682
15.6588	0.671
15.6961	0.654
15.7334	0.641
15.7706	0.627
15.8079	0.61
15.8451	0.595
15.8824	0.582
15.9196	0.577
15.9569	0.556
