Infrared Spectrum: p-Phenylenediamine, 2-tert-butyl-N-methyl
Formula: C11 H18 N2
State: LIQUID (NEAT)
Class: COBLENTZ III
Instrument: BECKMAN IR-4 (HYBRID PRISM-GRATING)
Instrument parameters: NaCl PRISM
Sampling: TRANSMISSION
Path length: CAPILLARY
Resolution: 2
Origin: MONSANTO (J. FREEMAN)
1/CM	TRANSMITTANCE
4000	0.8827
3991	0.8836
3982	0.8847
3973	0.8855
3964	0.8861
3955	0.8867
3946	0.8874
3937	0.8881
3928	0.8886
3919	0.889
3910	0.8892
3901	0.8893
3892	0.8895
3883	0.8895
3874	0.8897
3865	0.8898
3856	0.8897
3847	0.8892
3838	0.8886
3829	0.8881
3820	0.8875
3811	0.8871
3802	0.8864
3793	0.8855
3784	0.8846
3775	0.8837
3766	0.8828
3757	0.8818
3748	0.8808
3739	0.8795
3730	0.8783
3721	0.877
3712	0.8756
3703	0.8742
3694	0.8721
3685	0.8702
3676	0.8682
3667	0.8662
3658	0.8641
3649	0.8617
3640	0.8592
3631	0.8566
3622	0.8536
3613	0.8506
3604	0.8468
3595	0.8427
3586	0.8347
3577	0.8193
3568	0.7649
3559	0.7503
3550	0.74
3541	0.7185
3532	0.6758
3523	0.6332
3514	0.5902
3505	0.5469
3496	0.5035
3487	0.46
3478	0.4351
3469	0.436
3460	0.4382
3451	0.4506
3442	0.4649
3433	0.4794
3424	0.486
3415	0.4866
3406	0.4866
3397	0.4399
3388	0.406
3379	0.3926
3370	0.3928
3361	0.3964
3352	0.4273
3343	0.4604
3334	0.4937
3325	0.5272
3316	0.5608
3307	0.5946
3298	0.617
3289	0.6175
3280	0.6166
3271	0.5994
3262	0.579
3253	0.5695
3244	0.5728
3235	0.5951
3226	0.62
3217	0.645
3208	0.6701
3199	0.6955
3190	0.7208
3181	0.7465
3172	0.7519
3163	0.7525
3154	0.7517
3145	0.7471
3136	0.7341
3127	0.71
3118	0.6846
3109	0.6591
3100	0.6335
3091	0.6077
3082	0.5817
3073	0.5556
3064	0.5364
3055	0.5265
3046	0.5131
3037	0.4844
3028	0.4136
3019	0.3347
3010	0.2553
3001	0.1763
2992	0.1608
2983	0.1651
2974	0.1858
2965	0.2066
2956	0.2275
2947	0.2465
2938	0.2502
2929	0.2542
2920	0.2595
2911	0.2644
2902	0.2707
2893	0.2792
2884	0.2899
2875	0.3625
2866	0.5006
2857	0.5352
2848	0.4446
2839	0.4337
2830	0.5441
2821	0.676
2812	0.7437
2803	0.7678
2794	0.7919
2785	0.8075
2776	0.8181
2767	0.8281
2758	0.8399
2749	0.8521
2740	0.8642
2731	0.8758
2722	0.8833
2713	0.8891
2704	0.8947
2695	0.899
2686	0.9024
2677	0.9051
2668	0.9063
2659	0.9051
2650	0.9006
2641	0.896
2632	0.8916
2623	0.8887
2614	0.8878
2605	0.8871
2596	0.8871
2587	0.8878
2578	0.89
2569	0.8927
2560	0.8981
2551	0.9054
2542	0.9143
2533	0.923
2524	0.927
2515	0.9294
2506	0.9316
2497	0.9327
2488	0.9336
2479	0.934
2470	0.9344
2461	0.9345
2452	0.9341
2443	0.9328
2434	0.9309
2425	0.9288
2416	0.9275
2407	0.9299
2398	0.9304
2389	0.9304
2380	0.9299
2371	0.9295
2362	0.9292
2353	0.929
2344	0.9288
2335	0.9286
2326	0.9284
2317	0.9277
2308	0.9289
2299	0.9316
2290	0.933
2281	0.9321
2272	0.9315
2263	0.9308
2254	0.9299
2245	0.9288
2236	0.9275
2227	0.9264
2218	0.9247
2209	0.9231
2200	0.9249
2191	0.9291
2182	0.9323
2173	0.9347
2164	0.9364
2155	0.9375
2146	0.9378
2137	0.9383
2128	0.9368
2119	0.9355
2110	0.9338
2101	0.9304
2092	0.9267
2083	0.9242
2074	0.9227
2065	0.9218
2056	0.921
2047	0.92
2038	0.9192
2029	0.9182
2020	0.9174
2011	0.9165
2002	0.9155
1993	0.9145
1984	0.9134
1975	0.9124
1966	0.9112
1957	0.9102
1948	0.909
1939	0.9078
1930	0.9068
1921	0.9056
1912	0.9042
1903	0.902
1894	0.8987
1885	0.894
1876	0.8896
1867	0.8863
1858	0.8821
1849	0.8786
1840	0.8807
1831	0.8892
1822	0.8999
1813	0.9059
1804	0.9078
1795	0.9099
1786	0.9094
1777	0.9006
1768	0.8871
1759	0.8737
1750	0.8645
1741	0.8596
1732	0.858
1723	0.8558
1714	0.8525
1705	0.8447
1696	0.8309
1687	0.814
1678	0.794
1669	0.7486
1660	0.6505
1651	0.5785
1642	0.4388
1633	0.2976
1624	0.2973
1615	0.395
1606	0.4937
1597	0.5222
1588	0.527
1579	0.6494
1570	0.6649
1561	0.6543
1552	0.5679
1543	0.3728
1534	0.2071
1525	0.1092
1516	0.0703
1507	0.1099
1498	0.208
1489	0.2119
1480	0.265
1471	0.3377
1462	0.2628
1453	0.1979
1444	0.3081
1435	0.3588
1426	0.3791
1417	0.4741
1408	0.5289
1399	0.4842
1390	0.6793
1381	0.5491
1372	0.4144
1363	0.6968
1354	0.7598
1345	0.7558
1336	0.7307
1327	0.6517
1318	0.3494
1309	0.1651
1300	0.274
1291	0.4105
1282	0.5487
1273	0.5664
1264	0.4075
1255	0.2119
1246	0.1536
1237	0.1748
1228	0.3579
1219	0.5739
1210	0.5947
1201	0.5197
1192	0.6536
1183	0.533
1174	0.3194
1165	0.4215
1156	0.6336
1147	0.6031
1138	0.5885
1129	0.6084
1120	0.6446
1111	0.6618
1102	0.6599
1093	0.621
1084	0.6922
1075	0.7881
1066	0.7881
1057	0.7275
1048	0.6778
1039	0.7361
1030	0.7192
1021	0.6089
1012	0.7924
1003	0.8178
994	0.8201
985	0.8162
976	0.8101
967	0.7992
958	0.7801
949	0.7451
940	0.6784
931	0.5008
922	0.6425
913	0.6764
904	0.6787
895	0.6354
886	0.5528
877	0.3859
868	0.3122
859	0.5034
850	0.5948
841	0.5618
832	0.4879
823	0.3749
814	0.2423
805	0.2099
796	0.395
787	0.5057
778	0.5545
769	0.5427
760	0.4605
751	0.4066
742	0.4034
733	0.3776
724	0.3676
715	0.3657
706	0.3746
697	0.3738
688	0.341
679	0.3506
670	0.3712
661	0.39
652	0.4066
643	0.42
634	0.4133
