Infrared Spectrum: 2-PHENYL-2-(p-AMINOPHENYL)ETHYLAMINE SULATE MONOHYDRATE
Formula: C14 H18 N2 O4 S  * H2 O
State: SOLID (OIL MULL)
Class: COBLENTZ III
Instrument: PERKIN-ELMER 21 (GRATING)
Instrument parameters: NaCl PRISM
Sampling: TRANSMISSION
Resolution: 2
Origin: SMITH KLINE & FRENCH LABS.
MICROMETERS	TRANSMITTANCE
1.98	0.833
2.01432	0.834
2.04863	0.844
2.08295	0.86
2.11726	0.862
2.15158	0.866
2.18589	0.875
2.22021	0.885
2.25453	0.888
2.28884	0.888
2.32316	0.877
2.35747	0.877
2.39179	0.883
2.42611	0.9
2.46042	0.896
2.49474	0.903
2.52905	0.918
2.56337	0.934
2.59768	0.936
2.632	0.936
2.66632	0.948
2.70063	0.958
2.73495	0.964
2.76926	0.956
2.80358	0.88
2.83789	0.804
2.87221	0.76
2.90653	0.746
2.94084	0.738
2.97516	0.755
3.00947	0.765
3.04379	0.782
3.0781	0.79
3.11242	0.772
3.14674	0.736
3.18105	0.635
3.21537	0.585
3.24968	0.523
3.284	0.486
3.31832	0.45
3.35263	0.396
3.38695	0.265
3.42126	0.06
3.45558	0.052
3.48989	0.059
3.52421	0.074
3.55853	0.133
3.59284	0.296
3.62716	0.339
3.66147	0.366
3.69579	0.397
3.7301	0.413
3.76442	0.409
3.79874	0.358
3.83305	0.349
3.86737	0.366
3.90168	0.405
3.936	0.452
3.97032	0.5
4.00463	0.531
4.03895	0.572
4.07326	0.621
4.10758	0.665
4.14189	0.699
4.17621	0.722
4.21053	0.754
4.24484	0.762
4.27916	0.767
4.31347	0.773
4.34779	0.805
4.3821	0.821
4.41642	0.832
4.45074	0.843
4.48505	0.852
4.51937	0.858
4.55368	0.866
4.588	0.871
4.62231	0.856
4.65663	0.84
4.69095	0.83
4.72526	0.815
4.75958	0.815
4.79389	0.819
4.82821	0.819
4.86253	0.823
4.89684	0.833
4.93116	0.843
4.96547	0.86
4.99979	0.871
5.0341	0.878
5.06842	0.889
5.10274	0.901
5.13705	0.905
5.17137	0.914
5.20568	0.922
5.24	0.92
5.27431	0.929
5.30863	0.935
5.34295	0.944
5.37726	0.946
5.41158	0.947
5.44589	0.95
5.48021	0.954
5.51453	0.956
5.54884	0.956
5.58316	0.956
5.61747	0.959
5.65179	0.967
5.6861	0.967
5.72042	0.965
5.75474	0.963
5.78905	0.961
5.82337	0.959
5.85768	0.957
5.892	0.941
5.92631	0.936
5.96063	0.919
5.99495	0.892
6.02926	0.844
6.06358	0.79
6.09789	0.725
6.13221	0.659
6.16652	0.637
6.20084	0.611
6.23516	0.639
6.26947	0.69
6.30379	0.723
6.3381	0.689
6.37242	0.688
6.40674	0.68
6.44105	0.637
6.47537	0.605
6.50968	0.604
6.544	0.656
6.57831	0.672
6.61263	0.476
6.64695	0.582
6.68126	0.681
6.71558	0.678
6.74989	0.74
6.78421	0.698
6.81852	0.44
6.85284	0.344
6.88716	0.347
6.92147	0.45
6.95579	0.627
6.9901	0.742
7.02442	0.844
7.05874	0.88
7.09305	0.889
7.12737	0.9
7.16168	0.9
7.196	0.857
7.23031	0.723
7.26463	0.564
7.29895	0.519
7.33326	0.689
7.36758	0.773
7.40189	0.822
7.43621	0.832
7.47052	0.839
7.50484	0.83
7.53916	0.824
7.57347	0.827
7.60779	0.846
7.6421	0.838
7.67642	0.85
7.71073	0.857
7.74505	0.869
7.77937	0.881
7.81368	0.881
7.848	0.886
7.88231	0.889
7.91663	0.884
7.95095	0.875
7.98526	0.868
8.01958	0.881
8.05389	0.886
8.08821	0.886
8.12252	0.874
8.15684	0.866
8.19116	0.826
8.22547	0.835
8.25979	0.83
8.2941	0.829
8.32842	0.812
8.36273	0.77
8.39705	0.743
8.43137	0.72
8.46568	0.656
8.5	0.639
8.53431	0.607
8.56863	0.566
8.60295	0.52
8.63726	0.445
8.67158	0.364
8.70589	0.354
8.74021	0.289
8.77452	0.233
8.80884	0.21
8.84316	0.204
8.87747	0.205
8.91179	0.214
8.9461	0.216
8.98042	0.212
9.01473	0.208
9.04905	0.195
9.08337	0.194
9.11768	0.206
9.152	0.221
9.18631	0.228
9.22063	0.226
9.25494	0.223
9.28926	0.22
9.32358	0.223
9.35789	0.222
9.39221	0.223
9.42652	0.233
9.46084	0.251
9.49516	0.282
9.52947	0.301
9.56379	0.31
9.5981	0.318
9.63242	0.315
9.66673	0.31
9.70105	0.319
9.73537	0.336
9.76968	0.39
9.804	0.409
9.83831	0.402
9.87263	0.52
9.90694	0.587
9.94126	0.636
9.97558	0.644
10.0099	0.652
10.0442	0.684
10.0785	0.706
10.1128	0.721
10.1472	0.739
10.1815	0.743
10.2158	0.728
10.2501	0.7
10.2844	0.682
10.3187	0.682
10.353	0.695
10.3874	0.698
10.4217	0.715
10.456	0.736
10.4903	0.762
10.5246	0.771
10.5589	0.779
10.5933	0.782
10.6276	0.79
10.6619	0.802
10.6962	0.782
10.7305	0.773
10.7648	0.768
10.7992	0.779
10.8335	0.807
10.8678	0.833
10.9021	0.846
10.9364	0.849
10.9707	0.851
11.005	0.816
11.0394	0.781
11.0737	0.812
11.108	0.835
11.1423	0.867
11.1766	0.871
11.2109	0.883
11.2453	0.889
11.2796	0.892
11.3139	0.899
11.3482	0.9
11.3825	0.902
11.4168	0.905
11.4512	0.906
11.4855	0.905
11.5198	0.896
11.5541	0.855
11.5884	0.801
11.6227	0.822
11.657	0.877
11.6914	0.895
11.7257	0.902
11.76	0.903
11.7943	0.901
11.8286	0.892
11.8629	0.886
11.8973	0.884
11.9316	0.89
11.9659	0.892
12.0002	0.88
12.0345	0.857
12.0688	0.804
12.1032	0.799
12.1375	0.793
12.1718	0.776
12.2061	0.766
12.2404	0.774
12.2747	0.806
12.309	0.83
12.3434	0.844
12.3777	0.86
12.412	0.88
12.4463	0.895
12.4806	0.902
12.5149	0.908
12.5493	0.909
12.5836	0.914
12.6179	0.922
12.6522	0.923
12.6865	0.923
12.7208	0.922
12.7552	0.922
12.7895	0.917
12.8238	0.911
12.8581	0.906
12.8924	0.897
12.9267	0.883
12.961	0.857
12.9954	0.788
13.0297	0.672
13.064	0.609
13.0983	0.639
13.1326	0.701
13.1669	0.736
13.2013	0.748
13.2356	0.778
13.2699	0.807
13.3042	0.826
13.3385	0.846
13.3728	0.854
13.4072	0.854
13.4415	0.851
13.4758	0.847
13.5101	0.841
13.5444	0.813
13.5787	0.821
13.613	0.818
13.6474	0.812
13.6817	0.801
13.716	0.778
13.7503	0.749
13.7846	0.692
13.8189	0.675
13.8533	0.709
13.8876	0.739
13.9219	0.765
13.9562	0.771
13.9905	0.774
14.0248	0.777
14.0592	0.774
14.0935	0.761
14.1278	0.725
14.1621	0.671
14.1964	0.602
14.2307	0.555
14.265	0.596
14.2994	0.641
14.3337	0.65
14.368	0.586
14.4023	0.526
14.4366	0.577
14.4709	0.673
14.5053	0.716
14.5396	0.736
14.5739	0.749
14.6082	0.751
14.6425	0.751
14.6768	0.749
14.7112	0.743
14.7455	0.743
14.7798	0.742
14.8141	0.736
14.8484	0.722
14.8827	0.722
14.917	0.72
14.9514	0.714
14.9857	0.715
15.02	0.701
