Infrared Spectrum: [1,2,5]THIADIAZOLO[3,4-d]PYRIMIDINE, 7-(HYDROXYAMINO)-
Formula: C4 H3 N5 O S
State: SOLID (1 mg / 500 mg KBr DISC)
Class: COBLENTZ III
Instrument: PERKIN-ELMER 221 (GRATING)
Instrument parameters: FILTER AT 980 CM ^-^1, GRATING FOR 4000-1428 CM ^-^1, NaCl PRISM FOR 1428-650 CM^-^1
Sampling: TRANSMISSION
Resolution: 4
Origin: SOUTHERN RES. INSTITUTE
1/CM	TRANSMITTANCE
603.06	0.873
612.12	0.8721
621.181	0.8662
630.241	0.861
639.302	0.8684
648.362	0.8874
657.422	0.8664
666.483	0.8437
675.543	0.8228
684.604	0.7914
693.664	0.7399
702.724	0.5819
711.785	0.5788
720.845	0.6418
729.906	0.658
738.966	0.6159
748.026	0.6621
757.087	0.758
766.147	0.841
775.208	0.8816
784.268	0.9064
793.328	0.9211
802.389	0.9217
811.449	0.8436
820.51	0.8076
829.57	0.5113
838.63	0.7837
847.691	0.9169
856.751	0.8486
865.812	0.3528
874.872	0.7421
883.932	0.8915
892.993	0.9282
902.053	0.8323
911.114	0.5777
920.174	0.6502
929.234	0.901
938.295	0.9038
947.355	0.8558
956.416	0.553
965.476	0.646
974.536	0.8758
983.597	0.9245
992.657	0.9432
1001.72	0.954
1010.78	0.896
1019.84	0.956
1028.9	0.9537
1037.96	0.95
1047.02	0.9457
1056.08	0.9389
1065.14	0.938
1074.2	0.937
1083.26	0.9303
1092.32	0.9024
1101.38	0.7046
1110.44	0.894
1119.5	0.9255
1128.56	0.9082
1137.62	0.8755
1146.68	0.6986
1155.74	0.7122
1164.8	0.8821
1173.87	0.935
1182.93	0.935
1191.99	0.934
1201.05	0.9273
1210.11	0.9193
1219.17	0.9163
1228.23	0.9144
1237.29	0.913
1246.35	0.91
1255.41	0.9033
1264.47	0.8902
1273.53	0.8742
1282.59	0.8506
1291.65	0.779
1300.71	0.5054
1309.77	0.5718
1318.83	0.81
1327.89	0.854
1336.95	0.7925
1346.01	0.7456
1355.07	0.5162
1364.13	0.5768
1373.19	0.757
1382.25	0.7392
1391.31	0.6871
1400.38	0.6058
1409.44	0.3696
1418.5	0.3122
1427.56	0.4666
1436.62	0.632
1445.68	0.8051
1454.74	0.87
1463.8	0.867
1472.86	0.8433
1481.92	0.8007
1490.98	0.6609
1500.04	0.2655
1509.1	0.4239
1518.16	0.6852
1527.22	0.803
1536.28	0.7832
1545.34	0.8058
1554.4	0.8738
1563.46	0.8733
1572.52	0.8395
1581.58	0.7884
1590.64	0.7366
1599.7	0.2308
1608.76	0.1846
1617.82	0.5117
1626.89	0.7542
1635.95	0.3499
1645.01	0.2488
1654.07	0.47
1663.13	0.7417
1672.19	0.8324
1681.25	0.9153
1690.31	0.9332
1699.37	0.944
1708.43	0.942
1717.49	0.9396
1726.55	0.937
1735.61	0.939
1744.67	0.9442
1753.73	0.952
1762.79	0.953
1771.85	0.952
1780.91	0.95
1789.97	0.949
1799.03	0.949
1808.09	0.9474
1817.15	0.947
1826.21	0.947
1835.27	0.947
1844.33	0.946
1853.4	0.9418
1862.46	0.937
1871.52	0.935
1880.58	0.934
1889.64	0.936
1898.7	0.934
1907.76	0.9293
1916.82	0.9254
1925.88	0.9246
1934.94	0.9285
1944	0.931
1953.06	0.929
1962.12	0.9268
1971.18	0.9228
1980.24	0.9149
1989.3	0.912
1998.36	0.8926
2007.42	0.8594
2016.48	0.9049
2025.54	0.908
2034.6	0.9099
2043.66	0.91
2052.72	0.91
2061.78	0.91
2070.84	0.91
2079.91	0.91
2088.97	0.9081
2098.03	0.906
2107.09	0.9021
2116.15	0.898
2125.21	0.896
2134.27	0.898
2143.33	0.901
2152.39	0.901
2161.45	0.901
2170.51	0.9029
2179.57	0.903
2188.63	0.901
2197.69	0.9
2206.75	0.898
2215.81	0.8941
2224.87	0.8929
2233.93	0.896
2242.99	0.898
2252.05	0.8951
2261.11	0.895
2270.17	0.8941
2279.23	0.892
2288.29	0.891
2297.35	0.891
2306.42	0.891
2315.48	0.89
2324.54	0.888
2333.6	0.885
2342.66	0.8811
2351.72	0.88
2360.78	0.882
2369.84	0.883
2378.9	0.8839
2387.96	0.884
2397.02	0.884
2406.08	0.884
2415.14	0.883
2424.2	0.8811
2433.26	0.8731
2442.32	0.87
2451.38	0.869
2460.44	0.8699
2469.5	0.87
2478.56	0.8671
2487.62	0.8612
2496.68	0.859
2505.74	0.857
2514.8	0.8541
2523.86	0.854
2532.93	0.854
2541.99	0.8531
2551.05	0.85
2560.11	0.848
2569.17	0.848
2578.23	0.848
2587.29	0.848
2596.35	0.849
2605.41	0.8481
2614.47	0.8461
2623.53	0.8372
2632.59	0.829
2641.65	0.826
2650.71	0.824
2659.77	0.824
2668.83	0.8161
2677.89	0.8033
2686.95	0.7971
2696.01	0.7891
2705.07	0.7841
2714.13	0.782
2723.19	0.78
2732.25	0.7772
2741.31	0.7634
2750.38	0.75
2759.44	0.7421
2768.5	0.7361
2777.56	0.7312
2786.62	0.7103
2795.68	0.703
2804.74	0.7039
2813.8	0.7089
2822.86	0.7119
2831.92	0.712
2840.98	0.708
2850.04	0.6966
2859.1	0.6931
2868.16	0.6664
2877.22	0.6464
2886.28	0.6289
2895.34	0.6475
2904.4	0.6481
2913.46	0.6441
2922.52	0.645
2931.58	0.6203
2940.64	0.611
2949.7	0.614
2958.76	0.6112
2967.82	0.5903
2976.89	0.5742
2985.95	0.5631
2995.01	0.5571
3004.07	0.5521
3013.13	0.5363
3022.19	0.5119
3031.25	0.53
3040.31	0.4674
3049.37	0.5054
3058.43	0.5301
3067.49	0.524
3076.55	0.5143
3085.61	0.4904
3094.67	0.4588
3103.73	0.4226
3112.79	0.3894
3121.85	0.3831
3130.91	0.382
3139.97	0.3644
3149.03	0.3354
3158.09	0.2995
3167.15	0.2621
3176.21	0.2395
3185.27	0.2035
3194.33	0.1684
3203.4	0.1482
3212.46	0.1449
3221.52	0.157
3230.58	0.1865
3239.64	0.2235
3248.7	0.2576
3257.76	0.2827
3266.82	0.2989
3275.88	0.3137
3284.94	0.3376
3294	0.3656
3303.06	0.3965
3312.12	0.4285
3321.18	0.4577
3330.24	0.4826
3339.3	0.5093
3348.36	0.5357
3357.42	0.5507
3366.48	0.5658
3375.54	0.5819
3384.6	0.5889
3393.66	0.592
3402.72	0.595
3411.78	0.598
3420.84	0.6019
3429.91	0.6049
3438.97	0.608
3448.03	0.6149
3457.09	0.6189
3466.15	0.6298
3475.21	0.635
3484.27	0.6399
3493.33	0.6469
3502.39	0.6529
3511.45	0.6589
3520.51	0.6697
3529.57	0.6849
3538.63	0.6879
3547.69	0.6929
3556.75	0.6989
3565.81	0.7069
3574.87	0.7147
3583.93	0.725
3592.99	0.7299
3602.05	0.7439
3611.11	0.7529
3620.17	0.7598
3629.23	0.768
3638.29	0.774
3647.35	0.776
3656.42	0.777
3665.48	0.777
3674.54	0.7701
3683.6	0.7719
3692.66	0.777
3701.72	0.7839
3710.78	0.7821
3719.84	0.7782
3728.9	0.774
3737.96	0.772
3747.02	0.771
3756.08	0.773
3765.14	0.776
3774.2	0.776
3783.26	0.775
3792.32	0.771
3801.38	0.769
3810.44	0.765
3819.5	0.764
3828.56	0.762
3837.62	0.762
3846.68	0.7601
3855.74	0.759
3864.8	0.758
3873.86	0.756
3882.93	0.756
3891.99	0.755
3901.05	0.754
3910.11	0.754
3919.17	0.754
3928.23	0.754
3937.29	0.753
3946.35	0.753
3955.41	0.753
3964.47	0.753
3973.53	0.752
3982.59	0.75
3991.65	0.7471
