Infrared Spectrum: UREA, 1-METHYL-3-[2-(PURIN-8-YLTHIO)ETHYL]-
Formula: C9 H12 N6 O S
State: SOLID (1 mg / 650 mg KBr DISC)
Class: COBLENTZ III
Instrument: PERKIN-ELMER 521 (GRATING)
Instrument parameters: FILTERS AT 3130, 2475, 2000, 620. GRATING CHANGES: 2000, 630 CM^-^1
Sampling: TRANSMISSION
Resolution: 2
Origin: SOUTHERN RESEARCH INSTITUTE
1/CM	TRANSMITTANCE
259.873	0.357
270.025	0.4258
280.178	0.4992
290.33	0.5592
300.482	0.6241
310.634	0.6565
320.787	0.6748
330.939	0.6887
341.091	0.712
351.243	0.6918
361.396	0.7626
371.548	0.8123
381.7	0.828
391.853	0.801
402.005	0.8174
412.157	0.853
422.309	0.848
432.462	0.846
442.614	0.8213
452.766	0.7825
462.919	0.8484
473.071	0.851
483.223	0.8463
493.375	0.8377
503.528	0.8237
513.68	0.7981
523.832	0.764
533.984	0.6657
544.137	0.77
554.289	0.7759
564.441	0.765
574.594	0.7518
584.746	0.7369
594.898	0.713
605.05	0.6465
615.203	0.4111
625.355	0.6511
635.507	0.6403
645.659	0.5895
655.812	0.6921
665.964	0.7103
676.116	0.67
686.269	0.7878
696.421	0.8624
706.573	0.869
716.725	0.851
726.878	0.8626
737.03	0.867
747.182	0.867
757.335	0.855
767.487	0.8278
777.639	0.8294
787.791	0.8234
797.944	0.6894
808.096	0.8263
818.248	0.7961
828.4	0.7205
838.553	0.6804
848.705	0.7388
858.857	0.727
869.01	0.7347
879.162	0.7893
889.314	0.8103
899.466	0.8127
909.619	0.7229
919.771	0.6675
929.923	0.808
940.076	0.7616
950.228	0.6244
960.38	0.4457
970.532	0.8014
980.685	0.869
990.837	0.8672
1000.99	0.8582
1011.14	0.837
1021.29	0.7601
1031.45	0.8105
1041.6	0.8087
1051.75	0.806
1061.9	0.806
1072.06	0.7764
1082.21	0.7955
1092.36	0.793
1102.51	0.738
1112.66	0.7783
1122.82	0.7928
1132.97	0.7779
1143.12	0.7657
1153.27	0.7338
1163.43	0.7044
1173.58	0.6907
1183.73	0.6823
1193.88	0.6322
1204.03	0.696
1214.19	0.6753
1224.34	0.6137
1234.49	0.5147
1244.64	0.4809
1254.8	0.3768
1264.95	0.2393
1275.1	0.3089
1285.25	0.5189
1295.41	0.5535
1305.56	0.635
1315.71	0.6047
1325.86	0.3981
1336.01	0.669
1346.17	0.5541
1356.32	0.2898
1366.47	0.3726
1376.62	0.542
1386.78	0.7316
1396.93	0.6571
1407.08	0.4849
1417.23	0.4212
1427.38	0.512
1437.54	0.3598
1447.69	0.617
1457.84	0.6673
1467.99	0.6825
1478.15	0.658
1488.3	0.6351
1498.45	0.5723
1508.6	0.4752
1518.76	0.383
1528.91	0.474
1539.06	0.5342
1549.21	0.4953
1559.36	0.4338
1569.52	0.2421
1579.67	0.276
1589.82	0.2189
1599.97	0.179
1610.13	0.2404
1620.28	0.2139
1630.43	0.1434
1640.58	0.1621
1650.73	0.3067
1660.89	0.4647
1671.04	0.5954
1681.19	0.6853
1691.34	0.7599
1701.5	0.8074
1711.65	0.8346
1721.8	0.8486
1731.95	0.8653
1742.11	0.8816
1752.26	0.891
1762.41	0.897
1772.56	0.9029
1782.71	0.909
1792.87	0.911
1803.02	0.916
1813.17	0.916
1823.32	0.916
1833.48	0.922
1843.63	0.9235
1853.78	0.9198
1863.93	0.9108
1874.08	0.9208
1884.24	0.934
1894.39	0.936
1904.54	0.936
1914.69	0.938
1924.85	0.941
1935	0.944
1945.15	0.941
1955.3	0.939
1965.46	0.9378
1975.61	0.935
1985.76	0.935
1995.91	0.9332
2006.06	0.919
2016.22	0.915
2026.37	0.911
2036.52	0.9068
2046.67	0.905
2056.83	0.902
2066.98	0.901
2077.13	0.898
2087.28	0.896
2097.43	0.8922
2107.59	0.888
2117.74	0.885
2127.89	0.8772
2138.04	0.8695
2148.2	0.863
2158.35	0.863
2168.5	0.862
2178.65	0.8514
2188.81	0.847
2198.96	0.8432
2209.11	0.8382
2219.26	0.828
2229.41	0.8214
2239.57	0.814
2249.72	0.8014
2259.87	0.8
2270.02	0.796
2280.18	0.7912
2290.33	0.7792
2300.48	0.767
2310.63	0.7584
2320.79	0.7512
2330.94	0.7322
2341.09	0.7245
2351.24	0.7154
2361.39	0.7082
2371.55	0.7004
2381.7	0.699
2391.85	0.694
2402	0.6882
2412.16	0.675
2422.31	0.6674
2432.46	0.6462
2442.61	0.6372
2452.76	0.631
2462.92	0.6312
2473.07	0.628
2483.22	0.6212
2493.37	0.6147
2503.53	0.6082
2513.68	0.597
2523.83	0.5804
2533.98	0.5732
2544.14	0.569
2554.29	0.5617
2564.44	0.5462
2574.59	0.5352
2584.74	0.5292
2594.9	0.525
2605.05	0.5184
2615.2	0.5152
2625.35	0.5146
2635.51	0.5112
2645.66	0.506
2655.81	0.503
2665.96	0.5093
2676.11	0.5226
2686.27	0.537
2696.42	0.5525
2706.57	0.5469
2716.72	0.5458
2726.88	0.56
2737.03	0.563
2747.18	0.5608
2757.33	0.5688
2767.49	0.5919
2777.64	0.601
2787.79	0.5754
2797.94	0.5477
2808.09	0.531
2818.25	0.5348
2828.4	0.5508
2838.55	0.56
2848.7	0.554
2858.86	0.5726
2869.01	0.5896
2879.16	0.5889
2889.31	0.578
2899.46	0.5848
2909.62	0.5832
2919.77	0.5601
2929.92	0.537
2940.07	0.5269
2950.23	0.5226
2960.38	0.5679
2970.53	0.6148
2980.68	0.6496
2990.84	0.6502
3000.99	0.6422
3011.14	0.6124
3021.29	0.5792
3031.44	0.5929
3041.6	0.6022
3051.75	0.5994
3061.9	0.59
3072.05	0.6284
3082.21	0.6689
3092.36	0.6921
3102.51	0.696
3112.66	0.6892
3122.81	0.6627
3132.97	0.6434
3143.12	0.657
3153.27	0.6635
3163.42	0.674
3173.58	0.679
3183.73	0.6826
3193.88	0.6838
3204.03	0.681
3214.19	0.6752
3224.34	0.6559
3234.49	0.64
3244.64	0.614
3254.79	0.5907
3264.95	0.5609
3275.1	0.5344
3285.25	0.5004
3295.4	0.4764
3305.56	0.4271
3315.71	0.3823
3325.86	0.3268
3336.01	0.285
3346.16	0.2898
3356.32	0.3284
3366.47	0.3942
3376.62	0.467
3386.77	0.5345
3396.93	0.5757
3407.08	0.6156
3417.23	0.6441
3427.38	0.6631
3437.54	0.6808
3447.69	0.6983
3457.84	0.7088
3467.99	0.7178
3478.14	0.727
3488.3	0.734
3498.45	0.739
3508.6	0.7478
3518.75	0.7566
3528.91	0.7658
3539.06	0.771
3549.21	0.7808
3559.36	0.7886
3569.52	0.7968
3579.67	0.8048
3589.82	0.8138
3599.97	0.8208
3610.12	0.829
3620.28	0.834
3630.43	0.844
3640.58	0.848
3650.73	0.8506
3660.89	0.852
3671.04	0.852
3681.19	0.849
3691.34	0.8528
3701.49	0.8568
3711.65	0.8578
3721.8	0.858
3731.95	0.858
3742.1	0.858
3752.26	0.856
3762.41	0.854
3772.56	0.854
3782.71	0.8522
3792.87	0.852
3803.02	0.852
3813.17	0.851
3823.32	0.8482
3833.47	0.8472
3843.63	0.847
3853.78	0.843
3863.93	0.843
3874.08	0.843
3884.24	0.8382
3894.39	0.837
3904.54	0.835
3914.69	0.837
3924.84	0.835
3935	0.834
3945.15	0.832
3955.3	0.83
3965.45	0.829
3975.61	0.827
3985.76	0.827
3995.91	0.8272
4006.06	0.827
