Infrared Spectrum: ACETIC ACID, MAGNESIUM SALT, TETRAHYDRATE
Formula: C4 H6 O4 Mg  * 4 H2 O
State: SOLID (MINERAL OIL MULL)
Class: COBLENTZ
Instrument: Not specified, most likely a prism, grating, or hybrid spectrometer.
Sampling: TRANSMISSION
Resolution: 4
Origin: BELL TELEPHONE LABORATORIES- F. VRATNY
MICROMETERS	TRANSMITTANCE
2.047	0.667
2.0808	0.674
2.1146	0.677
2.1484	0.68
2.1822	0.685
2.21601	0.689
2.24981	0.689
2.28361	0.682
2.31741	0.677
2.35121	0.668
2.38501	0.668
2.41881	0.67
2.45261	0.667
2.48641	0.667
2.52021	0.672
2.55402	0.672
2.58782	0.67
2.62162	0.668
2.65542	0.658
2.68922	0.648
2.72302	0.616
2.75682	0.538
2.79062	0.441
2.82442	0.21
2.85823	0.356
2.89203	0.405
2.92583	0.376
2.95963	0.319
2.99343	0.273
3.02723	0.224
3.06103	0.191
3.09483	0.159
3.12863	0.14
3.16244	0.127
3.19624	0.112
3.23004	0.118
3.26384	0.134
3.29764	0.149
3.33144	0.151
3.36524	0.073
3.39904	0.03
3.43284	0.028
3.46664	0.057
3.50045	0.074
3.53425	0.258
3.56805	0.417
3.60185	0.458
3.63565	0.488
3.66945	0.505
3.70325	0.531
3.73705	0.548
3.77085	0.56
3.80466	0.582
3.83846	0.599
3.87226	0.606
3.90606	0.614
3.93986	0.619
3.97366	0.621
4.00746	0.621
4.04126	0.623
4.07506	0.621
4.10887	0.624
4.14267	0.626
4.17647	0.626
4.21027	0.628
4.24407	0.631
4.27787	0.633
4.31167	0.641
4.34547	0.641
4.37927	0.641
4.41307	0.65
4.44688	0.653
4.48068	0.658
4.51448	0.662
4.54828	0.665
4.58208	0.668
4.61588	0.674
4.64968	0.677
4.68348	0.684
4.71728	0.687
4.75109	0.692
4.78489	0.696
4.81869	0.699
4.85249	0.701
4.88629	0.702
4.92009	0.706
4.95389	0.707
4.98769	0.707
5.02149	0.707
5.0553	0.706
5.0891	0.711
5.1229	0.711
5.1567	0.709
5.1905	0.709
5.2243	0.707
5.2581	0.706
5.2919	0.704
5.3257	0.704
5.3595	0.699
5.39331	0.694
5.42711	0.689
5.46091	0.682
5.49471	0.67
5.52851	0.66
5.56231	0.655
5.59611	0.643
5.62991	0.628
5.66371	0.607
5.69752	0.585
5.73132	0.563
5.76512	0.55
5.79892	0.541
5.83272	0.531
5.86652	0.529
5.90032	0.517
5.93412	0.505
5.96792	0.497
6.00173	0.48
6.03553	0.466
6.06933	0.438
6.10313	0.412
6.13693	0.382
6.17073	0.337
6.20453	0.3
6.23833	0.256
6.27213	0.205
6.30593	0.154
6.33974	0.117
6.37354	0.091
6.40734	0.089
6.44114	0.083
6.47494	0.083
6.50874	0.084
6.54254	0.086
6.57634	0.091
6.61014	0.101
6.64395	0.113
6.67775	0.122
6.71155	0.169
6.74535	0.185
6.77915	0.186
6.81295	0.125
6.84675	0.1
6.88055	0.098
6.91435	0.096
6.94816	0.095
6.98196	0.089
7.01576	0.084
7.04956	0.101
7.08336	0.147
7.11716	0.222
7.15096	0.268
7.18476	0.297
7.21856	0.295
7.25236	0.258
7.28617	0.3
7.31997	0.324
7.35377	0.356
7.38757	0.361
7.42137	0.371
7.45517	0.409
7.48897	0.436
7.52277	0.461
7.55657	0.468
7.59038	0.477
7.62418	0.494
7.65798	0.5
7.69178	0.512
7.72558	0.521
7.75938	0.533
7.79318	0.548
7.82698	0.551
7.86078	0.561
7.89459	0.572
7.92839	0.577
7.96219	0.584
7.99599	0.587
8.02979	0.594
8.06359	0.601
8.09739	0.606
8.13119	0.609
8.16499	0.624
8.19879	0.626
8.2326	0.626
8.2664	0.628
8.3002	0.631
8.334	0.636
8.3678	0.64
8.4016	0.646
8.4354	0.65
8.4692	0.65
8.503	0.646
8.53681	0.643
8.57061	0.643
8.60441	0.645
8.63821	0.645
8.67201	0.646
8.70581	0.646
8.73961	0.648
8.77341	0.648
8.80721	0.65
8.84102	0.651
8.87482	0.653
8.90862	0.653
8.94242	0.653
8.97622	0.653
9.01002	0.653
9.04382	0.653
9.07762	0.653
9.11142	0.651
9.14522	0.65
9.17903	0.646
9.21283	0.64
9.24663	0.634
9.28043	0.629
9.31423	0.624
9.34803	0.619
9.38183	0.602
9.41563	0.568
9.44943	0.546
9.48324	0.567
9.51704	0.592
9.55084	0.607
9.58464	0.612
9.61844	0.604
9.65224	0.553
9.68604	0.497
9.71984	0.451
9.75364	0.47
9.78744	0.524
9.82125	0.561
9.85505	0.577
9.88885	0.592
9.92265	0.602
9.95645	0.611
9.99025	0.619
10.0241	0.624
10.0579	0.626
10.0917	0.626
10.1255	0.626
10.1593	0.626
10.1931	0.623
10.2269	0.621
10.2607	0.616
10.2945	0.611
10.3283	0.607
10.3621	0.604
10.3959	0.597
10.4297	0.587
10.4635	0.577
10.4973	0.551
10.5311	0.533
10.5649	0.524
10.5987	0.553
10.6325	0.58
10.6663	0.599
10.7001	0.601
10.7339	0.601
10.7677	0.599
10.8015	0.597
10.8353	0.597
10.8691	0.594
10.9029	0.58
10.9367	0.575
10.9705	0.563
11.0043	0.553
11.0381	0.541
11.0719	0.524
11.1057	0.514
11.1395	0.5
11.1733	0.482
11.2071	0.468
11.2409	0.455
11.2747	0.426
11.3085	0.412
11.3423	0.393
11.3761	0.371
11.4099	0.358
11.4437	0.337
11.4775	0.322
11.5113	0.31
11.5451	0.303
11.5789	0.303
11.6127	0.303
11.6465	0.302
11.6803	0.302
11.7141	0.305
11.7479	0.312
11.7817	0.315
11.8155	0.317
11.8493	0.325
11.8831	0.329
11.9169	0.331
11.9507	0.332
11.9845	0.331
12.0183	0.334
12.0521	0.336
12.0859	0.337
12.1197	0.337
12.1535	0.336
12.1873	0.336
12.2211	0.336
12.2549	0.337
12.2887	0.336
12.3225	0.336
12.3563	0.332
12.3901	0.332
12.4239	0.334
12.4577	0.336
12.4915	0.339
12.5253	0.342
12.5591	0.353
12.5929	0.359
12.6267	0.37
12.6605	0.382
12.6943	0.393
12.7281	0.4
12.7619	0.407
12.7957	0.417
12.8295	0.424
12.8633	0.426
12.8971	0.432
12.9309	0.434
12.9647	0.436
12.9985	0.439
13.0323	0.439
13.0661	0.438
13.0999	0.439
13.1338	0.434
13.1676	0.432
13.2014	0.429
13.2352	0.426
13.269	0.419
13.3028	0.409
13.3366	0.402
13.3704	0.397
13.4042	0.38
13.438	0.368
13.4718	0.354
13.5056	0.346
13.5394	0.336
13.5732	0.329
13.607	0.32
13.6408	0.317
13.6746	0.31
13.7084	0.303
13.7422	0.303
13.776	0.307
13.8098	0.314
13.8436	0.312
13.8774	0.314
13.9112	0.317
13.945	0.324
13.9788	0.342
14.0126	0.354
14.0464	0.37
14.0802	0.382
14.114	0.4
14.1478	0.404
14.1816	0.421
14.2154	0.427
14.2492	0.436
14.283	0.444
14.3168	0.451
14.3506	0.46
14.3844	0.471
14.4182	0.478
14.452	0.478
14.4858	0.482
14.5196	0.483
14.5534	0.483
14.5872	0.483
14.621	0.482
14.6548	0.48
14.6886	0.477
14.7224	0.47
14.7562	0.453
14.79	0.424
14.8238	0.387
14.8576	0.353
14.8914	0.312
14.9252	0.292
14.959	0.283
14.9928	0.285
15.0266	0.29
15.0604	0.292
15.0942	0.29
15.128	0.285
15.1618	0.283
15.1956	0.281
15.2294	0.288
15.2632	0.303
15.297	0.331
