Infrared Spectrum: GUANIDINE SULFATE
Formula: C2 H10 N6  * H2 S O4
State: SOLID (MINERAL OIL MULL)
Class: COBLENTZ
Instrument: Not specified, most likely a prism, grating, or hybrid spectrometer.
Sampling: TRANSMISSION
Resolution: 4
Origin: WYANDOTTE CHEMICALS CORP., WYANDOTTE, MICHIGAN, USA
MICROMETERS	TRANSMITTANCE
2.025	0.741
2.0621	0.733
2.0992	0.716
2.13631	0.698
2.17341	0.653
2.21051	0.616
2.24761	0.6
2.28471	0.594
2.32181	0.578
2.35892	0.565
2.39602	0.557
2.43312	0.555
2.47022	0.535
2.50732	0.506
2.54442	0.493
2.58153	0.479
2.61863	0.458
2.65573	0.439
2.69283	0.404
2.72993	0.368
2.76704	0.315
2.80414	0.25
2.84124	0.191
2.87834	0.159
2.91544	0.142
2.95254	0.133
2.98965	0.13
3.02675	0.131
3.06385	0.133
3.10095	0.134
3.13805	0.126
3.17515	0.122
3.21226	0.136
3.24936	0.153
3.28646	0.154
3.32356	0.126
3.36066	0.1
3.39777	0.092
3.43487	0.105
3.47197	0.105
3.50907	0.111
3.54617	0.184
3.58327	0.289
3.62038	0.349
3.65748	0.421
3.69458	0.526
3.73168	0.597
3.76878	0.676
3.80588	0.786
3.84299	0.825
3.88009	0.846
3.91719	0.896
3.95429	0.93
3.99139	0.939
4.0285	0.947
4.0656	0.938
4.1027	0.922
4.1398	0.905
4.1769	0.899
4.214	0.883
4.25111	0.845
4.28821	0.854
4.32531	0.854
4.36241	0.826
4.39951	0.766
4.43662	0.73
4.47372	0.707
4.51082	0.662
4.54792	0.656
4.58502	0.676
4.62212	0.712
4.65923	0.732
4.69633	0.744
4.73343	0.773
4.77053	0.781
4.80763	0.75
4.84473	0.73
4.88184	0.722
4.91894	0.739
4.95604	0.76
4.99314	0.772
5.03024	0.77
5.06735	0.743
5.10445	0.741
5.14155	0.715
5.17865	0.693
5.21575	0.667
5.25285	0.643
5.28996	0.619
5.32706	0.58
5.36416	0.555
5.40126	0.534
5.43836	0.51
5.47546	0.489
5.51257	0.456
5.54967	0.421
5.58677	0.393
5.62387	0.346
5.66097	0.321
5.69808	0.28
5.73518	0.244
5.77228	0.199
5.80938	0.165
5.84648	0.15
5.88358	0.131
5.92069	0.139
5.95779	0.122
5.99489	0.13
6.03199	0.133
6.06909	0.136
6.10619	0.204
6.1433	0.287
6.1804	0.337
6.2175	0.235
6.2546	0.16
6.2917	0.159
6.32881	0.16
6.36591	0.196
6.40301	0.253
6.44011	0.304
6.47721	0.417
6.51431	0.489
6.55142	0.524
6.58852	0.532
6.62562	0.504
6.66272	0.465
6.69982	0.382
6.73692	0.253
6.77403	0.12
6.81113	0.116
6.84823	0.122
6.88533	0.134
6.92243	0.196
6.95954	0.297
6.99664	0.36
7.03374	0.4
7.07084	0.394
7.10794	0.394
7.14504	0.382
7.18215	0.27
7.21925	0.143
7.25635	0.134
7.29345	0.156
7.33055	0.21
7.36765	0.243
7.40476	0.244
7.44186	0.249
7.47896	0.247
7.51606	0.255
7.55316	0.258
7.59027	0.252
7.62737	0.232
7.66447	0.238
7.70157	0.229
7.73867	0.221
7.77577	0.222
7.81288	0.215
7.84998	0.212
7.88708	0.202
7.92418	0.204
7.96128	0.204
7.99838	0.195
8.03549	0.191
8.07259	0.193
8.10969	0.185
8.14679	0.182
8.18389	0.184
8.221	0.182
8.2581	0.178
8.2952	0.181
8.3323	0.168
8.3694	0.167
8.4065	0.167
8.44361	0.153
8.48071	0.15
8.51781	0.142
8.55491	0.14
8.59201	0.126
8.62912	0.13
8.66622	0.13
8.70332	0.133
8.74042	0.134
8.77752	0.13
8.81462	0.13
8.85173	0.128
8.88883	0.128
8.92593	0.123
8.96303	0.122
9.00013	0.119
9.03723	0.119
9.07434	0.122
9.11144	0.12
9.14854	0.116
9.18564	0.119
9.22274	0.117
9.25985	0.12
9.29695	0.12
9.33405	0.122
9.37115	0.123
9.40825	0.116
9.44535	0.117
9.48246	0.12
9.51956	0.117
9.55666	0.117
9.59376	0.12
9.63086	0.13
9.66796	0.134
9.70507	0.128
9.74217	0.139
9.77927	0.148
9.81637	0.147
9.85347	0.148
9.89058	0.154
9.92768	0.162
9.96478	0.178
10.0019	0.191
10.039	0.202
10.0761	0.204
10.1132	0.222
10.1503	0.233
10.1874	0.25
10.2245	0.256
10.2616	0.261
10.2987	0.28
10.3358	0.3
10.3729	0.309
10.41	0.326
10.4471	0.342
10.4842	0.354
10.5213	0.377
10.5584	0.397
10.5955	0.417
10.6326	0.438
10.6697	0.456
10.7068	0.47
10.7439	0.489
10.781	0.512
10.8181	0.541
10.8552	0.561
10.8923	0.582
10.9294	0.586
10.9665	0.619
11.0036	0.65
11.0407	0.667
11.0778	0.681
11.1149	0.698
11.152	0.704
11.1891	0.708
11.2262	0.713
11.2633	0.73
11.3004	0.741
11.3375	0.758
11.3746	0.764
11.4117	0.773
11.4488	0.772
11.486	0.787
11.5231	0.783
11.5602	0.787
11.5973	0.791
11.6344	0.789
11.6715	0.789
11.7086	0.784
11.7457	0.778
11.7828	0.77
11.8199	0.769
11.857	0.769
11.8941	0.763
11.9312	0.773
11.9683	0.766
12.0054	0.764
12.0425	0.763
12.0796	0.758
12.1167	0.755
12.1538	0.744
12.1909	0.741
12.228	0.732
12.2651	0.724
12.3022	0.718
12.3393	0.707
12.3764	0.688
12.4135	0.678
12.4506	0.668
12.4877	0.657
12.5248	0.648
12.5619	0.628
12.599	0.609
12.6361	0.595
12.6732	0.578
12.7103	0.56
12.7474	0.544
12.7845	0.515
12.8216	0.495
12.8587	0.47
12.8958	0.452
12.9329	0.428
12.97	0.413
13.0071	0.39
13.0442	0.38
13.0813	0.366
13.1184	0.351
13.1555	0.335
13.1926	0.325
13.2297	0.312
13.2668	0.3
13.3039	0.289
13.341	0.27
13.3781	0.256
13.4152	0.241
13.4523	0.238
13.4894	0.243
13.5265	0.25
13.5637	0.278
13.6008	0.291
13.6379	0.289
13.675	0.278
13.7121	0.261
13.7492	0.26
13.7863	0.243
13.8234	0.243
13.8605	0.229
13.8976	0.218
13.9347	0.226
13.9718	0.227
14.0089	0.221
14.046	0.219
14.0831	0.218
14.1202	0.204
14.1573	0.207
14.1944	0.204
14.2315	0.202
14.2686	0.199
14.3057	0.199
14.3428	0.201
14.3799	0.193
14.417	0.199
14.4541	0.195
14.4912	0.199
14.5283	0.199
14.5654	0.202
14.6025	0.201
14.6396	0.204
14.6767	0.207
14.7138	0.21
14.7509	0.215
14.788	0.218
14.8251	0.227
14.8622	0.235
14.8993	0.238
14.9364	0.235
14.9735	0.249
15.0106	0.263
15.0477	0.28
15.0848	0.287
15.1219	0.269
15.159	0.256
15.1961	0.258
15.2332	0.273
15.2703	0.278
15.3074	0.283
15.3445	0.298
15.3816	0.304
15.4187	0.311
15.4558	0.321
15.4929	0.329
15.53	0.325
15.5671	0.332
15.6042	0.331
15.6413	0.337
15.6785	0.343
15.7156	0.357
15.7527	0.362
15.7898	0.36
15.8269	0.368
15.864	0.374
15.9011	0.374
15.9382	0.386
15.9753	0.399
