Infrared Spectrum: PHOSPHORIC ACID, DIBENZYL N,N-DIMETHYL CARBAMYL ESTER
Formula: C17 H20 N O5 P
State: LIQUID (NEAT)
Class: COBLENTZ III
Instrument: PERKIN-ELMER 21 (GRATING)
Instrument parameters: NaCl PRISM, FILTER CHANGE AT 1090 CM^-^1
Sampling: TRANSMISSION
Path length: CAPILLARY
Resolution: 2
Origin: SOUTHERN RESEARCH INSTITUTE (W.C. COBURN, JR.)
1/CM	TRANSMITTANCE
613.567	0.509
622.725	0.509
631.883	0.511
641.04	0.5322
650.198	0.6176
659.356	0.627
668.514	0.627
677.672	0.629
686.829	0.629
695.987	0.5386
705.145	0.2945
714.303	0.5945
723.461	0.6421
732.618	0.5399
741.776	0.276
750.934	0.2866
760.092	0.381
769.25	0.6824
778.407	0.728
787.565	0.7034
796.723	0.692
805.881	0.699
815.039	0.6965
824.197	0.693
833.354	0.693
842.512	0.6746
851.67	0.6542
860.828	0.6081
869.986	0.4794
879.143	0.2558
888.301	0.1335
897.459	0.1716
906.617	0.2823
915.775	0.4769
924.932	0.5392
934.09	0.6193
943.248	0.657
952.406	0.6315
961.564	0.5586
970.721	0.3641
979.879	0.274
989.037	0.2162
998.195	0.0728
1007.35	0.05
1016.51	0.041
1025.67	0.0569
1034.83	0.1176
1043.98	0.1491
1053.14	0.2267
1062.3	0.2841
1071.46	0.3308
1080.62	0.4514
1089.77	0.506
1098.93	0.5829
1108.09	0.659
1117.25	0.6833
1126.4	0.692
1135.56	0.6713
1144.72	0.596
1153.88	0.4405
1163.04	0.3385
1172.19	0.3179
1181.35	0.3912
1190.51	0.5506
1199.67	0.6271
1208.82	0.6275
1217.98	0.5276
1227.14	0.509
1236.3	0.6737
1245.46	0.6501
1254.61	0.5779
1263.77	0.5052
1272.93	0.3831
1282.09	0.2383
1291.24	0.1882
1300.4	0.22
1309.56	0.3883
1318.72	0.6141
1327.88	0.7102
1337.03	0.739
1346.19	0.7541
1355.35	0.77
1364.51	0.7671
1373.66	0.7187
1382.82	0.6117
1391.98	0.4386
1401.14	0.3633
1410.3	0.4542
1419.45	0.5998
1428.61	0.6676
1437.77	0.7107
1446.93	0.6546
1456.09	0.5038
1465.24	0.4337
1474.4	0.5083
1483.56	0.5833
1492.72	0.5687
1501.87	0.495
1511.03	0.5729
1520.19	0.67
1529.35	0.726
1538.51	0.7394
1547.66	0.7655
1556.82	0.7769
1565.98	0.792
1575.14	0.791
1584.29	0.7886
1593.45	0.7743
1602.61	0.7843
1611.77	0.787
1620.93	0.791
1630.08	0.7815
1639.24	0.779
1648.4	0.7822
1657.56	0.789
1666.71	0.7687
1675.87	0.7564
1685.03	0.7206
1694.19	0.6736
1703.35	0.6287
1712.5	0.5689
1721.66	0.4031
1730.82	0.0686
1739.98	0.066
1749.13	0.0669
1758.29	0.2873
1767.45	0.5427
1776.61	0.7115
1785.77	0.7473
1794.92	0.7654
1804.08	0.7788
1813.24	0.782
1822.4	0.7865
1831.56	0.7957
1840.71	0.8033
1849.87	0.81
1859.03	0.809
1868.19	0.809
1877.34	0.806
1886.5	0.8045
1895.66	0.808
1904.82	0.812
1913.98	0.815
1923.13	0.817
1932.29	0.818
1941.45	0.815
1950.61	0.8163
1959.76	0.808
1968.92	0.8083
1978.08	0.8133
1987.24	0.8181
1996.4	0.826
2005.55	0.826
2014.71	0.8362
2023.87	0.839
2033.03	0.8385
2042.18	0.84
2051.34	0.841
2060.5	0.845
2069.66	0.843
2078.82	0.843
2087.97	0.852
2097.13	0.8452
2106.29	0.849
2115.45	0.849
2124.6	0.845
2133.76	0.844
2142.92	0.849
2152.08	0.848
2161.24	0.849
2170.39	0.852
2179.55	0.849
2188.71	0.846
2197.87	0.845
2207.03	0.857
2216.18	0.846
2225.34	0.846
2234.5	0.846
2243.66	0.846
2252.81	0.846
2261.97	0.852
2271.13	0.849
2280.29	0.845
2289.45	0.845
2298.6	0.845
2307.76	0.848
2316.92	0.8482
2326.08	0.85
2335.23	0.8572
2344.39	0.869
2353.55	0.87
2362.71	0.8668
2371.87	0.8618
2381.02	0.8528
2390.18	0.8458
2399.34	0.844
2408.5	0.844
2417.65	0.844
2426.81	0.841
2435.97	0.841
2445.13	0.8398
2454.29	0.84
2463.44	0.837
2472.6	0.833
2481.76	0.837
2490.92	0.837
2500.07	0.836
2509.23	0.8345
2518.39	0.835
2527.55	0.839
2536.71	0.839
2545.86	0.8392
2555.02	0.8442
2564.18	0.846
2573.34	0.8458
2582.5	0.8362
2591.65	0.841
2600.81	0.843
2609.97	0.843
2619.13	0.837
2628.28	0.84
2637.44	0.8385
2646.6	0.836
2655.76	0.8355
2664.92	0.837
2674.07	0.8358
2683.23	0.833
2692.39	0.8358
2701.55	0.833
2710.7	0.832
2719.86	0.827
2729.02	0.826
2738.18	0.8238
2747.34	0.8188
2756.49	0.814
2765.65	0.8142
2774.81	0.8155
2783.97	0.826
2793.12	0.818
2802.28	0.817
2811.44	0.81
2820.6	0.8098
2829.76	0.7958
2838.91	0.789
2848.07	0.777
2857.23	0.7685
2866.39	0.7618
2875.54	0.7538
2884.7	0.7448
2893.86	0.7333
2903.02	0.7205
2912.18	0.7075
2921.33	0.6923
2930.49	0.6725
2939.65	0.6555
2948.81	0.6515
2957.97	0.6647
2967.12	0.6842
2976.28	0.7172
2985.44	0.741
2994.6	0.757
3003.75	0.7553
3012.91	0.7448
3022.07	0.7423
3031.23	0.718
3040.39	0.6903
3049.54	0.6925
3058.7	0.7182
3067.86	0.7222
3077.02	0.7277
3086.17	0.757
3095.33	0.7715
3104.49	0.7792
3113.65	0.7887
3122.81	0.8005
3131.96	0.8092
3141.12	0.8172
3150.28	0.8222
3159.44	0.827
3168.59	0.827
3177.75	0.8225
3186.91	0.821
3196.07	0.8178
3205.23	0.8142
3214.38	0.8232
3223.54	0.826
3232.7	0.826
3241.86	0.827
3251.01	0.8253
3260.17	0.824
3269.33	0.827
3278.49	0.822
3287.65	0.8238
3296.8	0.822
3305.96	0.819
3315.12	0.817
3324.28	0.817
3333.44	0.8205
3342.59	0.817
3351.75	0.8172
3360.91	0.8245
3370.07	0.8173
3379.22	0.811
3388.38	0.811
3397.54	0.811
3406.7	0.8115
3415.86	0.815
3425.01	0.81
3434.17	0.802
3443.33	0.798
3452.49	0.7968
3461.64	0.791
3470.8	0.791
3479.96	0.7935
3489.12	0.796
3498.28	0.796
3507.43	0.8
3516.59	0.7968
3525.75	0.795
3534.91	0.8002
3544.06	0.805
3553.22	0.805
3562.38	0.8018
3571.54	0.797
3580.7	0.7972
3589.85	0.802
3599.01	0.802
3608.17	0.804
3617.33	0.804
3626.48	0.806
3635.64	0.8092
3644.8	0.8187
3653.96	0.8222
3663.12	0.8188
3672.27	0.81
3681.43	0.811
3690.59	0.813
3699.75	0.8187
3708.91	0.831
3718.06	0.832
3727.22	0.833
3736.38	0.835
3745.54	0.835
3754.69	0.833
3763.85	0.8362
3773.01	0.841
3782.17	0.8328
3791.33	0.827
3800.48	0.826
3809.64	0.8272
3818.8	0.832
3827.96	0.836
3837.11	0.836
3846.27	0.839
3855.43	0.836
3864.59	0.835
3873.75	0.837
3882.9	0.841
3892.06	0.836
3901.22	0.836
3910.38	0.84
3919.53	0.8345
3928.69	0.8312
3937.85	0.8362
3947.01	0.837
3956.17	0.84
3965.32	0.84
3974.48	0.84
3983.64	0.8318
3992.8	0.827
4001.95	0.8308
4011.11	0.8308
4020.27	0.8302
