Infrared Spectrum: TANNIC ACID
Formula: C76 H52 O46
State: SOLID (SPLIT MULL)
Melting point: 200 C DECOMP.
Class: COBLENTZ III
Instrument: DOW KBr FOREPRISM-GRATING
Instrument parameters: BLAZED AT 3.5, 12.0, 20.0 MICRON AND CHANGED AT 5.0, 7.5, 14.9 MICRON
Sampling: TRANSMISSION
Resolution: 2
Origin: DOW CHEMICAL COMPANY
1/CM	TRANSMITTANCE
448	0.6571
457	0.6585
466	0.6619
475	0.6671
484	0.6728
493	0.6687
502	0.6606
511	0.6514
520	0.6448
529	0.641
538	0.6376
547	0.6405
556	0.6468
565	0.6541
574	0.6538
583	0.6511
592	0.6538
601	0.6672
610	0.6778
619	0.6832
628	0.6871
637	0.6835
646	0.6708
655	0.6741
664	0.6868
673	0.6725
682	0.6692
691	0.666
700	0.6625
709	0.6406
718	0.5487
727	0.5626
736	0.5312
745	0.5446
754	0.4735
763	0.4804
772	0.6038
781	0.6751
790	0.7238
799	0.7687
808	0.7736
817	0.7725
826	0.7848
835	0.7947
844	0.7855
853	0.7594
862	0.6639
871	0.69
880	0.7332
889	0.7647
898	0.7887
907	0.7811
916	0.7471
925	0.7111
934	0.6797
943	0.6647
952	0.656
961	0.651
970	0.6464
979	0.5712
988	0.493
997	0.3916
1006	0.327
1015	0.264
1024	0.2209
1033	0.234
1042	0.3679
1051	0.4715
1060	0.476
1069	0.4436
1078	0.3794
1087	0.3821
1096	0.487
1105	0.5687
1114	0.5904
1123	0.582
1132	0.5337
1141	0.4443
1150	0.3966
1159	0.2608
1168	0.1995
1177	0.1512
1186	0.1189
1195	0.0979
1204	0.0967
1213	0.1015
1222	0.1242
1231	0.1762
1240	0.2308
1249	0.277
1258	0.3587
1267	0.4025
1276	0.4156
1285	0.3709
1294	0.2914
1303	0.1836
1312	0.1323
1321	0.1185
1330	0.1348
1339	0.1156
1348	0.1445
1357	0.1964
1366	0.2464
1375	0.2903
1384	0.3429
1393	0.4048
1402	0.4826
1411	0.5574
1420	0.5727
1429	0.495
1438	0.3471
1447	0.3187
1456	0.4408
1465	0.5017
1474	0.6843
1483	0.7169
1492	0.7145
1501	0.6611
1510	0.55
1519	0.5217
1528	0.4276
1537	0.4501
1546	0.5995
1555	0.6792
1564	0.6643
1573	0.581
1582	0.4707
1591	0.3664
1600	0.2544
1609	0.2212
1618	0.2825
1627	0.4244
1636	0.573
1645	0.5839
1654	0.5537
1663	0.4984
1672	0.4039
1681	0.3223
1690	0.2571
1699	0.2363
1708	0.2394
1717	0.2742
1726	0.4343
1735	0.5464
1744	0.7665
1753	0.8348
1762	0.8681
1771	0.8718
1780	0.869
1789	0.8647
1798	0.8567
1807	0.8505
1816	0.8437
1825	0.8356
1834	0.8282
1843	0.8217
1852	0.8161
1861	0.8105
1870	0.8057
1879	0.8011
1888	0.7968
1897	0.7918
1906	0.7874
1915	0.7833
1924	0.7786
1933	0.7741
1942	0.7703
1951	0.7665
1960	0.7628
1969	0.7593
1978	0.7499
1987	0.7424
1996	0.736
2005	0.7426
2014	0.7364
2023	0.7275
2032	0.721
2041	0.7161
2050	0.7118
2059	0.7071
2068	0.7025
2077	0.6975
2086	0.6924
2095	0.6875
2104	0.683
2113	0.6784
2122	0.6739
2131	0.6691
2140	0.6642
2149	0.6592
2158	0.6543
2167	0.649
2176	0.6434
2185	0.6376
2194	0.6308
2203	0.6225
2212	0.615
2221	0.6076
2230	0.6004
2239	0.5932
2248	0.5865
2257	0.5798
2266	0.5729
2275	0.5662
2284	0.5617
2293	0.5571
2302	0.5528
2311	0.5485
2320	0.5434
2329	0.5373
2338	0.5334
2347	0.5316
2356	0.5295
2365	0.5272
2374	0.525
2383	0.5224
2392	0.5199
2401	0.5168
2410	0.5137
2419	0.511
2428	0.5085
2437	0.5059
2446	0.5036
2455	0.5012
2464	0.4987
2473	0.4959
2482	0.493
2491	0.4895
2500	0.486
2509	0.4823
2518	0.4781
2527	0.4739
2536	0.4698
2545	0.4657
2554	0.4618
2563	0.4578
2572	0.4538
2581	0.4498
2590	0.446
2599	0.4426
2608	0.4391
2617	0.4357
2626	0.4321
2635	0.428
2644	0.4239
2653	0.4197
2662	0.4158
2671	0.4118
2680	0.4079
2689	0.4038
2698	0.3995
2707	0.396
2716	0.3957
2725	0.3949
2734	0.3937
2743	0.3918
2752	0.39
2761	0.3876
2770	0.3848
2779	0.3816
2788	0.3768
2797	0.372
2806	0.3671
2815	0.3622
2824	0.3578
2833	0.3534
2842	0.3491
2851	0.3444
2860	0.3397
2869	0.3347
2878	0.3288
2887	0.3229
2896	0.3157
2905	0.3079
2914	0.3023
2923	0.2959
2932	0.2911
2941	0.287
2950	0.2834
2959	0.28
2968	0.2765
2977	0.2726
2986	0.2688
2995	0.2642
3004	0.2594
3013	0.255
3022	0.2507
3031	0.2464
3040	0.2416
3049	0.2366
3058	0.2329
3067	0.2294
3076	0.2255
3085	0.2208
3094	0.2161
3103	0.2114
3112	0.2076
3121	0.2039
3130	0.2001
3139	0.1958
3148	0.1916
3157	0.1875
3166	0.1844
3175	0.1814
3184	0.1784
3193	0.1754
3202	0.1725
3211	0.1694
3220	0.1673
3229	0.1651
3238	0.1629
3247	0.1614
3256	0.1602
3265	0.1589
3274	0.1577
3283	0.1564
3292	0.1557
3301	0.1551
3310	0.1546
3319	0.1541
3328	0.1544
3337	0.1548
3346	0.1553
3355	0.1558
3364	0.157
3373	0.1582
3382	0.1596
3391	0.1613
3400	0.1636
3409	0.1672
3418	0.1711
3427	0.176
3436	0.1823
3445	0.1893
3454	0.1979
3463	0.2071
3472	0.2173
3481	0.229
3490	0.2448
3499	0.2595
3508	0.2734
3517	0.2888
3526	0.3101
3535	0.3322
3544	0.3518
3553	0.3724
3562	0.3932
3571	0.4159
3580	0.4312
3589	0.4432
3598	0.4572
3607	0.4773
3616	0.4952
3625	0.511
3634	0.5273
3643	0.5441
3652	0.5625
3661	0.5749
3670	0.5801
3679	0.5779
3688	0.5707
3697	0.563
3706	0.5562
3715	0.5497
3724	0.5429
3733	0.536
3742	0.5289
3751	0.5212
3760	0.5137
3769	0.5071
3778	0.5008
3787	0.495
3796	0.4905
3805	0.486
3814	0.4817
