Infrared Spectrum: TRIMETHYLAMINE-TRIBORANE (7)
Formula: C3 H16 B3 N
State: SOLID (KBr PELLET);
Class: COBLENTZ
Instrument: Not specified, most likely a prism, grating, or hybrid spectrometer.
Sampling: TRANSMISSION
Resolution: 4
Origin: KALLERY CHEMICAL COMPANY
1/CM	TRANSMITTANCE
660.194	0.756
669.156	0.745
678.118	0.749
687.08	0.788
696.042	0.836
705.004	0.864
713.966	0.882
722.928	0.895
731.889	0.893
740.851	0.88
749.813	0.857
758.775	0.829
767.737	0.809
776.699	0.806
785.661	0.8
794.623	0.77
803.585	0.725
812.547	0.693
821.509	0.67
830.471	0.613
839.433	0.576
848.395	0.548
857.356	0.54
866.318	0.546
875.28	0.576
884.242	0.653
893.204	0.727
902.166	0.763
911.128	0.758
920.09	0.727
929.052	0.75
938.014	0.782
946.976	0.772
955.938	0.708
964.9	0.544
973.862	0.457
982.823	0.496
991.785	0.451
1000.75	0.346
1009.71	0.379
1018.67	0.526
1027.63	0.613
1036.6	0.654
1045.56	0.66
1054.52	0.653
1063.48	0.588
1072.44	0.5
1081.4	0.558
1090.37	0.649
1099.33	0.686
1108.29	0.693
1117.25	0.661
1126.21	0.532
1135.18	0.48
1144.14	0.521
1153.1	0.453
1162.06	0.496
1171.02	0.517
1179.99	0.564
1188.95	0.615
1197.91	0.635
1206.87	0.653
1215.83	0.686
1224.8	0.729
1233.76	0.745
1242.72	0.6439
1251.68	0.517
1260.64	0.619
1269.61	0.725
1278.57	0.765
1287.53	0.795
1296.49	0.807
1305.45	0.818
1314.41	0.827
1323.38	0.834
1332.34	0.838
1341.3	0.839
1350.26	0.841
1359.22	0.836
1368.19	0.827
1377.15	0.82
1386.11	0.814
1395.07	0.798
1404.03	0.708
1413	0.699
1421.96	0.793
1430.92	0.802
1439.88	0.763
1448.84	0.637
1457.81	0.603
1466.77	0.46
1475.73	0.441
1484.69	0.446
1493.65	0.604
1502.62	0.708
1511.58	0.749
1520.54	0.779
1529.5	0.809
1538.46	0.822
1547.42	0.834
1556.39	0.845
1565.35	0.854
1574.31	0.859
1583.27	0.862
1592.23	0.866
1601.2	0.87
1610.16	0.866
1619.12	0.87
1628.08	0.873
1637.04	0.875
1646.01	0.882
1654.97	0.887
1663.93	0.891
1672.89	0.891
1681.85	0.895
1690.82	0.895
1699.78	0.891
1708.74	0.896
1717.7	0.898
1726.66	0.9
1735.63	0.902
1744.59	0.903
1753.55	0.905
1762.51	0.909
1771.47	0.911
1780.44	0.912
1789.4	0.914
1798.36	0.918
1807.32	0.921
1816.28	0.923
1825.24	0.927
1834.21	0.93
1843.17	0.932
1852.13	0.932
1861.09	0.937
1870.05	0.939
1879.02	0.939
1887.98	0.939
1896.94	0.939
1905.9	0.939
1914.86	0.934
1923.83	0.928
1932.79	0.923
1941.75	0.918
1950.71	0.916
1959.67	0.912
1968.64	0.911
1977.6	0.907
1986.56	0.902
1995.52	0.893
2004.48	0.878
2013.45	0.8654
2022.41	0.8504
2031.37	0.8317
2040.33	0.8146
2049.29	0.7843
2058.25	0.7287
2067.22	0.6943
2076.18	0.6803
2085.14	0.7145
2094.1	0.7285
2103.06	0.7376
2112.03	0.749
2120.99	0.747
2129.95	0.7369
2138.91	0.7155
2147.87	0.6958
2156.84	0.676
2165.8	0.669
2174.76	0.665
2183.72	0.6771
2192.68	0.7042
2201.65	0.7228
2210.61	0.7341
2219.57	0.7421
2228.53	0.7508
2237.49	0.7692
2246.46	0.7829
2255.42	0.7989
2264.38	0.8096
2273.34	0.816
2282.3	0.8135
2291.27	0.8021
2300.23	0.7767
2309.19	0.7426
2318.15	0.7259
2327.11	0.714
2336.07	0.705
2345.04	0.6959
2354	0.6874
2362.96	0.6798
2371.92	0.6727
2380.88	0.6612
2389.85	0.6282
2398.81	0.5823
2407.77	0.5393
2416.73	0.4696
2425.69	0.4162
2434.66	0.4033
2443.62	0.3967
2452.58	0.3823
2461.54	0.371
2470.5	0.3799
2479.47	0.389
2488.43	0.391
2497.39	0.386
2506.35	0.386
2515.31	0.3968
2524.28	0.4449
2533.24	0.4952
2542.2	0.5207
2551.16	0.5651
2560.12	0.6056
2569.08	0.6457
2578.05	0.673
2587.01	0.6925
2595.97	0.7104
2604.93	0.7344
2613.89	0.7474
2622.86	0.7528
2631.82	0.7656
2640.78	0.7742
2649.74	0.783
2658.7	0.7938
2667.67	0.8005
2676.63	0.8052
2685.59	0.8076
2694.55	0.811
2703.51	0.8133
2712.48	0.8214
2721.44	0.825
2730.4	0.8287
2739.36	0.8315
2748.32	0.836
2757.29	0.8384
2766.25	0.843
2775.21	0.845
2784.17	0.845
2793.13	0.845
2802.09	0.843
2811.06	0.84
2820.02	0.839
2828.98	0.8339
2837.94	0.8289
2846.9	0.8259
2855.87	0.8229
2864.83	0.8188
2873.79	0.8137
2882.75	0.8036
2891.71	0.7971
2900.68	0.7835
2909.64	0.7711
2918.6	0.7604
2927.56	0.7401
2936.52	0.7199
2945.49	0.7042
2954.45	0.683
2963.41	0.6762
2972.37	0.7009
2981.33	0.7371
2990.3	0.7535
2999.26	0.754
3008.22	0.7268
3017.18	0.709
3026.14	0.7163
3035.11	0.7385
3044.07	0.7914
3053.03	0.8108
3061.99	0.8217
3070.95	0.8278
3079.91	0.83
3088.88	0.8348
3097.84	0.838
3106.8	0.8408
3115.76	0.845
3124.72	0.846
3133.69	0.846
3142.65	0.848
3151.61	0.848
3160.57	0.848
3169.53	0.848
3178.5	0.848
3187.46	0.848
3196.42	0.848
3205.38	0.846
3214.34	0.8454
3223.31	0.8447
3232.27	0.841
3241.23	0.8388
3250.19	0.8366
3259.15	0.836
3268.12	0.834
3277.08	0.834
3286.04	0.8325
3295	0.832
3303.96	0.8305
3312.92	0.83
3321.89	0.8292
3330.85	0.827
3339.81	0.8254
3348.77	0.825
3357.73	0.8233
3366.7	0.823
3375.66	0.822
3384.62	0.8193
3393.58	0.8162
3402.54	0.8152
3411.51	0.813
3420.47	0.811
3429.43	0.811
3438.39	0.811
3447.35	0.811
3456.32	0.811
3465.28	0.811
3474.24	0.811
3483.2	0.813
3492.16	0.816
3501.13	0.8181
3510.09	0.822
3519.05	0.8232
3528.01	0.8262
3536.97	0.832
3545.94	0.8353
3554.9	0.8393
3563.86	0.8436
3572.82	0.8483
3581.78	0.852
3590.74	0.8542
3599.71	0.8584
3608.67	0.8645
3617.63	0.8675
3626.59	0.873
3635.55	0.877
3644.52	0.8793
3653.48	0.882
3662.44	0.887
3671.4	0.889
3680.36	0.8937
3689.33	0.8958
3698.29	0.8987
3707.25	0.9
3716.21	0.9024
3725.17	0.903
3734.14	0.9038
3743.1	0.905
3752.06	0.905
3761.02	0.905
3769.98	0.907
3778.95	0.907
3787.91	0.907
3796.87	0.907
3805.83	0.905
3814.79	0.905
3823.75	0.907
3832.72	0.907
3841.68	0.907
3850.64	0.905
3859.6	0.905
3868.56	0.905
3877.53	0.903
3886.49	0.9029
3895.45	0.902
3904.41	0.9
3913.37	0.9
3922.34	0.8996
3931.3	0.8965
3940.26	0.896
3949.22	0.896
3958.18	0.896
3967.15	0.896
3976.11	0.8966
