Infrared Spectrum: MONO ETHYL ADIPATE
Formula: C6 H18 O4
State: LIQUID
Melting point: 27-29 C
Class: COBLENTZ
Instrument: Not specified, most likely a prism, grating, or hybrid spectrometer.
Sampling: TRANSMISSION
Path length: CAPILLARY
Resolution: 4
Origin: WYANDOTTE CHEMICALS CORP., WYANDOTTE, MICHIGAN, USA
MICROMETERS	TRANSMITTANCE
2.04	0.98
2.07981	0.978
2.11963	0.98
2.15944	0.973
2.19926	0.963
2.23907	0.958
2.27889	0.958
2.3187	0.961
2.35851	0.963
2.39833	0.968
2.43814	0.97
2.47796	0.971
2.51777	0.975
2.55759	0.978
2.5974	0.975
2.63721	0.975
2.67703	0.97
2.71684	0.961
2.75666	0.95
2.79647	0.923
2.83629	0.869
2.8761	0.824
2.91591	0.791
2.95573	0.653
2.99554	0.579
3.03536	0.521
3.07517	0.475
3.11499	0.451
3.1548	0.437
3.19461	0.423
3.23443	0.415
3.27424	0.402
3.31406	0.309
3.35387	0.269
3.39369	0.312
3.4335	0.389
3.47331	0.442
3.51313	0.518
3.55294	0.582
3.59276	0.615
3.63257	0.625
3.67238	0.63
3.7122	0.624
3.75201	0.619
3.79183	0.632
3.83164	0.655
3.87146	0.665
3.91127	0.675
3.95108	0.711
3.9909	0.741
4.03071	0.773
4.07053	0.802
4.11034	0.826
4.15016	0.846
4.18997	0.854
4.22978	0.864
4.2696	0.874
4.30941	0.879
4.34923	0.884
4.38904	0.895
4.42886	0.907
4.46867	0.912
4.50848	0.92
4.5483	0.923
4.58811	0.925
4.62793	0.932
4.66774	0.932
4.70756	0.928
4.74737	0.93
4.78718	0.932
4.827	0.93
4.86681	0.933
4.90663	0.93
4.94644	0.93
4.98626	0.928
5.02607	0.928
5.06588	0.923
5.1057	0.922
5.14551	0.922
5.18533	0.915
5.22514	0.912
5.26496	0.91
5.30477	0.902
5.34458	0.895
5.3844	0.884
5.42421	0.879
5.46403	0.869
5.50384	0.852
5.54366	0.822
5.58347	0.776
5.62328	0.698
5.6631	0.599
5.70291	0.412
5.74273	0.067
5.78254	0.087
5.82236	0.072
5.86217	0.12
5.90198	0.271
5.9418	0.36
5.98161	0.523
6.02143	0.584
6.06124	0.66
6.10106	0.75
6.14087	0.778
6.18068	0.809
6.2205	0.832
6.26031	0.85
6.30013	0.859
6.33994	0.857
6.37975	0.862
6.41957	0.867
6.45938	0.862
6.4992	0.862
6.53901	0.857
6.57883	0.852
6.61864	0.842
6.65845	0.812
6.69827	0.7
6.73808	0.635
6.7779	0.536
6.81771	0.43
6.85753	0.443
6.89734	0.433
6.93715	0.448
6.97697	0.415
7.01678	0.354
7.0566	0.339
7.09641	0.38
7.13623	0.432
7.17604	0.425
7.21585	0.422
7.25567	0.359
7.29548	0.382
7.3353	0.49
7.37511	0.523
7.41493	0.491
7.45474	0.504
7.49455	0.511
7.53437	0.488
7.57418	0.451
7.614	0.405
7.65381	0.37
7.69363	0.336
7.73344	0.317
7.77325	0.306
7.81307	0.301
7.85288	0.299
7.8927	0.294
7.93251	0.291
7.97233	0.284
8.01214	0.278
8.05195	0.264
8.09177	0.263
8.13158	0.264
8.1714	0.266
8.21121	0.263
8.25103	0.261
8.29084	0.256
8.33065	0.248
8.37047	0.238
8.41028	0.225
8.4501	0.216
8.48991	0.221
8.52973	0.241
8.56954	0.266
8.60935	0.283
8.64917	0.293
8.68898	0.291
8.7288	0.286
8.76861	0.304
8.80843	0.347
8.84824	0.418
8.88805	0.478
8.92787	0.552
8.96768	0.569
9.0075	0.619
9.04731	0.629
9.08712	0.579
9.12694	0.579
9.16675	0.599
9.20657	0.569
9.24638	0.538
9.2862	0.534
9.32601	0.552
9.36582	0.557
9.40564	0.554
9.44545	0.572
9.48527	0.591
9.52508	0.596
9.5649	0.589
9.60471	0.561
9.64452	0.503
9.68434	0.445
9.72415	0.442
9.76397	0.456
9.80378	0.533
9.8436	0.592
9.88341	0.642
9.92322	0.682
9.96304	0.713
10.0029	0.743
10.0427	0.759
10.0825	0.773
10.1223	0.774
10.1621	0.776
10.2019	0.771
10.2417	0.759
10.2816	0.741
10.3214	0.72
10.3612	0.697
10.401	0.672
10.4408	0.652
10.4806	0.632
10.5204	0.617
10.5603	0.604
10.6001	0.591
10.6399	0.574
10.6797	0.561
10.7195	0.551
10.7593	0.549
10.7991	0.552
10.839	0.554
10.8788	0.557
10.9186	0.559
10.9584	0.566
10.9982	0.572
11.038	0.584
11.0778	0.599
11.1177	0.617
11.1575	0.63
11.1973	0.639
11.2371	0.647
11.2769	0.653
11.3167	0.657
11.3565	0.658
11.3964	0.658
11.4362	0.658
11.476	0.657
11.5158	0.653
11.5556	0.649
11.5954	0.64
11.6352	0.632
11.6751	0.629
11.7149	0.629
11.7547	0.632
11.7945	0.64
11.8343	0.649
11.8741	0.658
11.9139	0.672
11.9538	0.682
11.9936	0.69
12.0334	0.695
12.0732	0.697
12.113	0.698
12.1528	0.698
12.1926	0.7
12.2325	0.697
12.2723	0.695
12.3121	0.695
12.3519	0.693
12.3917	0.692
12.4315	0.688
12.4713	0.687
12.5112	0.685
12.551	0.68
12.5908	0.677
12.6306	0.675
12.6704	0.673
12.7102	0.675
12.75	0.677
12.7899	0.682
12.8297	0.685
12.8695	0.69
12.9093	0.692
12.9491	0.692
12.9889	0.688
13.0287	0.685
13.0686	0.685
13.1084	0.68
13.1482	0.677
13.188	0.673
13.2278	0.672
13.2676	0.673
13.3074	0.677
13.3473	0.683
13.3871	0.688
13.4269	0.69
13.4667	0.687
13.5065	0.687
13.5463	0.688
13.5861	0.692
13.626	0.7
13.6658	0.711
13.7056	0.725
13.7454	0.736
13.7852	0.753
13.825	0.763
13.8648	0.768
13.9047	0.771
13.9445	0.771
13.9843	0.771
14.0241	0.771
14.0639	0.776
14.1037	0.778
14.1435	0.781
14.1834	0.783
14.2232	0.786
14.263	0.788
14.3028	0.789
14.3426	0.791
14.3824	0.791
14.4222	0.791
14.4621	0.788
14.5019	0.784
14.5417	0.779
14.5815	0.776
14.6213	0.771
14.6611	0.766
14.7009	0.761
14.7408	0.754
14.7806	0.751
14.8204	0.746
14.8602	0.745
14.9	0.745
14.9398	0.741
14.9796	0.736
15.0195	0.731
15.0593	0.726
15.0991	0.725
15.1389	0.725
15.1787	0.726
15.2185	0.723
15.2583	0.718
15.2982	0.713
15.338	0.708
15.3778	0.701
15.4176	0.697
15.4574	0.692
15.4972	0.685
15.537	0.68
15.5769	0.677
15.6167	0.673
15.6565	0.672
15.6963	0.67
15.7361	0.67
15.7759	0.668
15.8157	0.665
15.8556	0.662
15.8954	0.657
15.9352	0.657
15.975	0.652
