Infrared Spectrum: LEAD HYDROGEN PHOSPHITE
Formula: Pb H P O3
State: SOLID (NUJOL MULL)
Class: COBLENTZ
Instrument: Not specified, most likely a prism, grating, or hybrid spectrometer.
Sampling: TRANSMISSION
Resolution: 4
MICROMETERS	TRANSMITTANCE
2.007	0.609
2.04056	0.602
2.07411	0.61
2.10767	0.615
2.14122	0.62
2.17478	0.625
2.20834	0.637
2.24189	0.642
2.27545	0.649
2.30901	0.652
2.34256	0.654
2.37612	0.662
2.40967	0.671
2.44323	0.674
2.47679	0.679
2.51034	0.691
2.5439	0.691
2.57746	0.692
2.61101	0.697
2.64457	0.706
2.67812	0.714
2.71168	0.719
2.74524	0.721
2.77879	0.728
2.81235	0.731
2.84591	0.738
2.87946	0.734
2.91302	0.733
2.94657	0.728
2.98013	0.731
3.01369	0.731
3.04724	0.731
3.0808	0.734
3.11436	0.738
3.14791	0.738
3.18147	0.739
3.21502	0.739
3.24858	0.739
3.28214	0.733
3.31569	0.721
3.34925	0.652
3.38281	0.501
3.41636	0.095
3.44992	0.093
3.48347	0.171
3.51703	0.238
3.55059	0.572
3.58414	0.692
3.6177	0.731
3.65126	0.748
3.68481	0.755
3.71837	0.76
3.75192	0.763
3.78548	0.768
3.81904	0.773
3.85259	0.78
3.88615	0.793
3.91971	0.8
3.95326	0.808
3.98682	0.815
4.02037	0.822
4.05393	0.825
4.08749	0.83
4.12104	0.832
4.1546	0.838
4.18816	0.842
4.22171	0.837
4.25527	0.79
4.28882	0.729
4.32238	0.781
4.35594	0.808
4.38949	0.83
4.42305	0.847
4.45661	0.859
4.49016	0.869
4.52372	0.874
4.55727	0.877
4.59083	0.884
4.62439	0.889
4.65794	0.892
4.6915	0.895
4.72505	0.895
4.75861	0.897
4.79217	0.901
4.82572	0.902
4.85928	0.904
4.89284	0.914
4.92639	0.912
4.95995	0.909
4.9935	0.912
5.02706	0.921
5.06062	0.926
5.09417	0.927
5.12773	0.929
5.16129	0.931
5.19484	0.932
5.2284	0.932
5.26195	0.932
5.29551	0.932
5.32907	0.934
5.36262	0.941
5.39618	0.944
5.42974	0.942
5.46329	0.944
5.49685	0.944
5.5304	0.944
5.56396	0.942
5.59752	0.942
5.63107	0.944
5.66463	0.951
5.69819	0.944
5.73174	0.942
5.7653	0.941
5.79885	0.942
5.83241	0.944
5.86597	0.942
5.89952	0.944
5.93308	0.946
5.96664	0.944
6.00019	0.942
6.03375	0.939
6.0673	0.946
6.10086	0.949
6.13442	0.949
6.16797	0.953
6.20153	0.949
6.23509	0.947
6.26864	0.944
6.3022	0.949
6.33575	0.944
6.36931	0.936
6.40287	0.941
6.43642	0.942
6.46998	0.932
6.50354	0.934
6.53709	0.924
6.57065	0.926
6.6042	0.927
6.63776	0.922
6.67132	0.921
6.70487	0.894
6.73843	0.833
6.77199	0.676
6.80554	0.53
6.8391	0.471
6.87265	0.555
6.90621	0.632
6.93977	0.734
6.97332	0.82
7.00688	0.84
7.04044	0.848
7.07399	0.855
7.10755	0.864
7.1411	0.869
7.17466	0.843
7.20822	0.733
7.24177	0.597
7.27533	0.721
7.30888	0.766
7.34244	0.832
7.376	0.85
7.40955	0.857
7.44311	0.867
7.47667	0.882
7.51022	0.892
7.54378	0.894
7.57733	0.892
7.61089	0.892
7.64445	0.89
7.678	0.892
7.71156	0.904
7.74512	0.911
7.77867	0.914
7.81223	0.916
7.84578	0.917
7.87934	0.921
7.9129	0.926
7.94645	0.927
7.98001	0.931
8.01357	0.934
8.04712	0.936
8.08068	0.937
8.11423	0.937
8.14779	0.937
8.18135	0.939
8.2149	0.941
8.24846	0.939
8.28202	0.939
8.31557	0.944
8.34913	0.946
8.38268	0.946
8.41624	0.942
8.4498	0.946
8.48335	0.941
8.51691	0.932
8.55047	0.926
8.58402	0.924
8.61758	0.919
8.65113	0.916
8.68469	0.911
8.71825	0.906
8.7518	0.902
8.78536	0.897
8.81892	0.89
8.85247	0.877
8.88603	0.848
8.91958	0.815
8.95314	0.77
8.9867	0.713
9.02025	0.654
9.05381	0.59
9.08737	0.552
9.12092	0.536
9.15448	0.521
9.18803	0.511
9.22159	0.503
9.25515	0.486
9.2887	0.464
9.32226	0.441
9.35582	0.424
9.38937	0.434
9.42293	0.458
9.45648	0.51
9.49004	0.587
9.5236	0.629
9.55715	0.692
9.59071	0.736
9.62427	0.77
9.65782	0.791
9.69138	0.8
9.72493	0.81
9.75849	0.822
9.79205	0.825
9.8256	0.785
9.85916	0.815
9.89272	0.842
9.92627	0.855
9.95983	0.867
9.99338	0.875
10.0269	0.882
10.0605	0.884
10.0941	0.884
10.1276	0.885
10.1612	0.889
10.1947	0.887
10.2283	0.887
10.2618	0.88
10.2954	0.867
10.3289	0.828
10.3625	0.746
10.3961	0.632
10.4296	0.538
10.4632	0.657
10.4967	0.798
10.5303	0.854
10.5638	0.877
10.5974	0.895
10.631	0.901
10.6645	0.909
10.6981	0.916
10.7316	0.921
10.7652	0.924
10.7987	0.927
10.8323	0.927
10.8658	0.929
10.8994	0.934
10.933	0.932
10.9665	0.934
11.0001	0.937
11.0336	0.937
11.0672	0.939
11.1007	0.942
11.1343	0.942
11.1679	0.941
11.2014	0.942
11.235	0.942
11.2685	0.946
11.3021	0.946
11.3356	0.946
11.3692	0.949
11.4027	0.953
11.4363	0.954
11.4699	0.953
11.5034	0.951
11.537	0.951
11.5705	0.951
11.6041	0.951
11.6376	0.951
11.6712	0.949
11.7048	0.949
11.7383	0.951
11.7719	0.951
11.8054	0.951
11.839	0.949
11.8725	0.947
11.9061	0.946
11.9396	0.947
11.9732	0.949
12.0068	0.951
12.0403	0.953
12.0739	0.953
12.1074	0.954
12.141	0.954
12.1745	0.953
12.2081	0.953
12.2417	0.956
12.2752	0.961
12.3088	0.961
12.3423	0.959
12.3759	0.961
12.4094	0.961
12.443	0.958
12.4765	0.956
12.5101	0.954
12.5437	0.954
12.5772	0.949
12.6108	0.949
12.6443	0.946
12.6779	0.941
12.7114	0.937
12.745	0.936
12.7786	0.937
12.8121	0.939
12.8457	0.936
12.8792	0.941
12.9128	0.937
12.9463	0.934
12.9799	0.931
13.0134	0.931
13.047	0.932
13.0806	0.932
13.1141	0.927
13.1477	0.927
13.1812	0.931
13.2148	0.926
13.2483	0.927
13.2819	0.919
13.3155	0.921
13.349	0.919
13.3826	0.917
13.4161	0.916
13.4497	0.912
13.4832	0.907
13.5168	0.901
13.5503	0.901
13.5839	0.897
13.6175	0.894
13.651	0.89
13.6846	0.887
13.7181	0.882
13.7517	0.875
13.7852	0.869
13.8188	0.864
13.8524	0.862
13.8859	0.86
13.9195	0.867
13.953	0.87
13.9866	0.877
14.0201	0.885
14.0537	0.882
14.0872	0.885
14.1208	0.889
14.1544	0.89
14.1879	0.892
14.2215	0.89
14.255	0.89
14.2886	0.889
14.3221	0.885
14.3557	0.884
14.3893	0.879
14.4228	0.88
14.4564	0.87
14.4899	0.865
14.5235	0.862
14.557	0.859
14.5906	0.859
14.6241	0.854
14.6577	0.847
14.6913	0.845
14.7248	0.842
14.7584	0.837
14.7919	0.837
14.8255	0.832
14.859	0.83
14.8926	0.825
14.9262	0.822
14.9597	0.815
14.9933	0.813
15.0268	0.818
15.0604	0.812
15.0939	0.803
15.1275	0.8
15.161	0.791
15.1946	0.79
