Infrared Spectrum: 4,5-DIHYDROXY-3-(p-NITROPHENYLAZO)-2,7-NAPHTHALENEDISULFONIC ACID, DISODIUM SALT
Formula: C16 H9 N3 O10 S2 Na2
State: SOLID (MINERAL OIL MULL)
Class: COBLENTZ
Instrument: Not specified, most likely a prism, grating, or hybrid spectrometer.
Sampling: TRANSMISSION
Resolution: 4
Origin: WYANDOTTE CHEMICALS CORP., WYANDOTTE, MICHIGAN, USA
MICROMETERS	TRANSMITTANCE
2.019	0.26
2.05615	0.266
2.0933	0.262
2.13045	0.271
2.1676	0.258
2.20475	0.257
2.2419	0.262
2.27904	0.266
2.31619	0.285
2.35334	0.289
2.39049	0.296
2.42764	0.31
2.46479	0.317
2.50194	0.324
2.53909	0.342
2.57624	0.355
2.61339	0.348
2.65054	0.367
2.68769	0.386
2.72484	0.336
2.76199	0.265
2.79913	0.231
2.83628	0.21
2.87343	0.198
2.91058	0.182
2.94773	0.193
2.98488	0.204
3.02203	0.241
3.05918	0.266
3.09633	0.28
3.13348	0.286
3.17063	0.291
3.20778	0.286
3.24493	0.251
3.28208	0.26
3.31922	0.189
3.35637	0.038
3.39352	0.021
3.43067	0.023
3.46782	0.027
3.50497	0.038
3.54212	0.263
3.57927	0.41
3.61642	0.463
3.65357	0.465
3.69072	0.468
3.72787	0.479
3.76502	0.471
3.80216	0.497
3.83931	0.52
3.87646	0.531
3.91361	0.556
3.95076	0.562
3.98791	0.578
4.02506	0.586
4.06221	0.581
4.09936	0.595
4.13651	0.573
4.17366	0.59
4.21081	0.6
4.24796	0.589
4.28511	0.607
4.32225	0.641
4.3594	0.671
4.39655	0.662
4.4337	0.651
4.47085	0.657
4.508	0.672
4.54515	0.677
4.5823	0.682
4.61945	0.693
4.6566	0.706
4.69375	0.717
4.7309	0.73
4.76805	0.733
4.8052	0.741
4.84234	0.751
4.87949	0.767
4.91664	0.775
4.95379	0.778
4.99094	0.782
5.02809	0.803
5.06524	0.812
5.10239	0.81
5.13954	0.817
5.17669	0.821
5.21384	0.827
5.25099	0.844
5.28814	0.86
5.32528	0.872
5.36243	0.872
5.39958	0.897
5.43673	0.899
5.47388	0.905
5.51103	0.911
5.54818	0.903
5.58533	0.906
5.62248	0.922
5.65963	0.939
5.69678	0.919
5.73393	0.937
5.77108	0.95
5.80823	0.934
5.84537	0.906
5.88252	0.905
5.91967	0.868
5.95682	0.809
5.99397	0.742
6.03112	0.694
6.06827	0.646
6.10542	0.559
6.14257	0.579
6.17972	0.474
6.21687	0.311
6.25402	0.33
6.29117	0.379
6.32832	0.603
6.36546	0.64
6.40261	0.671
6.43976	0.649
6.47691	0.582
6.51406	0.348
6.55121	0.119
6.58836	0.062
6.62551	0.06
6.66266	0.105
6.69981	0.195
6.73696	0.19
6.77411	0.089
6.81126	0.058
6.84841	0.105
6.88555	0.182
6.9227	0.26
6.95985	0.342
6.997	0.39
7.03415	0.373
7.0713	0.313
7.10845	0.431
7.1456	0.527
7.18275	0.452
7.2199	0.227
7.25705	0.189
7.2942	0.351
7.33135	0.466
7.36849	0.348
7.40564	0.15
7.44279	0.06
7.47994	0.071
7.51709	0.114
7.55424	0.213
7.59139	0.322
7.62854	0.393
7.66569	0.424
7.70284	0.441
7.73999	0.443
7.77714	0.455
7.81429	0.434
7.85144	0.379
7.88858	0.286
7.92573	0.168
7.96288	0.139
8.00003	0.12
8.03718	0.097
8.07433	0.079
8.11148	0.068
8.14863	0.069
8.18578	0.058
8.22293	0.048
8.26008	0.06
8.29723	0.044
8.33438	0.044
8.37153	0.049
8.40867	0.062
8.44582	0.071
8.48297	0.069
8.52012	0.097
8.55727	0.106
8.59442	0.077
8.63157	0.086
8.66872	0.162
8.70587	0.254
8.74302	0.339
8.78017	0.4
8.81732	0.477
8.85447	0.519
8.89161	0.493
8.92876	0.33
8.96591	0.192
9.00306	0.258
9.04021	0.365
9.07736	0.427
9.11451	0.485
9.15166	0.542
9.18881	0.607
9.22596	0.657
9.26311	0.68
9.30026	0.677
9.33741	0.593
9.37456	0.423
9.4117	0.227
9.44885	0.086
9.486	0.046
9.52315	0.04
9.5603	0.066
9.59745	0.153
9.6346	0.272
9.67175	0.367
9.7089	0.438
9.74605	0.494
9.7832	0.525
9.82035	0.57
9.8575	0.601
9.89465	0.631
9.93179	0.648
9.96894	0.648
10.0061	0.545
10.0432	0.355
10.0804	0.244
10.1175	0.254
10.1547	0.319
10.1918	0.415
10.229	0.477
10.2661	0.516
10.3033	0.547
10.3404	0.579
10.3776	0.589
10.4147	0.601
10.4519	0.617
10.489	0.635
10.5262	0.671
10.5633	0.683
10.6005	0.702
10.6376	0.722
10.6748	0.724
10.7119	0.724
10.7491	0.722
10.7862	0.675
10.8234	0.584
10.8605	0.547
10.8977	0.578
10.9348	0.624
10.972	0.652
11.0091	0.609
11.0463	0.578
11.0834	0.601
11.1206	0.615
11.1577	0.672
11.1949	0.725
11.232	0.758
11.2692	0.772
11.3063	0.789
11.3435	0.767
11.3806	0.736
11.4178	0.699
11.4549	0.696
11.4921	0.613
11.5292	0.373
11.5664	0.26
11.6035	0.37
11.6407	0.468
11.6778	0.499
11.715	0.516
11.7521	0.581
11.7893	0.635
11.8264	0.675
11.8636	0.71
11.9007	0.728
11.9379	0.714
11.975	0.699
12.0122	0.665
12.0493	0.637
12.0865	0.612
12.1236	0.572
12.1608	0.539
12.1979	0.542
12.235	0.562
12.2722	0.688
12.3093	0.789
12.3465	0.821
12.3836	0.835
12.4208	0.844
12.4579	0.858
12.4951	0.855
12.5322	0.848
12.5694	0.838
12.6065	0.827
12.6437	0.813
12.6808	0.8
12.718	0.782
12.7551	0.772
12.7923	0.758
12.8294	0.737
12.8666	0.722
12.9037	0.711
12.9409	0.702
12.978	0.689
13.0152	0.68
13.0523	0.675
13.0895	0.669
13.1266	0.669
13.1638	0.671
13.2009	0.666
13.2381	0.665
13.2752	0.562
13.3124	0.41
13.3495	0.359
13.3867	0.4
13.4238	0.458
13.461	0.488
13.4981	0.508
13.5353	0.528
13.5724	0.541
13.6096	0.564
13.6467	0.579
13.6839	0.59
13.721	0.607
13.7582	0.612
13.7953	0.601
13.8325	0.606
13.8696	0.615
13.9068	0.638
13.9439	0.675
13.9811	0.705
14.0182	0.731
14.0554	0.737
14.0925	0.742
14.1297	0.755
14.1668	0.758
14.204	0.761
14.2411	0.762
14.2783	0.761
14.3154	0.753
14.3526	0.741
14.3897	0.727
14.4269	0.7
14.464	0.665
14.5012	0.624
14.5383	0.555
14.5755	0.483
14.6126	0.448
14.6498	0.435
14.6869	0.451
14.7241	0.471
14.7612	0.466
14.7983	0.443
14.8355	0.398
14.8726	0.372
14.9098	0.353
14.9469	0.337
14.9841	0.341
15.0212	0.345
15.0584	0.348
15.0955	0.375
15.1327	0.398
15.1698	0.42
15.207	0.444
15.2441	0.458
15.2813	0.449
15.3184	0.451
15.3556	0.443
15.3927	0.427
15.4299	0.403
15.467	0.376
15.5042	0.355
15.5413	0.344
15.5785	0.341
15.6156	0.32
15.6528	0.313
15.6899	0.317
15.7271	0.341
15.7642	0.347
15.8014	0.365
15.8385	0.373
15.8757	0.382
15.9128	0.393
15.95	0.401
15.9871	0.401
