Infrared Spectrum: CIS-3-BENZOYL-4-PHENYL-1-METHYLPIPERDINE
Formula: C19 H21 N O
State: SOLUTION (7% IN CHCl3)
Class: COBLENTZ
Instrument: PERKIN-ELMER
Sampling: TRANSMISSION
Path length: 0.010 CM
Resolution: 4
Origin: ABBOTT LABORATORIES - WASHBURN
MICROMETERS	TRANSMITTANCE
2.044	0.973
2.07962	0.969
2.11523	0.9708
2.15085	0.9569
2.18646	0.9579
2.22208	0.9533
2.25769	0.9501
2.29331	0.9481
2.32892	0.95
2.36454	0.9441
2.40015	0.951
2.43577	0.937
2.47138	0.937
2.507	0.932
2.54261	0.939
2.57823	0.941
2.61384	0.939
2.64946	0.939
2.68507	0.935
2.72069	0.933
2.7563	0.93
2.79192	0.9249
2.82753	0.9171
2.86315	0.919
2.89876	0.9171
2.93438	0.9051
2.96999	0.9
3.00561	0.892
3.04122	0.894
3.07684	0.891
3.11245	0.891
3.14807	0.8872
3.18368	0.8502
3.2193	0.8122
3.25491	0.7961
3.29053	0.755
3.32614	0.6383
3.36176	0.578
3.39737	0.6166
3.43299	0.6462
3.4686	0.6667
3.50422	0.6422
3.53983	0.5603
3.57545	0.6292
3.61106	0.6981
3.64668	0.773
3.68229	0.7912
3.71791	0.8212
3.75352	0.8547
3.78914	0.8796
3.82475	0.8909
3.86037	0.8939
3.89598	0.898
3.9316	0.8921
3.96721	0.891
4.00283	0.889
4.03844	0.891
4.07406	0.9001
4.10967	0.9049
4.14529	0.905
4.1809	0.914
4.21652	0.921
4.25213	0.928
4.28775	0.923
4.32336	0.912
4.35898	0.912
4.3946	0.9101
4.43021	0.9069
4.46583	0.9081
4.50144	0.903
4.53706	0.903
4.57267	0.905
4.60829	0.903
4.6439	0.9079
4.67952	0.908
4.71513	0.903
4.75075	0.903
4.78636	0.903
4.82198	0.907
4.85759	0.905
4.89321	0.903
4.92882	0.901
4.96444	0.9
5.00005	0.891
5.03567	0.8831
5.07128	0.876
5.1069	0.8797
5.14251	0.889
5.17813	0.8855
5.21374	0.882
5.24936	0.882
5.28497	0.885
5.32059	0.887
5.3562	0.8966
5.39182	0.8949
5.42743	0.8816
5.46305	0.8668
5.49866	0.8755
5.53428	0.889
5.56989	0.887
5.60551	0.8819
5.64112	0.882
5.67674	0.88
5.71235	0.8752
5.74797	0.8653
5.78358	0.844
5.8192	0.7538
5.85481	0.4029
5.89043	0.2842
5.92604	0.4512
5.96166	0.731
5.99727	0.7784
6.03289	0.8193
6.0685	0.8325
6.10412	0.842
6.13973	0.841
6.17535	0.7915
6.21096	0.621
6.24658	0.7552
6.28219	0.7214
6.31781	0.8187
6.35342	0.8461
6.38904	0.852
6.42465	0.864
6.46027	0.8664
6.49588	0.8757
6.5315	0.88
6.56711	0.882
6.60273	0.8718
6.63834	0.734
6.67396	0.6852
6.70958	0.801
6.74519	0.8012
6.78081	0.6788
6.81642	0.5899
6.85204	0.524
6.88765	0.432
6.92327	0.6119
6.95888	0.7631
6.9945	0.8164
7.03011	0.8288
7.06573	0.8403
7.10134	0.8321
7.13696	0.8048
7.17257	0.7132
7.20819	0.6575
7.2438	0.5951
7.27942	0.7191
7.31503	0.7529
7.35065	0.7814
7.38626	0.7783
7.42188	0.7812
7.45749	0.7937
7.49311	0.771
7.52872	0.7325
7.56434	0.7379
7.59995	0.732
7.63557	0.7172
7.67118	0.6994
7.7068	0.6881
7.74241	0.6738
7.77803	0.6461
7.81364	0.591
7.84926	0.6
7.88487	0.6249
7.92049	0.6411
7.9561	0.5723
7.99172	0.4781
8.02733	0.417
8.06295	0.4044
8.09856	0.4382
8.13418	0.4728
8.16979	0.4898
8.20541	0.5017
8.24102	0.5286
8.27664	0.552
8.31225	0.5578
8.34787	0.55
8.38348	0.5662
8.4191	0.5871
8.45471	0.5783
8.49033	0.5633
8.52594	0.7021
8.56156	0.7445
8.59717	0.767
8.63279	0.751
8.6684	0.759
8.70402	0.7598
8.73963	0.6926
8.77525	0.5914
8.81086	0.5184
8.84648	0.5518
8.88209	0.628
8.91771	0.6826
8.95332	0.7267
8.98894	0.7581
9.02456	0.764
9.06017	0.769
9.09579	0.7669
9.1314	0.7753
9.16702	0.7718
9.20263	0.7504
9.23825	0.6962
9.27386	0.6799
9.30948	0.6805
9.34509	0.6172
9.38071	0.6237
9.41632	0.6675
9.45194	0.683
9.48755	0.7417
9.52317	0.8004
9.55878	0.832
9.5944	0.8459
9.63001	0.8306
9.66563	0.7905
9.70124	0.7736
9.73686	0.766
9.77247	0.7788
9.80809	0.725
9.8437	0.659
9.87932	0.7322
9.91493	0.7975
9.95055	0.8128
9.98616	0.733
10.0218	0.779
10.0574	0.8187
10.093	0.7888
10.1286	0.78
10.1642	0.7761
10.1999	0.7178
10.2355	0.5794
10.2711	0.4883
10.3067	0.508
10.3423	0.604
10.3779	0.7165
10.4135	0.748
10.4492	0.6849
10.4848	0.692
10.5204	0.7602
10.556	0.8021
10.5916	0.8062
10.6272	0.7461
10.6628	0.7079
10.6985	0.7154
10.7341	0.759
10.7697	0.7882
10.8053	0.7975
10.8409	0.8114
10.8765	0.8203
10.9122	0.83
10.9478	0.8516
10.9834	0.8575
11.019	0.85
11.0546	0.8416
11.0902	0.8396
11.1258	0.848
11.1615	0.846
11.1971	0.8404
11.2327	0.8133
11.2683	0.7616
11.3039	0.7375
11.3395	0.726
11.3752	0.7518
11.4108	0.7785
11.4464	0.8106
11.482	0.8399
11.5176	0.8516
11.5532	0.8575
11.5888	0.8609
11.6245	0.867
11.6601	0.8697
11.6957	0.875
11.7313	0.876
11.7669	0.8747
11.8025	0.871
11.8381	0.867
11.8738	0.8623
11.9094	0.86
11.945	0.857
11.9806	0.8503
12.0162	0.8331
12.0518	0.803
12.0875	0.8043
12.1231	0.8229
12.1587	0.8388
12.1943	0.8488
12.2299	0.8587
12.2655	0.8645
12.3011	0.8715
12.3368	0.878
12.3724	0.88
12.408	0.8818
12.4436	0.883
12.4792	0.885
12.5148	0.8885
12.5504	0.891
12.5861	0.894
12.6217	0.896
12.6573	0.9006
12.6929	0.91
12.7285	0.9208
12.7641	0.9254
12.7998	0.928
12.8354	0.93
12.871	0.935
12.9066	0.941
12.9422	0.957
12.9778	0.96
13.0134	0.9669
13.0491	0.9726
13.0847	0.9758
13.1203	0.9814
13.1559	0.985
13.1915	0.989
13.2271	0.992
13.2627	0.9995
13.2984	1.0084
13.334	1.019
13.3696	1.0257
13.4052	1.028
13.4408	1.028
13.4764	1.03
13.5121	1.032
13.5477	1.03
13.5833	1.03
13.6189	1.03
13.6545	1.03
13.6901	1.03
13.7257	1.03
13.7614	1.03
13.797	1.03
13.8326	1.029
13.8682	1.0246
13.9038	1.014
13.9394	0.9886
13.9751	0.9462
14.0107	0.8797
14.0463	0.7954
14.0819	0.7332
14.1175	0.665
14.1531	0.6273
14.1887	0.5791
14.2244	0.5327
14.26	0.4613
14.2956	0.3843
14.3312	0.3377
14.3668	0.3517
14.4024	0.4027
14.438	0.4562
14.4737	0.4875
14.5093	0.489
14.5449	0.489
14.5805	0.5017
14.6161	0.5664
14.6517	0.6229
14.6874	0.6746
14.723	0.7094
14.7586	0.7342
14.7942	0.7593
14.8298	0.7872
14.8654	0.807
14.901	0.8153
14.9367	0.819
14.9723	0.8255
15.0079	0.8339
15.0435	0.8309
15.0791	0.7921
15.1147	0.7137
15.1503	0.6692
15.186	0.6915
15.2216	0.708
15.2572	0.7498
15.2928	0.7638
15.3284	0.7669
15.364	0.776
15.3997	0.775
