Infrared Spectrum: HYDROUS CHROME OXIDE
Formula: Cr2 O3  * 2 H2 O
State: SOLID (0.5 mg / 300 mg CsI DISC)
Class: COBLENTZ
Instrument: Not specified, most likely a grating spectrometer.
Sampling: TRANSMISSION
Resolution: 4
Origin: DESOTO CHEMICAL COATINGS, INC.
1/CM	TRANSMITTANCE
198.67	0.771
209.313	0.776
219.956	0.785
230.599	0.791
241.242	0.797
251.885	0.799
262.528	0.797
273.171	0.799
283.814	0.795
294.457	0.791
305.1	0.781
315.743	0.773
326.386	0.767
337.029	0.761
347.672	0.752
358.316	0.743
368.959	0.743
379.602	0.735
390.245	0.732
400.888	0.723
411.531	0.695
422.174	0.667
432.817	0.699
443.46	0.708
454.103	0.65
464.746	0.477
475.389	0.2441
486.032	0.156
496.675	0.243
507.318	0.414
517.961	0.46
528.604	0.446
539.247	0.385
549.89	0.277
560.533	0.202
571.176	0.214
581.819	0.3239
592.462	0.4379
603.105	0.523
613.748	0.563
624.391	0.558
635.034	0.474
645.677	0.4839
656.32	0.621
666.964	0.747
677.607	0.78
688.25	0.813
698.893	0.852
709.536	0.869
720.179	0.885
730.822	0.9
741.465	0.905
752.108	0.909
762.751	0.908
773.394	0.893
784.037	0.861
794.68	0.8
805.323	0.824
815.966	0.849
826.609	0.86
837.252	0.873
847.895	0.889
858.538	0.902
869.181	0.914
879.824	0.92
890.467	0.922
901.11	0.93
911.753	0.932
922.396	0.937
933.039	0.936
943.682	0.942
954.325	0.942
964.969	0.944
975.612	0.944
986.255	0.94
996.898	0.936
1007.54	0.929
1018.18	0.926
1028.83	0.918
1039.47	0.91
1050.11	0.881
1060.76	0.7831
1071.4	0.8009
1082.04	0.892
1092.68	0.912
1103.33	0.925
1113.97	0.933
1124.61	0.937
1135.26	0.938
1145.9	0.94
1156.54	0.942
1167.19	0.937
1177.83	0.93
1188.47	0.916
1199.12	0.908
1209.76	0.905
1220.4	0.913
1231.04	0.924
1241.69	0.928
1252.33	0.932
1262.97	0.929
1273.62	0.924
1284.26	0.914
1294.9	0.904
1305.55	0.897
1316.19	0.9
1326.83	0.9
1337.47	0.9
1348.12	0.897
1358.76	0.897
1369.4	0.893
1380.05	0.892
1390.69	0.888
1401.33	0.885
1411.98	0.882
1422.62	0.885
1433.26	0.88
1443.91	0.875
1454.55	0.869
1465.19	0.856
1475.83	0.857
1486.48	0.882
1497.12	0.92
1507.76	0.953
1518.41	0.966
1529.05	0.968
1539.69	0.966
1550.34	0.964
1560.98	0.961
1571.62	0.961
1582.26	0.958
1592.91	0.948
1603.55	0.928
1614.19	0.91
1624.84	0.909
1635.48	0.926
1646.12	0.942
1656.77	0.956
1667.41	0.964
1678.05	0.97
1688.69	0.974
1699.34	0.98
1709.98	0.98
1720.62	0.982
1731.27	0.985
1741.91	0.99
1752.55	0.993
1763.2	0.992
1773.84	0.993
1784.48	0.993
1795.13	0.994
1805.77	0.993
1816.41	0.994
1827.05	0.99
1837.7	0.993
1848.34	0.99
1858.98	0.992
1869.63	0.989
1880.27	0.986
1890.91	0.984
1901.56	0.981
1912.2	0.978
1922.84	0.974
1933.48	0.976
1944.13	0.974
1954.77	0.977
1965.41	0.97
1976.06	0.968
1986.7	0.961
1997.34	0.958
2007.99	0.96
2018.63	0.961
2029.27	0.962
2039.92	0.964
2050.56	0.964
2061.2	0.962
2071.84	0.961
2082.49	0.958
2093.13	0.957
2103.77	0.96
2114.42	0.9621
2125.06	0.9662
2135.7	0.9691
2146.35	0.97
2156.99	0.972
2167.63	0.973
2178.27	0.974
2188.92	0.976
2199.56	0.978
2210.2	0.9801
2220.85	0.981
2231.49	0.982
2242.13	0.982
2252.78	0.9842
2263.42	0.9848
2274.06	0.984
2284.7	0.9836
2295.35	0.984
2305.99	0.982
2316.63	0.985
2327.28	0.9816
2337.92	0.982
2348.56	0.9818
2359.21	0.981
2369.85	0.98
2380.49	0.977
2391.14	0.978
2401.78	0.981
2412.42	0.981
2423.06	0.978
2433.71	0.978
2444.35	0.978
2454.99	0.98
2465.64	0.9777
2476.28	0.976
2486.92	0.974
2497.57	0.9737
2508.21	0.973
2518.85	0.9713
2529.49	0.969
2540.14	0.969
2550.78	0.9656
2561.42	0.964
2572.07	0.961
2582.71	0.961
2593.35	0.96
2604	0.958
2614.64	0.9566
2625.28	0.9518
2635.92	0.9486
2646.57	0.9456
2657.21	0.9416
2667.85	0.938
2678.5	0.9336
2689.14	0.929
2699.78	0.9271
2710.43	0.9196
2721.07	0.911
2731.71	0.9036
2742.36	0.895
2753	0.888
2763.64	0.877
2774.28	0.8635
2784.93	0.8515
2795.57	0.8405
2806.21	0.8319
2816.86	0.8259
2827.5	0.819
2838.14	0.8114
2848.79	0.8074
2859.43	0.8034
2870.07	0.8046
2880.71	0.8086
2891.36	0.8102
2902	0.811
2912.64	0.8098
2923.29	0.8022
2933.93	0.8
2944.57	0.801
2955.22	0.801
2965.86	0.801
2976.5	0.8
2987.15	0.7977
2997.79	0.7937
3008.43	0.7873
3019.07	0.7776
3029.72	0.7646
3040.36	0.7553
3051	0.7439
3061.65	0.7366
3072.29	0.7289
3082.93	0.7171
3093.58	0.7078
3104.22	0.7005
3114.86	0.6965
3125.5	0.6925
3136.15	0.69
3146.79	0.687
3157.43	0.687
3168.08	0.688
3178.72	0.6908
3189.36	0.692
3200.01	0.6958
3210.65	0.699
3221.29	0.7028
3231.93	0.7078
3242.58	0.7136
3253.22	0.719
3263.86	0.7257
3274.51	0.7309
3285.15	0.7349
3295.79	0.7341
3306.44	0.732
3317.08	0.7271
3327.72	0.7191
3338.37	0.7111
3349.01	0.6991
3359.65	0.6902
3370.29	0.6795
3380.94	0.6682
3391.58	0.6541
3402.22	0.6393
3412.87	0.6271
3423.51	0.6222
3434.15	0.618
3444.8	0.618
3455.44	0.6209
3466.08	0.628
3476.72	0.632
3487.37	0.64
3498.01	0.652
3508.65	0.67
3519.3	0.6841
3529.94	0.7061
3540.58	0.7244
3551.23	0.7512
3561.87	0.7763
3572.51	0.8004
3583.16	0.8323
3593.8	0.8555
3604.44	0.8828
3615.08	0.9011
3625.73	0.9214
3636.37	0.9371
3647.01	0.9491
3657.66	0.9601
3668.3	0.9691
3678.94	0.9742
3689.59	0.977
3700.23	0.9783
3710.87	0.98
3721.51	0.9801
3732.16	0.981
3742.8	0.9818
3753.44	0.9802
3764.09	0.9802
3774.73	0.9808
3785.37	0.981
3796.02	0.9818
3806.66	0.981
3817.3	0.981
3827.94	0.982
3838.59	0.9818
3849.23	0.981
3859.87	0.9812
3870.52	0.981
3881.16	0.981
3891.8	0.981
3902.45	0.981
3913.09	0.9817
3923.73	0.981
3934.38	0.981
3945.02	0.981
3955.66	0.981
3966.3	0.981
3976.95	0.9807
