Infrared Spectrum: BRILLIANT YELLOW
Formula: C26 H18 N4 O8 S2 Na2
State: SOLID (MINERAL OIL MULL)
Class: COBLENTZ
Instrument: Not specified, most likely a prism, grating, or hybrid spectrometer.
Sampling: TRANSMISSION
Resolution: 4
Origin: WYANDOTTE CHEMICALS CORP., WYANDOTTE, MICHIGAN, USA
MICROMETERS	TRANSMITTANCE
2.012	0.15
2.04912	0.151
2.08624	0.173
2.12336	0.175
2.16048	0.173
2.1976	0.182
2.23472	0.175
2.27184	0.175
2.30896	0.181
2.34608	0.19
2.3832	0.195
2.42032	0.196
2.45745	0.21
2.49457	0.215
2.53169	0.213
2.56881	0.223
2.60593	0.249
2.64305	0.263
2.68017	0.268
2.71729	0.271
2.75441	0.257
2.79153	0.221
2.82865	0.176
2.86577	0.137
2.90289	0.116
2.94001	0.1
2.97713	0.093
3.01425	0.094
3.05137	0.102
3.08849	0.096
3.12561	0.091
3.16273	0.086
3.19985	0.086
3.23697	0.096
3.27409	0.106
3.31121	0.111
3.34834	0.072
3.38546	0.024
3.42258	0.026
3.4597	0.018
3.49682	0.01
3.53394	0.02
3.57106	0.141
3.60818	0.249
3.6453	0.282
3.68242	0.302
3.71954	0.299
3.75666	0.306
3.79378	0.325
3.8309	0.344
3.86802	0.355
3.90514	0.381
3.94226	0.403
3.97938	0.417
4.0165	0.449
4.05362	0.452
4.09074	0.462
4.12786	0.474
4.16498	0.482
4.20211	0.493
4.23923	0.505
4.27635	0.502
4.31347	0.506
4.35059	0.519
4.38771	0.553
4.42483	0.568
4.46195	0.568
4.49907	0.57
4.53619	0.584
4.57331	0.589
4.61043	0.6
4.64755	0.601
4.68467	0.606
4.72179	0.635
4.75891	0.651
4.79603	0.644
4.83315	0.66
4.87027	0.662
4.90739	0.671
4.94451	0.68
4.98163	0.694
5.01875	0.7
5.05587	0.71
5.093	0.73
5.13012	0.734
5.16724	0.751
5.20436	0.759
5.24148	0.758
5.2786	0.755
5.31572	0.758
5.35284	0.778
5.38996	0.787
5.42708	0.801
5.4642	0.815
5.50132	0.813
5.53844	0.82
5.57556	0.826
5.61268	0.835
5.6498	0.838
5.68692	0.854
5.72404	0.858
5.76116	0.871
5.79828	0.871
5.8354	0.866
5.87252	0.838
5.90964	0.817
5.94676	0.765
5.98389	0.662
6.02101	0.592
6.05813	0.623
6.09525	0.682
6.13237	0.728
6.16949	0.586
6.20661	0.31
6.24373	0.293
6.28085	0.351
6.31797	0.601
6.35509	0.674
6.39221	0.693
6.42933	0.73
6.46645	0.736
6.50357	0.789
6.54069	0.792
6.57781	0.801
6.61493	0.516
6.65205	0.581
6.68917	0.624
6.72629	0.406
6.76341	0.244
6.80053	0.077
6.83766	0.072
6.87478	0.119
6.9119	0.241
6.94902	0.376
6.98614	0.55
7.02326	0.663
7.06038	0.747
7.0975	0.753
7.13462	0.744
7.17174	0.674
7.20886	0.429
7.24598	0.218
7.2831	0.272
7.32022	0.368
7.35734	0.525
7.39446	0.536
7.43158	0.55
7.4687	0.589
7.50582	0.671
7.54294	0.734
7.58006	0.764
7.61718	0.753
7.6543	0.773
7.69142	0.793
7.72855	0.768
7.76567	0.696
7.80279	0.592
7.83991	0.536
7.87703	0.489
7.91415	0.421
7.95127	0.265
7.98839	0.151
8.02551	0.089
8.06263	0.094
8.09975	0.088
8.13687	0.096
8.17399	0.1
8.21111	0.103
8.24823	0.096
8.28535	0.063
8.32247	0.051
8.35959	0.051
8.39671	0.068
8.43383	0.06
8.47095	0.049
8.50807	0.035
8.54519	0.041
8.58232	0.077
8.61944	0.159
8.65656	0.271
8.69368	0.258
8.7308	0.147
8.76792	0.119
8.80504	0.173
8.84216	0.218
8.87928	0.368
8.9164	0.5
8.95352	0.544
8.99064	0.547
9.02776	0.496
9.06488	0.381
9.102	0.444
9.13912	0.522
9.17624	0.412
9.21336	0.168
9.25048	0.1
9.2876	0.148
9.32472	0.156
9.36184	0.279
9.39896	0.423
9.43608	0.542
9.47321	0.61
9.51033	0.654
9.54745	0.665
9.58457	0.663
9.62169	0.572
9.65881	0.345
9.69593	0.173
9.73305	0.102
9.77017	0.097
9.80729	0.251
9.84441	0.491
9.88153	0.586
9.91865	0.621
9.95577	0.691
9.99289	0.734
10.03	0.765
10.0671	0.778
10.1043	0.787
10.1414	0.796
10.1785	0.8
10.2156	0.789
10.2527	0.758
10.2899	0.708
10.327	0.674
10.3641	0.627
10.4012	0.6
10.4383	0.595
10.4755	0.618
10.5126	0.686
10.5497	0.71
10.5868	0.733
10.6239	0.793
10.6611	0.824
10.6982	0.844
10.7353	0.869
10.7724	0.877
10.8095	0.891
10.8467	0.889
10.8838	0.897
10.9209	0.886
10.958	0.854
10.9951	0.759
11.0323	0.756
11.0694	0.8
11.1065	0.86
11.1436	0.872
11.1807	0.88
11.2179	0.883
11.255	0.883
11.2921	0.92
11.3292	0.937
11.3663	0.941
11.4035	0.925
11.4406	0.911
11.4777	0.917
11.5148	0.917
11.5519	0.914
11.5891	0.905
11.6262	0.889
11.6633	0.872
11.7004	0.827
11.7376	0.759
11.7747	0.662
11.8118	0.55
11.8489	0.407
11.886	0.277
11.9232	0.184
11.9603	0.164
11.9974	0.28
12.0345	0.401
12.0716	0.429
12.1088	0.485
12.1459	0.587
12.183	0.677
12.2201	0.762
12.2572	0.806
12.2944	0.86
12.3315	0.871
12.3686	0.868
12.4057	0.869
12.4428	0.872
12.48	0.866
12.5171	0.863
12.5542	0.889
12.5913	0.913
12.6284	0.919
12.6656	0.916
12.7027	0.897
12.7398	0.872
12.7769	0.88
12.814	0.899
12.8512	0.906
12.8883	0.916
12.9254	0.91
12.9625	0.905
12.9996	0.899
13.0368	0.899
13.0739	0.897
13.111	0.897
13.1481	0.896
13.1852	0.891
13.2224	0.897
13.2595	0.891
13.2966	0.889
13.3337	0.889
13.3708	0.883
13.408	0.848
13.4451	0.786
13.4822	0.751
13.5193	0.739
13.5565	0.731
13.5936	0.731
13.6307	0.728
13.6678	0.725
13.7049	0.711
13.7421	0.693
13.7792	0.677
13.8163	0.629
13.8534	0.587
13.8905	0.545
13.9277	0.485
13.9648	0.406
14.0019	0.345
14.039	0.328
14.0761	0.372
14.1133	0.417
14.1504	0.454
14.1875	0.527
14.2246	0.624
14.2617	0.691
14.2989	0.756
14.336	0.787
14.3731	0.81
14.4102	0.813
14.4473	0.827
14.4845	0.82
14.5216	0.82
14.5587	0.82
14.5958	0.813
14.6329	0.801
14.6701	0.792
14.7072	0.784
14.7443	0.773
14.7814	0.762
14.8185	0.745
14.8557	0.739
14.8928	0.724
14.9299	0.719
14.967	0.706
15.0041	0.665
15.0413	0.6
15.0784	0.525
15.1155	0.51
15.1526	0.527
15.1898	0.562
15.2269	0.587
15.264	0.586
15.3011	0.567
15.3382	0.55
15.3754	0.52
15.4125	0.497
15.4496	0.474
15.4867	0.431
15.5238	0.386
15.561	0.348
15.5981	0.327
15.6352	0.319
15.6723	0.324
15.7094	0.345
15.7466	0.337
15.7837	0.327
15.8208	0.316
15.8579	0.302
15.895	0.28
15.9322	0.262
15.9693	0.262
16.0064	0.26
