Infrared Spectrum: SUCCINIC ACID, BIS(2,2,4,4-TETRA METHYL-3-OXOCYCLOBUTYL) ESTER
Formula: C20 H30 O6
State: SOLID (KBr PELLET)
Melting point: 99-101 C
Boiling point: 174 C AT 2 mmHg
Class: COBLENTZ
Instrument: Not specified, most likely a prism, grating, or hybrid spectrometer.
Sampling: TRANSMISSION
Resolution: 4
Origin: TENNESSEE EASTMAN COMPANY, RESEARCH LABORATORIES
MICROMETERS	TRANSMITTANCE
2.061	0.717
2.10192	0.724
2.14284	0.732
2.18375	0.744
2.22467	0.751
2.26559	0.746
2.30651	0.752
2.34742	0.764
2.38834	0.768
2.42926	0.775
2.47018	0.787
2.51109	0.793
2.55201	0.798
2.59293	0.804
2.63385	0.81
2.67476	0.817
2.71568	0.819
2.7566	0.802
2.79752	0.77
2.83844	0.735
2.87935	0.744
2.92027	0.749
2.96119	0.778
3.00211	0.805
3.04302	0.821
3.08394	0.831
3.12486	0.838
3.16578	0.844
3.20669	0.868
3.24761	0.885
3.28853	0.884
3.32945	0.691
3.37036	0.408
3.41128	0.551
3.4522	0.652
3.49312	0.867
3.53404	0.923
3.57495	0.933
3.61587	0.95
3.65679	0.95
3.69771	0.948
3.73862	0.957
3.77954	0.96
3.82046	0.959
3.86138	0.957
3.90229	0.959
3.94321	0.959
3.98413	0.96
4.02505	0.959
4.06596	0.957
4.10688	0.957
4.1478	0.954
4.18872	0.947
4.22964	0.948
4.27055	0.938
4.31147	0.928
4.35239	0.943
4.39331	0.952
4.43422	0.954
4.47514	0.954
4.51606	0.952
4.55698	0.952
4.59789	0.95
4.63881	0.948
4.67973	0.948
4.72065	0.945
4.76157	0.938
4.80248	0.933
4.8434	0.936
4.88432	0.936
4.92524	0.94
4.96615	0.945
5.00707	0.948
5.04799	0.95
5.08891	0.936
5.12982	0.923
5.17074	0.933
5.21166	0.926
5.25258	0.925
5.29349	0.93
5.33441	0.913
5.37533	0.892
5.41625	0.846
5.45717	0.819
5.49808	0.737
5.539	0.555
5.57992	0.35
5.62084	0.018
5.66175	0.282
5.70267	0.201
5.74359	0.027
5.78451	0.301
5.82542	0.616
5.86634	0.756
5.90726	0.776
5.94818	0.826
5.98909	0.85
6.03001	0.868
6.07093	0.843
6.11185	0.851
6.15277	0.87
6.19368	0.889
6.2346	0.906
6.27552	0.921
6.31644	0.93
6.35735	0.921
6.39827	0.916
6.43919	0.919
6.48011	0.901
6.52102	0.913
6.56194	0.89
6.60286	0.901
6.64378	0.892
6.68469	0.87
6.72561	0.805
6.76653	0.551
6.80745	0.284
6.84837	0.393
6.88928	0.557
6.9302	0.676
6.97112	0.768
7.01204	0.724
7.05295	0.308
7.09387	0.282
7.13479	0.509
7.17571	0.393
7.21662	0.231
7.25754	0.127
7.29846	0.221
7.33938	0.26
7.38029	0.475
7.42121	0.25
7.46213	0.449
7.50305	0.821
7.54397	0.86
7.58488	0.873
7.6258	0.884
7.66672	0.882
7.70764	0.862
7.74855	0.822
7.78947	0.693
7.83039	0.536
7.87131	0.657
7.91222	0.735
7.95314	0.725
7.99406	0.678
8.03498	0.565
8.07589	0.541
8.11681	0.492
8.15773	0.308
8.19865	0.074
8.23957	0.028
8.28048	0.085
8.3214	0.09
8.36232	0.151
8.40324	0.26
8.44415	0.385
8.48507	0.402
8.52599	0.229
8.56691	0.045
8.60782	0.02
8.64874	0.017
8.68966	0.025
8.73058	0.134
8.7715	0.311
8.81241	0.528
8.85333	0.603
8.89425	0.649
8.93517	0.698
8.97608	0.715
9.017	0.729
9.05792	0.7
9.09884	0.64
9.13975	0.512
9.18067	0.357
9.22159	0.419
9.26251	0.55
9.30342	0.565
9.34434	0.412
9.38526	0.17
9.42618	0.192
9.4671	0.373
9.50801	0.488
9.54893	0.475
9.58985	0.327
9.63077	0.206
9.67168	0.109
9.7126	0.078
9.75352	0.187
9.79444	0.238
9.83535	0.27
9.87627	0.54
9.91719	0.666
9.95811	0.739
9.99902	0.749
10.0399	0.746
10.0809	0.768
10.1218	0.776
10.1627	0.783
10.2036	0.78
10.2445	0.752
10.2854	0.752
10.3264	0.758
10.3673	0.749
10.4082	0.742
10.4491	0.79
10.49	0.826
10.531	0.846
10.5719	0.856
10.6128	0.868
10.6537	0.875
10.6946	0.88
10.7355	0.882
10.7765	0.88
10.8174	0.858
10.8583	0.8
10.8992	0.747
10.9401	0.822
10.981	0.867
11.022	0.889
11.0629	0.896
11.1038	0.902
11.1447	0.899
11.1856	0.855
11.2266	0.72
11.2675	0.477
11.3084	0.371
11.3493	0.54
11.3902	0.773
11.4311	0.846
11.4721	0.884
11.513	0.906
11.5539	0.913
11.5948	0.916
11.6357	0.911
11.6766	0.899
11.7176	0.855
11.7585	0.785
11.7994	0.734
11.8403	0.717
11.8812	0.81
11.9222	0.868
11.9631	0.899
12.004	0.918
12.0449	0.928
12.0858	0.931
12.1267	0.933
12.1677	0.933
12.2086	0.933
12.2495	0.933
12.2904	0.933
12.3313	0.931
12.3722	0.93
12.4132	0.923
12.4541	0.919
12.495	0.918
12.5359	0.911
12.5768	0.904
12.6178	0.882
12.6587	0.862
12.6996	0.882
12.7405	0.902
12.7814	0.909
12.8223	0.913
12.8633	0.916
12.9042	0.918
12.9451	0.919
12.986	0.919
13.0269	0.919
13.0678	0.925
13.1088	0.925
13.1497	0.925
13.1906	0.928
13.2315	0.928
13.2724	0.926
13.3134	0.926
13.3543	0.925
13.3952	0.923
13.4361	0.923
13.477	0.923
13.5179	0.919
13.5589	0.918
13.5998	0.918
13.6407	0.916
13.6816	0.918
13.7225	0.911
13.7634	0.902
13.8044	0.892
13.8453	0.89
13.8862	0.892
13.9271	0.897
13.968	0.897
14.009	0.899
14.0499	0.901
14.0908	0.899
14.1317	0.899
14.1726	0.896
14.2135	0.894
14.2545	0.892
14.2954	0.887
14.3363	0.882
14.3772	0.879
14.4181	0.87
14.459	0.867
14.5	0.86
14.5409	0.855
14.5818	0.85
14.6227	0.841
14.6636	0.836
14.7046	0.826
14.7455	0.821
14.7864	0.814
14.8273	0.8
14.8682	0.792
14.9091	0.775
14.9501	0.749
14.991	0.735
15.0319	0.737
15.0728	0.744
15.1137	0.741
15.1546	0.725
15.1956	0.717
15.2365	0.7
15.2774	0.689
15.3183	0.679
15.3592	0.667
15.4002	0.652
15.4411	0.643
15.482	0.637
15.5229	0.626
15.5638	0.618
15.6047	0.608
15.6457	0.601
15.6866	0.589
15.7275	0.579
15.7684	0.567
15.8093	0.555
15.8502	0.546
15.8912	0.538
15.9321	0.533
15.973	0.528
