Infrared Spectrum: ACETYL-O-PHENETIDINE
Formula: C10 H13 N O2
State: SOLUTION (10% CCl4 FOR 5000-1330, 10% CS2 FOR 1330-625 CM^-^1)
Class: COBLENTZ
Instrument: Not specified, most likely a prism, grating, or hybrid spectrometer.
Sampling: TRANSMISSION
Path length: 0.0111 CM, 0.0111 CM
Resolution: 4
Origin: DOW CHEMICAL COMPANY
MICROMETERS	TRANSMITTANCE
2.055	0.882
2.09628	0.876
2.13755	0.882
2.17883	0.884
2.22011	0.876
2.26139	0.872
2.30266	0.882
2.34394	0.884
2.38522	0.888
2.4265	0.895
2.46777	0.898
2.50905	0.903
2.55033	0.907
2.59161	0.908
2.63288	0.913
2.67416	0.917
2.71544	0.917
2.75672	0.915
2.79799	0.903
2.83927	0.889
2.88055	0.662
2.92183	0.54
2.9631	0.731
3.00438	0.786
3.04566	0.834
3.08694	0.853
3.12821	0.87
3.16949	0.857
3.21077	0.803
3.25205	0.731
3.29332	0.734
3.3346	0.54
3.37588	0.576
3.41716	0.574
3.45843	0.688
3.49971	0.846
3.54099	0.882
3.58227	0.9
3.62354	0.9
3.66482	0.905
3.7061	0.927
3.74738	0.929
3.78865	0.915
3.82993	0.915
3.87121	0.907
3.91249	0.925
3.95376	0.934
3.99504	0.934
4.03632	0.925
4.0776	0.925
4.11887	0.934
4.16015	0.943
4.20143	0.946
4.24271	0.938
4.28398	0.925
4.32526	0.924
4.36654	0.925
4.40782	0.941
4.44909	0.939
4.49037	0.948
4.53165	0.95
4.57293	0.948
4.6142	0.944
4.65548	0.946
4.69676	0.955
4.73804	0.956
4.77931	0.958
4.82059	0.956
4.86187	0.95
4.90315	0.932
4.94442	0.939
4.9857	0.941
5.02698	0.939
5.06826	0.934
5.10953	0.929
5.15081	0.922
5.19209	0.9
5.23337	0.908
5.27464	0.889
5.31592	0.905
5.3572	0.919
5.39848	0.91
5.43975	0.9
5.48103	0.905
5.52231	0.9
5.56359	0.879
5.60486	0.822
5.64614	0.803
5.68742	0.822
5.7287	0.822
5.76997	0.769
5.81125	0.585
5.85253	0.194
5.89381	0.032
5.93508	0.08
5.97636	0.349
6.01764	0.626
6.05892	0.695
6.10019	0.702
6.14147	0.64
6.18275	0.43
6.22403	0.067
6.2653	0.197
6.30658	0.437
6.34786	0.468
6.38914	0.397
6.43041	0.204
6.47169	0.127
6.51297	0.01
6.55425	0.018
6.59552	0.03
6.6368	0.149
6.67808	0.297
6.71936	0.104
6.76063	0.149
6.80191	0.394
6.84319	0.051
6.88447	0
6.92574	0.103
6.96702	0.278
7.0083	0.349
7.04958	0.475
7.09085	0.53
7.13213	0.435
7.17341	0.197
7.21469	0.337
7.25596	0.318
7.29724	0.149
7.33852	0.462
7.3798	0.666
7.42107	0.604
7.46235	0.296
7.50363	0.182
7.54491	0.363
7.58618	0.5
7.62746	0.545
7.66874	0.39
7.71002	0.232
7.75129	0.275
7.79257	0.478
7.83385	0.526
7.87513	0.409
7.9164	0.209
7.95768	0.041
7.99896	0.013
8.04024	0.063
8.08151	0.101
8.12279	0.101
8.16407	0.199
8.20535	0.228
8.24662	0.172
8.2879	0.228
8.32918	0.473
8.37046	0.645
8.41173	0.703
8.45301	0.74
8.49429	0.752
8.53557	0.736
8.57684	0.65
8.61812	0.619
8.6594	0.671
8.70068	0.722
8.74195	0.753
8.78323	0.759
8.82451	0.686
8.86579	0.437
8.90706	0.161
8.94834	0.058
8.98962	0.268
9.0309	0.511
9.07217	0.671
9.11345	0.736
9.15473	0.724
9.19601	0.681
9.23728	0.716
9.27856	0.76
9.31984	0.767
9.36112	0.741
9.40239	0.659
9.44367	0.545
9.48495	0.327
9.52623	0.101
9.5675	0.051
9.60878	0.096
9.65006	0.246
9.69134	0.373
9.73261	0.53
9.77389	0.628
9.81517	0.69
9.85645	0.695
9.89772	0.674
9.939	0.624
9.98028	0.581
10.0216	0.567
10.0628	0.645
10.1041	0.728
10.1454	0.776
10.1867	0.803
10.2279	0.822
10.2692	0.833
10.3105	0.831
10.3518	0.805
10.3931	0.781
10.4343	0.728
10.4756	0.683
10.5169	0.753
10.5582	0.826
10.5994	0.831
10.6407	0.81
10.682	0.762
10.7233	0.657
10.7646	0.5
10.8058	0.388
10.8471	0.447
10.8884	0.65
10.9297	0.736
10.9709	0.769
11.0122	0.776
11.0535	0.76
11.0948	0.765
11.136	0.82
11.1773	0.838
11.2186	0.845
11.2599	0.843
11.3012	0.834
11.3424	0.817
11.3837	0.807
11.425	0.796
11.4663	0.784
11.5075	0.776
11.5488	0.76
11.5901	0.748
11.6314	0.733
11.6727	0.726
11.7139	0.719
11.7552	0.726
11.7965	0.74
11.8378	0.772
11.879	0.798
11.9203	0.815
11.9616	0.826
12.0029	0.836
12.0442	0.841
12.0854	0.845
12.1267	0.848
12.168	0.85
12.2093	0.857
12.2505	0.853
12.2918	0.85
12.3331	0.843
12.3744	0.836
12.4157	0.82
12.4569	0.798
12.4982	0.762
12.5395	0.674
12.5808	0.598
12.622	0.586
12.6633	0.685
12.7046	0.75
12.7459	0.776
12.7871	0.786
12.8284	0.79
12.8697	0.781
12.911	0.765
12.9523	0.729
12.9935	0.693
13.0348	0.669
13.0761	0.662
13.1174	0.647
13.1586	0.597
13.1999	0.524
13.2412	0.409
13.2825	0.294
13.3238	0.168
13.365	0.06
13.4063	0.012
13.4476	0.003
13.4889	0.027
13.5301	0.137
13.5714	0.323
13.6127	0.449
13.654	0.49
13.6953	0.511
13.7365	0.547
13.7778	0.59
13.8191	0.633
13.8604	0.65
13.9016	0.659
13.9429	0.664
13.9842	0.667
14.0255	0.666
14.0668	0.662
14.108	0.657
14.1493	0.65
14.1906	0.643
14.2319	0.636
14.2731	0.628
14.3144	0.621
14.3557	0.614
14.397	0.609
14.4382	0.602
14.4795	0.597
14.5208	0.586
14.5621	0.576
14.6034	0.566
14.6446	0.555
14.6859	0.549
14.7272	0.537
14.7685	0.526
14.8097	0.512
14.851	0.504
14.8923	0.493
14.9336	0.485
14.9749	0.468
15.0161	0.444
15.0574	0.425
15.0987	0.413
15.14	0.406
15.1812	0.399
15.2225	0.39
15.2638	0.376
15.3051	0.368
15.3464	0.359
15.3876	0.356
15.4289	0.351
15.4702	0.34
15.5115	0.33
15.5527	0.323
15.594	0.311
15.6353	0.304
15.6766	0.297
15.7179	0.292
15.7591	0.289
15.8004	0.285
15.8417	0.285
15.883	0.285
