Infrared Spectrum: BIS(5-NITROIMIDAZOLE-4-CARBOXAMIDO)ETHYLENE
Formula: C10 H10 N8 O6
State: SOLID (1.0 mg / 650 mg KBr DISC)
Class: COBLENTZ III
Instrument: PERKIN-ELMER 221 (GRATING)
Instrument parameters: FILTER AT 2490, 980 CM^-^1. GRATING 4000-1428 CM^-^1, NaCl PRISM 1428-650 CM^-^1
Sampling: TRANSMISSION
Resolution: 2
Origin: SOUTHERN RESEARCH INSTITUTE
1/CM	TRANSMITTANCE
640	0.524
649.233	0.3478
658.467	0.5837
667.7	0.7251
676.933	0.7992
686.166	0.8466
695.4	0.8645
704.633	0.876
713.866	0.877
723.1	0.876
732.333	0.8538
741.566	0.8213
750.8	0.7207
760.033	0.7791
769.266	0.7831
778.499	0.79
787.733	0.817
796.966	0.8058
806.199	0.7877
815.433	0.7503
824.666	0.4105
833.899	0.713
843.133	0.716
852.366	0.7072
861.599	0.6675
870.832	0.5592
880.066	0.4792
889.299	0.4899
898.532	0.6928
907.766	0.7872
916.999	0.7656
926.232	0.7
935.466	0.6026
944.699	0.4317
953.932	0.1877
963.165	0.6752
972.399	0.8132
981.632	0.8607
990.865	0.879
1000.1	0.88
1009.33	0.879
1018.57	0.8641
1027.8	0.86
1037.03	0.8658
1046.27	0.868
1055.5	0.8634
1064.73	0.8585
1073.96	0.8342
1083.2	0.74
1092.43	0.5664
1101.66	0.7647
1110.9	0.7758
1120.13	0.7667
1129.36	0.758
1138.6	0.756
1147.83	0.7655
1157.06	0.7826
1166.3	0.783
1175.53	0.781
1184.76	0.7743
1194	0.727
1203.23	0.6421
1212.46	0.5779
1221.7	0.566
1230.93	0.4887
1240.16	0.3358
1249.4	0.0969
1258.63	0.4931
1267.86	0.6908
1277.1	0.5392
1286.33	0.3924
1295.56	0.341
1304.8	0.2951
1314.03	0.1371
1323.26	0.1142
1332.5	0.3895
1341.73	0.4647
1350.96	0.2209
1360.2	0.0732
1369.43	0.2975
1378.66	0.6079
1387.9	0.685
1397.13	0.6138
1406.36	0.4832
1415.6	0.318
1424.83	0.2925
1434.06	0.1913
1443.3	0.2042
1452.53	0.3223
1461.76	0.3449
1471	0.2291
1480.23	0.1599
1489.46	0.281
1498.7	0.1612
1507.93	0.0071
1517.16	0.0369
1526.4	0.0892
1535.63	0.0947
1544.86	0.1135
1554.1	0.2758
1563.33	0.457
1572.56	0.3582
1581.8	0.2523
1591.03	0.3947
1600.26	0.6028
1609.5	0.6364
1618.73	0.5927
1627.96	0.5215
1637.2	0.388
1646.43	0.2415
1655.66	0.1105
1664.9	0.024
1674.13	0.0566
1683.36	0.1325
1692.6	0.433
1701.83	0.6213
1711.06	0.7291
1720.3	0.7816
1729.53	0.8153
1738.76	0.8391
1748	0.851
1757.23	0.852
1766.46	0.8512
1775.7	0.8392
1784.93	0.839
1794.16	0.8394
1803.4	0.8385
1812.63	0.8221
1821.86	0.8112
1831.1	0.806
1840.33	0.804
1849.56	0.7978
1858.8	0.7907
1868.03	0.781
1877.26	0.7839
1886.5	0.788
1895.73	0.793
1904.96	0.7994
1914.19	0.8086
1923.43	0.8176
1932.66	0.8295
1941.89	0.8394
1951.13	0.8487
1960.36	0.858
1969.59	0.8654
1978.83	0.8732
1988.06	0.884
1997.29	0.894
2006.53	0.9049
2015.76	0.9139
2024.99	0.9179
2034.23	0.921
2043.46	0.925
2052.69	0.927
2061.93	0.929
2071.16	0.929
2080.39	0.929
2089.63	0.93
2098.86	0.929
2108.09	0.927
2117.33	0.926
2126.56	0.925
2135.79	0.923
2145.03	0.923
2154.26	0.925
2163.49	0.922
2172.73	0.9141
2181.96	0.911
2191.19	0.909
2200.43	0.908
2209.66	0.908
2218.89	0.902
2228.13	0.897
2237.36	0.8901
2246.59	0.885
2255.83	0.8791
2265.06	0.871
2274.29	0.867
2283.53	0.8581
2292.76	0.8461
2301.99	0.8371
2311.23	0.8302
2320.46	0.8181
2329.69	0.813
2338.93	0.7961
2348.16	0.7791
2357.39	0.7642
2366.63	0.7371
2375.86	0.7211
2385.09	0.712
2394.33	0.7081
2403.56	0.708
2412.79	0.6951
2422.03	0.6813
2431.26	0.6671
2440.49	0.6571
2449.73	0.6322
2458.96	0.6082
2468.19	0.6071
2477.43	0.6041
2486.66	0.5971
2495.89	0.5791
2505.13	0.5502
2514.36	0.5111
2523.59	0.5041
2532.83	0.5011
2542.06	0.492
2551.29	0.4663
2560.53	0.4482
2569.76	0.4241
2578.99	0.423
2588.23	0.427
2597.46	0.427
2606.69	0.4112
2615.93	0.3832
2625.16	0.3691
2634.39	0.3729
2643.63	0.3808
2652.86	0.4089
2662.09	0.413
2671.33	0.4032
2680.56	0.383
2689.79	0.3701
2699.03	0.357
2708.26	0.356
2717.49	0.3541
2726.73	0.356
2735.96	0.3561
2745.19	0.3501
2754.43	0.3353
2763.66	0.3071
2772.89	0.298
2782.12	0.294
2791.36	0.293
2800.59	0.294
2809.82	0.296
2819.06	0.3039
2828.29	0.3178
2837.52	0.3515
2846.76	0.4116
2855.99	0.425
2865.22	0.4073
2874.46	0.3575
2883.69	0.311
2892.92	0.31
2902.16	0.311
2911.39	0.318
2920.62	0.323
2929.86	0.3358
2939.09	0.3724
2948.32	0.387
2957.56	0.3949
2966.79	0.3882
2976.02	0.377
2985.26	0.379
2994.49	0.382
3003.72	0.379
3012.96	0.379
3022.19	0.381
3031.42	0.4227
3040.66	0.4488
3049.89	0.4619
3059.12	0.4739
3068.36	0.4779
3077.59	0.4858
3086.82	0.5046
3096.06	0.52
3105.29	0.5279
3114.52	0.5379
3123.76	0.544
3132.99	0.544
3142.22	0.5381
3151.46	0.5222
3160.69	0.4742
3169.92	0.5354
3179.16	0.6155
3188.39	0.6469
3197.62	0.6549
3206.86	0.657
3216.09	0.657
3225.32	0.657
3234.56	0.6491
3243.79	0.646
3253.02	0.643
3262.26	0.6391
3271.49	0.6221
3280.72	0.6141
3289.96	0.5972
3299.19	0.5635
3308.42	0.5262
3317.66	0.4757
3326.89	0.4096
3336.12	0.3359
3345.36	0.2267
3354.59	0.185
3363.82	0.2175
3373.06	0.2946
3382.29	0.3698
3391.52	0.4395
3400.76	0.5106
3409.99	0.5568
3419.22	0.5878
3428.46	0.6129
3437.69	0.6279
3446.92	0.6419
3456.16	0.6569
3465.39	0.6659
3474.62	0.6749
3483.86	0.6829
3493.09	0.688
3502.32	0.693
3511.56	0.7059
3520.79	0.7219
3530.02	0.738
3539.26	0.7429
3548.49	0.7499
3557.72	0.76
3566.96	0.7729
3576.19	0.7889
3585.42	0.8048
3594.66	0.8258
3603.89	0.8379
3613.12	0.8469
3622.35	0.8629
3631.59	0.877
3640.82	0.8918
3650.05	0.9
3659.29	0.9049
3668.52	0.908
3677.75	0.911
3686.99	0.911
3696.22	0.9129
3705.45	0.913
3714.69	0.913
3723.92	0.913
3733.15	0.913
3742.39	0.913
3751.62	0.913
3760.85	0.913
3770.09	0.913
3779.32	0.913
3788.55	0.913
3797.79	0.913
3807.02	0.913
3816.25	0.913
3825.49	0.911
3834.72	0.91
3843.95	0.905
3853.19	0.902
3862.42	0.9
3871.65	0.9
3880.89	0.898
3890.12	0.897
3899.35	0.897
3908.59	0.897
3917.82	0.898
3927.05	0.898
3936.29	0.897
3945.52	0.896
3954.75	0.894
3963.99	0.894
3973.22	0.893
3982.45	0.893
3991.69	0.893
4000.92	0.893
4010.15	0.893
4019.39	0.893
4028.62	0.893
