Infrared Spectrum: AMMONIUM SULFAMATE
Formula: C6 N2 O3 S
State: SOLID (1 mg / 650 mg KBr DISC)
Class: COBLENTZ III
Instrument: PERKIN-ELMER 221 (GRATING)
Instrument parameters: FILTER AT 980 CM^-^1. GRATING 4000-1428 CM^-^1, NaCl PRISM 1428-650 CM^-^1
Sampling: TRANSMISSION
Resolution: 2
Origin: SOUTHERN RESEARCH INSTITUTE
1/CM	TRANSMITTANCE
645.7	0.66
654.606	0.6371
663.512	0.6213
672.418	0.5938
681.323	0.5628
690.229	0.5299
699.135	0.4988
708.041	0.4682
716.947	0.435
725.853	0.4
734.759	0.3743
743.664	0.3425
752.57	0.3083
761.476	0.2602
770.382	0.2088
779.288	0.1873
788.194	0.151
797.099	0.1489
806.005	0.1644
814.911	0.1996
823.817	0.2965
832.723	0.3912
841.629	0.4794
850.535	0.5417
859.44	0.5865
868.346	0.6214
877.252	0.627
886.158	0.6151
895.064	0.5897
903.97	0.5171
912.876	0.4515
921.781	0.4249
930.687	0.419
939.593	0.4111
948.499	0.404
957.405	0.3954
966.311	0.3812
975.216	0.3503
984.122	0.3285
993.028	0.2906
1001.93	0.239
1010.84	0.1862
1019.75	0.1107
1028.65	0.1059
1037.56	0.119
1046.46	0.1242
1055.37	0.2622
1064.27	0.3482
1073.18	0.349
1082.09	0.3294
1090.99	0.2884
1099.9	0.2353
1108.8	0.1957
1117.71	0.1462
1126.62	0.1104
1135.52	0.108
1144.43	0.106
1153.33	0.108
1162.24	0.11
1171.15	0.111
1180.05	0.1065
1188.96	0.105
1197.86	0.104
1206.77	0.104
1215.67	0.101
1224.58	0.0922
1233.49	0.082
1242.39	0.078
1251.3	0.0795
1260.2	0.1059
1269.11	0.1721
1278.02	0.2407
1286.92	0.267
1295.83	0.3082
1304.73	0.3422
1313.64	0.3739
1322.54	0.4153
1331.45	0.453
1340.36	0.466
1349.26	0.4617
1358.17	0.435
1367.07	0.3837
1375.98	0.2757
1384.89	0.1882
1393.79	0.124
1402.7	0.1247
1411.6	0.1296
1420.51	0.1386
1429.41	0.1475
1438.32	0.156
1447.23	0.1708
1456.13	0.1883
1465.04	0.214
1473.94	0.2462
1482.85	0.2666
1491.76	0.2901
1500.66	0.299
1509.57	0.301
1518.47	0.299
1527.38	0.297
1536.29	0.2978
1545.19	0.303
1554.1	0.3225
1563	0.3434
1571.91	0.355
1580.81	0.3584
1589.72	0.359
1598.63	0.358
1607.53	0.358
1616.44	0.359
1625.34	0.363
1634.25	0.3721
1643.16	0.392
1652.06	0.4069
1660.97	0.4336
1669.87	0.4436
1678.78	0.449
1687.68	0.4517
1696.59	0.458
1705.5	0.4697
1714.4	0.48
1723.31	0.4914
1732.21	0.501
1741.12	0.51
1750.03	0.5193
1758.93	0.5262
1767.84	0.5343
1776.74	0.54
1785.65	0.547
1794.55	0.552
1803.46	0.556
1812.37	0.561
1821.27	0.5648
1830.18	0.575
1839.08	0.58
1847.99	0.587
1856.9	0.594
1865.8	0.6025
1874.71	0.607
1883.61	0.608
1892.52	0.608
1901.42	0.611
1910.33	0.616
1919.24	0.62
1928.14	0.625
1937.05	0.6339
1945.95	0.6449
1954.86	0.651
1963.77	0.651
1972.67	0.6597
1981.58	0.667
1990.48	0.669
1999.39	0.669
2008.3	0.669
2017.2	0.665
2026.11	0.662
2035.01	0.658
2043.92	0.655
2052.82	0.656
2061.73	0.66
2070.64	0.666
2079.54	0.6725
2088.45	0.6785
2097.35	0.6965
2106.26	0.7095
2115.17	0.718
2124.07	0.726
2132.98	0.7305
2141.88	0.7425
2150.79	0.7525
2159.69	0.756
2168.6	0.754
2177.51	0.75
2186.41	0.748
2195.32	0.748
2204.22	0.7495
2213.13	0.755
2222.04	0.7625
2230.94	0.7755
2239.85	0.781
2248.75	0.78
2257.66	0.781
2266.56	0.78
2275.47	0.778
2284.38	0.777
2293.28	0.7836
2302.19	0.808
2311.09	0.8156
2320	0.8375
2328.91	0.845
2337.81	0.8525
2346.72	0.8575
2355.62	0.862
2364.53	0.865
2373.43	0.865
2382.34	0.8665
2391.25	0.868
2400.15	0.87
2409.06	0.872
2417.96	0.874
2426.87	0.8785
2435.78	0.881
2444.68	0.881
2453.59	0.881
2462.49	0.883
2471.4	0.883
2480.31	0.883
2489.21	0.886
2498.12	0.89
2507.02	0.891
2515.93	0.891
2524.83	0.891
2533.74	0.891
2542.65	0.8895
2551.55	0.882
2560.46	0.8755
2569.36	0.8715
2578.27	0.8695
2587.18	0.866
2596.08	0.8625
2604.99	0.8515
2613.89	0.8435
2622.8	0.819
2631.7	0.8
2640.61	0.7779
2649.52	0.7635
2658.42	0.759
2667.33	0.7585
2676.23	0.759
2685.14	0.7565
2694.05	0.753
2702.95	0.7485
2711.86	0.745
2720.76	0.735
2729.67	0.726
2738.57	0.7155
2747.48	0.7095
2756.39	0.682
2765.29	0.6604
2774.2	0.6355
2783.1	0.6255
2792.01	0.5934
2800.92	0.5729
2809.82	0.5565
2818.73	0.5465
2827.63	0.523
2836.54	0.4995
2845.44	0.481
2854.35	0.46
2863.26	0.4475
2872.16	0.444
2881.07	0.436
2889.97	0.427
2898.88	0.424
2907.79	0.424
2916.69	0.4105
2925.6	0.399
2934.5	0.3855
2943.41	0.3775
2952.32	0.3625
2961.22	0.348
2970.13	0.3395
2979.03	0.3154
2987.94	0.2985
2996.84	0.2804
3005.75	0.2624
3014.66	0.252
3023.56	0.2324
3032.47	0.2135
3041.37	0.206
3050.28	0.2
3059.19	0.1914
3068.09	0.178
3077	0.1675
3085.9	0.164
3094.81	0.162
3103.71	0.158
3112.62	0.152
3121.53	0.151
3130.43	0.1435
3139.34	0.136
3148.24	0.131
3157.15	0.1194
3166.06	0.112
3174.96	0.1034
3183.87	0.096
3192.77	0.0945
3201.68	0.094
3210.58	0.0955
3219.49	0.102
3228.4	0.108
3237.3	0.11
3246.21	0.113
3255.11	0.113
3264.02	0.112
3272.93	0.106
3281.83	0.101
3290.74	0.099
3299.64	0.1
3308.55	0.1045
3317.46	0.1126
3326.36	0.1245
3335.27	0.14
3344.17	0.1475
3353.08	0.159
3361.98	0.1705
3370.89	0.176
3379.8	0.177
3388.7	0.185
3397.61	0.192
3406.51	0.2
3415.42	0.2035
3424.33	0.209
3433.23	0.2185
3442.14	0.2296
3451.04	0.2415
3459.95	0.256
3468.85	0.264
3477.76	0.2761
3486.67	0.285
3495.57	0.2921
3504.48	0.312
3513.38	0.317
3522.29	0.3295
3531.2	0.3405
3540.1	0.349
3549.01	0.359
3557.91	0.376
3566.82	0.383
3575.72	0.4045
3584.63	0.4166
3593.54	0.4345
3602.44	0.4451
3611.35	0.4636
3620.25	0.4836
3629.16	0.501
3638.07	0.509
3646.97	0.521
3655.88	0.535
3664.78	0.5405
3673.69	0.545
3682.59	0.552
3691.5	0.567
3700.41	0.5766
3709.31	0.584
3718.22	0.591
3727.12	0.6015
3736.03	0.606
3744.94	0.6085
3753.84	0.6125
3762.75	0.617
3771.65	0.6255
3780.56	0.627
3789.47	0.628
3798.37	0.633
3807.28	0.6386
3816.18	0.643
3825.09	0.648
3833.99	0.652
3842.9	0.654
3851.81	0.657
3860.71	0.656
3869.62	0.664
3878.52	0.669
3887.43	0.676
3896.34	0.68
3905.24	0.6815
3914.15	0.683
3923.05	0.684
3931.96	0.685
3940.86	0.687
3949.77	0.687
3958.68	0.689
3967.58	0.689
3976.49	0.69
3985.39	0.691
3994.3	0.6915
4003.21	0.691
