Infrared Spectrum: 2,2-DIPHENYL-5-(N-METHYL-N'-PIPERAZINO)-3-PENTANONE DIHYDROCHLORIDE
Formula: C22 H28 N2 O  * 2 H Cl
State: SOLID (NUJOL MULL)
Class: COBLENTZ
Instrument: PERKIN-ELMER
Sampling: TRANSMISSION
Resolution: 4
Origin: ABBOTT LABORATORIES - WASHBURN
MICROMETERS	TRANSMITTANCE
2.031	0.663
2.06451	0.672
2.09802	0.68
2.13153	0.688
2.16504	0.688
2.19855	0.693
2.23206	0.695
2.26557	0.683
2.29908	0.677
2.33259	0.673
2.3661	0.677
2.39961	0.685
2.43312	0.693
2.46663	0.697
2.50014	0.7101
2.53365	0.727
2.56716	0.729
2.60067	0.737
2.63418	0.7421
2.66769	0.749
2.7012	0.7521
2.73471	0.755
2.76822	0.754
2.80173	0.747
2.83524	0.7338
2.86875	0.7019
2.90226	0.6617
2.93577	0.643
2.96928	0.6903
3.00279	0.7121
3.0363	0.7252
3.06981	0.734
3.10332	0.739
3.13683	0.739
3.17034	0.7349
3.20385	0.7186
3.23736	0.6692
3.27087	0.5947
3.30438	0.5208
3.33789	0.2753
3.3714	0.0672
3.40491	0.03
3.43842	0.0459
3.47193	0.0929
3.50544	0.1187
3.53895	0.5285
3.57246	0.6627
3.60597	0.7001
3.63948	0.7017
3.67299	0.6848
3.7065	0.6698
3.74001	0.6476
3.77352	0.6046
3.80703	0.5728
3.84054	0.57
3.87405	0.5527
3.90756	0.5009
3.94107	0.4564
3.97458	0.4283
4.00809	0.4141
4.0416	0.4179
4.07511	0.4082
4.10862	0.3232
4.14213	0.2897
4.17564	0.2373
4.20915	0.2122
4.24266	0.2042
4.27617	0.1923
4.30968	0.1482
4.34319	0.1272
4.3767	0.1319
4.41021	0.1498
4.44372	0.1746
4.47723	0.2085
4.51074	0.2497
4.54425	0.2836
4.57776	0.3108
4.61127	0.3805
4.64478	0.4357
4.67829	0.4976
4.7118	0.5347
4.74531	0.5708
4.77882	0.5999
4.81233	0.6247
4.84584	0.6479
4.87935	0.6767
4.91286	0.6979
4.94637	0.7169
4.97988	0.7339
5.01339	0.749
5.0469	0.754
5.08041	0.752
5.11392	0.752
5.14743	0.7684
5.18094	0.784
5.21445	0.7823
5.24796	0.782
5.28147	0.7793
5.31498	0.7833
5.34849	0.7955
5.382	0.804
5.41551	0.807
5.44902	0.806
5.48253	0.794
5.51604	0.798
5.54955	0.8078
5.58306	0.816
5.61657	0.8032
5.65008	0.802
5.68359	0.8017
5.7171	0.7893
5.75061	0.7676
5.78412	0.7076
5.81763	0.4636
5.85114	0.252
5.88465	0.4997
5.91816	0.6807
5.95167	0.7089
5.98518	0.72
6.01869	0.725
6.0522	0.73
6.08571	0.7434
6.11922	0.7616
6.15273	0.765
6.18624	0.765
6.21975	0.7552
6.25326	0.665
6.28677	0.7064
6.32028	0.712
6.35379	0.7377
6.3873	0.7597
6.42081	0.7609
6.45432	0.7553
6.48783	0.749
6.52134	0.7445
6.55485	0.749
6.58836	0.7496
6.62187	0.731
6.65538	0.618
6.68889	0.5459
6.7224	0.521
6.75591	0.3763
6.78942	0.3028
6.82293	0.1799
6.85644	0.1573
6.88995	0.1771
6.92346	0.1642
6.95697	0.2869
6.99048	0.3731
7.02399	0.431
7.0575	0.4309
7.09101	0.4813
7.12452	0.5492
7.15803	0.5613
7.19154	0.4681
7.22505	0.4382
7.25856	0.3385
7.29207	0.394
7.32558	0.5241
7.35909	0.594
7.3926	0.5467
7.42611	0.5998
7.45962	0.5667
7.49313	0.4368
7.52664	0.4811
7.56015	0.5196
7.59366	0.444
7.62717	0.4642
7.66068	0.5305
7.69419	0.624
7.7277	0.5975
7.76121	0.6266
7.79472	0.65
7.82823	0.6052
7.86174	0.6029
7.89525	0.6612
7.92876	0.7191
7.96227	0.7242
7.99578	0.732
8.02929	0.7321
8.0628	0.7072
8.09631	0.7069
8.12982	0.732
8.16333	0.7304
8.19684	0.7298
8.23035	0.7464
8.26386	0.7386
8.29737	0.7181
8.33088	0.6986
8.36439	0.7013
8.3979	0.7061
8.43141	0.6449
8.46492	0.5319
8.49843	0.6036
8.53194	0.699
8.56545	0.7188
8.59896	0.7352
8.63247	0.745
8.66598	0.7282
8.69949	0.7257
8.733	0.72
8.76651	0.7311
8.80002	0.7598
8.83353	0.774
8.86704	0.7749
8.90055	0.7699
8.93406	0.7243
8.96757	0.7038
9.00108	0.6931
9.03459	0.7198
9.0681	0.747
9.10161	0.7294
9.13512	0.6537
9.16863	0.6206
9.20214	0.6225
9.23565	0.6786
9.26916	0.7059
9.30267	0.5904
9.33618	0.4527
9.36969	0.4671
9.4032	0.5714
9.43671	0.657
9.47022	0.6217
9.50373	0.5569
9.53724	0.6252
9.57075	0.665
9.60426	0.6626
9.63777	0.702
9.67128	0.6696
9.70479	0.6243
9.7383	0.5197
9.77181	0.5015
9.80532	0.6143
9.83883	0.7093
9.87234	0.7394
9.90585	0.744
9.93936	0.7285
9.97287	0.6957
10.0064	0.6301
10.0399	0.6103
10.0734	0.6168
10.1069	0.6664
10.1404	0.709
10.1739	0.7406
10.2074	0.75
10.241	0.7458
10.2745	0.7185
10.308	0.6115
10.3415	0.5103
10.375	0.5533
10.4085	0.5669
10.442	0.6254
10.4755	0.7101
10.509	0.7507
10.5425	0.7782
10.5761	0.7908
10.6096	0.7978
10.6431	0.8028
10.6766	0.809
10.7101	0.809
10.7436	0.8032
10.7771	0.7736
10.8106	0.7346
10.8441	0.7545
10.8776	0.7905
10.9112	0.8061
10.9447	0.801
10.9782	0.7427
11.0117	0.715
11.0452	0.7616
11.0787	0.8109
11.1122	0.8209
11.1457	0.829
11.1792	0.8356
11.2127	0.837
11.2463	0.837
11.2798	0.836
11.3133	0.839
11.3468	0.839
11.3803	0.837
11.4138	0.8314
11.4473	0.8189
11.4808	0.8014
11.5143	0.7859
11.5478	0.7987
11.5814	0.8129
11.6149	0.8214
11.6484	0.8232
11.6819	0.8132
11.7154	0.804
11.7489	0.8046
11.7824	0.8225
11.8159	0.834
11.8494	0.8308
11.8829	0.8204
11.9165	0.8037
11.95	0.802
11.9835	0.8238
12.017	0.836
12.0505	0.841
12.084	0.844
12.1175	0.8468
12.151	0.8535
12.1845	0.859
12.218	0.859
12.2516	0.857
12.2851	0.857
12.3186	0.859
12.3521	0.861
12.3856	0.8513
12.4191	0.854
12.4526	0.8479
12.4861	0.832
12.5196	0.8451
12.5531	0.8451
12.5867	0.839
12.6202	0.839
12.6537	0.841
12.6872	0.839
12.7207	0.8412
12.7542	0.849
12.7877	0.8435
12.8212	0.847
12.8547	0.842
12.8882	0.8358
12.9218	0.8258
12.9553	0.8087
12.9888	0.7951
13.0223	0.7398
13.0558	0.6984
13.0893	0.6016
13.1228	0.5317
13.1563	0.5615
13.1898	0.5947
13.2233	0.6044
13.2569	0.6076
13.2904	0.4844
13.3239	0.5075
13.3574	0.5859
13.3909	0.7022
13.4244	0.7358
13.4579	0.747
13.4914	0.7495
13.5249	0.7404
13.5584	0.717
13.592	0.6652
13.6255	0.5599
13.659	0.5066
13.6925	0.5187
13.726	0.5733
13.7595	0.635
13.793	0.6708
13.8265	0.6911
13.86	0.707
13.8935	0.7122
13.9271	0.7272
13.9606	0.729
13.9941	0.7301
14.0276	0.7025
14.0611	0.6305
14.0946	0.6099
14.1281	0.5963
14.1616	0.5082
14.1951	0.3427
14.2286	0.2606
14.2622	0.2912
14.2957	0.2992
14.3292	0.257
14.3627	0.3231
14.3962	0.4638
14.4297	0.5672
14.4632	0.6475
14.4967	0.6751
14.5302	0.6987
14.5637	0.705
14.5973	0.709
14.6308	0.709
14.6643	0.709
14.6978	0.709
14.7313	0.714
14.7648	0.717
14.7983	0.715
14.8318	0.712
14.8653	0.7066
14.8988	0.7068
14.9324	0.7091
14.9659	0.705
14.9994	0.712
15.0329	0.705
15.0664	0.7
15.0999	0.698
15.1334	0.6997
15.1669	0.6972
15.2004	0.695
15.2339	0.6972
15.2675	0.695
15.301	0.6887
15.3345	0.6779
15.368	0.675
15.4015	0.673
