Infrared Spectrum: PHENYL THIOLCARBAMIC ACID, 5-ANILINO-1,3,4-THIA-DIAZOL-2-YL ESTER
Formula: C15 H12 N4 S2 O
State: SOLID (KBr PELLET)
Melting point: 198-200 C
Class: COBLENTZ
Instrument: Not specified, most likely a prism, grating, or hybrid spectrometer.
Sampling: TRANSMISSION
Resolution: 4
Origin: TENNESSEE EASTMAN COMPANY, RESEARCH LABORATORIES
MICROMETERS	TRANSMITTANCE
2.02	0.958
2.05983	0.955
2.09966	0.951
2.13949	0.951
2.17931	0.951
2.21914	0.953
2.25897	0.953
2.2988	0.955
2.33863	0.958
2.37846	0.96
2.41829	0.96
2.45812	0.961
2.49794	0.961
2.53777	0.961
2.5776	0.96
2.61743	0.958
2.65726	0.96
2.69709	0.925
2.73692	0.797
2.77675	0.695
2.81657	0.633
2.8564	0.587
2.89623	0.509
2.93606	0.517
2.97589	0.577
3.01572	0.612
3.05555	0.627
3.09538	0.632
3.1352	0.627
3.17503	0.607
3.21486	0.524
3.25469	0.467
3.29452	0.637
3.33435	0.712
3.37418	0.597
3.414	0.472
3.45383	0.645
3.49366	0.72
3.53349	0.748
3.57332	0.755
3.61315	0.768
3.65298	0.826
3.69281	0.865
3.73263	0.886
3.77246	0.901
3.81229	0.908
3.85212	0.913
3.89195	0.92
3.93178	0.923
3.97161	0.93
4.01144	0.945
4.05126	0.951
4.09109	0.955
4.13092	0.958
4.17075	0.955
4.21058	0.956
4.25041	0.95
4.29024	0.938
4.33007	0.933
4.36989	0.943
4.40972	0.95
4.44955	0.951
4.48938	0.953
4.52921	0.953
4.56904	0.953
4.60887	0.953
4.64869	0.953
4.68852	0.953
4.72835	0.953
4.76818	0.955
4.80801	0.955
4.84784	0.955
4.88767	0.955
4.9275	0.955
4.96732	0.955
5.00715	0.953
5.04698	0.945
5.08681	0.938
5.12664	0.938
5.16647	0.943
5.2063	0.95
5.24613	0.948
5.28595	0.943
5.32578	0.943
5.36561	0.945
5.40544	0.951
5.44527	0.951
5.4851	0.945
5.52493	0.935
5.56475	0.92
5.60458	0.921
5.64441	0.903
5.68424	0.89
5.72407	0.846
5.7639	0.787
5.80373	0.71
5.84356	0.457
5.88338	0.096
5.92321	0.163
5.96304	0.322
6.00287	0.484
6.0427	0.623
6.08253	0.672
6.12236	0.68
6.16219	0.653
6.20201	0.582
6.24184	0.299
6.28167	0.552
6.3215	0.713
6.36133	0.692
6.40116	0.544
6.44099	0.369
6.48082	0.174
6.52064	0.058
6.56047	0.036
6.6003	0.076
6.64013	0.196
6.67996	0.184
6.71979	0.352
6.75962	0.442
6.79944	0.5
6.83927	0.47
6.8791	0.121
6.91893	0.247
6.95876	0.645
6.99859	0.712
7.03842	0.765
7.07825	0.795
7.11807	0.801
7.1579	0.801
7.19773	0.801
7.23756	0.8
7.27739	0.795
7.31722	0.801
7.35705	0.801
7.39688	0.792
7.4367	0.668
7.47653	0.336
7.51636	0.101
7.55619	0.094
7.59602	0.143
7.63585	0.217
7.67568	0.256
7.71551	0.231
7.75533	0.277
7.79516	0.304
7.83499	0.276
7.87482	0.234
7.91465	0.231
7.95448	0.277
7.99431	0.301
8.03413	0.236
8.07396	0.156
8.11379	0.134
8.15362	0.261
8.19345	0.435
8.23328	0.599
8.27311	0.638
8.31294	0.685
8.35276	0.695
8.39259	0.718
8.43242	0.728
8.47225	0.732
8.51208	0.735
8.55191	0.742
8.59174	0.743
8.63157	0.723
8.67139	0.735
8.71122	0.765
8.75105	0.775
8.79088	0.777
8.83071	0.762
8.87054	0.732
8.91037	0.723
8.9502	0.72
8.99002	0.72
9.02985	0.725
9.06968	0.728
9.10951	0.735
9.14934	0.733
9.18917	0.643
9.229	0.497
9.26882	0.302
9.30865	0.272
9.34848	0.329
9.38831	0.435
9.42814	0.545
9.46797	0.564
9.5078	0.55
9.54763	0.565
9.58745	0.652
9.62728	0.707
9.66711	0.712
9.70694	0.647
9.74677	0.628
9.7866	0.72
9.82643	0.775
9.86626	0.792
9.90608	0.792
9.94591	0.785
9.98574	0.79
10.0256	0.801
10.0654	0.808
10.1052	0.815
10.1451	0.823
10.1849	0.83
10.2247	0.836
10.2645	0.843
10.3044	0.846
10.3442	0.846
10.384	0.843
10.4239	0.848
10.4637	0.855
10.5035	0.865
10.5433	0.868
10.5832	0.87
10.623	0.87
10.6628	0.868
10.7027	0.87
10.7425	0.873
10.7823	0.871
10.8221	0.87
10.862	0.868
10.9018	0.87
10.9416	0.87
10.9815	0.868
11.0213	0.843
11.0611	0.816
11.1009	0.788
11.1408	0.806
11.1806	0.846
11.2204	0.873
11.2603	0.881
11.3001	0.886
11.3399	0.891
11.3797	0.891
11.4196	0.89
11.4594	0.883
11.4992	0.853
11.5391	0.835
11.5789	0.813
11.6187	0.821
11.6585	0.85
11.6984	0.863
11.7382	0.868
11.778	0.871
11.8179	0.873
11.8577	0.873
11.8975	0.873
11.9373	0.871
11.9772	0.87
12.017	0.863
12.0568	0.858
12.0967	0.861
12.1365	0.866
12.1763	0.87
12.2161	0.876
12.256	0.875
12.2958	0.871
12.3356	0.868
12.3755	0.858
12.4153	0.848
12.4551	0.836
12.4949	0.835
12.5348	0.841
12.5746	0.841
12.6144	0.836
12.6543	0.828
12.6941	0.818
12.7339	0.808
12.7738	0.8
12.8136	0.792
12.8534	0.78
12.8932	0.76
12.9331	0.747
12.9729	0.718
13.0127	0.687
13.0526	0.613
13.0924	0.54
13.1322	0.465
13.172	0.422
13.2119	0.389
13.2517	0.369
13.2915	0.359
13.3314	0.356
13.3712	0.372
13.411	0.427
13.4508	0.464
13.4907	0.469
13.5305	0.445
13.5703	0.409
13.6102	0.381
13.65	0.294
13.6898	0.214
13.7296	0.198
13.7695	0.207
13.8093	0.297
13.8491	0.386
13.889	0.502
13.9288	0.587
13.9686	0.64
14.0084	0.667
14.0483	0.687
14.0881	0.695
14.1279	0.698
14.1678	0.69
14.2076	0.67
14.2474	0.622
14.2872	0.564
14.3271	0.497
14.3669	0.437
14.4067	0.384
14.4466	0.356
14.4864	0.351
14.5262	0.377
14.566	0.457
14.6059	0.544
14.6457	0.602
14.6855	0.647
14.7254	0.665
14.7652	0.673
14.805	0.682
14.8448	0.687
14.8847	0.687
14.9245	0.683
14.9643	0.663
15.0042	0.66
15.044	0.658
15.0838	0.658
15.1236	0.653
15.1635	0.633
15.2033	0.617
15.2431	0.6
15.283	0.584
15.3228	0.572
15.3626	0.57
15.4024	0.572
15.4423	0.574
15.4821	0.577
15.5219	0.579
15.5618	0.579
15.6016	0.575
15.6414	0.574
15.6812	0.572
15.7211	0.57
15.7609	0.565
15.8007	0.559
15.8406	0.557
15.8804	0.554
15.9202	0.552
15.96	0.549
