Infrared Spectrum: BARIUM NITRITE
Formula: Ba ( N O2)2  * H2 O
State: SOLID (NUJOL MULL)
Class: COBLENTZ
Instrument: Not specified, most likely a prism, grating, or hybrid spectrometer.
Sampling: TRANSMISSION
Resolution: 4
Origin: MELLON INSTITUTE
MICROMETERS	TRANSMITTANCE
2.05	0.809
2.08988	0.809
2.12975	0.809
2.16963	0.807
2.20951	0.807
2.24939	0.809
2.28926	0.802
2.32914	0.8
2.36902	0.8
2.40889	0.8
2.44877	0.8
2.48865	0.804
2.52852	0.797
2.5684	0.802
2.60828	0.804
2.64816	0.814
2.68803	0.8
2.72791	0.807
2.76779	0.798
2.80766	0.78
2.84754	0.644
2.88742	0.566
2.92729	0.648
2.96717	0.556
3.00705	0.556
3.04693	0.616
3.0868	0.664
3.12668	0.713
3.16656	0.74
3.20643	0.757
3.24631	0.77
3.28619	0.772
3.32606	0.743
3.36594	0.408
3.40582	0.283
3.4457	0.465
3.48557	0.443
3.52545	0.703
3.56533	0.783
3.6052	0.809
3.64508	0.815
3.68496	0.815
3.72483	0.815
3.76471	0.81
3.80459	0.814
3.84447	0.81
3.88434	0.809
3.92422	0.805
3.9641	0.812
4.00397	0.825
4.04385	0.832
4.08373	0.834
4.1236	0.835
4.16348	0.84
4.20336	0.84
4.24324	0.824
4.28311	0.822
4.32299	0.815
4.36287	0.822
4.40274	0.842
4.44262	0.84
4.4825	0.844
4.52237	0.844
4.56225	0.845
4.60213	0.845
4.64201	0.847
4.68188	0.845
4.72176	0.847
4.76164	0.845
4.80151	0.845
4.84139	0.84
4.88127	0.85
4.92114	0.85
4.96102	0.852
5.0009	0.855
5.04078	0.857
5.08065	0.862
5.12053	0.864
5.16041	0.865
5.20028	0.869
5.24016	0.869
5.28004	0.867
5.31991	0.867
5.35979	0.865
5.39967	0.877
5.43955	0.879
5.47942	0.879
5.5193	0.872
5.55918	0.879
5.59905	0.879
5.63893	0.877
5.67881	0.887
5.71869	0.887
5.75856	0.889
5.79844	0.889
5.83832	0.892
5.87819	0.889
5.91807	0.889
5.95795	0.887
5.99782	0.876
6.0377	0.804
6.07758	0.71
6.11746	0.755
6.15733	0.837
6.19721	0.859
6.23709	0.879
6.27696	0.889
6.31684	0.892
6.35672	0.891
6.39659	0.892
6.43647	0.889
6.47635	0.891
6.51623	0.889
6.5561	0.882
6.59598	0.887
6.63586	0.882
6.67573	0.889
6.71561	0.882
6.75549	0.879
6.79536	0.83
6.83524	0.74
6.87512	0.721
6.915	0.733
6.95487	0.772
6.99475	0.81
7.03463	0.83
7.0745	0.827
7.11438	0.832
7.15426	0.837
7.19413	0.814
7.23401	0.787
7.27389	0.758
7.31377	0.775
7.35364	0.783
7.39352	0.778
7.4334	0.738
7.47327	0.644
7.51315	0.582
7.55303	0.579
7.5929	0.618
7.63278	0.641
7.67266	0.626
7.71254	0.591
7.75241	0.512
7.79229	0.425
7.83217	0.335
7.87204	0.271
7.91192	0.224
7.9518	0.201
7.99167	0.189
8.03155	0.172
8.07143	0.165
8.11131	0.164
8.15118	0.222
8.19106	0.283
8.23094	0.358
8.27081	0.427
8.31069	0.474
8.35057	0.527
8.39044	0.572
8.43032	0.621
8.4702	0.659
8.51008	0.685
8.54995	0.713
8.58983	0.735
8.62971	0.743
8.66958	0.752
8.70946	0.762
8.74934	0.77
8.78921	0.78
8.82909	0.785
8.86897	0.79
8.90885	0.802
8.94872	0.798
8.9886	0.802
9.02848	0.805
9.06835	0.81
9.10823	0.817
9.14811	0.822
9.18798	0.827
9.22786	0.832
9.26774	0.835
9.30762	0.834
9.34749	0.837
9.38737	0.844
9.42725	0.845
9.46712	0.85
9.507	0.857
9.54688	0.859
9.58676	0.86
9.62663	0.862
9.66651	0.864
9.70639	0.864
9.74626	0.869
9.78614	0.876
9.82602	0.887
9.86589	0.881
9.90577	0.891
9.94565	0.894
9.98553	0.901
10.0254	0.901
10.0653	0.902
10.1052	0.902
10.145	0.901
10.1849	0.906
10.2248	0.899
10.2647	0.899
10.3045	0.899
10.3444	0.902
10.3843	0.899
10.4242	0.902
10.464	0.904
10.5039	0.906
10.5438	0.902
10.5837	0.906
10.6236	0.899
10.6634	0.909
10.7033	0.902
10.7432	0.911
10.7831	0.914
10.8229	0.912
10.8628	0.917
10.9027	0.927
10.9426	0.926
10.9825	0.926
11.0223	0.924
11.0622	0.926
11.1021	0.926
11.142	0.924
11.1818	0.926
11.2217	0.926
11.2616	0.926
11.3015	0.932
11.3413	0.932
11.3812	0.931
11.4211	0.931
11.461	0.934
11.5009	0.936
11.5407	0.938
11.5806	0.938
11.6205	0.938
11.6604	0.932
11.7002	0.938
11.7401	0.936
11.78	0.941
11.8199	0.938
11.8597	0.944
11.8996	0.944
11.9395	0.948
11.9794	0.949
12.0193	0.949
12.0591	0.948
12.099	0.891
12.1389	0.854
12.1788	0.842
12.2186	0.859
12.2585	0.889
12.2984	0.901
12.3383	0.912
12.3781	0.921
12.418	0.926
12.4579	0.926
12.4978	0.931
12.5377	0.934
12.5775	0.938
12.6174	0.938
12.6573	0.938
12.6972	0.939
12.737	0.939
12.7769	0.943
12.8168	0.944
12.8567	0.943
12.8965	0.943
12.9364	0.939
12.9763	0.938
13.0162	0.931
13.0561	0.926
13.0959	0.926
13.1358	0.927
13.1757	0.927
13.2156	0.924
13.2554	0.924
13.2953	0.926
13.3352	0.926
13.3751	0.916
13.4149	0.916
13.4548	0.916
13.4947	0.912
13.5346	0.907
13.5745	0.904
13.6143	0.901
13.6542	0.894
13.6941	0.891
13.734	0.889
13.7738	0.884
13.8137	0.881
13.8536	0.877
13.8935	0.867
13.9333	0.86
13.9732	0.857
14.0131	0.849
14.053	0.845
14.0929	0.844
14.1327	0.839
14.1726	0.832
14.2125	0.829
14.2524	0.822
14.2922	0.817
14.3321	0.812
14.372	0.807
14.4119	0.804
14.4518	0.802
14.4916	0.8
14.5315	0.8
14.5714	0.798
14.6113	0.797
14.6511	0.792
14.691	0.792
14.7309	0.792
14.7708	0.79
14.8106	0.785
14.8505	0.78
14.8904	0.777
14.9303	0.777
14.9702	0.772
15.01	0.768
15.0499	0.767
15.0898	0.762
15.1297	0.762
15.1695	0.758
15.2094	0.76
15.2493	0.755
15.2892	0.752
15.329	0.75
15.3689	0.74
15.4088	0.74
15.4487	0.737
15.4886	0.733
15.5284	0.73
15.5683	0.726
15.6082	0.721
15.6481	0.72
15.6879	0.72
15.7278	0.708
15.7677	0.706
15.8076	0.706
15.8474	0.703
15.8873	0.7
15.9272	0.698
15.9671	0.696
16.007	0.696
