Infrared Spectrum: Phenothiazine,10-[2-(1-methyl-4-piperazinyl)ethyl]-2-trifluoromethyl-, dihydrochloride
Formula: C20 H24 Cl2 F3 N3 S
State: SOLID (KBr DISC)
Class: COBLENTZ III
Instrument: PERKIN-ELMER 21 (GRATING)
Instrument parameters: NaCl PRISM
Sampling: TRANSMISSION
Resolution: 2
Origin: SMITH KLINE & FRENCH LABS.
1/CM	TRANSMITTANCE
654	0.6454
663	0.6596
672	0.6971
681	0.6803
690	0.7114
699	0.5749
708	0.687
717	0.6035
726	0.5122
735	0.5399
744	0.351
753	0.1395
762	0.3956
771	0.7695
780	0.7489
789	0.7328
798	0.6857
807	0.6627
816	0.3735
825	0.3621
834	0.6701
843	0.6428
852	0.4522
861	0.5184
870	0.5254
879	0.5539
888	0.5717
897	0.6455
906	0.5634
915	0.5849
924	0.3396
933	0.3289
942	0.5957
951	0.5679
960	0.3483
969	0.3889
978	0.6355
987	0.6349
996	0.5907
1005	0.5762
1014	0.4984
1023	0.2897
1032	0.4026
1041	0.44
1050	0.3938
1059	0.3097
1068	0.2278
1077	0.1374
1086	0.2137
1095	0.2243
1104	0.1158
1113	0.0787
1122	0.1102
1131	0.1541
1140	0.1826
1149	0.2772
1158	0.1465
1167	0.2031
1176	0.2431
1185	0.3022
1194	0.4931
1203	0.5834
1212	0.5697
1221	0.43
1230	0.3137
1239	0.299
1248	0.1309
1257	0.1516
1266	0.4028
1275	0.3252
1284	0.3046
1293	0.2544
1302	0.218
1311	0.2146
1320	0.1341
1329	0.098
1338	0.1253
1347	0.3325
1356	0.4938
1365	0.3662
1374	0.4001
1383	0.4915
1392	0.4288
1401	0.3619
1410	0.2488
1419	0.1458
1428	0.1198
1437	0.2396
1446	0.2009
1455	0.1535
1464	0.1283
1473	0.1692
1482	0.3348
1491	0.464
1500	0.5403
1509	0.6772
1518	0.7028
1527	0.7097
1536	0.7052
1545	0.694
1554	0.6721
1563	0.625
1572	0.5624
1581	0.6199
1590	0.5456
1599	0.5128
1608	0.5101
1617	0.5991
1626	0.6772
1635	0.6738
1644	0.6776
1653	0.6984
1662	0.7147
1671	0.7188
1680	0.7171
1689	0.7148
1698	0.713
1707	0.7081
1716	0.6982
1725	0.6926
1734	0.6931
1743	0.6967
1752	0.6954
1761	0.6888
1770	0.6849
1779	0.683
1788	0.6825
1797	0.6829
1806	0.6831
1815	0.6794
1824	0.6721
1833	0.6635
1842	0.6534
1851	0.6424
1860	0.6313
1869	0.6205
1878	0.6103
1887	0.6049
1896	0.6028
1905	0.5995
1914	0.5935
1923	0.5853
1932	0.5723
1941	0.56
1950	0.5489
1959	0.5375
1968	0.5241
1977	0.5103
1986	0.4976
1995	0.4852
2004	0.4733
2013	0.4616
2022	0.448
2031	0.431
2040	0.4071
2049	0.3887
2058	0.3609
2067	0.3379
2076	0.3112
2085	0.2947
2094	0.2797
2103	0.2666
2112	0.253
2121	0.239
2130	0.2232
2139	0.1917
2148	0.1692
2157	0.1518
2166	0.1406
2175	0.133
2184	0.1283
2193	0.1236
2202	0.1208
2211	0.1182
2220	0.1161
2229	0.1141
2238	0.1113
2247	0.1077
2256	0.1042
2265	0.101
2274	0.0979
2283	0.097
2292	0.0983
2301	0.0983
2310	0.1
2319	0.103
2328	0.1062
2337	0.1102
2346	0.1144
2355	0.1185
2364	0.1215
2373	0.1226
2382	0.1231
2391	0.1359
2400	0.2035
2409	0.2217
2418	0.2334
2427	0.2448
2436	0.2561
2445	0.2792
2454	0.3046
2463	0.3195
2472	0.3249
2481	0.3279
2490	0.33
2499	0.3322
2508	0.3358
2517	0.3412
2526	0.3492
2535	0.3557
2544	0.3614
2553	0.372
2562	0.3809
2571	0.3974
2580	0.4501
2589	0.4621
2598	0.4686
2607	0.4755
2616	0.4868
2625	0.504
2634	0.5246
2643	0.5449
2652	0.5642
2661	0.5854
2670	0.6054
2679	0.615
2688	0.6225
2697	0.6279
2706	0.6329
2715	0.6365
2724	0.6368
2733	0.6418
2742	0.643
2751	0.6415
2760	0.638
2769	0.6332
2778	0.6273
2787	0.6208
2796	0.6127
2805	0.6044
2814	0.5913
2823	0.5728
2832	0.5534
2841	0.5251
2850	0.5009
2859	0.4876
2868	0.4774
2877	0.4703
2886	0.4655
2895	0.4608
2904	0.4562
2913	0.4535
2922	0.4334
2931	0.4032
2940	0.3754
2949	0.3698
2958	0.385
2967	0.4393
2976	0.4937
2985	0.5863
2994	0.5932
3003	0.5948
3012	0.5912
3021	0.585
3030	0.5776
3039	0.5777
3048	0.5827
3057	0.598
3066	0.6178
3075	0.6322
3084	0.6432
3093	0.6512
3102	0.6585
3111	0.6585
3120	0.6579
3129	0.6566
3138	0.6542
3147	0.6515
3156	0.6489
3165	0.6459
3174	0.643
3183	0.64
3192	0.637
3201	0.6337
3210	0.6304
3219	0.6271
3228	0.6239
3237	0.6203
3246	0.6166
3255	0.6127
3264	0.6089
3273	0.6052
3282	0.6015
3291	0.5975
3300	0.5908
3309	0.5832
3318	0.5757
3327	0.5683
3336	0.5612
3345	0.554
3354	0.547
3363	0.5408
3372	0.5355
3381	0.5302
3390	0.5249
3399	0.5223
3408	0.5222
3417	0.5224
3426	0.5229
3435	0.5235
3444	0.5248
3453	0.5262
3462	0.5276
3471	0.5294
3480	0.5313
3489	0.5333
3498	0.5361
3507	0.5404
3516	0.5446
3525	0.5488
3534	0.5532
3543	0.5578
3552	0.5623
3561	0.5667
3570	0.5707
3579	0.5746
3588	0.5785
3597	0.5823
3606	0.5856
3615	0.5876
3624	0.5894
3633	0.5909
3642	0.5909
3651	0.5908
3660	0.5908
3669	0.5907
3678	0.5905
3687	0.5903
3696	0.5898
3705	0.5894
3714	0.589
3723	0.5885
3732	0.5872
3741	0.5858
3750	0.5844
3759	0.583
3768	0.5814
3777	0.5798
3786	0.5782
3795	0.5766
3804	0.575
3813	0.5734
3822	0.5718
3831	0.5702
3840	0.5686
3849	0.5672
3858	0.5658
3867	0.5643
3876	0.5629
3885	0.5616
3894	0.5602
3903	0.5588
3912	0.5574
3921	0.556
3930	0.5544
3939	0.5527
3948	0.5509
3957	0.5492
3966	0.5474
3975	0.5457
3984	0.544
3993	0.5423
