Infrared Spectrum: 2-NAPHTHYLAMINE, N-BENZYLIDENE-1-(P-METHOXYPHENYLAZO)-, HYDROGEN TETRAFLUOROBORATE
Formula: C24 H20 B F4 N3 O
State: SOLID (KBr DISC)
Class: COBLENTZ III
Instrument: UNICAM SP-200
Sampling: TRANSMISSION
Resolution: 4
Origin: HUNGARIAN ACAD. OF SCI., VIA SCIENTIFIC DOC. CENTRE LTD.
1/CM	TRANSMITTANCE
650.795	0.718
661.926	0.741
673.057	0.748
684.187	0.727
695.318	0.709
706.449	0.681
717.58	0.697
728.711	0.722
739.841	0.596
750.972	0.647
762.103	0.608
773.234	0.686
784.364	0.648
795.495	0.719
806.626	0.688
817.757	0.555
828.888	0.225
840.018	0.381
851.149	0.549
862.28	0.583
873.411	0.69
884.542	0.716
895.672	0.676
906.803	0.751
917.934	0.732
929.065	0.726
940.195	0.707
951.326	0.656
962.457	0.563
973.588	0.513
984.719	0.418
995.849	0.438
1006.98	0.345
1018.11	0.23
1029.24	0.156
1040.37	0.209
1051.5	0.217
1062.63	0.185
1073.76	0.168
1084.9	0.179
1096.03	0.196
1107.16	0.164
1118.29	0.204
1129.42	0.347
1140.55	0.325
1151.68	0.304
1162.81	0.193
1173.94	0.079
1185.07	0.312
1196.2	0.416
1207.33	0.409
1218.47	0.458
1229.6	0.3611
1240.73	0.147
1251.86	0.085
1262.99	0.1341
1274.12	0.396
1285.25	0.447
1296.38	0.394
1307.51	0.348
1318.64	0.403
1329.77	0.48
1340.9	0.611
1352.03	0.59
1363.17	0.66
1374.3	0.681
1385.43	0.628
1396.56	0.676
1407.69	0.508
1418.82	0.418
1429.95	0.311
1441.08	0.218
1452.21	0.332
1463.34	0.432
1474.47	0.6
1485.6	0.5869
1496.73	0.409
1507.87	0.216
1519	0.5031
1530.13	0.678
1541.26	0.6099
1552.39	0.477
1563.52	0.5
1574.65	0.359
1585.78	0.339
1596.91	0.1599
1608.04	0.251
1619.17	0.597
1630.3	0.688
1641.43	0.72
1652.57	0.749
1663.7	0.755
1674.83	0.751
1685.96	0.76
1697.09	0.767
1708.22	0.764
1719.35	0.765
1730.48	0.77
1741.61	0.776
1752.74	0.773
1763.87	0.769
1775	0.776
1786.14	0.772
1797.27	0.778
1808.4	0.773
1819.53	0.771
1830.66	0.774
1841.79	0.77
1852.92	0.769
1864.05	0.769
1875.18	0.768
1886.31	0.764
1897.44	0.767
1908.57	0.762
1919.7	0.76
1930.84	0.76
1941.97	0.758
1953.1	0.758
1964.23	0.75
1975.36	0.755
1986.49	0.756
1997.62	0.753
2008.75	0.751
2019.88	0.7474
2031.01	0.7412
2042.14	0.739
2053.27	0.739
2064.4	0.7405
2075.54	0.743
2086.67	0.745
2097.8	0.746
2108.93	0.746
2120.06	0.7473
2131.19	0.7503
2142.32	0.7434
2153.45	0.7427
2164.58	0.744
2175.71	0.745
2186.84	0.739
2197.97	0.7291
2209.11	0.7222
2220.24	0.715
2231.37	0.7155
2242.5	0.717
2253.63	0.7206
2264.76	0.721
2275.89	0.721
2287.02	0.7208
2298.15	0.72
2309.28	0.718
2320.41	0.717
2331.54	0.7147
2342.67	0.714
2353.81	0.711
2364.94	0.7004
2376.07	0.6837
2387.2	0.676
2398.33	0.675
2409.46	0.6708
2420.59	0.6592
2431.72	0.6537
2442.85	0.6493
2453.98	0.6432
2465.11	0.626
2476.24	0.6159
2487.37	0.5994
2498.51	0.5926
2509.64	0.5775
2520.77	0.5657
2531.9	0.561
2543.03	0.559
2554.16	0.5478
2565.29	0.528
2576.42	0.523
2587.55	0.5224
2598.68	0.52
2609.81	0.5146
2620.94	0.513
2632.07	0.515
2643.21	0.5107
2654.34	0.5073
2665.47	0.5046
2676.6	0.501
2687.73	0.4995
2698.86	0.498
2709.99	0.497
2721.12	0.4979
2732.25	0.4944
2743.38	0.4926
2754.51	0.4843
2765.64	0.4733
2776.78	0.4663
2787.91	0.4717
2799.04	0.4836
2810.17	0.4904
2821.3	0.49
2832.43	0.4851
2843.56	0.481
2854.69	0.4795
2865.82	0.474
2876.95	0.4677
2888.08	0.4631
2899.21	0.4733
2910.34	0.4765
2921.48	0.4882
2932.61	0.4907
2943.74	0.4872
2954.87	0.486
2966	0.4909
2977.13	0.49
2988.26	0.4939
2999.39	0.4999
3010.52	0.507
3021.65	0.5156
3032.78	0.5251
3043.91	0.5332
3055.04	0.5413
3066.18	0.5477
3077.31	0.5492
3088.44	0.55
3099.57	0.549
3110.7	0.5472
3121.83	0.5446
3132.96	0.5236
3144.09	0.5166
3155.22	0.514
3166.35	0.499
3177.48	0.49
3188.61	0.4912
3199.74	0.4995
3210.88	0.513
3222.01	0.5277
3233.14	0.5392
3244.27	0.5483
3255.4	0.5546
3266.53	0.5583
3277.66	0.562
3288.79	0.5654
3299.92	0.5689
3311.05	0.569
3322.18	0.57
3333.31	0.5695
3344.45	0.5689
3355.58	0.569
3366.71	0.5702
3377.84	0.5717
3388.97	0.5762
3400.1	0.5798
3411.23	0.5836
3422.36	0.5868
3433.49	0.5914
3444.62	0.5988
3455.75	0.6034
3466.88	0.608
3478.01	0.6135
3489.15	0.619
3500.28	0.622
3511.41	0.6221
3522.54	0.6247
3533.67	0.626
3544.8	0.6297
3555.93	0.6323
3567.06	0.6358
3578.19	0.638
3589.32	0.6409
3600.45	0.6454
3611.58	0.6451
3622.71	0.643
3633.85	0.648
3644.98	0.65
3656.11	0.651
3667.24	0.652
3678.37	0.6508
3689.5	0.6493
3700.63	0.6478
3711.76	0.645
3722.89	0.647
3734.02	0.645
3745.15	0.642
3756.28	0.642
3767.42	0.6406
3778.55	0.64
3789.68	0.641
3800.81	0.6399
3811.94	0.637
3823.07	0.635
3834.2	0.633
3845.33	0.626
3856.46	0.6282
3867.59	0.629
3878.72	0.6262
3889.85	0.6277
3900.98	0.629
3912.12	0.626
3923.25	0.625
3934.38	0.626
3945.51	0.624
3956.64	0.6214
3967.77	0.6272
3978.9	0.6284
3990.03	0.6257
4001.16	0.623
4012.29	0.6218
4023.42	0.62
4034.55	0.6203
4045.68	0.622
4056.82	0.624
4067.95	0.6202
4079.08	0.619
4090.21	0.619
4101.34	0.617
4112.47	0.615
4123.6	0.6134
4134.73	0.61
4145.86	0.6083
4156.99	0.6046
4168.12	0.601
4179.25	0.6033
4190.38	0.605
4201.52	0.605
4212.65	0.6031
4223.78	0.6006
4234.91	0.5971
4246.04	0.596
4257.17	0.597
4268.3	0.6006
4279.43	0.601
4290.56	0.5994
4301.69	0.597
4312.82	0.5943
4323.95	0.5915
4335.09	0.589
4346.22	0.592
4357.35	0.5958
4368.48	0.5916
4379.61	0.59
4390.74	0.5929
4401.87	0.597
4413	0.5985
4424.13	0.596
4435.26	0.5924
4446.39	0.589
4457.52	0.5873
4468.65	0.587
4479.79	0.587
4490.92	0.5857
4502.05	0.5832
4513.18	0.5753
4524.31	0.5768
4535.44	0.5814
4546.57	0.582
4557.7	0.5825
4568.83	0.582
4579.96	0.582
4591.09	0.58
4602.22	0.58
4613.35	0.578
4624.49	0.581
4635.62	0.5818
4646.75	0.581
4657.88	0.5771
4669.01	0.5748
4680.14	0.576
4691.27	0.5712
4702.4	0.5675
4713.53	0.573
4724.66	0.573
4735.79	0.571
4746.92	0.5664
4758.05	0.562
4769.19	0.5593
4780.32	0.564
4791.45	0.566
4802.58	0.5683
4813.71	0.569
4824.84	0.5666
4835.97	0.5641
4847.1	0.562
4858.23	0.561
4869.36	0.559
4880.49	0.559
4891.62	0.5574
4902.76	0.557
4913.89	0.5564
4925.02	0.55
4936.15	0.5497
4947.28	0.551
4958.41	0.5502
4969.54	0.5487
