Infrared Spectrum: Sodium bicarbonate
Formula: C H Na O3
State: SOLID (1 mg / 650 mg KBr DISC)
Class: COBLENTZ III
Instrument: PERKIN-ELMER 521 (GRATING)
Instrument parameters: FILTERS AT 3150, 2500, 2000, 1150, 700, 410. GRATING CHANGES: 2000, 630
Sampling: TRANSMISSION
Resolution: 2
Origin: SOUTHERN RESEARCH INSTITUTE
1/CM	TRANSMITTANCE
254	0.1529
264.027	0.1878
274.053	0.2496
284.08	0.3116
294.107	0.3735
304.133	0.4471
314.16	0.4854
324.187	0.5246
334.214	0.5715
344.24	0.6282
354.267	0.6757
364.294	0.7222
374.32	0.7508
384.347	0.778
394.374	0.8006
404.4	0.8193
414.427	0.8323
424.454	0.8411
434.481	0.8487
444.507	0.8569
454.534	0.8642
464.561	0.8708
474.587	0.8754
484.614	0.8806
494.641	0.8841
504.667	0.8849
514.694	0.8827
524.721	0.8804
534.747	0.8782
544.774	0.8754
554.801	0.8726
564.828	0.8698
574.854	0.867
584.881	0.864
594.908	0.8609
604.934	0.8563
614.961	0.8495
624.988	0.8382
635.014	0.8197
645.041	0.7935
655.068	0.6488
665.095	0.7947
675.121	0.6907
685.148	0.5249
695.175	0.2949
705.201	0.4595
715.228	0.6982
725.255	0.8873
735.281	0.9568
745.308	0.9786
755.335	0.9835
765.361	0.9783
775.388	0.9665
785.415	0.9523
795.442	0.9239
805.468	0.8801
815.495	0.8507
825.522	0.7449
835.548	0.3957
845.575	0.6375
855.602	0.8747
865.628	0.8867
875.655	0.8901
885.682	0.889
895.708	0.8833
905.735	0.8746
915.762	0.8668
925.789	0.859
935.815	0.8485
945.842	0.8319
955.869	0.8037
965.895	0.7599
975.922	0.6978
985.949	0.5624
995.975	0.4444
1006	0.5017
1016.03	0.5939
1026.06	0.6549
1036.08	0.5536
1046.11	0.5875
1056.14	0.7449
1066.16	0.7452
1076.19	0.7399
1086.22	0.7338
1096.24	0.7279
1106.27	0.7207
1116.3	0.7124
1126.32	0.7029
1136.35	0.6929
1146.38	0.6823
1156.4	0.6694
1166.43	0.6562
1176.46	0.6405
1186.48	0.6215
1196.51	0.5958
1206.54	0.5703
1216.56	0.5358
1226.59	0.4894
1236.62	0.4555
1246.64	0.4092
1256.67	0.3695
1266.7	0.3156
1276.72	0.2521
1286.75	0.2027
1296.78	0.1756
1306.8	0.1666
1316.83	0.1718
1326.86	0.1889
1336.88	0.214
1346.91	0.2438
1356.94	0.2925
1366.96	0.3553
1376.99	0.3848
1387.02	0.3825
1397.04	0.293
1407.07	0.3527
1417.1	0.4999
1427.12	0.6214
1437.15	0.6408
1447.18	0.5747
1457.2	0.5557
1467.23	0.6771
1477.26	0.7365
1487.28	0.765
1497.31	0.7846
1507.34	0.7992
1517.36	0.8123
1527.39	0.8193
1537.42	0.8215
1547.44	0.8173
1557.47	0.8064
1567.5	0.791
1577.52	0.7674
1587.55	0.7292
1597.58	0.5653
1607.6	0.4282
1617.63	0.2967
1627.66	0.3499
1637.68	0.4025
1647.71	0.3719
1657.74	0.326
1667.76	0.335
1677.79	0.4153
1687.82	0.5218
1697.84	0.4828
1707.87	0.624
1717.9	0.6809
1727.92	0.6939
1737.95	0.7218
1747.98	0.7482
1758	0.7701
1768.03	0.7843
1778.06	0.7955
1788.08	0.805
1798.11	0.804
1808.14	0.7951
1818.16	0.7837
1828.19	0.7728
1838.22	0.7688
1848.24	0.7695
1858.27	0.7755
1868.3	0.779
1878.32	0.7548
1888.35	0.7192
1898.38	0.684
1908.4	0.642
1918.43	0.6196
1928.46	0.6298
1938.48	0.6632
1948.51	0.697
1958.54	0.7222
1968.56	0.7419
1978.59	0.7536
1988.62	0.7561
1998.64	0.7488
2008.67	0.7433
2018.7	0.7418
2028.73	0.7407
2038.75	0.7405
2048.78	0.7412
2058.81	0.7433
2068.83	0.7465
2078.86	0.7534
2088.89	0.7605
2098.91	0.7678
2108.94	0.772
2118.97	0.7744
2128.99	0.7759
2139.02	0.777
2149.05	0.7775
2159.07	0.7775
2169.1	0.7773
2179.13	0.7753
2189.15	0.7706
2199.18	0.7649
2209.21	0.758
2219.23	0.7505
2229.26	0.743
2239.29	0.7352
2249.31	0.7261
2259.34	0.718
2269.37	0.7128
2279.39	0.7115
2289.42	0.7118
2299.45	0.711
2309.47	0.7048
2319.5	0.6956
2329.53	0.6834
2339.55	0.6734
2349.58	0.6594
2359.61	0.6518
2369.63	0.6466
2379.66	0.6414
2389.69	0.628
2399.71	0.615
2409.74	0.6047
2419.77	0.5919
2429.79	0.5822
2439.82	0.5768
2449.85	0.5723
2459.87	0.5684
2469.9	0.5642
2479.93	0.5601
2489.95	0.5561
2499.98	0.5515
2510.01	0.5473
2520.03	0.5437
2530.06	0.5433
2540.09	0.5438
2550.11	0.547
2560.14	0.5513
2570.17	0.5563
2580.19	0.5609
2590.22	0.5655
2600.25	0.5698
2610.27	0.5737
2620.3	0.5792
2630.33	0.5837
2640.35	0.5896
2650.38	0.5949
2660.41	0.6009
2670.43	0.6085
2680.46	0.6186
2690.49	0.6275
2700.51	0.6363
2710.54	0.6447
2720.57	0.6524
2730.59	0.6554
2740.62	0.6589
2750.65	0.6659
2760.67	0.672
2770.7	0.6765
2780.73	0.6804
2790.75	0.6834
2800.78	0.6837
2810.81	0.6815
2820.83	0.6771
2830.86	0.6712
2840.89	0.6648
2850.91	0.6599
2860.94	0.6581
2870.97	0.6548
2880.99	0.6477
2891.02	0.6389
2901.05	0.6297
2911.07	0.6184
2921.1	0.6219
2931.13	0.6334
2941.15	0.6467
2951.18	0.6574
2961.21	0.667
2971.23	0.6798
2981.26	0.689
2991.29	0.6973
3001.31	0.703
3011.34	0.706
3021.37	0.7069
3031.39	0.7064
3041.42	0.7055
3051.45	0.7044
3061.47	0.7032
3071.5	0.7029
3081.53	0.7037
3091.55	0.7059
3101.58	0.7084
3111.61	0.7114
3121.63	0.7163
3131.66	0.7157
3141.69	0.7207
3151.71	0.7263
3161.74	0.7271
3171.77	0.729
3181.79	0.731
3191.82	0.7324
3201.85	0.7336
3211.88	0.735
3221.9	0.7361
3231.93	0.7371
3241.96	0.7366
3251.98	0.7361
3262.01	0.735
3272.04	0.734
3282.06	0.7335
3292.09	0.7329
3302.12	0.7316
3312.14	0.7302
3322.17	0.7269
3332.2	0.7218
3342.22	0.7153
3352.25	0.7083
3362.28	0.7005
3372.3	0.6912
3382.33	0.6826
3392.36	0.6755
3402.38	0.6688
3412.41	0.6654
3422.44	0.6655
3432.46	0.667
3442.49	0.6692
3452.52	0.6724
3462.54	0.6764
3472.57	0.681
3482.6	0.6863
3492.62	0.6929
3502.65	0.6996
3512.68	0.7048
3522.7	0.7105
3532.73	0.7194
3542.76	0.7292
3552.78	0.7391
3562.81	0.7472
3572.84	0.7577
3582.86	0.7685
3592.89	0.7789
3602.92	0.787
3612.94	0.7961
3622.97	0.8029
3633	0.809
3643.02	0.8151
3653.05	0.8197
3663.08	0.8233
3673.1	0.8241
3683.13	0.8239
3693.16	0.8298
3703.18	0.8362
3713.21	0.8378
3723.24	0.838
3733.26	0.8381
3743.29	0.8374
3753.32	0.8369
3763.34	0.8443
3773.37	0.8461
3783.4	0.8463
3793.42	0.846
3803.45	0.8455
3813.48	0.8444
3823.5	0.8436
3833.53	0.8468
3843.56	0.8423
3853.58	0.8481
3863.61	0.842
3873.64	0.8489
3883.66	0.8494
3893.69	0.8484
3903.72	0.8473
3913.74	0.8464
3923.77	0.8458
3933.8	0.8458
3943.82	0.8462
3953.85	0.8466
3963.88	0.8468
3973.9	0.8467
3983.93	0.8467
3993.96	0.8467
4003.98	0.8467
