Infrared Spectrum: S-DIPHENYLCARBAZONE
Formula: C26 H24 N8 O2
State: SOLID (OIL MULL)
Melting point: 154-156 C
Class: COBLENTZ
Instrument: Not specified, most likely a prism, grating, or hybrid spectrometer.
Sampling: TRANSMISSION
Resolution: 4
Origin: WYANDOTTE CHEMICALS CORP., WYANDOTTE, MICHIGAN, USA
MICROMETERS	TRANSMITTANCE
2.026	0.363
2.06576	0.37
2.10552	0.37
2.14528	0.392
2.18504	0.4
2.2248	0.4
2.26456	0.393
2.30432	0.387
2.34408	0.405
2.38384	0.41
2.4236	0.429
2.46336	0.454
2.50312	0.459
2.54288	0.482
2.58264	0.492
2.6224	0.504
2.66216	0.527
2.70192	0.537
2.74168	0.535
2.78144	0.55
2.8212	0.552
2.86096	0.569
2.90072	0.579
2.94048	0.58
2.98024	0.575
3.02	0.398
3.05976	0.061
3.09952	0.053
3.13928	0.098
3.17904	0.146
3.2188	0.188
3.25856	0.185
3.29832	0.136
3.33808	0.058
3.37784	0.026
3.4176	0.02
3.45736	0.023
3.49712	0.03
3.53688	0.078
3.57664	0.345
3.6164	0.497
3.65616	0.559
3.69592	0.56
3.73568	0.582
3.77544	0.601
3.8152	0.612
3.85496	0.627
3.89472	0.661
3.93448	0.692
3.97424	0.716
4.014	0.737
4.05376	0.742
4.09352	0.749
4.13327	0.764
4.17303	0.767
4.21279	0.771
4.25255	0.769
4.29231	0.754
4.33207	0.767
4.37183	0.786
4.41159	0.838
4.45135	0.824
4.49111	0.824
4.53087	0.839
4.57063	0.844
4.61039	0.863
4.65015	0.864
4.68991	0.873
4.72967	0.873
4.76943	0.888
4.80919	0.911
4.84895	0.913
4.88871	0.918
4.92847	0.921
4.96823	0.916
5.00799	0.928
5.04775	0.934
5.08751	0.934
5.12727	0.918
5.16703	0.914
5.20679	0.909
5.24655	0.849
5.28631	0.918
5.32607	0.943
5.36583	0.953
5.40559	0.946
5.44535	0.919
5.48511	0.914
5.52487	0.954
5.56463	0.953
5.60439	0.953
5.64415	0.926
5.68391	0.909
5.72367	0.851
5.76343	0.657
5.80319	0.26
5.84295	0.183
5.88271	0.375
5.92247	0.373
5.96223	0.158
6.00199	0.033
6.04175	0.196
6.08151	0.405
6.12127	0.504
6.16103	0.355
6.20079	0.156
6.24055	0.312
6.28031	0.454
6.32007	0.405
6.35983	0.308
6.39959	0.205
6.43935	0.16
6.47911	0.146
6.51887	0.086
6.55863	0.1
6.59839	0.085
6.63815	0.038
6.67791	0.036
6.71767	0.031
6.75743	0.035
6.79719	0.021
6.83695	0.023
6.87671	0.053
6.91647	0.046
6.95623	0.121
6.99599	0.292
7.03575	0.383
7.07551	0.43
7.11527	0.48
7.15503	0.477
7.19479	0.298
7.23455	0.098
7.27431	0.186
7.31407	0.287
7.35383	0.449
7.39359	0.469
7.43335	0.474
7.47311	0.465
7.51287	0.442
7.55263	0.4
7.59239	0.278
7.63215	0.215
7.67191	0.252
7.71167	0.243
7.75143	0.173
7.79119	0.277
7.83095	0.447
7.87071	0.475
7.91047	0.445
7.95023	0.312
7.98999	0.297
8.02975	0.432
8.06951	0.532
8.10927	0.587
8.14903	0.601
8.18879	0.602
8.22855	0.616
8.26831	0.584
8.30806	0.405
8.34782	0.459
8.38758	0.611
8.42734	0.597
8.4671	0.469
8.50686	0.517
8.54662	0.589
8.58638	0.626
8.62614	0.462
8.6659	0.365
8.70566	0.442
8.74542	0.619
8.78518	0.657
8.82494	0.646
8.8647	0.532
8.90446	0.275
8.94422	0.327
8.98398	0.517
9.02374	0.57
9.0635	0.644
9.10326	0.716
9.14302	0.742
9.18278	0.756
9.22254	0.664
9.2623	0.569
9.30206	0.565
9.34182	0.697
9.38158	0.757
9.42134	0.789
9.4611	0.799
9.50086	0.794
9.54062	0.772
9.58038	0.784
9.62014	0.786
9.6599	0.769
9.69966	0.681
9.73942	0.604
9.77918	0.582
9.81894	0.689
9.8587	0.744
9.89846	0.749
9.93822	0.711
9.97798	0.622
10.0177	0.519
10.0575	0.409
10.0973	0.21
10.137	0.148
10.1768	0.273
10.2165	0.363
10.2563	0.377
10.2961	0.409
10.3358	0.509
10.3756	0.589
10.4153	0.617
10.4551	0.639
10.4949	0.692
10.5346	0.717
10.5744	0.734
10.6141	0.742
10.6539	0.732
10.6937	0.696
10.7334	0.572
10.7732	0.619
10.8129	0.699
10.8527	0.724
10.8925	0.712
10.9322	0.679
10.972	0.631
11.0117	0.527
11.0515	0.435
11.0913	0.419
11.131	0.47
11.1708	0.495
11.2105	0.5
11.2503	0.525
11.2901	0.519
11.3298	0.447
11.3696	0.42
11.4093	0.47
11.4491	0.5
11.4889	0.459
11.5286	0.442
11.5684	0.499
11.6081	0.574
11.6479	0.627
11.6877	0.649
11.7274	0.656
11.7672	0.651
11.8069	0.629
11.8467	0.599
11.8865	0.602
11.9262	0.609
11.966	0.636
12.0057	0.662
12.0455	0.656
12.0853	0.649
12.125	0.636
12.1648	0.627
12.2045	0.631
12.2443	0.629
12.2841	0.631
12.3238	0.629
12.3636	0.631
12.4033	0.644
12.4431	0.642
12.4829	0.642
12.5226	0.641
12.5624	0.649
12.6021	0.659
12.6419	0.654
12.6817	0.601
12.7214	0.54
12.7612	0.477
12.8009	0.385
12.8407	0.273
12.8805	0.161
12.9202	0.103
12.96	0.101
12.9997	0.12
13.0395	0.103
13.0793	0.091
13.119	0.083
13.1588	0.065
13.1985	0.051
13.2383	0.045
13.2781	0.041
13.3178	0.04
13.3576	0.04
13.3973	0.083
13.4371	0.148
13.4769	0.23
13.5166	0.28
13.5564	0.322
13.5961	0.328
13.6359	0.322
13.6757	0.323
13.7154	0.343
13.7552	0.355
13.7949	0.368
13.8347	0.368
13.8745	0.368
13.9142	0.373
13.954	0.388
13.9937	0.388
14.0335	0.41
14.0733	0.427
14.113	0.459
14.1528	0.494
14.1925	0.525
14.2323	0.542
14.2721	0.542
14.3118	0.517
14.3516	0.47
14.3913	0.385
14.4311	0.278
14.4709	0.17
14.5106	0.098
14.5504	0.071
14.5901	0.11
14.6299	0.196
14.6696	0.267
14.7094	0.302
14.7492	0.288
14.7889	0.28
14.8287	0.3
14.8684	0.335
14.9082	0.377
14.948	0.405
14.9877	0.41
15.0275	0.398
15.0672	0.398
15.107	0.404
15.1468	0.414
15.1865	0.427
15.2263	0.445
15.266	0.467
15.3058	0.48
15.3456	0.5
15.3853	0.507
15.4251	0.51
15.4648	0.515
15.5046	0.519
15.5444	0.522
15.5841	0.512
15.6239	0.502
15.6636	0.495
15.7034	0.484
15.7432	0.472
15.7829	0.46
15.8227	0.442
15.8624	0.435
15.9022	0.42
15.942	0.429
