Infrared Spectrum: POTASSIUM METASILICATE
Formula: K2 Si O3
State: SOLID (NUJOL MULL)
Class: COBLENTZ
Instrument: Not specified, most likely a prism, grating, or hybrid spectrometer.
Sampling: TRANSMISSION
Resolution: 4
Origin: MELLON INSTITUTE
MICROMETERS	TRANSMITTANCE
2.024	0.963
2.06497	0.97
2.10594	0.977
2.1469	0.977
2.18787	0.977
2.22884	0.977
2.26981	0.962
2.31077	0.908
2.35174	0.884
2.39271	0.876
2.43368	0.869
2.47465	0.862
2.51561	0.862
2.55658	0.852
2.59755	0.836
2.63852	0.826
2.67949	0.773
2.72045	0.759
2.76142	0.646
2.80239	0.582
2.84336	0.561
2.88432	0.537
2.92529	0.52
2.96626	0.506
3.00723	0.501
3.0482	0.501
3.08916	0.503
3.13013	0.5
3.1711	0.491
3.21207	0.487
3.25303	0.469
3.294	0.395
3.33497	0.13
3.37594	0.044
3.41691	0.022
3.45787	0.022
3.49884	0.042
3.53981	0.412
3.58078	0.592
3.62175	0.658
3.66271	0.661
3.70368	0.683
3.74465	0.69
3.78562	0.713
3.82658	0.738
3.86755	0.774
3.90852	0.812
3.94949	0.845
3.99046	0.848
4.03142	0.86
4.07239	0.86
4.11336	0.86
4.15433	0.845
4.19529	0.829
4.23626	0.802
4.27723	0.798
4.3182	0.792
4.35917	0.797
4.40013	0.821
4.4411	0.819
4.48207	0.823
4.52304	0.824
4.56401	0.835
4.60497	0.835
4.64594	0.836
4.68691	0.84
4.72788	0.848
4.76884	0.843
4.80981	0.838
4.85078	0.824
4.89175	0.824
4.93272	0.812
4.97368	0.807
5.01465	0.798
5.05562	0.788
5.09659	0.771
5.13755	0.761
5.17852	0.745
5.21949	0.73
5.26046	0.713
5.30143	0.704
5.34239	0.687
5.38336	0.678
5.42433	0.67
5.4653	0.659
5.50627	0.656
5.54723	0.646
5.5882	0.635
5.62917	0.628
5.67014	0.625
5.7111	0.62
5.75207	0.613
5.79304	0.601
5.83401	0.594
5.87498	0.589
5.91594	0.577
5.95691	0.56
5.99788	0.553
6.03885	0.529
6.07981	0.524
6.12078	0.515
6.16175	0.515
6.20272	0.524
6.24369	0.541
6.28465	0.541
6.32562	0.534
6.36659	0.539
6.40756	0.534
6.44852	0.534
6.48949	0.529
6.53046	0.529
6.57143	0.524
6.6124	0.518
6.65336	0.512
6.69433	0.494
6.7353	0.434
6.77627	0.348
6.81724	0.189
6.8582	0.152
6.89917	0.139
6.94014	0.154
6.98111	0.219
7.02207	0.312
7.06304	0.333
7.10401	0.364
7.14498	0.364
7.18595	0.341
7.22691	0.223
7.26788	0.202
7.30885	0.211
7.34982	0.262
7.39078	0.298
7.43175	0.305
7.47272	0.324
7.51369	0.338
7.55466	0.347
7.59562	0.355
7.63659	0.355
7.67756	0.353
7.71853	0.357
7.7595	0.359
7.80046	0.353
7.84143	0.352
7.8824	0.347
7.92337	0.343
7.96433	0.353
8.0053	0.357
8.04627	0.352
8.08724	0.345
8.12821	0.343
8.16917	0.336
8.21014	0.329
8.25111	0.314
8.29208	0.305
8.33304	0.302
8.37401	0.293
8.41498	0.285
8.45595	0.274
8.49692	0.262
8.53788	0.25
8.57885	0.243
8.61982	0.223
8.66079	0.216
8.70176	0.204
8.74272	0.201
8.78369	0.197
8.82466	0.192
8.86563	0.178
8.90659	0.178
8.94756	0.176
8.98853	0.173
9.0295	0.168
9.07047	0.166
9.11143	0.164
9.1524	0.163
9.19337	0.166
9.23434	0.161
9.2753	0.158
9.31627	0.154
9.35724	0.152
9.39821	0.149
9.43918	0.146
9.48014	0.139
9.52111	0.139
9.56208	0.137
9.60305	0.135
9.64402	0.13
9.68498	0.13
9.72595	0.13
9.76692	0.127
9.80789	0.123
9.84885	0.12
9.88982	0.118
9.93079	0.116
9.97176	0.116
10.0127	0.115
10.0537	0.113
10.0947	0.113
10.1356	0.115
10.1766	0.115
10.2176	0.115
10.2585	0.116
10.2995	0.116
10.3405	0.116
10.3814	0.12
10.4224	0.13
10.4634	0.134
10.5043	0.137
10.5453	0.139
10.5863	0.14
10.6272	0.146
10.6682	0.146
10.7092	0.144
10.7501	0.146
10.7911	0.151
10.8321	0.152
10.873	0.156
10.914	0.154
10.955	0.158
10.996	0.164
11.0369	0.163
11.0779	0.164
11.1189	0.166
11.1598	0.164
11.2008	0.164
11.2418	0.166
11.2827	0.17
11.3237	0.173
11.3647	0.176
11.4056	0.189
11.4466	0.189
11.4876	0.192
11.5285	0.201
11.5695	0.202
11.6105	0.202
11.6514	0.202
11.6924	0.204
11.7334	0.211
11.7743	0.214
11.8153	0.219
11.8563	0.225
11.8972	0.235
11.9382	0.242
11.9792	0.25
12.0201	0.261
12.0611	0.273
12.1021	0.29
12.1431	0.304
12.184	0.31
12.225	0.333
12.266	0.343
12.3069	0.348
12.3479	0.36
12.3889	0.365
12.4298	0.374
12.4708	0.378
12.5118	0.384
12.5527	0.384
12.5937	0.384
12.6347	0.386
12.6756	0.391
12.7166	0.396
12.7576	0.4
12.7985	0.4
12.8395	0.398
12.8805	0.39
12.9214	0.384
12.9624	0.381
13.0034	0.381
13.0443	0.381
13.0853	0.381
13.1263	0.383
13.1672	0.386
13.2082	0.393
13.2492	0.396
13.2902	0.4
13.3311	0.403
13.3721	0.415
13.4131	0.422
13.454	0.426
13.495	0.424
13.536	0.436
13.5769	0.448
13.6179	0.451
13.6589	0.455
13.6998	0.453
13.7408	0.455
13.7818	0.462
13.8227	0.46
13.8637	0.463
13.9047	0.479
13.9456	0.494
13.9866	0.508
14.0276	0.52
14.0685	0.527
14.1095	0.534
14.1505	0.541
14.1914	0.553
14.2324	0.561
14.2734	0.568
14.3143	0.579
14.3553	0.589
14.3963	0.599
14.4373	0.599
14.4782	0.603
14.5192	0.604
14.5602	0.603
14.6011	0.606
14.6421	0.613
14.6831	0.609
14.724	0.606
14.765	0.601
14.806	0.601
14.8469	0.601
14.8879	0.599
14.9289	0.589
14.9698	0.582
15.0108	0.582
15.0518	0.587
15.0927	0.585
15.1337	0.584
15.1747	0.589
15.2156	0.582
15.2566	0.58
15.2976	0.577
15.3385	0.575
15.3795	0.575
15.4205	0.575
15.4614	0.565
15.5024	0.561
15.5434	0.558
15.5843	0.556
15.6253	0.554
15.6663	0.554
15.7073	0.556
15.7482	0.556
15.7892	0.553
15.8302	0.554
15.8711	0.553
15.9121	0.554
15.9531	0.554
