Infrared Spectrum: 8-QUINOLINOL SULFATE
Formula: C18 H16 N2 O6 S
State: SOLID (MINERAL OIL MULL)
Class: COBLENTZ
Instrument: Not specified, most likely a prism, grating, or hybrid spectrometer.
Sampling: TRANSMISSION
Resolution: 4
Origin: WYANDOTTE CHEMICALS CORP., WYANDOTTE, MICHIGAN, USA
MICROMETERS	TRANSMITTANCE
2.02	0.417
2.0609	0.413
2.10179	0.422
2.14269	0.422
2.18359	0.419
2.22448	0.427
2.26538	0.417
2.30628	0.442
2.34717	0.47
2.38807	0.468
2.42897	0.48
2.46986	0.497
2.51076	0.5
2.55165	0.517
2.59255	0.541
2.63345	0.538
2.67434	0.574
2.71524	0.574
2.75614	0.579
2.79703	0.563
2.83793	0.526
2.87883	0.497
2.91972	0.47
2.96062	0.422
3.00152	0.367
3.04241	0.306
3.08331	0.323
3.12421	0.352
3.1651	0.359
3.206	0.349
3.2469	0.258
3.28779	0.245
3.32869	0.149
3.36959	0.028
3.41048	0.023
3.45138	0.018
3.49228	0.03
3.53317	0.051
3.57407	0.223
3.61496	0.26
3.65586	0.272
3.69676	0.257
3.73765	0.252
3.77855	0.255
3.81945	0.25
3.86034	0.257
3.90124	0.265
3.94214	0.279
3.98303	0.291
4.02393	0.281
4.06483	0.296
4.10572	0.287
4.14662	0.301
4.18752	0.316
4.22841	0.316
4.26931	0.308
4.31021	0.364
4.3511	0.373
4.392	0.41
4.4329	0.415
4.47379	0.415
4.51469	0.427
4.55559	0.454
4.59648	0.461
4.63738	0.466
4.67827	0.485
4.71917	0.497
4.76007	0.502
4.80096	0.48
4.84186	0.485
4.88276	0.502
4.92365	0.517
4.96455	0.529
5.00545	0.548
5.04634	0.574
5.08724	0.563
5.12814	0.572
5.16903	0.597
5.20993	0.616
5.25083	0.64
5.29172	0.649
5.33262	0.659
5.37352	0.638
5.41441	0.66
5.45531	0.672
5.49621	0.676
5.5371	0.683
5.578	0.7
5.6189	0.717
5.65979	0.696
5.70069	0.695
5.74158	0.71
5.78248	0.768
5.82338	0.77
5.86427	0.768
5.90517	0.844
5.94607	0.875
5.98696	0.921
6.02786	0.899
6.06876	0.8
6.10965	0.599
6.15055	0.814
6.19145	0.378
6.23234	0.202
6.27324	0.502
6.31414	0.649
6.35503	0.211
6.39593	0.163
6.43683	0.311
6.47772	0.499
6.51862	0.538
6.55952	0.509
6.60041	0.504
6.64131	0.555
6.68221	0.616
6.7231	0.419
6.764	0.151
6.80489	0.097
6.84579	0.166
6.88669	0.298
6.92758	0.458
6.96848	0.48
7.00938	0.385
7.05027	0.323
7.09117	0.281
7.13207	0.287
7.17296	0.34
7.21386	0.172
7.25476	0.168
7.29565	0.419
7.33655	0.584
7.37745	0.546
7.41834	0.495
7.45924	0.427
7.50014	0.247
7.54103	0.172
7.58193	0.287
7.62283	0.235
7.66372	0.194
7.70462	0.373
7.74552	0.478
7.78641	0.519
7.82731	0.511
7.8682	0.606
7.9091	0.671
7.95	0.722
7.99089	0.746
8.03179	0.763
8.07269	0.674
8.11358	0.54
8.15448	0.712
8.19538	0.655
8.23627	0.672
8.27717	0.776
8.31807	0.804
8.35896	0.809
8.39986	0.78
8.44076	0.739
8.48165	0.66
8.52255	0.7
8.56345	0.667
8.60434	0.565
8.64524	0.398
8.68614	0.35
8.72703	0.315
8.76793	0.156
8.80883	0.12
8.84972	0.115
8.89062	0.155
8.93151	0.199
8.97241	0.153
9.01331	0.071
9.0542	0.095
9.0951	0.124
9.136	0.112
9.17689	0.126
9.21779	0.168
9.25869	0.212
9.29958	0.218
9.34048	0.132
9.38138	0.172
9.42227	0.146
9.46317	0.08
9.50407	0.066
9.54496	0.076
9.58586	0.059
9.62676	0.093
9.66765	0.097
9.70855	0.074
9.74945	0.073
9.79034	0.078
9.83124	0.095
9.87214	0.11
9.91303	0.127
9.95393	0.165
9.99482	0.211
10.0357	0.265
10.0766	0.269
10.1175	0.316
10.1584	0.345
10.1993	0.316
10.2402	0.301
10.2811	0.218
10.322	0.149
10.3629	0.209
10.4038	0.289
10.4447	0.364
10.4856	0.41
10.5265	0.448
10.5674	0.461
10.6083	0.454
10.6492	0.431
10.6901	0.381
10.731	0.374
10.7719	0.408
10.8128	0.442
10.8537	0.47
10.8945	0.497
10.9354	0.524
10.9763	0.56
11.0172	0.587
11.0581	0.597
11.099	0.606
11.1399	0.614
11.1808	0.608
11.2217	0.616
11.2626	0.613
11.3035	0.48
11.3444	0.325
11.3853	0.214
11.4262	0.175
11.4671	0.218
11.508	0.298
11.5489	0.35
11.5898	0.385
11.6307	0.349
11.6716	0.342
11.7125	0.374
11.7534	0.453
11.7943	0.507
11.8352	0.56
11.8761	0.596
11.917	0.613
11.9579	0.618
11.9988	0.587
12.0397	0.507
12.0805	0.354
12.1214	0.197
12.1623	0.146
12.2032	0.074
12.2441	0.081
12.285	0.201
12.3259	0.347
12.3668	0.431
12.4077	0.495
12.4486	0.478
12.4895	0.345
12.5304	0.444
12.5713	0.528
12.6122	0.584
12.6531	0.618
12.694	0.649
12.7349	0.679
12.7758	0.652
12.8167	0.606
12.8576	0.555
12.8985	0.482
12.9394	0.361
12.9803	0.456
13.0212	0.531
13.0621	0.524
13.103	0.429
13.1439	0.413
13.1848	0.313
13.2257	0.214
13.2665	0.289
13.3074	0.446
13.3483	0.54
13.3892	0.594
13.4301	0.628
13.471	0.652
13.5119	0.66
13.5528	0.676
13.5937	0.681
13.6346	0.684
13.6755	0.691
13.7164	0.696
13.7573	0.693
13.7982	0.691
13.8391	0.684
13.88	0.688
13.9209	0.706
13.9618	0.712
14.0027	0.62
14.0436	0.48
14.0845	0.425
14.1254	0.446
14.1663	0.529
14.2072	0.616
14.2481	0.666
14.289	0.696
14.3299	0.72
14.3708	0.737
14.4117	0.746
14.4525	0.763
14.4934	0.763
14.5343	0.77
14.5752	0.771
14.6161	0.771
14.657	0.759
14.6979	0.754
14.7388	0.747
14.7797	0.735
14.8206	0.73
14.8615	0.725
14.9024	0.715
14.9433	0.698
14.9842	0.657
15.0251	0.58
15.066	0.553
15.1069	0.562
15.1478	0.592
15.1887	0.608
15.2296	0.609
15.2705	0.597
15.3114	0.589
15.3523	0.575
15.3932	0.567
15.4341	0.54
15.475	0.529
15.5159	0.5
15.5568	0.499
15.5977	0.485
15.6385	0.471
15.6794	0.458
15.7203	0.437
15.7612	0.434
15.8021	0.412
15.843	0.398
15.8839	0.383
15.9248	0.352
15.9657	0.339
