Infrared Spectrum: Phenol, 2-dimethylaminomethyl-3,5-dimethyl-, hydrochloride
Formula: C11 H18 Cl N O
State: SOLID (KBr DISC, 0.8% WT.)
Class: COBLENTZ III
Instrument: PERKIN-ELMER 157
Sampling: TRANSMISSION
Resolution: 2
Origin: BRITISH PETROLEUM CO. LTD., ENGLAND
1/CM	TRANSMITTANCE
668	0.507
677	0.5297
686	0.5656
695	0.481
704	0.4123
713	0.2574
722	0.5639
731	0.2695
740	0.4493
749	0.5798
758	0.66
767	0.7182
776	0.7279
785	0.727
794	0.7095
803	0.6948
812	0.6832
821	0.5358
830	0.2312
839	0.4482
848	0.4939
857	0.5278
866	0.1643
875	0.3384
884	0.6415
893	0.5951
902	0.3853
911	0.3792
920	0.528
929	0.1952
938	0.1509
947	0.4751
956	0.5036
965	0.6358
974	0.6268
983	0.5976
992	0.5588
1001	0.5539
1010	0.3003
1019	0.4146
1028	0.4452
1037	0.3985
1046	0.5052
1055	0.4022
1064	0.3821
1073	0.1774
1082	0.0892
1091	0.4199
1100	0.5929
1109	0.5569
1118	0.4518
1127	0.1024
1136	0.2093
1145	0.327
1154	0.2915
1163	0.1828
1172	0.2541
1181	0.1515
1190	0.2819
1199	0.3254
1208	0.0707
1217	0.3384
1226	0.3778
1235	0.3769
1244	0.178
1253	0.1425
1262	0.039
1271	0.1165
1280	0.3138
1289	0.0906
1298	0.0262
1307	0.227
1316	0.2633
1325	0.3572
1334	0.2708
1343	0.2173
1352	0.1852
1361	0.0989
1370	0.1266
1379	0.141
1388	0.1398
1397	0.0445
1406	0.0234
1415	0.065
1424	0.1289
1433	0.106
1442	0.0986
1451	0.0881
1460	0.0638
1469	0.0783
1478	0.0803
1487	0.2979
1496	0.3844
1505	0.3922
1514	0.2931
1523	0.1496
1532	0.4252
1541	0.5203
1550	0.55
1559	0.5316
1568	0.4799
1577	0.3621
1586	0.2127
1595	0.2206
1604	0.3178
1613	0.1642
1622	0.1836
1631	0.4476
1640	0.593
1649	0.6829
1658	0.7152
1667	0.7335
1676	0.7381
1685	0.7205
1694	0.7024
1703	0.6979
1712	0.7447
1721	0.7727
1730	0.8013
1739	0.8273
1748	0.8324
1757	0.8334
1766	0.834
1775	0.8401
1784	0.8416
1793	0.8307
1802	0.8179
1811	0.8351
1820	0.8503
1829	0.8523
1838	0.8529
1847	0.8515
1856	0.8486
1865	0.8458
1874	0.8376
1883	0.8326
1892	0.8259
1901	0.821
1910	0.8225
1919	0.8232
1928	0.8229
1937	0.8223
1946	0.8215
1955	0.8202
1964	0.8184
1973	0.8153
1982	0.8068
1991	0.8004
2000	0.7999
2009	0.7909
2018	0.7876
2027	0.7853
2036	0.7834
2045	0.7821
2054	0.7766
2063	0.7721
2072	0.7707
2081	0.7699
2090	0.7693
2099	0.7693
2108	0.7694
2117	0.7692
2126	0.769
2135	0.7687
2144	0.7685
2153	0.7687
2162	0.7689
2171	0.7689
2180	0.7686
2189	0.7636
2198	0.7621
2207	0.7605
2216	0.7557
2225	0.7486
2234	0.7418
2243	0.738
2252	0.7335
2261	0.7287
2270	0.7233
2279	0.7142
2288	0.7046
2297	0.6997
2306	0.6755
2315	0.6547
2324	0.6397
2333	0.6256
2342	0.6073
2351	0.5999
2360	0.5957
2369	0.5932
2378	0.5899
2387	0.5851
2396	0.577
2405	0.5652
2414	0.5501
2423	0.5332
2432	0.5109
2441	0.4768
2450	0.4343
2459	0.409
2468	0.3931
2477	0.3792
2486	0.3869
2495	0.397
2504	0.3823
2513	0.3643
2522	0.3464
2531	0.3403
2540	0.3371
2549	0.3169
2558	0.2957
2567	0.2769
2576	0.2721
2585	0.2716
2594	0.2719
2603	0.2698
2612	0.2574
2621	0.2338
2630	0.21
2639	0.1864
2648	0.1629
2657	0.1396
2666	0.1165
2675	0.0935
2684	0.0661
2693	0.0553
2702	0.0526
2711	0.0535
2720	0.0558
2729	0.0607
2738	0.0835
2747	0.1209
2756	0.158
2765	0.1896
2774	0.1938
2783	0.1969
2792	0.1992
2801	0.1982
2810	0.1882
2819	0.1753
2828	0.1592
2837	0.1448
2846	0.1345
2855	0.1262
2864	0.121
2873	0.1151
2882	0.0968
2891	0.0748
2900	0.0599
2909	0.0482
2918	0.0387
2927	0.0344
2936	0.0331
2945	0.0328
2954	0.0344
2963	0.0396
2972	0.0491
2981	0.055
2990	0.0563
2999	0.0566
3008	0.0556
3017	0.0539
3026	0.0514
3035	0.0486
3044	0.045
3053	0.0403
3062	0.0365
3071	0.0326
3080	0.0283
3089	0.0247
3098	0.0241
3107	0.0242
3116	0.0248
3125	0.0254
3134	0.026
3143	0.0273
3152	0.0291
3161	0.0313
3170	0.0367
3179	0.0447
3188	0.0509
3197	0.0598
3206	0.0691
3215	0.077
3224	0.089
3233	0.1078
3242	0.1207
3251	0.132
3260	0.1513
3269	0.1625
3278	0.1702
3287	0.1802
3296	0.1976
3305	0.2109
3314	0.2201
3323	0.2258
3332	0.2299
3341	0.2328
3350	0.2342
3359	0.2353
3368	0.2365
3377	0.2383
3386	0.241
3395	0.246
3404	0.2512
3413	0.2522
3422	0.2536
3431	0.2573
3440	0.2627
3449	0.2823
3458	0.305
3467	0.3275
3476	0.35
3485	0.3723
3494	0.3945
3503	0.4167
3512	0.4386
3521	0.4604
3530	0.4823
3539	0.5039
3548	0.5255
3557	0.5469
3566	0.5682
3575	0.5894
3584	0.6105
3593	0.6315
3602	0.6524
3611	0.6732
3620	0.7259
3629	0.7385
3638	0.7474
3647	0.7814
3656	0.7894
3665	0.7926
3674	0.7953
3683	0.7973
3692	0.7992
3701	0.8007
3710	0.8014
3719	0.8017
3728	0.8016
3737	0.8016
3746	0.8015
3755	0.8014
3764	0.8011
3773	0.8008
3782	0.8001
3791	0.7983
3800	0.7961
3809	0.7934
3818	0.7908
3827	0.7878
3836	0.7846
3845	0.7815
3854	0.7794
3863	0.7776
3872	0.7768
3881	0.776
3890	0.7753
3899	0.7745
3908	0.7735
3917	0.7717
3926	0.7692
3935	0.7674
3944	0.7661
3953	0.7652
3962	0.7646
3971	0.7637
3980	0.7618
3989	0.76
3998	0.7588
