Infrared Spectrum: BARIUM THIOCYANATE
Formula: Ba ( S C N)2  * 2 H2 O
State: SOLID (NUJOL MULL)
Class: COBLENTZ
Instrument: Not specified, most likely a prism, grating, or hybrid spectrometer.
Sampling: TRANSMISSION
Resolution: 4
Origin: MELLON INSTITUTE
MICROMETERS	TRANSMITTANCE
2.064	0.926
2.10499	0.927
2.14599	0.931
2.18698	0.931
2.22798	0.933
2.26897	0.933
2.30996	0.922
2.35096	0.922
2.39195	0.924
2.43295	0.924
2.47394	0.924
2.51494	0.926
2.55593	0.924
2.59692	0.924
2.63792	0.927
2.67891	0.924
2.71991	0.915
2.7609	0.869
2.80189	0.61
2.84289	0.365
2.88388	0.296
2.92488	0.408
2.96587	0.468
3.00686	0.559
3.04786	0.648
3.08885	0.696
3.12985	0.742
3.17084	0.795
3.21184	0.828
3.25283	0.85
3.29382	0.847
3.33482	0.71
3.37581	0.367
3.41681	0.344
3.4578	0.464
3.49879	0.469
3.53979	0.818
3.58078	0.905
3.62178	0.922
3.66277	0.931
3.70377	0.936
3.74476	0.938
3.78575	0.941
3.82675	0.943
3.86774	0.945
3.90874	0.951
3.94973	0.953
3.99072	0.957
4.03172	0.958
4.07271	0.958
4.11371	0.96
4.1547	0.955
4.19569	0.96
4.23669	0.951
4.27768	0.936
4.31868	0.927
4.35967	0.929
4.40067	0.938
4.44166	0.939
4.48265	0.943
4.52365	0.943
4.56464	0.939
4.60564	0.934
4.64663	0.931
4.68762	0.926
4.72862	0.917
4.76961	0.866
4.81061	0.578
4.8516	0.183
4.89259	0.283
4.93359	0.427
4.97458	0.651
5.01558	0.766
5.05657	0.826
5.09757	0.852
5.13856	0.873
5.17955	0.893
5.22055	0.905
5.26154	0.912
5.30254	0.915
5.34353	0.919
5.38452	0.922
5.42552	0.924
5.46651	0.926
5.50751	0.926
5.5485	0.927
5.58949	0.929
5.63049	0.931
5.67148	0.933
5.71248	0.933
5.75347	0.934
5.79447	0.936
5.83546	0.933
5.87645	0.933
5.91745	0.924
5.95844	0.915
5.99944	0.891
6.04043	0.847
6.08142	0.789
6.12242	0.619
6.16341	0.595
6.20441	0.699
6.2454	0.823
6.2864	0.855
6.32739	0.866
6.36838	0.861
6.40938	0.867
6.45037	0.874
6.49137	0.895
6.53236	0.893
6.57335	0.893
6.61435	0.898
6.65534	0.898
6.69634	0.902
6.73733	0.9
6.77832	0.867
6.81932	0.753
6.86031	0.701
6.90131	0.701
6.9423	0.744
6.9833	0.789
7.02429	0.833
7.06528	0.845
7.10628	0.873
7.14727	0.886
7.18827	0.878
7.22926	0.83
7.27025	0.797
7.31125	0.821
7.35224	0.855
7.39324	0.881
7.43423	0.891
7.47522	0.902
7.51622	0.905
7.55721	0.91
7.59821	0.91
7.6392	0.91
7.6802	0.91
7.72119	0.912
7.76218	0.914
7.80318	0.915
7.84417	0.915
7.88517	0.914
7.92616	0.914
7.96715	0.914
8.00815	0.914
8.04914	0.915
8.09014	0.915
8.13113	0.915
8.17212	0.915
8.21312	0.915
8.25411	0.915
8.29511	0.914
8.3361	0.914
8.3771	0.914
8.41809	0.912
8.45908	0.914
8.50008	0.914
8.54107	0.914
8.58207	0.914
8.62306	0.914
8.66405	0.914
8.70505	0.91
8.74604	0.91
8.78704	0.912
8.82803	0.91
8.86902	0.91
8.91002	0.91
8.95101	0.91
8.99201	0.91
9.033	0.91
9.074	0.91
9.11499	0.909
9.15598	0.91
9.19698	0.912
9.23797	0.912
9.27897	0.912
9.31996	0.91
9.36095	0.91
9.40195	0.91
9.44294	0.91
9.48394	0.909
9.52493	0.905
9.56593	0.903
9.60692	0.903
9.64791	0.903
9.68891	0.903
9.7299	0.903
9.7709	0.903
9.81189	0.903
9.85288	0.909
9.89388	0.903
9.93487	0.903
9.97587	0.905
10.0169	0.905
10.0579	0.903
10.0988	0.902
10.1398	0.902
10.1808	0.902
10.2218	0.9
10.2628	0.9
10.3038	0.9
10.3448	0.9
10.3858	0.898
10.4268	0.897
10.4678	0.897
10.5088	0.9
10.5498	0.9
10.5908	0.902
10.6318	0.902
10.6728	0.902
10.7138	0.902
10.7548	0.902
10.7957	0.903
10.8367	0.902
10.8777	0.902
10.9187	0.903
10.9597	0.907
11.0007	0.912
11.0417	0.914
11.0827	0.915
11.1237	0.915
11.1647	0.915
11.2057	0.917
11.2467	0.917
11.2877	0.917
11.3287	0.917
11.3697	0.921
11.4107	0.922
11.4517	0.924
11.4926	0.924
11.5336	0.926
11.5746	0.926
11.6156	0.924
11.6566	0.924
11.6976	0.922
11.7386	0.924
11.7796	0.924
11.8206	0.924
11.8616	0.924
11.9026	0.924
11.9436	0.922
11.9846	0.917
12.0256	0.915
12.0666	0.914
12.1076	0.912
12.1486	0.914
12.1895	0.914
12.2305	0.912
12.2715	0.912
12.3125	0.91
12.3535	0.91
12.3945	0.91
12.4355	0.907
12.4765	0.9
12.5175	0.9
12.5585	0.9
12.5995	0.898
12.6405	0.898
12.6815	0.897
12.7225	0.895
12.7635	0.893
12.8045	0.891
12.8455	0.888
12.8864	0.888
12.9274	0.885
12.9684	0.881
13.0094	0.878
13.0504	0.874
13.0914	0.869
13.1324	0.864
13.1734	0.855
13.2144	0.842
13.2554	0.835
13.2964	0.835
13.3374	0.835
13.3784	0.833
13.4194	0.831
13.4604	0.831
13.5014	0.831
13.5424	0.83
13.5833	0.83
13.6243	0.83
13.6653	0.83
13.7063	0.831
13.7473	0.831
13.7883	0.828
13.8293	0.825
13.8703	0.825
13.9113	0.825
13.9523	0.823
13.9933	0.825
14.0343	0.823
14.0753	0.823
14.1163	0.821
14.1573	0.821
14.1983	0.819
14.2393	0.818
14.2802	0.814
14.3212	0.813
14.3622	0.809
14.4032	0.806
14.4442	0.804
14.4852	0.804
14.5262	0.801
14.5672	0.799
14.6082	0.795
14.6492	0.794
14.6902	0.79
14.7312	0.787
14.7722	0.783
14.8132	0.778
14.8542	0.777
14.8952	0.773
14.9362	0.771
14.9771	0.768
15.0181	0.765
15.0591	0.759
15.1001	0.756
15.1411	0.751
15.1821	0.749
15.2231	0.746
15.2641	0.746
15.3051	0.742
15.3461	0.742
15.3871	0.74
15.4281	0.737
15.4691	0.734
15.5101	0.73
15.5511	0.73
15.5921	0.728
15.6331	0.727
15.674	0.723
15.715	0.718
15.756	0.718
15.797	0.716
15.838	0.716
15.879	0.716
15.92	0.716
15.961	0.716
16.002	0.716
