Infrared Spectrum: GLUTAMINE, N-ISOPROPYL-
Formula: C8 H16 N2 O3
State: SOLID (0.5 mg / 650 mg, KBr DISC)
Class: COBLENTZ III
Instrument: PERKIN-ELMER 21 (GRATING)
Instrument parameters: FILTER CHANGE AT ABOUT 1090 CM^-^1
Sampling: TRANSMISSION
Resolution: 2
Origin: SOUTHERN RESEARCH INSTITUTE
1/CM	TRANSMITTANCE
660.714	0.939
669.026	0.8842
677.338	0.7973
685.65	0.7631
693.963	0.8044
702.275	0.8269
710.587	0.826
718.899	0.8336
727.211	0.8539
735.523	0.8483
743.835	0.8348
752.148	0.8544
760.46	0.879
768.772	0.879
777.084	0.858
785.396	0.857
793.708	0.8584
802.02	0.8918
810.333	0.8957
818.645	0.891
826.957	0.9
835.269	0.8994
843.581	0.8934
851.893	0.8864
860.205	0.8746
868.517	0.882
876.83	0.8735
885.142	0.8319
893.454	0.7395
901.766	0.7743
910.078	0.8753
918.39	0.879
926.702	0.8697
935.015	0.8321
943.327	0.8112
951.639	0.8214
959.951	0.867
968.263	0.875
976.575	0.8677
984.887	0.8512
993.2	0.8093
1001.51	0.8538
1009.82	0.857
1018.14	0.8668
1026.45	0.852
1034.76	0.8298
1043.07	0.846
1051.38	0.846
1059.7	0.8387
1068.01	0.8275
1076.32	0.7802
1084.63	0.6555
1092.95	0.7881
1101.26	0.8361
1109.57	0.834
1117.88	0.8219
1126.19	0.796
1134.51	0.6664
1142.82	0.6198
1151.13	0.8017
1159.44	0.7914
1167.75	0.7097
1176.07	0.7118
1184.38	0.7069
1192.69	0.7969
1201	0.8225
1209.32	0.8222
1217.63	0.7806
1225.94	0.7154
1234.25	0.5299
1242.56	0.7173
1250.88	0.7654
1259.19	0.769
1267.5	0.7209
1275.81	0.7217
1284.12	0.7903
1292.44	0.8026
1300.75	0.7935
1309.06	0.752
1317.37	0.6328
1325.69	0.687
1334	0.618
1342.31	0.3744
1350.62	0.4074
1358.93	0.4905
1367.25	0.4868
1375.56	0.5459
1383.87	0.6616
1392.18	0.5984
1400.49	0.5642
1408.81	0.4848
1417.12	0.2834
1425.43	0.2014
1433.74	0.4164
1442.06	0.5838
1450.37	0.6284
1458.68	0.5782
1466.99	0.5617
1475.3	0.6408
1483.62	0.6762
1491.93	0.6866
1500.24	0.6588
1508.55	0.6049
1516.86	0.4843
1525.18	0.4731
1533.49	0.4941
1541.8	0.4293
1550.11	0.2037
1558.43	0.181
1566.74	0.333
1575.05	0.2832
1583.36	0.1049
1591.67	0.105
1599.99	0.2014
1608.3	0.305
1616.61	0.2223
1624.92	0.1721
1633.23	0.1265
1641.55	0.0521
1649.86	0.0594
1658.17	0.2249
1666.48	0.3288
1674.8	0.5428
1683.11	0.6386
1691.42	0.6921
1699.73	0.7393
1708.04	0.7765
1716.36	0.8025
1724.67	0.8177
1732.98	0.8272
1741.29	0.835
1749.6	0.846
1757.92	0.856
1766.23	0.874
1774.54	0.8698
1782.85	0.884
1791.16	0.8851
1799.48	0.8926
1807.79	0.895
1816.1	0.897
1824.41	0.9005
1832.73	0.902
1841.04	0.9005
1849.35	0.906
1857.66	0.907
1865.97	0.907
1874.29	0.907
1882.6	0.908
1890.91	0.908
1899.22	0.911
1907.53	0.914
1915.85	0.912
1924.16	0.911
1932.47	0.9123
1940.78	0.9137
1949.1	0.91
1957.41	0.915
1965.72	0.911
1974.03	0.911
1982.34	0.91
1990.66	0.915
1998.97	0.9141
2007.28	0.915
2015.59	0.9129
2023.9	0.905
2032.22	0.9009
2040.53	0.895
2048.84	0.8939
2057.15	0.8919
2065.47	0.889
2073.78	0.8859
2082.09	0.8809
2090.4	0.8749
2098.71	0.8719
2107.03	0.8567
2115.34	0.855
2123.65	0.856
2131.96	0.8603
2140.27	0.8781
2148.59	0.873
2156.9	0.8893
2165.21	0.8944
2173.52	0.9023
2181.84	0.906
2190.15	0.906
2198.46	0.906
2206.77	0.902
2215.08	0.91
2223.4	0.912
2231.71	0.912
2240.02	0.913
2248.33	0.9129
2256.64	0.905
2264.96	0.911
2273.27	0.912
2281.58	0.9098
2289.89	0.8989
2298.21	0.894
2306.52	0.892
2314.83	0.889
2323.14	0.8799
2331.45	0.878
2339.77	0.8777
2348.08	0.8749
2356.39	0.873
2364.7	0.8721
2373.01	0.8764
2381.33	0.8789
2389.64	0.881
2397.95	0.8819
2406.26	0.879
2414.58	0.875
2422.89	0.8707
2431.2	0.8619
2439.51	0.857
2447.82	0.8569
2456.14	0.8529
2464.45	0.847
2472.76	0.8393
2481.07	0.8287
2489.38	0.8169
2497.7	0.8037
2506.01	0.7917
2514.32	0.7769
2522.63	0.7629
2530.95	0.76
2539.26	0.765
2547.57	0.7617
2555.88	0.7499
2564.19	0.7473
2572.51	0.7579
2580.82	0.743
2589.13	0.7336
2597.44	0.7191
2605.75	0.6887
2614.07	0.6526
2622.38	0.6349
2630.69	0.628
2639	0.6392
2647.32	0.648
2655.63	0.644
2663.94	0.6369
2672.25	0.6309
2680.56	0.629
2688.88	0.6237
2697.19	0.6039
2705.5	0.584
2713.81	0.562
2722.12	0.5518
2730.44	0.5473
2738.75	0.5524
2747.06	0.5603
2755.37	0.5641
2763.69	0.5681
2772	0.5689
2780.31	0.5567
2788.62	0.5321
2796.93	0.5126
2805.25	0.4929
2813.56	0.4777
2821.87	0.4557
2830.18	0.4456
2838.49	0.4324
2846.81	0.4109
2855.12	0.407
2863.43	0.4019
2871.74	0.3937
2880.06	0.389
2888.37	0.3788
2896.68	0.3637
2904.99	0.3517
2913.3	0.3236
2921.62	0.313
2929.93	0.3059
2938.24	0.3
2946.55	0.298
2954.86	0.299
2963.18	0.3024
2971.49	0.3184
2979.8	0.3331
2988.11	0.3513
2996.43	0.3604
3004.74	0.3784
3013.05	0.394
3021.36	0.4031
3029.67	0.4101
3037.99	0.4223
3046.3	0.426
3054.61	0.4353
3062.92	0.4551
3071.23	0.4766
3079.55	0.5015
3087.86	0.5316
3096.17	0.5581
3104.48	0.5824
3112.8	0.609
3121.11	0.6313
3129.42	0.648
3137.73	0.6621
3146.04	0.679
3154.36	0.6747
3162.67	0.6751
3170.98	0.688
3179.29	0.6921
3187.6	0.698
3195.92	0.698
3204.23	0.695
3212.54	0.6907
3220.85	0.6809
3229.17	0.6642
3237.48	0.6082
3245.79	0.518
3254.1	0.4126
3262.41	0.2877
3270.73	0.282
3279.04	0.2946
3287.35	0.3266
3295.66	0.4034
3303.97	0.4949
3312.29	0.5429
3320.6	0.5906
3328.91	0.6329
3337.22	0.6673
3345.54	0.6781
3353.85	0.6871
3362.16	0.689
3370.47	0.692
3378.78	0.694
3387.1	0.689
3395.41	0.6881
3403.72	0.691
3412.03	0.692
3420.34	0.693
3428.66	0.697
3436.97	0.704
3445.28	0.708
3453.59	0.7145
3461.91	0.7301
3470.22	0.733
3478.53	0.734
3486.84	0.736
3495.15	0.74
3503.47	0.7561
3511.78	0.7651
3520.09	0.7761
3528.4	0.7821
3536.71	0.7891
3545.03	0.7951
3553.34	0.8031
3561.65	0.8091
3569.96	0.8154
3578.27	0.8261
3586.59	0.8341
3594.9	0.8461
3603.21	0.85
3611.52	0.8573
3619.84	0.8621
3628.15	0.868
3636.46	0.873
3644.77	0.8763
3653.08	0.879
3661.4	0.878
3669.71	0.875
3678.02	0.8741
3686.33	0.8823
3694.64	0.8861
3702.96	0.8881
3711.27	0.891
3719.58	0.8921
3727.89	0.894
3736.21	0.894
3744.52	0.894
3752.83	0.893
3761.14	0.893
3769.45	0.893
3777.77	0.892
3786.08	0.892
3794.39	0.892
3802.7	0.892
