Infrared Spectrum: 3,4-DIMETHOXY ADIPIC ACID, DIMETHYL ESTER
Formula: C10 H20 O6
Class: COBLENTZ
Instrument: Not specified, most likely a prism, grating, or hybrid spectrometer.
Sampling: TRANSMISSION
Path length: 0.001 CM
Resolution: 4
MICROMETERS	TRANSMITTANCE
2.027	0.911
2.06675	0.914
2.10651	0.916
2.14626	0.916
2.18602	0.916
2.22577	0.894
2.26553	0.831
2.30528	0.843
2.34503	0.864
2.38479	0.864
2.42454	0.864
2.4643	0.873
2.50405	0.873
2.5438	0.879
2.58356	0.904
2.62331	0.914
2.66307	0.926
2.70282	0.926
2.74258	0.829
2.78233	0.794
2.82208	0.794
2.86184	0.781
2.90159	0.823
2.94135	0.876
2.9811	0.884
3.02085	0.888
3.06061	0.888
3.10036	0.888
3.14012	0.886
3.17987	0.873
3.21963	0.849
3.25938	0.806
3.29913	0.729
3.33889	0.398
3.37864	0.15
3.4184	0.071
3.45815	0.095
3.49791	0.11
3.53766	0.25
3.57741	0.263
3.61717	0.777
3.65692	0.792
3.69668	0.843
3.73643	0.871
3.77618	0.871
3.81594	0.868
3.85569	0.861
3.89545	0.874
3.9352	0.901
3.97496	0.903
4.01471	0.903
4.05446	0.904
4.09422	0.906
4.13397	0.908
4.17373	0.906
4.21348	0.901
4.25323	0.899
4.29299	0.899
4.33274	0.901
4.3725	0.901
4.41225	0.901
4.45201	0.903
4.49176	0.914
4.53151	0.914
4.57127	0.911
4.61102	0.893
4.65078	0.884
4.69053	0.874
4.73029	0.853
4.77004	0.823
4.80979	0.811
4.84955	0.808
4.8893	0.806
4.92906	0.811
4.96881	0.821
5.00856	0.834
5.04832	0.834
5.08807	0.834
5.12783	0.834
5.16758	0.836
5.20734	0.843
5.24709	0.849
5.28684	0.856
5.3266	0.856
5.36635	0.856
5.40611	0.843
5.44586	0.804
5.48562	0.752
5.52537	0.679
5.56512	0.584
5.60488	0.442
5.64463	0.253
5.68439	0.036
5.72414	0.045
5.76389	0.045
5.80365	0.036
5.8434	0.136
5.88316	0.258
5.92291	0.38
5.96267	0.535
6.00242	0.622
6.04217	0.676
6.08193	0.677
6.12168	0.681
6.16144	0.679
6.20119	0.709
6.24094	0.716
6.2807	0.732
6.32045	0.744
6.36021	0.744
6.39996	0.744
6.43972	0.742
6.47947	0.744
6.51922	0.741
6.55898	0.739
6.59873	0.702
6.63849	0.667
6.67824	0.57
6.718	0.46
6.75775	0.283
6.7975	0.188
6.83726	0.093
6.87701	0.08
6.91677	0.033
6.95652	0.038
6.99627	0.11
7.03603	0.186
7.07578	0.202
7.11554	0.222
7.15529	0.228
7.19505	0.143
7.2348	0.086
7.27455	0.071
7.31431	0.07
7.35406	0.068
7.39382	0.085
7.43357	0.131
7.47332	0.131
7.51308	0.09
7.55283	0.09
7.59259	0.08
7.63234	0.068
7.6721	0.056
7.71185	0.053
7.7516	0.053
7.79136	0.043
7.83111	0.04
7.87087	0.04
7.91062	0.04
7.95038	0.035
7.99013	0.033
8.02988	0.033
8.06964	0.033
8.10939	0.038
8.14915	0.04
8.1889	0.04
8.22865	0.038
8.26841	0.038
8.30816	0.033
8.34792	0.031
8.38767	0.031
8.42743	0.03
8.46718	0.03
8.50693	0.033
8.54669	0.031
8.58644	0.03
8.6262	0.025
8.66595	0.025
8.7057	0.031
8.74546	0.031
8.78521	0.03
8.82497	0.03
8.86472	0.03
8.90448	0.03
8.94423	0.028
8.98398	0.028
9.02374	0.028
9.06349	0.028
9.10325	0.028
9.143	0.028
9.18276	0.03
9.22251	0.03
9.26226	0.03
9.30202	0.031
9.34177	0.033
9.38153	0.058
9.42128	0.093
9.46103	0.108
9.50079	0.121
9.54054	0.125
9.5803	0.155
9.62005	0.163
9.65981	0.163
9.69956	0.163
9.73931	0.148
9.77907	0.135
9.81882	0.11
9.85858	0.11
9.89833	0.11
9.93809	0.11
9.97784	0.11
10.0176	0.121
10.0573	0.125
10.0971	0.138
10.1369	0.165
10.1766	0.193
10.2164	0.23
10.2561	0.275
10.2959	0.312
10.3356	0.335
10.3754	0.373
10.4151	0.412
10.4549	0.45
10.4946	0.487
10.5344	0.522
10.5742	0.525
10.6139	0.55
10.6537	0.562
10.6934	0.574
10.7332	0.59
10.7729	0.592
10.8127	0.604
10.8524	0.604
10.8922	0.58
10.9319	0.574
10.9717	0.562
11.0114	0.53
11.0512	0.51
11.091	0.497
11.1307	0.502
11.1705	0.5
11.2102	0.5
11.25	0.485
11.2897	0.472
11.3295	0.472
11.3692	0.472
11.409	0.499
11.4487	0.53
11.4885	0.555
11.5283	0.582
11.568	0.585
11.6078	0.585
11.6475	0.554
11.6873	0.504
11.727	0.452
11.7668	0.4
11.8065	0.392
11.8463	0.387
11.886	0.387
11.9258	0.393
11.9655	0.437
12.0053	0.482
12.0451	0.534
12.0848	0.58
12.1246	0.621
12.1643	0.642
12.2041	0.692
12.2438	0.716
12.2836	0.734
12.3233	0.742
12.3631	0.744
12.4028	0.754
12.4426	0.757
12.4824	0.766
12.5221	0.771
12.5619	0.784
12.6016	0.786
12.6414	0.784
12.6811	0.784
12.7209	0.786
12.7606	0.787
12.8004	0.796
12.8401	0.797
12.8799	0.797
12.9196	0.796
12.9594	0.796
12.9992	0.797
13.0389	0.794
13.0787	0.784
13.1184	0.781
13.1582	0.779
13.1979	0.772
13.2377	0.769
13.2774	0.757
13.3172	0.756
13.3569	0.752
13.3967	0.746
13.4365	0.731
13.4762	0.719
13.516	0.704
13.5557	0.691
13.5955	0.679
13.6352	0.679
13.675	0.679
13.7147	0.669
13.7545	0.667
13.7942	0.666
13.834	0.666
13.8738	0.656
13.9135	0.652
13.9533	0.646
13.993	0.637
14.0328	0.631
14.0725	0.631
14.1123	0.634
14.152	0.642
14.1918	0.659
14.2315	0.666
14.2713	0.681
14.311	0.682
14.3508	0.686
14.3906	0.694
14.4303	0.696
14.4701	0.699
14.5098	0.702
14.5496	0.706
14.5893	0.707
14.6291	0.706
14.6688	0.706
14.7086	0.704
14.7483	0.702
14.7881	0.696
14.8279	0.696
14.8676	0.692
14.9074	0.694
14.9471	0.682
14.9869	0.681
15.0266	0.676
15.0664	0.669
15.1061	0.664
15.1459	0.657
15.1856	0.656
15.2254	0.647
15.2651	0.642
15.3049	0.641
15.3447	0.632
15.3844	0.632
15.4242	0.627
15.4639	0.627
15.5037	0.627
15.5434	0.622
15.5832	0.617
15.6229	0.617
15.6627	0.617
15.7024	0.617
15.7422	0.616
15.782	0.612
15.8217	0.606
15.8615	0.607
15.9012	0.606
15.941	0.606
15.9807	0.607
