Infrared Spectrum: Toluenesulfonamide, N-ethyl-, (mixture of o-and p-)
Formula: C9 H13 N O2 S
State: LIQUID (NEAT)
Class: COBLENTZ
Instrument: DOW FOREPRISM-GRATING
Instrument parameters: BLAZED AT 3.5, 12.0, 20.0 MICRON AND CHANGED AT 5.0, 7.5, 14.9 MICRON
Sampling: TRANSMISSION
Path length: CAPILLARY
Resolution: 2
Origin: DOW CHEMICAL COMPANY
1/CM	TRANSMITTANCE
386	0.6939
395	0.6947
404	0.6956
413	0.697
422	0.6976
431	0.6941
440	0.6878
449	0.6784
458	0.6635
467	0.6468
476	0.6218
485	0.6064
494	0.6205
503	0.6407
512	0.6404
521	0.6291
530	0.6126
539	0.5058
548	0.3859
557	0.5143
566	0.4439
575	0.439
584	0.4165
593	0.2932
602	0.4985
611	0.6203
620	0.6736
629	0.6847
638	0.6681
647	0.603
656	0.5105
665	0.5335
674	0.554
683	0.422
692	0.5357
701	0.552
710	0.509
719	0.6935
728	0.7203
737	0.7212
746	0.667
755	0.465
764	0.4134
773	0.5996
782	0.7262
791	0.73
800	0.6321
809	0.5728
818	0.6651
827	0.7498
836	0.7174
845	0.681
854	0.6589
863	0.6686
872	0.7135
881	0.7663
890	0.7787
899	0.7821
908	0.7775
917	0.753
926	0.6673
935	0.5841
944	0.5614
953	0.6883
962	0.7759
971	0.8019
980	0.8083
989	0.8079
998	0.806
1007	0.7881
1016	0.7833
1025	0.7667
1034	0.7195
1043	0.6705
1052	0.5651
1061	0.4123
1070	0.4866
1079	0.5651
1088	0.3629
1097	0.4385
1106	0.4701
1115	0.4592
1124	0.366
1133	0.4234
1142	0.3085
1151	0.0703
1160	0.07
1169	0.3937
1178	0.6762
1187	0.7446
1196	0.7416
1205	0.7861
1214	0.804
1223	0.8082
1232	0.8039
1241	0.7968
1250	0.7794
1259	0.7396
1268	0.5996
1277	0.4976
1286	0.4418
1295	0.4597
1304	0.2834
1313	0.1739
1322	0.1746
1331	0.307
1340	0.4874
1349	0.6203
1358	0.7002
1367	0.6985
1376	0.6092
1385	0.6492
1394	0.6188
1403	0.5715
1412	0.5283
1421	0.5002
1430	0.529
1439	0.5664
1448	0.5302
1457	0.5036
1466	0.5749
1475	0.6277
1484	0.7466
1493	0.7474
1502	0.8048
1511	0.8128
1520	0.8159
1529	0.8146
1538	0.8085
1547	0.7998
1556	0.7906
1565	0.7882
1574	0.8032
1583	0.778
1592	0.6781
1601	0.7996
1610	0.8251
1619	0.8309
1628	0.8324
1637	0.8366
1646	0.8422
1655	0.8484
1664	0.8548
1673	0.8599
1682	0.8626
1691	0.8631
1700	0.8604
1709	0.8591
1718	0.8579
1727	0.86
1736	0.8695
1745	0.8728
1754	0.8739
1763	0.8752
1772	0.8762
1781	0.874
1790	0.8702
1799	0.8665
1808	0.8655
1817	0.8661
1826	0.8667
1835	0.8675
1844	0.8685
1853	0.8696
1862	0.8698
1871	0.8698
1880	0.8688
1889	0.8672
1898	0.8632
1907	0.8588
1916	0.8588
1925	0.8606
1934	0.8625
1943	0.8495
1952	0.8672
1961	0.869
1970	0.8708
1979	0.8723
1988	0.8748
1997	0.877
2006	0.8773
2015	0.8762
2024	0.8739
2033	0.8752
2042	0.88
2051	0.8817
2060	0.882
2069	0.882
2078	0.8818
2087	0.8815
2096	0.8814
2105	0.882
2114	0.882
2123	0.881
2132	0.8802
2141	0.8809
2150	0.8813
2159	0.8817
2168	0.8886
2177	0.8812
2186	0.8792
2195	0.8784
2204	0.8779
2213	0.8776
2222	0.8766
2231	0.8754
2240	0.874
2249	0.8725
2258	0.8711
2267	0.8703
2276	0.8695
2285	0.8688
2294	0.8687
2303	0.8702
2312	0.8753
2321	0.8796
2330	0.8814
2339	0.8826
2348	0.8835
2357	0.8836
2366	0.8824
2375	0.8807
2384	0.8789
2393	0.8771
2402	0.876
2411	0.8757
2420	0.8755
2429	0.8749
2438	0.8745
2447	0.8739
2456	0.8735
2465	0.874
2474	0.8748
2483	0.8756
2492	0.8764
2501	0.8769
2510	0.8775
2519	0.8773
2528	0.8769
2537	0.8761
2546	0.8724
2555	0.8693
2564	0.8683
2573	0.8684
2582	0.872
2591	0.8745
2600	0.8748
2609	0.8739
2618	0.8726
2627	0.8718
2636	0.8709
2645	0.8698
2654	0.8683
2663	0.8669
2672	0.8655
2681	0.8641
2690	0.8628
2699	0.8614
2708	0.8601
2717	0.8586
2726	0.8574
2735	0.8582
2744	0.8635
2753	0.8658
2762	0.8638
2771	0.8615
2780	0.8569
2789	0.8498
2798	0.8404
2807	0.8313
2816	0.82
2825	0.8046
2834	0.7881
2843	0.7717
2852	0.7497
2861	0.7319
2870	0.7401
2879	0.7539
2888	0.7663
2897	0.7657
2906	0.7414
2915	0.7082
2924	0.6962
2933	0.7306
2942	0.7374
2951	0.6998
2960	0.6334
2969	0.5913
2978	0.6672
2987	0.794
2996	0.8109
3005	0.8112
3014	0.8108
3023	0.8084
3032	0.7973
3041	0.7863
3050	0.7871
3059	0.8025
3068	0.8167
3077	0.8179
3086	0.819
3095	0.8213
3104	0.8226
3113	0.8209
3122	0.8186
3131	0.8143
3140	0.809
3149	0.8024
3158	0.7938
3167	0.7813
3176	0.7661
3185	0.7437
3194	0.7175
3203	0.6764
3212	0.6286
3221	0.5778
3230	0.5272
3239	0.4764
3248	0.4332
3257	0.3921
3266	0.3691
3275	0.3622
3284	0.3645
3293	0.3783
3302	0.4112
3311	0.4544
3320	0.4975
3329	0.5579
3338	0.5991
3347	0.6563
3356	0.6984
3365	0.7418
3374	0.7723
3383	0.7935
3392	0.8155
3401	0.8327
3410	0.8429
3419	0.8492
3428	0.8542
3437	0.8566
3446	0.8572
3455	0.8561
3464	0.8549
3473	0.8522
3482	0.8493
3491	0.8461
3500	0.8445
3509	0.8436
3518	0.8427
3527	0.8421
3536	0.8418
3545	0.8415
3554	0.8414
3563	0.8413
3572	0.842
3581	0.8427
3590	0.8454
3599	0.8484
3608	0.852
3617	0.8559
3626	0.8599
3635	0.8636
3644	0.867
3653	0.8705
3662	0.8726
3671	0.8738
3680	0.8733
3689	0.8722
3698	0.8713
3707	0.8703
3716	0.8693
3725	0.8692
3734	0.8694
3743	0.8696
3752	0.8701
3761	0.8706
