Infrared Spectrum: ACETIC ACID, CHLORO-, SODIUM SALT
Formula: C2 H2 Cl Na O2
State: SOLID (OIL MULL)
Class: COBLENTZ III
Instrument: BAIRD (GRATING)
Instrument parameters: NaCl PRISM
Sampling: TRANSMISSION
Resolution: 2
Origin: WYANDOTTE CHEMICALS CORP.
1/CM	TRANSMITTANCE
4000	0.9338
3991	0.9345
3982	0.9367
3973	0.9395
3964	0.9425
3955	0.9455
3946	0.9486
3937	0.9517
3928	0.9539
3919	0.9562
3910	0.9551
3901	0.9524
3892	0.9496
3883	0.9468
3874	0.9437
3865	0.9413
3856	0.9424
3847	0.9449
3838	0.9475
3829	0.9502
3820	0.9527
3811	0.9551
3802	0.9575
3793	0.9601
3784	0.9625
3775	0.9645
3766	0.9648
3757	0.9645
3748	0.9627
3739	0.9606
3730	0.9582
3721	0.9558
3712	0.953
3703	0.95
3694	0.947
3685	0.9437
3676	0.9392
3667	0.9335
3658	0.9254
3649	0.9194
3640	0.9149
3631	0.9128
3622	0.9123
3613	0.9125
3604	0.9141
3595	0.9167
3586	0.9205
3577	0.9235
3568	0.9253
3559	0.9242
3550	0.9228
3541	0.9212
3532	0.9197
3523	0.9182
3514	0.9167
3505	0.9161
3496	0.9158
3487	0.9156
3478	0.9153
3469	0.915
3460	0.9145
3451	0.9125
3442	0.9101
3433	0.9077
3424	0.9053
3415	0.903
3406	0.9009
3397	0.8986
3388	0.8964
3379	0.8942
3370	0.8918
3361	0.8896
3352	0.8873
3343	0.885
3334	0.8825
3325	0.8802
3316	0.8777
3307	0.8753
3298	0.8728
3289	0.8713
3280	0.8702
3271	0.8667
3262	0.862
3253	0.855
3244	0.8474
3235	0.8405
3226	0.8342
3217	0.8282
3208	0.8225
3199	0.8178
3190	0.8149
3181	0.8136
3172	0.8124
3163	0.8094
3154	0.8041
3145	0.7975
3136	0.789
3127	0.7803
3118	0.7705
3109	0.7606
3100	0.7488
3091	0.7365
3082	0.7221
3073	0.7057
3064	0.6865
3055	0.6575
3046	0.5938
3037	0.5523
3028	0.5049
3019	0.469
3010	0.4187
3001	0.3316
2992	0.2458
2983	0.1595
2974	0.0907
2965	0.0778
2956	0.0698
2947	0.0673
2938	0.0676
2929	0.0725
2920	0.0865
2911	0.1148
2902	0.1433
2893	0.1715
2884	0.1736
2875	0.1548
2866	0.1408
2857	0.2015
2848	0.3695
2839	0.5384
2830	0.5944
2821	0.6548
2812	0.6928
2803	0.7236
2794	0.7488
2785	0.7671
2776	0.785
2767	0.8005
2758	0.8084
2749	0.8135
2740	0.8178
2731	0.8214
2722	0.8245
2713	0.8271
2704	0.8286
2695	0.8268
2686	0.8251
2677	0.8254
2668	0.8275
2659	0.8328
2650	0.8416
2641	0.8538
2632	0.8584
2623	0.8593
2614	0.8595
2605	0.8612
2596	0.8674
2587	0.8728
2578	0.8757
2569	0.8786
2560	0.8796
2551	0.8805
2542	0.8815
2533	0.8841
2524	0.887
2515	0.8917
2506	0.8967
2497	0.9015
2488	0.9063
2479	0.9098
2470	0.9118
2461	0.9137
2452	0.9149
2443	0.9161
2434	0.9164
2425	0.9164
2416	0.9154
2407	0.9133
2398	0.9095
2389	0.909
2380	0.9114
2371	0.9133
2362	0.9164
2353	0.9264
2344	0.9373
2335	0.9483
2326	0.9591
2317	0.9675
2308	0.9714
2299	0.9699
2290	0.9565
2281	0.9488
2272	0.9459
2263	0.9462
2254	0.9468
2245	0.9485
2236	0.9525
2227	0.9571
2218	0.9597
2209	0.9597
2200	0.9595
2191	0.9598
2182	0.9603
2173	0.9609
2164	0.9623
2155	0.9637
2146	0.9651
2137	0.9668
2128	0.9685
2119	0.9701
2110	0.9717
2101	0.9735
2092	0.972
2083	0.968
2074	0.9682
2065	0.9706
2056	0.9733
2047	0.971
2038	0.9688
2029	0.967
2020	0.9662
2011	0.9656
2002	0.9653
1993	0.9649
1984	0.9649
1975	0.9656
1966	0.9675
1957	0.9696
1948	0.9716
1939	0.9728
1930	0.9736
1921	0.9724
1912	0.9718
1903	0.9716
1894	0.9708
1885	0.9687
1876	0.9662
1867	0.9623
1858	0.9517
1849	0.9393
1840	0.9385
1831	0.9365
1822	0.9335
1813	0.9278
1804	0.9156
1795	0.9018
1786	0.8854
1777	0.8662
1768	0.8338
1759	0.7941
1750	0.7688
1741	0.7451
1732	0.7219
1723	0.6807
1714	0.6089
1705	0.5621
1696	0.5312
1687	0.4183
1678	0.3674
1669	0.323
1660	0.2607
1651	0.2019
1642	0.1428
1633	0.083
1624	0.0447
1615	0.0477
1606	0.0692
1597	0.1108
1588	0.1618
1579	0.2449
1570	0.2956
1561	0.3349
1552	0.373
1543	0.4082
1534	0.4364
1525	0.4698
1516	0.4937
1507	0.4936
1498	0.466
1489	0.3448
1480	0.2298
1471	0.2544
1462	0.2972
1453	0.293
1444	0.1821
1435	0.1053
1426	0.1273
1417	0.2385
1408	0.204
1399	0.4298
1390	0.3668
1381	0.4514
1372	0.5533
1363	0.5744
1354	0.6142
1345	0.6651
1336	0.705
1327	0.7028
1318	0.7061
1309	0.7237
1300	0.7417
1291	0.7662
1282	0.7698
1273	0.7462
1264	0.2884
1255	0.0895
1246	0.3972
1237	0.5941
1228	0.6665
1219	0.6993
1210	0.726
1201	0.7478
1192	0.7633
1183	0.7683
1174	0.6521
1165	0.7718
1156	0.7943
1147	0.8188
1138	0.8019
1129	0.7818
1120	0.7651
1111	0.7526
1102	0.7442
1093	0.7411
1084	0.7433
1075	0.7505
1066	0.764
1057	0.7701
1048	0.7714
1039	0.7689
1030	0.7741
1021	0.7876
1012	0.7934
1003	0.8114
994	0.8199
985	0.8198
976	0.8197
967	0.8209
958	0.8212
949	0.7998
940	0.7222
931	0.403
922	0.7835
913	0.8428
904	0.8568
895	0.8559
886	0.8685
877	0.8718
868	0.869
859	0.8657
850	0.8574
841	0.8511
832	0.8459
823	0.8318
814	0.8218
805	0.8164
796	0.7718
787	0.6229
778	0.2084
769	0.1224
760	0.3943
751	0.5596
742	0.6462
733	0.6787
724	0.6815
715	0.7294
706	0.76
697	0.7628
688	0.7381
679	0.607
670	0.4702
661	0.5651
652	0.7098
643	0.7187
634	0.7258
625	0.7026
