Infrared Spectrum: Octadecane-1-sulfonic acid, sodium salt
Formula: C18 H37 O3 S Na
State: SOLID (SPLIT MULL), FLUOROLUBE FOR 3800-1330 CM^-^1, NUJOL FOR 1330-400 CM^-^1
Class: COBLENTZ III
Instrument: DOW KBr FOREPRISM-GRATING
Instrument parameters: BLAZED AT 3.5, 12.0, 20.0 MICRON AND CHANGED AT 5.0, 7.5, 14.9 MICRON
Sampling: TRANSMISSION
Resolution: 2
Origin: DOW CHEMICAL COMPANY
1/CM	TRANSMITTANCE
396	0.8135
405	0.8146
414	0.816
423	0.8167
432	0.8171
441	0.8176
450	0.8178
459	0.8178
468	0.8183
477	0.8185
486	0.8235
495	0.8398
504	0.8411
513	0.8205
522	0.7915
531	0.74
540	0.5808
549	0.6849
558	0.7369
567	0.8373
576	0.8523
585	0.8495
594	0.8412
603	0.8012
612	0.7081
621	0.5712
630	0.8436
639	0.8691
648	0.8732
657	0.8732
666	0.8725
675	0.8705
684	0.8628
693	0.8525
702	0.8401
711	0.8014
720	0.705
729	0.631
738	0.784
747	0.8025
756	0.8232
765	0.8208
774	0.8202
783	0.7801
792	0.7225
801	0.7351
810	0.7994
819	0.8424
828	0.8447
837	0.8444
846	0.8421
855	0.8428
864	0.8453
873	0.8415
882	0.8321
891	0.8237
900	0.8278
909	0.8264
918	0.8171
927	0.8133
936	0.8103
945	0.8068
954	0.7989
963	0.7925
972	0.7938
981	0.8031
990	0.8032
999	0.8021
1008	0.7983
1017	0.7857
1026	0.7557
1035	0.6819
1044	0.6375
1053	0.5525
1062	0.4124
1071	0.5407
1080	0.7118
1089	0.7284
1098	0.7468
1107	0.7461
1116	0.7332
1125	0.7049
1134	0.6571
1143	0.5834
1152	0.4295
1161	0.1311
1170	0.0892
1179	0.1687
1188	0.1773
1197	0.1223
1206	0.1457
1215	0.2195
1224	0.3078
1233	0.3771
1242	0.355
1251	0.5568
1260	0.6203
1269	0.6507
1278	0.6701
1287	0.6686
1296	0.6817
1305	0.7005
1314	0.7131
1323	0.7194
1332	0.7071
1341	0.7286
1350	0.7519
1359	0.7455
1368	0.7354
1377	0.7357
1386	0.7571
1395	0.7564
1404	0.7474
1413	0.7276
1422	0.7453
1431	0.7587
1440	0.7543
1449	0.7267
1458	0.6308
1467	0.4315
1476	0.6157
1485	0.8107
1494	0.8218
1503	0.8297
1512	0.8342
1521	0.8375
1530	0.8393
1539	0.8403
1548	0.841
1557	0.8418
1566	0.8425
1575	0.8431
1584	0.8425
1593	0.842
1602	0.8407
1611	0.8368
1620	0.8315
1629	0.824
1638	0.8117
1647	0.8054
1656	0.8193
1665	0.8397
1674	0.8146
1683	0.8518
1692	0.8535
1701	0.8577
1710	0.8605
1719	0.8628
1728	0.8653
1737	0.8675
1746	0.8688
1755	0.8693
1764	0.8703
1773	0.8709
1782	0.8715
1791	0.8715
1800	0.8708
1809	0.87
1818	0.8694
1827	0.8688
1836	0.8683
1845	0.8674
1854	0.8663
1863	0.8653
1872	0.864
1881	0.8625
1890	0.862
1899	0.8649
1908	0.8677
1917	0.866
1926	0.8646
1935	0.8644
1944	0.8654
1953	0.8678
1962	0.8702
1971	0.8704
1980	0.8675
1989	0.8751
1998	0.8736
2007	0.8731
2016	0.8778
2025	0.8814
2034	0.881
2043	0.8806
2052	0.8803
2061	0.8797
2070	0.8786
2079	0.8773
2088	0.8756
2097	0.8738
2106	0.8715
2115	0.8692
2124	0.8668
2133	0.8641
2142	0.8612
2151	0.8582
2160	0.8553
2169	0.8525
2178	0.8578
2187	0.8482
2196	0.8415
2205	0.8382
2214	0.8338
2223	0.8284
2232	0.8221
2241	0.8171
2250	0.8122
2259	0.808
2268	0.8046
2277	0.8028
2286	0.8022
2295	0.8037
2304	0.8055
2313	0.8078
2322	0.8103
2331	0.8131
2340	0.8164
2349	0.8197
2358	0.8224
2367	0.8245
2376	0.8264
2385	0.8273
2394	0.828
2403	0.8291
2412	0.8311
2421	0.8337
2430	0.836
2439	0.8375
2448	0.8392
2457	0.8398
2466	0.8404
2475	0.8408
2484	0.8413
2493	0.8416
2502	0.8418
2511	0.8421
2520	0.8421
2529	0.8421
2538	0.8417
2547	0.8411
2556	0.8401
2565	0.8377
2574	0.8355
2583	0.8325
2592	0.8294
2601	0.826
2610	0.8228
2619	0.8197
2628	0.8171
2637	0.8157
2646	0.8155
2655	0.8153
2664	0.815
2673	0.814
2682	0.8128
2691	0.8108
2700	0.8067
2709	0.8008
2718	0.795
2727	0.789
2736	0.7831
2745	0.7765
2754	0.7688
2763	0.7593
2772	0.7457
2781	0.7291
2790	0.7089
2799	0.6835
2808	0.6569
2817	0.6239
2826	0.5668
2835	0.4758
2844	0.2642
2853	0.0646
2862	0.3055
2871	0.4276
2880	0.408
2889	0.3172
2898	0.2158
2907	0.1142
2916	0.0277
2925	0.028
2934	0.1765
2943	0.3988
2952	0.4507
2961	0.4555
2970	0.6917
2979	0.7718
2988	0.8316
2997	0.8441
3006	0.8488
3015	0.8517
3024	0.8541
3033	0.8563
3042	0.8584
3051	0.8603
3060	0.862
3069	0.8628
3078	0.8639
3087	0.8652
3096	0.8667
3105	0.8663
3114	0.866
3123	0.8655
3132	0.8645
3141	0.8634
3150	0.862
3159	0.86
3168	0.858
3177	0.856
3186	0.854
3195	0.8518
3204	0.8496
3213	0.8471
3222	0.845
3231	0.8416
3240	0.8381
3249	0.8345
3258	0.8309
3267	0.8271
3276	0.8236
3285	0.8199
3294	0.8167
3303	0.8136
3312	0.8106
3321	0.8072
3330	0.8026
3339	0.7981
3348	0.7934
3357	0.7867
3366	0.7801
3375	0.7715
3384	0.7618
3393	0.7486
3402	0.7341
3411	0.7182
3420	0.7095
3429	0.7105
3438	0.7148
3447	0.7212
3456	0.729
3465	0.7415
3474	0.7556
3483	0.7688
3492	0.7808
3501	0.7901
3510	0.7974
3519	0.8008
3528	0.8039
3537	0.8056
3546	0.8071
3555	0.8075
3564	0.8082
3573	0.8086
3582	0.8093
3591	0.8106
3600	0.8118
3609	0.8128
3618	0.8139
3627	0.8146
3636	0.8153
3645	0.8158
3654	0.8158
3663	0.8156
3672	0.8155
3681	0.8154
3690	0.8146
3699	0.8138
3708	0.8128
3717	0.8119
3726	0.8111
3735	0.81
3744	0.8088
3753	0.8075
3762	0.8064
3771	0.8053
3780	0.8043
3789	0.8034
3798	0.8026
