Infrared Spectrum: 10-[3-(1-METHYL-4-PIPERAZINYL)-2-METHYLPROPYL]-2-TRIFLUOROMETHYLPHENOTHIAZINE, DIHYDROCHLORIDE
Formula: C22 H28 Cl2 F3 N3 S
State: SOLID (KBr DISC)
Class: COBLENTZ III
Instrument: Not specified, most likely a prism spectrometer.
Instrument parameters: NaCl PRISM
Sampling: TRANSMISSION
Resolution: 2
Origin: SMITH KLINE & FRENCH LABS.
MICROMETERS	TRANSMITTANCE
2	0.601
2.03433	0.602
2.06865	0.604
2.10298	0.609
2.13731	0.617
2.17163	0.625
2.20596	0.632
2.24029	0.629
2.27461	0.613
2.30894	0.628
2.34327	0.639
2.3776	0.646
2.41192	0.652
2.44625	0.66
2.48058	0.668
2.5149	0.676
2.54923	0.681
2.58356	0.681
2.61788	0.698
2.65221	0.709
2.68654	0.715
2.72086	0.715
2.75519	0.712
2.78952	0.708
2.82384	0.691
2.85817	0.68
2.8925	0.668
2.92683	0.665
2.96115	0.669
2.99548	0.703
3.02981	0.719
3.06413	0.736
3.09846	0.74
3.13279	0.741
3.16711	0.741
3.20144	0.739
3.23577	0.73
3.27009	0.621
3.30442	0.634
3.33875	0.535
3.37307	0.245
3.4074	0.359
3.44173	0.404
3.47606	0.434
3.51038	0.484
3.54471	0.573
3.57904	0.607
3.61336	0.6
3.64769	0.562
3.68202	0.526
3.71634	0.469
3.75067	0.397
3.785	0.319
3.81932	0.313
3.85365	0.318
3.88798	0.234
3.9223	0.198
3.95663	0.212
3.99096	0.2
4.02529	0.202
4.05961	0.201
4.09394	0.169
4.12827	0.159
4.16259	0.158
4.19692	0.156
4.23125	0.118
4.26557	0.132
4.2999	0.169
4.33423	0.203
4.36855	0.23
4.40288	0.265
4.43721	0.302
4.47153	0.339
4.50586	0.356
4.54019	0.396
4.57452	0.434
4.60884	0.476
4.64317	0.518
4.6775	0.552
4.71182	0.573
4.74615	0.601
4.78048	0.621
4.8148	0.643
4.84913	0.665
4.88346	0.678
4.91778	0.698
4.95211	0.714
4.98644	0.726
5.02076	0.735
5.05509	0.739
5.08942	0.742
5.12375	0.745
5.15807	0.753
5.1924	0.758
5.22673	0.762
5.26105	0.751
5.29538	0.751
5.32971	0.774
5.36403	0.782
5.39836	0.792
5.43269	0.798
5.46701	0.8
5.50134	0.801
5.53567	0.801
5.56999	0.795
5.60432	0.796
5.63865	0.797
5.67298	0.797
5.7073	0.792
5.74163	0.795
5.77596	0.802
5.81028	0.809
5.84461	0.814
5.87894	0.815
5.91326	0.817
5.94759	0.815
5.98192	0.813
6.01624	0.809
6.05057	0.8
6.0849	0.787
6.11922	0.785
6.15355	0.78
6.18788	0.746
6.22221	0.551
6.25653	0.475
6.29086	0.697
6.32519	0.712
6.35951	0.619
6.39384	0.66
6.42817	0.764
6.46249	0.778
6.49682	0.786
6.53115	0.789
6.56547	0.782
6.5998	0.76
6.63413	0.745
6.66845	0.673
6.70278	0.435
6.73711	0.471
6.77144	0.259
6.80576	0.176
6.84009	0.21
6.87442	0.217
6.90874	0.198
6.94307	0.319
6.9774	0.278
7.01172	0.05
7.04605	0.106
7.08038	0.295
7.1147	0.408
7.14903	0.397
7.18336	0.368
7.21768	0.368
7.25201	0.457
7.28634	0.602
7.32067	0.651
7.35499	0.612
7.38932	0.465
7.42365	0.242
7.45797	0.086
7.4923	0.046
7.52663	0.087
7.56095	0.167
7.59528	0.207
7.62961	0.35
7.66393	0.386
7.69826	0.341
7.73259	0.171
7.76691	0.331
7.80124	0.441
7.83557	0.481
7.8699	0.342
7.90422	0.45
7.93855	0.5
7.97288	0.407
8.0072	0.104
8.04153	0.064
8.07586	0.187
8.11018	0.21
8.14451	0.33
8.17884	0.496
8.21316	0.58
8.24749	0.635
8.28182	0.641
8.31614	0.62
8.35047	0.64
8.3848	0.613
8.41912	0.639
8.45345	0.631
8.48778	0.565
8.52211	0.46
8.55643	0.303
8.59076	0.132
8.62509	0.064
8.65941	0.165
8.69374	0.253
8.72807	0.156
8.76239	0.154
8.79672	0.191
8.83105	0.239
8.86537	0.2
8.8997	0.162
8.93403	0.12
8.96835	0.059
9.00268	0.047
9.03701	0.047
9.07134	0.11
9.10566	0.229
9.13999	0.343
9.17432	0.335
9.20864	0.303
9.24297	0.291
9.2773	0.181
9.31162	0.154
9.34595	0.17
9.38028	0.3
9.4146	0.395
9.44893	0.479
9.48326	0.508
9.51758	0.502
9.55191	0.497
9.58624	0.604
9.62057	0.623
9.65489	0.426
9.68922	0.519
9.72355	0.617
9.75787	0.452
9.7922	0.334
9.82653	0.507
9.86085	0.623
9.89518	0.669
9.92951	0.703
9.96383	0.723
9.99816	0.74
10.0325	0.746
10.0668	0.757
10.1011	0.756
10.1355	0.748
10.1698	0.741
10.2041	0.728
10.2384	0.64
10.2728	0.47
10.3071	0.242
10.3414	0.2
10.3758	0.269
10.4101	0.376
10.4444	0.364
10.4787	0.368
10.5131	0.539
10.5474	0.623
10.5817	0.617
10.616	0.67
10.6504	0.676
10.6847	0.667
10.719	0.523
10.7534	0.562
10.7877	0.645
10.822	0.67
10.8563	0.569
10.8907	0.418
10.925	0.47
10.9593	0.573
10.9936	0.648
11.028	0.686
11.0623	0.652
11.0966	0.624
11.1309	0.67
11.1653	0.726
11.1996	0.745
11.2339	0.751
11.2683	0.753
11.3026	0.753
11.3369	0.746
11.3712	0.708
11.4056	0.502
11.4399	0.28
11.4742	0.52
11.5085	0.665
11.5429	0.715
11.5772	0.75
11.6115	0.726
11.6459	0.732
11.6802	0.754
11.7145	0.751
11.7488	0.701
11.7832	0.735
11.8175	0.759
11.8518	0.779
11.8861	0.78
11.9205	0.762
11.9548	0.728
11.9891	0.736
12.0234	0.739
12.0578	0.736
12.0921	0.645
12.1264	0.44
12.1608	0.196
12.1951	0.312
12.2294	0.484
12.2637	0.635
12.2981	0.715
12.3324	0.748
12.3667	0.76
12.401	0.786
12.4354	0.798
12.4697	0.8
12.504	0.798
12.5383	0.78
12.5727	0.779
12.607	0.798
12.6413	0.804
12.6757	0.814
12.71	0.819
12.7443	0.821
12.7786	0.819
12.813	0.814
12.8473	0.8
12.8816	0.789
12.9159	0.798
12.9503	0.8
12.9846	0.792
13.0189	0.776
13.0533	0.748
13.0876	0.687
13.1219	0.508
13.1562	0.401
13.1906	0.532
13.2249	0.563
13.2592	0.55
13.2935	0.419
13.3279	0.252
13.3622	0.136
13.3965	0.107
13.4308	0.296
13.4652	0.481
13.4995	0.608
13.5338	0.671
13.5682	0.703
13.6025	0.67
13.6368	0.614
13.6711	0.698
13.7055	0.74
13.7398	0.76
13.7741	0.779
13.8084	0.74
13.8428	0.576
13.8771	0.601
13.9114	0.725
13.9458	0.775
13.9801	0.784
14.0144	0.791
14.0487	0.797
14.0831	0.802
14.1174	0.801
14.1517	0.801
14.186	0.792
14.2204	0.746
14.2547	0.742
14.289	0.748
14.3233	0.765
14.3577	0.796
14.392	0.8
14.4263	0.8
14.4607	0.81
14.495	0.815
14.5293	0.814
14.5636	0.81
14.598	0.804
14.6323	0.802
14.6666	0.795
14.7009	0.778
14.7353	0.754
14.7696	0.745
