Infrared Spectrum: 2,4-DIMETHOXYBENZOYL FERROCENE
Formula: C19 H18 O3 Fe
State: SOLID (MINERAL OIL MULL)
Melting point: 133.5-133.8 C
Class: COBLENTZ
Instrument: Not specified, most likely a prism, grating, or hybrid spectrometer.
Sampling: TRANSMISSION
Resolution: 4
Origin: WYANDOTTE CHEMICALS CORP., WYANDOTTE, MICHIGAN, USA
MICROMETERS	TRANSMITTANCE
2.02	0.536
2.06084	0.541
2.10168	0.55
2.14251	0.558
2.18335	0.553
2.22419	0.557
2.26503	0.562
2.30587	0.579
2.3467	0.589
2.38754	0.589
2.42838	0.608
2.46922	0.601
2.51006	0.613
2.55089	0.63
2.59173	0.632
2.63257	0.641
2.67341	0.641
2.71425	0.639
2.75508	0.639
2.79592	0.634
2.83676	0.632
2.8776	0.63
2.91844	0.63
2.95927	0.63
3.00011	0.637
3.04095	0.642
3.08179	0.642
3.12263	0.639
3.16346	0.642
3.2043	0.617
3.24514	0.558
3.28598	0.608
3.32682	0.365
3.36765	0.032
3.40849	0.032
3.44933	0.07
3.49017	0.095
3.53101	0.271
3.57185	0.7
3.61268	0.75
3.65352	0.764
3.69436	0.75
3.7352	0.767
3.77604	0.782
3.81687	0.781
3.85771	0.798
3.89855	0.81
3.93939	0.83
3.98023	0.82
4.02106	0.834
4.0619	0.832
4.10274	0.841
4.14358	0.842
4.18442	0.847
4.22525	0.849
4.26609	0.825
4.30693	0.841
4.34777	0.861
4.38861	0.883
4.42944	0.882
4.47028	0.88
4.51112	0.875
4.55196	0.88
4.5928	0.89
4.63363	0.894
4.67447	0.899
4.71531	0.89
4.75615	0.902
4.79699	0.912
4.83782	0.912
4.87866	0.912
4.9195	0.89
4.96034	0.907
5.00118	0.919
5.04201	0.923
5.08285	0.924
5.12369	0.929
5.16453	0.929
5.20537	0.931
5.2462	0.928
5.28704	0.929
5.32788	0.926
5.36872	0.94
5.40956	0.941
5.45039	0.941
5.49123	0.933
5.53207	0.929
5.57291	0.912
5.61375	0.902
5.65458	0.909
5.69542	0.909
5.73626	0.888
5.7771	0.887
5.81794	0.868
5.85877	0.842
5.89961	0.827
5.94045	0.765
5.98129	0.69
6.02213	0.535
6.06296	0.023
6.1038	0.324
6.14464	0.471
6.18548	0.052
6.22632	0.374
6.26716	0.425
6.30799	0.48
6.34883	0.641
6.38967	0.753
6.43051	0.752
6.47135	0.8
6.51218	0.796
6.55302	0.704
6.59386	0.511
6.6347	0.639
6.67554	0.666
6.71637	0.591
6.75721	0.247
6.79805	0.176
6.83889	0.105
6.87973	0.075
6.92056	0.21
6.9614	0.552
7.00224	0.637
7.04308	0.495
7.08392	0.504
7.12475	0.618
7.16559	0.652
7.20643	0.509
7.24727	0.208
7.28811	0.502
7.32894	0.647
7.36978	0.627
7.41062	0.623
7.45146	0.639
7.4923	0.729
7.53313	0.581
7.57397	0.169
7.61481	0.347
7.65565	0.519
7.69649	0.201
7.73732	0.488
7.77816	0.494
7.819	0.179
7.85984	0.051
7.90068	0.184
7.94151	0.492
7.98235	0.611
8.02319	0.695
8.06403	0.728
8.10487	0.723
8.1457	0.601
8.18654	0.234
8.22738	0.174
8.26822	0.488
8.30906	0.699
8.34989	0.697
8.39073	0.521
8.43157	0.591
8.47241	0.705
8.51325	0.47
8.55408	0.582
8.59492	0.748
8.63576	0.808
8.6766	0.818
8.71744	0.827
8.75827	0.87
8.79911	0.875
8.83995	0.818
8.88079	0.605
8.92163	0.246
8.96247	0.637
9.0033	0.57
9.04414	0.774
9.08498	0.822
9.12582	0.856
9.16666	0.864
9.20749	0.868
9.24833	0.876
9.28917	0.87
9.33001	0.859
9.37085	0.851
9.41168	0.811
9.45252	0.704
9.49336	0.487
9.5342	0.365
9.57504	0.671
9.61587	0.594
9.65671	0.271
9.69755	0.088
9.73839	0.193
9.77923	0.2
9.82006	0.547
9.8609	0.688
9.90174	0.723
9.94258	0.682
9.98342	0.639
10.0243	0.714
10.0651	0.788
10.1059	0.829
10.1468	0.851
10.1876	0.851
10.2284	0.854
10.2693	0.852
10.3101	0.856
10.351	0.849
10.3918	0.839
10.4326	0.721
10.4735	0.521
10.5143	0.709
10.5551	0.774
10.596	0.709
10.6368	0.803
10.6777	0.822
10.7185	0.717
10.7593	0.608
10.8002	0.728
10.841	0.829
10.8819	0.856
10.9227	0.863
10.9635	0.87
11.0044	0.89
11.0452	0.895
11.086	0.892
11.1269	0.888
11.1677	0.883
11.2086	0.887
11.2494	0.895
11.2902	0.899
11.3311	0.9
11.3719	0.895
11.4127	0.885
11.4536	0.823
11.4944	0.777
11.5353	0.818
11.5761	0.823
11.6169	0.794
11.6578	0.654
11.6986	0.504
11.7395	0.405
11.7803	0.241
11.8211	0.22
11.862	0.314
11.9028	0.374
11.9436	0.446
11.9845	0.514
12.0253	0.5
12.0662	0.369
12.107	0.17
12.1478	0.205
12.1887	0.362
12.2295	0.417
12.2703	0.485
12.3112	0.603
12.352	0.699
12.3929	0.776
12.4337	0.817
12.4745	0.834
12.5154	0.849
12.5562	0.851
12.597	0.846
12.6379	0.852
12.6787	0.866
12.7196	0.876
12.7604	0.866
12.8012	0.846
12.8421	0.738
12.8829	0.516
12.9238	0.444
12.9646	0.417
13.0054	0.608
13.0463	0.779
13.0871	0.83
13.1279	0.851
13.1688	0.858
13.2096	0.87
13.2505	0.871
13.2913	0.876
13.3321	0.882
13.373	0.888
13.4138	0.883
13.4546	0.871
13.4955	0.866
13.5363	0.849
13.5772	0.788
13.618	0.709
13.6588	0.694
13.6997	0.752
13.7405	0.801
13.7814	0.825
13.8222	0.832
13.863	0.83
13.9039	0.827
13.9447	0.823
13.9855	0.798
14.0264	0.733
14.0672	0.712
14.1081	0.767
14.1489	0.834
14.1897	0.871
14.2306	0.885
14.2714	0.902
14.3122	0.902
14.3531	0.905
14.3939	0.907
14.4348	0.9
14.4756	0.895
14.5164	0.895
14.5573	0.897
14.5981	0.9
14.639	0.899
14.6798	0.892
14.7206	0.887
14.7615	0.88
14.8023	0.88
14.8431	0.871
14.884	0.87
14.9248	0.864
14.9657	0.858
15.0065	0.82
15.0473	0.772
15.0882	0.782
15.129	0.825
15.1698	0.841
15.2107	0.827
15.2515	0.815
15.2924	0.796
15.3332	0.779
15.374	0.764
15.4149	0.75
15.4557	0.723
15.4965	0.675
15.5374	0.641
15.5782	0.611
15.6191	0.603
15.6599	0.618
15.7007	0.642
15.7416	0.652
15.7824	0.654
15.8233	0.649
15.8641	0.647
15.9049	0.627
15.9458	0.61
