Infrared Spectrum: Selenium, chlorotriphenyl-, hydrate
Formula: C18 H15 Cl Se
State: SOLID (SPLIT MULL), FLUOROLUBE FOR 3800-1330 CM^-^1, NUJOL FOR 1330-470 CM^-^1
Class: COBLENTZ III
Instrument: DOW KBr FOREPRISM-GRATING
Instrument parameters: BLAZED AT 3.5, 12.0, 20.0 MICRON AND CHANGED AT 5.0, 7.5, 14.9 MICRON
Sampling: TRANSMISSION
Resolution: 2
Origin: DOW CHEMICAL COMPANY
1/CM	TRANSMITTANCE
481	0.5703
490	0.5388
499	0.5207
508	0.526
517	0.5508
526	0.5703
535	0.583
544	0.5906
553	0.6021
562	0.6182
571	0.6344
580	0.6464
589	0.6543
598	0.6538
607	0.6355
616	0.6527
625	0.6793
634	0.6876
643	0.6948
652	0.6901
661	0.6383
670	0.6167
679	0.5675
688	0.2975
697	0.6799
706	0.6778
715	0.6426
724	0.5925
733	0.5849
742	0.5383
751	0.0943
760	0.2113
769	0.6672
778	0.7221
787	0.7191
796	0.7207
805	0.7492
814	0.7793
823	0.7879
832	0.7861
841	0.7592
850	0.756
859	0.776
868	0.7917
877	0.7899
886	0.7845
895	0.7811
904	0.7786
913	0.7642
922	0.7546
931	0.7558
940	0.7657
949	0.7641
958	0.7578
967	0.7476
976	0.728
985	0.7322
994	0.5754
1003	0.7403
1012	0.7221
1021	0.6453
1030	0.7696
1039	0.7637
1048	0.7531
1057	0.6701
1066	0.7148
1075	0.7586
1084	0.7653
1093	0.7635
1102	0.773
1111	0.7787
1120	0.777
1129	0.7757
1138	0.7733
1147	0.7562
1156	0.7207
1165	0.7393
1174	0.7414
1183	0.6013
1192	0.6794
1201	0.7559
1210	0.7528
1219	0.7488
1228	0.7434
1237	0.7374
1246	0.7324
1255	0.7266
1264	0.7161
1273	0.6897
1282	0.6457
1291	0.6987
1300	0.6733
1309	0.639
1318	0.6279
1327	0.6726
1336	0.6542
1345	0.6889
1354	0.7607
1363	0.76
1372	0.7538
1381	0.7484
1390	0.7498
1399	0.7122
1408	0.6714
1417	0.6929
1426	0.697
1435	0.6349
1444	0.0733
1453	0.7916
1462	0.7102
1471	0.302
1480	0.2431
1489	0.5163
1498	0.88
1507	0.8661
1516	0.8505
1525	0.8366
1534	0.8219
1543	0.8128
1552	0.8047
1561	0.7835
1570	0.719
1579	0.6326
1588	0.7411
1597	0.6672
1606	0.5862
1615	0.4863
1624	0.4907
1633	0.5327
1642	0.6218
1651	0.6383
1660	0.6079
1669	0.5754
1678	0.6601
1687	0.7386
1696	0.7659
1705	0.7762
1714	0.7781
1723	0.7774
1732	0.7742
1741	0.7793
1750	0.7748
1759	0.7597
1768	0.74
1777	0.7392
1786	0.7595
1795	0.7606
1804	0.7521
1813	0.7337
1822	0.7133
1831	0.718
1840	0.7329
1849	0.7322
1858	0.7231
1867	0.7297
1876	0.7332
1885	0.7223
1894	0.6996
1903	0.6699
1912	0.6866
1921	0.7029
1930	0.6908
1939	0.6903
1948	0.6932
1957	0.6916
1966	0.6915
1975	0.6687
1984	0.6433
1993	0.6489
2002	0.6571
2011	0.6504
2020	0.6317
2029	0.6458
2038	0.6607
2047	0.6568
2056	0.6517
2065	0.6443
2074	0.6361
2083	0.629
2092	0.6223
2101	0.6156
2110	0.6096
2119	0.6054
2128	0.6025
2137	0.5999
2146	0.598
2155	0.5961
2164	0.5935
2173	0.5876
2182	0.5815
2191	0.5749
2200	0.5703
2209	0.5652
2218	0.5598
2227	0.5543
2236	0.5485
2245	0.5425
2254	0.537
2263	0.5315
2272	0.5276
2281	0.524
2290	0.5204
2299	0.5161
2308	0.5118
2317	0.5066
2326	0.501
2335	0.4981
2344	0.4956
2353	0.493
2362	0.4923
2371	0.4918
2380	0.4914
2389	0.4907
2398	0.4901
2407	0.4885
2416	0.4864
2425	0.4836
2434	0.4807
2443	0.4778
2452	0.4749
2461	0.472
2470	0.4691
2479	0.4661
2488	0.4633
2497	0.4599
2506	0.4562
2515	0.4526
2524	0.4489
2533	0.4453
2542	0.4418
2551	0.4382
2560	0.4347
2569	0.4313
2578	0.4285
2587	0.4256
2596	0.4228
2605	0.4196
2614	0.4166
2623	0.4129
2632	0.4092
2641	0.4064
2650	0.4054
2659	0.4015
2668	0.3979
2677	0.3953
2686	0.3922
2695	0.3891
2704	0.3858
2713	0.3822
2722	0.3787
2731	0.3748
2740	0.3709
2749	0.367
2758	0.3634
2767	0.3601
2776	0.3568
2785	0.3533
2794	0.3499
2803	0.3463
2812	0.3423
2821	0.3382
2830	0.3341
2839	0.3285
2848	0.323
2857	0.3174
2866	0.3112
2875	0.3046
2884	0.298
2893	0.2912
2902	0.2846
2911	0.278
2920	0.2714
2929	0.2645
2938	0.2572
2947	0.2541
2956	0.2523
2965	0.2495
2974	0.2455
2983	0.2375
2992	0.223
3001	0.1824
3010	0.188
3019	0.1961
3028	0.2031
3037	0.2011
3046	0.1597
3055	0.1614
3064	0.1852
3073	0.2041
3082	0.1952
3091	0.1975
3100	0.2154
3109	0.2189
3118	0.2171
3127	0.2107
3136	0.2041
3145	0.1964
3154	0.1879
3163	0.1795
3172	0.1711
3181	0.1628
3190	0.1548
3199	0.149
3208	0.1438
3217	0.1381
3226	0.129
3235	0.1199
3244	0.1123
3253	0.1047
3262	0.097
3271	0.0892
3280	0.0814
3289	0.0736
3298	0.0657
3307	0.0593
3316	0.0533
3325	0.0478
3334	0.0427
3343	0.0376
3352	0.0339
3361	0.0308
3370	0.0291
3379	0.0293
3388	0.0306
3397	0.0343
3406	0.0419
3415	0.0514
3424	0.0614
3433	0.0732
3442	0.0819
3451	0.0848
3460	0.0835
3469	0.0821
3478	0.0819
3487	0.0847
3496	0.0926
3505	0.1033
3514	0.1154
3523	0.1318
3532	0.1485
3541	0.1641
3550	0.1829
3559	0.1994
3568	0.2138
3577	0.226
3586	0.2346
3595	0.2417
3604	0.2467
3613	0.2497
3622	0.251
3631	0.2508
3640	0.2496
3649	0.2483
3658	0.2472
3667	0.2456
3676	0.2436
3685	0.2416
3694	0.2391
3703	0.236
3712	0.233
3721	0.2302
3730	0.2276
3739	0.225
3748	0.2225
3757	0.2199
3766	0.2174
3775	0.2151
3784	0.213
3793	0.211
