Infrared Spectrum: ULTRAMARINE BLUE
Formula: Si O2
State: SOLID (0.8 mg / 300 mg CsI DISC)
Class: COBLENTZ
Instrument: Not specified, most likely a grating spectrometer.
Sampling: TRANSMISSION
Resolution: 4
Origin: DESOTO CHEMICAL COATINGS, INC.
1/CM	TRANSMITTANCE
200	0.757
210.651	0.754
221.302	0.762
231.953	0.773
242.604	0.794
253.255	0.804
263.905	0.808
274.556	0.812
285.207	0.812
295.858	0.813
306.509	0.809
317.16	0.806
327.811	0.802
338.462	0.8
349.113	0.79
359.764	0.781
370.415	0.77
381.065	0.744
391.716	0.7
402.367	0.639
413.018	0.576
423.669	0.511
434.32	0.468
444.971	0.348
455.622	0.35
466.273	0.47
476.924	0.6689
487.574	0.794
498.225	0.869
508.876	0.9
519.527	0.91
530.178	0.918
540.829	0.921
551.48	0.918
562.131	0.921
572.782	0.917
583.433	0.893
594.084	0.901
604.734	0.914
615.385	0.92
626.036	0.918
636.687	0.918
647.338	0.889
657.989	0.801
668.64	0.786
679.291	0.806
689.942	0.789
700.593	0.774
711.244	0.789
721.894	0.802
732.545	0.842
743.196	0.88
753.847	0.901
764.498	0.92
775.149	0.93
785.8	0.942
796.451	0.952
807.102	0.948
817.753	0.95
828.403	0.953
839.054	0.946
849.705	0.941
860.356	0.936
871.007	0.93
881.658	0.926
892.309	0.922
902.96	0.918
913.611	0.912
924.262	0.892
934.913	0.864
945.563	0.821
956.214	0.7091
966.865	0.5481
977.516	0.375
988.167	0.26
998.818	0.174
1009.47	0.135
1020.12	0.137
1030.77	0.155
1041.42	0.193
1052.07	0.241
1062.72	0.3319
1073.37	0.414
1084.03	0.484
1094.68	0.531
1105.33	0.572
1115.98	0.609
1126.63	0.644
1137.28	0.679
1147.93	0.708
1158.58	0.74
1169.23	0.776
1179.88	0.809
1190.53	0.842
1201.19	0.868
1211.84	0.88
1222.49	0.89
1233.14	0.898
1243.79	0.902
1254.44	0.906
1265.09	0.913
1275.74	0.914
1286.39	0.913
1297.04	0.916
1307.69	0.914
1318.35	0.918
1329	0.91
1339.65	0.917
1350.3	0.916
1360.95	0.916
1371.6	0.914
1382.25	0.916
1392.9	0.917
1403.55	0.914
1414.2	0.913
1424.85	0.91
1435.51	0.914
1446.16	0.914
1456.81	0.912
1467.46	0.916
1478.11	0.917
1488.76	0.916
1499.41	0.917
1510.06	0.912
1520.71	0.912
1531.36	0.913
1542.01	0.906
1552.67	0.906
1563.32	0.901
1573.97	0.898
1584.62	0.889
1595.27	0.877
1605.92	0.857
1616.57	0.848
1627.22	0.848
1637.87	0.861
1648.52	0.868
1659.17	0.876
1669.83	0.881
1680.48	0.886
1691.13	0.89
1701.78	0.892
1712.43	0.896
1723.08	0.897
1733.73	0.898
1744.38	0.902
1755.03	0.901
1765.68	0.901
1776.33	0.901
1786.99	0.902
1797.64	0.901
1808.29	0.9
1818.94	0.902
1829.59	0.9
1840.24	0.901
1850.89	0.902
1861.54	0.896
1872.19	0.9
1882.84	0.898
1893.49	0.898
1904.15	0.896
1914.8	0.897
1925.45	0.893
1936.1	0.894
1946.75	0.892
1957.4	0.892
1968.05	0.894
1978.7	0.892
1989.35	0.89
2000	0.892
2010.65	0.894
2021.31	0.896
2031.96	0.893
2042.61	0.896
2053.26	0.894
2063.91	0.893
2074.56	0.892
2085.21	0.89
2095.86	0.889
2106.51	0.889
2117.16	0.889
2127.81	0.888
2138.46	0.8891
2149.12	0.8901
2159.77	0.892
2170.42	0.89
2181.07	0.89
2191.72	0.889
2202.37	0.8889
2213.02	0.888
2223.67	0.888
2234.32	0.888
2244.97	0.8889
2255.62	0.8859
2266.28	0.8838
2276.93	0.8822
2287.58	0.885
2298.23	0.886
2308.88	0.885
2319.53	0.882
2330.18	0.884
2340.83	0.881
2351.48	0.882
2362.13	0.8848
2372.78	0.8808
2383.44	0.884
2394.09	0.8808
2404.74	0.8756
2415.39	0.873
2426.04	0.8722
2436.69	0.874
2447.34	0.8704
2457.99	0.87
2468.64	0.866
2479.29	0.8688
2489.94	0.866
2500.6	0.8664
2511.25	0.866
2521.9	0.865
2532.55	0.865
2543.2	0.8635
2553.85	0.86
2564.5	0.86
2575.15	0.8585
2585.8	0.86
2596.45	0.8603
2607.1	0.86
2617.76	0.8595
2628.41	0.8567
2639.06	0.856
2649.71	0.857
2660.36	0.853
2671.01	0.854
2681.66	0.8537
2692.31	0.8514
2702.96	0.848
2713.61	0.853
2724.26	0.8474
2734.92	0.8457
2745.57	0.845
2756.22	0.845
2766.87	0.845
2777.52	0.845
2788.17	0.842
2798.82	0.8416
2809.47	0.842
2820.12	0.84
2830.77	0.838
2841.42	0.8366
2852.08	0.834
2862.73	0.832
2873.38	0.8296
2884.03	0.8286
2894.68	0.826
2905.33	0.8246
2915.98	0.822
2926.63	0.8192
2937.28	0.8164
2947.93	0.8176
2958.58	0.8151
2969.24	0.8164
2979.89	0.817
2990.54	0.816
3001.19	0.8151
3011.84	0.8136
3022.49	0.8111
3033.14	0.809
3043.79	0.8071
3054.44	0.8055
3065.09	0.804
3075.74	0.8015
3086.4	0.8
3097.05	0.801
3107.7	0.798
3118.35	0.797
3129	0.795
3139.65	0.791
3150.3	0.789
3160.95	0.788
3171.6	0.786
3182.25	0.784
3192.9	0.781
3203.56	0.7784
3214.21	0.773
3224.86	0.772
3235.51	0.7695
3246.16	0.7629
3256.81	0.761
3267.46	0.7589
3278.11	0.7564
3288.76	0.7529
3299.41	0.749
3310.06	0.7444
3320.72	0.739
3331.37	0.7338
3342.02	0.7274
3352.67	0.7234
3363.32	0.7138
3373.97	0.7038
3384.62	0.6978
3395.27	0.6918
3405.92	0.6812
3416.57	0.676
3427.22	0.6691
3437.88	0.6634
3448.53	0.6594
3459.18	0.657
3469.83	0.656
3480.48	0.659
3491.13	0.6647
3501.78	0.6687
3512.43	0.671
3523.08	0.675
3533.73	0.6783
3544.38	0.6807
3555.04	0.6877
3565.69	0.6984
3576.34	0.7075
3586.99	0.7127
3597.64	0.719
3608.29	0.7304
3618.94	0.7384
3629.59	0.7444
3640.24	0.7519
3650.89	0.758
3661.54	0.758
3672.2	0.765
3682.85	0.7625
3693.5	0.76
3704.15	0.764
3714.8	0.766
3725.45	0.768
3736.1	0.768
3746.75	0.766
3757.4	0.764
3768.05	0.764
3778.7	0.762
3789.36	0.7624
3800.01	0.761
3810.66	0.7636
3821.31	0.764
3831.96	0.762
3842.61	0.764
3853.26	0.7612
3863.91	0.76
3874.56	0.7597
3885.21	0.7583
3895.86	0.757
3906.52	0.757
3917.17	0.756
3927.82	0.756
3938.47	0.757
3949.12	0.756
3959.77	0.7531
3970.42	0.754
3981.07	0.753
