Infrared Spectrum: Copper-3-phenylsalicylate
Formula: C26 H18 O6 Cu
State: SOLID (SPLIT MULL), FLUOROLUBE FOR 3800-1330 CM^-^1, NUJOL FOR 1330-400 CM^-^1
Class: COBLENTZ III
Instrument: BECKMAN IR-9 (GRATING)
Instrument parameters: ORDER CHANGES: 670, 1200, 2000 CM^-^1
Sampling: TRANSMISSION
Resolution: 2
Origin: DOW CHEMICAL COMPANY
1/CM	TRANSMITTANCE
3810	0.7635
3801	0.764
3792	0.7647
3783	0.7657
3774	0.7668
3765	0.7682
3756	0.7698
3747	0.7711
3738	0.7722
3729	0.7734
3720	0.7741
3711	0.7743
3702	0.7746
3693	0.7717
3684	0.7678
3675	0.76
3666	0.7515
3657	0.7426
3648	0.7348
3639	0.7275
3630	0.7203
3621	0.7158
3612	0.7118
3603	0.7081
3594	0.7046
3585	0.7011
3576	0.6976
3567	0.6948
3558	0.6918
3549	0.689
3540	0.6864
3531	0.6844
3522	0.6822
3513	0.6803
3504	0.6784
3495	0.6768
3486	0.6753
3477	0.6737
3468	0.6721
3459	0.6706
3450	0.669
3441	0.6676
3432	0.6667
3423	0.6656
3414	0.6646
3405	0.6636
3396	0.6625
3387	0.6617
3378	0.6607
3369	0.6598
3360	0.6589
3351	0.6558
3342	0.6526
3333	0.6493
3324	0.6454
3315	0.6405
3306	0.6357
3297	0.6308
3288	0.6258
3279	0.6205
3270	0.6153
3261	0.6095
3252	0.6033
3243	0.5971
3234	0.5914
3225	0.5862
3216	0.5829
3207	0.5809
3198	0.5818
3189	0.5828
3180	0.5842
3171	0.5856
3162	0.5866
3153	0.5872
3144	0.5875
3135	0.5873
3126	0.5859
3117	0.5807
3108	0.5746
3099	0.5731
3090	0.573
3081	0.5682
3072	0.5624
3063	0.5655
3054	0.5722
3045	0.5719
3036	0.5893
3027	0.6077
3018	0.6212
3009	0.6318
3000	0.6407
2991	0.6475
2982	0.653
2973	0.6576
2964	0.6618
2955	0.6658
2946	0.6698
2937	0.6733
2928	0.6768
2919	0.6801
2910	0.6828
2901	0.6855
2892	0.6871
2883	0.6888
2874	0.6919
2865	0.6953
2856	0.6999
2847	0.7049
2838	0.7099
2829	0.7146
2820	0.719
2811	0.7233
2802	0.7275
2793	0.7318
2784	0.7358
2775	0.7395
2766	0.7433
2757	0.7468
2748	0.7504
2739	0.7538
2730	0.7572
2721	0.7606
2712	0.7639
2703	0.7665
2694	0.7691
2685	0.7715
2676	0.7742
2667	0.7767
2658	0.7774
2649	0.7776
2640	0.7776
2631	0.7776
2622	0.7775
2613	0.7788
2604	0.7803
2595	0.7817
2586	0.7832
2577	0.7842
2568	0.7851
2559	0.7861
2550	0.7872
2541	0.7882
2532	0.7891
2523	0.7899
2514	0.7908
2505	0.7915
2496	0.7921
2487	0.7926
2478	0.7933
2469	0.7941
2460	0.795
2451	0.7958
2442	0.7964
2433	0.7968
2424	0.7969
2415	0.7968
2406	0.7961
2397	0.7954
2388	0.7939
2379	0.7921
2370	0.7895
2361	0.7865
2352	0.7858
2343	0.7858
2334	0.786
2325	0.7868
2316	0.7876
2307	0.7895
2298	0.7911
2289	0.7937
2280	0.7971
2271	0.8028
2262	0.8092
2253	0.8161
2244	0.8231
2235	0.8302
2226	0.8357
2217	0.8397
2208	0.8428
2199	0.8455
2190	0.8483
2181	0.8513
2172	0.8543
2163	0.8571
2154	0.8604
2145	0.8635
2136	0.8667
2127	0.8702
2118	0.874
2109	0.8777
2100	0.8815
2091	0.8846
2082	0.8878
2073	0.8907
2064	0.8931
2055	0.8952
2046	0.8966
2037	0.8974
2028	0.8988
2019	0.8989
2010	0.8947
2001	0.892
1992	0.8958
1983	0.896
1974	0.8911
1965	0.8851
1956	0.8787
1947	0.8803
1938	0.8847
1929	0.8866
1920	0.8864
1911	0.8823
1902	0.8765
1893	0.8754
1884	0.8777
1875	0.8804
1866	0.8832
1857	0.886
1848	0.8887
1839	0.8894
1830	0.8899
1821	0.8897
1812	0.889
1803	0.8885
1794	0.8882
1785	0.888
1776	0.888
1767	0.8878
1758	0.887
1749	0.8853
1740	0.8824
1731	0.875
1722	0.8638
1713	0.8504
1704	0.8282
1695	0.8038
1686	0.7853
1677	0.7648
1668	0.7374
1659	0.6889
1650	0.645
1641	0.5931
1632	0.5569
1623	0.5016
1614	0.3673
1605	0.2868
1596	0.302
1587	0.3762
1578	0.411
1569	0.3712
1560	0.2973
1551	0.2863
1542	0.3399
1533	0.3728
1524	0.4358
1515	0.5115
1506	0.5845
1497	0.3864
1488	0.5269
1479	0.479
1470	0.3726
1461	0.368
1452	0.3308
1443	0.4831
1434	0.2642
1425	0.125
1416	0.2214
1407	0.1745
1398	0.2003
1389	0.2849
1380	0.3612
1371	0.4384
1362	0.4501
1353	0.446
1344	0.3959
1335	0.4009
1326	0.4358
1317	0.4588
1308	0.483
1299	0.5007
1290	0.4732
1281	0.3988
1272	0.469
1263	0.4195
1254	0.4503
1245	0.3038
1236	0.3298
1227	0.4
1218	0.5143
1209	0.5808
1200	0.5899
1191	0.5777
1182	0.598
1173	0.6295
1164	0.5435
1155	0.5387
1146	0.6295
1137	0.6871
1128	0.7056
1119	0.7171
1110	0.7215
1101	0.6862
1092	0.6498
1083	0.6596
1074	0.6425
1065	0.5778
1056	0.6618
1047	0.7267
1038	0.7307
1029	0.7118
1020	0.696
1011	0.723
1002	0.7247
993	0.7261
984	0.719
975	0.7078
966	0.7041
957	0.7228
948	0.7272
939	0.7175
930	0.7078
921	0.7071
912	0.6844
903	0.6921
894	0.6897
885	0.6897
876	0.6988
867	0.6948
858	0.6439
849	0.6186
840	0.6505
831	0.539
822	0.7047
813	0.7042
804	0.6914
795	0.6445
786	0.5731
777	0.4925
768	0.3183
759	0.1639
750	0.3004
741	0.4832
732	0.4854
723	0.5492
714	0.594
705	0.437
696	0.3043
687	0.6658
678	0.665
669	0.5966
660	0.5364
651	0.5393
642	0.6526
633	0.7138
624	0.721
615	0.7319
606	0.6636
597	0.7132
588	0.6528
579	0.6467
570	0.7338
561	0.7364
552	0.7408
543	0.7368
534	0.6997
525	0.6908
516	0.6897
507	0.6762
498	0.6383
489	0.6352
480	0.6446
471	0.6425
462	0.5906
453	0.5565
444	0.5552
435	0.5262
426	0.4767
417	0.4281
408	0.403
