Infrared Spectrum: 5-NORBORNENE-2-CARBOXYLIC ACID,METHYL ESTER
Formula: C9 H12 O2
State: SOLUTION (10% CCl4 FOR 3800-1330, 10% CS2 FOR 1330-400 CM^-^1))
Class: COBLENTZ III
Instrument: BECKMAN IR-9 (GRATING)
Instrument parameters: ORDER CHANGES: 670, 1200, 2000 CM^-^1
Sampling: TRANSMISSION
Path length: 0.011 CM, 0.010 CM
Resolution: 2
Origin: DOW CHEMICAL COMPANY
1/CM	TRANSMITTANCE
403	0.0985
412	0.1724
421	0.4741
430	0.6749
439	0.7495
448	0.8007
457	0.8451
466	0.8833
475	0.9204
484	0.9445
493	0.9337
502	0.9361
511	0.9493
520	0.9768
529	0.9854
538	0.9823
547	0.9723
556	0.9567
565	0.9494
574	0.9475
583	0.951
592	0.9578
601	0.9668
610	0.9734
619	0.9746
628	0.967
637	0.9504
646	0.9255
655	0.895
664	0.9177
673	0.9541
682	0.8778
691	0.8546
700	0.7415
709	0.1189
718	0.2996
727	0.6346
736	0.8359
745	0.8825
754	0.9008
763	0.9018
772	0.9054
781	0.8344
790	0.9455
799	0.9575
808	0.9581
817	0.8783
826	0.847
835	0.8241
844	0.6601
853	0.5272
862	0.7204
871	0.7767
880	0.7493
889	0.851
898	0.6121
907	0.5674
916	0.7798
925	0.9058
934	0.894
943	0.8492
952	0.868
961	0.9133
970	0.9223
979	0.8873
988	0.8464
997	0.8315
1006	0.7674
1015	0.7608
1024	0.5962
1033	0.211
1042	0.3996
1051	0.536
1060	0.6874
1069	0.5477
1078	0.7668
1087	0.7665
1096	0.6595
1105	0.5065
1114	0.4626
1123	0.6514
1132	0.4625
1141	0.4965
1150	0.2532
1159	0.1358
1168	0.0351
1177	0.0193
1186	0.0427
1195	0.0139
1204	0.0442
1213	0.1708
1222	0.3143
1231	0.2558
1240	0.3694
1249	0.4518
1258	0.4551
1267	0.2914
1276	0.3682
1285	0.5569
1294	0.6435
1303	0.7394
1312	0.7385
1321	0.6144
1330	0.3393
1339	0.1734
1348	0.3204
1357	0.3144
1366	0.5596
1375	0.7011
1384	0.8241
1393	0.8604
1402	0.8737
1411	0.8696
1420	0.8434
1429	0.4718
1438	0.1946
1447	0.4344
1456	0.5637
1465	0.6296
1474	0.7682
1483	0.8303
1492	0.8332
1501	0.8075
1510	0.7688
1519	0.7285
1528	0.6744
1537	0.6167
1546	0.5303
1555	0.5146
1564	0.5809
1573	0.6045
1582	0.6558
1591	0.7098
1600	0.7715
1609	0.8349
1618	0.8537
1627	0.8584
1636	0.8995
1645	0.9091
1654	0.906
1663	0.9001
1672	0.8801
1681	0.8395
1690	0.7669
1699	0.663
1708	0.5209
1717	0.269
1726	0.0168
1735	0
1744	0
1753	0.1371
1762	0.6396
1771	0.7155
1780	0.7691
1789	0.8139
1798	0.8495
1807	0.8885
1816	0.9296
1825	0.9454
1834	0.9535
1843	0.9581
1852	0.962
1861	0.9662
1870	0.9746
1879	0.9793
1888	0.9801
1897	0.9794
1906	0.9803
1915	0.983
1924	0.9844
1933	0.9838
1942	0.9823
1951	0.9802
1960	0.9783
1969	0.977
1978	0.9766
1987	0.9761
1996	0.9728
2005	0.96
2014	0.9568
2023	0.9552
2032	0.9553
2041	0.9553
2050	0.9553
2059	0.9565
2068	0.9591
2077	0.9588
2086	0.9577
2095	0.9571
2104	0.9568
2113	0.9599
2122	0.9658
2131	0.9695
2140	0.9728
2149	0.9762
2158	0.9783
2167	0.9789
2176	0.9795
2185	0.9795
2194	0.9793
2203	0.9792
2212	0.9787
2221	0.978
2230	0.9767
2239	0.9753
2248	0.9737
2257	0.9706
2266	0.967
2275	0.9636
2284	0.9611
2293	0.9615
2302	0.9639
2311	0.9653
2320	0.9648
2329	0.9636
2338	0.9634
2347	0.9637
2356	0.9649
2365	0.967
2374	0.9697
2383	0.9727
2392	0.9764
2401	0.9801
2410	0.9838
2419	0.9871
2428	0.9902
2437	0.9924
2446	0.9933
2455	0.9937
2464	0.9936
2473	0.9932
2482	0.9921
2491	0.9911
2500	0.9899
2509	0.9886
2518	0.9878
2527	0.9871
2536	0.9874
2545	0.9884
2554	0.9897
2563	0.99
2572	0.9898
2581	0.9895
2590	0.9884
2599	0.9873
2608	0.9866
2617	0.9866
2626	0.9866
2635	0.9868
2644	0.9875
2653	0.9888
2662	0.9918
2671	0.9938
2680	0.9947
2689	0.9944
2698	0.9942
2707	0.9934
2716	0.9927
2725	0.9921
2734	0.9914
2743	0.9908
2752	0.9903
2761	0.9896
2770	0.9887
2779	0.9871
2788	0.984
2797	0.9798
2806	0.9745
2815	0.9641
2824	0.9442
2833	0.8717
2842	0.7607
2851	0.842
2860	0.7407
2869	0.5423
2878	0.5175
2887	0.6369
2896	0.6685
2905	0.5938
2914	0.596
2923	0.6131
2932	0.4542
2941	0.2343
2950	0.0882
2959	0.2058
2968	0.172
2977	0.0975
2986	0.1061
2995	0.2807
3004	0.4837
3013	0.5995
3022	0.6381
3031	0.7169
3040	0.7991
3049	0.7844
3058	0.6662
3067	0.6239
3076	0.8594
3085	0.9173
3094	0.9371
3103	0.9506
3112	0.9545
3121	0.9467
3130	0.9228
3139	0.9178
3148	0.9532
3157	0.9664
3166	0.9717
3175	0.9748
3184	0.9771
3193	0.9784
3202	0.9794
3211	0.98
3220	0.9798
3229	0.9794
3238	0.9788
3247	0.9782
3256	0.9775
3265	0.9768
3274	0.9762
3283	0.9755
3292	0.9748
3301	0.9741
3310	0.9732
3319	0.9721
3328	0.9712
3337	0.9702
3346	0.9691
3355	0.9687
3364	0.9686
3373	0.9691
3382	0.97
3391	0.9707
3400	0.9698
3409	0.9664
3418	0.9606
3427	0.9528
3436	0.9449
3445	0.9363
3454	0.9264
3463	0.9249
3472	0.9311
3481	0.9418
3490	0.9541
3499	0.9605
3508	0.9625
3517	0.9632
3526	0.9634
3535	0.9638
3544	0.9643
3553	0.9651
3562	0.9667
3571	0.9705
3580	0.9659
3589	0.9697
3598	0.9862
3607	0.9844
3616	0.9863
3625	0.9906
3634	0.9943
3643	0.998
3652	1.0002
3661	0.9999
3670	0.9987
3679	0.995
3688	0.9896
3697	0.9908
3706	0.9975
3715	1.002
3724	1.0024
3733	0.9978
3742	0.9889
3751	0.9875
3760	0.9912
3769	0.9966
3778	1.0005
3787	1.0025
3796	1.0023
