Infrared Spectrum: 1,3,5,7-Tetramethyl-1,3,5,7-tetravinylcyclotetrasiloxane
Formula: C12 H24 O4 Si4
State: SOLUTION (10% CCl4 FOR 3800-1300, 2% CS2 FOR 1300-650, AND 10% CCl4 FOR 650-250) VS SOLVENT
Melting point: -43.5 C
Boiling point: 111-112 C AT 12 mmHg
Class: COBLENTZ III
Instrument: PERKIN-ELMER 521 (GRATING)
Instrument parameters: FILTERS AT 3150, 2500, 2000, 1150, 700, 410. GRATING CHANGES: 2000, 630
Path length: 0.012 CM, 0.011 CM, AND 0.011 CM
Resolution: 2
Origin: DOW CORNING CORP.
1/CM	TRANSMITTANCE
250	0.7058
259	0.7074
268	0.7114
277	0.703
286	0.6832
295	0.6712
304	0.6577
313	0.6435
322	0.6306
331	0.5887
340	0.5187
349	0.4244
358	0.3671
367	0.3714
376	0.3816
385	0.3811
394	0.3823
403	0.3859
412	0.4287
421	0.54
430	0.6563
439	0.7069
448	0.7224
457	0.7235
466	0.7205
475	0.7151
484	0.7117
493	0.7082
502	0.6697
511	0.61
520	0.484
529	0.321
538	0.2861
547	0.4714
556	0.5017
565	0.3881
574	0.299
583	0.3724
592	0.5301
601	0.6587
610	0.7335
619	0.7599
628	0.7567
637	0.6842
646	0.6267
655	0.8086
664	0.8044
673	0.7837
682	0.742
691	0.7783
700	0.8179
709	0.8205
718	0.8136
727	0.7498
736	0.6016
745	0.4151
754	0.4071
763	0.5507
772	0.5226
781	0.4746
790	0.2802
799	0.2312
808	0.5135
817	0.5615
826	0.5291
835	0.6604
844	0.7468
853	0.796
862	0.8261
871	0.8439
880	0.8547
889	0.8656
898	0.8689
907	0.8674
916	0.8627
925	0.8581
934	0.8384
943	0.7859
952	0.5966
961	0.4978
970	0.785
979	0.7974
988	0.767
997	0.6787
1006	0.4233
1015	0.6039
1024	0.5876
1033	0.5077
1042	0.3897
1051	0.1902
1060	0.0886
1069	0.0301
1078	0.0157
1087	0.0239
1096	0.0965
1105	0.2285
1114	0.4344
1123	0.5476
1132	0.6457
1141	0.7074
1150	0.7529
1159	0.8003
1168	0.8267
1177	0.853
1186	0.8595
1195	0.8626
1204	0.8657
1213	0.8658
1222	0.8577
1231	0.8399
1240	0.7868
1249	0.6648
1258	0.2256
1267	0.6466
1276	0.7934
1285	0.8552
1294	0.8632
1303	0.7582
1312	0.7737
1321	0.787
1330	0.7942
1339	0.7976
1348	0.7957
1357	0.7878
1366	0.7734
1375	0.7496
1384	0.6986
1393	0.5994
1402	0.2318
1411	0.0958
1420	0.5813
1429	0.7059
1438	0.7667
1447	0.7768
1456	0.7802
1465	0.7855
1474	0.7995
1483	0.7962
1492	0.8078
1501	0.8126
1510	0.8129
1519	0.8088
1528	0.7902
1537	0.7859
1546	0.7812
1555	0.782
1564	0.774
1573	0.7577
1582	0.748
1591	0.5975
1600	0.2433
1609	0.772
1618	0.817
1627	0.8284
1636	0.8326
1645	0.8354
1654	0.8385
1663	0.8401
1672	0.8414
1681	0.8431
1690	0.8462
1699	0.8475
1708	0.8451
1717	0.8434
1726	0.8422
1735	0.8389
1744	0.8349
1753	0.8361
1762	0.8383
1771	0.8501
1780	0.8529
1789	0.863
1798	0.8646
1807	0.8658
1816	0.8642
1825	0.8624
1834	0.8611
1843	0.8604
1852	0.8656
1861	0.8667
1870	0.8663
1879	0.8647
1888	0.856
1897	0.8431
1906	0.8188
1915	0.7856
1924	0.7412
1933	0.7791
1942	0.8479
1951	0.862
1960	0.8694
1969	0.8708
1978	0.8699
1987	0.8659
1996	0.8623
2005	0.8591
2014	0.8637
2023	0.8729
2032	0.8791
2041	0.8812
2050	0.8806
2059	0.8802
2068	0.8819
2077	0.8836
2086	0.8833
2095	0.8806
2104	0.8848
2113	0.888
2122	0.888
2131	0.8861
2140	0.8845
2149	0.8839
2158	0.8851
2167	0.8863
2176	0.8865
2185	0.8866
2194	0.8851
2203	0.8815
2212	0.883
2221	0.8836
2230	0.8828
2239	0.8812
2248	0.8789
2257	0.8773
2266	0.8743
2275	0.8695
2284	0.8686
2293	0.8795
2302	0.8877
2311	0.8912
2320	0.8927
2329	0.8927
2338	0.8909
2347	0.8891
2356	0.888
2365	0.8895
2374	0.8884
2383	0.8854
2392	0.8827
2401	0.882
2410	0.8818
2419	0.8822
2428	0.8832
2437	0.8838
2446	0.8845
2455	0.8852
2464	0.8861
2473	0.887
2482	0.8843
2491	0.8819
2500	0.8815
2509	0.882
2518	0.8823
2527	0.8818
2536	0.8815
2545	0.8815
2554	0.8816
2563	0.8803
2572	0.879
2581	0.8777
2590	0.8769
2599	0.8765
2608	0.8786
2617	0.879
2626	0.878
2635	0.8763
2644	0.8742
2653	0.8723
2662	0.8712
2671	0.8701
2680	0.87
2689	0.8705
2698	0.8713
2707	0.872
2716	0.8729
2725	0.8737
2734	0.8741
2743	0.8736
2752	0.8727
2761	0.8703
2770	0.867
2779	0.8621
2788	0.8572
2797	0.8509
2806	0.8479
2815	0.8512
2824	0.8521
2833	0.8506
2842	0.8471
2851	0.8378
2860	0.8273
2869	0.8222
2878	0.8162
2887	0.7862
2896	0.7818
2905	0.7399
2914	0.7259
2923	0.7409
2932	0.732
2941	0.6883
2950	0.5235
2959	0.3085
2968	0.2332
2977	0.2291
2986	0.3415
2995	0.5732
3004	0.6995
3013	0.672
3022	0.5448
3031	0.5855
3040	0.7214
3049	0.6699
3058	0.4733
3067	0.3211
3076	0.7398
3085	0.8142
3094	0.8284
3103	0.8384
3112	0.8469
3121	0.8545
3130	0.858
3139	0.8591
3148	0.8603
3157	0.8617
3166	0.8632
3175	0.8628
3184	0.8466
3193	0.8433
3202	0.8608
3211	0.8744
3220	0.8788
3229	0.8804
3238	0.8811
3247	0.8814
3256	0.8816
3265	0.8816
3274	0.8816
3283	0.8815
3292	0.8814
3301	0.8814
3310	0.8812
3319	0.8811
3328	0.8809
3337	0.8807
3346	0.8803
3355	0.8799
3364	0.8795
3373	0.8791
3382	0.8788
3391	0.8784
3400	0.8781
3409	0.8783
3418	0.8784
3427	0.8786
3436	0.8787
3445	0.8788
3454	0.8788
3463	0.8789
3472	0.8792
3481	0.8796
3490	0.88
3499	0.8803
3508	0.8807
3517	0.8809
3526	0.8812
3535	0.8814
3544	0.8816
3553	0.8813
3562	0.8809
3571	0.8803
3580	0.8791
3589	0.8779
3598	0.8794
3607	0.8817
3616	0.8841
3625	0.8845
3634	0.8821
3643	0.8787
3652	0.8765
3661	0.8758
3670	0.8765
3679	0.8761
3688	0.8736
3697	0.8709
3706	0.8691
3715	0.8693
3724	0.8703
3733	0.8717
3742	0.8768
3751	0.8785
3760	0.8804
3769	0.8826
3778	0.8848
3787	0.8863
3796	0.8859
