Infrared Spectrum: 9-Undecenoic acid, zinc salt
Formula: C22 H38 O4 Zn
State: SOLID (OIL MULL)
Class: COBLENTZ III
Instrument: BAIRD (GRATING)
Instrument parameters: NaCl PRISM
Path length: CAPILLARY
Resolution: 2
Origin: WYANDOTTE CHEMICALS CORP.
1/CM	TRANSMITTANCE
626	0.6721
635	0.6886
644	0.7354
653	0.7669
662	0.7795
671	0.8137
680	0.8106
689	0.8017
698	0.7741
707	0.7025
716	0.3572
725	0.2849
734	0.2292
743	0.092
752	0.123
761	0.4959
770	0.7058
779	0.77
788	0.684
797	0.7722
806	0.8322
815	0.8497
824	0.8539
833	0.8451
842	0.7751
851	0.7189
860	0.8226
869	0.8157
878	0.804
887	0.7393
896	0.6002
905	0.1137
914	0.1765
923	0.5842
932	0.7016
941	0.6713
950	0.5966
959	0.6453
968	0.6701
977	0.6311
986	0.3839
995	0.3284
1004	0.499
1013	0.6468
1022	0.6825
1031	0.6614
1040	0.6121
1049	0.6719
1058	0.6206
1067	0.5912
1076	0.6413
1085	0.5689
1094	0.6181
1103	0.5664
1112	0.6103
1121	0.5862
1130	0.6586
1139	0.6741
1148	0.6478
1157	0.6357
1166	0.6541
1175	0.6688
1184	0.6643
1193	0.63
1202	0.4285
1211	0.5263
1220	0.6441
1229	0.6539
1238	0.5851
1247	0.6499
1256	0.6945
1265	0.6788
1274	0.5119
1283	0.6237
1292	0.6499
1301	0.6008
1310	0.508
1319	0.4987
1328	0.6055
1337	0.51
1346	0.4467
1355	0.4545
1364	0.3673
1373	0.2874
1382	0.1777
1391	0.2195
1400	0.0925
1409	0.026
1418	0.0295
1427	0.2257
1436	0.1855
1445	0.0637
1454	0.0326
1463	0.0276
1472	0.0281
1481	0.0745
1490	0.1725
1499	0.1595
1508	0.0797
1517	0.0559
1526	0.0509
1535	0.0471
1544	0.0507
1553	0.041
1562	0.0243
1571	0.0473
1580	0.0642
1589	0.1982
1598	0.1741
1607	0.114
1616	0.3169
1625	0.4775
1634	0.5537
1643	0.5922
1652	0.2748
1661	0.5971
1670	0.6674
1679	0.6777
1688	0.6811
1697	0.6858
1706	0.7018
1715	0.7333
1724	0.7616
1733	0.7946
1742	0.8015
1751	0.8487
1760	0.9051
1769	0.93
1778	0.9389
1787	0.9417
1796	0.9388
1805	0.9248
1814	0.8969
1823	0.8913
1832	0.9087
1841	0.9302
1850	0.9488
1859	0.9531
1868	0.9495
1877	0.9444
1886	0.9438
1895	0.9504
1904	0.9568
1913	0.9576
1922	0.958
1931	0.9642
1940	0.9648
1949	0.9602
1958	0.958
1967	0.9599
1976	0.9622
1985	0.9649
1994	0.9652
2003	0.9637
2012	0.9663
2021	0.9701
2030	0.9725
2039	0.9738
2048	0.9744
2057	0.9743
2066	0.9737
2075	0.973
2084	0.9718
2093	0.9704
2102	0.9691
2111	0.9681
2120	0.9672
2129	0.9664
2138	0.9656
2147	0.9649
2156	0.965
2165	0.9653
2174	0.9653
2183	0.9637
2192	0.9609
2201	0.9562
2210	0.9515
2219	0.947
2228	0.9428
2237	0.9389
2246	0.9352
2255	0.9318
2264	0.9283
2273	0.9251
2282	0.9225
2291	0.9201
2300	0.9178
2309	0.9167
2318	0.9155
2327	0.9154
2336	0.9153
2345	0.9132
2354	0.9052
2363	0.9002
2372	0.9023
2381	0.9073
2390	0.9128
2399	0.9163
2408	0.9157
2417	0.9123
2426	0.9078
2435	0.9
2444	0.8916
2453	0.8824
2462	0.8764
2471	0.8773
2480	0.8793
2489	0.8809
2498	0.8705
2507	0.8621
2516	0.8597
2525	0.8573
2534	0.8556
2543	0.853
2552	0.85
2561	0.8458
2570	0.8411
2579	0.8338
2588	0.8255
2597	0.8159
2606	0.8063
2615	0.7968
2624	0.7881
2633	0.7797
2642	0.7725
2651	0.7659
2660	0.762
2669	0.7587
2678	0.757
2687	0.7523
2696	0.7454
2705	0.7384
2714	0.7324
2723	0.7292
2732	0.7302
2741	0.731
2750	0.7303
2759	0.715
2768	0.696
2777	0.6692
2786	0.5779
2795	0.5127
2804	0.4488
2813	0.3188
2822	0.1896
2831	0.0765
2840	0.0259
2849	0.0235
2858	0.0228
2867	0.0227
2876	0.0227
2885	0.0228
2894	0.0228
2903	0.0228
2912	0.0228
2921	0.0228
2930	0.0228
2939	0.0229
2948	0.0229
2957	0.0235
2966	0.0315
2975	0.0683
2984	0.1326
2993	0.2007
3002	0.2684
3011	0.3357
3020	0.4026
3029	0.4691
3038	0.5351
3047	0.5959
3056	0.6008
3065	0.5438
3074	0.4959
3083	0.5397
3092	0.6287
3101	0.7171
3110	0.7906
3119	0.8024
3128	0.8075
3137	0.8118
3146	0.8158
3155	0.8199
3164	0.8241
3173	0.828
3182	0.8319
3191	0.8352
3200	0.8382
3209	0.8412
3218	0.8436
3227	0.8457
3236	0.8474
3245	0.8486
3254	0.8491
3263	0.8493
3272	0.8495
3281	0.8497
3290	0.8498
3299	0.8497
3308	0.8492
3317	0.8487
3326	0.849
3335	0.8495
3344	0.8505
3353	0.8517
3362	0.8535
3371	0.8553
3380	0.8576
3389	0.8598
3398	0.8626
3407	0.8658
3416	0.8694
3425	0.8733
3434	0.8772
3443	0.8811
3452	0.8849
3461	0.888
3470	0.8906
3479	0.8926
3488	0.8933
3497	0.8939
3506	0.8953
3515	0.8978
3524	0.9012
3533	0.9048
3542	0.9084
3551	0.9119
3560	0.915
3569	0.9179
3578	0.9201
3587	0.9223
3596	0.9241
3605	0.9254
3614	0.9266
3623	0.9278
3632	0.9287
3641	0.9294
3650	0.9302
3659	0.9311
3668	0.9321
3677	0.9331
3686	0.934
3695	0.9345
3704	0.9351
3713	0.9351
3722	0.9353
3731	0.9353
3740	0.9354
3749	0.9348
3758	0.934
3767	0.9333
3776	0.9325
3785	0.9315
3794	0.9299
3803	0.9282
3812	0.9267
3821	0.925
3830	0.9234
3839	0.921
3848	0.9187
3857	0.9163
3866	0.9141
3875	0.912
3884	0.9098
3893	0.9079
3902	0.9064
3911	0.9052
3920	0.9048
3929	0.9045
3938	0.9042
3947	0.9038
3956	0.9036
3965	0.9034
3974	0.9033
3983	0.903
3992	0.9029
