Infrared Spectrum: TRIETHANOL AMINE TRICHLOROACETIC ACID SALT
Formula: C8 H16 Cl3 N O5
State: SOLID (MINERAL OIL MULL)
Class: COBLENTZ
Instrument: Not specified, most likely a prism, grating, or hybrid spectrometer.
Sampling: TRANSMISSION
Resolution: 4
Origin: DOW CHEMICAL COMPANY
MICROMETERS	TRANSMITTANCE
2.014	0.649
2.05503	0.651
2.09607	0.658
2.1371	0.664
2.17814	0.668
2.21917	0.663
2.26021	0.661
2.30124	0.668
2.34228	0.68
2.38331	0.689
2.42435	0.695
2.46538	0.704
2.50642	0.718
2.54745	0.723
2.58849	0.735
2.62952	0.745
2.67055	0.756
2.71159	0.756
2.75262	0.738
2.79366	0.701
2.83469	0.616
2.87573	0.487
2.91676	0.328
2.9578	0.14
2.99883	0.085
3.03987	0.163
3.0809	0.285
3.12194	0.364
3.16297	0.383
3.20401	0.295
3.24504	0.36
3.28607	0.439
3.32711	0.329
3.36814	0.106
3.40918	0.041
3.45021	0.108
3.49125	0.283
3.53228	0.573
3.57332	0.623
3.61435	0.668
3.65539	0.68
3.69642	0.689
3.73746	0.68
3.77849	0.678
3.81953	0.707
3.86056	0.731
3.90159	0.742
3.94263	0.737
3.98366	0.745
4.0247	0.754
4.06573	0.761
4.10677	0.773
4.1478	0.78
4.18884	0.783
4.22987	0.785
4.27091	0.786
4.31194	0.798
4.35298	0.805
4.39401	0.812
4.43505	0.817
4.47608	0.824
4.51711	0.826
4.55815	0.829
4.59918	0.831
4.64022	0.835
4.68125	0.835
4.72229	0.835
4.76332	0.84
4.80436	0.845
4.84539	0.852
4.88643	0.86
4.92746	0.864
4.9685	0.869
5.00953	0.871
5.05057	0.869
5.0916	0.872
5.13263	0.876
5.17367	0.872
5.2147	0.871
5.25574	0.874
5.29677	0.881
5.33781	0.876
5.37884	0.869
5.41988	0.869
5.46091	0.865
5.50195	0.853
5.54298	0.829
5.58402	0.807
5.62505	0.762
5.66609	0.721
5.70712	0.664
5.74815	0.594
5.78919	0.506
5.83022	0.383
5.87126	0.269
5.91229	0.158
5.95333	0.111
5.99436	0.176
6.0354	0.269
6.07643	0.403
6.11747	0.467
6.1585	0.537
6.19954	0.577
6.24057	0.613
6.28161	0.644
6.32264	0.664
6.36367	0.68
6.40471	0.689
6.44574	0.697
6.48678	0.701
6.52781	0.702
6.56885	0.697
6.60988	0.701
6.65092	0.69
6.69195	0.628
6.73299	0.498
6.77402	0.348
6.81506	0.226
6.85609	0.211
6.89713	0.31
6.93816	0.341
6.97919	0.292
7.02023	0.252
7.06126	0.225
7.1023	0.266
7.14333	0.29
7.18437	0.276
7.2254	0.19
7.26644	0.242
7.30747	0.341
7.34851	0.376
7.38954	0.372
7.43058	0.431
7.47161	0.359
7.51265	0.226
7.55368	0.264
7.59471	0.438
7.63575	0.489
7.67678	0.554
7.71782	0.591
7.75885	0.603
7.79989	0.609
7.84092	0.604
7.88196	0.556
7.92299	0.498
7.96403	0.527
8.00506	0.618
8.0461	0.651
8.08713	0.639
8.12817	0.585
8.1692	0.475
8.21023	0.317
8.25127	0.321
8.2923	0.522
8.33334	0.606
8.37437	0.646
8.41541	0.675
8.45644	0.69
8.49748	0.695
8.53851	0.701
8.57955	0.704
8.62058	0.706
8.66162	0.711
8.70265	0.716
8.74369	0.721
8.78472	0.723
8.82575	0.725
8.86679	0.714
8.90782	0.697
8.94886	0.668
8.98989	0.628
9.03093	0.553
9.07196	0.438
9.113	0.298
9.15403	0.23
9.19507	0.372
9.2361	0.579
9.27714	0.601
9.31817	0.556
9.35921	0.529
9.40024	0.498
9.44127	0.424
9.48231	0.527
9.52334	0.647
9.56438	0.659
9.60541	0.634
9.64645	0.567
9.68748	0.448
9.72852	0.3
9.76955	0.197
9.81059	0.214
9.85162	0.305
9.89266	0.333
9.93369	0.312
9.97473	0.316
10.0158	0.365
10.0568	0.534
10.0978	0.634
10.1389	0.692
10.1799	0.723
10.2209	0.743
10.262	0.756
10.303	0.764
10.344	0.773
10.3851	0.778
10.4261	0.781
10.4671	0.783
10.5082	0.786
10.5492	0.788
10.5902	0.79
10.6313	0.792
10.6723	0.79
10.7133	0.781
10.7544	0.757
10.7954	0.697
10.8365	0.637
10.8775	0.623
10.9185	0.584
10.9596	0.46
11.0006	0.328
11.0416	0.336
11.0827	0.525
11.1237	0.592
11.1647	0.656
11.2058	0.707
11.2468	0.768
11.2878	0.797
11.3289	0.81
11.3699	0.812
11.4109	0.8
11.452	0.785
11.493	0.752
11.534	0.718
11.5751	0.699
11.6161	0.687
11.6571	0.673
11.6982	0.621
11.7392	0.548
11.7803	0.522
11.8213	0.498
11.8623	0.396
11.9034	0.211
11.9444	0.221
11.9854	0.317
12.0265	0.331
12.0675	0.29
12.1085	0.242
12.1496	0.194
12.1906	0.161
12.2316	0.152
12.2727	0.173
12.3137	0.219
12.3547	0.285
12.3958	0.379
12.4368	0.446
12.4778	0.482
12.5189	0.513
12.5599	0.546
12.6009	0.575
12.642	0.603
12.683	0.616
12.724	0.63
12.7651	0.639
12.8061	0.646
12.8472	0.651
12.8882	0.651
12.9292	0.651
12.9703	0.649
13.0113	0.64
13.0523	0.627
13.0934	0.608
13.1344	0.582
13.1754	0.551
13.2165	0.493
13.2575	0.426
13.2985	0.347
13.3396	0.298
13.3806	0.286
13.4216	0.295
13.4627	0.335
13.5037	0.388
13.5447	0.448
13.5858	0.501
13.6268	0.53
13.6678	0.548
13.7089	0.554
13.7499	0.561
13.7909	0.561
13.832	0.558
13.873	0.556
13.9141	0.56
13.9551	0.556
13.9961	0.548
14.0372	0.532
14.0782	0.515
14.1192	0.5
14.1603	0.493
14.2013	0.487
14.2423	0.484
14.2834	0.482
14.3244	0.477
14.3654	0.47
14.4065	0.453
14.4475	0.429
14.4885	0.393
14.5296	0.35
14.5706	0.302
14.6116	0.257
14.6527	0.214
14.6937	0.173
14.7347	0.142
14.7758	0.12
14.8168	0.115
14.8579	0.127
14.8989	0.146
14.9399	0.183
14.981	0.245
15.022	0.304
15.063	0.329
15.1041	0.35
15.1451	0.364
15.1861	0.376
15.2272	0.383
15.2682	0.39
15.3092	0.39
15.3503	0.391
15.3913	0.395
15.4323	0.395
15.4734	0.393
15.5144	0.39
15.5554	0.386
15.5965	0.381
15.6375	0.378
15.6785	0.376
15.7196	0.372
15.7606	0.365
15.8016	0.362
15.8427	0.355
