Infrared Spectrum: 7H-Imidazo[4,5-d]-v-triazin-4-ol, 7-butyl-, (keto form)
Formula: C8 H11 N5 O
State: SOLID (0.8 mg / 650 mg KBr DISC)
Class: COBLENTZ III
Instrument: PERKIN-ELMER 21 (GRATING)
Instrument parameters: FILTER CHANGE ABOUT 1090 CM^-^1
Sampling: TRANSMISSION
Resolution: 2
Origin: SOUTHERN RESEARCH INSTITUTE
1/CM	TRANSMITTANCE
592.304	1.0161
601.34	1.0148
610.376	1.0076
619.413	1.0017
628.449	1.0001
637.485	1.0018
646.521	0.9883
655.557	0.9735
664.594	0.949
673.63	0.9438
682.666	0.9301
691.702	0.8959
700.738	0.9096
709.774	0.9068
718.811	0.8902
727.847	0.8717
736.883	0.8179
745.919	0.844
754.955	0.8586
763.992	0.8506
773.028	0.8401
782.064	0.6548
791.1	0.842
800.136	0.8361
809.173	0.8351
818.209	0.8298
827.245	0.8028
836.281	0.7145
845.317	0.6814
854.354	0.7372
863.39	0.6341
872.426	0.6874
881.462	0.7595
890.498	0.8149
899.534	0.8253
908.571	0.8291
917.607	0.8273
926.643	0.8174
935.679	0.7863
944.715	0.6111
953.752	0.6037
962.788	0.8328
971.824	0.8387
980.86	0.8381
989.896	0.8353
998.933	0.8015
1007.97	0.8111
1017	0.796
1026.04	0.7704
1035.08	0.8063
1044.11	0.8069
1053.15	0.8014
1062.19	0.7965
1071.22	0.7972
1080.26	0.7958
1089.29	0.7254
1098.33	0.7445
1107.37	0.6437
1116.4	0.5426
1125.44	0.5504
1134.48	0.6776
1143.51	0.7836
1152.55	0.767
1161.58	0.7641
1170.62	0.7667
1179.66	0.7083
1188.69	0.8021
1197.73	0.8096
1206.76	0.7804
1215.8	0.6728
1224.84	0.7465
1233.87	0.8093
1242.91	0.7945
1251.95	0.7751
1260.98	0.751
1270.02	0.6878
1279.05	0.5857
1288.09	0.7698
1297.13	0.7916
1306.16	0.7706
1315.2	0.7455
1324.24	0.6728
1333.27	0.5003
1342.31	0.5996
1351.34	0.5924
1360.38	0.7289
1369.42	0.7078
1378.45	0.6756
1387.49	0.6198
1396.52	0.2969
1405.56	0.5542
1414.6	0.6458
1423.63	0.6695
1432.67	0.6455
1441.71	0.3174
1450.74	0.3677
1459.78	0.6276
1468.81	0.6215
1477.85	0.753
1486.89	0.8088
1495.92	0.8008
1504.96	0.7841
1514	0.7553
1523.03	0.6008
1532.07	0.724
1541.1	0.6779
1550.14	0.5386
1559.18	0.792
1568.21	0.7881
1577.25	0.7694
1586.28	0.7533
1595.32	0.7347
1604.36	0.7026
1613.39	0.6564
1622.43	0.5938
1631.47	0.5039
1640.5	0.3696
1649.54	0.2737
1658.57	0.1268
1667.61	0.1144
1676.65	0.1669
1685.68	0.4051
1694.72	0.5477
1703.76	0.7088
1712.79	0.7355
1721.83	0.7519
1730.86	0.7671
1739.9	0.7986
1748.94	0.8262
1757.97	0.8402
1767.01	0.8504
1776.04	0.8566
1785.08	0.86
1794.12	0.8608
1803.15	0.8614
1812.19	0.8613
1821.23	0.8613
1830.26	0.8621
1839.3	0.8605
1848.33	0.8578
1857.37	0.8519
1866.41	0.8389
1875.44	0.8344
1884.48	0.8587
1893.52	0.8742
1902.55	0.8814
1911.59	0.8785
1920.62	0.8808
1929.66	0.8839
1938.7	0.8839
1947.73	0.8783
1956.77	0.8763
1965.8	0.8767
1974.84	0.8788
1983.88	0.8822
1992.91	0.8832
2001.95	0.8833
2010.99	0.883
2020.02	0.882
2029.06	0.8816
2038.09	0.8813
2047.13	0.8807
2056.17	0.8799
2065.2	0.879
2074.24	0.8776
2083.28	0.8762
2092.31	0.8762
2101.35	0.8759
2110.38	0.8751
2119.42	0.8746
2128.46	0.8744
2137.49	0.8734
2146.53	0.8724
2155.56	0.8715
2164.6	0.8703
2173.64	0.869
2182.67	0.8672
2191.71	0.8655
2200.75	0.8635
2209.78	0.864
2218.82	0.8653
2227.85	0.8646
2236.89	0.863
2245.93	0.8609
2254.96	0.8601
2264	0.8605
2273.04	0.861
2282.07	0.8607
2291.11	0.8597
2300.14	0.8585
2309.18	0.8562
2318.22	0.8537
2327.25	0.8511
2336.29	0.8481
2345.32	0.8451
2354.36	0.8418
2363.4	0.8406
2372.43	0.8328
2381.47	0.8318
2390.51	0.8304
2399.54	0.8286
2408.58	0.8263
2417.61	0.8238
2426.65	0.8196
2435.69	0.8152
2444.72	0.8106
2453.76	0.8044
2462.8	0.7974
2471.83	0.7899
2480.87	0.7829
2489.9	0.7768
2498.94	0.7706
2507.98	0.7645
2517.01	0.7586
2526.05	0.7527
2535.08	0.745
2544.12	0.7329
2553.16	0.7342
2562.19	0.7479
2571.23	0.7659
2580.27	0.7628
2589.3	0.7542
2598.34	0.7435
2607.37	0.7305
2616.41	0.7212
2625.45	0.7194
2634.48	0.712
2643.52	0.7033
2652.56	0.6971
2661.59	0.6913
2670.63	0.6883
2679.66	0.6879
2688.7	0.6926
2697.74	0.695
2706.77	0.6923
2715.81	0.6889
2724.84	0.6842
2733.88	0.6784
2742.92	0.6654
2751.95	0.6474
2760.99	0.6263
2770.03	0.6027
2779.06	0.5818
2788.1	0.5715
2797.13	0.5639
2806.17	0.5456
2815.21	0.5218
2824.24	0.4959
2833.28	0.4805
2842.32	0.4824
2851.35	0.4979
2860.39	0.5204
2869.42	0.564
2878.46	0.6134
2887.5	0.6092
2896.53	0.5918
2905.57	0.5193
2914.6	0.4843
2923.64	0.4461
2932.68	0.4239
2941.71	0.4074
2950.75	0.4062
2959.79	0.4314
2968.82	0.5636
2977.86	0.6277
2986.89	0.6078
2995.93	0.579
3004.97	0.5296
3014	0.5074
3023.04	0.4916
3032.08	0.4853
3041.11	0.4925
3050.15	0.5099
3059.18	0.5207
3068.22	0.5331
3077.26	0.5288
3086.29	0.5067
3095.33	0.4563
3104.36	0.4503
3113.4	0.5056
3122.44	0.592
3131.47	0.6488
3140.51	0.6751
3149.55	0.6854
3158.58	0.6937
3167.62	0.7036
3176.65	0.7154
3185.69	0.7278
3194.73	0.7356
3203.76	0.7385
3212.8	0.7449
3221.84	0.7473
3230.87	0.7481
3239.91	0.7493
3248.94	0.7504
3257.98	0.7517
3267.02	0.753
3276.05	0.7544
3285.09	0.7562
3294.12	0.7571
3303.16	0.7533
3312.2	0.7465
3321.23	0.7409
3330.27	0.7381
3339.31	0.7365
3348.34	0.7352
3357.38	0.729
3366.41	0.7182
3375.45	0.7073
3384.49	0.6961
3393.52	0.6875
3402.56	0.681
3411.6	0.6764
3420.63	0.6734
3429.67	0.674
3438.7	0.6795
3447.74	0.6839
3456.78	0.689
3465.81	0.6884
3474.85	0.6891
3483.88	0.6932
3492.92	0.6988
3501.96	0.7045
3510.99	0.7104
3520.03	0.7167
3529.07	0.7295
3538.1	0.7359
3547.14	0.7403
3556.17	0.7461
3565.21	0.7522
3574.25	0.7693
3583.28	0.7749
3592.32	0.7821
3601.36	0.7894
3610.39	0.7966
3619.43	0.8037
3628.46	0.8097
3637.5	0.8145
3646.54	0.8187
3655.57	0.8192
3664.61	0.8187
3673.64	0.8197
3682.68	0.821
3691.72	0.8238
3700.75	0.8278
3709.79	0.8321
3718.83	0.834
3727.86	0.8357
3736.9	0.8392
3745.93	0.8401
3754.97	0.8388
3764.01	0.8356
3773.04	0.8325
3782.08	0.8308
3791.12	0.8286
3800.15	0.8277
3809.19	0.8309
3818.22	0.8318
3827.26	0.8277
3836.3	0.8221
3845.33	0.8216
3854.37	0.822
3863.4	0.8234
3872.44	0.8327
3881.48	0.8342
3890.51	0.8277
3899.55	0.8246
3908.59	0.8226
3917.62	0.8239
3926.66	0.8242
3935.69	0.8236
3944.73	0.8275
3953.77	0.824
3962.8	0.821
3971.84	0.8188
3980.88	0.8211
3989.91	0.831
3998.95	0.8174
4007.98	0.8166
