Infrared Spectrum: SODIUM THIOSULFATE, PENTAHYDRATE
Formula: Na2 S2 O3  * 5 H2 O
State: SOLID (NUJOL MULL)
Class: COBLENTZ
Instrument: Not specified, most likely a prism, grating, or hybrid spectrometer.
Sampling: TRANSMISSION
Resolution: 4
Origin: MELLON INSTITUTE
MICROMETERS	TRANSMITTANCE
2.037	0.903
2.07685	0.908
2.11671	0.909
2.15656	0.914
2.19642	0.918
2.23627	0.918
2.27613	0.919
2.31598	0.918
2.35583	0.918
2.39569	0.918
2.43554	0.916
2.4754	0.913
2.51525	0.913
2.55511	0.909
2.59496	0.908
2.63482	0.901
2.67467	0.882
2.71452	0.861
2.75438	0.801
2.79423	0.66
2.83409	0.387
2.87394	0.254
2.9138	0.2
2.95365	0.192
2.9935	0.21
3.03336	0.28
3.07321	0.339
3.11307	0.408
3.15292	0.541
3.19278	0.645
3.23263	0.705
3.27249	0.729
3.31234	0.667
3.35219	0.234
3.39205	0.127
3.4319	0.252
3.47176	0.245
3.51161	0.727
3.55147	0.854
3.59132	0.899
3.63117	0.913
3.67103	0.919
3.71088	0.926
3.75074	0.933
3.79059	0.938
3.83045	0.948
3.8703	0.954
3.91016	0.963
3.95001	0.969
3.98986	0.974
4.02972	0.978
4.06957	0.983
4.10943	0.984
4.14928	0.984
4.18914	0.984
4.22899	0.983
4.26884	0.979
4.3087	0.976
4.34855	0.971
4.38841	0.966
4.42826	0.963
4.46812	0.959
4.50797	0.954
4.54783	0.949
4.58768	0.944
4.62753	0.938
4.66739	0.933
4.70724	0.924
4.7471	0.916
4.78695	0.911
4.82681	0.911
4.86666	0.913
4.90651	0.916
4.94637	0.919
4.98622	0.921
5.02608	0.921
5.06593	0.926
5.10579	0.934
5.14564	0.946
5.1855	0.953
5.22535	0.954
5.2652	0.954
5.30506	0.953
5.34491	0.953
5.38477	0.953
5.42462	0.953
5.46448	0.954
5.50433	0.953
5.54418	0.953
5.58404	0.949
5.62389	0.943
5.66375	0.929
5.7036	0.923
5.74346	0.921
5.78331	0.916
5.82317	0.899
5.86302	0.877
5.90287	0.841
5.94273	0.715
5.98258	0.652
6.02244	0.535
6.06229	0.521
6.10215	0.678
6.142	0.677
6.18185	0.735
6.22171	0.804
6.26156	0.834
6.30142	0.844
6.34127	0.849
6.38113	0.852
6.42098	0.854
6.46084	0.852
6.50069	0.849
6.54054	0.849
6.5804	0.847
6.62025	0.846
6.66011	0.831
6.69996	0.804
6.73982	0.749
6.77967	0.632
6.81952	0.474
6.85938	0.468
6.89923	0.565
6.93909	0.663
6.97894	0.727
7.0188	0.762
7.05865	0.774
7.09851	0.777
7.13836	0.772
7.17821	0.683
7.21807	0.585
7.25792	0.642
7.29778	0.668
7.33763	0.712
7.37749	0.73
7.41734	0.737
7.45719	0.745
7.49705	0.755
7.5369	0.759
7.57676	0.754
7.61661	0.752
7.65647	0.752
7.69632	0.754
7.73618	0.754
7.77603	0.755
7.81588	0.752
7.85574	0.75
7.89559	0.749
7.93545	0.745
7.9753	0.74
8.01516	0.734
8.05501	0.727
8.09486	0.72
8.13472	0.704
8.17457	0.695
8.21443	0.685
8.25428	0.67
8.29414	0.65
8.33399	0.617
8.37385	0.568
8.4137	0.51
8.45355	0.451
8.49341	0.337
8.53326	0.235
8.57312	0.209
8.61297	0.21
8.65283	0.21
8.69268	0.204
8.73253	0.198
8.77239	0.175
8.81224	0.162
8.8521	0.162
8.89195	0.167
8.93181	0.168
8.97166	0.173
9.01152	0.205
9.05137	0.254
9.09122	0.316
9.13108	0.387
9.17093	0.429
9.21079	0.471
9.25064	0.506
9.2905	0.53
9.33035	0.551
9.3702	0.573
9.41006	0.593
9.44991	0.608
9.48977	0.618
9.52962	0.625
9.56948	0.63
9.60933	0.63
9.64919	0.627
9.68904	0.61
9.72889	0.551
9.76875	0.496
9.8086	0.408
9.84846	0.339
9.88831	0.267
9.92817	0.215
9.96802	0.172
10.0079	0.175
10.0477	0.21
10.0876	0.279
10.1274	0.342
10.1673	0.413
10.2071	0.473
10.247	0.528
10.2869	0.56
10.3267	0.591
10.3666	0.613
10.4064	0.635
10.4463	0.65
10.4861	0.665
10.526	0.675
10.5658	0.687
10.6057	0.693
10.6455	0.704
10.6854	0.714
10.7253	0.722
10.7651	0.729
10.805	0.734
10.8448	0.74
10.8847	0.749
10.9245	0.752
10.9644	0.755
11.0042	0.76
11.0441	0.764
11.0839	0.769
11.1238	0.774
11.1637	0.779
11.2035	0.784
11.2434	0.789
11.2832	0.792
11.3231	0.795
11.3629	0.797
11.4028	0.799
11.4426	0.801
11.4825	0.801
11.5223	0.804
11.5622	0.806
11.602	0.806
11.6419	0.806
11.6818	0.809
11.7216	0.814
11.7615	0.816
11.8013	0.821
11.8412	0.822
11.881	0.824
11.9209	0.824
11.9607	0.824
12.0006	0.822
12.0404	0.821
12.0803	0.819
12.1202	0.817
12.16	0.816
12.1999	0.812
12.2397	0.811
12.2796	0.807
12.3194	0.802
12.3593	0.799
12.3991	0.794
12.439	0.79
12.4788	0.785
12.5187	0.782
12.5586	0.775
12.5984	0.769
12.6383	0.764
12.6781	0.757
12.718	0.752
12.7578	0.745
12.7977	0.739
12.8375	0.732
12.8774	0.725
12.9172	0.719
12.9571	0.714
12.997	0.709
13.0368	0.705
13.0767	0.702
13.1165	0.7
13.1564	0.698
13.1962	0.698
13.2361	0.697
13.2759	0.697
13.3158	0.697
13.3556	0.697
13.3955	0.693
13.4354	0.688
13.4752	0.682
13.5151	0.672
13.5549	0.66
13.5948	0.648
13.6346	0.635
13.6745	0.623
13.7143	0.612
13.7542	0.598
13.794	0.588
13.8339	0.578
13.8737	0.568
13.9136	0.56
13.9535	0.55
13.9933	0.543
14.0332	0.533
14.073	0.526
14.1129	0.518
14.1527	0.51
14.1926	0.501
14.2324	0.493
14.2723	0.486
14.3121	0.479
14.352	0.476
14.3919	0.469
14.4317	0.466
14.4716	0.459
14.5114	0.453
14.5513	0.448
14.5911	0.443
14.631	0.436
14.6708	0.431
14.7107	0.426
14.7505	0.423
14.7904	0.419
14.8303	0.421
14.8701	0.423
14.91	0.426
14.9498	0.434
14.9897	0.443
15.0295	0.451
15.0694	0.461
15.1092	0.469
15.1491	0.483
15.1889	0.496
15.2288	0.51
15.2687	0.528
15.3085	0.545
15.3484	0.561
15.3882	0.576
15.4281	0.583
15.4679	0.588
15.5078	0.591
15.5476	0.6
15.5875	0.607
15.6273	0.615
15.6672	0.62
15.707	0.627
15.7469	0.635
15.7868	0.642
15.8266	0.652
15.8665	0.658
15.9063	0.663
15.9462	0.667
15.986	0.673
