Infrared Spectrum: CALCIUM TUNGSTATE
Formula: Ca W O4
State: SOLID (NUJOL MULL)
Class: COBLENTZ
Instrument: Not specified, most likely a prism, grating, or hybrid spectrometer.
Sampling: TRANSMISSION
Resolution: 4
Origin: MELLON INSTITUTE
MICROMETERS	TRANSMITTANCE
2.007	0.749
2.04781	0.756
2.08863	0.766
2.12944	0.775
2.17026	0.782
2.21107	0.787
2.25189	0.79
2.2927	0.792
2.33352	0.795
2.37433	0.799
2.41515	0.804
2.45596	0.813
2.49678	0.821
2.53759	0.828
2.5784	0.833
2.61922	0.835
2.66003	0.833
2.70085	0.831
2.74166	0.814
2.78248	0.789
2.82329	0.763
2.86411	0.735
2.90492	0.713
2.94574	0.71
2.98655	0.715
3.02737	0.728
3.06818	0.742
3.10899	0.761
3.14981	0.778
3.19062	0.795
3.23144	0.811
3.27225	0.813
3.31307	0.753
3.35388	0.301
3.3947	0.147
3.43551	0.403
3.47633	0.343
3.51714	0.639
3.55796	0.845
3.59877	0.873
3.63958	0.886
3.6804	0.893
3.72121	0.897
3.76203	0.9
3.80284	0.903
3.84366	0.905
3.88447	0.909
3.92529	0.912
3.9661	0.914
4.00692	0.917
4.04773	0.919
4.08855	0.922
4.12936	0.922
4.17017	0.924
4.21099	0.926
4.2518	0.927
4.29262	0.927
4.33343	0.927
4.37425	0.926
4.41506	0.926
4.45588	0.922
4.49669	0.922
4.53751	0.921
4.57832	0.919
4.61914	0.919
4.65995	0.919
4.70076	0.919
4.74158	0.921
4.78239	0.919
4.82321	0.919
4.86402	0.921
4.90484	0.921
4.94565	0.922
4.98647	0.922
5.02728	0.924
5.0681	0.927
5.10891	0.931
5.14973	0.933
5.19054	0.936
5.23135	0.936
5.27217	0.938
5.31298	0.938
5.3538	0.938
5.39461	0.938
5.43543	0.938
5.47624	0.938
5.51706	0.938
5.55787	0.936
5.59869	0.936
5.6395	0.936
5.68032	0.939
5.72113	0.939
5.76194	0.936
5.80276	0.936
5.84357	0.933
5.88439	0.927
5.9252	0.921
5.96602	0.91
6.00683	0.9
6.04765	0.888
6.08846	0.879
6.12928	0.881
6.17009	0.886
6.21091	0.898
6.25172	0.914
6.29253	0.919
6.33335	0.919
6.37416	0.914
6.41498	0.907
6.45579	0.905
6.49661	0.903
6.53742	0.9
6.57824	0.893
6.61905	0.888
6.65987	0.883
6.70068	0.878
6.7415	0.859
6.78231	0.782
6.82312	0.663
6.86394	0.624
6.90475	0.668
6.94557	0.732
6.98638	0.787
7.0272	0.825
7.06801	0.842
7.10883	0.85
7.14964	0.854
7.19046	0.845
7.23127	0.775
7.27209	0.771
7.3129	0.818
7.35371	0.855
7.39453	0.885
7.43534	0.898
7.47616	0.905
7.51697	0.919
7.55779	0.922
7.5986	0.922
7.63942	0.924
7.68023	0.924
7.72105	0.926
7.76186	0.926
7.80268	0.929
7.84349	0.933
7.8843	0.936
7.92512	0.938
7.96593	0.939
8.00675	0.939
8.04756	0.936
8.08838	0.938
8.12919	0.939
8.17001	0.939
8.21082	0.941
8.25164	0.939
8.29245	0.938
8.33326	0.938
8.37408	0.938
8.41489	0.938
8.45571	0.936
8.49652	0.936
8.53734	0.934
8.57815	0.934
8.61897	0.934
8.65978	0.934
8.7006	0.929
8.74141	0.927
8.78223	0.926
8.82304	0.924
8.86385	0.924
8.90467	0.924
8.94548	0.924
8.9863	0.922
9.02711	0.924
9.06793	0.922
9.10874	0.922
9.14956	0.922
9.19037	0.924
9.23119	0.922
9.272	0.921
9.31282	0.919
9.35363	0.917
9.39444	0.915
9.43526	0.915
9.47607	0.915
9.51689	0.915
9.5577	0.915
9.59852	0.915
9.63933	0.915
9.68015	0.915
9.72096	0.915
9.76178	0.915
9.80259	0.914
9.84341	0.915
9.88422	0.915
9.92503	0.914
9.96585	0.914
10.0067	0.914
10.0475	0.914
10.0883	0.915
10.1291	0.915
10.1699	0.914
10.2107	0.912
10.2516	0.905
10.2924	0.903
10.3332	0.903
10.374	0.907
10.4148	0.907
10.4556	0.905
10.4964	0.91
10.5373	0.912
10.5781	0.91
10.6189	0.91
10.6597	0.91
10.7005	0.91
10.7413	0.907
10.7821	0.905
10.823	0.902
10.8638	0.895
10.9046	0.89
10.9454	0.886
10.9862	0.885
11.027	0.883
11.0678	0.878
11.1087	0.871
11.1495	0.84
11.1903	0.782
11.2311	0.725
11.2719	0.648
11.3127	0.53
11.3535	0.447
11.3944	0.399
11.4352	0.358
11.476	0.327
11.5168	0.301
11.5576	0.284
11.5984	0.265
11.6392	0.248
11.6801	0.228
11.7209	0.209
11.7617	0.197
11.8025	0.178
11.8433	0.166
11.8841	0.156
11.925	0.149
11.9658	0.142
12.0066	0.137
12.0474	0.13
12.0882	0.125
12.129	0.121
12.1698	0.116
12.2107	0.111
12.2515	0.109
12.2923	0.106
12.3331	0.104
12.3739	0.104
12.4147	0.102
12.4555	0.101
12.4964	0.097
12.5372	0.094
12.578	0.094
12.6188	0.092
12.6596	0.09
12.7004	0.096
12.7412	0.108
12.7821	0.147
12.8229	0.19
12.8637	0.241
12.9045	0.291
12.9453	0.358
12.9861	0.423
13.0269	0.492
13.0678	0.535
13.1086	0.574
13.1494	0.605
13.1902	0.646
13.231	0.677
13.2718	0.699
13.3126	0.711
13.3535	0.725
13.3943	0.735
13.4351	0.749
13.4759	0.756
13.5167	0.766
13.5575	0.777
13.5984	0.782
13.6392	0.792
13.68	0.799
13.7208	0.804
13.7616	0.809
13.8024	0.814
13.8432	0.819
13.8841	0.825
13.9249	0.828
13.9657	0.837
14.0065	0.84
14.0473	0.843
14.0881	0.845
14.1289	0.849
14.1698	0.85
14.2106	0.852
14.2514	0.854
14.2922	0.855
14.333	0.855
14.3738	0.857
14.4146	0.857
14.4555	0.855
14.4963	0.854
14.5371	0.85
14.5779	0.847
14.6187	0.843
14.6595	0.84
14.7003	0.835
14.7412	0.831
14.782	0.828
14.8228	0.826
14.8636	0.819
14.9044	0.814
14.9452	0.809
14.986	0.804
15.0269	0.802
15.0677	0.797
15.1085	0.794
15.1493	0.789
15.1901	0.782
15.2309	0.78
15.2717	0.775
15.3126	0.773
15.3534	0.768
15.3942	0.763
15.435	0.756
15.4758	0.751
15.5166	0.746
15.5575	0.74
15.5983	0.734
15.6391	0.727
15.6799	0.722
15.7207	0.718
15.7615	0.713
15.8023	0.706
15.8432	0.704
15.884	0.703
15.9248	0.699
15.9656	0.696
