Infrared Spectrum: CALCIUM OXALATE
Formula: Ca C2 O4  * H2 O
State: SOLID (KBr DISC)
Class: COBLENTZ
Instrument: Not specified, most likely a prism, grating, or hybrid spectrometer.
Sampling: TRANSMISSION
Resolution: 4
MICROMETERS	TRANSMITTANCE
2.057	0.967
2.0951	0.968
2.13321	0.967
2.17131	0.968
2.20941	0.973
2.24752	0.973
2.28562	0.973
2.32372	0.974
2.36183	0.974
2.39993	0.974
2.43804	0.976
2.47614	0.976
2.51424	0.974
2.55235	0.976
2.59045	0.977
2.62855	0.976
2.66666	0.976
2.70476	0.976
2.74286	0.966
2.78097	0.915
2.81907	0.781
2.85717	0.534
2.89528	0.514
2.93338	0.53
2.97148	0.58
3.00959	0.589
3.04769	0.635
3.08579	0.649
3.1239	0.714
3.162	0.738
3.20011	0.719
3.23821	0.658
3.27631	0.608
3.31442	0.664
3.35252	0.759
3.39062	0.815
3.42873	0.867
3.46683	0.895
3.50493	0.908
3.54304	0.923
3.58114	0.93
3.61924	0.936
3.65735	0.948
3.69545	0.958
3.73355	0.963
3.77166	0.966
3.80976	0.97
3.84786	0.968
3.88597	0.968
3.92407	0.97
3.96218	0.971
4.00028	0.973
4.03838	0.973
4.07649	0.973
4.11459	0.974
4.15269	0.976
4.1908	0.976
4.2289	0.977
4.267	0.977
4.30511	0.977
4.34321	0.976
4.38131	0.973
4.41942	0.97
4.45752	0.97
4.49562	0.973
4.53373	0.973
4.57183	0.974
4.60993	0.974
4.64804	0.973
4.68614	0.973
4.72425	0.973
4.76235	0.973
4.80045	0.973
4.83856	0.974
4.87666	0.974
4.91476	0.973
4.95287	0.973
4.99097	0.973
5.02907	0.971
5.06718	0.973
5.10528	0.97
5.14338	0.964
5.18149	0.961
5.21959	0.951
5.25769	0.948
5.2958	0.951
5.3339	0.954
5.37201	0.954
5.41011	0.954
5.44821	0.952
5.48632	0.949
5.52442	0.945
5.56252	0.943
5.60063	0.942
5.63873	0.933
5.67683	0.923
5.71494	0.902
5.75304	0.872
5.79114	0.833
5.82925	0.768
5.86735	0.673
5.90545	0.499
5.94356	0.355
5.98166	0.174
6.01976	0.106
6.05787	0.069
6.09597	0.05
6.13408	0.048
6.17218	0.11
6.21028	0.271
6.24839	0.481
6.28649	0.579
6.32459	0.61
6.3627	0.697
6.4008	0.741
6.4389	0.8
6.47701	0.809
6.51511	0.856
6.55321	0.865
6.59132	0.878
6.62942	0.892
6.66752	0.903
6.70563	0.902
6.74373	0.908
6.78183	0.912
6.81994	0.915
6.85804	0.917
6.89615	0.921
6.93425	0.924
6.97235	0.929
7.01046	0.932
7.04856	0.932
7.08666	0.93
7.12477	0.908
7.16287	0.859
7.20097	0.782
7.23908	0.751
7.27718	0.74
7.31528	0.734
7.35339	0.738
7.39149	0.748
7.42959	0.714
7.4677	0.574
7.5058	0.345
7.5439	0.181
7.58201	0.129
7.62011	0.471
7.65822	0.7
7.69632	0.796
7.73442	0.861
7.77253	0.89
7.81063	0.914
7.84873	0.923
7.88684	0.929
7.92494	0.935
7.96304	0.933
8.00115	0.935
8.03925	0.936
8.07735	0.939
8.11546	0.94
8.15356	0.943
8.19166	0.945
8.22977	0.946
8.26787	0.946
8.30597	0.946
8.34408	0.946
8.38218	0.948
8.42029	0.948
8.45839	0.948
8.49649	0.948
8.5346	0.948
8.5727	0.948
8.6108	0.948
8.64891	0.948
8.68701	0.948
8.72511	0.948
8.76322	0.948
8.80132	0.949
8.83942	0.949
8.87753	0.952
8.91563	0.955
8.95373	0.954
8.99184	0.957
9.02994	0.958
9.06805	0.96
9.10615	0.958
9.14425	0.958
9.18236	0.96
9.22046	0.961
9.25856	0.961
9.29667	0.96
9.33477	0.961
9.37287	0.963
9.41098	0.964
9.44908	0.966
9.48718	0.963
9.52529	0.963
9.56339	0.963
9.60149	0.963
9.6396	0.964
9.6777	0.964
9.7158	0.967
9.75391	0.967
9.79201	0.967
9.83012	0.967
9.86822	0.967
9.90632	0.964
9.94443	0.964
9.98253	0.964
10.0206	0.964
10.0587	0.964
10.0968	0.961
10.1349	0.96
10.173	0.957
10.2112	0.952
10.2493	0.948
10.2874	0.945
10.3255	0.939
10.3636	0.927
10.4017	0.92
10.4398	0.914
10.4779	0.903
10.516	0.899
10.5541	0.898
10.5922	0.895
10.6303	0.901
10.6684	0.908
10.7065	0.909
10.7446	0.918
10.7827	0.921
10.8208	0.929
10.8589	0.93
10.897	0.932
10.9351	0.933
10.9732	0.935
11.0113	0.936
11.0494	0.937
11.0875	0.935
11.1256	0.927
11.1637	0.92
11.2018	0.909
11.2399	0.896
11.278	0.881
11.3162	0.872
11.3543	0.874
11.3924	0.881
11.4305	0.893
11.4686	0.901
11.5067	0.909
11.5448	0.917
11.5829	0.92
11.621	0.918
11.6591	0.92
11.6972	0.921
11.7353	0.929
11.7734	0.929
11.8115	0.93
11.8496	0.933
11.8877	0.935
11.9258	0.935
11.9639	0.937
12.002	0.937
12.0401	0.937
12.0782	0.939
12.1163	0.939
12.1544	0.94
12.1925	0.94
12.2306	0.937
12.2687	0.936
12.3068	0.933
12.3449	0.933
12.3831	0.927
12.4212	0.921
12.4593	0.915
12.4974	0.902
12.5355	0.892
12.5736	0.868
12.6117	0.838
12.6498	0.785
12.6879	0.666
12.726	0.483
12.7641	0.257
12.8022	0.285
12.8403	0.432
12.8784	0.516
12.9165	0.583
12.9546	0.633
12.9927	0.689
13.0308	0.716
13.0689	0.735
13.107	0.742
13.1451	0.751
13.1832	0.769
13.2213	0.787
13.2594	0.8
13.2975	0.812
13.3356	0.83
13.3737	0.84
13.4118	0.846
13.4499	0.852
13.4881	0.853
13.5262	0.856
13.5643	0.858
13.6024	0.859
13.6405	0.859
13.6786	0.859
13.7167	0.856
13.7548	0.855
13.7929	0.855
13.831	0.849
13.8691	0.847
13.9072	0.846
13.9453	0.841
13.9834	0.838
14.0215	0.834
14.0596	0.828
14.0977	0.824
14.1358	0.821
14.1739	0.815
14.212	0.806
14.2501	0.794
14.2882	0.788
14.3263	0.784
14.3644	0.775
14.4025	0.766
14.4406	0.757
14.4787	0.748
14.5168	0.735
14.5549	0.725
14.5931	0.711
14.6312	0.701
14.6693	0.695
14.7074	0.682
14.7455	0.673
14.7836	0.667
14.8217	0.654
14.8598	0.646
14.8979	0.642
14.936	0.635
14.9741	0.632
15.0122	0.632
15.0503	0.633
15.0884	0.635
15.1265	0.639
15.1646	0.645
15.2027	0.657
15.2408	0.675
15.2789	0.683
15.317	0.698
15.3551	0.711
15.3932	0.726
15.4313	0.74
15.4694	0.753
15.5075	0.763
15.5456	0.776
15.5837	0.784
15.6218	0.791
15.66	0.8
15.6981	0.805
15.7362	0.805
