Infrared Spectrum: BARIUM CAPROATE
Formula: C12 H22 Ba O4
State: SOLID (0.14% IN KBr PELLET)
Class: COBLENTZ
Instrument: Not specified, most likely a prism, grating, or hybrid spectrometer.
Sampling: TRANSMISSION
Path length: 0.0031 CM THICK
Resolution: 4
MICROMETERS	TRANSMITTANCE
2.017	0.274
2.05581	0.273
2.09463	0.273
2.13344	0.282
2.17225	0.289
2.21107	0.299
2.24988	0.31
2.28869	0.321
2.3275	0.339
2.36632	0.349
2.40513	0.365
2.44394	0.372
2.48276	0.378
2.52157	0.391
2.56038	0.417
2.5992	0.426
2.63801	0.439
2.67682	0.44
2.71564	0.44
2.75445	0.422
2.79326	0.403
2.83207	0.395
2.87089	0.391
2.9097	0.401
2.94851	0.424
2.98733	0.445
3.02614	0.466
3.06495	0.478
3.10377	0.492
3.14258	0.504
3.18139	0.513
3.22021	0.518
3.25902	0.517
3.29783	0.429
3.33664	0.173
3.37546	0.056
3.41427	0.121
3.45308	0.216
3.4919	0.278
3.53071	0.533
3.56952	0.585
3.60834	0.624
3.64715	0.634
3.68596	0.65
3.72478	0.661
3.76359	0.669
3.8024	0.679
3.84121	0.691
3.88003	0.699
3.91884	0.708
3.95765	0.712
3.99647	0.717
4.03528	0.723
4.07409	0.73
4.11291	0.741
4.15172	0.749
4.19053	0.751
4.22935	0.757
4.26816	0.764
4.30697	0.77
4.34578	0.773
4.3846	0.782
4.42341	0.788
4.46222	0.795
4.50104	0.8
4.53985	0.804
4.57866	0.811
4.61748	0.814
4.65629	0.817
4.6951	0.822
4.73392	0.827
4.77273	0.83
4.81154	0.837
4.85035	0.839
4.88917	0.843
4.92798	0.848
4.96679	0.856
5.00561	0.863
5.04442	0.869
5.08323	0.871
5.12205	0.871
5.16086	0.878
5.19967	0.878
5.23849	0.884
5.2773	0.884
5.31611	0.891
5.35492	0.891
5.39374	0.894
5.43255	0.895
5.47136	0.892
5.51018	0.9
5.54899	0.889
5.5878	0.894
5.62662	0.871
5.66543	0.873
5.70424	0.852
5.74306	0.847
5.78187	0.839
5.82068	0.819
5.85949	0.827
5.89831	0.811
5.93712	0.813
5.97593	0.813
6.01475	0.793
6.05356	0.752
6.09237	0.752
6.13119	0.713
6.17	0.691
6.20881	0.647
6.24763	0.538
6.28644	0.341
6.32525	0.058
6.36406	0.043
6.40288	0.022
6.44169	0.008
6.4805	0.004
6.51932	0.003
6.55813	0.008
6.59694	0.058
6.63576	0.17
6.67457	0.299
6.71338	0.432
6.75219	0.401
6.79101	0.219
6.82982	0.159
6.86863	0.104
6.90745	0.03
6.94626	0.019
6.98507	0.022
7.02389	0.056
7.0627	0.115
7.10151	0.201
7.14033	0.248
7.17914	0.351
7.21795	0.46
7.25676	0.547
7.29558	0.653
7.33439	0.656
7.3732	0.681
7.41202	0.637
7.45083	0.5
7.48964	0.64
7.52846	0.76
7.56727	0.798
7.60608	0.796
7.6449	0.757
7.68371	0.694
7.72252	0.572
7.76133	0.632
7.80015	0.759
7.83896	0.79
7.87777	0.752
7.91659	0.697
7.9554	0.731
7.99421	0.811
8.03303	0.847
8.07184	0.852
8.11065	0.806
8.14947	0.691
8.18828	0.643
8.22709	0.772
8.2659	0.85
8.30472	0.863
8.34353	0.837
8.38234	0.826
8.42116	0.853
8.45997	0.878
8.49878	0.891
8.5376	0.9
8.57641	0.902
8.61522	0.902
8.65404	0.904
8.69285	0.902
8.73166	0.904
8.77047	0.904
8.80929	0.904
8.8481	0.889
8.88691	0.855
8.92573	0.801
8.96454	0.708
9.00335	0.598
9.04217	0.616
9.08098	0.749
9.11979	0.817
9.15861	0.843
9.19742	0.848
9.23623	0.853
9.27504	0.855
9.31386	0.86
9.35267	0.861
9.39148	0.845
9.4303	0.839
9.46911	0.837
9.50792	0.834
9.54674	0.837
9.58555	0.843
9.62436	0.855
9.66318	0.861
9.70199	0.863
9.7408	0.865
9.77961	0.865
9.81843	0.865
9.85724	0.86
9.89605	0.837
9.93487	0.827
9.97368	0.853
10.0125	0.878
10.0513	0.891
10.0901	0.891
10.1289	0.892
10.1677	0.871
10.2066	0.871
10.2454	0.869
10.2842	0.876
10.323	0.874
10.3618	0.837
10.4006	0.809
10.4394	0.835
10.4783	0.869
10.5171	0.878
10.5559	0.842
10.5947	0.79
10.6335	0.772
10.6723	0.783
10.7111	0.786
10.7499	0.79
10.7888	0.817
10.8276	0.834
10.8664	0.858
10.9052	0.889
10.944	0.9
10.9828	0.905
11.0216	0.91
11.0604	0.908
11.0993	0.908
11.1381	0.904
11.1769	0.887
11.2157	0.85
11.2545	0.796
11.2933	0.793
11.3321	0.837
11.371	0.878
11.4098	0.886
11.4486	0.887
11.4874	0.863
11.5262	0.813
11.565	0.803
11.6038	0.817
11.6426	0.783
11.6815	0.704
11.7203	0.639
11.7591	0.63
11.7979	0.697
11.8367	0.775
11.8755	0.826
11.9143	0.855
11.9531	0.878
11.992	0.892
12.0308	0.895
12.0696	0.897
12.1084	0.899
12.1472	0.9
12.186	0.9
12.2248	0.899
12.2637	0.899
12.3025	0.897
12.3413	0.895
12.3801	0.889
12.4189	0.886
12.4577	0.884
12.4965	0.882
12.5353	0.879
12.5742	0.878
12.613	0.876
12.6518	0.871
12.6906	0.866
12.7294	0.85
12.7682	0.83
12.807	0.804
12.8458	0.773
12.8847	0.741
12.9235	0.708
12.9623	0.692
13.0011	0.692
13.0399	0.749
13.0787	0.788
13.1175	0.811
13.1564	0.822
13.1952	0.827
13.234	0.827
13.2728	0.826
13.3116	0.816
13.3504	0.806
13.3892	0.79
13.428	0.769
13.4669	0.747
13.5057	0.733
13.5445	0.723
13.5833	0.707
13.6221	0.671
13.6609	0.617
13.6997	0.57
13.7385	0.554
13.7774	0.57
13.8162	0.619
13.855	0.665
13.8938	0.692
13.9326	0.708
13.9714	0.715
14.0102	0.718
14.0491	0.717
14.0879	0.713
14.1267	0.71
14.1655	0.702
14.2043	0.699
14.2431	0.694
14.2819	0.682
14.3207	0.663
14.3596	0.629
14.3984	0.577
14.4372	0.508
14.476	0.466
14.5148	0.46
14.5536	0.487
14.5924	0.538
14.6312	0.582
14.6701	0.619
14.7089	0.65
14.7477	0.678
14.7865	0.699
14.8253	0.717
14.8641	0.725
14.9029	0.726
14.9418	0.731
14.9806	0.734
15.0194	0.734
15.0582	0.723
15.097	0.717
15.1358	0.71
15.1746	0.704
15.2134	0.695
15.2523	0.686
15.2911	0.682
15.3299	0.679
15.3687	0.674
15.4075	0.671
15.4463	0.668
15.4851	0.668
15.5239	0.666
15.5628	0.666
15.6016	0.668
15.6404	0.668
15.6792	0.668
15.718	0.666
15.7568	0.669
15.7956	0.669
15.8345	0.669
15.8733	0.669
15.9121	0.668
15.9509	0.665
