Infrared Spectrum: BENZOIC ACID, P-(POTASSIUM SULFO)-
Formula: C7 H5 K O5 S
State: SOLID (KBr PELLET)
Class: COBLENTZ
Instrument: Not specified, most likely a prism, grating, or hybrid spectrometer.
Sampling: TRANSMISSION
Resolution: 4
Origin: TENNESSEE EASTMAN COMPANY, RESEARCH LABORATORIES
MICROMETERS	TRANSMITTANCE
2.027	0.71
2.06679	0.716
2.10658	0.73
2.14637	0.74
2.18617	0.751
2.22596	0.759
2.26575	0.764
2.30554	0.773
2.34533	0.776
2.38512	0.783
2.42491	0.788
2.4647	0.798
2.5045	0.804
2.54429	0.807
2.58408	0.809
2.62387	0.812
2.66366	0.819
2.70345	0.819
2.74324	0.783
2.78304	0.73
2.82283	0.703
2.86262	0.685
2.90241	0.675
2.9422	0.683
2.98199	0.698
3.02178	0.708
3.06158	0.706
3.10137	0.688
3.14116	0.645
3.18095	0.599
3.22074	0.566
3.26053	0.514
3.30032	0.504
3.34011	0.534
3.37991	0.524
3.4197	0.592
3.45949	0.649
3.49928	0.701
3.53907	0.731
3.57886	0.736
3.61865	0.779
3.65845	0.804
3.69824	0.812
3.73803	0.814
3.77782	0.798
3.81761	0.764
3.8574	0.826
3.89719	0.855
3.93699	0.865
3.97678	0.857
4.01657	0.847
4.05636	0.867
4.09615	0.897
4.13594	0.903
4.17573	0.915
4.21552	0.927
4.25532	0.92
4.29511	0.91
4.3349	0.927
4.37469	0.937
4.41448	0.943
4.45427	0.945
4.49406	0.948
4.53386	0.95
4.57365	0.953
4.61344	0.958
4.65323	0.958
4.69302	0.958
4.73281	0.958
4.7726	0.956
4.8124	0.955
4.85219	0.955
4.89198	0.953
4.93177	0.96
4.97156	0.958
5.01135	0.971
5.05114	0.956
5.09093	0.953
5.13073	0.951
5.17052	0.948
5.21031	0.953
5.2501	0.961
5.28989	0.956
5.32968	0.961
5.36947	0.951
5.40927	0.956
5.44906	0.948
5.48885	0.937
5.52864	0.933
5.56843	0.932
5.60822	0.928
5.64801	0.92
5.68781	0.877
5.7276	0.725
5.76739	0.22
5.80718	0.304
5.84697	0.637
5.88676	0.763
5.92655	0.832
5.96634	0.854
6.00614	0.872
6.04593	0.882
6.08572	0.872
6.12551	0.877
6.1653	0.885
6.20509	0.857
6.24488	0.862
6.28468	0.92
6.32447	0.865
6.36426	0.937
6.40405	0.933
6.44384	0.961
6.48363	0.94
6.52342	0.956
6.56322	0.945
6.60301	0.958
6.6428	0.951
6.68259	0.925
6.72238	0.971
6.76217	0.963
6.80196	0.935
6.84175	0.922
6.88155	0.935
6.92134	0.938
6.96113	0.927
7.00092	0.895
7.04071	0.789
7.0805	0.577
7.12029	0.657
7.16009	0.788
7.19988	0.847
7.23967	0.874
7.27946	0.88
7.31925	0.887
7.35904	0.922
7.39883	0.933
7.43863	0.937
7.47842	0.928
7.51821	0.915
7.558	0.892
7.59779	0.852
7.63758	0.799
7.67737	0.857
7.71716	0.791
7.75696	0.791
7.79675	0.697
7.83654	0.523
7.87633	0.349
7.91612	0.21
7.95591	0.119
7.9957	0.079
8.0355	0.185
8.07529	0.362
8.11508	0.461
8.15487	0.533
8.19466	0.566
8.23445	0.62
8.27424	0.647
8.31404	0.635
8.35383	0.572
8.39362	0.498
8.43341	0.37
8.4732	0.299
8.51299	0.223
8.55278	0.248
8.59257	0.445
8.63237	0.64
8.67216	0.759
8.71195	0.806
8.75174	0.778
8.79153	0.61
8.83132	0.399
8.87111	0.635
8.91091	0.698
8.9507	0.584
8.99049	0.481
9.03028	0.289
9.07007	0.4
9.10986	0.637
9.14965	0.768
9.18945	0.85
9.22924	0.887
9.26903	0.9
9.30882	0.908
9.34861	0.913
9.3884	0.917
9.42819	0.918
9.46798	0.915
9.50778	0.885
9.54757	0.794
9.58736	0.697
9.62715	0.485
9.66694	0.245
9.70673	0.374
9.74652	0.773
9.78632	0.849
9.82611	0.731
9.8659	0.374
9.90569	0.149
9.94548	0.501
9.98527	0.776
10.0251	0.855
10.0649	0.879
10.1046	0.89
10.1444	0.895
10.1842	0.897
10.224	0.899
10.2638	0.899
10.3036	0.899
10.3434	0.899
10.3832	0.899
10.423	0.895
10.4628	0.897
10.5026	0.897
10.5424	0.897
10.5821	0.897
10.6219	0.897
10.6617	0.897
10.7015	0.897
10.7413	0.897
10.7811	0.897
10.8209	0.897
10.8607	0.897
10.9005	0.889
10.9403	0.885
10.9801	0.88
11.0198	0.875
11.0596	0.864
11.0994	0.849
11.1392	0.842
11.179	0.836
11.2188	0.834
11.2586	0.832
11.2984	0.841
11.3382	0.85
11.378	0.864
11.4178	0.879
11.4576	0.892
11.4973	0.899
11.5371	0.907
11.5769	0.884
11.6167	0.799
11.6565	0.647
11.6963	0.682
11.7361	0.789
11.7759	0.847
11.8157	0.874
11.8555	0.88
11.8953	0.885
11.935	0.899
11.9748	0.917
12.0146	0.93
12.0544	0.937
12.0942	0.942
12.134	0.948
12.1738	0.953
12.2136	0.953
12.2534	0.963
12.2932	0.963
12.333	0.97
12.3728	0.97
12.4125	0.97
12.4523	0.963
12.4921	0.948
12.5319	0.942
12.5717	0.96
12.6115	0.971
12.6513	0.975
12.6911	0.975
12.7309	0.973
12.7707	0.968
12.8105	0.966
12.8503	0.955
12.89	0.932
12.9298	0.88
12.9696	0.793
13.0094	0.678
13.0492	0.723
13.089	0.884
13.1288	0.958
13.1686	0.98
13.2084	0.985
13.2482	0.988
13.288	0.988
13.3277	0.988
13.3675	0.988
13.4073	0.986
13.4471	0.98
13.4869	0.973
13.5267	0.965
13.5665	0.958
13.6063	0.947
13.6461	0.93
13.6859	0.908
13.7257	0.882
13.7655	0.852
13.8052	0.817
13.845	0.789
13.8848	0.745
13.9246	0.682
13.9644	0.594
14.0042	0.468
14.044	0.341
14.0838	0.25
14.1236	0.213
14.1634	0.226
14.2032	0.309
14.2429	0.438
14.2827	0.546
14.3225	0.635
14.3623	0.68
14.4021	0.687
14.4419	0.66
14.4817	0.632
14.5215	0.639
14.5613	0.7
14.6011	0.769
14.6409	0.827
14.6807	0.857
14.7204	0.87
14.7602	0.877
14.8	0.877
14.8398	0.877
14.8796	0.87
14.9194	0.862
14.9592	0.831
14.999	0.799
15.0388	0.794
15.0786	0.799
15.1184	0.798
15.1581	0.793
15.1979	0.781
15.2377	0.776
15.2775	0.761
15.3173	0.748
15.3571	0.731
15.3969	0.72
15.4367	0.698
15.4765	0.682
15.5163	0.658
15.5561	0.619
15.5959	0.587
15.6356	0.543
15.6754	0.465
15.7152	0.403
15.755	0.359
15.7948	0.344
15.8346	0.346
15.8744	0.372
15.9142	0.42
15.954	0.451
15.9938	0.463
