Infrared Spectrum: MAGNESIUM SILICATE
Formula: O11 Mg3 Si4  * H2 O
State: SOLID (0.5 mg / 300 mg CsI DISC)
Class: COBLENTZ III
Instrument: BECKMAN IR-12 (GRATING)
Instrument parameters: GRATING BLAZED AT 3330, 1330, 445, 220 CM^-^1
Sampling: TRANSMISSION
Resolution: 4
Origin: DESOTO CHEMICAL COATINGS, INC.
1/CM	TRANSMITTANCE
201.33	0.913
211.973	0.916
222.616	0.916
233.259	0.918
243.902	0.918
254.545	0.92
265.188	0.917
275.831	0.912
286.474	0.909
297.117	0.91
307.76	0.906
318.403	0.902
329.046	0.898
339.689	0.893
350.332	0.875
360.975	0.876
371.619	0.867
382.262	0.7642
392.905	0.5791
403.548	0.833
414.191	0.835
424.834	0.6301
435.477	0.6212
446.12	0.3681
456.763	0.3839
467.406	0.319
478.049	0.6358
488.692	0.7549
499.335	0.793
509.978	0.833
520.621	0.864
531.264	0.8001
541.907	0.8319
552.55	0.906
563.193	0.926
573.836	0.936
584.479	0.945
595.122	0.949
605.765	0.952
616.408	0.952
627.051	0.95
637.694	0.949
648.337	0.944
658.98	0.934
669.623	0.692
680.266	0.852
690.91	0.908
701.553	0.9419
712.196	0.966
722.839	0.974
733.482	0.98
744.125	0.982
754.768	0.984
765.411	0.984
776.054	0.984
786.697	0.982
797.34	0.982
807.983	0.982
818.626	0.985
829.269	0.988
839.912	0.988
850.555	0.985
861.198	0.982
871.841	0.98
882.484	0.977
893.127	0.974
903.77	0.974
914.413	0.972
925.056	0.973
935.699	0.964
946.342	0.956
956.985	0.929
967.628	0.902
978.271	0.845
988.914	0.728
999.557	0.535
1010.2	0.2802
1020.84	0.095
1031.49	0.204
1042.13	0.316
1052.77	0.46
1063.42	0.6838
1074.06	0.763
1084.7	0.811
1095.34	0.841
1105.99	0.865
1116.63	0.882
1127.27	0.896
1137.92	0.91
1148.56	0.922
1159.2	0.93
1169.85	0.938
1180.49	0.944
1191.13	0.948
1201.78	0.952
1212.42	0.956
1223.06	0.956
1233.7	0.957
1244.35	0.957
1254.99	0.958
1265.63	0.957
1276.28	0.958
1286.92	0.958
1297.56	0.96
1308.21	0.954
1318.85	0.954
1329.49	0.954
1340.13	0.954
1350.78	0.952
1361.42	0.95
1372.06	0.949
1382.71	0.952
1393.35	0.95
1403.99	0.949
1414.64	0.948
1425.28	0.945
1435.92	0.945
1446.56	0.945
1457.21	0.945
1467.85	0.942
1478.49	0.944
1489.14	0.946
1499.78	0.946
1510.42	0.946
1521.07	0.945
1531.71	0.945
1542.35	0.942
1553	0.941
1563.64	0.94
1574.28	0.936
1584.92	0.933
1595.57	0.926
1606.21	0.922
1616.85	0.914
1627.5	0.914
1638.14	0.918
1648.78	0.917
1659.43	0.918
1670.07	0.918
1680.71	0.917
1691.35	0.918
1702	0.918
1712.64	0.917
1723.28	0.92
1733.93	0.92
1744.57	0.918
1755.21	0.917
1765.86	0.916
1776.5	0.914
1787.14	0.913
1797.78	0.913
1808.43	0.912
1819.07	0.912
1829.71	0.91
1840.36	0.91
1851	0.909
1861.64	0.908
1872.29	0.906
1882.93	0.904
1893.57	0.902
1904.22	0.901
1914.86	0.901
1925.5	0.901
1936.14	0.898
1946.79	0.896
1957.43	0.893
1968.07	0.892
1978.72	0.89
1989.36	0.89
2000	0.89
2010.65	0.888
2021.29	0.885
2031.93	0.882
2042.57	0.882
2053.22	0.882
2063.86	0.882
2074.5	0.881
2085.15	0.878
2095.79	0.8769
2106.43	0.875
2117.08	0.872
2127.72	0.872
2138.36	0.871
2149	0.8689
2159.65	0.8679
2170.29	0.8668
2180.93	0.864
2191.58	0.863
2202.22	0.861
2212.86	0.86
2223.51	0.8569
2234.15	0.8547
2244.79	0.852
2255.44	0.852
2266.08	0.849
2276.72	0.843
2287.36	0.843
2298.01	0.843
2308.65	0.8408
2319.29	0.8386
2329.94	0.836
2340.58	0.8313
2351.22	0.8288
2361.87	0.8265
2372.51	0.8225
2383.15	0.8215
2393.79	0.823
2404.44	0.82
2415.08	0.816
2425.72	0.8184
2436.37	0.8127
2447.01	0.8117
2457.65	0.811
2468.3	0.811
2478.94	0.805
2489.58	0.8007
2500.23	0.8
2510.87	0.799
2521.51	0.7983
2532.15	0.795
2542.8	0.792
2553.44	0.789
2564.08	0.788
2574.73	0.7876
2585.37	0.7836
2596.01	0.783
2606.66	0.7822
2617.3	0.78
2627.94	0.777
2638.58	0.7741
2649.23	0.772
2659.87	0.771
2670.51	0.768
2681.16	0.768
2691.8	0.767
2702.44	0.7626
2713.09	0.76
2723.73	0.758
2734.37	0.7546
2745.01	0.752
2755.66	0.75
2766.3	0.747
2776.94	0.744
2787.59	0.744
2798.23	0.743
2808.87	0.742
2819.52	0.7369
2830.16	0.732
2840.8	0.734
2851.45	0.7264
2862.09	0.724
2872.73	0.7249
2883.37	0.72
2894.02	0.719
2904.66	0.715
2915.3	0.7128
2925.95	0.711
2936.59	0.71
2947.23	0.707
2957.88	0.704
2968.52	0.704
2979.16	0.702
2989.8	0.7
3000.45	0.6983
3011.09	0.6953
3021.73	0.6913
3032.38	0.6917
3043.02	0.69
3053.66	0.688
3064.31	0.6863
3074.95	0.6833
3085.59	0.68
3096.23	0.679
3106.88	0.675
3117.52	0.674
3128.16	0.6703
3138.81	0.67
3149.45	0.668
3160.09	0.6662
3170.74	0.662
3181.38	0.6582
3192.02	0.6542
3202.67	0.651
3213.31	0.65
3223.95	0.6432
3234.59	0.642
3245.24	0.6404
3255.88	0.638
3266.52	0.6312
3277.17	0.6301
3287.81	0.6271
3298.45	0.623
3309.1	0.621
3319.74	0.6153
3330.38	0.6112
3341.02	0.6091
3351.67	0.607
3362.31	0.6032
3372.95	0.598
3383.6	0.5931
3394.24	0.59
3404.88	0.587
3415.53	0.5821
3426.17	0.578
3436.81	0.578
3447.45	0.573
3458.1	0.571
3468.74	0.57
3479.38	0.566
3490.03	0.567
3500.67	0.567
3511.31	0.565
3521.96	0.561
3532.6	0.558
3543.24	0.562
3553.89	0.561
3564.53	0.559
3575.17	0.557
3585.81	0.558
3596.46	0.559
3607.1	0.5589
3617.74	0.558
3628.39	0.557
3639.03	0.558
3649.67	0.555
3660.32	0.554
3670.96	0.5465
3681.6	0.5015
3692.24	0.542
3702.89	0.546
3713.53	0.5459
3724.17	0.5429
3734.82	0.542
3745.46	0.541
3756.1	0.5407
3766.75	0.537
3777.39	0.5348
3788.03	0.534
3798.68	0.5326
3809.32	0.53
3819.96	0.529
3830.6	0.526
3841.25	0.5228
3851.89	0.522
3862.53	0.519
3873.18	0.517
3883.82	0.5148
3894.46	0.513
3905.11	0.51
3915.75	0.507
3926.39	0.5057
3937.03	0.502
3947.68	0.5
3958.32	0.5
3968.96	0.498
3979.61	0.497
3990.25	0.4954
