Infrared Spectrum: SODIUM COBALTINITRITE
Formula: Na2 Co ( N O2)6
State: SOLID (NUJOL MULL)
Class: COBLENTZ
Instrument: Not specified, most likely a prism, grating, or hybrid spectrometer.
Sampling: TRANSMISSION
Resolution: 4
Origin: MELLON INSTITUTE
MICROMETERS	TRANSMITTANCE
2.029	0.344
2.0689	0.349
2.10881	0.362
2.14871	0.376
2.18861	0.391
2.22851	0.401
2.26842	0.419
2.30832	0.429
2.34822	0.443
2.38813	0.451
2.42803	0.463
2.46793	0.481
2.50784	0.489
2.54774	0.5
2.58764	0.518
2.62754	0.526
2.66745	0.533
2.70735	0.535
2.74725	0.531
2.78716	0.53
2.82706	0.518
2.86696	0.498
2.90687	0.484
2.94677	0.486
2.98667	0.496
3.02657	0.506
3.06648	0.521
3.10638	0.54
3.14628	0.55
3.18619	0.573
3.22609	0.586
3.26599	0.581
3.3059	0.489
3.3458	0.229
3.3857	0.138
3.4256	0.245
3.46551	0.302
3.50541	0.693
3.54531	0.759
3.58522	0.764
3.62512	0.739
3.66502	0.774
3.70493	0.777
3.74483	0.745
3.78473	0.777
3.82463	0.797
3.86454	0.812
3.90444	0.824
3.94434	0.832
3.98425	0.839
4.02415	0.844
4.06405	0.849
4.10396	0.851
4.14386	0.852
4.18376	0.851
4.22366	0.844
4.26357	0.839
4.30347	0.831
4.34337	0.837
4.38328	0.851
4.42318	0.852
4.46308	0.857
4.50299	0.859
4.54289	0.861
4.58279	0.862
4.62269	0.866
4.6626	0.871
4.7025	0.874
4.7424	0.879
4.78231	0.881
4.82221	0.886
4.86211	0.892
4.90202	0.896
4.94192	0.899
4.98182	0.903
5.02172	0.904
5.06163	0.906
5.10153	0.911
5.14143	0.916
5.18134	0.919
5.22124	0.923
5.26114	0.924
5.30105	0.929
5.34095	0.933
5.38085	0.934
5.42075	0.938
5.46066	0.943
5.50056	0.944
5.54046	0.949
5.58037	0.951
5.62027	0.956
5.66017	0.961
5.70008	0.969
5.73998	0.971
5.77988	0.976
5.81978	0.971
5.85969	0.956
5.89959	0.943
5.93949	0.938
5.9794	0.924
6.0193	0.916
6.0592	0.889
6.09911	0.891
6.13901	0.914
6.17891	0.904
6.21881	0.881
6.25872	0.827
6.29862	0.779
6.33852	0.757
6.37843	0.762
6.41833	0.772
6.45823	0.782
6.49814	0.779
6.53804	0.777
6.57794	0.764
6.61784	0.734
6.65775	0.635
6.69765	0.463
6.73755	0.287
6.77746	0.182
6.81736	0.102
6.85726	0.066
6.89717	0.053
6.93707	0.046
6.97697	0.028
7.01687	0.023
7.05678	0.14
7.09668	0.277
7.13658	0.357
7.17649	0.419
7.21639	0.421
7.25629	0.453
7.2962	0.444
7.3361	0.249
7.376	0.068
7.4159	0.033
7.45581	0.018
7.49571	0.013
7.53561	0.05
7.57552	0.17
7.61542	0.342
7.65532	0.418
7.69523	0.538
7.73513	0.585
7.77503	0.625
7.81493	0.648
7.85484	0.675
7.89474	0.7
7.93464	0.722
7.97455	0.74
8.01445	0.76
8.05435	0.77
8.09426	0.789
8.13416	0.806
8.17406	0.819
8.21396	0.829
8.25387	0.837
8.29377	0.846
8.33367	0.854
8.37358	0.861
8.41348	0.869
8.45338	0.879
8.49329	0.884
8.53319	0.884
8.57309	0.882
8.61299	0.886
8.6529	0.886
8.6928	0.891
8.7327	0.892
8.77261	0.894
8.81251	0.892
8.85241	0.891
8.89232	0.891
8.93222	0.894
8.97212	0.896
9.01202	0.899
9.05193	0.901
9.09183	0.903
9.13173	0.909
9.17164	0.911
9.21154	0.913
9.25144	0.918
9.29135	0.921
9.33125	0.924
9.37115	0.929
9.41105	0.931
9.45096	0.933
9.49086	0.931
9.53076	0.933
9.57067	0.931
9.61057	0.933
9.65047	0.936
9.69038	0.938
9.73028	0.931
9.77018	0.936
9.81008	0.938
9.84999	0.936
9.88989	0.938
9.92979	0.941
9.9697	0.944
10.0096	0.946
10.0495	0.948
10.0894	0.951
10.1293	0.953
10.1692	0.954
10.2091	0.953
10.249	0.954
10.2889	0.953
10.3288	0.951
10.3687	0.953
10.4086	0.954
10.4485	0.956
10.4884	0.958
10.5283	0.956
10.5682	0.958
10.6081	0.956
10.648	0.958
10.688	0.958
10.7279	0.954
10.7678	0.956
10.8077	0.953
10.8476	0.953
10.8875	0.958
10.9274	0.959
10.9673	0.961
11.0072	0.961
11.0471	0.961
11.087	0.964
11.1269	0.964
11.1668	0.969
11.2067	0.971
11.2466	0.971
11.2865	0.971
11.3264	0.976
11.3663	0.976
11.4062	0.978
11.4461	0.984
11.486	0.984
11.5259	0.984
11.5658	0.983
11.6057	0.978
11.6456	0.961
11.6855	0.904
11.7254	0.602
11.7653	0.294
11.8052	0.204
11.8451	0.304
11.885	0.622
11.9249	0.737
11.9648	0.816
12.0047	0.849
12.0447	0.869
12.0846	0.886
12.1245	0.903
12.1644	0.911
12.2043	0.914
12.2442	0.921
12.2841	0.921
12.324	0.921
12.3639	0.921
12.4038	0.921
12.4437	0.921
12.4836	0.924
12.5235	0.923
12.5634	0.923
12.6033	0.924
12.6432	0.924
12.6831	0.923
12.723	0.923
12.7629	0.921
12.8028	0.923
12.8427	0.916
12.8826	0.919
12.9225	0.913
12.9624	0.914
13.0023	0.913
13.0422	0.914
13.0821	0.913
13.122	0.913
13.1619	0.911
13.2018	0.908
13.2417	0.903
13.2816	0.899
13.3215	0.897
13.3615	0.892
13.4014	0.889
13.4413	0.886
13.4812	0.882
13.5211	0.877
13.561	0.874
13.6009	0.869
13.6408	0.866
13.6807	0.859
13.7206	0.846
13.7605	0.834
13.8004	0.827
13.8403	0.822
13.8802	0.822
13.9201	0.821
13.96	0.821
13.9999	0.817
14.0398	0.814
14.0797	0.812
14.1196	0.806
14.1595	0.799
14.1994	0.787
14.2393	0.78
14.2792	0.77
14.3191	0.76
14.359	0.752
14.3989	0.742
14.4388	0.735
14.4787	0.729
14.5186	0.719
14.5585	0.707
14.5984	0.702
14.6383	0.695
14.6783	0.693
14.7182	0.687
14.7581	0.672
14.798	0.655
14.8379	0.647
14.8778	0.638
14.9177	0.633
14.9576	0.625
14.9975	0.615
15.0374	0.612
15.0773	0.603
15.1172	0.593
15.1571	0.586
15.197	0.575
15.2369	0.568
15.2768	0.561
15.3167	0.56
15.3566	0.553
15.3965	0.546
15.4364	0.54
15.4763	0.535
15.5162	0.53
15.5561	0.525
15.596	0.523
15.6359	0.521
15.6758	0.52
15.7157	0.516
15.7556	0.515
15.7955	0.513
15.8354	0.513
15.8753	0.513
15.9152	0.511
15.9551	0.513
15.995	0.678
