Infrared Spectrum: Ergotamine, dihydro, methanesulfonate (salt)
Formula: C34 H41 N5 O8 S
State: SOLID (OIL MULL)
Class: COBLENTZ
Instrument: PERKIN-ELMER 21 (GRATING)
Instrument parameters: NaCl PRISM
Sampling: TRANSMISSION
Resolution: 2
Origin: SMITH KLINE & FRENCH LABS.
1/CM	TRANSMITTANCE
644	0.4337
653	0.4421
662	0.4399
671	0.4489
680	0.4613
689	0.4585
698	0.4083
707	0.4757
716	0.5153
725	0.5197
734	0.4743
743	0.4605
752	0.4195
761	0.4092
770	0.5123
779	0.474
788	0.5493
797	0.6779
806	0.6508
815	0.6652
824	0.7064
833	0.697
842	0.6914
851	0.7179
860	0.7336
869	0.7401
878	0.7294
887	0.7069
896	0.714
905	0.7215
914	0.662
923	0.593
932	0.5978
941	0.6021
950	0.653
959	0.6546
968	0.6454
977	0.6522
986	0.6706
995	0.6748
1004	0.6485
1013	0.6175
1022	0.5836
1031	0.4715
1040	0.336
1049	0.3436
1058	0.6003
1067	0.5987
1076	0.5863
1085	0.6006
1094	0.6444
1103	0.6375
1112	0.6181
1121	0.5714
1130	0.4876
1139	0.356
1148	0.3506
1157	0.277
1166	0.2502
1175	0.2289
1184	0.2379
1193	0.2365
1202	0.2156
1211	0.2422
1220	0.3041
1229	0.4148
1238	0.4678
1247	0.5119
1256	0.5506
1265	0.4969
1274	0.5379
1283	0.5864
1292	0.5625
1301	0.5484
1310	0.5776
1319	0.5596
1328	0.5245
1337	0.4961
1346	0.4656
1355	0.4689
1364	0.4507
1373	0.3698
1382	0.3932
1391	0.5438
1400	0.5177
1409	0.4739
1418	0.3826
1427	0.2997
1436	0.2376
1445	0.187
1454	0.1668
1463	0.1752
1472	0.2301
1481	0.3626
1490	0.4936
1499	0.5472
1508	0.6481
1517	0.6661
1526	0.6611
1535	0.6107
1544	0.5432
1553	0.4792
1562	0.5035
1571	0.5665
1580	0.6289
1589	0.6537
1598	0.6506
1607	0.5749
1616	0.4785
1625	0.3972
1634	0.3333
1643	0.2731
1652	0.2743
1661	0.2575
1670	0.2933
1679	0.4041
1688	0.5541
1697	0.593
1706	0.5473
1715	0.3988
1724	0.3025
1733	0.4082
1742	0.5203
1751	0.7218
1760	0.7911
1769	0.8313
1778	0.8392
1787	0.8427
1796	0.8487
1805	0.8499
1814	0.8497
1823	0.8529
1832	0.8595
1841	0.8602
1850	0.8601
1859	0.8596
1868	0.8588
1877	0.8571
1886	0.8553
1895	0.8538
1904	0.8538
1913	0.8565
1922	0.859
1931	0.858
1940	0.8558
1949	0.8523
1958	0.85
1967	0.8492
1976	0.8487
1985	0.8481
1994	0.8473
2003	0.8464
2012	0.8454
2021	0.8439
2030	0.8425
2039	0.8418
2048	0.8421
2057	0.8409
2066	0.8378
2075	0.8366
2084	0.8368
2093	0.8372
2102	0.8374
2111	0.8375
2120	0.8377
2129	0.8374
2138	0.8368
2147	0.8362
2156	0.8351
2165	0.8336
2174	0.832
2183	0.8299
2192	0.8278
2201	0.8259
2210	0.8241
2219	0.8225
2228	0.8208
2237	0.8189
2246	0.8171
2255	0.8151
2264	0.812
2273	0.8089
2282	0.8046
2291	0.8002
2300	0.797
2309	0.7947
2318	0.7935
2327	0.7924
2336	0.7908
2345	0.7882
2354	0.7819
2363	0.7754
2372	0.769
2381	0.7625
2390	0.756
2399	0.7517
2408	0.7477
2417	0.745
2426	0.7425
2435	0.7405
2444	0.7392
2453	0.738
2462	0.7351
2471	0.7315
2480	0.7259
2489	0.7212
2498	0.7177
2507	0.7136
2516	0.7071
2525	0.701
2534	0.6954
2543	0.6926
2552	0.6911
2561	0.6888
2570	0.6863
2579	0.6828
2588	0.6791
2597	0.6764
2606	0.6742
2615	0.6721
2624	0.6704
2633	0.6692
2642	0.6681
2651	0.667
2660	0.6663
2669	0.6659
2678	0.6656
2687	0.6652
2696	0.6654
2705	0.666
2714	0.6666
2723	0.6669
2732	0.6668
2741	0.6667
2750	0.6662
2759	0.6633
2768	0.6572
2777	0.6483
2786	0.6324
2795	0.615
2804	0.5295
2813	0.4022
2822	0.2757
2831	0.15
2840	0.1143
2849	0.1051
2858	0.1035
2867	0.1025
2876	0.0996
2885	0.0864
2894	0.065
2903	0.0527
2912	0.0464
2921	0.0468
2930	0.049
2939	0.0732
2948	0.1253
2957	0.1771
2966	0.2286
2975	0.2798
2984	0.3307
2993	0.3813
3002	0.4147
3011	0.4242
3020	0.4333
3029	0.4427
3038	0.4535
3047	0.4653
3056	0.4806
3065	0.5024
3074	0.5123
3083	0.5136
3092	0.5119
3101	0.5031
3110	0.4856
3119	0.468
3128	0.4505
3137	0.4332
3146	0.4159
3155	0.3987
3164	0.3816
3173	0.3647
3182	0.3478
3191	0.331
3200	0.3162
3209	0.3097
3218	0.3051
3227	0.3011
3236	0.2926
3245	0.2892
3254	0.2878
3263	0.2875
3272	0.2873
3281	0.287
3290	0.2867
3299	0.2864
3308	0.286
3317	0.2856
3326	0.285
3335	0.2843
3344	0.2836
3353	0.2834
3362	0.2838
3371	0.2856
3380	0.2881
3389	0.2913
3398	0.2948
3407	0.2998
3416	0.3062
3425	0.3193
3434	0.339
3443	0.3531
3452	0.3654
3461	0.3773
3470	0.389
3479	0.4007
3488	0.4125
3497	0.4243
3506	0.4372
3515	0.4507
3524	0.4644
3533	0.4786
3542	0.4936
3551	0.5106
3560	0.5274
3569	0.5441
3578	0.5657
3587	0.5895
3596	0.613
3605	0.6364
3614	0.6598
3623	0.683
3632	0.7061
3641	0.7291
3650	0.7543
3659	0.7705
3668	0.7851
3677	0.7998
3686	0.8107
3695	0.8168
3704	0.8202
3713	0.822
3722	0.8227
3731	0.8224
3740	0.822
3749	0.8215
3758	0.8204
3767	0.8181
3776	0.8148
3785	0.8106
3794	0.805
3803	0.7998
3812	0.7974
3821	0.797
3830	0.7966
3839	0.7961
3848	0.7958
3857	0.7954
3866	0.795
3875	0.7946
3884	0.794
3893	0.7926
3902	0.791
3911	0.789
3920	0.7846
3929	0.7798
3938	0.7751
3947	0.7711
3956	0.7678
3965	0.7646
3974	0.7614
3983	0.7596
3992	0.7581
