Infrared Spectrum: Zinc, bis(2-benzothiazolethiolato)-
Formula: C14 H8 N2 S4 Zn
State: SOLID (OIL MULL)
Class: COBLENTZ III
Instrument: BAIRD (PRISM)
Instrument parameters: NaCl PRISM
Sampling: TRANSMISSION
Resolution: 2
Origin: WYANDOTTE CHEMICALS CORP.
1/CM	TRANSMITTANCE
626	0.5399
635	0.6116
644	0.6774
653	0.7306
662	0.7033
671	0.7995
680	0.9231
689	0.9294
698	0.8908
707	0.7953
716	0.7884
725	0.4018
734	0.6672
743	0.6817
752	0.0972
761	0.1614
770	0.8374
779	0.9335
788	0.9687
797	0.9531
806	0.9567
815	0.953
824	0.9818
833	0.9762
842	0.9542
851	0.904
860	0.9238
869	0.8964
878	0.9445
887	0.9433
896	0.9374
905	0.9333
914	0.9104
923	0.8789
932	0.7976
941	0.8212
950	0.8725
959	0.8546
968	0.8219
977	0.774
986	0.7764
995	0.6849
1004	0.5983
1013	0.3449
1022	0.1666
1031	0.0773
1040	0.3622
1049	0.7451
1058	0.7805
1067	0.7639
1076	0.6158
1085	0.4188
1094	0.2566
1103	0.6032
1112	0.5636
1121	0.7255
1130	0.7077
1139	0.6276
1148	0.7388
1157	0.6134
1166	0.6729
1175	0.7606
1184	0.7546
1193	0.7606
1202	0.7271
1211	0.7085
1220	0.6965
1229	0.6603
1238	0.6138
1247	0.2213
1256	0.6015
1265	0.7119
1274	0.669
1283	0.5513
1292	0.6847
1301	0.7187
1310	0.6532
1319	0.414
1328	0.5263
1337	0.6425
1346	0.5954
1355	0.4251
1364	0.1131
1373	0.0175
1382	0.2361
1391	0.5496
1400	0.6788
1409	0.6773
1418	0.656
1427	0.5457
1436	0.4285
1445	0.513
1454	0.262
1463	0.1319
1472	0.2316
1481	0.4517
1490	0.6176
1499	0.6211
1508	0.5652
1517	0.7015
1526	0.8139
1535	0.8105
1544	0.8173
1553	0.8084
1562	0.8044
1571	0.724
1580	0.6663
1589	0.7516
1598	0.7037
1607	0.6835
1616	0.7509
1625	0.7435
1634	0.7479
1643	0.7475
1652	0.7343
1661	0.6904
1670	0.7001
1679	0.7177
1688	0.7199
1697	0.7266
1706	0.7371
1715	0.7498
1724	0.7549
1733	0.759
1742	0.7524
1751	0.755
1760	0.7555
1769	0.7409
1778	0.7341
1787	0.7459
1796	0.7454
1805	0.7418
1814	0.7393
1823	0.737
1832	0.7358
1841	0.7356
1850	0.7329
1859	0.7236
1868	0.7224
1877	0.7206
1886	0.7119
1895	0.7092
1904	0.7112
1913	0.7081
1922	0.696
1931	0.6846
1940	0.685
1949	0.6916
1958	0.6886
1967	0.6858
1976	0.6837
1985	0.6823
1994	0.6807
2003	0.6787
2012	0.6756
2021	0.6678
2030	0.6655
2039	0.6632
2048	0.6617
2057	0.6602
2066	0.6534
2075	0.6519
2084	0.6497
2093	0.6444
2102	0.6392
2111	0.6363
2120	0.6326
2129	0.6283
2138	0.6225
2147	0.6161
2156	0.6093
2165	0.6061
2174	0.6037
2183	0.6018
2192	0.5995
2201	0.5967
2210	0.594
2219	0.5905
2228	0.5855
2237	0.5813
2246	0.5769
2255	0.5726
2264	0.5699
2273	0.5684
2282	0.5677
2291	0.5671
2300	0.5634
2309	0.5537
2318	0.5384
2327	0.5315
2336	0.5235
2345	0.5212
2354	0.5215
2363	0.5214
2372	0.5218
2381	0.5213
2390	0.5193
2399	0.5158
2408	0.5109
2417	0.5056
2426	0.5004
2435	0.496
2444	0.4938
2453	0.4931
2462	0.4918
2471	0.488
2480	0.485
2489	0.4848
2498	0.4845
2507	0.4841
2516	0.4812
2525	0.4761
2534	0.4701
2543	0.4636
2552	0.4604
2561	0.4573
2570	0.4544
2579	0.4515
2588	0.4485
2597	0.4456
2606	0.4421
2615	0.4378
2624	0.4299
2633	0.4223
2642	0.4151
2651	0.4098
2660	0.4067
2669	0.4047
2678	0.4012
2687	0.3917
2696	0.387
2705	0.3851
2714	0.3848
2723	0.3854
2732	0.3859
2741	0.3858
2750	0.3843
2759	0.3811
2768	0.3745
2777	0.3654
2786	0.3541
2795	0.3404
2804	0.3217
2813	0.2496
2822	0.1659
2831	0.0831
2840	0.0525
2849	0.0362
2858	0.0319
2867	0.0312
2876	0.0304
2885	0.0276
2894	0.0224
2903	0.0176
2912	0.0148
2921	0.0138
2930	0.0138
2939	0.0142
2948	0.016
2957	0.0205
2966	0.0288
2975	0.047
2984	0.0828
2993	0.1343
3002	0.1582
3011	0.1703
3020	0.1776
3029	0.1811
3038	0.183
3047	0.1849
3056	0.1867
3065	0.1886
3074	0.1931
3083	0.2022
3092	0.2129
3101	0.2222
3110	0.2306
3119	0.2367
3128	0.2409
3137	0.244
3146	0.2462
3155	0.2471
3164	0.2487
3173	0.2548
3182	0.2604
3191	0.264
3200	0.2669
3209	0.269
3218	0.2694
3227	0.2684
3236	0.2665
3245	0.2638
3254	0.2608
3263	0.2581
3272	0.2553
3281	0.2526
3290	0.2498
3299	0.2474
3308	0.2453
3317	0.2433
3326	0.2413
3335	0.2396
3344	0.2382
3353	0.2369
3362	0.2358
3371	0.2353
3380	0.2348
3389	0.2344
3398	0.2339
3407	0.2333
3416	0.2329
3425	0.2325
3434	0.2316
3443	0.23
3452	0.2286
3461	0.2276
3470	0.2267
3479	0.2263
3488	0.226
3497	0.2258
3506	0.2257
3515	0.2233
3524	0.2197
3533	0.2157
3542	0.2122
3551	0.2099
3560	0.2077
3569	0.2069
3578	0.207
3587	0.2077
3596	0.2084
3605	0.2093
3614	0.2101
3623	0.2104
3632	0.2107
3641	0.2108
3650	0.2098
3659	0.2087
3668	0.2076
3677	0.2066
3686	0.2055
3695	0.2055
3704	0.2057
3713	0.2058
3722	0.2055
3731	0.205
3740	0.2044
3749	0.2033
3758	0.2016
3767	0.2
3776	0.198
3785	0.1961
3794	0.1941
3803	0.1921
3812	0.1898
3821	0.1871
3830	0.1846
3839	0.182
3848	0.1794
3857	0.1769
3866	0.1744
3875	0.1719
3884	0.1694
3893	0.1669
3902	0.1644
3911	0.1623
3920	0.1607
3929	0.1592
3938	0.1576
3947	0.1561
3956	0.1545
3965	0.1535
3974	0.1532
3983	0.1529
3992	0.1526
