Infrared Spectrum: 2-Chloro-10-(3'-dimethylaminopropyl)phenothiazine, 5-oxide, hydrochloride, monohydrate
Formula: C17 H20 Cl2 N2 O S  * H2 O
State: SOLID (OIL MULL)
Class: COBLENTZ III
Instrument: PERKIN-ELMER 21 (GRATING)
Instrument parameters: NaCl PRISM
Sampling: TRANSMISSION
Resolution: 2
Origin: SMITH KLINE & FRENCH LABS.
1/CM	TRANSMITTANCE
4000	0.4151
3991	0.42
3982	0.4241
3973	0.4269
3964	0.4295
3955	0.431
3946	0.4325
3937	0.434
3928	0.436
3919	0.4381
3910	0.4428
3901	0.4518
3892	0.4589
3883	0.4628
3874	0.4645
3865	0.4659
3856	0.467
3847	0.4682
3838	0.4695
3829	0.4715
3820	0.4735
3811	0.4748
3802	0.4757
3793	0.4765
3784	0.4754
3775	0.4726
3766	0.4693
3757	0.4678
3748	0.4672
3739	0.47
3730	0.476
3721	0.4822
3712	0.4869
3703	0.4916
3694	0.4955
3685	0.4991
3676	0.5018
3667	0.5038
3658	0.5057
3649	0.5074
3640	0.5082
3631	0.509
3622	0.5096
3613	0.5098
3604	0.5097
3595	0.5096
3586	0.5088
3577	0.5077
3568	0.506
3559	0.5043
3550	0.503
3541	0.5019
3532	0.5016
3523	0.5032
3514	0.5058
3505	0.5085
3496	0.51
3487	0.5109
3478	0.5119
3469	0.5125
3460	0.5129
3451	0.5133
3442	0.5133
3433	0.5131
3424	0.5126
3415	0.5096
3406	0.5049
3397	0.5004
3388	0.4975
3379	0.498
3370	0.5057
3361	0.5131
3352	0.5188
3343	0.5212
3334	0.5232
3325	0.524
3316	0.5244
3307	0.5236
3298	0.5232
3289	0.5242
3280	0.5251
3271	0.5262
3262	0.5276
3253	0.5294
3244	0.5312
3235	0.533
3226	0.5348
3217	0.5367
3208	0.5388
3199	0.5408
3190	0.543
3181	0.5451
3172	0.5473
3163	0.5494
3154	0.5516
3145	0.5557
3136	0.5546
3127	0.5531
3118	0.5485
3109	0.543
3100	0.5377
3091	0.5325
3082	0.5273
3073	0.5212
3064	0.5147
3055	0.5053
3046	0.4952
3037	0.484
3028	0.4658
3019	0.4355
3010	0.418
3001	0.4039
2992	0.393
2983	0.3308
2974	0.2832
2965	0.2353
2956	0.1872
2947	0.1386
2938	0.0899
2929	0.0761
2920	0.0702
2911	0.0673
2902	0.0652
2893	0.065
2884	0.0656
2875	0.0663
2866	0.0671
2857	0.0688
2848	0.0748
2839	0.0915
2830	0.1683
2821	0.2714
2812	0.3749
2803	0.4245
2794	0.4523
2785	0.4771
2776	0.5087
2767	0.5408
2758	0.5524
2749	0.5603
2740	0.5702
2731	0.577
2722	0.5775
2713	0.5718
2704	0.5628
2695	0.5505
2686	0.5303
2677	0.5037
2668	0.4836
2659	0.462
2650	0.4349
2641	0.4136
2632	0.3899
2623	0.38
2614	0.3782
2605	0.3786
2596	0.38
2587	0.383
2578	0.3898
2569	0.3999
2560	0.4115
2551	0.4185
2542	0.4247
2533	0.4298
2524	0.4354
2515	0.4399
2506	0.4428
2497	0.4399
2488	0.4287
2479	0.4172
2470	0.4126
2461	0.42
2452	0.4379
2443	0.4626
2434	0.4859
2425	0.4932
2416	0.5047
2407	0.5164
2398	0.5319
2389	0.553
2380	0.5682
2371	0.5779
2362	0.5845
2353	0.5926
2344	0.6037
2335	0.6183
2326	0.6357
2317	0.6542
2308	0.6688
2299	0.6821
2290	0.6943
2281	0.7045
2272	0.7151
2263	0.7254
2254	0.7365
2245	0.7417
2236	0.7467
2227	0.7518
2218	0.7572
2209	0.7628
2200	0.7684
2191	0.7733
2182	0.7776
2173	0.7811
2164	0.7841
2155	0.7861
2146	0.7882
2137	0.7996
2128	0.8011
2119	0.8014
2110	0.8021
2101	0.8051
2092	0.8078
2083	0.8071
2074	0.805
2065	0.8084
2056	0.82
2047	0.8208
2038	0.82
2029	0.8245
2020	0.8236
2011	0.8231
2002	0.8278
1993	0.8351
1984	0.8434
1975	0.8432
1966	0.8497
1957	0.8525
1948	0.847
1939	0.8367
1930	0.8411
1921	0.8454
1912	0.8483
1903	0.8528
1894	0.8611
1885	0.8684
1876	0.8747
1867	0.8791
1858	0.8818
1849	0.8806
1840	0.8821
1831	0.8894
1822	0.8938
1813	0.8941
1804	0.8989
1795	0.9071
1786	0.8841
1777	0.8908
1768	0.902
1759	0.9085
1750	0.9149
1741	0.9178
1732	0.9174
1723	0.9142
1714	0.9168
1705	0.9161
1696	0.9175
1687	0.927
1678	0.9278
1669	0.9225
1660	0.9225
1651	0.9237
1642	0.9253
1633	0.9296
1624	0.9384
1615	0.8909
1606	0.8022
1597	0.6528
1588	0.3114
1579	0.3109
1570	0.5386
1561	0.7103
1552	0.5623
1543	0.7555
1534	0.8289
1525	0.8561
1516	0.877
1507	0.8296
1498	0.6644
1489	0.4607
1480	0.3172
1471	0.1198
1462	0.1074
1453	0.1128
1444	0.2195
1435	0.452
1426	0.2122
1417	0.3842
1408	0.6177
1399	0.64
1390	0.4055
1381	0.341
1372	0.3804
1363	0.5648
1354	0.4679
1345	0.6695
1336	0.7168
1327	0.7514
1318	0.7485
1309	0.7057
1300	0.7015
1291	0.7157
1282	0.7547
1273	0.8045
1264	0.8198
1255	0.6551
1246	0.4865
1237	0.7025
1228	0.562
1219	0.758
1210	0.8018
1201	0.8275
1192	0.833
1183	0.7551
1174	0.4804
1165	0.6819
1156	0.6389
1147	0.8135
1138	0.8421
1129	0.882
1120	0.8231
1111	0.7658
1102	0.8018
1093	0.8081
1084	0.8632
1075	0.8742
1066	0.8175
1057	0.7531
1048	0.4485
1039	0.5615
1030	0.7071
1021	0.4643
1012	0.2411
1003	0.5998
994	0.7226
985	0.7907
976	0.7924
967	0.6915
958	0.8452
949	0.8594
940	0.6869
931	0.535
922	0.8151
913	0.8634
904	0.9106
895	0.9191
886	0.9314
877	0.8612
868	0.8214
859	0.7832
850	0.7747
841	0.8996
832	0.9337
823	0.9367
814	0.4426
805	0.8739
796	0.8837
787	0.8471
778	0.8702
769	0.2882
760	0.7604
751	0.7808
742	0.8715
733	0.8547
724	0.7941
715	0.8423
706	0.8118
697	0.8735
688	0.8595
679	0.8251
670	0.7961
