Infrared Spectrum: PYRIDINE, 4-[(S-TRIAZOL-3-YL-AMINO)METHYL]-
Formula: C8 H9 N5
State: SOLID (SPLIT MULL), FLUOROLUBE FOR 3800-1330 CM^-^1, NUJOL FOR 1330-400 CM^-^1
Melting point: 189 C
Class: COBLENTZ III
Instrument: BECKMAN IR-9 (GRATING)
Instrument parameters: ORDER CHANGES: 670, 1200, 2000 CM^-^1
Sampling: TRANSMISSION
Resolution: 2
Origin: DOW CHEMICAL COMPANY
1/CM	TRANSMITTANCE
403.226	0.675
412.024	0.66
420.821	0.667
429.619	0.702
438.417	0.746
447.214	0.771
456.012	0.752
464.81	0.818
473.607	0.836
482.405	0.848
491.203	0.854
500	0.854
508.798	0.839
517.595	0.829
526.393	0.779
535.191	0.532
543.988	0.4971
552.786	0.752
561.584	0.804
570.381	0.632
579.179	0.781
587.977	0.788
596.774	0.785
605.572	0.768
614.37	0.729
623.167	0.84
631.965	0.837
640.763	0.833
649.56	0.832
658.358	0.836
667.156	0.84
675.953	0.843
684.751	0.844
693.549	0.85
702.346	0.848
711.144	0.837
719.942	0.803
728.739	0.815
737.537	0.834
746.334	0.807
755.132	0.47
763.93	0.763
772.727	0.797
781.525	0.792
790.323	0.863
799.12	0.817
807.918	0.43
816.716	0.781
825.513	0.795
834.311	0.781
843.109	0.729
851.906	0.675
860.704	0.651
869.502	0.669
878.299	0.689
887.097	0.786
895.895	0.873
904.692	0.876
913.49	0.888
922.288	0.899
931.085	0.905
939.883	0.91
948.681	0.91
957.478	0.88
966.276	0.818
975.073	0.683
983.871	0.385
992.669	0.716
1001.47	0.83
1010.26	0.872
1019.06	0.883
1027.86	0.895
1036.66	0.894
1045.45	0.894
1054.25	0.883
1063.05	0.7959
1071.85	0.683
1080.65	0.865
1089.44	0.887
1098.24	0.898
1107.04	0.7619
1115.84	0.837
1124.63	0.873
1133.43	0.884
1142.23	0.887
1151.03	0.883
1159.82	0.869
1168.62	0.855
1177.42	0.817
1186.22	0.724
1195.01	0.676
1203.81	0.723
1212.61	0.72
1221.41	0.514
1230.21	0.299
1239	0.482
1247.8	0.62
1256.6	0.777
1265.4	0.822
1274.19	0.763
1282.99	0.345
1291.79	0.705
1300.59	0.812
1309.38	0.837
1318.18	0.844
1326.98	0.837
1335.78	0.796
1344.57	0.771
1353.37	0.795
1362.17	0.722
1370.97	0.822
1379.77	0.821
1388.56	0.83
1397.36	0.833
1406.16	0.6419
1414.96	0.4921
1423.75	0.771
1432.55	0.848
1441.35	0.841
1450.15	0.817
1458.94	0.778
1467.74	0.6019
1476.54	0.576
1485.34	0.519
1494.14	0.484
1502.93	0.621
1511.73	0.658
1520.53	0.68
1529.33	0.645
1538.12	0.547
1546.92	0.1889
1555.72	0.121
1564.52	0.199
1573.31	0.083
1582.11	0.3121
1590.91	0.535
1599.71	0.4688
1608.5	0.5811
1617.3	0.742
1626.1	0.797
1634.9	0.81
1643.7	0.804
1652.49	0.795
1661.29	0.777
1670.09	0.773
1678.89	0.782
1687.68	0.806
1696.48	0.872
1705.28	0.927
1714.08	0.965
1722.87	0.984
1731.67	1.001
1740.47	1.006
1749.27	1.009
1758.06	1.009
1766.86	1.008
1775.66	0.995
1784.46	1.001
1793.26	1.016
1802.05	1.022
1810.85	1.023
1819.65	1.023
1828.45	1.023
1837.24	1.023
1846.04	1.023
1854.84	1.023
1863.64	1.023
1872.43	1.024
1881.23	1.024
1890.03	1.026
1898.83	1.026
1907.62	1.026
1916.42	1.026
1925.22	1.024
1934.02	1.022
1942.82	0.997
1951.61	0.99
1960.41	1.015
1969.21	1.017
1978.01	1.016
1986.8	1.016
1995.6	1.013
2004.4	1.011
2013.2	1.008
2021.99	1.005
2030.79	1.002
2039.59	1
2048.39	0.998
2057.18	0.995
2065.98	0.991
2074.78	0.9874
2083.58	0.9834
2092.38	0.979
2101.17	0.977
2109.97	0.976
2118.77	0.9723
2127.57	0.9666
2136.36	0.962
2145.16	0.961
2153.96	0.958
2162.76	0.9555
2171.55	0.951
2180.35	0.9462
2189.15	0.9422
2197.95	0.9382
2206.74	0.933
2215.54	0.9281
2224.34	0.9241
2233.14	0.921
2241.94	0.917
2250.73	0.9131
2259.53	0.9071
2268.33	0.9002
2277.13	0.8961
2285.92	0.8921
2294.72	0.889
2303.52	0.885
2312.32	0.885
2321.11	0.8851
2329.91	0.888
2338.71	0.889
2347.51	0.891
2356.31	0.891
2365.1	0.891
2373.9	0.889
2382.7	0.8806
2391.5	0.8698
2400.29	0.8647
2409.09	0.8588
2417.89	0.8548
2426.69	0.8496
2435.48	0.8426
2444.28	0.836
2453.08	0.8332
2461.88	0.833
2470.67	0.8287
2479.47	0.8227
2488.27	0.8164
2497.07	0.808
2505.87	0.797
2514.66	0.796
2523.46	0.796
2532.26	0.795
2541.06	0.7926
2549.85	0.786
2558.65	0.7797
2567.45	0.7746
2576.25	0.77
2585.04	0.7616
2593.84	0.754
2602.64	0.7435
2611.44	0.7304
2620.23	0.7099
2629.03	0.7015
2637.83	0.6904
2646.63	0.6773
2655.43	0.6605
2664.22	0.6438
2673.02	0.634
2681.82	0.632
2690.62	0.6251
2699.41	0.6147
2708.21	0.5939
2717.01	0.5809
2725.81	0.5737
2734.6	0.574
2743.4	0.576
2752.2	0.576
2761	0.5745
2769.79	0.5574
2778.59	0.5484
2787.39	0.5358
2796.19	0.5225
2804.99	0.5132
2813.78	0.4974
2822.58	0.4821
2831.38	0.4622
2840.18	0.4475
2848.97	0.4073
2857.77	0.3863
2866.57	0.381
2875.37	0.3938
2884.16	0.396
2892.96	0.39
2901.76	0.387
2910.56	0.4151
2919.35	0.4442
2928.15	0.4581
2936.95	0.4661
2945.75	0.47
2954.55	0.469
2963.34	0.4701
2972.14	0.474
2980.94	0.4626
2989.74	0.4487
2998.53	0.4365
3007.33	0.4225
3016.13	0.4088
3024.93	0.3882
3033.72	0.394
3042.52	0.4042
3051.32	0.409
3060.12	0.409
3068.91	0.3999
3077.71	0.3884
3086.51	0.3787
3095.31	0.376
3104.11	0.3823
3112.9	0.3911
3121.7	0.3987
3130.5	0.3985
3139.3	0.3877
3148.09	0.4439
3156.89	0.4679
3165.69	0.4789
3174.49	0.4919
3183.28	0.5009
3192.08	0.51
3200.88	0.512
3209.68	0.514
3218.48	0.514
3227.27	0.514
3236.07	0.5083
3244.87	0.4939
3253.67	0.4695
3262.46	0.4335
3271.26	0.3339
3280.06	0.2517
3288.86	0.1942
3297.65	0.1922
3306.45	0.3469
3315.25	0.4641
3324.05	0.5512
3332.84	0.6
3341.64	0.6269
3350.44	0.6465
3359.24	0.6658
3368.04	0.6773
3376.83	0.6868
3385.63	0.6938
3394.43	0.7018
3403.23	0.7127
3412.02	0.7199
3420.82	0.7287
3429.62	0.733
3438.42	0.741
3447.21	0.7489
3456.01	0.757
3464.81	0.7619
3473.61	0.767
3482.4	0.7749
3491.2	0.781
3500	0.785
3508.8	0.79
3517.6	0.792
3526.39	0.793
3535.19	0.795
3543.99	0.795
3552.79	0.795
3561.58	0.795
3570.38	0.795
3579.18	0.795
3587.98	0.793
3596.77	0.793
3605.57	0.792
3614.37	0.792
3623.17	0.79
3631.96	0.7898
3640.76	0.788
3649.56	0.786
3658.36	0.785
3667.16	0.782
3675.95	0.781
3684.75	0.7787
3693.55	0.777
3702.35	0.7747
3711.14	0.773
3719.94	0.771
3728.74	0.7692
3737.54	0.766
3746.33	0.7626
3755.13	0.759
3763.93	0.756
3772.73	0.7541
3781.52	0.752
3790.32	0.751
3799.12	0.751
