Infrared Spectrum: PYRIDOXINE HYDROCHLORIDE
Formula: C8 H12 Cl N O3
State: SOLID (1 mg / 200 mg KCl DISC) VS KCl
Melting point: 205-212 C DECOMP.
Class: COBLENTZ III
Instrument: PERKIN-ELMER 21 (GRATING)
Instrument parameters: FILTER AT ABOUT 10 MICRONS
Sampling: TRANSMISSION
Path length: 0.055 CM (THICKNESS)
Resolution: 2
1/CM	TRANSMITTANCE
4000	0.6968
3991	0.6987
3982	0.7006
3973	0.7025
3964	0.7044
3955	0.7064
3946	0.7082
3937	0.71
3928	0.7117
3919	0.7135
3910	0.7153
3901	0.7171
3892	0.719
3883	0.7207
3874	0.7225
3865	0.7243
3856	0.726
3847	0.7276
3838	0.7295
3829	0.7311
3820	0.7328
3811	0.7345
3802	0.7361
3793	0.7378
3784	0.7393
3775	0.7418
3766	0.7447
3757	0.7492
3748	0.7551
3739	0.758
3730	0.7589
3721	0.7596
3712	0.7607
3703	0.7633
3694	0.7668
3685	0.7711
3676	0.7755
3667	0.7797
3658	0.7826
3649	0.7856
3640	0.7885
3631	0.7914
3622	0.7939
3613	0.7958
3604	0.7969
3595	0.7975
3586	0.7981
3577	0.7974
3568	0.7961
3559	0.7947
3550	0.7924
3541	0.7899
3532	0.7861
3523	0.7785
3514	0.7699
3505	0.7607
3496	0.7497
3487	0.7375
3478	0.7234
3469	0.7075
3460	0.6914
3451	0.6741
3442	0.6531
3433	0.6116
3424	0.5951
3415	0.578
3406	0.5293
3397	0.491
3388	0.4682
3379	0.4293
3370	0.3418
3361	0.2603
3352	0.1783
3343	0.0958
3334	0.0712
3325	0.0755
3316	0.0781
3307	0.0868
3298	0.0949
3289	0.1022
3280	0.1071
3271	0.1082
3262	0.1017
3253	0.086
3244	0.0719
3235	0.0689
3226	0.0677
3217	0.0764
3208	0.1004
3199	0.1245
3190	0.1487
3181	0.1729
3172	0.1976
3163	0.2128
3154	0.2196
3145	0.224
3136	0.2252
3127	0.2248
3118	0.2206
3109	0.2113
3100	0.1996
3091	0.1919
3082	0.1901
3073	0.1892
3064	0.1898
3055	0.1929
3046	0.2021
3037	0.2112
3028	0.2191
3019	0.2273
3010	0.2353
3001	0.2431
2992	0.2504
2983	0.2551
2974	0.2577
2965	0.2584
2956	0.2587
2947	0.2574
2938	0.2502
2929	0.2408
2920	0.2309
2911	0.2211
2902	0.2103
2893	0.1979
2884	0.1846
2875	0.1676
2866	0.14
2857	0.1191
2848	0.1037
2839	0.0907
2830	0.0822
2821	0.0769
2812	0.0734
2803	0.073
2794	0.0728
2785	0.0762
2776	0.0872
2767	0.1004
2758	0.1176
2749	0.1349
2740	0.1524
2731	0.17
2722	0.1876
2713	0.2054
2704	0.2233
2695	0.2413
2686	0.2594
2677	0.2777
2668	0.296
2659	0.3143
2650	0.3322
2641	0.349
2632	0.3687
2623	0.39
2614	0.407
2605	0.4237
2596	0.4389
2587	0.4541
2578	0.4689
2569	0.4837
2560	0.4991
2551	0.5171
2542	0.5332
2533	0.5459
2524	0.5587
2515	0.5702
2506	0.581
2497	0.5902
2488	0.5987
2479	0.608
2470	0.6199
2461	0.6319
2452	0.6395
2443	0.6468
2434	0.6539
2425	0.6597
2416	0.6655
2407	0.6711
2398	0.6778
2389	0.6858
2380	0.6942
2371	0.6955
2362	0.6957
2353	0.6965
2344	0.6985
2335	0.7008
2326	0.7057
2317	0.7126
2308	0.7211
2299	0.7296
2290	0.7383
2281	0.7458
2272	0.7522
2263	0.7569
2254	0.7612
2245	0.7653
2236	0.769
2227	0.7726
2218	0.7765
2209	0.7801
2200	0.7841
2191	0.7875
2182	0.7891
2173	0.7907
2164	0.7928
2155	0.7951
2146	0.7974
2137	0.7997
2128	0.8021
2119	0.8049
2110	0.804
2101	0.8031
2092	0.805
2083	0.8068
2074	0.8055
2065	0.8037
2056	0.8033
2047	0.8085
2038	0.8088
2029	0.8038
2020	0.7928
2011	0.7786
2002	0.769
1993	0.7728
1984	0.7861
1975	0.7893
1966	0.783
1957	0.7593
1948	0.7145
1939	0.6712
1930	0.6681
1921	0.7147
1912	0.764
1903	0.7789
1894	0.7911
1885	0.8057
1876	0.8225
1867	0.8328
1858	0.8342
1849	0.8239
1840	0.778
1831	0.7715
1822	0.7951
1813	0.8278
1804	0.843
1795	0.8539
1786	0.8596
1777	0.8631
1768	0.8638
1759	0.8625
1750	0.8532
1741	0.7918
1732	0.7861
1723	0.8346
1714	0.8534
1705	0.8602
1696	0.8623
1687	0.8632
1678	0.863
1669	0.861
1660	0.856
1651	0.8168
1642	0.8168
1633	0.6821
1624	0.6984
1615	0.8092
1606	0.8492
1597	0.8534
1588	0.8471
1579	0.8307
1570	0.7767
1561	0.6192
1552	0.2485
1543	0.2249
1534	0.3325
1525	0.441
1516	0.5375
1507	0.5393
1498	0.47
1489	0.274
1480	0.3972
1471	0.5696
1462	0.5114
1453	0.5114
1444	0.6086
1435	0.5283
1426	0.4175
1417	0.34
1408	0.4196
1399	0.4279
1390	0.4249
1381	0.537
1372	0.654
1363	0.6725
1354	0.6394
1345	0.6082
1336	0.5156
1327	0.5007
1318	0.5639
1309	0.5069
1300	0.4123
1291	0.269
1282	0.0524
1273	0.1146
1264	0.3703
1255	0.4867
1246	0.5654
1237	0.6104
1228	0.5877
1219	0.2008
1210	0.2829
1201	0.4695
1192	0.581
1183	0.6401
1174	0.6775
1165	0.6995
1156	0.7085
1147	0.7172
1138	0.7351
1129	0.7478
1120	0.7657
1111	0.7796
1102	0.7731
1093	0.4043
1084	0.5635
1075	0.7312
1066	0.7781
1057	0.7255
1048	0.7254
1039	0.6358
1030	0.3723
1021	0.1387
1012	0.2802
1003	0.4838
994	0.4294
985	0.5637
976	0.5891
967	0.5679
958	0.614
949	0.7678
940	0.8068
931	0.7957
922	0.7521
913	0.821
904	0.8302
895	0.8314
886	0.8065
877	0.4918
868	0.4412
859	0.7451
850	0.7882
841	0.7785
832	0.735
823	0.6424
814	0.5102
805	0.3727
796	0.3798
787	0.5204
778	0.6373
769	0.708
760	0.7306
751	0.3018
742	0.6641
733	0.7668
724	0.8011
715	0.8175
706	0.8111
697	0.824
688	0.6653
679	0.7286
670	0.7911
