Infrared Spectrum: Thiadiazole-3-carboxanilide, 1,2,5-, 4-ureido-
Formula: C10 H9 N5 O2 S
State: SOLID (1 mg / 650 mg KBr DISC)
Class: COBLENTZ III
Instrument: PERKIN-ELMER 221 (GRATING)
Instrument parameters: FILTER AT 2490, 980 CM^-^1. GRATING 4000-1428 CM^-^1, NaCl PRISM 1428-650 CM^-^1
Sampling: TRANSMISSION
Resolution: 2
Origin: SOUTHERN RESEARCH INSTITUTE
1/CM	TRANSMITTANCE
646	0.8518
655.032	0.8329
664.064	0.8345
673.097	0.8567
682.129	0.8498
691.161	0.7825
700.193	0.5081
709.225	0.7123
718.258	0.779
727.29	0.7066
736.322	0.7102
745.354	0.7868
754.386	0.7207
763.419	0.4534
772.451	0.8021
781.483	0.8743
790.515	0.8738
799.547	0.8256
808.58	0.8747
817.612	0.721
826.644	0.872
835.676	0.8725
844.708	0.7259
853.741	0.9077
862.773	0.9091
871.805	0.906
880.837	0.9015
889.869	0.895
898.902	0.8875
907.934	0.839
916.966	0.8763
925.998	0.8382
935.03	0.8875
944.063	0.8961
953.095	0.8931
962.127	0.8851
971.159	0.8864
980.191	0.9003
989.224	0.8408
998.256	0.8637
1007.29	0.8737
1016.32	0.8723
1025.35	0.8532
1034.38	0.8711
1043.42	0.8762
1052.45	0.8717
1061.48	0.8657
1070.51	0.8515
1079.55	0.8155
1088.58	0.8596
1097.61	0.8375
1106.64	0.8123
1115.67	0.7566
1124.71	0.6868
1133.74	0.7146
1142.77	0.7988
1151.8	0.8175
1160.84	0.8336
1169.87	0.8252
1178.9	0.8086
1187.93	0.7865
1196.96	0.7461
1206	0.7121
1215.03	0.6222
1224.06	0.5033
1233.09	0.6953
1242.13	0.6876
1251.16	0.5522
1260.19	0.7386
1269.22	0.8257
1278.25	0.8271
1287.29	0.8098
1296.32	0.7835
1305.35	0.7574
1314.38	0.7228
1323.42	0.6936
1332.45	0.6871
1341.48	0.6347
1350.51	0.5639
1359.54	0.6196
1368.58	0.6041
1377.61	0.5863
1386.64	0.5496
1395.67	0.4641
1404.7	0.4163
1413.74	0.752
1422.77	0.746
1431.8	0.669
1440.83	0.7357
1449.87	0.7238
1458.9	0.7276
1467.93	0.7047
1476.96	0.642
1485.99	0.5297
1495.03	0.4321
1504.06	0.4528
1513.09	0.4035
1522.12	0.4027
1531.16	0.4016
1540.19	0.336
1549.22	0.4882
1558.25	0.5494
1567.28	0.4291
1576.32	0.303
1585.35	0.4679
1594.38	0.5504
1603.41	0.544
1612.45	0.5277
1621.48	0.4931
1630.51	0.3821
1639.54	0.1874
1648.57	0.1971
1657.61	0.415
1666.64	0.649
1675.67	0.6989
1684.7	0.526
1693.74	0.4136
1702.77	0.2177
1711.8	0.4943
1720.83	0.6147
1729.86	0.7601
1738.9	0.8177
1747.93	0.8604
1756.96	0.9039
1765.99	0.9314
1775.03	0.9513
1784.06	0.9628
1793.09	0.9687
1802.12	0.9692
1811.15	0.9695
1820.19	0.9711
1829.22	0.9778
1838.25	0.9854
1847.28	0.9873
1856.31	0.9853
1865.35	0.9828
1874.38	0.9797
1883.41	0.976
1892.44	0.9725
1901.48	0.9692
1910.51	0.9659
1919.54	0.963
1928.57	0.9602
1937.6	0.9574
1946.64	0.9546
1955.67	0.9529
1964.7	0.9516
1973.73	0.9503
1982.77	0.9489
1991.8	0.948
2000.83	0.9471
2009.86	0.9463
2018.89	0.9454
2027.93	0.9441
2036.96	0.9422
2045.99	0.9404
2055.02	0.9387
2064.06	0.9374
2073.09	0.9362
2082.12	0.9349
2091.15	0.9337
2100.18	0.9324
2109.22	0.9311
2118.25	0.9297
2127.28	0.928
2136.31	0.9263
2145.35	0.9245
2154.38	0.9226
2163.41	0.9211
2172.44	0.9199
2181.47	0.9188
2190.51	0.9176
2199.54	0.9164
2208.57	0.9152
2217.6	0.9144
2226.64	0.9137
2235.67	0.9129
2244.7	0.9121
2253.73	0.9113
2262.76	0.9105
2271.8	0.9096
2280.83	0.9088
2289.86	0.9079
2298.89	0.9067
2307.92	0.9052
2316.96	0.9038
2325.99	0.9023
2335.02	0.9008
2344.05	0.8988
2353.09	0.8966
2362.12	0.8943
2371.15	0.8921
2380.18	0.89
2389.21	0.8884
2398.25	0.8867
2407.28	0.8851
2416.31	0.8835
2425.34	0.8818
2434.38	0.8804
2443.41	0.8792
2452.44	0.8781
2461.47	0.877
2470.5	0.8758
2479.54	0.8746
2488.57	0.8732
2497.6	0.8718
2506.63	0.8704
2515.67	0.869
2524.7	0.8669
2533.73	0.8642
2542.76	0.8614
2551.79	0.8587
2560.83	0.856
2569.86	0.8534
2578.89	0.8508
2587.92	0.8482
2596.96	0.8457
2605.99	0.8433
2615.02	0.8411
2624.05	0.8389
2633.08	0.8367
2642.12	0.8336
2651.15	0.8312
2660.18	0.8296
2669.21	0.828
2678.25	0.8264
2687.28	0.825
2696.31	0.8237
2705.34	0.8223
2714.37	0.821
2723.41	0.8201
2732.44	0.8191
2741.47	0.8181
2750.5	0.8175
2759.53	0.817
2768.57	0.8162
2777.6	0.8143
2786.63	0.8124
2795.66	0.8105
2804.7	0.8083
2813.73	0.8053
2822.76	0.8029
2831.79	0.8011
2840.82	0.7984
2849.86	0.7878
2858.89	0.7812
2867.92	0.7808
2876.95	0.7785
2885.99	0.7731
2895.02	0.7658
2904.05	0.7534
2913.08	0.7369
2922.11	0.7312
2931.15	0.7304
2940.18	0.7244
2949.21	0.7225
2958.24	0.7397
2967.28	0.7583
2976.31	0.7552
2985.34	0.7494
2994.37	0.7436
3003.4	0.7374
3012.44	0.7315
3021.47	0.7266
3030.5	0.7246
3039.53	0.7297
3048.57	0.7284
3057.6	0.7268
3066.63	0.7254
3075.66	0.7241
3084.69	0.7232
3093.73	0.7212
3102.76	0.7094
3111.79	0.7052
3120.82	0.7028
3129.86	0.699
3138.89	0.6938
3147.92	0.6832
3156.95	0.6725
3165.98	0.6619
3175.02	0.6506
3184.05	0.6343
3193.08	0.6162
3202.11	0.5973
3211.14	0.5756
3220.18	0.5467
3229.21	0.5046
3238.24	0.4834
3247.27	0.4822
3256.31	0.5062
3265.34	0.5283
3274.37	0.5248
3283.4	0.5066
3292.43	0.4768
3301.47	0.4345
3310.5	0.359
3319.53	0.3683
3328.56	0.4828
3337.6	0.6212
3346.63	0.6972
3355.66	0.7081
3364.69	0.7093
3373.72	0.7067
3382.76	0.7027
3391.79	0.6966
3400.82	0.6887
3409.85	0.6801
3418.89	0.6695
3427.92	0.6571
3436.95	0.6414
3445.98	0.6166
3455.01	0.5809
3464.05	0.5334
3473.08	0.4133
3482.11	0.4294
3491.14	0.5763
3500.18	0.7417
3509.21	0.7609
3518.24	0.7655
3527.27	0.7692
3536.3	0.7723
3545.34	0.7754
3554.37	0.7775
3563.4	0.7793
3572.43	0.7802
3581.47	0.7811
3590.5	0.7819
3599.53	0.7827
3608.56	0.7832
3617.59	0.7836
3626.63	0.7832
3635.66	0.7829
3644.69	0.7821
3653.72	0.7811
3662.75	0.7799
3671.79	0.7784
3680.82	0.777
3689.85	0.7755
3698.88	0.7741
3707.92	0.773
3716.95	0.7719
3725.98	0.7707
3735.01	0.77
3744.04	0.7699
3753.08	0.7698
3762.11	0.7692
3771.14	0.7682
3780.17	0.7672
3789.21	0.7666
3798.24	0.7662
3807.27	0.7658
3816.3	0.7653
3825.33	0.7645
3834.37	0.7636
3843.4	0.7628
3852.43	0.762
3861.46	0.7615
3870.5	0.7609
3879.53	0.7602
3888.56	0.76
3897.59	0.76
3906.62	0.76
3915.66	0.7599
3924.69	0.7597
3933.72	0.7596
3942.75	0.7601
3951.79	0.7606
3960.82	0.7618
3969.85	0.763
3978.88	0.7636
3987.91	0.7634
3996.95	0.7616
4005.98	0.7594
