Infrared Spectrum: KETENE, DIETHYL ACETAL
Formula: C6 H16 O2
State: LIQUID
Boiling point: 83-85 C AT 200 mmHg
Class: COBLENTZ
Instrument: Not specified, most likely a prism, grating, or hybrid spectrometer.
Sampling: TRANSMISSION
Path length: 0.0030 CM
Resolution: 4
Origin: TENNESSEE EASTMAN COMPANY, RESEARCH LABORATORIES
MICROMETERS	TRANSMITTANCE
2.027	0.938
2.06681	0.94
2.10662	0.943
2.14643	0.943
2.18623	0.93
2.22604	0.905
2.26585	0.906
2.30566	0.918
2.34547	0.925
2.38528	0.928
2.42509	0.918
2.4649	0.923
2.5047	0.938
2.54451	0.943
2.58432	0.945
2.62413	0.945
2.66394	0.945
2.70375	0.945
2.74356	0.943
2.78336	0.943
2.82317	0.943
2.86298	0.945
2.90279	0.945
2.9426	0.94
2.98241	0.938
3.02222	0.938
3.06202	0.938
3.10183	0.933
3.14164	0.915
3.18145	0.843
3.22126	0.881
3.26107	0.851
3.30088	0.665
3.34069	0.188
3.38049	0.278
3.4203	0.318
3.46011	0.606
3.49992	0.806
3.53973	0.846
3.57954	0.866
3.61935	0.87
3.65915	0.886
3.69896	0.918
3.73877	0.926
3.77858	0.931
3.81839	0.905
3.8582	0.92
3.89801	0.941
3.93782	0.943
3.97762	0.94
4.01743	0.933
4.05724	0.935
4.09705	0.936
4.13686	0.935
4.17667	0.945
4.21648	0.943
4.25628	0.936
4.29609	0.931
4.3359	0.946
4.37571	0.95
4.41552	0.92
4.45533	0.921
4.49514	0.93
4.53494	0.935
4.57475	0.913
4.61456	0.923
4.65437	0.945
4.69418	0.95
4.73399	0.95
4.7738	0.951
4.81361	0.955
4.85341	0.955
4.89322	0.95
4.93303	0.938
4.97284	0.91
5.01265	0.896
5.05246	0.876
5.09227	0.863
5.13207	0.871
5.17188	0.885
5.21169	0.908
5.2515	0.923
5.29131	0.928
5.33112	0.936
5.37093	0.923
5.41073	0.913
5.45054	0.923
5.49035	0.93
5.53016	0.921
5.56997	0.898
5.60978	0.785
5.64959	0.686
5.6894	0.678
5.7292	0.721
5.76901	0.806
5.80882	0.806
5.84863	0.79
5.88844	0.731
5.92825	0.656
5.96806	0.396
6.00786	0.203
6.04767	0.17
6.08748	0.153
6.12729	0.25
6.1671	0.478
6.20691	0.603
6.24672	0.71
6.28653	0.743
6.32633	0.73
6.36614	0.735
6.40595	0.731
6.44576	0.74
6.48557	0.728
6.52538	0.72
6.56519	0.693
6.60499	0.655
6.6448	0.613
6.68461	0.416
6.72442	0.298
6.76423	0.426
6.80404	0.416
6.84385	0.336
6.88365	0.301
6.92346	0.436
6.96327	0.586
7.00308	0.608
7.04289	0.486
7.0827	0.363
7.12251	0.341
7.16232	0.233
7.20212	0.245
7.24193	0.23
7.28174	0.176
7.32155	0.293
7.36136	0.4
7.40117	0.481
7.44098	0.52
7.48078	0.47
7.52059	0.465
7.5604	0.426
7.60021	0.348
7.64002	0.241
7.67983	0.156
7.71964	0.128
7.75945	0.113
7.79925	0.111
7.83906	0.111
7.87887	0.115
7.91868	0.121
7.95849	0.125
7.9983	0.121
8.03811	0.18
8.07791	0.26
8.11772	0.336
8.15753	0.456
8.19734	0.53
8.23715	0.603
8.27696	0.616
8.31677	0.616
8.35657	0.593
8.39638	0.585
8.43619	0.576
8.476	0.501
8.51581	0.44
8.55562	0.398
8.59543	0.368
8.63524	0.428
8.67504	0.491
8.71485	0.531
8.75466	0.55
8.79447	0.563
8.83428	0.563
8.87409	0.531
8.9139	0.451
8.9537	0.38
8.99351	0.33
9.03332	0.251
9.07313	0.231
9.11294	0.216
9.15275	0.2
9.19256	0.171
9.23236	0.171
9.27217	0.168
9.31198	0.156
9.35179	0.133
9.3916	0.108
9.43141	0.095
9.47122	0.088
9.51103	0.086
9.55083	0.1
9.59064	0.143
9.63045	0.238
9.67026	0.358
9.71007	0.456
9.74988	0.535
9.78969	0.598
9.82949	0.643
9.8693	0.663
9.90911	0.676
9.94892	0.683
9.98873	0.69
10.0285	0.673
10.0683	0.606
10.1082	0.49
10.148	0.383
10.1878	0.365
10.2276	0.271
10.2674	0.246
10.3072	0.398
10.347	0.545
10.3868	0.598
10.4266	0.621
10.4664	0.606
10.5062	0.586
10.5461	0.605
10.5859	0.65
10.6257	0.698
10.6655	0.743
10.7053	0.776
10.7451	0.801
10.7849	0.815
10.8247	0.821
10.8645	0.825
10.9043	0.826
10.9441	0.835
10.9839	0.843
11.0238	0.848
11.0636	0.848
11.1034	0.848
11.1432	0.835
11.183	0.813
11.2228	0.756
11.2626	0.68
11.3024	0.593
11.3422	0.488
11.382	0.355
11.4218	0.34
11.4616	0.43
11.5015	0.46
11.5413	0.525
11.5811	0.645
11.6209	0.681
11.6607	0.693
11.7005	0.743
11.7403	0.786
11.7801	0.806
11.8199	0.818
11.8597	0.821
11.8995	0.82
11.9394	0.806
11.9792	0.79
12.019	0.778
12.0588	0.766
12.0986	0.766
12.1384	0.78
12.1782	0.788
12.218	0.791
12.2578	0.791
12.2976	0.78
12.3374	0.76
12.3772	0.743
12.4171	0.74
12.4569	0.741
12.4967	0.743
12.5365	0.743
12.5763	0.743
12.6161	0.74
12.6559	0.743
12.6957	0.745
12.7355	0.74
12.7753	0.73
12.8151	0.72
12.855	0.703
12.8948	0.69
12.9346	0.671
12.9744	0.65
13.0142	0.631
13.054	0.611
13.0938	0.588
13.1336	0.566
13.1734	0.548
13.2132	0.528
13.253	0.5
13.2928	0.473
13.3327	0.461
13.3725	0.45
13.4123	0.433
13.4521	0.418
13.4919	0.4
13.5317	0.385
13.5715	0.371
13.6113	0.351
13.6511	0.34
13.6909	0.326
13.7307	0.308
13.7706	0.295
13.8104	0.286
13.8502	0.271
13.89	0.261
13.9298	0.253
13.9696	0.253
14.0094	0.251
14.0492	0.251
14.089	0.26
14.1288	0.278
14.1686	0.296
14.2084	0.323
14.2483	0.351
14.2881	0.388
14.3279	0.418
14.3677	0.451
14.4075	0.478
14.4473	0.505
14.4871	0.53
14.5269	0.551
14.5667	0.566
14.6065	0.575
14.6463	0.586
14.6861	0.591
14.726	0.596
14.7658	0.596
14.8056	0.596
14.8454	0.6
14.8852	0.596
14.925	0.593
14.9648	0.591
15.0046	0.591
15.0444	0.593
15.0842	0.593
15.124	0.588
15.1639	0.581
15.2037	0.583
15.2435	0.583
15.2833	0.58
15.3231	0.578
15.3629	0.573
15.4027	0.573
15.4425	0.571
15.4823	0.568
15.5221	0.566
15.5619	0.563
15.6017	0.561
15.6416	0.558
15.6814	0.555
15.7212	0.551
15.761	0.548
15.8008	0.546
15.8406	0.546
15.8804	0.543
15.9202	0.541
15.96	0.541
