Infrared Spectrum: SODIUM PERCHLORATE
Formula: Na Cl O4  * H2 O
State: SOLID (NUJOL MULL)
Class: COBLENTZ
Instrument: Not specified, most likely a prism, grating, or hybrid spectrometer.
Sampling: TRANSMISSION
Resolution: 4
Origin: MELLON INSTITUTE
MICROMETERS	TRANSMITTANCE
2.048	0.864
2.08793	0.867
2.12785	0.867
2.16778	0.862
2.20771	0.865
2.24764	0.871
2.28756	0.865
2.32749	0.859
2.36742	0.855
2.40734	0.852
2.44727	0.849
2.4872	0.85
2.52713	0.839
2.56705	0.849
2.60698	0.844
2.64691	0.835
2.68684	0.817
2.72676	0.782
2.76669	0.643
2.80662	0.413
2.84654	0.536
2.88647	0.743
2.9264	0.817
2.96633	0.839
3.00625	0.864
3.04618	0.871
3.08611	0.872
3.12603	0.877
3.16596	0.884
3.20589	0.889
3.24582	0.892
3.28574	0.889
3.32567	0.837
3.3656	0.499
3.40552	0.306
3.44545	0.457
3.48538	0.462
3.52531	0.681
3.56523	0.82
3.60516	0.852
3.64509	0.862
3.68501	0.867
3.72494	0.872
3.76487	0.877
3.8048	0.882
3.84472	0.886
3.88465	0.887
3.92458	0.892
3.96451	0.894
4.00443	0.897
4.04436	0.897
4.08429	0.897
4.12421	0.896
4.16414	0.896
4.20407	0.894
4.244	0.884
4.28392	0.876
4.32385	0.865
4.36378	0.864
4.4037	0.877
4.44363	0.884
4.48356	0.886
4.52349	0.886
4.56341	0.886
4.60334	0.884
4.64327	0.884
4.68319	0.887
4.72312	0.887
4.76305	0.887
4.80298	0.882
4.8429	0.881
4.88283	0.872
4.92276	0.864
4.96269	0.865
5.00261	0.877
5.04254	0.884
5.08247	0.891
5.12239	0.892
5.16232	0.899
5.20225	0.901
5.24218	0.902
5.2821	0.902
5.32203	0.902
5.36196	0.902
5.40188	0.904
5.44181	0.906
5.48174	0.906
5.52167	0.904
5.56159	0.904
5.60152	0.902
5.64145	0.902
5.68137	0.909
5.7213	0.912
5.76123	0.907
5.80116	0.907
5.84108	0.912
5.88101	0.907
5.92094	0.899
5.96087	0.896
6.00079	0.882
6.04072	0.847
6.08065	0.773
6.12057	0.536
6.1605	0.596
6.20043	0.825
6.24036	0.896
6.28028	0.912
6.32021	0.917
6.36014	0.912
6.40006	0.924
6.43999	0.924
6.47992	0.929
6.51985	0.931
6.55977	0.931
6.5997	0.939
6.63963	0.926
6.67955	0.931
6.71948	0.936
6.75941	0.922
6.79934	0.857
6.83926	0.767
6.87919	0.752
6.91912	0.772
6.95904	0.805
6.99897	0.849
7.0389	0.869
7.07883	0.887
7.11875	0.902
7.15868	0.902
7.19861	0.887
7.23854	0.83
7.27846	0.817
7.31839	0.827
7.35832	0.855
7.39824	0.862
7.43817	0.86
7.4781	0.867
7.51803	0.876
7.55795	0.874
7.59788	0.872
7.63781	0.864
7.67773	0.857
7.71766	0.854
7.75759	0.849
7.79752	0.842
7.83744	0.835
7.87737	0.829
7.9173	0.822
7.95722	0.815
7.99715	0.807
8.03708	0.795
8.07701	0.782
8.11693	0.762
8.15686	0.747
8.19679	0.726
8.23672	0.703
8.27664	0.678
8.31657	0.649
8.3565	0.616
8.39642	0.579
8.43635	0.53
8.47628	0.489
8.51621	0.44
8.55613	0.39
8.59606	0.335
8.63599	0.289
8.67591	0.261
8.71584	0.237
8.75577	0.211
8.7957	0.195
8.83562	0.18
8.87555	0.164
8.91548	0.157
8.9554	0.152
8.99533	0.149
9.03526	0.149
9.07519	0.147
9.11511	0.145
9.15504	0.144
9.19497	0.145
9.2349	0.15
9.27482	0.164
9.31475	0.195
9.35468	0.232
9.3946	0.281
9.43453	0.326
9.47446	0.381
9.51439	0.423
9.55431	0.465
9.59424	0.517
9.63417	0.551
9.67409	0.589
9.71402	0.629
9.75395	0.663
9.79388	0.688
9.8338	0.706
9.87373	0.731
9.91366	0.752
9.95358	0.763
9.99351	0.775
10.0334	0.785
10.0734	0.795
10.1133	0.8
10.1532	0.809
10.1931	0.817
10.2331	0.827
10.273	0.832
10.3129	0.837
10.3529	0.845
10.3928	0.852
10.4327	0.867
10.4726	0.876
10.5126	0.884
10.5525	0.891
10.5924	0.899
10.6323	0.906
10.6723	0.912
10.7122	0.919
10.7521	0.924
10.7921	0.931
10.832	0.938
10.8719	0.944
10.9118	0.949
10.9518	0.953
10.9917	0.959
11.0316	0.964
11.0715	0.969
11.1115	0.971
11.1514	0.973
11.1913	0.974
11.2313	0.978
11.2712	0.978
11.3111	0.981
11.351	0.981
11.391	0.983
11.4309	0.986
11.4708	0.989
11.5107	0.989
11.5507	0.989
11.5906	0.989
11.6305	0.989
11.6705	0.991
11.7104	0.991
11.7503	0.991
11.7902	0.991
11.8302	0.989
11.8701	0.983
11.91	0.989
11.9499	0.993
11.9899	0.988
12.0298	0.991
12.0697	0.991
12.1097	0.989
12.1496	0.993
12.1895	0.994
12.2294	0.996
12.2694	0.991
12.3093	0.993
12.3492	0.993
12.3891	0.996
12.4291	0.993
12.469	0.996
12.5089	0.991
12.5489	0.993
12.5888	0.993
12.6287	0.989
12.6686	0.989
12.7086	0.993
12.7485	0.991
12.7884	0.991
12.8283	0.989
12.8683	0.989
12.9082	0.986
12.9481	0.981
12.9881	0.981
13.028	0.978
13.0679	0.978
13.1078	0.978
13.1478	0.976
13.1877	0.974
13.2276	0.976
13.2675	0.973
13.3075	0.976
13.3474	0.978
13.3873	0.976
13.4273	0.974
13.4672	0.976
13.5071	0.968
13.547	0.964
13.587	0.963
13.6269	0.963
13.6668	0.963
13.7067	0.961
13.7467	0.958
13.7866	0.958
13.8265	0.951
13.8664	0.943
13.9064	0.941
13.9463	0.941
13.9862	0.941
14.0262	0.939
14.0661	0.934
14.106	0.936
14.1459	0.938
14.1859	0.931
14.2258	0.926
14.2657	0.926
14.3056	0.919
14.3456	0.914
14.3855	0.907
14.4254	0.901
14.4654	0.901
14.5053	0.891
14.5452	0.884
14.5851	0.876
14.6251	0.871
14.665	0.871
14.7049	0.865
14.7448	0.859
14.7848	0.85
14.8247	0.845
14.8646	0.844
14.9046	0.834
14.9445	0.829
14.9844	0.82
15.0243	0.812
15.0643	0.804
15.1042	0.797
15.1441	0.792
15.184	0.782
15.224	0.768
15.2639	0.758
15.3038	0.747
15.3438	0.735
15.3837	0.72
15.4236	0.71
15.4635	0.701
15.5035	0.695
15.5434	0.686
15.5833	0.68
15.6232	0.67
15.6632	0.666
15.7031	0.663
15.743	0.663
15.783	0.663
15.8229	0.664
15.8628	0.664
15.9027	0.663
15.9427	0.663
15.9826	0.663
