Infrared Spectrum: Pyrimido[5,4-e]-as-triazine, 5-chloro-1,4-dihydro-1,4-dimethyl-, monohydrochloride
Formula: C7 H9 Cl2 N5
State: SOLID (1 mg / 650 mg KBr DISC)
Class: COBLENTZ III
Instrument: PERKIN-ELMER 221 (GRATING)
Instrument parameters: FILTER AT 2490, 980 CM^-^1. GRATING 4000-1428 CM^-^1, NaCl PRISM 1428-650 CM^-^1
Sampling: TRANSMISSION
Resolution: 2
Origin: SOUTHERN RESEARCH INSTITUTE
1/CM	TRANSMITTANCE
638.691	0.945
647.967	0.9458
657.243	0.9468
666.518	0.9496
675.794	0.9538
685.07	0.9567
694.346	0.9553
703.621	0.9514
712.897	0.9454
722.173	0.9342
731.449	0.9061
740.724	0.7639
750	0.8058
759.276	0.6981
768.552	0.5006
777.827	0.9441
787.103	0.9542
796.379	0.947
805.655	0.9301
814.93	0.903
824.206	0.7875
833.482	0.8307
842.758	0.7882
852.033	0.8551
861.309	0.8788
870.585	0.8724
879.861	0.8526
889.136	0.8369
898.412	0.8906
907.688	0.9197
916.964	0.9206
926.239	0.9145
935.515	0.9031
944.791	0.8876
954.067	0.9006
963.342	0.9168
972.618	0.9087
981.894	0.9009
991.17	0.9015
1000.45	0.8972
1009.72	0.883
1019	0.8741
1028.27	0.8846
1037.55	0.8824
1046.82	0.8729
1056.1	0.8585
1065.38	0.8142
1074.65	0.7377
1083.93	0.5611
1093.2	0.5733
1102.48	0.7997
1111.75	0.7888
1121.03	0.7173
1130.31	0.6313
1139.58	0.7769
1148.86	0.7771
1158.13	0.7962
1167.41	0.7887
1176.68	0.8072
1185.96	0.8483
1195.24	0.8444
1204.51	0.8283
1213.79	0.8039
1223.06	0.7581
1232.34	0.6668
1241.61	0.7785
1250.89	0.7831
1260.17	0.7178
1269.44	0.5046
1278.72	0.6
1287.99	0.6571
1297.27	0.604
1306.55	0.5498
1315.82	0.7018
1325.1	0.7084
1334.37	0.6724
1343.65	0.5247
1352.92	0.3954
1362.2	0.5528
1371.48	0.4955
1380.75	0.2131
1390.03	0.3668
1399.3	0.4632
1408.58	0.6933
1417.85	0.7366
1427.13	0.6787
1436.41	0.6386
1445.68	0.5761
1454.96	0.5541
1464.23	0.5018
1473.51	0.3703
1482.78	0.2247
1492.06	0.1374
1501.34	0.1052
1510.61	0.2077
1519.89	0.445
1529.16	0.3756
1538.44	0.1346
1547.71	0.0659
1556.99	0.2545
1566.27	0.4508
1575.54	0.3267
1584.82	0.5532
1594.09	0.716
1603.37	0.7917
1612.65	0.8167
1621.92	0.8147
1631.2	0.8
1640.47	0.5991
1649.75	0.2773
1659.02	0.8074
1668.3	0.8681
1677.58	0.8977
1686.85	0.8985
1696.13	0.8919
1705.4	0.8822
1714.68	0.8694
1723.95	0.8543
1733.23	0.8368
1742.51	0.8195
1751.78	0.8021
1761.06	0.7856
1770.33	0.8037
1779.61	0.8345
1788.88	0.8569
1798.16	0.8704
1807.44	0.8759
1816.71	0.878
1825.99	0.8778
1835.26	0.8743
1844.54	0.8656
1853.81	0.8523
1863.09	0.8338
1872.37	0.8173
1881.64	0.8271
1890.92	0.853
1900.19	0.8589
1909.47	0.8624
1918.74	0.8649
1928.02	0.8643
1937.3	0.8563
1946.57	0.841
1955.85	0.8303
1965.12	0.8326
1974.4	0.8376
1983.68	0.8445
1992.95	0.8403
2002.23	0.8319
2011.5	0.8277
2020.78	0.8216
2030.05	0.8165
2039.33	0.8115
2048.61	0.8061
2057.88	0.7986
2067.16	0.7891
2076.43	0.7756
2085.71	0.7694
2094.98	0.7648
2104.26	0.7519
2113.54	0.737
2122.81	0.7235
2132.09	0.7144
2141.36	0.7055
2150.64	0.6967
2159.91	0.6868
2169.19	0.6763
2178.47	0.6656
2187.74	0.6551
2197.02	0.6447
2206.29	0.6344
2215.57	0.6241
2224.84	0.6145
2234.12	0.6077
2243.4	0.6036
2252.67	0.5979
2261.95	0.5889
2271.22	0.5776
2280.5	0.5666
2289.78	0.556
2299.05	0.5467
2308.33	0.5382
2317.6	0.5305
2326.88	0.5229
2336.15	0.5161
2345.43	0.5096
2354.71	0.5046
2363.98	0.5019
2373.26	0.5009
2382.53	0.4999
2391.81	0.4997
2401.08	0.4998
2410.36	0.5002
2419.64	0.5007
2428.91	0.5013
2438.19	0.5019
2447.46	0.5026
2456.74	0.5018
2466.01	0.5009
2475.29	0.5
2484.57	0.4985
2493.84	0.4963
2503.12	0.4936
2512.39	0.4896
2521.67	0.4848
2530.94	0.4789
2540.22	0.4731
2549.5	0.4678
2558.77	0.465
2568.05	0.463
2577.32	0.463
2586.6	0.4647
2595.87	0.4652
2605.15	0.4641
2614.43	0.4643
2623.7	0.4677
2632.98	0.4754
2642.25	0.4868
2651.53	0.5016
2660.81	0.5149
2670.08	0.5219
2679.36	0.5258
2688.63	0.5297
2697.91	0.5336
2707.18	0.5382
2716.46	0.5431
2725.74	0.5487
2735.01	0.5555
2744.29	0.5667
2753.56	0.5803
2762.84	0.5966
2772.11	0.6064
2781.39	0.6108
2790.67	0.6135
2799.94	0.615
2809.22	0.6162
2818.49	0.6085
2827.77	0.5956
2837.04	0.5996
2846.32	0.6204
2855.6	0.6238
2864.87	0.632
2874.15	0.6453
2883.42	0.6518
2892.7	0.6528
2901.97	0.6515
2911.25	0.6454
2920.53	0.6306
2929.8	0.6025
2939.08	0.599
2948.35	0.6012
2957.63	0.6002
2966.91	0.5965
2976.18	0.5909
2985.46	0.5655
2994.73	0.5778
3004.01	0.6926
3013.28	0.7058
3022.56	0.7062
3031.84	0.681
3041.11	0.6407
3050.39	0.6352
3059.66	0.6495
3068.94	0.6934
3078.21	0.7355
3087.49	0.7392
3096.77	0.742
3106.04	0.7429
3115.32	0.7423
3124.59	0.7421
3133.87	0.7426
3143.14	0.7508
3152.42	0.7577
3161.7	0.7583
3170.97	0.7577
3180.25	0.7564
3189.52	0.7553
3198.8	0.7551
3208.07	0.7552
3217.35	0.7566
3226.63	0.7561
3235.9	0.7523
3245.18	0.7491
3254.45	0.7461
3263.73	0.7432
3273	0.7399
3282.28	0.7351
3291.56	0.7305
3300.83	0.7282
3310.11	0.727
3319.38	0.7218
3328.66	0.7088
3337.94	0.6972
3347.21	0.6867
3356.49	0.6771
3365.76	0.6672
3375.04	0.658
3384.31	0.6501
3393.59	0.6428
3402.87	0.6358
3412.14	0.6301
3421.42	0.6259
3430.69	0.6238
3439.97	0.6243
3449.24	0.6251
3458.52	0.626
3467.8	0.6273
3477.07	0.6288
3486.35	0.6307
3495.62	0.633
3504.9	0.6368
3514.17	0.6425
3523.45	0.6495
3532.73	0.6575
3542	0.665
3551.28	0.6716
3560.55	0.6772
3569.83	0.6816
3579.1	0.6872
3588.38	0.6945
3597.66	0.6972
3606.93	0.7001
3616.21	0.7047
3625.48	0.7087
3634.76	0.7119
3644.03	0.7137
3653.31	0.7138
3662.59	0.7138
3671.86	0.7137
3681.14	0.7134
3690.41	0.7127
3699.69	0.7119
3708.97	0.7111
3718.24	0.7101
3727.52	0.7092
3736.79	0.7083
3746.07	0.7083
3755.34	0.7083
3764.62	0.7083
3773.9	0.7078
3783.17	0.7074
3792.45	0.7054
3801.72	0.7005
3811	0.6967
3820.27	0.6951
3829.55	0.6937
3838.83	0.6928
3848.1	0.692
3857.38	0.6911
3866.65	0.6903
3875.93	0.6895
3885.2	0.688
3894.48	0.6863
3903.76	0.6836
3913.03	0.6817
3922.31	0.6805
3931.58	0.6806
3940.86	0.6807
3950.13	0.6811
3959.41	0.6818
3968.69	0.6825
3977.96	0.6832
3987.24	0.6839
3996.51	0.6847
4005.79	0.6854
