Infrared Spectrum: Quinolinium compounds, 1-(2-hydroxy-1-methylpropyl)-hydroxide, sulfate, inner salt, cis-, erythro-
Formula: C13 H15 N O4 S
State: SOLID (SPLIT MULL), FLUOROLUBE FOR 3800-1330 CM^-^1, NUJOL FOR 1330-460 CM^-^1
Class: COBLENTZ III
Instrument: DOW KBr FOREPRISM-GRATING
Instrument parameters: BLAZED AT 3.5, 12.0, 20.0 MICRON AND CHANGED AT 5.0, 7.5, 14.9 MICRON
Sampling: TRANSMISSION
Resolution: 2
Origin: DOW CHEMICAL COMPANY
1/CM	TRANSMITTANCE
3800	0.6758
3791	0.6768
3782	0.6787
3773	0.6801
3764	0.6821
3755	0.6842
3746	0.6865
3737	0.6884
3728	0.6907
3719	0.6924
3710	0.6922
3701	0.6912
3692	0.6908
3683	0.6924
3674	0.6962
3665	0.7
3656	0.6992
3647	0.6948
3638	0.6928
3629	0.6917
3620	0.6896
3611	0.6864
3602	0.6815
3593	0.6755
3584	0.6671
3575	0.6583
3566	0.6489
3557	0.6368
3548	0.6198
3539	0.596
3530	0.5666
3521	0.5494
3512	0.5479
3503	0.5683
3494	0.5932
3485	0.6062
3476	0.6135
3467	0.6132
3458	0.6012
3449	0.5959
3440	0.614
3431	0.6378
3422	0.654
3413	0.664
3404	0.6724
3395	0.6801
3386	0.6874
3377	0.6945
3368	0.7015
3359	0.7053
3350	0.7107
3341	0.7162
3332	0.7172
3323	0.7201
3314	0.7237
3305	0.7272
3296	0.7307
3287	0.7339
3278	0.7368
3269	0.7385
3260	0.7403
3251	0.7415
3242	0.7434
3233	0.7439
3224	0.7408
3215	0.7388
3206	0.7431
3197	0.7476
3188	0.7493
3179	0.7518
3170	0.7549
3161	0.753
3152	0.7425
3143	0.739
3134	0.6972
3125	0.6939
3116	0.6212
3107	0.6249
3098	0.631
3089	0.664
3080	0.6794
3071	0.6665
3062	0.6726
3053	0.6924
3044	0.689
3035	0.6722
3026	0.6921
3017	0.7062
3008	0.7097
2999	0.6338
2990	0.6323
2981	0.6719
2972	0.7092
2963	0.714
2954	0.7338
2945	0.7237
2936	0.7122
2927	0.7258
2918	0.7425
2909	0.7533
2900	0.7611
2891	0.7661
2882	0.768
2873	0.7637
2864	0.7691
2855	0.7761
2846	0.7818
2837	0.7862
2828	0.7901
2819	0.7937
2810	0.7971
2801	0.8001
2792	0.8031
2783	0.8053
2774	0.8071
2765	0.8082
2756	0.8089
2747	0.809
2738	0.8095
2729	0.8107
2720	0.8125
2711	0.8147
2702	0.8169
2693	0.8191
2684	0.8214
2675	0.8236
2666	0.8258
2657	0.8278
2648	0.83
2639	0.832
2630	0.8337
2621	0.8355
2612	0.8371
2603	0.8385
2594	0.8399
2585	0.8413
2576	0.8428
2567	0.8445
2558	0.846
2549	0.847
2540	0.8481
2531	0.8491
2522	0.8502
2513	0.8508
2504	0.8512
2495	0.8516
2486	0.8514
2477	0.8495
2468	0.8491
2459	0.8488
2450	0.8496
2441	0.8503
2432	0.8517
2423	0.8533
2414	0.8546
2405	0.8554
2396	0.8554
2387	0.8555
2378	0.8573
2369	0.8628
2360	0.8673
2351	0.8698
2342	0.8701
2333	0.8703
2324	0.8711
2315	0.8677
2306	0.8616
2297	0.8567
2288	0.8525
2279	0.8539
2270	0.8574
2261	0.8609
2252	0.8646
2243	0.8678
2234	0.8711
2225	0.8743
2216	0.8778
2207	0.8821
2198	0.8835
2189	0.8831
2180	0.8837
2171	0.8852
2162	0.8874
2153	0.8886
2144	0.8892
2135	0.8895
2126	0.8898
2117	0.8899
2108	0.8901
2099	0.8903
2090	0.8903
2081	0.892
2072	0.8927
2063	0.894
2054	0.8974
2045	0.8971
2036	0.8962
2027	0.8938
2018	0.8945
2009	0.8939
2000	0.8912
1991	0.891
1982	0.8927
1973	0.8932
1964	0.8989
1955	0.9001
1946	0.8983
1937	0.8995
1928	0.9028
1919	0.9056
1910	0.9078
1901	0.9101
1892	0.9117
1883	0.9098
1874	0.9052
1865	0.9039
1856	0.9057
1847	0.9083
1838	0.9098
1829	0.9116
1820	0.9137
1811	0.9171
1802	0.917
1793	0.9123
1784	0.9124
1775	0.9151
1766	0.9158
1757	0.9144
1748	0.9148
1739	0.9153
1730	0.9168
1721	0.9097
1712	0.9118
1703	0.911
1694	0.9127
1685	0.9141
1676	0.9125
1667	0.9078
1658	0.9025
1649	0.8962
1640	0.8809
1631	0.8165
1622	0.7882
1613	0.8721
1604	0.8231
1595	0.5525
1586	0.822
1577	0.8878
1568	0.908
1559	0.9187
1550	0.9194
1541	0.9056
1532	0.6797
1523	0.5626
1514	0.8343
1505	0.8925
1496	0.9071
1487	0.9107
1478	0.8788
1469	0.8475
1460	0.7914
1451	0.784
1442	0.8321
1433	0.8781
1424	0.9014
1415	0.8846
1406	0.7828
1397	0.8739
1388	0.8162
1379	0.6526
1370	0.7006
1361	0.7728
1352	0.8191
1343	0.8231
1334	0.8188
1325	0.6892
1316	0.7515
1307	0.8203
1298	0.7514
1289	0.7394
1280	0.5439
1271	0.3118
1262	0.2271
1253	0.132
1244	0.0659
1235	0.1514
1226	0.2233
1217	0.2373
1208	0.4665
1199	0.65
1190	0.6367
1181	0.7425
1172	0.6222
1163	0.6471
1154	0.7067
1145	0.6265
1136	0.796
1127	0.8211
1118	0.8005
1109	0.8553
1100	0.8518
1091	0.7697
1082	0.8043
1073	0.8441
1064	0.7728
1055	0.6233
1046	0.2598
1037	0.736
1028	0.8044
1019	0.7694
1010	0.795
1001	0.5712
992	0.4323
983	0.6976
974	0.7592
965	0.8184
956	0.8787
947	0.8686
938	0.6292
929	0.3827
920	0.2173
911	0.5518
902	0.8172
893	0.8782
884	0.9013
875	0.9121
866	0.9188
857	0.8644
848	0.8837
839	0.905
830	0.8148
821	0.4953
812	0.5537
803	0.6805
794	0.6358
785	0.2823
776	0.5134
767	0.6615
758	0.838
749	0.8621
740	0.8823
731	0.8433
722	0.5699
713	0.8498
704	0.9153
695	0.93
686	0.9343
677	0.9248
668	0.9109
659	0.5197
650	0.7034
641	0.886
632	0.7368
623	0.529
614	0.8221
605	0.871
596	0.8544
587	0.5953
578	0.4696
569	0.7932
560	0.819
551	0.825
542	0.7817
533	0.8325
524	0.788
515	0.814
506	0.8185
497	0.8387
488	0.8375
479	0.8119
470	0.7641
461	0.7738
