Infrared Spectrum: PROMETHAZINE HYDROCHLORIDE
Formula: C17 H21 Cl N2 S
State: SOLID (KCl DISC)
Melting point: 230-232 C (SOME DECOMP.)
Class: COBLENTZ III
Instrument: PERKIN-ELMER 21 (GRATING)
Instrument parameters: FILTER AT ABOUT 10 MICRONS
Sampling: TRANSMISSION
Resolution: 2
1/CM	TRANSMITTANCE
4000	0.917
3991	0.9175
3982	0.9183
3973	0.9189
3964	0.9197
3955	0.9202
3946	0.9209
3937	0.9215
3928	0.9221
3919	0.923
3910	0.9239
3901	0.9248
3892	0.9279
3883	0.9318
3874	0.9348
3865	0.9373
3856	0.9367
3847	0.9357
3838	0.9346
3829	0.9335
3820	0.9329
3811	0.9323
3802	0.932
3793	0.9319
3784	0.9326
3775	0.9333
3766	0.9342
3757	0.9352
3748	0.9364
3739	0.9369
3730	0.9373
3721	0.9374
3712	0.9374
3703	0.9375
3694	0.9374
3685	0.937
3676	0.9365
3667	0.9358
3658	0.9351
3649	0.9342
3640	0.9329
3631	0.9312
3622	0.9295
3613	0.9278
3604	0.9255
3595	0.923
3586	0.9189
3577	0.9137
3568	0.9076
3559	0.9013
3550	0.896
3541	0.8909
3532	0.8858
3523	0.8796
3514	0.8734
3505	0.8675
3496	0.8618
3487	0.856
3478	0.8497
3469	0.8423
3460	0.8356
3451	0.8302
3442	0.825
3433	0.8215
3424	0.8187
3415	0.8162
3406	0.8137
3397	0.8109
3388	0.8107
3379	0.8112
3370	0.8145
3361	0.8214
3352	0.8264
3343	0.8316
3334	0.8359
3325	0.8402
3316	0.8445
3307	0.8482
3298	0.8515
3289	0.8548
3280	0.8583
3271	0.8624
3262	0.8672
3253	0.8716
3244	0.875
3235	0.8786
3226	0.8816
3217	0.8844
3208	0.8874
3199	0.8904
3190	0.893
3181	0.8952
3172	0.8974
3163	0.8996
3154	0.9016
3145	0.9038
3136	0.9053
3127	0.9067
3118	0.9082
3109	0.909
3100	0.9098
3091	0.9096
3082	0.9077
3073	0.8964
3064	0.8791
3055	0.8664
3046	0.8638
3037	0.8648
3028	0.8668
3019	0.871
3010	0.8736
3001	0.8746
2992	0.8745
2983	0.8666
2974	0.851
2965	0.8455
2956	0.8433
2947	0.842
2938	0.8414
2929	0.8418
2920	0.8435
2911	0.847
2902	0.8514
2893	0.8556
2884	0.8597
2875	0.8642
2866	0.8697
2857	0.8748
2848	0.8802
2839	0.8874
2830	0.8951
2821	0.9017
2812	0.9065
2803	0.9088
2794	0.9106
2785	0.9124
2776	0.914
2767	0.9152
2758	0.9163
2749	0.9162
2740	0.9161
2731	0.9161
2722	0.9152
2713	0.9119
2704	0.9046
2695	0.9013
2686	0.8999
2677	0.8967
2668	0.8926
2659	0.8868
2650	0.8809
2641	0.8742
2632	0.8677
2623	0.8598
2614	0.8511
2605	0.8404
2596	0.828
2587	0.8137
2578	0.8009
2569	0.7883
2560	0.7742
2551	0.7647
2542	0.7568
2533	0.7514
2524	0.7484
2515	0.7462
2506	0.7449
2497	0.7444
2488	0.7441
2479	0.7437
2470	0.7445
2461	0.7429
2452	0.722
2443	0.6672
2434	0.6311
2425	0.5947
2416	0.558
2407	0.5212
2398	0.4843
2389	0.4472
2380	0.4221
2371	0.4203
2362	0.4222
2353	0.4277
2344	0.4392
2335	0.4543
2326	0.4774
2317	0.5265
2308	0.5662
2299	0.6061
2290	0.6461
2281	0.682
2272	0.7138
2263	0.7497
2254	0.7749
2245	0.7884
2236	0.8006
2227	0.8126
2218	0.8249
2209	0.8371
2200	0.848
2191	0.8582
2182	0.8676
2173	0.8745
2164	0.8807
2155	0.8854
2146	0.8886
2137	0.8911
2128	0.8923
2119	0.8928
2110	0.8948
2101	0.9011
2092	0.9054
2083	0.9093
2074	0.9134
2065	0.9186
2056	0.9229
2047	0.9263
2038	0.9277
2029	0.9285
2020	0.9286
2011	0.9288
2002	0.9285
1993	0.9257
1984	0.9223
1975	0.9193
1966	0.9196
1957	0.9235
1948	0.9229
1939	0.9282
1930	0.9304
1921	0.9289
1912	0.9266
1903	0.9266
1894	0.9352
1885	0.9365
1876	0.9317
1867	0.9278
1858	0.9307
1849	0.9343
1840	0.9354
1831	0.934
1822	0.9338
1813	0.9352
1804	0.9355
1795	0.9312
1786	0.9263
1777	0.9299
1768	0.9315
1759	0.9313
1750	0.93
1741	0.9282
1732	0.9262
1723	0.923
1714	0.9194
1705	0.9167
1696	0.9149
1687	0.9132
1678	0.908
1669	0.9029
1660	0.8976
1651	0.8932
1642	0.8902
1633	0.8904
1624	0.8914
1615	0.8919
1606	0.8915
1597	0.7734
1588	0.8313
1579	0.8367
1570	0.737
1561	0.854
1552	0.8851
1543	0.8907
1534	0.8925
1525	0.8904
1516	0.8849
1507	0.8665
1498	0.7757
1489	0.5873
1480	0.6335
1471	0.6428
1462	0.3657
1453	0.3157
1444	0.5329
1435	0.6815
1426	0.8032
1417	0.8128
1408	0.8129
1399	0.8138
1390	0.7966
1381	0.7781
1372	0.8409
1363	0.8653
1354	0.766
1345	0.7795
1336	0.5657
1327	0.7035
1318	0.8476
1309	0.8746
1300	0.864
1291	0.8294
1282	0.6773
1273	0.7065
1264	0.7375
1255	0.6577
1246	0.7315
1237	0.8326
1228	0.5305
1219	0.737
1210	0.8434
1201	0.8625
1192	0.8658
1183	0.8603
1174	0.7649
1165	0.7767
1156	0.8314
1147	0.8503
1138	0.8284
1129	0.6452
1120	0.788
1111	0.7937
1102	0.7772
1093	0.8417
1084	0.8718
1075	0.8851
1066	0.8523
1057	0.8492
1048	0.81
1039	0.733
1030	0.8082
1021	0.886
1012	0.8658
1003	0.8271
994	0.9001
985	0.9156
976	0.8919
967	0.9196
958	0.9199
949	0.8883
940	0.8962
931	0.7606
922	0.893
913	0.9224
904	0.8649
895	0.9167
886	0.9269
877	0.9146
868	0.9092
859	0.8098
850	0.8536
841	0.9245
832	0.9315
823	0.9337
814	0.9362
805	0.9344
796	0.93
787	0.9209
778	0.8564
769	0.6717
760	0.3473
751	0.7386
742	0.8717
733	0.6646
724	0.8901
715	0.9089
706	0.9172
697	0.9069
688	0.9115
679	0.9063
