Infrared Spectrum: 3Beta-HYDROXY-16,17-SECOESTRA-5(10),6,8-TRIEN-17-OIC ACID
Formula: C18 H24 O3
State: SOLID (KBr DISC)
Class: COBLENTZ III
Instrument: BECKMAN IR-7
Sampling: TRANSMISSION
Resolution: 4
Origin: THE WORCESTER FOUNDATION FOR EXPERIMENTAL BIOLOGY, Neal L. McNiven
1/CM	TRANSMITTANCE
603.638	0.677
612.37	0.713
621.102	0.673
629.833	0.701
638.565	0.604
647.297	0.657
656.029	0.738
664.761	0.738
673.493	0.743
682.224	0.794
690.956	0.804
699.688	0.815
708.42	0.838
717.152	0.83
725.884	0.841
734.615	0.843
743.347	0.831
752.079	0.787
760.811	0.589
769.543	0.677
778.275	0.46
787.006	0.726
795.738	0.5651
804.47	0.6279
813.202	0.481
821.934	0.713
830.666	0.784
839.397	0.795
848.129	0.769
856.861	0.693
865.593	0.729
874.325	0.658
883.056	0.737
891.788	0.73
900.52	0.657
909.252	0.575
917.984	0.643
926.716	0.574
935.447	0.603
944.179	0.584
952.911	0.559
961.643	0.616
970.375	0.661
979.107	0.55
987.838	0.636
996.57	0.648
1005.3	0.593
1014.03	0.493
1022.77	0.452
1031.5	0.3251
1040.23	0.113
1048.96	0.304
1057.69	0.282
1066.42	0.349
1075.16	0.4309
1083.89	0.551
1092.62	0.593
1101.35	0.55
1110.08	0.385
1118.82	0.482
1127.55	0.375
1136.28	0.562
1145.01	0.606
1153.74	0.555
1162.47	0.451
1171.21	0.235
1179.94	0.441
1188.67	0.451
1197.4	0.232
1206.13	0.3909
1214.87	0.328
1223.6	0.335
1232.33	0.357
1241.06	0.181
1249.79	0.154
1258.53	0.258
1267.26	0.379
1275.99	0.38
1284.72	0.479
1293.45	0.443
1302.18	0.398
1310.92	0.45
1319.65	0.444
1328.38	0.472
1337.11	0.56
1345.84	0.631
1354.58	0.59
1363.31	0.43
1372.04	0.349
1380.77	0.447
1389.5	0.405
1398.23	0.436
1406.97	0.434
1415.7	0.306
1424.43	0.436
1433.16	0.441
1441.89	0.425
1450.63	0.339
1459.36	0.099
1468.09	0.463
1476.82	0.424
1485.55	0.6851
1494.28	0.784
1503.02	0.793
1511.75	0.79
1520.48	0.767
1529.21	0.766
1537.94	0.769
1546.68	0.794
1555.41	0.795
1564.14	0.789
1572.87	0.728
1581.6	0.773
1590.33	0.753
1599.07	0.746
1607.8	0.723
1616.53	0.706
1625.26	0.69
1633.99	0.661
1642.73	0.615
1651.46	0.554
1660.19	0.46
1668.92	0.327
1677.65	0.174
1686.38	0.06
1695.12	0.048
1703.85	0.05
1712.58	0.139
1721.31	0.359
1730.04	0.482
1738.78	0.603
1747.51	0.698
1756.24	0.724
1764.97	0.73
1773.7	0.744
1782.43	0.751
1791.17	0.755
1799.9	0.761
1808.63	0.767
1817.36	0.769
1826.09	0.764
1834.83	0.756
1843.56	0.75
1852.29	0.749
1861.02	0.752
1869.75	0.748
1878.48	0.724
1887.22	0.725
1895.95	0.746
1904.68	0.748
1913.41	0.75
1922.14	0.75
1930.88	0.751
1939.61	0.754
1948.34	0.756
1957.07	0.757
1965.8	0.763
1974.54	0.763
1983.27	0.765
1992	0.758
2000.73	0.753
2009.46	0.754
2018.19	0.756
2026.93	0.7562
2035.66	0.7581
2044.39	0.7591
2053.12	0.761
2061.85	0.7621
2070.59	0.763
2079.32	0.764
2088.05	0.765
2096.78	0.766
2105.51	0.767
2114.24	0.769
2122.98	0.769
2131.71	0.769
2140.44	0.77
2149.17	0.77
2157.9	0.77
2166.64	0.77
2175.37	0.769
2184.1	0.769
2192.83	0.768
2201.56	0.767
2210.29	0.7664
2219.03	0.7602
2227.76	0.753
2236.49	0.7514
2245.22	0.7505
2253.95	0.7485
2262.69	0.748
2271.42	0.7446
2280.15	0.74
2288.88	0.738
2297.61	0.735
2306.34	0.7323
2315.08	0.7228
2323.81	0.7187
2332.54	0.7167
2341.27	0.716
2350	0.7134
2358.74	0.7004
2367.47	0.693
2376.2	0.6817
2384.93	0.6641
2393.66	0.6497
2402.39	0.6317
2411.13	0.6218
2419.86	0.6069
2428.59	0.597
2437.32	0.5755
2446.05	0.5691
2454.79	0.5562
2463.52	0.5523
2472.25	0.542
2480.98	0.5162
2489.71	0.5026
2498.44	0.4942
2507.18	0.4885
2515.91	0.4757
2524.64	0.4608
2533.37	0.4493
2542.1	0.4371
2550.84	0.4268
2559.57	0.425
2568.3	0.4234
2577.03	0.417
2585.76	0.4039
2594.49	0.3965
2603.23	0.396
2611.96	0.396
2620.69	0.398
2629.42	0.399
2638.15	0.4014
2646.89	0.4057
2655.62	0.4086
2664.35	0.4131
2673.08	0.3992
2681.81	0.3775
2690.54	0.3808
2699.28	0.4208
2708.01	0.4095
2716.74	0.3927
2725.47	0.3899
2734.2	0.3817
2742.94	0.3715
2751.67	0.3448
2760.4	0.328
2769.13	0.321
2777.86	0.3064
2786.6	0.2933
2795.33	0.269
2804.06	0.2465
2812.79	0.2282
2821.52	0.1997
2830.25	0.1724
2838.99	0.1617
2847.72	0.1508
2856.45	0.1219
2865.18	0.0878
2873.91	0.079
2882.65	0.081
2891.38	0.082
2900.11	0.0836
2908.84	0.0844
2917.57	0.0717
2926.3	0.0415
2935.04	0.0435
2943.77	0.0524
2952.5	0.0613
2961.23	0.0686
2969.96	0.0791
2978.7	0.1133
2987.43	0.1593
2996.16	0.1868
3004.89	0.2309
3013.62	0.2423
3022.35	0.2464
3031.09	0.2582
3039.82	0.2635
3048.55	0.2835
3057.28	0.2938
3066.01	0.3021
3074.75	0.3122
3083.48	0.3292
3092.21	0.3412
3100.94	0.351
3109.67	0.357
3118.4	0.36
3127.14	0.3659
3135.87	0.3729
3144.6	0.3779
3153.33	0.3809
3162.06	0.3907
3170.8	0.4036
3179.53	0.4058
3188.26	0.4092
3196.99	0.412
3205.72	0.415
3214.45	0.417
3223.19	0.4154
3231.92	0.4128
3240.65	0.4094
3249.38	0.4069
3258.11	0.4025
3266.85	0.399
3275.58	0.3925
3284.31	0.3837
3293.04	0.357
3301.77	0.3371
3310.5	0.3163
3319.24	0.2909
3327.97	0.2586
3336.7	0.2359
3345.43	0.2033
3354.16	0.1802
3362.9	0.1523
3371.63	0.124
3380.36	0.1188
3389.09	0.119
3397.82	0.1294
3406.55	0.1436
3415.29	0.1616
3424.02	0.1781
3432.75	0.1941
3441.48	0.219
3450.21	0.2526
3458.95	0.2696
3467.68	0.2983
3476.41	0.3319
3485.14	0.3732
3493.87	0.4124
3502.6	0.4392
3511.34	0.4701
3520.07	0.5137
3528.8	0.5462
3537.53	0.5672
3546.26	0.5824
3555	0.596
3563.73	0.6116
3572.46	0.6377
3581.19	0.6555
3589.92	0.6686
3598.66	0.6726
3607.39	0.6855
3616.12	0.6985
3624.85	0.695
3633.58	0.6963
3642.31	0.7056
3651.05	0.7165
3659.78	0.72
3668.51	0.7213
3677.24	0.722
3685.97	0.7197
3694.71	0.7168
3703.44	0.711
3712.17	0.71
3720.9	0.7117
3729.63	0.7203
3738.36	0.7251
3747.1	0.7271
3755.83	0.7291
3764.56	0.7311
3773.29	0.732
3782.02	0.732
3790.76	0.732
3799.49	0.732
3808.22	0.7301
3816.95	0.73
3825.68	0.7281
3834.41	0.7253
3843.15	0.725
3851.88	0.724
3860.61	0.723
3869.34	0.722
3878.07	0.722
3886.81	0.723
3895.54	0.724
3904.27	0.724
3913	0.722
3921.73	0.721
3930.46	0.721
3939.2	0.722
3947.93	0.721
3956.66	0.7195
3965.39	0.719
3974.12	0.7176
3982.86	0.7166
3991.59	0.716
4000.32	0.7156
4009.05	0.714
4017.78	0.714
4026.51	0.7133
4035.25	0.714
