Infrared Spectrum: SAMARIUM OXALATE
Formula: Sm2 ( C2 O4)3  * 10 H2 O
State: SOLID (KBr DISC)
Class: COBLENTZ
Instrument: Not specified, most likely a prism, grating, or hybrid spectrometer.
Sampling: TRANSMISSION
Resolution: 4
MICROMETERS	TRANSMITTANCE
2.028	0.921
2.06607	0.922
2.10414	0.928
2.14221	0.93
2.18028	0.93
2.21836	0.931
2.25643	0.934
2.2945	0.938
2.33257	0.938
2.37064	0.941
2.40871	0.941
2.44678	0.943
2.48485	0.943
2.52292	0.943
2.561	0.943
2.59907	0.944
2.63714	0.946
2.67521	0.946
2.71328	0.943
2.75135	0.907
2.78942	0.779
2.82749	0.671
2.86556	0.575
2.90364	0.492
2.94171	0.447
2.97978	0.436
3.01785	0.462
3.05592	0.511
3.09399	0.55
3.13206	0.59
3.17013	0.648
3.2082	0.708
3.24627	0.744
3.28435	0.788
3.32242	0.83
3.36049	0.851
3.39856	0.86
3.43663	0.867
3.4747	0.895
3.51277	0.907
3.55084	0.918
3.58891	0.928
3.62699	0.933
3.66506	0.943
3.70313	0.946
3.7412	0.947
3.77927	0.95
3.81734	0.952
3.85541	0.958
3.89348	0.959
3.93155	0.958
3.96963	0.959
4.0077	0.962
4.04577	0.964
4.08384	0.965
4.12191	0.965
4.15998	0.965
4.19805	0.965
4.23612	0.964
4.27419	0.967
4.31227	0.967
4.35034	0.97
4.38841	0.97
4.42648	0.965
4.46455	0.964
4.50262	0.964
4.54069	0.961
4.57876	0.961
4.61683	0.959
4.65491	0.959
4.69298	0.959
4.73105	0.959
4.76912	0.959
4.80719	0.961
4.84526	0.961
4.88333	0.962
4.9214	0.962
4.95947	0.964
4.99755	0.964
5.03562	0.965
5.07369	0.965
5.11176	0.965
5.14983	0.962
5.1879	0.962
5.22597	0.962
5.26404	0.961
5.30211	0.962
5.34018	0.961
5.37826	0.964
5.41633	0.962
5.4544	0.961
5.49247	0.962
5.53054	0.956
5.56861	0.955
5.60668	0.95
5.64475	0.944
5.68282	0.936
5.7209	0.924
5.75897	0.897
5.79704	0.818
5.83511	0.696
5.87318	0.629
5.91125	0.541
5.94932	0.464
5.98739	0.373
6.02546	0.309
6.06354	0.266
6.10161	0.217
6.13968	0.203
6.17775	0.217
6.21582	0.284
6.25389	0.434
6.29196	0.568
6.33003	0.654
6.3681	0.739
6.40618	0.77
6.44425	0.815
6.48232	0.836
6.52039	0.854
6.55846	0.86
6.59653	0.876
6.6346	0.883
6.67267	0.888
6.71074	0.888
6.74882	0.869
6.78689	0.869
6.82496	0.87
6.86303	0.882
6.9011	0.889
6.93917	0.895
6.97724	0.903
7.01531	0.907
7.05338	0.913
7.09146	0.918
7.12953	0.918
7.1676	0.919
7.20567	0.916
7.24374	0.891
7.28181	0.872
7.31988	0.839
7.35795	0.827
7.39602	0.822
7.43409	0.821
7.47217	0.806
7.51024	0.739
7.54831	0.66
7.58638	0.613
7.62445	0.625
7.66252	0.723
7.70059	0.791
7.73866	0.84
7.77673	0.869
7.81481	0.883
7.85288	0.9
7.89095	0.906
7.92902	0.91
7.96709	0.915
8.00516	0.921
8.04323	0.921
8.0813	0.924
8.11937	0.925
8.15745	0.925
8.19552	0.925
8.23359	0.927
8.27166	0.927
8.30973	0.927
8.3478	0.928
8.38587	0.928
8.42394	0.928
8.46201	0.93
8.50009	0.931
8.53816	0.931
8.57623	0.933
8.6143	0.933
8.65237	0.934
8.69044	0.934
8.72851	0.933
8.76658	0.934
8.80465	0.934
8.84273	0.934
8.8808	0.934
8.91887	0.936
8.95694	0.936
8.99501	0.936
9.03308	0.936
9.07115	0.934
9.10922	0.936
9.14729	0.936
9.18537	0.934
9.22344	0.936
9.26151	0.936
9.29958	0.936
9.33765	0.936
9.37572	0.936
9.41379	0.936
9.45186	0.936
9.48993	0.936
9.52801	0.936
9.56608	0.936
9.60415	0.936
9.64222	0.936
9.68029	0.936
9.71836	0.936
9.75643	0.936
9.7945	0.936
9.83257	0.938
9.87064	0.94
9.90872	0.938
9.94679	0.938
9.98486	0.94
10.0229	0.941
10.061	0.943
10.0991	0.943
10.1371	0.944
10.1752	0.944
10.2133	0.944
10.2514	0.944
10.2894	0.946
10.3275	0.946
10.3656	0.946
10.4036	0.946
10.4417	0.946
10.4798	0.943
10.5179	0.943
10.5559	0.946
10.594	0.944
10.6321	0.944
10.6701	0.943
10.7082	0.941
10.7463	0.941
10.7844	0.941
10.8224	0.938
10.8605	0.938
10.8986	0.937
10.9366	0.934
10.9747	0.931
11.0128	0.933
11.0508	0.934
11.0889	0.937
11.127	0.936
11.1651	0.937
11.2031	0.937
11.2412	0.937
11.2793	0.937
11.3173	0.937
11.3554	0.936
11.3935	0.934
11.4316	0.934
11.4696	0.931
11.5077	0.931
11.5458	0.93
11.5838	0.927
11.6219	0.924
11.66	0.922
11.6981	0.922
11.7361	0.919
11.7742	0.919
11.8123	0.919
11.8503	0.915
11.8884	0.916
11.9265	0.912
11.9646	0.906
12.0026	0.906
12.0407	0.903
12.0788	0.9
12.1168	0.895
12.1549	0.889
12.193	0.882
12.2311	0.866
12.2691	0.861
12.3072	0.845
12.3453	0.825
12.3833	0.797
12.4214	0.76
12.4595	0.738
12.4976	0.724
12.5356	0.718
12.5737	0.723
12.6118	0.741
12.6498	0.755
12.6879	0.77
12.726	0.79
12.764	0.805
12.8021	0.816
12.8402	0.83
12.8783	0.834
12.9163	0.834
12.9544	0.845
12.9925	0.849
13.0305	0.848
13.0686	0.849
13.1067	0.851
13.1448	0.851
13.1828	0.849
13.2209	0.849
13.259	0.849
13.297	0.849
13.3351	0.846
13.3732	0.848
13.4113	0.848
13.4493	0.848
13.4874	0.845
13.5255	0.846
13.5635	0.846
13.6016	0.848
13.6397	0.843
13.6778	0.845
13.7158	0.845
13.7539	0.845
13.792	0.845
13.83	0.843
13.8681	0.843
13.9062	0.845
13.9443	0.843
13.9823	0.843
14.0204	0.843
14.0585	0.843
14.0965	0.842
14.1346	0.84
14.1727	0.843
14.2107	0.842
14.2488	0.842
14.2869	0.84
14.325	0.84
14.363	0.842
14.4011	0.845
14.4392	0.842
14.4772	0.84
14.5153	0.842
14.5534	0.845
14.5915	0.845
14.6295	0.843
14.6676	0.846
14.7057	0.845
14.7437	0.845
14.7818	0.843
14.8199	0.846
14.858	0.843
14.896	0.845
14.9341	0.846
