Infrared Spectrum: o-HYDROXYBENZOYL FERROCENE
Formula: C17 H14 Fe O2
State: SOLID (MINERAL OIL MULL)
Melting point: 87-89 C
Class: COBLENTZ
Instrument: Not specified, most likely a prism, grating, or hybrid spectrometer.
Sampling: TRANSMISSION
Resolution: 4
Origin: WYANDOTTE CHEMICALS CORP., WYANDOTTE, MICHIGAN, USA
MICROMETERS	TRANSMITTANCE
2.007	0.312
2.04781	0.315
2.08863	0.324
2.12944	0.324
2.17026	0.325
2.21107	0.332
2.25189	0.337
2.2927	0.358
2.33352	0.361
2.37433	0.366
2.41515	0.377
2.45596	0.38
2.49678	0.373
2.53759	0.385
2.5784	0.411
2.61922	0.416
2.66003	0.423
2.70085	0.431
2.74166	0.44
2.78248	0.45
2.82329	0.445
2.86411	0.44
2.90492	0.436
2.94574	0.435
2.98655	0.436
3.02736	0.433
3.06818	0.424
3.10899	0.402
3.14981	0.389
3.19062	0.375
3.23144	0.308
3.27225	0.308
3.31307	0.247
3.35388	0.085
3.3947	0.032
3.43551	0.052
3.47633	0.107
3.51714	0.197
3.55795	0.527
3.59877	0.566
3.63958	0.583
3.6804	0.571
3.72121	0.588
3.76203	0.587
3.80284	0.6
3.84366	0.616
3.88447	0.629
3.92529	0.638
3.9661	0.641
4.00691	0.658
4.04773	0.66
4.08854	0.662
4.12936	0.668
4.17017	0.679
4.21099	0.68
4.2518	0.672
4.29262	0.672
4.33343	0.684
4.37425	0.706
4.41506	0.732
4.45588	0.726
4.49669	0.718
4.5375	0.732
4.57832	0.747
4.61913	0.754
4.65995	0.762
4.70076	0.769
4.74158	0.776
4.78239	0.778
4.82321	0.783
4.86402	0.793
4.90484	0.798
4.94565	0.798
4.98646	0.805
5.02728	0.815
5.06809	0.819
5.10891	0.822
5.14972	0.82
5.19054	0.808
5.23135	0.824
5.27217	0.841
5.31298	0.856
5.3538	0.849
5.39461	0.853
5.43543	0.837
5.47624	0.849
5.51705	0.837
5.55787	0.82
5.59868	0.827
5.6395	0.822
5.68031	0.829
5.72113	0.815
5.76194	0.813
5.80276	0.778
5.84357	0.767
5.88439	0.786
5.9252	0.79
5.96601	0.788
6.00683	0.767
6.04764	0.679
6.08846	0.488
6.12927	0.133
6.17009	0.279
6.2109	0.102
6.25172	0.069
6.29253	0.267
6.33335	0.489
6.37416	0.571
6.41498	0.655
6.45579	0.677
6.4966	0.706
6.53742	0.682
6.57823	0.663
6.61905	0.595
6.65986	0.401
6.70068	0.208
6.74149	0.3
6.78231	0.254
6.82312	0.18
6.86394	0.054
6.90475	0.073
6.94556	0.286
6.98638	0.488
7.02719	0.563
7.06801	0.467
7.10882	0.578
7.14964	0.525
7.19045	0.489
7.23127	0.17
7.27208	0.307
7.3129	0.465
7.35371	0.462
7.39453	0.337
7.43534	0.327
7.47615	0.196
7.51697	0.266
7.55778	0.351
7.5986	0.382
7.63941	0.162
7.68023	0.114
7.72104	0.162
7.76186	0.375
7.80267	0.498
7.84349	0.588
7.8843	0.65
7.92511	0.563
7.96593	0.145
8.00674	0.078
8.04756	0.221
8.08837	0.25
8.12919	0.208
8.17	0.401
8.21082	0.365
8.25163	0.447
8.29245	0.581
8.33326	0.641
8.37408	0.679
8.41489	0.612
8.4557	0.612
8.49652	0.697
8.53733	0.761
8.57815	0.8
8.61896	0.694
8.65978	0.23
8.70059	0.201
8.74141	0.569
8.78222	0.732
8.82304	0.788
8.86385	0.8
8.90466	0.75
8.94548	0.592
8.98629	0.646
9.02711	0.431
9.06792	0.728
9.10874	0.793
9.14955	0.812
9.19037	0.82
9.23118	0.82
9.272	0.827
9.31281	0.805
9.35363	0.773
9.39444	0.8
9.43525	0.701
9.47607	0.382
9.51688	0.428
9.5577	0.682
9.59851	0.784
9.63933	0.754
9.68014	0.575
9.72096	0.313
9.76177	0.631
9.80259	0.767
9.8434	0.8
9.88421	0.79
9.92503	0.721
9.96584	0.534
10.0067	0.544
10.0475	0.73
10.0883	0.812
10.1291	0.802
10.1699	0.831
10.2107	0.868
10.2515	0.877
10.2924	0.887
10.3332	0.887
10.374	0.889
10.4148	0.791
10.4556	0.633
10.4964	0.607
10.5372	0.788
10.5781	0.863
10.6189	0.89
10.6597	0.907
10.7005	0.911
10.7413	0.918
10.7821	0.921
10.823	0.928
10.8638	0.931
10.9046	0.931
10.9454	0.931
10.9862	0.926
11.027	0.858
11.0678	0.81
11.1087	0.863
11.1495	0.899
11.1903	0.911
11.2311	0.919
11.2719	0.933
11.3127	0.919
11.3535	0.836
11.3944	0.605
11.4352	0.558
11.476	0.517
11.5168	0.631
11.5576	0.617
11.5984	0.616
11.6392	0.754
11.6801	0.822
11.7209	0.829
11.7617	0.744
11.8025	0.61
11.8433	0.675
11.8841	0.745
11.9249	0.776
11.9658	0.771
12.0066	0.633
12.0474	0.435
12.0882	0.245
12.129	0.189
12.1698	0.199
12.2106	0.257
12.2515	0.385
12.2923	0.47
12.3331	0.344
12.3739	0.216
12.4147	0.303
12.4555	0.452
12.4963	0.506
12.5372	0.532
12.578	0.622
12.6188	0.687
12.6596	0.749
12.7004	0.8
12.7412	0.844
12.7821	0.861
12.8229	0.853
12.8637	0.783
12.9045	0.573
12.9453	0.24
12.9861	0.15
13.0269	0.204
13.0678	0.281
13.1086	0.337
13.1494	0.348
13.1902	0.329
13.231	0.293
13.2718	0.247
13.3126	0.203
13.3535	0.172
13.3943	0.174
13.4351	0.192
13.4759	0.223
13.5167	0.257
13.5575	0.305
13.5983	0.361
13.6392	0.423
13.68	0.488
13.7208	0.539
13.7616	0.587
13.8024	0.627
13.8432	0.662
13.884	0.679
13.9249	0.701
13.9657	0.721
14.0065	0.653
14.0473	0.482
14.0881	0.368
14.1289	0.481
14.1697	0.592
14.2106	0.658
14.2514	0.701
14.2922	0.726
14.333	0.74
14.3738	0.749
14.4146	0.759
14.4554	0.764
14.4963	0.779
14.5371	0.778
14.5779	0.779
14.6187	0.778
14.6595	0.786
14.7003	0.781
14.7412	0.754
14.782	0.706
14.8228	0.602
14.8636	0.505
14.9044	0.441
14.9452	0.402
14.986	0.401
15.0269	0.409
15.0677	0.474
15.1085	0.576
15.1493	0.633
15.1901	0.651
15.2309	0.656
15.2717	0.667
15.3126	0.665
15.3534	0.662
15.3942	0.655
15.435	0.648
15.4758	0.638
15.5166	0.633
15.5574	0.629
15.5983	0.617
15.6391	0.612
15.6799	0.592
15.7207	0.571
15.7615	0.551
15.8023	0.539
15.8431	0.532
15.884	0.532
15.9248	0.523
15.9656	0.518
