Infrared Spectrum: Aniline, N,2-dicyclohexyl-4-methyl-
Formula: C19 H29 N
State: LIQUID (NEAT)
Class: COBLENTZ III
Instrument: BECKMAN IR-4 (HYBRID PRISM-GRATING)
Instrument parameters: NaCl PRISM
Sampling: TRANSMISSION
Path length: CAPILLARY
Resolution: 2
Origin: MONSANTO (J. FREEMAN)
1/CM	TRANSMITTANCE
626	0.8287
635	0.8118
644	0.8085
653	0.8239
662	0.8707
671	0.8898
680	0.917
689	0.9321
698	0.9434
707	0.9578
716	0.9613
725	0.9611
734	0.9675
743	0.9122
752	0.9766
761	0.9703
770	0.9664
779	0.9384
788	0.8121
797	0.4111
806	0.3576
815	0.7451
824	0.8949
833	0.9532
842	0.8749
851	0.7555
860	0.9027
869	0.6399
878	0.8808
887	0.6611
896	0.8385
905	0.9748
914	0.9615
923	0.9224
932	0.9374
941	0.9726
950	0.986
959	0.9793
968	0.9635
977	0.879
986	0.8647
995	0.8805
1004	0.9309
1013	0.9242
1022	0.887
1031	0.829
1040	0.879
1049	0.8639
1058	0.9536
1067	0.9293
1076	0.8497
1085	0.8572
1094	0.8628
1103	0.8935
1112	0.7363
1121	0.7603
1130	0.8885
1139	0.821
1148	0.5747
1157	0.6865
1166	0.6153
1175	0.8085
1184	0.7962
1193	0.9212
1202	0.9377
1211	0.9124
1220	0.8518
1229	0.6659
1238	0.6591
1247	0.4058
1256	0.3148
1265	0.5616
1274	0.5566
1283	0.5178
1292	0.4873
1301	0.3752
1310	0.3162
1319	0.4094
1328	0.4656
1337	0.5275
1346	0.6491
1355	0.7281
1364	0.7054
1373	0.5748
1382	0.7043
1391	0.8258
1400	0.8333
1409	0.7818
1418	0.6795
1427	0.6699
1436	0.5359
1445	0.1633
1454	0.1138
1463	0.3405
1472	0.5047
1481	0.629
1490	0.576
1499	0.3727
1508	0.1323
1517	0.0481
1526	0.1364
1535	0.4088
1544	0.628
1553	0.7676
1562	0.8359
1571	0.8679
1580	0.8412
1589	0.7039
1598	0.7886
1607	0.7088
1616	0.5908
1625	0.4708
1634	0.7754
1643	0.9088
1652	0.9257
1661	0.9303
1670	0.9361
1679	0.949
1688	0.9632
1697	0.974
1706	0.9761
1715	0.9755
1724	0.9745
1733	0.9731
1742	0.9722
1751	0.9751
1760	0.9752
1769	0.9737
1778	0.9716
1787	0.9687
1796	0.9657
1805	0.9652
1814	0.967
1823	0.9702
1832	0.9701
1841	0.9682
1850	0.9638
1859	0.9522
1868	0.9557
1877	0.9606
1886	0.9697
1895	0.9741
1904	0.976
1913	0.9765
1922	0.9765
1931	0.9765
1940	0.9766
1949	0.9767
1958	0.9768
1967	0.9773
1976	0.9777
1985	0.9784
1994	0.979
2003	0.9793
2012	0.9793
2021	0.9785
2030	0.9776
2039	0.9762
2048	0.9748
2057	0.9737
2066	0.9733
2075	0.9728
2084	0.9726
2093	0.9726
2102	0.9727
2111	0.9726
2120	0.9725
2129	0.972
2138	0.9715
2147	0.9709
2156	0.9702
2165	0.9694
2174	0.9687
2183	0.9682
2192	0.9677
2201	0.9671
2210	0.9657
2219	0.9641
2228	0.9608
2237	0.9614
2246	0.9633
2255	0.9662
2264	0.9679
2273	0.9691
2282	0.9693
2291	0.9684
2300	0.9673
2309	0.9662
2318	0.965
2327	0.9641
2336	0.9637
2345	0.9633
2354	0.9628
2363	0.9621
2372	0.9614
2381	0.9605
2390	0.9575
2399	0.9547
2408	0.9538
2417	0.9539
2426	0.9541
2435	0.9542
2444	0.9543
2453	0.9539
2462	0.9534
2471	0.9525
2480	0.9516
2489	0.9506
2498	0.949
2507	0.9471
2516	0.9452
2525	0.9431
2534	0.9402
2543	0.9374
2552	0.9345
2561	0.9299
2570	0.9252
2579	0.9203
2588	0.9151
2597	0.91
2606	0.9071
2615	0.9084
2624	0.9113
2633	0.9105
2642	0.9041
2651	0.8864
2660	0.87
2669	0.8554
2678	0.8512
2687	0.8649
2696	0.8831
2705	0.893
2714	0.8972
2723	0.8992
2732	0.8991
2741	0.8984
2750	0.8976
2759	0.896
2768	0.8909
2777	0.8743
2786	0.8527
2795	0.8176
2804	0.7977
2813	0.7794
2822	0.7589
2831	0.7431
2840	0.6847
2849	0.6256
2858	0.5999
2867	0.4004
2876	0.0947
2885	0.1161
2894	0.1601
2903	0.2037
2912	0.2047
2921	0.1511
2930	0.0979
2939	0.045
2948	0.0137
2957	0.0128
2966	0.0166
2975	0.1363
2984	0.2843
2993	0.4315
3002	0.5778
3011	0.6626
3020	0.6616
3029	0.6497
3038	0.6378
3047	0.6277
3056	0.6879
3065	0.7683
3074	0.849
3083	0.8671
3092	0.8826
3101	0.9001
3110	0.9146
3119	0.9247
3128	0.9319
3137	0.9359
3146	0.9383
3155	0.94
3164	0.9415
3173	0.9421
3182	0.9425
3191	0.943
3200	0.9434
3209	0.9436
3218	0.9438
3227	0.944
3236	0.9441
3245	0.9443
3254	0.9444
3263	0.9445
3272	0.9446
3281	0.9444
3290	0.944
3299	0.9435
3308	0.9415
3317	0.939
3326	0.934
3335	0.9283
3344	0.9216
3353	0.9147
3362	0.9069
3371	0.8971
3380	0.8851
3389	0.8732
3398	0.8615
3407	0.8497
3416	0.8381
3425	0.8266
3434	0.8232
3443	0.8386
3452	0.8867
3461	0.9081
3470	0.919
3479	0.9246
3488	0.9287
3497	0.9323
3506	0.9349
3515	0.9374
3524	0.9395
3533	0.9412
3542	0.9429
3551	0.9443
3560	0.9455
3569	0.9466
3578	0.947
3587	0.9472
3596	0.9472
3605	0.9474
3614	0.9476
3623	0.9476
3632	0.9476
3641	0.9475
3650	0.9474
3659	0.9474
3668	0.9472
3677	0.9471
3686	0.947
3695	0.9469
3704	0.9467
3713	0.9463
3722	0.946
3731	0.9455
3740	0.9451
3749	0.9447
3758	0.9442
3767	0.9436
3776	0.943
3785	0.9424
3794	0.9417
3803	0.941
3812	0.9404
3821	0.9398
3830	0.9391
3839	0.9385
3848	0.938
3857	0.9374
3866	0.9369
3875	0.9363
3884	0.9358
3893	0.9352
3902	0.9347
3911	0.9341
3920	0.9337
3929	0.9332
3938	0.9327
3947	0.9323
3956	0.9318
3965	0.9313
3974	0.9309
3983	0.9304
3992	0.9298
