Infrared Spectrum: LEAD ORTHOARSENATE, DIBASIC
Formula: Pb H As O4
State: SOLID (NUJOL MULL)
Class: COBLENTZ
Instrument: Not specified, most likely a prism, grating, or hybrid spectrometer.
Sampling: TRANSMISSION
Resolution: 4
Origin: MELLON INSTITUTE
MICROMETERS	TRANSMITTANCE
2.01	0.73
2.05097	0.738
2.09194	0.75
2.1329	0.759
2.17387	0.769
2.21484	0.778
2.25581	0.781
2.29677	0.786
2.33774	0.793
2.37871	0.8
2.41968	0.81
2.46064	0.819
2.50161	0.826
2.54258	0.831
2.58355	0.836
2.62451	0.848
2.66548	0.848
2.70645	0.853
2.74742	0.855
2.78839	0.86
2.82935	0.867
2.87032	0.867
2.91129	0.871
2.95226	0.872
2.99322	0.874
3.03419	0.874
3.07516	0.876
3.11613	0.879
3.15709	0.879
3.19806	0.883
3.23903	0.878
3.28	0.855
3.32097	0.637
3.36193	0.285
3.4029	0.402
3.44387	0.489
3.48484	0.671
3.5258	0.867
3.56677	0.902
3.60774	0.907
3.64871	0.91
3.68967	0.914
3.73064	0.92
3.77161	0.926
3.81258	0.931
3.85354	0.934
3.89451	0.934
3.93548	0.936
3.97645	0.934
4.01742	0.929
4.05838	0.927
4.09935	0.919
4.14032	0.919
4.18129	0.912
4.22225	0.9
4.26322	0.896
4.30419	0.891
4.34516	0.893
4.38612	0.902
4.42709	0.907
4.46806	0.903
4.50903	0.903
4.54999	0.903
4.59096	0.903
4.63193	0.915
4.6729	0.917
4.71387	0.92
4.75483	0.926
4.7958	0.926
4.83677	0.929
4.87774	0.936
4.9187	0.941
4.95967	0.943
5.00064	0.941
5.04161	0.95
5.08257	0.951
5.12354	0.953
5.16451	0.958
5.20548	0.965
5.24645	0.965
5.28741	0.967
5.32838	0.965
5.36935	0.965
5.41032	0.965
5.45128	0.965
5.49225	0.957
5.53322	0.96
5.57419	0.958
5.61515	0.962
5.65612	0.951
5.69709	0.953
5.73806	0.955
5.77902	0.945
5.81999	0.939
5.86096	0.932
5.90193	0.926
5.9429	0.922
5.98386	0.926
6.02483	0.92
6.0658	0.914
6.10677	0.919
6.14773	0.919
6.1887	0.919
6.22967	0.922
6.27064	0.924
6.3116	0.931
6.35257	0.924
6.39354	0.927
6.43451	0.932
6.47547	0.924
6.51644	0.919
6.55741	0.931
6.59838	0.924
6.63935	0.929
6.68031	0.927
6.72128	0.915
6.76225	0.867
6.80322	0.75
6.84418	0.723
6.88515	0.752
6.92612	0.819
6.96709	0.864
7.00805	0.902
7.04902	0.905
7.08999	0.919
7.13096	0.915
7.17193	0.903
7.21289	0.829
7.25386	0.814
7.29483	0.848
7.3358	0.89
7.37676	0.898
7.41773	0.902
7.4587	0.91
7.49967	0.917
7.54063	0.914
7.5816	0.919
7.62257	0.917
7.66354	0.922
7.7045	0.926
7.74547	0.926
7.78644	0.932
7.82741	0.932
7.86838	0.934
7.90934	0.943
7.95031	0.943
7.99128	0.945
8.03225	0.943
8.07321	0.943
8.11418	0.946
8.15515	0.948
8.19612	0.95
8.23708	0.951
8.27805	0.951
8.31902	0.953
8.35999	0.955
8.40095	0.955
8.44192	0.955
8.48289	0.955
8.52386	0.955
8.56483	0.955
8.60579	0.958
8.64676	0.958
8.68773	0.958
8.7287	0.958
8.76966	0.96
8.81063	0.963
8.8516	0.967
8.89257	0.963
8.93353	0.963
8.9745	0.967
9.01547	0.965
9.05644	0.965
9.09741	0.972
9.13837	0.967
9.17934	0.974
9.22031	0.97
9.26128	0.975
9.30224	0.972
9.34321	0.975
9.38418	0.981
9.42515	0.979
9.46611	0.982
9.50708	0.982
9.54805	0.982
9.58902	0.984
9.62998	0.977
9.67095	0.979
9.71192	0.979
9.75289	0.979
9.79386	0.982
9.83482	0.984
9.87579	0.982
9.91676	0.977
9.95773	0.979
9.99869	0.986
10.0397	0.991
10.0806	0.984
10.1216	0.979
10.1626	0.972
10.2035	0.979
10.2445	0.972
10.2855	0.972
10.3264	0.965
10.3674	0.96
10.4084	0.955
10.4493	0.953
10.4903	0.957
10.5313	0.958
10.5722	0.953
10.6132	0.953
10.6542	0.948
10.6951	0.95
10.7361	0.941
10.7771	0.941
10.818	0.938
10.859	0.938
10.9	0.938
10.9409	0.941
10.9819	0.943
11.0229	0.939
11.0639	0.939
11.1048	0.934
11.1458	0.939
11.1868	0.936
11.2277	0.931
11.2687	0.926
11.3097	0.919
11.3506	0.915
11.3916	0.91
11.4326	0.903
11.4735	0.891
11.5145	0.869
11.5555	0.84
11.5964	0.804
11.6374	0.785
11.6784	0.752
11.7193	0.721
11.7603	0.704
11.8013	0.69
11.8422	0.673
11.8832	0.654
11.9242	0.637
11.9651	0.615
12.0061	0.584
12.0471	0.554
12.088	0.52
12.129	0.481
12.17	0.443
12.2109	0.4
12.2519	0.352
12.2929	0.304
12.3339	0.262
12.3748	0.225
12.4158	0.202
12.4568	0.19
12.4977	0.182
12.5387	0.183
12.5797	0.204
12.6206	0.271
12.6616	0.329
12.7026	0.407
12.7435	0.463
12.7845	0.536
12.8255	0.58
12.8664	0.613
12.9074	0.644
12.9484	0.661
12.9893	0.671
13.0303	0.673
13.0713	0.671
13.1122	0.664
13.1532	0.656
13.1942	0.649
13.2351	0.642
13.2761	0.632
13.3171	0.623
13.358	0.618
13.399	0.616
13.44	0.616
13.4809	0.616
13.5219	0.618
13.5629	0.618
13.6038	0.632
13.6448	0.634
13.6858	0.642
13.7268	0.656
13.7677	0.666
13.8087	0.673
13.8497	0.683
13.8906	0.692
13.9316	0.704
13.9726	0.716
14.0135	0.728
14.0545	0.733
14.0955	0.742
14.1364	0.747
14.1774	0.756
14.2184	0.757
14.2593	0.761
14.3003	0.764
14.3413	0.769
14.3822	0.771
14.4232	0.771
14.4642	0.769
14.5051	0.768
14.5461	0.768
14.5871	0.769
14.628	0.766
14.669	0.768
14.71	0.764
14.7509	0.761
14.7919	0.754
14.8329	0.749
14.8738	0.75
14.9148	0.747
14.9558	0.745
14.9967	0.747
15.0377	0.742
15.0787	0.738
15.1197	0.735
15.1606	0.73
15.2016	0.728
15.2426	0.723
15.2835	0.719
15.3245	0.719
15.3655	0.721
15.4064	0.719
15.4474	0.711
15.4884	0.706
15.5293	0.704
15.5703	0.704
15.6113	0.704
15.6522	0.701
15.6932	0.694
15.7342	0.695
15.7751	0.695
15.8161	0.69
15.8571	0.687
15.898	0.687
15.939	0.687
15.98	0.689
