Infrared Spectrum: ACRIDINE RED
Formula: C15 H14 N2 O  * H Cl
State: SOLID (MINERAL OIL MULL)
Class: COBLENTZ
Instrument: Not specified, most likely a prism, grating, or hybrid spectrometer.
Sampling: TRANSMISSION
Resolution: 4
Origin: WYANDOTTE CHEMICALS CORP., WYANDOTTE, MICHIGAN, USA
MICROMETERS	TRANSMITTANCE
2.019	0.296
2.05618	0.296
2.09337	0.297
2.13055	0.299
2.16774	0.299
2.20492	0.291
2.2421	0.288
2.27929	0.297
2.31647	0.296
2.35366	0.3
2.39084	0.303
2.42802	0.303
2.46521	0.311
2.50239	0.311
2.53958	0.331
2.57676	0.337
2.61394	0.347
2.65113	0.358
2.68831	0.351
2.7255	0.35
2.76268	0.348
2.79987	0.345
2.83705	0.331
2.87423	0.324
2.91142	0.31
2.9486	0.308
2.98579	0.306
3.02297	0.302
3.06015	0.288
3.09734	0.28
3.13452	0.272
3.17171	0.271
3.20889	0.262
3.24607	0.251
3.28326	0.224
3.32044	0.167
3.35763	0.04
3.39481	0.023
3.43199	0.02
3.46918	0.024
3.50636	0.027
3.54355	0.105
3.58073	0.24
3.61791	0.3
3.6551	0.316
3.69228	0.306
3.72947	0.317
3.76665	0.333
3.80383	0.342
3.84102	0.351
3.8782	0.365
3.91539	0.382
3.95257	0.398
3.98975	0.413
4.02694	0.427
4.06412	0.432
4.10131	0.437
4.13849	0.446
4.17567	0.448
4.21286	0.46
4.25004	0.465
4.28723	0.468
4.32441	0.483
4.3616	0.51
4.39878	0.531
4.43596	0.539
4.47315	0.547
4.51033	0.564
4.54752	0.565
4.5847	0.582
4.62188	0.596
4.65907	0.598
4.69625	0.61
4.73344	0.621
4.77062	0.638
4.8078	0.652
4.84499	0.662
4.88217	0.662
4.91936	0.679
4.95654	0.688
4.99372	0.691
5.03091	0.694
5.06809	0.702
5.10528	0.722
5.14246	0.73
5.17964	0.739
5.21683	0.751
5.25401	0.755
5.2912	0.768
5.32838	0.796
5.36556	0.818
5.40275	0.843
5.43993	0.858
5.47712	0.893
5.5143	0.931
5.55148	0.951
5.58867	0.951
5.62585	0.968
5.66304	0.913
5.70022	0.834
5.7374	0.81
5.77459	0.727
5.81177	0.434
5.84896	0.426
5.88614	0.541
5.92333	0.635
5.96051	0.694
5.99769	0.6
6.03488	0.365
6.07206	0.317
6.10925	0.368
6.14643	0.288
6.18361	0.182
6.2208	0.148
6.25798	0.124
6.29517	0.159
6.33235	0.213
6.36953	0.212
6.40672	0.204
6.4439	0.209
6.48109	0.24
6.51827	0.237
6.55545	0.265
6.59264	0.229
6.62982	0.209
6.66701	0.186
6.70419	0.151
6.74137	0.097
6.77856	0.023
6.81574	0.031
6.85293	0.032
6.89011	0.057
6.92729	0.106
6.96448	0.195
7.00166	0.213
7.03885	0.164
7.07603	0.142
7.11321	0.159
7.1504	0.178
7.18758	0.13
7.22477	0.052
7.26195	0.069
7.29914	0.133
7.33632	0.182
7.3735	0.173
7.41069	0.13
7.44787	0.102
7.48506	0.094
7.52224	0.11
7.55942	0.144
7.59661	0.167
7.63379	0.187
7.67098	0.189
7.70816	0.19
7.74534	0.19
7.78253	0.184
7.81971	0.165
7.8569	0.156
7.89408	0.175
7.93126	0.189
7.96845	0.162
8.00563	0.134
8.04282	0.153
8.08	0.173
8.11718	0.193
8.15437	0.212
8.19155	0.237
8.22874	0.269
8.26592	0.288
8.3031	0.255
8.34029	0.203
8.37747	0.21
8.41466	0.192
8.45184	0.125
8.48902	0.117
8.52621	0.145
8.56339	0.161
8.60058	0.159
8.63776	0.187
8.67494	0.207
8.71213	0.226
8.74931	0.221
8.7865	0.184
8.82368	0.168
8.86087	0.161
8.89805	0.161
8.93523	0.193
8.97242	0.213
9.0096	0.237
9.04679	0.263
9.08397	0.265
9.12115	0.232
9.15834	0.218
9.19552	0.181
9.23271	0.139
9.26989	0.13
9.30707	0.142
9.34426	0.167
9.38144	0.195
9.41863	0.223
9.45581	0.238
9.49299	0.271
9.53018	0.279
9.56736	0.288
9.60455	0.303
9.64173	0.31
9.67891	0.328
9.7161	0.339
9.75328	0.344
9.79047	0.337
9.82765	0.297
9.86483	0.238
9.90202	0.217
9.9392	0.255
9.97639	0.3
10.0136	0.339
10.0508	0.348
10.0879	0.359
10.1251	0.361
10.1623	0.336
10.1995	0.293
10.2367	0.291
10.2739	0.305
10.311	0.306
10.3482	0.314
10.3854	0.316
10.4226	0.341
10.4598	0.348
10.497	0.373
10.5341	0.384
10.5713	0.403
10.6085	0.42
10.6457	0.426
10.6829	0.435
10.7201	0.413
10.7573	0.378
10.7944	0.288
10.8316	0.251
10.8688	0.274
10.906	0.325
10.9432	0.387
10.9804	0.426
11.0175	0.451
11.0547	0.469
11.0919	0.48
11.1291	0.491
11.1663	0.496
11.2035	0.496
11.2406	0.493
11.2778	0.491
11.315	0.491
11.3522	0.491
11.3894	0.503
11.4266	0.506
11.4637	0.514
11.5009	0.506
11.5381	0.488
11.5753	0.489
11.6125	0.508
11.6497	0.496
11.6869	0.499
11.724	0.458
11.7612	0.429
11.7984	0.39
11.8356	0.367
11.8728	0.378
11.91	0.404
11.9471	0.412
11.9843	0.418
12.0215	0.393
12.0587	0.398
12.0959	0.384
12.1331	0.364
12.1702	0.361
12.2074	0.358
12.2446	0.355
12.2818	0.351
12.319	0.347
12.3562	0.347
12.3933	0.353
12.4305	0.381
12.4677	0.389
12.5049	0.39
12.5421	0.392
12.5793	0.392
12.6165	0.393
12.6536	0.41
12.6908	0.41
12.728	0.42
12.7652	0.423
12.8024	0.431
12.8396	0.446
12.8767	0.457
12.9139	0.454
12.9511	0.449
12.9883	0.42
13.0255	0.387
13.0627	0.373
13.0998	0.375
13.137	0.37
13.1742	0.342
13.2114	0.342
13.2486	0.392
13.2858	0.441
13.323	0.477
13.3601	0.51
13.3973	0.541
13.4345	0.551
13.4717	0.561
13.5089	0.561
13.5461	0.562
13.5832	0.562
13.6204	0.559
13.6576	0.556
13.6948	0.559
13.732	0.579
13.7692	0.578
13.8063	0.575
13.8435	0.568
13.8807	0.567
13.9179	0.565
13.9551	0.567
13.9923	0.55
14.0294	0.51
14.0666	0.475
14.1038	0.448
14.141	0.44
14.1782	0.441
14.2154	0.457
14.2526	0.48
14.2897	0.489
14.3269	0.499
14.3641	0.506
14.4013	0.508
14.4385	0.514
14.4757	0.542
14.5128	0.578
14.55	0.587
14.5872	0.555
14.6244	0.486
14.6616	0.4
14.6988	0.299
14.7359	0.252
14.7731	0.224
14.8103	0.26
14.8475	0.3
14.8847	0.345
14.9219	0.386
14.959	0.415
14.9962	0.413
15.0334	0.392
15.0706	0.376
15.1078	0.373
15.145	0.362
15.1822	0.351
15.2193	0.368
15.2565	0.382
15.2937	0.398
15.3309	0.413
15.3681	0.42
15.4053	0.418
15.4424	0.404
15.4796	0.39
15.5168	0.386
15.554	0.387
15.5912	0.381
15.6284	0.382
15.6655	0.381
15.7027	0.379
15.7399	0.379
15.7771	0.376
15.8143	0.373
15.8515	0.37
15.8887	0.356
15.9258	0.345
15.963	0.342
16.0002	0.334
