Infrared Spectrum: POTASSIUM PERSULFATE
Formula: K2 S2 O8
State: SOLID (NUJOL MULL)
Class: COBLENTZ
Instrument: Not specified, most likely a prism, grating, or hybrid spectrometer.
Sampling: TRANSMISSION
Resolution: 4
Origin: MELLON INSTITUTE
MICROMETERS	TRANSMITTANCE
2.018	0.809
2.05783	0.816
2.09766	0.816
2.13749	0.814
2.17731	0.812
2.21714	0.811
2.25697	0.807
2.2968	0.809
2.33663	0.812
2.37646	0.814
2.41629	0.816
2.45611	0.822
2.49594	0.829
2.53577	0.832
2.5756	0.834
2.61543	0.837
2.65526	0.842
2.69509	0.847
2.73491	0.846
2.77474	0.842
2.81457	0.834
2.8544	0.822
2.89423	0.817
2.93406	0.802
2.97389	0.772
3.01371	0.724
3.05354	0.714
3.09337	0.729
3.1332	0.745
3.17303	0.762
3.21286	0.77
3.25269	0.752
3.29252	0.454
3.33234	0.157
3.37217	0.11
3.412	0.204
3.45183	0.312
3.49166	0.677
3.53149	0.804
3.57132	0.854
3.61114	0.866
3.65097	0.871
3.6908	0.876
3.73063	0.879
3.77046	0.881
3.81029	0.884
3.85012	0.886
3.88994	0.889
3.92977	0.897
3.9696	0.897
4.00943	0.896
4.04926	0.899
4.08909	0.901
4.12892	0.897
4.16874	0.884
4.20857	0.872
4.2484	0.874
4.28823	0.882
4.32806	0.881
4.36789	0.889
4.40772	0.896
4.44754	0.896
4.48737	0.897
4.5272	0.901
4.56703	0.896
4.60686	0.896
4.64669	0.896
4.68652	0.892
4.72634	0.894
4.76617	0.899
4.806	0.901
4.84583	0.903
4.88566	0.906
4.92549	0.908
4.96532	0.908
5.00514	0.906
5.04497	0.911
5.0848	0.909
5.12463	0.911
5.16446	0.914
5.20429	0.918
5.24412	0.919
5.28395	0.918
5.32377	0.919
5.3636	0.914
5.40343	0.914
5.44326	0.918
5.48309	0.921
5.52292	0.923
5.56275	0.928
5.60257	0.933
5.6424	0.933
5.68223	0.934
5.72206	0.939
5.76189	0.939
5.80172	0.931
5.84155	0.931
5.88137	0.936
5.9212	0.924
5.96103	0.929
6.00086	0.929
6.04069	0.926
6.08052	0.921
6.12035	0.923
6.16017	0.924
6.2	0.924
6.23983	0.924
6.27966	0.921
6.31949	0.914
6.35932	0.906
6.39915	0.911
6.43897	0.906
6.4788	0.897
6.51863	0.899
6.55846	0.897
6.59829	0.891
6.63812	0.876
6.67795	0.856
6.71777	0.801
6.7576	0.64
6.79743	0.501
6.83726	0.498
6.87709	0.538
6.91692	0.58
6.95675	0.63
6.99657	0.652
7.0364	0.704
7.07623	0.724
7.11606	0.732
7.15589	0.702
7.19572	0.533
7.23555	0.563
7.27538	0.571
7.3152	0.563
7.35503	0.528
7.39486	0.473
7.43469	0.376
7.47452	0.22
7.51435	0.07
7.55418	0.025
7.594	0.015
7.63383	0.01
7.67366	0.003
7.71349	0
7.75332	0
7.79315	0
7.83298	0
7.8728	0
7.91263	0.001
7.95246	0.031
7.99229	0.107
8.03212	0.229
8.07195	0.322
8.11178	0.401
8.1516	0.451
8.19143	0.491
8.23126	0.533
8.27109	0.576
8.31092	0.607
8.35075	0.638
8.39058	0.66
8.4304	0.685
8.47023	0.705
8.51006	0.724
8.54989	0.737
8.58972	0.747
8.62955	0.76
8.66938	0.77
8.7092	0.774
8.74903	0.774
8.78886	0.774
8.82869	0.775
8.86852	0.772
8.90835	0.777
8.94818	0.779
8.988	0.782
9.02783	0.78
9.06766	0.777
9.10749	0.769
9.14732	0.752
9.18715	0.724
9.22698	0.687
9.2668	0.613
9.30663	0.441
9.34646	0.219
9.38629	0.103
9.42612	0.075
9.46595	0.187
9.50578	0.403
9.54561	0.566
9.58543	0.673
9.62526	0.76
9.66509	0.812
9.70492	0.846
9.74475	0.872
9.78458	0.881
9.82441	0.894
9.86423	0.908
9.90406	0.908
9.94389	0.906
9.98372	0.913
10.0235	0.918
10.0634	0.921
10.1032	0.923
10.143	0.924
10.1829	0.921
10.2227	0.923
10.2625	0.926
10.3023	0.926
10.3422	0.918
10.382	0.918
10.4218	0.926
10.4617	0.923
10.5015	0.924
10.5413	0.919
10.5811	0.923
10.621	0.923
10.6608	0.919
10.7006	0.923
10.7405	0.921
10.7803	0.918
10.8201	0.918
10.8599	0.914
10.8998	0.913
10.9396	0.911
10.9794	0.911
11.0193	0.909
11.0591	0.909
11.0989	0.908
11.1387	0.906
11.1786	0.903
11.2184	0.903
11.2582	0.899
11.2981	0.897
11.3379	0.897
11.3777	0.901
11.4175	0.904
11.4574	0.903
11.4972	0.897
11.537	0.901
11.5769	0.899
11.6167	0.899
11.6565	0.897
11.6963	0.897
11.7362	0.897
11.776	0.899
11.8158	0.899
11.8557	0.899
11.8955	0.897
11.9353	0.899
11.9751	0.899
12.015	0.897
12.0548	0.901
12.0946	0.899
12.1345	0.897
12.1743	0.897
12.2141	0.892
12.2539	0.891
12.2938	0.892
12.3336	0.894
12.3734	0.892
12.4133	0.887
12.4531	0.884
12.4929	0.881
12.5328	0.872
12.5726	0.864
12.6124	0.852
12.6522	0.844
12.6921	0.831
12.7319	0.819
12.7717	0.807
12.8116	0.801
12.8514	0.795
12.8912	0.789
12.931	0.784
12.9709	0.775
13.0107	0.764
13.0505	0.752
13.0904	0.739
13.1302	0.734
13.17	0.724
13.2098	0.715
13.2497	0.695
13.2895	0.675
13.3293	0.637
13.3692	0.608
13.409	0.583
13.4488	0.536
13.4886	0.494
13.5285	0.449
13.5683	0.404
13.6081	0.371
13.648	0.339
13.6878	0.272
13.7276	0.232
13.7674	0.207
13.8073	0.183
13.8471	0.158
13.8869	0.137
13.9268	0.117
13.9666	0.105
14.0064	0.095
14.0462	0.091
14.0861	0.091
14.1259	0.091
14.1657	0.091
14.2056	0.093
14.2454	0.096
14.2852	0.103
14.325	0.11
14.3649	0.122
14.4047	0.132
14.4445	0.147
14.4844	0.158
14.5242	0.167
14.564	0.18
14.6038	0.198
14.6437	0.207
14.6835	0.225
14.7233	0.249
14.7632	0.27
14.803	0.321
14.8428	0.366
14.8826	0.376
14.9225	0.382
14.9623	0.399
15.0021	0.416
15.042	0.434
15.0818	0.453
15.1216	0.469
15.1614	0.486
15.2013	0.5
15.2411	0.518
15.2809	0.528
15.3208	0.538
15.3606	0.551
15.4004	0.555
15.4402	0.563
15.4801	0.571
15.5199	0.58
15.5597	0.586
15.5996	0.595
15.6394	0.6
15.6792	0.607
15.719	0.612
15.7589	0.617
15.7987	0.622
15.8385	0.628
15.8784	0.633
15.9182	0.642
15.958	0.648
