Infrared Spectrum: PROPIONIC ACID, 2,3,3-TRICHLORO-2-CHLOROMETHYL, METHYL ESTER
Formula: C5 H6 Cl4 O2
Class: COBLENTZ
Instrument: Not specified, most likely a prism, grating, or hybrid spectrometer.
Sampling: TRANSMISSION
Path length: SMEAR
Resolution: 4
Origin: TENNESSEE EASTMAN COMPANY, RESEARCH LABORATORIES
MICROMETERS	TRANSMITTANCE
2.02	0.936
2.06096	0.951
2.10191	0.958
2.14287	0.97
2.18382	0.982
2.22478	0.931
2.26574	0.927
2.30669	0.929
2.34765	0.919
2.3886	0.917
2.42956	0.932
2.47052	0.938
2.51147	0.941
2.55243	0.943
2.59338	0.945
2.63434	0.945
2.6753	0.945
2.71625	0.945
2.75721	0.941
2.79816	0.932
2.83912	0.905
2.88008	0.878
2.92103	0.876
2.96199	0.867
3.00294	0.829
3.0439	0.805
3.08486	0.802
3.12581	0.819
3.16677	0.833
3.20772	0.836
3.24868	0.819
3.28964	0.664
3.33059	0.427
3.37155	0.513
3.4125	0.79
3.45346	0.812
3.49442	0.8
3.53537	0.876
3.57633	0.912
3.61728	0.922
3.65824	0.926
3.6992	0.927
3.74015	0.934
3.78111	0.934
3.82206	0.931
3.86302	0.92
3.90398	0.915
3.94493	0.917
3.98589	0.917
4.02684	0.915
4.0678	0.922
4.10876	0.926
4.14971	0.926
4.19067	0.936
4.23162	0.95
4.27258	0.95
4.31354	0.95
4.35449	0.953
4.39545	0.96
4.4364	0.967
4.47736	0.97
4.51832	0.977
4.55927	0.975
4.60023	0.969
4.64118	0.969
4.68214	0.958
4.7231	0.951
4.76405	0.951
4.80501	0.953
4.84596	0.953
4.88692	0.957
4.92788	0.955
4.96883	0.958
5.00979	0.97
5.05074	0.974
5.0917	0.972
5.13266	0.967
5.17361	0.965
5.21457	0.96
5.25552	0.95
5.29648	0.943
5.33744	0.932
5.37839	0.922
5.41935	0.917
5.4603	0.896
5.50126	0.864
5.54222	0.804
5.58317	0.635
5.62413	0.154
5.66509	0.108
5.70604	0.087
5.747	0.103
5.78795	0.211
5.82891	0.501
5.86987	0.625
5.91082	0.745
5.95178	0.802
5.99273	0.84
6.03369	0.852
6.07465	0.852
6.1156	0.859
6.15656	0.859
6.19751	0.853
6.23847	0.852
6.27943	0.857
6.32038	0.864
6.36134	0.864
6.40229	0.852
6.44325	0.848
6.48421	0.848
6.52516	0.848
6.56612	0.848
6.60707	0.848
6.64803	0.835
6.68899	0.819
6.72994	0.783
6.7709	0.711
6.81185	0.572
6.85281	0.374
6.89377	0.243
6.93472	0.101
6.97568	0.197
7.01663	0.365
7.05759	0.678
7.09855	0.749
7.1395	0.761
7.18046	0.761
7.22141	0.692
7.26237	0.714
7.30333	0.74
7.34428	0.726
7.38524	0.706
7.42619	0.69
7.46715	0.668
7.50811	0.579
7.54906	0.431
7.59002	0.292
7.63097	0.118
7.67193	0.06
7.71289	0.044
7.75384	0.042
7.7948	0.077
7.83575	0.092
7.87671	0.089
7.91767	0.084
7.95862	0.053
7.99958	0.041
8.04053	0.042
8.08149	0.104
8.12245	0.182
8.1634	0.194
8.20436	0.151
8.24531	0.106
8.28627	0.096
8.32723	0.079
8.36818	0.096
8.40914	0.137
8.45009	0.118
8.49105	0.101
8.53201	0.242
8.57296	0.445
8.61392	0.551
8.65487	0.604
8.69583	0.649
8.73679	0.68
8.77774	0.707
8.8187	0.718
8.85965	0.716
8.90061	0.68
8.94157	0.603
8.98252	0.503
9.02348	0.415
9.06443	0.429
9.10539	0.53
9.14635	0.597
9.1873	0.594
9.22826	0.594
9.26921	0.646
9.31017	0.678
9.35113	0.668
9.39208	0.565
9.43304	0.371
9.47399	0.247
9.51495	0.218
9.55591	0.285
9.59686	0.412
9.63782	0.536
9.67877	0.592
9.71973	0.599
9.76069	0.503
9.80164	0.36
9.8426	0.309
9.88355	0.376
9.92451	0.429
9.96547	0.405
10.0064	0.396
10.0474	0.451
10.0883	0.465
10.1293	0.441
10.1702	0.426
10.2112	0.445
10.2522	0.494
10.2931	0.508
10.3341	0.432
10.375	0.336
10.416	0.3
10.4569	0.295
10.4979	0.307
10.5389	0.341
10.5798	0.383
10.6208	0.412
10.6617	0.448
10.7027	0.5
10.7436	0.556
10.7846	0.589
10.8255	0.618
10.8665	0.673
10.9075	0.737
10.9484	0.781
10.9894	0.807
11.0303	0.819
11.0713	0.826
11.1122	0.826
11.1532	0.823
11.1941	0.807
11.2351	0.797
11.2761	0.797
11.317	0.783
11.358	0.747
11.3989	0.673
11.4399	0.548
11.4808	0.429
11.5218	0.367
11.5628	0.316
11.6037	0.307
11.6447	0.353
11.6856	0.331
11.7266	0.278
11.7675	0.35
11.8085	0.472
11.8494	0.537
11.8904	0.561
11.9314	0.553
11.9723	0.496
12.0133	0.417
12.0542	0.321
12.0952	0.242
12.1361	0.17
12.1771	0.125
12.218	0.109
12.259	0.109
12.3	0.146
12.3409	0.17
12.3819	0.182
12.4228	0.187
12.4638	0.187
12.5047	0.189
12.5457	0.189
12.5867	0.206
12.6276	0.252
12.6686	0.314
12.7095	0.371
12.7505	0.412
12.7914	0.439
12.8324	0.46
12.8733	0.486
12.9143	0.515
12.9553	0.537
12.9962	0.541
13.0372	0.518
13.0781	0.465
13.1191	0.398
13.16	0.319
13.201	0.24
13.2419	0.192
13.2829	0.176
13.3239	0.176
13.3648	0.185
13.4058	0.202
13.4467	0.219
13.4877	0.223
13.5286	0.207
13.5696	0.187
13.6106	0.182
13.6515	0.187
13.6925	0.197
13.7334	0.19
13.7744	0.168
13.8153	0.149
13.8563	0.142
13.8972	0.158
13.9382	0.213
13.9792	0.285
14.0201	0.35
14.0611	0.407
14.102	0.448
14.143	0.469
14.1839	0.479
14.2249	0.477
14.2658	0.451
14.3068	0.431
14.3478	0.402
14.3887	0.367
14.4297	0.335
14.4706	0.298
14.5116	0.259
14.5525	0.233
14.5935	0.218
14.6345	0.216
14.6754	0.219
14.7164	0.252
14.7573	0.288
14.7983	0.335
14.8392	0.393
14.8802	0.445
14.9211	0.484
14.9621	0.518
15.0031	0.551
15.044	0.579
15.085	0.589
15.1259	0.592
15.1669	0.601
15.2078	0.608
15.2488	0.611
15.2897	0.613
15.3307	0.615
15.3717	0.616
15.4126	0.616
15.4536	0.616
15.4945	0.616
15.5355	0.616
15.5764	0.616
15.6174	0.616
15.6584	0.616
15.6993	0.616
15.7403	0.616
15.7812	0.616
15.8222	0.616
15.8631	0.615
15.9041	0.616
15.945	0.616
15.986	0.615
