Infrared Spectrum: Acetamide, hydrochloride
Formula: C2 H6 Cl N O
State: SOLID (SPLIT MULL), FLUOROLUBE FOR 3800-1275 CM^-^1, NUJOL FOR 1275-200 CM^-^1
Class: COBLENTZ III
Instrument: PERKIN-ELMER 521 (GRATING)
Instrument parameters: FILTERS AT 3150, 2500, 2000, 1150, 700, 410. GRATING CHANGES: 2000, 630 CM^-^1
Sampling: TRANSMISSION
Resolution: 2
Origin: DOW CORNING CORP.
1/CM	TRANSMITTANCE
247	0.8527
256	0.8695
265	0.906
274	0.9456
283	0.9659
292	0.975
301	0.9781
310	0.9786
319	0.9775
328	0.9773
337	0.9741
346	0.9672
355	0.9597
364	0.95
373	0.9377
382	0.9236
391	0.9112
400	0.8886
409	0.8768
418	0.8703
427	0.8573
436	0.8294
445	0.773
454	0.7142
463	0.7261
472	0.7987
481	0.769
490	0.7233
499	0.6717
508	0.6135
517	0.5566
526	0.6136
535	0.7797
544	0.9583
553	0.9821
562	0.9502
571	0.8837
580	0.8919
589	0.8617
598	0.8175
607	0.7831
616	0.7505
625	0.7153
634	0.6747
643	0.6342
652	0.5936
661	0.5531
670	0.5075
679	0.4633
688	0.4231
697	0.3903
706	0.3679
715	0.3538
724	0.3545
733	0.4196
742	0.4561
751	0.4637
760	0.4464
769	0.415
778	0.3729
787	0.3316
796	0.2974
805	0.3148
814	0.3685
823	0.4103
832	0.4311
841	0.4436
850	0.4547
859	0.4871
868	0.652
877	0.728
886	0.5569
895	0.4376
904	0.3479
913	0.3386
922	0.3462
931	0.3566
940	0.3698
949	0.3846
958	0.402
967	0.4188
976	0.4359
985	0.453
994	0.4695
1003	0.4903
1012	0.5364
1021	0.5921
1030	0.4944
1039	0.4513
1048	0.4466
1057	0.456
1066	0.4782
1075	0.487
1084	0.5013
1093	0.5075
1102	0.5214
1111	0.5115
1120	0.438
1129	0.5509
1138	0.3543
1147	0.3932
1156	0.4472
1165	0.4683
1174	0.474
1183	0.475
1192	0.4738
1201	0.4877
1210	0.5077
1219	0.5209
1228	0.5218
1237	0.5213
1246	0.5198
1255	0.5144
1264	0.4742
1273	0.4083
1282	0.3446
1291	0.3795
1300	0.7784
1309	0.8336
1318	0.8343
1327	0.8272
1336	0.8242
1345	0.8214
1354	0.7974
1363	0.7357
1372	0.5091
1381	0.827
1390	0.8485
1399	0.8131
1408	0.8048
1417	0.7559
1426	0.5298
1435	0.7614
1444	0.663
1453	0.6536
1462	0.549
1471	0.3822
1480	0.2995
1489	0.4697
1498	0.6414
1507	0.7821
1516	0.8053
1525	0.8084
1534	0.7905
1543	0.7534
1552	0.7253
1561	0.7207
1570	0.7097
1579	0.688
1588	0.656
1597	0.6259
1606	0.629
1615	0.7003
1624	0.7922
1633	0.7784
1642	0.7464
1651	0.7082
1660	0.6837
1669	0.6895
1678	0.6889
1687	0.6793
1696	0.6484
1705	0.5843
1714	0.3897
1723	0.446
1732	0.7484
1741	0.8775
1750	0.8899
1759	0.8634
1768	0.8103
1777	0.8331
1786	0.8635
1795	0.89
1804	0.9024
1813	0.9092
1822	0.9064
1831	0.9
1840	0.8877
1849	0.8783
1858	0.9023
1867	0.9161
1876	0.9144
1885	0.9106
1894	0.908
1903	0.9051
1912	0.8995
1921	0.898
1930	0.8851
1939	0.88
1948	0.8817
1957	0.8778
1966	0.8727
1975	0.8634
1984	0.8497
1993	0.8456
2002	0.866
2011	0.8655
2020	0.8581
2029	0.8452
2038	0.8354
2047	0.839
2056	0.8303
2065	0.8203
2074	0.8094
2083	0.796
2092	0.7835
2101	0.77
2110	0.7562
2119	0.7433
2128	0.7307
2137	0.7178
2146	0.7055
2155	0.6873
2164	0.6721
2173	0.6665
2182	0.6754
2191	0.6684
2200	0.656
2209	0.6359
2218	0.6277
2227	0.6099
2236	0.5923
2245	0.5884
2254	0.5827
2263	0.5661
2272	0.5478
2281	0.5306
2290	0.517
2299	0.502
2308	0.4877
2317	0.4778
2326	0.475
2335	0.4652
2344	0.4407
2353	0.433
2362	0.4318
2371	0.4308
2380	0.4302
2389	0.4381
2398	0.4653
2407	0.4911
2416	0.4986
2425	0.4895
2434	0.4967
2443	0.5115
2452	0.5326
2461	0.5492
2470	0.5644
2479	0.5784
2488	0.5929
2497	0.6037
2506	0.6278
2515	0.6463
2524	0.6621
2533	0.6775
2542	0.692
2551	0.703
2560	0.7152
2569	0.7151
2578	0.7072
2587	0.6952
2596	0.6745
2605	0.6486
2614	0.632
2623	0.6177
2632	0.6006
2641	0.58
2650	0.5544
2659	0.5783
2668	0.6227
2677	0.6263
2686	0.6314
2695	0.6456
2704	0.6644
2713	0.6732
2722	0.6742
2731	0.6722
2740	0.6732
2749	0.697
2758	0.7172
2767	0.7259
2776	0.7288
2785	0.7278
2794	0.7228
2803	0.7171
2812	0.709
2821	0.6789
2830	0.6584
2839	0.719
2848	0.7519
2857	0.7567
2866	0.7535
2875	0.747
2884	0.736
2893	0.7232
2902	0.7083
2911	0.6846
2920	0.684
2929	0.7069
2938	0.7044
2947	0.6893
2956	0.6138
2965	0.6774
2974	0.6747
2983	0.6669
2992	0.655
3001	0.638
3010	0.6121
3019	0.5866
3028	0.5524
3037	0.5203
3046	0.4836
3055	0.456
3064	0.431
3073	0.3971
3082	0.3731
3091	0.3564
3100	0.3447
3109	0.3358
3118	0.3294
3127	0.325
3136	0.3273
3145	0.3454
3154	0.3698
3163	0.3963
3172	0.4434
3181	0.4778
3190	0.4878
3199	0.4789
3208	0.4641
3217	0.4683
3226	0.484
3235	0.5026
3244	0.5197
3253	0.5373
3262	0.5637
3271	0.5908
3280	0.6164
3289	0.6394
3298	0.6596
3307	0.6814
3316	0.7046
3325	0.7289
3334	0.7591
3343	0.7841
3352	0.8043
3361	0.8186
3370	0.8283
3379	0.8359
3388	0.8425
3397	0.8469
3406	0.8506
3415	0.8533
3424	0.8553
3433	0.8631
3442	0.8682
3451	0.8716
3460	0.8747
3469	0.8753
3478	0.8752
3487	0.8746
3496	0.8736
3505	0.8723
3514	0.8712
3523	0.8701
3532	0.8691
3541	0.8682
3550	0.8673
3559	0.8663
3568	0.8652
3577	0.8641
3586	0.863
3595	0.8607
3604	0.8583
3613	0.8571
3622	0.8561
3631	0.8549
3640	0.8535
3649	0.8516
3658	0.8486
3667	0.8456
3676	0.8432
3685	0.8417
3694	0.84
3703	0.8376
3712	0.8353
3721	0.8327
3730	0.8301
3739	0.8275
3748	0.8252
3757	0.8227
3766	0.8197
3775	0.8174
3784	0.8155
3793	0.8136
3802	0.8121
