Infrared Spectrum: 3-(BENZYLOXY)-5,7,8,13,13b,14-HEXAHYDRO-2-METHOXYBENZ[g]INDOLE[2,3-a]QUINOLIZINE, HYDROCHLORIDE
Formula: C27 H26 N2 O2  * H Cl
State: SOLID (NUJOL MULL)
Class: COBLENTZ
Instrument: PERKIN-ELMER
Sampling: TRANSMISSION
Resolution: 4
Origin: ABBOTT LABORATORIES - WASHBURN
MICROMETERS	TRANSMITTANCE
2.027	0.493
2.067	0.501
2.107	0.5082
2.14701	0.5202
2.18701	0.5312
2.22701	0.54
2.26701	0.552
2.30701	0.562
2.34702	0.5347
2.38702	0.5381
2.42702	0.552
2.46702	0.557
2.50702	0.5653
2.54702	0.5821
2.58703	0.5881
2.62703	0.595
2.66703	0.61
2.70703	0.615
2.74703	0.619
2.78704	0.6169
2.82704	0.617
2.86704	0.619
2.90704	0.6241
2.94704	0.629
2.98705	0.632
3.02705	0.629
3.06705	0.627
3.10705	0.5674
3.14705	0.3698
3.18705	0.3856
3.22706	0.511
3.26706	0.526
3.30706	0.4991
3.34706	0.4501
3.38706	0.3311
3.42707	0.0818
3.46707	0.031
3.50707	0.0332
3.54707	0.0432
3.58707	0.3427
3.62708	0.5532
3.66708	0.609
3.70708	0.5866
3.74708	0.5613
3.78708	0.5125
3.82709	0.528
3.86709	0.53
3.90709	0.4913
3.94709	0.2622
3.98709	0.1617
4.02709	0.1622
4.0671	0.2761
4.1071	0.3808
4.1471	0.4261
4.1871	0.4633
4.2271	0.463
4.26711	0.478
4.30711	0.5232
4.34711	0.5655
4.38711	0.6193
4.42711	0.63
4.46712	0.635
4.50712	0.647
4.54712	0.6472
4.58712	0.651
4.62712	0.659
4.66712	0.664
4.70713	0.667
4.74713	0.669
4.78713	0.674
4.82713	0.674
4.86713	0.677
4.90714	0.677
4.94714	0.677
4.98714	0.6761
5.02714	0.676
5.06714	0.677
5.10715	0.677
5.14715	0.6783
5.18715	0.679
5.22715	0.6831
5.26715	0.6815
5.30716	0.676
5.34716	0.6862
5.38716	0.6872
5.42716	0.6921
5.46716	0.692
5.50716	0.6892
5.54717	0.691
5.58717	0.6997
5.62717	0.682
5.66717	0.6901
5.70717	0.6867
5.74718	0.677
5.78718	0.6729
5.82718	0.677
5.86718	0.676
5.90718	0.6775
5.94719	0.671
5.98719	0.6752
6.02719	0.6784
6.06719	0.679
6.10719	0.676
6.14719	0.6601
6.1872	0.5993
6.2272	0.5495
6.2672	0.6368
6.3072	0.671
6.3472	0.6788
6.38721	0.679
6.42721	0.677
6.46721	0.6765
6.50721	0.6575
6.54721	0.5518
6.58722	0.345
6.62722	0.4351
6.66722	0.5162
6.70722	0.526
6.74722	0.545
6.78723	0.4451
6.82723	0.1747
6.86723	0.0985
6.90723	0.094
6.94723	0.1291
6.98723	0.2488
7.02724	0.3339
7.06724	0.3387
7.10724	0.5298
7.14724	0.5758
7.18724	0.5672
7.22725	0.4122
7.26725	0.2707
7.30725	0.2088
7.34725	0.312
7.38725	0.4088
7.42726	0.4746
7.46726	0.4781
7.50726	0.4316
7.54726	0.3619
7.58726	0.4201
7.62726	0.513
7.66727	0.4878
7.70727	0.3189
7.74727	0.4375
7.78727	0.5278
7.82727	0.5267
7.86728	0.4195
7.90728	0.359
7.94728	0.286
7.98728	0.2847
8.02728	0.4111
8.06729	0.4595
8.10729	0.433
8.14729	0.2806
8.18729	0.2034
8.22729	0.3327
8.2673	0.4481
8.3073	0.5316
8.3473	0.5551
8.3873	0.5215
8.4273	0.4454
8.4673	0.523
8.50731	0.5419
8.54731	0.5486
8.58731	0.5758
8.62731	0.5943
8.66731	0.5796
8.70732	0.5817
8.74732	0.535
8.78732	0.5715
8.82732	0.5772
8.86732	0.5208
8.90733	0.3119
8.94733	0.263
8.98733	0.3871
9.02733	0.3463
9.06733	0.5196
9.10733	0.5977
9.14734	0.6249
9.18734	0.64
9.22734	0.6373
9.26734	0.622
9.30734	0.6074
9.34735	0.5457
9.38735	0.565
9.42735	0.5004
9.46735	0.5454
9.50735	0.6251
9.54736	0.645
9.58736	0.644
9.62736	0.6074
9.66736	0.6025
9.70736	0.5657
9.74737	0.5391
9.78737	0.5305
9.82737	0.5183
9.86737	0.434
9.90737	0.3655
9.94737	0.3425
9.98738	0.3849
10.0274	0.4588
10.0674	0.4925
10.1074	0.5072
10.1474	0.5149
10.1874	0.5306
10.2274	0.5689
10.2674	0.5936
10.3074	0.5985
10.3474	0.5514
10.3874	0.5485
10.4274	0.5818
10.4674	0.5967
10.5074	0.5758
10.5474	0.541
10.5874	0.5825
10.6274	0.633
10.6674	0.6478
10.7074	0.649
10.7474	0.6383
10.7874	0.637
10.8274	0.6219
10.8674	0.605
10.9074	0.6117
10.9474	0.6399
10.9874	0.6658
11.0274	0.675
11.0674	0.6798
11.1074	0.684
11.1474	0.681
11.1874	0.6768
11.2274	0.6487
11.2674	0.5931
11.3074	0.6281
11.3474	0.6563
11.3874	0.6133
11.4274	0.5363
11.4674	0.5155
11.5074	0.5304
11.5475	0.5808
11.5875	0.6003
11.6275	0.6201
11.6675	0.6463
11.7075	0.659
11.7475	0.6407
11.7875	0.6405
11.8275	0.6428
11.8675	0.6122
11.9075	0.5911
11.9475	0.6336
11.9875	0.6723
12.0275	0.689
12.0675	0.692
12.1075	0.6988
12.1475	0.704
12.1875	0.7087
12.2275	0.714
12.2675	0.711
12.3075	0.712
12.3475	0.714
12.3875	0.7194
12.4275	0.7231
12.4675	0.718
12.5075	0.7012
12.5475	0.703
12.5875	0.7014
12.6275	0.7074
12.6675	0.711
12.7075	0.711
12.7475	0.708
12.7875	0.6985
12.8275	0.6758
12.8675	0.6486
12.9075	0.63
12.9475	0.6396
12.9875	0.651
13.0275	0.6437
13.0675	0.5993
13.1075	0.5509
13.1475	0.5524
13.1875	0.4952
13.2275	0.4788
13.2675	0.3783
13.3075	0.2461
13.3475	0.2107
13.3875	0.2463
13.4275	0.2823
13.4675	0.2907
13.5075	0.3612
13.5475	0.4361
13.5875	0.4696
13.6275	0.4705
13.6676	0.4164
13.7076	0.367
13.7476	0.4214
13.7876	0.4897
13.8276	0.5162
13.8676	0.521
13.9076	0.547
13.9476	0.5661
13.9876	0.572
14.0276	0.5555
14.0676	0.5376
14.1076	0.5309
14.1476	0.5398
14.1876	0.5463
14.2276	0.5147
14.2676	0.4349
14.3076	0.3827
14.3476	0.4351
14.3876	0.4794
14.4276	0.5288
14.4676	0.546
14.5076	0.541
14.5476	0.5306
14.5876	0.4944
14.6276	0.4668
14.6676	0.4313
14.7076	0.419
14.7476	0.4325
14.7876	0.4596
14.8276	0.4949
14.8676	0.5259
14.9076	0.5463
14.9476	0.5531
14.9876	0.5677
15.0276	0.5828
15.0676	0.5786
15.1076	0.577
15.1476	0.575
15.1876	0.572
15.2276	0.5662
15.2676	0.5595
15.3076	0.5547
15.3476	0.543
15.3876	0.536
