Infrared Spectrum: CHROME YELLOW (PRIMOSE)
Formula: Pb Cr O4
State: SOLID (1.2 mg / 300 mg CsI PELLET)
Class: COBLENTZ
Instrument: Not specified, most likely a grating spectrometer.
Sampling: TRANSMISSION
Resolution: 4
Origin: DESOTO CHEMICAL COATINGS, INC.
1/CM	TRANSMITTANCE
200	0.764
210.635	0.772
221.27	0.801
231.905	0.838
242.541	0.868
253.176	0.889
263.811	0.908
274.446	0.914
285.081	0.917
295.716	0.917
306.352	0.91
316.987	0.904
327.622	0.896
338.257	0.878
348.892	0.857
359.527	0.838
370.163	0.825
380.798	0.816
391.433	0.81
402.068	0.788
412.703	0.804
423.338	0.845
433.974	0.872
444.609	0.881
455.244	0.889
465.879	0.893
476.514	0.894
487.149	0.898
497.785	0.897
508.42	0.897
519.055	0.897
529.69	0.897
540.325	0.893
550.96	0.884
561.596	0.878
572.231	0.873
582.866	0.868
593.501	0.7741
604.136	0.658
614.771	0.712
625.407	0.714
636.042	0.7738
646.677	0.868
657.312	0.878
667.947	0.889
678.582	0.892
689.218	0.898
699.853	0.893
710.488	0.881
721.123	0.864
731.758	0.832
742.393	0.774
753.029	0.704
763.664	0.641
774.299	0.545
784.934	0.476
795.569	0.401
806.204	0.338
816.84	0.278
827.475	0.233
838.11	0.205
848.745	0.186
859.38	0.153
870.015	0.142
880.651	0.138
891.286	0.141
901.921	0.153
912.556	0.178
923.191	0.214
933.826	0.31
944.462	0.512
955.097	0.6639
965.732	0.72
976.367	0.761
987.002	0.76
997.637	0.716
1008.27	0.6481
1018.91	0.55
1029.54	0.468
1040.18	0.39
1050.81	0.344
1061.45	0.324
1072.08	0.314
1082.72	0.32
1093.35	0.333
1103.99	0.334
1114.62	0.364
1125.26	0.398
1135.89	0.448
1146.53	0.497
1157.16	0.56
1167.8	0.628
1178.44	0.72
1189.07	0.809
1199.71	0.873
1210.34	0.912
1220.98	0.938
1231.61	0.958
1242.25	0.969
1252.88	0.973
1263.52	0.972
1274.15	0.969
1284.79	0.961
1295.42	0.952
1306.06	0.944
1316.69	0.933
1327.33	0.921
1337.96	0.908
1348.6	0.889
1359.23	0.858
1369.87	0.837
1380.5	0.845
1391.14	0.854
1401.77	0.852
1412.41	0.848
1423.04	0.85
1433.68	0.848
1444.31	0.85
1454.95	0.856
1465.58	0.864
1476.22	0.878
1486.85	0.885
1497.49	0.889
1508.13	0.894
1518.76	0.901
1529.4	0.906
1540.03	0.91
1550.67	0.92
1561.3	0.926
1571.94	0.929
1582.57	0.932
1593.21	0.914
1603.84	0.878
1614.48	0.878
1625.11	0.885
1635.75	0.896
1646.38	0.906
1657.02	0.914
1667.65	0.924
1678.29	0.937
1688.92	0.952
1699.56	0.957
1710.19	0.966
1720.83	0.968
1731.46	0.97
1742.1	0.972
1752.73	0.974
1763.37	0.976
1774	0.977
1784.64	0.98
1795.27	0.98
1805.91	0.98
1816.55	0.98
1827.18	0.98
1837.82	0.981
1848.45	0.98
1859.09	0.981
1869.72	0.981
1880.36	0.98
1890.99	0.978
1901.63	0.978
1912.26	0.98
1922.9	0.977
1933.53	0.977
1944.17	0.977
1954.8	0.976
1965.44	0.974
1976.07	0.974
1986.71	0.974
1997.34	0.972
2007.98	0.969
2018.61	0.961
2029.25	0.96
2039.88	0.961
2050.52	0.958
2061.15	0.96
2071.79	0.96
2082.42	0.958
2093.06	0.957
2103.69	0.9581
2114.33	0.958
2124.96	0.957
2135.6	0.956
2146.24	0.954
2156.87	0.9541
2167.51	0.9541
2178.14	0.9541
2188.78	0.956
2199.41	0.9541
2210.05	0.954
2220.68	0.954
2231.32	0.954
2241.95	0.954
2252.59	0.953
2263.22	0.953
2273.86	0.953
2284.49	0.953
2295.13	0.952
2305.76	0.9518
2316.4	0.9489
2327.03	0.946
2337.67	0.946
2348.3	0.9459
2358.94	0.945
2369.57	0.9441
2380.21	0.944
2390.84	0.945
2401.48	0.9452
2412.11	0.944
2422.75	0.942
2433.38	0.944
2444.02	0.941
2454.66	0.941
2465.29	0.94
2475.93	0.94
2486.56	0.938
2497.2	0.938
2507.83	0.938
2518.47	0.936
2529.1	0.934
2539.74	0.934
2550.37	0.9316
2561.01	0.93
2571.64	0.9298
2582.28	0.928
2592.91	0.928
2603.55	0.926
2614.18	0.926
2624.82	0.926
2635.45	0.9235
2646.09	0.921
2656.72	0.92
2667.36	0.9177
2677.99	0.917
2688.63	0.9155
2699.26	0.912
2709.9	0.91
2720.53	0.909
2731.17	0.908
2741.8	0.908
2752.44	0.909
2763.07	0.9087
2773.71	0.908
2784.35	0.9034
2794.98	0.9007
2805.62	0.898
2816.25	0.8977
2826.89	0.894
2837.52	0.892
2848.16	0.8837
2858.79	0.8777
2869.43	0.876
2880.06	0.876
2890.7	0.8737
2901.33	0.8687
2911.97	0.8599
2922.6	0.8476
2933.24	0.844
2943.87	0.845
2954.51	0.848
2965.14	0.85
2975.78	0.85
2986.41	0.852
2997.05	0.852
3007.68	0.849
3018.32	0.8456
3028.95	0.84
3039.59	0.8392
3050.22	0.834
3060.86	0.83
3071.49	0.8272
3082.13	0.8216
3092.76	0.818
3103.4	0.813
3114.04	0.8086
3124.67	0.8016
3135.31	0.7966
3145.94	0.7886
3156.58	0.784
3167.21	0.7757
3177.85	0.7711
3188.48	0.7645
3199.12	0.7586
3209.75	0.7511
3220.39	0.7471
3231.02	0.7415
3241.66	0.739
3252.29	0.735
3262.93	0.7295
3273.56	0.722
3284.2	0.714
3294.83	0.7085
3305.47	0.699
3316.1	0.691
3326.74	0.6805
3337.37	0.67
3348.01	0.658
3358.64	0.6474
3369.28	0.6335
3379.91	0.6229
3390.55	0.6104
3401.18	0.5954
3411.82	0.5864
3422.46	0.5805
3433.09	0.574
3443.73	0.572
3454.36	0.57
3465	0.5726
3475.63	0.577
3486.27	0.58
3496.9	0.5883
3507.54	0.5992
3518.17	0.6064
3528.81	0.6166
3539.44	0.6286
3550.08	0.6452
3560.71	0.6582
3571.35	0.6798
3581.98	0.6964
3592.62	0.7149
3603.25	0.7391
3613.89	0.7557
3624.52	0.7719
3635.16	0.7865
3645.79	0.8006
3656.43	0.808
3667.06	0.8113
3677.7	0.8167
3688.33	0.8207
3698.97	0.8247
3709.6	0.828
3720.24	0.8283
3730.87	0.8287
3741.51	0.829
3752.15	0.825
3762.78	0.824
3773.42	0.822
3784.05	0.821
3794.69	0.821
3805.32	0.82
3815.96	0.818
3826.59	0.8186
3837.23	0.818
3847.86	0.814
3858.5	0.812
3869.13	0.81
3879.77	0.809
3890.4	0.808
3901.04	0.808
3911.67	0.806
3922.31	0.805
3932.94	0.8025
3943.58	0.802
3954.21	0.8002
3964.85	0.798
3975.48	0.798
