Infrared Spectrum: 1-(p-NITROBENZYL)-5-AMYL-5-ETHYLBARBITURIC ACID
Formula: C18 H23 N3 O5
State: SOLUTION (7% IN CHCl3)
Class: COBLENTZ
Instrument: PERKIN-ELMER
Sampling: TRANSMISSION
Path length: 0.010 CM
Resolution: 4
Origin: ABBOTT LABORATORIES - WASHBURN
MICROMETERS	TRANSMITTANCE
2.048	0.963
2.08789	0.959
2.12779	0.958
2.16768	0.9561
2.20758	0.958
2.24747	0.959
2.28736	0.9589
2.32726	0.954
2.36715	0.954
2.40705	0.956
2.44694	0.953
2.48683	0.953
2.52673	0.954
2.56662	0.9579
2.60652	0.958
2.64641	0.961
2.6863	0.958
2.7262	0.9441
2.76609	0.942
2.80599	0.9338
2.84588	0.9111
2.88578	0.901
2.92567	0.8888
2.96556	0.752
3.00546	0.7805
3.04535	0.8168
3.08525	0.7897
3.12514	0.7462
3.16503	0.7507
3.20493	0.766
3.24482	0.7391
3.28472	0.7261
3.32461	0.719
3.3645	0.6293
3.4044	0.5579
3.44429	0.6405
3.48419	0.6712
3.52408	0.7474
3.56397	0.8295
3.60387	0.8751
3.64376	0.8939
3.68366	0.9108
3.72355	0.917
3.76344	0.924
3.80334	0.931
3.84323	0.931
3.88313	0.929
3.92302	0.932
3.96291	0.9311
4.00281	0.929
4.0427	0.931
4.0826	0.9261
4.12249	0.919
4.16238	0.926
4.20228	0.936
4.24217	0.9391
4.28207	0.942
4.32196	0.944
4.36186	0.9361
4.40175	0.931
4.44164	0.934
4.48154	0.9361
4.52143	0.941
4.56133	0.937
4.60122	0.9388
4.64111	0.939
4.68101	0.941
4.7209	0.9372
4.7608	0.941
4.80069	0.942
4.84058	0.941
4.88048	0.9409
4.92037	0.937
4.96027	0.937
5.00016	0.939
5.04005	0.9372
5.07995	0.9383
5.11984	0.9314
5.15974	0.919
5.19963	0.914
5.23952	0.9164
5.27942	0.922
5.31931	0.9219
5.35921	0.924
5.3991	0.9169
5.43899	0.9163
5.47889	0.9068
5.51878	0.8944
5.55868	0.8761
5.59857	0.8623
5.63846	0.8334
5.67836	0.7344
5.71825	0.4048
5.75815	0.402
5.79804	0.1606
5.83794	0.0739
5.87783	0.0369
5.91772	0.0503
5.95762	0.0271
5.99751	0.2872
6.03741	0.5419
6.0773	0.6592
6.11719	0.7469
6.15709	0.7752
6.19698	0.7345
6.23688	0.503
6.27677	0.6672
6.31666	0.7749
6.35656	0.8027
6.39645	0.817
6.43635	0.817
6.47624	0.7862
6.51613	0.6502
6.55603	0.2892
6.59592	0.204
6.63582	0.4172
6.67571	0.6399
6.7156	0.6806
6.7555	0.7117
6.79539	0.7362
6.83529	0.5736
6.87518	0.4997
6.91507	0.4084
6.95497	0.2353
6.99486	0.1444
7.03476	0.1861
7.07465	0.2363
7.11454	0.234
7.15444	0.2539
7.19433	0.3054
7.23423	0.3105
7.27412	0.308
7.31402	0.323
7.35391	0.318
7.3938	0.275
7.4337	0.1315
7.47359	0.0354
7.51349	0.0454
7.55338	0.2565
7.59327	0.336
7.63317	0.3875
7.67306	0.3652
7.71296	0.3285
7.75285	0.4326
7.79274	0.4935
7.83264	0.4887
7.87253	0.4707
7.91243	0.5334
7.95232	0.6374
7.99221	0.7068
8.03211	0.7396
8.072	0.7492
8.1119	0.7247
8.15179	0.7084
8.19168	0.6971
8.23158	0.696
8.27147	0.696
8.31137	0.696
8.35126	0.6928
8.39115	0.6211
8.43105	0.5473
8.47094	0.6006
8.51084	0.6934
8.55073	0.7523
8.59062	0.775
8.63052	0.7777
8.67041	0.7736
8.71031	0.7532
8.7502	0.7348
8.7901	0.7475
8.82999	0.7558
8.86988	0.748
8.90978	0.739
8.94967	0.7437
8.98957	0.7343
9.02946	0.6235
9.06935	0.5585
9.10925	0.5976
9.14914	0.6589
9.18904	0.7222
9.22893	0.7616
9.26882	0.7928
9.30872	0.8163
9.34861	0.832
9.38851	0.8554
9.4284	0.877
9.46829	0.8919
9.50819	0.9077
9.54808	0.912
9.58798	0.914
9.62787	0.911
9.66776	0.9016
9.70766	0.889
9.74755	0.873
9.78745	0.8562
9.82734	0.8288
9.86723	0.7574
9.90713	0.7976
9.94702	0.84
9.98692	0.8588
10.0268	0.8767
10.0667	0.89
10.1066	0.9003
10.1465	0.908
10.1864	0.914
10.2263	0.912
10.2662	0.911
10.3061	0.9008
10.346	0.894
10.3859	0.8903
10.4258	0.882
10.4656	0.88
10.5055	0.877
10.5454	0.872
10.5853	0.872
10.6252	0.88
10.6651	0.8891
10.705	0.892
10.7449	0.8892
10.7848	0.8678
10.8247	0.8288
10.8646	0.7944
10.9045	0.778
10.9444	0.7766
10.9843	0.7939
11.0242	0.8301
11.0641	0.8585
11.104	0.875
11.1438	0.8863
11.1837	0.889
11.2236	0.883
11.2635	0.8783
11.3034	0.8614
11.3433	0.8345
11.3832	0.8065
11.4231	0.783
11.463	0.791
11.5029	0.793
11.5428	0.796
11.5827	0.7829
11.6226	0.7488
11.6625	0.7238
11.7024	0.7008
11.7423	0.6871
11.7821	0.6987
11.822	0.708
11.8619	0.714
11.9018	0.7366
11.9417	0.7629
11.9816	0.7788
12.0215	0.79
12.0614	0.795
12.1013	0.802
12.1412	0.8021
12.1811	0.7936
12.221	0.7754
12.2609	0.76
12.3008	0.747
12.3407	0.7387
12.3806	0.7099
12.4205	0.6758
12.4603	0.669
12.5002	0.679
12.5401	0.6936
12.58	0.7068
12.6199	0.7177
12.6598	0.7248
12.6997	0.7316
12.7396	0.739
12.7795	0.748
12.8194	0.75
12.8593	0.755
12.8992	0.76
12.9391	0.7643
12.979	0.767
13.0189	0.7717
13.0588	0.7786
13.0987	0.785
13.1385	0.791
13.1784	0.79
13.2183	0.7947
13.2582	0.802
13.2981	0.802
13.338	0.8
13.3779	0.805
13.4178	0.805
13.4577	0.803
13.4976	0.803
13.5375	0.8098
13.5774	0.8144
13.6173	0.813
13.6572	0.817
13.6971	0.818
13.737	0.822
13.7769	0.82
13.8167	0.825
13.8566	0.828
13.8965	0.8282
13.9364	0.828
13.9763	0.8177
14.0162	0.802
14.0561	0.784
14.096	0.775
14.1359	0.768
14.1758	0.773
14.2157	0.773
14.2556	0.7631
14.2955	0.7443
14.3354	0.7266
14.3753	0.7123
14.4152	0.703
14.4551	0.703
14.4949	0.7106
14.5348	0.737
14.5747	0.7603
14.6146	0.7808
14.6545	0.7996
14.6944	0.818
14.7343	0.828
14.7742	0.8386
14.8141	0.847
14.854	0.8505
14.8939	0.854
14.9338	0.857
14.9737	0.8567
15.0136	0.8635
15.0535	0.8682
15.0934	0.867
15.1332	0.8585
15.1731	0.8453
15.213	0.8278
15.2529	0.8168
15.2928	0.8001
15.3327	0.7852
15.3726	0.7669
15.4125	0.7566
15.4524	0.7489
