Infrared Spectrum: SODIUM TRIPOLYPHOSPHATE, FORM II
Formula: O10 P3 Na5
State: SOLID (MULL IN COCONITRILE OIL)
Class: COBLENTZ III
Instrument: PERKIN-ELMER 421 (GRATING)
Instrument parameters: GRATING CHANGE AT 1999 CM^-^1
Sampling: TRANSMISSION
Resolution: 4
Origin: PROCTER AND GAMBLE CO.
1/CM	TRANSMITTANCE
554.176	0.642
563.205	0.5541
572.235	0.459
581.264	0.516
590.293	0.586
599.323	0.542
608.352	0.45
617.381	0.5719
626.411	0.7619
635.44	0.816
644.47	0.82
653.499	0.7381
662.528	0.4452
671.558	0.484
680.587	0.635
689.616	0.757
698.646	0.806
707.675	0.816
716.704	0.815
725.734	0.791
734.763	0.605
743.792	0.7278
752.822	0.833
761.851	0.855
770.881	0.864
779.91	0.866
788.939	0.866
797.969	0.864
806.998	0.861
816.027	0.855
825.057	0.847
834.086	0.842
843.115	0.837
852.145	0.816
861.174	0.784
870.203	0.698
879.233	0.5471
888.262	0.318
897.291	0.255
906.321	0.267
915.35	0.313
924.38	0.4049
933.409	0.4979
942.438	0.591
951.468	0.598
960.497	0.676
969.526	0.759
978.556	0.796
987.585	0.813
996.614	0.822
1005.64	0.818
1014.67	0.647
1023.7	0.822
1032.73	0.83
1041.76	0.832
1050.79	0.825
1059.82	0.808
1068.85	0.791
1077.88	0.752
1086.91	0.577
1095.94	0.338
1104.97	0.6367
1114	0.627
1123.03	0.538
1132.05	0.377
1141.08	0.167
1150.11	0.2
1159.14	0.145
1168.17	0.154
1177.2	0.191
1186.23	0.211
1195.26	0.3829
1204.29	0.3331
1213.32	0.232
1222.35	0.33
1231.38	0.469
1240.41	0.6229
1249.44	0.72
1258.47	0.776
1267.49	0.806
1276.52	0.823
1285.55	0.833
1294.58	0.838
1303.61	0.844
1312.64	0.85
1321.67	0.855
1330.7	0.857
1339.73	0.857
1348.76	0.857
1357.79	0.862
1366.82	0.864
1375.85	0.866
1384.88	0.866
1393.91	0.861
1402.94	0.857
1411.96	0.864
1420.99	0.866
1430.02	0.867
1439.05	0.866
1448.08	0.862
1457.11	0.857
1466.14	0.855
1475.17	0.859
1484.2	0.861
1493.23	0.857
1502.26	0.864
1511.29	0.862
1520.32	0.859
1529.35	0.857
1538.38	0.857
1547.4	0.862
1556.43	0.864
1565.46	0.861
1574.49	0.859
1583.52	0.857
1592.55	0.861
1601.58	0.862
1610.61	0.864
1619.64	0.862
1628.67	0.864
1637.7	0.864
1646.73	0.862
1655.76	0.861
1664.79	0.866
1673.82	0.869
1682.85	0.869
1691.87	0.869
1700.9	0.869
1709.93	0.869
1718.96	0.869
1727.99	0.877
1737.02	0.881
1746.05	0.879
1755.08	0.881
1764.11	0.883
1773.14	0.884
1782.17	0.884
1791.2	0.884
1800.23	0.884
1809.26	0.886
1818.29	0.884
1827.31	0.888
1836.34	0.889
1845.37	0.889
1854.4	0.891
1863.43	0.891
1872.46	0.891
1881.49	0.891
1890.52	0.891
1899.55	0.891
1908.58	0.893
1917.61	0.893
1926.64	0.893
1935.67	0.891
1944.7	0.893
1953.73	0.894
1962.76	0.894
1971.78	0.894
1980.81	0.893
1989.84	0.893
1998.87	0.891
2007.9	0.889
2016.93	0.889
2025.96	0.889
2034.99	0.889
2044.02	0.889
2053.05	0.889
2062.08	0.888
2071.11	0.888
2080.14	0.888
2089.17	0.888
2098.2	0.8863
2107.22	0.886
2116.25	0.884
2125.28	0.884
2134.31	0.884
2143.34	0.886
2152.37	0.886
2161.4	0.888
2170.43	0.888
2179.46	0.889
2188.49	0.889
2197.52	0.891
2206.55	0.894
2215.58	0.894
2224.61	0.8955
2233.64	0.896
2242.67	0.896
2251.69	0.896
2260.72	0.8949
2269.75	0.893
2278.78	0.893
2287.81	0.893
2296.84	0.894
2305.87	0.894
2314.9	0.894
2323.93	0.893
2332.96	0.893
2341.99	0.894
2351.02	0.896
2360.05	0.896
2369.08	0.896
2378.11	0.896
2387.13	0.896
2396.16	0.896
2405.19	0.896
2414.22	0.896
2423.25	0.898
2432.28	0.898
2441.31	0.9
2450.34	0.9
2459.37	0.9
2468.4	0.9
2477.43	0.9005
2486.46	0.901
2495.49	0.903
2504.52	0.903
2513.55	0.9016
2522.58	0.903
2531.6	0.901
2540.63	0.903
2549.66	0.9028
2558.69	0.9016
2567.72	0.905
2576.75	0.905
2585.78	0.905
2594.81	0.903
2603.84	0.9037
2612.87	0.905
2621.9	0.905
2630.93	0.903
2639.96	0.903
2648.99	0.903
2658.02	0.903
2667.04	0.905
2676.07	0.905
2685.1	0.903
2694.13	0.903
2703.16	0.903
2712.19	0.903
2721.22	0.903
2730.25	0.903
2739.28	0.903
2748.31	0.901
2757.34	0.9
2766.37	0.898
2775.4	0.896
2784.43	0.8951
2793.46	0.894
2802.49	0.893
2811.51	0.893
2820.54	0.8924
2829.57	0.8875
2838.6	0.8735
2847.63	0.7802
2856.66	0.7884
2865.69	0.8398
2874.72	0.8606
2883.75	0.864
2892.78	0.8573
2901.81	0.8364
2910.84	0.7872
2919.87	0.701
2928.9	0.7418
2937.93	0.8142
2946.95	0.8631
2955.98	0.8796
2965.01	0.8922
2974.04	0.894
2983.07	0.894
2992.1	0.894
3001.13	0.894
3010.16	0.894
3019.19	0.894
3028.22	0.894
3037.25	0.893
3046.28	0.893
3055.31	0.891
3064.34	0.891
3073.37	0.891
3082.4	0.889
3091.42	0.8886
3100.45	0.8847
3109.48	0.883
3118.51	0.881
3127.54	0.8784
3136.57	0.877
3145.6	0.8784
3154.63	0.879
3163.66	0.877
3172.69	0.8754
3181.72	0.8715
3190.75	0.871
3199.78	0.871
3208.81	0.871
3217.84	0.871
3226.86	0.871
3235.89	0.871
3244.92	0.871
3253.95	0.871
3262.98	0.8703
3272.01	0.869
3281.04	0.8685
3290.07	0.869
3299.1	0.871
3308.13	0.871
3317.16	0.871
3326.19	0.871
3335.22	0.871
3344.25	0.871
3353.28	0.871
3362.31	0.871
3371.33	0.871
3380.36	0.871
3389.39	0.871
3398.42	0.871
3407.45	0.874
3416.48	0.8768
3425.51	0.877
3434.54	0.879
3443.57	0.8799
3452.6	0.8823
3461.63	0.883
3470.66	0.883
3479.69	0.883
3488.72	0.884
3497.75	0.8854
3506.77	0.886
3515.8	0.888
3524.83	0.888
3533.86	0.888
3542.89	0.888
3551.92	0.888
3560.95	0.888
3569.98	0.889
3579.01	0.888
3588.04	0.8955
3597.07	0.8999
3606.1	0.901
3615.13	0.903
3624.16	0.903
3633.19	0.903
3642.22	0.905
3651.24	0.906
3660.27	0.9104
3669.3	0.911
3678.33	0.911
3687.36	0.911
3696.39	0.911
3705.42	0.911
3714.45	0.911
3723.48	0.911
3732.51	0.911
3741.54	0.911
3750.57	0.911
3759.6	0.911
3768.63	0.911
3777.66	0.913
3786.68	0.913
3795.71	0.913
3804.74	0.913
3813.77	0.913
3822.8	0.913
3831.83	0.913
3840.86	0.913
3849.89	0.913
3858.92	0.913
3867.95	0.913
3876.98	0.913
3886.01	0.913
3895.04	0.913
3904.07	0.913
3913.1	0.913
3922.13	0.913
3931.15	0.913
3940.18	0.915
3949.21	0.915
3958.24	0.915
3967.27	0.915
3976.3	0.915
3985.33	0.915
3994.36	0.915
