Infrared Spectrum: DEXAMETHASONE, DISODIUM PHOSPHATE
Formula: C22 H28 F Na2 O8 P
State: SOLID (1 mg / 250 mg KBr DISC)
Class: COBLENTZ III
Instrument: PERKIN-ELMER 21 (GRATING)
Instrument parameters: FILTER AT ABOUT 10 MICRONS
Sampling: TRANSMISSION
Resolution: 2
1/CM	TRANSMITTANCE
4000	0.993
3991	0.9934
3982	0.9933
3973	0.9933
3964	0.9933
3955	0.9933
3946	0.9933
3937	0.9932
3928	0.9931
3919	0.9931
3910	0.9928
3901	0.9928
3892	0.9925
3883	0.9918
3874	0.9909
3865	0.9884
3856	0.9856
3847	0.983
3838	0.9804
3829	0.9778
3820	0.9765
3811	0.9755
3802	0.9745
3793	0.9734
3784	0.972
3775	0.97
3766	0.968
3757	0.9658
3748	0.9632
3739	0.9601
3730	0.9568
3721	0.9537
3712	0.9505
3703	0.9463
3694	0.9417
3685	0.9366
3676	0.9287
3667	0.9195
3658	0.8981
3649	0.876
3640	0.857
3631	0.8343
3622	0.7974
3613	0.7467
3604	0.7007
3595	0.653
3586	0.6222
3577	0.591
3568	0.56
3559	0.5258
3550	0.4887
3541	0.4566
3532	0.4449
3523	0.4249
3514	0.397
3505	0.3805
3496	0.3652
3487	0.3497
3478	0.3328
3469	0.3204
3460	0.3084
3451	0.2934
3442	0.2729
3433	0.2574
3424	0.249
3415	0.2453
3406	0.2434
3397	0.2387
3388	0.2415
3379	0.2411
3370	0.2413
3361	0.2457
3352	0.2554
3343	0.2651
3334	0.2746
3325	0.2834
3316	0.2903
3307	0.2968
3298	0.3037
3289	0.311
3280	0.3183
3271	0.325
3262	0.3318
3253	0.3388
3244	0.3454
3235	0.3518
3226	0.3584
3217	0.3649
3208	0.3712
3199	0.3772
3190	0.3832
3181	0.3893
3172	0.3956
3163	0.4018
3154	0.4082
3145	0.4149
3136	0.4216
3127	0.4283
3118	0.4351
3109	0.443
3100	0.451
3091	0.4591
3082	0.4678
3073	0.4768
3064	0.4858
3055	0.4945
3046	0.501
3037	0.5052
3028	0.5082
3019	0.5101
3010	0.5106
3001	0.5098
2992	0.502
2983	0.4948
2974	0.4862
2965	0.4776
2956	0.4702
2947	0.4674
2938	0.4693
2929	0.4826
2920	0.4991
2911	0.5183
2902	0.5352
2893	0.5474
2884	0.5512
2875	0.5542
2866	0.5707
2857	0.5989
2848	0.626
2839	0.6489
2830	0.6642
2821	0.68
2812	0.6984
2803	0.7189
2794	0.7328
2785	0.744
2776	0.7561
2767	0.7665
2758	0.7757
2749	0.7826
2740	0.7896
2731	0.7967
2722	0.804
2713	0.8111
2704	0.8178
2695	0.8245
2686	0.8303
2677	0.8361
2668	0.8418
2659	0.8477
2650	0.8535
2641	0.8595
2632	0.8658
2623	0.8717
2614	0.8777
2605	0.8835
2596	0.8889
2587	0.8943
2578	0.8997
2569	0.9047
2560	0.9095
2551	0.9142
2542	0.9177
2533	0.9213
2524	0.925
2515	0.9277
2506	0.9302
2497	0.932
2488	0.9336
2479	0.9351
2470	0.9367
2461	0.9383
2452	0.9387
2443	0.9392
2434	0.9396
2425	0.9399
2416	0.94
2407	0.9402
2398	0.9403
2389	0.9404
2380	0.94
2371	0.9395
2362	0.9389
2353	0.9384
2344	0.9378
2335	0.9371
2326	0.9364
2317	0.9352
2308	0.9337
2299	0.9321
2290	0.9307
2281	0.9291
2272	0.9284
2263	0.9282
2254	0.9281
2245	0.928
2236	0.9278
2227	0.9278
2218	0.9277
2209	0.9277
2200	0.9275
2191	0.9278
2182	0.9284
2173	0.929
2164	0.9296
2155	0.9302
2146	0.9306
2137	0.9312
2128	0.9318
2119	0.9323
2110	0.9332
2101	0.9351
2092	0.9382
2083	0.9402
2074	0.9397
2065	0.9393
2056	0.9395
2047	0.9408
2038	0.9432
2029	0.9453
2020	0.9464
2011	0.9474
2002	0.948
1993	0.9486
1984	0.9493
1975	0.9498
1966	0.9505
1957	0.9509
1948	0.9513
1939	0.952
1930	0.9525
1921	0.9531
1912	0.9532
1903	0.953
1894	0.9518
1885	0.9504
1876	0.949
1867	0.9463
1858	0.9435
1849	0.9407
1840	0.9378
1831	0.935
1822	0.9304
1813	0.9249
1804	0.9191
1795	0.9128
1786	0.9056
1777	0.8971
1768	0.8881
1759	0.8761
1750	0.8543
1741	0.8125
1732	0.698
1723	0.5765
1714	0.5026
1705	0.5652
1696	0.6362
1687	0.6103
1678	0.3394
1669	0.1586
1660	0.2952
1651	0.4483
1642	0.5374
1633	0.4706
1624	0.4082
1615	0.4372
1606	0.4419
1597	0.5839
1588	0.6798
1579	0.7464
1570	0.7882
1561	0.8211
1552	0.8388
1543	0.8478
1534	0.8549
1525	0.8598
1516	0.8627
1507	0.8648
1498	0.8625
1489	0.8534
1480	0.8236
1471	0.7822
1462	0.7358
1453	0.6596
1444	0.6908
1435	0.695
1426	0.7182
1417	0.7165
1408	0.7036
1399	0.6765
1390	0.6744
1381	0.7053
1372	0.6938
1363	0.7085
1354	0.7178
1345	0.734
1336	0.761
1327	0.7501
1318	0.7337
1309	0.7143
1300	0.6615
1291	0.6718
1282	0.7208
1273	0.7539
1264	0.7739
1255	0.7761
1246	0.699
1237	0.6811
1228	0.7658
1219	0.7769
1210	0.7457
1201	0.7128
1192	0.6769
1183	0.6246
1174	0.5514
1165	0.4481
1156	0.3542
1147	0.2387
1138	0.1884
1129	0.1764
1120	0.1736
1111	0.175
1102	0.1589
1093	0.1791
1084	0.2439
1075	0.3123
1066	0.363
1057	0.4224
1048	0.5667
1039	0.5492
1030	0.6148
1021	0.6742
1012	0.6965
1003	0.6458
994	0.3946
985	0.2784
976	0.3418
967	0.576
958	0.6354
949	0.6306
940	0.706
931	0.6737
922	0.618
913	0.5851
904	0.6219
895	0.5201
886	0.4312
877	0.6079
868	0.6078
859	0.6041
850	0.5598
841	0.5849
832	0.5872
823	0.5876
814	0.5848
805	0.6041
796	0.6259
787	0.6227
778	0.636
769	0.6268
760	0.6249
751	0.6424
742	0.6215
733	0.5672
724	0.5482
715	0.558
706	0.5419
697	0.5597
688	0.568
679	0.5927
