Infrared Spectrum: PHOSPHORAMIDIC ACID, (2,4,5-TRICHLOROPHENYL) ETHYL ESTER
Formula: C8 H9 Cl N O3 P
State: SOLID (OIL MULL OF CS2 INSOLUBLES)
Class: COBLENTZ III
Instrument: Not specified, most likely a prism, grating, or hybrid spectrometer.
Sampling: TRANSMISSION
Resolution: 4
Origin: DOW CHEMICAL COMPANY
1/CM	TRANSMITTANCE
449.924	0.879
459.029	0.879
468.133	0.852
477.238	0.708
486.343	0.88
495.448	0.801
504.552	0.3757
513.657	0.9519
522.762	0.973
531.866	0.953
540.971	0.93
550.076	0.87
559.18	0.886
568.285	0.8091
577.39	0.705
586.495	0.124
595.599	0.662
604.704	0.678
613.809	0.708
622.913	0.722
632.018	0.834
641.123	0.891
650.227	0.941
659.332	0.964
668.437	0.973
677.542	0.886
686.646	0.4706
695.751	0.939
704.856	0.4814
713.96	0.6459
723.065	0.923
732.17	0.973
741.274	1.003
750.379	1.01
759.484	0.994
768.589	0.907
777.693	0.472
786.798	0.9779
795.903	1.012
805.007	1.003
814.112	0.991
823.217	1.003
832.322	0.98
841.426	0.8842
850.531	0.8567
859.636	0.545
868.74	0.1359
877.845	0.177
886.95	0.9119
896.054	0.968
905.159	0.955
914.264	0.934
923.369	0.905
932.473	0.834
941.578	0.735
950.683	0.4719
959.787	0.5054
968.892	0.2662
977.997	0.0829
987.101	0.4629
996.206	0.358
1005.31	0.1911
1014.42	0.104
1023.52	0.133
1032.62	0.067
1041.73	0.085
1050.83	0.3118
1059.94	0.6409
1069.04	0.722
1078.15	0.671
1087.25	0.1521
1096.36	0.788
1105.46	0.7239
1114.57	0.834
1123.67	0.637
1132.78	0.4629
1141.88	0.6684
1150.99	0.84
1160.09	0.779
1169.2	0.559
1178.3	0.825
1187.4	0.829
1196.51	0.797
1205.61	0.753
1214.72	0.664
1223.82	0.428
1232.93	0.0601
1242.03	0.062
1251.14	0.055
1260.24	0.5308
1269.35	0.349
1278.45	0.7989
1287.56	0.825
1296.66	0.699
1305.77	0.866
1314.87	0.952
1323.98	0.953
1333.08	0.918
1342.18	0.8011
1351.29	0.1563
1360.39	0.742
1369.5	0.671
1378.6	0.68
1387.71	0.873
1396.81	0.802
1405.92	0.912
1415.02	0.905
1424.13	0.9
1433.23	0.827
1442.34	0.611
1451.44	0.209
1460.55	0.1238
1469.65	0.31
1478.76	0.047
1487.86	0.706
1496.96	0.841
1506.07	0.96
1515.17	0.953
1524.28	0.969
1533.38	0.985
1542.49	0.976
1551.59	0.9281
1560.7	0.7192
1569.8	0.4061
1578.91	0.557
1588.01	0.598
1597.12	1.017
1606.22	1.042
1615.33	1.049
1624.43	1.055
1633.54	1.088
1642.64	1.088
1651.74	1.063
1660.85	1.046
1669.95	1.033
1679.06	1.017
1688.16	1.026
1697.27	1.04
1706.37	1.017
1715.48	1.026
1724.58	1.028
1733.69	1.017
1742.79	1.047
1751.9	1.051
1761	1.051
1770.11	1.047
1779.21	1.042
1788.32	1.04
1797.42	1.023
1806.52	1.023
1815.63	1.03
1824.73	1.026
1833.84	1.035
1842.94	1.042
1852.05	1.042
1861.15	1.051
1870.26	1.049
1879.36	1.047
1888.47	1.044
1897.57	1.04
1906.68	1.04
1915.78	1.042
1924.89	1.035
1933.99	1.028
1943.1	1.024
1952.2	1.023
1961.3	1.023
1970.41	1.019
1979.51	1.028
1988.62	1.024
1997.72	1.021
2006.83	1.014
2015.93	1.012
2025.04	1.012
2034.14	1.0189
2043.25	1.0171
2052.35	1.019
2061.46	1.0151
2070.56	1.014
2079.67	1.015
2088.77	1.017
2097.88	1.017
2106.98	1.015
2116.08	1.015
2125.19	1.0141
2134.29	1.015
2143.4	1.012
2152.5	1.01
2161.61	1.01
2170.71	1.01
2179.82	1.0082
2188.92	1.008
2198.03	1.007
2207.13	0.9966
2216.24	0.998
2225.34	1.0026
2234.45	1.003
2243.55	0.996
2252.66	0.998
2261.76	0.9966
2270.86	1
2279.97	0.9963
2289.07	0.9964
2298.18	0.996
2307.28	0.996
2316.39	0.9964
2325.49	0.9944
2334.6	0.9924
2343.7	0.991
2352.81	0.987
2361.91	0.9824
2371.02	0.982
2380.12	0.982
2389.23	0.98
2398.33	0.98
2407.44	0.98
2416.54	0.978
2425.64	0.975
2434.75	0.973
2443.85	0.973
2452.96	0.971
2462.06	0.968
2471.17	0.966
2480.27	0.9606
2489.38	0.9593
2498.48	0.957
2507.59	0.955
2516.69	0.95
2525.8	0.9433
2534.9	0.9229
2544.01	0.909
2553.11	0.909
2562.22	0.9173
2571.32	0.9277
2580.42	0.9224
2589.53	0.9097
2598.63	0.904
2607.74	0.9063
2616.84	0.909
2625.95	0.9103
2635.05	0.909
2644.16	0.9044
2653.26	0.9046
2662.37	0.9062
2671.47	0.9062
2680.58	0.907
2689.68	0.904
2698.79	0.902
2707.89	0.902
2717	0.896
2726.1	0.8991
2735.2	0.905
2744.31	0.907
2753.41	0.909
2762.52	0.9033
2771.62	0.8919
2780.73	0.8899
2789.83	0.8699
2798.94	0.8504
2808.04	0.823
2817.15	0.7954
2826.25	0.7474
2835.36	0.6629
2844.46	0.3375
2853.57	0.091
2862.67	0.1636
2871.77	0.209
2880.88	0.2897
2889.98	0.2879
2899.09	0.1741
2908.19	0.0688
2917.3	0.0431
2926.4	0.0291
2935.51	0.0362
2944.61	0.079
2953.72	0.0769
2962.82	0.1
2971.93	0.1749
2981.03	0.4589
2990.14	0.4865
2999.24	0.5313
3008.35	0.724
3017.45	0.7464
3026.55	0.7522
3035.66	0.763
3044.76	0.7611
3053.87	0.754
3062.97	0.7515
3072.08	0.7417
3081.18	0.7317
3090.29	0.7055
3099.39	0.6424
3108.5	0.5894
3117.6	0.6111
3126.71	0.5091
3135.81	0.4038
3144.92	0.2027
3154.02	0.2343
3163.13	0.4623
3172.23	0.6469
3181.33	0.699
3190.44	0.6948
3199.54	0.6796
3208.65	0.6509
3217.75	0.603
3226.86	0.5245
3235.96	0.433
3245.07	0.3072
3254.17	0.172
3263.28	0.1803
3272.38	0.284
3281.49	0.4238
3290.59	0.468
3299.7	0.4598
3308.8	0.4228
3317.91	0.3783
3327.01	0.2951
3336.11	0.213
3345.22	0.177
3354.32	0.1816
3363.43	0.2175
3372.53	0.3089
3381.64	0.4369
3390.74	0.5219
3399.85	0.5997
3408.95	0.6803
3418.06	0.723
3427.16	0.7566
3436.27	0.7762
3445.37	0.7922
3454.48	0.8029
3463.58	0.8154
3472.69	0.82
3481.79	0.822
3490.89	0.8241
3500	0.8252
3509.1	0.8272
3518.21	0.827
3527.31	0.829
3536.42	0.827
3545.52	0.825
3554.63	0.8252
3563.73	0.829
3572.84	0.829
3581.94	0.825
3591.05	0.829
3600.15	0.827
3609.26	0.8241
3618.36	0.8252
3627.47	0.8251
3636.57	0.825
3645.67	0.829
3654.78	0.825
3663.88	0.824
3672.99	0.8269
3682.09	0.825
3691.2	0.822
3700.3	0.82
3709.41	0.813
3718.51	0.817
3727.62	0.82
3736.72	0.817
3745.83	0.813
3754.93	0.811
3764.04	0.8091
3773.14	0.809
3782.25	0.809
3791.35	0.809
