Infrared Spectrum: SODIUM GALACTONATE
Formula: C6 H11 O7 Na
State: SOLID (MINERAL OIL MULL)
Class: COBLENTZ
Instrument: Not specified, most likely a prism, grating, or hybrid spectrometer.
Sampling: TRANSMISSION
Resolution: 4
Origin: DOW CHEMICAL COMPANY
MICROMETERS	TRANSMITTANCE
2.027	0.895
2.06711	0.9
2.10723	0.9
2.14734	0.903
2.18745	0.906
2.22757	0.887
2.26768	0.877
2.30779	0.887
2.34791	0.897
2.38802	0.903
2.42814	0.908
2.46825	0.918
2.50836	0.926
2.54848	0.936
2.58859	0.941
2.6287	0.938
2.66882	0.943
2.70893	0.921
2.74904	0.852
2.78916	0.754
2.82927	0.551
2.86938	0.438
2.9095	0.337
2.94961	0.28
2.98973	0.21
3.02984	0.166
3.06995	0.204
3.11007	0.184
3.15018	0.204
3.19029	0.317
3.23041	0.405
3.27052	0.456
3.31063	0.436
3.35075	0.186
3.39086	0.034
3.43097	0.076
3.47109	0.114
3.5112	0.549
3.55131	0.632
3.59143	0.667
3.63154	0.672
3.67166	0.687
3.71177	0.691
3.75188	0.712
3.792	0.735
3.83211	0.767
3.87222	0.789
3.91234	0.807
3.95245	0.817
3.99256	0.828
4.03268	0.848
4.07279	0.857
4.1129	0.865
4.15302	0.862
4.19313	0.872
4.23324	0.877
4.27336	0.888
4.31347	0.893
4.35359	0.895
4.3937	0.897
4.43381	0.9
4.47393	0.898
4.51404	0.898
4.55415	0.9
4.59427	0.901
4.63438	0.901
4.67449	0.911
4.71461	0.911
4.75472	0.915
4.79483	0.915
4.83495	0.915
4.87506	0.918
4.91518	0.921
4.95529	0.928
4.9954	0.925
5.03552	0.93
5.07563	0.935
5.11574	0.936
5.15586	0.935
5.19597	0.931
5.23608	0.931
5.2762	0.933
5.31631	0.931
5.35642	0.935
5.39654	0.938
5.43665	0.938
5.47676	0.936
5.51688	0.928
5.55699	0.925
5.59711	0.918
5.63722	0.916
5.67733	0.908
5.71745	0.903
5.75756	0.895
5.79767	0.883
5.83779	0.873
5.8779	0.855
5.91801	0.835
5.95813	0.8
5.99824	0.762
6.03835	0.696
6.07847	0.556
6.11858	0.37
6.1587	0.152
6.19881	0.106
6.23892	0.277
6.27904	0.476
6.31915	0.612
6.35926	0.686
6.39938	0.735
6.43949	0.745
6.4796	0.765
6.51972	0.764
6.55983	0.754
6.59994	0.735
6.64006	0.699
6.68017	0.634
6.72028	0.524
6.7604	0.365
6.80051	0.166
6.84063	0.156
6.88074	0.196
6.92085	0.235
6.96097	0.312
7.00108	0.357
7.04119	0.397
7.08131	0.433
7.12142	0.46
7.16153	0.478
7.20165	0.385
7.24176	0.317
7.28187	0.368
7.32199	0.448
7.3621	0.546
7.40221	0.568
7.44233	0.559
7.48244	0.573
7.52256	0.573
7.56267	0.534
7.60278	0.508
7.6429	0.554
7.68301	0.593
7.72312	0.606
7.76324	0.596
7.80335	0.607
7.84346	0.627
7.88358	0.661
7.92369	0.669
7.9638	0.571
8.00392	0.544
8.04403	0.629
8.08415	0.691
8.12426	0.709
8.16437	0.712
8.20449	0.696
8.2446	0.689
8.28471	0.719
8.32483	0.755
8.36494	0.774
8.40505	0.797
8.44517	0.81
8.48528	0.818
8.52539	0.818
8.56551	0.817
8.60562	0.797
8.64573	0.775
8.68585	0.764
8.72596	0.754
8.76608	0.757
8.80619	0.732
8.8463	0.661
8.88642	0.574
8.92653	0.473
8.96664	0.395
9.00676	0.365
9.04687	0.408
9.08698	0.526
9.1271	0.546
9.16721	0.571
9.20732	0.607
9.24744	0.586
9.28755	0.546
9.32767	0.566
9.36778	0.556
9.40789	0.501
9.44801	0.428
9.48812	0.3
9.52823	0.204
9.56835	0.29
9.60846	0.413
9.64857	0.445
9.68869	0.395
9.7288	0.436
9.76891	0.509
9.80903	0.49
9.84914	0.435
9.88925	0.476
9.92937	0.598
9.96948	0.696
10.0096	0.747
10.0497	0.769
10.0898	0.784
10.1299	0.795
10.17	0.785
10.2102	0.745
10.2503	0.729
10.2904	0.73
10.3305	0.724
10.3706	0.674
10.4107	0.661
10.4508	0.696
10.491	0.755
10.5311	0.792
10.5712	0.817
10.6113	0.825
10.6514	0.832
10.6915	0.835
10.7316	0.837
10.7718	0.838
10.8119	0.82
10.852	0.797
10.8921	0.764
10.9322	0.755
10.9723	0.767
11.0124	0.79
11.0525	0.807
11.0927	0.815
11.1328	0.812
11.1729	0.797
11.213	0.772
11.2531	0.737
11.2932	0.694
11.3333	0.636
11.3735	0.627
11.4136	0.689
11.4537	0.7
11.4938	0.674
11.5339	0.641
11.574	0.614
11.6141	0.621
11.6543	0.677
11.6944	0.715
11.7345	0.732
11.7746	0.744
11.8147	0.735
11.8548	0.681
11.8949	0.599
11.935	0.564
11.9752	0.632
12.0153	0.697
12.0554	0.724
12.0955	0.729
12.1356	0.742
12.1757	0.749
12.2158	0.759
12.256	0.759
12.2961	0.762
12.3362	0.76
12.3763	0.755
12.4164	0.749
12.4565	0.744
12.4966	0.735
12.5367	0.732
12.5769	0.709
12.617	0.691
12.6571	0.662
12.6972	0.637
12.7373	0.614
12.7774	0.598
12.8175	0.586
12.8577	0.573
12.8978	0.576
12.9379	0.574
12.978	0.559
13.0181	0.546
13.0582	0.528
13.0983	0.501
13.1385	0.475
13.1786	0.446
13.2187	0.416
13.2588	0.397
13.2989	0.377
13.339	0.365
13.3791	0.36
13.4192	0.363
13.4594	0.372
13.4995	0.383
13.5396	0.395
13.5797	0.401
13.6198	0.416
13.6599	0.418
13.7	0.421
13.7402	0.425
13.7803	0.42
13.8204	0.416
13.8605	0.415
13.9006	0.416
13.9407	0.42
13.9808	0.426
14.0209	0.426
14.0611	0.425
14.1012	0.426
14.1413	0.421
14.1814	0.421
14.2215	0.42
14.2616	0.423
14.3017	0.425
14.3419	0.426
14.382	0.423
14.4221	0.418
14.4622	0.418
14.5023	0.411
14.5424	0.403
14.5825	0.392
14.6227	0.372
14.6628	0.35
14.7029	0.33
14.743	0.318
14.7831	0.303
14.8232	0.303
14.8633	0.312
14.9034	0.317
14.9436	0.328
14.9837	0.335
15.0238	0.338
15.0639	0.338
15.104	0.338
15.1441	0.335
15.1842	0.337
15.2244	0.338
15.2645	0.338
15.3046	0.338
15.3447	0.34
15.3848	0.345
15.4249	0.337
15.465	0.325
15.5052	0.317
15.5453	0.31
15.5854	0.305
15.6255	0.297
15.6656	0.287
15.7057	0.284
15.7458	0.275
15.7859	0.275
15.8261	0.272
15.8662	0.265
15.9063	0.267
15.9464	0.275
