Infrared Spectrum: 2,4-DI-TERT-BUTYL-6-CHLOROPHENYL-2,2-DICHLOROPROPIONATE
Formula: C17 H23 Cl3 O2
State: SOLUTION (10% CCl4 FOR 5000-1300, 10% CS2 FOR 1300-625 CM^-^1)
Class: COBLENTZ
Instrument: Not specified, most likely a prism, grating, or hybrid spectrometer.
Sampling: TRANSMISSION
Path length: 0.01 CM, 0.01 CM
Resolution: 4
Origin: DOW CHEMICAL COMPANY
MICROMETERS	TRANSMITTANCE
2.007	0.846
2.04778	0.851
2.08855	0.853
2.12933	0.854
2.17011	0.858
2.21088	0.854
2.25166	0.839
2.29244	0.839
2.33321	0.851
2.37399	0.853
2.41477	0.856
2.45554	0.858
2.49632	0.865
2.5371	0.866
2.57787	0.866
2.61865	0.866
2.65943	0.868
2.7002	0.868
2.74098	0.868
2.78176	0.861
2.82253	0.836
2.86331	0.826
2.90409	0.831
2.94486	0.826
2.98564	0.824
3.02642	0.827
3.06719	0.827
3.10797	0.827
3.14875	0.829
3.18952	0.838
3.2303	0.827
3.27108	0.821
3.31185	0.752
3.35263	0.372
3.39341	0.229
3.43418	0.46
3.47496	0.541
3.51574	0.78
3.55651	0.819
3.59729	0.839
3.63807	0.843
3.67884	0.841
3.71962	0.86
3.7604	0.863
3.80117	0.87
3.84195	0.873
3.88273	0.873
3.9235	0.871
3.96428	0.876
4.00506	0.875
4.04583	0.875
4.08661	0.878
4.12739	0.878
4.16816	0.88
4.20894	0.88
4.24972	0.876
4.29049	0.868
4.33127	0.866
4.37205	0.873
4.41282	0.888
4.4536	0.895
4.49438	0.897
4.53515	0.898
4.57593	0.898
4.61671	0.898
4.65748	0.897
4.69826	0.888
4.73904	0.888
4.77981	0.893
4.82059	0.898
4.86137	0.898
4.90214	0.893
4.94292	0.892
4.9837	0.887
5.02447	0.885
5.06525	0.892
5.10603	0.897
5.1468	0.898
5.18758	0.895
5.22836	0.893
5.26913	0.892
5.30991	0.89
5.35069	0.887
5.39146	0.883
5.43224	0.878
5.47302	0.861
5.51379	0.806
5.55457	0.622
5.59535	0.382
5.63612	0.237
5.6769	0.276
5.71768	0.709
5.75845	0.801
5.79923	0.831
5.84001	0.853
5.88078	0.868
5.92156	0.866
5.96234	0.861
6.00311	0.858
6.04389	0.861
6.08467	0.858
6.12544	0.841
6.16622	0.799
6.207	0.701
6.24777	0.558
6.28855	0.548
6.32933	0.465
6.3701	0.401
6.41088	0.431
6.45166	0.435
6.49243	0.505
6.53321	0.575
6.57399	0.615
6.61476	0.666
6.65554	0.711
6.69632	0.661
6.73709	0.43
6.77787	0.387
6.81865	0.414
6.85942	0.419
6.9002	0.311
6.94098	0.436
6.98175	0.681
7.02253	0.718
7.06331	0.671
7.10408	0.462
7.14486	0.43
7.18564	0.62
7.22641	0.543
7.26719	0.608
7.30797	0.408
7.34874	0.789
7.38952	0.795
7.4303	0.779
7.47107	0.755
7.51185	0.784
7.55263	0.804
7.5934	0.807
7.63418	0.784
7.67496	0.736
7.71573	0.591
7.75651	0.441
7.79729	0.468
7.83806	0.495
7.87884	0.571
7.91962	0.497
7.96039	0.401
8.00117	0.337
8.04195	0.172
8.08272	0.079
8.1235	0.143
8.16428	0.198
8.20505	0.116
8.24583	0.128
8.28661	0.237
8.32738	0.404
8.36816	0.63
8.40894	0.682
8.44971	0.72
8.49049	0.752
8.53127	0.757
8.57204	0.748
8.61282	0.736
8.6536	0.708
8.69437	0.689
8.73515	0.682
8.77593	0.688
8.8167	0.659
8.85748	0.617
8.89826	0.573
8.93903	0.529
8.97981	0.381
9.02059	0.134
9.06136	0.101
9.10214	0.146
9.14292	0.145
9.18369	0.215
9.22447	0.298
9.26525	0.266
9.30602	0.258
9.3468	0.36
9.38758	0.458
9.42835	0.531
9.46913	0.605
9.50991	0.661
9.55068	0.693
9.59146	0.728
9.63224	0.785
9.67301	0.812
9.71379	0.827
9.75457	0.838
9.79534	0.849
9.83612	0.87
9.8769	0.875
9.91767	0.88
9.95845	0.883
9.99923	0.881
10.04	0.873
10.0808	0.871
10.1216	0.878
10.1623	0.88
10.2031	0.87
10.2439	0.881
10.2847	0.898
10.3254	0.903
10.3662	0.902
10.407	0.905
10.4478	0.907
10.4885	0.9
10.5293	0.897
10.5701	0.888
10.6109	0.876
10.6517	0.854
10.6924	0.804
10.7332	0.775
10.774	0.79
10.8148	0.821
10.8555	0.829
10.8963	0.816
10.9371	0.797
10.9779	0.821
11.0186	0.829
11.0594	0.814
11.1002	0.747
11.141	0.681
11.1817	0.654
11.2225	0.65
11.2633	0.682
11.3041	0.704
11.3449	0.688
11.3856	0.618
11.4264	0.423
11.4672	0.327
11.508	0.446
11.5487	0.451
11.5895	0.355
11.6303	0.387
11.6711	0.526
11.7118	0.591
11.7526	0.639
11.7934	0.674
11.8342	0.701
11.875	0.713
11.9157	0.704
11.9565	0.659
11.9973	0.622
12.0381	0.588
12.0788	0.553
12.1196	0.59
12.1604	0.684
12.2012	0.733
12.2419	0.757
12.2827	0.757
12.3235	0.757
12.3643	0.755
12.405	0.755
12.4458	0.75
12.4866	0.747
12.5274	0.735
12.5682	0.704
12.6089	0.652
12.6497	0.576
12.6905	0.505
12.7313	0.477
12.772	0.463
12.8128	0.446
12.8536	0.404
12.8944	0.391
12.9351	0.448
12.9759	0.497
13.0167	0.551
13.0575	0.617
13.0983	0.667
13.139	0.704
13.1798	0.731
13.2206	0.745
13.2614	0.75
13.3021	0.755
13.3429	0.757
13.3837	0.757
13.4245	0.757
13.4652	0.753
13.506	0.752
13.5468	0.747
13.5876	0.738
13.6283	0.723
13.6691	0.698
13.7099	0.655
13.7507	0.603
13.7915	0.568
13.8322	0.583
13.873	0.62
13.9138	0.642
13.9546	0.645
13.9953	0.634
14.0361	0.612
14.0769	0.598
14.1177	0.598
14.1584	0.615
14.1992	0.622
14.24	0.62
14.2808	0.61
14.3216	0.593
14.3623	0.568
14.4031	0.548
14.4439	0.536
14.4847	0.536
14.5254	0.548
14.5662	0.554
14.607	0.558
14.6478	0.554
14.6885	0.546
14.7293	0.537
14.7701	0.529
14.8109	0.517
14.8516	0.505
14.8924	0.492
14.9332	0.473
14.974	0.446
15.0148	0.416
15.0555	0.377
15.0963	0.328
15.1371	0.291
15.1779	0.261
15.2186	0.247
15.2594	0.247
15.3002	0.252
15.341	0.259
15.3817	0.271
15.4225	0.295
15.4633	0.33
15.5041	0.359
15.5449	0.384
15.5856	0.397
15.6264	0.399
15.6672	0.403
15.708	0.403
15.7487	0.403
15.7895	0.403
15.8303	0.399
15.8711	0.399
15.9118	0.399
15.9526	0.399
