Infrared Spectrum: Carbanilic acid, N-tert-butyl-, Beta-chloroethyl ester
Formula: C13 H18 Cl N O2
State: SOLID (NEAT, MELT)
Melting point: 37 C
Class: COBLENTZ III
Instrument: BECKMAN IR-4 (HYBRID PRISM-GRATING)
Instrument parameters: NaCl PRISM
Sampling: TRANSMISSION
Resolution: 2
Origin: MONSANTO (J. FREEMAN)
1/CM	TRANSMITTANCE
625.782	0.86
634.989	0.8953
644.195	0.917
653.402	0.8996
662.609	0.7808
671.815	0.6556
681.022	0.8809
690.229	0.821
699.435	0.2772
708.642	0.86
717.849	0.9373
727.055	0.9006
736.262	0.7171
745.469	0.7423
754.675	0.8479
763.882	0.6965
773.089	0.6021
782.295	0.8111
791.502	0.7582
800.709	0.8971
809.915	0.9079
819.122	0.9335
828.329	0.9351
837.535	0.9244
846.742	0.8989
855.949	0.9597
865.155	0.9708
874.362	0.9744
883.569	0.9768
892.775	0.9773
901.982	0.9682
911.189	0.9478
920.395	0.935
929.602	0.9153
938.808	0.9007
948.015	0.8726
957.222	0.8446
966.428	0.8032
975.635	0.7813
984.842	0.8824
994.048	0.8923
1003.26	0.8358
1012.46	0.9042
1021.67	0.8597
1030.88	0.8149
1040.08	0.8362
1049.29	0.7386
1058.5	0.5597
1067.7	0.6956
1076.91	0.5457
1086.12	0.3456
1095.32	0.2181
1104.53	0.151
1113.74	0.2851
1122.94	0.5989
1132.15	0.81
1141.36	0.855
1150.56	0.8763
1159.77	0.8678
1168.98	0.8558
1178.18	0.8152
1187.39	0.7161
1196.6	0.4385
1205.8	0.3728
1215.01	0.5865
1224.21	0.5258
1233.42	0.5919
1242.63	0.5898
1251.83	0.5309
1261.04	0.3918
1270.25	0.2611
1279.45	0.0824
1288.66	0.216
1297.87	0.5193
1307.07	0.4646
1316.28	0.4316
1325.49	0.1291
1334.69	0.0716
1343.9	0.1011
1353.11	0.343
1362.31	0.626
1371.52	0.3518
1380.73	0.5761
1389.93	0.3096
1399.14	0.1932
1408.35	0.5249
1417.55	0.7698
1426.76	0.7697
1435.97	0.5731
1445.17	0.5563
1454.38	0.5061
1463.59	0.4958
1472.79	0.5947
1482	0.6571
1491.21	0.5428
1500.41	0.3057
1509.62	0.6759
1518.83	0.8594
1528.03	0.8716
1537.24	0.87
1546.45	0.8713
1555.65	0.8968
1564.86	0.9039
1574.07	0.8928
1583.27	0.8192
1592.48	0.6263
1601.69	0.4886
1610.89	0.8433
1620.1	0.88
1629.31	0.8843
1638.51	0.8832
1647.72	0.8758
1656.93	0.8371
1666.13	0.779
1675.34	0.7127
1684.55	0.5971
1693.75	0.3618
1702.96	0.1667
1712.17	0.0254
1721.37	0.0206
1730.58	0.2474
1739.79	0.4775
1748.99	0.6784
1758.2	0.75
1767.41	0.8174
1776.61	0.864
1785.82	0.8854
1795.03	0.8912
1804.23	0.8946
1813.44	0.8993
1822.65	0.9073
1831.85	0.9128
1841.06	0.9148
1850.27	0.9153
1859.47	0.9153
1868.68	0.9145
1877.89	0.9129
1887.09	0.9126
1896.3	0.9149
1905.51	0.9175
1914.71	0.9206
1923.92	0.9242
1933.13	0.9251
1942.33	0.9229
1951.54	0.9179
1960.75	0.9127
1969.95	0.9159
1979.16	0.9201
1988.37	0.9238
1997.57	0.9233
2006.78	0.9231
2015.99	0.9227
2025.19	0.9224
2034.4	0.9223
2043.61	0.9224
2052.81	0.9228
2062.02	0.9236
2071.23	0.9245
2080.43	0.9255
2089.64	0.9268
2098.85	0.9281
2108.05	0.9295
2117.26	0.9307
2126.47	0.9318
2135.67	0.9325
2144.88	0.9329
2154.09	0.9332
2163.29	0.933
2172.5	0.9328
2181.71	0.9325
2190.91	0.9319
2200.12	0.9313
2209.33	0.9307
2218.53	0.9299
2227.74	0.9288
2236.95	0.9277
2246.15	0.9266
2255.36	0.9257
2264.57	0.925
2273.77	0.9245
2282.98	0.9244
2292.19	0.9234
2301.39	0.9226
2310.6	0.9222
2319.81	0.9222
2329.01	0.9235
2338.22	0.9247
2347.43	0.9265
2356.63	0.9284
2365.84	0.9299
2375.05	0.9296
2384.25	0.9288
2393.46	0.9267
2402.67	0.9249
2411.87	0.9231
2421.08	0.923
2430.29	0.923
2439.49	0.923
2448.7	0.9237
2457.91	0.9244
2467.11	0.925
2476.32	0.925
2485.53	0.925
2494.73	0.9242
2503.94	0.9229
2513.15	0.9219
2522.35	0.9216
2531.56	0.9213
2540.77	0.921
2549.97	0.9208
2559.18	0.9204
2568.39	0.9202
2577.59	0.9193
2586.8	0.9181
2596.01	0.9169
2605.21	0.9159
2614.42	0.9156
2623.63	0.9156
2632.83	0.9157
2642.04	0.9158
2651.25	0.9159
2660.45	0.916
2669.66	0.9161
2678.87	0.9157
2688.07	0.9154
2697.28	0.915
2706.49	0.9147
2715.69	0.9144
2724.9	0.9141
2734.11	0.914
2743.31	0.9138
2752.52	0.9136
2761.73	0.9134
2770.93	0.9133
2780.14	0.9131
2789.35	0.9129
2798.55	0.9126
2807.76	0.9118
2816.97	0.9107
2826.17	0.9091
2835.38	0.9017
2844.59	0.888
2853.79	0.8754
2863	0.8627
2872.21	0.8497
2881.41	0.8349
2890.62	0.8165
2899.83	0.7845
2909.03	0.7527
2918.24	0.7371
2927.45	0.7204
2936.65	0.6991
2945.86	0.668
2955.07	0.6349
2964.27	0.6086
2973.48	0.5901
2982.69	0.5627
2991.89	0.5294
3001.1	0.4745
3010.31	0.4354
3019.51	0.4431
3028.72	0.5179
3037.93	0.5975
3047.13	0.677
3056.34	0.7255
3065.55	0.7448
3074.75	0.7626
3083.96	0.7755
3093.17	0.7871
3102.37	0.8079
3111.58	0.8308
3120.79	0.8483
3129.99	0.8603
3139.2	0.8701
3148.41	0.8782
3157.61	0.8845
3166.82	0.8879
3176.03	0.8902
3185.23	0.8916
3194.44	0.8924
3203.65	0.893
3212.85	0.8938
3222.06	0.8945
3231.27	0.895
3240.47	0.8956
3249.68	0.8961
3258.89	0.8966
3268.09	0.8971
3277.3	0.8973
3286.51	0.8975
3295.71	0.8976
3304.92	0.8978
3314.13	0.898
3323.33	0.8978
3332.54	0.8976
3341.75	0.8973
3350.95	0.8968
3360.16	0.8961
3369.37	0.8954
3378.57	0.8943
3387.78	0.8932
3396.99	0.892
3406.19	0.8908
3415.4	0.8896
3424.61	0.8882
3433.81	0.8874
3443.02	0.887
3452.23	0.8869
3461.43	0.8874
3470.64	0.8882
3479.85	0.8892
3489.05	0.8901
3498.26	0.8909
3507.47	0.8918
3516.67	0.8924
3525.88	0.8925
3535.09	0.8925
3544.29	0.8925
3553.5	0.8924
3562.71	0.8924
3571.91	0.8923
3581.12	0.8922
3590.33	0.8921
3599.53	0.892
3608.74	0.892
3617.95	0.8919
3627.15	0.8918
3636.36	0.8917
3645.57	0.8917
3654.77	0.8916
3663.98	0.8915
3673.19	0.8915
3682.39	0.8914
3691.6	0.8914
3700.81	0.8914
3710.01	0.8913
3719.22	0.8913
3728.43	0.8912
3737.63	0.8912
3746.84	0.8912
3756.05	0.8911
3765.25	0.8911
3774.46	0.8911
3783.67	0.891
3792.87	0.891
3802.08	0.891
3811.29	0.891
3820.49	0.891
3829.7	0.891
3838.91	0.891
3848.11	0.891
3857.32	0.891
3866.53	0.8909
3875.73	0.8907
3884.94	0.8905
3894.15	0.8902
3903.35	0.89
3912.56	0.8897
3921.77	0.8895
3930.97	0.8893
3940.18	0.889
3949.39	0.8888
3958.59	0.8885
3967.8	0.8881
3977.01	0.8877
3986.21	0.8873
3995.42	0.8869
4004.63	0.8865
4013.83	0.8861
4023.04	0.8854
4032.25	0.8847
4041.45	0.884
4050.66	0.8834
4059.87	0.8828
4069.07	0.8821
4078.28	0.8814
