Infrared Spectrum: ANDROSTA-4-ENE-3,17-DIONE, 1Alpha-DEUTERIO-
Formula: C19 H25 O2 D
State: SOLID (KBr DISC)
Class: COBLENTZ III
Instrument: BECKMAN IR-7
Sampling: TRANSMISSION
Resolution: 4
Origin: N. L. McNIVEN- THE WORCESTER FOUNDATION FOR EXPERIMENTAL BIOLOGY
1/CM	TRANSMITTANCE
601.327	0.614
609.953	0.651
618.578	0.709
627.204	0.739
635.829	0.786
644.455	0.773
653.081	0.784
661.706	0.839
670.332	0.85
678.957	0.529
687.583	0.81
696.209	0.898
704.834	0.909
713.46	0.717
722.085	0.922
730.711	0.852
739.337	0.941
747.962	0.95
756.588	0.859
765.213	0.937
773.839	0.962
782.465	0.907
791.09	0.963
799.716	0.96
808.341	0.94
816.967	0.926
825.593	0.678
834.218	0.618
842.844	0.851
851.469	0.889
860.095	0.903
868.721	0.112
877.346	0.5949
885.972	0.8939
894.597	0.877
903.223	0.83
911.849	0.89
920.474	0.721
929.1	0.549
937.725	0.652
946.351	0.768
954.977	0.811
963.602	0.77
972.228	0.85
980.853	0.82
989.479	0.746
998.105	0.809
1006.73	0.6179
1015.36	0.467
1023.98	0.72
1032.61	0.575
1041.23	0.701
1049.86	0.258
1058.48	0.587
1067.11	0.715
1075.74	0.788
1084.36	0.776
1092.99	0.474
1101.61	0.583
1110.24	0.676
1118.86	0.732
1127.49	0.745
1136.11	0.733
1144.74	0.754
1153.37	0.766
1161.99	0.605
1170.62	0.5981
1179.24	0.552
1187.87	0.575
1196.49	0.631
1205.12	0.523
1213.74	0.434
1222.37	0.41
1231	0.4621
1239.62	0.528
1248.25	0.324
1256.87	0.19
1265.5	0.41
1274.12	0.443
1282.75	0.689
1291.38	0.644
1300	0.636
1308.63	0.76
1317.25	0.792
1325.88	0.772
1334.5	0.513
1343.13	0.54
1351.75	0.439
1360.38	0.419
1369.01	0.582
1377.63	0.2959
1386.26	0.601
1394.88	0.74
1403.51	0.6061
1412.13	0.622
1420.76	0.335
1429.38	0.233
1438.01	0.4601
1446.64	0.326
1455.26	0.411
1463.89	0.426
1472.51	0.574
1481.14	0.802
1489.76	0.844
1498.39	0.85
1507.02	0.852
1515.64	0.849
1524.27	0.845
1532.89	0.843
1541.52	0.829
1550.14	0.798
1558.77	0.779
1567.39	0.75
1576.02	0.715
1584.65	0.631
1593.27	0.543
1601.9	0.355
1610.52	0.105
1619.15	0.26
1627.77	0.282
1636.4	0.164
1645.02	0.06
1653.65	0.005
1662.28	0.006
1670.9	0.07
1679.53	0.239
1688.15	0.392
1696.78	0.476
1705.4	0.476
1714.03	0.331
1722.66	0.009
1731.28	0.005
1739.91	0.064
1748.53	0.378
1757.16	0.586
1765.78	0.684
1774.41	0.793
1783.03	0.841
1791.66	0.863
1800.29	0.888
1808.91	0.907
1817.54	0.921
1826.16	0.929
1834.79	0.937
1843.41	0.941
1852.04	0.941
1860.66	0.94
1869.29	0.94
1877.92	0.94
1886.54	0.943
1895.17	0.947
1903.79	0.95
1912.42	0.949
1921.04	0.947
1929.67	0.944
1938.3	0.938
1946.92	0.929
1955.55	0.924
1964.17	0.937
1972.8	0.937
1981.42	0.935
1990.05	0.933
1998.67	0.938
2007.3	0.9398
2015.93	0.941
2024.55	0.941
2033.18	0.941
2041.8	0.939
2050.43	0.9286
2059.05	0.9158
2067.68	0.911
2076.3	0.9088
2084.93	0.9055
2093.56	0.8969
2102.18	0.8794
2110.81	0.87
2119.43	0.7977
2128.06	0.7378
2136.68	0.7118
2145.31	0.7436
2153.94	0.777
2162.56	0.8044
2171.19	0.8322
2179.81	0.8637
2188.44	0.8701
2197.06	0.873
2205.69	0.873
2214.31	0.872
2222.94	0.871
2231.57	0.8684
2240.19	0.8661
2248.82	0.8628
2257.44	0.86
2266.07	0.8572
2274.69	0.8559
2283.32	0.8533
2291.94	0.85
2300.57	0.847
2309.2	0.8402
2317.82	0.8319
2326.45	0.8253
2335.07	0.823
2343.7	0.8205
2352.32	0.8182
2360.95	0.817
2369.58	0.816
2378.2	0.8167
2386.83	0.817
2395.45	0.8177
2404.08	0.8154
2412.7	0.813
2421.33	0.812
2429.95	0.811
2438.58	0.8093
2447.21	0.807
2455.83	0.805
2464.46	0.803
2473.08	0.801
2481.71	0.7995
2490.33	0.7935
2498.96	0.7883
2507.59	0.7859
2516.21	0.784
2524.84	0.7815
2533.46	0.778
2542.09	0.775
2550.71	0.7724
2559.34	0.7671
2567.96	0.7585
2576.59	0.7514
2585.22	0.7408
2593.84	0.7369
2602.47	0.7336
2611.09	0.7313
2619.72	0.729
2628.34	0.727
2636.97	0.725
2645.59	0.7221
2654.22	0.7188
2662.85	0.7155
2671.47	0.7142
2680.1	0.711
2688.72	0.7081
2697.35	0.7008
2705.97	0.6929
2714.6	0.6863
2723.23	0.6801
2731.85	0.6741
2740.48	0.67
2749.1	0.667
2757.73	0.6603
2766.35	0.6492
2774.98	0.6054
2783.6	0.5323
2792.23	0.4554
2800.86	0.3783
2809.48	0.3193
2818.11	0.2653
2826.73	0.204
2835.36	0.1296
2843.98	0.1114
2852.61	0.2477
2861.23	0.3427
2869.86	0.3171
2878.49	0.2559
2887.11	0.1629
2895.74	0.0869
2904.36	0.0674
2912.99	0.0262
2921.61	0.0477
2930.24	0.082
2938.87	0.0578
2947.49	0.0616
2956.12	0.1023
2964.74	0.229
2973.37	0.2587
2981.99	0.3111
2990.62	0.4326
2999.24	0.4932
3007.87	0.5267
3016.5	0.5046
3025.12	0.5591
3033.75	0.621
3042.37	0.6457
3051	0.647
3059.62	0.649
3068.25	0.649
3076.87	0.6471
3085.5	0.6466
3094.13	0.6435
3102.75	0.641
3111.38	0.639
3120	0.638
3128.63	0.637
3137.25	0.636
3145.88	0.635
3154.51	0.635
3163.13	0.634
3171.76	0.633
3180.38	0.631
3189.01	0.63
3197.63	0.629
3206.26	0.6276
3214.88	0.625
3223.51	0.623
3232.14	0.6207
3240.76	0.6184
3249.39	0.6104
3258.01	0.6046
3266.64	0.5995
3275.26	0.5917
3283.89	0.5775
3292.51	0.564
3301.14	0.567
3309.77	0.5779
3318.39	0.5898
3327.02	0.5956
3335.64	0.5979
3344.27	0.5992
3352.89	0.6
3361.52	0.5982
3370.15	0.5969
3378.77	0.5946
3387.4	0.5906
3396.02	0.587
3404.65	0.5821
3413.27	0.5571
3421.9	0.5295
3430.52	0.5032
3439.15	0.5223
3447.78	0.5518
3456.4	0.5681
3465.03	0.572
3473.65	0.574
3482.28	0.576
3490.9	0.5773
3499.53	0.5786
3508.15	0.58
3516.78	0.5812
3525.41	0.582
3534.03	0.583
3542.66	0.583
3551.28	0.5826
3559.91	0.582
3568.53	0.582
3577.16	0.582
3585.79	0.582
3594.41	0.581
3603.04	0.5808
3611.66	0.58
3620.29	0.58
3628.91	0.578
3637.54	0.577
3646.16	0.576
3654.79	0.575
3663.42	0.573
3672.04	0.572
3680.67	0.5701
3689.29	0.568
3697.92	0.5666
3706.54	0.5653
3715.17	0.563
3723.79	0.5607
3732.42	0.5584
3741.05	0.557
3749.67	0.5548
3758.3	0.5525
3766.92	0.5502
3775.55	0.549
3784.17	0.547
3792.8	0.545
3801.43	0.543
3810.05	0.5397
3818.68	0.5374
3827.3	0.5351
3835.93	0.533
3844.55	0.5305
3853.18	0.529
3861.8	0.527
3870.43	0.525
3879.06	0.5233
3887.68	0.522
3896.31	0.5197
3904.93	0.517
3913.56	0.5141
3922.18	0.511
3930.81	0.508
3939.43	0.507
3948.06	0.505
3956.69	0.503
3965.31	0.502
3973.94	0.501
3982.56	0.5
