Infrared Spectrum: L(+)-3-AMINO-4-MERCAPTO-1-BUTANOL
Formula: C4 H11 N O S
State: SOLID(MINERAL OIL MULL)
Melting point: 100-103 C
Class: COBLENTZ
Instrument: Not specified, most likely a prism, grating, or hybrid spectrometer.
Sampling: TRANSMISSION
Resolution: 4
Origin: ARTHUR D. LITTLE, INC.
1/CM	TRANSMITTANCE
645.483	0.562
652.748	0.565
660.012	0.575
667.277	0.579
674.542	0.581
681.806	0.573
689.071	0.565
696.336	0.547
703.6	0.494
710.865	0.42
718.13	0.378
725.395	0.391
732.659	0.384
739.924	0.492
747.189	0.614
754.453	0.689
761.718	0.71
768.983	0.721
776.247	0.724
783.512	0.728
790.777	0.726
798.041	0.701
805.306	0.649
812.571	0.736
819.835	0.74
827.1	0.739
834.365	0.731
841.63	0.711
848.894	0.655
856.159	0.713
863.424	0.71
870.688	0.672
877.953	0.55
885.218	0.702
892.482	0.727
899.747	0.724
907.012	0.715
914.276	0.702
921.541	0.675
928.806	0.597
936.07	0.526
943.335	0.711
950.6	0.715
957.864	0.71
965.129	0.702
972.394	0.685
979.659	0.657
986.923	0.497
994.188	0.3
1001.45	0.663
1008.72	0.662
1015.98	0.652
1023.25	0.682
1030.51	0.681
1037.78	0.66
1045.04	0.624
1052.31	0.584
1059.57	0.579
1066.83	0.488
1074.1	0.291
1081.36	0.244
1088.63	0.381
1095.89	0.397
1103.16	0.568
1110.42	0.681
1117.69	0.682
1124.95	0.681
1132.22	0.678
1139.48	0.668
1146.75	0.647
1154.01	0.615
1161.28	0.613
1168.54	0.585
1175.81	0.484
1183.07	0.324
1190.33	0.508
1197.6	0.676
1204.86	0.686
1212.13	0.686
1219.39	0.679
1226.66	0.662
1233.92	0.617
1241.19	0.594
1248.45	0.608
1255.72	0.586
1262.98	0.584
1270.25	0.559
1277.51	0.547
1284.78	0.568
1292.04	0.618
1299.3	0.621
1306.57	0.617
1313.83	0.613
1321.1	0.608
1328.36	0.588
1335.63	0.582
1342.89	0.575
1350.16	0.547
1357.42	0.498
1364.69	0.384
1371.95	0.328
1379.22	0.344
1386.48	0.44
1393.75	0.501
1401.01	0.507
1408.28	0.504
1415.54	0.507
1422.8	0.508
1430.07	0.507
1437.33	0.395
1444.6	0.295
1451.86	0.256
1459.13	0.297
1466.39	0.294
1473.66	0.397
1480.92	0.498
1488.19	0.486
1495.45	0.401
1502.72	0.239
1509.98	0.389
1517.25	0.573
1524.51	0.759
1531.77	0.771
1539.04	0.76
1546.3	0.757
1553.57	0.737
1560.83	0.714
1568.1	0.697
1575.36	0.644
1582.63	0.491
1589.89	0.344
1597.16	0.469
1604.42	0.63
1611.69	0.653
1618.95	0.794
1626.22	0.826
1633.48	0.83
1640.74	0.83
1648.01	0.83
1655.27	0.833
1662.54	0.834
1669.8	0.836
1677.07	0.836
1684.33	0.836
1691.6	0.837
1698.86	0.839
1706.13	0.84
1713.39	0.844
1720.66	0.855
1727.92	0.853
1735.19	0.856
1742.45	0.85
1749.72	0.847
1756.98	0.844
1764.24	0.843
1771.51	0.843
1778.77	0.839
1786.04	0.837
1793.3	0.836
1800.57	0.834
1807.83	0.834
1815.1	0.833
1822.36	0.833
1829.63	0.831
1836.89	0.826
1844.16	0.824
1851.42	0.82
1858.69	0.814
1865.95	0.81
1873.21	0.81
1880.48	0.801
1887.74	0.797
1895.01	0.792
1902.27	0.785
1909.54	0.776
1916.8	0.771
1924.07	0.753
1931.33	0.752
1938.6	0.752
1945.86	0.752
1953.13	0.749
1960.39	0.744
1967.66	0.736
1974.92	0.715
1982.19	0.697
1989.45	0.676
1996.71	0.659
2003.98	0.621
2011.24	0.589
2018.51	0.553
2025.77	0.536
2033.04	0.534
2040.3	0.543
2047.57	0.562
2054.83	0.573
2062.1	0.572
2069.36	0.578
2076.63	0.65
2083.89	0.717
2091.16	0.74
2098.42	0.744
2105.68	0.746
2112.95	0.747
2120.21	0.746
2127.48	0.743
2134.74	0.74
2142.01	0.739
2149.27	0.737
2156.54	0.734
2163.8	0.728
2171.07	0.717
2178.33	0.711
2185.6	0.707
2192.86	0.704
2200.13	0.701
2207.39	0.698
2214.66	0.695
2221.92	0.688
2229.18	0.671
2236.45	0.66
2243.71	0.65
2250.98	0.646
2258.24	0.643
2265.51	0.634
2272.77	0.62
2280.04	0.608
2287.3	0.595
2294.57	0.586
2301.83	0.568
2309.1	0.552
2316.36	0.54
2323.63	0.524
2330.89	0.501
2338.15	0.481
2345.42	0.473
2352.68	0.462
2359.95	0.446
2367.21	0.433
2374.48	0.427
2381.74	0.417
2389.01	0.404
2396.27	0.397
2403.54	0.372
2410.8	0.347
2418.07	0.327
2425.33	0.324
2432.6	0.302
2439.86	0.314
2447.13	0.331
2454.39	0.321
2461.65	0.301
2468.92	0.281
2476.18	0.262
2483.45	0.231
2490.71	0.202
2497.98	0.192
2505.24	0.188
2512.51	0.181
2519.77	0.181
2527.04	0.182
2534.3	0.181
2541.57	0.186
2548.83	0.201
2556.1	0.22
2563.36	0.217
2570.62	0.197
2577.89	0.181
2585.15	0.181
2592.42	0.185
2599.68	0.186
2606.95	0.175
2614.21	0.168
2621.48	0.166
2628.74	0.165
2636.01	0.15
2643.27	0.142
2650.54	0.139
2657.8	0.137
2665.07	0.139
2672.33	0.139
2679.6	0.14
2686.86	0.14
2694.12	0.136
2701.39	0.128
2708.65	0.126
2715.92	0.126
2723.18	0.13
2730.45	0.136
2737.71	0.14
2744.98	0.142
2752.24	0.142
2759.51	0.142
2766.77	0.14
2774.04	0.142
2781.3	0.143
2788.57	0.146
2795.83	0.15
2803.09	0.159
2810.36	0.162
2817.62	0.162
2824.89	0.157
2832.15	0.149
2839.42	0.121
2846.68	0.072
2853.95	0.06
2861.21	0.062
2868.48	0.063
2875.74	0.068
2883.01	0.075
2890.27	0.072
2897.54	0.052
2904.8	0.039
2912.06	0.03
2919.33	0.028
2926.59	0.031
2933.86	0.037
2941.12	0.047
2948.39	0.059
2955.65	0.066
2962.92	0.084
2970.18	0.12
2977.45	0.172
2984.71	0.234
2991.98	0.252
2999.24	0.255
3006.51	0.256
3013.77	0.259
3021.04	0.262
3028.3	0.262
3035.56	0.247
3042.83	0.233
3050.09	0.215
3057.36	0.192
3064.62	0.173
3071.89	0.162
3079.15	0.156
3086.42	0.155
3093.68	0.156
3100.95	0.156
3108.21	0.157
3115.48	0.159
3122.74	0.162
3130.01	0.169
3137.27	0.182
3144.53	0.21
3151.8	0.243
3159.06	0.273
3166.33	0.31
3173.59	0.334
3180.86	0.355
3188.12	0.378
3195.39	0.395
3202.65	0.415
3209.92	0.439
3217.18	0.475
3224.45	0.5
3231.71	0.528
3238.98	0.55
3246.24	0.569
3253.51	0.592
3260.77	0.607
3268.03	0.628
3275.3	0.637
3282.56	0.652
3289.83	0.663
3297.09	0.675
3304.36	0.685
3311.62	0.697
3318.89	0.707
3326.15	0.718
3333.42	0.734
3340.68	0.749
3347.95	0.759
3355.21	0.773
3362.48	0.779
3369.74	0.792
3377	0.801
3384.27	0.808
3391.53	0.814
3398.8	0.818
3406.06	0.82
3413.33	0.82
3420.59	0.821
3427.86	0.821
3435.12	0.824
3442.39	0.826
