Infrared Spectrum: (-)-3-MENTHOXYACETOXY-(-)-ESTRA-1,3,5(10),6,8-PENTAEN-17-ONE
Formula: C30 H38 O4
State: SOLID (KBr DISC)
Class: COBLENTZ III
Instrument: BECKMAN IR-7
Sampling: TRANSMISSION
Resolution: 4
Origin: THE WORCESTER FOUNDATION FOR EXPERIMENTAL BIOLOGY, Neal L. McNiven
1/CM	TRANSMITTANCE
646.667	1.001
655.417	1.015
664.167	1.026
672.917	1.026
681.667	1.021
690.417	1.009
699.167	0.968
707.917	0.912
716.667	0.928
725.417	0.85
734.167	0.867
742.917	0.824
751.667	0.775
760.417	0.678
769.167	0.791
777.917	0.791
786.667	0.79
795.417	0.757
804.167	0.494
812.917	0.652
821.667	0.346
830.417	0.746
839.167	0.697
847.917	0.717
856.667	0.765
865.417	0.771
874.167	0.682
882.917	0.423
891.667	0.738
900.417	0.712
909.167	0.547
917.918	0.408
926.668	0.685
935.418	0.689
944.168	0.647
952.918	0.418
961.668	0.515
970.418	0.593
979.168	0.5319
987.918	0.586
996.668	0.597
1005.42	0.485
1014.17	0.37
1022.92	0.532
1031.67	0.4
1040.42	0.485
1049.17	0.557
1057.92	0.454
1066.67	0.427
1075.42	0.384
1084.17	0.431
1092.92	0.341
1101.67	0.226
1110.42	0.117
1119.17	0.058
1127.92	0.194
1136.67	0.221
1145.42	0.152
1154.17	0.094
1162.92	0.046
1171.67	0.05
1180.42	0.179
1189.17	0.33
1197.92	0.475
1206.67	0.402
1215.42	0.291
1224.17	0.246
1232.92	0.354
1241.67	0.474
1250.42	0.515
1259.17	0.626
1267.92	0.549
1276.67	0.6
1285.42	0.525
1294.17	0.64
1302.92	0.612
1311.67	0.508
1320.42	0.675
1329.17	0.679
1337.92	0.6
1346.67	0.354
1355.42	0.431
1364.17	0.324
1372.92	0.368
1381.67	0.381
1390.42	0.528
1399.17	0.366
1407.92	0.536
1416.67	0.653
1425.42	0.62
1434.17	0.528
1442.92	0.411
1451.67	0.354
1460.42	0.369
1469.17	0.44
1477.92	0.51
1486.67	0.674
1495.42	0.65
1504.17	0.562
1512.92	0.574
1521.67	0.688
1530.42	0.742
1539.17	0.735
1547.92	0.736
1556.67	0.71
1565.42	0.618
1574.17	0.621
1582.92	0.632
1591.67	0.438
1600.42	0.533
1609.17	0.616
1617.92	0.613
1626.67	0.674
1635.42	0.668
1644.17	0.672
1652.92	0.672
1661.67	0.655
1670.42	0.643
1679.17	0.622
1687.92	0.556
1696.67	0.555
1705.42	0.474
1714.17	0.361
1722.92	0.038
1731.67	0.085
1740.42	0.349
1749.17	0.48
1757.92	0.413
1766.67	0.113
1775.42	0.173
1784.17	0.426
1792.92	0.609
1801.67	0.68
1810.42	0.699
1819.17	0.703
1827.92	0.712
1836.67	0.732
1845.42	0.734
1854.17	0.732
1862.92	0.732
1871.67	0.733
1880.42	0.734
1889.17	0.73
1897.92	0.725
1906.67	0.72
1915.42	0.717
1924.17	0.728
1932.92	0.737
1941.67	0.737
1950.42	0.736
1959.17	0.736
1967.92	0.733
1976.67	0.733
1985.42	0.733
1994.17	0.733
2002.92	0.732
2011.67	0.732
2020.42	0.731
2029.17	0.73
2037.92	0.73
2046.67	0.7299
2055.42	0.7288
2064.17	0.728
2072.92	0.728
2081.67	0.727
2090.42	0.7257
2099.17	0.725
2107.92	0.7246
2116.67	0.7236
2125.42	0.722
2134.17	0.7206
2142.92	0.7195
2151.67	0.7175
2160.42	0.7145
2169.17	0.712
2177.92	0.7084
2186.67	0.7047
2195.42	0.7017
2204.17	0.7003
2212.92	0.699
2221.67	0.6963
2230.42	0.696
2239.17	0.6932
2247.92	0.6922
2256.67	0.69
2265.42	0.6881
2274.17	0.6851
2282.92	0.6831
2291.67	0.681
2300.42	0.678
2309.17	0.676
2317.92	0.674
2326.67	0.6729
2335.42	0.6709
2344.17	0.669
2352.92	0.6688
2361.67	0.6668
2370.42	0.666
2379.17	0.666
2387.92	0.667
2396.67	0.668
2405.42	0.668
2414.17	0.668
2422.92	0.668
2431.67	0.668
2440.42	0.6665
2449.17	0.666
2457.92	0.6645
2466.67	0.664
2475.42	0.6614
2484.17	0.6594
2492.92	0.658
2501.67	0.6573
2510.42	0.656
2519.17	0.6545
2527.92	0.6522
2536.67	0.65
2545.42	0.65
2554.17	0.6491
2562.92	0.6471
2571.67	0.645
2580.42	0.641
2589.17	0.634
2597.92	0.6289
2606.67	0.6219
2615.42	0.62
2624.17	0.62
2632.92	0.6189
2641.67	0.6165
2650.42	0.61
2659.17	0.609
2667.92	0.6077
2676.67	0.605
2685.42	0.602
2694.17	0.601
2702.92	0.5982
2711.67	0.5897
2720.42	0.5777
2729.17	0.576
2737.92	0.5785
2746.67	0.579
2755.42	0.5764
2764.17	0.5718
2772.92	0.5652
2781.67	0.5564
2790.42	0.5456
2799.17	0.5295
2807.92	0.5118
2816.67	0.4828
2825.42	0.4321
2834.17	0.3215
2842.92	0.2331
2851.67	0.25
2860.42	0.17
2869.17	0.2201
2877.92	0.259
2886.67	0.248
2895.42	0.2167
2904.17	0.1833
2912.92	0.1551
2921.67	0.1812
2930.42	0.1525
2939.17	0.1222
2947.92	0.095
2956.67	0.1837
2965.42	0.2536
2974.17	0.3599
2982.92	0.4414
2991.67	0.4998
3000.42	0.5361
3009.17	0.5531
3017.92	0.5541
3026.67	0.5238
3035.42	0.529
3044.17	0.5536
3052.92	0.5544
3061.67	0.5399
3070.42	0.5192
3079.17	0.5412
3087.92	0.552
3096.67	0.5592
3105.42	0.5647
3114.17	0.5658
3122.92	0.565
3131.67	0.565
3140.42	0.564
3149.17	0.563
3157.92	0.5621
3166.67	0.562
3175.42	0.562
3184.17	0.562
3192.92	0.564
3201.67	0.5641
3210.42	0.565
3219.17	0.565
3227.92	0.5652
3236.67	0.566
3245.42	0.566
3254.17	0.566
3262.92	0.566
3271.67	0.566
3280.42	0.565
3289.17	0.565
3297.92	0.5646
3306.67	0.5636
3315.42	0.563
3324.17	0.561
3332.92	0.559
3341.67	0.558
3350.42	0.557
3359.17	0.5564
3367.92	0.555
3376.67	0.554
3385.42	0.552
3394.17	0.551
3402.92	0.549
3411.67	0.5472
3420.42	0.5444
3429.17	0.5343
3437.92	0.5188
3446.67	0.5254
3455.42	0.5359
3464.17	0.54
3472.92	0.545
3481.67	0.549
3490.42	0.55
3499.17	0.549
3507.92	0.5459
3516.67	0.5389
3525.42	0.5372
3534.17	0.5402
3542.92	0.5445
3551.67	0.5463
3560.42	0.549
3569.17	0.5513
3577.92	0.5523
3586.67	0.554
3595.42	0.554
3604.17	0.554
3612.92	0.554
3621.67	0.554
3630.42	0.553
3639.17	0.553
3647.92	0.5536
3656.67	0.554
3665.42	0.554
3674.17	0.554
3682.92	0.553
3691.67	0.5523
3700.42	0.552
3709.17	0.552
3717.92	0.552
3726.67	0.552
3735.42	0.551
3744.17	0.551
3752.92	0.551
3761.67	0.55
3770.42	0.548
3779.17	0.546
3787.92	0.544
3796.67	0.541
3805.42	0.5389
3814.17	0.537
3822.92	0.536
3831.67	0.5358
3840.42	0.535
3849.17	0.535
3857.92	0.535
3866.67	0.535
3875.42	0.5344
3884.17	0.535
3892.92	0.535
3901.67	0.535
3910.42	0.5345
3919.17	0.534
3927.92	0.533
3936.67	0.533
3945.42	0.533
3954.17	0.5314
3962.92	0.53
3971.67	0.529
3980.42	0.528
3989.17	0.528
3997.92	0.528
