Infrared Spectrum: Aniline, 4-tert-amyl-2-methyl-
Formula: C12 H19 N
State: LIQUID (NEAT)
Class: COBLENTZ III
Instrument: BECKMAN IR-4 (HYBRID PRISM-GRATING)
Instrument parameters: NaCl PRISM
Sampling: TRANSMISSION
Path length: CAPILLARY
Resolution: 2
Origin: MONSANTO (J. FREEMAN)
1/CM	TRANSMITTANCE
3968.25	0.8218
3959.34	0.823
3950.43	0.8243
3941.51	0.8256
3932.6	0.8268
3923.69	0.8279
3914.78	0.8288
3905.87	0.8298
3896.95	0.8307
3888.04	0.8317
3879.13	0.8328
3870.22	0.834
3861.3	0.835
3852.39	0.8361
3843.48	0.8371
3834.57	0.8377
3825.66	0.8383
3816.74	0.8388
3807.83	0.8393
3798.92	0.8398
3790.01	0.8402
3781.1	0.8406
3772.18	0.841
3763.27	0.8413
3754.36	0.8417
3745.45	0.842
3736.54	0.8421
3727.62	0.8421
3718.71	0.8421
3709.8	0.8421
3700.89	0.8418
3691.98	0.8416
3683.06	0.8413
3674.15	0.841
3665.24	0.8406
3656.33	0.8404
3647.41	0.8398
3638.5	0.8387
3629.59	0.8377
3620.68	0.8366
3611.77	0.8354
3602.85	0.834
3593.94	0.8325
3585.03	0.8305
3576.12	0.8283
3567.21	0.8236
3558.29	0.8175
3549.38	0.8086
3540.47	0.798
3531.56	0.7752
3522.65	0.7457
3513.73	0.7159
3504.82	0.6861
3495.91	0.6562
3487	0.6261
3478.09	0.5958
3469.17	0.573
3460.26	0.5712
3451.35	0.5744
3442.44	0.5808
3433.52	0.5869
3424.61	0.5869
3415.7	0.5845
3406.79	0.5612
3397.88	0.5369
3388.96	0.5125
3380.05	0.488
3371.14	0.476
3362.23	0.4754
3353.32	0.4952
3344.4	0.5379
3335.49	0.5809
3326.58	0.6241
3317.67	0.6643
3308.76	0.6908
3299.84	0.7214
3290.93	0.7476
3282.02	0.7521
3273.11	0.7521
3264.19	0.749
3255.28	0.7406
3246.37	0.7321
3237.46	0.7237
3228.55	0.7162
3219.63	0.716
3210.72	0.7243
3201.81	0.7425
3192.9	0.7609
3183.99	0.7793
3175.07	0.7959
3166.16	0.8004
3157.25	0.8011
3148.34	0.801
3139.43	0.7979
3130.51	0.7921
3121.6	0.7807
3112.69	0.7558
3103.78	0.7338
3094.87	0.7123
3085.95	0.6885
3077.04	0.6647
3068.13	0.6406
3059.22	0.6163
3050.3	0.5922
3041.39	0.5677
3032.48	0.5431
3023.57	0.5237
3014.66	0.5116
3005.74	0.4348
2996.83	0.32
2987.92	0.2046
2979.01	0.1366
2970.1	0.1367
2961.18	0.1407
2952.27	0.1669
2943.36	0.1964
2934.45	0.2142
2925.54	0.2288
2916.62	0.2471
2907.71	0.2743
2898.8	0.2859
2889.89	0.2908
2880.98	0.2943
2872.06	0.2981
2863.15	0.3401
2854.24	0.5546
2845.33	0.681
2836.41	0.7414
2827.5	0.7686
2818.59	0.7846
2809.68	0.8015
2800.77	0.8143
2791.85	0.8264
2782.94	0.8368
2774.03	0.8417
2765.12	0.8425
2756.21	0.8381
2747.29	0.8324
2738.38	0.8386
2729.47	0.8476
2720.56	0.8563
2711.65	0.8626
2702.73	0.867
2693.82	0.869
2684.91	0.8686
2676	0.8674
2667.09	0.8674
2658.17	0.8675
2649.26	0.8682
2640.35	0.8702
2631.44	0.8722
2622.52	0.8741
2613.61	0.8762
2604.7	0.8789
2595.79	0.8817
2586.88	0.8845
2577.96	0.887
2569.05	0.8897
2560.14	0.8924
2551.23	0.8951
2542.32	0.8967
2533.4	0.8982
2524.49	0.8996
2515.58	0.9005
2506.67	0.9014
2497.76	0.9012
2488.84	0.9011
2479.93	0.9009
2471.02	0.9006
2462.11	0.9001
2453.19	0.8987
2444.28	0.8975
2435.37	0.8985
2426.46	0.9005
2417.55	0.8979
2408.63	0.896
2399.72	0.9007
2390.81	0.9166
2381.9	0.9274
2372.99	0.9272
2364.07	0.9245
2355.16	0.9207
2346.25	0.917
2337.34	0.9137
2328.43	0.9117
2319.51	0.9099
2310.6	0.9079
2301.69	0.9069
2292.78	0.9062
2283.87	0.9055
2274.95	0.9049
2266.04	0.9044
2257.13	0.9044
2248.22	0.9053
2239.3	0.9063
2230.39	0.9073
2221.48	0.9085
2212.57	0.9096
2203.66	0.9106
2194.74	0.9111
2185.83	0.9112
2176.92	0.9092
2168.01	0.9079
2159.1	0.9075
2150.18	0.9073
2141.27	0.9075
2132.36	0.9081
2123.45	0.9098
2114.54	0.911
2105.62	0.912
2096.71	0.9118
2087.8	0.9118
2078.89	0.9115
2069.98	0.9107
2061.06	0.91
2052.15	0.9094
2043.24	0.909
2034.33	0.9087
2025.41	0.9085
2016.5	0.9085
2007.59	0.9085
1998.68	0.9088
1989.77	0.9091
1980.85	0.9093
1971.94	0.9095
1963.03	0.9088
1954.12	0.9062
1945.21	0.9027
1936.29	0.8991
1927.38	0.8953
1918.47	0.8906
1909.56	0.886
1900.65	0.8817
1891.73	0.877
1882.82	0.8728
1873.91	0.8703
1865	0.8751
1856.08	0.8834
1847.17	0.8893
1838.26	0.8948
1829.35	0.8986
1820.44	0.8957
1811.52	0.8928
1802.61	0.8945
1793.7	0.8954
1784.79	0.8937
1775.88	0.8922
1766.96	0.8813
1758.05	0.8741
1749.14	0.8832
1740.23	0.9003
1731.32	0.9016
1722.4	0.8893
1713.49	0.8807
1704.58	0.8809
1695.67	0.8718
1686.76	0.8513
1677.84	0.8204
1668.93	0.7771
1660.02	0.7358
1651.11	0.603
1642.19	0.4569
1633.28	0.3066
1624.37	0.202
1615.46	0.2368
1606.55	0.4334
1597.63	0.5424
1588.72	0.5874
1579.81	0.6471
1570.9	0.743
1561.99	0.765
1553.07	0.7448
1544.16	0.71
1535.25	0.6794
1526.34	0.4842
1517.43	0.181
1508.51	0.2689
1499.6	0.4471
1490.69	0.4404
1481.78	0.3899
1472.87	0.3919
1463.95	0.2886
1455.04	0.3324
1446.13	0.4093
1437.22	0.4677
1428.3	0.4822
1419.39	0.6354
1410.48	0.6168
1401.57	0.7209
1392.66	0.6586
1383.74	0.475
1374.83	0.5343
1365.92	0.5513
1357.01	0.7587
1348.1	0.8188
1339.18	0.762
1330.27	0.6902
1321.36	0.6177
1312.45	0.5256
1303.54	0.4189
1294.62	0.4278
1285.71	0.3888
1276.8	0.3831
1267.89	0.4477
1258.98	0.5476
1250.06	0.6473
1241.15	0.7218
1232.24	0.7794
1223.33	0.7974
1214.41	0.8226
1205.5	0.7762
1196.59	0.6263
1187.68	0.7167
1178.77	0.7488
1169.85	0.6166
1160.94	0.4797
1152.03	0.5981
1143.12	0.7944
1134.21	0.8371
1125.29	0.8489
1116.38	0.8365
1107.47	0.7555
1098.56	0.7694
1089.65	0.7544
1080.73	0.7529
1071.82	0.7696
1062.91	0.7414
1054	0.7039
1045.08	0.7599
1036.17	0.7563
1027.26	0.7661
1018.35	0.8062
1009.44	0.7084
1000.52	0.6509
991.612	0.5865
982.7	0.7341
973.788	0.8159
964.876	0.8262
955.964	0.8273
947.052	0.8214
938.14	0.7888
929.228	0.7747
920.316	0.8
911.404	0.8162
902.492	0.7412
893.579	0.7418
884.667	0.6815
875.755	0.6069
866.843	0.7738
857.931	0.7728
849.019	0.7474
840.107	0.6904
831.195	0.577
822.283	0.3886
813.371	0.3268
804.459	0.615
795.546	0.691
786.634	0.6841
777.722	0.5325
768.81	0.5696
759.898	0.5818
750.986	0.4986
742.074	0.3912
733.162	0.5073
724.25	0.6371
715.338	0.6185
706.426	0.6059
697.513	0.5949
688.601	0.5839
679.689	0.5936
670.777	0.6436
661.865	0.7144
652.953	0.6171
644.041	0.6456
635.129	0.6485
