Infrared Spectrum: SODIUM METASILICATE
Formula: Na2 Si O3  * 5 H2 O
State: SOLID (NUJOL MULL)
Class: COBLENTZ
Instrument: Not specified, most likely a prism, grating, or hybrid spectrometer.
Sampling: TRANSMISSION
Resolution: 4
Origin: MELLON INSTITUTE
MICROMETERS	TRANSMITTANCE
2.063	0.991
2.10402	0.981
2.14504	0.977
2.18607	0.977
2.22709	0.972
2.26811	0.963
2.30913	0.943
2.35015	0.929
2.39117	0.926
2.4322	0.919
2.47322	0.919
2.51424	0.914
2.55526	0.903
2.59628	0.897
2.6373	0.89
2.67833	0.867
2.71935	0.85
2.76037	0.811
2.80139	0.71
2.84241	0.583
2.88343	0.449
2.92446	0.337
2.96548	0.271
3.0065	0.269
3.04752	0.243
3.08854	0.26
3.12956	0.274
3.17059	0.269
3.21161	0.269
3.25263	0.26
3.29365	0.243
3.33467	0.142
3.37569	0.034
3.41672	0.048
3.45774	0.07
3.49876	0.13
3.53978	0.293
3.5808	0.337
3.62182	0.38
3.66285	0.418
3.70387	0.464
3.74489	0.5
3.78591	0.542
3.82693	0.583
3.86795	0.624
3.90898	0.644
3.95	0.667
3.99102	0.674
4.03204	0.675
4.07306	0.67
4.11408	0.653
4.15511	0.644
4.19613	0.632
4.23715	0.622
4.27817	0.619
4.31919	0.627
4.36021	0.632
4.40124	0.651
4.44226	0.655
4.48328	0.679
4.5243	0.699
4.56532	0.722
4.60634	0.747
4.64737	0.763
4.68839	0.79
4.72941	0.804
4.77043	0.811
4.81145	0.825
4.85247	0.835
4.8935	0.842
4.93452	0.849
4.97554	0.852
5.01656	0.861
5.05758	0.861
5.0986	0.862
5.13963	0.864
5.18065	0.861
5.22167	0.862
5.26269	0.864
5.30371	0.866
5.34474	0.859
5.38576	0.859
5.42678	0.85
5.4678	0.847
5.50882	0.854
5.54984	0.855
5.59087	0.84
5.63189	0.833
5.67291	0.831
5.71393	0.816
5.75495	0.802
5.79597	0.789
5.837	0.782
5.87802	0.77
5.91904	0.775
5.96006	0.79
6.00108	0.801
6.0421	0.801
6.08313	0.804
6.12415	0.823
6.16517	0.825
6.20619	0.83
6.24721	0.838
6.28823	0.837
6.32926	0.835
6.37028	0.828
6.4113	0.825
6.45232	0.845
6.49334	0.842
6.53436	0.837
6.57539	0.842
6.61641	0.837
6.65743	0.831
6.69845	0.823
6.73947	0.783
6.78049	0.653
6.82152	0.488
6.86254	0.459
6.90356	0.542
6.94458	0.66
6.9856	0.783
7.02662	0.825
7.06765	0.84
7.10867	0.854
7.14969	0.862
7.19071	0.79
7.23173	0.665
7.27275	0.701
7.31378	0.765
7.3548	0.825
7.39582	0.852
7.43684	0.861
7.47786	0.879
7.51888	0.891
7.55991	0.9
7.60093	0.9
7.64195	0.897
7.68297	0.895
7.72399	0.903
7.76501	0.902
7.80604	0.903
7.84706	0.903
7.88808	0.897
7.9291	0.905
7.97012	0.902
8.01114	0.903
8.05217	0.9
8.09319	0.895
8.13421	0.891
8.17523	0.883
8.21625	0.867
8.25727	0.855
8.2983	0.845
8.33932	0.828
8.38034	0.79
8.42136	0.749
8.46238	0.684
8.50341	0.624
8.54443	0.583
8.58545	0.579
8.62647	0.595
8.66749	0.636
8.70851	0.665
8.74954	0.672
8.79056	0.665
8.83158	0.648
8.8726	0.631
8.91362	0.629
8.95464	0.632
8.99567	0.644
9.03669	0.674
9.07771	0.689
9.11873	0.699
9.15975	0.703
9.20077	0.703
9.2418	0.701
9.28282	0.699
9.32384	0.675
9.36486	0.679
9.40588	0.656
9.4469	0.632
9.48793	0.62
9.52895	0.61
9.56997	0.579
9.61099	0.536
9.65201	0.502
9.69303	0.451
9.73406	0.421
9.77508	0.373
9.8161	0.355
9.85712	0.334
9.89814	0.322
9.93916	0.301
9.98019	0.289
10.0212	0.279
10.0622	0.272
10.1033	0.267
10.1443	0.265
10.1853	0.264
10.2263	0.262
10.2673	0.264
10.3084	0.272
10.3494	0.289
10.3904	0.31
10.4314	0.336
10.4724	0.355
10.5135	0.385
10.5545	0.403
10.5955	0.421
10.6365	0.442
10.6776	0.457
10.7186	0.468
10.7596	0.476
10.8006	0.483
10.8416	0.492
10.8827	0.495
10.9237	0.504
10.9647	0.512
11.0057	0.521
11.0467	0.528
11.0878	0.54
11.1288	0.543
11.1698	0.543
11.2108	0.543
11.2519	0.542
11.2929	0.538
11.3339	0.533
11.3749	0.526
11.4159	0.524
11.457	0.514
11.498	0.511
11.539	0.504
11.58	0.497
11.6211	0.49
11.6621	0.475
11.7031	0.461
11.7441	0.445
11.7851	0.42
11.8262	0.403
11.8672	0.384
11.9082	0.365
11.9492	0.346
11.9902	0.337
12.0313	0.336
12.0723	0.343
12.1133	0.368
12.1543	0.399
12.1954	0.449
12.2364	0.492
12.2774	0.531
12.3184	0.562
12.3594	0.593
12.4005	0.624
12.4415	0.631
12.4825	0.643
12.5235	0.651
12.5646	0.653
12.6056	0.629
12.6466	0.61
12.6876	0.591
12.7286	0.552
12.7697	0.488
12.8107	0.449
12.8517	0.427
12.8927	0.423
12.9337	0.451
12.9748	0.488
13.0158	0.53
13.0568	0.564
13.0978	0.581
13.1389	0.583
13.1799	0.586
13.2209	0.583
13.2619	0.578
13.3029	0.576
13.344	0.571
13.385	0.564
13.426	0.545
13.467	0.533
13.5081	0.519
13.5491	0.502
13.5901	0.487
13.6311	0.473
13.6721	0.463
13.7132	0.449
13.7542	0.435
13.7952	0.425
13.8362	0.416
13.8772	0.413
13.9183	0.406
13.9593	0.403
14.0003	0.403
14.0413	0.403
14.0824	0.406
14.1234	0.413
14.1644	0.423
14.2054	0.444
14.2464	0.459
14.2875	0.471
14.3285	0.476
14.3695	0.485
14.4105	0.493
14.4515	0.504
14.4926	0.523
14.5336	0.528
14.5746	0.538
14.6156	0.552
14.6567	0.557
14.6977	0.566
14.7387	0.569
14.7797	0.576
14.8207	0.588
14.8618	0.593
14.9028	0.595
14.9438	0.6
14.9848	0.602
15.0259	0.603
15.0669	0.605
15.1079	0.61
15.1489	0.619
15.1899	0.619
15.231	0.627
15.272	0.629
15.313	0.629
15.354	0.631
15.395	0.631
15.4361	0.631
15.4771	0.631
15.5181	0.634
15.5591	0.631
15.6002	0.639
15.6412	0.643
15.6822	0.641
15.7232	0.641
15.7642	0.643
15.8053	0.646
15.8463	0.648
15.8873	0.653
15.9283	0.655
15.9694	0.655
