Infrared Spectrum: Alpha,Alpha'-DIACETYL-4,4'-DISULFO-GLUTARANILIDE DISODIUM SALT
Formula: C21 H20 N2 Na2 O10 S2
State: SOLID (KBr PELLET)
Melting point: ABOVE 300 C
Class: COBLENTZ
Instrument: Not specified, most likely a prism, grating, or hybrid spectrometer.
Sampling: TRANSMISSION
Resolution: 4
Origin: EASTMAN KODAK COMPANY, RESEARCH LABORATORIES, ROCHESTER, N.Y.
MICROMETERS	TRANSMITTANCE
2.08	0.838
2.11988	0.833
2.15977	0.833
2.19965	0.838
2.23954	0.83
2.27942	0.834
2.31931	0.831
2.35919	0.831
2.39908	0.834
2.43896	0.834
2.47884	0.83
2.51873	0.828
2.55861	0.831
2.5985	0.828
2.63838	0.839
2.67827	0.838
2.71815	0.821
2.75803	0.702
2.79792	0.545
2.8378	0.442
2.87769	0.377
2.91757	0.362
2.95746	0.383
2.99734	0.403
3.03723	0.379
3.07711	0.367
3.11699	0.41
3.15688	0.5
3.19676	0.555
3.23665	0.616
3.27653	0.617
3.31642	0.604
3.3563	0.66
3.39618	0.714
3.43607	0.684
3.47595	0.745
3.51584	0.785
3.55572	0.816
3.59561	0.816
3.63549	0.818
3.67538	0.828
3.71526	0.843
3.75514	0.851
3.79503	0.852
3.83491	0.851
3.8748	0.851
3.91468	0.852
3.95457	0.864
3.99445	0.856
4.03434	0.861
4.07422	0.854
4.1141	0.857
4.15399	0.849
4.19387	0.859
4.23376	0.864
4.27364	0.861
4.31353	0.864
4.35341	0.861
4.39329	0.852
4.43318	0.856
4.47306	0.854
4.51295	0.856
4.55283	0.851
4.59272	0.854
4.6326	0.861
4.67249	0.851
4.71237	0.852
4.75225	0.859
4.79214	0.849
4.83202	0.852
4.87191	0.857
4.91179	0.857
4.95168	0.854
4.99156	0.857
5.03144	0.859
5.07133	0.856
5.11121	0.857
5.1511	0.849
5.19098	0.843
5.23087	0.848
5.27075	0.849
5.31064	0.849
5.35052	0.852
5.3904	0.862
5.43029	0.857
5.47017	0.849
5.51006	0.849
5.54994	0.839
5.58983	0.828
5.62971	0.818
5.6696	0.808
5.70948	0.776
5.74936	0.717
5.78925	0.517
5.82913	0.194
5.86902	0.156
5.9089	0.258
5.94879	0.29
5.98867	0.258
6.02855	0.214
6.06844	0.22
6.10832	0.276
6.14821	0.408
6.18809	0.452
6.22798	0.377
6.26786	0.187
6.30775	0.318
6.34763	0.578
6.38751	0.648
6.4274	0.638
6.46728	0.357
6.50717	0.217
6.54705	0.192
6.58694	0.207
6.62682	0.338
6.66671	0.393
6.70659	0.416
6.74647	0.506
6.78636	0.643
6.82624	0.679
6.86613	0.684
6.90601	0.668
6.9459	0.611
6.98578	0.596
7.02566	0.557
7.06555	0.545
7.10543	0.527
7.14532	0.352
7.1852	0.292
7.22509	0.457
7.26497	0.527
7.30486	0.534
7.34474	0.416
7.38462	0.357
7.42451	0.375
7.46439	0.457
7.50428	0.513
7.54416	0.529
7.58405	0.55
7.62393	0.498
7.66381	0.429
7.7037	0.428
7.74358	0.485
7.78347	0.539
7.82335	0.549
7.86324	0.549
7.90312	0.527
7.94301	0.477
7.98289	0.411
8.02277	0.343
8.06266	0.258
8.10254	0.207
8.14243	0.166
8.18231	0.129
8.2222	0.091
8.26208	0.084
8.30197	0.075
8.34185	0.063
8.38173	0.052
8.42162	0.045
8.4615	0.052
8.50139	0.065
8.54127	0.096
8.58116	0.133
8.62104	0.197
8.66092	0.246
8.70081	0.279
8.74069	0.328
8.78058	0.321
8.82046	0.187
8.86035	0.151
8.90023	0.158
8.94012	0.251
8.98	0.387
9.01988	0.467
9.05977	0.54
9.09965	0.627
9.13954	0.678
9.17942	0.697
9.21931	0.71
9.25919	0.717
9.29907	0.725
9.33896	0.735
9.37884	0.735
9.41873	0.728
9.45861	0.678
9.4985	0.442
9.53838	0.3
9.57827	0.207
9.61815	0.155
9.65803	0.168
9.69792	0.346
9.7378	0.566
9.77769	0.643
9.81757	0.602
9.85746	0.393
9.89734	0.282
9.93723	0.387
9.97711	0.614
10.017	0.699
10.0569	0.73
10.0968	0.754
10.1366	0.759
10.1765	0.767
10.2164	0.764
10.2563	0.761
10.2962	0.759
10.3361	0.758
10.376	0.75
10.4158	0.754
10.4557	0.754
10.4956	0.748
10.5355	0.754
10.5754	0.748
10.6153	0.746
10.6551	0.748
10.695	0.766
10.7349	0.79
10.7748	0.792
10.8147	0.795
10.8546	0.799
10.8945	0.792
10.9343	0.785
10.9742	0.776
11.0141	0.763
11.054	0.759
11.0939	0.758
11.1338	0.761
11.1736	0.761
11.2135	0.766
11.2534	0.767
11.2933	0.776
11.3332	0.787
11.3731	0.797
11.4129	0.8
11.4528	0.799
11.4927	0.8
11.5326	0.794
11.5725	0.781
11.6124	0.776
11.6523	0.766
11.6921	0.74
11.732	0.725
11.7719	0.678
11.8118	0.614
11.8517	0.549
11.8916	0.496
11.9314	0.46
11.9713	0.429
12.0112	0.418
12.0511	0.408
12.091	0.444
12.1309	0.478
12.1708	0.545
12.2106	0.596
12.2505	0.655
12.2904	0.715
12.3303	0.756
12.3702	0.763
12.4101	0.764
12.4499	0.771
12.4898	0.776
12.5297	0.79
12.5696	0.782
12.6095	0.769
12.6494	0.777
12.6892	0.767
12.7291	0.763
12.769	0.761
12.8089	0.754
12.8488	0.743
12.8887	0.723
12.9286	0.717
12.9684	0.707
13.0083	0.702
13.0482	0.696
13.0881	0.668
13.128	0.655
13.1679	0.645
13.2077	0.64
13.2476	0.632
13.2875	0.63
13.3274	0.614
13.3673	0.617
13.4072	0.596
13.4471	0.575
13.4869	0.568
13.5268	0.565
13.5667	0.56
13.6066	0.557
13.6465	0.544
13.6864	0.531
13.7262	0.524
13.7661	0.516
13.806	0.498
13.8459	0.483
13.8858	0.473
13.9257	0.439
13.9655	0.416
14.0054	0.392
14.0453	0.352
14.0852	0.318
14.1251	0.285
14.165	0.258
14.2049	0.245
14.2447	0.217
14.2846	0.218
14.3245	0.22
14.3644	0.236
14.4043	0.251
14.4442	0.299
14.484	0.359
14.5239	0.436
14.5638	0.467
14.6037	0.496
14.6436	0.519
14.6835	0.529
14.7234	0.539
14.7632	0.547
14.8031	0.552
14.843	0.542
14.8829	0.55
14.9228	0.545
14.9627	0.557
15.0025	0.563
15.0424	0.575
15.0823	0.571
15.1222	0.581
15.1621	0.584
15.202	0.586
15.2418	0.589
15.2817	0.593
15.3216	0.596
15.3615	0.598
15.4014	0.601
15.4413	0.606
15.4812	0.598
15.521	0.606
15.5609	0.614
15.6008	0.601
15.6407	0.607
15.6806	0.601
15.7205	0.599
15.7603	0.598
15.8002	0.594
15.8401	0.593
15.88	0.599
15.9199	0.602
15.9598	0.598
15.9997	0.599
