Infrared Spectrum: PHOSPHOROTHIOLO THIONATE, O,O-DIETHYL-S-(1-ETHOXY-2-METHYLPROPYL)-
Formula: C10 H23 O3 P S2
Class: COBLENTZ
Instrument: Not specified, most likely a prism, grating, or hybrid spectrometer.
Sampling: TRANSMISSION
Path length: SMEAR
Resolution: 4
Origin: TENNESSEE EASTMAN COMPANY, RESEARCH LABORATORIES
MICROMETERS	TRANSMITTANCE
2.082	0.945
2.12191	0.945
2.16182	0.948
2.20173	0.951
2.24164	0.948
2.28155	0.935
2.32146	0.933
2.36137	0.941
2.40128	0.946
2.44119	0.948
2.4811	0.946
2.52101	0.953
2.56092	0.96
2.60083	0.965
2.64074	0.963
2.68065	0.971
2.72056	0.96
2.76047	0.966
2.80038	0.96
2.84029	0.961
2.8802	0.965
2.92011	0.965
2.96002	0.966
2.99993	0.968
3.03984	0.966
3.07975	0.966
3.11966	0.965
3.15957	0.961
3.19948	0.958
3.23939	0.961
3.2793	0.953
3.31921	0.878
3.35912	0.431
3.39903	0.615
3.43894	0.628
3.47885	0.696
3.51876	0.881
3.55867	0.92
3.59858	0.946
3.63849	0.956
3.6784	0.965
3.71831	0.97
3.75822	0.981
3.79813	0.995
3.83804	0.986
3.87795	0.985
3.91786	0.985
3.95777	0.986
3.99768	0.991
4.03759	0.99
4.0775	0.988
4.11741	0.986
4.15732	0.986
4.19723	0.991
4.23714	1.023
4.27705	1.038
4.31696	1
4.35687	0.973
4.39678	0.991
4.43669	0.995
4.4766	0.995
4.51651	0.996
4.55642	0.998
4.59633	0.998
4.63624	0.998
4.67615	0.998
4.71606	0.998
4.75597	1
4.79588	1.001
4.83579	1.003
4.8757	1.003
4.91561	1.003
4.95552	1.005
4.99543	1.005
5.03534	1.005
5.07525	1.001
5.11516	1
5.15507	1
5.19498	1.003
5.23489	1.001
5.2748	1.003
5.31471	1.003
5.35462	1
5.39453	0.991
5.43444	0.981
5.47435	0.978
5.51426	0.97
5.55417	0.968
5.59408	0.968
5.63399	0.985
5.6739	0.973
5.71381	0.978
5.75372	0.97
5.79363	0.97
5.83354	0.978
5.87345	0.99
5.91336	0.963
5.95327	0.988
5.99318	0.976
6.03309	0.981
6.073	0.993
6.11291	0.99
6.15282	0.986
6.19273	0.995
6.23264	0.988
6.27255	0.996
6.31246	0.996
6.35237	0.995
6.39228	1.001
6.43219	0.97
6.4721	0.991
6.51201	0.976
6.55192	0.978
6.59183	0.961
6.63174	0.943
6.67165	0.95
6.71156	0.846
6.75147	0.746
6.79138	0.685
6.83129	0.713
6.8712	0.713
6.91111	0.696
6.95102	0.781
6.99093	0.875
7.03084	0.891
7.07075	0.888
7.11066	0.821
7.15057	0.745
7.19048	0.641
7.23039	0.658
7.2703	0.786
7.31022	0.77
7.35013	0.808
7.39004	0.911
7.42995	0.91
7.46986	0.865
7.50977	0.855
7.54968	0.851
7.58959	0.893
7.6295	0.895
7.66941	0.88
7.70932	0.86
7.74923	0.843
7.78914	0.866
7.82905	0.891
7.86896	0.918
7.90887	0.933
7.94878	0.945
7.98869	0.92
8.0286	0.876
8.06851	0.883
8.10842	0.906
8.14833	0.918
8.18824	0.938
8.22815	0.948
8.26806	0.951
8.30797	0.918
8.34788	0.93
8.38779	0.895
8.4277	0.813
8.46761	0.791
8.50752	0.775
8.54743	0.72
8.58734	0.66
8.62725	0.658
8.66716	0.683
8.70707	0.68
8.74698	0.676
8.78689	0.691
8.8268	0.7
8.86671	0.665
8.90662	0.603
8.94653	0.58
8.98644	0.535
9.02635	0.475
9.06626	0.39
9.10617	0.368
9.14608	0.423
9.18599	0.466
9.2259	0.471
9.26581	0.48
9.30572	0.491
9.34563	0.511
9.38554	0.535
9.42545	0.501
9.46536	0.45
9.50527	0.37
9.54518	0.321
9.58509	0.3
9.625	0.296
9.66491	0.295
9.70482	0.271
9.74473	0.21
9.78464	0.188
9.82455	0.185
9.86446	0.24
9.90437	0.333
9.94428	0.455
9.98419	0.57
10.0241	0.643
10.064	0.681
10.1039	0.7
10.1438	0.688
10.1837	0.646
10.2236	0.556
10.2636	0.485
10.3035	0.378
10.3434	0.321
10.3833	0.29
10.4232	0.273
10.4631	0.273
10.503	0.281
10.5429	0.326
10.5828	0.366
10.6227	0.418
10.6627	0.471
10.7026	0.528
10.7425	0.576
10.7824	0.626
10.8223	0.691
10.8622	0.755
10.9021	0.808
10.942	0.85
10.9819	0.87
11.0218	0.885
11.0618	0.893
11.1017	0.903
11.1416	0.903
11.1815	0.883
11.2214	0.836
11.2613	0.831
11.3012	0.843
11.3411	0.861
11.381	0.876
11.4209	0.895
11.4609	0.92
11.5008	0.93
11.5407	0.943
11.5806	0.948
11.6205	0.948
11.6604	0.95
11.7003	0.948
11.7402	0.936
11.7801	0.926
11.82	0.916
11.86	0.898
11.8999	0.863
11.9398	0.825
11.9797	0.765
12.0196	0.7
12.0595	0.668
12.0994	0.651
12.1393	0.648
12.1792	0.646
12.2191	0.63
12.2591	0.601
12.299	0.566
12.3389	0.538
12.3788	0.521
12.4187	0.496
12.4586	0.475
12.4985	0.458
12.5384	0.453
12.5783	0.456
12.6183	0.465
12.6582	0.476
12.6981	0.49
12.738	0.51
12.7779	0.531
12.8178	0.551
12.8577	0.573
12.8976	0.595
12.9375	0.623
12.9774	0.661
13.0174	0.706
13.0573	0.741
13.0972	0.768
13.1371	0.796
13.177	0.813
13.2169	0.833
13.2568	0.856
13.2967	0.861
13.3366	0.865
13.3765	0.871
13.4165	0.873
13.4564	0.871
13.4963	0.865
13.5362	0.853
13.5761	0.84
13.616	0.815
13.6559	0.801
13.6958	0.791
13.7357	0.786
13.7756	0.783
13.8156	0.781
13.8555	0.776
13.8954	0.768
13.9353	0.765
13.9752	0.766
14.0151	0.775
14.055	0.793
14.0949	0.808
14.1348	0.828
14.1747	0.85
14.2147	0.858
14.2546	0.863
14.2945	0.868
14.3344	0.871
14.3743	0.873
14.4142	0.873
14.4541	0.873
14.494	0.873
14.5339	0.873
14.5738	0.871
14.6138	0.868
14.6537	0.863
14.6936	0.856
14.7335	0.846
14.7734	0.84
14.8133	0.831
14.8532	0.813
14.8931	0.801
14.933	0.783
14.9729	0.763
15.0129	0.733
15.0528	0.691
15.0927	0.663
15.1326	0.626
15.1725	0.588
15.2124	0.545
15.2523	0.52
15.2922	0.5
15.3321	0.495
15.372	0.493
15.412	0.491
15.4519	0.491
15.4918	0.491
15.5317	0.491
15.5716	0.493
15.6115	0.496
15.6514	0.503
15.6913	0.51
15.7312	0.528
15.7711	0.538
15.8111	0.553
15.851	0.575
15.8909	0.606
15.9308	0.615
15.9707	0.626
