Infrared Spectrum: Purine-8(9H)-thione, 7,9-bis-(piperidinomethyl)-
Formula: C17 H26 N6 S
State: SOLID (0.8 mg / 650 mg KBr DISC)
Class: COBLENTZ III
Instrument: PERKIN-ELMER 21 (GRATING)
Instrument parameters: FILTER CHANGE ABOUT 1025 CM^-^1
Sampling: TRANSMISSION
Resolution: 2
Origin: SOUTHERN RESEARCH INSTITUTE
1/CM	TRANSMITTANCE
602	0.4691
611	0.4731
620	0.4897
629	0.4892
638	0.5173
647	0.5254
656	0.4642
665	0.4151
674	0.5248
683	0.5317
692	0.5883
701	0.5809
710	0.5637
719	0.5393
728	0.4878
737	0.5282
746	0.5588
755	0.4972
764	0.4414
773	0.4779
782	0.3226
791	0.4567
800	0.3299
809	0.335
818	0.4723
827	0.5122
836	0.6041
845	0.554
854	0.4877
863	0.4794
872	0.5826
881	0.5603
890	0.522
899	0.5023
908	0.461
917	0.4492
926	0.4904
935	0.3817
944	0.2894
953	0.2775
962	0.3593
971	0.4333
980	0.3996
989	0.2821
998	0.1777
1007	0.3492
1016	0.3249
1025	0.3096
1034	0.4463
1043	0.5713
1052	0.5633
1061	0.5216
1070	0.4002
1079	0.4195
1088	0.4552
1097	0.3485
1106	0.201
1115	0.2151
1124	0.3718
1133	0.4266
1142	0.3826
1151	0.2915
1160	0.2284
1169	0.28
1178	0.1818
1187	0.3671
1196	0.3889
1205	0.3139
1214	0.4285
1223	0.4234
1232	0.3152
1241	0.2157
1250	0.2721
1259	0.2335
1268	0.1778
1277	0.1006
1286	0.0899
1295	0.1498
1304	0.2192
1313	0.2049
1322	0.1732
1331	0.1956
1340	0.3633
1349	0.2838
1358	0.2252
1367	0.1612
1376	0.2434
1385	0.1757
1394	0.1714
1403	0.354
1412	0.425
1421	0.177
1430	0.1385
1439	0.1922
1448	0.3112
1457	0.2259
1466	0.0936
1475	0.2014
1484	0.4171
1493	0.549
1502	0.6406
1511	0.7127
1520	0.7549
1529	0.7528
1538	0.7509
1547	0.7394
1556	0.7019
1565	0.6944
1574	0.6354
1583	0.4929
1592	0.3368
1601	0.322
1610	0.6295
1619	0.7062
1628	0.7214
1637	0.7362
1646	0.7414
1655	0.7428
1664	0.7443
1673	0.7444
1682	0.7438
1691	0.742
1700	0.7387
1709	0.7349
1718	0.7314
1727	0.7288
1736	0.728
1745	0.727
1754	0.7254
1763	0.7228
1772	0.7198
1781	0.7161
1790	0.7108
1799	0.7024
1808	0.6973
1817	0.6988
1826	0.6974
1835	0.6874
1844	0.6738
1853	0.6659
1862	0.6776
1871	0.6871
1880	0.6861
1889	0.6783
1898	0.6714
1907	0.6723
1916	0.6813
1925	0.682
1934	0.6807
1943	0.6785
1952	0.6761
1961	0.6735
1970	0.6711
1979	0.6696
1988	0.6676
1997	0.6651
2006	0.6602
2015	0.6545
2024	0.6497
2033	0.6472
2042	0.6459
2051	0.6429
2060	0.6358
2069	0.6295
2078	0.6278
2087	0.6265
2096	0.6253
2105	0.6232
2114	0.6207
2123	0.6187
2132	0.6166
2141	0.6143
2150	0.6117
2159	0.6092
2168	0.6065
2177	0.6038
2186	0.6012
2195	0.5985
2204	0.5961
2213	0.5938
2222	0.5915
2231	0.5898
2240	0.5881
2249	0.5863
2258	0.5847
2267	0.5828
2276	0.5794
2285	0.5768
2294	0.5746
2303	0.5729
2312	0.5714
2321	0.5699
2330	0.5649
2339	0.5647
2348	0.5647
2357	0.5643
2366	0.5626
2375	0.5603
2384	0.5572
2393	0.5543
2402	0.552
2411	0.5496
2420	0.5471
2429	0.5445
2438	0.542
2447	0.5389
2456	0.5317
2465	0.5279
2474	0.5255
2483	0.5231
2492	0.5211
2501	0.5191
2510	0.5168
2519	0.5143
2528	0.5117
2537	0.5094
2546	0.5073
2555	0.5046
2564	0.5005
2573	0.4958
2582	0.4907
2591	0.4845
2600	0.4783
2609	0.4712
2618	0.463
2627	0.4546
2636	0.4461
2645	0.4376
2654	0.428
2663	0.4186
2672	0.411
2681	0.4033
2690	0.3961
2699	0.3896
2708	0.383
2717	0.3753
2726	0.3681
2735	0.3613
2744	0.3538
2753	0.3456
2762	0.3249
2771	0.2915
2780	0.2792
2789	0.2795
2798	0.2799
2807	0.277
2816	0.2742
2825	0.2742
2834	0.2886
2843	0.3241
2852	0.3332
2861	0.3059
2870	0.2691
2879	0.2148
2888	0.1721
2897	0.1635
2906	0.1656
2915	0.2132
2924	0.2709
2933	0.3692
2942	0.4191
2951	0.4814
2960	0.515
2969	0.5174
2978	0.5073
2987	0.4945
2996	0.4825
3005	0.4743
3014	0.4764
3023	0.4805
3032	0.4855
3041	0.4924
3050	0.4993
3059	0.5067
3068	0.5118
3077	0.5136
3086	0.5118
3095	0.5099
3104	0.5067
3113	0.5033
3122	0.5001
3131	0.4968
3140	0.4935
3149	0.491
3158	0.4888
3167	0.4866
3176	0.4844
3185	0.4817
3194	0.479
3203	0.4764
3212	0.4736
3221	0.4707
3230	0.4679
3239	0.465
3248	0.4619
3257	0.4586
3266	0.4552
3275	0.4518
3284	0.4483
3293	0.4448
3302	0.4404
3311	0.4359
3320	0.4311
3329	0.426
3338	0.4213
3347	0.4169
3356	0.4126
3365	0.4092
3374	0.4071
3383	0.4047
3392	0.4
3401	0.3975
3410	0.3972
3419	0.3971
3428	0.3979
3437	0.3988
3446	0.3998
3455	0.4009
3464	0.4022
3473	0.4036
3482	0.405
3491	0.4068
3500	0.4087
3509	0.4106
3518	0.4129
3527	0.4154
3536	0.4178
3545	0.42
3554	0.4223
3563	0.4244
3572	0.4261
3581	0.428
3590	0.43
3599	0.432
3608	0.4336
3617	0.4348
3626	0.4359
3635	0.4359
3644	0.4354
3653	0.4347
3662	0.434
3671	0.4336
3680	0.434
3689	0.4366
3698	0.4347
3707	0.4304
3716	0.4291
3725	0.4292
3734	0.4292
3743	0.4288
3752	0.4284
3761	0.4281
3770	0.4279
3779	0.4261
3788	0.4244
3797	0.4248
3806	0.4245
3815	0.4238
3824	0.4227
3833	0.4222
3842	0.4218
3851	0.4202
3860	0.4187
3869	0.4169
3878	0.4152
3887	0.4135
3896	0.412
3905	0.4105
3914	0.409
3923	0.4076
3932	0.4062
3941	0.4047
3950	0.4032
3959	0.4017
3968	0.4013
3977	0.4009
3986	0.4004
3995	0.4
