Infrared Spectrum: 3-ETHOXYCARBONYL-17-OXAESTRA-1,3,5(10)-TRIEN-16-ONE
Formula: C20 H24 O4
State: SOLID (KBr DISC)
Class: COBLENTZ III
Instrument: BECKMAN IR-7
Sampling: TRANSMISSION
Resolution: 4
Origin: THE WORCESTER FOUNDATION FOR EXPERIMENTAL BIOLOGY, Neal L. McNiven
1/CM	TRANSMITTANCE
601.456	0.647
610.192	0.607
618.929	0.59
627.665	0.572
636.401	0.582
645.138	0.604
653.874	0.629
662.61	0.628
671.347	0.633
680.083	0.613
688.819	0.577
697.556	0.402
706.292	0.571
715.028	0.589
723.765	0.605
732.501	0.547
741.237	0.436
749.974	0.5119
758.71	0.563
767.446	0.602
776.183	0.562
784.919	0.45
793.655	0.489
802.392	0.467
811.128	0.441
819.864	0.339
828.601	0.279
837.337	0.381
846.074	0.396
854.81	0.322
863.546	0.42
872.283	0.452
881.019	0.372
889.755	0.21
898.492	0.227
907.228	0.24
915.964	0.264
924.701	0.269
933.437	0.302
942.173	0.246
950.91	0.271
959.646	0.108
968.382	0.112
977.119	0.065
985.855	0.101
994.591	0.178
1003.33	0.25
1012.06	0.188
1020.8	0.067
1029.54	0.198
1038.27	0.266
1047.01	0.179
1055.75	0.114
1064.48	0.123
1073.22	0.161
1081.95	0.15
1090.69	0.083
1099.43	0.048
1108.16	0.127
1116.9	0.109
1125.64	0.102
1134.37	0.085
1143.11	0.052
1151.85	0.05
1160.58	0.064
1169.32	0.055
1178.05	0.08
1186.79	0.05
1195.53	0.035
1204.26	0.039
1213	0.05
1221.74	0.052
1230.47	0.083
1239.21	0.083
1247.95	0.167
1256.68	0.219
1265.42	0.137
1274.15	0.108
1282.89	0.161
1291.63	0.078
1300.36	0.149
1309.1	0.211
1317.84	0.302
1326.57	0.135
1335.31	0.228
1344.04	0.234
1352.78	0.245
1361.52	0.297
1370.25	0.232
1378.99	0.273
1387.73	0.216
1396.46	0.364
1405.2	0.407
1413.94	0.3
1422.67	0.3079
1431.41	0.331
1440.14	0.313
1448.88	0.229
1457.62	0.149
1466.35	0.248
1475.09	0.292
1483.83	0.187
1492.56	0.107
1501.3	0.33
1510.04	0.4579
1518.77	0.574
1527.51	0.637
1536.24	0.662
1544.98	0.665
1553.72	0.658
1562.45	0.616
1571.19	0.537
1579.93	0.397
1588.66	0.491
1597.4	0.3981
1606.14	0.316
1614.87	0.463
1623.61	0.508
1632.34	0.483
1641.08	0.456
1649.82	0.435
1658.55	0.385
1667.29	0.322
1676.03	0.241
1684.76	0.2
1693.5	0.161
1702.23	0.083
1710.97	0.042
1719.71	0.01
1728.44	0.048
1737.18	0.072
1745.92	0.07
1754.65	0.032
1763.39	0.079
1772.13	0.208
1780.86	0.305
1789.6	0.381
1798.33	0.44
1807.07	0.49
1815.81	0.561
1824.54	0.601
1833.28	0.63
1842.02	0.659
1850.75	0.696
1859.49	0.709
1868.23	0.708
1876.96	0.691
1885.7	0.694
1894.43	0.707
1903.17	0.728
1911.91	0.737
1920.64	0.741
1929.38	0.742
1938.12	0.741
1946.85	0.736
1955.59	0.719
1964.32	0.731
1973.06	0.731
1981.8	0.732
1990.53	0.732
1999.27	0.731
2008.01	0.7282
2016.74	0.728
2025.48	0.7262
2034.22	0.723
2042.95	0.7211
2051.69	0.719
2060.42	0.718
2069.16	0.717
2077.9	0.7149
2086.63	0.712
2095.37	0.7099
2104.11	0.7078
2112.84	0.7038
2121.58	0.7018
2130.32	0.7
2139.05	0.699
2147.79	0.699
2156.52	0.7034
2165.26	0.707
2174	0.707
2182.73	0.707
2191.47	0.7029
2200.21	0.6984
2208.94	0.6944
2217.68	0.691
2226.42	0.689
2235.15	0.689
2243.89	0.6845
2252.62	0.6784
2261.36	0.6762
2270.1	0.6713
2278.83	0.671
2287.57	0.6652
2296.31	0.6601
2305.04	0.659
2313.78	0.66
2322.51	0.659
2331.25	0.658
2339.99	0.658
2348.72	0.657
2357.46	0.657
2366.2	0.657
2374.93	0.655
2383.67	0.651
2392.41	0.6446
2401.14	0.6371
2409.88	0.6261
2418.61	0.6205
2427.35	0.618
2436.09	0.618
2444.82	0.618
2453.56	0.619
2462.3	0.621
2471.03	0.6227
2479.77	0.624
2488.51	0.624
2497.24	0.6232
2505.98	0.6185
2514.71	0.613
2523.45	0.612
2532.19	0.61
2540.92	0.61
2549.66	0.611
2558.4	0.611
2567.13	0.61
2575.87	0.61
2584.61	0.61
2593.34	0.6088
2602.08	0.6034
2610.81	0.597
2619.55	0.5937
2628.29	0.592
2637.02	0.592
2645.76	0.5916
2654.5	0.5896
2663.23	0.587
2671.97	0.586
2680.7	0.5835
2689.44	0.5794
2698.18	0.579
2706.91	0.5774
2715.65	0.577
2724.39	0.574
2733.12	0.5715
2741.86	0.5646
2750.6	0.5545
2759.33	0.5511
2768.07	0.551
2776.8	0.5481
2785.54	0.5371
2794.28	0.517
2803.01	0.4896
2811.75	0.4582
2820.49	0.4178
2829.22	0.3804
2837.96	0.2951
2846.7	0.246
2855.43	0.2039
2864.17	0.1575
2872.9	0.1433
2881.64	0.1521
2890.38	0.1652
2899.11	0.1736
2907.85	0.1602
2916.59	0.13
2925.32	0.0982
2934.06	0.081
2942.8	0.0842
2951.53	0.0903
2960.27	0.1052
2969	0.1218
2977.74	0.1594
2986.48	0.2148
2995.21	0.2797
3003.95	0.3375
3012.69	0.3565
3021.42	0.3776
3030.16	0.3859
3038.89	0.388
3047.63	0.4023
3056.37	0.412
3065.1	0.402
3073.84	0.4219
3082.58	0.4405
3091.31	0.4691
3100.05	0.4853
3108.79	0.487
3117.52	0.49
3126.26	0.5004
3134.99	0.5104
3143.73	0.513
3152.47	0.513
3161.2	0.513
3169.94	0.5115
3178.68	0.511
3187.41	0.511
3196.15	0.511
3204.89	0.511
3213.62	0.512
3222.36	0.513
3231.09	0.5148
3239.83	0.518
3248.57	0.5171
3257.3	0.5161
3266.04	0.514
3274.78	0.512
3283.51	0.509
3292.25	0.506
3300.98	0.5063
3309.72	0.509
3318.46	0.5078
3327.19	0.5026
3335.93	0.4988
3344.67	0.4972
3353.4	0.4947
3362.14	0.4923
3370.88	0.485
3379.61	0.4812
3388.35	0.4767
3397.08	0.471
3405.82	0.4484
3414.56	0.4265
3423.29	0.418
3432.03	0.4216
3440.77	0.4357
3449.5	0.4525
3458.24	0.4587
3466.98	0.462
3475.71	0.4612
3484.45	0.457
3493.18	0.4549
3501.92	0.4636
3510.66	0.4719
3519.39	0.4799
3528.13	0.4951
3536.87	0.5022
3545.6	0.509
3554.34	0.5091
3563.08	0.5142
3571.81	0.52
3580.55	0.521
3589.28	0.522
3598.02	0.5249
3606.76	0.5313
3615.49	0.533
3624.23	0.5336
3632.97	0.535
3641.7	0.535
3650.44	0.535
3659.17	0.535
3667.91	0.534
3676.65	0.5324
3685.38	0.525
3694.12	0.522
3702.86	0.521
3711.59	0.5238
3720.33	0.5286
3729.07	0.5319
3737.8	0.5359
3746.54	0.537
3755.27	0.532
3764.01	0.528
3772.75	0.523
3781.48	0.521
3790.22	0.522
3798.96	0.5219
3807.69	0.52
3816.43	0.518
3825.17	0.517
3833.9	0.516
3842.64	0.516
3851.37	0.516
3860.11	0.516
3868.85	0.5136
3877.58	0.5075
3886.32	0.505
3895.06	0.5035
3903.79	0.5024
3912.53	0.501
3921.27	0.5
3930	0.4983
3938.74	0.4936
3947.47	0.4903
3956.21	0.4857
3964.95	0.4812
3973.68	0.4798
3982.42	0.4791
3991.16	0.478
