Infrared Spectrum: Urea, 3-cyclohexyl-1-(2-ethylthio)ethyl-1-nitroso-
Formula: C11 H21 N3 O2 S
State: LIQUID (NEAT)
Class: COBLENTZ III
Instrument: PERKIN-ELMER 521 (GRATING)
Instrument parameters: FILTERS AT 3150, 2500, 2000, 1150, 700, 410. GRATING CHANGES: 2000, 630 CM^-^1
Sampling: TRANSMISSION
Path length: CAPILLARY
Resolution: 2
Origin: SOUTHERN RESEARCH INSTITUTE
1/CM	TRANSMITTANCE
247	0.7054
256	0.7554
265	0.8066
274	0.8379
283	0.8571
292	0.8683
301	0.8752
310	0.8804
319	0.8829
328	0.8821
337	0.8722
346	0.8602
355	0.8406
364	0.8119
373	0.8063
382	0.7934
391	0.853
400	0.8958
409	0.8964
418	0.8885
427	0.8711
436	0.8278
445	0.8482
454	0.8532
463	0.8498
472	0.8408
481	0.8261
490	0.8108
499	0.7952
508	0.7795
517	0.762
526	0.7548
535	0.7585
544	0.7607
553	0.7616
562	0.7624
571	0.7621
580	0.7609
589	0.7485
598	0.6481
607	0.7406
616	0.7629
625	0.7758
634	0.784
643	0.7843
652	0.7812
661	0.8157
670	0.8347
679	0.8403
688	0.8475
697	0.8585
706	0.8556
715	0.8529
724	0.8535
733	0.826
742	0.7282
751	0.6452
760	0.6752
769	0.6702
778	0.5707
787	0.6604
796	0.7985
805	0.7446
814	0.6765
823	0.7858
832	0.8355
841	0.8348
850	0.8277
859	0.755
868	0.7582
877	0.7566
886	0.6201
895	0.6572
904	0.6571
913	0.7282
922	0.6819
931	0.5885
940	0.4659
949	0.4667
958	0.639
967	0.5586
976	0.6848
985	0.7059
994	0.7095
1003	0.7293
1012	0.696
1021	0.618
1030	0.5411
1039	0.5372
1048	0.5532
1057	0.5812
1066	0.4991
1075	0.4064
1084	0.405
1093	0.5145
1102	0.6912
1111	0.7461
1120	0.7533
1129	0.6909
1138	0.5941
1147	0.4973
1156	0.4386
1165	0.5003
1174	0.6323
1183	0.6867
1192	0.6732
1201	0.719
1210	0.7308
1219	0.7049
1228	0.6433
1237	0.6202
1246	0.6137
1255	0.6209
1264	0.6094
1273	0.6326
1282	0.6073
1291	0.6511
1300	0.6449
1309	0.6167
1318	0.5732
1327	0.5016
1336	0.5161
1345	0.5766
1354	0.6371
1363	0.6736
1372	0.6037
1381	0.7264
1390	0.7301
1399	0.7182
1408	0.6012
1417	0.5393
1426	0.5625
1435	0.5494
1444	0.4388
1453	0.4365
1462	0.4008
1471	0.3419
1480	0.2938
1489	0.3338
1498	0.4055
1507	0.3607
1516	0.294
1525	0.3074
1534	0.4118
1543	0.5408
1552	0.6644
1561	0.7274
1570	0.7577
1579	0.7788
1588	0.7895
1597	0.7923
1606	0.7903
1615	0.7827
1624	0.7754
1633	0.7879
1642	0.7912
1651	0.7769
1660	0.7372
1669	0.6951
1678	0.6332
1687	0.4876
1696	0.3844
1705	0.3196
1714	0.3032
1723	0.3069
1732	0.3983
1741	0.5746
1750	0.7189
1759	0.7602
1768	0.786
1777	0.8055
1786	0.8135
1795	0.8225
1804	0.8304
1813	0.8372
1822	0.8435
1831	0.8484
1840	0.8527
1849	0.8563
1858	0.8603
1867	0.865
1876	0.8673
1885	0.8696
1894	0.8705
1903	0.8715
1912	0.8721
1921	0.8712
1930	0.8701
1939	0.868
1948	0.8673
1957	0.8719
1966	0.8705
1975	0.87
1984	0.869
1993	0.8681
2002	0.8671
2011	0.8662
2020	0.8658
2029	0.8654
2038	0.8652
2047	0.8652
2056	0.8654
2065	0.8658
2074	0.8652
2083	0.8643
2092	0.8633
2101	0.8623
2110	0.8612
2119	0.8601
2128	0.8592
2137	0.8585
2146	0.8578
2155	0.857
2164	0.8558
2173	0.8546
2182	0.853
2191	0.8513
2200	0.8497
2209	0.8468
2218	0.843
2227	0.8362
2236	0.8312
2245	0.8273
2254	0.8254
2263	0.8288
2272	0.8355
2281	0.8435
2290	0.8477
2299	0.8491
2308	0.8502
2317	0.851
2326	0.8511
2335	0.8509
2344	0.85
2353	0.849
2362	0.848
2371	0.8474
2380	0.8468
2389	0.8463
2398	0.8457
2407	0.8462
2416	0.8467
2425	0.8475
2434	0.8484
2443	0.8486
2452	0.8488
2461	0.848
2470	0.847
2479	0.8465
2488	0.8463
2497	0.8462
2506	0.8461
2515	0.8461
2524	0.8465
2533	0.8463
2542	0.8454
2551	0.8443
2560	0.8428
2569	0.8413
2578	0.8393
2587	0.8367
2596	0.8378
2605	0.8409
2614	0.8399
2623	0.836
2632	0.8293
2641	0.8203
2650	0.811
2659	0.8053
2668	0.8073
2677	0.8162
2686	0.8213
2695	0.8236
2704	0.8253
2713	0.8269
2722	0.8247
2731	0.822
2740	0.8189
2749	0.8147
2758	0.8084
2767	0.8007
2776	0.7911
2785	0.7795
2794	0.7725
2803	0.7717
2812	0.7525
2821	0.7113
2830	0.6594
2839	0.5764
2848	0.3959
2857	0.4477
2866	0.5363
2875	0.5896
2884	0.5564
2893	0.491
2902	0.4256
2911	0.3601
2920	0.3128
2929	0.3086
2938	0.3365
2947	0.3945
2956	0.4655
2965	0.4955
2974	0.5942
2983	0.6777
2992	0.7164
3001	0.7415
3010	0.7555
3019	0.7651
3028	0.7733
3037	0.7811
3046	0.7887
3055	0.7936
3064	0.7979
3073	0.8005
3082	0.8031
3091	0.8049
3100	0.8064
3109	0.8072
3118	0.8076
3127	0.8082
3136	0.8091
3145	0.8106
3154	0.8042
3163	0.8005
3172	0.7984
3181	0.7959
3190	0.7934
3199	0.7909
3208	0.7884
3217	0.7844
3226	0.7803
3235	0.7746
3244	0.7689
3253	0.7611
3262	0.7462
3271	0.7258
3280	0.7019
3289	0.6782
3298	0.6538
3307	0.6257
3316	0.5893
3325	0.5562
3334	0.5397
3343	0.5369
3352	0.5389
3361	0.5469
3370	0.5574
3379	0.5691
3388	0.5797
3397	0.5884
3406	0.5916
3415	0.5809
3424	0.5869
3433	0.638
3442	0.7398
3451	0.7671
3460	0.7823
3469	0.7907
3478	0.7929
3487	0.7936
3496	0.7942
3505	0.7953
3514	0.7969
3523	0.7986
3532	0.8001
3541	0.8013
3550	0.8026
3559	0.8033
3568	0.8029
3577	0.8025
3586	0.8021
3595	0.8021
3604	0.8023
3613	0.8025
3622	0.8027
3631	0.8032
3640	0.8037
3649	0.8042
3658	0.8049
3667	0.8061
3676	0.8072
3685	0.8084
3694	0.8089
3703	0.8091
3712	0.8093
3721	0.8088
3730	0.8082
3739	0.8077
3748	0.8072
3757	0.8067
3766	0.8066
3775	0.8067
3784	0.8069
3793	0.807
