Infrared Spectrum: Triazole, 3H-1,2,4-,5-amino-3-anilino-
Formula: C8 H9 N5
State: SOLID (OIL MULL)
Class: COBLENTZ III
Instrument: PERKIN-ELMER 21 (GRATING)
Instrument parameters: NaCl PRISM
Sampling: TRANSMISSION
Resolution: 2
Origin: SMITH, KLINE & FRENCH LABS.
1/CM	TRANSMITTANCE
673	0.7239
682	0.7127
691	0.387
700	0.5413
709	0.5625
718	0.5516
727	0.554
736	0.508
745	0.2288
754	0.5211
763	0.6598
772	0.674
781	0.7016
790	0.742
799	0.773
808	0.7878
817	0.7798
826	0.7712
835	0.8136
844	0.837
853	0.8506
862	0.8588
871	0.8515
880	0.8752
889	0.7922
898	0.7602
907	0.8946
916	0.8981
925	0.8984
934	0.896
943	0.8926
952	0.8874
961	0.889
970	0.8796
979	0.8829
988	0.8758
997	0.8567
1006	0.8596
1015	0.8182
1024	0.8816
1033	0.8597
1042	0.8866
1051	0.8712
1060	0.8343
1069	0.4781
1078	0.6882
1087	0.4099
1096	0.6146
1105	0.7709
1114	0.8225
1123	0.8504
1132	0.8582
1141	0.8597
1150	0.8171
1159	0.8475
1168	0.8257
1177	0.7783
1186	0.7733
1195	0.7861
1204	0.7962
1213	0.7862
1222	0.7801
1231	0.7347
1240	0.5119
1249	0.6504
1258	0.8101
1267	0.8005
1276	0.7255
1285	0.7761
1294	0.7892
1303	0.8086
1312	0.7934
1321	0.7874
1330	0.7562
1339	0.77
1348	0.7726
1357	0.7475
1366	0.6835
1375	0.5792
1384	0.667
1393	0.6536
1402	0.5136
1411	0.2556
1420	0.1984
1429	0.2713
1438	0.2875
1447	0.4144
1456	0.4205
1465	0.4308
1474	0.6718
1483	0.7597
1492	0.6524
1501	0.2605
1510	0.7717
1519	0.7261
1528	0.5765
1537	0.6799
1546	0.7363
1555	0.6807
1564	0.6097
1573	0.3455
1582	0.1112
1591	0.1275
1600	0.2494
1609	0.1795
1618	0.1086
1627	0.0958
1636	0.2327
1645	0.531
1654	0.7411
1663	0.7777
1672	0.7999
1681	0.8229
1690	0.8758
1699	0.9035
1708	0.9089
1717	0.9109
1726	0.9152
1735	0.9285
1744	0.9338
1753	0.9352
1762	0.9355
1771	0.9322
1780	0.9281
1789	0.9307
1798	0.9393
1807	0.9435
1816	0.9452
1825	0.943
1834	0.9364
1843	0.9273
1852	0.929
1861	0.9343
1870	0.9371
1879	0.9409
1888	0.9404
1897	0.9375
1906	0.9297
1915	0.9174
1924	0.914
1933	0.9239
1942	0.9306
1951	0.9339
1960	0.9363
1969	0.9383
1978	0.9395
1987	0.9406
1996	0.941
2005	0.941
2014	0.9408
2023	0.9401
2032	0.9395
2041	0.9386
2050	0.9377
2059	0.9368
2068	0.9357
2077	0.9344
2086	0.9331
2095	0.9321
2104	0.9315
2113	0.9308
2122	0.9294
2131	0.9262
2140	0.9225
2149	0.9211
2158	0.9232
2167	0.9255
2176	0.9286
2185	0.9309
2194	0.9317
2203	0.93
2212	0.927
2221	0.9239
2230	0.9219
2239	0.9205
2248	0.9208
2257	0.9226
2266	0.9242
2275	0.9261
2284	0.9281
2293	0.9302
2302	0.9327
2311	0.9353
2320	0.9375
2329	0.9367
2338	0.9338
2347	0.9305
2356	0.9271
2365	0.9236
2374	0.9204
2383	0.9172
2392	0.9143
2401	0.9114
2410	0.9085
2419	0.9057
2428	0.9032
2437	0.9008
2446	0.8984
2455	0.8959
2464	0.893
2473	0.8902
2482	0.8873
2491	0.8843
2500	0.8816
2509	0.8789
2518	0.8764
2527	0.8725
2536	0.8682
2545	0.864
2554	0.8599
2563	0.8555
2572	0.8508
2581	0.846
2590	0.8407
2599	0.8354
2608	0.831
2617	0.8242
2626	0.8141
2635	0.8011
2644	0.792
2653	0.7853
2662	0.7804
2671	0.7733
2680	0.763
2689	0.755
2698	0.7476
2707	0.7411
2716	0.7329
2725	0.7209
2734	0.7139
2743	0.709
2752	0.6994
2761	0.6806
2770	0.643
2779	0.5885
2788	0.5515
2797	0.5179
2806	0.4469
2815	0.3144
2824	0.2136
2833	0.2024
2842	0.1988
2851	0.1958
2860	0.1799
2869	0.1331
2878	0.1185
2887	0.1192
2896	0.1276
2905	0.1492
2914	0.1709
2923	0.1967
2932	0.252
2941	0.3053
2950	0.3584
2959	0.4111
2968	0.4634
2977	0.5079
2986	0.5094
2995	0.5074
3004	0.4987
3013	0.4886
3022	0.4786
3031	0.4687
3040	0.4588
3049	0.4488
3058	0.4391
3067	0.426
3076	0.418
3085	0.4144
3094	0.413
3103	0.4138
3112	0.4159
3121	0.4226
3130	0.431
3139	0.432
3148	0.4299
3157	0.4159
3166	0.4084
3175	0.4064
3184	0.4067
3193	0.4189
3202	0.4415
3211	0.4638
3220	0.4862
3229	0.492
3238	0.4768
3247	0.4499
3256	0.4232
3265	0.3966
3274	0.3702
3283	0.3458
3292	0.3413
3301	0.3503
3310	0.3682
3319	0.386
3328	0.3904
3337	0.3956
3346	0.457
3355	0.5226
3364	0.5879
3373	0.6529
3382	0.7175
3391	0.7818
3400	0.8196
3409	0.8659
3418	0.8852
3427	0.893
3436	0.8981
3445	0.9009
3454	0.9036
3463	0.9052
3472	0.9064
3481	0.9067
3490	0.9071
3499	0.9074
3508	0.9076
3517	0.9076
3526	0.9076
3535	0.9067
3544	0.9058
3553	0.9046
3562	0.9033
3571	0.902
3580	0.9002
3589	0.8984
3598	0.8967
3607	0.8949
3616	0.8937
3625	0.8929
3634	0.8921
3643	0.8913
3652	0.8907
3661	0.8902
3670	0.8897
3679	0.8892
3688	0.8887
3697	0.8885
3706	0.8886
3715	0.8887
3724	0.8888
3733	0.8889
3742	0.889
3751	0.889
3760	0.8884
3769	0.8874
3778	0.8865
3787	0.8856
3796	0.8847
3805	0.8838
3814	0.8825
3823	0.881
3832	0.8796
3841	0.8782
3850	0.8768
3859	0.8754
3868	0.874
3877	0.8727
3886	0.8714
3895	0.87
3904	0.8686
3913	0.8672
3922	0.8656
3931	0.8638
3940	0.862
3949	0.8602
3958	0.8585
3967	0.857
3976	0.8556
3985	0.8543
3994	0.853
