Infrared Spectrum: 2-(P-NONYLPHENOXY)-3-METHYL-6-(2-PHENYLETHYL) PYRAZINE
Formula: C28 H36 N2 O
State: LIQUID
Class: COBLENTZ
Instrument: Not specified, most likely a prism, grating, or hybrid spectrometer.
Sampling: TRANSMISSION
Resolution: 4
Origin: WYANDOTTE CHEMICALS CORP., WYANDOTTE, MICHIGAN, USA
MICROMETERS	TRANSMITTANCE
2.014	0.984
2.05489	0.974
2.09579	0.974
2.13668	0.976
2.17757	0.941
2.21847	0.919
2.25936	0.916
2.30026	0.931
2.34115	0.929
2.38204	0.909
2.42294	0.936
2.46383	0.952
2.50472	0.945
2.54562	0.955
2.58651	0.958
2.6274	0.964
2.6683	0.955
2.70919	0.948
2.75009	0.953
2.79098	0.95
2.83187	0.94
2.87277	0.931
2.91366	0.921
2.95455	0.917
2.99545	0.917
3.03634	0.91
3.07723	0.9
3.11813	0.89
3.15902	0.871
3.19991	0.83
3.24081	0.621
3.2817	0.44
3.3226	0.378
3.36349	0.03
3.40438	0.051
3.44528	0.169
3.48617	0.157
3.52706	0.52
3.56796	0.791
3.60885	0.832
3.64974	0.84
3.69064	0.839
3.73153	0.878
3.77243	0.878
3.81332	0.878
3.85421	0.883
3.89511	0.885
3.936	0.897
3.97689	0.898
4.01779	0.9
4.05868	0.9
4.09957	0.895
4.14047	0.895
4.18136	0.892
4.22226	0.873
4.26315	0.866
4.30404	0.868
4.34494	0.871
4.38583	0.892
4.42672	0.902
4.46762	0.914
4.50851	0.917
4.5494	0.922
4.5903	0.917
4.63119	0.919
4.67208	0.914
4.71298	0.917
4.75387	0.917
4.79477	0.926
4.83566	0.91
4.87655	0.893
4.91745	0.9
4.95834	0.89
4.99923	0.897
5.04013	0.9
5.08102	0.897
5.12191	0.902
5.16281	0.871
5.2037	0.869
5.2446	0.893
5.28549	0.873
5.32638	0.818
5.36728	0.854
5.40817	0.871
5.44906	0.9
5.48996	0.898
5.53085	0.871
5.57174	0.845
5.61264	0.863
5.65353	0.84
5.69443	0.832
5.73532	0.825
5.77621	0.797
5.81711	0.654
5.858	0.803
5.89889	0.833
5.93979	0.827
5.98068	0.791
6.02157	0.777
6.06247	0.779
6.10336	0.768
6.14425	0.714
6.18515	0.452
6.22604	0.585
6.26694	0.525
6.30783	0.645
6.34872	0.695
6.38962	0.64
6.43051	0.424
6.4714	0.344
6.5123	0.51
6.55319	0.383
6.59408	0.095
6.63498	0.082
6.67587	0.253
6.71677	0.369
6.75766	0.2
6.79855	0.032
6.83945	0.037
6.88034	0.083
6.92123	0.118
6.96213	0.176
7.00302	0.294
7.04391	0.351
7.08481	0.296
7.1257	0.321
7.1666	0.186
7.20749	0.039
7.24838	0.027
7.28928	0.027
7.33017	0.035
7.37106	0.051
7.41196	0.097
7.45285	0.196
7.49374	0.339
7.53464	0.412
7.57553	0.412
7.61642	0.344
7.65732	0.227
7.69821	0.208
7.73911	0.21
7.78	0.251
7.82089	0.299
7.86179	0.354
7.90268	0.368
7.94357	0.375
7.98447	0.345
8.02536	0.304
8.06625	0.256
8.10715	0.183
8.14804	0.123
8.18894	0.037
8.22983	0.032
8.27072	0.065
8.31162	0.203
8.35251	0.308
8.3934	0.282
8.4343	0.128
8.47519	0.032
8.51608	0.037
8.55698	0.097
8.59787	0.15
8.63877	0.142
8.67966	0.179
8.72055	0.308
8.76145	0.422
8.80234	0.476
8.84323	0.493
8.88413	0.457
8.92502	0.469
8.96591	0.488
9.00681	0.573
9.0477	0.648
9.0886	0.662
9.12949	0.65
9.17038	0.659
9.21128	0.669
9.25217	0.606
9.29306	0.551
9.33396	0.648
9.37485	0.731
9.41574	0.756
9.45664	0.756
9.49753	0.748
9.53842	0.722
9.57932	0.681
9.62021	0.635
9.66111	0.534
9.702	0.426
9.74289	0.426
9.78379	0.352
9.82468	0.184
9.86557	0.196
9.90647	0.421
9.94736	0.503
9.98825	0.544
10.0291	0.625
10.07	0.681
10.1109	0.719
10.1518	0.72
10.1927	0.708
10.2336	0.7
10.2745	0.693
10.3154	0.693
10.3563	0.678
10.3972	0.676
10.4381	0.707
10.479	0.722
10.5199	0.739
10.5608	0.748
10.6017	0.732
10.6426	0.714
10.6834	0.714
10.7243	0.703
10.7652	0.707
10.8061	0.7
10.847	0.724
10.8879	0.744
10.9288	0.753
10.9697	0.75
11.0106	0.717
11.0515	0.691
11.0924	0.686
11.1333	0.683
11.1742	0.662
11.2151	0.64
11.256	0.628
11.2969	0.611
11.3377	0.616
11.3786	0.63
11.4195	0.66
11.4604	0.7
11.5013	0.71
11.5422	0.708
11.5831	0.691
11.624	0.63
11.6649	0.549
11.7058	0.47
11.7467	0.407
11.7876	0.369
11.8285	0.33
11.8694	0.289
11.9103	0.261
11.9511	0.255
11.992	0.272
12.0329	0.309
12.0738	0.375
12.1147	0.45
12.1556	0.508
12.1965	0.577
12.2374	0.614
12.2783	0.65
12.3192	0.674
12.3601	0.702
12.401	0.729
12.4419	0.746
12.4828	0.748
12.5237	0.743
12.5646	0.71
12.6054	0.669
12.6463	0.626
12.6872	0.616
12.7281	0.638
12.769	0.648
12.8099	0.647
12.8508	0.654
12.8917	0.662
12.9326	0.659
12.9735	0.643
13.0144	0.633
13.0553	0.631
13.0962	0.63
13.1371	0.607
13.178	0.565
13.2188	0.525
13.2597	0.474
13.3006	0.405
13.3415	0.342
13.3824	0.321
13.4233	0.342
13.4642	0.363
13.5051	0.39
13.546	0.402
13.5869	0.404
13.6278	0.412
13.6687	0.431
13.7096	0.465
13.7505	0.491
13.7914	0.513
13.8323	0.532
13.8731	0.547
13.914	0.546
13.9549	0.561
13.9958	0.577
14.0367	0.594
14.0776	0.599
14.1185	0.597
14.1594	0.57
14.2003	0.511
14.2412	0.428
14.2821	0.299
14.323	0.202
14.3639	0.16
14.4048	0.171
14.4457	0.255
14.4866	0.397
14.5274	0.535
14.5683	0.64
14.6092	0.705
14.6501	0.719
14.691	0.731
14.7319	0.736
14.7728	0.751
14.8137	0.751
14.8546	0.758
14.8955	0.765
14.9364	0.765
14.9773	0.763
15.0182	0.753
15.0591	0.741
15.1	0.75
15.1408	0.773
15.1817	0.782
15.2226	0.78
15.2635	0.779
15.3044	0.763
15.3453	0.755
15.3862	0.75
15.4271	0.743
15.468	0.739
15.5089	0.739
15.5498	0.734
15.5907	0.736
15.6316	0.732
15.6725	0.734
15.7134	0.739
15.7543	0.731
15.7951	0.729
15.836	0.727
15.8769	0.726
15.9178	0.719
15.9587	0.71
