Infrared Spectrum: 3,3'-ETHYLENE BIS-(4-METHYL-2-THIAZOLE)-THIONE
Formula: C10 H10 N2 S4
State: SOLID (MINERAL OIL MULL)
Class: COBLENTZ
Instrument: Not specified, most likely a prism, grating, or hybrid spectrometer.
Sampling: TRANSMISSION
Resolution: 4
Origin: DOW CHEMICAL COMPANY
MICROMETERS	TRANSMITTANCE
2	0.646
2.04122	0.647
2.08243	0.654
2.12365	0.666
2.16486	0.675
2.20608	0.678
2.24729	0.68
2.28851	0.685
2.32973	0.692
2.37094	0.702
2.41216	0.709
2.45337	0.718
2.49459	0.726
2.53581	0.733
2.57702	0.738
2.61824	0.745
2.65945	0.756
2.70067	0.762
2.74188	0.764
2.7831	0.771
2.82432	0.774
2.86553	0.776
2.90675	0.781
2.94796	0.786
2.98918	0.79
3.0304	0.795
3.07161	0.802
3.11283	0.804
3.15404	0.792
3.19526	0.761
3.23647	0.754
3.27769	0.783
3.31891	0.718
3.36012	0.395
3.40134	0.115
3.44255	0.278
3.48377	0.347
3.52499	0.749
3.5662	0.809
3.60742	0.828
3.64863	0.831
3.68985	0.829
3.73106	0.836
3.77228	0.841
3.8135	0.852
3.85471	0.853
3.89593	0.862
3.93714	0.871
3.97836	0.876
4.01958	0.878
4.06079	0.878
4.10201	0.876
4.14322	0.876
4.18444	0.872
4.22565	0.874
4.26687	0.879
4.30809	0.89
4.3493	0.886
4.39052	0.886
4.43173	0.888
4.47295	0.89
4.51416	0.89
4.55538	0.89
4.5966	0.89
4.63781	0.891
4.67903	0.893
4.72024	0.898
4.76146	0.9
4.80268	0.9
4.84389	0.896
4.88511	0.9
4.92632	0.903
4.96754	0.903
5.00875	0.9
5.04997	0.9
5.09119	0.903
5.1324	0.905
5.17362	0.914
5.21483	0.91
5.25605	0.91
5.29727	0.91
5.33848	0.91
5.3797	0.907
5.42091	0.902
5.46213	0.908
5.50334	0.912
5.54456	0.908
5.58578	0.908
5.62699	0.91
5.66821	0.91
5.70942	0.895
5.75064	0.895
5.79186	0.898
5.83307	0.898
5.87429	0.9
5.9155	0.9
5.95672	0.896
5.99793	0.898
6.03915	0.903
6.08037	0.908
6.12158	0.908
6.1628	0.905
6.20401	0.89
6.24523	0.804
6.28645	0.659
6.32766	0.807
6.36888	0.883
6.41009	0.883
6.45131	0.886
6.49252	0.9
6.53374	0.9
6.57496	0.9
6.61617	0.896
6.65739	0.881
6.6986	0.865
6.73982	0.802
6.78103	0.632
6.82225	0.539
6.86347	0.556
6.90468	0.536
6.9459	0.642
6.98711	0.656
7.02833	0.812
7.06955	0.855
7.11076	0.859
7.15198	0.819
7.19319	0.728
7.23441	0.632
7.27562	0.52
7.31684	0.228
7.35806	0.541
7.39927	0.594
7.44049	0.446
7.4817	0.639
7.52292	0.785
7.56414	0.74
7.60535	0.587
7.64657	0.618
7.68778	0.769
7.729	0.821
7.77021	0.831
7.81143	0.835
7.85265	0.836
7.89386	0.838
7.93508	0.84
7.97629	0.841
8.01751	0.843
8.05873	0.843
8.09994	0.841
8.14116	0.824
8.18237	0.781
8.22359	0.707
8.2648	0.685
8.30602	0.804
8.34724	0.816
8.38845	0.804
8.42967	0.728
8.47088	0.477
8.5121	0.154
8.55332	0.144
8.59453	0.398
8.63575	0.656
8.67696	0.737
8.71818	0.692
8.75939	0.501
8.80061	0.486
8.84183	0.745
8.88304	0.807
8.92426	0.819
8.96547	0.824
9.00669	0.826
9.0479	0.824
9.08912	0.829
9.13034	0.835
9.17155	0.835
9.21277	0.836
9.25398	0.835
9.2952	0.836
9.33642	0.836
9.37763	0.84
9.41885	0.847
9.46006	0.845
9.50128	0.841
9.54249	0.84
9.58371	0.821
9.62493	0.793
9.66614	0.797
9.70736	0.84
9.74857	0.843
9.78979	0.835
9.83101	0.771
9.87222	0.623
9.91344	0.597
9.95465	0.663
9.99587	0.51
10.0371	0.407
10.0783	0.438
10.1195	0.654
10.1607	0.785
10.2019	0.829
10.2432	0.84
10.2844	0.843
10.3256	0.841
10.3668	0.845
10.408	0.855
10.4492	0.862
10.4905	0.869
10.5317	0.871
10.5729	0.871
10.6141	0.876
10.6553	0.878
10.6965	0.878
10.7378	0.878
10.779	0.878
10.8202	0.881
10.8614	0.884
10.9026	0.886
10.9438	0.886
10.985	0.888
11.0263	0.891
11.0675	0.891
11.1087	0.89
11.1499	0.89
11.1911	0.888
11.2323	0.888
11.2736	0.891
11.3148	0.896
11.356	0.896
11.3972	0.898
11.4384	0.898
11.4796	0.896
11.5209	0.888
11.5621	0.888
11.6033	0.895
11.6445	0.896
11.6857	0.896
11.7269	0.893
11.7681	0.89
11.8094	0.847
11.8506	0.752
11.8918	0.728
11.933	0.857
11.9742	0.883
12.0154	0.893
12.0567	0.895
12.0979	0.895
12.1391	0.896
12.1803	0.898
12.2215	0.898
12.2627	0.898
12.304	0.898
12.3452	0.896
12.3864	0.893
12.4276	0.891
12.4688	0.891
12.51	0.89
12.5512	0.886
12.5925	0.883
12.6337	0.881
12.6749	0.881
12.7161	0.876
12.7573	0.876
12.7985	0.876
12.8398	0.872
12.881	0.869
12.9222	0.865
12.9634	0.864
13.0046	0.859
13.0458	0.853
13.0871	0.85
13.1283	0.847
13.1695	0.836
13.2107	0.829
13.2519	0.824
13.2931	0.814
13.3343	0.804
13.3756	0.792
13.4168	0.769
13.458	0.733
13.4992	0.668
13.5404	0.577
13.5816	0.503
13.6229	0.403
13.6641	0.371
13.7053	0.487
13.7465	0.603
13.7877	0.664
13.8289	0.697
13.8702	0.714
13.9114	0.728
13.9526	0.738
13.9938	0.747
14.035	0.747
14.0762	0.747
14.1175	0.75
14.1587	0.749
14.1999	0.747
14.2411	0.745
14.2823	0.738
14.3235	0.737
14.3647	0.735
14.406	0.728
14.4472	0.719
14.4884	0.718
14.5296	0.711
14.5708	0.706
14.612	0.701
14.6533	0.69
14.6945	0.683
14.7357	0.675
14.7769	0.67
14.8181	0.659
14.8593	0.651
14.9006	0.644
14.9418	0.639
14.983	0.632
15.0242	0.618
15.0654	0.608
15.1066	0.601
15.1478	0.596
15.1891	0.587
15.2303	0.582
15.2715	0.577
15.3127	0.575
15.3539	0.568
15.3951	0.558
15.4364	0.544
15.4776	0.537
15.5188	0.53
15.56	0.524
15.6012	0.517
15.6424	0.512
15.6837	0.5
15.7249	0.494
15.7661	0.487
15.8073	0.475
15.8485	0.47
15.8897	0.47
