Infrared Spectrum: 2-CHLOROETHYL P-TOLUENE SULFONATE
Formula: C9 H11 Cl O3 S
State: LIQUID
Melting point: 20-22 C
Class: COBLENTZ
Instrument: Not specified, most likely a prism, grating, or hybrid spectrometer.
Sampling: TRANSMISSION
Path length: 0.003 CM
Resolution: 4
Origin: WYANDOTTE CHEMICALS CORP., WYANDOTTE, MICHIGAN, USA
MICROMETERS	TRANSMITTANCE
2.046	0.955
2.08585	0.955
2.1257	0.925
2.16555	0.931
2.20539	0.938
2.24524	0.941
2.28509	0.943
2.32494	0.931
2.36479	0.938
2.40464	0.943
2.44448	0.94
2.48433	0.945
2.52418	0.951
2.56403	0.961
2.60388	0.96
2.64373	0.948
2.68358	0.941
2.72342	0.946
2.76327	0.938
2.80312	0.943
2.84297	0.943
2.88282	0.938
2.92267	0.94
2.96251	0.933
3.00236	0.93
3.04221	0.928
3.08206	0.92
3.12191	0.901
3.16176	0.887
3.20161	0.81
3.24145	0.734
3.2813	0.76
3.32115	0.612
3.361	0.715
3.40085	0.8
3.4407	0.805
3.48054	0.875
3.52039	0.921
3.56024	0.926
3.60009	0.935
3.63994	0.931
3.67979	0.936
3.71964	0.95
3.75948	0.96
3.79933	0.941
3.83918	0.921
3.87903	0.941
3.91888	0.936
3.95873	0.931
3.99857	0.945
4.03842	0.95
4.07827	0.948
4.11812	0.941
4.15797	0.936
4.19782	0.943
4.23766	0.951
4.27751	0.96
4.31736	0.955
4.35721	0.945
4.39706	0.936
4.43691	0.938
4.47676	0.96
4.5166	0.971
4.55645	0.973
4.5963	0.96
4.63615	0.97
4.676	0.975
4.71585	0.976
4.75569	0.971
4.79554	0.978
4.83539	0.975
4.87524	0.98
4.91509	0.975
4.95494	0.975
4.99479	0.97
5.03463	0.953
5.07448	0.946
5.11433	0.941
5.15418	0.931
5.19403	0.888
5.23388	0.873
5.27372	0.93
5.31357	0.938
5.35342	0.943
5.39327	0.943
5.43312	0.94
5.47297	0.93
5.51282	0.901
5.55266	0.903
5.59251	0.92
5.63236	0.905
5.67221	0.893
5.71206	0.908
5.75191	0.911
5.79175	0.915
5.8316	0.91
5.87145	0.901
5.9113	0.887
5.95115	0.845
5.991	0.812
6.03085	0.815
6.07069	0.822
6.11054	0.777
6.15039	0.696
6.19024	0.23
6.23009	0.671
6.26994	0.792
6.30978	0.813
6.34963	0.82
6.38948	0.825
6.42933	0.842
6.46918	0.832
6.50903	0.835
6.54888	0.822
6.58872	0.772
6.62857	0.521
6.66842	0.739
6.70827	0.72
6.74812	0.611
6.78797	0.47
6.82781	0.332
6.86766	0.436
6.90751	0.451
6.94736	0.388
6.98721	0.501
7.02706	0.559
7.06691	0.458
7.10675	0.388
7.1466	0.35
7.18645	0.134
7.2263	0.112
7.26615	0.038
7.306	0.039
7.34584	0.044
7.38569	0.069
7.42554	0.176
7.46539	0.383
7.50524	0.546
7.54509	0.583
7.58493	0.382
7.62478	0.167
7.66463	0.345
7.70448	0.415
7.74433	0.611
7.78418	0.722
7.82403	0.759
7.86387	0.737
7.90372	0.725
7.94357	0.737
7.98342	0.764
8.02327	0.779
8.06312	0.784
8.10296	0.762
8.14281	0.71
8.18266	0.573
8.22251	0.423
8.26236	0.395
8.30221	0.182
8.34206	0.048
8.3819	0.046
8.42175	0.043
8.4616	0.039
8.50145	0.044
8.5413	0.204
8.58115	0.455
8.62099	0.583
8.66084	0.672
8.70069	0.734
8.74054	0.745
8.78039	0.749
8.82024	0.742
8.86009	0.591
8.89993	0.531
8.93978	0.632
8.97963	0.533
9.01948	0.322
9.05933	0.109
9.09918	0.215
9.13902	0.468
9.17887	0.514
9.21872	0.423
9.25857	0.302
9.29842	0.232
9.33827	0.28
9.37812	0.375
9.41796	0.498
9.45781	0.576
9.49766	0.586
9.53751	0.564
9.57736	0.549
9.61721	0.571
9.65705	0.584
9.6969	0.549
9.73675	0.406
9.7766	0.176
9.81645	0.161
9.8563	0.063
9.89615	0.046
9.93599	0.048
9.97584	0.056
10.0157	0.096
10.0555	0.169
10.0954	0.205
10.1352	0.187
10.1751	0.166
10.2149	0.147
10.2548	0.142
10.2946	0.137
10.3345	0.124
10.3743	0.102
10.4142	0.096
10.454	0.117
10.4939	0.152
10.5337	0.199
10.5736	0.259
10.6134	0.345
10.6533	0.441
10.6931	0.526
10.733	0.583
10.7728	0.599
10.8127	0.589
10.8525	0.536
10.8924	0.44
10.9322	0.295
10.9721	0.151
11.0119	0.071
11.0518	0.051
11.0916	0.049
11.1314	0.049
11.1713	0.054
11.2111	0.074
11.251	0.099
11.2908	0.139
11.3307	0.191
11.3705	0.259
11.4104	0.335
11.4502	0.401
11.4901	0.483
11.5299	0.544
11.5698	0.589
11.6096	0.617
11.6495	0.631
11.6893	0.622
11.7292	0.599
11.769	0.554
11.8089	0.501
11.8487	0.451
11.8886	0.406
11.9284	0.387
11.9683	0.375
12.0081	0.373
12.048	0.375
12.0878	0.353
12.1277	0.297
12.1675	0.207
12.2074	0.122
12.2472	0.078
12.2871	0.071
12.3269	0.098
12.3667	0.167
12.4066	0.227
12.4464	0.239
12.4863	0.25
12.5261	0.318
12.566	0.41
12.6058	0.483
12.6457	0.523
12.6855	0.534
12.7254	0.518
12.7652	0.478
12.8051	0.406
12.8449	0.299
12.8848	0.186
12.9246	0.109
12.9645	0.074
13.0043	0.071
13.0442	0.068
13.084	0.076
13.1239	0.088
13.1637	0.099
13.2036	0.104
13.2434	0.112
13.2833	0.117
13.3231	0.114
13.363	0.117
13.4028	0.122
13.4427	0.132
13.4825	0.161
13.5224	0.209
13.5622	0.27
13.6021	0.347
13.6419	0.441
13.6817	0.528
13.7216	0.591
13.7614	0.644
13.8013	0.679
13.8411	0.707
13.881	0.72
13.9208	0.737
13.9607	0.74
14.0005	0.74
14.0404	0.734
14.0802	0.714
14.1201	0.679
14.1599	0.604
14.1998	0.541
14.2396	0.553
14.2795	0.584
14.3193	0.604
14.3592	0.594
14.399	0.559
14.4389	0.508
14.4787	0.47
14.5186	0.446
14.5584	0.445
14.5983	0.438
14.6381	0.433
14.678	0.415
14.7178	0.397
14.7577	0.37
14.7975	0.342
14.8374	0.318
14.8772	0.303
14.9171	0.303
14.9569	0.31
14.9967	0.35
15.0366	0.38
15.0764	0.36
15.1163	0.315
15.1561	0.303
15.196	0.317
15.2358	0.353
15.2757	0.395
15.3155	0.45
15.3554	0.514
15.3952	0.568
15.4351	0.626
15.4749	0.672
15.5148	0.705
15.5546	0.719
15.5945	0.735
15.6343	0.744
15.6742	0.744
15.714	0.747
15.7539	0.745
15.7937	0.735
15.8336	0.739
15.8734	0.744
15.9133	0.745
15.9531	0.745
15.993	0.745
