Infrared Spectrum: 1,1'-BIS (Alpha-HYDROXYETHYL) FERROCENE
Formula: C14 H18 Fe O2
State: SOLID (MINERAL OIL MULL)
Melting point: 69-71 C
Class: COBLENTZ
Instrument: Not specified, most likely a prism, grating, or hybrid spectrometer.
Sampling: TRANSMISSION
Resolution: 4
Origin: WYANDOTTE CHEMICALS CORP., WYANDOTTE, MICHIGAN, USA
MICROMETERS	TRANSMITTANCE
2.034	0.486
2.07491	0.488
2.11583	0.491
2.15674	0.494
2.19766	0.496
2.23857	0.501
2.27949	0.515
2.3204	0.537
2.36132	0.539
2.40223	0.542
2.44315	0.557
2.48406	0.552
2.52498	0.574
2.56589	0.607
2.60681	0.612
2.64772	0.627
2.68864	0.642
2.72955	0.651
2.77047	0.656
2.81138	0.654
2.8523	0.613
2.89321	0.498
2.93413	0.35
2.97504	0.239
3.01596	0.083
3.05687	0.059
3.09779	0.083
3.1387	0.156
3.17962	0.229
3.22053	0.27
3.26145	0.321
3.30236	0.352
3.34328	0.105
3.38419	0.059
3.42511	0.061
3.46602	0.069
3.50694	0.079
3.54785	0.35
3.58877	0.53
3.62968	0.588
3.6706	0.608
3.71151	0.61
3.75243	0.615
3.79334	0.624
3.83426	0.658
3.87517	0.681
3.91609	0.707
3.957	0.717
3.99792	0.732
4.03883	0.738
4.07974	0.75
4.12066	0.756
4.16157	0.755
4.20249	0.773
4.2434	0.782
4.28432	0.775
4.32523	0.794
4.36615	0.816
4.40706	0.843
4.44798	0.828
4.48889	0.831
4.52981	0.831
4.57072	0.838
4.61164	0.858
4.65255	0.862
4.69347	0.867
4.73438	0.874
4.7753	0.875
4.81621	0.882
4.85713	0.88
4.89804	0.88
4.93896	0.887
4.97987	0.903
5.02079	0.904
5.0617	0.897
5.10262	0.909
5.14353	0.908
5.18445	0.913
5.22536	0.913
5.26628	0.918
5.30719	0.918
5.34811	0.918
5.38902	0.926
5.42994	0.928
5.47085	0.937
5.51177	0.937
5.55268	0.926
5.5936	0.884
5.63451	0.877
5.67543	0.852
5.71634	0.848
5.75726	0.814
5.79817	0.821
5.83909	0.79
5.88	0.78
5.92092	0.78
5.96183	0.777
6.00275	0.75
6.04366	0.731
6.08458	0.782
6.12549	0.795
6.1664	0.828
6.20732	0.855
6.24823	0.891
6.28915	0.899
6.33006	0.911
6.37098	0.879
6.41189	0.891
6.45281	0.855
6.49372	0.858
6.53464	0.836
6.57555	0.841
6.61647	0.79
6.65738	0.717
6.6983	0.707
6.73921	0.581
6.78013	0.287
6.82104	0.226
6.86196	0.19
6.90287	0.171
6.94379	0.365
6.9847	0.469
7.02562	0.42
7.06653	0.278
7.10745	0.314
7.14836	0.192
7.18928	0.27
7.23019	0.214
7.27111	0.153
7.31202	0.108
7.35294	0.306
7.39385	0.511
7.43477	0.619
7.47568	0.629
7.5166	0.53
7.55751	0.231
7.59843	0.243
7.63934	0.404
7.68026	0.404
7.72117	0.243
7.76209	0.163
7.803	0.183
7.84392	0.304
7.88483	0.476
7.92575	0.571
7.96666	0.658
8.00758	0.67
8.04849	0.54
8.08941	0.352
8.13032	0.275
8.17123	0.559
8.21215	0.695
8.25306	0.75
8.29398	0.751
8.33489	0.668
8.37581	0.75
8.41672	0.806
8.45764	0.799
8.49855	0.838
8.53947	0.846
8.58038	0.841
8.6213	0.858
8.66221	0.855
8.70313	0.867
8.74404	0.875
8.78496	0.882
8.82587	0.872
8.86679	0.848
8.9077	0.799
8.94862	0.724
8.98953	0.508
9.03045	0.073
9.07136	0.09
9.11228	0.137
9.15319	0.284
9.19411	0.392
9.23502	0.176
9.27594	0.061
9.31685	0.096
9.35777	0.275
9.39868	0.425
9.4396	0.476
9.48051	0.602
9.52143	0.598
9.56234	0.465
9.60326	0.154
9.64417	0.396
9.68509	0.581
9.726	0.489
9.76692	0.382
9.80783	0.341
9.84875	0.559
9.88966	0.431
9.93058	0.096
9.97149	0.107
10.0124	0.363
10.0533	0.593
10.0942	0.709
10.1352	0.77
10.1761	0.801
10.217	0.816
10.2579	0.821
10.2988	0.831
10.3397	0.841
10.3806	0.848
10.4216	0.857
10.4625	0.862
10.5034	0.86
10.5443	0.867
10.5852	0.858
10.6261	0.855
10.667	0.829
10.708	0.784
10.7489	0.639
10.7898	0.284
10.8307	0.267
10.8716	0.52
10.9125	0.722
10.9534	0.795
10.9944	0.831
11.0353	0.838
11.0762	0.818
11.1171	0.715
11.158	0.607
11.1989	0.681
11.2399	0.68
11.2808	0.6
11.3217	0.362
11.3626	0.188
11.4035	0.272
11.4444	0.459
11.4853	0.615
11.5263	0.661
11.5672	0.6
11.6081	0.668
11.649	0.564
11.6899	0.352
11.7308	0.59
11.7717	0.661
11.8127	0.647
11.8536	0.518
11.8945	0.46
11.9354	0.658
11.9763	0.773
12.0172	0.76
12.0582	0.729
12.0991	0.784
12.14	0.787
12.1809	0.727
12.2218	0.62
12.2627	0.549
12.3036	0.46
12.3446	0.442
12.3855	0.523
12.4264	0.482
12.4673	0.13
12.5082	0.256
12.5491	0.537
12.59	0.692
12.631	0.746
12.6719	0.777
12.7128	0.782
12.7537	0.78
12.7946	0.77
12.8355	0.758
12.8764	0.751
12.9174	0.738
12.9583	0.727
12.9992	0.715
13.0401	0.709
13.081	0.7
13.1219	0.692
13.1629	0.69
13.2038	0.678
13.2447	0.671
13.2856	0.666
13.3265	0.656
13.3674	0.661
13.4083	0.653
13.4493	0.647
13.4902	0.641
13.5311	0.639
13.572	0.636
13.6129	0.636
13.6538	0.627
13.6947	0.627
13.7357	0.615
13.7766	0.612
13.8175	0.607
13.8584	0.6
13.8993	0.598
13.9402	0.585
13.9812	0.581
14.0221	0.579
14.063	0.569
14.1039	0.559
14.1448	0.547
14.1857	0.537
14.2266	0.528
14.2676	0.518
14.3085	0.508
14.3494	0.498
14.3903	0.486
14.4312	0.486
14.4721	0.481
14.513	0.481
14.554	0.482
14.5949	0.481
14.6358	0.465
14.6767	0.442
14.7176	0.414
14.7585	0.399
14.7994	0.406
14.8404	0.43
14.8813	0.457
14.9222	0.476
14.9631	0.493
15.004	0.5
15.0449	0.494
15.0859	0.477
15.1268	0.471
15.1677	0.476
15.2086	0.477
15.2495	0.482
15.2904	0.489
15.3313	0.493
15.3723	0.491
15.4132	0.494
15.4541	0.505
15.495	0.508
15.5359	0.517
15.5768	0.527
15.6177	0.532
15.6587	0.537
15.6996	0.544
15.7405	0.552
15.7814	0.549
15.8223	0.554
15.8632	0.557
15.9042	0.551
15.9451	0.557
15.986	0.559
