Infrared Spectrum: METHANEARSONIC ACID, DISODIUM SALT, HEXAHYDRATE
Formula: C H3 O3 As Na2  * 6 H2 O
State: SOLID (KBr WAFER)
Melting point: 133-137 C
Class: COBLENTZ
Instrument: BECKMAN IR-4 (HYBRID PRISM-GRATING)
Sampling: TRANSMISSION
Resolution: 4
Origin: ANSUL CHEMICAL COMPANY, MARINETTE, WISCONSIN
MICROMETERS	TRANSMITTANCE
2.03	0.786
2.06493	0.792
2.09985	0.789
2.13478	0.771
2.16971	0.741
2.20464	0.718
2.23956	0.69
2.27449	0.672
2.30942	0.651
2.34434	0.613
2.37927	0.577
2.4142	0.541
2.44912	0.516
2.48405	0.478
2.51898	0.447
2.55391	0.4
2.58883	0.364
2.62376	0.329
2.65869	0.298
2.69361	0.25
2.72854	0.21
2.76347	0.161
2.79839	0.12
2.83332	0.079
2.86825	0.042
2.90318	0.027
2.9381	0.018
2.97303	0.022
3.00796	0.024
3.04288	0.032
3.07781	0.039
3.11274	0.062
3.14766	0.082
3.18259	0.134
3.21752	0.205
3.25245	0.264
3.28737	0.347
3.3223	0.43
3.35723	0.498
3.39215	0.579
3.42708	0.649
3.46201	0.708
3.49693	0.767
3.53186	0.808
3.56679	0.839
3.60172	0.861
3.63664	0.873
3.67157	0.891
3.7065	0.893
3.74142	0.899
3.77635	0.899
3.81128	0.899
3.8462	0.893
3.88113	0.893
3.91606	0.885
3.95099	0.879
3.98591	0.874
4.02084	0.861
4.05577	0.848
4.09069	0.83
4.12562	0.812
4.16055	0.798
4.19547	0.788
4.2304	0.788
4.26533	0.792
4.30026	0.792
4.33518	0.792
4.37011	0.791
4.40504	0.788
4.43996	0.786
4.47489	0.792
4.50982	0.8
4.54474	0.815
4.57967	0.83
4.6146	0.85
4.64953	0.865
4.68445	0.878
4.71938	0.889
4.75431	0.894
4.78923	0.899
4.82416	0.907
4.85909	0.91
4.89401	0.917
4.92894	0.919
4.96387	0.92
4.9988	0.921
5.03372	0.925
5.06865	0.922
5.10358	0.922
5.1385	0.924
5.17343	0.927
5.20836	0.927
5.24328	0.924
5.27821	0.921
5.31314	0.919
5.34807	0.917
5.38299	0.911
5.41792	0.907
5.45285	0.9
5.48777	0.898
5.5227	0.888
5.55763	0.879
5.59256	0.87
5.62748	0.849
5.66241	0.83
5.69734	0.799
5.73226	0.779
5.76719	0.756
5.80212	0.736
5.83704	0.689
5.87197	0.648
5.9069	0.628
5.94183	0.595
5.97675	0.584
6.01168	0.59
6.04661	0.619
6.08153	0.661
6.11646	0.68
6.15139	0.696
6.18631	0.717
6.22124	0.728
6.25617	0.738
6.2911	0.747
6.32602	0.753
6.36095	0.761
6.39588	0.766
6.4308	0.776
6.46573	0.778
6.50066	0.782
6.53558	0.786
6.57051	0.788
6.60544	0.789
6.64037	0.791
6.67529	0.791
6.71022	0.792
6.74515	0.783
6.78007	0.788
6.815	0.783
6.84993	0.782
6.88485	0.782
6.91978	0.777
6.95471	0.772
6.98964	0.761
7.02456	0.747
7.05949	0.741
7.09442	0.742
7.12934	0.761
7.16427	0.768
7.1992	0.771
7.23412	0.768
7.26905	0.777
7.30398	0.773
7.33891	0.773
7.37383	0.772
7.40876	0.754
7.44369	0.766
7.47861	0.771
7.51354	0.781
7.54847	0.787
7.58339	0.788
7.61832	0.789
7.65325	0.784
7.68818	0.787
7.7231	0.784
7.75803	0.781
7.79296	0.773
7.82788	0.758
7.86281	0.726
7.89774	0.682
7.93266	0.745
7.96759	0.788
8.00252	0.796
8.03745	0.802
8.07237	0.807
8.1073	0.809
8.14223	0.809
8.17715	0.81
8.21208	0.81
8.24701	0.809
8.28193	0.812
8.31686	0.812
8.35179	0.812
8.38672	0.814
8.42164	0.818
8.45657	0.82
8.4915	0.823
8.52642	0.82
8.56135	0.82
8.59628	0.817
8.6312	0.814
8.66613	0.814
8.70106	0.812
8.73599	0.809
8.77091	0.81
8.80584	0.81
8.84077	0.809
8.87569	0.81
8.91062	0.81
8.94555	0.81
8.98048	0.812
9.0154	0.817
9.05033	0.817
9.08526	0.818
9.12018	0.818
9.15511	0.819
9.19004	0.817
9.22496	0.814
9.25989	0.814
9.29482	0.812
9.32975	0.814
9.36467	0.817
9.3996	0.819
9.43453	0.82
9.46945	0.822
9.50438	0.822
9.53931	0.82
9.57423	0.817
9.60916	0.824
9.64409	0.814
9.67902	0.814
9.71394	0.813
9.74887	0.812
9.7838	0.812
9.81872	0.81
9.85365	0.809
9.88858	0.809
9.9235	0.802
9.95843	0.798
9.99336	0.8
10.0283	0.798
10.0632	0.797
10.0981	0.793
10.1331	0.791
10.168	0.788
10.2029	0.784
10.2378	0.782
10.2728	0.777
10.3077	0.772
10.3426	0.762
10.3776	0.759
10.4125	0.751
10.4474	0.75
10.4823	0.748
10.5173	0.741
10.5522	0.736
10.5871	0.732
10.622	0.727
10.657	0.717
10.6919	0.711
10.7268	0.701
10.7618	0.697
10.7967	0.689
10.8316	0.671
10.8665	0.665
10.9015	0.649
10.9364	0.636
10.9713	0.62
11.0062	0.609
11.0412	0.58
11.0761	0.567
11.111	0.548
11.1459	0.529
11.1809	0.503
11.2158	0.476
11.2507	0.45
11.2857	0.42
11.3206	0.396
11.3555	0.356
11.3904	0.333
11.4254	0.298
11.4603	0.272
11.4952	0.247
11.5301	0.215
11.5651	0.179
11.6	0.139
11.6349	0.108
11.6699	0.082
11.7048	0.06
11.7397	0.048
11.7746	0.044
11.8096	0.041
11.8445	0.037
11.8794	0.031
11.9143	0.028
11.9493	0.023
11.9842	0.021
12.0191	0.023
12.0541	0.032
12.089	0.038
12.1239	0.043
12.1588	0.059
12.1938	0.078
12.2287	0.098
12.2636	0.115
12.2985	0.133
12.3335	0.148
12.3684	0.159
12.4033	0.17
12.4382	0.177
12.4732	0.186
12.5081	0.187
12.543	0.19
12.578	0.191
12.6129	0.196
12.6478	0.199
12.6827	0.201
12.7177	0.208
12.7526	0.22
12.7875	0.235
12.8224	0.258
12.8574	0.276
12.8923	0.297
12.9272	0.309
12.9622	0.335
12.9971	0.355
13.032	0.371
13.0669	0.39
13.1019	0.4
13.1368	0.417
13.1717	0.431
13.2066	0.444
13.2416	0.456
13.2765	0.466
13.3114	0.475
13.3464	0.478
13.3813	0.483
13.4162	0.486
13.4511	0.486
13.4861	0.486
13.521	0.481
13.5559	0.475
13.5908	0.468
13.6258	0.46
13.6607	0.455
13.6956	0.441
13.7305	0.437
13.7655	0.427
13.8004	0.412
13.8353	0.402
13.8703	0.388
13.9052	0.375
13.9401	0.359
13.975	0.349
14.01	0.337
14.0449	0.32
14.0798	0.309
14.1147	0.3
14.1497	0.287
14.1846	0.277
14.2195	0.264
14.2545	0.252
14.2894	0.245
14.3243	0.235
14.3592	0.228
14.3942	0.221
14.4291	0.212
14.464	0.205
14.4989	0.2
14.5339	0.194
14.5688	0.189
14.6037	0.187
14.6387	0.182
14.6736	0.182
14.7085	0.185
14.7434	0.185
14.7784	0.182
14.8133	0.185
14.8482	0.186
14.8831	0.186
14.9181	0.184
14.953	0.182
14.9879	0.184
