Infrared Spectrum: POTASSIUM HEPTAFLUOZIRCONATE IV
Formula: K3 Zr F7
State: SOLID (MINERAL OIL MULL)
Class: COBLENTZ
Instrument: Not specified, most likely a prism, grating, or hybrid spectrometer.
Sampling: TRANSMISSION
Resolution: 4
Origin: WYANDOTTE CHEMICALS CORP., WYANDOTTE, MICHIGAN, USA
MICROMETERS	TRANSMITTANCE
2.007	0.795
2.04798	0.798
2.08895	0.804
2.12993	0.81
2.17091	0.807
2.21188	0.783
2.25286	0.768
2.29384	0.766
2.33481	0.766
2.37579	0.766
2.41677	0.78
2.45774	0.79
2.49872	0.804
2.5397	0.819
2.58067	0.827
2.62165	0.833
2.66263	0.836
2.7036	0.822
2.74458	0.776
2.78556	0.729
2.82653	0.691
2.86751	0.66
2.90849	0.652
2.94946	0.652
2.99044	0.657
3.03142	0.678
3.07239	0.7
3.11337	0.706
3.15435	0.718
3.19532	0.732
3.2363	0.737
3.27728	0.695
3.31825	0.468
3.35923	0.146
3.40021	0.076
3.44118	0.054
3.48216	0.04
3.52314	0.042
3.56411	0.206
3.60509	0.39
3.64607	0.514
3.68704	0.541
3.72802	0.58
3.76899	0.613
3.80997	0.64
3.85095	0.672
3.89192	0.703
3.9329	0.741
3.97388	0.763
4.01485	0.785
4.05583	0.802
4.09681	0.812
4.13778	0.822
4.17876	0.827
4.21974	0.827
4.26071	0.827
4.30169	0.831
4.34267	0.841
4.38364	0.856
4.42462	0.872
4.4656	0.872
4.50657	0.879
4.54755	0.89
4.58853	0.894
4.6295	0.901
4.67048	0.899
4.71146	0.904
4.75243	0.909
4.79341	0.913
4.83439	0.913
4.87536	0.914
4.91634	0.918
4.95732	0.919
4.99829	0.918
5.03927	0.923
5.08025	0.931
5.12122	0.931
5.1622	0.936
5.20318	0.936
5.24415	0.933
5.28513	0.94
5.32611	0.936
5.36708	0.936
5.40806	0.938
5.44904	0.933
5.49001	0.933
5.53099	0.938
5.57197	0.938
5.61294	0.936
5.65392	0.931
5.6949	0.928
5.73587	0.908
5.77685	0.884
5.81783	0.855
5.8588	0.855
5.89978	0.831
5.94076	0.797
5.98173	0.775
6.02271	0.752
6.06369	0.756
6.10466	0.759
6.14564	0.78
6.18662	0.805
6.22759	0.822
6.26857	0.843
6.30955	0.851
6.35052	0.858
6.3915	0.858
6.43248	0.855
6.47345	0.851
6.51443	0.85
6.55541	0.838
6.59638	0.814
6.63736	0.787
6.67834	0.73
6.71931	0.567
6.76029	0.347
6.80127	0.098
6.84224	0.045
6.88322	0.057
6.9242	0.144
6.96517	0.35
7.00615	0.548
7.04712	0.638
7.0881	0.674
7.12908	0.683
7.17005	0.628
7.21103	0.405
7.25201	0.153
7.29298	0.18
7.33396	0.318
7.37494	0.456
7.41591	0.497
7.45689	0.524
7.49787	0.565
7.53884	0.597
7.57982	0.606
7.6208	0.603
7.66177	0.596
7.70275	0.594
7.74373	0.611
7.7847	0.625
7.82568	0.632
7.86666	0.635
7.90763	0.643
7.94861	0.647
7.98959	0.65
8.03056	0.649
8.07154	0.643
8.11252	0.638
8.15349	0.633
8.19447	0.632
8.23545	0.632
8.27642	0.621
8.3174	0.628
8.35838	0.637
8.39935	0.64
8.44033	0.638
8.48131	0.63
8.52228	0.621
8.56326	0.601
8.60424	0.591
8.64521	0.58
8.68619	0.57
8.72717	0.582
8.76814	0.596
8.80912	0.601
8.8501	0.603
8.89107	0.606
8.93205	0.599
8.97303	0.596
9.014	0.603
9.05498	0.618
9.09596	0.618
9.13693	0.625
9.17791	0.633
9.21889	0.63
9.25986	0.623
9.30084	0.63
9.34182	0.628
9.38279	0.633
9.42377	0.632
9.46475	0.637
9.50572	0.635
9.5467	0.628
9.58768	0.625
9.62865	0.623
9.66963	0.623
9.71061	0.62
9.75158	0.621
9.79256	0.621
9.83354	0.626
9.87451	0.626
9.91549	0.633
9.95647	0.633
9.99744	0.637
10.0384	0.649
10.0794	0.647
10.1204	0.64
10.1613	0.637
10.2023	0.625
10.2433	0.618
10.2843	0.604
10.3253	0.599
10.3662	0.597
10.4072	0.597
10.4482	0.596
10.4892	0.603
10.5301	0.609
10.5711	0.616
10.6121	0.621
10.6531	0.614
10.694	0.613
10.735	0.606
10.776	0.609
10.817	0.614
10.858	0.611
10.8989	0.611
10.9399	0.609
10.9809	0.613
11.0219	0.62
11.0628	0.623
11.1038	0.63
11.1448	0.632
11.1858	0.626
11.2267	0.621
11.2677	0.62
11.3087	0.618
11.3497	0.616
11.3906	0.618
11.4316	0.618
11.4726	0.62
11.5136	0.62
11.5546	0.618
11.5955	0.618
11.6365	0.616
11.6775	0.613
11.7185	0.611
11.7594	0.608
11.8004	0.601
11.8414	0.596
11.8824	0.596
11.9233	0.589
11.9643	0.589
12.0053	0.586
12.0463	0.582
12.0872	0.582
12.1282	0.582
12.1692	0.577
12.2102	0.579
12.2512	0.572
12.2921	0.565
12.3331	0.56
12.3741	0.557
12.4151	0.55
12.456	0.546
12.497	0.54
12.538	0.534
12.579	0.524
12.6199	0.509
12.6609	0.5
12.7019	0.488
12.7429	0.48
12.7839	0.451
12.8248	0.437
12.8658	0.424
12.9068	0.405
12.9478	0.395
12.9887	0.378
13.0297	0.369
13.0707	0.362
13.1117	0.349
13.1526	0.345
13.1936	0.342
13.2346	0.337
13.2756	0.327
13.3165	0.325
13.3575	0.316
13.3985	0.31
13.4395	0.301
13.4805	0.296
13.5214	0.287
13.5624	0.284
13.6034	0.281
13.6444	0.281
13.6853	0.281
13.7263	0.281
13.7673	0.281
13.8083	0.277
13.8492	0.275
13.8902	0.272
13.9312	0.277
13.9722	0.299
14.0132	0.321
14.0541	0.342
14.0951	0.373
14.1361	0.388
14.1771	0.4
14.218	0.412
14.259	0.419
14.3	0.434
14.341	0.442
14.3819	0.449
14.4229	0.449
14.4639	0.451
14.5049	0.451
14.5458	0.449
14.5868	0.453
14.6278	0.453
14.6688	0.449
14.7098	0.449
14.7507	0.449
14.7917	0.449
14.8327	0.453
14.8737	0.451
14.9146	0.451
14.9556	0.451
14.9966	0.451
15.0376	0.458
15.0785	0.459
15.1195	0.461
15.1605	0.456
15.2015	0.454
15.2425	0.454
15.2834	0.454
15.3244	0.456
15.3654	0.459
15.4064	0.461
15.4473	0.461
15.4883	0.465
15.5293	0.466
15.5703	0.466
15.6112	0.468
15.6522	0.471
15.6932	0.477
15.7342	0.483
15.7751	0.485
15.8161	0.492
15.8571	0.5
15.8981	0.504
15.9391	0.505
