Infrared Spectrum: PHENANTHRENE, 3-METHYL-D3-
Formula: C15 H9 D3
State: SOLUTION (110 g/L IN BENZENE)
Class: COBLENTZ
Instrument: Not specified, most likely a prism, grating, or hybrid spectrometer.
Sampling: TRANSMISSION
Path length: 0.05 CM
Resolution: 4
Origin: CENTRE D'ETUDES NUCLEAIRES DE GRENOBLE
MICROMETERS	TRANSMITTANCE
15.822	0.77
15.8777	0.825
15.9334	0.862
15.9891	0.87
16.0447	0.845
16.1004	0.758
16.1561	0.706
16.2118	0.726
16.2675	0.82
16.3232	0.901
16.3789	0.973
16.4345	1.001
16.4902	1.018
16.5459	1.02
16.6016	1.018
16.6573	1.013
16.713	1.008
16.7687	1.013
16.8243	1.01
16.88	1.005
16.9357	0.996
16.9914	0.976
17.0471	0.937
17.1028	0.894
17.1585	0.802
17.2142	0.77
17.2698	0.776
17.3255	0.823
17.3812	0.892
17.4369	0.937
17.4926	0.956
17.5483	0.964
17.604	0.966
17.6596	0.968
17.7153	0.966
17.771	0.966
17.8267	0.963
17.8824	0.959
17.9381	0.956
17.9938	0.942
18.0494	0.926
18.1051	0.892
18.1608	0.825
18.2165	0.699
18.2722	0.553
18.3279	0.453
18.3836	0.416
18.4392	0.474
18.4949	0.605
18.5506	0.726
18.6063	0.802
18.662	0.852
18.7177	0.887
18.7734	0.906
18.829	0.912
18.8847	0.912
18.9404	0.909
18.9961	0.906
19.0518	0.899
19.1075	0.887
19.1632	0.885
19.2188	0.894
19.2745	0.899
19.3302	0.897
19.3859	0.89
19.4416	0.882
19.4973	0.875
19.553	0.848
19.6086	0.805
19.6643	0.765
19.72	0.706
19.7757	0.632
19.8314	0.533
19.8871	0.417
19.9428	0.308
19.9985	0.203
20.0541	0.161
20.1098	0.161
20.1655	0.219
20.2212	0.32
20.2769	0.434
20.3326	0.597
20.3883	0.671
20.4439	0.743
20.4996	0.798
20.5553	0.835
20.611	0.85
20.6667	0.874
20.7224	0.889
20.7781	0.899
20.8337	0.906
20.8894	0.911
20.9451	0.914
21.0008	0.917
21.0565	0.917
21.1122	0.914
21.1679	0.911
21.2235	0.907
21.2792	0.906
21.3349	0.902
21.3906	0.895
21.4463	0.874
21.502	0.84
21.5577	0.8
21.6133	0.738
21.669	0.679
21.7247	0.657
21.7804	0.654
21.8361	0.686
21.8918	0.729
21.9475	0.791
22.0031	0.813
22.0588	0.852
22.1145	0.872
22.1702	0.885
22.2259	0.889
22.2816	0.89
22.3373	0.887
22.3929	0.88
22.4486	0.875
22.5043	0.865
22.56	0.847
22.6157	0.822
22.6714	0.803
22.7271	0.77
22.7828	0.746
22.8384	0.721
22.8941	0.704
22.9498	0.677
23.0055	0.62
23.0612	0.557
23.1169	0.494
23.1726	0.429
23.2282	0.335
23.2839	0.251
23.3396	0.194
23.3953	0.159
23.451	0.145
23.5067	0.151
23.5624	0.189
23.618	0.243
23.6737	0.32
23.7294	0.411
23.7851	0.526
23.8408	0.592
23.8965	0.669
23.9522	0.716
24.0078	0.768
24.0635	0.807
24.1192	0.84
24.1749	0.854
24.2306	0.875
24.2863	0.884
24.342	0.887
24.3976	0.895
24.4533	0.901
24.509	0.897
24.5647	0.885
24.6204	0.88
24.6761	0.879
24.7318	0.875
24.7874	0.879
24.8431	0.879
24.8988	0.889
24.9545	0.897
25.0102	0.902
25.0659	0.907
25.1216	0.911
25.1773	0.909
25.2329	0.906
25.2886	0.899
25.3443	0.892
25.4	0.879
25.4557	0.86
25.5114	0.848
25.5671	0.847
25.6227	0.855
25.6784	0.872
25.7341	0.884
25.7898	0.901
25.8455	0.919
25.9012	0.927
25.9569	0.939
26.0125	0.942
26.0682	0.944
26.1239	0.946
26.1796	0.947
26.2353	0.951
26.291	0.953
26.3467	0.953
26.4023	0.956
26.458	0.956
26.5137	0.956
26.5694	0.958
26.6251	0.956
26.6808	0.958
26.7365	0.959
26.7921	0.954
26.8478	0.958
26.9035	0.959
26.9592	0.958
27.0149	0.958
27.0706	0.961
27.1263	0.964
27.1819	0.959
27.2376	0.961
27.2933	0.963
27.349	0.963
27.4047	0.958
27.4604	0.956
27.5161	0.958
27.5717	0.958
27.6274	0.963
27.6831	0.963
27.7388	0.963
27.7945	0.963
27.8502	0.961
27.9059	0.963
27.9616	0.964
28.0172	0.961
28.0729	0.958
28.1286	0.956
28.1843	0.956
28.24	0.954
28.2957	0.953
28.3514	0.959
28.407	0.958
28.4627	0.958
28.5184	0.958
28.5741	0.956
28.6298	0.959
28.6855	0.959
28.7412	0.959
28.7968	0.963
28.8525	0.958
28.9082	0.956
28.9639	0.959
29.0196	0.959
29.0753	0.956
29.131	0.958
29.1866	0.958
29.2423	0.961
29.298	0.959
29.3537	0.956
29.4094	0.956
29.4651	0.956
29.5208	0.959
29.5764	0.956
29.6321	0.959
29.6878	0.954
29.7435	0.954
29.7992	0.958
29.8549	0.956
29.9106	0.959
29.9662	0.958
30.0219	0.959
30.0776	0.961
30.1333	0.958
30.189	0.953
30.2447	0.954
30.3004	0.956
30.356	0.956
30.4117	0.956
30.4674	0.956
30.5231	0.954
30.5788	0.958
30.6345	0.954
30.6902	0.951
30.7459	0.951
30.8015	0.951
30.8572	0.949
30.9129	0.944
30.9686	0.946
31.0243	0.942
31.08	0.936
31.1357	0.932
31.1913	0.922
31.247	0.914
31.3027	0.902
31.3584	0.895
31.4141	0.889
31.4698	0.879
31.5255	0.865
31.5811	0.857
31.6368	0.854
31.6925	0.85
31.7482	0.847
31.8039	0.848
31.8596	0.852
31.9153	0.857
31.9709	0.865
32.0266	0.88
32.0823	0.89
32.138	0.899
32.1937	0.907
32.2494	0.914
32.3051	0.927
32.3607	0.932
32.4164	0.939
32.4721	0.939
32.5278	0.939
32.5835	0.939
32.6392	0.939
32.6949	0.942
32.7505	0.949
32.8062	0.953
32.8619	0.958
32.9176	0.958
32.9733	0.954
33.029	0.953
33.0847	0.954
33.1403	0.954
33.196	0.954
33.2517	0.951
33.3074	0.947
33.3631	0.951
33.4188	0.954
33.4745	0.954
33.5302	0.951
33.5858	0.947
33.6415	0.949
33.6972	0.953
33.7529	0.949
33.8086	0.949
33.8643	0.951
33.92	0.946
33.9756	0.947
34.0313	0.946
34.087	0.947
34.1427	0.944
34.1984	0.939
34.2541	0.932
34.3098	0.934
34.3654	0.939
34.4211	0.936
34.4768	0.934
34.5325	0.927
34.5882	0.919
34.6439	0.916
34.6996	0.909
34.7552	0.902
34.8109	0.895
34.8666	0.872
34.9223	0.869
34.978	0.869
