Infrared Spectrum: Purine, 2-amino-, nitrate
Formula: C5 H6 N6 O3
State: SOLID (0.9 mg / 650 mg KBr DISC)
Class: COBLENTZ III
Instrument: PERKIN-ELMER 21 (GRATING)
Instrument parameters: FILTER CHANGE ABOUT 1070 CM^-^1
Resolution: 2
Origin: SOUTHERN RESEARCH INSTITUTE
1/CM	TRANSMITTANCE
619	0.6114
628	0.6166
637	0.7689
646	0.7754
655	0.776
664	0.7743
673	0.7587
682	0.7186
691	0.6642
700	0.6197
709	0.6721
718	0.6647
727	0.6273
736	0.575
745	0.5765
754	0.5832
763	0.5817
772	0.5271
781	0.5994
790	0.6609
799	0.6583
808	0.6333
817	0.519
826	0.5427
835	0.678
844	0.7016
853	0.7057
862	0.7069
871	0.7047
880	0.6965
889	0.6656
898	0.6582
907	0.6583
916	0.6066
925	0.432
934	0.6895
943	0.6927
952	0.6911
961	0.6915
970	0.7477
979	0.7615
988	0.7493
997	0.7309
1006	0.7171
1015	0.6927
1024	0.68
1033	0.6542
1042	0.642
1051	0.6394
1060	0.6165
1069	0.5653
1078	0.436
1087	0.4383
1096	0.5394
1105	0.6233
1114	0.6255
1123	0.6205
1132	0.6147
1141	0.6083
1150	0.598
1159	0.5805
1168	0.5482
1177	0.5576
1186	0.5631
1195	0.4925
1204	0.4405
1213	0.5314
1222	0.5201
1231	0.4955
1240	0.4729
1249	0.4581
1258	0.4173
1267	0.3385
1276	0.3262
1285	0.3221
1294	0.2424
1303	0.2591
1312	0.2542
1321	0.2287
1330	0.1822
1339	0.1532
1348	0.1328
1357	0.1049
1366	0.0693
1375	0.0479
1384	0.0535
1393	0.1156
1402	0.1327
1411	0.1425
1420	0.1759
1429	0.2445
1438	0.334
1447	0.3819
1456	0.4698
1465	0.5577
1474	0.5936
1483	0.5697
1492	0.5241
1501	0.5652
1510	0.6631
1519	0.7288
1528	0.727
1537	0.7078
1546	0.6809
1555	0.6431
1564	0.5992
1573	0.4668
1582	0.4326
1591	0.4068
1600	0.3087
1609	0.1868
1618	0.1495
1627	0.1654
1636	0.1597
1645	0.1478
1654	0.1447
1663	0.1675
1672	0.2754
1681	0.5129
1690	0.6468
1699	0.7107
1708	0.7756
1717	0.7994
1726	0.812
1735	0.8147
1744	0.8191
1753	0.8439
1762	0.8676
1771	0.8662
1780	0.8634
1789	0.8729
1798	0.8836
1807	0.882
1816	0.885
1825	0.8836
1834	0.8821
1843	0.8808
1852	0.8792
1861	0.8749
1870	0.8637
1879	0.8597
1888	0.8575
1897	0.8562
1906	0.8554
1915	0.8554
1924	0.8556
1933	0.8569
1942	0.8581
1951	0.8582
1960	0.8569
1969	0.8532
1978	0.849
1987	0.845
1996	0.8411
2005	0.8372
2014	0.8331
2023	0.8299
2032	0.827
2041	0.8259
2050	0.8267
2059	0.8262
2068	0.8221
2077	0.8181
2086	0.8141
2095	0.8103
2104	0.8066
2113	0.803
2122	0.799
2131	0.7951
2140	0.7917
2149	0.7886
2158	0.7856
2167	0.7831
2176	0.7806
2185	0.7785
2194	0.7754
2203	0.7717
2212	0.7679
2221	0.7639
2230	0.7598
2239	0.7553
2248	0.7507
2257	0.7461
2266	0.7429
2275	0.7398
2284	0.7355
2293	0.7184
2302	0.6979
2311	0.6878
2320	0.6823
2329	0.6768
2338	0.6714
2347	0.6657
2356	0.6619
2365	0.6631
2374	0.6594
2383	0.6548
2392	0.6484
2401	0.6421
2410	0.6364
2419	0.6323
2428	0.6249
2437	0.6161
2446	0.6078
2455	0.6016
2464	0.5991
2473	0.5953
2482	0.5876
2491	0.5794
2500	0.5712
2509	0.5631
2518	0.5545
2527	0.5425
2536	0.5301
2545	0.5187
2554	0.508
2563	0.4978
2572	0.4878
2581	0.4784
2590	0.4698
2599	0.4636
2608	0.458
2617	0.4503
2626	0.438
2635	0.4306
2644	0.4198
2653	0.4098
2662	0.4005
2671	0.3899
2680	0.3789
2689	0.368
2698	0.3569
2707	0.3448
2716	0.3332
2725	0.3234
2734	0.3189
2743	0.3179
2752	0.3181
2761	0.3196
2770	0.3228
2779	0.3251
2788	0.3263
2797	0.3277
2806	0.3285
2815	0.3284
2824	0.3276
2833	0.3255
2842	0.3219
2851	0.3151
2860	0.307
2869	0.2995
2878	0.2921
2887	0.284
2896	0.276
2905	0.2694
2914	0.2629
2923	0.2577
2932	0.2531
2941	0.2488
2950	0.245
2959	0.2419
2968	0.2388
2977	0.2338
2986	0.2273
2995	0.2185
3004	0.2113
3013	0.2059
3022	0.2032
3031	0.2011
3040	0.1996
3049	0.1983
3058	0.1974
3067	0.198
3076	0.2003
3085	0.2046
3094	0.2124
3103	0.222
3112	0.2347
3121	0.2443
3130	0.2538
3139	0.267
3148	0.2779
3157	0.2895
3166	0.297
3175	0.3031
3184	0.3082
3193	0.3116
3202	0.3133
3211	0.3138
3220	0.3118
3229	0.3046
3238	0.2954
3247	0.2898
3256	0.2861
3265	0.2874
3274	0.2903
3283	0.2942
3292	0.2991
3301	0.3072
3310	0.3173
3319	0.3251
3328	0.3446
3337	0.3513
3346	0.3657
3355	0.3844
3364	0.4014
3373	0.4197
3382	0.4304
3391	0.4416
3400	0.4556
3409	0.4735
3418	0.488
3427	0.4995
3436	0.5198
3445	0.5374
3454	0.5544
3463	0.5696
3472	0.5817
3481	0.5934
3490	0.6047
3499	0.6181
3508	0.6314
3517	0.6373
3526	0.645
3535	0.6564
3544	0.6713
3553	0.6897
3562	0.6992
3571	0.7158
3580	0.7293
3589	0.7369
3598	0.7452
3607	0.7541
3616	0.764
3625	0.7734
3634	0.7782
3643	0.7787
3652	0.7787
3661	0.7786
3670	0.7786
3679	0.7788
3688	0.7819
3697	0.7879
3706	0.788
3715	0.7875
3724	0.7861
3733	0.7837
3742	0.7785
3751	0.7783
3760	0.7781
3769	0.7775
3778	0.7769
3787	0.7757
3796	0.7618
3805	0.7583
3814	0.7575
3823	0.7543
3832	0.75
3841	0.7483
3850	0.7473
3859	0.7464
3868	0.7465
3877	0.7468
3886	0.7464
3895	0.7446
