Infrared Spectrum: SILVER CYANATE
Formula: Ag O C N
State: SOLID (NUJOL MULL)
Class: COBLENTZ
Instrument: Not specified, most likely a prism, grating, or hybrid spectrometer.
Sampling: TRANSMISSION
Resolution: 4
Origin: MELLON INSTITUTE
MICROMETERS	TRANSMITTANCE
2.03	0.718
2.06985	0.725
2.10971	0.731
2.14956	0.737
2.18942	0.745
2.22927	0.755
2.26913	0.758
2.30898	0.762
2.34883	0.763
2.38869	0.767
2.42854	0.772
2.4684	0.78
2.50825	0.79
2.5481	0.795
2.58796	0.795
2.62781	0.8
2.66767	0.81
2.70752	0.812
2.74738	0.81
2.78723	0.807
2.82708	0.804
2.86694	0.768
2.90679	0.725
2.94665	0.753
2.9865	0.782
3.02636	0.802
3.06621	0.814
3.10606	0.82
3.14592	0.825
3.18577	0.83
3.22563	0.834
3.26548	0.834
3.30533	0.8
3.34519	0.556
3.38504	0.268
3.4249	0.333
3.46475	0.415
3.50461	0.639
3.54446	0.847
3.58431	0.897
3.62417	0.909
3.66402	0.914
3.70388	0.917
3.74373	0.921
3.78359	0.919
3.82344	0.924
3.86329	0.932
3.90315	0.938
3.943	0.939
3.98286	0.938
4.02271	0.948
4.06256	0.951
4.10242	0.951
4.14227	0.951
4.18213	0.943
4.22198	0.927
4.26184	0.916
4.30169	0.907
4.34154	0.902
4.3814	0.852
4.42125	0.579
4.46111	0.254
4.50096	0.13
4.54082	0.09
4.58067	0.075
4.62052	0.077
4.66038	0.087
4.70023	0.12
4.74009	0.274
4.77994	0.408
4.81979	0.499
4.85965	0.577
4.8995	0.628
4.93936	0.659
4.97921	0.691
5.01907	0.715
5.05892	0.735
5.09877	0.76
5.13863	0.773
5.17848	0.788
5.21834	0.802
5.25819	0.812
5.29805	0.824
5.3379	0.829
5.37775	0.834
5.41761	0.834
5.45746	0.84
5.49732	0.842
5.53717	0.849
5.57702	0.854
5.61688	0.859
5.65673	0.865
5.69659	0.871
5.73644	0.877
5.7763	0.874
5.81615	0.876
5.856	0.887
5.89586	0.889
5.93571	0.889
5.97557	0.889
6.01542	0.889
6.05528	0.892
6.09513	0.891
6.13498	0.892
6.17484	0.899
6.21469	0.907
6.25455	0.912
6.2944	0.917
6.33425	0.914
6.37411	0.911
6.41396	0.909
6.45382	0.907
6.49367	0.911
6.53353	0.901
6.57338	0.901
6.61323	0.901
6.65309	0.902
6.69294	0.907
6.7328	0.901
6.77265	0.884
6.8125	0.782
6.85236	0.708
6.89221	0.708
6.93207	0.748
6.97192	0.785
7.01178	0.845
7.05163	0.857
7.09148	0.892
7.13134	0.906
7.17119	0.904
7.21105	0.872
7.2509	0.815
7.29076	0.822
7.33061	0.829
7.37046	0.815
7.41032	0.787
7.45017	0.788
7.49003	0.819
7.52988	0.825
7.56973	0.8
7.60959	0.683
7.64944	0.681
7.6893	0.738
7.72915	0.809
7.76901	0.849
7.80886	0.86
7.84871	0.874
7.88857	0.886
7.92842	0.901
7.96828	0.909
8.00813	0.917
8.04799	0.922
8.08784	0.927
8.12769	0.927
8.16755	0.929
8.2074	0.927
8.24726	0.916
8.28711	0.914
8.32696	0.919
8.36682	0.924
8.40667	0.931
8.44653	0.934
8.48638	0.936
8.52624	0.939
8.56609	0.943
8.60594	0.943
8.6458	0.944
8.68565	0.944
8.72551	0.944
8.76536	0.943
8.80522	0.944
8.84507	0.946
8.88492	0.944
8.92478	0.946
8.96463	0.946
9.00449	0.946
9.04434	0.946
9.08419	0.946
9.12405	0.944
9.1639	0.944
9.20376	0.946
9.24361	0.944
9.28347	0.946
9.32332	0.948
9.36317	0.944
9.40303	0.943
9.44288	0.946
9.48274	0.946
9.52259	0.948
9.56245	0.949
9.6023	0.951
9.64215	0.951
9.68201	0.953
9.72186	0.956
9.76172	0.954
9.80157	0.956
9.84142	0.956
9.88128	0.958
9.92113	0.959
9.96099	0.963
10.0008	0.963
10.0407	0.959
10.0806	0.959
10.1204	0.959
10.1603	0.959
10.2001	0.959
10.24	0.954
10.2798	0.956
10.3197	0.958
10.3595	0.958
10.3994	0.958
10.4392	0.959
10.4791	0.961
10.5189	0.963
10.5588	0.964
10.5987	0.964
10.6385	0.964
10.6784	0.964
10.7182	0.964
10.7581	0.968
10.7979	0.969
10.8378	0.968
10.8776	0.969
10.9175	0.971
10.9573	0.976
10.9972	0.978
11.0371	0.978
11.0769	0.978
11.1168	0.981
11.1566	0.983
11.1965	0.986
11.2363	0.988
11.2762	0.991
11.316	0.993
11.3559	0.996
11.3957	1
11.4356	1.001
11.4754	1.003
11.5153	1.005
11.5552	1.006
11.595	1.006
11.6349	1.006
11.6747	1.006
11.7146	1.006
11.7544	1.008
11.7943	1.01
11.8341	1.011
11.874	1.013
11.9138	1.015
11.9537	1.015
11.9936	1.015
12.0334	1.015
12.0733	1.015
12.1131	1.015
12.153	1.015
12.1928	1.016
12.2327	1.016
12.2725	1.016
12.3124	1.016
12.3522	1.016
12.3921	1.016
12.4319	1.016
12.4718	1.016
12.5117	1.016
12.5515	1.016
12.5914	1.016
12.6312	1.015
12.6711	1.015
12.7109	1.015
12.7508	1.015
12.7906	1.015
12.8305	1.015
12.8703	1.013
12.9102	1.011
12.9501	1.008
12.9899	1.006
13.0298	1.005
13.0696	1.005
13.1095	1.005
13.1493	1.003
13.1892	1.003
13.229	1.003
13.2689	1.003
13.3087	1.001
13.3486	1.001
13.3884	1.001
13.4283	1.001
13.4682	1.001
13.508	0.996
13.5479	0.991
13.5877	0.989
13.6276	0.988
13.6674	0.981
13.7073	0.978
13.7471	0.976
13.787	0.974
13.8268	0.969
13.8667	0.964
13.9066	0.961
13.9464	0.961
13.9863	0.963
14.0261	0.964
14.066	0.964
14.1058	0.963
14.1457	0.958
14.1855	0.954
14.2254	0.953
14.2652	0.949
14.3051	0.943
14.345	0.941
14.3848	0.936
14.4247	0.924
14.4645	0.916
14.5044	0.912
14.5442	0.906
14.5841	0.902
14.6239	0.897
14.6638	0.891
14.7036	0.889
14.7435	0.884
14.7833	0.877
14.8232	0.869
14.8631	0.85
14.9029	0.835
14.9428	0.825
14.9826	0.812
15.0225	0.79
15.0623	0.763
15.1022	0.742
15.142	0.728
15.1819	0.711
15.2217	0.705
15.2616	0.7
15.3015	0.696
15.3413	0.695
15.3812	0.693
15.421	0.691
15.4609	0.69
15.5007	0.688
15.5406	0.686
15.5804	0.685
15.6203	0.681
15.6601	0.68
15.7	0.68
15.7398	0.675
15.7797	0.673
15.8196	0.671
15.8594	0.668
15.8993	0.666
15.9391	0.663
15.979	0.659
