Infrared Spectrum: Magnesium phosphate, tribasic, octahydrate
Formula: O8 P2 Mg3  * 8 H2 O
State: SOLID (1 mg / 100 mg, KBr DISC)
Class: COBLENTZ III
Instrument: BECKMAN IR-12 (GRATING)
Instrument parameters: GRATING
Sampling: TRANSMISSION
Resolution: 2
Origin: COLGATE-PALMOLIVE COMPANY (KELLENBACH)
1/CM	TRANSMITTANCE
205	0.1083
215	0.1065
225	0.1314
235	0.2605
245	0.4079
255	0.4293
265	0.5427
275	0.663
285	0.6731
295	0.6362
305	0.6049
315	0.5544
325	0.4796
335	0.4065
345	0.3243
355	0.3104
365	0.3692
375	0.4366
385	0.4572
395	0.438
405	0.4235
415	0.4584
425	0.5109
435	0.5637
445	0.5958
455	0.6177
465	0.6225
475	0.6222
485	0.6005
495	0.5989
505	0.6036
515	0.5951
525	0.5772
535	0.5222
545	0.421
555	0.3492
565	0.2811
575	0.2386
585	0.2116
595	0.1851
605	0.1876
615	0.2619
625	0.3736
635	0.4853
645	0.5852
655	0.6405
665	0.6725
675	0.6835
685	0.6957
695	0.6952
705	0.6937
715	0.7036
725	0.7231
735	0.7398
745	0.7458
755	0.7436
765	0.697
775	0.6345
785	0.6436
795	0.7009
805	0.7251
815	0.7084
825	0.6593
835	0.6102
845	0.5611
855	0.5201
865	0.5017
875	0.5459
885	0.6015
895	0.6568
905	0.6779
915	0.6886
925	0.6779
935	0.5202
945	0.3682
955	0.3841
965	0.4221
975	0.3363
985	0.2505
995	0.1778
1005	0.1257
1015	0.105
1025	0.1201
1035	0.1146
1045	0.0816
1055	0.0638
1065	0.0579
1075	0.0557
1085	0.0556
1095	0.0616
1105	0.1029
1115	0.1572
1125	0.202
1135	0.198
1145	0.1951
1155	0.2613
1165	0.3389
1175	0.4397
1185	0.577
1195	0.6626
1205	0.721
1215	0.7548
1225	0.7831
1235	0.8044
1245	0.8205
1255	0.8366
1265	0.849
1275	0.8606
1285	0.8699
1295	0.8789
1305	0.8879
1315	0.8965
1325	0.9043
1335	0.9106
1345	0.9164
1355	0.9229
1365	0.9276
1375	0.9263
1385	0.9358
1395	0.9332
1405	0.9323
1415	0.9378
1425	0.9292
1435	0.9281
1445	0.9292
1455	0.9217
1465	0.9244
1475	0.9192
1485	0.9207
1495	0.912
1505	0.8961
1515	0.8953
1525	0.8835
1535	0.8589
1545	0.8386
1555	0.8073
1565	0.7945
1575	0.7598
1585	0.7491
1595	0.7421
1605	0.734
1615	0.7221
1625	0.7019
1635	0.6703
1645	0.6482
1655	0.6376
1665	0.6393
1675	0.6512
1685	0.686
1695	0.7322
1705	0.7806
1715	0.8098
1725	0.8442
1735	0.8553
1745	0.8672
1755	0.8861
1765	0.9051
1775	0.9112
1785	0.9138
1795	0.911
1805	0.913
1815	0.9136
1825	0.9084
1835	0.9103
1845	0.9149
1855	0.9235
1865	0.9225
1875	0.9125
1885	0.9047
1895	0.9004
1905	0.8972
1915	0.8901
1925	0.8724
1935	0.8667
1945	0.8615
1955	0.8575
1965	0.8541
1975	0.8508
1985	0.8501
1995	0.8556
2005	0.848
2015	0.8405
2025	0.8389
2035	0.8388
2045	0.84
2055	0.8416
2065	0.8431
2075	0.8434
2085	0.8423
2095	0.8395
2105	0.8358
2115	0.8316
2125	0.8275
2135	0.8237
2145	0.82
2155	0.8161
2165	0.8117
2175	0.8072
2185	0.8028
2195	0.7984
2205	0.7938
2215	0.7893
2225	0.7848
2235	0.7807
2245	0.7765
2255	0.7724
2265	0.7687
2275	0.7649
2285	0.7612
2295	0.7583
2305	0.7554
2315	0.7526
2325	0.7497
2335	0.7477
2345	0.7467
2355	0.7481
2365	0.7532
2375	0.7654
2385	0.7813
2395	0.7948
2405	0.7997
2415	0.7988
2425	0.7974
2435	0.7967
2445	0.7959
2455	0.7945
2465	0.7922
2475	0.7898
2485	0.7869
2495	0.7833
2505	0.7798
2515	0.7759
2525	0.7714
2535	0.7664
2545	0.7612
2555	0.7561
2565	0.75
2575	0.7438
2585	0.7376
2595	0.7309
2605	0.7241
2615	0.7173
2625	0.7095
2635	0.7014
2645	0.6926
2655	0.682
2665	0.6692
2675	0.6551
2685	0.6397
2695	0.6266
2705	0.6156
2715	0.6047
2725	0.5918
2735	0.5771
2745	0.5625
2755	0.5492
2765	0.5399
2775	0.5306
2785	0.5209
2795	0.5105
2805	0.5004
2815	0.4903
2825	0.481
2835	0.4725
2845	0.464
2855	0.4553
2865	0.4466
2875	0.436
2885	0.4253
2895	0.4151
2905	0.4052
2915	0.3953
2925	0.3869
2935	0.3794
2945	0.3719
2955	0.3645
2965	0.3547
2975	0.3444
2985	0.334
2995	0.3225
3005	0.3109
3015	0.2987
3025	0.286
3035	0.2733
3045	0.2613
3055	0.2505
3065	0.2422
3075	0.2362
3085	0.234
3095	0.2337
3105	0.234
3115	0.2349
3125	0.2358
3135	0.2373
3145	0.2388
3155	0.2406
3165	0.2425
3175	0.2456
3185	0.2493
3195	0.2534
3205	0.2586
3215	0.2653
3225	0.272
3235	0.2798
3245	0.2878
3255	0.2958
3265	0.3014
3275	0.307
3285	0.3108
3295	0.3142
3305	0.3175
3315	0.3208
3325	0.3241
3335	0.3274
3345	0.3331
3355	0.3443
3365	0.3487
3375	0.3512
3385	0.3559
3395	0.3629
3405	0.3702
3415	0.3696
3425	0.367
3435	0.3619
3445	0.3547
3455	0.3433
3465	0.3318
3475	0.321
3485	0.3107
3495	0.3062
3505	0.3071
3515	0.3196
3525	0.3389
3535	0.3789
3545	0.4028
3555	0.427
3565	0.4509
3575	0.4775
3585	0.4962
3595	0.5114
3605	0.5254
3615	0.5345
3625	0.5545
3635	0.5771
3645	0.6003
3655	0.639
3665	0.67
3675	0.6764
3685	0.6899
3695	0.6971
3705	0.7033
3715	0.7095
3725	0.7155
3735	0.7215
3745	0.7269
3755	0.7323
3765	0.7377
3775	0.743
3785	0.7481
3795	0.7501
3805	0.7484
3815	0.7483
3825	0.7499
3835	0.7547
3845	0.7596
3855	0.7583
3865	0.7563
3875	0.7562
3885	0.7573
3895	0.7589
3905	0.7609
3915	0.763
3925	0.7655
3935	0.768
3945	0.77
3955	0.7717
3965	0.7728
3975	0.7733
3985	0.7738
3995	0.7742
