Infrared Spectrum: BIS(2-AMINO-1-PROPYL) DISULFIDE DIHYDROCHLORIDE
Formula: C6 H16 N2 S2  * 2 H Cl
State: SOLID (MINERAL OIL MULL)
Melting point: 217-218 C
Class: COBLENTZ
Instrument: Not specified, most likely a prism, grating, or hybrid spectrometer.
Sampling: TRANSMISSION
Resolution: 4
Origin: ARTHUR D. LITTLE, INC.
MICROMETERS	TRANSMITTANCE
2.51	0.821
2.54631	0.827
2.58262	0.83
2.61893	0.824
2.65523	0.815
2.69154	0.798
2.72785	0.784
2.76416	0.769
2.80047	0.751
2.83678	0.739
2.87309	0.745
2.9094	0.753
2.9457	0.708
2.98201	0.656
3.01832	0.514
3.05463	0.36
3.09094	0.234
3.12725	0.107
3.16356	0.09
3.19987	0.084
3.23617	0.062
3.27248	0.043
3.30879	0.026
3.3451	0.013
3.38141	0.013
3.41772	0.019
3.45403	0.033
3.49034	0.08
3.52664	0.159
3.56295	0.224
3.59926	0.257
3.63557	0.316
3.67188	0.36
3.70819	0.427
3.7445	0.462
3.7808	0.444
3.81711	0.406
3.85342	0.504
3.88973	0.543
3.92604	0.554
3.96235	0.565
3.99866	0.6
4.03497	0.697
4.07127	0.744
4.10758	0.771
4.14389	0.775
4.1802	0.781
4.21651	0.79
4.25282	0.813
4.28913	0.827
4.32544	0.833
4.36174	0.832
4.39805	0.82
4.43436	0.833
4.47067	0.84
4.50698	0.843
4.54329	0.846
4.5796	0.849
4.61591	0.851
4.65221	0.846
4.68852	0.827
4.72483	0.82
4.76114	0.813
4.79745	0.812
4.83376	0.815
4.87007	0.806
4.90638	0.79
4.94268	0.773
4.97899	0.757
5.0153	0.746
5.05161	0.727
5.08792	0.726
5.12423	0.749
5.16054	0.772
5.19684	0.793
5.23315	0.814
5.26946	0.831
5.30577	0.84
5.34208	0.843
5.37839	0.851
5.4147	0.859
5.45101	0.867
5.48731	0.872
5.52362	0.874
5.55993	0.875
5.59624	0.873
5.63255	0.868
5.66886	0.862
5.70517	0.857
5.74148	0.85
5.77778	0.84
5.81409	0.836
5.8504	0.831
5.88671	0.828
5.92302	0.828
5.95933	0.821
5.99564	0.807
6.03195	0.787
6.06825	0.751
6.10456	0.704
6.14087	0.585
6.17718	0.401
6.21349	0.222
6.2498	0.315
6.28611	0.32
6.32241	0.267
6.35872	0.381
6.39503	0.651
6.43134	0.707
6.46765	0.689
6.50396	0.612
6.54027	0.438
6.57658	0.261
6.61288	0.146
6.64919	0.189
6.6855	0.28
6.72181	0.383
6.75812	0.298
6.79443	0.212
6.83074	0.202
6.86705	0.295
6.90335	0.468
6.93966	0.649
6.97597	0.701
7.01228	0.604
7.04859	0.487
7.0849	0.604
7.12121	0.437
7.15752	0.297
7.19382	0.304
7.23013	0.356
7.26644	0.421
7.30275	0.481
7.33906	0.586
7.37537	0.653
7.41168	0.701
7.44798	0.724
7.48429	0.736
7.5206	0.746
7.55691	0.748
7.59322	0.749
7.62953	0.748
7.66584	0.751
7.70215	0.751
7.73845	0.733
7.77476	0.707
7.81107	0.713
7.84738	0.713
7.88369	0.696
7.92	0.615
7.95631	0.518
7.99262	0.44
8.02892	0.506
8.06523	0.619
8.10154	0.702
8.13785	0.696
8.17416	0.602
8.21047	0.445
8.24678	0.375
8.28309	0.318
8.31939	0.461
8.3557	0.637
8.39201	0.714
8.42832	0.756
8.46463	0.769
8.50094	0.772
8.53725	0.774
8.57355	0.778
8.60986	0.781
8.64617	0.789
8.68248	0.793
8.71879	0.791
8.7551	0.781
8.79141	0.727
8.82772	0.603
8.86402	0.475
8.90033	0.338
8.93664	0.461
8.97295	0.6
9.00926	0.713
9.04557	0.748
9.08188	0.731
9.11819	0.686
9.15449	0.528
9.1908	0.542
9.22711	0.542
9.26342	0.495
9.29973	0.69
9.33604	0.767
9.37235	0.787
9.40866	0.804
9.44496	0.807
9.48127	0.806
9.51758	0.802
9.55389	0.798
9.5902	0.801
9.62651	0.802
9.66282	0.798
9.69913	0.793
9.73543	0.787
9.77174	0.78
9.80805	0.754
9.84436	0.697
9.88067	0.661
9.91698	0.673
9.95329	0.693
9.98959	0.686
10.0259	0.644
10.0622	0.579
10.0985	0.557
10.1348	0.565
10.1711	0.573
10.2074	0.58
10.2438	0.645
10.2801	0.7
10.3164	0.748
10.3527	0.771
10.389	0.79
10.4253	0.797
10.4616	0.786
10.4979	0.756
10.5342	0.767
10.5705	0.774
10.6068	0.777
10.6432	0.775
10.6795	0.763
10.7158	0.767
10.7521	0.789
10.7884	0.807
10.8247	0.822
10.861	0.833
10.8973	0.832
10.9336	0.833
10.9699	0.834
11.0062	0.837
11.0425	0.834
11.0789	0.834
11.1152	0.834
11.1515	0.831
11.1878	0.821
11.2241	0.792
11.2604	0.768
11.2967	0.742
11.333	0.745
11.3693	0.753
11.4056	0.778
11.4419	0.786
11.4783	0.793
11.5146	0.8
11.5509	0.806
11.5872	0.81
11.6235	0.815
11.6598	0.82
11.6961	0.821
11.7324	0.822
11.7687	0.827
11.805	0.831
11.8413	0.836
11.8776	0.838
11.914	0.84
11.9503	0.843
11.9866	0.844
12.0229	0.843
12.0592	0.839
12.0955	0.831
12.1318	0.814
12.1681	0.819
12.2044	0.814
12.2407	0.806
12.277	0.775
12.3134	0.746
12.3497	0.712
12.386	0.665
12.4223	0.65
12.4586	0.656
12.4949	0.686
12.5312	0.761
12.5675	0.795
12.6038	0.827
12.6401	0.824
12.6764	0.834
12.7127	0.834
12.7491	0.832
12.7854	0.831
12.8217	0.831
12.858	0.831
12.8943	0.828
12.9306	0.818
12.9669	0.807
13.0032	0.807
13.0395	0.815
13.0758	0.813
13.1121	0.809
13.1485	0.806
13.1848	0.804
13.2211	0.801
13.2574	0.797
13.2937	0.795
13.33	0.79
13.3663	0.78
13.4026	0.771
13.4389	0.765
13.4752	0.756
13.5115	0.74
13.5478	0.727
13.5842	0.721
13.6205	0.713
13.6568	0.709
13.6931	0.707
13.7294	0.706
13.7657	0.701
13.802	0.686
13.8383	0.679
13.8746	0.672
13.9109	0.678
13.9472	0.683
13.9836	0.695
14.0199	0.712
14.0562	0.722
14.0925	0.73
14.1288	0.737
14.1651	0.744
14.2014	0.748
14.2377	0.748
14.274	0.746
14.3103	0.748
14.3466	0.739
14.3829	0.73
14.4193	0.727
14.4556	0.725
14.4919	0.722
14.5282	0.72
14.5645	0.719
14.6008	0.716
14.6371	0.714
14.6734	0.712
14.7097	0.709
14.746	0.704
14.7823	0.7
14.8187	0.69
14.855	0.683
14.8913	0.674
14.9276	0.667
14.9639	0.667
15.0002	0.675
