Infrared Spectrum: PURINE, 2,6-DIAMINO-, SULFATE, HYDRATE
Formula: C10 H12 N12  * H2 S O4  * H2 O
State: SOLID (1 mg / 650 mg, KBr DISC)
Class: COBLENTZ III
Instrument: PERKIN-ELMER 21 (GRATING)
Instrument parameters: NaCl PRISM
Sampling: TRANSMISSION
Resolution: 4
Origin: SOUTHERN RESEARCH INSTITUTE
1/CM	TRANSMITTANCE
618.309	0.546
626.826	0.5599
635.343	0.5879
643.86	0.5802
652.377	0.5602
660.895	0.5629
669.412	0.5779
677.929	0.585
686.446	0.5888
694.963	0.6068
703.48	0.608
711.997	0.5897
720.514	0.5713
729.031	0.5683
737.549	0.5663
746.066	0.5557
754.583	0.55
763.1	0.5651
771.617	0.6212
780.134	0.619
788.651	0.618
797.168	0.6149
805.685	0.597
814.202	0.5685
822.72	0.5427
831.237	0.545
839.754	0.6276
848.271	0.6582
856.788	0.6788
865.305	0.686
873.822	0.686
882.339	0.684
890.856	0.6797
899.374	0.6669
907.891	0.6503
916.408	0.6103
924.925	0.5434
933.442	0.4495
941.959	0.6524
950.476	0.6637
958.993	0.6321
967.51	0.6001
976.028	0.619
984.545	0.5918
993.062	0.552
1001.58	0.52
1010.1	0.5041
1018.61	0.4793
1027.13	0.4119
1035.65	0.3234
1044.16	0.253
1052.68	0.2331
1061.2	0.229
1069.72	0.2337
1078.23	0.2506
1086.75	0.2694
1095.27	0.2833
1103.78	0.2967
1112.3	0.3054
1120.82	0.314
1129.34	0.318
1137.85	0.32
1146.37	0.3488
1154.89	0.3865
1163.4	0.4401
1171.92	0.4793
1180.44	0.5794
1188.96	0.6552
1197.47	0.687
1205.99	0.691
1214.51	0.688
1223.02	0.6831
1231.54	0.6604
1240.06	0.6268
1248.58	0.6437
1257.09	0.657
1265.61	0.6647
1274.13	0.6567
1282.64	0.634
1291.16	0.5715
1299.68	0.5615
1308.19	0.6107
1316.71	0.6194
1325.23	0.5995
1333.75	0.5723
1342.26	0.5454
1350.78	0.5091
1359.3	0.4688
1367.81	0.449
1376.33	0.4299
1384.85	0.385
1393.37	0.37
1401.88	0.4067
1410.4	0.4726
1418.92	0.5244
1427.43	0.608
1435.95	0.6304
1444.47	0.6183
1452.99	0.5942
1461.5	0.5565
1470.02	0.5262
1478.54	0.5516
1487.05	0.584
1495.57	0.5621
1504.09	0.5386
1512.61	0.4856
1521.12	0.472
1529.64	0.5899
1538.16	0.5965
1546.67	0.551
1555.19	0.5274
1563.71	0.4621
1572.23	0.3768
1580.74	0.2685
1589.26	0.2709
1597.78	0.2637
1606.29	0.234
1614.81	0.234
1623.33	0.2154
1631.84	0.1822
1640.36	0.1496
1648.88	0.1407
1657.4	0.1503
1665.91	0.1593
1674.43	0.164
1682.95	0.1702
1691.46	0.1953
1699.98	0.2332
1708.5	0.3073
1717.02	0.4276
1725.53	0.5945
1734.05	0.6651
1742.57	0.7151
1751.08	0.7611
1759.6	0.794
1768.12	0.8121
1776.64	0.828
1785.15	0.8399
1793.67	0.8479
1802.19	0.8619
1810.7	0.8708
1819.22	0.876
1827.74	0.8799
1836.26	0.8848
1844.77	0.886
1853.29	0.889
1861.81	0.889
1870.32	0.89
1878.84	0.889
1887.36	0.886
1895.88	0.885
1904.39	0.885
1912.91	0.884
1921.43	0.8808
1929.94	0.8784
1938.46	0.877
1946.98	0.8749
1955.5	0.872
1964.01	0.868
1972.53	0.865
1981.05	0.8605
1989.56	0.8556
1998.08	0.8486
2006.6	0.844
2015.11	0.84
2023.63	0.838
2032.15	0.835
2040.67	0.833
2049.18	0.8326
2057.7	0.831
2066.22	0.8276
2074.73	0.8256
2083.25	0.822
2091.77	0.82
2100.29	0.8166
2108.8	0.814
2117.32	0.8106
2125.84	0.8072
2134.35	0.8036
2142.87	0.7996
2151.39	0.797
2159.91	0.793
2168.42	0.788
2176.94	0.7832
2185.46	0.777
2193.97	0.775
2202.49	0.7706
2211.01	0.7636
2219.53	0.7572
2228.04	0.7526
2236.56	0.7496
2245.08	0.746
2253.59	0.743
2262.11	0.7356
2270.63	0.7296
2279.15	0.7232
2287.66	0.7146
2296.18	0.707
2304.7	0.6976
2313.21	0.6926
2321.73	0.688
2330.25	0.686
2338.76	0.684
2347.28	0.6756
2355.8	0.6676
2364.32	0.6612
2372.83	0.6536
2381.35	0.6506
2389.87	0.645
2398.38	0.6356
2406.9	0.629
2415.42	0.6186
2423.94	0.611
2432.45	0.6047
2440.97	0.5867
2449.49	0.5826
2458	0.5732
2466.52	0.5592
2475.04	0.547
2483.56	0.5382
2492.07	0.524
2500.59	0.5206
2509.11	0.518
2517.62	0.516
2526.14	0.512
2534.66	0.5096
2543.18	0.5046
2551.69	0.4986
2560.21	0.4912
2568.73	0.4836
2577.24	0.4747
2585.76	0.467
2594.28	0.4596
2602.8	0.4476
2611.31	0.4386
2619.83	0.4326
2628.35	0.4246
2636.86	0.416
2645.38	0.4096
2653.9	0.3966
2662.42	0.3916
2670.93	0.39
2679.45	0.385
2687.97	0.381
2696.48	0.376
2705	0.371
2713.52	0.365
2722.03	0.36
2730.55	0.3566
2739.07	0.3526
2747.59	0.349
2756.1	0.351
2764.62	0.353
2773.14	0.357
2781.65	0.359
2790.17	0.3586
2798.69	0.356
2807.21	0.352
2815.72	0.3466
2824.24	0.3396
2832.76	0.3302
2841.27	0.3196
2849.79	0.314
2858.31	0.3086
2866.83	0.3016
2875.34	0.2932
2883.86	0.2822
2892.38	0.2682
2900.89	0.2592
2909.41	0.2516
2917.93	0.249
2926.45	0.2446
2934.96	0.2406
2943.48	0.238
2952	0.234
2960.51	0.232
2969.03	0.233
2977.55	0.23
2986.07	0.226
2994.58	0.222
3003.1	0.219
3011.62	0.218
3020.13	0.217
3028.65	0.2156
3037.17	0.213
3045.68	0.2116
3054.2	0.21
3062.72	0.208
3071.24	0.2076
3079.75	0.207
3088.27	0.208
3096.79	0.2114
3105.3	0.216
3113.82	0.2224
3122.34	0.2324
3130.86	0.2394
3139.37	0.2478
3147.89	0.2564
3156.41	0.2664
3164.92	0.2744
3173.44	0.2854
3181.96	0.29
3190.48	0.2944
3198.99	0.295
3207.51	0.294
3216.03	0.292
3224.54	0.2916
3233.06	0.29
3241.58	0.287
3250.1	0.289
3258.61	0.286
3267.13	0.284
3275.65	0.28
3284.16	0.273
3292.68	0.266
3301.2	0.26
3309.72	0.256
3318.23	0.255
3326.75	0.252
3335.27	0.251
3343.78	0.251
3352.3	0.249
3360.82	0.246
3369.34	0.244
3377.85	0.244
3386.37	0.2464
3394.89	0.2494
3403.4	0.2574
3411.92	0.272
3420.44	0.2883
3428.95	0.3034
3437.47	0.3391
3445.99	0.3607
3454.51	0.3928
3463.02	0.4115
3471.54	0.4331
3480.06	0.4525
3488.57	0.4787
3497.09	0.5021
3505.61	0.5393
3514.13	0.5664
3522.64	0.5908
3531.16	0.6135
3539.68	0.6348
3548.19	0.6547
3556.71	0.6883
3565.23	0.7094
3573.75	0.7337
3582.26	0.7658
3590.78	0.7933
3599.3	0.8218
3607.81	0.837
3616.33	0.839
3624.85	0.8504
3633.37	0.8583
3641.88	0.871
3650.4	0.872
3658.92	0.8834
3667.43	0.886
3675.95	0.889
3684.47	0.8934
3692.99	0.894
3701.5	0.893
3710.02	0.8906
3718.54	0.888
3727.05	0.885
3735.57	0.885
3744.09	0.8854
3752.6	0.886
3761.12	0.884
3769.64	0.8812
3778.16	0.8776
3786.67	0.8726
3795.19	0.871
3803.71	0.871
3812.22	0.871
3820.74	0.871
3829.26	0.869
3837.78	0.869
3846.29	0.867
3854.81	0.865
3863.33	0.865
3871.84	0.865
3880.36	0.865
3888.88	0.861
3897.4	0.861
3905.91	0.86
3914.43	0.859
