Infrared Spectrum: CEROUS OXALATE
Formula: Ce2 ( C2 O4)3  * 9 H2 O
State: SOLID (KBr DISC)
Class: COBLENTZ
Instrument: Not specified, most likely a prism, grating, or hybrid spectrometer.
Sampling: TRANSMISSION
Resolution: 4
MICROMETERS	TRANSMITTANCE
2.016	0.866
2.05401	0.866
2.09201	0.869
2.13002	0.875
2.16802	0.878
2.20603	0.886
2.24404	0.89
2.28204	0.892
2.32005	0.894
2.35805	0.897
2.39606	0.902
2.43406	0.905
2.47207	0.908
2.51008	0.908
2.54808	0.909
2.58609	0.911
2.62409	0.914
2.6621	0.918
2.70011	0.918
2.73811	0.871
2.77612	0.75
2.81412	0.656
2.85213	0.563
2.89013	0.52
2.92814	0.485
2.96615	0.48
3.00415	0.519
3.04216	0.551
3.08016	0.582
3.11817	0.61
3.15618	0.64
3.19418	0.678
3.23219	0.711
3.27019	0.741
3.3082	0.769
3.3462	0.786
3.38421	0.795
3.42222	0.806
3.46022	0.837
3.49823	0.855
3.53623	0.866
3.57424	0.869
3.61225	0.877
3.65025	0.883
3.68826	0.893
3.72626	0.899
3.76427	0.905
3.80227	0.908
3.84028	0.911
3.87829	0.914
3.91629	0.92
3.9543	0.921
3.9923	0.924
4.03031	0.926
4.06832	0.926
4.10632	0.931
4.14433	0.936
4.18233	0.936
4.22034	0.937
4.25834	0.937
4.29635	0.937
4.33436	0.937
4.37236	0.937
4.41037	0.937
4.44837	0.937
4.48638	0.937
4.52439	0.937
4.56239	0.937
4.6004	0.937
4.6384	0.937
4.67641	0.937
4.71441	0.94
4.75242	0.943
4.79043	0.943
4.82843	0.945
4.86644	0.946
4.90444	0.949
4.94245	0.949
4.98046	0.951
5.01846	0.951
5.05647	0.951
5.09447	0.949
5.13248	0.948
5.17048	0.945
5.20849	0.94
5.2465	0.933
5.2845	0.931
5.32251	0.93
5.36051	0.927
5.39852	0.921
5.43653	0.912
5.47453	0.906
5.51254	0.896
5.55054	0.886
5.58855	0.872
5.62655	0.86
5.66456	0.832
5.70257	0.809
5.74057	0.761
5.77858	0.659
5.81658	0.554
5.85459	0.465
5.8926	0.378
5.9306	0.331
5.96861	0.272
6.00661	0.217
6.04462	0.198
6.08262	0.18
6.12063	0.177
6.15864	0.178
6.19664	0.202
6.23465	0.233
6.27265	0.286
6.31066	0.359
6.34867	0.442
6.38667	0.495
6.42468	0.571
6.46268	0.599
6.50069	0.637
6.53869	0.665
6.5767	0.692
6.61471	0.71
6.65271	0.729
6.69072	0.735
6.72872	0.732
6.76673	0.717
6.80474	0.699
6.84274	0.701
6.88075	0.723
6.91875	0.751
6.95676	0.769
6.99476	0.786
7.03277	0.795
7.07078	0.818
7.10878	0.835
7.14679	0.84
7.18479	0.843
7.2228	0.844
7.26081	0.829
7.29881	0.788
7.33682	0.761
7.37482	0.73
7.41283	0.705
7.45083	0.683
7.48884	0.64
7.52685	0.571
7.56485	0.5
7.60286	0.452
7.64086	0.457
7.67887	0.514
7.71688	0.584
7.75488	0.637
7.79289	0.704
7.83089	0.739
7.8689	0.766
7.9069	0.788
7.94491	0.795
7.98292	0.804
8.02092	0.825
8.05893	0.835
8.09693	0.84
8.13494	0.843
8.17295	0.844
8.21095	0.849
8.24896	0.853
8.28696	0.855
8.32497	0.855
8.36297	0.857
8.40098	0.857
8.43899	0.86
8.47699	0.862
8.515	0.862
8.553	0.863
8.59101	0.863
8.62902	0.862
8.66702	0.862
8.70503	0.862
8.74303	0.862
8.78104	0.862
8.81904	0.862
8.85705	0.862
8.89506	0.862
8.93306	0.862
8.97107	0.862
9.00907	0.862
9.04708	0.862
9.08509	0.862
9.12309	0.86
9.1611	0.862
9.1991	0.862
9.23711	0.862
9.27512	0.862
9.31312	0.862
9.35113	0.862
9.38913	0.863
9.42714	0.863
9.46514	0.865
9.50315	0.865
9.54116	0.865
9.57916	0.866
9.61717	0.866
9.65517	0.869
9.69318	0.868
9.73119	0.868
9.76919	0.868
9.8072	0.868
9.8452	0.871
9.88321	0.871
9.92121	0.875
9.95922	0.878
9.99723	0.881
10.0352	0.883
10.0732	0.887
10.1112	0.889
10.1492	0.893
10.1873	0.896
10.2253	0.897
10.2633	0.897
10.3013	0.899
10.3393	0.902
10.3773	0.903
10.4153	0.903
10.4533	0.905
10.4913	0.905
10.5293	0.906
10.5673	0.908
10.6053	0.908
10.6433	0.908
10.6813	0.908
10.7193	0.908
10.7573	0.908
10.7953	0.908
10.8334	0.906
10.8714	0.905
10.9094	0.9
10.9474	0.896
10.9854	0.894
11.0234	0.892
11.0614	0.892
11.0994	0.893
11.1374	0.897
11.1754	0.9
11.2134	0.9
11.2514	0.903
11.2894	0.903
11.3274	0.905
11.3654	0.905
11.4034	0.905
11.4414	0.905
11.4795	0.905
11.5175	0.905
11.5555	0.905
11.5935	0.897
11.6315	0.894
11.6695	0.893
11.7075	0.894
11.7455	0.896
11.7835	0.896
11.8215	0.896
11.8595	0.894
11.8975	0.894
11.9355	0.893
11.9735	0.892
12.0115	0.889
12.0495	0.884
12.0875	0.881
12.1256	0.877
12.1636	0.869
12.2016	0.862
12.2396	0.852
12.2776	0.831
12.3156	0.809
12.3536	0.77
12.3916	0.733
12.4296	0.693
12.4676	0.65
12.5056	0.613
12.5436	0.599
12.5816	0.597
12.6196	0.599
12.6576	0.61
12.6956	0.63
12.7336	0.647
12.7717	0.677
12.8097	0.698
12.8477	0.718
12.8857	0.736
12.9237	0.752
12.9617	0.767
12.9997	0.779
13.0377	0.788
13.0757	0.794
13.1137	0.801
13.1517	0.804
13.1897	0.807
13.2277	0.81
13.2657	0.812
13.3037	0.815
13.3417	0.816
13.3797	0.818
13.4178	0.819
13.4558	0.821
13.4938	0.822
13.5318	0.823
13.5698	0.823
13.6078	0.823
13.6458	0.823
13.6838	0.823
13.7218	0.825
13.7598	0.823
13.7978	0.823
13.8358	0.822
13.8738	0.822
13.9118	0.822
13.9498	0.822
13.9878	0.819
14.0258	0.819
14.0639	0.819
14.1019	0.818
14.1399	0.818
14.1779	0.816
14.2159	0.816
14.2539	0.815
14.2919	0.815
14.3299	0.813
14.3679	0.81
14.4059	0.809
14.4439	0.809
14.4819	0.807
14.5199	0.807
14.5579	0.807
14.5959	0.807
14.6339	0.807
14.6719	0.806
14.7099	0.806
14.748	0.804
14.786	0.803
14.824	0.8
14.862	0.798
14.9	0.8
14.938	0.798
14.976	0.798
15.014	0.798
