Infrared Spectrum: 9H-Adenine, 9-ethyl-, hydrogen tetrafluoroborate
Formula: C7 H10 F4 N5 B
State: SOLID (0.7 mg / 650 mg KBr DISC)
Class: COBLENTZ III
Instrument: PERKIN-ELMER 21 (GRATING)
Instrument parameters: FILTER CHANGE ABOUT 1090 CM^-^1
Sampling: TRANSMISSION
Resolution: 2
Origin: SOUTHERN RESEARCH INSTITUTE
1/CM	TRANSMITTANCE
599.559	0.8349
608.584	0.8364
617.609	0.8251
626.634	0.8104
635.659	0.7059
644.684	0.6342
653.709	0.774
662.734	0.7136
671.759	0.4722
680.784	0.4812
689.809	0.6873
698.834	0.4761
707.859	0.3673
716.884	0.3942
725.909	0.3774
734.934	0.3984
743.959	0.4263
752.983	0.4888
762.008	0.5579
771.033	0.5117
780.058	0.5931
789.083	0.528
798.108	0.5688
807.133	0.5626
816.158	0.6436
825.183	0.6981
834.208	0.7084
843.233	0.7001
852.258	0.6904
861.283	0.6807
870.308	0.6659
879.333	0.6306
888.358	0.5749
897.383	0.5626
906.408	0.6027
915.433	0.6265
924.458	0.6677
933.483	0.6353
942.508	0.5782
951.533	0.4927
960.558	0.3568
969.583	0.4047
978.608	0.3671
987.633	0.2776
996.658	0.2335
1005.68	0.216
1014.71	0.2127
1023.73	0.1933
1032.76	0.1636
1041.78	0.1481
1050.81	0.1354
1059.83	0.1254
1068.86	0.1183
1077.88	0.1073
1086.91	0.1122
1095.93	0.1147
1104.96	0.1142
1113.98	0.1157
1123.01	0.134
1132.03	0.1824
1141.06	0.2305
1150.08	0.2403
1159.11	0.2746
1168.13	0.3283
1177.16	0.401
1186.18	0.4652
1195.21	0.5311
1204.23	0.5395
1213.26	0.4819
1222.28	0.2894
1231.31	0.2558
1240.33	0.3548
1249.36	0.4863
1258.38	0.5888
1267.41	0.6361
1276.43	0.6342
1285.46	0.5748
1294.48	0.5591
1303.51	0.5864
1312.53	0.5722
1321.56	0.5483
1330.58	0.5144
1339.61	0.4695
1348.63	0.5356
1357.66	0.4948
1366.68	0.5589
1375.71	0.5855
1384.73	0.5506
1393.76	0.5168
1402.78	0.4489
1411.81	0.3991
1420.83	0.2786
1429.86	0.4264
1438.88	0.4973
1447.91	0.4469
1456.93	0.4128
1465.96	0.4239
1474.98	0.4629
1484.01	0.5827
1493.03	0.6221
1502.06	0.6269
1511.08	0.5339
1520.11	0.4624
1529.13	0.4082
1538.16	0.6073
1547.18	0.6491
1556.21	0.6373
1565.23	0.6399
1574.26	0.6483
1583.28	0.62
1592.31	0.5253
1601.33	0.355
1610.36	0.2857
1619.38	0.3576
1628.41	0.4382
1637.43	0.4304
1646.46	0.4301
1655.48	0.4759
1664.51	0.4429
1673.53	0.2903
1682.56	0.1283
1691.58	0.0624
1700.61	0.0731
1709.63	0.1107
1718.66	0.2093
1727.68	0.3121
1736.71	0.3841
1745.73	0.435
1754.76	0.4858
1763.78	0.5206
1772.8	0.555
1781.83	0.5899
1790.85	0.6195
1799.88	0.6384
1808.9	0.6559
1817.93	0.6706
1826.95	0.681
1835.98	0.6908
1845	0.6965
1854.03	0.7012
1863.05	0.7097
1872.08	0.7143
1881.1	0.7176
1890.13	0.7185
1899.15	0.7082
1908.18	0.7039
1917.2	0.7128
1926.23	0.7237
1935.25	0.7295
1944.28	0.7332
1953.3	0.7369
1962.33	0.7416
1971.35	0.7422
1980.38	0.7427
1989.4	0.7451
1998.43	0.7527
2007.45	0.7504
2016.48	0.7455
2025.5	0.7451
2034.53	0.7456
2043.55	0.7427
2052.58	0.7426
2061.6	0.7503
2070.63	0.7541
2079.65	0.7553
2088.68	0.7579
2097.7	0.7553
2106.73	0.7527
2115.75	0.7585
2124.78	0.7575
2133.8	0.7586
2142.83	0.7579
2151.85	0.7587
2160.88	0.758
2169.9	0.7553
2178.93	0.7569
2187.95	0.7604
2196.98	0.7598
2206	0.7582
2215.03	0.7584
2224.05	0.7564
2233.08	0.7543
2242.1	0.7556
2251.13	0.7586
2260.15	0.7594
2269.18	0.7605
2278.2	0.762
2287.23	0.7636
2296.25	0.7726
2305.28	0.776
2314.3	0.7725
2323.33	0.7708
2332.35	0.7694
2341.38	0.7642
2350.4	0.7601
2359.43	0.7586
2368.45	0.7605
2377.48	0.765
2386.5	0.7633
2395.53	0.7636
2404.55	0.7672
2413.58	0.765
2422.6	0.7604
2431.63	0.7576
2440.65	0.7555
2449.68	0.7553
2458.7	0.756
2467.73	0.757
2476.75	0.7601
2485.78	0.7572
2494.8	0.7517
2503.83	0.7513
2512.85	0.7529
2521.88	0.7525
2530.9	0.7471
2539.93	0.7382
2548.95	0.7333
2557.98	0.7316
2567	0.7319
2576.03	0.734
2585.05	0.7326
2594.08	0.73
2603.1	0.724
2612.13	0.7144
2621.15	0.7044
2630.18	0.694
2639.2	0.6838
2648.23	0.6747
2657.25	0.6702
2666.28	0.6685
2675.3	0.667
2684.33	0.6608
2693.35	0.6506
2702.38	0.644
2711.4	0.6407
2720.43	0.6385
2729.45	0.6367
2738.48	0.6345
2747.5	0.631
2756.53	0.6249
2765.55	0.6183
2774.58	0.6114
2783.6	0.6087
2792.63	0.6047
2801.65	0.5953
2810.68	0.5846
2819.7	0.5722
2828.73	0.558
2837.75	0.5427
2846.78	0.5329
2855.8	0.5325
2864.83	0.5307
2873.85	0.5289
2882.88	0.5185
2891.9	0.5009
2900.93	0.4814
2909.95	0.4663
2918.98	0.4521
2928	0.4368
2937.03	0.4208
2946.05	0.4057
2955.08	0.3916
2964.1	0.3779
2973.13	0.3648
2982.15	0.3549
2991.18	0.3451
3000.2	0.3294
3009.23	0.3163
3018.25	0.3048
3027.28	0.2955
3036.3	0.2693
3045.33	0.2505
3054.35	0.2351
3063.38	0.2219
3072.4	0.2105
3081.43	0.2003
3090.45	0.1943
3099.48	0.1955
3108.5	0.1962
3117.53	0.1993
3126.55	0.2092
3135.58	0.2097
3144.6	0.2094
3153.63	0.2175
3162.65	0.2267
3171.68	0.2357
3180.7	0.2445
3189.73	0.2527
3198.75	0.2605
3207.77	0.269
3216.8	0.2758
3225.82	0.2809
3234.85	0.2838
3243.87	0.2852
3252.9	0.2841
3261.92	0.2807
3270.95	0.2761
3279.97	0.2704
3289	0.2786
3298.02	0.2768
3307.05	0.277
3316.07	0.2807
3325.1	0.2834
3334.12	0.285
3343.15	0.289
3352.17	0.2958
3361.2	0.3012
3370.22	0.2993
3379.25	0.2889
3388.27	0.2706
3397.3	0.2479
3406.32	0.2394
3415.35	0.2524
3424.37	0.2895
3433.4	0.3282
3442.42	0.3678
3451.45	0.3976
3460.47	0.4194
3469.5	0.4379
3478.52	0.4574
3487.55	0.4779
3496.57	0.496
3505.6	0.5113
3514.62	0.5224
3523.65	0.532
3532.67	0.5412
3541.7	0.5504
3550.72	0.5598
3559.75	0.5714
3568.77	0.5837
3577.8	0.5984
3586.82	0.6171
3595.85	0.6374
3604.87	0.6477
3613.9	0.6506
3622.92	0.6524
3631.95	0.6576
3640.97	0.6691
3650	0.6735
3659.02	0.6847
3668.05	0.6854
3677.07	0.6868
3686.1	0.6903
3695.12	0.6939
3704.15	0.6979
3713.17	0.7021
3722.2	0.7066
3731.22	0.7104
3740.25	0.713
3749.27	0.7143
3758.3	0.7143
3767.32	0.7136
3776.35	0.7134
3785.37	0.7156
3794.4	0.722
3803.42	0.7214
3812.45	0.7202
3821.47	0.719
3830.5	0.7174
3839.52	0.7146
3848.55	0.7132
3857.57	0.7138
3866.6	0.7156
3875.62	0.7173
3884.65	0.7204
3893.67	0.7214
3902.7	0.7186
3911.72	0.7159
3920.75	0.7147
3929.77	0.7164
3938.8	0.7212
3947.82	0.7218
3956.85	0.7172
3965.87	0.7116
3974.9	0.7094
3983.92	0.7119
3992.95	0.7187
4001.97	0.7285
4011	0.7453
