Infrared Spectrum: Ethomeen T/25 hydrochloride
Formula: C46-48 H96-100 Cl N O15
State: LIQUID (NEAT)
Class: COBLENTZ III
Instrument: PERKIN-ELMER 157
Sampling: TRANSMISSION
Resolution: 2
Origin: BRITISH PETROLEUM CO. LTD., ENGLAND
1/CM	TRANSMITTANCE
668	0.5523
677	0.5885
686	0.6034
695	0.6073
704	0.5922
713	0.5463
722	0.4879
731	0.5557
740	0.5861
749	0.5965
758	0.61
767	0.6089
776	0.5987
785	0.566
794	0.5232
803	0.4642
812	0.4251
821	0.3774
830	0.3282
839	0.2765
848	0.2666
857	0.2854
866	0.2949
875	0.293
884	0.2558
893	0.2831
902	0.3111
911	0.2644
920	0.2132
929	0.1624
938	0.1351
947	0.1326
956	0.1546
965	0.2263
974	0.2554
983	0.2374
992	0.202
1001	0.1994
1010	0.1906
1019	0.1333
1028	0.0639
1037	0.0465
1046	0.0376
1055	0.0198
1064	0.0018
1073	0.0005
1082	0.0004
1091	0.0003
1100	0.0003
1109	0.0002
1118	0.0001
1127	0
1136	0
1145	0.0064
1154	0.026
1163	0.1132
1172	0.2253
1181	0.3204
1190	0.3639
1199	0.3697
1208	0.3483
1217	0.3013
1226	0.2442
1235	0.1616
1244	0.1167
1253	0.1383
1262	0.1985
1271	0.1858
1280	0.1406
1289	0.1245
1298	0.1305
1307	0.1803
1316	0.2139
1325	0.2467
1334	0.2196
1343	0.0995
1352	0.123
1361	0.1969
1370	0.2197
1379	0.2726
1388	0.2998
1397	0.3019
1406	0.3008
1415	0.2937
1424	0.234
1433	0.1548
1442	0.0883
1451	0.0754
1460	0.0787
1469	0.1123
1478	0.2311
1487	0.4363
1496	0.6003
1505	0.6541
1514	0.6791
1523	0.6823
1532	0.6859
1541	0.6943
1550	0.6996
1559	0.6998
1568	0.6988
1577	0.6971
1586	0.6945
1595	0.6916
1604	0.6881
1613	0.6837
1622	0.6795
1631	0.6796
1640	0.6829
1649	0.6875
1658	0.6958
1667	0.7041
1676	0.7019
1685	0.6942
1694	0.6805
1703	0.6598
1712	0.6498
1721	0.6635
1730	0.6819
1739	0.6963
1748	0.7038
1757	0.7371
1766	0.7431
1775	0.7461
1784	0.7479
1793	0.7488
1802	0.7491
1811	0.7487
1820	0.747
1829	0.7439
1838	0.7394
1847	0.7332
1856	0.7283
1865	0.7277
1874	0.7249
1883	0.7056
1892	0.6895
1901	0.6771
1910	0.6663
1919	0.6557
1928	0.6468
1937	0.6414
1946	0.6386
1955	0.6416
1964	0.6487
1973	0.6561
1982	0.6615
1991	0.6669
2000	0.6737
2009	0.6779
2018	0.6797
2027	0.6739
2036	0.6676
2045	0.6612
2054	0.6547
2063	0.6481
2072	0.6418
2081	0.6359
2090	0.6296
2099	0.6221
2108	0.6124
2117	0.6028
2126	0.5937
2135	0.5847
2144	0.5807
2153	0.5771
2162	0.5711
2171	0.5653
2180	0.5575
2189	0.5494
2198	0.5414
2207	0.5335
2216	0.5245
2225	0.5135
2234	0.5002
2243	0.4928
2252	0.4855
2261	0.4783
2270	0.4683
2279	0.4535
2288	0.4347
2297	0.4211
2306	0.4104
2315	0.3999
2324	0.391
2333	0.3819
2342	0.3748
2351	0.3698
2360	0.3613
2369	0.3474
2378	0.3391
2387	0.3318
2396	0.3258
2405	0.3196
2414	0.3115
2423	0.3079
2432	0.3058
2441	0.3047
2450	0.3039
2459	0.3043
2468	0.3047
2477	0.305
2486	0.3057
2495	0.3066
2504	0.3075
2513	0.3083
2522	0.3086
2531	0.3085
2540	0.3077
2549	0.3062
2558	0.3043
2567	0.3029
2576	0.3047
2585	0.3105
2594	0.3188
2603	0.326
2612	0.331
2621	0.3332
2630	0.3337
2639	0.3328
2648	0.3289
2657	0.3051
2666	0.2939
2675	0.2852
2684	0.2779
2693	0.2725
2702	0.2682
2711	0.2638
2720	0.2592
2729	0.2512
2738	0.2432
2747	0.2349
2756	0.2177
2765	0.19
2774	0.1676
2783	0.1435
2792	0.0925
2801	0.0521
2810	0.0362
2819	0.0288
2828	0.0271
2837	0.0261
2846	0.0259
2855	0.0261
2864	0.0264
2873	0.0267
2882	0.0273
2891	0.0281
2900	0.0293
2909	0.0336
2918	0.0562
2927	0.109
2936	0.1675
2945	0.2197
2954	0.2773
2963	0.3347
2972	0.3915
2981	0.4475
2990	0.4738
2999	0.4803
3008	0.4818
3017	0.4831
3026	0.4833
3035	0.4832
3044	0.4829
3053	0.4822
3062	0.4807
3071	0.4782
3080	0.4723
3089	0.4635
3098	0.4491
3107	0.4343
3116	0.4196
3125	0.405
3134	0.3904
3143	0.3759
3152	0.3616
3161	0.3473
3170	0.333
3179	0.3179
3188	0.3061
3197	0.2951
3206	0.284
3215	0.2704
3224	0.2469
3233	0.2312
3242	0.2166
3251	0.2004
3260	0.191
3269	0.1865
3278	0.1838
3287	0.1821
3296	0.1813
3305	0.1807
3314	0.1802
3323	0.1798
3332	0.1799
3341	0.1803
3350	0.1816
3359	0.184
3368	0.1893
3377	0.1965
3386	0.205
3395	0.2141
3404	0.2216
3413	0.2305
3422	0.2406
3431	0.2502
3440	0.2678
3449	0.2832
3458	0.2996
3467	0.3142
3476	0.3877
3485	0.4303
3494	0.4821
3503	0.5162
3512	0.5437
3521	0.575
3530	0.5856
3539	0.6368
3548	0.6792
3557	0.6929
3566	0.7107
3575	0.7443
3584	0.7599
3593	0.7621
3602	0.7626
3611	0.763
3620	0.7634
3629	0.7637
3638	0.7638
3647	0.7638
3656	0.7639
3665	0.7639
3674	0.7639
3683	0.7638
3692	0.7638
3701	0.7637
3710	0.7635
3719	0.7634
3728	0.7632
3737	0.7629
3746	0.7618
3755	0.7602
3764	0.7586
3773	0.7565
3782	0.7545
3791	0.7524
3800	0.7498
3809	0.7471
3818	0.7443
3827	0.7416
3836	0.739
3845	0.7363
3854	0.7336
3863	0.7308
3872	0.728
3881	0.7252
3890	0.7224
3899	0.7194
3908	0.7163
3917	0.7136
3926	0.7114
3935	0.7093
3944	0.7075
3953	0.7062
3962	0.7049
3971	0.7037
3980	0.7025
3989	0.7012
3998	0.7004
