Infrared Spectrum: SODIUM SELENATE
Formula: Na2 Se O4  * 10 H2 O
State: SOLID (NUJOL MULL)
Class: COBLENTZ
Instrument: Not specified, most likely a prism, grating, or hybrid spectrometer.
Sampling: TRANSMISSION
Resolution: 4
Origin: MELLON INSTITUTE
MICROMETERS	TRANSMITTANCE
2.074	0.823
2.11484	0.832
2.15568	0.839
2.19652	0.849
2.23737	0.852
2.27821	0.852
2.31905	0.851
2.35989	0.854
2.40073	0.861
2.44157	0.87
2.48241	0.897
2.52325	0.902
2.5641	0.907
2.60494	0.912
2.64578	0.926
2.68662	0.911
2.72746	0.912
2.7683	0.885
2.80914	0.724
2.84999	0.5
2.89083	0.685
2.93167	0.705
2.97251	0.663
3.01335	0.574
3.05419	0.553
3.09503	0.529
3.13588	0.536
3.17672	0.55
3.21756	0.529
3.2584	0.504
3.29924	0.441
3.34008	0.259
3.38092	0.063
3.42176	0.095
3.46261	0.119
3.50345	0.276
3.54429	0.396
3.58513	0.43
3.62597	0.451
3.66681	0.485
3.70765	0.529
3.7485	0.589
3.78934	0.63
3.83018	0.673
3.87102	0.7
3.91186	0.724
3.9527	0.733
3.99354	0.714
4.03438	0.671
4.07523	0.591
4.11607	0.533
4.15691	0.504
4.19775	0.495
4.23859	0.49
4.27943	0.497
4.32027	0.5
4.36112	0.567
4.40196	0.622
4.4428	0.658
4.48364	0.694
4.52448	0.716
4.56532	0.736
4.60616	0.748
4.647	0.77
4.68785	0.788
4.72869	0.805
4.76953	0.825
4.81037	0.835
4.85121	0.846
4.89205	0.854
4.93289	0.864
4.97374	0.871
5.01458	0.882
5.05542	0.89
5.09626	0.897
5.1371	0.9
5.17794	0.899
5.21878	0.899
5.25963	0.897
5.30047	0.897
5.34131	0.892
5.38215	0.888
5.42299	0.887
5.46383	0.882
5.50467	0.871
5.54551	0.861
5.58636	0.859
5.6272	0.849
5.66804	0.842
5.70888	0.837
5.74972	0.842
5.79056	0.832
5.8314	0.847
5.87225	0.832
5.91309	0.841
5.95393	0.837
5.99477	0.841
6.03561	0.808
6.07645	0.777
6.11729	0.76
6.15813	0.823
6.19898	0.897
6.23982	0.924
6.28066	0.94
6.3215	0.938
6.36234	0.931
6.40318	0.941
6.44402	0.943
6.48487	0.969
6.52571	0.95
6.56655	0.95
6.60739	0.955
6.64823	0.958
6.68907	0.953
6.72991	0.931
6.77076	0.871
6.8116	0.646
6.85244	0.521
6.89328	0.553
6.93412	0.659
6.97496	0.721
7.0158	0.776
7.05664	0.678
7.09749	0.478
7.13833	0.411
7.17917	0.36
7.22001	0.323
7.26085	0.427
7.30169	0.622
7.34253	0.75
7.38338	0.832
7.42422	0.858
7.46506	0.883
7.5059	0.929
7.54674	0.943
7.58758	0.947
7.62842	0.955
7.66926	0.96
7.71011	0.962
7.75095	0.965
7.79179	0.967
7.83263	0.948
7.87347	0.919
7.91431	0.892
7.95515	0.856
7.996	0.811
8.03684	0.8
8.07768	0.8
8.11852	0.813
8.15936	0.846
8.2002	0.887
8.24104	0.902
8.28189	0.928
8.32273	0.947
8.36357	0.958
8.40441	0.969
8.44525	0.965
8.48609	0.955
8.52693	0.924
8.56777	0.916
8.60862	0.907
8.64946	0.914
8.6903	0.921
8.73114	0.929
8.77198	0.938
8.81282	0.94
8.85366	0.916
8.89451	0.776
8.93535	0.846
8.97619	0.852
9.01703	0.777
9.05787	0.781
9.09871	0.767
9.13955	0.849
9.18039	0.899
9.22124	0.926
9.26208	0.941
9.30292	0.947
9.34376	0.953
9.3846	0.967
9.42544	0.976
9.46628	0.964
9.50713	0.97
9.54797	0.976
9.58881	0.977
9.62965	0.981
9.67049	0.986
9.71133	0.977
9.75217	0.982
9.79301	0.977
9.83386	0.982
9.8747	0.976
9.91554	0.97
9.95638	0.962
9.99722	0.958
10.0381	0.952
10.0789	0.945
10.1197	0.94
10.1606	0.936
10.2014	0.929
10.2423	0.926
10.2831	0.926
10.324	0.923
10.3648	0.912
10.4056	0.907
10.4465	0.899
10.4873	0.892
10.5282	0.895
10.569	0.888
10.6098	0.885
10.6507	0.873
10.6915	0.851
10.7324	0.835
10.7732	0.825
10.814	0.803
10.8549	0.76
10.8957	0.712
10.9366	0.661
10.9774	0.584
11.0183	0.475
11.0591	0.369
11.0999	0.285
11.1408	0.198
11.1816	0.172
11.2225	0.152
11.2633	0.135
11.3041	0.128
11.345	0.109
11.3858	0.099
11.4267	0.09
11.4675	0.1
11.5084	0.153
11.5492	0.234
11.59	0.3
11.6309	0.335
11.6717	0.347
11.7126	0.364
11.7534	0.372
11.7942	0.336
11.8351	0.264
11.8759	0.189
11.9168	0.131
11.9576	0.131
11.9984	0.157
12.0393	0.194
12.0801	0.21
12.121	0.264
12.1618	0.309
12.2027	0.328
12.2435	0.329
12.2843	0.319
12.3252	0.29
12.366	0.28
12.4069	0.239
12.4477	0.208
12.4885	0.172
12.5294	0.153
12.5702	0.126
12.6111	0.126
12.6519	0.128
12.6928	0.129
12.7336	0.143
12.7744	0.143
12.8153	0.152
12.8561	0.181
12.897	0.23
12.9378	0.3
12.9786	0.374
13.0195	0.423
13.0603	0.466
13.1012	0.504
13.142	0.521
13.1828	0.54
13.2237	0.553
13.2645	0.576
13.3054	0.588
13.3462	0.605
13.3871	0.613
13.4279	0.617
13.4687	0.623
13.5096	0.627
13.5504	0.63
13.5913	0.632
13.6321	0.637
13.6729	0.647
13.7138	0.661
13.7546	0.671
13.7955	0.682
13.8363	0.69
13.8771	0.709
13.918	0.726
13.9588	0.741
13.9997	0.755
14.0405	0.76
14.0814	0.764
14.1222	0.769
14.163	0.77
14.2039	0.774
14.2447	0.776
14.2856	0.769
14.3264	0.77
14.3672	0.77
14.4081	0.762
14.4489	0.755
14.4898	0.748
14.5306	0.743
14.5715	0.738
14.6123	0.731
14.6531	0.729
14.694	0.729
14.7348	0.721
14.7757	0.711
14.8165	0.704
14.8573	0.699
14.8982	0.692
14.939	0.683
14.9799	0.676
15.0207	0.666
15.0615	0.652
15.1024	0.641
15.1432	0.637
15.1841	0.625
15.2249	0.613
15.2658	0.601
15.3066	0.586
15.3474	0.572
15.3883	0.557
15.4291	0.548
15.47	0.533
15.5108	0.509
15.5516	0.495
15.5925	0.482
15.6333	0.471
15.6742	0.461
15.715	0.451
15.7559	0.449
15.7967	0.446
15.8375	0.446
15.8784	0.446
15.9192	0.447
15.9601	0.449
16.0009	0.449
