Infrared Spectrum: Titanium, 2-ethyl-1,3-hexanediolate, dibutoxy-
Formula: C16 H34 O4 Ti
State: SOLUTION (9% CCl4 FOR 3800-1300, 10% CS2 FOR 1300-400 CM^-^1)
Class: COBLENTZ
Instrument: BECKMAN IR-9 (GRATING)
Instrument parameters: ORDER CHANGES: 670, 1200, 2000 CM^-^1
Sampling: TRANSMISSION
Path length: 0.011 CM, 0.011 CM
Resolution: 2
Origin: DOW CHEMICAL COMPANY
1/CM	TRANSMITTANCE
3794	0.8773
3785	0.8776
3776	0.878
3767	0.8784
3758	0.8785
3749	0.8783
3740	0.878
3731	0.8788
3722	0.8774
3713	0.8761
3704	0.877
3695	0.8738
3686	0.8699
3677	0.8665
3668	0.8622
3659	0.853
3650	0.8277
3641	0.7611
3632	0.7525
3623	0.7735
3614	0.8139
3605	0.8463
3596	0.8604
3587	0.8613
3578	0.861
3569	0.8563
3560	0.8504
3551	0.8449
3542	0.8365
3533	0.8302
3524	0.8245
3515	0.8235
3506	0.8227
3497	0.8218
3488	0.8217
3479	0.8215
3470	0.8213
3461	0.8206
3452	0.82
3443	0.8188
3434	0.8174
3425	0.8136
3416	0.813
3407	0.8116
3398	0.8089
3389	0.8071
3380	0.8057
3371	0.8042
3362	0.8034
3353	0.8029
3344	0.804
3335	0.8028
3326	0.8041
3317	0.8078
3308	0.8126
3299	0.814
3290	0.8169
3281	0.8193
3272	0.8227
3263	0.8247
3254	0.8266
3245	0.8273
3236	0.828
3227	0.8278
3218	0.8278
3209	0.8272
3200	0.8256
3191	0.8268
3182	0.8251
3173	0.825
3164	0.8257
3155	0.8249
3146	0.8249
3137	0.8264
3128	0.826
3119	0.8254
3110	0.824
3101	0.8232
3092	0.827
3083	0.8183
3074	0.8186
3065	0.8117
3056	0.8056
3047	0.8016
3038	0.805
3029	0.7885
3020	0.7751
3011	0.7553
3002	0.7175
2993	0.6623
2984	0.5461
2975	0.2453
2966	0.0387
2957	0.0812
2948	0.1209
2939	0.0721
2930	0.0838
2921	0.1782
2912	0.2054
2903	0.2451
2894	0.266
2885	0.1704
2876	0.1012
2867	0.1764
2858	0.3159
2849	0.3423
2840	0.3833
2831	0.4459
2822	0.595
2813	0.6761
2804	0.7297
2795	0.7563
2786	0.774
2777	0.7811
2768	0.7814
2759	0.7775
2750	0.7689
2741	0.7617
2732	0.7563
2723	0.7632
2714	0.7678
2705	0.7714
2696	0.7818
2687	0.79
2678	0.7966
2669	0.8007
2660	0.8041
2651	0.8088
2642	0.8128
2633	0.8156
2624	0.8172
2615	0.8182
2606	0.8182
2597	0.8164
2588	0.8188
2579	0.8223
2570	0.8262
2561	0.8313
2552	0.8353
2543	0.8379
2534	0.8403
2525	0.8409
2516	0.8415
2507	0.8425
2498	0.8433
2489	0.8443
2480	0.8464
2471	0.8462
2462	0.8458
2453	0.8449
2444	0.8454
2435	0.8452
2426	0.8448
2417	0.8446
2408	0.8457
2399	0.8468
2390	0.8474
2381	0.8529
2372	0.8588
2363	0.8572
2354	0.8638
2345	0.8655
2336	0.862
2327	0.8655
2318	0.868
2309	0.8677
2300	0.8674
2291	0.8688
2282	0.8684
2273	0.8699
2264	0.8709
2255	0.8721
2246	0.873
2237	0.8742
2228	0.8746
2219	0.8743
2210	0.8757
2201	0.8766
2192	0.8757
2183	0.8775
2174	0.8787
2165	0.8771
2156	0.8772
2147	0.8774
2138	0.8774
2129	0.8772
2120	0.8769
2111	0.8763
2102	0.8759
2093	0.8749
2084	0.8741
2075	0.8734
2066	0.873
2057	0.8729
2048	0.872
2039	0.8714
2030	0.8718
2021	0.8738
2012	0.8733
2003	0.8704
1994	0.8666
1985	0.8736
1976	0.8727
1967	0.8747
1958	0.8778
1949	0.8766
1940	0.8779
1931	0.8768
1922	0.8758
1913	0.875
1904	0.8762
1895	0.8755
1886	0.8733
1877	0.8746
1868	0.8759
1859	0.8756
1850	0.8752
1841	0.8747
1832	0.8725
1823	0.8724
1814	0.874
1805	0.8728
1796	0.8721
1787	0.873
1778	0.8734
1769	0.8719
1760	0.8713
1751	0.8705
1742	0.8679
1733	0.8692
1724	0.8711
1715	0.8726
1706	0.8736
1697	0.8721
1688	0.8715
1679	0.8703
1670	0.8686
1661	0.8638
1652	0.8578
1643	0.8547
1634	0.8528
1625	0.8504
1616	0.8529
1607	0.8519
1598	0.8413
1589	0.8282
1580	0.8423
1571	0.8244
1562	0.7949
1553	0.8203
1544	0.8867
1535	0.8913
1526	0.864
1517	0.8631
1508	0.8565
1499	0.833
1490	0.8064
1481	0.7638
1472	0.5989
1463	0.3603
1454	0.4726
1445	0.6892
1436	0.7259
1427	0.7472
1418	0.7886
1409	0.7846
1400	0.7729
1391	0.7477
1382	0.517
1373	0.4905
1364	0.557
1355	0.6932
1346	0.7239
1337	0.7125
1328	0.73
1319	0.7594
1310	0.7721
1301	0.7646
1292	0.7842
1283	0.7972
1274	0.7804
1265	0.771
1256	0.772
1247	0.7476
1238	0.7453
1229	0.735
1220	0.7719
1211	0.8088
1202	0.81
1193	0.7986
1184	0.7718
1175	0.6818
1166	0.5131
1157	0.2286
1148	0.1177
1139	0.0754
1130	0.0603
1121	0.0865
1112	0.1122
1103	0.0609
1094	0.059
1085	0.04
1076	0.0492
1067	0.1205
1058	0.1729
1049	0.2182
1040	0.1577
1031	0.1491
1022	0.2357
1013	0.3709
1004	0.3351
995	0.2221
986	0.2769
977	0.4576
968	0.4378
959	0.5914
950	0.6744
941	0.7538
932	0.7976
923	0.7191
914	0.7641
905	0.7367
896	0.7333
887	0.7371
878	0.6368
869	0.4854
860	0.5529
851	0.7053
842	0.7327
833	0.6981
824	0.8026
815	0.8516
806	0.85
797	0.8438
788	0.8289
779	0.7642
770	0.7544
761	0.758
752	0.6537
743	0.6661
734	0.7177
725	0.7381
716	0.6959
707	0.6599
698	0.5983
689	0.4313
680	0.2811
671	0.2055
662	0.1547
653	0.1242
644	0.1084
635	0.14
626	0.1557
617	0.1582
608	0.15
599	0.1366
590	0.1278
581	0.1131
572	0.0963
563	0.076
554	0.0663
545	0.071
536	0.1171
527	0.1712
518	0.2274
509	0.288
500	0.3346
491	0.3382
482	0.3501
473	0.3692
464	0.3898
455	0.4018
446	0.4018
437	0.3798
428	0.3297
419	0.2934
410	0.2857
401	0.3095
