Infrared Spectrum: BENZOIC ACID, o-SULFO-, s-AMMONIUM SALT
Formula: C7 H9 N O5 S
State: SOLID (SPLIT MULL)
Class: COBLENTZ III
Instrument: DOW KBr FOREPRISM-GRATING
Instrument parameters: BLAZED AT 3.5, 12.0, 20.0 MICRON AND CHANGED AT 5.0, 7.5, 14.9 MICRON
Sampling: TRANSMISSION
Resolution: 2
Origin: DOW CHEMICAL COMPANY
1/CM	TRANSMITTANCE
381	0.8882
390	0.8873
399	0.8873
408	0.8889
417	0.8912
426	0.8995
435	0.9111
444	0.9149
453	0.9115
462	0.9063
471	0.8953
480	0.8848
489	0.896
498	0.8996
507	0.895
516	0.8921
525	0.8885
534	0.8817
543	0.8484
552	0.5669
561	0.724
570	0.3393
579	0.832
588	0.8509
597	0.8914
606	0.8646
615	0.5952
624	0.1399
633	0.8462
642	0.3989
651	0.8045
660	0.9083
669	0.8807
678	0.8878
687	0.8841
696	0.8614
705	0.7378
714	0.4381
723	0.7158
732	0.3329
741	0.8183
750	0.8105
759	0.2572
768	0.7868
777	0.8075
786	0.6672
795	0.4745
804	0.8239
813	0.8486
822	0.8154
831	0.745
840	0.6561
849	0.5674
858	0.4958
867	0.5443
876	0.6522
885	0.6947
894	0.7975
903	0.8366
912	0.851
921	0.8584
930	0.8589
939	0.8612
948	0.8581
957	0.8332
966	0.8345
975	0.8585
984	0.8577
993	0.8395
1002	0.7425
1011	0.3332
1020	0.185
1029	0.7543
1038	0.6258
1047	0.8061
1056	0.7705
1065	0.6581
1074	0.2812
1083	0.5381
1092	0.7247
1101	0.7028
1110	0.6314
1119	0.4859
1128	0.2248
1137	0.1844
1146	0.324
1155	0.2015
1164	0.0701
1173	0.0342
1182	0.0689
1191	0.0717
1200	0.1713
1209	0.1866
1218	0.0602
1227	0.05
1236	0.2973
1245	0.4244
1254	0.285
1263	0.0935
1272	0.1924
1281	0.4642
1290	0.5091
1299	0.5838
1308	0.7039
1317	0.7351
1326	0.7576
1335	0.7238
1344	0.7136
1353	0.7408
1362	0.7481
1371	0.7057
1380	0.6411
1389	0.5316
1398	0.3073
1407	0.3005
1416	0.238
1425	0.1966
1434	0.1849
1443	0.2665
1452	0.3932
1461	0.5462
1470	0.6734
1479	0.6971
1488	0.8037
1497	0.8249
1506	0.8475
1515	0.8539
1524	0.8573
1533	0.8701
1542	0.8671
1551	0.864
1560	0.8547
1569	0.7905
1578	0.8487
1587	0.8254
1596	0.8257
1605	0.853
1614	0.8496
1623	0.8403
1632	0.83
1641	0.8115
1650	0.7849
1659	0.7508
1668	0.7117
1677	0.6654
1686	0.6327
1695	0.5998
1704	0.5088
1713	0.3518
1722	0.1975
1731	0.2137
1740	0.5295
1749	0.7028
1758	0.7712
1767	0.8213
1776	0.8407
1785	0.8523
1794	0.8627
1803	0.8667
1812	0.8718
1821	0.8702
1830	0.8698
1839	0.8582
1848	0.8575
1857	0.8673
1866	0.8656
1875	0.8658
1884	0.8673
1893	0.8654
1902	0.8586
1911	0.8528
1920	0.8468
1929	0.8464
1938	0.844
1947	0.8318
1956	0.7993
1965	0.8176
1974	0.8121
1983	0.7947
1992	0.7724
2001	0.8457
2010	0.8452
2019	0.8455
2028	0.8427
2037	0.8368
2046	0.8328
2055	0.8323
2064	0.8378
2073	0.8406
2082	0.8418
2091	0.8421
2100	0.8415
2109	0.8396
2118	0.8375
2127	0.8354
2136	0.8331
2145	0.8308
2154	0.8288
2163	0.8268
2172	0.8251
2181	0.8227
2190	0.8202
2199	0.8178
2208	0.8157
2217	0.8135
2226	0.8115
2235	0.8092
2244	0.8069
2253	0.8047
2262	0.8025
2271	0.8003
2280	0.7986
2289	0.7971
2298	0.7962
2307	0.7955
2316	0.7967
2325	0.7992
2334	0.8011
2343	0.7992
2352	0.8062
2361	0.8061
2370	0.7972
2379	0.7893
2388	0.7875
2397	0.7885
2406	0.7886
2415	0.7865
2424	0.7836
2433	0.7801
2442	0.7765
2451	0.773
2460	0.7693
2469	0.7655
2478	0.758
2487	0.7446
2496	0.7321
2505	0.7134
2514	0.6818
2523	0.6719
2532	0.6971
2541	0.7151
2550	0.7226
2559	0.7251
2568	0.7218
2577	0.7164
2586	0.7084
2595	0.6956
2604	0.681
2613	0.6655
2622	0.6464
2631	0.5922
2640	0.5429
2649	0.5615
2658	0.6317
2667	0.6541
2676	0.6678
2685	0.6708
2694	0.6725
2703	0.6737
2712	0.6728
2721	0.6661
2730	0.6553
2739	0.643
2748	0.6269
2757	0.6062
2766	0.5842
2775	0.5608
2784	0.5239
2793	0.5274
2802	0.5473
2811	0.5442
2820	0.5346
2829	0.5128
2838	0.48
2847	0.4602
2856	0.4419
2865	0.426
2874	0.4131
2883	0.398
2892	0.3806
2901	0.3618
2910	0.3409
2919	0.32
2928	0.3053
2937	0.2984
2946	0.2939
2955	0.2894
2964	0.2847
2973	0.2883
2982	0.298
2991	0.2994
3000	0.2874
3009	0.2788
3018	0.263
3027	0.26
3036	0.2514
3045	0.2437
3054	0.2445
3063	0.2459
3072	0.2483
3081	0.2529
3090	0.2612
3099	0.269
3108	0.2742
3117	0.2847
3126	0.2854
3135	0.2689
3144	0.2625
3153	0.2564
3162	0.2484
3171	0.2379
3180	0.2234
3189	0.2048
3198	0.1909
3207	0.1826
3216	0.1839
3225	0.191
3234	0.2101
3243	0.2268
3252	0.2495
3261	0.2927
3270	0.3157
3279	0.3421
3288	0.3757
3297	0.4119
3306	0.4718
3315	0.5588
3324	0.6141
3333	0.6545
3342	0.6898
3351	0.7371
3360	0.7745
3369	0.8031
3378	0.8214
3387	0.8366
3396	0.8471
3405	0.8566
3414	0.8628
3423	0.867
3432	0.8708
3441	0.8739
3450	0.8768
3459	0.8797
3468	0.8825
3477	0.8854
3486	0.8867
3495	0.8865
3504	0.8865
3513	0.8861
3522	0.8851
3531	0.8836
3540	0.8818
3549	0.8821
3558	0.8839
3567	0.88
3576	0.8788
3585	0.8814
3594	0.8838
3603	0.8857
3612	0.8837
3621	0.8802
3630	0.8758
3639	0.8753
3648	0.8701
3657	0.8701
3666	0.8724
3675	0.8678
3684	0.8675
3693	0.868
3702	0.8688
3711	0.869
3720	0.8685
3729	0.8667
3738	0.8628
3747	0.8573
3756	0.8555
3765	0.8544
3774	0.8547
3783	0.8551
