Infrared Spectrum: BARIUM SULFITE
Formula: Ba S O3
State: SOLID (NUJOL MULL)
Class: COBLENTZ
Instrument: Not specified, most likely a prism, grating, or hybrid spectrometer.
Sampling: TRANSMISSION
Resolution: 4
Origin: MELLON INSTITUTE
MICROMETERS	TRANSMITTANCE
2.048	0.996
2.08793	0.996
2.12785	0.994
2.16778	0.994
2.20771	0.993
2.24764	0.989
2.28756	0.983
2.32749	0.979
2.36742	0.979
2.40735	0.976
2.44727	0.978
2.4872	0.978
2.52713	0.979
2.56705	0.976
2.60698	0.971
2.64691	0.978
2.68684	0.968
2.72676	0.966
2.76669	0.956
2.80662	0.944
2.84655	0.936
2.88647	0.926
2.9264	0.916
2.96633	0.912
3.00626	0.911
3.04618	0.909
3.08611	0.906
3.12604	0.906
3.16596	0.911
3.20589	0.912
3.24582	0.911
3.28575	0.891
3.32567	0.715
3.3656	0.336
3.40553	0.386
3.44546	0.537
3.48538	0.581
3.52531	0.85
3.56524	0.911
3.60516	0.919
3.64509	0.921
3.68502	0.921
3.72495	0.922
3.76487	0.922
3.8048	0.926
3.84473	0.922
3.88466	0.924
3.92458	0.926
3.96451	0.926
4.00444	0.926
4.04436	0.926
4.08429	0.926
4.12422	0.926
4.16415	0.926
4.20407	0.924
4.244	0.917
4.28393	0.914
4.32386	0.909
4.36378	0.909
4.40371	0.914
4.44364	0.916
4.48357	0.916
4.52349	0.916
4.56342	0.914
4.60335	0.916
4.64327	0.916
4.6832	0.912
4.72313	0.912
4.76306	0.914
4.80298	0.914
4.84291	0.914
4.88284	0.912
4.92277	0.914
4.96269	0.916
5.00262	0.914
5.04255	0.916
5.08247	0.916
5.1224	0.916
5.16233	0.916
5.20226	0.914
5.24218	0.914
5.28211	0.912
5.32204	0.911
5.36197	0.911
5.40189	0.904
5.44182	0.902
5.48175	0.904
5.52167	0.904
5.5616	0.917
5.60153	0.922
5.64146	0.924
5.68138	0.924
5.72131	0.927
5.76124	0.934
5.80117	0.932
5.84109	0.936
5.88102	0.939
5.92095	0.939
5.96088	0.941
6.0008	0.943
6.04073	0.944
6.08066	0.939
6.12058	0.941
6.16051	0.941
6.20044	0.944
6.24037	0.951
6.28029	0.954
6.32022	0.954
6.36015	0.946
6.40008	0.946
6.44	0.949
6.47993	0.951
6.51986	0.953
6.55978	0.951
6.59971	0.949
6.63964	0.951
6.67957	0.953
6.71949	0.949
6.75942	0.927
6.79935	0.847
6.83928	0.78
6.8792	0.778
6.91913	0.805
6.95906	0.845
6.99899	0.867
7.03891	0.876
7.07884	0.872
7.11877	0.876
7.15869	0.892
7.19862	0.896
7.23855	0.867
7.27848	0.865
7.3184	0.892
7.35833	0.912
7.39826	0.927
7.43819	0.932
7.47811	0.936
7.51804	0.944
7.55797	0.951
7.59789	0.953
7.63782	0.953
7.67775	0.954
7.71768	0.954
7.7576	0.954
7.79753	0.954
7.83746	0.954
7.87739	0.956
7.91731	0.958
7.95724	0.959
7.99717	0.961
8.03709	0.958
8.07702	0.948
8.11695	0.944
8.15688	0.936
8.1968	0.926
8.23673	0.912
8.27666	0.894
8.31659	0.889
8.35651	0.889
8.39644	0.892
8.43637	0.899
8.4763	0.904
8.51622	0.911
8.55615	0.912
8.59608	0.914
8.636	0.916
8.67593	0.914
8.71586	0.904
8.75579	0.902
8.79571	0.894
8.83564	0.886
8.87557	0.876
8.9155	0.859
8.95542	0.845
8.99535	0.84
9.03528	0.832
9.0752	0.827
9.11513	0.824
9.15506	0.822
9.19499	0.82
9.23491	0.815
9.27484	0.812
9.31477	0.807
9.3547	0.805
9.39462	0.809
9.43455	0.834
9.47448	0.845
9.5144	0.854
9.55433	0.864
9.59426	0.874
9.63419	0.884
9.67411	0.889
9.71404	0.892
9.75397	0.891
9.7939	0.882
9.83382	0.859
9.87375	0.829
9.91368	0.783
9.95361	0.721
9.99353	0.591
10.0335	0.512
10.0734	0.475
10.1133	0.472
10.1532	0.477
10.1932	0.467
10.2331	0.438
10.273	0.378
10.313	0.331
10.3529	0.308
10.3928	0.286
10.4327	0.276
10.4727	0.261
10.5126	0.244
10.5525	0.226
10.5924	0.211
10.6324	0.197
10.6723	0.185
10.7122	0.177
10.7522	0.174
10.7921	0.167
10.832	0.164
10.8719	0.162
10.9119	0.162
10.9518	0.162
10.9917	0.204
11.0316	0.314
11.0716	0.42
11.1115	0.522
11.1514	0.584
11.1914	0.646
11.2313	0.691
11.2712	0.728
11.3111	0.763
11.3511	0.783
11.391	0.797
11.4309	0.807
11.4708	0.819
11.5108	0.825
11.5507	0.832
11.5906	0.837
11.6306	0.845
11.6705	0.849
11.7104	0.854
11.7503	0.855
11.7903	0.86
11.8302	0.864
11.8701	0.871
11.91	0.872
11.95	0.872
11.9899	0.876
12.0298	0.879
12.0698	0.884
12.1097	0.887
12.1496	0.891
12.1895	0.892
12.2295	0.894
12.2694	0.894
12.3093	0.897
12.3492	0.899
12.3892	0.902
12.4291	0.902
12.469	0.902
12.509	0.906
12.5489	0.907
12.5888	0.911
12.6287	0.914
12.6687	0.917
12.7086	0.916
12.7485	0.917
12.7884	0.917
12.8284	0.917
12.8683	0.917
12.9082	0.914
12.9482	0.912
12.9881	0.914
13.028	0.914
13.0679	0.914
13.1079	0.912
13.1478	0.912
13.1877	0.914
13.2276	0.914
13.2676	0.916
13.3075	0.914
13.3474	0.911
13.3874	0.911
13.4273	0.911
13.4672	0.909
13.5071	0.909
13.5471	0.907
13.587	0.906
13.6269	0.904
13.6668	0.901
13.7068	0.901
13.7467	0.901
13.7866	0.901
13.8266	0.899
13.8665	0.892
13.9064	0.889
13.9463	0.891
13.9863	0.892
14.0262	0.894
14.0661	0.892
14.106	0.892
14.146	0.889
14.1859	0.887
14.2258	0.886
14.2658	0.884
14.3057	0.881
14.3456	0.876
14.3855	0.871
14.4255	0.864
14.4654	0.862
14.5053	0.859
14.5452	0.852
14.5852	0.85
14.6251	0.844
14.665	0.839
14.705	0.837
14.7449	0.837
14.7848	0.835
14.8247	0.832
14.8647	0.832
14.9046	0.822
14.9445	0.817
14.9844	0.814
15.0244	0.812
15.0643	0.809
15.1042	0.807
15.1442	0.804
15.1841	0.798
15.224	0.797
15.2639	0.788
15.3039	0.783
15.3438	0.775
15.3837	0.763
15.4236	0.75
15.4636	0.738
15.5035	0.728
15.5434	0.713
15.5834	0.696
15.6233	0.688
15.6632	0.683
15.7031	0.685
15.7431	0.688
15.783	0.691
15.8229	0.698
15.8628	0.703
15.9028	0.708
15.9427	0.713
15.9826	0.721
