Infrared Spectrum: SULFONYL-O,P'-DIPHENACYLDIBENZOATE
Formula: C30 H22 O8 S
State: SOLID (NUJOL MULL)
Class: COBLENTZ
Instrument: Not specified, most likely a prism, grating, or hybrid spectrometer.
Sampling: TRANSMISSION
Resolution: 4
Origin: TENNESSEE EASTMAN COMPANY, RESEARCH LABORATORIES
MICROMETERS	TRANSMITTANCE
2.025	0.599
2.06376	0.6
2.10252	0.599
2.14128	0.6
2.18003	0.602
2.21879	0.61
2.25755	0.61
2.29631	0.61
2.33507	0.61
2.37383	0.613
2.41258	0.621
2.45134	0.629
2.4901	0.639
2.52886	0.649
2.56762	0.66
2.60638	0.667
2.64513	0.668
2.68389	0.68
2.72265	0.681
2.76141	0.685
2.80017	0.685
2.83893	0.688
2.87768	0.691
2.91644	0.698
2.9552	0.698
2.99396	0.701
3.03272	0.702
3.07148	0.709
3.11023	0.711
3.14899	0.711
3.18775	0.709
3.22651	0.701
3.26527	0.675
3.30403	0.652
3.34279	0.532
3.38154	0.274
3.4203	0.094
3.45906	0.113
3.49782	0.133
3.53658	0.428
3.57534	0.727
3.61409	0.751
3.65285	0.769
3.69161	0.767
3.73037	0.767
3.76913	0.769
3.80789	0.772
3.84664	0.777
3.8854	0.777
3.92416	0.785
3.96292	0.795
4.00168	0.8
4.04044	0.806
4.07919	0.81
4.11795	0.811
4.15671	0.813
4.19547	0.813
4.23423	0.834
4.27299	0.849
4.31175	0.849
4.3505	0.844
4.38926	0.84
4.42802	0.839
4.46678	0.839
4.50554	0.84
4.5443	0.84
4.58305	0.84
4.62181	0.842
4.66057	0.842
4.69933	0.842
4.73809	0.844
4.77685	0.844
4.8156	0.847
4.85436	0.849
4.89312	0.849
4.93188	0.849
4.97064	0.849
5.0094	0.849
5.04815	0.849
5.08691	0.849
5.12567	0.849
5.16443	0.849
5.20319	0.85
5.24195	0.85
5.2807	0.855
5.31946	0.857
5.35822	0.86
5.39698	0.86
5.43574	0.858
5.4745	0.858
5.51326	0.86
5.55201	0.86
5.59077	0.86
5.62953	0.86
5.66829	0.827
5.70705	0.581
5.74581	0.362
5.78456	0.318
5.82332	0.537
5.86208	0.555
5.90084	0.282
5.9396	0.558
5.97836	0.711
6.01711	0.761
6.05587	0.793
6.09463	0.8
6.13339	0.819
6.17215	0.823
6.21091	0.818
6.24966	0.699
6.28842	0.699
6.32718	0.706
6.36594	0.772
6.4047	0.829
6.44346	0.842
6.48221	0.847
6.52097	0.847
6.55973	0.845
6.59849	0.844
6.63725	0.839
6.67601	0.823
6.71477	0.774
6.75352	0.699
6.79228	0.483
6.83104	0.384
6.8698	0.347
6.90856	0.495
6.94732	0.6
6.98607	0.631
7.02483	0.646
7.06359	0.706
7.10235	0.665
7.14111	0.582
7.17987	0.719
7.21862	0.597
7.25738	0.488
7.29614	0.433
7.3349	0.433
7.37366	0.628
7.41242	0.711
7.45117	0.737
7.48993	0.738
7.52869	0.737
7.56745	0.657
7.60621	0.503
7.64497	0.448
7.68373	0.431
7.72248	0.457
7.76124	0.381
7.8	0.36
7.83876	0.24
7.87752	0.262
7.91628	0.332
7.95503	0.371
7.99379	0.498
8.03255	0.582
8.07131	0.53
8.11007	0.297
8.14883	0.225
8.18758	0.555
8.22634	0.657
8.2651	0.707
8.30386	0.741
8.34262	0.756
8.38138	0.754
8.42013	0.663
8.45889	0.646
8.49765	0.717
8.53641	0.728
8.57517	0.681
8.61393	0.495
8.65268	0.381
8.69144	0.597
8.7302	0.573
8.76896	0.42
8.80772	0.378
8.84648	0.301
8.88524	0.243
8.92399	0.311
8.96275	0.336
9.00151	0.446
9.04027	0.563
9.07903	0.61
9.11779	0.607
9.15654	0.634
9.1953	0.676
9.23406	0.678
9.27282	0.689
9.31158	0.725
9.35034	0.743
9.38909	0.728
9.42785	0.733
9.46661	0.774
9.50537	0.798
9.54413	0.8
9.58289	0.801
9.62164	0.798
9.6604	0.761
9.69916	0.745
9.73792	0.714
9.77668	0.704
9.81544	0.681
9.8542	0.659
9.89295	0.709
9.93171	0.663
9.97047	0.672
10.0092	0.754
10.048	0.785
10.0867	0.793
10.1255	0.798
10.1643	0.798
10.203	0.792
10.2418	0.785
10.2805	0.782
10.3193	0.743
10.3581	0.678
10.3968	0.592
10.4356	0.517
10.4743	0.477
10.5131	0.534
10.5518	0.681
10.5906	0.738
10.6294	0.779
10.6681	0.797
10.7069	0.803
10.7456	0.803
10.7844	0.801
10.8232	0.811
10.8619	0.824
10.9007	0.84
10.9394	0.845
10.9782	0.849
11.0169	0.849
11.0557	0.85
11.0945	0.85
11.1332	0.85
11.172	0.842
11.2107	0.829
11.2495	0.837
11.2883	0.847
11.327	0.849
11.3658	0.85
11.4045	0.847
11.4433	0.842
11.482	0.845
11.5208	0.849
11.5596	0.849
11.5983	0.811
11.6371	0.759
11.6758	0.8
11.7146	0.829
11.7534	0.839
11.7921	0.847
11.8309	0.845
11.8696	0.845
11.9084	0.839
11.9471	0.824
11.9859	0.816
12.0247	0.813
12.0634	0.818
12.1022	0.844
12.1409	0.849
12.1797	0.849
12.2185	0.849
12.2572	0.847
12.296	0.832
12.3347	0.8
12.3735	0.777
12.4122	0.777
12.451	0.788
12.4898	0.813
12.5285	0.827
12.5673	0.842
12.606	0.844
12.6448	0.844
12.6836	0.84
12.7223	0.793
12.7611	0.772
12.7998	0.801
12.8386	0.826
12.8773	0.832
12.9161	0.832
12.9549	0.801
12.9936	0.746
13.0324	0.542
13.0711	0.392
13.1099	0.412
13.1487	0.521
13.1874	0.504
13.2262	0.462
13.2649	0.49
13.3037	0.555
13.3425	0.516
13.3812	0.417
13.42	0.297
13.4587	0.301
13.4975	0.438
13.5362	0.558
13.575	0.631
13.6138	0.672
13.6525	0.694
13.6913	0.694
13.73	0.68
13.7688	0.657
13.8076	0.662
13.8463	0.689
13.8851	0.72
13.9238	0.737
13.9626	0.743
14.0013	0.746
14.0401	0.745
14.0789	0.722
14.1176	0.685
14.1564	0.672
14.1951	0.675
14.2339	0.681
14.2727	0.686
14.3114	0.688
14.3502	0.673
14.3889	0.615
14.4277	0.512
14.4664	0.449
14.5052	0.4
14.544	0.392
14.5827	0.428
14.6215	0.534
14.6602	0.59
14.699	0.639
14.7378	0.662
14.7765	0.672
14.8153	0.675
14.854	0.675
14.8928	0.675
14.9315	0.673
14.9703	0.676
15.0091	0.676
15.0478	0.678
15.0866	0.678
15.1253	0.678
15.1641	0.678
15.2029	0.678
15.2416	0.678
15.2804	0.673
15.3191	0.662
15.3579	0.652
15.3966	0.65
15.4354	0.65
15.4742	0.65
15.5129	0.65
15.5517	0.652
15.5904	0.652
15.6292	0.652
15.668	0.652
15.7067	0.652
15.7455	0.652
15.7842	0.652
15.823	0.652
15.8617	0.652
15.9005	0.652
15.9393	0.652
15.978	0.652
