Infrared Spectrum: Alpha,Alpha-DICHLOROPROPIONIC ACID, ISOPROPYL AMINE SALT
Formula: C6 H13 Cl2 N O2
State: SOLID (MINERAL OIL MULL)
Class: COBLENTZ
Instrument: Not specified, most likely a prism, grating, or hybrid spectrometer.
Sampling: TRANSMISSION
Resolution: 4
Origin: DOW CHEMICAL COMPANY
MICROMETERS	TRANSMITTANCE
2.041	0.8
2.08203	0.801
2.12307	0.805
2.1641	0.811
2.20514	0.803
2.24617	0.781
2.28721	0.791
2.32824	0.798
2.36928	0.805
2.41031	0.815
2.45135	0.827
2.49238	0.837
2.53342	0.842
2.57445	0.849
2.61549	0.854
2.65652	0.856
2.69756	0.849
2.73859	0.822
2.77963	0.8
2.82066	0.76
2.8617	0.735
2.90273	0.717
2.94377	0.711
2.9848	0.716
3.02583	0.678
3.06687	0.622
3.1079	0.523
3.14894	0.4
3.18997	0.266
3.23101	0.167
3.27204	0.105
3.31308	0.08
3.35411	0.042
3.39515	0.022
3.43618	0.03
3.47722	0.052
3.51825	0.172
3.55929	0.285
3.60032	0.275
3.64136	0.311
3.68239	0.405
3.72343	0.417
3.76446	0.442
3.8055	0.523
3.84653	0.492
3.88757	0.4
3.9286	0.603
3.96963	0.68
4.01067	0.738
4.0517	0.774
4.09274	0.805
4.13377	0.82
4.17481	0.83
4.21584	0.851
4.25688	0.864
4.29791	0.876
4.33895	0.861
4.37998	0.854
4.42102	0.863
4.46205	0.861
4.50309	0.846
4.54412	0.825
4.58516	0.813
4.62619	0.788
4.66723	0.788
4.70826	0.789
4.7493	0.798
4.79033	0.808
4.83137	0.82
4.8724	0.851
4.91343	0.878
4.95447	0.895
4.9955	0.911
5.03654	0.912
5.07757	0.923
5.11861	0.929
5.15964	0.943
5.20068	0.948
5.24171	0.943
5.28275	0.945
5.32378	0.947
5.36482	0.941
5.40585	0.941
5.44689	0.938
5.48792	0.921
5.52896	0.911
5.56999	0.897
5.61103	0.88
5.65206	0.861
5.6931	0.835
5.73413	0.811
5.77517	0.765
5.8162	0.717
5.85723	0.649
5.89827	0.545
5.9393	0.401
5.98034	0.254
6.02137	0.136
6.06241	0.099
6.10344	0.041
6.14448	0.066
6.18551	0.128
6.22655	0.114
6.26758	0.092
6.30862	0.095
6.34965	0.136
6.39069	0.169
6.43172	0.181
6.47276	0.203
6.51379	0.283
6.55483	0.35
6.59586	0.446
6.6369	0.523
6.67793	0.558
6.71897	0.545
6.76	0.444
6.80103	0.307
6.84207	0.285
6.8831	0.319
6.92414	0.37
6.96517	0.601
7.00621	0.63
7.04724	0.598
7.08828	0.494
7.12931	0.341
7.17035	0.288
7.21138	0.176
7.25242	0.143
7.29345	0.28
7.33449	0.17
7.37552	0.2
7.41656	0.405
7.45759	0.6
7.49863	0.688
7.53966	0.726
7.5807	0.762
7.62173	0.793
7.66277	0.815
7.7038	0.825
7.74483	0.837
7.78587	0.841
7.8269	0.83
7.86794	0.852
7.90897	0.851
7.95001	0.839
7.99104	0.811
8.03208	0.735
8.07311	0.623
8.11415	0.598
8.15518	0.719
8.19622	0.789
8.23725	0.813
8.27829	0.829
8.31932	0.844
8.36036	0.846
8.40139	0.825
8.44243	0.791
8.48346	0.721
8.5245	0.632
8.56553	0.605
8.60657	0.7
8.6476	0.793
8.68863	0.822
8.72967	0.808
8.7707	0.758
8.81174	0.728
8.85277	0.789
8.89381	0.83
8.93484	0.835
8.97588	0.834
9.01691	0.822
9.05795	0.808
9.09898	0.788
9.14002	0.745
9.18105	0.671
9.22209	0.543
9.26312	0.362
9.30416	0.237
9.34519	0.22
9.38623	0.256
9.42726	0.451
9.4683	0.647
9.50933	0.729
9.55037	0.758
9.5914	0.764
9.63243	0.76
9.67347	0.75
9.7145	0.755
9.75554	0.793
9.79657	0.827
9.83761	0.856
9.87864	0.88
9.91968	0.892
9.96071	0.899
10.0017	0.899
10.0428	0.878
10.0838	0.866
10.1249	0.878
10.1659	0.888
10.2069	0.909
10.248	0.921
10.289	0.924
10.33	0.921
10.3711	0.921
10.4121	0.921
10.4531	0.924
10.4942	0.928
10.5352	0.924
10.5762	0.899
10.6173	0.861
10.6583	0.832
10.6993	0.866
10.7404	0.919
10.7814	0.938
10.8224	0.948
10.8635	0.955
10.9045	0.957
10.9455	0.957
10.9866	0.957
11.0276	0.958
11.0687	0.957
11.1097	0.953
11.1507	0.945
11.1918	0.938
11.2328	0.909
11.2738	0.87
11.3149	0.81
11.3559	0.728
11.3969	0.709
11.438	0.781
11.479	0.852
11.52	0.892
11.5611	0.921
11.6021	0.933
11.6431	0.94
11.6842	0.95
11.7252	0.948
11.7662	0.941
11.8073	0.923
11.8483	0.914
11.8893	0.914
11.9304	0.923
11.9714	0.926
12.0125	0.924
12.0535	0.921
12.0945	0.921
12.1356	0.911
12.1766	0.885
12.2176	0.849
12.2587	0.786
12.2997	0.729
12.3407	0.705
12.3818	0.711
12.4228	0.752
12.4638	0.789
12.5049	0.811
12.5459	0.832
12.5869	0.849
12.628	0.859
12.669	0.868
12.71	0.871
12.7511	0.871
12.7921	0.868
12.8331	0.863
12.8742	0.858
12.9152	0.852
12.9563	0.849
12.9973	0.847
13.0383	0.841
13.0794	0.835
13.1204	0.823
13.1614	0.81
13.2025	0.798
13.2435	0.786
13.2845	0.774
13.3256	0.758
13.3666	0.745
13.4076	0.729
13.4487	0.711
13.4897	0.692
13.5307	0.671
13.5718	0.652
13.6128	0.63
13.6538	0.6
13.6949	0.56
13.7359	0.507
13.7769	0.439
13.818	0.353
13.859	0.263
13.9001	0.182
13.9411	0.14
13.9821	0.131
14.0232	0.21
14.0642	0.299
14.1052	0.405
14.1463	0.464
14.1873	0.499
14.2283	0.517
14.2694	0.528
14.3104	0.535
14.3514	0.533
14.3925	0.528
14.4335	0.517
14.4745	0.507
14.5156	0.488
14.5566	0.476
14.5976	0.459
14.6387	0.446
14.6797	0.429
14.7207	0.413
14.7618	0.396
14.8028	0.382
14.8439	0.364
14.8849	0.347
14.9259	0.34
14.967	0.329
15.008	0.321
15.049	0.312
15.0901	0.305
15.1311	0.302
15.1721	0.307
15.2132	0.314
15.2542	0.324
15.2952	0.333
15.3363	0.345
15.3773	0.357
15.4183	0.372
15.4594	0.384
15.5004	0.394
15.5414	0.403
15.5825	0.411
15.6235	0.42
15.6645	0.422
15.7056	0.423
15.7466	0.429
15.7877	0.432
15.8287	0.432
15.8697	0.432
