Infrared Spectrum: PHTHALIMIDE, N-[2-(2-OXO-3-OXAZOLIDINYL)ETHOXY]-
Formula: C13 H12 N2 O5
State: SOLID (1 mg / 650 mg KBr DISC)
Class: COBLENTZ III
Instrument: PERKIN-ELMER 521 (GRATING)
Instrument parameters: FILTER CHANGE AT 3150, 2500, 2000, 1150, 700, 410 CM^-^1, GRATING CHANGES AT 2000, 630 CM^-^1
Sampling: TRANSMISSION
Resolution: 4
Origin: SOUTHERN RESEARCH INSTITUTE
1/CM	TRANSMITTANCE
229.557	0.195
238.588	0.204
247.619	0.256
256.651	0.329
265.682	0.387
274.713	0.437
283.744	0.483
292.775	0.528
301.807	0.594
310.838	0.605
319.869	0.592
328.9	0.566
337.931	0.684
346.963	0.731
355.994	0.76
365.025	0.776
374.056	0.797
383.087	0.828
392.119	0.804
401.15	0.819
410.181	0.836
419.212	0.84
428.243	0.843
437.275	0.847
446.306	0.846
455.337	0.843
464.368	0.842
473.399	0.777
482.431	0.828
491.462	0.868
500.493	0.84
509.524	0.674
518.555	0.675
527.587	0.864
536.618	0.832
545.649	0.872
554.68	0.88
563.711	0.882
572.743	0.883
581.774	0.884
590.805	0.881
599.836	0.875
608.867	0.873
617.899	0.873
626.93	0.871
635.961	0.855
644.992	0.815
654.023	0.871
663.054	0.841
672.086	0.859
681.117	0.814
690.148	0.531
699.179	0.392
708.21	0.838
717.242	0.894
726.273	0.898
735.304	0.894
744.335	0.877
753.366	0.53
762.398	0.847
771.429	0.852
780.46	0.838
789.491	0.727
798.522	0.794
807.554	0.886
816.585	0.855
825.616	0.81
834.647	0.872
843.678	0.881
852.71	0.861
861.741	0.738
870.772	0.371
879.803	0.874
888.834	0.89
897.866	0.878
906.897	0.859
915.928	0.837
924.959	0.656
933.99	0.744
943.022	0.834
952.053	0.786
961.084	0.837
970.115	0.771
979.146	0.721
988.178	0.678
997.209	0.579
1006.24	0.789
1015.27	0.659
1024.3	0.524
1033.33	0.586
1042.36	0.733
1051.4	0.782
1060.43	0.747
1069.46	0.809
1078.49	0.7
1087.52	0.852
1096.55	0.824
1105.58	0.708
1114.61	0.614
1123.65	0.584
1132.68	0.527
1141.71	0.783
1150.74	0.836
1159.77	0.811
1168.8	0.663
1177.83	0.488
1186.86	0.713
1195.9	0.795
1204.93	0.807
1213.96	0.815
1222.99	0.814
1232.02	0.8
1241.05	0.766
1250.08	0.691
1259.11	0.581
1268.14	0.608
1277.18	0.57
1286.21	0.72
1295.24	0.796
1304.27	0.851
1313.3	0.81
1322.33	0.839
1331.36	0.832
1340.39	0.806
1349.43	0.584
1358.46	0.62
1367.49	0.58
1376.52	0.496
1385.55	0.81
1394.58	0.837
1403.61	0.733
1412.64	0.787
1421.68	0.765
1430.71	0.659
1439.74	0.591
1448.77	0.764
1457.8	0.679
1466.83	0.611
1475.86	0.722
1484.89	0.516
1493.92	0.661
1502.96	0.883
1511.99	0.907
1521.02	0.9
1530.05	0.864
1539.08	0.905
1548.11	0.897
1557.14	0.889
1566.17	0.875
1575.21	0.863
1584.24	0.858
1593.27	0.852
1602.3	0.823
1611.33	0.828
1620.36	0.816
1629.39	0.8
1638.42	0.79
1647.46	0.764
1656.49	0.743
1665.52	0.71
1674.55	0.661
1683.58	0.594
1692.61	0.524
1701.64	0.416
1710.67	0.254
1719.7	0.072
1728.74	0.249
1737.77	0.091
1746.8	0.184
1755.83	0.128
1764.86	0.356
1773.89	0.576
1782.92	0.628
1791.95	0.661
1800.99	0.754
1810.02	0.799
1819.05	0.835
1828.08	0.865
1837.11	0.883
1846.14	0.898
1855.17	0.904
1864.2	0.906
1873.23	0.907
1882.27	0.908
1891.3	0.918
1900.33	0.928
1909.36	0.935
1918.39	0.936
1927.42	0.938
1936.45	0.94
1945.48	0.94
1954.52	0.94
1963.55	0.938
1972.58	0.936
1981.61	0.935
1990.64	0.933
1999.67	0.93
2008.7	0.929
2017.73	0.928
2026.77	0.929
2035.8	0.93
2044.83	0.931
2053.86	0.931
2062.89	0.932
2071.92	0.932
2080.95	0.932
2089.98	0.932
2099.01	0.932
2108.05	0.932
2117.08	0.932
2126.11	0.932
2135.14	0.931
2144.17	0.931
2153.2	0.931
2162.23	0.93
2171.26	0.93
2180.3	0.93
2189.33	0.93
2198.36	0.929
2207.39	0.927
2216.42	0.926
2225.45	0.922
2234.48	0.921
2243.51	0.923
2252.55	0.924
2261.58	0.925
2270.61	0.925
2279.64	0.924
2288.67	0.923
2297.7	0.922
2306.73	0.921
2315.76	0.919
2324.79	0.918
2333.83	0.918
2342.86	0.917
2351.89	0.917
2360.92	0.917
2369.95	0.917
2378.98	0.916
2388.01	0.916
2397.04	0.915
2406.08	0.914
2415.11	0.912
2424.14	0.911
2433.17	0.91
2442.2	0.909
2451.23	0.908
2460.26	0.906
2469.29	0.904
2478.33	0.903
2487.36	0.902
2496.39	0.902
2505.42	0.902
2514.45	0.902
2523.48	0.902
2532.51	0.903
2541.54	0.903
2550.57	0.903
2559.61	0.903
2568.64	0.903
2577.67	0.903
2586.7	0.903
2595.73	0.902
2604.76	0.902
2613.79	0.901
2622.82	0.9
2631.86	0.9
2640.89	0.9
2649.92	0.9
2658.95	0.9
2667.98	0.899
2677.01	0.899
2686.04	0.898
2695.07	0.898
2704.11	0.897
2713.14	0.896
2722.17	0.895
2731.2	0.894
2740.23	0.893
2749.26	0.892
2758.29	0.891
2767.32	0.89
2776.35	0.887
2785.39	0.885
2794.42	0.882
2803.45	0.881
2812.48	0.879
2821.51	0.876
2830.54	0.87
2839.57	0.855
2848.6	0.85
2857.64	0.849
2866.67	0.847
2875.7	0.845
2884.73	0.837
2893.76	0.824
2902.79	0.797
2911.82	0.793
2920.85	0.786
2929.89	0.758
2938.92	0.755
2947.95	0.792
2956.98	0.826
2966.01	0.821
2975.04	0.815
2984.07	0.816
2993.1	0.822
3002.13	0.843
3011.17	0.857
3020.2	0.841
3029.23	0.817
3038.26	0.858
3047.29	0.869
3056.32	0.868
3065.35	0.866
3074.38	0.865
3083.42	0.863
3092.45	0.862
3101.48	0.868
3110.51	0.872
3119.54	0.871
3128.57	0.864
3137.6	0.863
3146.63	0.861
3155.67	0.861
3164.7	0.861
3173.73	0.861
3182.76	0.86
3191.79	0.858
3200.82	0.856
3209.85	0.854
3218.88	0.854
3227.91	0.854
3236.95	0.853
3245.98	0.852
3255.01	0.851
3264.04	0.848
3273.07	0.846
3282.1	0.844
3291.13	0.842
3300.16	0.84
3309.2	0.838
3318.23	0.836
3327.26	0.833
3336.29	0.828
3345.32	0.824
3354.35	0.819
3363.38	0.814
3372.41	0.81
3381.44	0.807
3390.48	0.802
3399.51	0.8
3408.54	0.796
3417.57	0.793
3426.6	0.79
3435.63	0.788
3444.66	0.785
3453.69	0.784
3462.73	0.786
3471.76	0.788
3480.79	0.784
3489.82	0.779
3498.85	0.783
3507.88	0.797
3516.91	0.804
3525.94	0.81
3534.98	0.816
3544.01	0.82
3553.04	0.825
3562.07	0.828
3571.1	0.832
3580.13	0.836
3589.16	0.838
3598.19	0.843
3607.22	0.846
3616.26	0.85
3625.29	0.853
3634.32	0.854
3643.35	0.855
3652.38	0.855
3661.41	0.856
3670.44	0.856
3679.47	0.856
3688.51	0.857
3697.54	0.857
3706.57	0.857
3715.6	0.857
3724.63	0.857
3733.66	0.856
3742.69	0.856
3751.72	0.856
3760.76	0.856
3769.79	0.856
3778.82	0.856
3787.85	0.855
3796.88	0.854
3805.91	0.851
