Infrared Spectrum: OLEIC ACID, 12,13-EPOXY-, D(+)-, (Z)-, METHYL ESTER
Formula: C19 H34 O3
State: LIQUID (NEAT)
Class: COBLENTZ III
Instrument: PERKIN-ELMER 21 (GRATING)
Instrument parameters: NaCl PRISM
Sampling: TRANSMISSION
Path length: 0.004 CM
Resolution: 4
Origin: E. REGION RESEARCH LAB.
1/CM	TRANSMITTANCE
630.244	0.714
638.699	0.717
647.155	0.717
655.61	0.714
664.065	0.703
672.521	0.665
680.976	0.61
689.431	0.561
697.886	0.521
706.342	0.462
714.797	0.417
723.252	0.375
731.708	0.455
740.163	0.525
748.618	0.508
757.074	0.537
765.529	0.589
773.984	0.554
782.439	0.514
790.895	0.528
799.35	0.598
807.805	0.619
816.261	0.539
824.716	0.397
833.171	0.463
841.627	0.441
850.082	0.425
858.537	0.536
866.993	0.599
875.448	0.595
883.903	0.56
892.358	0.586
900.814	0.652
909.269	0.682
917.724	0.697
926.18	0.672
934.635	0.711
943.09	0.705
951.546	0.665
960.001	0.703
968.456	0.683
976.911	0.637
985.367	0.565
993.822	0.515
1002.28	0.481
1010.73	0.431
1019.19	0.424
1027.64	0.505
1036.1	0.578
1044.55	0.619
1053.01	0.64
1061.46	0.649
1069.92	0.662
1078.38	0.598
1086.83	0.498
1095.29	0.477
1103.74	0.455
1112.2	0.4
1120.65	0.488
1129.11	0.4411
1137.56	0.329
1146.02	0.26
1154.47	0.196
1162.93	0.096
1171.38	0.033
1179.84	0.072
1188.29	0.098
1196.75	0.04
1205.2	0.074
1213.66	0.127
1222.12	0.163
1230.57	0.187
1239.03	0.152
1247.48	0.134
1255.94	0.145
1264.39	0.179
1272.85	0.239
1281.3	0.267
1289.76	0.341
1298.21	0.392
1306.67	0.4
1315.12	0.414
1323.58	0.404
1332.03	0.46
1340.49	0.476
1348.94	0.403
1357.4	0.333
1365.86	0.303
1374.31	0.326
1382.77	0.256
1391.22	0.484
1399.68	0.624
1408.13	0.56
1416.59	0.512
1425.04	0.371
1433.5	0.2429
1441.95	0.091
1450.41	0.123
1458.86	0.096
1467.32	0.084
1475.77	0.3271
1484.23	0.619
1492.69	0.753
1501.14	0.789
1509.6	0.836
1518.05	0.857
1526.51	0.875
1534.96	0.879
1543.42	0.9
1551.87	0.901
1560.33	0.906
1568.78	0.91
1577.24	0.911
1585.69	0.911
1594.15	0.913
1602.6	0.913
1611.06	0.911
1619.51	0.906
1627.97	0.901
1636.43	0.89
1644.88	0.869
1653.34	0.792
1661.79	0.822
1670.25	0.845
1678.7	0.812
1687.16	0.752
1695.61	0.666
1704.07	0.607
1712.52	0.529
1720.98	0.271
1729.43	0.064
1737.89	0.012
1746.34	0.033
1754.8	0.123
1763.25	0.376
1771.71	0.621
1780.17	0.749
1788.62	0.812
1797.08	0.866
1805.53	0.897
1813.99	0.936
1822.44	0.959
1830.9	0.962
1839.35	0.969
1847.81	0.976
1856.26	0.977
1864.72	0.981
1873.17	0.977
1881.63	0.978
1890.08	0.983
1898.54	0.988
1907	0.987
1915.45	0.984
1923.91	0.988
1932.36	0.98
1940.82	0.977
1949.27	0.971
1957.73	0.969
1966.18	0.967
1974.64	0.969
1983.09	0.967
1991.55	0.967
2000	0.966
2008.46	0.963
2016.91	0.962
2025.37	0.959
2033.82	0.9549
2042.28	0.946
2050.74	0.9461
2059.19	0.9522
2067.65	0.9561
2076.1	0.9591
2084.56	0.9661
2093.01	0.9701
2101.47	0.98
2109.92	0.9832
2118.38	0.9883
2126.83	0.9922
2135.29	0.994
2143.74	0.992
2152.2	0.987
2160.65	0.985
2169.11	0.987
2177.56	0.987
2186.02	0.988
2194.48	0.99
2202.93	0.99
2211.39	0.991
2219.84	0.9904
2228.3	0.987
2236.75	0.9878
2245.21	0.9908
2253.66	0.99
2262.12	0.9908
2270.57	0.9863
2279.03	0.981
2287.48	0.9833
2295.94	0.987
2304.39	0.9903
2312.85	0.9913
2321.3	0.992
2329.76	0.992
2338.22	0.9917
2346.67	0.9907
2355.13	0.99
2363.58	0.988
2372.04	0.9877
2380.49	0.9863
2388.95	0.984
2397.4	0.9844
2405.86	0.987
2414.31	0.988
2422.77	0.99
2431.22	0.99
2439.68	0.99
2448.13	0.9914
2456.59	0.9916
2465.05	0.988
2473.5	0.9862
2481.96	0.983
2490.41	0.9806
2498.87	0.9682
2507.32	0.964
2515.78	0.966
2524.23	0.9651
2532.69	0.964
2541.14	0.9605
2549.6	0.9505
2558.05	0.946
2566.51	0.944
2574.96	0.942
2583.42	0.9385
2591.87	0.9369
2600.33	0.9355
2608.79	0.9315
2617.24	0.9253
2625.7	0.9183
2634.15	0.9119
2642.61	0.9089
2651.06	0.9018
2659.52	0.8994
2667.97	0.897
2676.43	0.899
2684.88	0.904
2693.34	0.906
2701.79	0.8971
2710.25	0.8907
2718.7	0.8857
2727.16	0.882
2735.61	0.8787
2744.07	0.8723
2752.53	0.8717
2760.98	0.8659
2769.44	0.8491
2777.89	0.8263
2786.35	0.801
2794.8	0.7635
2803.26	0.6946
2811.71	0.611
2820.17	0.392
2828.62	0.2337
2837.08	0.1398
2845.53	0.0593
2853.99	0.0834
2862.44	0.0857
2870.9	0.0733
2879.36	0.0451
2887.81	0.0284
2896.27	0.0196
2904.72	0.016
2913.18	0.014
2921.63	0.014
2930.09	0.015
2938.54	0.0245
2947	0.0351
2955.45	0.0623
2963.91	0.1003
2972.36	0.1402
2980.82	0.191
2989.27	0.2175
2997.73	0.2577
3006.18	0.3094
3014.64	0.3975
3023.1	0.5104
3031.55	0.5945
3040.01	0.7136
3048.46	0.7672
3056.92	0.8015
3065.37	0.8267
3073.83	0.8518
3082.28	0.8779
3090.74	0.8959
3099.19	0.914
3107.65	0.922
3116.1	0.935
3124.56	0.943
3133.01	0.946
3141.47	0.948
3149.92	0.95
3158.38	0.952
3166.84	0.9531
3175.29	0.9561
3183.75	0.9591
3192.2	0.962
3200.66	0.9631
3209.11	0.966
3217.57	0.9661
3226.02	0.9691
3234.48	0.9712
3242.93	0.973
3251.39	0.9727
3259.84	0.971
3268.3	0.97
3276.75	0.969
3285.21	0.9687
3293.67	0.967
3302.12	0.9668
3310.58	0.966
3319.03	0.9656
3327.49	0.964
3335.94	0.9638
3344.4	0.962
3352.85	0.96
3361.31	0.959
3369.76	0.957
3378.22	0.9557
3386.67	0.9545
3395.13	0.952
3403.58	0.9482
3412.04	0.9427
3420.49	0.9387
3428.95	0.9326
3437.41	0.9185
3445.86	0.9058
3454.32	0.8997
3462.77	0.8993
3471.23	0.908
3479.68	0.916
3488.14	0.921
3496.59	0.9227
3505.05	0.925
3513.5	0.9257
3521.96	0.927
3530.41	0.9284
3538.87	0.9314
3547.32	0.935
3555.78	0.9396
3564.23	0.9438
3572.69	0.9442
3581.15	0.946
3589.6	0.948
3598.06	0.9494
3606.51	0.95
3614.97	0.95
3623.42	0.95
3631.88	0.952
3640.33	0.9525
3648.79	0.953
3657.24	0.956
3665.7	0.959
3674.15	0.962
3682.61	0.9635
3691.06	0.9651
3699.52	0.967
3707.97	0.969
3716.43	0.97
3724.89	0.971
3733.34	0.973
3741.8	0.973
3750.25	0.9718
3758.71	0.9704
3767.16	0.9694
3775.62	0.967
3784.07	0.966
3792.53	0.964
3800.98	0.963
3809.44	0.9624
3817.89	0.962
3826.35	0.9607
3834.8	0.96
3843.26	0.959
3851.72	0.959
3860.17	0.959
3868.63	0.9576
3877.08	0.957
3885.54	0.9563
3893.99	0.956
3902.45	0.955
3910.9	0.955
3919.36	0.953
3927.81	0.9523
3936.27	0.952
3944.72	0.95
3953.18	0.949
3961.63	0.949
3970.09	0.949
3978.54	0.949
3987	0.949
