Infrared Spectrum: Aniline, 2-tert-butyl-4-chloro-
Formula: C10 H14 Cl N
State: LIQUID (NEAT)
Class: COBLENTZ III
Instrument: BECKMAN IR-4 (HYBRID PRISM-GRATING)
Instrument parameters: NaCl PRISM
Sampling: TRANSMISSION
Path length: 0.0013 CM CELL
Resolution: 2
Origin: MONSANTO (J. FREEMAN)
1/CM	TRANSMITTANCE
627	0.4177
636	0.3867
645	0.378
654	0.3244
663	0.5144
672	0.602
681	0.6088
690	0.6021
699	0.5938
708	0.5417
717	0.4345
726	0.7217
735	0.7479
744	0.7454
753	0.7508
762	0.749
771	0.7597
780	0.7776
789	0.7747
798	0.6983
807	0.3002
816	0.1307
825	0.3668
834	0.6222
843	0.724
852	0.7641
861	0.7875
870	0.7097
879	0.1397
888	0.4642
897	0.7181
906	0.7529
915	0.8011
924	0.7883
933	0.7529
942	0.8203
951	0.8465
960	0.85
969	0.8666
978	0.8757
987	0.8792
996	0.8789
1005	0.8748
1014	0.8567
1023	0.7422
1032	0.804
1041	0.8129
1050	0.7615
1059	0.7523
1068	0.803
1077	0.8106
1086	0.8103
1095	0.7618
1104	0.6775
1113	0.6329
1122	0.3138
1131	0.7561
1140	0.8213
1149	0.7106
1158	0.4676
1167	0.8114
1176	0.8624
1185	0.868
1194	0.8346
1203	0.6896
1212	0.792
1221	0.8117
1230	0.7306
1239	0.6772
1248	0.4394
1257	0.1334
1266	0.2647
1275	0.5481
1284	0.4831
1293	0.2017
1302	0.4594
1311	0.6458
1320	0.7772
1329	0.8656
1338	0.8885
1347	0.8966
1356	0.8902
1365	0.8391
1374	0.5038
1383	0.5134
1392	0.7267
1401	0.4808
1410	0.2138
1419	0.2389
1428	0.5991
1437	0.745
1446	0.7207
1455	0.5396
1464	0.3635
1473	0.2592
1482	0.2801
1491	0.126
1500	0.0383
1509	0.1162
1518	0.4039
1527	0.5559
1536	0.7422
1545	0.7982
1554	0.8144
1563	0.828
1572	0.8146
1581	0.7903
1590	0.7799
1599	0.6985
1608	0.6322
1617	0.4688
1626	0.2499
1635	0.0913
1644	0.2651
1653	0.4766
1662	0.5951
1671	0.6954
1680	0.7519
1689	0.8051
1698	0.8504
1707	0.899
1716	0.9108
1725	0.9138
1734	0.9167
1743	0.9277
1752	0.9223
1761	0.9063
1770	0.8868
1779	0.8883
1788	0.9006
1797	0.9154
1806	0.9256
1815	0.9248
1824	0.9206
1833	0.9159
1842	0.9159
1851	0.918
1860	0.9161
1869	0.9045
1878	0.8844
1887	0.8794
1896	0.8835
1905	0.8997
1914	0.9151
1923	0.9211
1932	0.9237
1941	0.9256
1950	0.9271
1959	0.9287
1968	0.9296
1977	0.9302
1986	0.9306
1995	0.9308
2004	0.9311
2013	0.9317
2022	0.9332
2031	0.9361
2040	0.9398
2049	0.94
2058	0.9394
2067	0.9387
2076	0.9382
2085	0.9376
2094	0.9369
2103	0.937
2112	0.937
2121	0.9371
2130	0.9372
2139	0.9372
2148	0.9373
2157	0.9373
2166	0.9372
2175	0.9369
2184	0.9365
2193	0.9361
2202	0.9358
2211	0.9364
2220	0.937
2229	0.9376
2238	0.9385
2247	0.9395
2256	0.9405
2265	0.9411
2274	0.9416
2283	0.9414
2292	0.9404
2301	0.9371
2310	0.9355
2319	0.934
2328	0.9335
2337	0.9334
2346	0.9335
2355	0.9337
2364	0.9338
2373	0.9344
2382	0.935
2391	0.9357
2400	0.9368
2409	0.9385
2418	0.9398
2427	0.9397
2436	0.9395
2445	0.9394
2454	0.9392
2463	0.9391
2472	0.939
2481	0.9388
2490	0.9387
2499	0.9386
2508	0.9386
2517	0.9385
2526	0.9384
2535	0.9383
2544	0.9376
2553	0.9364
2562	0.9354
2571	0.9339
2580	0.9322
2589	0.9307
2598	0.929
2607	0.9287
2616	0.9285
2625	0.9283
2634	0.9296
2643	0.9312
2652	0.9326
2661	0.9334
2670	0.9339
2679	0.934
2688	0.9341
2697	0.9343
2706	0.9345
2715	0.9345
2724	0.9338
2733	0.9323
2742	0.9306
2751	0.9282
2760	0.9248
2769	0.9227
2778	0.9234
2787	0.9243
2796	0.925
2805	0.9256
2814	0.9249
2823	0.9215
2832	0.915
2841	0.9076
2850	0.8998
2859	0.8915
2868	0.8793
2877	0.8577
2886	0.8172
2895	0.6608
2904	0.5016
2913	0.4832
2922	0.4752
2931	0.4717
2940	0.4696
2949	0.4561
2958	0.4102
2967	0.3621
2976	0.2929
2985	0.2242
2994	0.1558
3003	0.1426
3012	0.1946
3021	0.2938
3030	0.3923
3039	0.4903
3048	0.5877
3057	0.6846
3066	0.7808
3075	0.8408
3084	0.8506
3093	0.857
3102	0.8643
3111	0.8733
3120	0.8809
3129	0.8883
3138	0.8939
3147	0.8989
3156	0.9038
3165	0.908
3174	0.9096
3183	0.9106
3192	0.9102
3201	0.9078
3210	0.9026
3219	0.8961
3228	0.8893
3237	0.8802
3246	0.8724
3255	0.8699
3264	0.869
3273	0.8715
3282	0.8803
3291	0.8912
3300	0.8983
3309	0.8993
3318	0.8988
3327	0.8971
3336	0.8925
3345	0.8814
3354	0.8527
3363	0.81
3372	0.7699
3381	0.7301
3390	0.6904
3399	0.651
3408	0.6117
3417	0.5726
3426	0.5338
3435	0.4975
3444	0.4946
3453	0.581
3462	0.6779
3471	0.7663
3480	0.7772
3489	0.7628
3498	0.7335
3507	0.7043
3516	0.6752
3525	0.6463
3534	0.6176
3543	0.5929
3552	0.5888
3561	0.5886
3570	0.6815
3579	0.778
3588	0.8719
3597	0.8889
3606	0.9011
3615	0.9099
3624	0.9178
3633	0.9241
3642	0.928
3651	0.9305
3660	0.9317
3669	0.933
3678	0.9334
3687	0.9332
3696	0.9329
3705	0.9324
3714	0.9317
3723	0.9311
3732	0.9304
3741	0.9295
3750	0.9288
3759	0.9284
3768	0.9279
3777	0.9276
3786	0.9274
3795	0.9275
3804	0.9275
3813	0.9276
3822	0.9277
3831	0.9278
3840	0.9279
3849	0.928
3858	0.928
3867	0.9282
3876	0.9282
3885	0.9281
3894	0.928
3903	0.9278
3912	0.9278
3921	0.9277
3930	0.9277
3939	0.9277
3948	0.9277
3957	0.9277
3966	0.9277
3975	0.9277
3984	0.9278
3993	0.9278
