Infrared Spectrum: 4(3H)-PYRIMIDINONE, 2,5,6-TRIAMINO-, DIHYDROCHLORIDE (KETO FORM)
Formula: C4 H9 Cl2 N5 O
State: SOLID (1 mg / 650 mg KBr DISC)
Class: COBLENTZ III
Instrument: PERKIN-ELMER 221 (GRATING)
Instrument parameters: FILTER CHANGE AT 980 CM^-^1, GRATING FOR 4000-1428 CM^-^1, NaCl PRISM FOR 1428-650 CM^-^1
Sampling: TRANSMISSION
Resolution: 4
Origin: SOUTHERN RESEARCH INSTITUTE
1/CM	TRANSMITTANCE
607.708	0.712
616.756	0.718
625.805	0.734
634.853	0.751
643.901	0.743
652.949	0.725
661.998	0.699
671.046	0.69
680.094	0.69
689.142	0.693
698.191	0.722
707.239	0.749
716.287	0.75
725.336	0.745
734.384	0.654
743.432	0.662
752.48	0.66
761.529	0.653
770.577	0.76
779.625	0.764
788.673	0.822
797.722	0.848
806.77	0.854
815.818	0.85
824.867	0.84
833.915	0.834
842.963	0.831
852.011	0.829
861.06	0.828
870.108	0.827
879.156	0.826
888.204	0.824
897.253	0.823
906.301	0.813
915.349	0.81
924.398	0.81
933.446	0.809
942.494	0.806
951.542	0.804
960.591	0.8
969.639	0.784
978.687	0.763
987.735	0.753
996.784	0.75
1005.83	0.734
1014.88	0.71
1023.93	0.698
1032.98	0.734
1042.03	0.738
1051.07	0.719
1060.12	0.692
1069.17	0.664
1078.22	0.65
1087.27	0.645
1096.31	0.64
1105.36	0.654
1114.41	0.699
1123.46	0.706
1132.51	0.702
1141.56	0.691
1150.6	0.664
1159.65	0.639
1168.7	0.701
1177.75	0.713
1186.8	0.714
1195.85	0.71
1204.89	0.701
1213.94	0.699
1222.99	0.713
1232.04	0.734
1241.09	0.743
1250.14	0.743
1259.18	0.742
1268.23	0.74
1277.28	0.727
1286.33	0.714
1295.38	0.708
1304.43	0.696
1313.47	0.687
1322.52	0.681
1331.57	0.666
1340.62	0.639
1349.67	0.614
1358.71	0.592
1367.76	0.559
1376.81	0.544
1385.86	0.46
1394.91	0.384
1403.96	0.583
1413	0.626
1422.05	0.669
1431.1	0.658
1440.15	0.628
1449.2	0.618
1458.25	0.615
1467.29	0.592
1476.34	0.524
1485.39	0.458
1494.44	0.425
1503.49	0.462
1512.54	0.557
1521.58	0.609
1530.63	0.589
1539.68	0.575
1548.73	0.53
1557.78	0.507
1566.82	0.507
1575.87	0.496
1584.92	0.535
1593.97	0.534
1603.02	0.445
1612.07	0.38
1621.11	0.292
1630.16	0.21
1639.21	0.196
1648.26	0.173
1657.31	0.135
1666.36	0.08
1675.4	0.065
1684.45	0.134
1693.5	0.243
1702.55	0.343
1711.6	0.444
1720.65	0.52
1729.69	0.598
1738.74	0.671
1747.79	0.735
1756.84	0.772
1765.89	0.802
1774.94	0.823
1783.98	0.833
1793.03	0.841
1802.08	0.861
1811.13	0.878
1820.18	0.894
1829.22	0.908
1838.27	0.916
1847.32	0.918
1856.37	0.918
1865.42	0.92
1874.47	0.92
1883.51	0.923
1892.56	0.928
1901.61	0.932
1910.66	0.935
1919.71	0.936
1928.76	0.935
1937.8	0.933
1946.85	0.929
1955.9	0.928
1964.95	0.927
1974	0.925
1983.05	0.921
1992.09	0.914
2001.14	0.912
2010.19	0.91
2019.24	0.907
2028.29	0.903
2037.34	0.9
2046.38	0.897
2055.43	0.896
2064.48	0.896
2073.53	0.896
2082.58	0.894
2091.62	0.889
2100.67	0.881
2109.72	0.879
2118.77	0.878
2127.82	0.877
2136.87	0.877
2145.91	0.876
2154.96	0.875
2164.01	0.874
2173.06	0.871
2182.11	0.869
2191.16	0.864
2200.2	0.862
2209.25	0.86
2218.3	0.858
2227.35	0.858
2236.4	0.855
2245.45	0.853
2254.49	0.85
2263.54	0.849
2272.59	0.844
2281.64	0.84
2290.69	0.835
2299.74	0.831
2308.78	0.823
2317.83	0.82
2326.88	0.816
2335.93	0.814
2344.98	0.811
2354.02	0.809
2363.07	0.808
2372.12	0.807
2381.17	0.804
2390.22	0.797
2399.27	0.79
2408.31	0.781
2417.36	0.779
2426.41	0.772
2435.46	0.767
2444.51	0.759
2453.56	0.749
2462.6	0.739
2471.65	0.729
2480.7	0.721
2489.75	0.709
2498.8	0.703
2507.85	0.691
2516.89	0.673
2525.94	0.655
2534.99	0.643
2544.04	0.637
2553.09	0.634
2562.13	0.631
2571.18	0.627
2580.23	0.623
2589.28	0.621
2598.33	0.62
2607.38	0.617
2616.42	0.607
2625.47	0.596
2634.52	0.591
2643.57	0.589
2652.62	0.586
2661.67	0.57
2670.71	0.56
2679.76	0.551
2688.81	0.534
2697.86	0.526
2706.91	0.513
2715.96	0.504
2725	0.489
2734.05	0.479
2743.1	0.474
2752.15	0.462
2761.2	0.455
2770.25	0.45
2779.29	0.442
2788.34	0.427
2797.39	0.42
2806.44	0.409
2815.49	0.405
2824.53	0.398
2833.58	0.39
2842.63	0.371
2851.68	0.363
2860.73	0.362
2869.78	0.361
2878.82	0.361
2887.87	0.36
2896.92	0.36
2905.97	0.359
2915.02	0.359
2924.07	0.358
2933.11	0.357
2942.16	0.357
2951.21	0.357
2960.26	0.358
2969.31	0.358
2978.36	0.359
2987.4	0.36
2996.45	0.361
3005.5	0.362
3014.55	0.362
3023.6	0.362
3032.65	0.37
3041.69	0.381
3050.74	0.391
3059.79	0.396
3068.84	0.398
3077.89	0.395
3086.93	0.387
3095.98	0.379
3105.03	0.364
3114.08	0.351
3123.13	0.337
3132.18	0.323
3141.22	0.305
3150.27	0.292
3159.32	0.285
3168.37	0.283
3177.42	0.283
3186.47	0.307
3195.51	0.334
3204.56	0.355
3213.61	0.4
3222.66	0.424
3231.71	0.428
3240.76	0.429
3249.8	0.426
3258.85	0.422
3267.9	0.414
3276.95	0.409
3286	0.405
3295.05	0.399
3304.09	0.387
3313.14	0.365
3322.19	0.348
3331.24	0.329
3340.29	0.327
3349.33	0.329
3358.38	0.333
3367.43	0.337
3376.48	0.341
3385.53	0.379
3394.58	0.415
3403.62	0.446
3412.67	0.467
3421.72	0.487
3430.77	0.506
3439.82	0.522
3448.87	0.535
3457.91	0.551
3466.96	0.569
3476.01	0.579
3485.06	0.603
3494.11	0.609
3503.16	0.621
3512.2	0.63
3521.25	0.645
3530.3	0.673
3539.35	0.69
3548.4	0.706
3557.44	0.72
3566.49	0.736
3575.54	0.752
3584.59	0.771
3593.64	0.793
3602.69	0.814
3611.73	0.836
3620.78	0.855
3629.83	0.871
3638.88	0.882
3647.93	0.884
3656.98	0.886
3666.02	0.888
3675.07	0.889
3684.12	0.889
3693.17	0.889
3702.22	0.888
3711.27	0.887
3720.31	0.886
3729.36	0.884
3738.41	0.884
3747.46	0.884
3756.51	0.882
3765.56	0.88
3774.6	0.878
3783.65	0.876
3792.7	0.874
3801.75	0.871
3810.8	0.87
3819.84	0.868
3828.89	0.867
3837.94	0.865
3846.99	0.863
3856.04	0.859
3865.09	0.857
3874.13	0.856
3883.18	0.855
3892.23	0.854
3901.28	0.853
3910.33	0.852
3919.38	0.851
3928.42	0.85
3937.47	0.85
3946.52	0.85
3955.57	0.85
3964.62	0.849
3973.67	0.849
3982.71	0.848
3991.76	0.845
4000.81	0.845
