Infrared Spectrum: Metanilic acid, N-(2,4-dinitrophenyl)-6-hydroxy-, sodium salt
Formula: C12 H8 N3 Na O8 S
State: SOLID (SPLIT MULL), FLUOROLUBE FOR 3800-1330 CM^-^1, NUJOL FOR 1330-450 CM^-^1
Class: COBLENTZ III
Instrument: DOW KBr FOREPRISM-GRATING
Instrument parameters: BLAZED AT 3.5, 12.0, 20.0 MICRON AND CHANGED AT 5.0, 7.5, 14.9 MICRON
Sampling: TRANSMISSION
Resolution: 2
Origin: DOW CHEMICAL COMPANY
1/CM	TRANSMITTANCE
458	0.8019
467	0.8135
476	0.8156
485	0.8011
494	0.7082
503	0.5639
512	0.6478
521	0.6389
530	0.774
539	0.7196
548	0.841
557	0.8636
566	0.8168
575	0.8765
584	0.8611
593	0.8207
602	0.736
611	0.7151
620	0.6834
629	0.4876
638	0.3924
647	0.7055
656	0.6442
665	0.3444
674	0.5872
683	0.5398
692	0.698
701	0.6417
710	0.3556
719	0.4484
728	0.6221
737	0.7449
746	0.4901
755	0.7825
764	0.8761
773	0.8536
782	0.9056
791	0.8257
800	0.9078
809	0.9031
818	0.3992
827	0.8187
836	0.8332
845	0.8414
854	0.8996
863	0.9036
872	0.7425
881	0.8395
890	0.8737
899	0.8639
908	0.8347
917	0.7511
926	0.8356
935	0.8021
944	0.7338
953	0.7838
962	0.8165
971	0.8035
980	0.7888
989	0.7701
998	0.7432
1007	0.6854
1016	0.5299
1025	0.3737
1034	0.673
1043	0.6915
1052	0.6445
1061	0.558
1070	0.3545
1079	0.451
1088	0.2475
1097	0.3768
1106	0.3024
1115	0.2081
1124	0.1391
1133	0.0753
1142	0.0632
1151	0.1368
1160	0.0648
1169	0.0502
1178	0.2622
1187	0.3309
1196	0.3559
1205	0.2709
1214	0.2007
1223	0.1759
1232	0.1254
1241	0.1777
1250	0.1502
1259	0.0991
1268	0.2094
1277	0.4298
1286	0.3812
1295	0.277
1304	0.1969
1313	0.0846
1322	0.1374
1331	0.1727
1340	0.2312
1349	0.383
1358	0.5249
1367	0.5362
1376	0.6143
1385	0.5865
1394	0.576
1403	0.567
1412	0.531
1421	0.4756
1430	0.4406
1439	0.5142
1448	0.5276
1457	0.5136
1466	0.4408
1475	0.4028
1484	0.2781
1493	0.1529
1502	0.2391
1511	0.3322
1520	0.1628
1529	0.5819
1538	0.6847
1547	0.6636
1556	0.5602
1565	0.5282
1574	0.4519
1583	0.2846
1592	0.3458
1601	0.2756
1610	0.1406
1619	0.1872
1628	0.4967
1637	0.6985
1646	0.7146
1655	0.7014
1664	0.6864
1673	0.6958
1682	0.7468
1691	0.8144
1700	0.8418
1709	0.8434
1718	0.8452
1727	0.8421
1736	0.8292
1745	0.8215
1754	0.8199
1763	0.8138
1772	0.8028
1781	0.7943
1790	0.7869
1799	0.78
1808	0.7755
1817	0.7696
1826	0.7601
1835	0.7522
1844	0.7446
1853	0.7385
1862	0.7325
1871	0.7249
1880	0.7226
1889	0.7219
1898	0.7198
1907	0.7165
1916	0.7125
1925	0.7078
1934	0.7035
1943	0.6992
1952	0.6949
1961	0.6906
1970	0.6865
1979	0.6825
1988	0.6782
1997	0.6726
2006	0.6678
2015	0.6636
2024	0.6591
2033	0.6542
2042	0.6495
2051	0.6449
2060	0.6405
2069	0.636
2078	0.6317
2087	0.6267
2096	0.6218
2105	0.6167
2114	0.6117
2123	0.6065
2132	0.6015
2141	0.596
2150	0.5906
2159	0.585
2168	0.5794
2177	0.5738
2186	0.5681
2195	0.5625
2204	0.5572
2213	0.5518
2222	0.5464
2231	0.541
2240	0.5359
2249	0.5307
2258	0.5258
2267	0.5209
2276	0.516
2285	0.5114
2294	0.5072
2303	0.5029
2312	0.4986
2321	0.4946
2330	0.4912
2339	0.4888
2348	0.4872
2357	0.4855
2366	0.484
2375	0.4843
2384	0.4835
2393	0.4802
2402	0.4769
2411	0.4729
2420	0.4704
2429	0.4689
2438	0.4676
2447	0.4677
2456	0.467
2465	0.466
2474	0.4646
2483	0.4628
2492	0.461
2501	0.4588
2510	0.4564
2519	0.454
2528	0.4512
2537	0.4482
2546	0.4453
2555	0.4424
2564	0.4395
2573	0.4366
2582	0.4338
2591	0.4309
2600	0.428
2609	0.425
2618	0.4221
2627	0.4191
2636	0.4162
2645	0.4133
2654	0.4104
2663	0.4075
2672	0.4046
2681	0.4016
2690	0.3989
2699	0.396
2708	0.3932
2717	0.3904
2726	0.3876
2735	0.3845
2744	0.3814
2753	0.3784
2762	0.3754
2771	0.3723
2780	0.3692
2789	0.3659
2798	0.363
2807	0.3598
2816	0.3566
2825	0.3534
2834	0.35
2843	0.3466
2852	0.3434
2861	0.34
2870	0.337
2879	0.3337
2888	0.3305
2897	0.3272
2906	0.324
2915	0.3207
2924	0.3174
2933	0.3164
2942	0.3156
2951	0.3148
2960	0.314
2969	0.3127
2978	0.3103
2987	0.3073
2996	0.3026
3005	0.2974
3014	0.2918
3023	0.2859
3032	0.2799
3041	0.273
3050	0.2658
3059	0.2566
3068	0.2467
3077	0.2428
3086	0.261
3095	0.2639
3104	0.2588
3113	0.2534
3122	0.2476
3131	0.239
3140	0.2317
3149	0.2311
3158	0.2214
3167	0.213
3176	0.2103
3185	0.2107
3194	0.2141
3203	0.2192
3212	0.2244
3221	0.225
3230	0.2237
3239	0.2214
3248	0.2179
3257	0.2141
3266	0.2081
3275	0.2062
3284	0.2089
3293	0.209
3302	0.2071
3311	0.2027
3320	0.1974
3329	0.192
3338	0.1867
3347	0.1804
3356	0.1741
3365	0.1679
3374	0.162
3383	0.157
3392	0.1537
3401	0.1513
3410	0.1494
3419	0.1478
3428	0.1471
3437	0.1473
3446	0.1476
3455	0.1477
3464	0.1479
3473	0.1483
3482	0.1492
3491	0.1517
3500	0.1555
3509	0.1623
3518	0.1692
3527	0.1772
3536	0.1853
3545	0.1943
3554	0.2039
3563	0.2135
3572	0.2237
3581	0.2325
3590	0.2396
3599	0.2467
3608	0.2534
3617	0.2584
3626	0.2634
3635	0.2664
3644	0.267
3653	0.266
3662	0.2641
3671	0.262
3680	0.2601
3689	0.2579
3698	0.255
3707	0.2519
3716	0.2496
3725	0.2473
3734	0.2455
3743	0.2438
3752	0.242
3761	0.2403
3770	0.2387
3779	0.2377
3788	0.2367
