Infrared Spectrum: O-NITRO CARBANILIC ACID, 7,8-DIHYDROLINALYL ESTER
Formula: C17 H24 N2 O4
Class: COBLENTZ
Instrument: Not specified, most likely a grating spectrometer.
Sampling: TRANSMISSION
Path length: CAPILLARY
Resolution: 4
Origin: CITRUS EXPERIMENT STATION, UNIVERSITY OF FLORIDA (G. EDWARDS)
MICROMETERS	TRANSMITTANCE
2.033	0.894
2.06621	0.894
2.09942	0.892
2.13262	0.89
2.16583	0.89
2.19904	0.888
2.23225	0.884
2.26545	0.88
2.29866	0.884
2.33187	0.886
2.36508	0.886
2.39829	0.888
2.43149	0.888
2.4647	0.886
2.49791	0.889
2.53112	0.892
2.56433	0.894
2.59753	0.894
2.63074	0.892
2.66395	0.892
2.69716	0.889
2.73036	0.886
2.76357	0.881
2.79678	0.88
2.82999	0.873
2.8632	0.866
2.8964	0.848
2.92961	0.761
2.96282	0.536
2.99603	0.721
3.02923	0.853
3.06244	0.869
3.09565	0.87
3.12886	0.864
3.16207	0.856
3.19527	0.83
3.22848	0.822
3.26169	0.821
3.2949	0.802
3.32811	0.709
3.36131	0.368
3.39452	0.424
3.42773	0.499
3.46094	0.575
3.49414	0.679
3.52735	0.822
3.56056	0.85
3.59377	0.856
3.62698	0.861
3.66018	0.864
3.69339	0.876
3.7266	0.874
3.75981	0.874
3.79301	0.876
3.82622	0.874
3.85943	0.874
3.89264	0.882
3.92585	0.884
3.95905	0.884
3.99226	0.882
4.02547	0.881
4.05868	0.882
4.09188	0.88
4.12509	0.876
4.1583	0.876
4.19151	0.876
4.22472	0.876
4.25792	0.881
4.29113	0.882
4.32434	0.884
4.35755	0.882
4.39076	0.884
4.42396	0.881
4.45717	0.876
4.49038	0.877
4.52359	0.885
4.55679	0.886
4.59	0.888
4.62321	0.889
4.65642	0.89
4.68963	0.89
4.72283	0.89
4.75604	0.89
4.78925	0.893
4.82246	0.89
4.85566	0.892
4.88887	0.89
4.92208	0.892
4.95529	0.889
4.9885	0.89
5.0217	0.884
5.05491	0.878
5.08812	0.878
5.12133	0.877
5.15454	0.874
5.18774	0.881
5.22095	0.881
5.25416	0.881
5.28737	0.881
5.32057	0.876
5.35378	0.872
5.38699	0.869
5.4202	0.861
5.45341	0.85
5.48661	0.837
5.51982	0.844
5.55303	0.838
5.58624	0.833
5.61944	0.812
5.65265	0.769
5.68586	0.676
5.71907	0.331
5.75228	0.138
5.78548	0.318
5.81869	0.613
5.8519	0.727
5.88511	0.769
5.91832	0.778
5.95152	0.778
5.98473	0.778
6.01794	0.78
6.05115	0.75
6.08435	0.741
6.11756	0.696
6.15077	0.596
6.18398	0.262
6.21719	0.185
6.25039	0.478
6.2836	0.513
6.31681	0.173
6.35002	0.407
6.38322	0.636
6.41643	0.649
6.44964	0.62
6.48285	0.501
6.51606	0.487
6.54926	0.299
6.58247	0.074
6.61568	0.034
6.64889	0.045
6.6821	0.206
6.7153	0.426
6.74851	0.541
6.78172	0.495
6.81493	0.406
6.84813	0.254
6.88134	0.209
6.91455	0.286
6.94776	0.227
6.98097	0.141
7.01417	0.186
7.04738	0.339
7.08059	0.436
7.1138	0.528
7.147	0.556
7.18021	0.545
7.21342	0.482
7.24663	0.412
7.27984	0.431
7.31304	0.512
7.34625	0.494
7.37946	0.403
7.41267	0.183
7.44587	0.079
7.47908	0.141
7.51229	0.351
7.5455	0.432
7.57871	0.348
7.61191	0.38
7.64512	0.426
7.67833	0.446
7.71154	0.44
7.74475	0.406
7.77795	0.328
7.81116	0.25
7.84437	0.225
7.87758	0.246
7.91078	0.292
7.94399	0.302
7.9772	0.247
8.01041	0.119
8.04362	0.065
8.07682	0.099
8.11003	0.215
8.14324	0.358
8.17645	0.431
8.20965	0.412
8.24286	0.342
8.27607	0.259
8.30928	0.185
8.34249	0.174
8.37569	0.209
8.4089	0.291
8.44211	0.346
8.47532	0.376
8.50853	0.41
8.54173	0.419
8.57494	0.392
8.60815	0.304
8.64136	0.278
8.67456	0.29
8.70777	0.255
8.74098	0.243
8.77419	0.32
8.8074	0.331
8.8406	0.322
8.87381	0.312
8.90702	0.292
8.94023	0.304
8.97343	0.343
9.00664	0.396
9.03985	0.458
9.07306	0.515
9.10627	0.527
9.13947	0.52
9.17268	0.495
9.20589	0.43
9.2391	0.423
9.27231	0.537
9.30551	0.584
9.33872	0.591
9.37193	0.577
9.40514	0.528
9.43834	0.495
9.47155	0.495
9.50476	0.492
9.53797	0.487
9.57118	0.459
9.60438	0.386
9.63759	0.323
9.6708	0.35
9.70401	0.422
9.73721	0.513
9.77042	0.557
9.80363	0.579
9.83684	0.591
9.87005	0.605
9.90325	0.619
9.93646	0.629
9.96967	0.624
10.0029	0.619
10.0361	0.612
10.0693	0.612
10.1025	0.621
10.1357	0.649
10.1689	0.672
10.2021	0.689
10.2353	0.701
10.2685	0.709
10.3017	0.713
10.335	0.723
10.3682	0.733
10.4014	0.739
10.4346	0.733
10.4678	0.729
10.501	0.732
10.5342	0.749
10.5674	0.772
10.6006	0.777
10.6338	0.777
10.667	0.774
10.7002	0.77
10.7334	0.765
10.7667	0.758
10.7999	0.75
10.8331	0.748
10.8663	0.749
10.8995	0.752
10.9327	0.758
10.9659	0.758
10.9991	0.756
11.0323	0.749
11.0655	0.74
11.0987	0.728
11.1319	0.709
11.1652	0.695
11.1984	0.697
11.2316	0.707
11.2648	0.729
11.298	0.758
11.3312	0.77
11.3644	0.78
11.3976	0.782
11.4308	0.77
11.464	0.753
11.4972	0.717
11.5304	0.648
11.5636	0.547
11.5969	0.467
11.6301	0.488
11.6633	0.607
11.6965	0.676
11.7297	0.701
11.7629	0.704
11.7961	0.699
11.8293	0.699
11.8625	0.701
11.8957	0.701
11.9289	0.704
11.9621	0.703
11.9953	0.701
12.0286	0.689
12.0618	0.671
12.095	0.663
12.1282	0.669
12.1614	0.685
12.1946	0.708
12.2278	0.729
12.261	0.74
12.2942	0.747
12.3274	0.749
12.3606	0.747
12.3938	0.747
12.427	0.747
12.4603	0.749
12.4935	0.749
12.5267	0.745
12.5599	0.741
12.5931	0.739
12.6263	0.719
12.6595	0.692
12.6927	0.66
12.7259	0.605
12.7591	0.543
12.7923	0.498
12.8255	0.492
12.8587	0.536
12.892	0.6
12.9252	0.644
12.9584	0.661
12.9916	0.657
13.0248	0.64
13.058	0.609
13.0912	0.599
13.1244	0.604
13.1576	0.619
13.1908	0.631
13.224	0.639
13.2572	0.639
13.2905	0.624
13.3237	0.6
13.3569	0.541
13.3901	0.474
13.4233	0.364
13.4565	0.275
13.4897	0.222
13.5229	0.207
13.5561	0.235
13.5893	0.32
13.6225	0.407
13.6557	0.517
13.6889	0.584
13.7222	0.625
13.7554	0.652
13.7886	0.675
13.8218	0.689
13.855	0.696
13.8882	0.701
13.9214	0.705
13.9546	0.705
13.9878	0.705
14.021	0.704
14.0542	0.701
14.0874	0.699
14.1206	0.697
14.1539	0.695
14.1871	0.689
14.2203	0.681
14.2535	0.673
14.2867	0.668
14.3199	0.652
14.3531	0.64
14.3863	0.619
14.4195	0.597
14.4527	0.575
14.4859	0.548
14.5191	0.532
14.5523	0.532
14.5856	0.54
14.6188	0.551
14.652	0.552
14.6852	0.548
14.7184	0.54
14.7516	0.537
14.7848	0.523
14.818	0.511
14.8512	0.508
14.8844	0.498
14.9176	0.49
14.9508	0.49
14.9841	0.49
15.0173	0.486
