Infrared Spectrum: 3Alpha,5Alpha-Cyclo-17Alpha-pregnan-20-one, 6Beta-methoxy-,
Formula: C22 H34 O2
State: SOLUTION 7% (CS2 FOR 7.5-15 microns, AND CCl4 FOR 2.5-7.5 microns)
Class: COBLENTZ III
Instrument: PERKIN-ELMER 21 (GRATING)
Instrument parameters: FILTER AT ABOUT 10 MICRONS
Path length: 0.01 CM
Resolution: 2
Origin: ABBOTT LABORATORIES
1/CM	TRANSMITTANCE
650	0.9303
659	0.9503
668	0.9526
677	0.9389
686	0.9376
695	0.9521
704	0.9422
713	0.9489
722	0.9457
731	0.9449
740	0.9526
749	0.9506
758	0.9474
767	0.9454
776	0.9405
785	0.9351
794	0.9085
803	0.863
812	0.871
821	0.9117
830	0.8938
839	0.8978
848	0.9058
857	0.8434
866	0.905
875	0.903
884	0.8562
893	0.8745
902	0.855
911	0.7894
920	0.8702
929	0.8575
938	0.7559
947	0.7968
956	0.8249
965	0.7987
974	0.8208
983	0.8284
992	0.7763
1001	0.796
1010	0.6142
1019	0.8008
1028	0.8541
1037	0.8439
1046	0.813
1055	0.7839
1064	0.7135
1073	0.5718
1082	0.3469
1091	0.2205
1100	0.6137
1109	0.651
1118	0.768
1127	0.7694
1136	0.6525
1145	0.6403
1154	0.65
1163	0.6971
1172	0.6909
1181	0.6474
1190	0.5429
1199	0.6244
1208	0.7126
1217	0.6551
1226	0.643
1235	0.6901
1244	0.7695
1253	0.7665
1262	0.7537
1271	0.8097
1280	0.7691
1289	0.7781
1298	0.7861
1307	0.7326
1316	0.6753
1325	0.7048
1334	0.6119
1343	0.504
1352	0.5903
1361	0.6701
1370	0.6288
1379	0.569
1388	0.7937
1397	0.8118
1406	0.7956
1415	0.7704
1424	0.6982
1433	0.6676
1442	0.5885
1451	0.663
1460	0.6484
1469	0.7625
1478	0.8752
1487	0.9121
1496	0.9307
1505	0.9463
1514	0.9704
1523	0.9975
1532	1.006
1541	1.0012
1550	0.9846
1559	0.9775
1568	0.9745
1577	0.9693
1586	0.9437
1595	0.9335
1604	0.9273
1613	0.9219
1622	0.9157
1631	0.9093
1640	0.8986
1649	0.8846
1658	0.871
1667	0.8553
1676	0.817
1685	0.717
1694	0.2408
1703	0.3767
1712	0.7456
1721	0.7999
1730	0.8363
1739	0.8759
1748	0.9065
1757	0.9227
1766	0.9273
1775	0.9285
1784	0.9289
1793	0.9295
1802	0.9325
1811	0.9392
1820	0.941
1829	0.9419
1838	0.9426
1847	0.9432
1856	0.9435
1865	0.944
1874	0.9443
1883	0.9411
1892	0.9388
1901	0.9383
1910	0.9383
1919	0.9383
1928	0.9386
1937	0.939
1946	0.9399
1955	0.9407
1964	0.9417
1973	0.9433
1982	0.9446
1991	0.9453
2000	0.9449
2009	0.9441
2018	0.9428
2027	0.9396
2036	0.9398
2045	0.94
2054	0.9405
2063	0.9411
2072	0.9423
2081	0.9435
2090	0.9458
2099	0.9453
2108	0.9442
2117	0.9427
2126	0.9429
2135	0.9432
2144	0.9442
2153	0.945
2162	0.9454
2171	0.9457
2180	0.9459
2189	0.9458
2198	0.9458
2207	0.9458
2216	0.9453
2225	0.9441
2234	0.9427
2243	0.9409
2252	0.9392
2261	0.9375
2270	0.9363
2279	0.9356
2288	0.9354
2297	0.9353
2306	0.9358
2315	0.9364
2324	0.9369
2333	0.9373
2342	0.9376
2351	0.9379
2360	0.9382
2369	0.9387
2378	0.9392
2387	0.9392
2396	0.9392
2405	0.9393
2414	0.9394
2423	0.939
2432	0.938
2441	0.9363
2450	0.9333
2459	0.9285
2468	0.9262
2477	0.9237
2486	0.924
2495	0.9249
2504	0.9248
2513	0.9228
2522	0.9201
2531	0.9173
2540	0.9146
2549	0.9125
2558	0.9107
2567	0.9094
2576	0.9093
2585	0.9094
2594	0.9098
2603	0.9105
2612	0.9106
2621	0.9089
2630	0.9039
2639	0.8989
2648	0.8947
2657	0.8908
2666	0.8878
2675	0.8856
2684	0.8841
2693	0.8827
2702	0.8814
2711	0.8803
2720	0.8794
2729	0.8716
2738	0.8517
2747	0.8275
2756	0.7854
2765	0.7135
2774	0.6422
2783	0.5806
2792	0.5476
2801	0.4897
2810	0.4522
2819	0.4305
2828	0.4124
2837	0.3995
2846	0.3859
2855	0.3528
2864	0.2927
2873	0.2718
2882	0.2591
2891	0.2559
2900	0.2554
2909	0.2713
2918	0.3386
2927	0.4061
2936	0.4731
2945	0.5397
2954	0.6059
2963	0.6716
2972	0.737
2981	0.798
2990	0.8308
2999	0.8543
3008	0.8684
3017	0.8768
3026	0.908
3035	0.9272
3044	0.9346
3053	0.9383
3062	0.9406
3071	0.9419
3080	0.9427
3089	0.9429
3098	0.9432
3107	0.9434
3116	0.9434
3125	0.9434
3134	0.9434
3143	0.9434
3152	0.9435
3161	0.9435
3170	0.9436
3179	0.9437
3188	0.9437
3197	0.9437
3206	0.9437
3215	0.9437
3224	0.9437
3233	0.9436
3242	0.9434
3251	0.943
3260	0.9427
3269	0.9425
3278	0.9422
3287	0.9421
3296	0.942
3305	0.9419
3314	0.9419
3323	0.9419
3332	0.9423
3341	0.9445
3350	0.9463
3359	0.9471
3368	0.9476
3377	0.9476
3386	0.9476
3395	0.9475
3404	0.9471
3413	0.9468
3422	0.9465
3431	0.9462
3440	0.9459
3449	0.9456
3458	0.9453
3467	0.9452
3476	0.9448
3485	0.9444
3494	0.944
3503	0.9435
3512	0.943
3521	0.9428
3530	0.9425
3539	0.9423
3548	0.9421
3557	0.9419
3566	0.9418
3575	0.9415
3584	0.9413
3593	0.941
3602	0.9408
3611	0.9406
3620	0.9403
3629	0.9404
3638	0.9404
3647	0.9405
3656	0.9407
3665	0.9407
3674	0.9408
3683	0.941
3692	0.9412
3701	0.9416
3710	0.942
3719	0.9423
3728	0.9426
3737	0.943
3746	0.9432
3755	0.9434
3764	0.9433
3773	0.9431
3782	0.943
3791	0.9428
3800	0.9426
3809	0.9424
3818	0.9421
3827	0.9419
3836	0.9416
3845	0.9414
3854	0.9411
3863	0.9409
3872	0.9406
3881	0.9403
3890	0.9396
3899	0.9386
3908	0.9374
3917	0.9358
3926	0.9342
3935	0.9326
3944	0.9309
3953	0.9293
3962	0.9278
3971	0.9265
3980	0.9254
3989	0.9242
3998	0.9234
