Infrared Spectrum: PHENYL 1,2-DICARBETHOXYETHYLCARBAMATE
Formula: C15 H19 N O6
State: SOLID (KBr PRESSING)
Melting point: 73 C
Class: COBLENTZ
Instrument: Not specified, most likely a prism, grating, or hybrid spectrometer.
Sampling: TRANSMISSION
Resolution: 4
Origin: EASTMAN KODAK COMPANY, RESEARCH LABORATORIES, ROCHESTER, N.Y.
MICROMETERS	TRANSMITTANCE
2.021	0.767
2.05605	0.769
2.09111	0.772
2.12616	0.777
2.16121	0.774
2.19626	0.776
2.23132	0.777
2.26637	0.781
2.30142	0.786
2.33647	0.789
2.37153	0.789
2.40658	0.789
2.44163	0.791
2.47668	0.793
2.51174	0.798
2.54679	0.803
2.58184	0.81
2.6169	0.81
2.65195	0.814
2.687	0.812
2.72205	0.802
2.75711	0.781
2.79216	0.762
2.82721	0.729
2.86226	0.694
2.89732	0.539
2.93237	0.541
2.96742	0.73
3.00247	0.763
3.03753	0.782
3.07258	0.795
3.10763	0.803
3.14269	0.81
3.17774	0.812
3.21279	0.812
3.24784	0.776
3.2829	0.782
3.31795	0.673
3.353	0.722
3.38805	0.739
3.42311	0.779
3.45816	0.809
3.49321	0.828
3.52826	0.84
3.56332	0.847
3.59837	0.85
3.63342	0.85
3.66847	0.852
3.70353	0.854
3.73858	0.857
3.77363	0.859
3.80869	0.859
3.84374	0.859
3.87879	0.862
3.91384	0.864
3.9489	0.862
3.98395	0.868
4.019	0.866
4.05405	0.869
4.08911	0.866
4.12416	0.862
4.15921	0.862
4.19426	0.869
4.22932	0.888
4.26437	0.901
4.29942	0.892
4.33448	0.883
4.36953	0.88
4.40458	0.873
4.43963	0.878
4.47469	0.878
4.50974	0.88
4.54479	0.88
4.57984	0.88
4.6149	0.88
4.64995	0.876
4.685	0.873
4.72005	0.871
4.75511	0.873
4.79016	0.875
4.82521	0.876
4.86027	0.875
4.89532	0.878
4.93037	0.878
4.96542	0.881
5.00048	0.881
5.03553	0.88
5.07058	0.875
5.10563	0.864
5.14069	0.875
5.17574	0.871
5.21079	0.873
5.24584	0.868
5.2809	0.864
5.31595	0.864
5.351	0.869
5.38606	0.864
5.42111	0.864
5.45616	0.855
5.49121	0.847
5.52627	0.833
5.56132	0.826
5.59637	0.802
5.63142	0.763
5.66648	0.588
5.70153	0.31
5.73658	0.114
5.77163	0.078
5.80669	0.185
5.84174	0.543
5.87679	0.664
5.91185	0.72
5.9469	0.791
5.98195	0.815
6.017	0.814
6.05206	0.81
6.08711	0.814
6.12216	0.812
6.15721	0.815
6.19227	0.819
6.22732	0.803
6.26237	0.803
6.29742	0.833
6.33248	0.838
6.36753	0.838
6.40258	0.838
6.43763	0.803
6.47269	0.793
6.50774	0.711
6.54279	0.631
6.57785	0.472
6.6129	0.289
6.64795	0.564
6.683	0.312
6.71806	0.223
6.75311	0.296
6.78816	0.482
6.82321	0.586
6.85827	0.612
6.89332	0.642
6.92837	0.704
6.96342	0.729
6.99848	0.637
7.03353	0.553
7.06858	0.723
7.10364	0.715
7.13869	0.607
7.17374	0.569
7.20879	0.559
7.24385	0.314
7.2789	0.354
7.31395	0.621
7.349	0.602
7.38406	0.467
7.41911	0.246
7.45416	0.18
7.48921	0.541
7.52427	0.668
7.55932	0.71
7.59437	0.697
7.62943	0.572
7.66448	0.406
7.69953	0.359
7.73458	0.501
7.76964	0.625
7.80469	0.68
7.83974	0.706
7.87479	0.72
7.90985	0.725
7.9449	0.722
7.97995	0.704
8.015	0.671
8.05006	0.626
8.08511	0.567
8.12016	0.501
8.15522	0.461
8.19027	0.336
8.22532	0.239
8.26037	0.199
8.29543	0.097
8.33048	0.052
8.36553	0.05
8.40058	0.076
8.43564	0.111
8.47069	0.177
8.50574	0.307
8.54079	0.342
8.57585	0.31
8.6109	0.402
8.64595	0.473
8.68101	0.482
8.71606	0.402
8.75111	0.508
8.78616	0.659
8.82122	0.713
8.85627	0.746
8.89132	0.746
8.92637	0.734
8.96143	0.732
8.99648	0.732
9.03153	0.717
9.06658	0.711
9.10164	0.725
9.13669	0.75
9.17174	0.769
9.20679	0.776
9.24185	0.756
9.2769	0.657
9.31195	0.722
9.34701	0.76
9.38206	0.751
9.41711	0.75
9.45216	0.75
9.48722	0.75
9.52227	0.736
9.55732	0.718
9.59237	0.645
9.62743	0.541
9.66248	0.376
9.69753	0.234
9.73258	0.204
9.76764	0.265
9.80269	0.355
9.83774	0.451
9.8728	0.5
9.90785	0.532
9.9429	0.56
9.97795	0.564
10.013	0.491
10.0481	0.51
10.0831	0.621
10.1182	0.699
10.1532	0.741
10.1883	0.762
10.2233	0.774
10.2584	0.743
10.2934	0.664
10.3285	0.581
10.3635	0.614
10.3986	0.743
10.4336	0.786
10.4687	0.805
10.5037	0.822
10.5388	0.855
10.5738	0.864
10.6089	0.869
10.644	0.875
10.679	0.876
10.7141	0.881
10.7491	0.885
10.7842	0.878
10.8192	0.873
10.8543	0.862
10.8893	0.829
10.9244	0.793
10.9594	0.812
10.9945	0.835
11.0295	0.854
11.0646	0.857
11.0996	0.852
11.1347	0.821
11.1697	0.81
11.2048	0.803
11.2398	0.814
11.2749	0.821
11.31	0.819
11.345	0.8
11.3801	0.763
11.4151	0.77
11.4502	0.782
11.4852	0.782
11.5203	0.777
11.5553	0.777
11.5904	0.791
11.6254	0.805
11.6605	0.828
11.6955	0.843
11.7306	0.854
11.7656	0.855
11.8007	0.854
11.8357	0.845
11.8708	0.831
11.9058	0.812
11.9409	0.795
11.976	0.779
12.011	0.777
12.0461	0.788
12.0811	0.805
12.1162	0.817
12.1512	0.814
12.1863	0.81
12.2213	0.814
12.2564	0.821
12.2914	0.826
12.3265	0.836
12.3615	0.84
12.3966	0.835
12.4316	0.84
12.4667	0.84
12.5017	0.838
12.5368	0.842
12.5719	0.843
12.6069	0.843
12.642	0.843
12.677	0.843
12.7121	0.836
12.7471	0.831
12.7822	0.824
12.8172	0.821
12.8523	0.821
12.8873	0.802
12.9224	0.774
12.9574	0.727
12.9925	0.685
13.0275	0.689
13.0626	0.732
13.0976	0.774
13.1327	0.802
13.1677	0.822
13.2028	0.84
13.2379	0.85
13.2729	0.861
13.308	0.859
13.343	0.862
13.3781	0.864
13.4131	0.864
13.4482	0.864
13.4832	0.864
13.5183	0.864
13.5533	0.854
13.5884	0.847
13.6234	0.821
13.6585	0.767
13.6935	0.694
13.7286	0.604
13.7636	0.579
13.7987	0.614
13.8337	0.708
13.8688	0.781
13.9039	0.803
13.9389	0.828
13.974	0.838
14.009	0.852
14.0441	0.857
14.0791	0.859
14.1142	0.859
14.1492	0.855
14.1843	0.852
14.2193	0.845
14.2544	0.826
14.2894	0.819
14.3245	0.802
14.3595	0.777
14.3946	0.734
14.4296	0.673
14.4647	0.644
14.4997	0.68
14.5348	0.734
14.5699	0.772
14.6049	0.782
14.64	0.795
14.675	0.802
14.7101	0.814
14.7451	0.829
14.7802	0.842
14.8152	0.852
14.8503	0.857
14.8853	0.859
14.9204	0.862
14.9554	0.866
14.9905	0.866
15.0255	0.854
15.0606	0.855
15.0956	0.859
15.1307	0.862
15.1657	0.862
15.2008	0.862
15.2359	0.862
15.2709	0.859
15.306	0.859
15.341	0.857
15.3761	0.848
15.4111	0.847
15.4462	0.85
15.4812	0.855
15.5163	0.855
15.5513	0.855
15.5864	0.855
15.6214	0.855
15.6565	0.855
15.6915	0.855
15.7266	0.852
15.7616	0.852
15.7967	0.854
15.8317	0.854
15.8668	0.854
15.9019	0.847
15.9369	0.848
15.972	0.848
