Infrared Spectrum: 2,2,3-TRICHLOROPROPIONIC ACID, 2,3,4,6-TETRACHLOROPHENYL ESTER
Formula: C9 H3 Cl7 O2
State: SOLUTION (10% CCl4 FOR 5000-1300, 10% CS2 FOR 1300-625 CM^-^1)
Class: COBLENTZ
Instrument: Not specified, most likely a prism, grating, or hybrid spectrometer.
Sampling: TRANSMISSION
Path length: 0.01 CM, 0.01 CM
Resolution: 4
Origin: DOW CHEMICAL COMPANY
MICROMETERS	TRANSMITTANCE
2.025	0.848
2.0621	0.852
2.0992	0.855
2.1363	0.859
2.1734	0.861
2.21051	0.859
2.24761	0.862
2.28471	0.864
2.32181	0.864
2.35891	0.867
2.39601	0.875
2.43311	0.873
2.47021	0.875
2.50731	0.875
2.54441	0.876
2.58152	0.872
2.61862	0.879
2.65572	0.876
2.69282	0.878
2.72992	0.873
2.76702	0.865
2.80412	0.856
2.84122	0.865
2.87832	0.869
2.91542	0.872
2.95253	0.865
2.98963	0.869
3.02673	0.865
3.06383	0.861
3.10093	0.853
3.13803	0.844
3.17513	0.833
3.21223	0.818
3.24933	0.825
3.28643	0.841
3.32354	0.85
3.36064	0.845
3.39774	0.875
3.43484	0.882
3.47194	0.882
3.50904	0.884
3.54614	0.89
3.58324	0.89
3.62034	0.901
3.65744	0.901
3.69455	0.904
3.73165	0.906
3.76875	0.918
3.80585	0.919
3.84295	0.921
3.88005	0.922
3.91715	0.926
3.95425	0.926
3.99135	0.927
4.02846	0.927
4.06556	0.929
4.10266	0.929
4.13976	0.927
4.17686	0.922
4.21396	0.906
4.25106	0.895
4.28816	0.896
4.32526	0.899
4.36236	0.91
4.39947	0.924
4.43657	0.932
4.47367	0.938
4.51077	0.936
4.54787	0.935
4.58497	0.933
4.62207	0.933
4.65917	0.932
4.69627	0.933
4.73337	0.932
4.77048	0.935
4.80758	0.93
4.84468	0.929
4.88178	0.929
4.91888	0.927
4.95598	0.926
4.99308	0.926
5.03018	0.927
5.06728	0.93
5.10438	0.93
5.14149	0.932
5.17859	0.93
5.21569	0.933
5.25279	0.929
5.28989	0.921
5.32699	0.918
5.36409	0.922
5.40119	0.899
5.43829	0.867
5.4754	0.741
5.5125	0.457
5.5496	0.355
5.5867	0.26
5.6238	0.451
5.6609	0.828
5.698	0.847
5.7351	0.862
5.7722	0.867
5.8093	0.887
5.84641	0.904
5.88351	0.906
5.92061	0.909
5.95771	0.902
5.99481	0.899
6.03191	0.896
6.06901	0.896
6.10611	0.879
6.14321	0.861
6.18031	0.818
6.21742	0.741
6.25452	0.651
6.29162	0.593
6.32872	0.537
6.36582	0.482
6.40292	0.416
6.44002	0.386
6.47712	0.499
6.51422	0.593
6.55132	0.622
6.58843	0.691
6.62553	0.761
6.66263	0.804
6.69973	0.845
6.73683	0.844
6.77393	0.828
6.81103	0.818
6.84813	0.756
6.88523	0.707
6.92233	0.596
6.95944	0.305
6.99654	0.109
7.03364	0.446
7.07074	0.705
7.10784	0.73
7.14494	0.665
7.18204	0.545
7.21914	0.517
7.25624	0.546
7.29335	0.34
7.33045	0.263
7.36755	0.647
7.40465	0.782
7.44175	0.83
7.47885	0.839
7.51595	0.853
7.55305	0.844
7.59015	0.822
7.62725	0.808
7.66436	0.79
7.70146	0.705
7.73856	0.597
7.77566	0.537
7.81276	0.713
7.84986	0.75
7.88696	0.685
7.92406	0.531
7.96116	0.315
7.99826	0.163
8.03537	0.252
8.07247	0.346
8.10957	0.528
8.14667	0.56
8.18377	0.477
8.22087	0.405
8.25797	0.56
8.29507	0.619
8.33217	0.576
8.36927	0.423
8.40638	0.223
8.44348	0.325
8.48058	0.326
8.51768	0.203
8.55478	0.295
8.59188	0.445
8.62898	0.54
8.66608	0.48
8.70318	0.246
8.74029	0.14
8.77739	0.309
8.81449	0.466
8.85159	0.499
8.88869	0.434
8.92579	0.4
8.96289	0.671
8.99999	0.778
9.03709	0.802
9.07419	0.81
9.1113	0.771
9.1484	0.701
9.1855	0.593
9.2226	0.468
9.2597	0.414
9.2968	0.597
9.3339	0.702
9.371	0.768
9.4081	0.81
9.4452	0.839
9.48231	0.861
9.51941	0.875
9.55651	0.876
9.59361	0.884
9.63071	0.884
9.66781	0.887
9.70491	0.89
9.74201	0.89
9.77911	0.889
9.81621	0.879
9.85332	0.872
9.89042	0.853
9.92752	0.781
9.96462	0.622
10.0017	0.477
10.0388	0.285
10.0759	0.288
10.113	0.348
10.1501	0.551
10.1872	0.716
10.2243	0.761
10.2614	0.75
10.2985	0.753
10.3356	0.784
10.3727	0.81
10.4098	0.788
10.4469	0.781
10.484	0.813
10.5211	0.844
10.5582	0.873
10.5953	0.876
10.6324	0.862
10.6695	0.841
10.7066	0.815
10.7437	0.791
10.7808	0.813
10.8179	0.848
10.855	0.858
10.8921	0.858
10.9292	0.839
10.9663	0.838
11.0034	0.85
11.0405	0.859
11.0776	0.852
11.1148	0.842
11.1519	0.822
11.189	0.798
11.2261	0.738
11.2632	0.665
11.3003	0.605
11.3374	0.624
11.3745	0.671
11.4116	0.682
11.4487	0.673
11.4858	0.644
11.5229	0.576
11.56	0.482
11.5971	0.369
11.6342	0.445
11.6713	0.543
11.7084	0.571
11.7455	0.573
11.7826	0.553
11.8197	0.513
11.8568	0.491
11.8939	0.489
11.931	0.5
11.9681	0.476
12.0052	0.414
12.0423	0.354
12.0794	0.405
12.1165	0.526
12.1536	0.61
12.1907	0.656
12.2278	0.714
12.2649	0.736
12.302	0.748
12.3391	0.75
12.3762	0.745
12.4133	0.733
12.4504	0.71
12.4875	0.659
12.5246	0.576
12.5617	0.491
12.5988	0.397
12.6359	0.329
12.673	0.312
12.7101	0.315
12.7472	0.349
12.7843	0.405
12.8214	0.494
12.8585	0.58
12.8956	0.622
12.9327	0.674
12.9698	0.701
13.0069	0.702
13.044	0.697
13.0811	0.671
13.1182	0.63
13.1553	0.556
13.1924	0.482
13.2295	0.395
13.2666	0.371
13.3037	0.425
13.3408	0.497
13.3779	0.58
13.415	0.614
13.4521	0.625
13.4892	0.616
13.5263	0.608
13.5634	0.63
13.6005	0.656
13.6376	0.662
13.6747	0.63
13.7118	0.597
13.7489	0.576
13.786	0.563
13.8231	0.55
13.8602	0.545
13.8973	0.57
13.9344	0.602
13.9715	0.631
14.0086	0.651
14.0457	0.657
14.0828	0.651
14.1199	0.636
14.157	0.613
14.1941	0.599
14.2312	0.573
14.2683	0.551
14.3054	0.531
14.3425	0.533
14.3796	0.543
14.4167	0.55
14.4538	0.542
14.4909	0.526
14.528	0.502
14.5651	0.48
14.6022	0.451
14.6393	0.412
14.6764	0.38
14.7135	0.348
14.7507	0.328
14.7878	0.325
14.8249	0.34
14.862	0.351
14.8991	0.36
14.9362	0.38
14.9733	0.416
15.0104	0.443
15.0475	0.456
15.0846	0.46
15.1217	0.469
15.1588	0.474
15.1959	0.476
15.233	0.479
15.2701	0.479
15.3072	0.474
15.3443	0.469
15.3814	0.465
15.4185	0.459
15.4556	0.448
15.4927	0.434
15.5298	0.428
15.5669	0.422
15.604	0.42
15.6411	0.417
15.6782	0.411
15.7153	0.406
15.7524	0.4
15.7895	0.389
15.8266	0.379
15.8637	0.379
15.9008	0.392
