Infrared Spectrum: AMMONIUM PRASEODYMIUM OXALATE, HYDRATE
Formula: C8 H8 N2 O16 Pr2  * 6-8 H2 O
State: SOLID (SPLIT MULL), FLUOROLUBE FOR 3800-1330 CM^-^1, NUJOL FOR 1330-470 CM^-^1
Class: COBLENTZ III
Instrument: DOW KBr FOREPRISM-GRATING
Instrument parameters: BLAZED AT 3.5, 12.0, 20.0 MICRON AND CHANGED AT 5.0, 7.5, 14.9 MICRON
Sampling: TRANSMISSION
Resolution: 2
Origin: DOW CHEMICAL COMPANY
1/CM	TRANSMITTANCE
461.935	0.74
470.729	0.721
479.523	0.695
488.317	0.679
497.111	0.68
505.905	0.702
514.699	0.712
523.493	0.785
532.287	0.834
541.081	0.843
549.875	0.839
558.669	0.839
567.463	0.84
576.257	0.841
585.051	0.844
593.845	0.858
602.639	0.86
611.433	0.869
620.227	0.873
629.021	0.875
637.815	0.878
646.609	0.881
655.403	0.878
664.197	0.877
672.991	0.877
681.785	0.877
690.579	0.873
699.373	0.867
708.167	0.849
716.961	0.799
725.755	0.777
734.549	0.862
743.343	0.862
752.137	0.848
760.931	0.822
769.725	0.795
778.519	0.725
787.312	0.466
796.106	0.384
804.9	0.6221
813.694	0.863
822.488	0.909
831.282	0.92
840.076	0.927
848.87	0.927
857.664	0.929
866.458	0.934
875.252	0.933
884.046	0.926
892.84	0.914
901.634	0.909
910.428	0.914
919.222	0.916
928.016	0.919
936.81	0.919
945.604	0.918
954.398	0.915
963.192	0.911
971.986	0.912
980.78	0.918
989.574	0.923
998.368	0.924
1007.16	0.922
1015.96	0.914
1024.75	0.914
1033.54	0.911
1042.34	0.905
1051.13	0.905
1059.93	0.9
1068.72	0.893
1077.51	0.892
1086.31	0.884
1095.1	0.879
1103.9	0.878
1112.69	0.871
1121.48	0.864
1130.28	0.864
1139.07	0.866
1147.87	0.852
1156.66	0.849
1165.45	0.841
1174.25	0.839
1183.04	0.833
1191.84	0.819
1200.63	0.81
1209.42	0.799
1218.22	0.785
1227.01	0.774
1235.81	0.753
1244.6	0.729
1253.39	0.705
1262.19	0.669
1270.98	0.661
1279.78	0.672
1288.57	0.648
1297.36	0.514
1306.16	0.306
1314.95	0.246
1323.75	0.5061
1332.54	0.69
1341.33	0.694
1350.13	0.699
1358.92	0.683
1367.72	0.687
1376.51	0.723
1385.3	0.809
1394.1	0.787
1402.89	0.732
1411.69	0.664
1420.48	0.618
1429.27	0.624
1438.07	0.673
1446.86	0.682
1455.66	0.646
1464.45	0.622
1473.24	0.656
1482.04	0.733
1490.83	0.774
1499.63	0.778
1508.42	0.768
1517.21	0.748
1526.01	0.723
1534.8	0.691
1543.6	0.658
1552.39	0.624
1561.18	0.575
1569.98	0.488
1578.77	0.405
1587.57	0.297
1596.36	0.195
1605.15	0.128
1613.95	0.081
1622.74	0.049
1631.54	0.036
1640.33	0.04
1649.12	0.053
1657.92	0.076
1666.71	0.124
1675.51	0.184
1684.3	0.241
1693.09	0.285
1701.89	0.341
1710.68	0.38
1719.48	0.463
1728.27	0.557
1737.06	0.637
1745.86	0.695
1754.65	0.736
1763.44	0.765
1772.24	0.793
1781.03	0.814
1789.83	0.832
1798.62	0.849
1807.41	0.862
1816.21	0.873
1825	0.885
1833.8	0.892
1842.59	0.897
1851.38	0.905
1860.18	0.909
1868.97	0.912
1877.77	0.912
1886.56	0.911
1895.35	0.911
1904.15	0.915
1912.94	0.92
1921.74	0.929
1930.53	0.935
1939.32	0.939
1948.12	0.944
1956.91	0.946
1965.71	0.95
1974.5	0.942
1983.29	0.954
1992.09	0.953
2000.88	0.9525
2009.68	0.954
2018.47	0.954
2027.26	0.954
2036.06	0.9567
2044.85	0.959
2053.65	0.9563
2062.44	0.9545
2071.23	0.956
2080.03	0.954
2088.82	0.954
2097.62	0.954
2106.41	0.956
2115.2	0.954
2124	0.953
2132.79	0.953
2141.59	0.952
2150.38	0.952
2159.17	0.95
2167.97	0.949
2176.76	0.9487
2185.56	0.946
2194.35	0.945
2203.14	0.9433
2211.94	0.9402
2220.73	0.9386
2229.53	0.935
2238.32	0.932
2247.11	0.927
2255.91	0.9234
2264.7	0.92
2273.5	0.918
2282.29	0.916
2291.08	0.915
2299.88	0.915
2308.67	0.915
2317.47	0.915
2326.26	0.915
2335.05	0.915
2343.85	0.916
2352.64	0.919
2361.44	0.9241
2370.23	0.926
2379.02	0.926
2387.82	0.926
2396.61	0.9302
2405.41	0.931
2414.2	0.931
2422.99	0.931
2431.79	0.931
2440.58	0.931
2449.38	0.93
2458.17	0.93
2466.96	0.929
2475.76	0.927
2484.55	0.9249
2493.35	0.924
2502.14	0.926
2510.93	0.926
2519.73	0.924
2528.52	0.923
2537.32	0.922
2546.11	0.9222
2554.9	0.922
2563.7	0.9202
2572.49	0.9219
2581.29	0.92
2590.08	0.919
2598.87	0.915
2607.67	0.912
2616.46	0.912
2625.26	0.911
2634.05	0.909
2642.84	0.908
2651.64	0.905
2660.43	0.9023
2669.23	0.8996
2678.02	0.896
2686.81	0.893
2695.61	0.89
2704.4	0.888
2713.2	0.8854
2721.99	0.8814
2730.78	0.878
2739.58	0.8743
2748.37	0.8703
2757.17	0.8645
2765.96	0.8582
2774.75	0.8494
2783.55	0.8453
2792.34	0.8391
2801.14	0.8321
2809.93	0.8251
2818.72	0.821
2827.52	0.815
2836.31	0.81
2845.11	0.8039
2853.9	0.7924
2862.69	0.7838
2871.49	0.7855
2880.28	0.793
2889.08	0.7917
2897.87	0.7863
2906.66	0.774
2915.46	0.7656
2924.25	0.7532
2933.05	0.746
2941.84	0.7425
2950.63	0.7384
2959.43	0.7286
2968.22	0.7187
2977.02	0.7099
2985.81	0.705
2994.6	0.6972
3003.4	0.6914
3012.19	0.6843
3020.99	0.6781
3029.78	0.673
3038.57	0.672
3047.37	0.669
3056.16	0.665
3064.95	0.667
3073.75	0.672
3082.54	0.675
3091.34	0.675
3100.13	0.6746
3108.92	0.672
3117.72	0.668
3126.51	0.6623
3135.31	0.66
3144.1	0.6576
3152.89	0.6566
3161.69	0.6485
3170.48	0.638
3179.28	0.6334
3188.07	0.6304
3196.86	0.626
3205.66	0.6307
3214.45	0.6411
3223.25	0.6552
3232.04	0.6673
3240.83	0.6775
3249.63	0.6856
3258.42	0.6928
3267.22	0.6989
3276.01	0.706
3284.8	0.71
3293.6	0.706
3302.39	0.6968
3311.19	0.6824
3319.98	0.6638
3328.77	0.6646
3337.57	0.6765
3346.36	0.6941
3355.16	0.7093
3363.95	0.7217
3372.74	0.728
3381.54	0.7338
3390.33	0.74
3399.13	0.7435
3407.92	0.746
3416.71	0.7491
3425.51	0.753
3434.3	0.7563
3443.1	0.7617
3451.89	0.7675
3460.68	0.772
3469.48	0.7808
3478.27	0.7918
3487.07	0.8056
3495.86	0.8188
3504.65	0.833
3513.45	0.849
3522.24	0.8601
3531.04	0.8733
3539.83	0.8902
3548.62	0.9075
3557.42	0.9204
3566.21	0.9274
3575.01	0.9428
3583.8	0.9579
3592.59	0.969
3601.39	0.9767
3610.18	0.979
3618.98	0.9849
3627.77	0.9895
3636.56	0.997
3645.36	0.998
3654.15	1
3662.95	1
3671.74	1
3680.53	1
3689.33	1
3698.12	1
3706.92	1
3715.71	1
3724.5	1
3733.3	1
3742.09	0.998
3750.89	0.997
3759.68	0.995
3768.47	0.994
3777.27	0.993
3786.06	0.991
