Infrared Spectrum: MERCADIUM RED-LITHOPONE
Formula: Ba S O4
State: SOLID (0.3 mg / 300 mg CsI DISC)
Class: COBLENTZ
Instrument: Not specified, most likely a grating spectrometer.
Sampling: TRANSMISSION
Resolution: 4
Origin: DESOTO CHEMICAL COATINGS, INC.
1/CM	TRANSMITTANCE
200	0.642
210.643	0.647
221.286	0.752
231.929	0.773
242.572	0.752
253.215	0.648
263.858	0.521
274.501	0.557
285.144	0.666
295.787	0.77
306.43	0.781
317.073	0.785
327.716	0.789
338.359	0.794
349.003	0.793
359.646	0.79
370.289	0.793
380.932	0.792
391.575	0.792
402.218	0.793
412.861	0.792
423.504	0.782
434.147	0.778
444.79	0.782
455.433	0.789
466.076	0.798
476.719	0.812
487.362	0.827
498.005	0.836
508.648	0.844
519.291	0.848
529.934	0.849
540.577	0.855
551.22	0.86
561.863	0.865
572.506	0.873
583.149	0.88
593.792	0.878
604.435	0.7431
615.078	0.506
625.721	0.778
636.364	0.7031
647.008	0.695
657.651	0.895
668.294	0.926
678.937	0.939
689.58	0.951
700.223	0.953
710.866	0.953
721.509	0.955
732.152	0.958
742.795	0.961
753.438	0.962
764.081	0.962
774.724	0.962
785.367	0.961
796.01	0.963
806.653	0.961
817.296	0.961
827.939	0.962
838.582	0.962
849.225	0.961
859.868	0.959
870.511	0.962
881.154	0.961
891.797	0.961
902.44	0.961
913.083	0.958
923.726	0.958
934.369	0.958
945.013	0.957
955.656	0.954
966.299	0.951
976.942	0.946
987.585	0.868
998.228	0.934
1008.87	0.928
1019.51	0.916
1030.16	0.91
1040.8	0.895
1051.44	0.841
1062.09	0.6403
1072.73	0.2171
1083.37	0.197
1094.02	0.428
1104.66	0.431
1115.3	0.2301
1125.94	0.289
1136.59	0.572
1147.23	0.697
1157.87	0.738
1168.52	0.5931
1179.16	0.3511
1189.8	0.285
1200.45	0.481
1211.09	0.691
1221.73	0.8
1232.37	0.853
1243.02	0.894
1253.66	0.91
1264.3	0.922
1274.95	0.926
1285.59	0.93
1296.23	0.935
1306.88	0.938
1317.52	0.936
1328.16	0.936
1338.8	0.938
1349.45	0.935
1360.09	0.932
1370.73	0.93
1381.38	0.927
1392.02	0.928
1402.66	0.926
1413.31	0.923
1423.95	0.923
1434.59	0.923
1445.24	0.923
1455.88	0.92
1466.52	0.92
1477.16	0.922
1487.81	0.93
1498.45	0.931
1509.09	0.931
1519.74	0.927
1530.38	0.924
1541.02	0.922
1551.67	0.92
1562.31	0.919
1572.95	0.915
1583.59	0.912
1594.24	0.894
1604.88	0.861
1615.52	0.841
1626.17	0.849
1636.81	0.873
1647.45	0.896
1658.1	0.902
1668.74	0.91
1679.38	0.914
1690.03	0.916
1700.67	0.924
1711.31	0.928
1721.95	0.931
1732.6	0.931
1743.24	0.934
1753.88	0.936
1764.53	0.939
1775.17	0.942
1785.81	0.942
1796.46	0.942
1807.1	0.942
1817.74	0.943
1828.38	0.943
1839.03	0.942
1849.67	0.942
1860.31	0.941
1870.96	0.942
1881.6	0.942
1892.24	0.942
1902.89	0.941
1913.53	0.938
1924.17	0.938
1934.81	0.939
1945.46	0.936
1956.1	0.935
1966.74	0.935
1977.39	0.935
1988.03	0.935
1998.67	0.935
2009.32	0.9355
2019.96	0.935
2030.6	0.934
2041.25	0.934
2051.89	0.931
2062.53	0.93
2073.17	0.928
2083.82	0.9275
2094.46	0.926
2105.1	0.926
2115.75	0.9265
2126.39	0.9274
2137.03	0.927
2147.68	0.927
2158.32	0.928
2168.96	0.93
2179.6	0.93
2190.25	0.93
2200.89	0.93
2211.53	0.928
2222.18	0.928
2232.82	0.9288
2243.46	0.93
2254.11	0.931
2264.75	0.93
2275.39	0.931
2286.04	0.9316
2296.68	0.9306
2307.32	0.93
2317.96	0.9314
2328.61	0.931
2339.25	0.931
2349.89	0.9314
2360.54	0.935
2371.18	0.935
2381.82	0.935
2392.47	0.9333
2403.11	0.931
2413.75	0.927
2424.39	0.926
2435.04	0.926
2445.68	0.9263
2456.32	0.927
2466.97	0.9277
2477.61	0.9237
2488.25	0.923
2498.9	0.924
2509.54	0.923
2520.18	0.924
2530.82	0.9237
2541.47	0.9223
2552.11	0.923
2562.75	0.924
2573.4	0.923
2584.04	0.92
2594.68	0.923
2605.33	0.922
2615.97	0.92
2626.61	0.92
2637.26	0.92
2647.9	0.919
2658.54	0.92
2669.18	0.919
2679.83	0.92
2690.47	0.919
2701.11	0.9193
2711.76	0.919
2722.4	0.9182
2733.04	0.916
2743.69	0.9158
2754.33	0.915
2764.97	0.916
2775.61	0.915
2786.26	0.9142
2796.9	0.915
2807.54	0.911
2818.19	0.911
2828.83	0.91
2839.47	0.908
2850.12	0.9028
2860.76	0.8816
2871.4	0.8844
2882.05	0.8902
2892.69	0.8918
2903.33	0.8896
2913.97	0.8836
2924.62	0.8518
2935.26	0.844
2945.9	0.8597
2956.55	0.8693
2967.19	0.8764
2977.83	0.8823
2988.48	0.8902
2999.12	0.894
3009.76	0.894
3020.4	0.8937
3031.05	0.892
3041.69	0.8942
3052.33	0.896
3062.98	0.898
3073.62	0.8959
3084.26	0.894
3094.91	0.892
3105.55	0.8919
3116.19	0.891
3126.83	0.891
3137.48	0.891
3148.12	0.8898
3158.76	0.884
3169.41	0.8839
3180.05	0.8799
3190.69	0.878
3201.34	0.875
3211.98	0.8719
3222.62	0.8668
3233.27	0.863
3243.91	0.86
3254.55	0.859
3265.19	0.856
3275.84	0.8529
3286.48	0.8489
3297.12	0.8429
3307.77	0.8369
3318.41	0.8319
3329.05	0.821
3339.7	0.8188
3350.34	0.8049
3360.98	0.7976
3371.62	0.7799
3382.27	0.7688
3392.91	0.7519
3403.55	0.7379
3414.2	0.7259
3424.84	0.711
3435.48	0.703
3446.13	0.695
3456.77	0.691
3467.41	0.691
3478.06	0.693
3488.7	0.697
3499.34	0.701
3509.98	0.706
3520.63	0.714
3531.27	0.723
3541.91	0.73
3552.56	0.7409
3563.2	0.7578
3573.84	0.7719
3584.49	0.7878
3595.13	0.797
3605.77	0.8119
3616.41	0.8288
3627.06	0.8389
3637.7	0.849
3648.34	0.855
3658.99	0.8599
3669.63	0.861
3680.27	0.861
3690.92	0.863
3701.56	0.861
3712.2	0.861
3722.84	0.861
3733.49	0.8649
3744.13	0.868
3754.77	0.865
3765.42	0.8649
3776.06	0.864
3786.7	0.864
3797.35	0.8631
3807.99	0.863
3818.63	0.8628
3829.28	0.861
3839.92	0.8591
3850.56	0.859
3861.2	0.861
3871.85	0.859
3882.49	0.859
3893.13	0.8591
3903.78	0.8591
3914.42	0.857
3925.06	0.856
3935.71	0.8587
3946.35	0.86
3956.99	0.859
3967.63	0.859
3978.28	0.857
