Infrared Spectrum: Formic acid, (phenylazo)thio-, 2-phenylhydrazide, manganese derivative-
Formula: C26 H22 Mn N8 S2
State: SOLID (SPLIT MULL), FLUOROLUBE FOR 3800-1330 CM^-^1, NUJOL FOR 1330-400 CM^-^1
Class: COBLENTZ III
Instrument: BECKMAN IR-9 (GRATING)
Instrument parameters: ORDER CHANGES: 670, 1200, 2000 CM^-^1
Sampling: TRANSMISSION
Resolution: 2
Origin: DOW CHEMICAL COMPANY
1/CM	TRANSMITTANCE
3800	0.5896
3791	0.5904
3782	0.5915
3773	0.5925
3764	0.5935
3755	0.5943
3746	0.5952
3737	0.5959
3728	0.5967
3719	0.5974
3710	0.5982
3701	0.5994
3692	0.6005
3683	0.6017
3674	0.6029
3665	0.604
3656	0.6051
3647	0.606
3638	0.6072
3629	0.6083
3620	0.6094
3611	0.6106
3602	0.6118
3593	0.613
3584	0.6143
3575	0.6155
3566	0.6168
3557	0.6179
3548	0.6189
3539	0.6198
3530	0.6207
3521	0.6216
3512	0.6225
3503	0.6235
3494	0.6248
3485	0.626
3476	0.6272
3467	0.6284
3458	0.6297
3449	0.6312
3440	0.6328
3431	0.6343
3422	0.6359
3413	0.6374
3404	0.6391
3395	0.6408
3386	0.6425
3377	0.6442
3368	0.646
3359	0.648
3350	0.6501
3341	0.6521
3332	0.6542
3323	0.6562
3314	0.6585
3305	0.6601
3296	0.6618
3287	0.6631
3278	0.6643
3269	0.6651
3260	0.6651
3251	0.6647
3242	0.6624
3233	0.6582
3224	0.6519
3215	0.6106
3206	0.4295
3197	0.5562
3188	0.646
3179	0.6636
3170	0.6701
3161	0.6748
3152	0.6774
3143	0.6778
3134	0.6785
3125	0.679
3116	0.6785
3107	0.6769
3098	0.6751
3089	0.6697
3080	0.6621
3071	0.648
3062	0.6185
3053	0.6248
3044	0.6518
3035	0.6604
3026	0.6668
3017	0.6725
3008	0.6785
2999	0.6875
2990	0.6961
2981	0.6992
2972	0.7007
2963	0.7012
2954	0.7017
2945	0.7019
2936	0.7024
2927	0.7033
2918	0.7053
2909	0.7071
2900	0.7095
2891	0.7122
2882	0.7144
2873	0.715
2864	0.7158
2855	0.7184
2846	0.7218
2837	0.7238
2828	0.7248
2819	0.7254
2810	0.7258
2801	0.7261
2792	0.7268
2783	0.7275
2774	0.7289
2765	0.7303
2756	0.7318
2747	0.7335
2738	0.7351
2729	0.7368
2720	0.7386
2711	0.7401
2702	0.7418
2693	0.7433
2684	0.7448
2675	0.7462
2666	0.7478
2657	0.7494
2648	0.7507
2639	0.7521
2630	0.7537
2621	0.7546
2612	0.7555
2603	0.7562
2594	0.7571
2585	0.7581
2576	0.7588
2567	0.7594
2558	0.7601
2549	0.7606
2540	0.7611
2531	0.7615
2522	0.7618
2513	0.7619
2504	0.7618
2495	0.7611
2486	0.7605
2477	0.7599
2468	0.7594
2459	0.7588
2450	0.7588
2441	0.7589
2432	0.7591
2423	0.7599
2414	0.7608
2405	0.7615
2396	0.7624
2387	0.7624
2378	0.7615
2369	0.7608
2360	0.7605
2351	0.7601
2342	0.7601
2333	0.7603
2324	0.7608
2315	0.7618
2306	0.7625
2297	0.763
2288	0.7635
2279	0.7651
2270	0.7674
2261	0.7697
2252	0.7728
2243	0.7758
2234	0.7789
2225	0.7818
2216	0.7848
2207	0.7876
2198	0.7904
2189	0.7928
2180	0.7955
2171	0.798
2162	0.8006
2153	0.8033
2144	0.8058
2135	0.8088
2126	0.8119
2117	0.8151
2108	0.8184
2099	0.8211
2090	0.8228
2081	0.8243
2072	0.8258
2063	0.8271
2054	0.8286
2045	0.8303
2036	0.8325
2027	0.8346
2018	0.8357
2009	0.8368
2000	0.8196
1991	0.8178
1982	0.8281
1973	0.8199
1964	0.8139
1955	0.8185
1946	0.8169
1937	0.8183
1928	0.8288
1919	0.8293
1910	0.8213
1901	0.8277
1892	0.8278
1883	0.8275
1874	0.828
1865	0.8288
1856	0.8313
1847	0.829
1838	0.8317
1829	0.8351
1820	0.837
1811	0.8356
1802	0.8338
1793	0.8321
1784	0.8308
1775	0.8308
1766	0.8321
1757	0.8328
1748	0.8333
1739	0.8335
1730	0.8332
1721	0.8324
1712	0.8318
1703	0.8342
1694	0.8389
1685	0.8368
1676	0.8371
1667	0.8428
1658	0.8405
1649	0.8418
1640	0.8434
1631	0.8413
1622	0.8325
1613	0.8065
1604	0.6861
1595	0.4599
1586	0.7121
1577	0.7904
1568	0.7978
1559	0.7964
1550	0.7768
1541	0.7254
1532	0.5142
1523	0.1164
1514	0.3442
1505	0.5866
1496	0.62
1487	0.681
1478	0.7022
1469	0.5097
1460	0.6899
1451	0.7585
1442	0.7853
1433	0.7368
1424	0.6943
1415	0.7901
1406	0.7918
1397	0.7787
1388	0.7715
1379	0.7425
1370	0.7197
1361	0.6658
1352	0.4273
1343	0.0441
1334	0.3936
1325	0.2387
1316	0.1471
1307	0.3798
1298	0.5067
1289	0.2446
1280	0.32
1271	0.4055
1262	0.5503
1253	0.5749
1244	0.4821
1235	0.415
1226	0.2424
1217	0.0119
1208	0.0896
1199	0.3468
1190	0.1402
1181	0.2848
1172	0.328
1163	0.1148
1154	0.1064
1145	0.1645
1136	0.3255
1127	0.3422
1118	0.4184
1109	0.4404
1100	0.495
1091	0.5759
1082	0.5837
1073	0.4378
1064	0.6471
1055	0.6807
1046	0.7175
1037	0.7498
1028	0.7121
1019	0.7764
1010	0.7846
1001	0.7454
992	0.7949
983	0.7862
974	0.7908
965	0.776
956	0.8021
947	0.8118
938	0.8071
929	0.7615
920	0.2966
911	0.7485
902	0.7504
893	0.7826
884	0.7581
875	0.837
866	0.8239
857	0.6725
848	0.8487
839	0.8456
830	0.8081
821	0.8014
812	0.8474
803	0.8541
794	0.8514
785	0.8156
776	0.5601
767	0.5101
758	0.6921
749	0.1394
740	0.595
731	0.5793
722	0.6895
713	0.4748
704	0.8148
695	0.6112
686	0.1554
677	0.7251
668	0.7717
659	0.8137
650	0.8289
641	0.8204
632	0.7951
623	0.5981
614	0.521
605	0.7515
596	0.8262
587	0.8437
578	0.8447
569	0.8247
560	0.7703
551	0.512
542	0.6129
533	0.7051
524	0.4495
515	0.6772
506	0.4333
497	0.2929
488	0.7048
479	0.7401
470	0.743
461	0.7296
452	0.5852
443	0.4509
434	0.5812
425	0.5469
416	0.5006
407	0.486
