Infrared Spectrum: NALCAMINE G-13
Formula: C22 H42 N2 O
State: LIQUID
Class: COBLENTZ
Instrument: Not specified, most likely a prism, grating, or hybrid spectrometer.
Sampling: TRANSMISSION
Path length: CAPILLARY
Resolution: 4
Origin: WYANDOTTE CHEMICALS CORP., WYANDOTTE, MICHIGAN, USA
MICROMETERS	TRANSMITTANCE
2.023	0.996
2.06288	0.993
2.10276	0.989
2.14264	0.994
2.18252	0.989
2.2224	0.931
2.26228	0.926
2.30216	0.933
2.34204	0.941
2.38192	0.948
2.4218	0.948
2.46168	0.958
2.50156	0.959
2.54144	0.964
2.58132	0.973
2.6212	0.969
2.66108	0.978
2.70096	0.978
2.74084	0.964
2.78072	0.948
2.8206	0.911
2.86048	0.849
2.90036	0.782
2.94024	0.7
2.98012	0.627
3.02	0.555
3.05988	0.505
3.09976	0.448
3.13964	0.396
3.17952	0.369
3.2194	0.401
3.25928	0.438
3.29916	0.379
3.33904	0.274
3.37892	0.031
3.4188	0.026
3.45868	0.058
3.49856	0.033
3.53844	0.187
3.57832	0.381
3.6182	0.516
3.65808	0.573
3.69796	0.6
3.73784	0.63
3.77772	0.672
3.8176	0.719
3.85748	0.752
3.89736	0.777
3.93724	0.787
3.97712	0.802
4.017	0.821
4.05688	0.837
4.09676	0.861
4.13663	0.872
4.17651	0.881
4.21639	0.899
4.25627	0.899
4.29615	0.918
4.33603	0.936
4.37591	0.958
4.41579	0.958
4.45567	0.949
4.49555	0.959
4.53543	0.961
4.57531	0.964
4.61519	0.964
4.65507	0.966
4.69495	0.971
4.73483	0.974
4.77471	0.976
4.81459	0.976
4.85447	0.979
4.89435	0.979
4.93423	0.979
4.97411	0.979
5.01399	0.978
5.05387	0.978
5.09375	0.986
5.13363	0.974
5.17351	0.978
5.21339	0.974
5.25327	0.978
5.29315	0.981
5.33303	0.974
5.37291	0.971
5.41279	0.978
5.45267	0.969
5.49255	0.968
5.53243	0.969
5.57231	0.963
5.61219	0.964
5.65207	0.961
5.69195	0.949
5.73183	0.797
5.77171	0.734
5.81159	0.866
5.85147	0.884
5.89135	0.874
5.93123	0.787
5.97111	0.642
6.01099	0.556
6.05087	0.476
6.09075	0.508
6.13063	0.311
6.17051	0.1
6.21039	0.118
6.25027	0.371
6.29015	0.536
6.33003	0.607
6.36991	0.625
6.40979	0.645
6.44967	0.655
6.48955	0.678
6.52943	0.697
6.56931	0.702
6.60919	0.675
6.64907	0.558
6.68895	0.413
6.72883	0.473
6.76871	0.262
6.80859	0.162
6.84847	0.193
6.88835	0.198
6.92823	0.22
6.96811	0.255
7.00799	0.264
7.04787	0.349
7.08775	0.461
7.12763	0.54
7.16751	0.622
7.20739	0.623
7.24727	0.528
7.28715	0.501
7.32703	0.466
7.36691	0.481
7.40679	0.561
7.44667	0.6
7.48655	0.627
7.52643	0.63
7.56631	0.627
7.60619	0.596
7.64607	0.588
7.68595	0.583
7.72583	0.536
7.76571	0.491
7.80559	0.399
7.84547	0.346
7.88535	0.336
7.92523	0.339
7.96511	0.356
8.00499	0.403
8.04487	0.448
8.08475	0.479
8.12463	0.486
8.16451	0.488
8.20439	0.483
8.24427	0.474
8.28415	0.484
8.32402	0.503
8.3639	0.525
8.40378	0.535
8.44366	0.526
8.48354	0.545
8.52342	0.59
8.5633	0.62
8.60318	0.657
8.64306	0.687
8.68294	0.709
8.72282	0.732
8.7627	0.742
8.80258	0.767
8.84246	0.755
8.88234	0.729
8.92222	0.725
8.9621	0.717
9.00198	0.687
9.04186	0.652
9.08174	0.571
9.12162	0.483
9.1615	0.429
9.20138	0.386
9.24126	0.364
9.28114	0.366
9.32102	0.359
9.3609	0.367
9.40078	0.416
9.44066	0.489
9.48054	0.561
9.52042	0.623
9.5603	0.662
9.60018	0.673
9.64006	0.67
9.67994	0.652
9.71982	0.618
9.7597	0.573
9.79958	0.52
9.83946	0.481
9.87934	0.484
9.91922	0.535
9.9591	0.59
9.99898	0.618
10.0389	0.64
10.0787	0.65
10.1186	0.658
10.1585	0.665
10.1984	0.687
10.2383	0.707
10.2781	0.722
10.318	0.722
10.3579	0.71
10.3978	0.712
10.4377	0.739
10.4775	0.75
10.5174	0.76
10.5573	0.769
10.5972	0.772
10.6371	0.774
10.6769	0.779
10.7168	0.799
10.7567	0.816
10.7966	0.829
10.8365	0.841
10.8763	0.844
10.9162	0.842
10.9561	0.842
10.996	0.841
11.0359	0.827
11.0757	0.827
11.1156	0.831
11.1555	0.832
11.1954	0.836
11.2353	0.841
11.2751	0.837
11.315	0.832
11.3549	0.826
11.3948	0.809
11.4347	0.802
11.4745	0.785
11.5144	0.77
11.5543	0.76
11.5942	0.745
11.6341	0.737
11.6739	0.737
11.7138	0.747
11.7537	0.76
11.7936	0.775
11.8335	0.789
11.8733	0.794
11.9132	0.801
11.9531	0.809
11.993	0.812
12.0329	0.811
12.0727	0.804
12.1126	0.804
12.1525	0.804
12.1924	0.799
12.2323	0.797
12.2721	0.795
12.312	0.794
12.3519	0.792
12.3918	0.79
12.4317	0.787
12.4715	0.785
12.5114	0.78
12.5513	0.775
12.5912	0.774
12.6311	0.775
12.6709	0.77
12.7108	0.764
12.7507	0.76
12.7906	0.759
12.8305	0.759
12.8703	0.754
12.9102	0.747
12.9501	0.742
12.99	0.737
13.0299	0.734
13.0697	0.734
13.1096	0.73
13.1495	0.725
13.1894	0.725
13.2293	0.725
13.2691	0.725
13.309	0.725
13.3489	0.722
13.3888	0.712
13.4287	0.705
13.4685	0.695
13.5084	0.683
13.5483	0.67
13.5882	0.657
13.6281	0.64
13.6679	0.608
13.7078	0.568
13.7477	0.551
13.7876	0.525
13.8275	0.501
13.8673	0.491
13.9072	0.493
13.9471	0.515
13.987	0.53
14.0269	0.563
14.0667	0.578
14.1066	0.586
14.1465	0.596
14.1864	0.603
14.2263	0.613
14.2661	0.627
14.306	0.628
14.3459	0.632
14.3858	0.64
14.4257	0.642
14.4655	0.64
14.5054	0.65
14.5453	0.648
14.5852	0.653
14.625	0.66
14.6649	0.668
14.7048	0.673
14.7447	0.678
14.7846	0.688
14.8244	0.692
14.8643	0.692
14.9042	0.702
14.9441	0.7
14.984	0.709
15.0238	0.715
15.0637	0.729
15.1036	0.739
15.1435	0.729
15.1834	0.722
15.2232	0.72
15.2631	0.725
15.303	0.729
15.3429	0.73
15.3828	0.732
15.4226	0.73
15.4625	0.735
15.5024	0.737
15.5423	0.742
15.5822	0.745
15.622	0.735
15.6619	0.734
15.7018	0.735
15.7417	0.732
15.7816	0.74
15.8214	0.74
15.8613	0.742
15.9012	0.74
15.9411	0.745
15.981	0.749
