Infrared Spectrum: Succinic acid, hydrazino-, 4-hydrazide, cmpd with hydrazine
Formula: C4 H14 N6 O3
State: SOLID (1 mg / 650 mg KBr DISC)
Melting point: 199-202 C
Class: COBLENTZ III
Instrument: PERKIN-ELMER 21 (GRATING)
Instrument parameters: FILTER CHANGE ABOUT 1085 CM^-^1
Sampling: TRANSMISSION
Resolution: 2
Origin: SOUTHERN RESEARCH INSTITUTE
1/CM	TRANSMITTANCE
639	0.5974
647.033	0.5685
655.066	0.5542
663.099	0.5599
671.132	0.5757
679.165	0.5782
687.197	0.5662
695.23	0.5348
703.263	0.5284
711.296	0.5119
719.329	0.465
727.362	0.3656
735.395	0.216
743.428	0.1999
751.461	0.2351
759.494	0.407
767.526	0.4983
775.559	0.5273
783.592	0.5598
791.625	0.5472
799.658	0.4668
807.691	0.5223
815.724	0.533
823.757	0.5458
831.79	0.5508
839.823	0.5546
847.855	0.5547
855.888	0.5571
863.921	0.5364
871.954	0.5504
879.987	0.5561
888.02	0.5553
896.053	0.5454
904.086	0.5327
912.119	0.5165
920.152	0.5012
928.184	0.4829
936.217	0.4608
944.25	0.4369
952.283	0.3821
960.316	0.2752
968.349	0.2837
976.382	0.3624
984.415	0.5202
992.448	0.4863
1000.48	0.3631
1008.51	0.2161
1016.55	0.2196
1024.58	0.1943
1032.61	0.4439
1040.65	0.6448
1048.68	0.6307
1056.71	0.6025
1064.74	0.5514
1072.78	0.5311
1080.81	0.4956
1088.84	0.4524
1096.88	0.4238
1104.91	0.38
1112.94	0.3192
1120.97	0.2773
1129.01	0.2251
1137.04	0.3164
1145.07	0.2997
1153.11	0.2239
1161.14	0.3027
1169.17	0.3503
1177.2	0.4109
1185.24	0.4888
1193.27	0.5849
1201.3	0.5944
1209.34	0.592
1217.37	0.5767
1225.4	0.561
1233.43	0.5407
1241.47	0.5167
1249.5	0.4923
1257.53	0.4673
1265.57	0.4424
1273.6	0.4526
1281.63	0.4176
1289.66	0.3657
1297.7	0.318
1305.73	0.3143
1313.76	0.3624
1321.8	0.408
1329.83	0.4368
1337.86	0.4301
1345.9	0.3986
1353.93	0.3762
1361.96	0.3507
1369.99	0.322
1378.03	0.2915
1386.06	0.2562
1394.09	0.2336
1402.13	0.2185
1410.16	0.221
1418.19	0.218
1426.22	0.184
1434.26	0.1376
1442.29	0.1271
1450.32	0.1788
1458.36	0.2367
1466.39	0.2788
1474.42	0.345
1482.45	0.3597
1490.49	0.2809
1498.52	0.2483
1506.55	0.1883
1514.59	0.1263
1522.62	0.0837
1530.65	0.0858
1538.68	0.1172
1546.72	0.1312
1554.75	0.1555
1562.78	0.1643
1570.82	0.1446
1578.85	0.1134
1586.88	0.1381
1594.92	0.1706
1602.95	0.2714
1610.98	0.3406
1619.01	0.3639
1627.05	0.3307
1635.08	0.2465
1643.11	0.1897
1651.15	0.2513
1659.18	0.3269
1667.21	0.3577
1675.24	0.4418
1683.28	0.5343
1691.31	0.5708
1699.34	0.6059
1707.38	0.6398
1715.41	0.6468
1723.44	0.674
1731.47	0.68
1739.51	0.6905
1747.54	0.696
1755.57	0.7056
1763.61	0.7161
1771.64	0.7218
1779.67	0.7238
1787.7	0.7219
1795.74	0.7205
1803.77	0.7195
1811.8	0.7225
1819.84	0.7096
1827.87	0.7047
1835.9	0.6991
1843.94	0.695
1851.97	0.6915
1860	0.6823
1868.03	0.6752
1876.07	0.6717
1884.1	0.6653
1892.13	0.6617
1900.17	0.6624
1908.2	0.6624
1916.23	0.6592
1924.26	0.6552
1932.3	0.6537
1940.33	0.6453
1948.36	0.638
1956.4	0.6342
1964.43	0.6287
1972.46	0.6161
1980.49	0.6123
1988.53	0.6025
1996.56	0.5898
2004.59	0.5781
2012.63	0.5706
2020.66	0.5648
2028.69	0.5661
2036.72	0.5698
2044.76	0.5761
2052.79	0.5691
2060.82	0.5659
2068.86	0.5604
2076.89	0.5447
2084.92	0.5374
2092.96	0.5303
2100.99	0.5204
2109.02	0.5063
2117.05	0.4921
2125.09	0.4787
2133.12	0.4662
2141.15	0.4551
2149.19	0.4438
2157.22	0.4319
2165.25	0.4262
2173.28	0.4251
2181.32	0.4191
2189.35	0.4104
2197.38	0.4107
2205.42	0.4106
2213.45	0.4228
2221.48	0.4257
2229.51	0.4289
2237.55	0.4379
2245.58	0.4509
2253.61	0.4543
2261.65	0.4583
2269.68	0.4652
2277.71	0.4666
2285.74	0.4647
2293.78	0.4603
2301.81	0.4539
2309.84	0.4449
2317.88	0.4382
2325.91	0.4191
2333.94	0.4071
2341.98	0.3964
2350.01	0.3873
2358.04	0.3849
2366.07	0.3867
2374.11	0.3805
2382.14	0.3724
2390.17	0.3671
2398.21	0.361
2406.24	0.3539
2414.27	0.3471
2422.3	0.3393
2430.34	0.3308
2438.37	0.3242
2446.4	0.3177
2454.44	0.3145
2462.47	0.312
2470.5	0.2955
2478.53	0.2813
2486.57	0.2804
2494.6	0.2857
2502.63	0.2753
2510.67	0.2708
2518.7	0.254
2526.73	0.2406
2534.76	0.245
2542.8	0.2496
2550.83	0.2483
2558.86	0.2438
2566.9	0.24
2574.93	0.2399
2582.96	0.2418
2590.99	0.2401
2599.03	0.2388
2607.06	0.2375
2615.09	0.237
2623.13	0.2366
2631.16	0.2367
2639.19	0.239
2647.23	0.2457
2655.26	0.2582
2663.29	0.2685
2671.32	0.2724
2679.36	0.2766
2687.39	0.2761
2695.42	0.2753
2703.46	0.2752
2711.49	0.2767
2719.52	0.2875
2727.55	0.3013
2735.59	0.3057
2743.62	0.3059
2751.65	0.3078
2759.69	0.3121
2767.72	0.3137
2775.75	0.3137
2783.78	0.3148
2791.82	0.3133
2799.85	0.3136
2807.88	0.3164
2815.92	0.3116
2823.95	0.3065
2831.98	0.3165
2840.01	0.3161
2848.05	0.3158
2856.08	0.3165
2864.11	0.32
2872.15	0.3295
2880.18	0.318
2888.21	0.3164
2896.25	0.3132
2904.28	0.3081
2912.31	0.2993
2920.34	0.2892
2928.38	0.2873
2936.41	0.284
2944.44	0.2931
2952.48	0.3009
2960.51	0.303
2968.54	0.3125
2976.57	0.3138
2984.61	0.316
2992.64	0.314
3000.67	0.3171
3008.71	0.3215
3016.74	0.3216
3024.77	0.3206
3032.8	0.3181
3040.84	0.3152
3048.87	0.3117
3056.9	0.3082
3064.94	0.3051
3072.97	0.3032
3081	0.3015
3089.03	0.299
3097.07	0.3003
3105.1	0.3012
3113.13	0.2956
3121.17	0.2744
3129.2	0.2607
3137.23	0.2533
3145.27	0.2463
3153.3	0.2415
3161.33	0.2395
3169.36	0.239
3177.4	0.239
3185.43	0.2398
3193.46	0.2401
3201.5	0.2401
3209.53	0.2404
3217.56	0.2373
3225.59	0.2161
3233.63	0.2116
3241.66	0.2034
3249.69	0.2087
3257.73	0.2115
3265.76	0.2034
3273.79	0.2019
3281.82	0.2044
3289.86	0.2105
3297.89	0.2197
3305.92	0.2282
3313.96	0.2375
3321.99	0.2793
3330.02	0.3304
3338.05	0.3907
3346.09	0.4308
3354.12	0.4563
3362.15	0.469
3370.19	0.4829
3378.22	0.493
3386.25	0.5121
3394.29	0.5176
3402.32	0.5227
3410.35	0.5301
3418.38	0.5327
3426.42	0.5388
3434.45	0.5429
3442.48	0.5449
3450.52	0.5489
3458.55	0.5541
3466.58	0.5617
3474.61	0.5633
3482.65	0.5689
3490.68	0.5773
3498.71	0.5833
3506.75	0.5889
3514.78	0.5941
3522.81	0.5999
3530.84	0.6059
3538.88	0.6096
3546.91	0.6195
3554.94	0.6241
3562.98	0.6319
3571.01	0.6408
3579.04	0.6482
3587.07	0.6505
3595.11	0.6521
3603.14	0.6673
3611.17	0.667
3619.21	0.6708
3627.24	0.6814
3635.27	0.6879
3643.3	0.6966
3651.34	0.6891
3659.37	0.6951
3667.4	0.6863
3675.44	0.6968
3683.47	0.6947
3691.5	0.6906
3699.54	0.6924
3707.57	0.692
3715.6	0.6966
3723.63	0.6983
3731.67	0.6969
3739.7	0.6918
3747.73	0.68
3755.77	0.6866
3763.8	0.6888
3771.83	0.6857
3779.86	0.691
3787.9	0.6878
3795.93	0.6809
3803.96	0.6661
3812	0.6634
