Infrared Spectrum: Cyclopropanamine, 1-benzyl-, sulfate (2 to 1)
Formula: C20 H28 N2 O4 S
State: SOLID (NUJOL MULL)
Class: COBLENTZ III
Instrument: PERKIN-ELMER 21 (GRATING)
Instrument parameters: NaCl PRISM
Sampling: TRANSMISSION
Resolution: 2
Origin: SMITH KLINE & FRENCH LABS.
1/CM	TRANSMITTANCE
666	0.6993
675	0.7151
684	0.7314
693	0.7221
702	0.2526
711	0.6809
720	0.7411
729	0.7633
738	0.772
747	0.749
756	0.4467
765	0.7343
774	0.7964
783	0.7368
792	0.7824
801	0.8445
810	0.8469
819	0.8479
828	0.8441
837	0.8322
846	0.7815
855	0.7332
864	0.8232
873	0.8345
882	0.8267
891	0.8165
900	0.8046
909	0.726
918	0.7405
927	0.7661
936	0.7437
945	0.7626
954	0.7395
963	0.6268
972	0.6795
981	0.7007
990	0.7128
999	0.6827
1008	0.6283
1017	0.5255
1026	0.3939
1035	0.2551
1044	0.1883
1053	0.1695
1062	0.1803
1071	0.1762
1080	0.195
1089	0.2652
1098	0.2839
1107	0.2302
1116	0.2243
1125	0.2507
1134	0.2883
1143	0.374
1152	0.3704
1161	0.3933
1170	0.4261
1179	0.5148
1188	0.7081
1197	0.7403
1206	0.7504
1215	0.7512
1224	0.7232
1233	0.5413
1242	0.5824
1251	0.7253
1260	0.7842
1269	0.7949
1278	0.7948
1287	0.7935
1296	0.7935
1305	0.7962
1314	0.7919
1323	0.7637
1332	0.6957
1341	0.6178
1350	0.7353
1359	0.6763
1368	0.5342
1377	0.5302
1386	0.7056
1395	0.8049
1404	0.8035
1413	0.7739
1422	0.6843
1431	0.6295
1440	0.5608
1449	0.3251
1458	0.3426
1467	0.3562
1476	0.5157
1485	0.7106
1494	0.6761
1503	0.7785
1512	0.7727
1521	0.756
1530	0.7219
1539	0.5723
1548	0.4393
1557	0.5618
1566	0.6242
1575	0.685
1584	0.6846
1593	0.644
1602	0.5842
1611	0.5663
1620	0.6247
1629	0.6919
1638	0.7426
1647	0.7958
1656	0.8159
1665	0.8336
1674	0.8454
1683	0.8585
1692	0.8677
1701	0.8685
1710	0.8715
1719	0.8804
1728	0.8793
1737	0.8746
1746	0.8692
1755	0.8651
1764	0.8708
1773	0.8778
1782	0.8783
1791	0.8781
1800	0.87
1809	0.8619
1818	0.8618
1827	0.8654
1836	0.8732
1845	0.8729
1854	0.8665
1863	0.8596
1872	0.8477
1881	0.846
1890	0.8504
1899	0.8544
1908	0.8573
1917	0.8566
1926	0.8511
1935	0.8359
1944	0.8178
1953	0.8192
1962	0.822
1971	0.8204
1980	0.8169
1989	0.8121
1998	0.8063
2007	0.8003
2016	0.7939
2025	0.7875
2034	0.7804
2043	0.7721
2052	0.7595
2061	0.7563
2070	0.7562
2079	0.7599
2088	0.7672
2097	0.7729
2106	0.7775
2115	0.7885
2124	0.8021
2133	0.8079
2142	0.8162
2151	0.8288
2160	0.8324
2169	0.8324
2178	0.83
2187	0.8283
2196	0.8277
2205	0.8291
2214	0.8314
2223	0.8342
2232	0.8348
2241	0.8346
2250	0.8329
2259	0.8286
2268	0.8242
2277	0.8198
2286	0.8153
2295	0.8101
2304	0.8052
2313	0.8006
2322	0.7962
2331	0.7912
2340	0.786
2349	0.7805
2358	0.7721
2367	0.762
2376	0.7523
2385	0.7457
2394	0.7407
2403	0.7349
2412	0.7237
2421	0.7076
2430	0.693
2439	0.6781
2448	0.6635
2457	0.6521
2466	0.65
2475	0.6355
2484	0.62
2493	0.605
2502	0.5905
2511	0.5769
2520	0.565
2529	0.5539
2538	0.542
2547	0.5295
2556	0.5169
2565	0.488
2574	0.4462
2583	0.4105
2592	0.3944
2601	0.386
2610	0.3833
2619	0.3843
2628	0.3863
2637	0.3883
2646	0.3921
2655	0.3985
2664	0.4074
2673	0.4145
2682	0.4193
2691	0.4204
2700	0.4182
2709	0.4103
2718	0.3976
2727	0.3883
2736	0.3805
2745	0.3702
2754	0.3582
2763	0.3436
2772	0.3311
2781	0.3163
2790	0.2999
2799	0.2565
2808	0.1797
2817	0.1407
2826	0.1015
2835	0.0959
2844	0.0973
2853	0.0969
2862	0.0951
2871	0.0929
2880	0.0919
2889	0.0959
2898	0.105
2907	0.1175
2916	0.1294
2925	0.1507
2934	0.1711
2943	0.2138
2952	0.2571
2961	0.3007
2970	0.3172
2979	0.3334
2988	0.3535
2997	0.3698
3006	0.3809
3015	0.3921
3024	0.4033
3033	0.4143
3042	0.4249
3051	0.4349
3060	0.4491
3069	0.4748
3078	0.5022
3087	0.531
3096	0.5492
3105	0.5709
3114	0.6016
3123	0.6418
3132	0.6663
3141	0.6939
3150	0.7413
3159	0.7626
3168	0.7799
3177	0.7937
3186	0.8076
3195	0.8241
3204	0.8355
3213	0.844
3222	0.853
3231	0.8687
3240	0.8722
3249	0.8757
3258	0.8793
3267	0.8823
3276	0.8854
3285	0.8883
3294	0.891
3303	0.8937
3312	0.8958
3321	0.8954
3330	0.895
3339	0.8948
3348	0.8946
3357	0.8947
3366	0.8953
3375	0.8962
3384	0.8975
3393	0.8989
3402	0.8999
3411	0.9009
3420	0.9019
3429	0.9027
3438	0.9034
3447	0.9041
3456	0.9047
3465	0.9055
3474	0.9064
3483	0.9074
3492	0.9083
3501	0.9092
3510	0.9101
3519	0.911
3528	0.9116
3537	0.9115
3546	0.9112
3555	0.9105
3564	0.9099
3573	0.9093
3582	0.9084
3591	0.9075
3600	0.9068
3609	0.9058
3618	0.9048
3627	0.9038
3636	0.9039
3645	0.9043
3654	0.9049
3663	0.9056
3672	0.9064
3681	0.9072
3690	0.9075
3699	0.9075
3708	0.9068
3717	0.9058
3726	0.9045
3735	0.9033
3744	0.9018
3753	0.9002
3762	0.8985
3771	0.8966
3780	0.8939
3789	0.8912
3798	0.8888
3807	0.887
3816	0.8855
3825	0.8846
3834	0.8847
3843	0.8851
3852	0.8856
3861	0.8862
3870	0.8864
3879	0.8864
3888	0.8865
3897	0.8863
3906	0.886
3915	0.8856
3924	0.8853
3933	0.8847
3942	0.8841
3951	0.8832
3960	0.8819
3969	0.8807
3978	0.8795
3987	0.8782
3996	0.8767
