Infrared Spectrum: Succinic anhydride, bromo-
Formula: C4 H3 Br O3
State: LIQUID (NEAT)
Class: COBLENTZ III
Instrument: PERKIN-ELMER 21 (GRATING)
Instrument parameters: FILTER CHANGE ABOUT 1085 CM^-^1
Path length: CAPILLARY
Resolution: 2
Origin: SOUTHERN RESEARCH INSTITUTE
1/CM	TRANSMITTANCE
603.232	0.4641
611.265	0.4684
619.299	0.4738
627.332	0.4808
635.365	0.4957
643.398	0.5178
651.432	0.516
659.465	0.5005
667.498	0.4629
675.532	0.3834
683.565	0.2566
691.598	0.2506
699.631	0.2853
707.665	0.3172
715.698	0.4049
723.731	0.5439
731.765	0.6001
739.798	0.5913
747.831	0.4477
755.864	0.6021
763.898	0.6592
771.931	0.6712
779.964	0.7046
787.998	0.7155
796.031	0.7183
804.064	0.7145
812.097	0.7054
820.131	0.6893
828.164	0.6526
836.197	0.532
844.231	0.5844
852.264	0.6444
860.297	0.6682
868.33	0.6583
876.364	0.6378
884.397	0.6064
892.43	0.5153
900.464	0.4511
908.497	0.1286
916.53	0.0261
924.563	0.0478
932.597	0.1332
940.63	0.2858
948.663	0.2406
956.697	0.5022
964.73	0.5627
972.763	0.6166
980.796	0.623
988.83	0.6193
996.863	0.5898
1004.9	0.5641
1012.93	0.5335
1020.96	0.4848
1029	0.3471
1037.03	0.1904
1045.06	0.1835
1053.1	0.1633
1061.13	0.0461
1069.16	0.0384
1077.2	0.0793
1085.23	0.3375
1093.26	0.5058
1101.3	0.5779
1109.33	0.6067
1117.36	0.6288
1125.4	0.6273
1133.43	0.6186
1141.46	0.5943
1149.5	0.5452
1157.53	0.5329
1165.56	0.5789
1173.6	0.5752
1181.63	0.5477
1189.66	0.4955
1197.7	0.4289
1205.73	0.34
1213.76	0.168
1221.8	0.1556
1229.83	0.2076
1237.86	0.2978
1245.89	0.3875
1253.93	0.4512
1261.96	0.464
1269.99	0.3451
1278.03	0.3457
1286.06	0.501
1294.09	0.5275
1302.13	0.6429
1310.16	0.6608
1318.19	0.6611
1326.23	0.6551
1334.26	0.6673
1342.29	0.6807
1350.33	0.7109
1358.36	0.719
1366.39	0.7251
1374.43	0.7347
1382.46	0.7174
1390.49	0.7043
1398.53	0.6398
1406.56	0.4566
1414.59	0.4899
1422.63	0.6297
1430.66	0.6978
1438.69	0.719
1446.73	0.7247
1454.76	0.726
1462.79	0.7311
1470.83	0.7286
1478.86	0.7247
1486.89	0.7222
1494.93	0.7376
1502.96	0.7416
1510.99	0.7494
1519.03	0.7467
1527.06	0.7511
1535.09	0.7518
1543.13	0.7516
1551.16	0.7494
1559.19	0.749
1567.23	0.7477
1575.26	0.7465
1583.29	0.7424
1591.33	0.741
1599.36	0.7401
1607.39	0.7353
1615.43	0.7331
1623.46	0.7311
1631.49	0.7288
1639.53	0.7262
1647.56	0.7235
1655.59	0.724
1663.63	0.7163
1671.66	0.704
1679.69	0.6907
1687.73	0.68
1695.76	0.676
1703.79	0.6745
1711.83	0.6633
1719.86	0.6379
1727.89	0.5933
1735.93	0.5276
1743.96	0.4757
1751.99	0.4243
1760.03	0.3808
1768.06	0.2945
1776.09	0.1089
1784.13	0.0115
1792.16	0.0141
1800.19	0.0213
1808.22	0.0437
1816.26	0.2033
1824.29	0.351
1832.32	0.4111
1840.36	0.4126
1848.39	0.3821
1856.42	0.3183
1864.46	0.1703
1872.49	0.1284
1880.52	0.2188
1888.56	0.407
1896.59	0.5455
1904.62	0.6162
1912.66	0.6489
1920.69	0.6737
1928.72	0.6911
1936.76	0.701
1944.79	0.7091
1952.82	0.7135
1960.86	0.7162
1968.89	0.7201
1976.92	0.7276
1984.96	0.7325
1992.99	0.7324
2001.02	0.73
2009.06	0.7366
2017.09	0.7436
2025.12	0.7447
2033.16	0.746
2041.19	0.7473
2049.22	0.7471
2057.26	0.7464
2065.29	0.7458
2073.32	0.7448
2081.36	0.7437
2089.39	0.74
2097.42	0.739
2105.46	0.7392
2113.49	0.739
2121.52	0.7322
2129.56	0.733
2137.59	0.7348
2145.62	0.7366
2153.66	0.7417
2161.69	0.7463
2169.72	0.7456
2177.76	0.7449
2185.79	0.7451
2193.82	0.744
2201.86	0.7434
2209.89	0.7448
2217.92	0.7505
2225.96	0.7523
2233.99	0.7472
2242.02	0.7433
2250.06	0.7414
2258.09	0.7399
2266.12	0.7372
2274.16	0.7397
2282.19	0.7398
2290.22	0.7371
2298.26	0.738
2306.29	0.7404
2314.32	0.7428
2322.36	0.744
2330.39	0.7435
2338.42	0.7424
2346.46	0.7417
2354.49	0.7478
2362.52	0.7493
2370.56	0.7488
2378.59	0.7456
2386.62	0.7438
2394.65	0.7441
2402.69	0.7442
2410.72	0.744
2418.75	0.7448
2426.79	0.7468
2434.82	0.7495
2442.85	0.7514
2450.89	0.7504
2458.92	0.7486
2466.95	0.747
2474.99	0.7465
2483.02	0.7452
2491.05	0.7501
2499.09	0.7562
2507.12	0.7563
2515.15	0.7505
2523.19	0.7514
2531.22	0.7558
2539.25	0.7563
2547.29	0.7571
2555.32	0.7556
2563.35	0.7522
2571.39	0.753
2579.42	0.7576
2587.45	0.7676
2595.49	0.7656
2603.52	0.7594
2611.55	0.7599
2619.59	0.7574
2627.62	0.7568
2635.65	0.7623
2643.69	0.7632
2651.72	0.7586
2659.75	0.76
2667.79	0.7621
2675.82	0.7626
2683.85	0.7502
2691.89	0.7519
2699.92	0.7499
2707.95	0.7461
2715.99	0.747
2724.02	0.7474
2732.05	0.7478
2740.09	0.7512
2748.12	0.7518
2756.15	0.7507
2764.19	0.7486
2772.22	0.7474
2780.25	0.7478
2788.29	0.7508
2796.32	0.7549
2804.35	0.7519
2812.39	0.7505
2820.42	0.749
2828.45	0.7447
2836.49	0.7446
2844.52	0.7428
2852.55	0.7358
2860.59	0.7334
2868.62	0.7332
2876.65	0.7355
2884.69	0.7378
2892.72	0.7337
2900.75	0.7246
2908.79	0.7161
2916.82	0.71
2924.85	0.699
2932.89	0.6743
2940.92	0.6538
2948.95	0.6404
2956.98	0.6343
2965.02	0.6328
2973.05	0.6248
2981.08	0.6157
2989.12	0.6069
2997.15	0.596
3005.18	0.5984
3013.22	0.6068
3021.25	0.6169
3029.28	0.641
3037.32	0.6664
3045.35	0.6794
3053.38	0.6855
3061.42	0.6981
3069.45	0.7133
3077.48	0.722
3085.52	0.7263
3093.55	0.7289
3101.58	0.7289
3109.62	0.7271
3117.65	0.724
3125.68	0.7279
3133.72	0.7355
3141.75	0.7363
3149.78	0.7375
3157.82	0.7414
3165.85	0.7395
3173.88	0.7388
3181.92	0.7403
3189.95	0.7382
3197.98	0.7377
3206.02	0.7379
3214.05	0.7375
3222.08	0.7358
3230.12	0.7346
3238.15	0.7346
3246.18	0.737
3254.22	0.7361
3262.25	0.7313
3270.28	0.7276
3278.32	0.7276
3286.35	0.7317
3294.38	0.7364
3302.42	0.7406
3310.45	0.7387
3318.48	0.7353
3326.52	0.7369
3334.55	0.7416
3342.58	0.7409
3350.62	0.7394
3358.65	0.7392
3366.68	0.7438
3374.72	0.7414
3382.75	0.7359
3390.78	0.7343
3398.82	0.7361
3406.85	0.7404
3414.88	0.7411
3422.92	0.7409
3430.95	0.7413
3438.98	0.7428
3447.02	0.7467
3455.05	0.7487
3463.08	0.7484
3471.12	0.7472
3479.15	0.7452
3487.18	0.7438
3495.22	0.7444
3503.25	0.7407
3511.28	0.7401
3519.32	0.7403
3527.35	0.7391
3535.38	0.7351
3543.41	0.7345
3551.45	0.7384
3559.48	0.739
3567.51	0.7381
3575.55	0.7403
3583.58	0.7374
3591.61	0.7321
3599.65	0.7331
3607.68	0.7314
3615.71	0.7253
3623.75	0.7172
3631.78	0.7126
3639.81	0.7129
3647.85	0.7038
3655.88	0.7047
3663.91	0.7091
3671.95	0.7118
3679.98	0.7161
3688.01	0.7234
3696.05	0.732
3704.08	0.7439
3712.11	0.7546
3720.15	0.7606
3728.18	0.763
3736.21	0.7641
3744.25	0.765
3752.28	0.7655
3760.31	0.7661
3768.35	0.7658
3776.38	0.7617
3784.41	0.7567
3792.45	0.7555
3800.48	0.7579
3808.51	0.7642
