Infrared Spectrum: CALCIUM SULFATE
Formula: Ca S O4  * 2 H2 O
State: SOLID (0.5 mg / 300 mg CsI DISC)
Class: COBLENTZ III
Instrument: BECKMAN IR-12 (GRATING)
Instrument parameters: GRATING BLAZED AT 3330, 1330, 445, 220 CM^-^1
Sampling: TRANSMISSION
Resolution: 4
Origin: DESOTO CHEMICAL COATINGS, INC.
1/CM	TRANSMITTANCE
201.331	0.668
211.982	0.666
222.633	0.654
233.284	0.631
243.935	0.603
254.585	0.599
265.236	0.603
275.887	0.611
286.538	0.62
297.189	0.623
307.84	0.619
318.491	0.616
329.142	0.62
339.793	0.628
350.443	0.634
361.094	0.643
371.745	0.648
382.396	0.652
393.047	0.654
403.698	0.652
414.349	0.652
425	0.663
435.651	0.683
446.301	0.698
456.952	0.706
467.603	0.719
478.254	0.737
488.905	0.754
499.556	0.776
510.207	0.796
520.858	0.81
531.508	0.824
542.159	0.831
552.81	0.832
563.461	0.831
574.112	0.824
584.763	0.7921
595.414	0.741
606.065	0.623
616.716	0.683
627.366	0.756
638.017	0.792
648.668	0.817
659.319	0.802
669.97	0.687
680.621	0.741
691.272	0.852
701.923	0.886
712.574	0.903
723.224	0.911
733.875	0.916
744.526	0.923
755.177	0.926
765.828	0.934
776.479	0.942
787.13	0.945
797.781	0.949
808.432	0.95
819.082	0.954
829.733	0.961
840.384	0.963
851.035	0.963
861.686	0.965
872.337	0.965
882.988	0.965
893.639	0.963
904.29	0.965
914.94	0.963
925.591	0.961
936.242	0.961
946.893	0.961
957.544	0.958
968.195	0.953
978.846	0.943
989.497	0.939
1000.15	0.928
1010.8	0.914
1021.45	0.908
1032.1	0.91
1042.75	0.896
1053.4	0.867
1064.05	0.828
1074.7	0.773
1085.35	0.703
1096.01	0.524
1106.66	0.341
1117.31	0.213
1127.96	0.262
1138.61	0.1931
1149.26	0.174
1159.91	0.191
1170.56	0.2429
1181.21	0.4309
1191.86	0.5829
1202.51	0.686
1213.17	0.76
1223.82	0.8149
1234.47	0.865
1245.12	0.899
1255.77	0.911
1266.42	0.922
1277.07	0.931
1287.72	0.936
1298.37	0.945
1309.02	0.947
1319.67	0.953
1330.33	0.955
1340.98	0.955
1351.63	0.958
1362.28	0.958
1372.93	0.959
1383.58	0.961
1394.23	0.961
1404.88	0.961
1415.53	0.962
1426.18	0.963
1436.83	0.963
1447.48	0.962
1458.14	0.961
1468.79	0.963
1479.44	0.965
1490.09	0.97
1500.74	0.971
1511.39	0.97
1522.04	0.967
1532.69	0.966
1543.34	0.965
1553.99	0.961
1564.64	0.958
1575.3	0.954
1585.95	0.939
1596.6	0.908
1607.25	0.86
1617.9	0.762
1628.55	0.674
1639.2	0.813
1649.85	0.872
1660.5	0.899
1671.15	0.915
1681.8	0.919
1692.46	0.883
1703.11	0.916
1713.76	0.943
1724.41	0.953
1735.06	0.959
1745.71	0.963
1756.36	0.967
1767.01	0.971
1777.66	0.973
1788.31	0.974
1798.96	0.974
1809.61	0.974
1820.27	0.974
1830.92	0.974
1841.57	0.975
1852.22	0.974
1862.87	0.975
1873.52	0.975
1884.17	0.974
1894.82	0.974
1905.47	0.974
1916.12	0.971
1926.77	0.973
1937.43	0.973
1948.08	0.971
1958.73	0.973
1969.38	0.971
1980.03	0.97
1990.68	0.97
2001.33	0.971
2011.98	0.968
2022.63	0.965
2033.28	0.963
2043.93	0.9624
2054.59	0.962
2065.24	0.962
2075.89	0.962
2086.54	0.9614
2097.19	0.961
2107.84	0.959
2118.49	0.9573
2129.14	0.957
2139.79	0.957
2150.44	0.957
2161.09	0.957
2171.75	0.957
2182.4	0.957
2193.05	0.9554
2203.7	0.954
2214.35	0.953
2225	0.951
2235.65	0.9502
2246.3	0.95
2256.95	0.951
2267.6	0.951
2278.25	0.951
2288.9	0.953
2299.56	0.953
2310.21	0.9539
2320.86	0.9609
2331.51	0.962
2342.16	0.962
2352.81	0.965
2363.46	0.963
2374.11	0.965
2384.76	0.966
2395.41	0.9649
2406.06	0.963
2416.72	0.962
2427.37	0.9621
2438.02	0.965
2448.67	0.963
2459.32	0.963
2469.97	0.963
2480.62	0.963
2491.27	0.962
2501.92	0.9628
2512.57	0.962
2523.22	0.9628
2533.88	0.961
2544.53	0.961
2555.18	0.962
2565.83	0.962
2576.48	0.962
2587.13	0.962
2597.78	0.961
2608.43	0.962
2619.08	0.962
2629.73	0.9608
2640.38	0.959
2651.04	0.961
2661.69	0.961
2672.34	0.959
2682.99	0.959
2693.64	0.959
2704.29	0.96
2714.94	0.959
2725.59	0.959
2736.24	0.958
2746.89	0.957
2757.54	0.957
2768.19	0.9576
2778.85	0.961
2789.5	0.9601
2800.15	0.958
2810.8	0.954
2821.45	0.954
2832.1	0.955
2842.75	0.954
2853.4	0.9481
2864.05	0.9423
2874.7	0.9418
2885.35	0.9428
2896.01	0.943
2906.66	0.942
2917.31	0.9355
2927.96	0.9272
2938.61	0.924
2949.26	0.927
2959.91	0.9309
2970.56	0.9338
2981.21	0.9389
2991.86	0.9429
3002.51	0.945
3013.17	0.943
3023.82	0.943
3034.47	0.942
3045.12	0.941
3055.77	0.939
3066.42	0.938
3077.07	0.936
3087.72	0.9339
3098.37	0.93
3109.02	0.9269
3119.67	0.9239
3130.32	0.9217
3140.98	0.9189
3151.63	0.9137
3162.28	0.9097
3172.93	0.9012
3183.58	0.8902
3194.23	0.8828
3204.88	0.8758
3215.53	0.866
3226.18	0.8527
3236.83	0.8364
3247.48	0.8185
3258.14	0.8087
3268.79	0.804
3279.44	0.7996
3290.09	0.7846
3300.74	0.7725
3311.39	0.7526
3322.04	0.7346
3332.69	0.71
3343.34	0.6871
3353.99	0.6563
3364.64	0.6155
3375.3	0.5625
3385.95	0.4785
3396.6	0.4363
3407.25	0.4035
3417.9	0.4142
3428.55	0.4407
3439.2	0.467
3449.85	0.4902
3460.5	0.5052
3471.15	0.5166
3481.8	0.52
3492.46	0.521
3503.11	0.5187
3513.76	0.5126
3524.41	0.4964
3535.06	0.4705
3545.71	0.4315
3556.36	0.4267
3567.01	0.4479
3577.66	0.5268
3588.31	0.5826
3598.96	0.6275
3609.61	0.6687
3620.27	0.7056
3630.92	0.7407
3641.57	0.7823
3652.22	0.812
3662.87	0.8356
3673.52	0.8448
3684.17	0.8558
3694.82	0.8629
3705.47	0.869
3716.12	0.8749
3726.77	0.882
3737.43	0.884
3748.08	0.887
3758.73	0.8882
3769.38	0.894
3780.03	0.8941
3790.68	0.8949
3801.33	0.894
3811.98	0.894
3822.63	0.8949
3833.28	0.894
3843.93	0.894
3854.59	0.8942
3865.24	0.895
3875.89	0.8948
3886.54	0.894
3897.19	0.896
3907.84	0.9
3918.49	0.9005
3929.14	0.902
3939.79	0.902
3950.44	0.902
3961.09	0.902
3971.75	0.902
3982.4	0.902
