Infrared Spectrum: Potassium orthophosphate
Formula: H2 K O4 P
State: SOLID (1 mg / 650 mg KBr DISC)
Class: COBLENTZ III
Instrument: PERKIN-ELMER 521 (GRATING)
Instrument parameters: FILTERS AT 3150, 2500, 2000, 1150, 700, 410. GRATING CHANGES: 2000, 630
Sampling: TRANSMISSION
Resolution: 2
Origin: SOUTHERN RESEARCH INSTITUTE
1/CM	TRANSMITTANCE
249	0.1738
259.027	0.2117
269.053	0.2524
279.08	0.2851
289.107	0.3247
299.133	0.3538
309.16	0.3761
319.187	0.3886
329.213	0.3982
339.24	0.4055
349.267	0.41
359.293	0.4142
369.32	0.4181
379.347	0.4218
389.373	0.4152
399.4	0.4073
409.427	0.4084
419.453	0.4111
429.48	0.4144
439.507	0.4192
449.533	0.4276
459.56	0.4444
469.587	0.4688
479.613	0.5092
489.64	0.5554
499.666	0.6685
509.693	0.6999
519.72	0.5999
529.746	0.4277
539.773	0.3589
549.8	0.4028
559.826	0.4638
569.853	0.5147
579.88	0.5494
589.906	0.5805
599.933	0.5862
609.96	0.5868
619.986	0.5865
630.013	0.5857
640.04	0.5852
650.066	0.5845
660.093	0.5757
670.12	0.5792
680.146	0.5719
690.173	0.5606
700.2	0.5494
710.226	0.5396
720.253	0.5298
730.28	0.5191
740.306	0.5079
750.333	0.4964
760.36	0.4811
770.386	0.4661
780.413	0.4517
790.44	0.4374
800.466	0.4221
810.493	0.4067
820.52	0.3904
830.546	0.3733
840.573	0.3561
850.6	0.3389
860.626	0.3219
870.653	0.3053
880.68	0.2901
890.706	0.2799
900.733	0.2747
910.76	0.274
920.786	0.2775
930.813	0.285
940.84	0.2965
950.866	0.3149
960.893	0.3335
970.919	0.3496
980.946	0.3617
990.973	0.3628
1001	0.3586
1011.03	0.3497
1021.05	0.3384
1031.08	0.3262
1041.11	0.3137
1051.13	0.3013
1061.16	0.2863
1071.19	0.2737
1081.21	0.2624
1091.24	0.2528
1101.27	0.2529
1111.29	0.2569
1121.32	0.2703
1131.35	0.2971
1141.37	0.3289
1151.4	0.3671
1161.43	0.3976
1171.45	0.4285
1181.48	0.4497
1191.51	0.4545
1201.53	0.4548
1211.56	0.4485
1221.59	0.4335
1231.61	0.4169
1241.64	0.3931
1251.67	0.3661
1261.69	0.3424
1271.72	0.3172
1281.75	0.2913
1291.77	0.2727
1301.8	0.2736
1311.83	0.2892
1321.85	0.3433
1331.88	0.4104
1341.91	0.4565
1351.93	0.4915
1361.96	0.5186
1371.99	0.5286
1382.01	0.5268
1392.04	0.5224
1402.07	0.5158
1412.09	0.5074
1422.12	0.4978
1432.15	0.4883
1442.17	0.4788
1452.2	0.468
1462.23	0.459
1472.25	0.451
1482.28	0.4435
1492.31	0.4358
1502.33	0.4284
1512.36	0.4214
1522.39	0.4144
1532.41	0.4095
1542.44	0.4049
1552.47	0.4002
1562.49	0.3958
1572.52	0.3916
1582.55	0.3874
1592.57	0.3837
1602.6	0.3802
1612.63	0.3769
1622.65	0.3744
1632.68	0.3721
1642.71	0.3726
1652.73	0.3741
1662.76	0.3773
1672.79	0.3801
1682.81	0.3824
1692.84	0.3839
1702.87	0.3863
1712.89	0.3898
1722.92	0.3953
1732.95	0.4
1742.97	0.4045
1753	0.41
1763.03	0.4158
1773.05	0.4219
1783.08	0.4291
1793.11	0.4361
1803.13	0.4432
1813.16	0.4518
1823.19	0.4607
1833.21	0.4695
1843.24	0.479
1853.27	0.4881
1863.29	0.496
1873.32	0.5038
1883.35	0.5099
1893.37	0.516
1903.4	0.5221
1913.43	0.5282
1923.45	0.5342
1933.48	0.5402
1943.51	0.5463
1953.53	0.5524
1963.56	0.5585
1973.59	0.5631
1983.61	0.566
1993.64	0.577
2003.67	0.5866
2013.69	0.5883
2023.72	0.5906
2033.75	0.5945
2043.77	0.5982
2053.8	0.6016
2063.83	0.6042
2073.85	0.6063
2083.88	0.6065
2093.91	0.6071
2103.93	0.6077
2113.96	0.6085
2123.99	0.6092
2134.01	0.6098
2144.04	0.6098
2154.07	0.6089
2164.09	0.6068
2174.12	0.6039
2184.15	0.6004
2194.17	0.5969
2204.2	0.5934
2214.23	0.5894
2224.25	0.5855
2234.28	0.5819
2244.31	0.5786
2254.33	0.5754
2264.36	0.5721
2274.39	0.569
2284.41	0.5659
2294.44	0.5628
2304.47	0.559
2314.49	0.5551
2324.52	0.5514
2334.55	0.5487
2344.57	0.5459
2354.6	0.5433
2364.63	0.5412
2374.65	0.5406
2384.68	0.5401
2394.71	0.5409
2404.73	0.5425
2414.76	0.5442
2424.79	0.5458
2434.81	0.5472
2444.84	0.5492
2454.87	0.5525
2464.89	0.5562
2474.92	0.5604
2484.95	0.5651
2494.97	0.5704
2505	0.577
2515.03	0.5846
2525.05	0.5924
2535.08	0.6
2545.11	0.6068
2555.13	0.613
2565.16	0.6178
2575.19	0.6222
2585.21	0.6248
2595.24	0.6267
2605.26	0.6251
2615.29	0.623
2625.32	0.6204
2635.34	0.6173
2645.37	0.6137
2655.4	0.6105
2665.42	0.6082
2675.45	0.606
2685.48	0.6044
2695.5	0.6029
2705.53	0.602
2715.56	0.6021
2725.58	0.6022
2735.61	0.6024
2745.64	0.6027
2755.66	0.6029
2765.69	0.6032
2775.72	0.6042
2785.74	0.6057
2795.77	0.6073
2805.8	0.6088
2815.82	0.6103
2825.85	0.6118
2835.88	0.6123
2845.9	0.6148
2855.93	0.6203
2865.96	0.6253
2875.98	0.6283
2886.01	0.6295
2896.04	0.6293
2906.06	0.6288
2916.09	0.6321
2926.12	0.64
2936.14	0.6477
2946.17	0.6541
2956.2	0.6606
2966.22	0.6661
2976.25	0.6716
2986.28	0.6769
2996.3	0.6815
3006.33	0.6861
3016.36	0.6901
3026.38	0.694
3036.41	0.6979
3046.44	0.7015
3056.46	0.7043
3066.49	0.7061
3076.52	0.708
3086.54	0.71
3096.57	0.7123
3106.6	0.7146
3116.62	0.7195
3126.65	0.7174
3136.68	0.7177
3146.7	0.7187
3156.73	0.7195
3166.76	0.7194
3176.78	0.7194
3186.81	0.7194
3196.84	0.7195
3206.86	0.7199
3216.89	0.7203
3226.92	0.7206
3236.94	0.7211
3246.97	0.7216
3257	0.7221
3267.02	0.7226
3277.05	0.7227
3287.08	0.7228
3297.1	0.7229
3307.13	0.7219
3317.16	0.7207
3327.18	0.7194
3337.21	0.7165
3347.24	0.7126
3357.26	0.7086
3367.29	0.7036
3377.32	0.6981
3387.34	0.6935
3397.37	0.6895
3407.4	0.6874
3417.42	0.6861
3427.45	0.6854
3437.48	0.6886
3447.5	0.6919
3457.53	0.6954
3467.56	0.6989
3477.58	0.7025
3487.61	0.7063
3497.64	0.7111
3507.66	0.7159
3517.69	0.7219
3527.72	0.7283
3537.74	0.7347
3547.77	0.7412
3557.8	0.7476
3567.82	0.754
3577.85	0.7605
3587.88	0.7677
3597.9	0.7748
3607.93	0.7825
3617.96	0.7904
3627.98	0.7973
3638.01	0.8032
3648.04	0.8067
3658.06	0.8084
3668.09	0.8098
3678.12	0.8108
3688.14	0.813
3698.17	0.8159
3708.2	0.8192
3718.22	0.8224
3728.25	0.8246
3738.28	0.8264
3748.3	0.8282
3758.33	0.8298
3768.36	0.8308
3778.38	0.8319
3788.41	0.8329
3798.44	0.834
3808.46	0.8347
3818.49	0.8351
3828.52	0.8355
3838.54	0.8358
3848.57	0.8362
3858.6	0.8365
3868.62	0.8366
3878.65	0.8366
3888.68	0.8367
3898.7	0.8368
3908.73	0.8369
3918.76	0.8372
3928.78	0.8375
3938.81	0.8378
3948.84	0.838
3958.86	0.8383
3968.89	0.8386
3978.92	0.841
3988.94	0.8433
3998.97	0.8435
4009	0.8438
