Infrared Spectrum: POTASSIUM IODATE
Formula: I K O3
State: SOLID (2 mg / 200 mg KI DISC)
Melting point: 560 C PARTIAL DECOMP.
Class: COBLENTZ III
Instrument: PERKIN-ELMER 21 (GRATING)
Instrument parameters: FILTER AT ABOUT 10 MICRONS
Sampling: TRANSMISSION
Resolution: 2
1/CM	TRANSMITTANCE
4000	0.8209
3991	0.821
3982	0.821
3973	0.8209
3964	0.8208
3955	0.8206
3946	0.8205
3937	0.8204
3928	0.8203
3919	0.8202
3910	0.82
3901	0.82
3892	0.8198
3883	0.8198
3874	0.8197
3865	0.8196
3856	0.8195
3847	0.8194
3838	0.8194
3829	0.8195
3820	0.8196
3811	0.8196
3802	0.8197
3793	0.8197
3784	0.819
3775	0.8176
3766	0.8167
3757	0.8161
3748	0.8158
3739	0.8161
3730	0.8168
3721	0.8174
3712	0.818
3703	0.8186
3694	0.8191
3685	0.8193
3676	0.8196
3667	0.8199
3658	0.8201
3649	0.8203
3640	0.8202
3631	0.8202
3622	0.8201
3613	0.8199
3604	0.8193
3595	0.8188
3586	0.8178
3577	0.8164
3568	0.8148
3559	0.8134
3550	0.8121
3541	0.8107
3532	0.8095
3523	0.8082
3514	0.8069
3505	0.8061
3496	0.8054
3487	0.8046
3478	0.8038
3469	0.803
3460	0.8021
3451	0.8015
3442	0.8007
3433	0.8001
3424	0.7998
3415	0.7994
3406	0.7992
3397	0.7991
3388	0.7993
3379	0.7996
3370	0.7998
3361	0.8004
3352	0.801
3343	0.8015
3334	0.8021
3325	0.8028
3316	0.8035
3307	0.8041
3298	0.8047
3289	0.8051
3280	0.8055
3271	0.8058
3262	0.8064
3253	0.8068
3244	0.8072
3235	0.8076
3226	0.8082
3217	0.8087
3208	0.8091
3199	0.8095
3190	0.8101
3181	0.8105
3172	0.811
3163	0.8114
3154	0.8118
3145	0.8124
3136	0.8128
3127	0.813
3118	0.8132
3109	0.8134
3100	0.8136
3091	0.8137
3082	0.814
3073	0.8142
3064	0.8143
3055	0.8145
3046	0.8145
3037	0.8146
3028	0.8146
3019	0.8146
3010	0.8147
3001	0.8147
2992	0.8146
2983	0.8144
2974	0.8143
2965	0.8142
2956	0.8141
2947	0.8138
2938	0.8137
2929	0.8134
2920	0.8131
2911	0.8128
2902	0.8125
2893	0.8122
2884	0.8118
2875	0.8114
2866	0.8108
2857	0.8112
2848	0.8118
2839	0.8125
2830	0.813
2821	0.8141
2812	0.8158
2803	0.8175
2794	0.8193
2785	0.8209
2776	0.8225
2767	0.8241
2758	0.8256
2749	0.8271
2740	0.8281
2731	0.8289
2722	0.8296
2713	0.8293
2704	0.8287
2695	0.8273
2686	0.8261
2677	0.8249
2668	0.8239
2659	0.8233
2650	0.8227
2641	0.822
2632	0.8212
2623	0.8206
2614	0.8206
2605	0.822
2596	0.8241
2587	0.8262
2578	0.8275
2569	0.8281
2560	0.8286
2551	0.8291
2542	0.8296
2533	0.8299
2524	0.8303
2515	0.8308
2506	0.8311
2497	0.8316
2488	0.832
2479	0.8325
2470	0.8331
2461	0.8335
2452	0.8341
2443	0.8344
2434	0.8347
2425	0.8349
2416	0.8353
2407	0.8363
2398	0.8373
2389	0.8382
2380	0.8386
2371	0.8382
2362	0.8378
2353	0.838
2344	0.8381
2335	0.8382
2326	0.8384
2317	0.8387
2308	0.8393
2299	0.8399
2290	0.8409
2281	0.8421
2272	0.8435
2263	0.8448
2254	0.8459
2245	0.8467
2236	0.8475
2227	0.8483
2218	0.8491
2209	0.8499
2200	0.8506
2191	0.8513
2182	0.852
2173	0.8527
2164	0.8535
2155	0.8542
2146	0.855
2137	0.856
2128	0.8568
2119	0.8578
2110	0.8588
2101	0.8593
2092	0.86
2083	0.8606
2074	0.8613
2065	0.8621
2056	0.8628
2047	0.8634
2038	0.8635
2029	0.8637
2020	0.8636
2011	0.8634
2002	0.8637
1993	0.8644
1984	0.8662
1975	0.8681
1966	0.8693
1957	0.8703
1948	0.8715
1939	0.8732
1930	0.8751
1921	0.8767
1912	0.8783
1903	0.8786
1894	0.8781
1885	0.8767
1876	0.8774
1867	0.8798
1858	0.8824
1849	0.8837
1840	0.884
1831	0.8846
1822	0.8853
1813	0.8859
1804	0.8865
1795	0.8871
1786	0.8875
1777	0.8887
1768	0.8906
1759	0.8918
1750	0.8931
1741	0.8936
1732	0.894
1723	0.894
1714	0.8942
1705	0.8951
1696	0.8958
1687	0.896
1678	0.8943
1669	0.8907
1660	0.8875
1651	0.8853
1642	0.8839
1633	0.8838
1624	0.8863
1615	0.8898
1606	0.8921
1597	0.8925
1588	0.8962
1579	0.9101
1570	0.9145
1561	0.9103
1552	0.9025
1543	0.8966
1534	0.9012
1525	0.9064
1516	0.9117
1507	0.9178
1498	0.9216
1489	0.9208
1480	0.9191
1471	0.919
1462	0.925
1453	0.9303
1444	0.929
1435	0.9211
1426	0.9168
1417	0.9098
1408	0.911
1399	0.9167
1390	0.929
1381	0.9428
1372	0.9461
1363	0.949
1354	0.9599
1345	0.9721
1336	0.9798
1327	0.9817
1318	0.9908
1309	0.9891
1300	0.9904
1291	0.9963
1282	0.9968
1273	0.9988
1264	1.001
1255	1.0036
1246	1.0045
1237	1.0055
1228	1.0062
1219	1.008
1210	1.0094
1201	1.0104
1192	1.0115
1183	1.0125
1174	1.0133
1165	1.0104
1156	1.0062
1147	1.0037
1138	1.0002
1129	0.9965
1120	0.9825
1111	0.9746
1102	0.9642
1093	0.9648
1084	0.9537
1075	0.9475
1066	0.9385
1057	0.929
1048	0.9232
1039	0.9134
1030	0.9056
1021	0.8906
1012	0.8731
1003	0.8602
994	0.8595
985	0.836
976	0.827
967	0.8107
958	0.8012
949	0.785
940	0.7688
931	0.7578
922	0.7424
913	0.7304
904	0.7187
895	0.7049
886	0.6898
877	0.6775
868	0.6701
859	0.6542
850	0.6438
841	0.6237
832	0.6004
823	0.5856
814	0.5678
805	0.5318
796	0.4885
787	0.4757
778	0.4048
769	0.3759
760	0.3153
751	0.2895
742	0.3123
733	0.3457
724	0.3795
715	0.4106
706	0.4245
697	0.4398
688	0.4545
679	0.4712
