Infrared Spectrum: BENZENESULFONIC ACID, SODIUM SALT
Formula: C6 H5 Na O3 S
State: SOLID (SPLIT MULL)
Class: COBLENTZ II
Instrument: DOW KBr FOREPRISM-GRATING
Instrument parameters: BLAZED AT 3.5, 12.0, 20.0 AND CHANGED AT 5.0, 7.5, 14.9 MICRON
Sampling: TRANSMISSION
Resolution: 2
Origin: DOW CHEMICAL COMPANY
1/CM	TRANSMITTANCE
3818	0.825
3809	0.8248
3800	0.8246
3791	0.8241
3782	0.8237
3773	0.8239
3764	0.8243
3755	0.8246
3746	0.8231
3737	0.8212
3728	0.8187
3719	0.8164
3710	0.8161
3701	0.8175
3692	0.8202
3683	0.821
3674	0.8213
3665	0.8202
3656	0.8178
3647	0.8137
3638	0.7996
3629	0.7987
3620	0.8076
3611	0.8157
3602	0.8207
3593	0.8228
3584	0.8237
3575	0.8224
3566	0.8161
3557	0.813
3548	0.8188
3539	0.8243
3530	0.8277
3521	0.8302
3512	0.8325
3503	0.8352
3494	0.8378
3485	0.8403
3476	0.8425
3467	0.8449
3458	0.8471
3449	0.8497
3440	0.8525
3431	0.8554
3422	0.858
3413	0.8603
3404	0.8615
3395	0.8625
3386	0.8604
3377	0.8575
3368	0.8546
3359	0.8524
3350	0.8508
3341	0.8494
3332	0.8498
3323	0.851
3314	0.8528
3305	0.8512
3296	0.8493
3287	0.8488
3278	0.8485
3269	0.8478
3260	0.847
3251	0.8462
3242	0.8461
3233	0.846
3224	0.8457
3215	0.8449
3206	0.8445
3197	0.8445
3188	0.8442
3179	0.8409
3170	0.8424
3161	0.8441
3152	0.8457
3143	0.8445
3134	0.8428
3125	0.8461
3116	0.8441
3107	0.841
3098	0.8333
3089	0.8335
3080	0.8204
3071	0.7439
3062	0.7375
3053	0.8136
3044	0.8289
3035	0.8303
3026	0.8309
3017	0.8315
3008	0.8321
2999	0.8325
2990	0.8325
2981	0.8306
2972	0.8277
2963	0.8271
2954	0.8259
2945	0.8237
2936	0.8184
2927	0.8155
2918	0.8231
2909	0.8273
2900	0.8278
2891	0.8278
2882	0.828
2873	0.8271
2864	0.8265
2855	0.8264
2846	0.8288
2837	0.8313
2828	0.8338
2819	0.836
2810	0.8371
2801	0.8386
2792	0.8399
2783	0.8368
2774	0.8347
2765	0.8336
2756	0.8332
2747	0.8325
2738	0.8325
2729	0.8325
2720	0.8324
2711	0.8323
2702	0.832
2693	0.8317
2684	0.8318
2675	0.8321
2666	0.8327
2657	0.8328
2648	0.8325
2639	0.8324
2630	0.8321
2621	0.8315
2612	0.8309
2603	0.8301
2594	0.8293
2585	0.8289
2576	0.8277
2567	0.8221
2558	0.8205
2549	0.8253
2540	0.8241
2531	0.8215
2522	0.8194
2513	0.8175
2504	0.8165
2495	0.8181
2486	0.8185
2477	0.8176
2468	0.8148
2459	0.8119
2450	0.8099
2441	0.8074
2432	0.8061
2423	0.8048
2414	0.8035
2405	0.8053
2396	0.8085
2387	0.8111
2378	0.8122
2369	0.8112
2360	0.8084
2351	0.8051
2342	0.8015
2333	0.7984
2324	0.7957
2315	0.7937
2306	0.7924
2297	0.7915
2288	0.7912
2279	0.7914
2270	0.7922
2261	0.793
2252	0.7936
2243	0.794
2234	0.7947
2225	0.7958
2216	0.799
2207	0.7996
2198	0.8003
2189	0.8011
2180	0.8021
2171	0.8033
2162	0.8044
2153	0.8055
2144	0.8067
2135	0.81
2126	0.813
2117	0.814
2108	0.814
2099	0.8145
2090	0.8154
2081	0.8168
2072	0.8185
2063	0.8208
2054	0.8218
2045	0.822
2036	0.8228
2027	0.8241
2018	0.8262
2009	0.8358
2000	0.8515
1991	0.8557
1982	0.8563
1973	0.8536
1964	0.8499
1955	0.8532
1946	0.859
1937	0.8625
1928	0.8642
1919	0.8625
1910	0.8591
1901	0.861
1892	0.8635
1883	0.8652
1874	0.8666
1865	0.8671
1856	0.8675
1847	0.8682
1838	0.8689
1829	0.8697
1820	0.8704
1811	0.8711
1802	0.872
1793	0.8734
1784	0.8704
1775	0.8678
1766	0.8753
1757	0.8798
1748	0.8814
1739	0.8825
1730	0.8797
1721	0.8744
1712	0.8812
1703	0.8874
1694	0.8827
1685	0.882
1676	0.8856
1667	0.8909
1658	0.9023
1649	0.9124
1640	0.9024
1631	0.8811
1622	0.8618
1613	0.8685
1604	0.8711
1595	0.8721
1586	0.8727
1577	0.8762
1568	0.8775
1559	0.8878
1550	0.8744
1541	0.8787
1532	0.8715
1523	0.8733
1514	0.8673
1505	0.8671
1496	0.859
1487	0.8239
1478	0.861
1469	0.848
1460	0.8515
1451	0.5721
1442	0.8168
1433	0.8434
1424	0.8455
1415	0.849
1406	0.8531
1397	0.8503
1388	0.8463
1379	0.8463
1370	0.8499
1361	0.8461
1352	0.816
1343	0.7839
1334	0.7755
1325	0.778
1316	0.7688
1307	0.7617
1298	0.7508
1289	0.7432
1280	0.6855
1271	0.6259
1262	0.6633
1253	0.4359
1244	0.4029
1235	0.3165
1226	0.2732
1217	0.4323
1208	0.0992
1199	0.1151
1190	0.1596
1181	0.4449
1172	0.6097
1163	0.7068
1154	0.716
1145	0.5706
1136	0.4416
1127	0.7422
1118	0.7745
1109	0.7854
1100	0.7757
1091	0.7917
1082	0.7912
1073	0.7228
1064	0.7418
1055	0.5256
1046	0.5432
1037	0.7785
1028	0.773
1019	0.6685
1010	0.7858
1001	0.755
992	0.8004
983	0.8067
974	0.8019
965	0.805
956	0.8081
947	0.8103
938	0.8088
929	0.7894
920	0.7964
911	0.8094
902	0.8086
893	0.8064
884	0.8094
875	0.8142
866	0.8145
857	0.8117
848	0.8032
839	0.8032
830	0.8071
821	0.8078
812	0.8064
803	0.804
794	0.8022
785	0.8001
776	0.7911
767	0.7455
758	0.5226
749	0.6689
740	0.338
731	0.6684
722	0.7288
713	0.7564
704	0.7484
695	0.5103
686	0.6926
677	0.7586
668	0.8217
659	0.826
650	0.8266
641	0.8153
632	0.5689
623	0.5393
614	0.7217
605	0.8056
596	0.8078
587	0.7688
578	0.4556
569	0.5864
560	0.6896
551	0.7781
542	0.7888
533	0.7904
524	0.7901
515	0.7912
506	0.7917
497	0.7905
488	0.7897
479	0.7924
470	0.7953
461	0.7944
452	0.793
443	0.7893
434	0.7853
425	0.7806
416	0.7758
407	0.7734
398	0.7732
