Infrared Spectrum: 2-HYDROXY-4-THIAEICOSYYLTRIMETHYLAMMONIUM p-TOSYLATE
Formula: C29 H55 N O4 S2
State: SOLID (KBr PRESSING)
Melting point: 78-190 C
Class: COBLENTZ
Instrument: Not specified, most likely a prism, grating, or hybrid spectrometer.
Sampling: TRANSMISSION
Resolution: 4
Origin: EASTMAN KODAK COMPANY, RESEARCH LABORATORIES, ROCHESTER, N.Y.
MICROMETERS	TRANSMITTANCE
2.047	0.713
2.08688	0.723
2.12677	0.726
2.16665	0.738
2.20654	0.74
2.24642	0.743
2.2863	0.746
2.32619	0.75
2.36607	0.753
2.40596	0.756
2.44584	0.761
2.48573	0.763
2.52561	0.773
2.56549	0.782
2.60538	0.791
2.64526	0.792
2.68515	0.797
2.72503	0.796
2.76491	0.773
2.8048	0.702
2.84468	0.621
2.88457	0.532
2.92445	0.406
2.96434	0.35
3.00422	0.43
3.0441	0.503
3.08399	0.493
3.12387	0.47
3.16376	0.467
3.20364	0.519
3.24352	0.649
3.28341	0.675
3.32329	0.674
3.36318	0.644
3.40306	0.31
3.44294	0.253
3.48283	0.562
3.52271	0.46
3.5626	0.791
3.60248	0.8
3.64237	0.825
3.68225	0.835
3.72213	0.838
3.76202	0.848
3.8019	0.861
3.84179	0.871
3.88167	0.871
3.92155	0.875
3.96144	0.883
4.00132	0.893
4.04121	0.899
4.08109	0.906
4.12098	0.909
4.16086	0.909
4.20074	0.912
4.24063	0.929
4.28051	0.95
4.3204	0.95
4.36028	0.932
4.40016	0.922
4.44005	0.917
4.47993	0.914
4.51982	0.912
4.5597	0.907
4.59958	0.912
4.63947	0.912
4.67935	0.929
4.71924	0.93
4.75912	0.95
4.79901	0.952
4.83889	0.95
4.87877	0.942
4.91866	0.937
4.95854	0.94
4.99843	0.944
5.03831	0.944
5.07819	0.944
5.11808	0.949
5.15796	0.955
5.19785	0.942
5.23773	0.947
5.27761	0.952
5.3175	0.952
5.35738	0.953
5.39727	0.96
5.43715	0.96
5.47704	0.96
5.51692	0.96
5.5568	0.96
5.59669	0.96
5.63657	0.96
5.67646	0.958
5.71634	0.953
5.75622	0.95
5.79611	0.949
5.83599	0.945
5.87588	0.95
5.91576	0.945
5.95565	0.934
5.99553	0.896
6.03541	0.804
6.0753	0.824
6.11518	0.871
6.15507	0.878
6.19495	0.886
6.23483	0.886
6.27472	0.901
6.3146	0.924
6.35449	0.93
6.39437	0.932
6.43425	0.934
6.47414	0.932
6.51402	0.93
6.55391	0.932
6.59379	0.934
6.63368	0.911
6.67356	0.779
6.71344	0.634
6.75333	0.598
6.79321	0.532
6.8331	0.536
6.87298	0.671
6.91286	0.741
6.95275	0.758
6.99263	0.789
7.03252	0.835
7.0724	0.824
7.11229	0.83
7.15217	0.843
7.19205	0.85
7.23194	0.85
7.27182	0.832
7.31171	0.871
7.35159	0.868
7.39147	0.822
7.43136	0.82
7.47124	0.847
7.51113	0.898
7.55101	0.907
7.59089	0.879
7.63078	0.853
7.67066	0.856
7.71055	0.876
7.75043	0.891
7.79032	0.894
7.8302	0.889
7.87008	0.891
7.90997	0.878
7.94985	0.875
7.98974	0.847
8.02962	0.805
8.0695	0.717
8.10939	0.564
8.14927	0.241
8.18916	0.194
8.22904	0.36
8.26893	0.434
8.30881	0.495
8.34869	0.514
8.38858	0.511
8.42846	0.427
8.46835	0.327
8.50823	0.248
8.54811	0.21
8.588	0.248
8.62788	0.365
8.66777	0.49
8.70765	0.597
8.74753	0.652
8.78742	0.667
8.8273	0.608
8.86719	0.333
8.90707	0.363
8.94696	0.638
8.98684	0.689
9.02672	0.679
9.06661	0.712
9.10649	0.68
9.14638	0.641
9.18626	0.675
9.22614	0.741
9.26603	0.792
9.30591	0.822
9.3458	0.832
9.38568	0.832
9.42557	0.83
9.46545	0.83
9.50533	0.843
9.54522	0.865
9.5851	0.817
9.62499	0.449
9.66487	0.46
9.70475	0.827
9.74464	0.888
9.78452	0.899
9.82441	0.759
9.86429	0.261
9.90417	0.748
9.94406	0.888
9.98394	0.925
10.0238	0.965
10.0637	0.968
10.1036	0.963
10.1435	0.963
10.1834	0.958
10.2232	0.914
10.2631	0.799
10.303	0.797
10.3429	0.87
10.3828	0.911
10.4227	0.914
10.4626	0.894
10.5024	0.782
10.5423	0.672
10.5822	0.708
10.6221	0.824
10.662	0.875
10.7019	0.898
10.7417	0.838
10.7816	0.712
10.8215	0.684
10.8614	0.82
10.9013	0.914
10.9412	0.963
10.981	0.978
11.0209	0.988
11.0608	0.991
11.1007	0.993
11.1406	1
11.1805	1.003
11.2204	1.004
11.2602	1.001
11.3001	0.991
11.34	0.965
11.3799	0.975
11.4198	0.991
11.4597	0.991
11.4995	1.001
11.5394	1.001
11.5793	1.001
11.6192	1.004
11.6591	1.003
11.699	0.985
11.7388	0.981
11.7787	0.973
11.8186	0.973
11.8585	0.973
11.8984	0.973
11.9383	0.968
11.9781	0.963
12.018	0.953
12.0579	0.947
12.0978	0.935
12.1377	0.883
12.1776	0.733
12.2175	0.447
12.2573	0.509
12.2972	0.797
12.3371	0.875
12.377	0.894
12.4169	0.896
12.4568	0.886
12.4966	0.884
12.5365	0.899
12.5764	0.919
12.6163	0.924
12.6562	0.925
12.6961	0.927
12.7359	0.927
12.7758	0.922
12.8157	0.901
12.8556	0.896
12.8955	0.901
12.9354	0.902
12.9753	0.902
13.0151	0.906
13.055	0.909
13.0949	0.911
13.1348	0.914
13.1747	0.914
13.2146	0.911
13.2544	0.911
13.2943	0.911
13.3342	0.904
13.3741	0.911
13.414	0.909
13.4539	0.902
13.4937	0.911
13.5336	0.898
13.5735	0.886
13.6134	0.873
13.6533	0.851
13.6932	0.837
13.7331	0.807
13.7729	0.791
13.8128	0.756
13.8527	0.774
13.8926	0.794
13.9325	0.802
13.9724	0.784
14.0122	0.753
14.0521	0.764
14.092	0.797
14.1319	0.802
14.1718	0.794
14.2117	0.776
14.2515	0.745
14.2914	0.708
14.3313	0.664
14.3712	0.603
14.4111	0.508
14.451	0.427
14.4909	0.384
14.5307	0.366
14.5706	0.378
14.6105	0.44
14.6504	0.513
14.6903	0.583
14.7302	0.659
14.77	0.694
14.8099	0.713
14.8498	0.72
14.8897	0.735
14.9296	0.702
14.9695	0.68
15.0093	0.738
15.0492	0.712
15.0891	0.68
15.129	0.661
15.1689	0.652
15.2088	0.636
15.2486	0.633
15.2885	0.625
15.3284	0.61
15.3683	0.597
15.4082	0.583
15.4481	0.58
15.488	0.562
15.5278	0.552
15.5677	0.537
15.6076	0.537
15.6475	0.534
15.6874	0.531
15.7273	0.526
15.7671	0.521
15.807	0.506
15.8469	0.501
15.8868	0.495
15.9267	0.493
15.9666	0.493
