Infrared Spectrum: 2-Methoxy-4-(2-nitropropenyl)phenol
Formula: C10 H11 N O4
State: SOLID (SPLIT MULL)
Class: COBLENTZ III
Instrument: DOW KBr FOREPRISM-GRATING
Instrument parameters: BLAZED AT 3.5, 12.0, 20.0 MICRON AND CHANGED AT 5.0, 7.5, 14.9 MICRON
Sampling: TRANSMISSION
Resolution: 2
Origin: DOW CHEMICAL COMPANY
1/CM	TRANSMITTANCE
3800	0.6578
3791	0.658
3782	0.6584
3773	0.6586
3764	0.659
3755	0.6595
3746	0.6603
3737	0.6615
3728	0.6634
3719	0.6651
3710	0.6674
3701	0.6694
3692	0.6715
3683	0.6743
3674	0.6783
3665	0.6825
3656	0.686
3647	0.6887
3638	0.6908
3629	0.693
3620	0.6958
3611	0.6999
3602	0.7046
3593	0.708
3584	0.7101
3575	0.7115
3566	0.7174
3557	0.7257
3548	0.7351
3539	0.7432
3530	0.7286
3521	0.1617
3512	0.1191
3503	0.3371
3494	0.466
3485	0.525
3476	0.556
3467	0.5807
3458	0.6003
3449	0.6165
3440	0.6283
3431	0.6383
3422	0.6465
3413	0.6547
3404	0.6615
3395	0.6681
3386	0.6743
3377	0.679
3368	0.6837
3359	0.6882
3350	0.6918
3341	0.6956
3332	0.6991
3323	0.7014
3314	0.7038
3305	0.7061
3296	0.7083
3287	0.7101
3278	0.7118
3269	0.7137
3260	0.7151
3251	0.7165
3242	0.718
3233	0.7192
3224	0.7205
3215	0.7221
3206	0.7234
3197	0.7203
3188	0.7175
3179	0.7211
3170	0.7254
3161	0.7294
3152	0.7328
3143	0.735
3134	0.7369
3125	0.7378
3116	0.7395
3107	0.743
3098	0.7465
3089	0.7489
3080	0.7495
3071	0.7432
3062	0.7391
3053	0.7134
3044	0.7371
3035	0.7467
3026	0.6711
3017	0.7081
3008	0.7389
2999	0.7462
2990	0.7453
2981	0.6901
2972	0.7318
2963	0.7394
2954	0.7331
2945	0.6942
2936	0.7118
2927	0.7297
2918	0.7362
2909	0.7381
2900	0.7422
2891	0.7498
2882	0.7533
2873	0.7549
2864	0.7618
2855	0.7654
2846	0.7657
2837	0.7694
2828	0.7804
2819	0.788
2810	0.7921
2801	0.7941
2792	0.7925
2783	0.7839
2774	0.7804
2765	0.7795
2756	0.7808
2747	0.7904
2738	0.7986
2729	0.8045
2720	0.8098
2711	0.8147
2702	0.8186
2693	0.8209
2684	0.8221
2675	0.8224
2666	0.8228
2657	0.8235
2648	0.8251
2639	0.8271
2630	0.8298
2621	0.8327
2612	0.8357
2603	0.8386
2594	0.8414
2585	0.8435
2576	0.8454
2567	0.8466
2558	0.847
2549	0.8411
2540	0.835
2531	0.8373
2522	0.8414
2513	0.8449
2504	0.8478
2495	0.8506
2486	0.8527
2477	0.8542
2468	0.8555
2459	0.8556
2450	0.8561
2441	0.8584
2432	0.8618
2423	0.8634
2414	0.8631
2405	0.8621
2396	0.8604
2387	0.8668
2378	0.8675
2369	0.8649
2360	0.864
2351	0.8643
2342	0.8661
2333	0.87
2324	0.8731
2315	0.8698
2306	0.8716
2297	0.8741
2288	0.8767
2279	0.8798
2270	0.883
2261	0.8852
2252	0.8871
2243	0.8891
2234	0.8909
2225	0.8928
2216	0.8947
2207	0.8965
2198	0.8986
2189	0.901
2180	0.9036
2171	0.9062
2162	0.9094
2153	0.9124
2144	0.9158
2135	0.919
2126	0.9215
2117	0.9228
2108	0.9244
2099	0.9258
2090	0.9278
2081	0.93
2072	0.9321
2063	0.9344
2054	0.936
2045	0.9378
2036	0.9396
2027	0.9421
2018	0.9452
2009	0.9471
2000	0.9427
1991	0.9365
1982	0.9357
1973	0.9387
1964	0.9448
1955	0.9475
1946	0.9494
1937	0.951
1928	0.9535
1919	0.9567
1910	0.9604
1901	0.9641
1892	0.9668
1883	0.9686
1874	0.9621
1865	0.9618
1856	0.9623
1847	0.9562
1838	0.9514
1829	0.9636
1820	0.9736
1811	0.9789
1802	0.9834
1793	0.9865
1784	0.9858
1775	0.9785
1766	0.9823
1757	0.9918
1748	0.9982
1739	1.0001
1730	1.0011
1721	1.0023
1712	1.0038
1703	1.0049
1694	0.9951
1685	0.977
1676	0.9861
1667	0.9883
1658	0.9799
1649	0.9253
1640	0.6194
1631	0.7915
1622	0.9231
1613	0.9109
1604	0.5446
1595	0.6605
1586	0.2754
1577	0.6968
1568	0.865
1559	0.9157
1550	0.9267
1541	0.892
1532	0.8168
1523	0.1802
1514	0.4227
1505	0.1314
1496	0.2939
1487	0.6571
1478	0.7944
1469	0.7951
1460	0.4162
1451	0.6054
1442	0.5218
1433	0.7194
1424	0.5878
1415	0.7424
1406	0.8807
1397	0.878
1388	0.6525
1379	0.6179
1370	0.7671
1361	0.8781
1352	0.8065
1343	0.8525
1334	0.8151
1325	0.6872
1316	0.1691
1307	0.1627
1298	0.0771
1289	0.1551
1280	0.0273
1271	0.0475
1262	0.4421
1253	0.6299
1244	0.5652
1235	0.6851
1226	0.7005
1217	0.6128
1208	0.5496
1199	0.1578
1190	0.123
1181	0.1064
1172	0.3522
1163	0.2284
1154	0.5601
1145	0.6831
1136	0.7428
1127	0.2803
1118	0.731
1109	0.7996
1100	0.6294
1091	0.7383
1082	0.8465
1073	0.8867
1064	0.8991
1055	0.9092
1046	0.9152
1037	0.8914
1028	0.2469
1019	0.7542
1010	0.8865
1001	0.8665
992	0.5716
983	0.7833
974	0.8798
965	0.8975
956	0.9088
947	0.9024
938	0.8396
929	0.6854
920	0.3749
911	0.8101
902	0.9053
893	0.922
884	0.9367
875	0.9567
866	0.7961
857	0.7686
848	0.6901
839	0.9737
830	0.9939
821	0.9693
812	0.4733
803	0.844
794	0.9642
785	0.9302
776	1.0027
767	1.0166
758	1.0215
749	1.0162
740	0.9838
731	0.9571
722	0.8955
713	1.0102
704	1.032
695	1.0378
686	1.0287
677	1.0456
668	1.0482
659	1.0493
650	1.0481
641	1.0452
632	1.0407
623	1.0303
614	0.9325
605	0.8589
596	1.0065
587	0.7515
578	0.9888
569	1.0003
560	0.8253
551	0.9551
542	0.9283
533	0.8421
524	0.8786
515	0.7425
506	0.5734
497	0.5944
488	0.7462
479	0.8283
470	0.8486
461	0.8601
452	0.8265
443	0.7818
434	0.8359
425	0.8596
416	0.8683
407	0.8677
398	0.8618
389	0.8543
