Infrared Spectrum: DIMETHYLAMINE BORANE
Formula: C2 H10 N B
State: SOLID (MULL, KEL-F OIL FOR 2-7.5 AND MINERAL OIL FOR 7.5-16 MICRONS)
Class: COBLENTZ
Instrument: Not specified, most likely a prism, grating, or hybrid spectrometer.
Sampling: TRANSMISSION
Resolution: 4
Origin: WYANDOTTE CHEMICALS CORP., WYANDOTTE, MICHIGAN, USA
MICROMETERS	TRANSMITTANCE
2.031	0.958
2.07081	0.95
2.11063	0.941
2.15044	0.93
2.19026	0.876
2.23007	0.935
2.26989	0.943
2.3097	0.943
2.34951	0.948
2.38933	0.958
2.42914	0.953
2.46896	0.955
2.50877	0.95
2.54859	0.965
2.5884	0.983
2.62822	0.958
2.66803	0.978
2.70784	0.963
2.74766	0.938
2.78747	0.935
2.82729	0.93
2.8671	0.926
2.90692	0.9
2.94673	0.891
2.98654	0.855
3.02636	0.855
3.06617	0.723
3.10599	0.36
3.1458	0.298
3.18562	0.6
3.22543	0.721
3.26524	0.748
3.30506	0.666
3.34487	0.713
3.38469	0.521
3.4245	0.571
3.46432	0.701
3.50413	0.696
3.54395	0.673
3.58376	0.808
3.62357	0.886
3.66339	0.893
3.7032	0.898
3.74302	0.883
3.78283	0.813
3.82265	0.791
3.86246	0.883
3.90227	0.881
3.94209	0.9
3.9819	0.903
4.02172	0.85
4.06153	0.753
4.10135	0.675
4.14116	0.6
4.18097	0.49
4.22079	0.328
4.2606	0.15
4.30042	0.17
4.34023	0.22
4.38005	0.258
4.41986	0.223
4.45968	0.183
4.49949	0.143
4.5393	0.241
4.57912	0.356
4.61893	0.468
4.65875	0.601
4.69856	0.67
4.73838	0.71
4.77819	0.738
4.818	0.701
4.85782	0.733
4.89763	0.711
4.93745	0.67
4.97726	0.758
5.01708	0.803
5.05689	0.823
5.0967	0.845
5.13652	0.85
5.17633	0.853
5.21615	0.853
5.25596	0.868
5.29578	0.875
5.33559	0.875
5.37541	0.843
5.41522	0.86
5.45503	0.86
5.49485	0.84
5.53466	0.845
5.57448	0.86
5.61429	0.846
5.65411	0.853
5.69392	0.876
5.73373	0.863
5.77355	0.86
5.81336	0.838
5.85318	0.826
5.89299	0.843
5.93281	0.821
5.97262	0.806
6.01243	0.788
6.05225	0.811
6.09206	0.82
6.13188	0.838
6.17169	0.846
6.21151	0.843
6.25132	0.858
6.29114	0.851
6.33095	0.863
6.37076	0.836
6.41058	0.84
6.45039	0.81
6.49021	0.821
6.53002	0.8
6.56984	0.806
6.60965	0.805
6.64946	0.793
6.68928	0.755
6.72909	0.608
6.76891	0.356
6.80872	0.236
6.84854	0.408
6.88835	0.56
6.92816	0.578
6.96798	0.531
7.00779	0.573
7.04761	0.605
7.08742	0.528
7.12724	0.603
7.16705	0.638
7.20687	0.643
7.24668	0.633
7.28649	0.65
7.32631	0.651
7.36612	0.656
7.40594	0.65
7.44575	0.585
7.48557	0.49
7.52538	0.45
7.56519	0.428
7.60501	0.568
7.64482	0.675
7.68464	0.72
7.72445	0.738
7.76427	0.736
7.80408	0.725
7.84389	0.721
7.88371	0.725
7.92352	0.715
7.96334	0.7
8.00315	0.675
8.04297	0.633
8.08278	0.576
8.1226	0.59
8.16241	0.568
8.20222	0.503
8.24204	0.42
8.28185	0.353
8.32167	0.338
8.36148	0.335
8.4013	0.32
8.44111	0.306
8.48092	0.298
8.52074	0.275
8.56055	0.24
8.60037	0.17
8.64018	0.16
8.68	0.193
8.71981	0.236
8.75962	0.276
8.79944	0.348
8.83925	0.415
8.87907	0.486
8.91888	0.556
8.9587	0.593
8.99851	0.63
9.03833	0.648
9.07814	0.663
9.11795	0.683
9.15777	0.7
9.19758	0.715
9.2374	0.726
9.27721	0.738
9.31703	0.741
9.35684	0.75
9.39665	0.751
9.43647	0.745
9.47628	0.715
9.5161	0.735
9.55591	0.746
9.59573	0.703
9.63554	0.616
9.67535	0.521
9.71517	0.563
9.75498	0.675
9.7948	0.731
9.83461	0.763
9.87443	0.788
9.91424	0.803
9.95406	0.806
9.99387	0.81
10.0337	0.81
10.0735	0.81
10.1133	0.808
10.1531	0.806
10.1929	0.801
10.2328	0.8
10.2726	0.798
10.3124	0.795
10.3522	0.79
10.392	0.788
10.4318	0.781
10.4716	0.768
10.5115	0.755
10.5513	0.72
10.5911	0.63
10.6309	0.49
10.6707	0.26
10.7105	0.213
10.7503	0.331
10.7902	0.525
10.83	0.643
10.8698	0.686
10.9096	0.701
10.9494	0.691
10.9892	0.656
11.029	0.616
11.0689	0.51
11.1087	0.408
11.1485	0.38
11.1883	0.32
11.2281	0.275
11.2679	0.308
11.3077	0.4
11.3476	0.533
11.3874	0.616
11.4272	0.658
11.467	0.693
11.5068	0.718
11.5466	0.733
11.5864	0.745
11.6263	0.755
11.6661	0.763
11.7059	0.768
11.7457	0.778
11.7855	0.78
11.8253	0.791
11.8651	0.795
11.905	0.805
11.9448	0.805
11.9846	0.806
12.0244	0.81
12.0642	0.815
12.104	0.818
12.1438	0.815
12.1837	0.818
12.2235	0.821
12.2633	0.823
12.3031	0.823
12.3429	0.826
12.3827	0.83
12.4225	0.836
12.4624	0.841
12.5022	0.843
12.542	0.846
12.5818	0.85
12.6216	0.855
12.6614	0.858
12.7012	0.863
12.7411	0.86
12.7809	0.863
12.8207	0.856
12.8605	0.858
12.9003	0.855
12.9401	0.855
12.9799	0.851
13.0198	0.853
13.0596	0.853
13.0994	0.855
13.1392	0.855
13.179	0.851
13.2188	0.846
13.2586	0.843
13.2985	0.845
13.3383	0.845
13.3781	0.843
13.4179	0.836
13.4577	0.833
13.4975	0.835
13.5373	0.833
13.5772	0.831
13.617	0.828
13.6568	0.826
13.6966	0.823
13.7364	0.813
13.7762	0.811
13.816	0.805
13.8559	0.803
13.8957	0.795
13.9355	0.776
13.9753	0.758
14.0151	0.76
14.0549	0.78
14.0947	0.793
14.1346	0.805
14.1744	0.815
14.2142	0.818
14.254	0.821
14.2938	0.826
14.3336	0.828
14.3734	0.825
14.4133	0.825
14.4531	0.823
14.4929	0.823
14.5327	0.821
14.5725	0.821
14.6123	0.82
14.6521	0.816
14.692	0.816
14.7318	0.82
14.7716	0.82
14.8114	0.815
14.8512	0.808
14.891	0.815
14.9308	0.808
14.9707	0.801
15.0105	0.778
15.0503	0.756
15.0901	0.761
15.1299	0.785
15.1697	0.793
15.2095	0.79
15.2494	0.778
15.2892	0.776
15.329	0.765
15.3688	0.765
15.4086	0.756
15.4484	0.751
15.4882	0.746
15.5281	0.745
15.5679	0.743
15.6077	0.738
15.6475	0.733
15.6873	0.73
15.7271	0.73
15.7669	0.721
15.8068	0.706
15.8466	0.706
15.8864	0.708
15.9262	0.703
15.966	0.695
