Infrared Spectrum: THIAMINE HYDROCHLORIDE
Formula: C12 H18 Cl2 N4 O S
State: SOLID (1 MG / 200 mg KBr DISC)
Melting point: 248 C DECOMP.
Class: COBLENTZ III
Instrument: PERKIN-ELMER 21 (GRATING)
Instrument parameters: FILTER AT ABOUT 10 MICRONS
Sampling: TRANSMISSION
Resolution: 2
1/CM	TRANSMITTANCE
4000	0.5894
3991	0.591
3982	0.5929
3973	0.5947
3964	0.5965
3955	0.5983
3946	0.6001
3937	0.6019
3928	0.6035
3919	0.6053
3910	0.607
3901	0.6087
3892	0.6105
3883	0.6124
3874	0.6149
3865	0.6174
3856	0.6196
3847	0.6214
3838	0.6231
3829	0.6249
3820	0.6266
3811	0.6279
3802	0.6292
3793	0.6305
3784	0.6318
3775	0.6331
3766	0.6354
3757	0.6381
3748	0.6408
3739	0.6434
3730	0.6465
3721	0.6501
3712	0.6532
3703	0.6555
3694	0.6578
3685	0.6604
3676	0.6628
3667	0.6651
3658	0.6671
3649	0.6693
3640	0.6708
3631	0.6721
3622	0.6728
3613	0.6725
3604	0.6715
3595	0.6693
3586	0.6645
3577	0.6562
3568	0.6401
3559	0.6222
3550	0.6031
3541	0.5824
3532	0.561
3523	0.5491
3514	0.5271
3505	0.4862
3496	0.4454
3487	0.4042
3478	0.3627
3469	0.321
3460	0.2861
3451	0.2898
3442	0.3067
3433	0.3196
3424	0.3165
3415	0.2479
3406	0.1889
3397	0.1939
3388	0.2373
3379	0.2819
3370	0.3149
3361	0.3173
3352	0.3175
3343	0.3171
3334	0.3149
3325	0.2995
3316	0.2499
3307	0.2247
3298	0.2141
3289	0.201
3280	0.1885
3271	0.1779
3262	0.1652
3253	0.1551
3244	0.1533
3235	0.1706
3226	0.201
3217	0.2221
3208	0.2321
3199	0.2423
3190	0.2525
3181	0.2627
3172	0.273
3163	0.2762
3154	0.2749
3145	0.26
3136	0.2284
3127	0.1968
3118	0.1654
3109	0.1507
3100	0.1441
3091	0.1394
3082	0.1368
3073	0.1349
3064	0.1344
3055	0.1401
3046	0.1532
3037	0.1675
3028	0.1698
3019	0.1648
3010	0.1523
3001	0.1398
2992	0.1376
2983	0.1624
2974	0.2093
2965	0.232
2956	0.2534
2947	0.2765
2938	0.2798
2929	0.278
2920	0.2744
2911	0.2721
2902	0.2909
2893	0.3061
2884	0.3177
2875	0.322
2866	0.3245
2857	0.3259
2848	0.3266
2839	0.325
2830	0.3173
2821	0.3061
2812	0.2893
2803	0.2613
2794	0.2501
2785	0.2366
2776	0.1961
2767	0.1704
2758	0.1646
2749	0.1611
2740	0.148
2731	0.1312
2722	0.1146
2713	0.1099
2704	0.1096
2695	0.1124
2686	0.1154
2677	0.1177
2668	0.128
2659	0.1464
2650	0.1654
2641	0.1853
2632	0.2071
2623	0.2378
2614	0.2448
2605	0.255
2596	0.2664
2587	0.2793
2578	0.2922
2569	0.31
2560	0.3289
2551	0.3491
2542	0.3716
2533	0.4007
2524	0.4191
2515	0.4366
2506	0.4537
2497	0.4692
2488	0.4821
2479	0.4991
2470	0.5177
2461	0.5295
2452	0.5412
2443	0.5473
2434	0.5523
2425	0.5562
2416	0.5612
2407	0.5702
2398	0.5835
2389	0.593
2380	0.6024
2371	0.6077
2362	0.6102
2353	0.6134
2344	0.6169
2335	0.6217
2326	0.6299
2317	0.6398
2308	0.6498
2299	0.6564
2290	0.6622
2281	0.6684
2272	0.6743
2263	0.6804
2254	0.6864
2245	0.6924
2236	0.6983
2227	0.7025
2218	0.7067
2209	0.7108
2200	0.7121
2191	0.7135
2182	0.714
2173	0.7144
2164	0.7147
2155	0.7155
2146	0.7203
2137	0.7228
2128	0.7211
2119	0.7182
2110	0.7143
2101	0.7117
2092	0.7114
2083	0.7219
2074	0.7322
2065	0.7408
2056	0.7471
2047	0.7507
2038	0.7536
2029	0.755
2020	0.7554
2011	0.7558
2002	0.7543
1993	0.7481
1984	0.7368
1975	0.7238
1966	0.7308
1957	0.7535
1948	0.7564
1939	0.7588
1930	0.7676
1921	0.7805
1912	0.7815
1903	0.7771
1894	0.7725
1885	0.7683
1876	0.78
1867	0.7897
1858	0.7944
1849	0.7965
1840	0.7978
1831	0.7991
1822	0.7971
1813	0.7855
1804	0.7834
1795	0.7688
1786	0.7124
1777	0.6828
1768	0.7128
1759	0.7476
1750	0.7725
1741	0.7828
1732	0.7887
1723	0.7888
1714	0.7684
1705	0.7228
1696	0.678
1687	0.566
1678	0.303
1669	0.0507
1660	0.037
1651	0.0588
1642	0.2002
1633	0.3462
1624	0.4489
1615	0.275
1606	0.0996
1597	0.2957
1588	0.504
1579	0.5604
1570	0.5594
1561	0.5367
1552	0.382
1543	0.274
1534	0.3146
1525	0.3286
1516	0.3342
1507	0.3577
1498	0.3954
1489	0.396
1480	0.3222
1471	0.4362
1462	0.4678
1453	0.348
1444	0.3096
1435	0.3752
1426	0.4296
1417	0.4648
1408	0.4243
1399	0.3604
1390	0.285
1381	0.3523
1372	0.4855
1363	0.3332
1354	0.3418
1345	0.4075
1336	0.4415
1327	0.495
1318	0.5498
1309	0.5524
1300	0.6012
1291	0.5723
1282	0.5376
1273	0.6328
1264	0.6761
1255	0.6599
1246	0.4283
1237	0.5017
1228	0.5901
1219	0.4043
1210	0.624
1201	0.6743
1192	0.6435
1183	0.6454
1174	0.649
1165	0.6815
1156	0.6997
1147	0.715
1138	0.7115
1129	0.7119
1120	0.7011
1111	0.6965
1102	0.673
1093	0.6326
1084	0.6565
1075	0.5856
1066	0.543
1057	0.5754
1048	0.4209
1039	0.4086
1030	0.5658
1021	0.6437
1012	0.6656
1003	0.6614
994	0.6964
985	0.63
976	0.7392
967	0.7574
958	0.7351
949	0.6589
940	0.6994
931	0.7408
922	0.7474
913	0.6788
904	0.6334
895	0.5962
886	0.701
877	0.7421
868	0.6808
859	0.7588
850	0.7691
841	0.7589
832	0.5775
823	0.6837
814	0.673
805	0.6764
796	0.7281
787	0.7208
778	0.6524
769	0.5295
760	0.645
751	0.4996
742	0.6272
733	0.6669
724	0.6636
715	0.6462
706	0.5605
697	0.4274
688	0.566
679	0.5353
670	0.6177
661	0.636
