Infrared Spectrum: Alpha,Alpha-DICHLOROPROPIONIC ACID, MONO ETHYL AMINE SALT
Formula: C5 H11 Cl2 N O2
Class: COBLENTZ
Instrument: Not specified, most likely a prism, grating, or hybrid spectrometer.
Sampling: TRANSMISSION
Path length: FILM
Resolution: 4
Origin: DOW CHEMICAL COMPANY
MICROMETERS	TRANSMITTANCE
2.061	0.872
2.10198	0.866
2.14295	0.866
2.18393	0.868
2.22491	0.865
2.26588	0.861
2.30686	0.866
2.34783	0.872
2.38881	0.873
2.42979	0.873
2.47076	0.878
2.51174	0.877
2.55272	0.882
2.59369	0.882
2.63467	0.872
2.67564	0.882
2.71662	0.86
2.7576	0.825
2.79857	0.767
2.83955	0.696
2.88053	0.638
2.9215	0.597
2.96248	0.587
3.00346	0.604
3.04443	0.597
3.08541	0.556
3.12638	0.505
3.16736	0.433
3.20834	0.339
3.24931	0.286
3.29029	0.244
3.33127	0.226
3.37224	0.204
3.41322	0.233
3.45419	0.266
3.49517	0.325
3.53615	0.349
3.57712	0.363
3.6181	0.423
3.65908	0.445
3.70005	0.472
3.74103	0.554
3.78201	0.578
3.82298	0.571
3.86396	0.598
3.90493	0.629
3.94591	0.605
3.98689	0.6
4.02786	0.665
4.06884	0.713
4.10982	0.742
4.15079	0.762
4.19177	0.773
4.23274	0.779
4.27372	0.793
4.3147	0.81
4.35567	0.82
4.39665	0.825
4.43763	0.822
4.4786	0.822
4.51958	0.82
4.56056	0.82
4.60153	0.82
4.64251	0.813
4.68348	0.802
4.72446	0.793
4.76544	0.783
4.80641	0.781
4.84739	0.788
4.88837	0.8
4.92934	0.807
4.97032	0.812
5.01129	0.824
5.05227	0.832
5.09325	0.834
5.13422	0.843
5.1752	0.846
5.21618	0.849
5.25715	0.853
5.29813	0.86
5.33911	0.86
5.38008	0.86
5.42106	0.861
5.46203	0.858
5.50301	0.853
5.54399	0.841
5.58496	0.829
5.62594	0.819
5.66692	0.796
5.70789	0.767
5.74887	0.738
5.78984	0.715
5.83082	0.699
5.8718	0.668
5.91277	0.604
5.95375	0.501
5.99473	0.348
6.0357	0.179
6.07668	0.15
6.11766	0.116
6.15863	0.129
6.19961	0.172
6.24058	0.215
6.28156	0.266
6.32254	0.32
6.36351	0.406
6.40449	0.457
6.44547	0.498
6.48644	0.5
6.52742	0.494
6.56839	0.493
6.60937	0.518
6.65035	0.569
6.69132	0.619
6.7323	0.633
6.77328	0.588
6.81425	0.592
6.85523	0.575
6.8962	0.511
6.93718	0.517
6.97816	0.662
7.01913	0.668
7.06011	0.651
7.10109	0.597
7.14206	0.522
7.18304	0.47
7.22402	0.337
7.26499	0.269
7.30597	0.441
7.34694	0.271
7.38792	0.18
7.4289	0.291
7.46987	0.523
7.51085	0.595
7.55183	0.65
7.5928	0.697
7.63378	0.718
7.67475	0.732
7.71573	0.74
7.75671	0.74
7.79768	0.744
7.83866	0.738
7.87964	0.74
7.92061	0.738
7.96159	0.732
8.00257	0.725
8.04354	0.703
8.08452	0.674
8.12549	0.658
8.16647	0.65
8.20745	0.65
8.24842	0.653
8.2894	0.684
8.33038	0.713
8.37135	0.745
8.41233	0.764
8.4533	0.776
8.49428	0.781
8.53526	0.788
8.57623	0.788
8.61721	0.795
8.65819	0.793
8.69916	0.786
8.74014	0.752
8.78112	0.713
8.82209	0.703
8.86307	0.737
8.90404	0.764
8.94502	0.771
8.986	0.774
9.02697	0.773
9.06795	0.761
9.10893	0.745
9.1499	0.711
9.19088	0.663
9.23185	0.568
9.27283	0.45
9.31381	0.409
9.35478	0.441
9.39576	0.472
9.43674	0.537
9.47771	0.563
9.51869	0.593
9.55967	0.639
9.60064	0.699
9.64162	0.738
9.68259	0.754
9.72357	0.754
9.76455	0.754
9.80552	0.752
9.8465	0.747
9.88748	0.73
9.92845	0.715
9.96943	0.708
10.0104	0.708
10.0514	0.713
10.0924	0.726
10.1333	0.749
10.1743	0.764
10.2153	0.779
10.2563	0.793
10.2972	0.802
10.3382	0.805
10.3792	0.805
10.4202	0.807
10.4611	0.81
10.5021	0.813
10.5431	0.817
10.5841	0.819
10.625	0.819
10.666	0.82
10.707	0.824
10.748	0.825
10.789	0.825
10.8299	0.825
10.8709	0.827
10.9119	0.827
10.9529	0.829
10.9938	0.827
11.0348	0.827
11.0758	0.824
11.1168	0.817
11.1577	0.805
11.1987	0.791
11.2397	0.762
11.2807	0.728
11.3216	0.689
11.3626	0.668
11.4036	0.662
11.4446	0.679
11.4856	0.706
11.5265	0.742
11.5675	0.766
11.6085	0.781
11.6495	0.79
11.6904	0.798
11.7314	0.802
11.7724	0.803
11.8134	0.805
11.8543	0.796
11.8953	0.791
11.9363	0.796
11.9773	0.8
12.0182	0.802
12.0592	0.802
12.1002	0.798
12.1412	0.788
12.1821	0.769
12.2231	0.752
12.2641	0.738
12.3051	0.728
12.3461	0.713
12.387	0.692
12.428	0.656
12.469	0.624
12.51	0.602
12.5509	0.602
12.5919	0.631
12.6329	0.674
12.6739	0.701
12.7148	0.72
12.7558	0.73
12.7968	0.737
12.8378	0.742
12.8787	0.742
12.9197	0.744
12.9607	0.74
13.0017	0.738
13.0427	0.73
13.0836	0.723
13.1246	0.713
13.1656	0.703
13.2066	0.692
13.2475	0.68
13.2885	0.67
13.3295	0.66
13.3705	0.651
13.4114	0.643
13.4524	0.631
13.4934	0.619
13.5344	0.604
13.5753	0.59
13.6163	0.573
13.6573	0.554
13.6983	0.527
13.7392	0.496
13.7802	0.455
13.8212	0.414
13.8622	0.365
13.9032	0.332
13.9441	0.31
13.9851	0.305
14.0261	0.339
14.0671	0.38
14.108	0.424
14.149	0.462
14.19	0.486
14.231	0.506
14.2719	0.515
14.3129	0.522
14.3539	0.525
14.3949	0.527
14.4358	0.527
14.4768	0.523
14.5178	0.522
14.5588	0.52
14.5998	0.513
14.6407	0.51
14.6817	0.506
14.7227	0.501
14.7637	0.496
14.8046	0.489
14.8456	0.484
14.8866	0.477
14.9276	0.467
14.9685	0.46
15.0095	0.45
15.0505	0.438
15.0915	0.423
15.1324	0.412
15.1734	0.401
15.2144	0.394
15.2554	0.387
15.2963	0.38
15.3373	0.377
15.3783	0.377
15.4193	0.378
15.4603	0.383
15.5012	0.39
15.5422	0.399
15.5832	0.404
15.6242	0.411
15.6651	0.416
15.7061	0.418
15.7471	0.419
15.7881	0.419
15.829	0.419
