Infrared Spectrum: ETHANAMINE, 2-HYDROXY-2-(m-HYDROXYPHENYL)-N-METHYL-, 2-HYDROXY-3-PHENYL BENZOIC ACID SALT
Formula: C22 H23 N O5
State: SOLID (OIL MULL)
Class: COBLENTZ III
Instrument: Not specified, most likely a prism spectrometer.
Instrument parameters: NaCl PRISM
Sampling: TRANSMISSION
Resolution: 2
Origin: SMITH KLINE & FRENCH LABS.
MICROMETERS	TRANSMITTANCE
2.004	0.8
2.04306	0.805
2.08211	0.817
2.12117	0.824
2.16023	0.83
2.19929	0.837
2.23834	0.846
2.2774	0.847
2.31646	0.852
2.35552	0.848
2.39457	0.853
2.43363	0.862
2.47269	0.868
2.51174	0.866
2.5508	0.885
2.58986	0.891
2.62892	0.897
2.66797	0.899
2.70703	0.908
2.74609	0.911
2.78515	0.912
2.8242	0.908
2.86326	0.892
2.90232	0.862
2.94137	0.793
2.98043	0.524
3.01949	0.733
3.05855	0.788
3.0976	0.802
3.13666	0.8
3.17572	0.778
3.21478	0.74
3.25383	0.696
3.29289	0.638
3.33195	0.556
3.371	0.517
3.41006	0.384
3.44912	0.083
3.48818	0.01
3.52723	0.088
3.56629	0.162
3.60535	0.392
3.64441	0.556
3.68346	0.558
3.72252	0.534
3.76158	0.542
3.80063	0.591
3.83969	0.616
3.87875	0.65
3.91781	0.689
3.95686	0.704
3.99592	0.725
4.03498	0.736
4.07404	0.729
4.11309	0.726
4.15215	0.777
4.19121	0.812
4.23026	0.847
4.26932	0.858
4.30838	0.864
4.34744	0.868
4.38649	0.888
4.42555	0.898
4.46461	0.903
4.50366	0.909
4.54272	0.918
4.58178	0.914
4.62084	0.915
4.65989	0.923
4.69895	0.928
4.73801	0.929
4.77707	0.927
4.81612	0.929
4.85518	0.922
4.89424	0.927
4.93329	0.929
4.97235	0.928
5.01141	0.927
5.05047	0.926
5.08952	0.925
5.12858	0.922
5.16764	0.921
5.2067	0.921
5.24575	0.921
5.28481	0.92
5.32387	0.917
5.36292	0.921
5.40198	0.918
5.44104	0.918
5.4801	0.92
5.51915	0.921
5.55821	0.92
5.59727	0.921
5.63633	0.916
5.67538	0.916
5.71444	0.912
5.7535	0.903
5.79255	0.909
5.83161	0.91
5.87067	0.891
5.90973	0.899
5.94878	0.876
5.98784	0.864
6.0269	0.86
6.06596	0.841
6.10501	0.798
6.14407	0.674
6.18313	0.593
6.22218	0.573
6.26124	0.522
6.3003	0.446
6.33936	0.643
6.37841	0.725
6.41747	0.704
6.45653	0.605
6.49559	0.594
6.53464	0.679
6.5737	0.782
6.61276	0.813
6.65181	0.804
6.69087	0.732
6.72993	0.629
6.76899	0.495
6.80804	0.478
6.8471	0.24
6.88616	0.232
6.92522	0.314
6.96427	0.552
7.00333	0.408
7.04239	0.227
7.08144	0.487
7.1205	0.555
7.15956	0.515
7.19862	0.449
7.23767	0.298
7.27673	0.237
7.31579	0.261
7.35485	0.324
7.3939	0.347
7.43296	0.446
7.47202	0.573
7.51107	0.631
7.55013	0.666
7.58919	0.697
7.62825	0.723
7.6673	0.681
7.70636	0.735
7.74542	0.758
7.78448	0.717
7.82353	0.6
7.86259	0.594
7.90165	0.395
7.9407	0.466
7.97976	0.645
8.01882	0.654
8.05788	0.582
8.09693	0.455
8.13599	0.659
8.17505	0.752
8.21411	0.792
8.25316	0.813
8.29222	0.825
8.33128	0.84
8.37033	0.84
8.40939	0.829
8.44845	0.84
8.48751	0.839
8.52656	0.823
8.56562	0.821
8.60468	0.788
8.64374	0.777
8.68279	0.731
8.72185	0.735
8.76091	0.738
8.79996	0.8
8.83902	0.836
8.87808	0.851
8.91714	0.859
8.95619	0.859
8.99525	0.859
9.03431	0.858
9.07336	0.856
9.11242	0.819
9.15148	0.741
9.19054	0.703
9.22959	0.718
9.26865	0.737
9.30771	0.765
9.34677	0.806
9.38582	0.817
9.42488	0.792
9.46394	0.756
9.50299	0.823
9.54205	0.842
9.58111	0.851
9.62017	0.85
9.65922	0.801
9.69828	0.813
9.73734	0.808
9.7764	0.646
9.81545	0.599
9.85451	0.782
9.89357	0.846
9.93262	0.866
9.97168	0.879
10.0107	0.875
10.0498	0.846
10.0889	0.875
10.1279	0.889
10.167	0.892
10.206	0.893
10.2451	0.891
10.2841	0.887
10.3232	0.882
10.3623	0.88
10.4013	0.882
10.4404	0.852
10.4794	0.86
10.5185	0.888
10.5575	0.889
10.5966	0.88
10.6357	0.876
10.6747	0.888
10.7138	0.886
10.7528	0.88
10.7919	0.877
10.8309	0.882
10.87	0.885
10.9091	0.86
10.9481	0.806
10.9872	0.712
11.0262	0.691
11.0653	0.727
11.1043	0.782
11.1434	0.814
11.1825	0.83
11.2215	0.84
11.2606	0.837
11.2996	0.833
11.3387	0.83
11.3777	0.824
11.4168	0.812
11.4559	0.712
11.4949	0.679
11.534	0.605
11.573	0.557
11.6121	0.548
11.6511	0.592
11.6902	0.683
11.7293	0.754
11.7683	0.788
11.8074	0.813
11.8464	0.834
11.8855	0.839
11.9245	0.84
11.9636	0.825
12.0027	0.74
12.0417	0.691
12.0808	0.694
12.1198	0.784
12.1589	0.819
12.1979	0.829
12.237	0.83
12.2761	0.83
12.3151	0.825
12.3542	0.817
12.3932	0.816
12.4323	0.81
12.4713	0.806
12.5104	0.804
12.5495	0.801
12.5885	0.785
12.6276	0.771
12.6666	0.738
12.7057	0.656
12.7447	0.591
12.7838	0.732
12.8229	0.829
12.8619	0.788
12.901	0.702
12.94	0.638
12.9791	0.684
13.0181	0.77
13.0572	0.795
13.0963	0.772
13.1353	0.661
13.1744	0.42
13.2134	0.376
13.2525	0.607
13.2915	0.712
13.3306	0.726
13.3697	0.709
13.4087	0.725
13.4478	0.759
13.4868	0.771
13.5259	0.752
13.565	0.667
13.604	0.592
13.6431	0.698
13.6821	0.746
13.7212	0.775
13.7602	0.792
13.7993	0.804
13.8384	0.808
13.8774	0.807
13.9165	0.807
13.9555	0.807
13.9946	0.812
14.0336	0.818
14.0727	0.822
14.1118	0.819
14.1508	0.804
14.1899	0.792
14.2289	0.772
14.268	0.741
14.307	0.694
14.3461	0.604
14.3852	0.519
14.4242	0.452
14.4633	0.425
14.5023	0.568
14.5414	0.688
14.5804	0.743
14.6195	0.76
14.6586	0.767
14.6976	0.767
14.7367	0.764
14.7757	0.76
14.8148	0.758
14.8538	0.752
14.8929	0.743
14.932	0.737
14.971	0.735
15.0101	0.72
15.0491	0.711
15.0882	0.715
15.1272	0.712
15.1663	0.708
15.2054	0.702
15.2444	0.695
15.2835	0.688
15.3225	0.675
15.3616	0.648
15.4006	0.613
15.4397	0.569
15.4788	0.54
15.5178	0.573
15.5569	0.607
15.5959	0.621
15.635	0.628
15.674	0.631
15.7131	0.631
