Infrared Spectrum: Ethanol, 2-[(6(1H)-oxo-9H-purin-2-yl)thio]- (keto form)
Formula: C7 H8 N4 O2 S
State: SOLID (KBr DISC)
Class: COBLENTZ III
Instrument: PERKIN-ELMER 21 (GRATING)
Instrument parameters: FILTER CHANGE ABOUT 1090 CM^-^1
Sampling: TRANSMISSION
Resolution: 2
Origin: SOUTHERN RESEARCH INSTITUTE
1/CM	TRANSMITTANCE
601.64	0.5804
610.686	0.5816
619.732	0.5762
628.778	0.5788
637.824	0.5823
646.87	0.5592
655.915	0.4842
664.961	0.4788
674.007	0.4389
683.053	0.3575
692.099	0.4887
701.145	0.4767
710.191	0.497
719.237	0.5045
728.283	0.4799
737.329	0.4699
746.375	0.4713
755.421	0.4712
764.466	0.4602
773.512	0.3902
782.558	0.2568
791.604	0.2138
800.65	0.4766
809.696	0.4797
818.742	0.464
827.788	0.449
836.834	0.4108
845.88	0.3652
854.926	0.3357
863.971	0.3504
873.017	0.3467
882.063	0.324
891.109	0.2942
900.155	0.304
909.201	0.398
918.247	0.4112
927.293	0.3913
936.339	0.3395
945.385	0.2756
954.431	0.2315
963.477	0.366
972.522	0.4761
981.568	0.5367
990.614	0.5281
999.66	0.5023
1008.71	0.4129
1017.75	0.3171
1026.8	0.3421
1035.84	0.3431
1044.89	0.2451
1053.94	0.3769
1062.98	0.4002
1072.03	0.4179
1081.07	0.4947
1090.12	0.5273
1099.17	0.4707
1108.21	0.4448
1117.26	0.3329
1126.3	0.3578
1135.35	0.4127
1144.39	0.3998
1153.44	0.3566
1162.49	0.3325
1171.53	0.2516
1180.58	0.2668
1189.62	0.3296
1198.67	0.3804
1207.72	0.2992
1216.76	0.209
1225.81	0.1566
1234.85	0.1775
1243.9	0.3035
1252.95	0.5136
1261.99	0.4996
1271.04	0.5327
1280.08	0.4961
1289.13	0.468
1298.18	0.4933
1307.22	0.5037
1316.27	0.4857
1325.31	0.4615
1334.36	0.4215
1343.4	0.3585
1352.45	0.2398
1361.5	0.1332
1370.54	0.1109
1379.59	0.3911
1388.63	0.3784
1397.68	0.3869
1406.73	0.3712
1415.77	0.3864
1424.82	0.3883
1433.86	0.3749
1442.91	0.3405
1451.96	0.2674
1461	0.2234
1470.05	0.252
1479.09	0.3048
1488.14	0.3181
1497.19	0.3505
1506.23	0.3601
1515.28	0.3257
1524.32	0.3016
1533.37	0.2378
1542.41	0.1932
1551.46	0.1927
1560.51	0.1901
1569.55	0.1703
1578.6	0.1367
1587.64	0.2085
1596.69	0.3175
1605.74	0.3518
1614.78	0.3298
1623.83	0.2897
1632.87	0.2364
1641.92	0.1876
1650.97	0.0904
1660.01	0.0448
1669.06	0.027
1678.1	0.024
1687.15	0.0293
1696.2	0.0482
1705.24	0.0611
1714.29	0.0985
1723.33	0.1532
1732.38	0.3114
1741.43	0.4111
1750.47	0.4683
1759.52	0.5062
1768.56	0.5504
1777.61	0.5756
1786.65	0.5838
1795.7	0.5888
1804.75	0.5982
1813.79	0.6041
1822.84	0.6087
1831.88	0.6096
1840.93	0.6127
1849.98	0.6142
1859.02	0.6106
1868.07	0.6097
1877.11	0.6095
1886.16	0.6127
1895.21	0.6163
1904.25	0.6165
1913.3	0.6154
1922.34	0.6149
1931.39	0.6197
1940.44	0.6229
1949.48	0.6226
1958.53	0.6242
1967.57	0.6242
1976.62	0.6213
1985.66	0.6194
1994.71	0.6173
2003.76	0.6148
2012.8	0.6122
2021.85	0.6095
2030.89	0.6065
2039.94	0.6032
2048.99	0.6001
2058.03	0.5967
2067.08	0.5932
2076.12	0.5893
2085.17	0.5853
2094.22	0.5809
2103.26	0.5758
2112.31	0.57
2121.35	0.5641
2130.4	0.5585
2139.45	0.5566
2148.49	0.5565
2157.54	0.5557
2166.58	0.5515
2175.63	0.5454
2184.67	0.5392
2193.72	0.5321
2202.77	0.525
2211.81	0.5174
2220.86	0.5098
2229.9	0.503
2238.95	0.4963
2248	0.4904
2257.04	0.4847
2266.09	0.4792
2275.13	0.4738
2284.18	0.4656
2293.23	0.4568
2302.27	0.4472
2311.32	0.4381
2320.36	0.4319
2329.41	0.4258
2338.46	0.4208
2347.5	0.4158
2356.55	0.4107
2365.59	0.4056
2374.64	0.4003
2383.68	0.3941
2392.73	0.3872
2401.78	0.3764
2410.82	0.3653
2419.87	0.3538
2428.91	0.3423
2437.96	0.3333
2447.01	0.3244
2456.05	0.316
2465.1	0.3087
2474.14	0.3013
2483.19	0.2929
2492.24	0.2844
2501.28	0.2759
2510.33	0.2679
2519.37	0.2601
2528.42	0.2525
2537.47	0.245
2546.51	0.2367
2555.56	0.2273
2564.6	0.2183
2573.65	0.2105
2582.69	0.203
2591.74	0.1903
2600.79	0.1738
2609.83	0.1681
2618.88	0.1662
2627.92	0.1685
2636.97	0.1691
2646.02	0.1646
2655.06	0.1556
2664.11	0.1529
2673.15	0.1553
2682.2	0.1482
2691.25	0.1447
2700.29	0.1448
2709.34	0.1397
2718.38	0.1285
2727.43	0.1253
2736.48	0.1235
2745.52	0.1189
2754.57	0.1009
2763.61	0.0966
2772.66	0.0934
2781.71	0.0908
2790.75	0.089
2799.8	0.0889
2808.84	0.0898
2817.89	0.0934
2826.93	0.0987
2835.98	0.1039
2845.03	0.1091
2854.07	0.1132
2863.12	0.1173
2872.16	0.1213
2881.21	0.1249
2890.26	0.1286
2899.3	0.1329
2908.35	0.1371
2917.39	0.1406
2926.44	0.144
2935.49	0.1474
2944.53	0.1507
2953.58	0.154
2962.62	0.1573
2971.67	0.1605
2980.72	0.1638
2989.76	0.1672
2998.81	0.1695
3007.85	0.1705
3016.9	0.1684
3025.94	0.165
3034.99	0.1605
3044.04	0.1611
3053.08	0.1637
3062.13	0.1669
3071.17	0.1684
3080.22	0.166
3089.27	0.1604
3098.31	0.1592
3107.36	0.1632
3116.4	0.1696
3125.45	0.1812
3134.5	0.1966
3143.54	0.211
3152.59	0.2254
3161.63	0.2402
3170.68	0.2518
3179.73	0.2611
3188.77	0.2676
3197.82	0.273
3206.86	0.279
3215.91	0.2853
3224.95	0.2925
3234	0.3008
3243.05	0.3092
3252.09	0.3138
3261.14	0.3178
3270.18	0.3218
3279.23	0.3258
3288.28	0.3294
3297.32	0.3322
3306.37	0.3339
3315.41	0.3343
3324.46	0.3339
3333.51	0.3313
3342.55	0.3276
3351.6	0.3229
3360.64	0.318
3369.69	0.3138
3378.74	0.3106
3387.78	0.3097
3396.83	0.3091
3405.87	0.3108
3414.92	0.3121
3423.96	0.3131
3433.01	0.3164
3442.06	0.324
3451.1	0.3248
3460.15	0.327
3469.19	0.3388
3478.24	0.351
3487.29	0.3617
3496.33	0.3722
3505.38	0.3819
3514.42	0.3916
3523.47	0.4012
3532.52	0.4107
3541.56	0.4196
3550.61	0.4287
3559.65	0.4388
3568.7	0.4497
3577.75	0.4679
3586.79	0.4851
3595.84	0.4972
3604.88	0.5079
3613.93	0.5196
3622.97	0.53
3632.02	0.5397
3641.07	0.5621
3650.11	0.5728
3659.16	0.5733
3668.2	0.5778
3677.25	0.5878
3686.3	0.5921
3695.34	0.5947
3704.39	0.5939
3713.43	0.595
3722.48	0.5945
3731.53	0.594
3740.57	0.5937
3749.62	0.5933
3758.66	0.5913
3767.71	0.5881
3776.76	0.586
3785.8	0.5833
3794.85	0.5809
3803.89	0.5788
3812.94	0.5774
3821.99	0.5769
3831.03	0.5771
3840.08	0.5766
3849.12	0.5739
3858.17	0.5713
3867.21	0.5694
3876.26	0.5682
3885.31	0.5681
3894.35	0.5654
3903.4	0.5666
3912.44	0.5693
3921.49	0.568
3930.54	0.5654
3939.58	0.5615
3948.63	0.558
3957.67	0.5556
3966.72	0.5533
3975.77	0.5513
3984.81	0.5495
3993.86	0.5477
4002.9	0.5426
4011.95	0.5358
