Infrared Spectrum: COBALTOUS OXALATE
Formula: Co C2 O4
State: SOLID (KBr DISC)
Class: COBLENTZ
Instrument: Not specified, most likely a prism, grating, or hybrid spectrometer.
Sampling: TRANSMISSION
Resolution: 4
MICROMETERS	TRANSMITTANCE
2.02	0.607
2.05807	0.61
2.09614	0.617
2.13421	0.625
2.17228	0.633
2.21035	0.639
2.24842	0.642
2.28649	0.65
2.32457	0.657
2.36264	0.663
2.40071	0.669
2.43878	0.674
2.47685	0.681
2.51492	0.683
2.55299	0.684
2.59106	0.684
2.62913	0.686
2.6672	0.688
2.70527	0.69
2.74334	0.69
2.78141	0.666
2.81948	0.568
2.85755	0.428
2.89562	0.315
2.9337	0.224
2.97177	0.125
3.00984	0.139
3.04791	0.272
3.08598	0.386
3.12405	0.471
3.16212	0.537
3.20019	0.565
3.23826	0.599
3.27633	0.639
3.3144	0.683
3.35247	0.709
3.39054	0.727
3.42861	0.744
3.46668	0.76
3.50475	0.778
3.54283	0.791
3.5809	0.797
3.61897	0.802
3.65704	0.809
3.69511	0.813
3.73318	0.825
3.77125	0.836
3.80932	0.843
3.84739	0.846
3.88546	0.846
3.92353	0.849
3.9616	0.851
3.99967	0.854
4.03774	0.857
4.07581	0.858
4.11388	0.858
4.15196	0.86
4.19003	0.86
4.2281	0.86
4.26617	0.86
4.30424	0.86
4.34231	0.861
4.38038	0.867
4.41845	0.872
4.45652	0.873
4.49459	0.873
4.53266	0.875
4.57073	0.875
4.6088	0.875
4.64687	0.875
4.68494	0.875
4.72301	0.875
4.76109	0.876
4.79916	0.88
4.83723	0.882
4.8753	0.886
4.91337	0.888
4.95144	0.889
4.98951	0.894
5.02758	0.897
5.06565	0.9
5.10372	0.9
5.14179	0.898
5.17986	0.897
5.21793	0.897
5.256	0.897
5.29407	0.898
5.33215	0.9
5.37022	0.901
5.40829	0.901
5.44636	0.901
5.48443	0.9
5.5225	0.901
5.56057	0.9
5.59864	0.897
5.63671	0.888
5.67478	0.877
5.71285	0.866
5.75092	0.842
5.78899	0.757
5.82706	0.677
5.86513	0.561
5.9032	0.428
5.94128	0.261
5.97935	0.165
6.01742	0.105
6.05549	0.069
6.09356	0.062
6.13163	0.055
6.1697	0.063
6.20777	0.184
6.24584	0.339
6.28391	0.447
6.32198	0.563
6.36005	0.636
6.39812	0.681
6.43619	0.733
6.47426	0.754
6.51233	0.772
6.55041	0.796
6.58848	0.809
6.62655	0.821
6.66462	0.834
6.70269	0.849
6.74076	0.86
6.77883	0.861
6.8169	0.863
6.85497	0.861
6.89304	0.864
6.93111	0.863
6.96918	0.861
7.00725	0.861
7.04532	0.863
7.08339	0.867
7.12146	0.87
7.15954	0.873
7.19761	0.873
7.23568	0.87
7.27375	0.818
7.31182	0.602
7.34989	0.462
7.38796	0.569
7.42603	0.654
7.4641	0.684
7.50217	0.683
7.54024	0.529
7.57831	0.343
7.61638	0.379
7.65445	0.598
7.69252	0.703
7.73059	0.779
7.76867	0.828
7.80674	0.866
7.84481	0.882
7.88288	0.895
7.92095	0.904
7.95902	0.91
7.99709	0.916
8.03516	0.921
8.07323	0.924
8.1113	0.925
8.14937	0.927
8.18744	0.93
8.22551	0.93
8.26358	0.931
8.30165	0.933
8.33973	0.936
8.3778	0.938
8.41587	0.94
8.45394	0.941
8.49201	0.943
8.53008	0.946
8.56815	0.946
8.60622	0.946
8.64429	0.946
8.68236	0.947
8.72043	0.949
8.7585	0.949
8.79657	0.952
8.83464	0.953
8.87271	0.953
8.91078	0.953
8.94886	0.955
8.98693	0.953
9.025	0.955
9.06307	0.955
9.10114	0.956
9.13921	0.956
9.17728	0.958
9.21535	0.961
9.25342	0.962
9.29149	0.964
9.32956	0.964
9.36763	0.964
9.4057	0.965
9.44377	0.965
9.48184	0.965
9.51991	0.965
9.55799	0.965
9.59606	0.965
9.63413	0.967
9.6722	0.967
9.71027	0.968
9.74834	0.968
9.78641	0.97
9.82448	0.971
9.86255	0.971
9.90062	0.973
9.93869	0.974
9.97676	0.976
10.0148	0.979
10.0529	0.979
10.091	0.98
10.129	0.98
10.1671	0.98
10.2052	0.982
10.2433	0.982
10.2813	0.982
10.3194	0.982
10.3575	0.983
10.3955	0.983
10.4336	0.983
10.4717	0.983
10.5098	0.983
10.5478	0.983
10.5859	0.983
10.624	0.983
10.662	0.983
10.7001	0.983
10.7382	0.983
10.7762	0.983
10.8143	0.983
10.8524	0.982
10.8905	0.979
10.9285	0.977
10.9666	0.973
11.0047	0.971
11.0427	0.971
11.0808	0.971
11.1189	0.97
11.157	0.97
11.195	0.967
11.2331	0.965
11.2712	0.965
11.3092	0.964
11.3473	0.961
11.3854	0.959
11.4234	0.953
11.4615	0.95
11.4996	0.944
11.5377	0.938
11.5757	0.928
11.6138	0.918
11.6519	0.907
11.6899	0.894
11.728	0.877
11.7661	0.861
11.8042	0.833
11.8422	0.8
11.8803	0.755
11.9184	0.714
11.9564	0.675
11.9945	0.629
12.0326	0.601
12.0706	0.571
12.1087	0.563
12.1468	0.565
12.1849	0.587
12.2229	0.617
12.261	0.639
12.2991	0.666
12.3371	0.687
12.3752	0.708
12.4133	0.717
12.4514	0.72
12.4894	0.723
12.5275	0.724
12.5656	0.726
12.6036	0.726
12.6417	0.726
12.6798	0.726
12.7178	0.726
12.7559	0.726
12.794	0.726
12.8321	0.726
12.8701	0.727
12.9082	0.726
12.9463	0.726
12.9843	0.724
13.0224	0.726
13.0605	0.726
13.0986	0.724
13.1366	0.721
13.1747	0.718
13.2128	0.717
13.2508	0.714
13.2889	0.712
13.327	0.711
13.365	0.709
13.4031	0.709
13.4412	0.709
13.4793	0.712
13.5173	0.712
13.5554	0.714
13.5935	0.715
13.6315	0.718
13.6696	0.721
13.7077	0.727
13.7458	0.729
13.7838	0.733
13.8219	0.738
13.86	0.739
13.898	0.741
13.9361	0.745
13.9742	0.75
14.0122	0.751
14.0503	0.752
14.0884	0.754
14.1265	0.755
14.1645	0.757
14.2026	0.758
14.2407	0.76
14.2787	0.761
14.3168	0.763
14.3549	0.764
14.393	0.766
14.431	0.764
14.4691	0.766
14.5072	0.767
14.5452	0.769
14.5833	0.767
14.6214	0.767
14.6595	0.767
14.6975	0.767
14.7356	0.767
14.7737	0.767
14.8117	0.766
14.8498	0.767
14.8879	0.766
14.9259	0.766
14.964	0.767
15.0021	0.77
