Infrared Spectrum: 2,6-Dimethyl morpholine hydrochloride, hydrate
Formula: C6 H14 Cl N O  * H2 O
State: SOLID (SPLIT MULL), FLUOROLUBE FOR 3800-1330 CM^-^1, NUJOL FOR 1330-470 CM^-^1
Class: COBLENTZ III
Instrument: DOW KBr FOREPRISM-GRATING
Instrument parameters: BLAZED AT 3.5, 12.0, 20.0 MICRON AND CHANGED AT 5.0, 7.5, 14.9 MICRON
Sampling: TRANSMISSION
Resolution: 2
Origin: DOW CHEMICAL COMPANY
1/CM	TRANSMITTANCE
468	0.7856
477	0.7971
486	0.7575
495	0.6202
504	0.5877
513	0.7757
522	0.7701
531	0.7715
540	0.8266
549	0.8483
558	0.8609
567	0.8704
576	0.8706
585	0.8588
594	0.8427
603	0.8875
612	0.8906
621	0.8934
630	0.8957
639	0.9041
648	0.9049
657	0.9065
666	0.9054
675	0.8964
684	0.8739
693	0.8753
702	0.8664
711	0.8438
720	0.7978
729	0.8223
738	0.8291
747	0.8468
756	0.8532
765	0.8551
774	0.8566
783	0.8604
792	0.858
801	0.8405
810	0.8151
819	0.7174
828	0.8443
837	0.8375
846	0.8117
855	0.7178
864	0.6571
873	0.6549
882	0.8247
891	0.8181
900	0.7993
909	0.8007
918	0.7682
927	0.8082
936	0.8049
945	0.7899
954	0.7321
963	0.6303
972	0.7205
981	0.609
990	0.6468
999	0.7878
1008	0.7906
1017	0.7541
1026	0.6924
1035	0.3727
1044	0.3277
1053	0.7184
1062	0.7811
1071	0.7344
1080	0.4936
1089	0.6301
1098	0.5154
1107	0.3862
1116	0.5236
1125	0.14
1134	0.6004
1143	0.7122
1152	0.7411
1161	0.7358
1170	0.5846
1179	0.4398
1188	0.7775
1197	0.7969
1206	0.7821
1215	0.7326
1224	0.751
1233	0.7757
1242	0.7957
1251	0.7878
1260	0.7661
1269	0.7721
1278	0.7739
1287	0.7618
1296	0.7389
1305	0.7028
1314	0.6484
1323	0.4265
1332	0.6398
1341	0.7436
1350	0.7246
1359	0.6077
1368	0.6838
1377	0.4636
1386	0.6293
1395	0.6787
1404	0.5854
1413	0.7333
1422	0.7033
1431	0.6725
1440	0.6454
1449	0.5882
1458	0.3812
1467	0.5162
1476	0.7724
1485	0.8091
1494	0.818
1503	0.8225
1512	0.8262
1521	0.8262
1530	0.8228
1539	0.8328
1548	0.8361
1557	0.841
1566	0.8385
1575	0.8334
1584	0.8061
1593	0.6601
1602	0.5648
1611	0.8051
1620	0.7689
1629	0.7842
1638	0.8218
1647	0.8306
1656	0.8432
1665	0.8459
1674	0.8511
1683	0.8568
1692	0.8607
1701	0.8566
1710	0.839
1719	0.8373
1728	0.8371
1737	0.8618
1746	0.8653
1755	0.8678
1764	0.8684
1773	0.8644
1782	0.861
1791	0.8631
1800	0.8547
1809	0.859
1818	0.8723
1827	0.8696
1836	0.8682
1845	0.8693
1854	0.8682
1863	0.8678
1872	0.8695
1881	0.8696
1890	0.8631
1899	0.8532
1908	0.8442
1917	0.847
1926	0.8382
1935	0.827
1944	0.8171
1953	0.8274
1962	0.8364
1971	0.846
1980	0.874
1989	0.8864
1998	0.8886
2007	0.8901
2016	0.8921
2025	0.8903
2034	0.8825
2043	0.8725
2052	0.8644
2061	0.8628
2070	0.8567
2079	0.8414
2088	0.845
2097	0.8631
2106	0.8677
2115	0.8682
2124	0.871
2133	0.8666
2142	0.8655
2151	0.8627
2160	0.8578
2169	0.8499
2178	0.8371
2187	0.8161
2196	0.7795
2205	0.8305
2214	0.8405
2223	0.8383
2232	0.8364
2241	0.8337
2250	0.8293
2259	0.8243
2268	0.8187
2277	0.8101
2286	0.7976
2295	0.7865
2304	0.7781
2313	0.7711
2322	0.7657
2331	0.7603
2340	0.7555
2349	0.7506
2358	0.7472
2367	0.7456
2376	0.7434
2385	0.7358
2394	0.7164
2403	0.6895
2412	0.634
2421	0.5442
2430	0.6292
2439	0.7176
2448	0.7001
2457	0.67
2466	0.6152
2475	0.5569
2484	0.6012
2493	0.579
2502	0.5271
2511	0.4004
2520	0.3177
2529	0.4104
2538	0.4583
2547	0.4162
2556	0.3742
2565	0.3353
2574	0.398
2583	0.5377
2592	0.6077
2601	0.6024
2610	0.5824
2619	0.5167
2628	0.4767
2637	0.4347
2646	0.3684
2655	0.3452
2664	0.302
2673	0.2435
2682	0.2484
2691	0.2089
2700	0.2369
2709	0.2135
2718	0.2022
2727	0.224
2736	0.2166
2745	0.1961
2754	0.1427
2763	0.0703
2772	0.0632
2781	0.0919
2790	0.1669
2799	0.1604
2808	0.1204
2817	0.1765
2826	0.2495
2835	0.2281
2844	0.201
2853	0.2339
2862	0.2803
2871	0.2305
2880	0.2037
2889	0.3216
2898	0.3126
2907	0.2703
2916	0.2559
2925	0.2233
2934	0.1844
2943	0.1341
2952	0.119
2961	0.1342
2970	0.1664
2979	0.1972
2988	0.2409
2997	0.3234
3006	0.3987
3015	0.4935
3024	0.5754
3033	0.6415
3042	0.6787
3051	0.7067
3060	0.7308
3069	0.7492
3078	0.7617
3087	0.7722
3096	0.7808
3105	0.7865
3114	0.7919
3123	0.7972
3132	0.8024
3141	0.8078
3150	0.8135
3159	0.8154
3168	0.8138
3177	0.805
3186	0.7915
3195	0.7854
3204	0.7928
3213	0.8119
3222	0.8176
3231	0.8185
3240	0.8185
3249	0.8175
3258	0.8165
3267	0.8149
3276	0.8125
3285	0.8096
3294	0.805
3303	0.8001
3312	0.7944
3321	0.7889
3330	0.7864
3339	0.7851
3348	0.7765
3357	0.7658
3366	0.7571
3375	0.7474
3384	0.7357
3393	0.7205
3402	0.6971
3411	0.653
3420	0.5436
3429	0.4367
3438	0.5072
3447	0.6137
3456	0.6135
3465	0.516
3474	0.3943
3483	0.2724
3492	0.2239
3501	0.3592
3510	0.4789
3519	0.5977
3528	0.7025
3537	0.754
3546	0.7769
3555	0.7868
3564	0.7917
3573	0.7944
3582	0.7957
3591	0.7999
3600	0.8125
3609	0.8341
3618	0.842
3627	0.8456
3636	0.8475
3645	0.8478
3654	0.8475
3663	0.847
3672	0.8465
3681	0.8457
3690	0.8449
3699	0.8438
3708	0.8427
3717	0.8415
3726	0.8403
3735	0.8391
3744	0.8378
3753	0.8368
3762	0.8357
3771	0.8347
3780	0.834
3789	0.8335
3798	0.8332
