Infrared Spectrum: BENZIDINE, DIHYDROCHLORIDE
Formula: C12 H14 Cl2 N2
State: SOLID (SPLIT MULL)
Class: COBLENTZ III
Instrument: BECKMAN IR-9 (GRATING)
Instrument parameters: ORDER CHANGES: 670, 1200, 2000 CM^-^1
Sampling: TRANSMISSION
Resolution: 2
Origin: DOW CHEMICAL COMPANY
1/CM	TRANSMITTANCE
3800	0.5202
3791	0.522
3782	0.5241
3773	0.526
3764	0.5279
3755	0.5298
3746	0.5317
3737	0.5337
3728	0.5358
3719	0.5379
3710	0.5401
3701	0.5423
3692	0.5445
3683	0.5467
3674	0.5486
3665	0.5504
3656	0.5522
3647	0.5541
3638	0.5565
3629	0.5589
3620	0.5612
3611	0.5628
3602	0.5643
3593	0.566
3584	0.5676
3575	0.5692
3566	0.5701
3557	0.571
3548	0.572
3539	0.573
3530	0.5741
3521	0.5752
3512	0.5762
3503	0.5777
3494	0.5794
3485	0.581
3476	0.5826
3467	0.5845
3458	0.5872
3449	0.5897
3440	0.5923
3431	0.595
3422	0.5976
3413	0.6002
3404	0.6029
3395	0.607
3386	0.611
3377	0.6153
3368	0.6201
3359	0.6249
3350	0.6294
3341	0.6334
3332	0.6373
3323	0.6405
3314	0.644
3305	0.6478
3296	0.6506
3287	0.653
3278	0.6538
3269	0.6538
3260	0.6533
3251	0.6528
3242	0.6515
3233	0.6492
3224	0.6434
3215	0.6359
3206	0.628
3197	0.6182
3188	0.6085
3179	0.5994
3170	0.5912
3161	0.5786
3152	0.5629
3143	0.5436
3134	0.5235
3125	0.5076
3116	0.4983
3107	0.4906
3098	0.4769
3089	0.4585
3080	0.4346
3071	0.3514
3062	0.2812
3053	0.2983
3044	0.2874
3035	0.2724
3026	0.2471
3017	0.228
3008	0.214
2999	0.2052
2990	0.1979
2981	0.1902
2972	0.1825
2963	0.1729
2954	0.1603
2945	0.1449
2936	0.1264
2927	0.1134
2918	0.1053
2909	0.1
2900	0.0958
2891	0.0915
2882	0.0887
2873	0.0866
2864	0.0859
2855	0.086
2846	0.0889
2837	0.0916
2828	0.101
2819	0.1152
2810	0.134
2801	0.15
2792	0.1649
2783	0.1741
2774	0.1829
2765	0.1903
2756	0.1971
2747	0.2064
2738	0.2162
2729	0.2224
2720	0.2279
2711	0.2354
2702	0.2476
2693	0.2589
2684	0.27
2675	0.281
2666	0.2911
2657	0.3019
2648	0.3114
2639	0.3193
2630	0.32
2621	0.3178
2612	0.3143
2603	0.3114
2594	0.3023
2585	0.28
2576	0.2563
2567	0.2357
2558	0.2117
2549	0.2081
2540	0.2321
2531	0.2632
2522	0.2917
2513	0.3386
2504	0.3759
2495	0.4012
2486	0.4262
2477	0.4505
2468	0.4693
2459	0.4865
2450	0.5036
2441	0.5147
2432	0.5259
2423	0.5369
2414	0.5478
2405	0.5579
2396	0.5679
2387	0.5777
2378	0.586
2369	0.5943
2360	0.6021
2351	0.609
2342	0.6158
2333	0.6216
2324	0.6276
2315	0.6336
2306	0.6397
2297	0.6461
2288	0.6525
2279	0.6576
2270	0.6628
2261	0.6651
2252	0.6653
2243	0.664
2234	0.6624
2225	0.6707
2216	0.6839
2207	0.6969
2198	0.7071
2189	0.7151
2180	0.7228
2171	0.728
2162	0.7311
2153	0.736
2144	0.7419
2135	0.7476
2126	0.7535
2117	0.7598
2108	0.7655
2099	0.7707
2090	0.7741
2081	0.7751
2072	0.7741
2063	0.7728
2054	0.7717
2045	0.7701
2036	0.7678
2027	0.7636
2018	0.758
2009	0.7488
2000	0.7297
1991	0.7372
1982	0.7406
1973	0.7296
1964	0.7196
1955	0.7147
1946	0.7128
1937	0.7137
1928	0.7165
1919	0.7137
1910	0.736
1901	0.7495
1892	0.7601
1883	0.7694
1874	0.7783
1865	0.7868
1856	0.796
1847	0.8041
1838	0.8105
1829	0.8145
1820	0.818
1811	0.8221
1802	0.8271
1793	0.8317
1784	0.8358
1775	0.8397
1766	0.8445
1757	0.8506
1748	0.8551
1739	0.8571
1730	0.8578
1721	0.8591
1712	0.8594
1703	0.8581
1694	0.856
1685	0.8633
1676	0.8715
1667	0.8605
1658	0.8559
1649	0.8615
1640	0.8664
1631	0.8885
1622	0.8467
1613	0.5891
1604	0.7055
1595	0.8364
1586	0.7751
1577	0.7021
1568	0.7192
1559	0.5518
1550	0.6664
1541	0.7633
1532	0.706
1523	0.2674
1514	0.6626
1505	0.1757
1496	0.1745
1487	0.4335
1478	0.6595
1469	0.7165
1460	0.7521
1451	0.7725
1442	0.7782
1433	0.8
1424	0.8081
1415	0.7942
1406	0.7955
1397	0.8124
1388	0.8185
1379	0.8243
1370	0.8283
1361	0.8263
1352	0.8183
1343	0.7342
1334	0.7561
1325	0.7193
1316	0.5803
1307	0.7635
1298	0.7612
1289	0.7767
1280	0.7764
1271	0.7758
1262	0.7831
1253	0.7868
1244	0.7875
1235	0.7855
1226	0.7832
1217	0.7694
1208	0.4622
1199	0.7718
1190	0.7647
1181	0.7665
1172	0.7821
1163	0.7812
1154	0.7756
1145	0.7605
1136	0.7653
1127	0.7368
1118	0.544
1109	0.5312
1100	0.7457
1091	0.7437
1082	0.6712
1073	0.6584
1064	0.7015
1055	0.7158
1046	0.7822
1037	0.8035
1028	0.7507
1019	0.7797
1010	0.7532
1001	0.8132
992	0.8184
983	0.8114
974	0.7946
965	0.7951
956	0.8125
947	0.7971
938	0.8141
929	0.8243
920	0.8256
911	0.8274
902	0.829
893	0.8317
884	0.8316
875	0.8307
866	0.8259
857	0.7865
848	0.8022
839	0.7191
830	0.799
821	0.773
812	0.147
803	0.453
794	0.6868
785	0.8118
776	0.8136
767	0.8151
758	0.8171
749	0.8139
740	0.805
731	0.7986
722	0.796
713	0.8353
704	0.8335
695	0.8586
686	0.8615
677	0.8611
668	0.8943
659	0.8721
650	0.8652
641	0.7922
632	0.8499
623	0.9013
614	0.9085
605	0.9135
596	0.9165
587	0.9188
578	0.9199
569	0.9186
560	0.9166
551	0.91
542	0.7385
533	0.8258
524	0.8291
515	0.5343
506	0.8025
497	0.6858
488	0.5715
479	0.8296
470	0.8344
461	0.7998
452	0.7751
443	0.7205
434	0.7011
425	0.6378
416	0.552
407	0.523
