Infrared Spectrum: 3H-v-TRIAZOLO[4,5-d]-v-TRIAZIN-7-OL, DIHYDRATE
Formula: C3 H2 N6 O  * 2 H2 O
State: SOLID (1 mg / 650 mg KBr DISC)
Class: COBLENTZ III
Instrument: PERKIN-ELMER 21 (GRATING)
Instrument parameters: FILTER CHANGE AT 1090 CM^-^1
Sampling: TRANSMISSION
Resolution: 2
Origin: SOUTHERN RESEARCH INSTITUTE
1/CM	TRANSMITTANCE
608.315	0.599
617.436	0.6069
626.556	0.6259
635.677	0.7044
644.797	0.8045
653.918	0.8247
663.038	0.842
672.159	0.847
681.279	0.8283
690.4	0.8226
699.52	0.8292
708.641	0.827
717.761	0.841
726.882	0.844
736.002	0.8438
745.123	0.8388
754.243	0.8329
763.364	0.8237
772.484	0.8078
781.605	0.7571
790.725	0.4181
799.846	0.7362
808.966	0.795
818.087	0.7917
827.207	0.788
836.328	0.773
845.448	0.7522
854.569	0.7373
863.689	0.715
872.81	0.6942
881.93	0.6726
891.051	0.6297
900.171	0.5684
909.292	0.5585
918.413	0.574
927.533	0.574
936.654	0.5396
945.774	0.414
954.895	0.3021
964.015	0.4726
973.136	0.6724
982.256	0.7288
991.377	0.7435
1000.5	0.7376
1009.62	0.6825
1018.74	0.5936
1027.86	0.5513
1036.98	0.4357
1046.1	0.3749
1055.22	0.4948
1064.34	0.702
1073.46	0.7007
1082.58	0.6888
1091.7	0.5998
1100.82	0.6193
1109.94	0.7354
1119.06	0.749
1128.18	0.7192
1137.3	0.6331
1146.43	0.7174
1155.55	0.77
1164.67	0.736
1173.79	0.6198
1182.91	0.7446
1192.03	0.762
1201.15	0.7604
1210.27	0.753
1219.39	0.7411
1228.51	0.7125
1237.63	0.6517
1246.75	0.4126
1255.87	0.2895
1264.99	0.4309
1274.11	0.7459
1283.23	0.7974
1292.35	0.815
1301.47	0.822
1310.59	0.8211
1319.72	0.807
1328.84	0.7982
1337.96	0.788
1347.08	0.7559
1356.2	0.7263
1365.32	0.6567
1374.44	0.7308
1383.56	0.702
1392.68	0.8064
1401.8	0.811
1410.92	0.8086
1420.04	0.8107
1429.16	0.798
1438.28	0.793
1447.4	0.788
1456.52	0.777
1465.64	0.758
1474.76	0.729
1483.88	0.731
1493	0.7403
1502.13	0.7239
1511.25	0.6999
1520.37	0.6513
1529.49	0.5191
1538.61	0.664
1547.73	0.7041
1556.85	0.7274
1565.97	0.7316
1575.09	0.7132
1584.21	0.6959
1593.33	0.6707
1602.45	0.6321
1611.57	0.5544
1620.69	0.4457
1629.81	0.339
1638.93	0.4044
1648.05	0.5045
1657.17	0.5719
1666.29	0.585
1675.42	0.5481
1684.54	0.4591
1693.66	0.379
1702.78	0.3668
1711.9	0.3669
1721.02	0.3495
1730.14	0.3513
1739.26	0.238
1748.38	0.162
1757.5	0.2349
1766.62	0.3764
1775.74	0.5418
1784.86	0.6217
1793.98	0.6562
1803.1	0.6891
1812.22	0.705
1821.34	0.711
1830.46	0.7179
1839.58	0.727
1848.71	0.727
1857.83	0.7287
1866.95	0.731
1876.07	0.7362
1885.19	0.7485
1894.31	0.7545
1903.43	0.762
1912.55	0.7608
1921.67	0.766
1930.79	0.767
1939.91	0.7685
1949.03	0.77
1958.15	0.77
1967.27	0.77
1976.39	0.77
1985.51	0.768
1994.63	0.768
2003.75	0.7765
2012.87	0.779
2021.99	0.7751
2031.12	0.775
2040.24	0.7711
2049.36	0.771
2058.48	0.767
2067.6	0.7642
2076.72	0.7591
2085.84	0.757
2094.96	0.7589
2104.08	0.76
2113.2	0.758
2122.32	0.753
2131.44	0.7481
2140.56	0.746
2149.68	0.746
2158.8	0.744
2167.92	0.741
2177.04	0.745
2186.16	0.7509
2195.28	0.753
2204.41	0.755
2213.53	0.755
2222.65	0.753
2231.77	0.7512
2240.89	0.742
2250.01	0.739
2259.13	0.737
2268.25	0.7332
2277.37	0.733
2286.49	0.7311
2295.61	0.7261
2304.73	0.7202
2313.85	0.7082
2322.97	0.6934
2332.09	0.6755
2341.21	0.67
2350.33	0.6624
2359.45	0.657
2368.57	0.656
2377.69	0.656
2386.82	0.6532
2395.94	0.6471
2405.06	0.6452
2414.18	0.6341
2423.3	0.622
2432.42	0.6269
2441.54	0.6036
2450.66	0.5874
2459.78	0.5748
2468.9	0.568
2478.02	0.562
2487.14	0.5581
2496.26	0.555
2505.38	0.5472
2514.5	0.5421
2523.62	0.5292
2532.74	0.525
2541.86	0.5156
2550.98	0.5032
2560.11	0.4908
2569.23	0.4792
2578.35	0.4711
2587.47	0.4611
2596.59	0.449
2605.71	0.4441
2614.83	0.4351
2623.95	0.4252
2633.07	0.4192
2642.19	0.4102
2651.31	0.4012
2660.43	0.3941
2669.55	0.3832
2678.67	0.3721
2687.79	0.365
2696.91	0.361
2706.03	0.361
2715.15	0.359
2724.27	0.356
2733.39	0.354
2742.52	0.3421
2751.64	0.3352
2760.76	0.33
2769.88	0.329
2779	0.328
2788.12	0.3299
2797.24	0.3408
2806.36	0.3549
2815.48	0.3636
2824.6	0.3868
2833.72	0.4076
2842.84	0.4341
2851.96	0.4516
2861.08	0.459
2870.2	0.463
2879.32	0.463
2888.44	0.4581
2897.56	0.4472
2906.68	0.4187
2915.81	0.3922
2924.93	0.387
2934.05	0.3909
2943.17	0.4058
2952.29	0.4359
2961.41	0.4646
2970.53	0.4935
2979.65	0.5029
2988.77	0.5186
2997.89	0.5329
3007.01	0.5379
3016.13	0.5459
3025.25	0.558
3034.37	0.558
3043.49	0.5511
3052.61	0.5432
3061.73	0.5342
3070.85	0.5114
3079.97	0.4945
3089.1	0.4801
3098.22	0.479
3107.34	0.4876
3116.46	0.5135
3125.58	0.5504
3134.7	0.5869
3143.82	0.5978
3152.94	0.6018
3162.06	0.603
3171.18	0.5991
3180.3	0.595
3189.42	0.5912
3198.54	0.585
3207.66	0.578
3216.78	0.5742
3225.9	0.573
3235.02	0.5692
3244.14	0.569
3253.26	0.5708
3262.38	0.573
3271.51	0.5731
3280.63	0.569
3289.75	0.567
3298.87	0.5631
3307.99	0.5562
3317.11	0.5491
3326.23	0.5245
3335.35	0.512
3344.47	0.5001
3353.59	0.49
3362.71	0.4715
3371.83	0.4441
3380.95	0.4181
3390.07	0.3781
3399.19	0.3447
3408.31	0.3066
3417.43	0.2712
3426.55	0.2512
3435.67	0.249
3444.8	0.271
3453.92	0.3005
3463.04	0.3188
3472.16	0.3151
3481.28	0.3031
3490.4	0.269
3499.52	0.2014
3508.64	0.1641
3517.76	0.158
3526.88	0.1619
3536	0.1739
3545.12	0.2168
3554.24	0.2692
3563.36	0.3235
3572.48	0.3763
3581.6	0.4398
3590.72	0.4733
3599.84	0.5107
3608.96	0.5639
3618.08	0.5896
3627.21	0.6269
3636.33	0.6525
3645.45	0.6914
3654.57	0.7145
3663.69	0.7435
3672.81	0.7549
3681.93	0.7599
3691.05	0.7669
3700.17	0.7769
3709.29	0.784
3718.41	0.7899
3727.53	0.79
3736.65	0.789
3745.77	0.7841
3754.89	0.782
3764.01	0.7878
3773.13	0.79
3782.25	0.79
3791.37	0.79
3800.5	0.79
3809.62	0.78
3818.74	0.78
3827.86	0.779
3836.98	0.779
3846.1	0.7751
3855.22	0.773
3864.34	0.772
3873.46	0.7759
3882.58	0.78
3891.7	0.779
3900.82	0.78
3909.94	0.7665
3919.06	0.763
3928.18	0.768
3937.3	0.768
3946.42	0.7671
3955.54	0.763
3964.66	0.7669
3973.79	0.7642
3982.91	0.763
3992.03	0.763
4001.15	0.764
4010.27	0.764
