Infrared Spectrum: IMINODIACETIC ACID, MONO AMMONIUM SALT
Formula: C4 H10 N2 O4
State: SOLID (MINERAL OIL MULL)
Class: COBLENTZ
Instrument: Not specified, most likely a prism, grating, or hybrid spectrometer.
Sampling: TRANSMISSION
Resolution: 4
Origin: DOW CHEMICAL COMPANY
MICROMETERS	TRANSMITTANCE
2.033	0.804
2.07314	0.806
2.11327	0.811
2.15341	0.812
2.19355	0.807
2.23368	0.789
2.27382	0.793
2.31395	0.806
2.35409	0.817
2.39423	0.827
2.43436	0.847
2.4745	0.86
2.51464	0.885
2.55477	0.89
2.59491	0.908
2.63505	0.912
2.67518	0.915
2.71532	0.912
2.75546	0.912
2.79559	0.895
2.83573	0.882
2.87586	0.867
2.916	0.837
2.95614	0.779
2.99627	0.685
3.03641	0.567
3.07655	0.488
3.11668	0.43
3.15682	0.387
3.19696	0.319
3.23709	0.263
3.27723	0.226
3.31737	0.158
3.3575	0.029
3.39764	0.014
3.43777	0.021
3.47791	0.051
3.51805	0.168
3.55818	0.2
3.59832	0.22
3.63846	0.248
3.67859	0.288
3.71873	0.321
3.75887	0.332
3.799	0.322
3.83914	0.369
3.87928	0.422
3.91941	0.478
3.95955	0.519
3.99968	0.543
4.03982	0.548
4.07996	0.551
4.12009	0.552
4.16023	0.586
4.20037	0.63
4.2405	0.683
4.28064	0.735
4.32078	0.763
4.36091	0.789
4.40105	0.804
4.44118	0.806
4.48132	0.781
4.52146	0.748
4.56159	0.741
4.60173	0.756
4.64187	0.779
4.682	0.811
4.72214	0.837
4.76228	0.849
4.80241	0.859
4.84255	0.882
4.88269	0.887
4.92282	0.889
4.96296	0.885
5.00309	0.85
5.04323	0.837
5.08337	0.827
5.1235	0.801
5.16364	0.791
5.20378	0.789
5.24391	0.799
5.28405	0.814
5.32419	0.839
5.36432	0.852
5.40446	0.869
5.4446	0.885
5.48473	0.889
5.52487	0.887
5.565	0.88
5.60514	0.869
5.64528	0.837
5.68541	0.817
5.72555	0.768
5.76569	0.713
5.80582	0.614
5.84596	0.61
5.8861	0.657
5.92623	0.629
5.96637	0.549
6.00651	0.488
6.04664	0.42
6.08678	0.312
6.12691	0.251
6.16705	0.223
6.20719	0.19
6.24732	0.17
6.28746	0.162
6.3276	0.2
6.36773	0.284
6.40787	0.36
6.44801	0.427
6.48814	0.453
6.52828	0.48
6.56842	0.463
6.60855	0.41
6.64869	0.327
6.68882	0.304
6.72896	0.321
6.7691	0.329
6.80923	0.182
6.84937	0.152
6.88951	0.193
6.92964	0.283
6.96978	0.349
7.00992	0.36
7.05005	0.22
7.09019	0.182
7.13032	0.215
7.17046	0.19
7.2106	0.104
7.25073	0.067
7.29087	0.071
7.33101	0.114
7.37114	0.192
7.41128	0.269
7.45142	0.334
7.49155	0.317
7.53169	0.334
7.57183	0.412
7.61196	0.463
7.6521	0.513
7.69223	0.554
7.73237	0.562
7.77251	0.428
7.81264	0.332
7.85278	0.41
7.89292	0.5
7.93305	0.556
7.97319	0.581
8.01333	0.612
8.05346	0.63
8.0936	0.645
8.13374	0.653
8.17387	0.672
8.21401	0.677
8.25414	0.683
8.29428	0.693
8.33442	0.701
8.37455	0.711
8.41469	0.718
8.45483	0.721
8.49496	0.728
8.5351	0.73
8.57524	0.733
8.61537	0.74
8.65551	0.745
8.69565	0.748
8.73578	0.758
8.77592	0.763
8.81605	0.771
8.85619	0.779
8.89633	0.783
8.93646	0.784
8.9766	0.789
9.01674	0.794
9.05687	0.796
9.09701	0.793
9.13715	0.771
9.17728	0.743
9.21742	0.754
9.25755	0.776
9.29769	0.668
9.33783	0.528
9.37796	0.478
9.4181	0.546
9.45824	0.66
9.49837	0.716
9.53851	0.746
9.57865	0.761
9.61878	0.769
9.65892	0.776
9.69906	0.781
9.73919	0.791
9.77933	0.799
9.81946	0.809
9.8596	0.812
9.89974	0.816
9.93987	0.819
9.98001	0.821
10.0201	0.824
10.0603	0.826
10.1004	0.829
10.1406	0.826
10.1807	0.827
10.2208	0.826
10.261	0.822
10.3011	0.817
10.3412	0.817
10.3814	0.817
10.4215	0.819
10.4616	0.821
10.5018	0.819
10.5419	0.817
10.5821	0.817
10.6222	0.817
10.6623	0.822
10.7025	0.824
10.7426	0.826
10.7827	0.826
10.8229	0.826
10.863	0.824
10.9031	0.819
10.9433	0.788
10.9834	0.735
11.0236	0.7
11.0637	0.7
11.1038	0.721
11.144	0.731
11.1841	0.736
11.2242	0.728
11.2644	0.718
11.3045	0.682
11.3446	0.635
11.3848	0.567
11.4249	0.498
11.4651	0.418
11.5052	0.379
11.5453	0.347
11.5855	0.336
11.6256	0.332
11.6657	0.36
11.7059	0.418
11.746	0.486
11.7861	0.556
11.8263	0.607
11.8664	0.65
11.9066	0.682
11.9467	0.705
11.9868	0.726
12.027	0.745
12.0671	0.758
12.1072	0.769
12.1474	0.779
12.1875	0.788
12.2276	0.793
12.2678	0.796
12.3079	0.801
12.3481	0.809
12.3882	0.812
12.4283	0.812
12.4685	0.814
12.5086	0.819
12.5487	0.821
12.5889	0.821
12.629	0.821
12.6692	0.821
12.7093	0.819
12.7494	0.816
12.7896	0.812
12.8297	0.809
12.8698	0.804
12.91	0.801
12.9501	0.798
12.9902	0.796
13.0304	0.793
13.0705	0.791
13.1107	0.788
13.1508	0.784
13.1909	0.779
13.2311	0.776
13.2712	0.771
13.3113	0.766
13.3515	0.761
13.3916	0.753
13.4317	0.745
13.4719	0.735
13.512	0.721
13.5522	0.708
13.5923	0.693
13.6324	0.68
13.6726	0.66
13.7127	0.635
13.7528	0.605
13.793	0.559
13.8331	0.516
13.8732	0.461
13.9134	0.42
13.9535	0.405
13.9937	0.412
14.0338	0.443
14.0739	0.48
14.1141	0.518
14.1542	0.546
14.1943	0.557
14.2345	0.574
14.2746	0.567
14.3147	0.567
14.3549	0.567
14.395	0.561
14.4352	0.557
14.4753	0.551
14.5154	0.548
14.5556	0.538
14.5957	0.533
14.6358	0.523
14.676	0.516
14.7161	0.511
14.7562	0.504
14.7964	0.503
14.8365	0.498
14.8767	0.495
14.9168	0.486
14.9569	0.478
14.9971	0.485
15.0372	0.481
15.0773	0.47
15.1175	0.46
15.1576	0.458
15.1977	0.451
15.2379	0.445
15.278	0.44
15.3182	0.433
15.3583	0.428
15.3984	0.425
15.4386	0.422
15.4787	0.418
15.5188	0.413
15.559	0.412
15.5991	0.405
15.6392	0.405
15.6794	0.405
15.7195	0.405
15.7597	0.407
15.7998	0.407
15.8399	0.407
15.8801	0.407
15.9202	0.407
