Infrared Spectrum: VITON A
Formula: C5 H2 F9 X
State: SOLID
Class: COBLENTZ
Instrument: Not specified, most likely a prism, grating, or hybrid spectrometer.
Sampling: TRANSMISSION
Path length: FILM DEPOSITED FROM ACETONE
Resolution: 4
Origin: WYANDOTTE CHEMICALS CORP., WYANDOTTE, MICHIGAN, USA
MICROMETERS	TRANSMITTANCE
2.031	0.98
2.07081	0.976
2.11063	0.978
2.15044	0.978
2.19026	0.975
2.23007	0.976
2.26988	0.976
2.3097	0.975
2.34951	0.976
2.38933	0.975
2.42914	0.976
2.46896	0.975
2.50877	0.971
2.54858	0.971
2.5884	0.971
2.62821	0.98
2.66803	0.976
2.70784	0.976
2.74765	0.975
2.78747	0.97
2.82728	0.965
2.8671	0.958
2.90691	0.955
2.94673	0.951
2.98654	0.955
3.02635	0.956
3.06617	0.956
3.10598	0.951
3.1458	0.953
3.18561	0.958
3.22542	0.955
3.26524	0.94
3.30505	0.903
3.34487	0.923
3.38468	0.956
3.4245	0.97
3.46431	0.968
3.50412	0.973
3.54394	0.971
3.58375	0.976
3.62357	0.973
3.66338	0.975
3.70319	0.976
3.74301	0.976
3.78282	0.976
3.82264	0.978
3.86245	0.978
3.90227	0.976
3.94208	0.975
3.98189	0.973
4.02171	0.975
4.06152	0.973
4.10134	0.97
4.14115	0.968
4.18096	0.97
4.22078	0.966
4.26059	0.955
4.30041	0.97
4.34022	0.981
4.38004	0.986
4.41985	0.971
4.45966	0.971
4.49948	0.975
4.53929	0.973
4.57911	0.973
4.61892	0.973
4.65873	0.973
4.69855	0.975
4.73836	0.973
4.77818	0.976
4.81799	0.971
4.85781	0.971
4.89762	0.971
4.93743	0.971
4.97725	0.973
5.01706	0.975
5.05688	0.971
5.09669	0.968
5.1365	0.975
5.17632	0.975
5.21613	0.973
5.25595	0.973
5.29576	0.971
5.33558	0.973
5.37539	0.975
5.4152	0.973
5.45502	0.971
5.49483	0.976
5.53465	0.976
5.57446	0.97
5.61427	0.975
5.65409	0.965
5.6939	0.971
5.73372	0.965
5.77353	0.961
5.81335	0.951
5.85316	0.951
5.89297	0.96
5.93279	0.951
5.9726	0.951
6.01242	0.95
6.05223	0.95
6.09204	0.95
6.13186	0.953
6.17167	0.956
6.21149	0.951
6.2513	0.96
6.29112	0.96
6.33093	0.951
6.37074	0.955
6.41056	0.958
6.45037	0.95
6.49019	0.951
6.53	0.951
6.56981	0.955
6.60963	0.953
6.64944	0.953
6.68926	0.951
6.72907	0.94
6.76889	0.926
6.8087	0.892
6.84851	0.808
6.88833	0.807
6.92814	0.717
6.96796	0.622
7.00777	0.631
7.04758	0.516
7.0874	0.348
7.12721	0.267
7.16703	0.305
7.20684	0.38
7.24666	0.478
7.28647	0.607
7.32628	0.639
7.3661	0.584
7.40591	0.593
7.44573	0.662
7.48554	0.697
7.52535	0.681
7.56517	0.636
7.60498	0.576
7.6448	0.533
7.68461	0.495
7.72443	0.458
7.76424	0.428
7.80405	0.401
7.84387	0.395
7.88368	0.367
7.9235	0.31
7.96331	0.244
8.00312	0.204
8.04294	0.169
8.08275	0.144
8.12257	0.124
8.16238	0.109
8.2022	0.101
8.24201	0.099
8.28182	0.101
8.32164	0.104
8.36145	0.106
8.40127	0.111
8.44108	0.121
8.48089	0.139
8.52071	0.151
8.56052	0.162
8.60034	0.181
8.64015	0.189
8.67997	0.197
8.71978	0.204
8.75959	0.209
8.79941	0.217
8.83922	0.245
8.87904	0.275
8.91885	0.317
8.95866	0.36
8.99848	0.398
9.03829	0.42
9.07811	0.455
9.11792	0.476
9.15774	0.495
9.19755	0.513
9.23736	0.528
9.27718	0.536
9.31699	0.539
9.35681	0.539
9.39662	0.531
9.43643	0.541
9.47625	0.558
9.51606	0.564
9.55588	0.576
9.59569	0.586
9.63551	0.602
9.67532	0.621
9.71513	0.631
9.75495	0.637
9.79476	0.646
9.83458	0.656
9.87439	0.664
9.9142	0.674
9.95402	0.682
9.99383	0.691
10.0336	0.7
10.0735	0.707
10.1133	0.722
10.1531	0.735
10.1929	0.757
10.2327	0.792
10.2725	0.813
10.3123	0.838
10.3522	0.842
10.392	0.842
10.4318	0.832
10.4716	0.823
10.5114	0.817
10.5512	0.805
10.591	0.795
10.6309	0.79
10.6707	0.794
10.7105	0.8
10.7503	0.792
10.7901	0.782
10.8299	0.765
10.8697	0.744
10.9096	0.712
10.9494	0.677
10.9892	0.649
11.029	0.619
11.0688	0.604
11.1086	0.596
11.1484	0.583
11.1883	0.544
11.2281	0.501
11.2679	0.46
11.3077	0.426
11.3475	0.416
11.3873	0.44
11.4271	0.491
11.467	0.563
11.5068	0.619
11.5466	0.677
11.5864	0.722
11.6262	0.744
11.666	0.75
11.7058	0.747
11.7457	0.739
11.7855	0.727
11.8253	0.712
11.8651	0.696
11.9049	0.676
11.9447	0.661
11.9845	0.657
12.0244	0.656
12.0642	0.659
12.104	0.666
12.1438	0.687
12.1836	0.704
12.2234	0.722
12.2632	0.727
12.3031	0.73
12.3429	0.73
12.3827	0.729
12.4225	0.74
12.4623	0.745
12.5021	0.754
12.5419	0.764
12.5818	0.769
12.6216	0.775
12.6614	0.772
12.7012	0.769
12.741	0.77
12.7808	0.762
12.8206	0.774
12.8605	0.782
12.9003	0.792
12.9401	0.802
12.9799	0.803
13.0197	0.802
13.0595	0.787
13.0993	0.782
13.1392	0.779
13.179	0.774
13.2188	0.772
13.2586	0.774
13.2984	0.774
13.3382	0.772
13.378	0.769
13.4179	0.769
13.4577	0.769
13.4975	0.764
13.5373	0.752
13.5771	0.745
13.6169	0.742
13.6567	0.744
13.6965	0.744
13.7364	0.739
13.7762	0.732
13.816	0.724
13.8558	0.72
13.8956	0.722
13.9354	0.725
13.9752	0.732
14.0151	0.737
14.0549	0.742
14.0947	0.744
14.1345	0.745
14.1743	0.749
14.2141	0.75
14.2539	0.75
14.2938	0.75
14.3336	0.747
14.3734	0.747
14.4132	0.75
14.453	0.75
14.4928	0.75
14.5326	0.747
14.5725	0.745
14.6123	0.74
14.6521	0.735
14.6919	0.729
14.7317	0.727
14.7715	0.732
14.8113	0.735
14.8512	0.744
14.891	0.745
14.9308	0.75
14.9706	0.752
15.0104	0.744
15.0502	0.72
15.09	0.707
15.1299	0.725
15.1697	0.749
15.2095	0.755
15.2493	0.75
15.2891	0.744
15.3289	0.739
15.3687	0.735
15.4086	0.729
15.4484	0.725
15.4882	0.725
15.528	0.72
15.5678	0.719
15.6076	0.717
15.6474	0.717
15.6873	0.714
15.7271	0.712
15.7669	0.709
15.8067	0.705
15.8465	0.702
15.8863	0.699
15.9261	0.697
15.966	0.696
