Infrared Spectrum: Glycine, magnesuim salt
Formula: C4 H8 Mg N2 O4
State: SOLID (SPLIT MULL), FLUOROLUBE FOR 3800-1330 CM^-^1, NUJOL FOR 1330-450 CM^-^1
Class: COBLENTZ III
Instrument: DOW KBr FOREPRISM-GRATING
Instrument parameters: BLAZED AT 3.5, 12.0, 20.0 MICRON AND CHANGED AT 5.0, 7.5, 14.9 MICRON
Sampling: TRANSMISSION
Resolution: 2
Origin: DOW CHEMICAL COMPANY
1/CM	TRANSMITTANCE
3798	0.8545
3789	0.855
3780	0.8557
3771	0.8565
3762	0.8578
3753	0.8592
3744	0.861
3735	0.8628
3726	0.8647
3717	0.8668
3708	0.869
3699	0.8704
3690	0.868
3681	0.8678
3672	0.8711
3663	0.8724
3654	0.8728
3645	0.8733
3636	0.873
3627	0.8723
3618	0.8705
3609	0.8678
3600	0.8588
3591	0.8617
3582	0.8609
3573	0.8341
3564	0.8467
3555	0.8406
3546	0.8331
3537	0.8242
3528	0.8146
3519	0.8033
3510	0.7908
3501	0.7756
3492	0.7594
3483	0.739
3474	0.7185
3465	0.6925
3456	0.6676
3447	0.644
3438	0.6182
3429	0.5899
3420	0.554
3411	0.5239
3402	0.4993
3393	0.471
3384	0.4403
3375	0.4018
3366	0.2776
3357	0.208
3348	0.2026
3339	0.1415
3330	0.2026
3321	0.2709
3312	0.2718
3303	0.2339
3294	0.2161
3285	0.1964
3276	0.1922
3267	0.1922
3258	0.1908
3249	0.186
3240	0.1762
3231	0.1685
3222	0.162
3213	0.1526
3204	0.1464
3195	0.1532
3186	0.164
3177	0.1772
3168	0.1869
3159	0.1936
3150	0.2017
3141	0.2098
3132	0.2182
3123	0.2276
3114	0.237
3105	0.2488
3096	0.261
3087	0.2731
3078	0.2859
3069	0.2988
3060	0.3122
3051	0.3264
3042	0.3408
3033	0.3558
3024	0.3708
3015	0.3849
3006	0.3988
2997	0.4155
2988	0.436
2979	0.4592
2970	0.4724
2961	0.4762
2952	0.4565
2943	0.463
2934	0.4429
2925	0.4402
2916	0.4732
2907	0.512
2898	0.5459
2889	0.5648
2880	0.5841
2871	0.5967
2862	0.6065
2853	0.6075
2844	0.6127
2835	0.6297
2826	0.6431
2817	0.655
2808	0.6669
2799	0.6768
2790	0.6867
2781	0.6972
2772	0.7071
2763	0.7164
2754	0.725
2745	0.7334
2736	0.7411
2727	0.7467
2718	0.7521
2709	0.7568
2700	0.7615
2691	0.7664
2682	0.7712
2673	0.7761
2664	0.7804
2655	0.7842
2646	0.788
2637	0.7915
2628	0.7915
2619	0.793
2610	0.7956
2601	0.798
2592	0.7998
2583	0.8015
2574	0.8011
2565	0.7996
2556	0.7969
2547	0.7939
2538	0.7908
2529	0.7881
2520	0.7858
2511	0.786
2502	0.7862
2493	0.7867
2484	0.7865
2475	0.7853
2466	0.7841
2457	0.7821
2448	0.7799
2439	0.7776
2430	0.7758
2421	0.7751
2412	0.7746
2403	0.774
2394	0.7746
2385	0.7753
2376	0.7761
2367	0.7771
2358	0.7781
2349	0.7791
2340	0.7795
2331	0.7811
2322	0.7822
2313	0.7841
2304	0.7864
2295	0.7911
2286	0.7971
2277	0.8028
2268	0.8076
2259	0.8118
2250	0.8147
2241	0.8175
2232	0.8207
2223	0.8245
2214	0.8283
2205	0.8321
2196	0.8358
2187	0.8395
2178	0.8434
2169	0.8471
2160	0.8511
2151	0.8544
2142	0.8575
2133	0.8606
2124	0.8639
2115	0.8675
2106	0.8711
2097	0.8744
2088	0.8777
2079	0.8807
2070	0.8832
2061	0.8857
2052	0.8883
2043	0.8908
2034	0.8925
2025	0.8944
2016	0.8964
2007	0.898
1998	0.9004
1989	0.8854
1980	0.8836
1971	0.8865
1962	0.89
1953	0.8931
1944	0.8902
1935	0.89
1926	0.8893
1917	0.8895
1908	0.89
1899	0.8902
1890	0.8891
1881	0.887
1872	0.8853
1863	0.8835
1854	0.8823
1845	0.8828
1836	0.8833
1827	0.8825
1818	0.8804
1809	0.8768
1800	0.8717
1791	0.8633
1782	0.8517
1773	0.8378
1764	0.8011
1755	0.7685
1746	0.738
1737	0.7197
1728	0.7147
1719	0.7105
1710	0.7036
1701	0.69
1692	0.675
1683	0.6583
1674	0.6329
1665	0.5976
1656	0.5238
1647	0.3534
1638	0.231
1629	0.1526
1620	0.1002
1611	0.1056
1602	0.1893
1593	0.1246
1584	0.0714
1575	0.0697
1566	0.1267
1557	0.1824
1548	0.2622
1539	0.3247
1530	0.3922
1521	0.4433
1512	0.4892
1503	0.5254
1494	0.5584
1485	0.5809
1476	0.5925
1467	0.5774
1458	0.5428
1449	0.5088
1440	0.4702
1431	0.5931
1422	0.5268
1413	0.2151
1404	0.1827
1395	0.4262
1386	0.504
1377	0.5549
1368	0.5819
1359	0.5974
1350	0.5519
1341	0.4684
1332	0.5214
1323	0.2801
1314	0.2921
1305	0.4016
1296	0.464
1287	0.5117
1278	0.5492
1269	0.5807
1260	0.6064
1251	0.635
1242	0.6572
1233	0.676
1224	0.6914
1215	0.698
1206	0.7011
1197	0.7011
1188	0.6695
1179	0.6389
1170	0.6786
1161	0.6901
1152	0.6722
1143	0.663
1134	0.6572
1125	0.6254
1116	0.4979
1107	0.334
1098	0.5369
1089	0.6384
1080	0.6846
1071	0.7068
1062	0.7114
1053	0.6515
1044	0.3082
1035	0.2691
1026	0.4041
1017	0.5242
1008	0.6078
999	0.6705
990	0.6982
981	0.7108
972	0.7024
963	0.701
954	0.6967
945	0.6678
936	0.6207
927	0.6494
918	0.6109
909	0.6984
900	0.7269
891	0.7138
882	0.7093
873	0.6967
864	0.6705
855	0.62
846	0.5603
837	0.5084
828	0.4735
819	0.463
810	0.4833
801	0.511
792	0.5418
783	0.5627
774	0.575
765	0.5693
756	0.5468
747	0.4926
738	0.4199
729	0.353
720	0.3081
711	0.3482
702	0.4272
693	0.4778
684	0.5162
675	0.5491
666	0.5832
657	0.6051
648	0.6176
639	0.6277
630	0.6355
621	0.6393
612	0.6411
603	0.6356
594	0.6005
585	0.5355
576	0.4723
567	0.4852
558	0.5236
549	0.56
540	0.552
531	0.4695
522	0.5762
513	0.6312
504	0.6561
495	0.656
486	0.6349
477	0.6172
468	0.611
459	0.6137
