Infrared Spectrum: TRIETHOXYBORANE
Formula: C6 H15 O5 B
State: VAPOR AT 16 mmHg PRESSURE;
Class: COBLENTZ
Instrument: Not specified, most likely a prism, grating, or hybrid spectrometer.
Sampling: TRANSMISSION
Path length: 5 CM
Resolution: 4
Origin: KALLERY CHEMICAL COMPANY
MICROMETERS	TRANSMITTANCE
2.055	0.869
2.08968	0.869
2.12436	0.876
2.15905	0.876
2.19373	0.879
2.22841	0.881
2.26309	0.876
2.29778	0.878
2.33246	0.881
2.36714	0.883
2.40182	0.884
2.43651	0.886
2.47119	0.89
2.50587	0.895
2.54055	0.903
2.57524	0.903
2.60992	0.907
2.6446	0.908
2.67928	0.907
2.71397	0.896
2.74865	0.898
2.78333	0.912
2.81801	0.915
2.8527	0.915
2.88738	0.912
2.92206	0.912
2.95674	0.912
2.99143	0.91
3.02611	0.912
3.06079	0.914
3.09547	0.914
3.13015	0.914
3.16484	0.912
3.19952	0.91
3.2342	0.905
3.26888	0.742
3.30357	0.378
3.33825	0.31
3.37293	0.422
3.40761	0.402
3.4423	0.57
3.47698	0.716
3.51166	0.798
3.54634	0.86
3.58103	0.886
3.61571	0.905
3.65039	0.915
3.68507	0.92
3.71976	0.927
3.75444	0.931
3.78912	0.934
3.8238	0.938
3.85849	0.943
3.89317	0.945
3.92785	0.948
3.96253	0.951
3.99721	0.953
4.0319	0.953
4.06658	0.953
4.10126	0.953
4.13594	0.957
4.17063	0.958
4.20531	0.962
4.23999	0.963
4.27467	0.969
4.30936	0.97
4.34404	0.972
4.37872	0.975
4.4134	0.972
4.44809	0.97
4.48277	0.967
4.51745	0.963
4.55213	0.962
4.58682	0.958
4.6215	0.958
4.65618	0.957
4.69086	0.957
4.72555	0.955
4.76023	0.955
4.79491	0.955
4.82959	0.955
4.86428	0.955
4.89896	0.955
4.93364	0.955
4.96832	0.958
5.003	0.96
5.03769	0.963
5.07237	0.963
5.10705	0.963
5.14173	0.963
5.17642	0.97
5.2111	0.97
5.24578	0.975
5.28046	0.977
5.31515	0.977
5.34983	0.977
5.38451	0.977
5.41919	0.977
5.45388	0.977
5.48856	0.975
5.52324	0.974
5.55792	0.97
5.59261	0.967
5.62729	0.963
5.66197	0.96
5.69665	0.953
5.73134	0.931
5.76602	0.919
5.8007	0.922
5.83538	0.914
5.87006	0.912
5.90475	0.919
5.93943	0.929
5.97411	0.939
6.00879	0.943
6.04348	0.946
6.07816	0.948
6.11284	0.948
6.14752	0.948
6.18221	0.945
6.21689	0.941
6.25157	0.939
6.28625	0.941
6.32094	0.945
6.35562	0.946
6.3903	0.946
6.42498	0.943
6.45967	0.939
6.49435	0.932
6.52903	0.917
6.56371	0.878
6.5984	0.74
6.63308	0.353
6.66776	0.28
6.70244	0.285
6.73713	0.642
6.77181	0.649
6.80649	0.591
6.84117	0.551
6.87585	0.482
6.91054	0.163
6.94522	0.175
6.9799	0.168
7.01458	0.072
7.04927	0.106
7.08395	0.331
7.11863	0.474
7.15331	0.407
7.188	0.219
7.22268	0.053
7.25736	0.054
7.29204	0.19
7.32673	0.376
7.36141	0.182
7.39609	0.029
7.43077	0.02
7.46546	0.022
7.50014	0.049
7.53482	0.331
7.5695	0.381
7.60419	0.391
7.63887	0.316
7.67355	0.242
7.70823	0.238
7.74291	0.28
7.7776	0.383
7.81228	0.549
7.84696	0.635
7.88164	0.68
7.91633	0.713
7.95101	0.728
7.98569	0.74
8.02037	0.749
8.05506	0.75
8.08974	0.754
8.12442	0.761
8.1591	0.771
8.19379	0.79
8.22847	0.814
8.26315	0.836
8.29783	0.855
8.33252	0.865
8.3672	0.865
8.40188	0.859
8.43656	0.85
8.47125	0.84
8.50593	0.833
8.54061	0.828
8.57529	0.828
8.60998	0.831
8.64466	0.836
8.67934	0.841
8.71402	0.848
8.7487	0.848
8.78339	0.841
8.81807	0.831
8.85275	0.81
8.88743	0.786
8.92212	0.743
8.9568	0.654
8.99148	0.548
9.02616	0.457
9.06085	0.458
9.09553	0.498
9.13021	0.592
9.16489	0.661
9.19958	0.694
9.23426	0.702
9.26894	0.695
9.30362	0.646
9.33831	0.58
9.37299	0.508
9.40767	0.381
9.44235	0.221
9.47704	0.194
9.51172	0.199
9.5464	0.341
9.58108	0.432
9.61576	0.548
9.65045	0.644
9.68513	0.687
9.71981	0.742
9.75449	0.783
9.78918	0.821
9.82386	0.836
9.85854	0.848
9.89322	0.859
9.92791	0.871
9.96259	0.886
9.99727	0.898
10.032	0.907
10.0666	0.919
10.1013	0.927
10.136	0.938
10.1707	0.946
10.2054	0.95
10.24	0.957
10.2747	0.962
10.3094	0.963
10.3441	0.965
10.3788	0.965
10.4135	0.965
10.4481	0.965
10.4828	0.965
10.5175	0.963
10.5522	0.962
10.5869	0.96
10.6216	0.958
10.6562	0.958
10.6909	0.957
10.7256	0.957
10.7603	0.957
10.795	0.96
10.8296	0.96
10.8643	0.96
10.899	0.962
10.9337	0.962
10.9684	0.96
11.0031	0.948
11.0377	0.922
11.0724	0.888
11.1071	0.845
11.1418	0.8
11.1765	0.781
11.2112	0.778
11.2458	0.788
11.2805	0.804
11.3152	0.845
11.3499	0.89
11.3846	0.907
11.4193	0.917
11.4539	0.926
11.4886	0.932
11.5233	0.938
11.558	0.941
11.5927	0.946
11.6273	0.955
11.662	0.96
11.6967	0.965
11.7314	0.975
11.7661	0.977
11.8008	0.981
11.8354	0.984
11.8701	0.986
11.9048	0.986
11.9395	0.986
11.9742	0.986
12.0089	0.986
12.0435	0.986
12.0782	0.986
12.1129	0.987
12.1476	0.987
12.1823	0.987
12.2169	0.987
12.2516	0.987
12.2863	0.987
12.321	0.987
12.3557	0.987
12.3904	0.989
12.425	0.989
12.4597	0.989
12.4944	0.989
12.5291	0.989
12.5638	0.987
12.5985	0.987
12.6331	0.987
12.6678	0.987
12.7025	0.987
12.7372	0.987
12.7719	0.987
12.8065	0.987
12.8412	0.987
12.8759	0.986
12.9106	0.984
12.9453	0.984
12.98	0.984
13.0146	0.984
13.0493	0.982
13.084	0.981
13.1187	0.981
13.1534	0.979
13.1881	0.981
13.2227	0.981
13.2574	0.981
13.2921	0.981
13.3268	0.979
13.3615	0.979
13.3961	0.979
13.4308	0.979
13.4655	0.981
13.5002	0.981
13.5349	0.981
13.5696	0.981
13.6042	0.981
13.6389	0.981
13.6736	0.979
13.7083	0.979
13.743	0.977
13.7777	0.975
13.8123	0.974
13.847	0.972
13.8817	0.969
13.9164	0.963
13.9511	0.96
13.9857	0.953
14.0204	0.946
14.0551	0.936
14.0898	0.927
14.1245	0.915
14.1592	0.905
14.1938	0.895
14.2285	0.886
14.2632	0.878
14.2979	0.867
14.3326	0.864
14.3673	0.859
14.4019	0.862
14.4366	0.865
14.4713	0.864
14.506	0.857
14.5407	0.85
14.5753	0.84
14.61	0.826
14.6447	0.812
14.6794	0.798
14.7141	0.78
14.7488	0.766
14.7834	0.747
14.8181	0.733
14.8528	0.721
14.8875	0.714
14.9222	0.711
14.9569	0.713
14.9915	0.714
15.0262	0.721
15.0609	0.735
15.0956	0.75
15.1303	0.761
15.165	0.769
15.1996	0.774
15.2343	0.78
15.269	0.788
15.3037	0.793
15.3384	0.805
15.373	0.817
15.4077	0.817
