Infrared Spectrum: PYRAN, 2,2'-(TETRAMETHYL-1,3-CYCLOBUTYLENEDIOXY)BIS(TETRAHYDRO)-
Formula: C18 H32 O4
Boiling point: 150-155 C AT 3.5 mmHg
Class: COBLENTZ
Instrument: Not specified, most likely a prism, grating, or hybrid spectrometer.
Sampling: TRANSMISSION
Path length: SMEAR
Resolution: 4
Origin: TENNESSEE EASTMAN COMPANY, RESEARCH LABORATORIES
MICROMETERS	TRANSMITTANCE
2.061	0.943
2.10196	0.941
2.14291	0.941
2.18387	0.943
2.22482	0.941
2.26578	0.94
2.30674	0.921
2.34769	0.919
2.38865	0.919
2.4296	0.921
2.47056	0.921
2.51152	0.921
2.55247	0.921
2.59343	0.924
2.63438	0.923
2.67534	0.924
2.7163	0.924
2.75725	0.926
2.79821	0.926
2.83916	0.926
2.88012	0.923
2.92107	0.919
2.96203	0.921
3.00299	0.924
3.04394	0.924
3.0849	0.924
3.12585	0.924
3.16681	0.923
3.20777	0.923
3.24872	0.924
3.28968	0.921
3.33063	0.868
3.37159	0.325
3.41255	0.114
3.4535	0.302
3.49446	0.344
3.53541	0.607
3.57637	0.783
3.61733	0.832
3.65828	0.843
3.69924	0.839
3.74019	0.851
3.78115	0.866
3.82211	0.863
3.86306	0.89
3.90402	0.918
3.94497	0.931
3.98593	0.936
4.02689	0.938
4.06784	0.94
4.1088	0.941
4.14975	0.943
4.19071	0.945
4.23167	0.945
4.27262	0.945
4.31358	0.943
4.35453	0.943
4.39549	0.941
4.43644	0.941
4.4774	0.941
4.51836	0.941
4.55931	0.943
4.60027	0.943
4.64122	0.943
4.68218	0.943
4.72314	0.943
4.76409	0.943
4.80505	0.947
4.846	0.948
4.88696	0.948
4.92792	0.948
4.96887	0.948
5.00983	0.948
5.05078	0.948
5.09174	0.948
5.1327	0.945
5.17365	0.941
5.21461	0.941
5.25556	0.941
5.29652	0.941
5.33748	0.945
5.37843	0.947
5.41939	0.947
5.46034	0.945
5.5013	0.943
5.54226	0.948
5.58321	0.947
5.62417	0.941
5.66512	0.943
5.70608	0.941
5.74704	0.931
5.78799	0.924
5.82895	0.924
5.8699	0.926
5.91086	0.926
5.95181	0.926
5.99277	0.93
6.03373	0.933
6.07468	0.935
6.11564	0.933
6.15659	0.931
6.19755	0.933
6.23851	0.935
6.27946	0.94
6.32042	0.94
6.36137	0.94
6.40233	0.938
6.44329	0.936
6.48424	0.933
6.5252	0.93
6.56615	0.926
6.60711	0.923
6.64807	0.918
6.68902	0.902
6.72998	0.873
6.77093	0.762
6.81189	0.43
6.85285	0.477
6.8938	0.481
6.93476	0.5
6.97571	0.696
7.01667	0.788
7.05763	0.8
7.09858	0.776
7.13954	0.726
7.18049	0.662
7.22145	0.529
7.26241	0.46
7.30336	0.593
7.34432	0.578
7.38527	0.597
7.42623	0.489
7.46719	0.515
7.50814	0.6
7.5491	0.752
7.59005	0.588
7.63101	0.778
7.67196	0.825
7.71292	0.849
7.75388	0.849
7.79483	0.75
7.83579	0.72
7.87674	0.711
7.9177	0.767
7.95866	0.622
7.99961	0.752
8.04057	0.831
8.08152	0.82
8.12248	0.817
8.16344	0.832
8.20439	0.819
8.24535	0.72
8.2863	0.535
8.32726	0.331
8.36822	0.573
8.40917	0.665
8.45013	0.484
8.49108	0.54
8.53204	0.609
8.573	0.479
8.61395	0.368
8.65491	0.365
8.69586	0.428
8.73682	0.337
8.77778	0.269
8.81873	0.215
8.85969	0.184
8.90064	0.148
8.9416	0.162
8.98256	0.349
9.02351	0.481
9.06447	0.491
9.10542	0.409
9.14638	0.394
9.18733	0.404
9.22829	0.266
9.26925	0.138
9.3102	0.162
9.35116	0.158
9.39211	0.148
9.43307	0.197
9.47403	0.324
9.51498	0.387
9.55594	0.242
9.59689	0.133
9.63785	0.083
9.67881	0.093
9.71976	0.168
9.76072	0.182
9.80167	0.177
9.84263	0.184
9.88359	0.167
9.92454	0.163
9.9655	0.31
10.0065	0.435
10.0474	0.457
10.0884	0.474
10.1293	0.426
10.1703	0.303
10.2112	0.213
10.2522	0.209
10.2931	0.197
10.3341	0.254
10.3751	0.465
10.416	0.595
10.457	0.68
10.4979	0.701
10.5389	0.718
10.5798	0.75
10.6208	0.778
10.6617	0.779
10.7027	0.759
10.7437	0.791
10.7846	0.807
10.8256	0.798
10.8665	0.691
10.9075	0.445
10.9484	0.38
10.9894	0.53
11.0304	0.566
11.0713	0.564
11.1123	0.648
11.1532	0.694
11.1942	0.723
11.2351	0.735
11.2761	0.737
11.317	0.733
11.358	0.733
11.399	0.72
11.4399	0.607
11.4809	0.401
11.5218	0.435
11.5628	0.581
11.6037	0.648
11.6447	0.737
11.6856	0.788
11.7266	0.803
11.7676	0.805
11.8085	0.803
11.8495	0.796
11.8904	0.802
11.9314	0.819
11.9723	0.825
12.0133	0.827
12.0543	0.829
12.0952	0.824
12.1362	0.788
12.1771	0.684
12.2181	0.605
12.259	0.602
12.3	0.583
12.3409	0.583
12.3819	0.713
12.4229	0.791
12.4638	0.832
12.5048	0.854
12.5457	0.865
12.5867	0.873
12.6276	0.878
12.6686	0.882
12.7095	0.882
12.7505	0.882
12.7915	0.877
12.8324	0.856
12.8734	0.839
12.9143	0.831
12.9553	0.831
12.9962	0.841
13.0372	0.856
13.0781	0.87
13.1191	0.873
13.1601	0.875
13.201	0.88
13.242	0.88
13.2829	0.88
13.3239	0.88
13.3648	0.88
13.4058	0.88
13.4468	0.88
13.4877	0.878
13.5287	0.873
13.5696	0.87
13.6106	0.866
13.6515	0.866
13.6925	0.861
13.7334	0.86
13.7744	0.846
13.8154	0.827
13.8563	0.813
13.8973	0.805
13.9382	0.802
13.9792	0.8
14.0201	0.802
14.0611	0.807
14.102	0.81
14.143	0.812
14.184	0.815
14.2249	0.817
14.2659	0.817
14.3068	0.815
14.3478	0.813
14.3887	0.81
14.4297	0.805
14.4707	0.796
14.5116	0.796
14.5526	0.788
14.5935	0.783
14.6345	0.776
14.6754	0.771
14.7164	0.764
14.7573	0.759
14.7983	0.752
14.8393	0.747
14.8802	0.74
14.9212	0.73
14.9621	0.711
15.0031	0.703
15.044	0.703
15.085	0.703
15.1259	0.703
15.1669	0.697
15.2079	0.689
15.2488	0.679
15.2898	0.674
15.3307	0.668
15.3717	0.665
15.4126	0.658
15.4536	0.656
15.4946	0.651
15.5355	0.648
15.5765	0.645
15.6174	0.641
15.6584	0.638
15.6993	0.634
15.7403	0.629
15.7812	0.627
15.8222	0.626
15.8632	0.622
15.9041	0.617
15.9451	0.617
15.986	0.619
