Infrared Spectrum: BIS(1-AMINO-2-PROPYL) DISULFIDE DIHYDROCHLORIDE
Formula: C6 H16 N2 S2  * 2 H Cl
State: SOLID (MINERAL OIL MULL)
Melting point: 222-224 C
Class: COBLENTZ
Instrument: Not specified, most likely a prism, grating, or hybrid spectrometer.
Sampling: TRANSMISSION
Resolution: 4
Origin: ARTHUR D. LITTLE, INC.
MICROMETERS	TRANSMITTANCE
2.486	0.819
2.51883	0.821
2.55166	0.827
2.5845	0.832
2.61733	0.835
2.65016	0.84
2.68299	0.843
2.71582	0.845
2.74865	0.85
2.78149	0.854
2.81432	0.859
2.84715	0.861
2.87998	0.864
2.91281	0.865
2.94564	0.863
2.97848	0.853
3.01131	0.834
3.04414	0.76
3.07697	0.703
3.1098	0.647
3.14263	0.588
3.17547	0.506
3.2083	0.43
3.24113	0.347
3.27396	0.259
3.30679	0.251
3.33962	0.309
3.37246	0.38
3.40529	0.527
3.43812	0.526
3.47095	0.493
3.50378	0.332
3.53661	0.322
3.56945	0.383
3.60228	0.416
3.63511	0.467
3.66794	0.5
3.70077	0.529
3.73361	0.523
3.76644	0.531
3.79927	0.55
3.8321	0.546
3.86493	0.558
3.89776	0.63
3.9306	0.651
3.96343	0.663
3.99626	0.691
4.02909	0.733
4.06192	0.75
4.09475	0.761
4.12759	0.764
4.16042	0.771
4.19325	0.78
4.22608	0.784
4.25891	0.791
4.29174	0.818
4.32458	0.834
4.35741	0.844
4.39024	0.846
4.42307	0.842
4.4559	0.84
4.48873	0.842
4.52157	0.845
4.5544	0.85
4.58723	0.855
4.62006	0.864
4.65289	0.868
4.68573	0.872
4.71856	0.866
4.75139	0.846
4.78422	0.821
4.81705	0.807
4.84988	0.796
4.88272	0.789
4.91555	0.782
4.94838	0.776
4.98121	0.771
5.01404	0.771
5.04687	0.78
5.07971	0.802
5.11254	0.816
5.14537	0.829
5.1782	0.839
5.21103	0.848
5.24386	0.857
5.2767	0.864
5.30953	0.871
5.34236	0.876
5.37519	0.879
5.40802	0.883
5.44085	0.891
5.47369	0.892
5.50652	0.892
5.53935	0.891
5.57218	0.89
5.60501	0.889
5.63784	0.889
5.67068	0.888
5.70351	0.882
5.73634	0.879
5.76917	0.879
5.802	0.883
5.83484	0.888
5.86767	0.888
5.9005	0.889
5.93333	0.89
5.96616	0.892
5.99899	0.894
6.03183	0.893
6.06466	0.87
6.09749	0.854
6.13032	0.746
6.16315	0.616
6.19598	0.496
6.22882	0.432
6.26165	0.441
6.29448	0.611
6.32731	0.776
6.36014	0.777
6.39297	0.781
6.42581	0.793
6.45864	0.778
6.49147	0.686
6.5243	0.586
6.55713	0.539
6.58996	0.466
6.6228	0.42
6.65563	0.506
6.68846	0.6
6.72129	0.731
6.75412	0.821
6.78695	0.892
6.81979	0.855
6.85262	0.802
6.88545	0.74
6.91828	0.755
6.95111	0.763
6.98395	0.791
7.01678	0.834
7.04961	0.856
7.08244	0.859
7.11527	0.843
7.1481	0.805
7.18094	0.741
7.21377	0.817
7.2466	0.872
7.27943	0.881
7.31226	0.89
7.34509	0.909
7.37793	0.919
7.41076	0.905
7.44359	0.888
7.47642	0.865
7.50925	0.834
7.54208	0.832
7.57492	0.84
7.60775	0.841
7.64058	0.857
7.67341	0.879
7.70624	0.901
7.73907	0.916
7.77191	0.92
7.80474	0.92
7.83757	0.92
7.8704	0.915
7.90323	0.896
7.93607	0.873
7.9689	0.867
8.00173	0.827
8.03456	0.73
8.06739	0.706
8.10022	0.782
8.13306	0.859
8.16589	0.877
8.19872	0.889
8.23155	0.9
8.26438	0.909
8.29721	0.913
8.33005	0.91
8.36288	0.902
8.39571	0.904
8.42854	0.903
8.46137	0.875
8.4942	0.839
8.52704	0.764
8.55987	0.753
8.5927	0.788
8.62553	0.781
8.65836	0.765
8.69119	0.82
8.72403	0.866
8.75686	0.901
8.78969	0.904
8.82252	0.917
8.85535	0.919
8.88818	0.89
8.92102	0.86
8.95385	0.857
8.98668	0.871
9.01951	0.878
9.05234	0.867
9.08518	0.827
9.11801	0.83
9.15084	0.838
9.18367	0.831
9.2165	0.778
9.24933	0.767
9.28217	0.794
9.315	0.893
9.34783	0.906
9.38066	0.911
9.41349	0.915
9.44632	0.921
9.47916	0.911
9.51199	0.845
9.54482	0.832
9.57765	0.805
9.61048	0.804
9.64331	0.832
9.67615	0.847
9.70898	0.843
9.74181	0.828
9.77464	0.758
9.80747	0.733
9.8403	0.72
9.87314	0.711
9.90597	0.717
9.9388	0.78
9.97163	0.818
10.0045	0.842
10.0373	0.853
10.0701	0.836
10.103	0.807
10.1358	0.794
10.1686	0.82
10.2015	0.846
10.2343	0.847
10.2671	0.848
10.2999	0.852
10.3328	0.857
10.3656	0.867
10.3984	0.884
10.4313	0.907
10.4641	0.923
10.4969	0.932
10.5298	0.946
10.5626	0.952
10.5954	0.953
10.6283	0.951
10.6611	0.951
10.6939	0.952
10.7268	0.953
10.7596	0.953
10.7924	0.954
10.8253	0.954
10.8581	0.955
10.8909	0.955
10.9238	0.954
10.9566	0.953
10.9894	0.954
11.0222	0.953
11.0551	0.951
11.0879	0.947
11.1207	0.945
11.1536	0.936
11.1864	0.91
11.2192	0.864
11.2521	0.84
11.2849	0.838
11.3177	0.84
11.3506	0.833
11.3834	0.83
11.4162	0.832
11.4491	0.836
11.4819	0.843
11.5147	0.858
11.5476	0.884
11.5804	0.91
11.6132	0.921
11.646	0.931
11.6789	0.938
11.7117	0.941
11.7445	0.944
11.7774	0.944
11.8102	0.943
11.843	0.933
11.8759	0.901
11.9087	0.869
11.9415	0.847
11.9744	0.842
12.0072	0.861
12.04	0.889
12.0729	0.911
12.1057	0.926
12.1385	0.94
12.1714	0.945
12.2042	0.946
12.237	0.946
12.2699	0.947
12.3027	0.946
12.3355	0.946
12.3683	0.946
12.4012	0.948
12.434	0.951
12.4668	0.953
12.4997	0.953
12.5325	0.954
12.5653	0.953
12.5982	0.954
12.631	0.954
12.6638	0.954
12.6967	0.955
12.7295	0.955
12.7623	0.955
12.7952	0.956
12.828	0.957
12.8608	0.957
12.8937	0.957
12.9265	0.957
12.9593	0.957
12.9921	0.958
13.025	0.958
13.0578	0.957
13.0906	0.956
13.1235	0.957
13.1563	0.956
13.1891	0.956
13.222	0.956
13.2548	0.956
13.2876	0.957
13.3205	0.957
13.3533	0.957
13.3861	0.957
13.419	0.957
13.4518	0.956
13.4846	0.959
13.5175	0.959
13.5503	0.959
13.5831	0.96
13.616	0.961
13.6488	0.961
13.6816	0.963
13.7144	0.965
13.7473	0.968
13.7801	0.971
13.8129	0.971
13.8458	0.972
13.8786	0.973
13.9114	0.973
13.9443	0.975
13.9771	0.975
14.0099	0.973
14.0428	0.971
14.0756	0.967
14.1084	0.958
14.1413	0.954
14.1741	0.95
14.2069	0.944
14.2398	0.94
14.2726	0.941
14.3054	0.939
14.3382	0.94
14.3711	0.94
14.4039	0.941
14.4367	0.942
14.4696	0.943
14.5024	0.942
14.5352	0.942
14.5681	0.942
14.6009	0.942
14.6337	0.943
14.6666	0.942
14.6994	0.942
14.7322	0.941
14.7651	0.941
14.7979	0.941
14.8307	0.942
14.8636	0.941
14.8964	0.941
14.9292	0.941
14.9621	0.941
14.9949	0.94
