Infrared Spectrum: 2-Indanamine, hydrochloride
Formula: C9 H12 Cl N
State: SOLID (SPLIT MULL), FLUOROLUBE FOR 3800-1330 CM^-^1, NUJOL FOR 1330-450 CM^-^1
Class: COBLENTZ III
Instrument: DOW KBr FOREPRISM-GRATING
Instrument parameters: BLAZED AT 3.5, 12.0, 20.0 MICRON AND CHANGED AT 5.0, 7.5, 14.9 MICRON
Sampling: TRANSMISSION
Resolution: 2
Origin: DOW CHEMICAL COMPANY
1/CM	TRANSMITTANCE
457	0.7096
466	0.7111
475	0.7103
484	0.7011
493	0.7074
502	0.7301
511	0.7339
520	0.7426
529	0.7458
538	0.7512
547	0.7503
556	0.7594
565	0.7642
574	0.7705
583	0.7378
592	0.7732
601	0.7767
610	0.7756
619	0.7406
628	0.7758
637	0.7768
646	0.778
655	0.7758
664	0.7101
673	0.7915
682	0.7915
691	0.7814
700	0.7656
709	0.7415
718	0.7031
727	0.6997
736	0.6995
745	0.6576
754	0.2883
763	0.5394
772	0.7115
781	0.526
790	0.756
799	0.7693
808	0.7754
817	0.7751
826	0.7707
835	0.7631
844	0.7508
853	0.7058
862	0.7542
871	0.7601
880	0.7518
889	0.7433
898	0.7519
907	0.7397
916	0.6951
925	0.7421
934	0.7128
943	0.7492
952	0.7411
961	0.7293
970	0.649
979	0.7311
988	0.6931
997	0.7058
1006	0.7442
1015	0.7282
1024	0.5819
1033	0.5286
1042	0.606
1051	0.723
1060	0.7335
1069	0.7115
1078	0.6186
1087	0.6561
1096	0.7386
1105	0.7424
1114	0.7326
1123	0.6904
1132	0.7245
1141	0.7228
1150	0.7175
1159	0.6968
1168	0.6123
1177	0.3538
1186	0.7247
1195	0.7276
1204	0.7264
1213	0.6911
1222	0.729
1231	0.7241
1240	0.6571
1249	0.698
1258	0.6856
1267	0.5949
1276	0.5395
1285	0.6807
1294	0.6853
1303	0.6755
1312	0.6765
1321	0.6754
1330	0.6511
1339	0.6538
1348	0.6561
1357	0.7245
1366	0.7308
1375	0.674
1384	0.5849
1393	0.7903
1402	0.7937
1411	0.788
1420	0.7836
1429	0.7651
1438	0.6501
1447	0.7861
1456	0.7489
1465	0.6889
1474	0.7018
1483	0.6917
1492	0.6096
1501	0.3652
1510	0.4631
1519	0.8383
1528	0.8385
1537	0.8358
1546	0.8435
1555	0.8388
1564	0.8065
1573	0.7148
1582	0.6029
1591	0.7693
1600	0.7125
1609	0.7293
1618	0.7088
1627	0.7465
1636	0.8771
1645	0.8821
1654	0.8755
1663	0.8673
1672	0.8628
1681	0.8566
1690	0.8542
1699	0.8562
1708	0.8575
1717	0.8575
1726	0.856
1735	0.8531
1744	0.8502
1753	0.8467
1762	0.843
1771	0.8391
1780	0.8336
1789	0.83
1798	0.8278
1807	0.8267
1816	0.825
1825	0.8185
1834	0.8103
1843	0.8054
1852	0.8071
1861	0.8032
1870	0.8018
1879	0.7991
1888	0.7961
1897	0.7893
1906	0.7747
1915	0.7615
1924	0.7578
1933	0.7544
1942	0.7471
1951	0.7389
1960	0.7247
1969	0.7234
1978	0.7208
1987	0.7201
1996	0.731
2005	0.7584
2014	0.77
2023	0.7758
2032	0.7821
2041	0.7793
2050	0.7739
2059	0.7715
2068	0.7746
2077	0.7755
2086	0.7745
2095	0.7724
2104	0.7703
2113	0.7681
2122	0.7658
2131	0.7632
2140	0.7607
2149	0.7578
2158	0.7449
2167	0.7431
2176	0.7468
2185	0.7443
2194	0.7399
2203	0.7349
2212	0.7298
2221	0.7228
2230	0.7145
2239	0.7064
2248	0.6986
2257	0.6933
2266	0.689
2275	0.685
2284	0.6811
2293	0.6749
2302	0.6685
2311	0.6612
2320	0.6565
2329	0.6574
2338	0.6621
2347	0.6649
2356	0.6631
2365	0.6597
2374	0.6556
2383	0.6508
2392	0.6453
2401	0.6393
2410	0.6332
2419	0.6252
2428	0.6189
2437	0.6144
2446	0.6141
2455	0.6003
2464	0.585
2473	0.5444
2482	0.5335
2491	0.5303
2500	0.5842
2509	0.5896
2518	0.5824
2527	0.5748
2536	0.5597
2545	0.5233
2554	0.5102
2563	0.5002
2572	0.4704
2581	0.4497
2590	0.5345
2599	0.5466
2608	0.5419
2617	0.5338
2626	0.5221
2635	0.5008
2644	0.4667
2653	0.4323
2662	0.416
2671	0.4136
2680	0.4384
2689	0.4554
2698	0.4543
2707	0.4493
2716	0.4356
2725	0.4119
2734	0.3632
2743	0.334
2752	0.3766
2761	0.3582
2770	0.3414
2779	0.3326
2788	0.3268
2797	0.3121
2806	0.2819
2815	0.2478
2824	0.2271
2833	0.2161
2842	0.1954
2851	0.1844
2860	0.18
2869	0.1665
2878	0.1562
2887	0.1487
2896	0.1442
2905	0.1485
2914	0.1815
2923	0.1876
2932	0.1852
2941	0.18
2950	0.1741
2959	0.1686
2968	0.1803
2977	0.2004
2986	0.2324
2995	0.2212
3004	0.2062
3013	0.2098
3022	0.235
3031	0.2506
3040	0.298
3049	0.3221
3058	0.3302
3067	0.3326
3076	0.3359
3085	0.3612
3094	0.3966
3103	0.4193
3112	0.4396
3121	0.47
3130	0.5019
3139	0.5272
3148	0.5442
3157	0.5606
3166	0.5751
3175	0.5876
3184	0.597
3193	0.6073
3202	0.6177
3211	0.6286
3220	0.64
3229	0.6511
3238	0.6639
3247	0.6718
3256	0.6746
3265	0.6747
3274	0.6725
3283	0.67
3292	0.6665
3301	0.6625
3310	0.6587
3319	0.6541
3328	0.6494
3337	0.6449
3346	0.6411
3355	0.6374
3364	0.6337
3373	0.6308
3382	0.628
3391	0.6252
3400	0.6225
3409	0.6198
3418	0.6172
3427	0.6146
3436	0.612
3445	0.609
3454	0.606
3463	0.6029
3472	0.5999
3481	0.597
3490	0.5944
3499	0.5918
3508	0.5892
3517	0.5866
3526	0.5841
3535	0.5817
3544	0.5794
3553	0.577
3562	0.5747
3571	0.5721
3580	0.5696
3589	0.567
3598	0.5645
3607	0.562
3616	0.5597
3625	0.5572
3634	0.5549
3643	0.5521
3652	0.5493
3661	0.5465
3670	0.5438
3679	0.5412
3688	0.5389
3697	0.5385
3706	0.5383
3715	0.5371
3724	0.5351
3733	0.5329
3742	0.5306
3751	0.5281
3760	0.5253
3769	0.5224
3778	0.5188
3787	0.5151
3796	0.5112
