Infrared Spectrum: MANGANOUS OXALATE
Formula: Mn C2 O4  * 2 H2 O
State: SOLID (KBr DISC)
Class: COBLENTZ
Instrument: Not specified, most likely a prism, grating, or hybrid spectrometer.
Sampling: TRANSMISSION
Resolution: 4
MICROMETERS	TRANSMITTANCE
1.977	0.787
2.01488	0.789
2.05276	0.792
2.09064	0.795
2.12852	0.81
2.1664	0.818
2.20428	0.826
2.24216	0.833
2.28004	0.839
2.31792	0.844
2.3558	0.85
2.39368	0.85
2.43156	0.854
2.46944	0.856
2.50732	0.86
2.5452	0.86
2.58308	0.857
2.62096	0.857
2.65884	0.856
2.69672	0.847
2.7346	0.832
2.77248	0.777
2.81036	0.632
2.84824	0.511
2.88612	0.384
2.924	0.286
2.96188	0.179
2.99977	0.158
3.03765	0.246
3.07553	0.387
3.11341	0.494
3.15129	0.563
3.18917	0.597
3.22705	0.642
3.26493	0.686
3.30281	0.74
3.34069	0.787
3.37857	0.802
3.41645	0.817
3.45433	0.838
3.49221	0.859
3.53009	0.875
3.56797	0.891
3.60585	0.897
3.64373	0.905
3.68161	0.918
3.71949	0.927
3.75737	0.933
3.79525	0.936
3.83313	0.939
3.87101	0.94
3.90889	0.945
3.94677	0.949
3.98465	0.949
4.02253	0.949
4.06041	0.952
4.09829	0.954
4.13617	0.954
4.17405	0.952
4.21193	0.949
4.24981	0.948
4.28769	0.946
4.32557	0.945
4.36345	0.949
4.40133	0.955
4.43921	0.958
4.47709	0.961
4.51497	0.961
4.55285	0.958
4.59073	0.956
4.62861	0.956
4.66649	0.954
4.70437	0.954
4.74225	0.955
4.78013	0.956
4.81801	0.959
4.85589	0.962
4.89377	0.964
4.93165	0.967
4.96953	0.967
5.00741	0.968
5.0453	0.967
5.08318	0.967
5.12106	0.961
5.15894	0.955
5.19682	0.954
5.2347	0.946
5.27258	0.937
5.31046	0.934
5.34834	0.936
5.38622	0.936
5.4241	0.934
5.46198	0.93
5.49986	0.921
5.53774	0.908
5.57562	0.894
5.6135	0.872
5.65138	0.856
5.68926	0.832
5.72714	0.802
5.76502	0.771
5.8029	0.642
5.84078	0.545
5.87866	0.485
5.91654	0.39
5.95442	0.304
5.9923	0.182
6.03018	0.108
6.06806	0.097
6.10594	0.077
6.14382	0.054
6.1817	0.053
6.21958	0.108
6.25746	0.218
6.29534	0.302
6.33322	0.384
6.3711	0.461
6.40898	0.516
6.44686	0.587
6.48474	0.621
6.52262	0.664
6.5605	0.694
6.59838	0.71
6.63626	0.732
6.67414	0.755
6.71202	0.775
6.7499	0.789
6.78778	0.79
6.82566	0.79
6.86354	0.792
6.90142	0.796
6.9393	0.807
6.97718	0.811
7.01506	0.818
7.05295	0.824
7.09083	0.832
7.12871	0.838
7.16659	0.839
7.20447	0.824
7.24235	0.799
7.28023	0.724
7.31811	0.59
7.35599	0.516
7.39387	0.575
7.43175	0.664
7.46963	0.681
7.50751	0.637
7.54539	0.517
7.58327	0.323
7.62115	0.234
7.65903	0.344
7.69691	0.507
7.73479	0.629
7.77267	0.71
7.81055	0.752
7.84843	0.793
7.88631	0.818
7.92419	0.839
7.96207	0.851
7.99995	0.863
8.03783	0.869
8.07571	0.872
8.11359	0.878
8.15147	0.885
8.18935	0.888
8.22723	0.894
8.26511	0.899
8.30299	0.905
8.34087	0.912
8.37875	0.913
8.41663	0.915
8.45451	0.921
8.49239	0.924
8.53027	0.927
8.56815	0.93
8.60603	0.933
8.64391	0.939
8.68179	0.94
8.71967	0.942
8.75755	0.942
8.79543	0.943
8.83331	0.945
8.87119	0.948
8.90907	0.952
8.94695	0.955
8.98483	0.955
9.02271	0.954
9.06059	0.955
9.09848	0.956
9.13636	0.959
9.17424	0.961
9.21212	0.961
9.25	0.962
9.28788	0.964
9.32576	0.965
9.36364	0.968
9.40152	0.97
9.4394	0.971
9.47728	0.97
9.51516	0.971
9.55304	0.971
9.59092	0.973
9.6288	0.976
9.66668	0.976
9.70456	0.974
9.74244	0.977
9.78032	0.979
9.8182	0.979
9.85608	0.982
9.89396	0.985
9.93184	0.985
9.96972	0.986
10.0076	0.986
10.0455	0.986
10.0834	0.986
10.1212	0.988
10.1591	0.988
10.197	0.988
10.2349	0.988
10.2728	0.988
10.3106	0.989
10.3485	0.989
10.3864	0.991
10.4243	0.991
10.4622	0.991
10.5	0.991
10.5379	0.992
10.5758	0.992
10.6137	0.992
10.6516	0.992
10.6894	0.992
10.7273	0.992
10.7652	0.992
10.8031	0.992
10.841	0.992
10.8788	0.992
10.9167	0.992
10.9546	0.991
10.9925	0.991
11.0304	0.988
11.0682	0.986
11.1061	0.985
11.144	0.985
11.1819	0.983
11.2198	0.983
11.2576	0.982
11.2955	0.98
11.3334	0.98
11.3713	0.977
11.4092	0.976
11.447	0.974
11.4849	0.971
11.5228	0.968
11.5607	0.962
11.5986	0.958
11.6364	0.952
11.6743	0.948
11.7122	0.94
11.7501	0.93
11.788	0.921
11.8258	0.908
11.8637	0.899
11.9016	0.879
11.9395	0.859
11.9774	0.826
12.0152	0.79
12.0531	0.737
12.091	0.681
12.1289	0.627
12.1668	0.577
12.2047	0.528
12.2425	0.489
12.2804	0.482
12.3183	0.485
12.3562	0.514
12.3941	0.586
12.4319	0.632
12.4698	0.67
12.5077	0.697
12.5456	0.713
12.5835	0.713
12.6213	0.713
12.6592	0.713
12.6971	0.724
12.735	0.734
12.7729	0.738
12.8107	0.753
12.8486	0.771
12.8865	0.787
12.9244	0.796
12.9623	0.798
13.0001	0.798
13.038	0.798
13.0759	0.796
13.1138	0.792
13.1517	0.78
13.1895	0.767
13.2274	0.752
13.2653	0.74
13.3032	0.729
13.3411	0.713
13.3789	0.701
13.4168	0.689
13.4547	0.683
13.4926	0.678
13.5305	0.672
13.5683	0.669
13.6062	0.666
13.6441	0.661
13.682	0.658
13.7199	0.657
13.7577	0.657
13.7956	0.657
13.8335	0.657
13.8714	0.657
13.9093	0.66
13.9471	0.664
13.985	0.667
14.0229	0.667
14.0608	0.673
14.0987	0.678
14.1365	0.683
14.1744	0.686
14.2123	0.692
14.2502	0.694
14.2881	0.698
14.3259	0.704
14.3638	0.71
14.4017	0.716
14.4396	0.721
14.4775	0.724
14.5153	0.727
14.5532	0.731
14.5911	0.735
14.629	0.741
14.6669	0.746
14.7047	0.747
14.7426	0.749
14.7805	0.75
14.8184	0.753
14.8563	0.758
14.8941	0.761
14.932	0.762
