Infrared Spectrum: 2,5-DIBUTYROXY-4-HYDROXY BUTYROPHENONE
Formula: C18 H24 O8
State: SOLID (PELLET)
Class: COBLENTZ
Instrument: Not specified, most likely a prism, grating, or hybrid spectrometer.
Sampling: TRANSMISSION
Resolution: 4
Origin: TENNESSEE EASTMAN COMPANY, RESEARCH LABORATORIES
MICROMETERS	TRANSMITTANCE
2.02	0.735
2.05988	0.739
2.09975	0.744
2.13963	0.747
2.17951	0.749
2.21939	0.752
2.25926	0.752
2.29914	0.754
2.33902	0.757
2.37889	0.759
2.41877	0.76
2.45865	0.767
2.49852	0.769
2.5384	0.774
2.57828	0.775
2.61816	0.782
2.65803	0.789
2.69791	0.762
2.73779	0.619
2.77766	0.526
2.81754	0.465
2.85742	0.383
2.89729	0.285
2.93717	0.182
2.97705	0.106
3.01693	0.172
3.0568	0.323
3.09668	0.421
3.13656	0.495
3.17643	0.548
3.21631	0.574
3.25619	0.586
3.29607	0.599
3.33594	0.164
3.37582	0.398
3.4157	0.475
3.45557	0.657
3.49545	0.709
3.53533	0.727
3.5752	0.739
3.61508	0.74
3.65496	0.767
3.69484	0.772
3.73471	0.78
3.77459	0.795
3.81447	0.799
3.85434	0.802
3.89422	0.82
3.9341	0.837
3.97397	0.85
4.01385	0.86
4.05373	0.863
4.09361	0.872
4.13348	0.88
4.17336	0.892
4.21324	0.897
4.25311	0.897
4.29299	0.897
4.33287	0.908
4.37274	0.92
4.41262	0.926
4.4525	0.935
4.49238	0.943
4.53225	0.946
4.57213	0.948
4.61201	0.948
4.65188	0.948
4.69176	0.95
4.73164	0.948
4.77152	0.946
4.81139	0.948
4.85127	0.948
4.89115	0.948
4.93102	0.948
4.9709	0.948
5.01078	0.948
5.05065	0.948
5.09053	0.948
5.13041	0.951
5.17029	0.953
5.21016	0.95
5.25004	0.953
5.28992	0.951
5.32979	0.955
5.36967	0.955
5.40955	0.945
5.44942	0.93
5.4893	0.928
5.52918	0.915
5.56906	0.867
5.60893	0.742
5.64881	0.546
5.68869	0.411
5.72856	0.053
5.76844	0.375
5.80832	0.607
5.8482	0.689
5.88807	0.681
5.92795	0.674
5.96783	0.611
6.0077	0.41
6.04758	0.048
6.08746	0.041
6.12733	0.114
6.16721	0.141
6.20709	0.323
6.24697	0.229
6.28684	0.343
6.32672	0.491
6.3666	0.501
6.40647	0.538
6.44635	0.559
6.48623	0.43
6.5261	0.295
6.56598	0.093
6.60586	0.111
6.64574	0.45
6.68561	0.627
6.72549	0.652
6.76537	0.393
6.80524	0.475
6.84512	0.466
6.885	0.196
6.92488	0.091
6.96475	0.387
7.00463	0.431
7.04451	0.36
7.08438	0.279
7.12426	0.137
7.16414	0.177
7.20401	0.159
7.24389	0.111
7.28377	0.284
7.32365	0.455
7.36352	0.501
7.4034	0.519
7.44328	0.433
7.48315	0.23
7.52303	0.132
7.56291	0.063
7.60278	0.046
7.64266	0.081
7.68254	0.227
7.72242	0.327
7.76229	0.327
7.80217	0.317
7.84205	0.254
7.88192	0.191
7.9218	0.225
7.96168	0.275
8.00155	0.307
8.04143	0.287
8.08131	0.192
8.12119	0.121
8.16106	0.194
8.20094	0.217
8.24082	0.104
8.28069	0.169
8.32057	0.232
8.36045	0.277
8.40033	0.205
8.4402	0.081
8.48008	0.028
8.51996	0.024
8.55983	0.029
8.59971	0.033
8.63959	0.033
8.67946	0.056
8.71934	0.137
8.75922	0.25
8.7991	0.382
8.83897	0.496
8.87885	0.564
8.91873	0.607
8.9586	0.599
8.99848	0.471
9.03836	0.406
9.07823	0.4
9.11811	0.503
9.15799	0.578
9.19787	0.642
9.23774	0.702
9.27762	0.744
9.3175	0.794
9.35737	0.83
9.39725	0.843
9.43713	0.853
9.47701	0.855
9.51688	0.828
9.55676	0.752
9.59664	0.81
9.63651	0.837
9.67639	0.853
9.71627	0.858
9.75614	0.863
9.79602	0.868
9.8359	0.877
9.87578	0.89
9.91565	0.9
9.95553	0.908
9.99541	0.901
10.0353	0.868
10.0752	0.812
10.115	0.769
10.1549	0.797
10.1948	0.853
10.2347	0.882
10.2745	0.91
10.3144	0.926
10.3543	0.933
10.3942	0.935
10.4341	0.93
10.4739	0.906
10.5138	0.85
10.5537	0.744
10.5936	0.496
10.6334	0.312
10.6733	0.453
10.7132	0.664
10.7531	0.747
10.7929	0.808
10.8328	0.843
10.8727	0.867
10.9126	0.842
10.9525	0.737
10.9923	0.792
11.0322	0.833
11.0721	0.802
11.112	0.71
11.1518	0.714
11.1917	0.717
11.2316	0.784
11.2715	0.825
11.3113	0.832
11.3512	0.802
11.3911	0.777
11.431	0.666
11.4709	0.413
11.5107	0.516
11.5506	0.727
11.5905	0.797
11.6304	0.807
11.6702	0.782
11.7101	0.702
11.75	0.626
11.7899	0.574
11.8298	0.426
11.8696	0.385
11.9095	0.506
11.9494	0.641
11.9893	0.696
12.0291	0.734
12.069	0.745
12.1089	0.749
12.1488	0.749
12.1886	0.744
12.2285	0.729
12.2684	0.709
12.3083	0.676
12.3482	0.649
12.388	0.594
12.4279	0.526
12.4678	0.453
12.5077	0.37
12.5475	0.303
12.5874	0.272
12.6273	0.294
12.6672	0.35
12.707	0.421
12.7469	0.49
12.7868	0.518
12.8267	0.518
12.8666	0.506
12.9064	0.526
12.9463	0.583
12.9862	0.632
13.0261	0.681
13.0659	0.72
13.1058	0.747
13.1457	0.769
13.1856	0.78
13.2254	0.784
13.2653	0.757
13.3052	0.71
13.3451	0.71
13.385	0.767
13.4248	0.792
13.4647	0.785
13.5046	0.772
13.5445	0.769
13.5843	0.8
13.6242	0.828
13.6641	0.855
13.704	0.872
13.7438	0.893
13.7837	0.898
13.8236	0.903
13.8635	0.908
13.9034	0.91
13.9432	0.91
13.9831	0.901
14.023	0.852
14.0629	0.828
14.1027	0.833
14.1426	0.852
14.1825	0.872
14.2224	0.882
14.2622	0.883
14.3021	0.887
14.342	0.888
14.3819	0.888
14.4218	0.883
14.4616	0.877
14.5015	0.858
14.5414	0.848
14.5813	0.83
14.6211	0.807
14.661	0.799
14.7009	0.789
14.7408	0.789
14.7807	0.787
14.8205	0.785
14.8604	0.78
14.9003	0.759
14.9402	0.74
14.98	0.73
15.0199	0.727
15.0598	0.735
15.0997	0.755
15.1395	0.767
15.1794	0.772
15.2193	0.78
15.2592	0.784
15.2991	0.784
15.3389	0.784
15.3788	0.777
15.4187	0.772
15.4586	0.765
15.4984	0.754
15.5383	0.744
15.5782	0.732
15.6181	0.72
15.6579	0.71
15.6978	0.697
15.7377	0.684
15.7776	0.667
15.8175	0.651
15.8573	0.632
15.8972	0.607
15.9371	0.589
15.977	0.584
