Infrared Spectrum: UREA, 1-METHYL-1-NITROSO-3-[2-(PURIN-8-YLTHIO)ETHYL]-
Formula: C9 H11 N7 O2 S
State: SOLID (1 mg / 650 mg KBr DISC)
Class: COBLENTZ III
Instrument: PERKIN-ELMER 521 (GRATING)
Instrument parameters: FILTERS AT 3130, 2475, 2000, 620. GRATING CHANGES: 2000, 630
Sampling: TRANSMISSION
Resolution: 2
Origin: SOUTHERN RESEARCH INSTITUTE
1/CM	TRANSMITTANCE
251.269	0.259
261.396	0.3516
271.522	0.4393
281.649	0.5009
291.775	0.5573
301.902	0.6279
312.029	0.632
322.155	0.6691
332.282	0.7275
342.408	0.7654
352.535	0.776
362.661	0.7484
372.788	0.7861
382.915	0.8532
393.041	0.857
403.168	0.8338
413.294	0.8657
423.421	0.8703
433.548	0.8733
443.674	0.8782
453.801	0.8822
463.927	0.883
474.054	0.88
484.181	0.8673
494.307	0.8501
504.434	0.8645
514.56	0.8398
524.687	0.764
534.813	0.8187
544.94	0.7636
555.067	0.8432
565.193	0.836
575.32	0.8293
585.446	0.8177
595.573	0.7994
605.7	0.6967
615.826	0.5359
625.953	0.782
636.079	0.7928
646.206	0.7693
656.333	0.745
666.459	0.7168
676.586	0.6541
686.712	0.7599
696.839	0.781
706.965	0.7811
717.092	0.787
727.219	0.773
737.345	0.782
747.472	0.777
757.598	0.7909
767.725	0.7842
777.852	0.7295
787.978	0.5518
798.105	0.7374
808.231	0.827
818.358	0.7936
828.485	0.744
838.611	0.8312
848.738	0.8082
858.864	0.755
868.991	0.843
879.117	0.854
889.244	0.8463
899.371	0.8172
909.497	0.7605
919.624	0.5993
929.75	0.6953
939.877	0.6327
950.004	0.4793
960.13	0.3462
970.257	0.6632
980.383	0.7665
990.51	0.769
1000.64	0.7195
1010.76	0.6018
1020.89	0.5557
1031.02	0.5557
1041.14	0.743
1051.27	0.6566
1061.4	0.756
1071.52	0.774
1081.65	0.794
1091.78	0.7831
1101.9	0.6257
1112.03	0.7478
1122.16	0.7827
1132.28	0.7517
1142.41	0.6828
1152.54	0.5486
1162.66	0.4484
1172.79	0.3419
1182.92	0.2946
1193.04	0.6085
1203.17	0.5226
1213.29	0.5397
1223.42	0.5423
1233.55	0.4563
1243.67	0.3621
1253.8	0.5689
1263.93	0.6978
1274.05	0.718
1284.18	0.641
1294.31	0.4081
1304.43	0.4491
1314.56	0.549
1324.69	0.423
1334.81	0.6728
1344.94	0.6966
1355.07	0.631
1365.19	0.5732
1375.32	0.5875
1385.45	0.4887
1395.57	0.474
1405.7	0.4603
1415.83	0.4337
1425.95	0.4911
1436.08	0.3752
1446.21	0.3403
1456.33	0.3308
1466.46	0.1936
1476.59	0.2545
1486.71	0.3568
1496.84	0.5021
1506.97	0.575
1517.09	0.5112
1527.22	0.384
1537.35	0.2657
1547.47	0.382
1557.6	0.6125
1567.73	0.68
1577.85	0.6382
1587.98	0.3685
1598.11	0.4896
1608.23	0.3746
1618.36	0.7144
1628.49	0.7597
1638.61	0.7864
1648.74	0.797
1658.86	0.8018
1668.99	0.7829
1679.12	0.6826
1689.24	0.5572
1699.37	0.4366
1709.5	0.3272
1719.62	0.1641
1729.75	0.321
1739.88	0.6091
1750	0.794
1760.13	0.8719
1770.26	0.9079
1780.38	0.9219
1790.51	0.9299
1800.64	0.933
1810.76	0.933
1820.89	0.933
1831.02	0.933
1841.14	0.9304
1851.27	0.934
1861.4	0.938
1871.52	0.937
1881.65	0.93
1891.78	0.93
1901.9	0.934
1912.03	0.935
1922.16	0.935
1932.28	0.935
1942.41	0.937
1952.54	0.938
1962.66	0.938
1972.79	0.935
1982.92	0.935
1993.04	0.9335
2003.17	0.931
2013.3	0.929
2023.42	0.927
2033.55	0.925
2043.68	0.926
2053.8	0.925
2063.93	0.923
2074.05	0.92
2084.18	0.918
2094.31	0.915
2104.43	0.914
2114.56	0.9135
2124.69	0.913
2134.81	0.911
2144.94	0.9105
2155.07	0.91
2165.19	0.909
2175.32	0.908
2185.45	0.908
2195.57	0.9005
2205.7	0.8955
2215.83	0.893
2225.95	0.89
2236.08	0.89
2246.21	0.8835
2256.33	0.879
2266.46	0.875
2276.59	0.873
2286.71	0.874
2296.84	0.871
2306.97	0.8665
2317.09	0.8605
2327.22	0.853
2337.35	0.847
2347.47	0.845
2357.6	0.844
2367.73	0.842
2377.85	0.841
2387.98	0.8365
2398.11	0.8315
2408.23	0.826
2418.36	0.823
2428.49	0.821
2438.61	0.8175
2448.74	0.816
2458.87	0.8125
2468.99	0.81
2479.12	0.8065
2489.25	0.802
2499.37	0.798
2509.5	0.792
2519.62	0.784
2529.75	0.7765
2539.88	0.7685
2550	0.7575
2560.13	0.7445
2570.26	0.7395
2580.38	0.737
2590.51	0.7325
2600.64	0.726
2610.76	0.7175
2620.89	0.71
2631.02	0.7095
2641.14	0.704
2651.27	0.7
2661.4	0.695
2671.52	0.695
2681.65	0.697
2691.78	0.6945
2701.9	0.6905
2712.03	0.686
2722.16	0.6795
2732.28	0.6705
2742.41	0.6585
2752.54	0.6415
2762.66	0.6215
2772.79	0.6275
2782.92	0.632
2793.04	0.6265
2803.17	0.624
2813.3	0.621
2823.42	0.621
2833.55	0.6205
2843.68	0.609
2853.8	0.61
2863.93	0.609
2874.06	0.607
2884.18	0.606
2894.31	0.602
2904.44	0.59
2914.56	0.5825
2924.69	0.5685
2934.81	0.556
2944.94	0.548
2955.07	0.5485
2965.19	0.547
2975.32	0.548
2985.45	0.5525
2995.57	0.5425
3005.7	0.5245
3015.83	0.51
3025.95	0.508
3036.08	0.5155
3046.21	0.5235
3056.33	0.5375
3066.46	0.546
3076.59	0.548
3086.71	0.5415
3096.84	0.534
3106.97	0.529
3117.09	0.529
3127.22	0.534
3137.35	0.5445
3147.47	0.5395
3157.6	0.538
3167.73	0.529
3177.85	0.521
3187.98	0.5045
3198.11	0.4915
3208.23	0.481
3218.36	0.4905
3228.49	0.507
3238.61	0.5315
3248.74	0.5565
3258.87	0.593
3268.99	0.613
3279.12	0.6295
3289.25	0.6445
3299.37	0.653
3309.5	0.656
3319.63	0.656
3329.75	0.656
3339.88	0.656
3350.01	0.656
3360.13	0.6565
3370.26	0.6545
3380.38	0.652
3390.51	0.652
3400.64	0.655
3410.76	0.655
3420.89	0.6595
3431.02	0.666
3441.14	0.6715
3451.27	0.6855
3461.4	0.693
3471.52	0.699
3481.65	0.704
3491.78	0.7085
3501.9	0.7175
3512.03	0.726
3522.16	0.736
3532.28	0.746
3542.41	0.7565
3552.54	0.7635
3562.66	0.7735
3572.79	0.7865
3582.92	0.794
3593.04	0.804
3603.17	0.819
3613.3	0.827
3623.42	0.8395
3633.55	0.8505
3643.68	0.855
3653.8	0.8575
3663.93	0.861
3674.06	0.8545
3684.18	0.859
3694.31	0.866
3704.44	0.869
3714.56	0.869
3724.69	0.869
3734.82	0.866
3744.94	0.866
3755.07	0.866
3765.2	0.868
3775.32	0.869
3785.45	0.869
3795.57	0.866
3805.7	0.867
3815.83	0.866
3825.95	0.863
3836.08	0.86
3846.21	0.861
3856.33	0.857
3866.46	0.857
3876.59	0.856
3886.71	0.855
3896.84	0.854
3906.97	0.854
3917.09	0.854
3927.22	0.851
3937.35	0.851
3947.47	0.851
3957.6	0.85
3967.73	0.85
3977.85	0.849
3987.98	0.849
3998.11	0.849
