Infrared Spectrum: Alpha-Hydroxy-4-pyridinemethanesulfonic acid
Formula: C6 H7 N O4 S
State: SOLID (NUJOL MULL)
Class: COBLENTZ III
Instrument: BAIRD (PRISM)
Instrument parameters: NaCl PRISM
Sampling: TRANSMISSION
Resolution: 2
Origin: DOW CORNING CORP.
1/CM	TRANSMITTANCE
631	0.7107
640	0.5562
649	0.446
658	0.6521
667	0.7255
676	0.7701
685	0.7806
694	0.8291
703	0.8727
712	0.8546
721	0.6106
730	0.8048
739	0.8675
748	0.877
757	0.8353
766	0.7125
775	0.7026
784	0.8898
793	0.9175
802	0.9052
811	0.8668
820	0.6824
829	0.3568
838	0.7049
847	0.8192
856	0.919
865	0.9161
874	0.8913
883	0.8863
892	0.8837
901	0.901
910	0.9007
919	0.8923
928	0.8807
937	0.8535
946	0.8001
955	0.8268
964	0.8593
973	0.8478
982	0.8134
991	0.6422
1000	0.7142
1009	0.6189
1018	0.5169
1027	0.1539
1036	0.3576
1045	0.6528
1054	0.7345
1063	0.6621
1072	0.7151
1081	0.3805
1090	0.5788
1099	0.7197
1108	0.6821
1117	0.5325
1126	0.5995
1135	0.5812
1144	0.4337
1153	0.2442
1162	0.1232
1171	0.1415
1180	0.2848
1189	0.405
1198	0.2598
1207	0.1998
1216	0.2192
1225	0.2399
1234	0.2548
1243	0.1663
1252	0.1589
1261	0.3058
1270	0.4879
1279	0.6283
1288	0.728
1297	0.7761
1306	0.8024
1315	0.8235
1324	0.8168
1333	0.7912
1342	0.7849
1351	0.7685
1360	0.7721
1369	0.7346
1378	0.5952
1387	0.6342
1396	0.7554
1405	0.7768
1414	0.7536
1423	0.7558
1432	0.7718
1441	0.768
1450	0.6475
1459	0.4616
1468	0.4053
1477	0.5096
1486	0.6911
1495	0.7355
1504	0.5256
1513	0.5039
1522	0.5875
1531	0.7311
1540	0.8189
1549	0.8391
1558	0.849
1567	0.875
1576	0.8799
1585	0.878
1594	0.8668
1603	0.8416
1612	0.671
1621	0.5418
1630	0.6457
1639	0.5369
1648	0.5609
1657	0.7321
1666	0.8453
1675	0.8697
1684	0.877
1693	0.8816
1702	0.8856
1711	0.88
1720	0.8787
1729	0.8789
1738	0.8841
1747	0.8863
1756	0.8831
1765	0.8796
1774	0.876
1783	0.8712
1792	0.8687
1801	0.8728
1810	0.8767
1819	0.8788
1828	0.8781
1837	0.8755
1846	0.8717
1855	0.8646
1864	0.8551
1873	0.8487
1882	0.8464
1891	0.8491
1900	0.8574
1909	0.8616
1918	0.8603
1927	0.8555
1936	0.847
1945	0.8402
1954	0.835
1963	0.8296
1972	0.8242
1981	0.8244
1990	0.8294
1999	0.832
2008	0.8295
2017	0.8237
2026	0.8186
2035	0.8136
2044	0.8094
2053	0.8108
2062	0.8175
2071	0.825
2080	0.8309
2089	0.8338
2098	0.8337
2107	0.8331
2116	0.8321
2125	0.831
2134	0.8298
2143	0.8285
2152	0.8267
2161	0.8249
2170	0.8232
2179	0.8214
2188	0.8195
2197	0.8175
2206	0.8157
2215	0.8138
2224	0.8118
2233	0.81
2242	0.8081
2251	0.8061
2260	0.8042
2269	0.8021
2278	0.7999
2287	0.7984
2296	0.7975
2305	0.7981
2314	0.7988
2323	0.7996
2332	0.7975
2341	0.7934
2350	0.7878
2359	0.7824
2368	0.7771
2377	0.7719
2386	0.7685
2395	0.7662
2404	0.7657
2413	0.7665
2422	0.7684
2431	0.77
2440	0.768
2449	0.7651
2458	0.7625
2467	0.7593
2476	0.7564
2485	0.7538
2494	0.7515
2503	0.7495
2512	0.7475
2521	0.7455
2530	0.7422
2539	0.7391
2548	0.7339
2557	0.7278
2566	0.7218
2575	0.7147
2584	0.7071
2593	0.6998
2602	0.6921
2611	0.6845
2620	0.6768
2629	0.6725
2638	0.6692
2647	0.669
2656	0.6689
2665	0.6675
2674	0.666
2683	0.6619
2692	0.6574
2701	0.6521
2710	0.6468
2719	0.6412
2728	0.6357
2737	0.6307
2746	0.6267
2755	0.6228
2764	0.6185
2773	0.6142
2782	0.606
2791	0.5937
2800	0.5784
2809	0.5538
2818	0.5228
2827	0.4867
2836	0.4102
2845	0.3056
2854	0.1991
2863	0.1315
2872	0.1066
2881	0.0996
2890	0.0917
2899	0.0809
2908	0.0663
2917	0.0542
2926	0.0435
2935	0.0387
2944	0.0396
2953	0.0483
2962	0.0865
2971	0.1284
2980	0.1701
2989	0.2153
2998	0.2415
3007	0.247
3016	0.2479
3025	0.2443
3034	0.2344
3043	0.2169
3052	0.2109
3061	0.2113
3070	0.2137
3079	0.2334
3088	0.2543
3097	0.2663
3106	0.2713
3115	0.2715
3124	0.2714
3133	0.2711
3142	0.2743
3151	0.2872
3160	0.3245
3169	0.3495
3178	0.3627
3187	0.3693
3196	0.3702
3205	0.3656
3214	0.3497
3223	0.3236
3232	0.3095
3241	0.306
3250	0.3069
3259	0.3089
3268	0.3149
3277	0.3245
3286	0.3358
3295	0.3464
3304	0.3564
3313	0.3662
3322	0.3787
3331	0.4045
3340	0.4221
3349	0.46
3358	0.4769
3367	0.4894
3376	0.5026
3385	0.5079
3394	0.5112
3403	0.515
3412	0.519
3421	0.5245
3430	0.5304
3439	0.5375
3448	0.5458
3457	0.5532
3466	0.5595
3475	0.5634
3484	0.5656
3493	0.5658
3502	0.5647
3511	0.5627
3520	0.5605
3529	0.5573
3538	0.554
3547	0.5505
3556	0.5457
3565	0.5408
3574	0.5383
3583	0.5389
3592	0.5409
3601	0.5456
3610	0.559
3619	0.5733
3628	0.5875
3637	0.6016
3646	0.6157
3655	0.6297
3664	0.6435
3673	0.658
3682	0.6741
3691	0.6825
3700	0.6882
3709	0.6906
3718	0.6901
3727	0.6898
3736	0.689
3745	0.6871
3754	0.6836
3763	0.6801
3772	0.6767
3781	0.6742
3790	0.6733
3799	0.6728
3808	0.6724
3817	0.6719
3826	0.6718
3835	0.6715
3844	0.6714
3853	0.6704
3862	0.668
3871	0.6653
3880	0.6615
3889	0.6578
3898	0.6544
3907	0.6521
3916	0.6499
3925	0.6476
3934	0.6461
3943	0.6448
3952	0.6434
3961	0.6421
3970	0.6407
3979	0.6394
3988	0.6381
3997	0.6368
