Infrared Spectrum: Pentadecanoic acid, 2-(dimethylamino)ethyl ester
Formula: C19 H39 N O2
State: SOLUTION (10% CCl4 FOR 3800-1330, 10% CS2 FOR 1330-400 CM^-^1)
Class: COBLENTZ III
Instrument: DOW KBr FOREPRISM-GRATING
Instrument parameters: BLAZED AT 3.5, 12.0, 20.0 MICRON AND CHANGED AT 5.0, 7.5, 14.9 MICRON
Sampling: TRANSMISSION
Path length: 0.011 CM, 0.011 CM
Resolution: 2
Origin: DOW CHEMICAL COMPANY
1/CM	TRANSMITTANCE
383	0.3055
392	0.3507
401	0.52
410	0.7101
419	0.8359
428	0.8685
437	0.8851
446	0.8994
455	0.9197
464	0.9381
473	0.939
482	0.9364
491	0.9295
500	0.9178
509	0.9064
518	0.8876
527	0.8838
536	0.8896
545	0.9023
554	0.9167
563	0.9197
572	0.9134
581	0.914
590	0.9181
599	0.92
608	0.9186
617	0.9165
626	0.9095
635	0.8944
644	0.8626
653	0.8696
662	0.9121
671	0.9191
680	0.9109
689	0.897
698	0.8735
707	0.8264
716	0.7028
725	0.7627
734	0.8136
743	0.8438
752	0.8421
761	0.8246
770	0.7974
779	0.7456
788	0.7686
797	0.8423
806	0.838
815	0.8242
824	0.8009
833	0.7622
842	0.6952
851	0.6547
860	0.6821
869	0.7272
878	0.7631
887	0.8006
896	0.8241
905	0.8241
914	0.825
923	0.8312
932	0.8271
941	0.7973
950	0.6973
959	0.7132
968	0.7339
977	0.754
986	0.7481
995	0.7187
1004	0.6696
1013	0.6042
1022	0.5349
1031	0.4775
1040	0.4485
1049	0.6334
1058	0.623
1067	0.6322
1076	0.6263
1085	0.5953
1094	0.5083
1103	0.516
1112	0.4668
1121	0.5503
1130	0.6515
1139	0.5171
1148	0.3217
1157	0.2039
1166	0.1761
1175	0.2087
1184	0.2909
1193	0.3558
1202	0.4128
1211	0.4405
1220	0.4435
1229	0.4277
1238	0.4073
1247	0.4344
1256	0.4282
1265	0.4192
1274	0.4287
1283	0.4398
1292	0.4623
1301	0.5053
1310	0.563
1319	0.616
1328	0.6762
1337	0.6589
1346	0.6226
1355	0.6397
1364	0.6241
1373	0.5594
1382	0.6927
1391	0.6792
1400	0.7333
1409	0.7578
1418	0.6785
1427	0.6966
1436	0.6173
1445	0.4634
1454	0.2858
1463	0.221
1472	0.4421
1481	0.7309
1490	0.7585
1499	0.745
1508	0.715
1517	0.6775
1526	0.6378
1535	0.5862
1544	0.4772
1553	0.4824
1562	0.5629
1571	0.6397
1580	0.6548
1589	0.6792
1598	0.7616
1607	0.836
1616	0.8692
1625	0.8835
1634	0.888
1643	0.8868
1652	0.8818
1661	0.8756
1670	0.8673
1679	0.8438
1688	0.8078
1697	0.7748
1706	0.745
1715	0.607
1724	0.1279
1733	0.0322
1742	0.0788
1751	0.5113
1760	0.7212
1769	0.797
1778	0.8493
1787	0.8686
1796	0.8783
1805	0.8864
1814	0.8905
1823	0.8939
1832	0.8961
1841	0.8984
1850	0.9002
1859	0.9019
1868	0.9036
1877	0.9053
1886	0.9056
1895	0.9057
1904	0.9056
1913	0.9053
1922	0.9046
1931	0.9042
1940	0.9042
1949	0.9066
1958	0.9142
1967	0.8992
1976	0.8964
1985	0.8912
1994	0.8738
2003	0.8803
2012	0.88
2021	0.8784
2030	0.8759
2039	0.875
2048	0.8768
2057	0.8791
2066	0.881
2075	0.8821
2084	0.8832
2093	0.8841
2102	0.8846
2111	0.8848
2120	0.8848
2129	0.8848
2138	0.8846
2147	0.8843
2156	0.8837
2165	0.883
2174	0.8821
2183	0.8809
2192	0.8797
2201	0.8784
2210	0.8768
2219	0.8749
2228	0.8717
2237	0.8679
2246	0.8639
2255	0.8592
2264	0.8555
2273	0.8525
2282	0.851
2291	0.8499
2300	0.8503
2309	0.8508
2318	0.8512
2327	0.852
2336	0.8542
2345	0.8561
2354	0.8575
2363	0.8578
2372	0.8568
2381	0.855
2390	0.8532
2399	0.8496
2408	0.8458
2417	0.842
2426	0.8386
2435	0.8355
2444	0.8334
2453	0.8319
2462	0.8313
2471	0.831
2480	0.831
2489	0.8311
2498	0.8315
2507	0.832
2516	0.8319
2525	0.8313
2534	0.8299
2543	0.8261
2552	0.8202
2561	0.815
2570	0.8111
2579	0.809
2588	0.8081
2597	0.8071
2606	0.8058
2615	0.8031
2624	0.7996
2633	0.7954
2642	0.7915
2651	0.7877
2660	0.784
2669	0.78
2678	0.7762
2687	0.7722
2696	0.7619
2705	0.7254
2714	0.6925
2723	0.6891
2732	0.686
2741	0.6709
2750	0.5907
2759	0.3953
2768	0.3194
2777	0.3885
2786	0.4803
2795	0.4923
2804	0.4779
2813	0.3549
2822	0.3425
2831	0.3929
2840	0.3281
2849	0.033
2858	0.0319
2867	0.1871
2876	0.283
2885	0.2208
2894	0.1492
2903	0.0719
2912	0.0213
2921	0.012
2930	0.015
2939	0.0263
2948	0.0675
2957	0.0787
2966	0.1186
2975	0.2635
2984	0.4208
2993	0.5467
3002	0.66
3011	0.7336
3020	0.7627
3029	0.7843
3038	0.7987
3047	0.8099
3056	0.8195
3065	0.8287
3074	0.8344
3083	0.8395
3092	0.8442
3101	0.85
3110	0.8539
3119	0.8556
3128	0.857
3137	0.858
3146	0.8587
3155	0.8592
3164	0.8597
3173	0.86
3182	0.8603
3191	0.8609
3200	0.8618
3209	0.8642
3218	0.8678
3227	0.8712
3236	0.8727
3245	0.8734
3254	0.8735
3263	0.8734
3272	0.8733
3281	0.8732
3290	0.873
3299	0.8729
3308	0.8728
3317	0.8727
3326	0.871
3335	0.8725
3344	0.8723
3353	0.8722
3362	0.8721
3371	0.8719
3380	0.8714
3389	0.8711
3398	0.8708
3407	0.8698
3416	0.8674
3425	0.863
3434	0.8579
3443	0.8552
3452	0.8551
3461	0.8577
3470	0.862
3479	0.8678
3488	0.8695
3497	0.8691
3506	0.8689
3515	0.8683
3524	0.8678
3533	0.8677
3542	0.8676
3551	0.867
3560	0.8651
3569	0.8622
3578	0.8588
3587	0.8634
3596	0.8638
3605	0.8637
3614	0.8638
3623	0.8639
3632	0.8638
3641	0.8632
3650	0.8618
3659	0.8592
3668	0.8582
3677	0.8587
3686	0.8623
3695	0.8651
3704	0.8652
3713	0.8647
3722	0.8643
3731	0.8638
3740	0.8636
3749	0.8632
3758	0.8641
3767	0.8652
3776	0.8682
3785	0.874
3794	0.8851
