Infrared Spectrum: MAGNESIUM CARBONATE, BASIC
Formula: 3 Mg C O3  * Mg ( O H)2  * 3 H2 O
State: SOLID (NUJOL AND FLUOROLUBE MULLS)
Class: COBLENTZ
Instrument: Not specified, most likely a prism, grating, or hybrid spectrometer.
Sampling: TRANSMISSION
Resolution: 4
Origin: MELLON INSTITUTE
MICROMETERS	TRANSMITTANCE
2.031	0.909
2.07194	0.902
2.11289	0.9
2.15383	0.902
2.19478	0.902
2.23572	0.9
2.27666	0.898
2.31761	0.898
2.35855	0.898
2.3995	0.9
2.44044	0.9
2.48138	0.897
2.52233	0.902
2.56327	0.905
2.60422	0.909
2.64516	0.907
2.6861	0.907
2.72705	0.897
2.76799	0.89
2.80894	0.828
2.84988	0.749
2.89083	0.677
2.93177	0.679
2.97271	0.722
3.01366	0.746
3.0546	0.754
3.09555	0.754
3.13649	0.759
3.17743	0.775
3.21838	0.783
3.25932	0.789
3.30027	0.802
3.34121	0.814
3.38215	0.826
3.4231	0.845
3.46404	0.854
3.50499	0.878
3.54593	0.893
3.58687	0.9
3.62782	0.9
3.66876	0.905
3.70971	0.905
3.75065	0.912
3.79159	0.914
3.83254	0.914
3.87348	0.912
3.91443	0.914
3.95537	0.919
3.99631	0.924
4.03726	0.926
4.0782	0.922
4.11915	0.921
4.16009	0.919
4.20104	0.912
4.24198	0.909
4.28292	0.909
4.32387	0.909
4.36481	0.909
4.40576	0.909
4.4467	0.909
4.48764	0.909
4.52859	0.909
4.56953	0.909
4.61048	0.91
4.65142	0.914
4.69236	0.915
4.73331	0.915
4.77425	0.922
4.8152	0.924
4.85614	0.924
4.89708	0.924
4.93803	0.926
4.97897	0.926
5.01992	0.924
5.06086	0.927
5.1018	0.933
5.14275	0.929
5.18369	0.927
5.22464	0.931
5.26558	0.929
5.30652	0.931
5.34747	0.931
5.38841	0.929
5.42936	0.929
5.4703	0.924
5.51124	0.929
5.55219	0.929
5.59313	0.933
5.63408	0.936
5.67502	0.943
5.71597	0.95
5.75691	0.951
5.79785	0.951
5.8388	0.939
5.87974	0.921
5.92069	0.902
5.96163	0.89
6.00257	0.874
6.04352	0.861
6.08446	0.852
6.12541	0.842
6.16635	0.835
6.20729	0.809
6.24824	0.777
6.28918	0.735
6.33013	0.68
6.37107	0.626
6.41201	0.535
6.45296	0.452
6.4939	0.401
6.53485	0.348
6.57579	0.298
6.61673	0.228
6.65768	0.157
6.69862	0.073
6.73957	0.145
6.78051	0.367
6.82145	0.471
6.8624	0.499
6.90334	0.449
6.94429	0.241
6.98523	0.104
7.02618	0.202
7.06712	0.459
7.10806	0.571
7.14901	0.696
7.18995	0.749
7.2309	0.795
7.27184	0.818
7.31278	0.842
7.35373	0.85
7.39467	0.861
7.43562	0.869
7.47656	0.876
7.5175	0.883
7.55845	0.886
7.59939	0.891
7.64034	0.895
7.68128	0.898
7.72222	0.902
7.76317	0.902
7.80411	0.902
7.84506	0.903
7.886	0.902
7.92694	0.903
7.96789	0.907
8.00883	0.909
8.04978	0.909
8.09072	0.909
8.13166	0.912
8.17261	0.909
8.21355	0.91
8.2545	0.914
8.29544	0.915
8.33639	0.914
8.37733	0.917
8.41827	0.917
8.45922	0.915
8.50016	0.917
8.54111	0.917
8.58205	0.921
8.62299	0.917
8.66394	0.915
8.70488	0.917
8.74583	0.919
8.78677	0.917
8.82771	0.914
8.86866	0.91
8.9096	0.903
8.95055	0.903
8.99149	0.909
9.03243	0.912
9.07338	0.91
9.11432	0.915
9.15527	0.922
9.19621	0.922
9.23715	0.921
9.2781	0.914
9.31904	0.919
9.35999	0.924
9.40093	0.924
9.44187	0.926
9.48282	0.924
9.52376	0.924
9.56471	0.922
9.60565	0.924
9.64659	0.922
9.68754	0.926
9.72848	0.927
9.76943	0.924
9.81037	0.926
9.85132	0.924
9.89226	0.924
9.9332	0.922
9.97415	0.922
10.0151	0.921
10.056	0.921
10.097	0.924
10.1379	0.924
10.1789	0.921
10.2198	0.921
10.2608	0.921
10.3017	0.921
10.3426	0.922
10.3836	0.921
10.4245	0.921
10.4655	0.922
10.5064	0.921
10.5474	0.924
10.5883	0.926
10.6293	0.922
10.6702	0.917
10.7111	0.921
10.7521	0.921
10.793	0.921
10.834	0.924
10.8749	0.924
10.9159	0.927
10.9568	0.927
10.9977	0.929
11.0387	0.927
11.0796	0.927
11.1206	0.927
11.1615	0.929
11.2025	0.926
11.2434	0.9
11.2844	0.895
11.3253	0.902
11.3662	0.909
11.4072	0.915
11.4481	0.915
11.4891	0.915
11.53	0.915
11.571	0.914
11.6119	0.903
11.6529	0.895
11.6938	0.89
11.7347	0.9
11.7757	0.902
11.8166	0.903
11.8576	0.917
11.8985	0.919
11.9395	0.917
11.9804	0.915
12.0214	0.915
12.0623	0.917
12.1032	0.915
12.1442	0.914
12.1851	0.903
12.2261	0.903
12.267	0.9
12.308	0.89
12.3489	0.876
12.3898	0.867
12.4308	0.862
12.4717	0.862
12.5127	0.864
12.5536	0.866
12.5946	0.871
12.6355	0.879
12.6765	0.886
12.7174	0.891
12.7583	0.902
12.7993	0.903
12.8402	0.903
12.8812	0.905
12.9221	0.903
12.9631	0.903
13.004	0.903
13.045	0.903
13.0859	0.903
13.1268	0.902
13.1678	0.9
13.2087	0.897
13.2497	0.89
13.2906	0.883
13.3316	0.879
13.3725	0.873
13.4134	0.866
13.4544	0.864
13.4953	0.859
13.5363	0.857
13.5772	0.852
13.6182	0.849
13.6591	0.84
13.7001	0.833
13.741	0.831
13.7819	0.823
13.8229	0.818
13.8638	0.809
13.9048	0.807
13.9457	0.804
13.9867	0.802
14.0276	0.801
14.0686	0.795
14.1095	0.794
14.1504	0.794
14.1914	0.789
14.2323	0.783
14.2733	0.778
14.3142	0.777
14.3552	0.775
14.3961	0.775
14.437	0.773
14.478	0.765
14.5189	0.759
14.5599	0.754
14.6008	0.747
14.6418	0.746
14.6827	0.744
14.7237	0.74
14.7646	0.737
14.8055	0.737
14.8465	0.735
14.8874	0.727
14.9284	0.715
14.9693	0.708
15.0103	0.704
15.0512	0.701
15.0922	0.701
15.1331	0.694
15.174	0.689
15.215	0.691
15.2559	0.689
15.2969	0.686
15.3378	0.684
15.3788	0.682
15.4197	0.68
15.4607	0.68
15.5016	0.682
15.5425	0.686
15.5835	0.687
15.6244	0.686
15.6654	0.686
15.7063	0.687
15.7473	0.689
15.7882	0.692
15.8291	0.699
15.8701	0.703
15.911	0.704
15.952	0.706
