Infrared Spectrum: Carbanilide, 2,2'-ditertiary butyl-
Formula: C21 H28 N2 O
State: SOLID (OIL MULL)
Class: COBLENTZ III
Instrument: BECKMAN IR-4 (HYBRID PRISM-GRATING)
Instrument parameters: NaCl PRISM
Sampling: TRANSMISSION
Resolution: 2
Origin: MONSANTO (J. FREEMAN)
1/CM	TRANSMITTANCE
626	0.7351
635	0.7671
644	0.7602
653	0.7049
662	0.6333
671	0.7086
680	0.7707
689	0.8359
698	0.8515
707	0.6596
716	0.704
725	0.7808
734	0.7893
743	0.2648
752	0.1707
761	0.7363
770	0.8851
779	0.9254
788	0.9289
797	0.9406
806	0.9503
815	0.9295
824	0.9342
833	0.905
842	0.9312
851	0.9322
860	0.9492
869	0.9394
878	0.951
887	0.9472
896	0.9371
905	0.8967
914	0.8838
923	0.8963
932	0.8974
941	0.8906
950	0.9128
959	0.9203
968	0.9043
977	0.9174
986	0.9186
995	0.9196
1004	0.9177
1013	0.8881
1022	0.8963
1031	0.898
1040	0.7917
1049	0.5783
1058	0.842
1067	0.8666
1076	0.8224
1085	0.6186
1094	0.8466
1103	0.8912
1112	0.8858
1121	0.867
1130	0.8483
1139	0.8838
1148	0.8755
1157	0.8346
1166	0.8375
1175	0.8511
1184	0.835
1193	0.7555
1202	0.6578
1211	0.6972
1220	0.5254
1229	0.2244
1238	0.3513
1247	0.4854
1256	0.428
1265	0.6209
1274	0.595
1283	0.4915
1292	0.5211
1301	0.7351
1310	0.7722
1319	0.7723
1328	0.8291
1337	0.8266
1346	0.8096
1355	0.5941
1364	0.4828
1373	0.5372
1382	0.6174
1391	0.7006
1400	0.8283
1409	0.8308
1418	0.7977
1427	0.653
1436	0.4141
1445	0.3044
1454	0.2688
1463	0.2298
1472	0.3002
1481	0.2269
1490	0.4816
1499	0.5656
1508	0.4275
1517	0.2924
1526	0.1903
1535	0.0994
1544	0.1136
1553	0.2127
1562	0.6191
1571	0.6061
1580	0.7332
1589	0.5863
1598	0.6082
1607	0.7506
1616	0.6366
1625	0.4884
1634	0.2898
1643	0.0573
1652	0.2171
1661	0.628
1670	0.8269
1679	0.8535
1688	0.8795
1697	0.9577
1706	0.97
1715	0.9745
1724	0.9762
1733	0.9755
1742	0.973
1751	0.9712
1760	0.9696
1769	0.9676
1778	0.966
1787	0.9653
1796	0.9664
1805	0.9675
1814	0.9696
1823	0.9721
1832	0.9743
1841	0.9754
1850	0.9753
1859	0.9738
1868	0.9711
1877	0.9684
1886	0.9669
1895	0.9656
1904	0.9655
1913	0.9655
1922	0.9657
1931	0.9676
1940	0.97
1949	0.975
1958	0.9809
1967	0.9847
1976	0.9871
1985	0.9869
1994	0.9866
2003	0.9865
2012	0.9863
2021	0.986
2030	0.9855
2039	0.9851
2048	0.9847
2057	0.9843
2066	0.9839
2075	0.9833
2084	0.9824
2093	0.9813
2102	0.9804
2111	0.9794
2120	0.9786
2129	0.9778
2138	0.977
2147	0.9763
2156	0.9756
2165	0.9748
2174	0.9737
2183	0.9727
2192	0.9718
2201	0.9707
2210	0.9697
2219	0.9685
2228	0.9674
2237	0.9662
2246	0.965
2255	0.9644
2264	0.964
2273	0.9634
2282	0.963
2291	0.9627
2300	0.9627
2309	0.9628
2318	0.9628
2327	0.9628
2336	0.9633
2345	0.964
2354	0.9647
2363	0.9654
2372	0.9661
2381	0.9667
2390	0.967
2399	0.9669
2408	0.9668
2417	0.9665
2426	0.9656
2435	0.9647
2444	0.9634
2453	0.9615
2462	0.9597
2471	0.9577
2480	0.9551
2489	0.9524
2498	0.9495
2507	0.9458
2516	0.9422
2525	0.9385
2534	0.9351
2543	0.9317
2552	0.9285
2561	0.9262
2570	0.9243
2579	0.9227
2588	0.9213
2597	0.9185
2606	0.9137
2615	0.9089
2624	0.9042
2633	0.9007
2642	0.8983
2651	0.8966
2660	0.8947
2669	0.8899
2678	0.8831
2687	0.8764
2696	0.8724
2705	0.8713
2714	0.8706
2723	0.8694
2732	0.8566
2741	0.8415
2750	0.8138
2759	0.7906
2768	0.7544
2777	0.7233
2786	0.6202
2795	0.5599
2804	0.4965
2813	0.4046
2822	0.3132
2831	0.2224
2840	0.1322
2849	0.0814
2858	0.0797
2867	0.0771
2876	0.0733
2885	0.0646
2894	0.0498
2903	0.015
2912	0.0044
2921	0.0018
2930	0.0029
2939	0.0072
2948	0.105
2957	0.262
2966	0.4176
2975	0.5721
2984	0.7139
2993	0.734
3002	0.7365
3011	0.7376
3020	0.742
3029	0.7609
3038	0.8044
3047	0.8239
3056	0.8349
3065	0.8378
3074	0.8383
3083	0.836
3092	0.8325
3101	0.8284
3110	0.8222
3119	0.8151
3128	0.8079
3137	0.7996
3146	0.7904
3155	0.7799
3164	0.7664
3173	0.7472
3182	0.7224
3191	0.6771
3200	0.6116
3209	0.5441
3218	0.477
3227	0.418
3236	0.4202
3245	0.4636
3254	0.513
3263	0.5355
3272	0.518
3281	0.4918
3290	0.4657
3299	0.4398
3308	0.414
3317	0.3988
3326	0.4862
3335	0.6701
3344	0.844
3353	0.8769
3362	0.8951
3371	0.9036
3380	0.9104
3389	0.9146
3398	0.9185
3407	0.9215
3416	0.9234
3425	0.9253
3434	0.9267
3443	0.9276
3452	0.9285
3461	0.9294
3470	0.9303
3479	0.9308
3488	0.9312
3497	0.9317
3506	0.9321
3515	0.9325
3524	0.933
3533	0.9333
3542	0.9335
3551	0.9335
3560	0.9334
3569	0.9334
3578	0.9333
3587	0.9333
3596	0.9333
3605	0.9331
3614	0.9329
3623	0.9327
3632	0.9325
3641	0.9323
3650	0.932
3659	0.9319
3668	0.9316
3677	0.9314
3686	0.9312
3695	0.9309
3704	0.9303
3713	0.9297
3722	0.929
3731	0.9284
3740	0.9278
3749	0.9272
3758	0.9265
3767	0.9258
3776	0.9251
3785	0.9243
3794	0.9235
3803	0.9227
3812	0.922
3821	0.9212
3830	0.9204
3839	0.9197
3848	0.919
3857	0.9182
3866	0.9175
3875	0.9167
3884	0.9159
3893	0.915
3902	0.914
3911	0.913
3920	0.9121
3929	0.9111
3938	0.9101
3947	0.9092
3956	0.9082
3965	0.9073
3974	0.9061
3983	0.9049
3992	0.9036
