Infrared Spectrum: 1,3-Octadiene (E & Z)
Formula: C8 H14
State: LIQUID (NEAT)
Class: COBLENTZ III
Instrument: BECKMAN IR-12 (GRATING)
Instrument parameters: GRATING
Sampling: TRANSMISSION
Path length: 0.0104 CM
Resolution: 2
Origin: COLGATE-PALMOLIVE COMPANY (KELLENBACH)
1/CM	TRANSMITTANCE
401	0.6963
410	0.7095
419	0.7414
428	0.7915
437	0.8253
446	0.8552
455	0.8924
464	0.9038
473	0.9009
482	0.9129
491	0.9437
500	0.9633
509	0.9547
518	0.928
527	0.919
536	0.9418
545	0.9467
554	0.9799
563	0.9831
572	0.98
581	0.9639
590	0.9421
599	0.911
608	0.8554
617	0.8137
626	0.751
635	0.64
644	0.3635
653	0.4885
662	0.6959
671	0.8021
680	0.8615
689	0.8788
698	0.877
707	0.8459
716	0.7862
725	0.5323
734	0.2844
743	0.2499
752	0.5878
761	0.7303
770	0.6982
779	0.6155
788	0.6031
797	0.6136
806	0.6809
815	0.6991
824	0.5857
833	0.3243
842	0.2773
851	0.4797
860	0.4724
869	0.4069
878	0.2163
887	0.0294
896	0.0045
905	0.0003
914	0.1076
923	0.2557
932	0.3122
941	0.172
950	0.0095
959	0.0958
968	0.1758
977	0.2165
986	0.0996
995	0.0173
1004	0.0019
1013	0.0103
1022	0.1102
1031	0.1873
1040	0.2471
1049	0.4369
1058	0.4408
1067	0.5108
1076	0.5378
1085	0.6069
1094	0.5594
1103	0.4672
1112	0.4865
1121	0.695
1130	0.7357
1139	0.7566
1148	0.7503
1157	0.6897
1166	0.5107
1175	0.501
1184	0.6399
1193	0.7171
1202	0.5715
1211	0.6352
1220	0.7283
1229	0.6574
1238	0.4861
1247	0.5601
1256	0.6293
1265	0.5726
1274	0.5096
1283	0.4665
1292	0.3743
1301	0.309
1310	0.3134
1319	0.4734
1328	0.3895
1337	0.4161
1346	0.4319
1355	0.4501
1364	0.4157
1373	0.3283
1382	0.1484
1391	0.5014
1400	0.497
1409	0.2631
1418	0.1599
1427	0.1634
1436	0.0659
1445	0.0567
1454	0.0223
1463	0.0121
1472	0.1311
1481	0.4276
1490	0.5237
1499	0.6349
1508	0.6692
1517	0.6954
1526	0.6854
1535	0.6396
1544	0.6514
1553	0.7236
1562	0.7389
1571	0.7041
1580	0.6699
1589	0.4382
1598	0.1435
1607	0.1387
1616	0.4169
1625	0.5851
1634	0.5033
1643	0.2408
1652	0.0804
1661	0.3094
1670	0.7254
1679	0.7872
1688	0.8208
1697	0.8334
1706	0.8443
1715	0.8513
1724	0.843
1733	0.8157
1742	0.8119
1751	0.8173
1760	0.798
1769	0.7575
1778	0.6037
1787	0.3157
1796	0.1862
1805	0.3648
1814	0.5513
1823	0.6767
1832	0.6813
1841	0.6736
1850	0.7703
1859	0.8024
1868	0.8195
1877	0.8547
1886	0.8673
1895	0.8508
1904	0.8616
1913	0.8593
1922	0.8691
1931	0.8692
1940	0.8472
1949	0.851
1958	0.8927
1967	0.9169
1976	0.9187
1985	0.9084
1994	0.895
2003	0.869
2012	0.8847
2021	0.8965
2030	0.8885
2039	0.8825
2048	0.8783
2057	0.881
2066	0.8912
2075	0.8998
2084	0.9039
2093	0.9032
2102	0.901
2111	0.8968
2120	0.892
2129	0.8899
2138	0.8919
2147	0.8959
2156	0.897
2165	0.8947
2174	0.8919
2183	0.8926
2192	0.8954
2201	0.8952
2210	0.8929
2219	0.8899
2228	0.8873
2237	0.8839
2246	0.8825
2255	0.8881
2264	0.8942
2273	0.8989
2282	0.8997
2291	0.8985
2300	0.8953
2309	0.8899
2318	0.8884
2327	0.8887
2336	0.8872
2345	0.885
2354	0.8825
2363	0.8796
2372	0.8764
2381	0.8727
2390	0.8666
2399	0.8607
2408	0.8561
2417	0.8639
2426	0.8741
2435	0.8775
2444	0.8772
2453	0.8771
2462	0.8776
2471	0.8802
2480	0.8848
2489	0.89
2498	0.8948
2507	0.8842
2516	0.8724
2525	0.8599
2534	0.8523
2543	0.8379
2552	0.8257
2561	0.8175
2570	0.8143
2579	0.8165
2588	0.8173
2597	0.8135
2606	0.8154
2615	0.8075
2624	0.794
2633	0.7825
2642	0.7645
2651	0.7364
2660	0.7161
2669	0.7041
2678	0.7073
2687	0.7273
2696	0.7474
2705	0.75
2714	0.7223
2723	0.6753
2732	0.6283
2741	0.6206
2750	0.6659
2759	0.6625
2768	0.6387
2777	0.6207
2786	0.576
2795	0.4944
2804	0.4144
2813	0.3085
2822	0.1966
2831	0.081
2840	0.0151
2849	0.0066
2858	0.0056
2867	0.0062
2876	0.0073
2885	0.0086
2894	0.0084
2903	0.0078
2912	0.0075
2921	0.0072
2930	0.0075
2939	0.0077
2948	0.0238
2957	0.0692
2966	0.0434
2975	0.0098
2984	0.0104
2993	0.0108
3002	0.0089
3011	0.0175
3020	0.0392
3029	0.0392
3038	0.0282
3047	0.1185
3056	0.2498
3065	0.3256
3074	0.2614
3083	0.0832
3092	0.0387
3101	0.4646
3110	0.6016
3119	0.6578
3128	0.6859
3137	0.7025
3146	0.7183
3155	0.7333
3164	0.7433
3173	0.7501
3182	0.7556
3191	0.7617
3200	0.7782
3209	0.8045
3218	0.8378
3227	0.8531
3236	0.8629
3245	0.8728
3254	0.8833
3263	0.8921
3272	0.8986
3281	0.9033
3290	0.9046
3299	0.905
3308	0.9054
3317	0.9058
3326	0.9064
3335	0.9107
3344	0.9128
3353	0.9118
3362	0.9111
3371	0.9106
3380	0.9104
3389	0.911
3398	0.915
3407	0.9183
3416	0.917
3425	0.9154
3434	0.9138
3443	0.9123
3452	0.9127
3461	0.9148
3470	0.9176
3479	0.9203
3488	0.9232
3497	0.9262
3506	0.9282
3515	0.9301
3524	0.9313
3533	0.9324
3542	0.9335
3551	0.9336
3560	0.9337
3569	0.9333
3578	0.9318
3587	0.9302
3596	0.9268
3605	0.9227
3614	0.9184
3623	0.9139
3632	0.9116
3641	0.9125
3650	0.9139
3659	0.9154
3668	0.9169
3677	0.918
3686	0.9192
3695	0.9166
3704	0.9069
3713	0.9044
3722	0.9053
3731	0.9072
3740	0.9076
3749	0.9062
3758	0.9049
3767	0.9035
3776	0.9025
3785	0.9018
3794	0.9014
3803	0.8995
3812	0.8936
3821	0.8875
3830	0.8847
3839	0.8871
3848	0.8923
3857	0.8977
3866	0.9012
3875	0.9013
3884	0.9015
3893	0.8989
3902	0.8963
3911	0.8899
3920	0.882
3929	0.8732
3938	0.8662
3947	0.8572
3956	0.8481
3965	0.844
3974	0.8439
3983	0.8462
3992	0.8447
