Infrared Spectrum: L-SERINE, METHYL ESTER, HYDROCHLORIDE
Formula: C4 H10 Cl N O3
State: SOLID (SPLIT MULL)
Class: COBLENTZ II
Instrument: DOW KBr FOREPRISM-GRATING
Instrument parameters: BLAZED AT 3.5, 12.0, 20.0 MICRON AND CHANGED AT 5.0, 7.5, 14.9 MICRON
Sampling: TRANSMISSION
Resolution: 2
Origin: DOW CHEMICAL COMPANY
1/CM	TRANSMITTANCE
3802	0.7795
3793	0.7821
3784	0.786
3775	0.7911
3766	0.794
3757	0.7943
3748	0.7953
3739	0.7968
3730	0.7996
3721	0.8028
3712	0.8061
3703	0.8091
3694	0.8121
3685	0.815
3676	0.8172
3667	0.8196
3658	0.8216
3649	0.8225
3640	0.8233
3631	0.8228
3622	0.8223
3613	0.8217
3604	0.8212
3595	0.8206
3586	0.8201
3577	0.8194
3568	0.8185
3559	0.8175
3550	0.8155
3541	0.8132
3532	0.8111
3523	0.8089
3514	0.8069
3505	0.8044
3496	0.7971
3487	0.7718
3478	0.7604
3469	0.7606
3460	0.7588
3451	0.7461
3442	0.7274
3433	0.7128
3424	0.6933
3415	0.6654
3406	0.6229
3397	0.5536
3388	0.4909
3379	0.4247
3370	0.3321
3361	0.2392
3352	0.1607
3343	0.1623
3334	0.2114
3325	0.2639
3316	0.3165
3307	0.3691
3298	0.4217
3289	0.4742
3280	0.5268
3271	0.5721
3262	0.5994
3253	0.6185
3244	0.6275
3235	0.632
3226	0.635
3217	0.6377
3208	0.6395
3199	0.6375
3190	0.6224
3181	0.6166
3172	0.6117
3163	0.5972
3154	0.5727
3145	0.5705
3136	0.5456
3127	0.5159
3118	0.4733
3109	0.4273
3100	0.3923
3091	0.3364
3082	0.3154
3073	0.3062
3064	0.3017
3055	0.2955
3046	0.2775
3037	0.259
3028	0.2552
3019	0.2575
3010	0.2561
3001	0.2451
2992	0.2305
2983	0.2175
2974	0.2102
2965	0.2048
2956	0.1944
2947	0.1834
2938	0.1733
2929	0.1622
2920	0.1541
2911	0.1532
2902	0.1595
2893	0.1684
2884	0.1787
2875	0.1931
2866	0.2082
2857	0.2235
2848	0.2411
2839	0.2622
2830	0.2871
2821	0.3085
2812	0.3259
2803	0.3409
2794	0.358
2785	0.3768
2776	0.398
2767	0.423
2758	0.4252
2749	0.4086
2740	0.4068
2731	0.4094
2722	0.4176
2713	0.4297
2704	0.447
2695	0.4725
2686	0.4878
2677	0.4902
2668	0.4633
2659	0.4097
2650	0.4299
2641	0.4496
2632	0.4298
2623	0.4423
2614	0.4637
2605	0.4832
2596	0.4855
2587	0.5048
2578	0.5268
2569	0.5469
2560	0.547
2551	0.5021
2542	0.5174
2533	0.5586
2524	0.586
2515	0.6016
2506	0.6112
2497	0.6033
2488	0.5917
2479	0.5948
2470	0.6088
2461	0.6214
2452	0.6319
2443	0.6397
2434	0.6441
2425	0.6461
2416	0.6482
2407	0.6524
2398	0.6568
2389	0.6618
2380	0.6665
2371	0.6695
2362	0.6685
2353	0.6689
2344	0.6741
2335	0.6743
2326	0.6753
2317	0.6775
2308	0.6833
2299	0.6885
2290	0.6936
2281	0.6983
2272	0.7031
2263	0.7078
2254	0.7131
2245	0.7182
2236	0.7239
2227	0.7299
2218	0.7358
2209	0.7349
2200	0.7339
2191	0.7385
2182	0.7447
2173	0.7508
2164	0.7549
2155	0.7548
2146	0.7517
2137	0.7553
2128	0.76
2119	0.7651
2110	0.7706
2101	0.774
2092	0.7721
2083	0.7751
2074	0.7822
2065	0.7868
2056	0.7908
2047	0.7941
2038	0.7985
2029	0.8049
2020	0.8093
2011	0.8104
2002	0.8089
1993	0.8275
1984	0.8332
1975	0.8242
1966	0.8118
1957	0.804
1948	0.7801
1939	0.7565
1930	0.7481
1921	0.7471
1912	0.7626
1903	0.7789
1894	0.7928
1885	0.8048
1876	0.8168
1867	0.8304
1858	0.8418
1849	0.8514
1840	0.8597
1831	0.8618
1822	0.8578
1813	0.8521
1804	0.8471
1795	0.8544
1786	0.8607
1777	0.8435
1768	0.7685
1759	0.5603
1750	0.1486
1741	0.1478
1732	0.2873
1723	0.4471
1714	0.607
1705	0.5996
1696	0.6864
1687	0.723
1678	0.7465
1669	0.7611
1660	0.7721
1651	0.7832
1642	0.7911
1633	0.7967
1624	0.7996
1615	0.7957
1606	0.7405
1597	0.4097
1588	0.526
1579	0.5246
1570	0.6761
1561	0.7328
1552	0.7665
1543	0.7737
1534	0.7614
1525	0.6482
1516	0.2459
1507	0.3268
1498	0.5673
1489	0.6399
1480	0.6651
1471	0.4885
1462	0.5862
1453	0.5658
1444	0.4076
1435	0.481
1426	0.5955
1417	0.6633
1408	0.6971
1399	0.7055
1390	0.6539
1381	0.507
1372	0.6461
1363	0.6817
1354	0.6669
1345	0.4032
1336	0.5991
1327	0.632
1318	0.5923
1309	0.4999
1300	0.2256
1291	0.3612
1282	0.416
1273	0.2821
1264	0.123
1255	0.074
1246	0.0869
1237	0.1371
1228	0.244
1219	0.3458
1210	0.4433
1201	0.5408
1192	0.5594
1183	0.5449
1174	0.5886
1165	0.4857
1156	0.3724
1147	0.5158
1138	0.534
1129	0.4082
1120	0.4874
1111	0.5369
1102	0.3816
1093	0.1622
1084	0.4164
1075	0.5149
1066	0.5709
1057	0.5606
1048	0.3475
1039	0.0946
1030	0.2747
1021	0.4245
1012	0.607
1003	0.6549
994	0.7037
985	0.6721
976	0.4682
967	0.3196
958	0.6194
949	0.6976
940	0.73
931	0.7628
922	0.7854
913	0.7845
904	0.6844
895	0.6115
886	0.7696
877	0.8164
868	0.8251
859	0.8218
850	0.7841
841	0.7614
832	0.8284
823	0.8446
814	0.8539
805	0.8516
796	0.4657
787	0.8211
778	0.8347
769	0.8373
760	0.8388
751	0.83
742	0.7999
733	0.7743
724	0.7124
715	0.7917
706	0.8375
697	0.8518
688	0.8558
679	0.8567
670	0.8575
661	0.8457
652	0.8386
643	0.8275
634	0.811
625	0.7821
616	0.718
607	0.6968
598	0.6149
589	0.4882
580	0.3659
571	0.4406
562	0.4818
553	0.5601
544	0.6383
535	0.6711
526	0.7125
517	0.7505
508	0.7911
499	0.8111
490	0.8193
481	0.7968
472	0.7131
463	0.8028
454	0.8764
445	0.8997
436	0.9102
427	0.9184
418	0.9256
409	0.9311
400	0.933
391	0.9348
382	0.9348
