Infrared Spectrum: CALCIUM PHOSPHATE, TRIBASIC
Formula: Ca3 ( P O4)2
State: SOLID (NUJOL MULL)
Class: COBLENTZ
Instrument: Not specified, most likely a prism, grating, or hybrid spectrometer.
Sampling: TRANSMISSION
Resolution: 4
Origin: MELLON INSTITUTE
MICROMETERS	TRANSMITTANCE
2.024	0.889
2.06385	0.891
2.10371	0.892
2.14356	0.892
2.18342	0.891
2.22327	0.892
2.26312	0.889
2.30298	0.886
2.34283	0.881
2.38269	0.881
2.42254	0.879
2.4624	0.882
2.50225	0.886
2.5421	0.892
2.58196	0.894
2.62181	0.894
2.66167	0.894
2.70152	0.891
2.74137	0.882
2.78123	0.857
2.82108	0.826
2.86094	0.782
2.90079	0.764
2.94065	0.75
2.9805	0.74
3.02035	0.73
3.06021	0.727
3.10006	0.725
3.13992	0.727
3.17977	0.739
3.21962	0.74
3.25948	0.74
3.29933	0.615
3.33919	0.227
3.37904	0.15
3.4189	0.227
3.45875	0.219
3.4986	0.575
3.53846	0.757
3.57831	0.799
3.61817	0.819
3.65802	0.832
3.69787	0.841
3.73773	0.847
3.77758	0.852
3.81744	0.862
3.85729	0.867
3.89715	0.877
3.937	0.881
3.97685	0.884
4.01671	0.886
4.05656	0.887
4.09642	0.887
4.13627	0.887
4.17612	0.882
4.21598	0.891
4.25583	0.889
4.29569	0.889
4.33554	0.891
4.3754	0.889
4.41525	0.887
4.4551	0.887
4.49496	0.887
4.53481	0.886
4.57467	0.887
4.61452	0.887
4.65437	0.886
4.69423	0.884
4.73408	0.886
4.77394	0.886
4.81379	0.886
4.85365	0.887
4.8935	0.887
4.93335	0.886
4.97321	0.882
5.01306	0.881
5.05292	0.882
5.09277	0.882
5.13262	0.882
5.17248	0.884
5.21233	0.889
5.25219	0.889
5.29204	0.889
5.3319	0.887
5.37175	0.882
5.4116	0.884
5.45146	0.891
5.49131	0.891
5.53117	0.887
5.57102	0.886
5.61087	0.889
5.65073	0.894
5.69058	0.894
5.73044	0.889
5.77029	0.892
5.81015	0.894
5.85	0.889
5.88985	0.884
5.92971	0.884
5.96956	0.877
6.00942	0.869
6.04927	0.857
6.08912	0.852
6.12898	0.851
6.16883	0.852
6.20869	0.859
6.24854	0.866
6.2884	0.872
6.32825	0.872
6.3681	0.871
6.40796	0.869
6.44781	0.869
6.48767	0.876
6.52752	0.876
6.56737	0.872
6.60723	0.866
6.64708	0.854
6.68694	0.836
6.72679	0.801
6.76665	0.62
6.8065	0.528
6.84635	0.538
6.88621	0.617
6.92606	0.702
6.96592	0.77
7.00577	0.789
7.04562	0.799
7.08548	0.816
7.12533	0.822
7.16519	0.78
7.20504	0.68
7.2449	0.714
7.28475	0.747
7.3246	0.789
7.36446	0.816
7.40431	0.819
7.44417	0.826
7.48402	0.837
7.52387	0.847
7.56373	0.846
7.60358	0.842
7.64344	0.841
7.68329	0.842
7.72315	0.846
7.763	0.849
7.80285	0.847
7.84271	0.847
7.88256	0.847
7.92242	0.849
7.96227	0.847
8.00212	0.847
8.04198	0.844
8.08183	0.841
8.12169	0.837
8.16154	0.834
8.2014	0.824
8.24125	0.824
8.2811	0.821
8.32096	0.819
8.36081	0.816
8.40067	0.804
8.44052	0.801
8.48037	0.79
8.52023	0.774
8.56008	0.764
8.59994	0.742
8.63979	0.717
8.67965	0.682
8.7195	0.65
8.75935	0.63
8.79921	0.598
8.83906	0.55
8.87892	0.478
8.91877	0.366
8.95862	0.28
8.99848	0.207
9.03833	0.17
9.07819	0.137
9.11804	0.113
9.1579	0.105
9.19775	0.103
9.2376	0.102
9.27746	0.102
9.31731	0.091
9.35717	0.08
9.39702	0.073
9.43687	0.068
9.47673	0.06
9.51658	0.053
9.55644	0.05
9.59629	0.05
9.63615	0.045
9.676	0.041
9.71585	0.041
9.75571	0.068
9.79556	0.13
9.83542	0.19
9.87527	0.259
9.91512	0.351
9.95498	0.426
9.99483	0.496
10.0347	0.54
10.0745	0.571
10.1144	0.603
10.1542	0.633
10.1941	0.657
10.234	0.673
10.2738	0.677
10.3137	0.672
10.3535	0.657
10.3934	0.653
10.4332	0.663
10.4731	0.683
10.5129	0.702
10.5528	0.714
10.5926	0.727
10.6325	0.739
10.6724	0.744
10.7122	0.752
10.7521	0.759
10.7919	0.762
10.8318	0.765
10.8716	0.774
10.9115	0.777
10.9513	0.78
10.9912	0.782
11.031	0.777
11.0709	0.78
11.1107	0.784
11.1506	0.79
11.1905	0.79
11.2303	0.785
11.2702	0.784
11.31	0.789
11.3499	0.787
11.3897	0.784
11.4296	0.784
11.4694	0.787
11.5093	0.79
11.5491	0.794
11.589	0.799
11.6289	0.799
11.6687	0.802
11.7086	0.804
11.7484	0.804
11.7883	0.807
11.8281	0.812
11.868	0.817
11.9078	0.817
11.9477	0.819
11.9875	0.822
12.0274	0.824
12.0672	0.826
12.1071	0.827
12.147	0.827
12.1868	0.826
12.2267	0.831
12.2665	0.832
12.3064	0.834
12.3462	0.836
12.3861	0.832
12.4259	0.839
12.4658	0.837
12.5056	0.841
12.5455	0.842
12.5854	0.836
12.6252	0.832
12.6651	0.829
12.7049	0.831
12.7448	0.834
12.7846	0.831
12.8245	0.831
12.8643	0.832
12.9042	0.832
12.944	0.827
12.9839	0.822
13.0237	0.819
13.0636	0.819
13.1035	0.817
13.1433	0.812
13.1832	0.809
13.223	0.807
13.2629	0.804
13.3027	0.802
13.3426	0.802
13.3824	0.799
13.4223	0.797
13.4621	0.792
13.502	0.785
13.5419	0.78
13.5817	0.774
13.6216	0.772
13.6614	0.764
13.7013	0.757
13.7411	0.75
13.781	0.749
13.8208	0.749
13.8607	0.749
13.9005	0.75
13.9404	0.755
13.9802	0.764
14.0201	0.765
14.06	0.759
14.0998	0.75
14.1397	0.747
14.1795	0.747
14.2194	0.744
14.2592	0.737
14.2991	0.732
14.3389	0.73
14.3788	0.73
14.4186	0.727
14.4585	0.722
14.4984	0.714
14.5382	0.712
14.5781	0.71
14.6179	0.705
14.6578	0.697
14.6976	0.698
14.7375	0.692
14.7773	0.688
14.8172	0.692
14.857	0.692
14.8969	0.68
14.9367	0.673
14.9766	0.672
15.0165	0.672
15.0563	0.663
15.0962	0.658
15.136	0.652
15.1759	0.65
15.2157	0.65
15.2556	0.647
15.2954	0.64
15.3353	0.633
15.3751	0.632
15.415	0.627
15.4549	0.625
15.4947	0.622
15.5346	0.62
15.5744	0.615
15.6143	0.622
15.6541	0.627
15.694	0.628
15.7338	0.633
15.7737	0.643
15.8135	0.648
15.8534	0.652
15.8932	0.658
15.9331	0.668
15.973	0.68
