Infrared Spectrum: 3-ACETOXY SALICYLIC ACID, PHENYL ESTER
Formula: C15 H12 O5
State: SOLUTION (SATURATED IN CCl4 FOR 5000-1350 CM^-^1, SATURATED IN CS2 FOR 1350-625 CM^-^1)
Class: COBLENTZ
Instrument: Not specified, most likely a prism, grating, or hybrid spectrometer.
Sampling: TRANSMISSION
Path length: 0.01 CM, 0.01 CM
Resolution: 4
Origin: DOW CHEMICAL COMPANY
MICROMETERS	TRANSMITTANCE
2.039	0.897
2.07822	0.896
2.11743	0.899
2.15665	0.9
2.19586	0.902
2.23508	0.904
2.27429	0.904
2.31351	0.905
2.35272	0.905
2.39194	0.907
2.43115	0.907
2.47037	0.909
2.50958	0.907
2.5488	0.905
2.58801	0.904
2.62723	0.904
2.66644	0.9
2.70566	0.904
2.74487	0.899
2.78409	0.894
2.8233	0.884
2.86252	0.876
2.90174	0.86
2.94095	0.805
2.98017	0.711
3.01938	0.59
3.0586	0.561
3.09781	0.688
3.13703	0.79
3.17624	0.821
3.21546	0.8
3.25467	0.81
3.29389	0.844
3.3331	0.868
3.37232	0.87
3.41153	0.875
3.45075	0.883
3.48996	0.896
3.52918	0.904
3.56839	0.896
3.60761	0.899
3.64682	0.902
3.68604	0.905
3.72526	0.907
3.76447	0.907
3.80369	0.909
3.8429	0.912
3.88212	0.923
3.92133	0.92
3.96055	0.928
3.99976	0.928
4.03898	0.928
4.07819	0.926
4.11741	0.923
4.15662	0.917
4.19584	0.904
4.23505	0.896
4.27427	0.891
4.31348	0.887
4.3527	0.899
4.39191	0.917
4.43113	0.93
4.47034	0.943
4.50956	0.939
4.54877	0.931
4.58799	0.933
4.62721	0.939
4.66642	0.938
4.70564	0.931
4.74485	0.941
4.78407	0.941
4.82328	0.93
4.8625	0.931
4.90171	0.93
4.94093	0.926
4.98014	0.92
5.01936	0.928
5.05857	0.92
5.09779	0.91
5.137	0.91
5.17622	0.915
5.21543	0.922
5.25465	0.925
5.29386	0.917
5.33308	0.912
5.37229	0.915
5.41151	0.918
5.45073	0.912
5.48994	0.897
5.52916	0.912
5.56837	0.912
5.60759	0.9
5.6468	0.881
5.68602	0.86
5.72523	0.831
5.76445	0.767
5.80366	0.629
5.84288	0.366
5.88209	0.113
5.92131	0.313
5.96052	0.631
5.99974	0.644
6.03895	0.556
6.07817	0.615
6.11738	0.65
6.1566	0.425
6.19581	0.349
6.23503	0.287
6.27425	0.219
6.31346	0.238
6.35268	0.31
6.39189	0.258
6.43111	0.212
6.47032	0.266
6.50954	0.37
6.54875	0.426
6.58797	0.459
6.62718	0.478
6.6664	0.426
6.70561	0.201
6.74483	0.28
6.78404	0.435
6.82326	0.584
6.86247	0.696
6.90169	0.762
6.9409	0.73
6.98012	0.673
7.01933	0.649
7.05855	0.607
7.09777	0.534
7.13698	0.472
7.1762	0.504
7.21541	0.571
7.25463	0.608
7.29384	0.634
7.33306	0.696
7.37227	0.689
7.41149	0.623
7.4507	0.405
7.48992	0.381
7.52913	0.391
7.56835	0.327
7.60756	0.211
7.64678	0.097
7.68599	0.082
7.72521	0.246
7.76442	0.342
7.80364	0.448
7.84285	0.493
7.88207	0.529
7.92128	0.404
7.9605	0.165
7.99972	0.055
8.03893	0.16
8.07815	0.316
8.11736	0.326
8.15658	0.3
8.19579	0.318
8.23501	0.241
8.27422	0.105
8.31344	0.11
8.35265	0.295
8.39187	0.379
8.43108	0.368
8.4703	0.383
8.50951	0.451
8.54873	0.439
8.58794	0.31
8.62716	0.1
8.66637	0.235
8.70559	0.391
8.7448	0.251
8.78402	0.079
8.82324	0.032
8.86245	0.126
8.90167	0.319
8.94088	0.503
8.9801	0.608
9.01931	0.693
9.05853	0.735
9.09774	0.762
9.13696	0.774
9.17617	0.762
9.21539	0.717
9.2546	0.649
9.29382	0.603
9.33303	0.487
9.37225	0.305
9.41146	0.15
9.45068	0.214
9.48989	0.415
9.52911	0.592
9.56832	0.706
9.60754	0.702
9.64676	0.634
9.68597	0.665
9.72519	0.767
9.7644	0.777
9.80362	0.801
9.84283	0.813
9.88205	0.801
9.92126	0.737
9.96048	0.803
9.99969	0.831
10.0389	0.829
10.0781	0.813
10.1173	0.759
10.1566	0.707
10.1958	0.733
10.235	0.8
10.2742	0.824
10.3134	0.827
10.3526	0.824
10.3918	0.826
10.4311	0.811
10.4703	0.775
10.5095	0.738
10.5487	0.727
10.5879	0.72
10.6271	0.709
10.6664	0.745
10.7056	0.78
10.7448	0.805
10.784	0.814
10.8232	0.818
10.8624	0.814
10.9016	0.808
10.9409	0.798
10.9801	0.784
11.0193	0.746
11.0585	0.701
11.0977	0.654
11.1369	0.602
11.1761	0.577
11.2154	0.573
11.2546	0.579
11.2938	0.589
11.333	0.597
11.3722	0.595
11.4114	0.586
11.4507	0.573
11.4899	0.553
11.5291	0.521
11.5683	0.467
11.6075	0.438
11.6467	0.457
11.6859	0.474
11.7252	0.488
11.7644	0.519
11.8036	0.555
11.8428	0.599
11.882	0.654
11.9212	0.699
11.9605	0.717
11.9997	0.725
12.0389	0.73
12.0781	0.73
12.1173	0.724
12.1565	0.714
12.1957	0.711
12.235	0.719
12.2742	0.725
12.3134	0.719
12.3526	0.709
12.3918	0.699
12.431	0.688
12.4703	0.67
12.5095	0.652
12.5487	0.621
12.5879	0.582
12.6271	0.55
12.6663	0.55
12.7055	0.566
12.7448	0.579
12.784	0.597
12.8232	0.608
12.8624	0.595
12.9016	0.543
12.9408	0.465
12.98	0.399
13.0193	0.436
13.0585	0.498
13.0977	0.509
13.1369	0.405
13.1761	0.267
13.2153	0.102
13.2546	0.1
13.2938	0.269
13.333	0.467
13.3722	0.568
13.4114	0.623
13.4506	0.657
13.4898	0.68
13.5291	0.688
13.5683	0.688
13.6075	0.683
13.6467	0.673
13.6859	0.662
13.7251	0.647
13.7644	0.637
13.8036	0.628
13.8428	0.612
13.882	0.597
13.9212	0.579
13.9604	0.564
13.9996	0.545
14.0389	0.511
14.0781	0.478
14.1173	0.444
14.1565	0.399
14.1957	0.347
14.2349	0.288
14.2742	0.222
14.3134	0.178
14.3526	0.173
14.3918	0.204
14.431	0.238
14.4702	0.258
14.5094	0.264
14.5487	0.258
14.5879	0.248
14.6271	0.246
14.6663	0.246
14.7055	0.258
14.7447	0.272
14.784	0.287
14.8232	0.297
14.8624	0.298
14.9016	0.292
14.9408	0.29
14.98	0.303
15.0192	0.318
15.0585	0.34
15.0977	0.358
15.1369	0.368
15.1761	0.373
15.2153	0.376
15.2545	0.376
15.2937	0.376
15.333	0.373
15.3722	0.371
15.4114	0.368
15.4506	0.368
15.4898	0.366
15.529	0.365
15.5683	0.362
15.6075	0.358
15.6467	0.357
15.6859	0.352
15.7251	0.349
15.7643	0.344
15.8035	0.34
15.8428	0.337
15.882	0.34
15.9212	0.349
