Infrared Spectrum: Cyclohexanemalonic acid, 5-hydroxy-2-(1-hydroxyethyl)-4,4-dimethyl-Alpha-[1-(dimethylamino)prop-2-yl]-Gamma,Delta-dilactone
Formula: C18 H29 N O4
State: SOLUTION 7% (CHCl3 FOR 2.5-12.5 microns)
Melting point: 171-172 C
Class: COBLENTZ
Instrument: PERKIN-ELMER 21 (GRATING)
Instrument parameters: FILTER AT ABOUT 10 MICRONS
Path length: 0.01 CM
Resolution: 2
Origin: ABBOTT LABORATORIES
1/CM	TRANSMITTANCE
799	0.958
808	0.9416
817	0.8902
826	0.8453
835	0.8332
844	0.9087
853	0.91
862	0.8748
871	0.8575
880	0.6877
889	0.8412
898	0.8042
907	0.7813
916	0.6948
925	0.6354
934	0.566
943	0.3549
952	0.7014
961	0.6032
970	0.784
979	0.6634
988	0.6374
997	0.7651
1006	0.5859
1015	0.7279
1024	0.7301
1033	0.7286
1042	0.5935
1051	0.7408
1060	0.7166
1069	0.4109
1078	0.5855
1087	0.3391
1096	0.5485
1105	0.563
1114	0.6085
1123	0.4553
1132	0.1488
1141	0.1164
1150	0.1738
1159	0.208
1168	0.3882
1177	0.6002
1186	0.5147
1195	0.4351
1204	0.4795
1213	0.4518
1222	0.4374
1231	0.4737
1240	0.4735
1249	0.3423
1258	0.237
1267	0.3749
1276	0.445
1285	0.3522
1294	0.5792
1303	0.6619
1312	0.6279
1321	0.6033
1330	0.6362
1339	0.5978
1348	0.5969
1357	0.6701
1366	0.5547
1375	0.463
1384	0.4951
1393	0.79
1402	0.8225
1411	0.8171
1420	0.7674
1429	0.6815
1438	0.6145
1447	0.4006
1456	0.4774
1465	0.6267
1474	0.7174
1483	0.8212
1492	0.8786
1501	0.9098
1510	0.9193
1519	0.9192
1528	0.9153
1537	0.9093
1546	0.9031
1555	0.899
1564	0.8983
1573	0.8978
1582	0.8976
1591	0.8872
1600	0.8767
1609	0.8701
1618	0.8667
1627	0.866
1636	0.8653
1645	0.8572
1654	0.8418
1663	0.8207
1672	0.7785
1681	0.7102
1690	0.5931
1699	0.4709
1708	0.4625
1717	0.4542
1726	0.343
1735	0.1182
1744	0.0281
1753	0.0596
1762	0.3399
1771	0.684
1780	0.7758
1789	0.8504
1798	0.8729
1807	0.8851
1816	0.8903
1825	0.8965
1834	0.91
1843	0.9148
1852	0.9158
1861	0.916
1870	0.9165
1879	0.9171
1888	0.919
1897	0.9262
1906	0.9277
1915	0.9278
1924	0.9277
1933	0.9275
1942	0.9277
1951	0.9279
1960	0.9281
1969	0.9288
1978	0.9295
1987	0.9299
1996	0.9318
2005	0.9372
2014	0.9375
2023	0.9372
2032	0.937
2041	0.9371
2050	0.9377
2059	0.9383
2068	0.9389
2077	0.9395
2086	0.94
2095	0.9405
2104	0.941
2113	0.9406
2122	0.9402
2131	0.9397
2140	0.9392
2149	0.9388
2158	0.9384
2167	0.9379
2176	0.9381
2185	0.9391
2194	0.9401
2203	0.9402
2212	0.9388
2221	0.9367
2230	0.934
2239	0.9324
2248	0.9318
2257	0.9312
2266	0.9274
2275	0.9249
2284	0.9241
2293	0.9241
2302	0.9241
2311	0.9247
2320	0.9252
2329	0.9257
2338	0.9262
2347	0.9269
2356	0.9289
2365	0.9313
2374	0.9337
2383	0.9346
2392	0.9324
2401	0.9215
2410	0.9114
2419	0.9115
2428	0.9135
2437	0.9153
2446	0.9168
2455	0.9181
2464	0.9185
2473	0.9188
2482	0.9188
2491	0.9197
2500	0.9243
2509	0.9279
2518	0.9288
2527	0.929
2536	0.9288
2545	0.9286
2554	0.9282
2563	0.9279
2572	0.9276
2581	0.9269
2590	0.9262
2599	0.9256
2608	0.9251
2617	0.9246
2626	0.9235
2635	0.9222
2644	0.9205
2653	0.9168
2662	0.9122
2671	0.9069
2680	0.9005
2689	0.8939
2698	0.8871
2707	0.8792
2716	0.8687
2725	0.8536
2734	0.8361
2743	0.815
2752	0.7827
2761	0.7384
2770	0.6925
2779	0.6745
2788	0.6747
2797	0.6939
2806	0.6954
2815	0.6574
2824	0.6265
2833	0.6248
2842	0.6244
2851	0.6169
2860	0.5958
2869	0.5716
2878	0.5476
2887	0.5234
2896	0.4994
2905	0.4754
2914	0.4516
2923	0.428
2932	0.4121
2941	0.4124
2950	0.4228
2959	0.437
2968	0.4427
2977	0.4502
2986	0.5235
2995	0.59
3004	0.6561
3013	0.7191
3022	0.7471
3031	0.7681
3040	0.8055
3049	0.8341
3058	0.8733
3067	0.8983
3076	0.9122
3085	0.9156
3094	0.9177
3103	0.9197
3112	0.9212
3121	0.9227
3130	0.9241
3139	0.9255
3148	0.9267
3157	0.9278
3166	0.929
3175	0.9301
3184	0.9305
3193	0.931
3202	0.9314
3211	0.9317
3220	0.9322
3229	0.9322
3238	0.9319
3247	0.9314
3256	0.9303
3265	0.9291
3274	0.9278
3283	0.9268
3292	0.9258
3301	0.9247
3310	0.9238
3319	0.9233
3328	0.9229
3337	0.9225
3346	0.9221
3355	0.9217
3364	0.9215
3373	0.9213
3382	0.9211
3391	0.9209
3400	0.9209
3409	0.9211
3418	0.9214
3427	0.9216
3436	0.922
3445	0.9227
3454	0.9235
3463	0.9244
3472	0.9251
3481	0.9276
3490	0.9302
3499	0.9324
3508	0.9338
3517	0.9352
3526	0.9357
3535	0.9357
3544	0.9357
3553	0.9355
3562	0.9353
3571	0.9352
3580	0.9349
3589	0.9347
3598	0.9347
3607	0.9347
3616	0.9347
3625	0.9347
3634	0.9348
3643	0.9348
3652	0.9348
3661	0.9348
3670	0.9348
3679	0.9348
3688	0.9348
3697	0.9348
3706	0.9348
3715	0.9348
3724	0.9348
3733	0.9347
3742	0.9347
3751	0.9347
3760	0.9347
3769	0.9347
3778	0.9347
3787	0.9346
3796	0.9346
3805	0.9346
3814	0.9346
3823	0.9346
3832	0.9346
3841	0.9346
3850	0.9346
3859	0.9346
3868	0.9346
3877	0.9347
3886	0.9347
3895	0.9347
3904	0.9347
3913	0.9348
3922	0.9349
3931	0.9351
3940	0.9352
3949	0.9353
3958	0.9356
3967	0.9357
3976	0.9359
3985	0.936
3994	0.9362
