Infrared Spectrum: Ethylamine, oxalate
Formula: C6 H16 N2 O4
State: SOLID (KBr DISC)
Class: COBLENTZ III
Instrument: BECKMAN IR-4 (HYBRID PRISM-GRATING)
Sampling: TRANSMISSION
Resolution: 2
Origin: UNIVERSITY OF FLORIDA
1/CM	TRANSMITTANCE
668	0.8108
677	0.7914
686	0.7915
695	0.8097
704	0.8121
713	0.8219
722	0.8102
731	0.796
740	0.7608
749	0.6421
758	0.3392
767	0.3285
776	0.7163
785	0.8237
794	0.5952
803	0.6131
812	0.8163
821	0.8743
830	0.8866
839	0.9002
848	0.9045
857	0.9065
866	0.9047
875	0.9025
884	0.8853
893	0.8929
902	0.8965
911	0.8984
920	0.9035
929	0.8967
938	0.8957
947	0.8971
956	0.8981
965	0.904
974	0.8937
983	0.885
992	0.864
1001	0.8173
1010	0.6552
1019	0.4676
1028	0.7913
1037	0.8599
1046	0.8249
1055	0.5919
1064	0.7532
1073	0.8586
1082	0.8693
1091	0.8691
1100	0.8681
1109	0.8611
1118	0.8614
1127	0.8571
1136	0.8506
1145	0.8518
1154	0.8422
1163	0.8408
1172	0.8316
1181	0.8298
1190	0.8154
1199	0.7968
1208	0.7763
1217	0.7428
1226	0.6857
1235	0.627
1244	0.6497
1253	0.6856
1262	0.6438
1271	0.5614
1280	0.4575
1289	0.3239
1298	0.2527
1307	0.2388
1316	0.3948
1325	0.5513
1334	0.6075
1343	0.5329
1352	0.3617
1361	0.4327
1370	0.5124
1379	0.5092
1388	0.6393
1397	0.6669
1406	0.7192
1415	0.7332
1424	0.7206
1433	0.705
1442	0.6842
1451	0.6423
1460	0.5993
1469	0.6082
1478	0.6115
1487	0.5377
1496	0.5379
1505	0.5489
1514	0.5384
1523	0.5069
1532	0.4753
1541	0.4025
1550	0.3742
1559	0.317
1568	0.2866
1577	0.2522
1586	0.2251
1595	0.2304
1604	0.2628
1613	0.2699
1622	0.2806
1631	0.2779
1640	0.2471
1649	0.2297
1658	0.2343
1667	0.2488
1676	0.2701
1685	0.2962
1694	0.3397
1703	0.3747
1712	0.4119
1721	0.4496
1730	0.4898
1739	0.5271
1748	0.5502
1757	0.5713
1766	0.5913
1775	0.6106
1784	0.6341
1793	0.6616
1802	0.6847
1811	0.7017
1820	0.7134
1829	0.7286
1838	0.7434
1847	0.7563
1856	0.7685
1865	0.7833
1874	0.8008
1883	0.8085
1892	0.8151
1901	0.8223
1910	0.8315
1919	0.8421
1928	0.8478
1937	0.8537
1946	0.863
1955	0.8686
1964	0.8777
1973	0.8798
1982	0.8799
1991	0.8782
2000	0.8756
2009	0.8769
2018	0.8785
2027	0.8738
2036	0.8567
2045	0.8353
2054	0.8113
2063	0.8091
2072	0.7985
2081	0.7908
2090	0.7906
2099	0.7926
2108	0.7971
2117	0.8041
2126	0.8107
2135	0.8196
2144	0.8356
2153	0.8519
2162	0.8642
2171	0.8762
2180	0.8915
2189	0.9029
2198	0.9086
2207	0.9141
2216	0.9179
2225	0.9224
2234	0.9293
2243	0.9269
2252	0.9188
2261	0.9159
2270	0.9145
2279	0.9143
2288	0.9182
2297	0.9241
2306	0.9291
2315	0.93
2324	0.9307
2333	0.9317
2342	0.9361
2351	0.9407
2360	0.9408
2369	0.9391
2378	0.935
2387	0.9176
2396	0.8978
2405	0.8805
2414	0.8661
2423	0.8538
2432	0.8425
2441	0.8292
2450	0.812
2459	0.7907
2468	0.7732
2477	0.7576
2486	0.7429
2495	0.7287
2504	0.7144
2513	0.6974
2522	0.674
2531	0.6264
2540	0.5713
2549	0.5168
2558	0.4826
2567	0.4554
2576	0.4611
2585	0.5132
2594	0.5494
2603	0.5619
2612	0.5635
2621	0.5582
2630	0.5391
2639	0.5249
2648	0.5138
2657	0.5055
2666	0.4981
2675	0.4943
2684	0.493
2693	0.4916
2702	0.4904
2711	0.4886
2720	0.4791
2729	0.4569
2738	0.4347
2747	0.4127
2756	0.3908
2765	0.3702
2774	0.3484
2783	0.3345
2792	0.3324
2801	0.346
2810	0.3632
2819	0.3703
2828	0.3702
2837	0.36
2846	0.3475
2855	0.3407
2864	0.3373
2873	0.3356
2882	0.3351
2891	0.335
2900	0.3354
2909	0.3365
2918	0.3387
2927	0.3403
2936	0.3394
2945	0.3364
2954	0.3285
2963	0.3174
2972	0.3109
2981	0.3042
2990	0.2947
2999	0.2868
3008	0.2814
3017	0.2786
3026	0.2763
3035	0.2749
3044	0.2741
3053	0.2732
3062	0.2725
3071	0.272
3080	0.2722
3089	0.2733
3098	0.2791
3107	0.2875
3116	0.2966
3125	0.306
3134	0.3152
3143	0.3245
3152	0.3337
3161	0.3425
3170	0.3514
3179	0.36
3188	0.3674
3197	0.3773
3206	0.3857
3215	0.3921
3224	0.401
3233	0.4114
3242	0.4254
3251	0.4411
3260	0.4551
3269	0.4636
3278	0.4722
3287	0.4799
3296	0.487
3305	0.494
3314	0.5026
3323	0.5124
3332	0.522
3341	0.5314
3350	0.5405
3359	0.5491
3368	0.5558
3377	0.5624
3386	0.5688
3395	0.5746
3404	0.5801
3413	0.5857
3422	0.5913
3431	0.5971
3440	0.6027
3449	0.6084
3458	0.6139
3467	0.6191
3476	0.6243
3485	0.6294
3494	0.6346
3503	0.6393
3512	0.6432
3521	0.647
3530	0.6508
3539	0.6549
3548	0.6592
3557	0.6633
3566	0.6674
3575	0.671
3584	0.6745
3593	0.6768
3602	0.6786
3611	0.6812
3620	0.6836
3629	0.6862
3638	0.6887
3647	0.6915
3656	0.6943
3665	0.697
3674	0.6992
3683	0.7009
3692	0.7025
3701	0.7038
3710	0.7051
3719	0.708
3728	0.7108
3737	0.7137
3746	0.7163
3755	0.7186
3764	0.7208
3773	0.723
3782	0.7251
3791	0.7268
3800	0.7281
3809	0.7294
3818	0.7314
3827	0.734
3836	0.7364
3845	0.7388
3854	0.741
3863	0.7429
3872	0.7449
3881	0.7468
3890	0.7487
3899	0.7504
3908	0.7522
3917	0.754
3926	0.7556
3935	0.7574
3944	0.7592
3953	0.7609
3962	0.7627
3971	0.7645
3980	0.7662
3989	0.7679
3998	0.7695
