Infrared Spectrum: Pyridine, 4-diphenylmethyl-, hydrochloride
Formula: C18 H16 Cl N
State: SOLID (KBr DISC, 0.8% WT.)
Class: COBLENTZ III
Instrument: PERKIN-ELMER 157
Sampling: TRANSMISSION
Resolution: 2
Origin: BRITISH PETROLEUM CO. LTD., ENGLAND
1/CM	TRANSMITTANCE
667	0.642
676	0.588
685	0.3631
694	0.0227
703	0.0406
712	0.5243
721	0.6969
730	0.6274
739	0.1926
748	0.2844
757	0.0284
766	0.5092
775	0.4077
784	0.0349
793	0.4912
802	0.7457
811	0.7805
820	0.6392
829	0.4163
838	0.2844
847	0.7451
856	0.6822
865	0.5336
874	0.464
883	0.7598
892	0.7687
901	0.7509
910	0.6573
919	0.6637
928	0.4185
937	0.5302
946	0.6076
955	0.6747
964	0.6815
973	0.6171
982	0.4735
991	0.5352
1000	0.3238
1009	0.6169
1018	0.5923
1027	0.3208
1036	0.6155
1045	0.6421
1054	0.5206
1063	0.6149
1072	0.4793
1081	0.5623
1090	0.2545
1099	0.6133
1108	0.6313
1117	0.5939
1126	0.6208
1135	0.6123
1144	0.5849
1153	0.4841
1162	0.5091
1171	0.4647
1180	0.2842
1189	0.4234
1198	0.142
1207	0.5467
1216	0.51
1225	0.34
1234	0.1353
1243	0.1208
1252	0.244
1261	0.3712
1270	0.4817
1279	0.4484
1288	0.4106
1297	0.4251
1306	0.2813
1315	0.355
1324	0.379
1333	0.4066
1342	0.4304
1351	0.3572
1360	0.3413
1369	0.4427
1378	0.4826
1387	0.4704
1396	0.4401
1405	0.4232
1414	0.4091
1423	0.3934
1432	0.3219
1441	0.2352
1450	0.2317
1459	0.2972
1468	0.1963
1477	0.097
1486	0.0262
1495	0.0392
1504	0.2993
1513	0.4717
1522	0.5001
1531	0.4886
1540	0.4511
1549	0.4214
1558	0.3463
1567	0.2648
1576	0.1382
1585	0.0256
1594	0.0164
1603	0.2078
1612	0.2072
1621	0.1254
1630	0.1051
1639	0.3827
1648	0.4904
1657	0.4979
1666	0.4883
1675	0.4841
1684	0.4804
1693	0.4639
1702	0.4478
1711	0.4434
1720	0.4393
1729	0.436
1738	0.433
1747	0.4254
1756	0.4044
1765	0.3827
1774	0.3732
1783	0.3728
1792	0.3693
1801	0.3605
1810	0.353
1819	0.3514
1828	0.3428
1837	0.3189
1846	0.3153
1855	0.3107
1864	0.2975
1873	0.2948
1882	0.2944
1891	0.2952
1900	0.2958
1909	0.2914
1918	0.2867
1927	0.2623
1936	0.2428
1945	0.2245
1954	0.222
1963	0.2276
1972	0.2306
1981	0.2398
1990	0.2497
1999	0.2493
2008	0.2379
2017	0.2089
2026	0.1947
2035	0.2065
2044	0.2098
2053	0.192
2062	0.1873
2071	0.2334
2080	0.243
2089	0.2422
2098	0.2428
2107	0.2394
2116	0.2367
2125	0.2347
2134	0.233
2143	0.2317
2152	0.2296
2161	0.2264
2170	0.2204
2179	0.2152
2188	0.2096
2197	0.2032
2206	0.1987
2215	0.1926
2224	0.1841
2233	0.174
2242	0.1687
2251	0.1679
2260	0.1666
2269	0.1627
2278	0.1543
2287	0.1432
2296	0.132
2305	0.1254
2314	0.1153
2323	0.1056
2332	0.1018
2341	0.0971
2350	0.0924
2359	0.0879
2368	0.0848
2377	0.0832
2386	0.0712
2395	0.0633
2404	0.0597
2413	0.0572
2422	0.0545
2431	0.0517
2440	0.0488
2449	0.0457
2458	0.0429
2467	0.0404
2476	0.0379
2485	0.0354
2494	0.033
2503	0.0305
2512	0.0291
2521	0.028
2530	0.027
2539	0.0262
2548	0.0253
2557	0.0252
2566	0.0252
2575	0.0252
2584	0.0252
2593	0.0251
2602	0.0251
2611	0.0251
2620	0.0251
2629	0.0251
2638	0.0251
2647	0.0251
2656	0.0251
2665	0.0251
2674	0.0251
2683	0.0252
2692	0.0258
2701	0.0263
2710	0.0267
2719	0.0275
2728	0.0284
2737	0.0307
2746	0.033
2755	0.0352
2764	0.0374
2773	0.0395
2782	0.0415
2791	0.0432
2800	0.0451
2809	0.0571
2818	0.059
2827	0.0598
2836	0.0604
2845	0.0611
2854	0.0616
2863	0.0619
2872	0.0623
2881	0.063
2890	0.0622
2899	0.0616
2908	0.0608
2917	0.06
2926	0.0591
2935	0.0578
2944	0.0565
2953	0.0552
2962	0.0537
2971	0.0518
2980	0.05
2989	0.0488
2998	0.0459
3007	0.0499
3016	0.054
3025	0.0574
3034	0.0609
3043	0.0662
3052	0.0936
3061	0.0972
3070	0.0998
3079	0.1008
3088	0.1016
3097	0.1024
3106	0.1024
3115	0.1023
3124	0.1022
3133	0.1021
3142	0.102
3151	0.1018
3160	0.1017
3169	0.1015
3178	0.1013
3187	0.1009
3196	0.1005
3205	0.1002
3214	0.0997
3223	0.0992
3232	0.0985
3241	0.0974
3250	0.0953
3259	0.0931
3268	0.0907
3277	0.0884
3286	0.0861
3295	0.0834
3304	0.0807
3313	0.078
3322	0.0755
3331	0.0733
3340	0.0713
3349	0.0691
3358	0.0677
3367	0.0674
3376	0.0672
3385	0.0671
3394	0.0669
3403	0.0668
3412	0.0666
3421	0.0664
3430	0.0662
3439	0.066
3448	0.0659
3457	0.0658
3466	0.0658
3475	0.0657
3484	0.0656
3493	0.0655
3502	0.0654
3511	0.0654
3520	0.0653
3529	0.0652
3538	0.0651
3547	0.0651
3556	0.0651
3565	0.0651
3574	0.0651
3583	0.065
3592	0.065
3601	0.065
3610	0.065
3619	0.065
3628	0.065
3637	0.0649
3646	0.0649
3655	0.0649
3664	0.0649
3673	0.0649
3682	0.0648
3691	0.0647
3700	0.0646
3709	0.0646
3718	0.0644
3727	0.0643
3736	0.0643
3745	0.0641
3754	0.064
3763	0.064
3772	0.0638
3781	0.0637
3790	0.0633
3799	0.0629
3808	0.0624
3817	0.0619
3826	0.0616
3835	0.0611
3844	0.0606
3853	0.0599
3862	0.059
3871	0.0582
3880	0.0574
3889	0.0566
3898	0.0558
3907	0.055
3916	0.0539
3925	0.0529
3934	0.0518
3943	0.0508
3952	0.0498
3961	0.0487
3970	0.0476
3979	0.0466
3988	0.0456
3997	0.0446
