Infrared Spectrum: N,N'-BIS(THIOSULFATOACETYL)HYDRAZINE, DISODIUM SALT
Formula: C4 H6 N2 O8 S4 Na2
State: SOLID (NUJOL MULL)
Class: COBLENTZ
Instrument: Not specified, most likely a prism, grating, or hybrid spectrometer.
Sampling: TRANSMISSION
Resolution: 4
Origin: ARTHUR D. LITTLE, INC.
1/CM	TRANSMITTANCE
649.258	0.211
658.824	0.365
668.389	0.457
677.955	0.532
687.521	0.599
697.086	0.653
706.652	0.68
716.218	0.683
725.784	0.702
735.349	0.736
744.915	0.759
754.481	0.771
764.046	0.761
773.612	0.605
783.178	0.783
792.743	0.834
802.309	0.845
811.875	0.848
821.44	0.848
831.006	0.852
840.572	0.852
850.138	0.85
859.703	0.842
869.269	0.823
878.835	0.635
888.4	0.801
897.966	0.834
907.532	0.826
917.097	0.79
926.663	0.67
936.229	0.763
945.794	0.769
955.36	0.763
964.926	0.75
974.492	0.728
984.057	0.686
993.623	0.634
1003.19	0.578
1012.75	0.535
1022.32	0.338
1031.89	0.111
1041.45	0.12
1051.02	0.359
1060.58	0.558
1070.15	0.632
1079.71	0.623
1089.28	0.58
1098.85	0.529
1108.41	0.5
1117.98	0.478
1127.54	0.443
1137.11	0.372
1146.67	0.362
1156.24	0.346
1165.81	0.257
1175.37	0.2
1184.94	0.104
1194.5	0.1
1204.07	0.106
1213.63	0.136
1223.2	0.166
1232.77	0.147
1242.33	0.114
1251.9	0.128
1261.46	0.178
1271.03	0.365
1280.59	0.54
1290.16	0.631
1299.73	0.672
1309.29	0.677
1318.86	0.724
1328.42	0.747
1337.99	0.744
1347.55	0.734
1357.12	0.712
1366.68	0.608
1376.25	0.491
1385.82	0.491
1395.38	0.589
1404.95	0.678
1414.51	0.709
1424.08	0.686
1433.64	0.651
1443.21	0.496
1452.78	0.349
1462.34	0.249
1471.91	0.225
1481.47	0.165
1491.04	0.16
1500.6	0.217
1510.17	0.411
1519.74	0.573
1529.3	0.651
1538.87	0.724
1548.43	0.726
1558	0.704
1567.56	0.67
1577.13	0.624
1586.7	0.553
1596.26	0.453
1605.83	0.305
1615.39	0.186
1624.96	0.122
1634.52	0.193
1644.09	0.2
1653.66	0.306
1663.22	0.418
1672.79	0.561
1682.35	0.637
1691.92	0.675
1701.48	0.693
1711.05	0.728
1720.62	0.775
1730.18	0.823
1739.75	0.869
1749.31	0.885
1758.88	0.899
1768.44	0.906
1778.01	0.91
1787.58	0.914
1797.14	0.91
1806.71	0.914
1816.27	0.923
1825.84	0.928
1835.4	0.93
1844.97	0.933
1854.54	0.93
1864.1	0.936
1873.67	0.96
1883.23	0.957
1892.8	0.953
1902.36	0.955
1911.93	0.953
1921.49	0.952
1931.06	0.952
1940.63	0.952
1950.19	0.95
1959.76	0.952
1969.32	0.966
1978.89	0.972
1988.45	0.969
1998.02	0.976
2007.59	0.99
2017.15	1.001
2026.72	1.015
2036.28	1.014
2045.85	1.014
2055.41	1.014
2064.98	1.011
2074.55	1.006
2084.11	1.006
2093.68	1.011
2103.24	1.014
2112.81	1.014
2122.37	1.014
2131.94	1.011
2141.51	1.007
2151.07	1.004
2160.64	1.001
2170.2	0.996
2179.77	0.993
2189.33	0.992
2198.9	0.992
2208.47	0.988
2218.03	0.979
2227.6	0.974
2237.16	0.969
2246.73	0.966
2256.29	0.966
2265.86	0.961
2275.43	0.971
2284.99	0.976
2294.56	0.977
2304.12	0.976
2313.69	0.971
2323.25	0.96
2332.82	0.953
2342.39	0.947
2351.95	0.942
2361.52	0.945
2371.08	0.955
2380.65	0.968
2390.21	0.969
2399.78	0.969
2409.35	0.969
2418.91	0.966
2428.48	0.965
2438.04	0.965
2447.61	0.963
2457.17	0.961
2466.74	0.96
2476.31	0.958
2485.87	0.955
2495.44	0.95
2505	0.945
2514.57	0.942
2524.13	0.937
2533.7	0.934
2543.26	0.933
2552.83	0.933
2562.4	0.93
2571.96	0.923
2581.53	0.918
2591.09	0.912
2600.66	0.903
2610.22	0.898
2619.79	0.888
2629.36	0.882
2638.92	0.88
2648.49	0.887
2658.05	0.887
2667.62	0.882
2677.18	0.88
2686.75	0.879
2696.32	0.879
2705.88	0.875
2715.45	0.869
2725.01	0.861
2734.58	0.863
2744.14	0.875
2753.71	0.874
2763.28	0.872
2772.84	0.864
2782.41	0.853
2791.97	0.823
2801.54	0.798
2811.1	0.775
2820.67	0.75
2830.24	0.672
2839.8	0.467
2849.37	0.174
2858.93	0.151
2868.5	0.178
2878.06	0.23
2887.63	0.228
2897.2	0.138
2906.76	0.103
2916.33	0.046
2925.89	0.036
2935.46	0.046
2945.02	0.085
2954.59	0.066
2964.16	0.101
2973.72	0.195
2983.29	0.351
2992.85	0.426
3002.42	0.467
3011.98	0.516
3021.55	0.526
3031.12	0.515
3040.68	0.499
3050.25	0.475
3059.81	0.478
3069.38	0.499
3078.94	0.532
3088.51	0.569
3098.08	0.575
3107.64	0.567
3117.21	0.553
3126.77	0.537
3136.34	0.519
3145.9	0.499
3155.47	0.476
3165.03	0.443
3174.6	0.405
3184.17	0.383
3193.73	0.349
3203.3	0.314
3212.86	0.286
3222.43	0.278
3231.99	0.279
3241.56	0.286
3251.13	0.303
3260.69	0.317
3270.26	0.332
3279.82	0.359
3289.39	0.381
3298.95	0.418
3308.52	0.443
3318.09	0.481
3327.65	0.519
3337.22	0.565
3346.78	0.588
3356.35	0.604
3365.91	0.631
3375.48	0.643
3385.05	0.653
3394.61	0.658
3404.18	0.659
3413.74	0.662
3423.31	0.661
3432.87	0.661
3442.44	0.658
3452.01	0.655
3461.57	0.656
3471.14	0.658
3480.7	0.653
3490.27	0.655
3499.83	0.658
3509.4	0.659
3518.97	0.662
3528.53	0.666
3538.1	0.67
3547.66	0.674
3557.23	0.683
3566.79	0.688
3576.36	0.696
3585.93	0.707
3595.49	0.715
3605.06	0.729
3614.62	0.751
3624.19	0.764
3633.75	0.782
3643.32	0.801
3652.89	0.813
3662.45	0.818
3672.02	0.828
3681.58	0.826
3691.15	0.828
3700.71	0.825
3710.28	0.825
3719.84	0.823
3729.41	0.82
3738.98	0.817
3748.54	0.815
3758.11	0.81
3767.67	0.809
3777.24	0.807
3786.8	0.806
3796.37	0.806
3805.94	0.804
3815.5	0.802
3825.07	0.798
3834.63	0.801
3844.2	0.788
3853.76	0.791
3863.33	0.791
3872.9	0.783
3882.46	0.782
3892.03	0.78
3901.59	0.779
3911.16	0.78
3920.72	0.78
3930.29	0.779
3939.86	0.775
3949.42	0.779
3958.99	0.775
3968.55	0.774
3978.12	0.771
3987.68	0.771
3997.25	0.771
