Infrared Spectrum: 7H-PYRROLO[2,3-d]PYRIMIDINE, 4-AMINO-7-[3-(HYDROXYMETHYL)CYCLOPENTYL]-
Formula: C12 H16 N4 O
State: SOLID (1 mg / 650 mg KBr DISC)
Class: COBLENTZ III
Instrument: PERKIN-ELMER 521 (GRATING)
Instrument parameters: FILTER CHANGES AT 3130, 2475, 2000, 1150, 700, 410 CM^-^1, GRATING CHANGES AT 2000, 620 CM^-^1
Sampling: TRANSMISSION
Resolution: 4
Origin: SOUTHERN RESEARCH INST.
1/CM	TRANSMITTANCE
280.29	0.529
289.912	0.572
299.535	0.618
309.157	0.653
318.779	0.671
328.402	0.675
338.024	0.672
347.646	0.69
357.269	0.742
366.891	0.743
376.513	0.765
386.136	0.777
395.758	0.78
405.38	0.781
415.003	0.777
424.625	0.774
434.247	0.765
443.87	0.743
453.492	0.747
463.115	0.745
472.737	0.729
482.359	0.702
491.982	0.673
501.604	0.652
511.226	0.633
520.849	0.608
530.471	0.577
540.093	0.502
549.716	0.611
559.338	0.622
568.96	0.592
578.583	0.589
588.205	0.54
597.827	0.618
607.45	0.67
617.072	0.675
626.694	0.711
636.317	0.714
645.939	0.722
655.561	0.726
665.184	0.729
674.806	0.697
684.428	0.56
694.051	0.725
703.673	0.663
713.295	0.408
722.918	0.384
732.54	0.559
742.162	0.723
751.785	0.774
761.407	0.803
771.03	0.826
780.652	0.839
790.274	0.83
799.897	0.645
809.519	0.794
819.141	0.864
828.764	0.854
838.386	0.851
848.008	0.845
857.631	0.853
867.253	0.857
876.875	0.841
886.498	0.791
896.12	0.688
905.742	0.613
915.365	0.763
924.987	0.842
934.609	0.802
944.232	0.762
953.854	0.756
963.476	0.754
973.099	0.729
982.721	0.667
992.343	0.586
1001.97	0.421
1011.59	0.411
1021.21	0.673
1030.83	0.728
1040.46	0.652
1050.08	0.663
1059.7	0.577
1069.32	0.626
1078.94	0.656
1088.57	0.702
1098.19	0.754
1107.81	0.75
1117.43	0.709
1127.06	0.739
1136.68	0.74
1146.3	0.67
1155.92	0.632
1165.55	0.681
1175.17	0.728
1184.79	0.697
1194.41	0.728
1204.03	0.686
1213.66	0.605
1223.28	0.622
1232.9	0.609
1242.52	0.592
1252.15	0.543
1261.77	0.424
1271.39	0.38
1281.01	0.497
1290.64	0.585
1300.26	0.6
1309.88	0.457
1319.5	0.327
1329.13	0.522
1338.75	0.622
1348.37	0.599
1357.99	0.501
1367.61	0.373
1377.24	0.467
1386.86	0.605
1396.48	0.626
1406.1	0.57
1415.73	0.5
1425.35	0.377
1434.97	0.592
1444.59	0.655
1454.22	0.524
1463.84	0.441
1473.46	0.365
1483.08	0.239
1492.71	0.513
1502.33	0.69
1511.95	0.577
1521.57	0.691
1531.19	0.653
1540.82	0.573
1550.44	0.206
1560.06	0.332
1569.68	0.483
1579.31	0.187
1588.93	0.1
1598.55	0.415
1608.17	0.57
1617.8	0.517
1627.42	0.388
1637.04	0.185
1646.66	0.214
1656.29	0.418
1665.91	0.642
1675.53	0.803
1685.15	0.84
1694.77	0.876
1704.4	0.924
1714.02	0.954
1723.64	0.975
1733.26	0.984
1742.89	0.991
1752.51	0.995
1762.13	0.998
1771.75	0.996
1781.38	0.992
1791	0.987
1800.62	0.982
1810.24	0.979
1819.86	0.977
1829.49	0.969
1839.11	0.966
1848.73	0.957
1858.35	0.945
1867.98	0.94
1877.6	0.935
1887.22	0.94
1896.84	0.95
1906.47	0.95
1916.09	0.949
1925.71	0.946
1935.33	0.943
1944.96	0.942
1954.58	0.939
1964.2	0.933
1973.82	0.93
1983.44	0.921
1993.07	0.913
2002.69	0.913
2012.31	0.912
2021.93	0.911
2031.56	0.909
2041.18	0.905
2050.8	0.898
2060.42	0.895
2070.05	0.894
2079.67	0.894
2089.29	0.894
2098.91	0.893
2108.54	0.893
2118.16	0.892
2127.78	0.889
2137.4	0.885
2147.02	0.883
2156.65	0.882
2166.27	0.88
2175.89	0.879
2185.51	0.876
2195.14	0.874
2204.76	0.867
2214.38	0.861
2224	0.858
2233.63	0.856
2243.25	0.856
2252.87	0.856
2262.49	0.856
2272.12	0.854
2281.74	0.848
2291.36	0.845
2300.98	0.843
2310.6	0.841
2320.23	0.841
2329.85	0.841
2339.47	0.836
2349.09	0.832
2358.72	0.834
2368.34	0.837
2377.96	0.837
2387.58	0.836
2397.21	0.833
2406.83	0.831
2416.45	0.829
2426.07	0.825
2435.69	0.822
2445.32	0.814
2454.94	0.811
2464.56	0.809
2474.18	0.807
2483.81	0.802
2493.43	0.799
2503.05	0.796
2512.67	0.795
2522.3	0.794
2531.92	0.791
2541.54	0.781
2551.16	0.774
2560.79	0.77
2570.41	0.769
2580.03	0.763
2589.65	0.761
2599.27	0.752
2608.9	0.751
2618.52	0.749
2628.14	0.743
2637.76	0.734
2647.39	0.721
2657.01	0.714
2666.63	0.714
2676.25	0.713
2685.88	0.711
2695.5	0.707
2705.12	0.699
2714.74	0.686
2724.37	0.674
2733.99	0.673
2743.61	0.681
2753.23	0.685
2762.85	0.683
2772.48	0.67
2782.1	0.664
2791.72	0.65
2801.34	0.634
2810.97	0.618
2820.59	0.603
2830.21	0.591
2839.83	0.577
2849.46	0.529
2859.08	0.486
2868.7	0.464
2878.32	0.507
2887.95	0.51
2897.57	0.481
2907.19	0.463
2916.81	0.457
2926.43	0.44
2936.06	0.421
2945.68	0.415
2955.3	0.441
2964.92	0.486
2974.55	0.526
2984.17	0.55
2993.79	0.542
3003.41	0.52
3013.04	0.505
3022.66	0.484
3032.28	0.468
3041.9	0.449
3051.52	0.431
3061.15	0.414
3070.77	0.399
3080.39	0.382
3090.01	0.363
3099.64	0.346
3109.26	0.331
3118.88	0.318
3128.5	0.306
3138.13	0.305
3147.75	0.309
3157.37	0.316
3166.99	0.328
3176.62	0.346
3186.24	0.367
3195.86	0.392
3205.48	0.422
3215.1	0.441
3224.73	0.444
3234.35	0.437
3243.97	0.422
3253.59	0.403
3263.22	0.393
3272.84	0.381
3282.46	0.369
3292.08	0.35
3301.71	0.318
3311.33	0.286
3320.95	0.267
3330.57	0.281
3340.2	0.329
3349.82	0.377
3359.44	0.373
3369.06	0.35
3378.68	0.337
3388.31	0.343
3397.93	0.357
3407.55	0.388
3417.17	0.44
3426.8	0.484
3436.42	0.523
3446.04	0.557
3455.66	0.586
3465.29	0.611
3474.91	0.634
3484.53	0.654
3494.15	0.672
3503.78	0.69
3513.4	0.709
3523.02	0.725
3532.64	0.743
3542.26	0.758
3551.89	0.768
3561.51	0.777
3571.13	0.789
3580.75	0.796
3590.38	0.803
3600	0.815
3609.62	0.823
3619.24	0.83
3628.87	0.833
3638.49	0.835
3648.11	0.837
3657.73	0.837
3667.35	0.838
3676.98	0.837
3686.6	0.835
3696.22	0.836
3705.84	0.836
3715.47	0.833
3725.09	0.834
3734.71	0.832
3744.33	0.829
3753.96	0.827
3763.58	0.827
3773.2	0.826
3782.82	0.825
3792.45	0.825
3802.07	0.824
3811.69	0.822
