Infrared Spectrum: SODIUM DICHLOROISOCYANURATE
Formula: C3 Cl2 N3 O3 Na
State: SOLID (MINERAL OIL MULL)
Class: COBLENTZ
Instrument: Not specified, most likely a prism, grating, or hybrid spectrometer.
Sampling: TRANSMISSION
Resolution: 4
Origin: WYANDOTTE CHEMICALS CORP., WYANDOTTE, MICHIGAN, USA
MICROMETERS	TRANSMITTANCE
2.02	0.613
2.05979	0.628
2.09958	0.64
2.13937	0.653
2.17917	0.663
2.21896	0.667
2.25875	0.672
2.29854	0.685
2.33833	0.708
2.37812	0.722
2.41792	0.735
2.45771	0.745
2.4975	0.753
2.53729	0.768
2.57708	0.785
2.61687	0.797
2.65666	0.806
2.69646	0.81
2.73625	0.795
2.77604	0.767
2.81583	0.717
2.85562	0.655
2.89541	0.547
2.93521	0.477
2.975	0.509
3.01479	0.597
3.05458	0.54
3.09437	0.386
3.13416	0.266
3.17396	0.247
3.21375	0.229
3.25354	0.211
3.29333	0.173
3.33312	0.144
3.37291	0.046
3.4127	0.038
3.4525	0.041
3.49229	0.043
3.53208	0.059
3.57187	0.166
3.61166	0.123
3.65145	0.121
3.69125	0.186
3.73104	0.246
3.77083	0.326
3.81062	0.391
3.85041	0.432
3.8902	0.46
3.92999	0.502
3.96979	0.539
4.00958	0.574
4.04937	0.602
4.08916	0.51
4.12895	0.59
4.16874	0.643
4.20854	0.672
4.24833	0.678
4.28812	0.682
4.32791	0.702
4.3677	0.732
4.40749	0.77
4.44728	0.762
4.48708	0.782
4.52687	0.801
4.56666	0.808
4.60645	0.831
4.64624	0.841
4.68603	0.858
4.72583	0.863
4.76562	0.821
4.80541	0.816
4.8452	0.891
4.88499	0.901
4.92478	0.87
4.96458	0.87
5.00437	0.93
5.04416	0.94
5.08395	0.943
5.12374	0.931
5.16353	0.886
5.20332	0.86
5.24312	0.896
5.28291	0.886
5.3227	0.863
5.36249	0.835
5.40228	0.783
5.44207	0.727
5.48187	0.68
5.52166	0.589
5.56145	0.449
5.60124	0.324
5.64103	0.196
5.68082	0.168
5.72061	0.179
5.76041	0.074
5.8002	0.044
5.83999	0.046
5.87978	0.049
5.91957	0.063
5.95936	0.083
5.99916	0.098
6.03895	0.109
6.07874	0.131
6.11853	0.174
6.15832	0.201
6.19811	0.169
6.2379	0.173
6.2777	0.209
6.31749	0.264
6.35728	0.329
6.39707	0.367
6.43686	0.424
6.47665	0.447
6.51645	0.504
6.55624	0.51
6.59603	0.44
6.63582	0.261
6.67561	0.148
6.7154	0.099
6.7552	0.113
6.79499	0.096
6.83478	0.068
6.87457	0.108
6.91436	0.174
6.95415	0.231
6.99394	0.317
7.03374	0.266
7.07353	0.071
7.11332	0.048
7.15311	0.058
7.1929	0.109
7.23269	0.108
7.27249	0.088
7.31228	0.094
7.35207	0.111
7.39186	0.159
7.43165	0.211
7.47144	0.251
7.51123	0.301
7.55103	0.332
7.59082	0.366
7.63061	0.391
7.6704	0.405
7.71019	0.432
7.74998	0.447
7.78978	0.467
7.82957	0.472
7.86936	0.485
7.90915	0.499
7.94894	0.497
7.98873	0.505
8.02852	0.515
8.06832	0.52
8.10811	0.53
8.1479	0.547
8.18769	0.555
8.22748	0.567
8.26727	0.575
8.30707	0.58
8.34686	0.589
8.38665	0.599
8.42644	0.607
8.46623	0.61
8.50602	0.618
8.54582	0.618
8.58561	0.625
8.6254	0.632
8.66519	0.642
8.70498	0.652
8.74477	0.662
8.78456	0.677
8.82436	0.683
8.86415	0.692
8.90394	0.697
8.94373	0.698
8.98352	0.7
9.02331	0.7
9.06311	0.702
9.1029	0.703
9.14269	0.697
9.18248	0.665
9.22227	0.682
9.26206	0.68
9.30185	0.613
9.34165	0.475
9.38144	0.279
9.42123	0.289
9.46102	0.405
9.50081	0.449
9.5406	0.454
9.5804	0.524
9.62019	0.564
9.65998	0.587
9.69977	0.6
9.73956	0.613
9.77935	0.622
9.81914	0.627
9.85894	0.638
9.89873	0.64
9.93852	0.64
9.97831	0.637
10.0181	0.63
10.0579	0.62
10.0977	0.617
10.1375	0.617
10.1773	0.618
10.2171	0.625
10.2569	0.628
10.2966	0.63
10.3364	0.637
10.3762	0.64
10.416	0.64
10.4558	0.642
10.4956	0.647
10.5354	0.645
10.5752	0.657
10.615	0.65
10.6548	0.658
10.6946	0.652
10.7344	0.65
10.7741	0.65
10.8139	0.652
10.8537	0.657
10.8935	0.648
10.9333	0.65
10.9731	0.647
11.0129	0.653
11.0527	0.642
11.0925	0.647
11.1323	0.642
11.1721	0.638
11.2118	0.633
11.2516	0.625
11.2914	0.622
11.3312	0.617
11.371	0.613
11.4108	0.608
11.4506	0.6
11.4904	0.584
11.5302	0.575
11.57	0.564
11.6098	0.54
11.6496	0.535
11.6893	0.512
11.7291	0.497
11.7689	0.474
11.8087	0.459
11.8485	0.444
11.8883	0.429
11.9281	0.414
11.9679	0.397
12.0077	0.372
12.0475	0.351
12.0873	0.327
12.1271	0.301
12.1668	0.279
12.2066	0.257
12.2464	0.244
12.2862	0.227
12.326	0.219
12.3658	0.207
12.4056	0.196
12.4454	0.191
12.4852	0.202
12.525	0.232
12.5648	0.271
12.6046	0.312
12.6443	0.341
12.6841	0.356
12.7239	0.352
12.7637	0.332
12.8035	0.314
12.8433	0.301
12.8831	0.306
12.9229	0.304
12.9627	0.271
13.0025	0.224
13.0423	0.207
13.0821	0.249
13.1218	0.301
13.1616	0.357
13.2014	0.397
13.2412	0.427
13.281	0.479
13.3208	0.519
13.3606	0.549
13.4004	0.564
13.4402	0.555
13.48	0.552
13.5198	0.577
13.5596	0.599
13.5993	0.613
13.6391	0.632
13.6789	0.637
13.7187	0.645
13.7585	0.645
13.7983	0.647
13.8381	0.648
13.8779	0.65
13.9177	0.653
13.9575	0.657
13.9973	0.67
14.037	0.688
14.0768	0.7
14.1166	0.712
14.1564	0.728
14.1962	0.737
14.236	0.74
14.2758	0.75
14.3156	0.755
14.3554	0.758
14.3952	0.758
14.435	0.753
14.4748	0.728
14.5145	0.688
14.5543	0.658
14.5941	0.653
14.6339	0.677
14.6737	0.7
14.7135	0.705
14.7533	0.702
14.7931	0.7
14.8329	0.7
14.8727	0.7
14.9125	0.702
14.9523	0.703
14.992	0.697
15.0318	0.667
15.0716	0.632
15.1114	0.632
15.1512	0.665
15.191	0.682
15.2308	0.668
15.2706	0.658
15.3104	0.648
15.3502	0.637
15.39	0.63
15.4298	0.622
15.4695	0.603
15.5093	0.594
15.5491	0.584
15.5889	0.57
15.6287	0.56
15.6685	0.549
15.7083	0.534
15.7481	0.52
15.7879	0.509
15.8277	0.5
15.8675	0.49
15.9073	0.484
15.947	0.479
15.9868	0.479
