Infrared Spectrum: SODIUM PERBORATE
Formula: Na B O3  * 4 H2 O
State: SOLID (NUJOL MULL)
Class: COBLENTZ
Instrument: Not specified, most likely a prism, grating, or hybrid spectrometer.
Sampling: TRANSMISSION
Resolution: 4
Origin: MELLON INSTITUTE
MICROMETERS	TRANSMITTANCE
2.013	0.64
2.05283	0.645
2.09266	0.648
2.13249	0.653
2.17233	0.655
2.21216	0.658
2.25199	0.663
2.29182	0.665
2.33165	0.67
2.37148	0.672
2.41131	0.68
2.45115	0.685
2.49098	0.692
2.53081	0.698
2.57064	0.702
2.61047	0.71
2.6503	0.718
2.69013	0.723
2.72997	0.725
2.7698	0.678
2.80963	0.469
2.84946	0.364
2.88929	0.286
2.92912	0.226
2.96895	0.178
3.00879	0.163
3.04862	0.163
3.08845	0.183
3.12828	0.216
3.16811	0.257
3.20794	0.321
3.24777	0.379
3.28761	0.41
3.32744	0.414
3.36727	0.351
3.4071	0.371
3.44693	0.455
3.48676	0.49
3.5266	0.637
3.56643	0.695
3.60626	0.725
3.64609	0.742
3.68592	0.757
3.72575	0.767
3.76558	0.773
3.80542	0.778
3.84525	0.782
3.88508	0.792
3.92491	0.797
3.96474	0.798
4.00457	0.801
4.0444	0.803
4.08424	0.808
4.12407	0.81
4.1639	0.81
4.20373	0.797
4.24356	0.78
4.28339	0.783
4.32322	0.788
4.36306	0.792
4.40289	0.793
4.44272	0.793
4.48255	0.795
4.52238	0.798
4.56221	0.801
4.60204	0.801
4.64188	0.801
4.68171	0.805
4.72154	0.811
4.76137	0.818
4.8012	0.821
4.84103	0.828
4.88086	0.833
4.9207	0.841
4.96053	0.846
5.00036	0.853
5.04019	0.86
5.08002	0.863
5.11985	0.868
5.15968	0.876
5.19952	0.89
5.23935	0.896
5.27918	0.901
5.31901	0.908
5.35884	0.913
5.39867	0.916
5.4385	0.918
5.47834	0.918
5.51817	0.92
5.558	0.928
5.59783	0.936
5.63766	0.941
5.67749	0.946
5.71732	0.948
5.75716	0.95
5.79699	0.95
5.83682	0.946
5.87665	0.935
5.91648	0.915
5.95631	0.871
5.99614	0.838
6.03598	0.795
6.07581	0.803
6.11564	0.85
6.15547	0.881
6.1953	0.906
6.23513	0.918
6.27497	0.923
6.3148	0.921
6.35463	0.923
6.39446	0.923
6.43429	0.921
6.47412	0.928
6.51395	0.923
6.55379	0.923
6.59362	0.918
6.63345	0.918
6.67328	0.91
6.71311	0.896
6.75294	0.86
6.79277	0.8
6.83261	0.73
6.87244	0.718
6.91227	0.742
6.9521	0.78
6.99193	0.81
7.03176	0.826
7.07159	0.831
7.11143	0.845
7.15126	0.85
7.19109	0.845
7.23092	0.83
7.27075	0.836
7.31058	0.846
7.35041	0.855
7.39025	0.858
7.43008	0.865
7.46991	0.871
7.50974	0.88
7.54957	0.886
7.5894	0.886
7.62923	0.88
7.66907	0.88
7.7089	0.865
7.74873	0.835
7.78856	0.795
7.82839	0.747
7.86822	0.668
7.90805	0.577
7.94789	0.504
7.98772	0.425
8.02755	0.399
8.06738	0.397
8.10721	0.41
8.14704	0.444
8.18687	0.469
8.22671	0.48
8.26654	0.485
8.30637	0.484
8.3462	0.472
8.38603	0.454
8.42586	0.427
8.46569	0.415
8.50553	0.407
8.54536	0.409
8.58519	0.425
8.62502	0.48
8.66485	0.519
8.70468	0.554
8.74451	0.585
8.78435	0.599
8.82418	0.612
8.86401	0.615
8.90384	0.608
8.94367	0.603
8.9835	0.603
9.02334	0.594
9.06317	0.577
9.103	0.552
9.14283	0.522
9.18266	0.477
9.22249	0.455
9.26232	0.449
9.30216	0.444
9.34199	0.44
9.38182	0.434
9.42165	0.425
9.46148	0.419
9.50131	0.392
9.54114	0.356
9.58098	0.326
9.62081	0.309
9.66064	0.297
9.70047	0.281
9.7403	0.264
9.78013	0.254
9.81996	0.251
9.8598	0.251
9.89963	0.251
9.93946	0.251
9.97929	0.252
10.0191	0.252
10.059	0.254
10.0988	0.249
10.1386	0.241
10.1784	0.236
10.2183	0.229
10.2581	0.219
10.2979	0.211
10.3378	0.202
10.3776	0.196
10.4174	0.189
10.4573	0.184
10.4971	0.176
10.5369	0.171
10.5768	0.168
10.6166	0.166
10.6564	0.159
10.6963	0.159
10.7361	0.161
10.7759	0.168
10.8158	0.189
10.8556	0.236
10.8954	0.297
10.9352	0.362
10.9751	0.434
11.0149	0.499
11.0547	0.549
11.0946	0.597
11.1344	0.638
11.1742	0.675
11.2141	0.697
11.2539	0.712
11.2937	0.713
11.3336	0.695
11.3734	0.662
11.4132	0.652
11.4531	0.66
11.4929	0.668
11.5327	0.667
11.5725	0.655
11.6124	0.637
11.6522	0.62
11.692	0.608
11.7319	0.602
11.7717	0.602
11.8115	0.61
11.8514	0.613
11.8912	0.613
11.931	0.617
11.9709	0.612
12.0107	0.608
12.0505	0.613
12.0904	0.633
12.1302	0.658
12.17	0.678
12.2099	0.697
12.2497	0.717
12.2895	0.735
12.3293	0.75
12.3692	0.76
12.409	0.768
12.4488	0.775
12.4887	0.78
12.5285	0.785
12.5683	0.787
12.6082	0.788
12.648	0.788
12.6878	0.787
12.7277	0.77
12.7675	0.76
12.8073	0.752
12.8472	0.743
12.887	0.74
12.9268	0.737
12.9666	0.738
13.0065	0.74
13.0463	0.735
13.0861	0.738
13.126	0.74
13.1658	0.743
13.2056	0.745
13.2455	0.747
13.2853	0.748
13.3251	0.75
13.365	0.753
13.4048	0.755
13.4446	0.75
13.4845	0.747
13.5243	0.747
13.5641	0.747
13.604	0.747
13.6438	0.745
13.6836	0.74
13.7234	0.737
13.7633	0.728
13.8031	0.72
13.8429	0.713
13.8828	0.705
13.9226	0.7
13.9624	0.695
14.0023	0.692
14.0421	0.683
14.0819	0.678
14.1218	0.67
14.1616	0.665
14.2014	0.66
14.2413	0.658
14.2811	0.65
14.3209	0.642
14.3607	0.635
14.4006	0.627
14.4404	0.617
14.4802	0.607
14.5201	0.602
14.5599	0.599
14.5997	0.594
14.6396	0.585
14.6794	0.579
14.7192	0.572
14.7591	0.569
14.7989	0.564
14.8387	0.567
14.8786	0.567
14.9184	0.555
14.9582	0.544
14.9981	0.54
15.0379	0.53
15.0777	0.53
15.1175	0.535
15.1574	0.532
15.1972	0.532
15.237	0.534
15.2769	0.53
15.3167	0.527
15.3565	0.527
15.3964	0.527
15.4362	0.53
15.476	0.532
15.5159	0.535
15.5557	0.535
15.5955	0.539
15.6354	0.54
15.6752	0.544
15.715	0.549
15.7548	0.554
15.7947	0.559
15.8345	0.562
15.8743	0.569
15.9142	0.575
15.954	0.579
