Infrared Spectrum: Pregna-1,4-dien-3-one, 11Beta,17Alpha,20,21-tetrahydroxy-, 21-acetate
Formula: C23 H32 O6
State: SOLID (SPLIT MULL), FLUOROLUBE FOR 3800-1330 CM^-^1, NUJOL FOR 1330-400 CM^-^1
Melting point: 246 C
Class: COBLENTZ III
Instrument: DOW KBr FOREPRISM-GRATING
Instrument parameters: BLAZED AT 3.5, 12.0, 20.0 MICRON AND CHANGED AT 5.0, 7.5, 14.9 MICRON
Sampling: TRANSMISSION
Resolution: 2
Origin: DOW CHEMICAL COMPANY
1/CM	TRANSMITTANCE
382	0.7833
391	0.7856
400	0.7878
409	0.7907
418	0.7965
427	0.8046
436	0.8115
445	0.8098
454	0.7825
463	0.7757
472	0.828
481	0.8294
490	0.7949
499	0.8143
508	0.7588
517	0.8457
526	0.8287
535	0.7893
544	0.8285
553	0.8425
562	0.8451
571	0.832
580	0.8308
589	0.8224
598	0.8008
607	0.8089
616	0.8065
625	0.8048
634	0.8022
643	0.7987
652	0.822
661	0.8164
670	0.8086
679	0.7974
688	0.8051
697	0.8039
706	0.7728
715	0.7631
724	0.788
733	0.818
742	0.8271
751	0.8133
760	0.8588
769	0.8532
778	0.8275
787	0.728
796	0.8693
805	0.8661
814	0.8716
823	0.6871
832	0.7496
841	0.7946
850	0.8668
859	0.8364
868	0.8552
877	0.8201
886	0.7958
895	0.472
904	0.7007
913	0.8139
922	0.7403
931	0.7437
940	0.7648
949	0.8178
958	0.7793
967	0.7926
976	0.8299
985	0.7995
994	0.7747
1003	0.7857
1012	0.7921
1021	0.7658
1030	0.7186
1039	0.5424
1048	0.4585
1057	0.734
1066	0.7358
1075	0.7625
1084	0.5946
1093	0.7584
1102	0.6336
1111	0.5734
1120	0.7269
1129	0.4904
1138	0.7708
1147	0.7468
1156	0.7233
1165	0.6708
1174	0.7221
1183	0.7095
1192	0.5834
1201	0.7435
1210	0.7137
1219	0.5621
1228	0.1707
1237	0.5028
1246	0.5212
1255	0.6145
1264	0.4082
1273	0.5181
1282	0.6941
1291	0.7135
1300	0.6928
1309	0.6103
1318	0.6594
1327	0.6368
1336	0.6156
1345	0.5689
1354	0.5599
1363	0.5815
1372	0.2968
1381	0.5621
1390	0.632
1399	0.5755
1408	0.3822
1417	0.5739
1426	0.556
1435	0.6193
1444	0.5758
1453	0.7017
1462	0.76
1471	0.794
1480	0.793
1489	0.8324
1498	0.837
1507	0.8357
1516	0.8281
1525	0.8171
1534	0.809
1543	0.7961
1552	0.7614
1561	0.716
1570	0.6352
1579	0.4671
1588	0.1274
1597	0.363
1606	0.3784
1615	0.6675
1624	0.6719
1633	0.6401
1642	0.3308
1651	0.0521
1660	0.4162
1669	0.7781
1678	0.8062
1687	0.8151
1696	0.7978
1705	0.7418
1714	0.4842
1723	0.2647
1732	0.5929
1741	0.436
1750	0.2253
1759	0.8413
1768	0.8856
1777	0.8914
1786	0.8893
1795	0.8905
1804	0.895
1813	0.8978
1822	0.8996
1831	0.9009
1840	0.9018
1849	0.9018
1858	0.902
1867	0.9013
1876	0.8993
1885	0.8982
1894	0.8971
1903	0.8971
1912	0.8995
1921	0.9017
1930	0.9004
1939	0.8985
1948	0.8978
1957	0.9018
1966	0.8886
1975	0.8844
1984	0.8803
1993	0.8627
2002	0.8447
2011	0.8451
2020	0.8438
2029	0.8414
2038	0.8386
2047	0.8349
2056	0.8315
2065	0.83
2074	0.8301
2083	0.8281
2092	0.8242
2101	0.8228
2110	0.8248
2119	0.8247
2128	0.8241
2137	0.823
2146	0.8212
2155	0.8184
2164	0.8156
2173	0.8138
2182	0.8121
2191	0.8106
2200	0.809
2209	0.8075
2218	0.806
2227	0.8036
2236	0.8007
2245	0.7975
2254	0.7948
2263	0.7928
2272	0.7914
2281	0.7908
2290	0.7904
2299	0.7901
2308	0.7901
2317	0.7896
2326	0.789
2335	0.7883
2344	0.7875
2353	0.7865
2362	0.7864
2371	0.7864
2380	0.7858
2389	0.7843
2398	0.7834
2407	0.7828
2416	0.7822
2425	0.7817
2434	0.7815
2443	0.7818
2452	0.7815
2461	0.7811
2470	0.7805
2479	0.7797
2488	0.7792
2497	0.7792
2506	0.7792
2515	0.779
2524	0.7787
2533	0.7783
2542	0.7778
2551	0.7768
2560	0.7754
2569	0.7719
2578	0.7686
2587	0.7653
2596	0.7622
2605	0.7598
2614	0.7575
2623	0.7575
2632	0.7575
2641	0.7575
2650	0.7572
2659	0.7562
2668	0.7518
2677	0.7461
2686	0.741
2695	0.7356
2704	0.7296
2713	0.7236
2722	0.7181
2731	0.7137
2740	0.7122
2749	0.7138
2758	0.7158
2767	0.7183
2776	0.7176
2785	0.7146
2794	0.7088
2803	0.7028
2812	0.6968
2821	0.689
2830	0.6788
2839	0.6621
2848	0.6383
2857	0.6066
2866	0.5978
2875	0.5742
2884	0.5772
2893	0.5584
2902	0.5197
2911	0.5099
2920	0.5368
2929	0.5323
2938	0.4962
2947	0.4475
2956	0.4662
2965	0.5879
2974	0.6193
2983	0.6027
2992	0.5832
3001	0.6589
3010	0.6851
3019	0.6837
3028	0.6964
3037	0.6943
3046	0.6874
3055	0.6876
3064	0.6878
3073	0.6868
3082	0.6851
3091	0.6808
3100	0.6751
3109	0.6668
3118	0.6574
3127	0.6461
3136	0.634
3145	0.6232
3154	0.6145
3163	0.6051
3172	0.5944
3181	0.5815
3190	0.5692
3199	0.5568
3208	0.5409
3217	0.5197
3226	0.4998
3235	0.4794
3244	0.4582
3253	0.4356
3262	0.4094
3271	0.3784
3280	0.3395
3289	0.3102
3298	0.3076
3307	0.3134
3316	0.3226
3325	0.3334
3334	0.3464
3343	0.3492
3352	0.3472
3361	0.3434
3370	0.3376
3379	0.3284
3388	0.3122
3397	0.2905
3406	0.2651
3415	0.2716
3424	0.3116
3433	0.354
3442	0.3823
3451	0.4293
3460	0.4732
3469	0.4962
3478	0.5195
3487	0.5416
3496	0.5617
3505	0.582
3514	0.6012
3523	0.6188
3532	0.6365
3541	0.6525
3550	0.6669
3559	0.6788
3568	0.6882
3577	0.6954
3586	0.7018
3595	0.7076
3604	0.7112
3613	0.7145
3622	0.7175
3631	0.7198
3640	0.7221
3649	0.724
3658	0.7258
3667	0.7274
3676	0.7276
3685	0.728
3694	0.7278
3703	0.7272
3712	0.7269
3721	0.7257
3730	0.7242
3739	0.7226
3748	0.7212
3757	0.7199
3766	0.7185
3775	0.7168
3784	0.7151
3793	0.7133
3802	0.7111
