Infrared Spectrum: DIMETHYLAMINE HYDROCHLORIDE HYDRATE
Formula: C2 H8 Cl N  * H2 O
State: SOLID (NUJOL MULL)
Class: COBLENTZ III
Instrument: DOW KBr FOREPRISM-GRATING
Instrument parameters: BLAZED AT 3.5, 12.0, 20.0 MICRON AND CHANGED AT 5.0, 7.5, 14.9 MICRON
Sampling: TRANSMISSION
Resolution: 2
Origin: DOW CHEMICAL COMPANY
1/CM	TRANSMITTANCE
453.528	0.666
462.044	0.666
470.56	0.665
479.076	0.666
487.591	0.666
496.107	0.669
504.623	0.669
513.139	0.669
521.655	0.67
530.171	0.673
538.686	0.676
547.202	0.677
555.718	0.681
564.234	0.681
572.75	0.685
581.266	0.689
589.781	0.694
598.297	0.698
606.813	0.705
615.329	0.708
623.845	0.716
632.361	0.724
640.876	0.725
649.392	0.736
657.908	0.74
666.424	0.742
674.94	0.733
683.456	0.744
691.971	0.756
700.487	0.761
709.003	0.763
717.519	0.761
726.035	0.769
734.551	0.781
743.067	0.791
751.582	0.801
760.098	0.807
768.614	0.811
777.13	0.811
785.646	0.805
794.162	0.791
802.677	0.757
811.193	0.716
819.709	0.69
828.225	0.668
836.741	0.651
845.257	0.623
853.772	0.576
862.288	0.447
870.804	0.429
879.32	0.507
887.836	0.3261
896.352	0.768
904.867	0.811
913.383	0.829
921.899	0.851
930.415	0.867
938.931	0.871
947.447	0.867
955.962	0.862
964.478	0.852
972.994	0.844
981.51	0.839
990.026	0.829
998.542	0.809
1007.06	0.746
1015.57	0.51
1024.09	0.087
1032.61	0.6491
1041.12	0.76
1049.64	0.816
1058.15	0.831
1066.67	0.825
1075.18	0.811
1083.7	0.745
1092.22	0.842
1100.73	0.866
1109.25	0.872
1117.76	0.895
1126.28	0.898
1134.8	0.888
1143.31	0.876
1151.83	0.888
1160.34	0.887
1168.86	0.883
1177.37	0.874
1185.89	0.882
1194.41	0.876
1202.92	0.871
1211.44	0.87
1219.95	0.851
1228.47	0.813
1236.99	0.701
1245.5	0.784
1254.02	0.682
1262.53	0.625
1271.05	0.807
1279.56	0.855
1288.08	0.854
1296.6	0.846
1305.11	0.828
1313.63	0.813
1322.14	0.791
1330.66	0.765
1339.18	0.74
1347.69	0.732
1356.21	0.708
1364.72	0.685
1373.24	0.643
1381.75	0.607
1390.27	0.601
1398.79	0.548
1407.3	0.353
1415.82	0.526
1424.33	0.484
1432.85	0.445
1441.37	0.5
1449.88	0.444
1458.4	0.141
1466.91	0.077
1475.43	0.125
1483.94	0.3461
1492.46	0.564
1500.98	0.634
1509.49	0.661
1518.01	0.668
1526.52	0.663
1535.04	0.645
1543.56	0.635
1552.07	0.637
1560.59	0.614
1569.1	0.59
1577.62	0.524
1586.13	0.333
1594.65	0.489
1603.17	0.54
1611.68	0.518
1620.2	0.492
1628.71	0.492
1637.23	0.511
1645.75	0.563
1654.26	0.59
1662.78	0.637
1671.29	0.663
1679.81	0.694
1688.32	0.704
1696.84	0.712
1705.36	0.714
1713.87	0.716
1722.39	0.713
1730.9	0.702
1739.42	0.724
1747.94	0.757
1756.45	0.772
1764.97	0.776
1773.48	0.769
1782	0.776
1790.51	0.777
1799.03	0.799
1807.55	0.831
1816.06	0.851
1824.58	0.867
1833.09	0.87
1841.61	0.871
1850.13	0.87
1858.64	0.867
1867.16	0.863
1875.67	0.859
1884.19	0.855
1892.7	0.851
1901.22	0.851
1909.74	0.854
1918.25	0.859
1926.77	0.866
1935.28	0.868
1943.8	0.864
1952.32	0.859
1960.83	0.851
1969.35	0.851
1977.86	0.851
1986.38	0.842
1994.89	0.836
2003.41	0.835
2011.93	0.834
2020.44	0.823
2028.96	0.819
2037.47	0.815
2045.99	0.8091
2054.51	0.795
2063.02	0.7801
2071.54	0.776
2080.05	0.771
2088.57	0.768
2097.08	0.763
2105.6	0.757
2114.12	0.7404
2122.63	0.7399
2131.15	0.7557
2139.66	0.7719
2148.18	0.7849
2156.7	0.792
2165.21	0.793
2173.73	0.793
2182.24	0.793
2190.76	0.7921
2199.27	0.792
2207.79	0.791
2216.31	0.7881
2224.82	0.787
2233.34	0.7831
2241.85	0.78
2250.37	0.7761
2258.89	0.773
2267.4	0.7681
2275.92	0.7631
2284.43	0.7453
2292.95	0.732
2301.47	0.741
2309.98	0.7411
2318.5	0.7343
2327.01	0.7263
2335.53	0.7182
2344.04	0.7065
2352.56	0.6764
2361.08	0.6621
2369.59	0.6387
2378.11	0.607
2386.62	0.5993
2395.14	0.5389
2403.66	0.4778
2412.17	0.3593
2420.69	0.2434
2429.2	0.1383
2437.72	0.0919
2446.23	0.1278
2454.75	0.2489
2463.27	0.3603
2471.78	0.4694
2480.3	0.4826
2488.81	0.488
2497.33	0.4731
2505.85	0.447
2514.36	0.4625
2522.88	0.4936
2531.39	0.5337
2539.91	0.5314
2548.42	0.5261
2556.94	0.5222
2565.46	0.519
2573.97	0.5142
2582.49	0.5026
2591	0.4855
2599.52	0.4656
2608.04	0.4495
2616.55	0.4317
2625.07	0.4135
2633.58	0.3847
2642.1	0.3619
2650.61	0.3419
2659.13	0.2994
2667.65	0.2747
2676.16	0.2469
2684.68	0.2159
2693.19	0.1851
2701.71	0.1462
2710.23	0.0985
2718.74	0.0736
2727.26	0.0472
2735.77	0.0306
2744.29	0.0224
2752.8	0.0144
2761.32	0.0092
2769.84	0.008
2778.35	0.009
2786.87	0.0098
2795.38	0.014
2803.9	0.0307
2812.42	0.0433
2820.93	0.048
2829.45	0.046
2837.96	0.0424
2846.48	0.038
2854.99	0.041
2863.51	0.045
2872.03	0.0412
2880.54	0.0345
2889.06	0.0292
2897.57	0.0227
2906.09	0.017
2914.61	0.0122
2923.12	0.0065
2931.64	0.0065
2940.15	0.006
2948.67	0.006
2957.18	0.006
2965.7	0.008
2974.22	0.0097
2982.73	0.013
2991.25	0.0167
2999.76	0.0207
3008.28	0.022
3016.8	0.02
3025.31	0.0232
3033.83	0.0334
3042.34	0.0476
3050.86	0.0569
3059.37	0.074
3067.89	0.0953
3076.41	0.1061
3084.92	0.1332
3093.44	0.168
3101.95	0.1963
3110.47	0.2188
3118.99	0.2537
3127.5	0.2815
3136.02	0.3091
3144.53	0.3248
3153.05	0.3394
3161.56	0.342
3170.08	0.3343
3178.6	0.3267
3187.11	0.3567
3195.63	0.3874
3204.14	0.4117
3212.66	0.4224
3221.18	0.425
3229.69	0.425
3238.21	0.424
3246.72	0.424
3255.24	0.4217
3263.75	0.4163
3272.27	0.412
3280.79	0.4083
3289.3	0.3893
3297.82	0.3803
3306.33	0.3607
3314.85	0.3487
3323.37	0.3252
3331.88	0.3098
3340.4	0.2828
3348.91	0.2652
3357.43	0.2451
3365.94	0.2314
3374.46	0.2207
3382.98	0.2091
3391.49	0.2034
3400.01	0.1954
3408.52	0.1914
3417.04	0.19
3425.56	0.187
3434.07	0.187
3442.59	0.187
3451.1	0.1892
3459.62	0.191
3468.13	0.1986
3476.65	0.2032
3485.17	0.2132
3493.68	0.222
3502.2	0.2344
3510.71	0.2466
3519.23	0.26
3527.75	0.2742
3536.26	0.2928
3544.78	0.3106
3553.29	0.3278
3561.81	0.3515
3570.33	0.3726
3578.84	0.3957
3587.36	0.4313
3595.87	0.4524
3604.39	0.4681
3612.9	0.496
3621.42	0.5178
3629.94	0.5462
3638.45	0.5657
3646.97	0.6006
3655.48	0.6259
3664	0.6483
3672.52	0.6653
3681.03	0.6735
3689.55	0.69
3698.06	0.696
3706.58	0.7031
3715.09	0.7055
3723.61	0.7165
3732.13	0.7165
3740.64	0.722
3749.16	0.722
3757.67	0.72
3766.19	0.725
3774.71	0.726
3783.22	0.728
3791.74	0.728
