Infrared Spectrum: PHENTOLAMINE, METHYL SULFONATE
Formula: C18 H23 N3 O4 S
State: OIL MULL
Melting point: 177-181 C
Class: COBLENTZ III
Instrument: PERKIN-ELMER 21 (GRATING)
Instrument parameters: FILTER AT ABOUT 10 MICRONS
Sampling: TRANSMISSION
Resolution: 2
1/CM	TRANSMITTANCE
4000	0.8486
3991	0.8498
3982	0.8516
3973	0.8534
3964	0.8553
3955	0.8571
3946	0.859
3937	0.8609
3928	0.863
3919	0.8652
3910	0.8674
3901	0.8697
3892	0.8718
3883	0.873
3874	0.8739
3865	0.8748
3856	0.8755
3847	0.8764
3838	0.8772
3829	0.8782
3820	0.8789
3811	0.8797
3802	0.8804
3793	0.8812
3784	0.8821
3775	0.8829
3766	0.8836
3757	0.8844
3748	0.8856
3739	0.8867
3730	0.8879
3721	0.889
3712	0.8901
3703	0.8913
3694	0.8925
3685	0.8939
3676	0.8951
3667	0.8965
3658	0.8979
3649	0.8993
3640	0.9005
3631	0.9021
3622	0.9038
3613	0.9056
3604	0.9073
3595	0.9091
3586	0.911
3577	0.9128
3568	0.9147
3559	0.9166
3550	0.9184
3541	0.9203
3532	0.9225
3523	0.9251
3514	0.9275
3505	0.9297
3496	0.9307
3487	0.9316
3478	0.9325
3469	0.933
3460	0.9332
3451	0.9313
3442	0.928
3433	0.924
3424	0.9194
3415	0.9148
3406	0.9098
3397	0.9019
3388	0.8939
3379	0.8856
3370	0.8737
3361	0.8596
3352	0.8338
3343	0.8083
3334	0.7903
3325	0.7714
3316	0.7512
3307	0.7313
3298	0.7115
3289	0.6977
3280	0.6861
3271	0.6745
3262	0.6616
3253	0.6484
3244	0.6359
3235	0.6239
3226	0.6118
3217	0.5972
3208	0.5841
3199	0.573
3190	0.5639
3181	0.556
3172	0.5496
3163	0.5436
3154	0.5386
3145	0.5348
3136	0.5344
3127	0.5371
3118	0.5414
3109	0.5462
3100	0.5516
3091	0.5573
3082	0.5624
3073	0.5668
3064	0.5703
3055	0.5717
3046	0.5704
3037	0.5662
3028	0.5583
3019	0.5471
3010	0.5195
3001	0.4809
2992	0.4628
2983	0.4137
2974	0.3374
2965	0.2545
2956	0.2458
2947	0.2396
2938	0.2351
2929	0.2314
2920	0.2298
2911	0.2292
2902	0.2287
2893	0.2293
2884	0.2305
2875	0.2322
2866	0.2338
2857	0.2366
2848	0.2429
2839	0.2549
2830	0.3046
2821	0.3893
2812	0.4743
2803	0.5596
2794	0.6273
2785	0.6666
2776	0.705
2767	0.7347
2758	0.7596
2749	0.7718
2740	0.7742
2731	0.7721
2722	0.7688
2713	0.7655
2704	0.7636
2695	0.7709
2686	0.7738
2677	0.7741
2668	0.7741
2659	0.7747
2650	0.7763
2641	0.7805
2632	0.7873
2623	0.7941
2614	0.7937
2605	0.794
2596	0.7957
2587	0.8004
2578	0.8065
2569	0.8136
2560	0.8296
2551	0.8355
2542	0.8373
2533	0.8406
2524	0.8464
2515	0.8556
2506	0.8621
2497	0.8675
2488	0.8688
2479	0.8696
2470	0.8695
2461	0.8696
2452	0.8707
2443	0.8717
2434	0.8726
2425	0.874
2416	0.8758
2407	0.8776
2398	0.8795
2389	0.8816
2380	0.8838
2371	0.8861
2362	0.8883
2353	0.8907
2344	0.8929
2335	0.894
2326	0.8952
2317	0.8949
2308	0.8944
2299	0.8939
2290	0.8941
2281	0.8945
2272	0.895
2263	0.8965
2254	0.8984
2245	0.9003
2236	0.9024
2227	0.9045
2218	0.9064
2209	0.9079
2200	0.909
2191	0.9092
2182	0.9089
2173	0.9084
2164	0.9078
2155	0.9084
2146	0.9095
2137	0.9117
2128	0.9141
2119	0.916
2110	0.9176
2101	0.9193
2092	0.9208
2083	0.9207
2074	0.9198
2065	0.9199
2056	0.9198
2047	0.9198
2038	0.9204
2029	0.9208
2020	0.9212
2011	0.9219
2002	0.9224
1993	0.9231
1984	0.9238
1975	0.9245
1966	0.9253
1957	0.926
1948	0.9262
1939	0.9258
1930	0.9244
1921	0.9204
1912	0.9135
1903	0.917
1894	0.9242
1885	0.9288
1876	0.9282
1867	0.9278
1858	0.9272
1849	0.9293
1840	0.932
1831	0.9357
1822	0.9345
1813	0.9311
1804	0.9297
1795	0.9299
1786	0.9307
1777	0.9316
1768	0.9325
1759	0.9333
1750	0.9336
1741	0.9334
1732	0.9334
1723	0.934
1714	0.9357
1705	0.9301
1696	0.929
1687	0.9298
1678	0.9308
1669	0.9286
1660	0.9245
1651	0.9051
1642	0.8715
1633	0.7204
1624	0.5275
1615	0.5001
1606	0.4184
1597	0.4649
1588	0.5972
1579	0.6655
1570	0.7395
1561	0.7961
1552	0.8258
1543	0.8397
1534	0.8447
1525	0.8208
1516	0.5229
1507	0.5711
1498	0.6804
1489	0.6867
1480	0.5772
1471	0.3039
1462	0.2564
1453	0.3092
1444	0.4222
1435	0.5832
1426	0.6921
1417	0.6449
1408	0.7278
1399	0.702
1390	0.5769
1381	0.358
1372	0.4647
1363	0.5744
1354	0.6448
1345	0.659
1336	0.6916
1327	0.6335
1318	0.6321
1309	0.6473
1300	0.5558
1291	0.5735
1282	0.6913
1273	0.7454
1264	0.7152
1255	0.5414
1246	0.5253
1237	0.4606
1228	0.5013
1219	0.4586
1210	0.3976
1201	0.4935
1192	0.5598
1183	0.584
1174	0.5885
1165	0.4648
1156	0.3599
1147	0.3368
1138	0.4676
1129	0.5867
1120	0.6804
1111	0.6921
1102	0.726
1093	0.7694
1084	0.8033
1075	0.8091
1066	0.8343
1057	0.8385
1048	0.6537
1039	0.4116
1030	0.6195
1021	0.7384
1012	0.7786
1003	0.7596
994	0.6971
985	0.7813
976	0.8119
967	0.8316
958	0.8488
949	0.835
940	0.6225
931	0.794
922	0.8423
913	0.8829
904	0.9044
895	0.9092
886	0.9158
877	0.9306
868	0.9344
859	0.9276
850	0.8643
841	0.75
832	0.7893
823	0.7715
814	0.8879
805	0.9056
796	0.8956
787	0.8642
778	0.7825
769	0.5393
760	0.602
751	0.6496
742	0.6611
733	0.6448
724	0.6627
715	0.7276
706	0.7948
697	0.759
688	0.7872
