Infrared Spectrum: o-METHYLAMPHETAMINE, SULFATE
Formula: C20 H32 N2 O4 S
State: SOLID (OIL MULL)
Class: COBLENTZ III
Instrument: PERKIN-ELMER 21 (GRATING)
Instrument parameters: NaCl PRISM
Sampling: TRANSMISSION
Resolution: 2
Origin: SMITH KLINE & FRENCH LABS.
1/CM	TRANSMITTANCE
653	0.7115
662	0.7534
671	0.7731
680	0.7789
689	0.7915
698	0.7833
707	0.7928
716	0.7485
725	0.7382
734	0.4425
743	0.2837
752	0.6875
761	0.6784
770	0.7839
779	0.8161
788	0.8481
797	0.8522
806	0.8377
815	0.8259
824	0.8128
833	0.7798
842	0.8055
851	0.8176
860	0.8178
869	0.8191
878	0.8207
887	0.806
896	0.7575
905	0.7806
914	0.7693
923	0.7456
932	0.7137
941	0.7252
950	0.6999
959	0.6491
968	0.5808
977	0.6184
986	0.573
995	0.4988
1004	0.4405
1013	0.4042
1022	0.3525
1031	0.2807
1040	0.1567
1049	0.1095
1058	0.0951
1067	0.1037
1076	0.1181
1085	0.115
1094	0.1945
1103	0.226
1112	0.2412
1121	0.2341
1130	0.2363
1139	0.2409
1148	0.2087
1157	0.2671
1166	0.4221
1175	0.5378
1184	0.5713
1193	0.6207
1202	0.6073
1211	0.5475
1220	0.4724
1229	0.5261
1238	0.5875
1247	0.579
1256	0.6615
1265	0.6853
1274	0.7034
1283	0.7148
1292	0.7196
1301	0.7117
1310	0.6807
1319	0.6403
1328	0.6614
1337	0.647
1346	0.6076
1355	0.5399
1364	0.4365
1373	0.2971
1382	0.3423
1391	0.3881
1400	0.6926
1409	0.7245
1418	0.6786
1427	0.6305
1436	0.4665
1445	0.3247
1454	0.1908
1463	0.1696
1472	0.2782
1481	0.516
1490	0.5469
1499	0.6211
1508	0.6606
1517	0.6475
1526	0.5798
1535	0.5088
1544	0.508
1553	0.5635
1562	0.6645
1571	0.6896
1580	0.6739
1589	0.6523
1598	0.5971
1607	0.5484
1616	0.5227
1625	0.5294
1634	0.5538
1643	0.5861
1652	0.745
1661	0.7769
1670	0.7964
1679	0.8065
1688	0.8133
1697	0.8254
1706	0.8161
1715	0.8075
1724	0.8154
1733	0.837
1742	0.8479
1751	0.8568
1760	0.8639
1769	0.8673
1778	0.8663
1787	0.8648
1796	0.8637
1805	0.8611
1814	0.8574
1823	0.857
1832	0.8574
1841	0.8578
1850	0.8581
1859	0.8615
1868	0.8647
1877	0.8595
1886	0.8536
1895	0.8522
1904	0.8414
1913	0.8385
1922	0.8366
1931	0.8346
1940	0.8327
1949	0.8304
1958	0.8274
1967	0.823
1976	0.818
1985	0.8116
1994	0.8052
2003	0.7985
2012	0.7909
2021	0.7835
2030	0.7775
2039	0.7719
2048	0.7688
2057	0.7678
2066	0.7677
2075	0.7663
2084	0.761
2093	0.7581
2102	0.7613
2111	0.7657
2120	0.77
2129	0.7749
2138	0.783
2147	0.7854
2156	0.7857
2165	0.7869
2174	0.7944
2183	0.7987
2192	0.8005
2201	0.8012
2210	0.8007
2219	0.8005
2228	0.8057
2237	0.8103
2246	0.8094
2255	0.8084
2264	0.8074
2273	0.8017
2282	0.7945
2291	0.7882
2300	0.7799
2309	0.7679
2318	0.7561
2327	0.7483
2336	0.7505
2345	0.7534
2354	0.7556
2363	0.7566
2372	0.7562
2381	0.7547
2390	0.7518
2399	0.7478
2408	0.7398
2417	0.7239
2426	0.7128
2435	0.6926
2444	0.672
2453	0.6514
2462	0.6311
2471	0.6109
2480	0.5909
2489	0.571
2498	0.5522
2507	0.5374
2516	0.5088
2525	0.4719
2534	0.4465
2543	0.4452
2552	0.4457
2561	0.4461
2570	0.4448
2579	0.4326
2588	0.419
2597	0.4028
2606	0.3875
2615	0.3747
2624	0.3626
2633	0.3541
2642	0.3499
2651	0.3479
2660	0.3459
2669	0.3426
2678	0.3362
2687	0.3242
2696	0.3054
2705	0.2861
2714	0.2718
2723	0.2616
2732	0.2582
2741	0.257
2750	0.2566
2759	0.2569
2768	0.2568
2777	0.2522
2786	0.2307
2795	0.1983
2804	0.1568
2813	0.1329
2822	0.0988
2831	0.0736
2840	0.0639
2849	0.0596
2858	0.0551
2867	0.0522
2876	0.0519
2885	0.0522
2894	0.053
2903	0.0543
2912	0.0581
2921	0.0669
2930	0.0695
2939	0.0762
2948	0.0994
2957	0.1205
2966	0.1476
2975	0.1663
2984	0.1826
2993	0.1979
3002	0.2084
3011	0.2128
3020	0.2142
3029	0.2164
3038	0.223
3047	0.2366
3056	0.2429
3065	0.2454
3074	0.2695
3083	0.2961
3092	0.3204
3101	0.3399
3110	0.3559
3119	0.3775
3128	0.403
3137	0.4254
3146	0.4566
3155	0.4884
3164	0.52
3173	0.5514
3182	0.5817
3191	0.5993
3200	0.6145
3209	0.6303
3218	0.6558
3227	0.6827
3236	0.701
3245	0.7097
3254	0.715
3263	0.7206
3272	0.7291
3281	0.74
3290	0.7476
3299	0.7506
3308	0.7512
3317	0.7512
3326	0.751
3335	0.7509
3344	0.7514
3353	0.754
3362	0.7573
3371	0.7593
3380	0.7601
3389	0.7605
3398	0.761
3407	0.7616
3416	0.763
3425	0.7645
3434	0.7658
3443	0.7672
3452	0.7688
3461	0.7704
3470	0.7723
3479	0.775
3488	0.7777
3497	0.7807
3506	0.7838
3515	0.787
3524	0.7897
3533	0.7902
3542	0.7904
3551	0.7905
3560	0.7905
3569	0.7903
3578	0.79
3587	0.7897
3596	0.7895
3605	0.7889
3614	0.7883
3623	0.7876
3632	0.7868
3641	0.7863
3650	0.786
3659	0.7857
3668	0.7854
3677	0.7856
3686	0.788
3695	0.79
3704	0.7902
3713	0.7897
3722	0.7888
3731	0.788
3740	0.7882
3749	0.7892
3758	0.7902
3767	0.7901
3776	0.7883
3785	0.7851
3794	0.7821
3803	0.7797
3812	0.7783
3821	0.7776
3830	0.7771
3839	0.7767
3848	0.7763
3857	0.7754
3866	0.7744
3875	0.7716
3884	0.7672
3893	0.7631
3902	0.7621
3911	0.7617
3920	0.7618
3929	0.7619
3938	0.7622
3947	0.7625
3956	0.7629
3965	0.7631
3974	0.763
3983	0.7629
3992	0.7628
