Infrared Spectrum: HYPOXANTHINE-7-ETHANOL, 2,3-DIHYDRO-3-(DIPHENYLMETHYL)-, ACETATE
Formula: C22 H22 N4 O3
State: SOLID (1 mg / 650 mg KBr DISC)
Class: COBLENTZ III
Instrument: PERKIN-ELMER 221 (GRATING)
Instrument parameters: FILTER CHANGES AT 2490, 980 CM^-^1, GRATING FOR 4000-1428 CM^-^1, NaCl PRISM FOR 1428-650 CM^-^1
Sampling: TRANSMISSION
Resolution: 4
Origin: SOUTHERN RESEARCH INST.
1/CM	TRANSMITTANCE
608.875	0.816
618.467	0.816
628.059	0.812
637.651	0.795
647.243	0.817
656.835	0.849
666.428	0.838
676.02	0.822
685.612	0.807
695.204	0.766
704.796	0.508
714.388	0.794
723.98	0.797
733.572	0.702
743.164	0.636
752.756	0.807
762.348	0.757
771.94	0.771
781.533	0.725
791.125	0.824
800.717	0.863
810.309	0.856
819.901	0.811
829.493	0.839
839.085	0.851
848.677	0.869
858.269	0.86
867.861	0.856
877.453	0.853
887.046	0.859
896.638	0.869
906.23	0.852
915.822	0.864
925.414	0.863
935.006	0.855
944.598	0.875
954.19	0.873
963.782	0.85
973.374	0.816
982.966	0.838
992.558	0.841
1002.15	0.84
1011.74	0.836
1021.33	0.827
1030.93	0.768
1040.52	0.743
1050.11	0.579
1059.7	0.676
1069.3	0.781
1078.89	0.704
1088.48	0.802
1098.07	0.84
1107.66	0.834
1117.26	0.814
1126.85	0.808
1136.44	0.805
1146.03	0.756
1155.62	0.73
1165.22	0.746
1174.81	0.724
1184.4	0.706
1193.99	0.681
1203.58	0.611
1213.18	0.404
1222.77	0.376
1232.36	0.532
1241.95	0.47
1251.54	0.623
1261.14	0.716
1270.73	0.741
1280.32	0.729
1289.91	0.709
1299.51	0.753
1309.1	0.807
1318.69	0.786
1328.28	0.753
1337.87	0.671
1347.47	0.682
1357.06	0.645
1366.65	0.616
1376.24	0.532
1385.83	0.697
1395.43	0.693
1405.02	0.786
1414.61	0.746
1424.2	0.703
1433.79	0.652
1443.39	0.613
1452.98	0.575
1462.57	0.613
1472.16	0.639
1481.75	0.652
1491.35	0.669
1500.94	0.707
1510.53	0.797
1520.12	0.665
1529.72	0.529
1539.31	0.654
1548.9	0.732
1558.49	0.659
1568.08	0.324
1577.68	0.407
1587.27	0.613
1596.86	0.703
1606.45	0.739
1616.04	0.743
1625.64	0.719
1635.23	0.597
1644.82	0.415
1654.41	0.141
1664	0.194
1673.6	0.381
1683.19	0.564
1692.78	0.695
1702.37	0.765
1711.97	0.783
1721.56	0.797
1731.15	0.713
1740.74	0.511
1750.33	0.372
1759.93	0.684
1769.52	0.804
1779.11	0.852
1788.7	0.871
1798.29	0.878
1807.89	0.883
1817.48	0.893
1827.07	0.898
1836.66	0.898
1846.25	0.899
1855.85	0.9
1865.44	0.9
1875.03	0.901
1884.62	0.901
1894.21	0.901
1903.81	0.901
1913.4	0.9
1922.99	0.9
1932.58	0.899
1942.18	0.897
1951.77	0.896
1961.36	0.896
1970.95	0.897
1980.54	0.897
1990.14	0.897
1999.73	0.896
2009.32	0.894
2018.91	0.893
2028.5	0.893
2038.1	0.893
2047.69	0.893
2057.28	0.893
2066.87	0.893
2076.46	0.893
2086.06	0.893
2095.65	0.893
2105.24	0.893
2114.83	0.892
2124.42	0.892
2134.02	0.892
2143.61	0.892
2153.2	0.893
2162.79	0.893
2172.39	0.893
2181.98	0.893
2191.57	0.893
2201.16	0.893
2210.75	0.893
2220.35	0.892
2229.94	0.892
2239.53	0.891
2249.12	0.89
2258.71	0.89
2268.31	0.889
2277.9	0.889
2287.49	0.888
2297.08	0.888
2306.67	0.887
2316.27	0.886
2325.86	0.886
2335.45	0.885
2345.04	0.884
2354.63	0.882
2364.23	0.882
2373.82	0.881
2383.41	0.88
2393	0.879
2402.6	0.878
2412.19	0.878
2421.78	0.877
2431.37	0.877
2440.96	0.876
2450.56	0.875
2460.15	0.875
2469.74	0.875
2479.33	0.874
2488.92	0.874
2498.52	0.873
2508.11	0.872
2517.7	0.872
2527.29	0.871
2536.88	0.87
2546.48	0.869
2556.07	0.867
2565.66	0.867
2575.25	0.866
2584.85	0.864
2594.44	0.863
2604.03	0.863
2613.62	0.862
2623.21	0.861
2632.81	0.861
2642.4	0.86
2651.99	0.859
2661.58	0.857
2671.17	0.856
2680.77	0.853
2690.36	0.851
2699.95	0.85
2709.54	0.849
2719.13	0.849
2728.73	0.847
2738.32	0.839
2747.91	0.83
2757.5	0.827
2767.09	0.824
2776.69	0.813
2786.28	0.799
2795.87	0.785
2805.46	0.774
2815.06	0.788
2824.65	0.804
2834.24	0.794
2843.83	0.788
2853.42	0.786
2863.02	0.784
2872.61	0.782
2882.2	0.779
2891.79	0.772
2901.38	0.766
2910.98	0.753
2920.57	0.744
2930.16	0.755
2939.75	0.764
2949.34	0.768
2958.94	0.764
2968.53	0.754
2978.12	0.764
2987.71	0.763
2997.3	0.759
3006.9	0.753
3016.49	0.748
3026.08	0.727
3035.67	0.714
3045.27	0.71
3054.86	0.683
3064.45	0.683
3074.04	0.698
3083.63	0.67
3093.23	0.68
3102.82	0.7
3112.41	0.684
3122	0.718
3131.59	0.736
3141.19	0.737
3150.78	0.72
3160.37	0.694
3169.96	0.669
3179.55	0.645
3189.15	0.623
3198.74	0.607
3208.33	0.608
3217.92	0.621
3227.51	0.636
3237.11	0.673
3246.7	0.694
3256.29	0.717
3265.88	0.731
3275.48	0.738
3285.07	0.739
3294.66	0.727
3304.25	0.743
3313.84	0.754
3323.44	0.761
3333.03	0.765
3342.62	0.765
3352.21	0.764
3361.8	0.76
3371.4	0.756
3380.99	0.751
3390.58	0.747
3400.17	0.745
3409.76	0.742
3419.36	0.742
3428.95	0.742
3438.54	0.742
3448.13	0.742
3457.72	0.744
3467.32	0.746
3476.91	0.752
3486.5	0.757
3496.09	0.761
3505.69	0.764
3515.28	0.768
3524.87	0.773
3534.46	0.784
3544.05	0.787
3553.65	0.791
3563.24	0.795
3572.83	0.8
3582.42	0.805
3592.01	0.81
3601.61	0.821
3611.2	0.828
3620.79	0.834
3630.38	0.841
3639.97	0.845
3649.57	0.846
3659.16	0.847
3668.75	0.848
3678.34	0.849
3687.94	0.849
3697.53	0.85
3707.12	0.851
3716.71	0.852
3726.3	0.852
3735.9	0.851
3745.49	0.849
3755.08	0.85
3764.67	0.852
3774.26	0.852
3783.86	0.851
3793.45	0.851
3803.04	0.85
3812.63	0.85
3822.22	0.85
3831.82	0.849
3841.41	0.849
3851	0.848
3860.59	0.846
3870.18	0.846
3879.78	0.846
3889.37	0.846
3898.96	0.846
3908.55	0.846
3918.15	0.846
3927.74	0.846
3937.33	0.846
3946.92	0.846
3956.51	0.846
3966.11	0.846
3975.7	0.846
3985.29	0.846
3994.88	0.845
4004.47	0.845
