Infrared Spectrum: SODIUM SILICOFLUORIDE
Formula: Na2 Si F6
State: SOLID (NUJOL MULL)
Class: COBLENTZ
Instrument: Not specified, most likely a prism, grating, or hybrid spectrometer.
Sampling: TRANSMISSION
Resolution: 4
Origin: MELLON INSTITUTE
MICROMETERS	TRANSMITTANCE
2.01	0.742
2.05097	0.738
2.09194	0.738
2.1329	0.735
2.17387	0.735
2.21484	0.733
2.25581	0.731
2.29677	0.728
2.33774	0.728
2.37871	0.726
2.41968	0.728
2.46064	0.73
2.50161	0.733
2.54258	0.735
2.58355	0.737
2.62451	0.74
2.66548	0.742
2.70645	0.74
2.74742	0.731
2.78839	0.73
2.82935	0.728
2.87032	0.726
2.91129	0.723
2.95226	0.726
2.99322	0.73
3.03419	0.723
3.07516	0.728
3.11613	0.731
3.15709	0.731
3.19806	0.737
3.23903	0.747
3.28	0.738
3.32097	0.649
3.36193	0.4
3.4029	0.398
3.44387	0.517
3.48484	0.52
3.5258	0.74
3.56677	0.764
3.60774	0.771
3.64871	0.78
3.68967	0.783
3.73064	0.78
3.77161	0.781
3.81258	0.786
3.85354	0.786
3.89451	0.792
3.93548	0.788
3.97645	0.795
4.01742	0.795
4.05838	0.802
4.09935	0.802
4.14032	0.798
4.18129	0.807
4.22225	0.778
4.26322	0.781
4.30419	0.774
4.34516	0.776
4.38612	0.786
4.42709	0.8
4.46806	0.798
4.50903	0.8
4.54999	0.798
4.59096	0.797
4.63193	0.802
4.6729	0.802
4.71387	0.804
4.75483	0.809
4.7958	0.802
4.83677	0.807
4.87774	0.812
4.9187	0.816
4.95967	0.816
5.00064	0.823
5.04161	0.826
5.08257	0.826
5.12354	0.826
5.16451	0.826
5.20548	0.835
5.24645	0.836
5.28741	0.841
5.32838	0.836
5.36935	0.84
5.41032	0.841
5.45128	0.848
5.49225	0.84
5.53322	0.845
5.57419	0.853
5.61515	0.85
5.65612	0.862
5.69709	0.867
5.73806	0.871
5.77902	0.872
5.81999	0.886
5.86096	0.883
5.90193	0.886
5.9429	0.9
5.98386	0.898
6.02483	0.905
6.0658	0.893
6.10677	0.891
6.14773	0.905
6.1887	0.908
6.22967	0.914
6.27064	0.908
6.3116	0.914
6.35257	0.903
6.39354	0.905
6.43451	0.903
6.47547	0.91
6.51644	0.903
6.55741	0.907
6.59838	0.91
6.63935	0.915
6.68031	0.914
6.72128	0.903
6.76225	0.879
6.80322	0.8
6.84418	0.778
6.88515	0.798
6.92612	0.835
6.96709	0.853
7.00805	0.884
7.04902	0.89
7.08999	0.903
7.13096	0.903
7.17193	0.903
7.21289	0.879
7.25386	0.855
7.29483	0.874
7.3358	0.902
7.37676	0.907
7.41773	0.905
7.4587	0.914
7.49967	0.919
7.54063	0.919
7.5816	0.917
7.62257	0.92
7.66354	0.92
7.7045	0.917
7.74547	0.922
7.78644	0.917
7.82741	0.915
7.86838	0.917
7.90934	0.915
7.95031	0.915
7.99128	0.915
8.03225	0.905
8.07321	0.903
8.11418	0.902
8.15515	0.902
8.19612	0.9
8.23708	0.902
8.27805	0.896
8.31902	0.893
8.35999	0.893
8.40095	0.9
8.44192	0.902
8.48289	0.902
8.52386	0.898
8.56483	0.9
8.60579	0.9
8.64676	0.895
8.68773	0.888
8.7287	0.891
8.76966	0.891
8.81063	0.886
8.8516	0.879
8.89257	0.876
8.93353	0.872
8.9745	0.865
9.01547	0.862
9.05644	0.862
9.09741	0.865
9.13837	0.865
9.17934	0.871
9.22031	0.876
9.26128	0.883
9.30224	0.89
9.34321	0.9
9.38418	0.903
9.42515	0.905
9.46611	0.905
9.50708	0.905
9.54805	0.917
9.58902	0.917
9.62998	0.917
9.67095	0.919
9.71192	0.92
9.75289	0.922
9.79386	0.926
9.83482	0.929
9.87579	0.931
9.91676	0.931
9.95773	0.927
9.99869	0.929
10.0397	0.931
10.0806	0.934
10.1216	0.929
10.1626	0.932
10.2035	0.931
10.2445	0.927
10.2855	0.927
10.3264	0.932
10.3674	0.929
10.4084	0.931
10.4493	0.931
10.4903	0.931
10.5313	0.931
10.5722	0.926
10.6132	0.929
10.6542	0.931
10.6951	0.931
10.7361	0.936
10.7771	0.938
10.818	0.939
10.859	0.941
10.9	0.943
10.9409	0.945
10.9819	0.943
11.0229	0.95
11.0639	0.951
11.1048	0.951
11.1458	0.951
11.1868	0.953
11.2277	0.955
11.2687	0.955
11.3097	0.957
11.3506	0.951
11.3916	0.953
11.4326	0.955
11.4735	0.958
11.5145	0.96
11.5555	0.957
11.5964	0.955
11.6374	0.951
11.6784	0.946
11.7193	0.945
11.7603	0.939
11.8013	0.938
11.8422	0.934
11.8832	0.929
11.9242	0.926
11.9651	0.92
12.0061	0.919
12.0471	0.912
12.088	0.905
12.129	0.9
12.17	0.891
12.2109	0.879
12.2519	0.855
12.2929	0.824
12.3339	0.802
12.3748	0.774
12.4158	0.731
12.4568	0.682
12.4977	0.663
12.5387	0.632
12.5797	0.601
12.6206	0.565
12.6616	0.548
12.7026	0.534
12.7435	0.518
12.7845	0.505
12.8255	0.493
12.8664	0.482
12.9074	0.46
12.9484	0.445
12.9893	0.429
13.0303	0.414
13.0713	0.402
13.1122	0.395
13.1532	0.381
13.1942	0.367
13.2351	0.352
13.2761	0.341
13.3171	0.331
13.358	0.314
13.399	0.304
13.44	0.295
13.4809	0.281
13.5219	0.266
13.5629	0.254
13.6038	0.245
13.6448	0.235
13.6858	0.225
13.7268	0.218
13.7677	0.216
13.8087	0.216
13.8497	0.226
13.8906	0.254
13.9316	0.288
13.9726	0.331
14.0135	0.414
14.0545	0.453
14.0955	0.512
14.1364	0.563
14.1774	0.599
14.2184	0.628
14.2593	0.661
14.3003	0.69
14.3413	0.704
14.3822	0.725
14.4232	0.733
14.4642	0.737
14.5051	0.742
14.5461	0.75
14.5871	0.754
14.628	0.761
14.669	0.761
14.71	0.762
14.7509	0.761
14.7919	0.759
14.8329	0.745
14.8738	0.735
14.9148	0.745
14.9558	0.747
14.9967	0.749
15.0377	0.74
15.0787	0.725
15.1197	0.728
15.1606	0.733
15.2016	0.725
15.2426	0.726
15.2835	0.719
15.3245	0.713
15.3655	0.706
15.4064	0.707
15.4474	0.701
15.4884	0.692
15.5293	0.689
15.5703	0.692
15.6113	0.683
15.6522	0.678
15.6932	0.675
15.7342	0.661
15.7751	0.654
15.8161	0.654
15.8571	0.654
15.898	0.654
15.939	0.652
15.98	0.652
