Infrared Spectrum: AMMONIUM CHROMATE
Formula: ( N H4)2 Cr O4
State: SOLID (NUJOL AND FLUOROLUBE MULLS)
Class: COBLENTZ
Instrument: Not specified, most likely a prism, grating, or hybrid spectrometer.
Sampling: TRANSMISSION
Resolution: 4
Origin: MELLON INSTITUTE
MICROMETERS	TRANSMITTANCE
2.021	0.519
2.06095	0.522
2.10091	0.529
2.14086	0.532
2.18081	0.535
2.22077	0.544
2.26072	0.55
2.30067	0.555
2.34062	0.57
2.38058	0.587
2.42053	0.611
2.46048	0.629
2.50044	0.649
2.54039	0.657
2.58034	0.672
2.6203	0.691
2.66025	0.699
2.7002	0.712
2.74015	0.721
2.78011	0.731
2.82006	0.746
2.86001	0.757
2.89997	0.769
2.93992	0.771
2.97987	0.757
3.01983	0.686
3.05978	0.577
3.09973	0.422
3.13968	0.337
3.17964	0.31
3.21959	0.297
3.25954	0.278
3.2995	0.25
3.33945	0.242
3.3794	0.242
3.41936	0.257
3.45931	0.27
3.49926	0.277
3.53921	0.28
3.57917	0.287
3.61912	0.325
3.65907	0.395
3.69903	0.44
3.73898	0.479
3.77893	0.507
3.81889	0.545
3.85884	0.574
3.89879	0.595
3.93875	0.616
3.9787	0.634
4.01865	0.654
4.0586	0.672
4.09856	0.679
4.13851	0.691
4.17846	0.694
4.21842	0.696
4.25837	0.691
4.29832	0.692
4.33828	0.702
4.37823	0.716
4.41818	0.726
4.45813	0.727
4.49809	0.734
4.53804	0.744
4.57799	0.751
4.61795	0.757
4.6579	0.761
4.69785	0.769
4.73781	0.772
4.77776	0.774
4.81771	0.779
4.85766	0.776
4.89762	0.777
4.93757	0.782
4.97752	0.781
5.01748	0.779
5.05743	0.782
5.09738	0.787
5.13734	0.786
5.17729	0.789
5.21724	0.794
5.2572	0.797
5.29715	0.803
5.3371	0.803
5.37705	0.803
5.41701	0.804
5.45696	0.806
5.49691	0.809
5.53687	0.813
5.57682	0.814
5.61677	0.816
5.65673	0.809
5.69668	0.811
5.73663	0.813
5.77658	0.813
5.81654	0.819
5.85649	0.823
5.89644	0.824
5.9364	0.821
5.97635	0.813
6.0163	0.756
6.05626	0.752
6.09621	0.792
6.13616	0.818
6.17611	0.863
6.21607	0.888
6.25602	0.891
6.29597	0.896
6.33593	0.898
6.37588	0.894
6.41583	0.901
6.45579	0.909
6.49574	0.903
6.53569	0.903
6.57564	0.908
6.6156	0.904
6.65555	0.909
6.6955	0.911
6.73546	0.899
6.77541	0.876
6.81536	0.813
6.85532	0.731
6.89527	0.662
6.93522	0.534
6.97518	0.377
7.01513	0.35
7.05508	0.335
7.09503	0.338
7.13499	0.397
7.17494	0.465
7.21489	0.614
7.25485	0.701
7.2948	0.737
7.33475	0.761
7.37471	0.784
7.41466	0.796
7.45461	0.808
7.49456	0.831
7.53452	0.851
7.57447	0.859
7.61442	0.871
7.65438	0.874
7.69433	0.878
7.73428	0.881
7.77424	0.884
7.81419	0.891
7.85414	0.896
7.89409	0.896
7.93405	0.899
7.974	0.901
8.01395	0.904
8.05391	0.909
8.09386	0.914
8.13381	0.916
8.17377	0.914
8.21372	0.918
8.25367	0.919
8.29362	0.921
8.33358	0.921
8.37353	0.923
8.41348	0.924
8.45344	0.923
8.49339	0.924
8.53334	0.926
8.5733	0.928
8.61325	0.928
8.6532	0.931
8.69316	0.931
8.73311	0.929
8.77306	0.933
8.81301	0.934
8.85297	0.933
8.89292	0.931
8.93287	0.928
8.97283	0.931
9.01278	0.931
9.05273	0.933
9.09269	0.931
9.13264	0.931
9.17259	0.933
9.21254	0.934
9.2525	0.936
9.29245	0.939
9.3324	0.939
9.37236	0.939
9.41231	0.943
9.45226	0.944
9.49222	0.946
9.53217	0.949
9.57212	0.953
9.61207	0.951
9.65203	0.951
9.69198	0.951
9.73193	0.953
9.77189	0.953
9.81184	0.953
9.85179	0.954
9.89175	0.953
9.9317	0.953
9.97165	0.954
10.0116	0.956
10.0516	0.953
10.0915	0.953
10.1315	0.953
10.1714	0.948
10.2114	0.934
10.2513	0.921
10.2913	0.904
10.3312	0.871
10.3712	0.853
10.4111	0.839
10.4511	0.803
10.491	0.756
10.531	0.717
10.5709	0.672
10.6109	0.647
10.6509	0.636
10.6908	0.634
10.7308	0.632
10.7707	0.627
10.8107	0.627
10.8506	0.622
10.8906	0.604
10.9305	0.585
10.9705	0.525
11.0104	0.47
11.0504	0.39
11.0903	0.332
11.1303	0.272
11.1702	0.232
11.2102	0.2
11.2501	0.173
11.2901	0.16
11.3301	0.146
11.37	0.136
11.41	0.126
11.4499	0.12
11.4899	0.113
11.5298	0.113
11.5698	0.113
11.6097	0.113
11.6497	0.116
11.6896	0.126
11.7296	0.143
11.7695	0.178
11.8095	0.21
11.8494	0.22
11.8894	0.227
11.9294	0.25
11.9693	0.303
12.0093	0.377
12.0492	0.437
12.0892	0.492
12.1291	0.54
12.1691	0.57
12.209	0.599
12.249	0.621
12.2889	0.647
12.3289	0.661
12.3688	0.672
12.4088	0.684
12.4487	0.699
12.4887	0.712
12.5286	0.719
12.5686	0.724
12.6086	0.732
12.6485	0.741
12.6885	0.747
12.7284	0.754
12.7684	0.756
12.8083	0.756
12.8483	0.752
12.8882	0.754
12.9282	0.749
12.9681	0.749
13.0081	0.742
13.048	0.734
13.088	0.726
13.1279	0.712
13.1679	0.697
13.2078	0.676
13.2478	0.666
13.2878	0.637
13.3277	0.629
13.3677	0.621
13.4076	0.616
13.4476	0.612
13.4875	0.614
13.5275	0.619
13.5674	0.629
13.6074	0.642
13.6473	0.649
13.6873	0.656
13.7272	0.666
13.7672	0.669
13.8071	0.674
13.8471	0.679
13.887	0.681
13.927	0.684
13.967	0.687
14.0069	0.687
14.0469	0.686
14.0868	0.682
14.1268	0.677
14.1667	0.671
14.2067	0.666
14.2466	0.662
14.2866	0.661
14.3265	0.654
14.3665	0.649
14.4064	0.644
14.4464	0.641
14.4863	0.636
14.5263	0.632
14.5662	0.627
14.6062	0.622
14.6462	0.619
14.6861	0.612
14.7261	0.604
14.766	0.599
14.806	0.587
14.8459	0.582
14.8859	0.579
14.9258	0.574
14.9658	0.564
15.0057	0.56
15.0457	0.554
15.0856	0.55
15.1256	0.544
15.1655	0.544
15.2055	0.542
15.2455	0.542
15.2854	0.54
15.3254	0.537
15.3653	0.535
15.4053	0.532
15.4452	0.534
15.4852	0.534
15.5251	0.532
15.5651	0.532
15.605	0.535
15.645	0.535
15.6849	0.535
15.7249	0.54
15.7648	0.542
15.8048	0.544
15.8447	0.544
15.8847	0.545
15.9247	0.55
15.9646	0.555
