Infrared Spectrum: 2-HYDROXY-4-METHOXY BENZOYL FERROCENE
Formula: C18 H16 O3 Fe
State: SOLID (MINERAL OIL MULL)
Class: COBLENTZ
Instrument: Not specified, most likely a prism, grating, or hybrid spectrometer.
Sampling: TRANSMISSION
Resolution: 4
Origin: WYANDOTTE CHEMICALS CORP., WYANDOTTE, MICHIGAN, USA
MICROMETERS	TRANSMITTANCE
2.007	0.429
2.04784	0.439
2.08867	0.449
2.12951	0.454
2.17034	0.458
2.21118	0.458
2.25201	0.464
2.29285	0.482
2.33368	0.487
2.37452	0.494
2.41535	0.502
2.45619	0.509
2.49702	0.512
2.53786	0.529
2.57869	0.531
2.61953	0.54
2.66036	0.543
2.7012	0.55
2.74203	0.555
2.78287	0.557
2.8237	0.567
2.86454	0.562
2.90537	0.565
2.94621	0.56
2.98704	0.57
3.02788	0.565
3.06871	0.565
3.10955	0.558
3.15038	0.55
3.19122	0.541
3.23205	0.47
3.27289	0.505
3.31372	0.367
3.35456	0.083
3.39539	0.044
3.43623	0.111
3.47706	0.162
3.5179	0.256
3.55873	0.589
3.59957	0.613
3.6404	0.61
3.68124	0.596
3.72207	0.629
3.76291	0.632
3.80374	0.641
3.84458	0.663
3.88541	0.682
3.92625	0.699
3.96708	0.707
4.00792	0.721
4.04875	0.723
4.08959	0.729
4.13042	0.74
4.17126	0.743
4.21209	0.748
4.25293	0.747
4.29376	0.748
4.3346	0.753
4.37543	0.776
4.41627	0.793
4.4571	0.794
4.49794	0.8
4.53877	0.808
4.57961	0.817
4.62044	0.817
4.66128	0.83
4.70211	0.839
4.74295	0.852
4.78378	0.851
4.82462	0.861
4.86545	0.866
4.90629	0.875
4.94712	0.863
4.98796	0.875
5.02879	0.887
5.06963	0.888
5.11046	0.904
5.1513	0.904
5.19213	0.894
5.23297	0.9
5.2738	0.916
5.31464	0.921
5.35547	0.931
5.39631	0.935
5.43714	0.933
5.47798	0.935
5.51881	0.921
5.55965	0.907
5.60048	0.904
5.64132	0.926
5.68215	0.931
5.72299	0.924
5.76382	0.917
5.80466	0.902
5.8455	0.89
5.88633	0.883
5.92717	0.854
5.968	0.823
6.00884	0.752
6.04967	0.582
6.09051	0.234
6.13134	0.147
6.17218	0.211
6.21301	0.282
6.25385	0.141
6.29468	0.112
6.33552	0.311
6.37635	0.495
6.41719	0.618
6.45802	0.69
6.49886	0.719
6.53969	0.702
6.58053	0.504
6.62136	0.379
6.6622	0.341
6.70303	0.536
6.74387	0.519
6.7847	0.28
6.82554	0.182
6.86637	0.119
6.90721	0.16
6.94804	0.464
6.98888	0.635
7.02971	0.646
7.07055	0.615
7.11138	0.615
7.15222	0.57
7.19305	0.345
7.23389	0.063
7.27472	0.201
7.31556	0.403
7.35639	0.4
7.39723	0.589
7.43806	0.478
7.4789	0.234
7.51973	0.43
7.56057	0.589
7.6014	0.668
7.64224	0.558
7.68307	0.521
7.72391	0.673
7.76474	0.676
7.80558	0.555
7.84641	0.206
7.88725	0.042
7.92808	0.16
7.96892	0.311
8.00975	0.429
8.05059	0.473
8.09142	0.381
8.13226	0.466
8.17309	0.586
8.21393	0.367
8.25476	0.148
8.2956	0.222
8.33643	0.461
8.37727	0.596
8.4181	0.646
8.45894	0.682
8.49977	0.676
8.54061	0.591
8.58144	0.7
8.62228	0.777
8.66311	0.811
8.70395	0.818
8.74478	0.849
8.78562	0.858
8.82645	0.774
8.86729	0.446
8.90812	0.181
8.94896	0.239
8.98979	0.341
9.03063	0.591
9.07146	0.683
9.1123	0.733
9.15313	0.764
9.19397	0.781
9.2348	0.798
9.27564	0.8
9.31647	0.818
9.35731	0.817
9.39814	0.789
9.43898	0.647
9.47981	0.625
9.52065	0.779
9.56148	0.829
9.60232	0.755
9.64316	0.6
9.68399	0.688
9.72483	0.529
9.76566	0.336
9.8065	0.63
9.84733	0.726
9.88817	0.74
9.929	0.661
9.96984	0.606
10.0107	0.726
10.0515	0.813
10.0923	0.849
10.1332	0.871
10.174	0.876
10.2148	0.835
10.2557	0.777
10.2965	0.806
10.3374	0.772
10.3782	0.683
10.419	0.781
10.4599	0.847
10.5007	0.868
10.5415	0.875
10.5824	0.835
10.6232	0.685
10.664	0.687
10.7049	0.82
10.7457	0.875
10.7865	0.895
10.8274	0.904
10.8682	0.907
10.909	0.907
10.9499	0.902
10.9907	0.887
11.0315	0.829
11.0724	0.808
11.1132	0.858
11.1541	0.882
11.1949	0.876
11.2357	0.875
11.2766	0.854
11.3174	0.76
11.3582	0.617
11.3991	0.671
11.4399	0.738
11.4807	0.714
11.5216	0.632
11.5624	0.528
11.6032	0.413
11.6441	0.369
11.6849	0.456
11.7257	0.502
11.7666	0.411
11.8074	0.34
11.8482	0.169
11.8891	0.095
11.9299	0.152
11.9708	0.261
12.0116	0.429
12.0524	0.552
12.0933	0.538
12.1341	0.48
12.1749	0.442
12.2158	0.256
12.2566	0.241
12.2974	0.29
12.3383	0.413
12.3791	0.521
12.4199	0.591
12.4608	0.652
12.5016	0.711
12.5424	0.752
12.5833	0.781
12.6241	0.798
12.6649	0.817
12.7058	0.839
12.7466	0.861
12.7875	0.866
12.8283	0.866
12.8691	0.817
12.91	0.757
12.9508	0.818
12.9916	0.876
13.0325	0.888
13.0733	0.899
13.1141	0.899
13.155	0.904
13.1958	0.905
13.2366	0.907
13.2775	0.911
13.3183	0.917
13.3591	0.917
13.4	0.921
13.4408	0.917
13.4817	0.919
13.5225	0.917
13.5633	0.909
13.6042	0.861
13.645	0.837
13.6858	0.873
13.7267	0.904
13.7675	0.909
13.8083	0.914
13.8492	0.914
13.89	0.909
13.9308	0.919
13.9717	0.928
14.0125	0.931
14.0533	0.897
14.0942	0.776
14.135	0.644
14.1758	0.709
14.2167	0.827
14.2575	0.883
14.2984	0.909
14.3392	0.926
14.38	0.929
14.4209	0.933
14.4617	0.929
14.5025	0.928
14.5434	0.926
14.5842	0.926
14.625	0.917
14.6659	0.921
14.7067	0.916
14.7475	0.907
14.7884	0.904
14.8292	0.905
14.87	0.899
14.9109	0.897
14.9517	0.888
14.9925	0.844
15.0334	0.801
15.0742	0.805
15.1151	0.847
15.1559	0.863
15.1967	0.863
15.2376	0.839
15.2784	0.818
15.3192	0.782
15.3601	0.758
15.4009	0.741
15.4417	0.743
15.4826	0.735
15.5234	0.733
15.5642	0.729
15.6051	0.723
15.6459	0.717
15.6867	0.699
15.7276	0.678
15.7684	0.649
15.8092	0.598
15.8501	0.552
15.8909	0.535
15.9318	0.533
15.9726	0.555
