Infrared Spectrum: DICYCLOHEXYLAMINE NITRITE
Formula: C12 H23 N  * H N O2
State: SOLID (SPLIT MULL: 2.5-7.5 HALOCARBON, 7.5-15.0 NUJOL), INTENSITIES MATCHED
Class: COBLENTZ
Instrument: Not specified, most likely a grating spectrometer.
Sampling: TRANSMISSION
Resolution: 4
Origin: STANDARD OIL OF OHIO
1/CM	TRANSMITTANCE
635.169	0.618
644.638	0.637
654.106	0.661
663.575	0.681
673.044	0.705
682.512	0.723
691.981	0.73
701.45	0.738
710.918	0.72
720.387	0.667
729.856	0.701
739.325	0.732
748.793	0.754
758.262	0.761
767.731	0.762
777.199	0.759
786.668	0.749
796.137	0.64
805.605	0.3882
815.074	0.754
824.543	0.761
834.011	0.769
843.48	0.727
852.949	0.752
862.417	0.74
871.886	0.754
881.355	0.757
890.824	0.718
900.292	0.6378
909.761	0.74
919.23	0.674
928.698	0.6909
938.167	0.723
947.636	0.706
957.104	0.691
966.573	0.64
976.042	0.501
985.51	0.6109
994.979	0.679
1004.45	0.696
1013.92	0.676
1023.39	0.635
1032.85	0.498
1042.32	0.549
1051.79	0.4381
1061.26	0.362
1070.73	0.486
1080.2	0.53
1089.67	0.438
1099.13	0.411
1108.6	0.3229
1118.07	0.1891
1127.54	0.098
1137.01	0.101
1146.48	0.132
1155.95	0.284
1165.42	0.211
1174.88	0.3269
1184.35	0.366
1193.82	0.374
1203.29	0.403
1212.76	0.45
1222.23	0.484
1231.7	0.51
1241.16	0.55
1250.63	0.569
1260.1	0.523
1269.57	0.5351
1279.04	0.566
1288.51	0.571
1297.98	0.494
1307.45	0.489
1316.91	0.388
1326.38	0.4491
1335.85	0.445
1345.32	0.432
1354.79	0.354
1364.26	0.261
1373.73	0.238
1383.2	0.296
1392.66	0.2911
1402.13	0.461
1411.6	0.488
1421.07	0.5031
1430.54	0.55
1440.01	0.476
1449.48	0.3007
1458.94	0.277
1468.41	0.401
1477.88	0.442
1487.35	0.437
1496.82	0.371
1506.29	0.566
1515.76	0.676
1525.23	0.723
1534.69	0.737
1544.16	0.738
1553.63	0.738
1563.1	0.735
1572.57	0.723
1582.04	0.6979
1591.51	0.625
1600.98	0.55
1610.44	0.488
1619.91	0.581
1629.38	0.684
1638.85	0.722
1648.32	0.738
1657.79	0.754
1667.26	0.761
1676.72	0.767
1686.19	0.772
1695.66	0.777
1705.13	0.776
1714.6	0.781
1724.07	0.783
1733.54	0.789
1743.01	0.789
1752.47	0.789
1761.94	0.791
1771.41	0.791
1780.88	0.788
1790.35	0.789
1799.82	0.789
1809.29	0.789
1818.75	0.788
1828.22	0.788
1837.69	0.788
1847.16	0.791
1856.63	0.791
1866.1	0.791
1875.57	0.791
1885.04	0.793
1894.5	0.786
1903.97	0.783
1913.44	0.779
1922.91	0.769
1932.38	0.769
1941.85	0.767
1951.32	0.761
1960.79	0.759
1970.25	0.754
1979.72	0.755
1989.19	0.759
1998.66	0.767
2008.13	0.769
2017.6	0.7665
2027.07	0.759
2036.53	0.757
2046	0.752
2055.47	0.7399
2064.94	0.735
2074.41	0.7299
2083.88	0.7179
2093.35	0.701
2102.82	0.7111
2112.28	0.716
2121.75	0.716
2131.22	0.7155
2140.69	0.7129
2150.16	0.713
2159.63	0.701
2169.1	0.6869
2178.56	0.6717
2188.03	0.6509
2197.5	0.6367
2206.97	0.6224
2216.44	0.62
2225.91	0.6168
2235.38	0.6008
2244.85	0.5898
2254.31	0.588
2263.78	0.5834
2273.25	0.5719
2282.72	0.5652
2292.19	0.557
2301.66	0.5508
2311.13	0.5397
2320.6	0.5257
2330.06	0.5156
2339.53	0.506
2349	0.4925
2358.47	0.4666
2367.94	0.4441
2377.41	0.4224
2386.88	0.3997
2396.34	0.4019
2405.81	0.4135
2415.28	0.411
2424.75	0.387
2434.22	0.3564
2443.69	0.3226
2453.16	0.2947
2462.63	0.3018
2472.09	0.337
2481.56	0.378
2491.03	0.386
2500.5	0.3641
2509.97	0.3302
2519.44	0.3026
2528.91	0.2866
2538.38	0.286
2547.84	0.288
2557.31	0.3014
2566.78	0.329
2576.25	0.3631
2585.72	0.3784
2595.19	0.3757
2604.66	0.3631
2614.12	0.3487
2623.59	0.3364
2633.06	0.3243
2642.53	0.3121
2652	0.2921
2661.47	0.2775
2670.94	0.2795
2680.41	0.2855
2689.87	0.2855
2699.34	0.2768
2708.81	0.2605
2718.28	0.2525
2727.75	0.2543
2737.22	0.2585
2746.69	0.2565
2756.15	0.252
2765.62	0.2556
2775.09	0.2605
2784.56	0.2704
2794.03	0.2821
2803.5	0.289
2812.97	0.284
2822.44	0.2655
2831.9	0.2524
2841.37	0.2362
2850.84	0.198
2860.31	0.1484
2869.78	0.1718
2879.25	0.227
2888.72	0.252
2898.19	0.2368
2907.65	0.2044
2917.12	0.1727
2926.59	0.1415
2936.06	0.1307
2945.53	0.1437
2955	0.1751
2964.47	0.2636
2973.93	0.3325
2983.4	0.3549
2992.87	0.3448
3002.34	0.3117
3011.81	0.2973
3021.28	0.3103
3030.75	0.3317
3040.22	0.3706
3049.68	0.4186
3059.15	0.4493
3068.62	0.4918
3078.09	0.5201
3087.56	0.5528
3097.03	0.5897
3106.5	0.6178
3115.96	0.6397
3125.43	0.6664
3134.9	0.6826
3144.37	0.686
3153.84	0.6939
3163.31	0.6988
3172.78	0.7009
3182.25	0.703
3191.71	0.703
3201.18	0.7069
3210.65	0.7099
3220.12	0.7119
3229.59	0.715
3239.06	0.7169
3248.53	0.718
3258	0.72
3267.46	0.72
3276.93	0.718
3286.4	0.718
3295.87	0.718
3305.34	0.716
3314.81	0.715
3324.28	0.713
3333.74	0.7105
3343.21	0.708
3352.68	0.706
3362.15	0.705
3371.62	0.703
3381.09	0.703
3390.56	0.703
3400.03	0.703
3409.49	0.703
3418.96	0.703
3428.43	0.704
3437.9	0.703
3447.37	0.705
3456.84	0.705
3466.31	0.705
3475.78	0.703
3485.24	0.7021
3494.71	0.705
3504.18	0.705
3513.65	0.705
3523.12	0.706
3532.59	0.706
3542.06	0.706
3551.52	0.706
3560.99	0.708
3570.46	0.706
3579.93	0.706
3589.4	0.7079
3598.87	0.7054
3608.34	0.708
3617.81	0.7054
3627.27	0.705
3636.74	0.703
3646.21	0.7028
3655.68	0.7
3665.15	0.7012
3674.62	0.7018
3684.09	0.7009
3693.55	0.6968
3703.02	0.694
3712.49	0.694
3721.96	0.693
3731.43	0.6923
3740.9	0.694
3750.37	0.6918
3759.84	0.688
3769.3	0.684
3778.77	0.6827
3788.24	0.6823
3797.71	0.6843
3807.18	0.6817
3816.65	0.683
3826.12	0.6777
3835.59	0.6787
3845.05	0.677
3854.52	0.677
3863.99	0.677
3873.46	0.676
3882.93	0.676
3892.4	0.674
