Infrared Spectrum: MANDELATE, HEXAMETHYLENETETRA-AMINE-
Formula: C14 H20 N4 O3
State: SOLID (KBr DISC)
Melting point: 128-130 C
Class: COBLENTZ III
Instrument: PERKIN-ELMER 21 (GRATING)
Instrument parameters: FILTER AT ABOUT 10 MICRONS
Sampling: TRANSMISSION
Resolution: 2
1/CM	TRANSMITTANCE
4000	0.8321
3991	0.832
3982	0.8321
3973	0.8321
3964	0.8321
3955	0.8323
3946	0.8328
3937	0.8334
3928	0.834
3919	0.8355
3910	0.8375
3901	0.8394
3892	0.8412
3883	0.8428
3874	0.8444
3865	0.846
3856	0.8468
3847	0.8474
3838	0.848
3829	0.8486
3820	0.8491
3811	0.8497
3802	0.8504
3793	0.851
3784	0.8515
3775	0.8518
3766	0.8521
3757	0.8524
3748	0.8528
3739	0.853
3730	0.8533
3721	0.8535
3712	0.8537
3703	0.8538
3694	0.8538
3685	0.8539
3676	0.8537
3667	0.8533
3658	0.853
3649	0.8515
3640	0.8496
3631	0.8477
3622	0.8453
3613	0.842
3604	0.8387
3595	0.8354
3586	0.832
3577	0.8271
3568	0.8215
3559	0.8158
3550	0.81
3541	0.804
3532	0.7965
3523	0.7889
3514	0.7812
3505	0.7736
3496	0.7651
3487	0.7565
3478	0.7478
3469	0.7341
3460	0.7174
3451	0.7051
3442	0.6946
3433	0.684
3424	0.6735
3415	0.6628
3406	0.6521
3397	0.6407
3388	0.6291
3379	0.6144
3370	0.6047
3361	0.5982
3352	0.5924
3343	0.5868
3334	0.5812
3325	0.5764
3316	0.5716
3307	0.5668
3298	0.562
3289	0.5529
3280	0.5393
3271	0.5273
3262	0.5186
3253	0.5099
3244	0.4997
3235	0.4888
3226	0.4687
3217	0.4533
3208	0.4435
3199	0.4356
3190	0.4281
3181	0.4228
3172	0.4219
3163	0.4217
3154	0.4266
3145	0.4398
3136	0.4514
3127	0.4632
3118	0.4746
3109	0.4854
3100	0.4979
3091	0.5057
3082	0.5084
3073	0.5085
3064	0.5083
3055	0.5101
3046	0.5141
3037	0.5221
3028	0.5301
3019	0.5373
3010	0.5435
3001	0.5482
2992	0.5515
2983	0.5512
2974	0.5169
2965	0.5059
2956	0.4984
2947	0.4909
2938	0.4862
2929	0.4885
2920	0.494
2911	0.5
2902	0.5068
2893	0.514
2884	0.5217
2875	0.5308
2866	0.5462
2857	0.558
2848	0.5612
2839	0.5618
2830	0.5583
2821	0.5551
2812	0.5607
2803	0.5728
2794	0.5731
2785	0.5769
2776	0.5858
2767	0.5952
2758	0.6031
2749	0.6057
2740	0.5846
2731	0.554
2722	0.5554
2713	0.5698
2704	0.5855
2695	0.595
2686	0.6052
2677	0.602
2668	0.5994
2659	0.5954
2650	0.5901
2641	0.5802
2632	0.5627
2623	0.5466
2614	0.5439
2605	0.5428
2596	0.5291
2587	0.531
2578	0.5469
2569	0.5484
2560	0.534
2551	0.4783
2542	0.4203
2533	0.4227
2524	0.4665
2515	0.4943
2506	0.5062
2497	0.5109
2488	0.5078
2479	0.5041
2470	0.5046
2461	0.506
2452	0.5123
2443	0.5298
2434	0.5472
2425	0.5496
2416	0.5471
2407	0.5419
2398	0.5419
2389	0.5433
2380	0.547
2371	0.552
2362	0.5539
2353	0.5554
2344	0.5577
2335	0.5607
2326	0.5696
2317	0.5891
2308	0.6081
2299	0.6177
2290	0.6189
2281	0.6197
2272	0.6155
2263	0.616
2254	0.6191
2245	0.6228
2236	0.6274
2227	0.6332
2218	0.6393
2209	0.6457
2200	0.6528
2191	0.6601
2182	0.6686
2173	0.6771
2164	0.6884
2155	0.6984
2146	0.7001
2137	0.7011
2128	0.703
2119	0.7065
2110	0.7117
2101	0.7251
2092	0.7318
2083	0.7361
2074	0.7395
2065	0.743
2056	0.7468
2047	0.7521
2038	0.7625
2029	0.7722
2020	0.7797
2011	0.7841
2002	0.7846
1993	0.7841
1984	0.7845
1975	0.7907
1966	0.7939
1957	0.7998
1948	0.7994
1939	0.8089
1930	0.8195
1921	0.8275
1912	0.8313
1903	0.8328
1894	0.8321
1885	0.8348
1876	0.8421
1867	0.8497
1858	0.8467
1849	0.8428
1840	0.8428
1831	0.8428
1822	0.8421
1813	0.845
1804	0.8503
1795	0.8575
1786	0.8608
1777	0.8591
1768	0.8487
1759	0.8375
1750	0.8373
1741	0.8325
1732	0.8211
1723	0.8192
1714	0.8147
1705	0.8048
1696	0.7886
1687	0.7586
1678	0.7101
1669	0.6568
1660	0.6249
1651	0.4945
1642	0.408
1633	0.2585
1624	0.0941
1615	0.0732
1606	0.1159
1597	0.1768
1588	0.3325
1579	0.4451
1570	0.5122
1561	0.5555
1552	0.6271
1543	0.6562
1534	0.6881
1525	0.6962
1516	0.7
1507	0.6835
1498	0.542
1489	0.6202
1480	0.6293
1471	0.5015
1462	0.4034
1453	0.3054
1444	0.3806
1435	0.3859
1426	0.3182
1417	0.3479
1408	0.3979
1399	0.4152
1390	0.4578
1381	0.3622
1372	0.2564
1363	0.3202
1354	0.2585
1345	0.2537
1336	0.2676
1327	0.3307
1318	0.4137
1309	0.3482
1300	0.4898
1291	0.3948
1282	0.5393
1273	0.5907
1264	0.4217
1255	0.2689
1246	0.5378
1237	0.5502
1228	0.4346
1219	0.3768
1210	0.4782
1201	0.5673
1192	0.6219
1183	0.69
1174	0.6721
1165	0.7412
1156	0.7856
1147	0.8131
1138	0.8218
1129	0.8209
1120	0.7475
1111	0.7112
1102	0.6812
1093	0.7768
1084	0.8139
1075	0.7926
1066	0.5414
1057	0.4945
1048	0.7575
1039	0.7571
1030	0.4514
1021	0.1177
1012	0.0647
1003	0.4423
994	0.5667
985	0.2715
976	0.3982
967	0.6704
958	0.7326
949	0.7535
940	0.7093
931	0.7632
922	0.8125
913	0.8089
904	0.7098
895	0.7883
886	0.6495
877	0.4409
868	0.5048
859	0.6981
850	0.7761
841	0.8128
832	0.7176
823	0.2693
814	0.4878
805	0.7222
796	0.4324
787	0.6419
778	0.6814
769	0.6593
760	0.6691
751	0.6733
742	0.6319
733	0.3259
724	0.2731
715	0.4349
706	0.4237
697	0.3043
688	0.4503
679	0.5588
670	0.653
661	0.5695
652	0.4538
