Infrared Spectrum: Propionitrile, 2-amino-3-(benzylthio)-2-[(benzylthio)methyl]-, hydrochloride
Formula: C18 H21 Cl N2 S2
State: SOLID (1 mg / 650 mg KBr DISC)
Class: COBLENTZ III
Instrument: PERKIN-ELMER 221 (GRATING)
Instrument parameters: FILTER AT 980 CM^-^1, GRATING 4000-1428 CM^-^1, NaCl PRISM 1428-650 CM^-^1
Sampling: TRANSMISSION
Resolution: 2
Origin: SOUTHERN RESEARCH INSTITUTE
1/CM	TRANSMITTANCE
637	0.777
646	0.7637
655	0.6843
664	0.554
673	0.4237
682	0.3752
691	0.0414
700	0.321
709	0.6945
718	0.803
727	0.8416
736	0.8326
745	0.5801
754	0.679
763	0.5041
772	0.7664
781	0.8254
790	0.8577
799	0.7522
808	0.8323
817	0.7613
826	0.8115
835	0.8451
844	0.816
853	0.6275
862	0.8525
871	0.8458
880	0.7747
889	0.6863
898	0.8348
907	0.8272
916	0.6649
925	0.8281
934	0.808
943	0.6302
952	0.5943
961	0.8384
970	0.8546
979	0.6211
988	0.8285
997	0.7526
1006	0.8044
1015	0.7836
1024	0.7017
1033	0.7468
1042	0.6215
1051	0.7776
1060	0.6149
1069	0.6597
1078	0.8113
1087	0.8103
1096	0.8035
1105	0.7957
1114	0.7844
1123	0.7703
1132	0.7069
1141	0.5737
1150	0.664
1159	0.6771
1168	0.5847
1177	0.7443
1186	0.7337
1195	0.7175
1204	0.7783
1213	0.777
1222	0.7531
1231	0.5991
1240	0.688
1249	0.755
1258	0.7474
1267	0.6192
1276	0.5628
1285	0.7543
1294	0.7671
1303	0.755
1312	0.6112
1321	0.5654
1330	0.7724
1339	0.7773
1348	0.7682
1357	0.738
1366	0.702
1375	0.657
1384	0.5898
1393	0.4769
1402	0.4997
1411	0.4748
1420	0.57
1429	0.6146
1438	0.4821
1447	0.262
1456	0.6304
1465	0.5899
1474	0.3817
1483	0.1378
1492	0.0912
1501	0.3918
1510	0.7213
1519	0.7425
1528	0.6773
1537	0.528
1546	0.6253
1555	0.7231
1564	0.7259
1573	0.7018
1582	0.6674
1591	0.543
1600	0.5955
1609	0.7269
1618	0.7364
1627	0.7473
1636	0.7598
1645	0.7712
1654	0.7815
1663	0.7858
1672	0.7808
1681	0.7657
1690	0.7545
1699	0.7588
1708	0.7681
1717	0.7798
1726	0.7811
1735	0.7788
1744	0.7774
1753	0.7766
1762	0.7783
1771	0.7799
1780	0.7786
1789	0.7725
1798	0.7656
1807	0.7659
1816	0.7694
1825	0.7714
1834	0.769
1843	0.7628
1852	0.7522
1861	0.7392
1870	0.7237
1879	0.7136
1888	0.7083
1897	0.7033
1906	0.6948
1915	0.6738
1924	0.6459
1933	0.6067
1942	0.5918
1951	0.598
1960	0.603
1969	0.5991
1978	0.5786
1987	0.5574
1996	0.5577
2005	0.5948
2014	0.6362
2023	0.6562
2032	0.6587
2041	0.6637
2050	0.6839
2059	0.6995
2068	0.7017
2077	0.7034
2086	0.7048
2095	0.7056
2104	0.7057
2113	0.7047
2122	0.703
2131	0.7
2140	0.6945
2149	0.6873
2158	0.6812
2167	0.6776
2176	0.6754
2185	0.6729
2194	0.6706
2203	0.6688
2212	0.6667
2221	0.6602
2230	0.646
2239	0.6372
2248	0.6287
2257	0.6183
2266	0.6088
2275	0.6011
2284	0.5937
2293	0.5907
2302	0.5879
2311	0.5753
2320	0.5625
2329	0.5505
2338	0.5388
2347	0.5265
2356	0.5139
2365	0.5
2374	0.4859
2383	0.4685
2392	0.4511
2401	0.4294
2410	0.4064
2419	0.3867
2428	0.3669
2437	0.3425
2446	0.3091
2455	0.2531
2464	0.2141
2473	0.207
2482	0.21
2491	0.2951
2500	0.3325
2509	0.2928
2518	0.2453
2527	0.2438
2536	0.2759
2545	0.2992
2554	0.2873
2563	0.2655
2572	0.2401
2581	0.2035
2590	0.1668
2599	0.1507
2608	0.1501
2617	0.16
2626	0.1917
2635	0.1972
2644	0.1902
2653	0.1845
2662	0.1765
2671	0.1632
2680	0.1602
2689	0.1549
2698	0.145
2707	0.1399
2716	0.139
2725	0.1394
2734	0.1402
2743	0.1416
2752	0.1431
2761	0.1447
2770	0.1472
2779	0.1506
2788	0.1641
2797	0.1929
2806	0.2176
2815	0.2199
2824	0.2215
2833	0.2333
2842	0.2406
2851	0.2701
2860	0.2741
2869	0.2744
2878	0.2731
2887	0.2729
2896	0.2725
2905	0.2722
2914	0.2753
2923	0.2988
2932	0.3371
2941	0.3343
2950	0.3061
2959	0.2905
2968	0.3168
2977	0.3082
2986	0.3075
2995	0.3089
3004	0.3055
3013	0.2954
3022	0.2938
3031	0.3146
3040	0.3128
3049	0.3025
3058	0.3584
3067	0.3669
3076	0.3692
3085	0.4039
3094	0.4106
3103	0.4528
3112	0.482
3121	0.4994
3130	0.5141
3139	0.5304
3148	0.5467
3157	0.5574
3166	0.5624
3175	0.5636
3184	0.5639
3193	0.5675
3202	0.5871
3211	0.6089
3220	0.6211
3229	0.6256
3238	0.627
3247	0.6274
3256	0.6276
3265	0.6276
3274	0.6271
3283	0.6251
3292	0.6228
3301	0.6204
3310	0.6173
3319	0.6132
3328	0.6081
3337	0.6002
3346	0.5909
3355	0.5796
3364	0.5662
3373	0.5531
3382	0.5458
3391	0.5429
3400	0.5415
3409	0.5423
3418	0.5433
3427	0.5453
3436	0.5478
3445	0.5508
3454	0.5543
3463	0.5579
3472	0.5628
3481	0.5675
3490	0.5721
3499	0.5766
3508	0.5811
3517	0.5856
3526	0.59
3535	0.5945
3544	0.5989
3553	0.6033
3562	0.6084
3571	0.6138
3580	0.6193
3589	0.6241
3598	0.6288
3607	0.6329
3616	0.6363
3625	0.6388
3634	0.641
3643	0.6429
3652	0.6447
3661	0.6459
3670	0.6469
3679	0.6478
3688	0.6479
3697	0.648
3706	0.648
3715	0.6475
3724	0.6465
3733	0.6455
3742	0.6444
3751	0.6433
3760	0.642
3769	0.6404
3778	0.6388
3787	0.637
3796	0.6352
3805	0.6333
3814	0.6313
3823	0.6296
3832	0.628
3841	0.6265
3850	0.6252
3859	0.624
3868	0.6229
3877	0.6217
3886	0.6206
3895	0.6193
3904	0.6178
3913	0.6164
3922	0.6157
3931	0.6151
3940	0.6151
3949	0.6153
3958	0.6156
3967	0.6165
3976	0.6173
3985	0.6171
3994	0.6159
