Infrared Spectrum: ETHANOL, 2-[(6-AMINO-2-CHLORO-5-NITRO-4-PYRIMIDINYL)AMINO]-
Formula: C6 H8 Cl N5 O3
State: SOLID (0.7 mg / 500 mg KBr DISC)
Class: COBLENTZ III
Instrument: PERKIN-ELMER 221 (GRATING)
Instrument parameters: FILTER CHANGE AT 2490, 980 CM^-^1, GRATING FOR 4000-1428 CM^-^1, NaCl PRISM FOR 1428-650 CM^-^1
Sampling: TRANSMISSION
Resolution: 4
Origin: SOUTHERN RESEARCH INSTITUTE
1/CM	TRANSMITTANCE
607.955	0.509
616.979	0.486
626.003	0.452
635.027	0.295
644.051	0.419
653.075	0.618
662.099	0.744
671.124	0.714
680.148	0.753
689.172	0.679
698.196	0.608
707.22	0.654
716.244	0.75
725.268	0.784
734.292	0.855
743.316	0.879
752.34	0.919
761.364	0.929
770.388	0.919
779.412	0.902
788.436	0.668
797.461	0.36
806.485	0.939
815.509	0.97
824.533	0.945
833.557	0.833
842.581	0.947
851.605	0.965
860.629	0.952
869.653	0.958
878.677	0.964
887.701	0.95
896.725	0.915
905.749	0.808
914.773	0.944
923.798	0.962
932.822	0.93
941.846	0.911
950.87	0.879
959.894	0.781
968.918	0.677
977.942	0.365
986.966	0.449
995.99	0.836
1005.01	0.909
1014.04	0.901
1023.06	0.773
1032.09	0.66
1041.11	0.872
1050.13	0.823
1059.16	0.668
1068.18	0.487
1077.21	0.843
1086.23	0.87
1095.25	0.894
1104.28	0.828
1113.3	0.812
1122.33	0.833
1131.35	0.773
1140.38	0.522
1149.4	0.288
1158.42	0.578
1167.45	0.821
1176.47	0.81
1185.5	0.752
1194.52	0.698
1203.54	0.539
1212.57	0.429
1221.59	0.506
1230.62	0.337
1239.64	0.111
1248.66	0.105
1257.69	0.13
1266.71	0.303
1275.74	0.461
1284.76	0.39
1293.78	0.201
1302.81	0.332
1311.83	0.558
1320.86	0.616
1329.88	0.6
1338.9	0.551
1347.93	0.312
1356.95	0.484
1365.98	0.66
1375	0.688
1384.03	0.688
1393.05	0.734
1402.07	0.709
1411.1	0.672
1420.12	0.727
1429.15	0.695
1438.17	0.651
1447.19	0.586
1456.22	0.514
1465.24	0.424
1474.27	0.63
1483.29	0.495
1492.31	0.382
1501.34	0.189
1510.36	0.094
1519.39	0.112
1528.41	0.236
1537.43	0.406
1546.46	0.478
1555.48	0.477
1564.51	0.481
1573.53	0.367
1582.55	0.099
1591.58	0.06
1600.6	0.039
1609.63	0.243
1618.65	0.368
1627.68	0.261
1636.7	0.114
1645.72	0.156
1654.75	0.358
1663.77	0.536
1672.8	0.617
1681.82	0.73
1690.84	0.796
1699.87	0.835
1708.89	0.866
1717.92	0.907
1726.94	0.934
1735.96	0.945
1744.99	0.956
1754.01	0.965
1763.04	0.982
1772.06	0.984
1781.08	0.992
1790.11	1.001
1799.13	1.008
1808.16	1.015
1817.18	1.015
1826.2	1.014
1835.23	1.015
1844.25	1.011
1853.28	1.01
1862.3	1.01
1871.33	1.011
1880.35	1.012
1889.37	1.013
1898.4	1.014
1907.42	1.014
1916.45	1.013
1925.47	1.012
1934.49	1.01
1943.52	1.009
1952.54	1.004
1961.57	0.999
1970.59	0.992
1979.61	0.99
1988.64	0.988
1997.66	0.986
2006.69	0.984
2015.71	0.983
2024.73	0.982
2033.76	0.98
2042.78	0.977
2051.81	0.975
2060.83	0.973
2069.85	0.972
2078.88	0.971
2087.9	0.97
2096.93	0.969
2105.95	0.967
2114.98	0.965
2124	0.965
2133.02	0.965
2142.05	0.966
2151.07	0.967
2160.1	0.966
2169.12	0.965
2178.14	0.964
2187.17	0.961
2196.19	0.959
2205.22	0.957
2214.24	0.956
2223.26	0.954
2232.29	0.951
2241.31	0.947
2250.34	0.945
2259.36	0.941
2268.38	0.938
2277.41	0.934
2286.43	0.931
2295.46	0.928
2304.48	0.924
2313.5	0.919
2322.53	0.899
2331.55	0.892
2340.58	0.887
2349.6	0.886
2358.63	0.887
2367.65	0.893
2376.67	0.903
2385.7	0.913
2394.72	0.914
2403.75	0.912
2412.77	0.908
2421.79	0.904
2430.82	0.903
2439.84	0.901
2448.87	0.899
2457.89	0.897
2466.91	0.899
2475.94	0.898
2484.96	0.895
2493.99	0.891
2503.01	0.887
2512.03	0.885
2521.06	0.881
2530.08	0.877
2539.11	0.873
2548.13	0.871
2557.15	0.869
2566.18	0.869
2575.2	0.868
2584.23	0.867
2593.25	0.866
2602.28	0.865
2611.3	0.863
2620.32	0.86
2629.35	0.855
2638.37	0.846
2647.4	0.843
2656.42	0.843
2665.44	0.844
2674.47	0.844
2683.49	0.843
2692.52	0.842
2701.54	0.84
2710.56	0.837
2719.59	0.833
2728.61	0.826
2737.64	0.825
2746.66	0.823
2755.68	0.823
2764.71	0.817
2773.73	0.808
2782.76	0.803
2791.78	0.799
2800.8	0.786
2809.83	0.78
2818.85	0.769
2827.88	0.744
2836.9	0.738
2845.93	0.719
2854.95	0.699
2863.97	0.681
2873	0.677
2882.02	0.677
2891.05	0.686
2900.07	0.691
2909.09	0.69
2918.12	0.685
2927.14	0.67
2936.17	0.66
2945.19	0.634
2954.21	0.629
2963.24	0.629
2972.26	0.633
2981.29	0.638
2990.31	0.654
2999.33	0.662
3008.36	0.651
3017.38	0.629
3026.41	0.618
3035.43	0.592
3044.45	0.569
3053.48	0.562
3062.5	0.559
3071.53	0.558
3080.55	0.546
3089.57	0.521
3098.6	0.499
3107.62	0.463
3116.65	0.437
3125.67	0.4
3134.7	0.38
3143.72	0.35
3152.74	0.344
3161.77	0.344
3170.79	0.348
3179.82	0.357
3188.84	0.365
3197.86	0.37
3206.89	0.391
3215.91	0.408
3224.94	0.422
3233.96	0.437
3242.98	0.44
3252.01	0.408
3261.03	0.375
3270.06	0.367
3279.08	0.372
3288.1	0.384
3297.13	0.405
3306.15	0.419
3315.18	0.396
3324.2	0.308
3333.22	0.329
3342.25	0.456
3351.27	0.568
3360.3	0.603
3369.32	0.626
3378.35	0.633
3387.37	0.629
3396.39	0.617
3405.42	0.484
3414.44	0.253
3423.47	0.181
3432.49	0.457
3441.51	0.646
3450.54	0.722
3459.56	0.747
3468.59	0.768
3477.61	0.774
3486.63	0.782
3495.66	0.791
3504.68	0.801
3513.71	0.808
3522.73	0.818
3531.75	0.826
3540.78	0.837
3549.8	0.84
3558.83	0.843
3567.85	0.846
3576.87	0.852
3585.9	0.854
3594.92	0.86
3603.95	0.869
3612.97	0.872
3622	0.875
3631.02	0.878
3640.04	0.878
3649.07	0.879
3658.09	0.879
3667.12	0.879
3676.14	0.878
3685.16	0.878
3694.19	0.876
3703.21	0.874
3712.24	0.868
3721.26	0.865
3730.28	0.863
3739.31	0.861
3748.33	0.861
3757.36	0.865
3766.38	0.867
3775.4	0.867
3784.43	0.862
3793.45	0.86
3802.48	0.859
3811.5	0.857
3820.52	0.857
3829.55	0.858
3838.57	0.858
3847.6	0.856
3856.62	0.853
3865.65	0.854
3874.67	0.855
3883.69	0.855
3892.72	0.855
3901.74	0.854
3910.77	0.854
3919.79	0.853
3928.81	0.852
3937.84	0.849
3946.86	0.846
3955.89	0.843
3964.91	0.841
3973.93	0.84
3982.96	0.839
3991.98	0.841
4001.01	0.841
4010.03	0.841
