Infrared Spectrum: BENTYL ANALOG
Formula: C18 H36 Cl N O2
State: SOLID (KCl DISC) VS KCl
Class: COBLENTZ III
Instrument: PERKIN-ELMER 21 (GRATING)
Instrument parameters: FILTER AT ABOUT 10 MICRONS
Sampling: TRANSMISSION
Resolution: 2
1/CM	TRANSMITTANCE
4000	0.8728
3991	0.8738
3982	0.8746
3973	0.8756
3964	0.8765
3955	0.8774
3946	0.8783
3937	0.8793
3928	0.8801
3919	0.8811
3910	0.882
3901	0.883
3892	0.8839
3883	0.8846
3874	0.8852
3865	0.8858
3856	0.8864
3847	0.887
3838	0.8875
3829	0.8883
3820	0.8889
3811	0.8895
3802	0.8902
3793	0.8906
3784	0.8911
3775	0.8914
3766	0.8918
3757	0.8923
3748	0.8927
3739	0.8931
3730	0.8935
3721	0.8939
3712	0.8944
3703	0.8948
3694	0.8949
3685	0.8951
3676	0.8953
3667	0.8954
3658	0.8956
3649	0.8956
3640	0.8956
3631	0.8956
3622	0.8951
3613	0.8941
3604	0.8928
3595	0.8906
3586	0.8881
3577	0.884
3568	0.8785
3559	0.8728
3550	0.8671
3541	0.8615
3532	0.8561
3523	0.8509
3514	0.8458
3505	0.8406
3496	0.8354
3487	0.8301
3478	0.8247
3469	0.8192
3460	0.8138
3451	0.808
3442	0.8012
3433	0.7949
3424	0.7898
3415	0.7854
3406	0.7822
3397	0.7803
3388	0.7797
3379	0.7807
3370	0.7821
3361	0.7858
3352	0.7897
3343	0.7938
3334	0.7989
3325	0.804
3316	0.8092
3307	0.8145
3298	0.8196
3289	0.8239
3280	0.828
3271	0.8321
3262	0.8363
3253	0.8398
3244	0.843
3235	0.8463
3226	0.8495
3217	0.8521
3208	0.8548
3199	0.8575
3190	0.8601
3181	0.8627
3172	0.8654
3163	0.8681
3154	0.8703
3145	0.8723
3136	0.8742
3127	0.8762
3118	0.8778
3109	0.8786
3100	0.8793
3091	0.8795
3082	0.8791
3073	0.8786
3064	0.8782
3055	0.8762
3046	0.8741
3037	0.8708
3028	0.867
3019	0.8601
3010	0.8473
3001	0.8271
2992	0.7828
2983	0.7335
2974	0.6539
2965	0.5738
2956	0.4933
2947	0.4123
2938	0.3308
2929	0.2966
2920	0.2958
2911	0.3128
2902	0.365
2893	0.4191
2884	0.4733
2875	0.525
2866	0.5341
2857	0.5367
2848	0.5376
2839	0.5953
2830	0.6575
2821	0.72
2812	0.7691
2803	0.7857
2794	0.7926
2785	0.7936
2776	0.7942
2767	0.7937
2758	0.7925
2749	0.789
2740	0.7845
2731	0.7799
2722	0.7792
2713	0.781
2704	0.783
2695	0.7838
2686	0.7839
2677	0.7801
2668	0.746
2659	0.7291
2650	0.7162
2641	0.7068
2632	0.693
2623	0.6737
2614	0.633
2605	0.5846
2596	0.5627
2587	0.487
2578	0.3989
2569	0.3809
2560	0.3896
2551	0.4253
2542	0.4612
2533	0.4967
2524	0.5168
2515	0.53
2506	0.5367
2497	0.5172
2488	0.4619
2479	0.406
2470	0.3518
2461	0.3552
2452	0.4131
2443	0.4725
2434	0.532
2425	0.5768
2416	0.6179
2407	0.6614
2398	0.6919
2389	0.721
2380	0.7469
2371	0.7611
2362	0.7647
2353	0.7678
2344	0.7711
2335	0.7808
2326	0.7953
2317	0.8117
2308	0.8306
2299	0.8395
2290	0.8484
2281	0.8555
2272	0.8623
2263	0.8691
2254	0.8757
2245	0.8821
2236	0.8884
2227	0.8949
2218	0.9007
2209	0.9059
2200	0.911
2191	0.9156
2182	0.9201
2173	0.9228
2164	0.9253
2155	0.9274
2146	0.9284
2137	0.9295
2128	0.9307
2119	0.9316
2110	0.9324
2101	0.9331
2092	0.9339
2083	0.9347
2074	0.9354
2065	0.9361
2056	0.9368
2047	0.9375
2038	0.9382
2029	0.9389
2020	0.9396
2011	0.9404
2002	0.9411
1993	0.9418
1984	0.9425
1975	0.9433
1966	0.9441
1957	0.9449
1948	0.9458
1939	0.9467
1930	0.9477
1921	0.9486
1912	0.9496
1903	0.9505
1894	0.951
1885	0.9515
1876	0.9518
1867	0.9524
1858	0.9528
1849	0.9534
1840	0.9539
1831	0.9543
1822	0.9547
1813	0.9544
1804	0.9537
1795	0.951
1786	0.9483
1777	0.945
1768	0.9395
1759	0.9266
1750	0.8788
1741	0.5767
1732	0.1946
1723	0.4385
1714	0.7801
1705	0.8262
1696	0.8635
1687	0.8732
1678	0.8871
1669	0.8961
1660	0.8993
1651	0.9011
1642	0.9047
1633	0.911
1624	0.9125
1615	0.9134
1606	0.9175
1597	0.9248
1588	0.9294
1579	0.9333
1570	0.9327
1561	0.9308
1552	0.9315
1543	0.9301
1534	0.928
1525	0.9254
1516	0.9195
1507	0.9093
1498	0.8977
1489	0.8201
1480	0.7482
1471	0.5514
1462	0.5508
1453	0.5447
1444	0.6585
1435	0.7411
1426	0.863
1417	0.8745
1408	0.7965
1399	0.6786
1390	0.7844
1381	0.7249
1372	0.7264
1363	0.7575
1354	0.8274
1345	0.8377
1336	0.8411
1327	0.7311
1318	0.7776
1309	0.8537
1300	0.8182
1291	0.7405
1282	0.8454
1273	0.8501
1264	0.8653
1255	0.8638
1246	0.8434
1237	0.8202
1228	0.7675
1219	0.7978
1210	0.6534
1201	0.3687
1192	0.318
1183	0.6269
1174	0.6974
1165	0.556
1156	0.4667
1147	0.7489
1138	0.4715
1129	0.5532
1120	0.7271
1111	0.819
1102	0.852
1093	0.8171
1084	0.7794
1075	0.8101
1066	0.8191
1057	0.8548
1048	0.7724
1039	0.7396
1030	0.7339
1021	0.6316
1012	0.6778
1003	0.8355
994	0.8421
985	0.819
976	0.8406
967	0.7964
958	0.8283
949	0.8767
940	0.8857
931	0.8707
922	0.8892
913	0.9228
904	0.9042
895	0.8728
886	0.9217
877	0.9364
868	0.9437
859	0.9356
850	0.886
841	0.9145
832	0.9366
823	0.8746
814	0.9239
805	0.8901
796	0.9241
787	0.9375
778	0.9478
769	0.9218
760	0.9413
751	0.9404
742	0.9359
733	0.9483
724	0.9527
715	0.9507
706	0.9482
697	0.9453
688	0.9395
679	0.9349
670	0.9364
