Infrared Spectrum: DISULFIDE,BIS(4-AMINOPHENYL)-,DIHYDROCHLORIDE
Formula: C12 H14 Cl2 N2 S2
State: SOLID (KBr DISC, 0.8% WT.)
Class: COBLENTZ III
Instrument: PERKIN-ELMER 157
Sampling: TRANSMISSION
Resolution: 2
Origin: BRITISH PETROLEUM CO. LTD., ENGLAND
1/CM	TRANSMITTANCE
667	0.8553
676	0.8506
685	0.825
694	0.7913
703	0.8091
712	0.8487
721	0.8424
730	0.8273
739	0.8129
748	0.8054
757	0.787
766	0.7726
775	0.741
784	0.6925
793	0.5838
802	0.3207
811	0.0162
820	0.1856
829	0.4895
838	0.7
847	0.7188
856	0.7252
865	0.8015
874	0.802
883	0.8025
892	0.8
901	0.7981
910	0.796
919	0.7943
928	0.7797
937	0.6823
946	0.7646
955	0.773
964	0.7467
973	0.7328
982	0.7412
991	0.7174
1000	0.6744
1009	0.4985
1018	0.3097
1027	0.6998
1036	0.6599
1045	0.5983
1054	0.5283
1063	0.5095
1072	0.467
1081	0.2696
1090	0.4168
1099	0.3613
1108	0.25
1117	0.1149
1126	0.3806
1135	0.4789
1144	0.537
1153	0.572
1162	0.5794
1171	0.5108
1180	0.4685
1189	0.5456
1198	0.4638
1207	0.232
1216	0.5229
1225	0.6012
1234	0.5991
1243	0.5884
1252	0.5693
1261	0.5575
1270	0.5438
1279	0.4785
1288	0.506
1297	0.4202
1306	0.2831
1315	0.2923
1324	0.5426
1333	0.5597
1342	0.5583
1351	0.5562
1360	0.5434
1369	0.5339
1378	0.4868
1387	0.4518
1396	0.3885
1405	0.232
1414	0.2636
1423	0.3618
1432	0.3269
1441	0.2928
1450	0.2459
1459	0.164
1468	0.0952
1477	0.0388
1486	0.0231
1495	0.0346
1504	0.0702
1513	0.084
1522	0.13
1531	0.1354
1540	0.1298
1549	0.1063
1558	0.0755
1567	0.0675
1576	0.127
1585	0.2157
1594	0.1833
1603	0.1529
1612	0.0866
1621	0.1606
1630	0.3079
1639	0.3953
1648	0.506
1657	0.5344
1666	0.5679
1675	0.5785
1684	0.573
1693	0.5715
1702	0.5696
1711	0.5703
1720	0.5674
1729	0.5577
1738	0.544
1747	0.5206
1756	0.5165
1765	0.5068
1774	0.4931
1783	0.4824
1792	0.4708
1801	0.4565
1810	0.4488
1819	0.4386
1828	0.428
1837	0.417
1846	0.4116
1855	0.4015
1864	0.3801
1873	0.3644
1882	0.3464
1891	0.3269
1900	0.2904
1909	0.2869
1918	0.2901
1927	0.2933
1936	0.3
1945	0.3099
1954	0.3196
1963	0.3338
1972	0.3506
1981	0.3672
1990	0.3863
1999	0.3891
2008	0.406
2017	0.411
2026	0.4139
2035	0.4155
2044	0.416
2053	0.4166
2062	0.4157
2071	0.4141
2080	0.411
2089	0.4017
2098	0.3889
2107	0.3801
2116	0.376
2125	0.3709
2134	0.3619
2143	0.3514
2152	0.3417
2161	0.3327
2170	0.3248
2179	0.3194
2188	0.3139
2197	0.3077
2206	0.3022
2215	0.2971
2224	0.2934
2233	0.2899
2242	0.2861
2251	0.2815
2260	0.2762
2269	0.2695
2278	0.2601
2287	0.2506
2296	0.2419
2305	0.2337
2314	0.2257
2323	0.2177
2332	0.2092
2341	0.2005
2350	0.1923
2359	0.1839
2368	0.1728
2377	0.1581
2386	0.1497
2395	0.1374
2404	0.1243
2413	0.1131
2422	0.1024
2431	0.0922
2440	0.0823
2449	0.0731
2458	0.0631
2467	0.051
2476	0.041
2485	0.0368
2494	0.0361
2503	0.0325
2512	0.0231
2521	0.0141
2530	0.0121
2539	0.0117
2548	0.0118
2557	0.0119
2566	0.012
2575	0.0122
2584	0.0122
2593	0.0122
2602	0.0122
2611	0.0122
2620	0.0121
2629	0.012
2638	0.012
2647	0.0119
2656	0.0117
2665	0.0115
2674	0.0112
2683	0.011
2692	0.0107
2701	0.0104
2710	0.01
2719	0.0097
2728	0.0094
2737	0.0091
2746	0.0088
2755	0.0086
2764	0.0088
2773	0.009
2782	0.0092
2791	0.0094
2800	0.0098
2809	0.0103
2818	0.0107
2827	0.0112
2836	0.012
2845	0.013
2854	0.0156
2863	0.0193
2872	0.0238
2881	0.0266
2890	0.027
2899	0.0273
2908	0.0275
2917	0.0276
2926	0.0279
2935	0.0282
2944	0.0283
2953	0.0286
2962	0.0287
2971	0.0292
2980	0.0298
2989	0.0305
2998	0.0313
3007	0.032
3016	0.033
3025	0.0343
3034	0.0366
3043	0.0405
3052	0.0448
3061	0.0491
3070	0.0539
3079	0.0615
3088	0.0686
3097	0.0849
3106	0.0948
3115	0.1016
3124	0.1095
3133	0.1195
3142	0.1334
3151	0.1478
3160	0.1621
3169	0.1797
3178	0.1973
3187	0.2043
3196	0.2094
3205	0.2119
3214	0.2128
3223	0.2131
3232	0.2129
3241	0.2124
3250	0.211
3259	0.2092
3268	0.2067
3277	0.2043
3286	0.2019
3295	0.1994
3304	0.1971
3313	0.1948
3322	0.1927
3331	0.1909
3340	0.1878
3349	0.1828
3358	0.1765
3367	0.1698
3376	0.1636
3385	0.1593
3394	0.1575
3403	0.1562
3412	0.1558
3421	0.1558
3430	0.1556
3439	0.1565
3448	0.1579
3457	0.1605
3466	0.1644
3475	0.1684
3484	0.1725
3493	0.1763
3502	0.1905
3511	0.2093
3520	0.2222
3529	0.23
3538	0.2372
3547	0.2442
3556	0.2498
3565	0.2532
3574	0.259
3583	0.2886
3592	0.3186
3601	0.3315
3610	0.3499
3619	0.3598
3628	0.3622
3637	0.3637
3646	0.3647
3655	0.3656
3664	0.3661
3673	0.3667
3682	0.3672
3691	0.3674
3700	0.3675
3709	0.3674
3718	0.3667
3727	0.3646
3736	0.3616
3745	0.3586
3754	0.3554
3763	0.3524
3772	0.3495
3781	0.3471
3790	0.3448
3799	0.3426
3808	0.3403
3817	0.3378
3826	0.3352
3835	0.3322
3844	0.3296
3853	0.3274
3862	0.3252
3871	0.3233
3880	0.3216
3889	0.3201
3898	0.3184
3907	0.3169
3916	0.3148
3925	0.3129
3934	0.3116
3943	0.3103
3952	0.309
3961	0.3078
3970	0.3066
3979	0.3055
3988	0.3044
3997	0.3033
