Infrared Spectrum: ACETIC ACID, NITRILOTRI-, DISODIUM SALT
Formula: C6 H7 N Na2 O6
State: SOLID (OIL MULL, CsBr PLATES)
Class: COBLENTZ III
Instrument: PERKIN-ELMER 521 (GRATING)
Instrument parameters: FILTERS AT 3150, 2500, 2000, 1150, 700, 410. GRATING CHANGES: 2000, 630 CM^-^1
Sampling: TRANSMISSION
Resolution: 2
Origin: STANDARD OIL OF OHIO
1/CM	TRANSMITTANCE
253.93	0.873
263.604	0.875
273.277	0.877
282.951	0.878
292.624	0.898
302.298	0.904
311.971	0.904
321.645	0.889
331.318	0.83
340.992	0.704
350.665	0.565
360.339	0.642
370.012	0.813
379.686	0.831
389.359	0.877
399.033	0.907
408.706	0.907
418.38	0.909
428.053	0.91
437.727	0.909
447.401	0.904
457.074	0.897
466.748	0.883
476.421	0.85
486.095	0.742
495.768	0.691
505.442	0.781
515.115	0.533
524.789	0.326
534.462	0.781
544.136	0.857
553.809	0.871
563.483	0.88
573.156	0.884
582.83	0.865
592.503	0.85
602.177	0.856
611.85	0.718
621.524	0.784
631.197	0.878
640.871	0.88
650.545	0.88
660.218	0.877
669.892	0.865
679.565	0.826
689.239	0.807
698.912	0.706
708.586	0.4249
718.259	0.601
727.933	0.738
737.606	0.749
747.28	0.731
756.953	0.804
766.627	0.822
776.3	0.834
785.974	0.842
795.647	0.842
805.321	0.838
814.994	0.832
824.668	0.827
834.342	0.82
844.015	0.809
853.689	0.801
863.362	0.766
873.036	0.771
882.709	0.707
892.383	0.49
902.056	0.204
911.73	0.627
921.403	0.612
931.077	0.6809
940.75	0.762
950.424	0.736
960.097	0.525
969.771	0.633
979.444	0.761
989.118	0.771
998.791	0.763
1008.46	0.709
1018.14	0.76
1027.81	0.6379
1037.49	0.724
1047.16	0.746
1056.83	0.742
1066.51	0.734
1076.18	0.707
1085.85	0.72
1095.53	0.713
1105.2	0.704
1114.87	0.697
1124.55	0.685
1134.22	0.671
1143.89	0.653
1153.57	0.639
1163.24	0.633
1172.91	0.624
1182.59	0.596
1192.26	0.555
1201.94	0.5
1211.61	0.534
1221.28	0.553
1230.96	0.539
1240.63	0.45
1250.3	0.524
1259.98	0.537
1269.65	0.534
1279.32	0.514
1289	0.48
1298.67	0.28
1308.34	0.3781
1318.02	0.461
1327.69	0.404
1337.36	0.289
1347.04	0.15
1356.71	0.128
1366.39	0.209
1376.06	0.204
1385.73	0.114
1395.41	0.191
1405.08	0.219
1414.75	0.326
1424.43	0.425
1434.1	0.362
1443.77	0.328
1453.45	0.26
1463.12	0.262
1472.79	0.468
1482.47	0.565
1492.14	0.621
1501.81	0.621
1511.49	0.614
1521.16	0.624
1530.84	0.615
1540.51	0.601
1550.18	0.575
1559.86	0.553
1569.53	0.513
1579.2	0.465
1588.88	0.375
1598.55	0.287
1608.22	0.219
1617.9	0.142
1627.57	0.072
1637.24	0.1301
1646.92	0.269
1656.59	0.2249
1666.26	0.08
1675.94	0.109
1685.61	0.315
1695.29	0.421
1704.96	0.46
1714.63	0.472
1724.31	0.475
1733.98	0.469
1743.65	0.531
1753.33	0.612
1763	0.659
1772.67	0.687
1782.35	0.7
1792.02	0.706
1801.69	0.712
1811.37	0.713
1821.04	0.714
1830.71	0.722
1840.39	0.726
1850.06	0.728
1859.74	0.726
1869.41	0.731
1879.08	0.733
1888.76	0.738
1898.43	0.743
1908.1	0.745
1917.78	0.748
1927.45	0.748
1937.12	0.75
1946.8	0.754
1956.47	0.75
1966.14	0.754
1975.82	0.754
1985.49	0.755
1995.16	0.757
2004.84	0.757
2014.51	0.758
2024.19	0.7585
2033.86	0.761
2043.53	0.761
2053.21	0.762
2062.88	0.762
2072.55	0.762
2082.23	0.762
2091.9	0.762
2101.57	0.762
2111.25	0.762
2120.92	0.761
2130.59	0.76
2140.27	0.759
2149.94	0.757
2159.61	0.757
2169.29	0.757
2178.96	0.756
2188.64	0.754
2198.31	0.753
2207.98	0.751
2217.66	0.7494
2227.33	0.7473
2237	0.744
2246.68	0.7437
2256.35	0.7413
2266.02	0.7337
2275.7	0.7267
2285.37	0.7283
2295.04	0.7323
2304.72	0.73
2314.39	0.7257
2324.06	0.722
2333.74	0.722
2343.41	0.722
2353.09	0.7207
2362.76	0.7157
2372.43	0.713
2382.11	0.71
2391.78	0.709
2401.45	0.709
2411.13	0.709
2420.8	0.709
2430.47	0.715
2440.15	0.7176
2449.82	0.716
2459.49	0.7148
2469.17	0.714
2478.84	0.714
2488.51	0.713
2498.19	0.7088
2507.86	0.7
2517.53	0.6958
2527.21	0.6918
2536.88	0.6867
2546.56	0.68
2556.23	0.6749
2565.9	0.674
2575.58	0.6711
2585.25	0.6667
2594.92	0.6569
2604.6	0.659
2614.27	0.6588
2623.94	0.6539
2633.62	0.6499
2643.29	0.65
2652.96	0.6478
2662.64	0.642
2672.31	0.64
2681.98	0.64
2691.66	0.639
2701.33	0.6359
2711.01	0.626
2720.68	0.624
2730.35	0.631
2740.03	0.636
2749.7	0.632
2759.37	0.6239
2769.05	0.607
2778.72	0.5979
2788.39	0.572
2798.07	0.551
2807.74	0.5181
2817.41	0.4741
2827.09	0.3896
2836.76	0.2514
2846.43	0.0939
2856.11	0.1007
2865.78	0.128
2875.46	0.1649
2885.13	0.1463
2894.8	0.1075
2904.48	0.0754
2914.15	0.0494
2923.82	0.0428
2933.5	0.0625
2943.17	0.0675
2952.84	0.0666
2962.52	0.1204
2972.19	0.2347
2981.86	0.3423
2991.54	0.3791
3001.21	0.3026
3010.88	0.3577
3020.56	0.4499
3030.23	0.4667
3039.91	0.473
3049.58	0.4663
3059.25	0.4392
3068.93	0.4083
3078.6	0.3628
3088.27	0.381
3097.95	0.4661
3107.62	0.5349
3117.29	0.5768
3126.97	0.587
3136.64	0.5996
3146.31	0.6056
3155.99	0.6115
3165.66	0.616
3175.33	0.6188
3185.01	0.62
3194.68	0.621
3204.36	0.6247
3214.03	0.631
3223.7	0.632
3233.38	0.632
3243.05	0.632
3252.72	0.632
3262.4	0.632
3272.07	0.632
3281.74	0.632
3291.42	0.632
3301.09	0.632
3310.76	0.632
3320.44	0.631
3330.11	0.63
3339.78	0.628
3349.46	0.626
3359.13	0.625
3368.81	0.625
3378.48	0.625
3388.15	0.624
3397.83	0.622
3407.5	0.622
3417.17	0.622
3426.85	0.622
3436.52	0.625
3446.19	0.627
3455.87	0.63
3465.54	0.632
3475.21	0.634
3484.89	0.6366
3494.56	0.6396
3504.23	0.643
3513.91	0.643
3523.58	0.644
3533.26	0.6495
3542.93	0.6545
3552.6	0.656
3562.28	0.657
3571.95	0.6605
3581.62	0.664
3591.3	0.6665
3600.97	0.6685
3610.64	0.6725
3620.32	0.6785
3629.99	0.681
3639.66	0.684
3649.34	0.685
3659.01	0.685
3668.68	0.6909
3678.36	0.6906
3688.03	0.692
3697.71	0.69
3707.38	0.69
3717.05	0.6914
3726.73	0.6954
3736.4	0.698
3746.07	0.6938
3755.75	0.686
3765.42	0.684
3775.09	0.6822
3784.77	0.68
3794.44	0.68
3804.11	0.68
3813.79	0.68
3823.46	0.681
3833.13	0.681
3842.81	0.681
3852.48	0.681
3862.16	0.68
3871.83	0.6787
3881.5	0.6747
3891.18	0.674
3900.85	0.673
3910.52	0.673
