Infrared Spectrum: MONOSODIUM GLUTAMATE, MONOHYDRATE
Formula: C5 H8 O4 N Na  * H2 0
State: SOLID (SPLIT MULL, FLUOROLUBE FOR 3800-1300 AND NUJOL FOR 1300-270 CM ^-^1)
Class: COBLENTZ III
Instrument: PERKIN-ELMER 180
Sampling: TRANSMISSION
Path length: (CsI PLATES)
Resolution: 4
Origin: STANDARD OIL OF OHIO
1/CM	TRANSMITTANCE
270.388	0.55
280.523	0.547
290.658	0.54
300.793	0.5471
310.929	0.6861
321.064	0.748
331.199	0.7259
341.334	0.6121
351.469	0.4581
361.604	0.5328
371.739	0.459
381.874	0.3694
392.01	0.6486
402.145	0.7473
412.28	0.7515
422.415	0.7261
432.55	0.6928
442.685	0.7442
452.82	0.7623
462.956	0.7456
473.091	0.6919
483.226	0.6247
493.361	0.5873
503.496	0.5413
513.631	0.6045
523.766	0.4345
533.902	0.322
544.037	0.4966
554.172	0.53
564.307	0.494
574.442	0.4307
584.577	0.3666
594.712	0.354
604.847	0.3513
614.983	0.2906
625.118	0.2816
635.253	0.3571
645.388	0.2809
655.523	0.3361
665.658	0.4503
675.793	0.4478
685.929	0.449
696.064	0.4807
706.199	0.508
716.334	0.4983
726.469	0.582
736.604	0.5724
746.739	0.6215
756.875	0.678
767.01	0.6685
777.145	0.6622
787.28	0.527
797.415	0.5873
807.55	0.5196
817.685	0.7067
827.82	0.755
837.956	0.751
848.091	0.7188
858.226	0.7233
868.361	0.7415
878.496	0.7428
888.631	0.756
898.766	0.7502
908.902	0.7308
919.037	0.6298
929.172	0.656
939.307	0.422
949.442	0.719
959.577	0.726
969.712	0.7302
979.848	0.738
989.983	0.7112
1000.12	0.6463
1010.25	0.7081
1020.39	0.6884
1030.52	0.675
1040.66	0.66
1050.79	0.5917
1060.93	0.6282
1071.06	0.368
1081.2	0.5594
1091.33	0.3698
1101.47	0.5573
1111.6	0.4165
1121.74	0.4572
1131.87	0.4737
1142.01	0.5115
1152.14	0.5473
1162.28	0.5806
1172.42	0.606
1182.55	0.5516
1192.69	0.5597
1202.82	0.587
1212.96	0.5817
1223.09	0.557
1233.23	0.565
1243.36	0.545
1253.5	0.5119
1263.63	0.4719
1273.77	0.3986
1283.9	0.3428
1294.04	0.2335
1304.17	0.2511
1314.31	0.4478
1324.44	0.4191
1334.58	0.283
1344.71	0.3357
1354.85	0.3982
1364.98	0.3937
1375.12	0.2968
1385.25	0.1833
1395.39	0.1621
1405.52	0.28
1415.66	0.3391
1425.79	0.3801
1435.93	0.454
1446.06	0.3108
1456.2	0.3126
1466.33	0.4785
1476.47	0.4327
1486.6	0.3566
1496.74	0.2705
1506.87	0.158
1517.01	0.1714
1527.14	0.1673
1537.28	0.16
1547.42	0.1676
1557.55	0.1808
1567.69	0.167
1577.82	0.1856
1587.96	0.235
1598.09	0.1554
1608.23	0.1371
1618.36	0.226
1628.5	0.2187
1638.63	0.3058
1648.77	0.4885
1658.9	0.6229
1669.04	0.653
1679.17	0.4677
1689.31	0.4891
1699.44	0.6918
1709.58	0.8095
1719.71	0.8631
1729.85	0.89
1739.98	0.903
1750.12	0.9199
1760.25	0.9268
1770.39	0.9317
1780.52	0.935
1790.66	0.9398
1800.79	0.944
1810.93	0.945
1821.06	0.945
1831.2	0.942
1841.33	0.94
1851.47	0.937
1861.6	0.9329
1871.74	0.93
1881.87	0.929
1892.01	0.927
1902.14	0.927
1912.28	0.923
1922.42	0.9193
1932.55	0.9127
1942.69	0.91
1952.82	0.907
1962.96	0.903
1973.09	0.8977
1983.23	0.893
1993.36	0.8828
2003.5	0.8689
2013.63	0.8628
2023.77	0.8507
2033.9	0.841
2044.04	0.837
2054.17	0.841
2064.31	0.851
2074.44	0.8561
2084.58	0.8579
2094.71	0.8539
2104.85	0.849
2114.98	0.8459
2125.12	0.839
2135.25	0.837
2145.39	0.8339
2155.52	0.8257
2165.66	0.815
2175.79	0.8068
2185.93	0.8
2196.06	0.798
2206.2	0.797
2216.33	0.7829
2226.47	0.7647
2236.6	0.7496
2246.74	0.7429
2256.87	0.7359
2267.01	0.7309
2277.14	0.726
2287.28	0.7239
2297.42	0.7169
2307.55	0.7159
2317.69	0.714
2327.82	0.714
2337.96	0.714
2348.09	0.714
2358.23	0.712
2368.36	0.711
2378.5	0.709
2388.63	0.707
2398.77	0.7069
2408.9	0.7019
2419.04	0.699
2429.17	0.6949
2439.31	0.6849
2449.44	0.675
2459.58	0.672
2469.71	0.6699
2479.85	0.662
2489.98	0.6519
2500.12	0.6447
2510.25	0.6297
2520.39	0.6189
2530.52	0.618
2540.66	0.6179
2550.79	0.6077
2560.93	0.5959
2571.06	0.5909
2581.2	0.5839
2591.33	0.5687
2601.47	0.557
2611.6	0.557
2621.74	0.5571
2631.87	0.564
2642.01	0.567
2652.15	0.567
2662.28	0.569
2672.42	0.569
2682.55	0.5569
2692.69	0.5478
2702.82	0.5399
2712.96	0.5369
2723.09	0.527
2733.23	0.521
2743.36	0.52
2753.5	0.52
2763.63	0.52
2773.77	0.511
2783.9	0.5009
2794.04	0.4887
2804.17	0.4757
2814.31	0.467
2824.44	0.4569
2834.58	0.4387
2844.71	0.42
2854.85	0.42
2864.98	0.422
2875.12	0.4219
2885.25	0.4119
2895.39	0.3997
2905.52	0.3807
2915.66	0.353
2925.79	0.347
2935.93	0.3509
2946.06	0.3439
2956.2	0.3441
2966.33	0.3581
2976.47	0.3851
2986.6	0.4033
2996.74	0.415
3006.87	0.4069
3017.01	0.3929
3027.15	0.3879
3037.28	0.385
3047.42	0.385
3057.55	0.383
3067.69	0.3809
3077.82	0.3749
3087.96	0.371
3098.09	0.373
3108.23	0.3781
3118.36	0.3983
3128.5	0.4424
3138.63	0.4981
3148.77	0.5216
3158.9	0.5521
3169.04	0.557
3179.17	0.555
3189.31	0.5499
3199.44	0.5417
3209.58	0.5208
3219.71	0.4875
3229.85	0.4584
3239.98	0.4228
3250.12	0.413
3260.25	0.4203
3270.39	0.4405
3280.52	0.4835
3290.66	0.5205
3300.79	0.5401
3310.93	0.5419
3321.06	0.5317
3331.2	0.5148
3341.33	0.4827
3351.47	0.4709
3361.6	0.469
3371.74	0.462
3381.87	0.4464
3392.01	0.3955
3402.15	0.3832
3412.28	0.418
3422.42	0.4983
3432.55	0.5594
3442.69	0.6183
3452.82	0.662
3462.96	0.6853
3473.09	0.7173
3483.23	0.7502
3493.36	0.7772
3503.5	0.7972
3513.63	0.8173
3523.77	0.8371
3533.9	0.8532
3544.04	0.8681
3554.17	0.8803
3564.31	0.8931
3574.44	0.8981
3584.58	0.9031
3594.71	0.9081
3604.85	0.912
3614.98	0.913
3625.12	0.915
3635.25	0.9149
3645.39	0.913
3655.52	0.912
3665.66	0.912
3675.79	0.9078
3685.93	0.903
3696.06	0.9
3706.2	0.898
3716.33	0.8929
3726.47	0.888
3736.6	0.886
3746.74	0.881
3756.87	0.8749
3767.01	0.871
3777.15	0.869
3787.28	0.868
3797.42	0.868
3807.55	0.864
3817.69	0.861
3827.82	0.859
3837.96	0.854
3848.09	0.849
3858.23	0.846
3868.36	0.842
3878.5	0.839
3888.63	0.834
