Infrared Spectrum: Glyceryl tri-18-acetoxystearate
Formula: C63 H116 O12
State: SOLUTION (10% CCl4 FOR 2.7-7.5, 10% CS2 FOR 7.5-26 MICRON) VS SOLVENT
Class: COBLENTZ III
Instrument: DOW KBr FOREPRISM-GRATING
Instrument parameters: BLAZED AT 3.5, 12.0, 20.0 MICRON AND CHANGED AT 5.0, 7.5, 14.9 MICRON
Sampling: TRANSMISSION
Path length: 0.011 CM, 0.011 CM
Resolution: 2
Origin: DOW CHEMICAL COMPANY
1/CM	TRANSMITTANCE
3794	0.8681
3785	0.868
3776	0.8678
3767	0.8678
3758	0.868
3749	0.8683
3740	0.8687
3731	0.869
3722	0.8693
3713	0.8695
3704	0.8698
3695	0.8694
3686	0.8691
3677	0.8687
3668	0.8684
3659	0.868
3650	0.8677
3641	0.8675
3632	0.8677
3623	0.8651
3614	0.862
3605	0.8615
3596	0.8614
3587	0.8616
3578	0.8621
3569	0.8658
3560	0.8705
3551	0.8731
3542	0.8727
3533	0.8723
3524	0.8721
3515	0.8721
3506	0.872
3497	0.8716
3488	0.8714
3479	0.8715
3470	0.8701
3461	0.8649
3452	0.8599
3443	0.8578
3434	0.8577
3425	0.8592
3416	0.863
3407	0.8704
3398	0.8767
3389	0.8809
3380	0.8831
3371	0.8851
3362	0.8856
3353	0.8859
3344	0.8864
3335	0.8865
3326	0.8865
3317	0.8865
3308	0.8864
3299	0.8859
3290	0.8855
3281	0.8851
3272	0.885
3263	0.8848
3254	0.8847
3245	0.8847
3236	0.8847
3227	0.8847
3218	0.8845
3209	0.8842
3200	0.8843
3191	0.8842
3182	0.8835
3173	0.883
3164	0.8828
3155	0.8825
3146	0.8821
3137	0.8816
3128	0.8803
3119	0.8788
3110	0.877
3101	0.8752
3092	0.8732
3083	0.8698
3074	0.8671
3065	0.8601
3056	0.8541
3047	0.8465
3038	0.8346
3029	0.8213
3020	0.8042
3011	0.7891
3002	0.7762
2993	0.7431
2984	0.6454
2975	0.4055
2966	0.26
2957	0.1232
2948	0.0699
2939	0.0309
2930	0.0131
2921	0.0101
2912	0.0142
2903	0.0427
2894	0.1363
2885	0.2466
2876	0.3529
2867	0.2265
2858	0.0697
2849	0.0389
2840	0.1834
2831	0.5089
2822	0.6496
2813	0.6935
2804	0.726
2795	0.7543
2786	0.7791
2777	0.8004
2768	0.8143
2759	0.8232
2750	0.8268
2741	0.8271
2732	0.8268
2723	0.827
2714	0.8285
2705	0.8328
2696	0.8362
2687	0.833
2678	0.8305
2669	0.8292
2660	0.8324
2651	0.8356
2642	0.8391
2633	0.8425
2624	0.8459
2615	0.849
2606	0.8521
2597	0.8553
2588	0.8581
2579	0.8606
2570	0.8632
2561	0.8657
2552	0.8671
2543	0.8683
2534	0.8695
2525	0.8705
2516	0.871
2507	0.8713
2498	0.8717
2489	0.872
2480	0.8725
2471	0.8733
2462	0.8744
2453	0.8755
2444	0.8768
2435	0.878
2426	0.8789
2417	0.8793
2408	0.8793
2399	0.8778
2390	0.8763
2381	0.8763
2372	0.8768
2363	0.8777
2354	0.8785
2345	0.8786
2336	0.8787
2327	0.8786
2318	0.8755
2309	0.8714
2300	0.8712
2291	0.8715
2282	0.8721
2273	0.8725
2264	0.8737
2255	0.8749
2246	0.8759
2237	0.8768
2228	0.878
2219	0.8792
2210	0.88
2201	0.8797
2192	0.8796
2183	0.8807
2174	0.8845
2165	0.8802
2156	0.8802
2147	0.8806
2138	0.8812
2129	0.8817
2120	0.8821
2111	0.882
2102	0.8811
2093	0.8804
2084	0.8796
2075	0.8789
2066	0.8781
2057	0.8774
2048	0.8766
2039	0.8759
2030	0.8751
2021	0.8744
2012	0.8737
2003	0.8739
1994	0.8741
1985	0.8741
1976	0.8746
1967	0.8752
1958	0.8756
1949	0.8754
1940	0.8752
1931	0.8748
1922	0.8743
1913	0.8737
1904	0.8721
1895	0.8706
1886	0.8685
1877	0.8663
1868	0.8652
1859	0.864
1850	0.8618
1841	0.8578
1832	0.8538
1823	0.8482
1814	0.8402
1805	0.8301
1796	0.8133
1787	0.7983
1778	0.7746
1769	0.7192
1760	0.4616
1751	0.1758
1742	0.0166
1733	0.0038
1724	0.0068
1715	0.1922
1706	0.4855
1697	0.6023
1688	0.6881
1679	0.7525
1670	0.7806
1661	0.8012
1652	0.809
1643	0.8205
1634	0.8309
1625	0.8396
1616	0.8471
1607	0.8525
1598	0.8561
1589	0.8578
1580	0.8587
1571	0.8583
1562	0.8584
1553	0.8606
1544	0.8612
1535	0.8578
1526	0.8518
1517	0.8452
1508	0.8359
1499	0.8217
1490	0.805
1481	0.7728
1472	0.6588
1463	0.3081
1454	0.3746
1445	0.4748
1436	0.4958
1427	0.5871
1418	0.58
1409	0.6736
1400	0.6762
1391	0.6382
1382	0.3598
1373	0.2673
1364	0.3309
1355	0.4374
1346	0.5417
1337	0.5799
1328	0.5993
1319	0.6014
1310	0.5825
1301	0.5649
1292	0.5426
1283	0.5002
1274	0.4129
1265	0.3466
1256	0.217
1247	0.0743
1238	0.0238
1229	0.0872
1220	0.2375
1211	0.329
1202	0.3764
1193	0.3812
1184	0.3608
1175	0.3044
1166	0.2527
1157	0.2191
1148	0.2235
1139	0.2597
1130	0.3897
1121	0.4275
1112	0.3671
1103	0.3745
1094	0.3943
1085	0.4472
1076	0.5144
1067	0.5173
1058	0.5147
1049	0.5194
1040	0.5149
1031	0.4922
1022	0.3684
1013	0.3206
1004	0.5242
995	0.6294
986	0.6733
977	0.6933
968	0.6818
959	0.6223
950	0.6354
941	0.6882
932	0.7156
923	0.7425
914	0.7564
905	0.7615
896	0.7775
887	0.7808
878	0.7887
869	0.7898
860	0.7915
851	0.7958
842	0.799
833	0.8045
824	0.8282
815	0.8383
806	0.8437
797	0.8494
788	0.8462
779	0.8448
770	0.8425
761	0.8383
752	0.8312
743	0.8189
734	0.7978
725	0.7222
716	0.7341
707	0.8033
698	0.8407
689	0.8528
680	0.8575
671	0.8583
662	0.8561
653	0.8431
644	0.8193
635	0.805
626	0.7978
617	0.7898
608	0.7214
599	0.7268
590	0.7614
581	0.7843
572	0.7978
563	0.8078
554	0.8135
545	0.8172
536	0.8138
527	0.8054
518	0.806
509	0.8064
500	0.8058
491	0.803
482	0.7968
473	0.7899
464	0.7819
455	0.7788
446	0.7787
437	0.7791
428	0.779
419	0.7794
410	0.7803
401	0.7808
392	0.7815
