Infrared Spectrum: Cyclohexane, d12
Formula: C6 D12
State: LIQUID (NEAT)
Class: COBLENTZ III
Instrument: BECKMAN IR-9 (GRATING)
Instrument parameters: ORDER CHANGES: 670, 1200, 2000 CM^-^1
Sampling: TRANSMISSION
Path length: 0.0117 CM
Resolution: 2
Origin: DOW CHEMICAL COMPANY
1/CM	TRANSMITTANCE
3794	0.8702
3785	0.8705
3776	0.8708
3767	0.8711
3758	0.8713
3749	0.8713
3740	0.8713
3731	0.8712
3722	0.8708
3713	0.8702
3704	0.8697
3695	0.8692
3686	0.8689
3677	0.8686
3668	0.8683
3659	0.868
3650	0.8678
3641	0.8675
3632	0.8674
3623	0.8667
3614	0.8661
3605	0.8654
3596	0.8647
3587	0.8639
3578	0.8631
3569	0.8621
3560	0.8614
3551	0.8607
3542	0.8602
3533	0.8596
3524	0.859
3515	0.8581
3506	0.8573
3497	0.8566
3488	0.856
3479	0.8551
3470	0.8539
3461	0.8471
3452	0.8394
3443	0.8413
3434	0.8414
3425	0.8375
3416	0.824
3407	0.821
3398	0.8273
3389	0.8327
3380	0.8328
3371	0.832
3362	0.8268
3353	0.8157
3344	0.8153
3335	0.813
3326	0.8039
3317	0.7301
3308	0.7178
3299	0.7456
3290	0.76
3281	0.7254
3272	0.7064
3263	0.7033
3254	0.6794
3245	0.6641
3236	0.6435
3227	0.6733
3218	0.6811
3209	0.6642
3200	0.6856
3191	0.6868
3182	0.6276
3173	0.6112
3164	0.6165
3155	0.5784
3146	0.4981
3137	0.5333
3128	0.6611
3119	0.6818
3110	0.6582
3101	0.7069
3092	0.7457
3083	0.7241
3074	0.7684
3065	0.8012
3056	0.8138
3047	0.82
3038	0.8168
3029	0.8057
3020	0.7875
3011	0.7755
3002	0.8053
2993	0.8071
2984	0.7994
2975	0.7737
2966	0.6942
2957	0.6404
2948	0.6785
2939	0.6404
2930	0.5212
2921	0.4018
2912	0.2995
2903	0.4118
2894	0.5053
2885	0.381
2876	0.431
2867	0.6104
2858	0.7031
2849	0.7481
2840	0.7731
2831	0.7949
2822	0.8003
2813	0.8192
2804	0.8273
2795	0.8057
2786	0.8055
2777	0.8303
2768	0.8386
2759	0.8404
2750	0.8341
2741	0.8351
2732	0.8268
2723	0.8149
2714	0.8388
2705	0.8518
2696	0.8592
2687	0.8618
2678	0.8637
2669	0.8645
2660	0.8648
2651	0.8656
2642	0.8651
2633	0.8631
2624	0.8605
2615	0.8558
2606	0.8439
2597	0.7821
2588	0.7661
2579	0.784
2570	0.7804
2561	0.7772
2552	0.8015
2543	0.8108
2534	0.8225
2525	0.8385
2516	0.8367
2507	0.8223
2498	0.8111
2489	0.8142
2480	0.8206
2471	0.8184
2462	0.8266
2453	0.835
2444	0.8374
2435	0.8338
2426	0.8253
2417	0.8082
2408	0.7596
2399	0.497
2390	0.5801
2381	0.6522
2372	0.5084
2363	0.3852
2354	0.6068
2345	0.7822
2336	0.7972
2327	0.7981
2318	0.7885
2309	0.7645
2300	0.7093
2291	0.5712
2282	0.2931
2273	0.1529
2264	0.3566
2255	0.4258
2246	0.3148
2237	0.1444
2228	0.0079
2219	0.0079
2210	0.0079
2201	0.0079
2192	0.0079
2183	0.0079
2174	0.0079
2165	0.008
2156	0.008
2147	0.008
2138	0.008
2129	0.008
2120	0.008
2111	0.008
2102	0.008
2093	0.008
2084	0.008
2075	0.008
2066	0.0519
2057	0.1434
2048	0.3212
2039	0.5583
2030	0.6365
2021	0.6957
2012	0.6995
2003	0.4565
1994	0.3822
1985	0.6871
1976	0.7958
1967	0.8054
1958	0.7437
1949	0.6324
1940	0.716
1931	0.7346
1922	0.7515
1913	0.7726
1904	0.7611
1895	0.6328
1886	0.7598
1877	0.7641
1868	0.7884
1859	0.7588
1850	0.8405
1841	0.8558
1832	0.8574
1823	0.8555
1814	0.8435
1805	0.8072
1796	0.7672
1787	0.7974
1778	0.8397
1769	0.8278
1760	0.8214
1751	0.8445
1742	0.838
1733	0.815
1724	0.8209
1715	0.8284
1706	0.7761
1697	0.8171
1688	0.8527
1679	0.8555
1670	0.8539
1661	0.8524
1652	0.8521
1643	0.836
1634	0.8174
1625	0.7706
1616	0.8186
1607	0.7882
1598	0.8523
1589	0.8296
1580	0.8018
1571	0.8517
1562	0.8561
1553	0.8438
1544	0.837
1535	0.8178
1526	0.8112
1517	0.7461
1508	0.7946
1499	0.8504
1490	0.8536
1481	0.845
1472	0.8212
1463	0.8065
1454	0.8034
1445	0.7956
1436	0.8257
1427	0.8483
1418	0.8508
1409	0.8507
1400	0.8524
1391	0.8396
1382	0.8268
1373	0.8299
1364	0.82
1355	0.7908
1346	0.8488
1337	0.8459
1328	0.8164
1319	0.8039
1310	0.7675
1301	0.7639
1292	0.8022
1283	0.8171
1274	0.8199
1265	0.8161
1256	0.8051
1247	0.8171
1238	0.8143
1229	0.7939
1220	0.7365
1211	0.7236
1202	0.738
1193	0.7192
1184	0.6544
1175	0.5181
1166	0.1679
1157	0.0954
1148	0.5922
1139	0.6548
1130	0.6279
1121	0.6023
1112	0.5655
1103	0.4487
1094	0.1284
1085	0.0082
1076	0.2592
1067	0.242
1058	0.6023
1049	0.6839
1040	0.6868
1031	0.6691
1022	0.6453
1013	0.566
1004	0.4235
995	0.1215
986	0.0335
977	0.4912
968	0.6303
959	0.6864
950	0.6632
941	0.5909
932	0.5272
923	0.2739
914	0.0086
905	0.5855
896	0.7184
887	0.7651
878	0.7793
869	0.8223
860	0.8356
851	0.835
842	0.8225
833	0.8011
824	0.7904
815	0.7753
806	0.7433
797	0.6915
788	0.7104
779	0.7505
770	0.7488
761	0.7525
752	0.7506
743	0.7264
734	0.6624
725	0.3145
716	0.3327
707	0.678
698	0.4436
689	0.1395
680	0.164
671	0.7507
662	0.8076
653	0.8234
644	0.8321
635	0.8384
626	0.8406
617	0.8405
608	0.8513
599	0.8561
590	0.8489
581	0.8596
572	0.8602
563	0.8616
554	0.8627
545	0.863
536	0.8635
527	0.8637
518	0.8592
509	0.8521
500	0.8432
491	0.8327
482	0.8184
473	0.7982
464	0.7765
455	0.7489
446	0.7139
437	0.668
428	0.6131
419	0.5373
410	0.4648
