Infrared Spectrum: CHLOROFORM, DEUTERO-
Formula: C Cl3 D
State: LIQUID (NEAT)
Class: COBLENTZ III
Instrument: DOW KBr FOREPRISM-GRATING
Instrument parameters: BLAZED AT 3.5, 12.0, 20.0 MICRON AND CHANGED AT 5.0, 7.5, 14.9 MICRON
Sampling: TRANSMISSION
Path length: 0.0099 CM
Resolution: 2
Origin: DOW CHEMICAL COMPANY
1/CM	TRANSMITTANCE
730	0.0001
738	0.0009
746	0.0018
754	0.0027
762	0.0048
770	0.0102
778	0.0168
786	0.0261
794	0.0406
802	0.058
810	0.0787
818	0.1007
826	0.1241
834	0.1564
842	0.1753
850	0.1768
858	0.1686
866	0.146
874	0.0775
882	0.0181
890	0.0028
898	0.0004
906	0.0003
914	0.002
922	0.027
930	0.1229
938	0.2255
946	0.3656
954	0.4569
962	0.5231
970	0.5657
978	0.5814
986	0.5882
994	0.6434
1002	0.6782
1010	0.6934
1018	0.7489
1026	0.7815
1034	0.7908
1042	0.7956
1050	0.7971
1058	0.7956
1066	0.7886
1074	0.7471
1082	0.6664
1090	0.5826
1098	0.634
1106	0.7261
1114	0.8117
1122	0.8418
1130	0.8515
1138	0.8525
1146	0.8448
1154	0.8249
1162	0.7881
1170	0.8028
1178	0.8538
1186	0.8647
1194	0.8646
1202	0.8603
1210	0.7465
1218	0.8101
1226	0.8766
1234	0.8742
1242	0.8263
1250	0.8396
1258	0.8741
1266	0.8741
1274	0.8744
1282	0.8709
1290	0.8578
1298	0.8723
1306	0.889
1314	0.8924
1322	0.8925
1330	0.8858
1338	0.8437
1346	0.8188
1354	0.8068
1362	0.7732
1370	0.6907
1378	0.5675
1386	0.5988
1394	0.6737
1402	0.7996
1410	0.834
1418	0.8318
1426	0.8206
1434	0.8014
1442	0.7654
1450	0.7168
1458	0.6399
1466	0.5756
1474	0.5844
1482	0.6401
1490	0.7375
1498	0.7935
1506	0.8296
1514	0.8468
1522	0.8545
1530	0.8578
1538	0.8591
1546	0.8494
1554	0.8312
1562	0.8154
1570	0.8374
1578	0.8638
1586	0.8612
1594	0.8515
1602	0.833
1610	0.8504
1618	0.8518
1626	0.8432
1634	0.8297
1642	0.8148
1650	0.8246
1658	0.8416
1666	0.8587
1674	0.8698
1682	0.8724
1690	0.8712
1698	0.8668
1706	0.8658
1714	0.8615
1722	0.8611
1730	0.8613
1738	0.8616
1746	0.8607
1754	0.8584
1762	0.8547
1770	0.8488
1778	0.8346
1786	0.7774
1794	0.7014
1802	0.7651
1810	0.7626
1818	0.7578
1826	0.7843
1834	0.8164
1842	0.8409
1850	0.857
1858	0.8644
1866	0.8687
1874	0.8689
1882	0.8699
1890	0.8712
1898	0.8717
1906	0.8746
1914	0.8789
1922	0.8828
1930	0.8847
1938	0.8847
1946	0.8891
1954	0.8915
1962	0.8882
1970	0.8838
1978	0.8824
1986	0.881
1994	0.8809
2002	0.8768
2010	0.8742
2018	0.8727
2026	0.8723
2034	0.8718
2042	0.8706
2050	0.8687
2058	0.8674
2066	0.8662
2074	0.865
2082	0.8637
2090	0.8624
2098	0.8611
2106	0.8598
2114	0.8585
2122	0.8571
2130	0.8552
2138	0.8527
2146	0.8502
2154	0.8475
2162	0.8441
2170	0.8403
2178	0.8362
2186	0.832
2194	0.8281
2202	0.8231
2210	0.8155
2218	0.8048
2226	0.7941
2234	0.7765
2242	0.7451
2250	0.5184
2258	0.1174
2266	0.4856
2274	0.6208
2282	0.6714
2290	0.7087
2298	0.7303
2306	0.7501
2314	0.7706
2322	0.7918
2330	0.8068
2338	0.8151
2346	0.8214
2354	0.8283
2362	0.8315
2370	0.8331
2378	0.834
2386	0.8346
2394	0.8359
2402	0.838
2410	0.8417
2418	0.8449
2426	0.845
2434	0.845
2442	0.8451
2450	0.8452
2458	0.8452
2466	0.8453
2474	0.8453
2482	0.8454
2490	0.8454
2498	0.8455
2506	0.8455
2514	0.8456
2522	0.8456
2530	0.8457
2538	0.8457
2546	0.8458
2554	0.8459
2562	0.8459
2570	0.846
2578	0.846
2586	0.8461
2594	0.8461
2602	0.8462
2610	0.8462
2618	0.8463
2626	0.8463
2634	0.8464
2642	0.8464
2650	0.8465
2658	0.8466
2666	0.8466
2674	0.8467
2682	0.8467
2690	0.8468
2698	0.8468
2706	0.8468
2714	0.8468
2722	0.847
2730	0.847
2738	0.8471
2746	0.8471
2754	0.8471
2762	0.8473
2770	0.8473
2778	0.8474
2786	0.8474
2794	0.8475
2802	0.8475
2810	0.8475
2818	0.8471
2826	0.8466
2834	0.8454
2842	0.8432
2850	0.8417
2858	0.8398
2866	0.8374
2874	0.8292
2882	0.8158
2890	0.796
2898	0.795
2906	0.8069
2914	0.8167
2922	0.8168
2930	0.8168
2938	0.814
2946	0.8051
2954	0.7988
2962	0.7984
2970	0.7934
2978	0.7781
2986	0.7778
2994	0.7911
3002	0.8124
3010	0.8282
3018	0.8292
3026	0.832
3034	0.8378
3042	0.8404
3050	0.8437
3058	0.8456
3066	0.8475
3074	0.8481
3082	0.8483
3090	0.8478
3098	0.8467
3106	0.8446
3114	0.8377
3122	0.8253
3130	0.8055
3138	0.7617
3146	0.7175
3154	0.7125
3162	0.7557
3170	0.8295
3178	0.8462
3186	0.8506
3194	0.853
3202	0.8545
3210	0.8562
3218	0.8578
3226	0.8593
3234	0.8604
3242	0.8615
3250	0.8627
3258	0.8637
3266	0.8643
3274	0.8651
3282	0.8658
3290	0.8666
3298	0.8673
3306	0.868
3314	0.8688
3322	0.8695
3330	0.8701
3338	0.8708
3346	0.8714
3354	0.8721
3362	0.8724
3370	0.8725
3378	0.8725
3386	0.8727
3394	0.8728
3402	0.8728
3410	0.8728
3418	0.873
3426	0.8731
3434	0.8732
3442	0.8733
3450	0.8737
3458	0.8742
3466	0.8747
3474	0.8749
3482	0.8752
3490	0.8754
3498	0.8757
3506	0.8762
3514	0.8768
3522	0.8774
3530	0.878
3538	0.8786
3546	0.8793
3554	0.8801
3562	0.8804
3570	0.8797
3578	0.8765
3586	0.8715
3594	0.8715
3602	0.8737
3610	0.8788
3618	0.8808
3626	0.8818
3634	0.8818
3642	0.881
3650	0.8789
3658	0.8741
3666	0.866
3674	0.8592
3682	0.8581
3690	0.8671
3698	0.8786
3706	0.8842
3714	0.8891
3722	0.8921
3730	0.8928
3738	0.8921
3746	0.8902
3754	0.8885
3762	0.8874
3770	0.887
3778	0.8882
3786	0.8894
3794	0.8906
