Infrared Spectrum: Acetanilide, 2,6-diethyl-4-tert-butyl-
Formula: C16 H25 N O
State: SOLID (NUJOL MULL)
Class: COBLENTZ III
Instrument: BECKMAN IR-4 (HYBRID PRISM-GRATING)
Instrument parameters: NaCl PRISM
Sampling: TRANSMISSION
Resolution: 2
Origin: MONSANTO (J. FREEMAN)
1/CM	TRANSMITTANCE
625.195	0.8962
633.934	0.934
642.674	0.9528
651.413	0.9242
660.153	0.9151
668.892	0.9377
677.631	0.89
686.371	0.7937
695.11	0.6848
703.85	0.5781
712.589	0.5895
721.328	0.6396
730.068	0.6468
738.807	0.7346
747.547	0.9011
756.286	0.931
765.025	0.9249
773.765	0.8335
782.504	0.9158
791.244	0.956
799.983	0.978
808.722	0.9893
817.462	0.9886
826.201	0.9872
834.941	0.9795
843.68	0.9688
852.419	0.9733
861.159	0.9508
869.898	0.6643
878.638	0.5682
887.377	0.7393
896.116	0.7773
904.856	0.7837
913.595	0.8563
922.335	0.8389
931.074	0.8845
939.813	0.931
948.553	0.9284
957.292	0.8688
966.032	0.7686
974.771	0.8386
983.51	0.8598
992.25	0.8919
1000.99	0.8343
1009.73	0.5653
1018.47	0.8272
1027.21	0.8654
1035.95	0.7796
1044.69	0.8579
1053.43	0.8651
1062.16	0.7921
1070.9	0.868
1079.64	0.8498
1088.38	0.9074
1097.12	0.9335
1105.86	0.9396
1114.6	0.9307
1123.34	0.8886
1132.08	0.9006
1140.82	0.9151
1149.56	0.9046
1158.3	0.8942
1167.04	0.884
1175.78	0.8712
1184.52	0.8525
1193.26	0.7917
1202	0.4506
1210.73	0.6254
1219.47	0.799
1228.21	0.696
1236.95	0.5656
1245.69	0.6617
1254.43	0.6861
1263.17	0.564
1271.91	0.4603
1280.65	0.2426
1289.39	0.2993
1298.13	0.208
1306.87	0.4947
1315.61	0.5762
1324.35	0.5691
1333.09	0.5804
1341.83	0.5952
1350.57	0.5873
1359.3	0.3825
1368.04	0.1108
1376.78	0.2053
1385.52	0.3441
1394.26	0.3639
1403	0.4766
1411.74	0.4938
1420.48	0.4219
1429.22	0.4029
1437.96	0.3059
1446.7	0.1431
1455.44	0.0839
1464.18	0.0654
1472.92	0.1663
1481.66	0.1505
1490.4	0.2992
1499.13	0.3352
1507.87	0.2171
1516.61	0.0509
1525.35	0.0274
1534.09	0.0879
1542.83	0.3324
1551.57	0.576
1560.31	0.6471
1569.05	0.6952
1577.79	0.6975
1586.53	0.6589
1595.27	0.5502
1604.01	0.3509
1612.75	0.4917
1621.49	0.5442
1630.23	0.4159
1638.97	0.0148
1647.7	0.0111
1656.44	0.034
1665.18	0.182
1673.92	0.4698
1682.66	0.5538
1691.4	0.7587
1700.14	0.8386
1708.88	0.8738
1717.62	0.9058
1726.36	0.9185
1735.1	0.9195
1743.84	0.9138
1752.58	0.8981
1761.32	0.8844
1770.06	0.898
1778.8	0.9087
1787.54	0.9147
1796.27	0.9201
1805.01	0.9253
1813.75	0.9303
1822.49	0.9344
1831.23	0.9384
1839.97	0.9426
1848.71	0.9467
1857.45	0.9502
1866.19	0.9516
1874.93	0.9516
1883.67	0.9513
1892.41	0.9509
1901.15	0.9503
1909.89	0.9498
1918.63	0.9492
1927.37	0.9483
1936.11	0.9473
1944.84	0.9463
1953.58	0.9454
1962.32	0.9442
1971.06	0.943
1979.8	0.9417
1988.54	0.9406
1997.28	0.9393
2006.02	0.9383
2014.76	0.9372
2023.5	0.9361
2032.24	0.9352
2040.98	0.9341
2049.72	0.9336
2058.46	0.9335
2067.2	0.9334
2075.94	0.9333
2084.67	0.9331
2093.41	0.9324
2102.15	0.9317
2110.89	0.9311
2119.63	0.9303
2128.37	0.9288
2137.11	0.9272
2145.85	0.9257
2154.59	0.9245
2163.33	0.9237
2172.07	0.9229
2180.81	0.9223
2189.55	0.922
2198.29	0.9217
2207.03	0.9212
2215.77	0.9206
2224.51	0.9199
2233.24	0.9189
2241.98	0.9179
2250.72	0.9169
2259.46	0.916
2268.2	0.9149
2276.94	0.9138
2285.68	0.9127
2294.42	0.9116
2303.16	0.9109
2311.9	0.9104
2320.64	0.9099
2329.38	0.9095
2338.12	0.9099
2346.86	0.9105
2355.6	0.9109
2364.34	0.9102
2373.07	0.9087
2381.81	0.9048
2390.55	0.8993
2399.29	0.8947
2408.03	0.8922
2416.77	0.891
2425.51	0.89
2434.25	0.8891
2442.99	0.888
2451.73	0.8869
2460.47	0.8857
2469.21	0.8846
2477.95	0.8831
2486.69	0.8817
2495.43	0.8804
2504.17	0.8788
2512.91	0.8772
2521.64	0.8754
2530.38	0.8737
2539.12	0.872
2547.86	0.8698
2556.6	0.8674
2565.34	0.865
2574.08	0.8625
2582.82	0.8595
2591.56	0.856
2600.3	0.8527
2609.04	0.8491
2617.78	0.8455
2626.52	0.8419
2635.26	0.8374
2644	0.8325
2652.74	0.8276
2661.48	0.8221
2670.21	0.8164
2678.95	0.8108
2687.69	0.8069
2696.43	0.803
2705.17	0.801
2713.91	0.7997
2722.65	0.7984
2731.39	0.7976
2740.13	0.796
2748.87	0.7884
2757.61	0.7791
2766.35	0.7693
2775.09	0.763
2783.83	0.7606
2792.57	0.7579
2801.31	0.7544
2810.05	0.7272
2818.78	0.7058
2827.52	0.6791
2836.26	0.6418
2845	0.0324
2853.74	0.0274
2862.48	0.024
2871.22	0.0204
2879.96	0.0121
2888.7	0.0019
2897.44	0.0007
2906.18	0.0006
2914.92	0.0006
2923.66	0.0006
2932.4	0.0006
2941.14	0.0159
2949.88	0.0495
2958.61	0.0827
2967.35	0.1159
2976.09	0.1488
2984.83	0.1815
2993.57	0.2141
3002.31	0.2464
3011.05	0.2786
3019.79	0.3105
3028.53	0.3424
3037.27	0.3739
3046.01	0.4054
3054.75	0.4366
3063.49	0.4677
3072.23	0.4987
3080.97	0.5293
3089.71	0.5599
3098.45	0.5903
3107.18	0.6205
3115.92	0.632
3124.66	0.6312
3133.4	0.6132
3142.14	0.5594
3150.88	0.5055
3159.62	0.4518
3168.36	0.3985
3177.1	0.3455
3185.84	0.2928
3194.58	0.2404
3203.32	0.1883
3212.06	0.1364
3220.8	0.0848
3229.54	0.0549
3238.28	0.0709
3247.01	0.1216
3255.75	0.1725
3264.49	0.2231
3273.23	0.2734
3281.97	0.3235
3290.71	0.3734
3299.45	0.423
3308.19	0.4722
3316.93	0.5213
3325.67	0.5701
3334.41	0.6186
3343.15	0.6669
3351.89	0.7149
3360.63	0.7555
3369.37	0.7593
3378.11	0.762
3386.85	0.7639
3395.58	0.7659
3404.32	0.7677
3413.06	0.7694
3421.8	0.7709
3430.54	0.7723
3439.28	0.7732
3448.02	0.774
3456.76	0.7748
3465.5	0.7756
3474.24	0.7761
3482.98	0.7767
3491.72	0.7771
3500.46	0.7776
3509.2	0.778
3517.94	0.7784
3526.68	0.7787
3535.42	0.7791
3544.15	0.7794
3552.89	0.7797
3561.63	0.7794
3570.37	0.7791
3579.11	0.779
3587.85	0.7787
3596.59	0.7785
3605.33	0.7783
3614.07	0.778
3622.81	0.7778
3631.55	0.7774
3640.29	0.7769
3649.03	0.7763
3657.77	0.7758
3666.51	0.7751
3675.25	0.7745
3683.99	0.7736
3692.72	0.7728
3701.46	0.7718
3710.2	0.771
3718.94	0.77
3727.68	0.7688
3736.42	0.7676
3745.16	0.7664
3753.9	0.7652
3762.64	0.764
3771.38	0.7625
3780.12	0.7613
3788.86	0.7599
3797.6	0.7586
3806.34	0.7572
3815.08	0.7558
3823.82	0.7545
3832.55	0.7531
3841.29	0.7517
3850.03	0.7502
3858.77	0.7488
3867.51	0.7474
3876.25	0.746
3884.99	0.7445
3893.73	0.7431
3902.47	0
