Infrared Spectrum: Phosphoric acid, cresyl diphenyl ester
Formula: C19 H17 O4 P
State: SOLUTION (10% CCl4 FOR 2.7-7.5, 10% CS2 FOR 7.5-26 MICRON) VS SOLVENT
Class: COBLENTZ III
Instrument: DOW KBr FOREPRISM-GRATING
Instrument parameters: BLAZED AT 3.5, 12.0, 20.0 MICRON AND CHANGED AT 5.0, 7.5, 14.9 MICRON
Sampling: TRANSMISSION
Path length: 0.011 CM, 0.011 CM
Resolution: 2
Origin: DOW CHEMICAL COMPANY
1/CM	TRANSMITTANCE
389	0.6669
398	0.6667
407	0.6655
416	0.6625
425	0.6556
434	0.6433
443	0.6316
452	0.6233
461	0.6088
470	0.582
479	0.5298
488	0.4329
497	0.3392
506	0.3155
515	0.318
524	0.3774
533	0.493
542	0.5832
551	0.5822
560	0.5453
569	0.4972
578	0.4517
587	0.4978
596	0.616
605	0.6515
614	0.5895
623	0.7451
632	0.7438
641	0.7525
650	0.7418
659	0.7522
668	0.6953
677	0.4843
686	0.2176
695	0.6257
704	0.6925
713	0.7014
722	0.7135
731	0.6739
740	0.5605
749	0.0932
758	0.2257
767	0.1538
776	0.1331
785	0.4205
794	0.6869
803	0.6339
812	0.4759
821	0.433
830	0.6775
839	0.6881
848	0.6415
857	0.5848
866	0.5537
875	0.5869
884	0.6143
893	0.4683
902	0.4794
911	0.5462
920	0.4559
929	0.2216
938	0.0574
947	0.0041
956	0.0001
965	0
974	0.0163
983	0.1229
992	0.1833
1001	0.1811
1010	0.131
1019	0.1196
1028	0.2384
1037	0.4565
1046	0.5912
1055	0.6182
1064	0.4652
1073	0.6434
1082	0.6418
1091	0.6176
1100	0.534
1109	0.3894
1118	0.4602
1127	0.5392
1136	0.2126
1145	0.1545
1154	0.1044
1163	0.122
1172	0.2273
1181	0.0044
1190	0.0102
1199	0.1073
1208	0.1164
1217	0.1683
1226	0.2154
1235	0.2216
1244	0.2604
1253	0.308
1262	0.3562
1271	0.3762
1280	0.2725
1289	0.1399
1298	0.1173
1307	0.0964
1316	0.3068
1325	0.5226
1334	0.648
1343	0.7443
1352	0.7411
1361	0.7361
1370	0.7344
1379	0.7324
1388	0.7564
1397	0.7528
1406	0.7475
1415	0.7526
1424	0.7122
1433	0.6605
1442	0.6067
1451	0.5545
1460	0.5353
1469	0.4232
1478	0.3049
1487	0.0078
1496	0.1934
1505	0.222
1514	0.6008
1523	0.7353
1532	0.7568
1541	0.7512
1550	0.7404
1559	0.7111
1568	0.5918
1577	0.3992
1586	0.1281
1595	0.2568
1604	0.4712
1613	0.7099
1622	0.7735
1631	0.7888
1640	0.7891
1649	0.7894
1658	0.7911
1667	0.7919
1676	0.7924
1685	0.7919
1694	0.7896
1703	0.7825
1712	0.773
1721	0.7789
1730	0.7939
1739	0.8051
1748	0.8072
1757	0.8039
1766	0.7989
1775	0.8119
1784	0.8289
1793	0.8314
1802	0.8314
1811	0.8315
1820	0.831
1829	0.8263
1838	0.8018
1847	0.7811
1856	0.7951
1865	0.7945
1874	0.7931
1883	0.8026
1892	0.8061
1901	0.8014
1910	0.7904
1919	0.7715
1928	0.7546
1937	0.7897
1946	0.7933
1955	0.8108
1964	0.8231
1973	0.8245
1982	0.8247
1991	0.8336
2000	0.8314
2009	0.8301
2018	0.8302
2027	0.8321
2036	0.8365
2045	0.8402
2054	0.8405
2063	0.8402
2072	0.8401
2081	0.84
2090	0.8399
2099	0.8397
2108	0.8393
2117	0.8389
2126	0.8386
2135	0.8386
2144	0.8384
2153	0.8389
2162	0.8405
2171	0.8391
2180	0.8334
2189	0.8313
2198	0.8318
2207	0.8325
2216	0.8315
2225	0.8278
2234	0.824
2243	0.8203
2252	0.8167
2261	0.8139
2270	0.8111
2279	0.8088
2288	0.8069
2297	0.8061
2306	0.8055
2315	0.8074
2324	0.8107
2333	0.8086
2342	0.8058
2351	0.8087
2360	0.8084
2369	0.8069
2378	0.8064
2387	0.8068
2396	0.8085
2405	0.8112
2414	0.8144
2423	0.8178
2432	0.8216
2441	0.8256
2450	0.8289
2459	0.8299
2468	0.8298
2477	0.8292
2486	0.8285
2495	0.8277
2504	0.827
2513	0.8262
2522	0.8246
2531	0.8228
2540	0.8191
2549	0.8145
2558	0.8124
2567	0.813
2576	0.8143
2585	0.8146
2594	0.8146
2603	0.8147
2612	0.8156
2621	0.8165
2630	0.8171
2639	0.8178
2648	0.8186
2657	0.8183
2666	0.8181
2675	0.8176
2684	0.8174
2693	0.8158
2702	0.8141
2711	0.8106
2720	0.8072
2729	0.8115
2738	0.8186
2747	0.8199
2756	0.8196
2765	0.8183
2774	0.8169
2783	0.8158
2792	0.8147
2801	0.8132
2810	0.8107
2819	0.8025
2828	0.7899
2837	0.7734
2846	0.7561
2855	0.7541
2864	0.7618
2873	0.7668
2882	0.7644
2891	0.7542
2900	0.724
2909	0.6862
2918	0.7153
2927	0.7331
2936	0.7368
2945	0.7389
2954	0.7449
2963	0.7501
2972	0.7551
2981	0.7612
2990	0.7643
2999	0.7478
3008	0.7228
3017	0.6561
3026	0.6137
3035	0.6106
3044	0.6644
3053	0.6428
3062	0.6257
3071	0.7028
3080	0.7688
3089	0.7872
3098	0.8352
3107	0.85
3116	0.8575
3125	0.8627
3134	0.8649
3143	0.8656
3152	0.8656
3161	0.8658
3170	0.8657
3179	0.8644
3188	0.8568
3197	0.8675
3206	0.8543
3215	0.8682
3224	0.8656
3233	0.8613
3242	0.8559
3251	0.8504
3260	0.8454
3269	0.8396
3278	0.8313
3287	0.8194
3296	0.8053
3305	0.7906
3314	0.776
3323	0.7625
3332	0.7539
3341	0.7462
3350	0.7455
3359	0.749
3368	0.7587
3377	0.773
3386	0.7858
3395	0.8024
3404	0.8205
3413	0.8358
3422	0.8459
3431	0.8544
3440	0.8608
3449	0.8655
3458	0.869
3467	0.8714
3476	0.8739
3485	0.8753
3494	0.8768
3503	0.8781
3512	0.8802
3521	0.8828
3530	0.8806
3539	0.8793
3548	0.8786
3557	0.8777
3566	0.8747
3575	0.8667
3584	0.8604
3593	0.8694
3602	0.8755
3611	0.8742
3620	0.8721
3629	0.8699
3638	0.8695
3647	0.8704
3656	0.8713
3665	0.8732
3674	0.8748
3683	0.8746
3692	0.8744
3701	0.8742
3710	0.874
3719	0.8736
3728	0.873
3737	0.8724
3746	0.8721
3755	0.8721
3764	0.8721
3773	0.872
3782	0.872
3791	0.8718
