Infrared Spectrum: Alpha,Alpha'-BIS(2-tert-BUTYL-ANILINO)-p-XYLENE
Formula: C28 H36 N2
State: SOLID (OIL MULL)
Class: COBLENTZ III
Instrument: BECKMAN IR-4 (HYBRID PRISM-GRATING)
Instrument parameters: NaCl PRISM
Sampling: TRANSMISSION
Resolution: 2
Origin: MONSANTO (J. FREEMAN)
1/CM	TRANSMITTANCE
626	0.8054
635	0.7785
644	0.7508
653	0.7727
662	0.7856
671	0.73
680	0.8681
689	0.891
698	0.8898
707	0.878
716	0.8429
725	0.7854
734	0.7453
743	0.2801
752	0.1989
761	0.7136
770	0.849
779	0.843
788	0.8497
797	0.8667
806	0.7862
815	0.5128
824	0.8076
833	0.8771
842	0.716
851	0.8773
860	0.8754
869	0.859
878	0.7166
887	0.6565
896	0.8819
905	0.9316
914	0.9292
923	0.8484
932	0.8174
941	0.908
950	0.9227
959	0.9055
968	0.9063
977	0.8986
986	0.8903
995	0.9127
1004	0.9234
1013	0.9123
1022	0.7154
1031	0.8974
1040	0.9133
1049	0.8429
1058	0.4259
1067	0.7048
1076	0.6758
1085	0.8685
1094	0.8337
1103	0.5046
1112	0.7508
1121	0.7563
1130	0.8653
1139	0.7205
1148	0.5634
1157	0.8027
1166	0.8398
1175	0.8007
1184	0.7765
1193	0.6972
1202	0.6024
1211	0.6695
1220	0.5804
1229	0.6724
1238	0.4813
1247	0.4646
1256	0.3935
1265	0.3544
1274	0.5701
1283	0.5902
1292	0.3873
1301	0.6113
1310	0.3499
1319	0.1635
1328	0.4458
1337	0.737
1346	0.7676
1355	0.7562
1364	0.7309
1373	0.5428
1382	0.4547
1391	0.5503
1400	0.5875
1409	0.6417
1418	0.571
1427	0.3993
1436	0.3078
1445	0.2475
1454	0.0633
1463	0.1826
1472	0.2104
1481	0.1629
1490	0.3837
1499	0.415
1508	0.2218
1517	0.0746
1526	0.2304
1535	0.4141
1544	0.6212
1553	0.7537
1562	0.847
1571	0.8353
1580	0.6696
1589	0.4468
1598	0.5274
1607	0.2006
1616	0.6687
1625	0.7811
1634	0.8061
1643	0.8853
1652	0.9019
1661	0.9023
1670	0.9001
1679	0.9058
1688	0.9219
1697	0.9367
1706	0.9366
1715	0.938
1724	0.9461
1733	0.9543
1742	0.9536
1751	0.9515
1760	0.9458
1769	0.9378
1778	0.9362
1787	0.9441
1796	0.9466
1805	0.935
1814	0.9348
1823	0.9366
1832	0.9384
1841	0.9381
1850	0.9325
1859	0.9262
1868	0.9325
1877	0.9372
1886	0.926
1895	0.9054
1904	0.9184
1913	0.9342
1922	0.922
1931	0.8811
1940	0.8974
1949	0.9332
1958	0.9424
1967	0.947
1976	0.9479
1985	0.9485
1994	0.9489
2003	0.9493
2012	0.9493
2021	0.9493
2030	0.9487
2039	0.9481
2048	0.9475
2057	0.9466
2066	0.9458
2075	0.9449
2084	0.9441
2093	0.9431
2102	0.9422
2111	0.9412
2120	0.9402
2129	0.9392
2138	0.9382
2147	0.9372
2156	0.9363
2165	0.9352
2174	0.9341
2183	0.9332
2192	0.9324
2201	0.9316
2210	0.9329
2219	0.9353
2228	0.9388
2237	0.9384
2246	0.9373
2255	0.9354
2264	0.9332
2273	0.9308
2282	0.9283
2291	0.9255
2300	0.9218
2309	0.918
2318	0.9143
2327	0.9107
2336	0.907
2345	0.9038
2354	0.9008
2363	0.8976
2372	0.8949
2381	0.8935
2390	0.8957
2399	0.9018
2408	0.9073
2417	0.9091
2426	0.9103
2435	0.9102
2444	0.9102
2453	0.9103
2462	0.9088
2471	0.9063
2480	0.9028
2489	0.9009
2498	0.8995
2507	0.8923
2516	0.8863
2525	0.8822
2534	0.8794
2543	0.8767
2552	0.8738
2561	0.871
2570	0.8681
2579	0.8653
2588	0.8624
2597	0.8592
2606	0.8548
2615	0.8512
2624	0.8495
2633	0.8482
2642	0.8471
2651	0.8461
2660	0.8443
2669	0.8421
2678	0.8378
2687	0.8316
2696	0.8252
2705	0.8183
2714	0.8151
2723	0.8132
2732	0.8125
2741	0.8121
2750	0.8117
2759	0.8113
2768	0.8088
2777	0.7998
2786	0.7822
2795	0.7647
2804	0.7147
2813	0.6559
2822	0.5976
2831	0.5396
2840	0.4564
2849	0.3491
2858	0.2424
2867	0.1364
2876	0.0914
2885	0.0887
2894	0.0864
2903	0.084
2912	0.0793
2921	0.062
2930	0.042
2939	0.0245
2948	0.0135
2957	0.015
2966	0.0185
2975	0.0781
2984	0.1713
2993	0.264
3002	0.3561
3011	0.4477
3020	0.5385
3029	0.5804
3038	0.6013
3047	0.6075
3056	0.6088
3065	0.6097
3074	0.6104
3083	0.6774
3092	0.7009
3101	0.7249
3110	0.7422
3119	0.7589
3128	0.7701
3137	0.7787
3146	0.7852
3155	0.7909
3164	0.7946
3173	0.7984
3182	0.8017
3191	0.8039
3200	0.806
3209	0.8077
3218	0.809
3227	0.8102
3236	0.8111
3245	0.8115
3254	0.8117
3263	0.8117
3272	0.8111
3281	0.8103
3290	0.8096
3299	0.8088
3308	0.8073
3317	0.8058
3326	0.8043
3335	0.8028
3344	0.8007
3353	0.7984
3362	0.7962
3371	0.7939
3380	0.7911
3389	0.7879
3398	0.7841
3407	0.7769
3416	0.7617
3425	0.7428
3434	0.7031
3443	0.6356
3452	0.5811
3461	0.5781
3470	0.6035
3479	0.6333
3488	0.663
3497	0.6926
3506	0.7219
3515	0.7511
3524	0.7642
3533	0.7686
3542	0.7709
3551	0.7723
3560	0.7734
3569	0.7741
3578	0.7748
3587	0.7754
3596	0.7764
3605	0.7775
3614	0.7784
3623	0.7793
3632	0.7801
3641	0.7805
3650	0.7809
3659	0.7807
3668	0.7804
3677	0.78
3686	0.7797
3695	0.7794
3704	0.7789
3713	0.7783
3722	0.7777
3731	0.7771
3740	0.7765
3749	0.776
3758	0.7753
3767	0.7747
3776	0.774
3785	0.7732
3794	0.7725
3803	0.7717
3812	0.771
3821	0.7703
3830	0.7695
3839	0.7688
3848	0.7679
3857	0.7671
3866	0.7662
3875	0.7654
3884	0.7646
3893	0.7638
3902	0.763
3911	0.7622
3920	0.7614
3929	0.7607
3938	0.76
3947	0.7592
3956	0.7585
3965	0.7578
3974	0.7571
3983	0.756
3992	0.7548
