Infrared Spectrum: Carbamic acid, diethyldithio-, sodium salt, trihydrate
Formula: C5 H10 N S2 Na  * 3 H2 O
State: SOLID (1 mg / 300 mg KBr DISC)
Melting point: 91 C
Class: COBLENTZ III
Instrument: PERKIN-ELMER 180 (GRATING)
Instrument parameters: GRATINGS: 2000, 1000, 500, 250 CM^-^1; FILTER CHANGE: 2970, 2000, 1485, 1000, 743, 500, 372, 250, 186 CM^-^1.
Sampling: TRANSMISSION
Path length: SCALE ATTENUATION INCREASED 1.7 x
Resolution: 2
Origin: K. K. DEB-NCI FREDERICK CANCER RESEARCH CENTER
1/CM	TRANSMITTANCE
388	0.2747
397	0.3245
406	0.4966
415	0.4143
424	0.3051
433	0.3454
442	0.2867
451	0.2268
460	0.1896
469	0.1641
478	0.1729
487	0.2121
496	0.2257
505	0.2179
514	0.2191
523	0.1882
532	0.1618
541	0.1469
550	0.1383
559	0.13
568	0.1272
577	0.1526
586	0.1932
595	0.234
604	0.2784
613	0.3034
622	0.3515
631	0.3806
640	0.3805
649	0.3761
658	0.3717
667	0.3719
676	0.3826
685	0.4049
694	0.43
703	0.4277
712	0.4062
721	0.3881
730	0.3849
739	0.391
748	0.428
757	0.4946
766	0.5319
775	0.4167
784	0.6045
793	0.6995
802	0.74
811	0.745
820	0.7242
829	0.5906
838	0.3021
847	0.7509
856	0.7764
865	0.7528
874	0.7029
883	0.6414
892	0.528
901	0.3124
910	0.1143
919	0.4162
928	0.687
937	0.7086
946	0.6667
955	0.5382
964	0.4151
973	0.2709
982	0.1208
991	0.1434
1000	0.2789
1009	0.6246
1018	0.7048
1027	0.7407
1036	0.727
1045	0.6862
1054	0.495
1063	0.2022
1072	0.2706
1081	0.5494
1090	0.4588
1099	0.5902
1108	0.5578
1117	0.3866
1126	0.2153
1135	0.3277
1144	0.6027
1153	0.6519
1162	0.6408
1171	0.5681
1180	0.538
1189	0.3862
1198	0.1948
1207	0.1912
1216	0.4948
1225	0.6135
1234	0.6019
1243	0.4652
1252	0.2618
1261	0.1082
1270	0.3307
1279	0.6013
1288	0.5616
1297	0.1933
1306	0.5938
1315	0.6938
1324	0.7133
1333	0.6466
1342	0.4474
1351	0.3791
1360	0.3851
1369	0.3582
1378	0.184
1387	0.4449
1396	0.3809
1405	0.2015
1414	0.1052
1423	0.3771
1432	0.4096
1441	0.4741
1450	0.2814
1459	0.2673
1468	0.246
1477	0.1077
1486	0.3991
1495	0.5973
1504	0.7158
1513	0.7958
1522	0.8382
1531	0.8514
1540	0.8469
1549	0.8199
1558	0.7895
1567	0.8149
1576	0.8474
1585	0.8565
1594	0.8302
1603	0.7058
1612	0.535
1621	0.5654
1630	0.7125
1639	0.7428
1648	0.7174
1657	0.6332
1666	0.4665
1675	0.4523
1684	0.6501
1693	0.8233
1702	0.8682
1711	0.8946
1720	0.9094
1729	0.9199
1738	0.9243
1747	0.9178
1756	0.9291
1765	0.9247
1774	0.9354
1783	0.9444
1792	0.9471
1801	0.9424
1810	0.9281
1819	0.9165
1828	0.9267
1837	0.9355
1846	0.9425
1855	0.9447
1864	0.9403
1873	0.9344
1882	0.9235
1891	0.9101
1900	0.9113
1909	0.916
1918	0.9202
1927	0.9223
1936	0.921
1945	0.9157
1954	0.9068
1963	0.8933
1972	0.8776
1981	0.8661
1990	0.8697
1999	0.855
2008	0.8225
2017	0.7858
2026	0.7492
2035	0.7125
2044	0.6758
2053	0.6391
2062	0.6077
2071	0.5914
2080	0.6083
2089	0.6363
2098	0.6597
2107	0.6785
2116	0.7057
2125	0.7202
2134	0.7315
2143	0.7424
2152	0.751
2161	0.7573
2170	0.7597
2179	0.7613
2188	0.7701
2197	0.7811
2206	0.7934
2215	0.807
2224	0.8218
2233	0.833
2242	0.8447
2251	0.8556
2260	0.8643
2269	0.8686
2278	0.8727
2287	0.8745
2296	0.8759
2305	0.876
2314	0.877
2323	0.8781
2332	0.8775
2341	0.8756
2350	0.8739
2359	0.8719
2368	0.8699
2377	0.8667
2386	0.8631
2395	0.8595
2404	0.859
2413	0.8565
2422	0.8531
2431	0.8486
2440	0.8442
2449	0.8398
2458	0.8359
2467	0.8339
2476	0.8311
2485	0.8268
2494	0.8213
2503	0.8156
2512	0.8116
2521	0.8099
2530	0.8107
2539	0.8105
2548	0.8093
2557	0.8053
2566	0.8005
2575	0.7945
2584	0.7886
2593	0.7832
2602	0.7778
2611	0.7729
2620	0.7681
2629	0.7622
2638	0.7561
2647	0.7485
2656	0.7388
2665	0.7246
2674	0.7145
2683	0.7224
2692	0.7172
2701	0.7106
2710	0.7081
2719	0.6942
2728	0.6882
2737	0.6842
2746	0.6788
2755	0.6677
2764	0.6532
2773	0.6454
2782	0.6422
2791	0.6288
2800	0.6044
2809	0.5833
2818	0.5716
2827	0.5732
2836	0.5605
2845	0.5449
2854	0.5216
2863	0.4383
2872	0.4213
2881	0.4346
2890	0.3787
2899	0.3898
2908	0.3469
2917	0.2816
2926	0.2504
2935	0.2713
2944	0.3658
2953	0.3491
2962	0.2989
2971	0.2268
2980	0.1925
2989	0.3798
2998	0.4405
3007	0.4036
3016	0.3898
3025	0.392
3034	0.3752
3043	0.3584
3052	0.3416
3061	0.3248
3070	0.308
3079	0.2911
3088	0.2743
3097	0.2574
3106	0.242
3115	0.2252
3124	0.2036
3133	0.1863
3142	0.1725
3151	0.1577
3160	0.1457
3169	0.1384
3178	0.1333
3187	0.1284
3196	0.1254
3205	0.1222
3214	0.1192
3223	0.1172
3232	0.1152
3241	0.1131
3250	0.1119
3259	0.1109
3268	0.1096
3277	0.1082
3286	0.1072
3295	0.1062
3304	0.1058
3313	0.1055
3322	0.1052
3331	0.1049
3340	0.105
3349	0.1048
3358	0.1047
3367	0.1048
3376	0.1051
3385	0.1054
3394	0.1058
3403	0.1067
3412	0.1075
3421	0.109
3430	0.1107
3439	0.1125
3448	0.1156
3457	0.1187
3466	0.123
3475	0.1295
3484	0.1363
3493	0.1435
3502	0.1518
3511	0.163
3520	0.1786
3529	0.1951
3538	0.2183
3547	0.2472
3556	0.2741
3565	0.3197
3574	0.3653
3583	0.4375
3592	0.4964
3601	0.5373
3610	0.5726
3619	0.6114
3628	0.6578
3637	0.6885
3646	0.7163
3655	0.7433
3664	0.7697
3673	0.7872
3682	0.8009
3691	0.8106
3700	0.8169
3709	0.8229
3718	0.8268
3727	0.8305
3736	0.8335
3745	0.8363
3754	0.839
3763	0.8412
3772	0.8425
3781	0.8425
