Infrared Spectrum: PHENANTHRENE-D10
Formula: C14 D10
State: SOLID (1% IN KBr)
Class: COBLENTZ
Instrument: Not specified, most likely a prism, grating, or hybrid spectrometer.
Sampling: TRANSMISSION
Resolution: 4
Origin: CENTRE D'ETUDES NUCLEAIRES DE GRENOBLE
MICROMETERS	TRANSMITTANCE
1.996	0.085
2.03617	0.083
2.07633	0.086
2.1165	0.09
2.15666	0.095
2.19683	0.098
2.23699	0.098
2.27716	0.1
2.31732	0.103
2.35749	0.105
2.39765	0.115
2.43782	0.118
2.47798	0.123
2.51815	0.131
2.55832	0.141
2.59848	0.15
2.63865	0.155
2.67881	0.161
2.71898	0.166
2.75914	0.17
2.79931	0.171
2.83947	0.173
2.87964	0.175
2.9198	0.18
2.95997	0.188
3.00014	0.198
3.0403	0.208
3.08047	0.215
3.12063	0.223
3.1608	0.231
3.20096	0.238
3.24113	0.246
3.28129	0.25
3.32146	0.255
3.36162	0.265
3.40179	0.268
3.44195	0.26
3.48212	0.253
3.52229	0.28
3.56245	0.273
3.60262	0.31
3.64278	0.328
3.68295	0.338
3.72311	0.345
3.76328	0.351
3.80344	0.358
3.84361	0.368
3.88377	0.375
3.92394	0.38
3.9641	0.39
4.00427	0.398
4.04444	0.406
4.0846	0.411
4.12477	0.418
4.16493	0.428
4.2051	0.436
4.24526	0.443
4.28543	0.45
4.32559	0.458
4.36576	0.451
4.40592	0.398
4.44609	0.325
4.48625	0.325
4.52642	0.428
4.56659	0.451
4.60675	0.468
4.64692	0.48
4.68708	0.488
4.72725	0.495
4.76741	0.501
4.80758	0.506
4.84774	0.511
4.88791	0.518
4.92807	0.526
4.96824	0.533
5.00841	0.538
5.04857	0.543
5.08874	0.546
5.1289	0.551
5.16907	0.555
5.20923	0.558
5.2494	0.563
5.28956	0.568
5.32973	0.573
5.36989	0.578
5.41006	0.583
5.45022	0.588
5.49039	0.593
5.53056	0.595
5.57072	0.596
5.61089	0.598
5.65105	0.598
5.69122	0.598
5.73138	0.6
5.77155	0.605
5.81171	0.608
5.85188	0.608
5.89204	0.611
5.93221	0.613
5.97237	0.616
6.01254	0.615
6.05271	0.608
6.09287	0.618
6.13304	0.603
6.1732	0.596
6.21337	0.595
6.25353	0.595
6.2937	0.575
6.33386	0.538
6.37403	0.568
6.41419	0.605
6.45436	0.62
6.49452	0.615
6.53469	0.615
6.57486	0.62
6.61502	0.625
6.65519	0.638
6.69535	0.646
6.73552	0.651
6.77568	0.668
6.81585	0.68
6.85601	0.661
6.89618	0.653
6.93634	0.656
6.97651	0.666
7.01668	0.618
7.05684	0.605
7.09701	0.65
7.13717	0.655
7.17734	0.643
7.2175	0.62
7.25767	0.64
7.29783	0.655
7.338	0.658
7.37816	0.658
7.41833	0.613
7.45849	0.61
7.49866	0.653
7.53883	0.661
7.57899	0.601
7.61916	0.656
7.65932	0.711
7.69949	0.671
7.73965	0.626
7.77982	0.703
7.81998	0.716
7.86015	0.711
7.90031	0.675
7.94048	0.705
7.98064	0.715
8.02081	0.721
8.06098	0.725
8.10114	0.725
8.14131	0.728
8.18147	0.733
8.22164	0.736
8.2618	0.721
8.30197	0.706
8.34213	0.458
8.3823	0.653
8.42246	0.691
8.46263	0.7
8.5028	0.723
8.54296	0.741
8.58313	0.75
8.62329	0.741
8.66346	0.755
8.70362	0.768
8.74379	0.778
8.78395	0.78
8.82412	0.775
8.86428	0.775
8.90445	0.768
8.94461	0.758
8.98478	0.741
9.02495	0.771
9.06511	0.773
9.10528	0.781
9.14544	0.79
9.18561	0.791
9.22577	0.791
9.26594	0.796
9.3061	0.803
9.34627	0.81
9.38643	0.815
9.4266	0.816
9.46676	0.815
9.50693	0.813
9.5471	0.81
9.58726	0.811
9.62743	0.818
9.66759	0.82
9.70776	0.818
9.74792	0.815
9.78809	0.81
9.82825	0.806
9.86842	0.813
9.90858	0.835
9.94875	0.841
9.98891	0.828
10.0291	0.776
10.0692	0.808
10.1094	0.843
10.1496	0.846
10.1897	0.855
10.2299	0.838
10.2701	0.81
10.3102	0.813
10.3504	0.833
10.3906	0.85
10.4307	0.858
10.4709	0.863
10.5111	0.865
10.5512	0.863
10.5914	0.861
10.6316	0.868
10.6717	0.878
10.7119	0.881
10.7521	0.886
10.7922	0.886
10.8324	0.883
10.8726	0.881
10.9127	0.875
10.9529	0.881
10.993	0.88
11.0332	0.875
11.0734	0.873
11.1135	0.851
11.1537	0.528
11.1939	0.561
11.234	0.748
11.2742	0.821
11.3144	0.85
11.3545	0.856
11.3947	0.858
11.4349	0.87
11.475	0.873
11.5152	0.881
11.5554	0.796
11.5955	0.661
11.6357	0.786
11.6759	0.831
11.716	0.856
11.7562	0.816
11.7964	0.805
11.8365	0.801
11.8767	0.748
11.9169	0.668
11.957	0.59
11.9972	0.48
12.0374	0.45
12.0775	0.63
12.1177	0.766
12.1578	0.831
12.198	0.845
12.2382	0.848
12.2783	0.733
12.3185	0.8
12.3587	0.836
12.3988	0.863
12.439	0.875
12.4792	0.881
12.5193	0.885
12.5595	0.881
12.5997	0.888
12.6398	0.885
12.68	0.888
12.7202	0.888
12.7603	0.863
12.8005	0.826
12.8407	0.548
12.8808	0.351
12.921	0.583
12.9612	0.625
13.0013	0.705
13.0415	0.806
13.0817	0.856
13.1218	0.865
13.162	0.866
13.2021	0.873
13.2423	0.885
13.2825	0.885
13.3226	0.881
13.3628	0.873
13.403	0.8
13.4431	0.721
13.4833	0.765
13.5235	0.835
13.5636	0.875
13.6038	0.885
13.644	0.891
13.6841	0.896
13.7243	0.898
13.7645	0.9
13.8046	0.901
13.8448	0.901
13.885	0.903
13.9251	0.903
13.9653	0.906
14.0055	0.911
14.0456	0.916
14.0858	0.913
14.126	0.915
14.1661	0.92
14.2063	0.918
14.2464	0.918
14.2866	0.925
14.3268	0.925
14.3669	0.918
14.4071	0.92
14.4473	0.918
14.4874	0.908
14.5276	0.911
14.5678	0.913
14.6079	0.911
14.6481	0.893
14.6883	0.881
14.7284	0.856
14.7686	0.801
14.8088	0.783
14.8489	0.793
14.8891	0.796
14.9293	0.813
14.9694	0.825
15.0096	0.82
15.0498	0.818
15.0899	0.845
15.1301	0.87
15.1703	0.868
15.2104	0.848
15.2506	0.766
15.2907	0.576
15.3309	0.395
15.3711	0.296
15.4112	0.326
15.4514	0.471
15.4916	0.591
15.5317	0.7
15.5719	0.771
15.6121	0.805
15.6522	0.835
15.6924	0.85
15.7326	0.86
15.7727	0.868
15.8129	0.878
15.8531	0.88
15.8932	0.878
