Infrared Spectrum: DL-4-(2-CHLOROETHYL)-2-PHENYL-Delta^2-THIAZOLINE HYDROCHLORIDE
Formula: C11 H11 Cl N S  * H Cl
State: SOLID(MINERAL OIL MULL)
Melting point: 109-119 C
Class: COBLENTZ
Instrument: Not specified, most likely a prism, grating, or hybrid spectrometer.
Sampling: TRANSMISSION
Resolution: 4
Origin: ARTHUR D. LITTLE, INC.
1/CM	TRANSMITTANCE
648.556	0.841
656.898	0.843
665.241	0.801
673.583	0.671
681.925	0.566
690.267	0.878
698.61	0.893
706.952	0.858
715.294	0.721
723.636	0.433
731.979	0.909
740.321	1.002
748.663	0.972
757.005	0.822
765.348	0.572
773.69	0.563
782.032	0.927
790.374	0.96
798.717	0.854
807.059	0.742
815.401	0.878
823.743	0.962
832.086	0.974
840.428	0.98
848.77	0.984
857.112	0.966
865.455	0.951
873.797	0.994
882.139	0.972
890.481	0.952
898.824	0.93
907.166	0.837
915.508	0.788
923.851	0.931
932.193	0.923
940.535	0.89
948.877	0.823
957.22	0.699
965.562	0.688
973.904	0.781
982.246	0.732
990.589	0.84
998.931	0.86
1007.27	0.864
1015.62	0.857
1023.96	0.874
1032.3	0.903
1040.64	0.902
1048.98	0.899
1057.33	0.888
1065.67	0.868
1074.01	0.868
1082.35	0.895
1090.7	0.895
1099.04	0.892
1107.38	0.89
1115.72	0.878
1124.06	0.862
1132.41	0.851
1140.75	0.827
1149.09	0.749
1157.43	0.794
1165.78	0.85
1174.12	0.853
1182.46	0.832
1190.8	0.813
1199.15	0.809
1207.49	0.804
1215.83	0.78
1224.17	0.711
1232.51	0.661
1240.86	0.744
1249.2	0.802
1257.54	0.801
1265.88	0.781
1274.23	0.772
1282.57	0.755
1290.91	0.749
1299.25	0.735
1307.59	0.73
1315.94	0.731
1324.28	0.685
1332.62	0.665
1340.96	0.655
1349.31	0.643
1357.65	0.626
1365.99	0.504
1374.33	0.429
1382.67	0.506
1391.02	0.587
1399.36	0.77
1407.7	0.766
1416.04	0.693
1424.39	0.612
1432.73	0.539
1441.07	0.409
1449.41	0.253
1457.76	0.251
1466.1	0.372
1474.44	0.717
1482.78	0.777
1491.12	0.776
1499.47	0.766
1507.81	0.798
1516.15	0.79
1524.49	0.78
1532.84	0.755
1541.18	0.724
1549.52	0.714
1557.86	0.667
1566.2	0.633
1574.55	0.542
1582.89	0.471
1591.23	0.381
1599.57	0.718
1607.92	0.924
1616.26	0.892
1624.6	0.875
1632.94	0.854
1641.28	0.848
1649.63	0.844
1657.97	0.834
1666.31	0.816
1674.65	0.805
1683	0.787
1691.34	0.779
1699.68	0.773
1708.02	0.769
1716.37	0.759
1724.71	0.739
1733.05	0.727
1741.39	0.717
1749.73	0.709
1758.08	0.697
1766.42	0.676
1774.76	0.669
1783.1	0.653
1791.45	0.615
1799.79	0.6
1808.13	0.573
1816.47	0.551
1824.81	0.528
1833.16	0.502
1841.5	0.467
1849.84	0.448
1858.18	0.441
1866.53	0.45
1874.87	0.467
1883.21	0.513
1891.55	0.576
1899.89	0.651
1908.24	0.71
1916.58	0.765
1924.92	0.798
1933.26	0.826
1941.61	0.862
1949.95	0.9
1958.29	0.932
1966.63	0.956
1974.98	0.958
1983.32	0.944
1991.66	0.925
2000	0.893
2008.34	0.888
2016.69	0.886
2025.03	0.89
2033.37	0.899
2041.71	0.903
2050.06	0.904
2058.4	0.9
2066.74	0.895
2075.08	0.883
2083.42	0.862
2091.77	0.84
2100.11	0.83
2108.45	0.795
2116.79	0.772
2125.14	0.753
2133.48	0.748
2141.82	0.748
2150.16	0.745
2158.5	0.746
2166.85	0.749
2175.19	0.758
2183.53	0.76
2191.87	0.776
2200.22	0.791
2208.56	0.808
2216.9	0.813
2225.24	0.818
2233.59	0.82
2241.93	0.829
2250.27	0.853
2258.61	0.867
2266.95	0.89
2275.3	0.902
2283.64	0.91
2291.98	0.932
2300.32	0.948
2308.67	0.952
2317.01	0.952
2325.35	0.953
2333.69	0.955
2342.03	0.956
2350.38	0.956
2358.72	0.956
2367.06	0.955
2375.4	0.955
2383.75	0.955
2392.09	0.953
2400.43	0.952
2408.77	0.952
2417.11	0.951
2425.46	0.949
2433.8	0.928
2442.14	0.93
2450.48	0.93
2458.83	0.931
2467.17	0.93
2475.51	0.93
2483.85	0.925
2492.2	0.924
2500.54	0.924
2508.88	0.925
2517.22	0.934
2525.56	0.937
2533.91	0.939
2542.25	0.941
2550.59	0.942
2558.93	0.939
2567.28	0.934
2575.62	0.93
2583.96	0.921
2592.3	0.921
2600.64	0.928
2608.99	0.938
2617.33	0.941
2625.67	0.946
2634.01	0.945
2642.36	0.942
2650.7	0.942
2659.04	0.942
2667.38	0.941
2675.72	0.939
2684.07	0.938
2692.41	0.941
2700.75	0.942
2709.09	0.941
2717.44	0.938
2725.78	0.939
2734.12	0.942
2742.46	0.944
2750.81	0.944
2759.15	0.941
2767.49	0.935
2775.83	0.92
2784.17	0.902
2792.52	0.881
2800.86	0.848
2809.2	0.818
2817.54	0.76
2825.89	0.664
2834.23	0.409
2842.57	0.183
2850.91	0.125
2859.25	0.127
2867.6	0.141
2875.94	0.144
2884.28	0.137
2892.62	0.085
2900.97	0.057
2909.31	0.047
2917.65	0.05
2925.99	0.054
2934.33	0.067
2942.68	0.081
2951.02	0.095
2959.36	0.11
2967.7	0.141
2976.05	0.213
2984.39	0.331
2992.73	0.489
3001.07	0.528
3009.42	0.566
3017.76	0.579
3026.1	0.58
3034.44	0.598
3042.78	0.602
3051.13	0.604
3059.47	0.678
3067.81	0.844
3076.15	0.853
3084.5	0.853
3092.84	0.851
3101.18	0.85
3109.52	0.848
3117.86	0.846
3126.21	0.839
3134.55	0.836
3142.89	0.83
3151.23	0.826
3159.58	0.823
3167.92	0.822
3176.26	0.82
3184.6	0.819
3192.94	0.816
3201.29	0.816
3209.63	0.816
3217.97	0.816
3226.31	0.816
3234.66	0.812
3243	0.809
3251.34	0.809
3259.68	0.808
3268.03	0.806
3276.37	0.806
3284.71	0.804
3293.05	0.802
3301.39	0.798
3309.74	0.794
3318.08	0.791
3326.42	0.788
3334.76	0.788
3343.11	0.787
3351.45	0.783
3359.79	0.78
3368.13	0.78
3376.47	0.78
3384.82	0.779
3393.16	0.779
3401.5	0.777
3409.84	0.777
3418.19	0.779
3426.53	0.777
3434.87	0.78
3443.21	0.779
3451.55	0.777
3459.9	0.779
3468.24	0.779
3476.58	0.78
3484.92	0.78
3493.27	0.78
3501.61	0.779
3509.95	0.779
3518.29	0.777
3526.64	0.777
3534.98	0.773
3543.32	0.769
