Infrared Spectrum: SODIUM METAARSENITE
Formula: Na As O2
State: SOLID (NUJOL AND FLUOROLUBE MULLS)
Class: COBLENTZ
Instrument: Not specified, most likely a prism, grating, or hybrid spectrometer.
Sampling: TRANSMISSION
Resolution: 4
Origin: MELLON INSTITUTE
MICROMETERS	TRANSMITTANCE
2.017	0.74
2.05797	0.745
2.09894	0.754
2.1399	0.759
2.18087	0.766
2.22184	0.774
2.26281	0.778
2.30377	0.785
2.34474	0.79
2.38571	0.797
2.42668	0.8
2.46764	0.805
2.50861	0.81
2.54958	0.816
2.59055	0.819
2.63151	0.823
2.67248	0.826
2.71345	0.828
2.75442	0.823
2.79538	0.812
2.83635	0.792
2.87732	0.783
2.91829	0.783
2.95925	0.786
3.00022	0.788
3.04119	0.795
3.08216	0.8
3.12312	0.804
3.16409	0.812
3.20506	0.819
3.24603	0.824
3.28699	0.828
3.32796	0.833
3.36893	0.841
3.4099	0.853
3.45087	0.867
3.49183	0.878
3.5328	0.884
3.57377	0.891
3.61474	0.896
3.6557	0.9
3.69667	0.902
3.73764	0.905
3.77861	0.907
3.81957	0.908
3.86054	0.912
3.90151	0.912
3.94248	0.914
3.98344	0.915
4.02441	0.915
4.06538	0.917
4.10635	0.915
4.14731	0.912
4.18828	0.908
4.22925	0.903
4.27022	0.893
4.31118	0.886
4.35215	0.9
4.39312	0.903
4.43409	0.907
4.47505	0.91
4.51602	0.914
4.55699	0.915
4.59796	0.919
4.63893	0.924
4.67989	0.926
4.72086	0.927
4.76183	0.929
4.8028	0.932
4.84376	0.934
4.88473	0.934
4.9257	0.934
4.96667	0.936
5.00763	0.941
5.0486	0.943
5.08957	0.946
5.13054	0.95
5.1715	0.951
5.21247	0.95
5.25344	0.95
5.29441	0.95
5.33537	0.95
5.37634	0.948
5.41731	0.948
5.45828	0.948
5.49924	0.951
5.54021	0.955
5.58118	0.96
5.62215	0.963
5.66311	0.958
5.70408	0.957
5.74505	0.957
5.78602	0.953
5.82698	0.951
5.86795	0.948
5.90892	0.938
5.94989	0.929
5.99086	0.931
6.03182	0.938
6.07279	0.941
6.11376	0.948
6.15473	0.957
6.19569	0.967
6.23666	0.974
6.27763	0.979
6.3186	0.977
6.35956	0.972
6.40053	0.957
6.4415	0.962
6.48247	0.963
6.52343	0.957
6.5644	0.946
6.60537	0.932
6.64634	0.914
6.6873	0.86
6.72827	0.766
6.76924	0.73
6.81021	0.701
6.85117	0.685
6.89214	0.702
6.93311	0.773
6.97408	0.838
7.01504	0.883
7.05601	0.886
7.09698	0.886
7.13795	0.905
7.17891	0.914
7.21988	0.914
7.26085	0.914
7.30182	0.914
7.34279	0.912
7.38375	0.912
7.42472	0.912
7.46569	0.91
7.50666	0.91
7.54762	0.91
7.58859	0.91
7.62956	0.908
7.67053	0.908
7.71149	0.908
7.75246	0.908
7.79343	0.908
7.8344	0.908
7.87536	0.908
7.91633	0.908
7.9573	0.908
7.99827	0.908
8.03923	0.908
8.0802	0.908
8.12117	0.908
8.16214	0.908
8.2031	0.908
8.24407	0.908
8.28504	0.908
8.32601	0.908
8.36697	0.908
8.40794	0.908
8.44891	0.908
8.48988	0.908
8.53084	0.907
8.57181	0.907
8.61278	0.907
8.65375	0.907
8.69472	0.907
8.73568	0.907
8.77665	0.907
8.81762	0.908
8.85859	0.91
8.89955	0.912
8.94052	0.912
8.98149	0.914
9.02246	0.915
9.06342	0.915
9.10439	0.917
9.14536	0.919
9.18633	0.919
9.22729	0.919
9.26826	0.919
9.30923	0.919
9.3502	0.92
9.39116	0.92
9.43213	0.919
9.4731	0.919
9.51407	0.92
9.55503	0.924
9.596	0.926
9.63697	0.926
9.67794	0.927
9.7189	0.926
9.75987	0.926
9.80084	0.929
9.84181	0.927
9.88277	0.926
9.92374	0.924
9.96471	0.924
10.0057	0.924
10.0466	0.924
10.0876	0.924
10.1286	0.926
10.1695	0.927
10.2105	0.927
10.2515	0.927
10.2925	0.927
10.3334	0.927
10.3744	0.926
10.4154	0.924
10.4563	0.922
10.4973	0.92
10.5383	0.919
10.5792	0.917
10.6202	0.917
10.6612	0.915
10.7021	0.912
10.7431	0.907
10.7841	0.907
10.825	0.905
10.866	0.903
10.907	0.903
10.9479	0.9
10.9889	0.9
11.0299	0.898
11.0708	0.895
11.1118	0.891
11.1528	0.89
11.1937	0.888
11.2347	0.884
11.2757	0.878
11.3166	0.871
11.3576	0.862
11.3986	0.848
11.4395	0.828
11.4805	0.785
11.5215	0.743
11.5624	0.719
11.6034	0.687
11.6444	0.62
11.6853	0.5
11.7263	0.391
11.7673	0.316
11.8083	0.293
11.8492	0.3
11.8902	0.345
11.9312	0.431
11.9721	0.403
12.0131	0.367
12.0541	0.457
12.095	0.582
12.136	0.658
12.177	0.704
12.2179	0.733
12.2589	0.745
12.2999	0.761
12.3408	0.769
12.3818	0.773
12.4228	0.773
12.4637	0.768
12.5047	0.761
12.5457	0.752
12.5866	0.737
12.6276	0.704
12.6686	0.668
12.7095	0.635
12.7505	0.585
12.7915	0.541
12.8324	0.515
12.8734	0.503
12.9144	0.496
12.9553	0.491
12.9963	0.475
13.0373	0.457
13.0782	0.439
13.1192	0.417
13.1602	0.403
13.2011	0.386
13.2421	0.372
13.2831	0.362
13.3241	0.355
13.365	0.353
13.406	0.357
13.447	0.365
13.4879	0.374
13.5289	0.378
13.5699	0.369
13.6108	0.355
13.6518	0.345
13.6928	0.329
13.7337	0.314
13.7747	0.305
13.8157	0.295
13.8566	0.281
13.8976	0.264
13.9386	0.249
13.9795	0.226
14.0205	0.199
14.0615	0.173
14.1024	0.154
14.1434	0.144
14.1844	0.134
14.2253	0.123
14.2663	0.116
14.3073	0.113
14.3482	0.115
14.3892	0.116
14.4302	0.121
14.4711	0.134
14.5121	0.144
14.5531	0.149
14.594	0.152
14.635	0.163
14.676	0.173
14.7169	0.175
14.7579	0.18
14.7989	0.185
14.8399	0.206
14.8808	0.214
14.9218	0.214
14.9628	0.214
15.0037	0.218
15.0447	0.221
15.0857	0.228
15.1266	0.235
15.1676	0.243
15.2086	0.25
15.2495	0.254
15.2905	0.256
15.3315	0.256
15.3724	0.257
15.4134	0.254
15.4544	0.257
15.4953	0.259
15.5363	0.261
15.5773	0.262
15.6182	0.264
15.6592	0.269
15.7002	0.271
15.7411	0.274
15.7821	0.28
15.8231	0.286
15.864	0.293
15.905	0.302
15.946	0.316
15.9869	0.326
