Infrared Spectrum: COBALTOUS CARBONATE
Formula: Co C O3
State: SOLID (NUJOL MULL)
Class: COBLENTZ
Instrument: Not specified, most likely a prism, grating, or hybrid spectrometer.
Sampling: TRANSMISSION
Resolution: 4
Origin: MELLON INSTITUTE
MICROMETERS	TRANSMITTANCE
2.084	0.79
2.12502	0.789
2.16604	0.79
2.20706	0.794
2.24807	0.794
2.28909	0.799
2.33011	0.801
2.37113	0.794
2.41215	0.801
2.45317	0.801
2.49419	0.801
2.53521	0.795
2.57622	0.801
2.61724	0.799
2.65826	0.797
2.69928	0.799
2.7403	0.783
2.78132	0.777
2.82234	0.77
2.86335	0.754
2.90437	0.749
2.94539	0.746
2.98641	0.742
3.02743	0.739
3.06845	0.74
3.10947	0.747
3.15048	0.753
3.1915	0.759
3.23252	0.761
3.27354	0.763
3.31456	0.662
3.35558	0.452
3.3966	0.488
3.43762	0.547
3.47863	0.682
3.51965	0.771
3.56067	0.802
3.60169	0.813
3.64271	0.819
3.68373	0.821
3.72475	0.823
3.76576	0.823
3.80678	0.823
3.8478	0.823
3.88882	0.821
3.92984	0.825
3.97086	0.831
4.01188	0.838
4.05289	0.838
4.09391	0.84
4.13493	0.843
4.17595	0.845
4.21697	0.843
4.25799	0.847
4.29901	0.843
4.34003	0.847
4.38104	0.85
4.42206	0.852
4.46308	0.854
4.5041	0.855
4.54512	0.864
4.58614	0.862
4.62716	0.864
4.66817	0.864
4.70919	0.862
4.75021	0.862
4.79123	0.862
4.83225	0.862
4.87327	0.871
4.91429	0.871
4.9553	0.869
4.99632	0.869
5.03734	0.869
5.07836	0.871
5.11938	0.873
5.1604	0.874
5.20142	0.874
5.24244	0.879
5.28345	0.881
5.32447	0.881
5.36549	0.885
5.40651	0.885
5.44753	0.883
5.48855	0.881
5.52957	0.878
5.57058	0.874
5.6116	0.878
5.65262	0.883
5.69364	0.891
5.73466	0.893
5.77568	0.898
5.8167	0.9
5.85771	0.9
5.89873	0.893
5.93975	0.885
5.98077	0.874
6.02179	0.867
6.06281	0.855
6.10383	0.854
6.14485	0.854
6.18586	0.854
6.22688	0.837
6.2679	0.807
6.30892	0.773
6.34994	0.722
6.39096	0.672
6.43198	0.605
6.47299	0.55
6.51401	0.514
6.55503	0.49
6.59605	0.439
6.63707	0.399
6.67809	0.341
6.71911	0.305
6.76012	0.284
6.80114	0.259
6.84216	0.245
6.88318	0.243
6.9242	0.243
6.96522	0.245
7.00624	0.253
7.04726	0.26
7.08827	0.284
7.12929	0.348
7.17031	0.397
7.21133	0.473
7.25235	0.554
7.29337	0.626
7.33439	0.67
7.3754	0.71
7.41642	0.735
7.45744	0.761
7.49846	0.79
7.53948	0.801
7.5805	0.809
7.62152	0.818
7.66253	0.833
7.70355	0.842
7.74457	0.845
7.78559	0.849
7.82661	0.854
7.86763	0.859
7.90865	0.864
7.94967	0.869
7.99068	0.873
8.0317	0.873
8.07272	0.873
8.11374	0.874
8.15476	0.878
8.19578	0.881
8.2368	0.881
8.27781	0.883
8.31883	0.891
8.35985	0.89
8.40087	0.891
8.44189	0.895
8.48291	0.897
8.52393	0.897
8.56494	0.897
8.60596	0.898
8.64698	0.898
8.688	0.9
8.72902	0.902
8.77004	0.903
8.81106	0.905
8.85208	0.907
8.89309	0.907
8.93411	0.903
8.97513	0.902
9.01615	0.902
9.05717	0.903
9.09819	0.907
9.13921	0.91
9.18022	0.915
9.22124	0.909
9.26226	0.907
9.30328	0.909
9.3443	0.912
9.38532	0.914
9.42634	0.917
9.46735	0.915
9.50837	0.915
9.54939	0.921
9.59041	0.917
9.63143	0.922
9.67245	0.924
9.71347	0.926
9.75449	0.922
9.7955	0.922
9.83652	0.921
9.87754	0.922
9.91856	0.919
9.95958	0.926
10.0006	0.924
10.0416	0.927
10.0826	0.931
10.1237	0.926
10.1647	0.927
10.2057	0.927
10.2467	0.929
10.2877	0.931
10.3287	0.931
10.3698	0.927
10.4108	0.926
10.4518	0.931
10.4928	0.933
10.5338	0.934
10.5749	0.934
10.6159	0.931
10.6569	0.933
10.6979	0.931
10.7389	0.931
10.78	0.933
10.821	0.936
10.862	0.934
10.903	0.934
10.944	0.934
10.985	0.938
11.0261	0.938
11.0671	0.943
11.1081	0.941
11.1491	0.943
11.1901	0.939
11.2312	0.938
11.2722	0.936
11.3132	0.934
11.3542	0.909
11.3952	0.862
11.4362	0.807
11.4773	0.722
11.5183	0.653
11.5593	0.636
11.6003	0.667
11.6413	0.747
11.6824	0.797
11.7234	0.843
11.7644	0.873
11.8054	0.886
11.8464	0.898
11.8875	0.903
11.9285	0.91
11.9695	0.915
12.0105	0.917
12.0515	0.924
12.0925	0.926
12.1336	0.929
12.1746	0.933
12.2156	0.931
12.2566	0.931
12.2976	0.931
12.3387	0.933
12.3797	0.934
12.4207	0.933
12.4617	0.933
12.5027	0.933
12.5438	0.934
12.5848	0.933
12.6258	0.936
12.6668	0.934
12.7078	0.934
12.7488	0.934
12.7899	0.933
12.8309	0.927
12.8719	0.926
12.9129	0.921
12.9539	0.914
12.995	0.915
13.036	0.915
13.077	0.915
13.118	0.912
13.159	0.902
13.2001	0.902
13.2411	0.897
13.2821	0.869
13.3231	0.843
13.3641	0.814
13.4051	0.809
13.4462	0.813
13.4872	0.823
13.5282	0.826
13.5692	0.831
13.6102	0.837
13.6513	0.842
13.6923	0.845
13.7333	0.833
13.7743	0.826
13.8153	0.823
13.8563	0.821
13.8974	0.821
13.9384	0.819
13.9794	0.816
14.0204	0.811
14.0614	0.809
14.1025	0.807
14.1435	0.806
14.1845	0.801
14.2255	0.801
14.2665	0.794
14.3076	0.783
14.3486	0.782
14.3896	0.778
14.4306	0.773
14.4716	0.773
14.5126	0.77
14.5537	0.761
14.5947	0.756
14.6357	0.751
14.6767	0.746
14.7177	0.744
14.7588	0.74
14.7998	0.737
14.8408	0.735
14.8818	0.74
14.9228	0.728
14.9639	0.727
15.0049	0.722
15.0459	0.715
15.0869	0.71
15.1279	0.71
15.1689	0.706
15.21	0.706
15.251	0.704
15.292	0.703
15.333	0.704
15.374	0.699
15.4151	0.696
15.4561	0.687
15.4971	0.684
15.5381	0.691
15.5791	0.689
15.6202	0.691
15.6612	0.689
15.7022	0.689
15.7432	0.694
15.7842	0.703
15.8252	0.713
15.8663	0.722
15.9073	0.722
15.9483	0.722
15.9893	0.722
