Infrared Spectrum: POTASSIUM DICHROMATE
Formula: K2 Cr2 O7
State: SOLID (NUJOL MULL)
Class: COBLENTZ
Instrument: Not specified, most likely a prism, grating, or hybrid spectrometer.
Sampling: TRANSMISSION
Resolution: 4
Origin: MELLON INSTITUTE
MICROMETERS	TRANSMITTANCE
2.048	0.729
2.08881	0.732
2.12963	0.734
2.17044	0.737
2.21126	0.741
2.25207	0.744
2.29289	0.746
2.3337	0.751
2.37452	0.756
2.41533	0.759
2.45615	0.764
2.49696	0.771
2.53778	0.778
2.57859	0.787
2.6194	0.797
2.66022	0.8
2.70103	0.804
2.74185	0.807
2.78266	0.81
2.82348	0.814
2.86429	0.817
2.90511	0.821
2.94592	0.824
2.98674	0.826
3.02755	0.833
3.06837	0.839
3.10918	0.839
3.14999	0.843
3.19081	0.846
3.23162	0.851
3.27244	0.853
3.31325	0.749
3.35407	0.407
3.39488	0.304
3.4357	0.403
3.47651	0.427
3.51733	0.744
3.55814	0.868
3.59896	0.897
3.63977	0.911
3.68058	0.916
3.7214	0.918
3.76221	0.919
3.80303	0.921
3.84384	0.923
3.88466	0.93
3.92547	0.931
3.96629	0.936
4.0071	0.94
4.04792	0.94
4.08873	0.943
4.12955	0.943
4.17036	0.943
4.21117	0.94
4.25199	0.938
4.2928	0.938
4.33362	0.936
4.37443	0.936
4.41525	0.936
4.45606	0.936
4.49688	0.938
4.53769	0.942
4.57851	0.942
4.61932	0.947
4.66014	0.95
4.70095	0.952
4.74176	0.952
4.78258	0.952
4.82339	0.955
4.86421	0.96
4.90502	0.957
4.94584	0.959
4.98665	0.96
5.02747	0.96
5.06828	0.962
5.1091	0.964
5.14991	0.965
5.19073	0.969
5.23154	0.969
5.27235	0.969
5.31317	0.967
5.35398	0.965
5.3948	0.964
5.43561	0.964
5.47643	0.965
5.51724	0.969
5.55806	0.969
5.59887	0.971
5.63969	0.972
5.6805	0.976
5.72132	0.981
5.76213	0.984
5.80295	0.986
5.84376	0.989
5.88457	0.993
5.92539	0.993
5.9662	0.996
6.00702	0.998
6.04783	1
6.08865	1
6.12946	1
6.17028	1.001
6.21109	1.001
6.25191	1.003
6.29272	1.003
6.33354	1.001
6.37435	0.998
6.41516	0.998
6.45598	0.998
6.49679	0.998
6.53761	0.996
6.57842	0.996
6.61924	0.996
6.66005	0.991
6.70087	0.984
6.74168	0.959
6.7825	0.853
6.82331	0.732
6.86413	0.752
6.90494	0.827
6.94575	0.896
6.98657	0.938
7.02738	0.96
7.0682	0.972
7.10901	0.976
7.14983	0.974
7.19064	0.919
7.23146	0.87
7.27227	0.901
7.31309	0.93
7.3539	0.959
7.39472	0.96
7.43553	0.954
7.47634	0.96
7.51716	0.96
7.55797	0.954
7.59879	0.95
7.6396	0.948
7.68042	0.955
7.72123	0.964
7.76205	0.972
7.80286	0.979
7.84368	0.982
7.88449	0.982
7.92531	0.984
7.96612	0.986
8.00693	0.982
8.04775	0.984
8.08856	0.986
8.12938	0.988
8.17019	0.986
8.21101	0.989
8.25182	0.991
8.29264	0.993
8.33345	0.996
8.37427	1
8.41508	1
8.4559	0.998
8.49671	0.993
8.53752	0.991
8.57834	0.991
8.61915	0.994
8.65997	0.996
8.70078	0.998
8.7416	0.998
8.78241	0.998
8.82323	0.998
8.86404	0.998
8.90486	0.998
8.94567	0.998
8.98649	0.996
9.0273	0.994
9.06811	0.996
9.10893	0.996
9.14974	0.998
9.19056	0.998
9.23137	1
9.27219	1.001
9.313	1.001
9.35382	1.001
9.39463	1.001
9.43545	1
9.47626	1.001
9.51708	1.001
9.55789	1.001
9.5987	1.001
9.63952	1.001
9.68033	1
9.72115	0.996
9.76196	0.994
9.80278	0.991
9.84359	0.984
9.88441	0.984
9.92522	0.976
9.96604	0.976
10.0069	0.972
10.0477	0.967
10.0885	0.954
10.1293	0.925
10.1701	0.88
10.2109	0.788
10.2517	0.64
10.2926	0.488
10.3334	0.403
10.3742	0.339
10.415	0.284
10.4558	0.221
10.4966	0.199
10.5374	0.172
10.5783	0.172
10.6191	0.166
10.6599	0.166
10.7007	0.161
10.7415	0.197
10.7823	0.245
10.8231	0.247
10.864	0.352
10.9048	0.591
10.9456	0.649
10.9864	0.611
11.0272	0.574
11.068	0.533
11.1088	0.618
11.1497	0.662
11.1905	0.591
11.2313	0.548
11.2721	0.471
11.3129	0.551
11.3537	0.662
11.3945	0.764
11.4354	0.817
11.4762	0.851
11.517	0.88
11.5578	0.899
11.5986	0.914
11.6394	0.925
11.6803	0.93
11.7211	0.933
11.7619	0.938
11.8027	0.942
11.8435	0.942
11.8843	0.938
11.9251	0.938
11.966	0.936
12.0068	0.933
12.0476	0.925
12.0884	0.913
12.1292	0.901
12.17	0.889
12.2108	0.863
12.2517	0.833
12.2925	0.771
12.3333	0.705
12.3741	0.64
12.4149	0.553
12.4557	0.471
12.4965	0.441
12.5374	0.434
12.5782	0.448
12.619	0.465
12.6598	0.483
12.7006	0.477
12.7414	0.454
12.7822	0.436
12.8231	0.403
12.8639	0.369
12.9047	0.33
12.9455	0.301
12.9863	0.281
13.0271	0.258
13.0679	0.245
13.1088	0.238
13.1496	0.238
13.1904	0.24
13.2312	0.255
13.272	0.274
13.3128	0.325
13.3536	0.359
13.3945	0.4
13.4353	0.458
13.4761	0.507
13.5169	0.579
13.5577	0.613
13.5985	0.657
13.6394	0.681
13.6802	0.71
13.721	0.727
13.7618	0.739
13.8026	0.747
13.8434	0.756
13.8842	0.771
13.9251	0.781
13.9659	0.79
14.0067	0.798
14.0475	0.804
14.0883	0.804
14.1291	0.805
14.1699	0.812
14.2108	0.809
14.2516	0.807
14.2924	0.804
14.3332	0.8
14.374	0.797
14.4148	0.79
14.4556	0.785
14.4965	0.78
14.5373	0.778
14.5781	0.771
14.6189	0.771
14.6597	0.768
14.7005	0.766
14.7413	0.761
14.7822	0.759
14.823	0.761
14.8638	0.754
14.9046	0.741
14.9454	0.739
14.9862	0.734
15.027	0.73
15.0679	0.727
15.1087	0.722
15.1495	0.722
15.1903	0.72
15.2311	0.724
15.2719	0.724
15.3128	0.722
15.3536	0.724
15.3944	0.718
15.4352	0.713
15.476	0.715
15.5168	0.712
15.5576	0.708
15.5985	0.703
15.6393	0.703
15.6801	0.703
15.7209	0.703
15.7617	0.706
15.8025	0.71
15.8433	0.71
15.8842	0.713
15.925	0.713
15.9658	0.718
16.0066	0.718
