Infrared Spectrum: 9(AND 10)-PHENYLSTEARIC ACID
Formula: C24 H40 O2
State: SOLUTION (10% CCl4 FOR 3800-1330, 10% CS2 FOR 1330-400 CM^-^1)
Class: COBLENTZ
Instrument: DOW KBr FOREPRISM-GRATING
Instrument parameters: BLAZED AT 3.5, 12.0, 20.0 MICRON AND CHANGED AT 5.0, 7.5, 14.9 MICRON
Sampling: TRANSMISSION
Path length: 0.011 CM, 0.011 CM
Resolution: 2
Origin: DOW CHEMICAL COMPANY
1/CM	TRANSMITTANCE
386.784	0.359
395.595	0.417
404.405	0.603
413.216	0.834
422.026	0.927
430.837	0.965
439.647	0.976
448.458	0.979
457.269	0.976
466.079	0.96
474.89	0.941
483.7	0.938
492.511	0.943
501.322	0.945
510.132	0.942
518.943	0.934
527.753	0.923
536.564	0.916
545.374	0.912
554.185	0.909
562.996	0.906
571.806	0.922
580.617	0.912
589.427	0.942
598.238	0.938
607.048	0.945
615.859	0.939
624.67	0.922
633.48	0.911
642.291	0.898
651.101	0.882
659.912	0.9
668.723	0.909
677.533	0.912
686.344	0.886
695.154	0.7
703.965	0.4889
712.775	0.797
721.586	0.693
730.397	0.753
739.207	0.785
748.018	0.767
756.828	0.633
765.639	0.562
774.449	0.83
783.26	0.871
792.071	0.882
800.881	0.883
809.692	0.88
818.502	0.88
827.313	0.874
836.124	0.85
844.934	0.79
853.745	0.718
862.555	0.711
871.366	0.72
880.176	0.726
888.987	0.727
897.798	0.714
906.608	0.658
915.419	0.634
924.229	0.582
933.04	0.549
941.85	0.56
950.661	0.615
959.472	0.694
968.282	0.761
977.093	0.813
985.903	0.846
994.714	0.864
1003.52	0.872
1012.34	0.874
1021.15	0.864
1029.96	0.789
1038.77	0.879
1047.58	0.878
1056.39	0.865
1065.2	0.827
1074.01	0.824
1082.82	0.845
1091.63	0.844
1100.44	0.838
1109.25	0.822
1118.06	0.819
1126.87	0.852
1135.68	0.854
1144.49	0.845
1153.3	0.826
1162.11	0.829
1170.93	0.809
1179.74	0.782
1188.55	0.768
1197.36	0.734
1206.17	0.685
1214.98	0.633
1223.79	0.595
1232.6	0.555
1241.41	0.548
1250.22	0.563
1259.03	0.563
1267.84	0.541
1276.65	0.492
1285.46	0.437
1294.27	0.456
1303.08	0.497
1311.89	0.549
1320.71	0.614
1329.52	0.735
1338.33	0.783
1347.14	0.8
1355.95	0.816
1364.76	0.807
1373.57	0.785
1382.38	0.753
1391.19	0.874
1400	0.842
1408.81	0.682
1417.62	0.459
1426.43	0.575
1435.24	0.58
1444.05	0.54
1452.86	0.5
1461.67	0.372
1470.49	0.348
1479.3	0.811
1488.11	0.85
1496.92	0.616
1505.73	0.808
1514.54	0.783
1523.35	0.744
1532.16	0.704
1540.97	0.616
1549.78	0.529
1558.59	0.537
1567.4	0.623
1576.21	0.694
1585.02	0.689
1593.83	0.729
1602.64	0.759
1611.45	0.815
1620.26	0.923
1629.08	0.946
1637.89	0.941
1646.7	0.927
1655.51	0.89
1664.32	0.87
1673.13	0.813
1681.94	0.757
1690.75	0.607
1699.56	0.348
1708.37	0.047
1717.18	0.016
1725.99	0.25
1734.8	0.612
1743.61	0.723
1752.42	0.775
1761.23	0.804
1770.04	0.867
1778.86	0.906
1787.67	0.919
1796.48	0.906
1805.29	0.912
1814.1	0.932
1822.91	0.939
1831.72	0.948
1840.53	0.954
1849.34	0.956
1858.15	0.953
1866.96	0.942
1875.77	0.957
1884.58	0.961
1893.39	0.971
1902.2	0.98
1911.01	0.982
1919.82	0.982
1928.64	0.982
1937.45	0.971
1946.26	0.953
1955.07	0.978
1963.88	0.984
1972.69	0.986
1981.5	0.986
1990.31	0.983
1999.12	0.9679
2007.93	0.9725
2016.74	0.975
2025.55	0.974
2034.36	0.972
2043.17	0.969
2051.98	0.9756
2060.79	0.978
2069.6	0.979
2078.42	0.979
2087.23	0.979
2096.04	0.979
2104.85	0.979
2113.66	0.978
2122.47	0.978
2131.28	0.978
2140.09	0.975
2148.9	0.9712
2157.71	0.971
2166.52	0.9682
2175.33	0.968
2184.14	0.9654
2192.95	0.965
2201.76	0.964
2210.57	0.963
2219.38	0.961
2228.19	0.96
2237.01	0.9571
2245.82	0.954
2254.63	0.95
2263.44	0.9461
2272.25	0.939
2281.06	0.932
2289.87	0.926
2298.68	0.922
2307.49	0.92
2316.3	0.919
2325.11	0.9188
2333.92	0.917
2342.73	0.917
2351.54	0.917
2360.35	0.916
2369.16	0.916
2377.97	0.915
2386.79	0.913
2395.6	0.912
2404.41	0.909
2413.22	0.9058
2422.03	0.902
2430.84	0.898
2439.65	0.8937
2448.46	0.889
2457.27	0.8841
2466.08	0.8773
2474.89	0.8693
2483.7	0.8603
2492.51	0.8509
2501.32	0.8394
2510.13	0.8248
2518.94	0.8086
2527.75	0.7882
2536.57	0.7711
2545.38	0.7541
2554.19	0.7425
2563	0.7285
2571.81	0.719
2580.62	0.711
2589.43	0.709
2598.24	0.7059
2607.05	0.6978
2615.86	0.6894
2624.67	0.6814
2633.48	0.6715
2642.29	0.6601
2651.1	0.6497
2659.91	0.6383
2668.72	0.63
2677.53	0.6297
2686.34	0.632
2695.16	0.6452
2703.97	0.662
2712.78	0.662
2721.59	0.66
2730.4	0.6582
2739.21	0.655
2748.02	0.655
2756.83	0.655
2765.64	0.651
2774.45	0.647
2783.26	0.6382
2792.07	0.6263
2800.88	0.6063
2809.69	0.5772
2818.5	0.5373
2827.31	0.5032
2836.12	0.4611
2844.94	0.3629
2853.75	0.1086
2862.56	0.028
2871.37	0.0604
2880.18	0.1491
2888.99	0.203
2897.8	0.1458
2906.61	0.0919
2915.42	0.0488
2924.23	0.013
2933.04	0.01
2941.85	0.0105
2950.66	0.026
2959.47	0.078
2968.28	0.0935
2977.09	0.1827
2985.9	0.2887
2994.72	0.3602
3003.53	0.3986
3012.34	0.402
3021.15	0.3994
3029.96	0.3523
3038.77	0.2938
3047.58	0.3937
3056.39	0.409
3065.2	0.3726
3074.01	0.3973
3082.82	0.4243
3091.63	0.4013
3100.44	0.4678
3109.25	0.4875
3118.06	0.5045
3126.87	0.527
3135.68	0.544
3144.5	0.5588
3153.31	0.5789
3162.12	0.5947
3170.93	0.6098
3179.74	0.6308
3188.55	0.6462
3197.36	0.663
3206.17	0.6816
3214.98	0.6987
3223.79	0.7107
3232.6	0.7257
3241.41	0.7407
3250.22	0.7549
3259.03	0.7737
3267.84	0.7928
3276.65	0.8071
3285.46	0.8252
3294.27	0.843
3303.09	0.8555
3311.9	0.8667
3320.71	0.8777
3329.52	0.8847
3338.33	0.8909
3347.14	0.8979
3355.95	0.9049
3364.76	0.9158
3373.57	0.9259
3382.38	0.9339
3391.19	0.942
3400	0.948
3408.81	0.954
3417.62	0.96
3426.43	0.963
3435.24	0.9651
3444.05	0.968
3452.87	0.9692
3461.68	0.972
3470.49	0.972
3479.3	0.974
3488.11	0.974
3496.92	0.974
3505.73	0.972
3514.54	0.9688
3523.35	0.9596
3532.16	0.9568
3540.97	0.9607
3549.78	0.972
3558.59	0.979
3567.4	0.979
3576.21	0.978
3585.02	0.969
3593.83	0.9783
3602.65	0.9786
3611.46	0.974
3620.27	0.976
3629.08	0.9772
3637.89	0.976
3646.7	0.9746
3655.51	0.9755
3664.32	0.978
3673.13	0.9745
3681.94	0.9755
3690.75	0.978
3699.56	0.978
3708.37	0.978
3717.18	0.978
3725.99	0.978
3734.8	0.9768
3743.61	0.9756
3752.42	0.976
3761.24	0.9796
3770.05	0.98
3778.86	0.98
3787.67	0.98
3796.48	0.98
