Infrared Spectrum: Pyrimidinepropionic acid, 1(2H)-,Alpha-amino-3,4-dihydro-2,4-dioxo-,hydrate
Formula: C7 H9 N3 O4  * H2 O
State: SOLID (OIL MULL)
Class: COBLENTZ III
Instrument: PERKIN-ELMER 21 (GRATING)
Instrument parameters: NaCl PRISM
Sampling: TRANSMISSION
Resolution: 2
Origin: SMITH, KLINE & FRENCH LABS.
1/CM	TRANSMITTANCE
668	0.6809
677	0.7078
686	0.747
695	0.7676
704	0.7744
713	0.7719
722	0.7653
731	0.7337
740	0.7976
749	0.7487
758	0.782
767	0.8176
776	0.804
785	0.8373
794	0.8399
803	0.8349
812	0.8029
821	0.7027
830	0.7622
839	0.7895
848	0.7015
857	0.6933
866	0.6639
875	0.7494
884	0.7997
893	0.8207
902	0.8283
911	0.8318
920	0.8333
929	0.8323
938	0.8285
947	0.8204
956	0.7999
965	0.7475
974	0.735
983	0.7028
992	0.7738
1001	0.8359
1010	0.8384
1019	0.837
1028	0.8349
1037	0.8208
1046	0.7966
1055	0.7247
1064	0.8184
1073	0.8332
1082	0.8225
1091	0.7803
1100	0.8286
1109	0.835
1118	0.8255
1127	0.8138
1136	0.7782
1145	0.6877
1154	0.7379
1163	0.788
1172	0.7788
1181	0.7367
1190	0.7733
1199	0.7825
1208	0.7927
1217	0.7779
1226	0.7829
1235	0.6909
1244	0.5542
1253	0.7788
1262	0.791
1271	0.7939
1280	0.7914
1289	0.7773
1298	0.7119
1307	0.4407
1316	0.6287
1325	0.4322
1334	0.6768
1343	0.7185
1352	0.6852
1361	0.6254
1370	0.5203
1379	0.6845
1388	0.5805
1397	0.5573
1406	0.4239
1415	0.5264
1424	0.6757
1433	0.6275
1442	0.4726
1451	0.3352
1460	0.4699
1469	0.6862
1478	0.6885
1487	0.6239
1496	0.6105
1505	0.7435
1514	0.7705
1523	0.7666
1532	0.7672
1541	0.7521
1550	0.7116
1559	0.6932
1568	0.5608
1577	0.3386
1586	0.3524
1595	0.4846
1604	0.6122
1613	0.5914
1622	0.4327
1631	0.416
1640	0.4836
1649	0.4734
1658	0.336
1667	0.2213
1676	0.3108
1685	0.2846
1694	0.263
1703	0.459
1712	0.6809
1721	0.7475
1730	0.7669
1739	0.7804
1748	0.8051
1757	0.8468
1766	0.8696
1775	0.8807
1784	0.88
1793	0.8825
1802	0.8971
1811	0.9077
1820	0.9133
1829	0.9157
1838	0.9171
1847	0.9185
1856	0.9201
1865	0.9211
1874	0.9217
1883	0.922
1892	0.9219
1901	0.9219
1910	0.9214
1919	0.9203
1928	0.9193
1937	0.9183
1946	0.9174
1955	0.9174
1964	0.9177
1973	0.9191
1982	0.9207
1991	0.9226
2000	0.921
2009	0.9178
2018	0.9121
2027	0.9061
2036	0.8998
2045	0.8948
2054	0.8914
2063	0.8899
2072	0.8883
2081	0.8916
2090	0.8962
2099	0.9029
2108	0.9059
2117	0.9061
2126	0.906
2135	0.9059
2144	0.9032
2153	0.8937
2162	0.8937
2171	0.898
2180	0.9017
2189	0.9046
2198	0.9062
2207	0.9078
2216	0.9087
2225	0.9071
2234	0.9033
2243	0.898
2252	0.8913
2261	0.8856
2270	0.8831
2279	0.8849
2288	0.8904
2297	0.8911
2306	0.8911
2315	0.8899
2324	0.8887
2333	0.8873
2342	0.8851
2351	0.882
2360	0.8755
2369	0.8725
2378	0.8662
2387	0.8556
2396	0.8469
2405	0.8391
2414	0.8311
2423	0.823
2432	0.8166
2441	0.8119
2450	0.8112
2459	0.8119
2468	0.8127
2477	0.8097
2486	0.804
2495	0.7968
2504	0.7875
2513	0.7775
2522	0.7662
2531	0.7539
2540	0.7391
2549	0.7331
2558	0.729
2567	0.7268
2576	0.725
2585	0.7239
2594	0.726
2603	0.7294
2612	0.7348
2621	0.7345
2630	0.7259
2639	0.7161
2648	0.7087
2657	0.7044
2666	0.7026
2675	0.7026
2684	0.7046
2693	0.7094
2702	0.7138
2711	0.7129
2720	0.7111
2729	0.6915
2738	0.6673
2747	0.6461
2756	0.6288
2765	0.6122
2774	0.5918
2783	0.505
2792	0.4124
2801	0.3204
2810	0.286
2819	0.2974
2828	0.2974
2837	0.2718
2846	0.2462
2855	0.2207
2864	0.196
2873	0.1944
2882	0.204
2891	0.2162
2900	0.2482
2909	0.3148
2918	0.3809
2927	0.4466
2936	0.5119
2945	0.5511
2954	0.5525
2963	0.5526
2972	0.5525
2981	0.5531
2990	0.5562
2999	0.5706
3008	0.5772
3017	0.5776
3026	0.5778
3035	0.5832
3044	0.6004
3053	0.61
3062	0.6158
3071	0.6181
3080	0.6199
3089	0.6226
3098	0.6362
3107	0.6592
3116	0.682
3125	0.7048
3134	0.7273
3143	0.7483
3152	0.7697
3161	0.79
3170	0.8003
3179	0.8051
3188	0.8075
3197	0.8086
3206	0.8083
3215	0.807
3224	0.8049
3233	0.8024
3242	0.7993
3251	0.7963
3260	0.7906
3269	0.7846
3278	0.7773
3287	0.7698
3296	0.7599
3305	0.7462
3314	0.7241
3323	0.7006
3332	0.6772
3341	0.6549
3350	0.6517
3359	0.6521
3368	0.654
3377	0.6721
3386	0.6933
3395	0.7145
3404	0.7355
3413	0.7564
3422	0.7772
3431	0.7979
3440	0.8185
3449	0.8389
3458	0.8593
3467	0.8786
3476	0.8908
3485	0.8976
3494	0.9035
3503	0.9094
3512	0.9151
3521	0.9207
3530	0.9262
3539	0.9313
3548	0.9361
3557	0.9393
3566	0.9408
3575	0.9423
3584	0.943
3593	0.9429
3602	0.9429
3611	0.9428
3620	0.9427
3629	0.9424
3638	0.9418
3647	0.9413
3656	0.9407
3665	0.9402
3674	0.9396
3683	0.9388
3692	0.938
3701	0.9372
3710	0.9364
3719	0.9356
3728	0.9346
3737	0.9334
3746	0.9323
3755	0.9312
3764	0.9301
3773	0.929
3782	0.928
3791	0.9271
3800	0.9263
3809	0.9255
3818	0.9246
3827	0.9239
3836	0.9231
3845	0.9223
3854	0.9215
3863	0.9209
3872	0.9204
3881	0.9199
3890	0.9194
3899	0.9189
3908	0.9184
3917	0.9178
3926	0.9174
3935	0.9169
3944	0.9164
3953	0.9159
3962	0.9153
3971	0.9147
3980	0.914
3989	0.9133
3998	0.9126
