Infrared Spectrum: Alanine, 3-[(p-nitrobenzyl)thio]-, methyl ester, hydrochloride, L-
Formula: C11 H15 Cl N2 O4 S
State: SOLID (0.9 mg / 650 mg KBr DISC)
Class: COBLENTZ III
Instrument: PERKIN-ELMER 21 (GRATING)
Instrument parameters: FILTER CHANGE ABOUT 1020 CM^-^1
Sampling: TRANSMISSION
Resolution: 2
Origin: SOUTHERN RESEARCH INSTITUTE
1/CM	TRANSMITTANCE
598	0.9101
607.041	0.9107
616.083	0.91
625.124	0.9104
634.165	0.9106
643.206	0.9083
652.248	0.9014
661.289	0.8858
670.33	0.866
679.371	0.8355
688.413	0.7957
697.454	0.7892
706.495	0.6149
715.537	0.6634
724.578	0.8488
733.619	0.8577
742.66	0.8439
751.702	0.8007
760.743	0.8047
769.784	0.7382
778.825	0.833
787.867	0.8349
796.908	0.8129
805.949	0.7339
814.99	0.8121
824.032	0.792
833.073	0.7815
842.114	0.7374
851.156	0.6262
860.197	0.5906
869.238	0.6431
878.279	0.7981
887.321	0.8108
896.362	0.752
905.403	0.8207
914.444	0.8196
923.486	0.7677
932.527	0.742
941.568	0.8455
950.61	0.8443
959.651	0.832
968.692	0.8297
977.733	0.8138
986.775	0.79
995.816	0.7274
1004.86	0.8168
1013.9	0.8206
1022.94	0.8158
1031.98	0.8074
1041.02	0.7924
1050.06	0.7219
1059.1	0.5502
1068.15	0.7028
1077.19	0.7726
1086.23	0.7237
1095.27	0.68
1104.31	0.632
1113.35	0.7102
1122.39	0.7659
1131.43	0.7465
1140.48	0.7032
1149.52	0.6739
1158.56	0.7215
1167.6	0.7107
1176.64	0.6886
1185.68	0.6667
1194.72	0.6351
1203.77	0.5255
1212.81	0.5816
1221.85	0.6344
1230.89	0.5628
1239.93	0.4471
1248.97	0.2875
1258.01	0.2401
1267.05	0.4728
1276.1	0.569
1285.14	0.6891
1294.18	0.7104
1303.22	0.6668
1312.26	0.6321
1321.3	0.5655
1330.34	0.4959
1339.38	0.5112
1348.43	0.1661
1357.47	0.4172
1366.51	0.664
1375.55	0.7373
1384.59	0.7001
1393.63	0.6598
1402.67	0.6704
1411.71	0.6308
1420.76	0.6912
1429.8	0.6489
1438.84	0.4356
1447.88	0.5994
1456.92	0.6547
1465.96	0.6605
1475	0.6004
1484.04	0.559
1493.09	0.3179
1502.13	0.3162
1511.17	0.1958
1520.21	0.2098
1529.25	0.4171
1538.29	0.6091
1547.33	0.6847
1556.37	0.687
1565.42	0.6759
1574.46	0.6173
1583.5	0.5499
1592.54	0.5743
1601.58	0.4587
1610.62	0.5965
1619.66	0.6911
1628.7	0.7397
1637.75	0.7758
1646.79	0.78
1655.83	0.7965
1664.87	0.8023
1673.91	0.8025
1682.95	0.794
1691.99	0.7552
1701.03	0.7454
1710.08	0.7066
1719.12	0.605
1728.16	0.4559
1737.2	0.1803
1746.24	0.447
1755.28	0.6168
1764.32	0.7526
1773.37	0.8008
1782.41	0.8129
1791.45	0.8262
1800.49	0.8355
1809.53	0.8392
1818.57	0.8396
1827.61	0.8465
1836.65	0.8493
1845.7	0.8516
1854.74	0.852
1863.78	0.852
1872.82	0.852
1881.86	0.8555
1890.9	0.8572
1899.94	0.8492
1908.98	0.8401
1918.03	0.8353
1927.07	0.8397
1936.11	0.8308
1945.15	0.8289
1954.19	0.8301
1963.23	0.8237
1972.27	0.8275
1981.31	0.8194
1990.36	0.813
1999.4	0.8085
2008.44	0.8028
2017.48	0.7935
2026.52	0.7786
2035.56	0.7713
2044.6	0.7742
2053.64	0.7788
2062.69	0.7883
2071.73	0.8017
2080.77	0.8086
2089.81	0.8142
2098.85	0.8189
2107.89	0.8295
2116.93	0.8324
2125.97	0.8327
2135.02	0.8344
2144.06	0.837
2153.1	0.8362
2162.14	0.8376
2171.18	0.8409
2180.22	0.8371
2189.26	0.8327
2198.3	0.8285
2207.35	0.8268
2216.39	0.8256
2225.43	0.8263
2234.47	0.8274
2243.51	0.8302
2252.55	0.8308
2261.59	0.8276
2270.63	0.8204
2279.68	0.8118
2288.72	0.8049
2297.76	0.8002
2306.8	0.7966
2315.84	0.7945
2324.88	0.7944
2333.92	0.7937
2342.97	0.7949
2352.01	0.7963
2361.05	0.7983
2370.09	0.8005
2379.13	0.8033
2388.17	0.7984
2397.21	0.7892
2406.25	0.7795
2415.3	0.7689
2424.34	0.7587
2433.38	0.7543
2442.42	0.7531
2451.46	0.7469
2460.5	0.7379
2469.54	0.7246
2478.58	0.7055
2487.63	0.6994
2496.67	0.7004
2505.71	0.7008
2514.75	0.6941
2523.79	0.692
2532.83	0.6804
2541.87	0.6654
2550.91	0.6484
2559.96	0.6329
2569	0.6188
2578.04	0.5984
2587.08	0.5793
2596.12	0.5659
2605.16	0.5549
2614.2	0.5496
2623.24	0.5182
2632.29	0.5069
2641.33	0.5079
2650.37	0.5234
2659.41	0.5442
2668.45	0.5498
2677.49	0.547
2686.53	0.536
2695.57	0.5187
2704.62	0.495
2713.66	0.4751
2722.7	0.46
2731.74	0.4503
2740.78	0.4444
2749.82	0.4403
2758.86	0.4306
2767.9	0.4061
2776.95	0.3815
2785.99	0.3569
2795.03	0.3331
2804.07	0.3046
2813.11	0.2744
2822.15	0.2536
2831.19	0.2472
2840.23	0.2391
2849.28	0.243
2858.32	0.2528
2867.36	0.2652
2876.4	0.2858
2885.44	0.2964
2894.48	0.3096
2903.52	0.3217
2912.57	0.3295
2921.61	0.3362
2930.65	0.3429
2939.69	0.3482
2948.73	0.3546
2957.77	0.3554
2966.81	0.3563
2975.85	0.3572
2984.9	0.3617
2993.94	0.3629
3002.98	0.3638
3012.02	0.3655
3021.06	0.3817
3030.1	0.3838
3039.14	0.4034
3048.18	0.4176
3057.23	0.4324
3066.27	0.4437
3075.31	0.456
3084.35	0.4722
3093.39	0.4915
3102.43	0.5128
3111.47	0.5416
3120.51	0.5627
3129.56	0.5845
3138.6	0.6019
3147.64	0.6445
3156.68	0.6727
3165.72	0.6841
3174.76	0.6901
3183.8	0.6998
3192.84	0.7094
3201.89	0.7198
3210.93	0.7298
3219.97	0.7404
3229.01	0.7486
3238.05	0.7571
3247.09	0.7735
3256.13	0.777
3265.17	0.7797
3274.22	0.7815
3283.26	0.7851
3292.3	0.7849
3301.34	0.7836
3310.38	0.7815
3319.42	0.7787
3328.46	0.7748
3337.5	0.769
3346.55	0.7621
3355.59	0.7591
3364.63	0.7555
3373.67	0.7443
3382.71	0.7314
3391.75	0.7189
3400.79	0.7056
3409.83	0.6949
3418.88	0.6866
3427.92	0.6797
3436.96	0.6767
3446	0.6744
3455.04	0.6726
3464.08	0.6708
3473.12	0.6712
3482.17	0.6719
3491.21	0.674
3500.25	0.6778
3509.29	0.6834
3518.33	0.6886
3527.37	0.6935
3536.41	0.6979
3545.45	0.7003
3554.5	0.714
3563.54	0.7243
3572.58	0.7369
3581.62	0.7416
3590.66	0.7453
3599.7	0.7532
3608.74	0.7628
3617.78	0.7725
3626.83	0.7733
3635.87	0.7774
3644.91	0.7862
3653.95	0.7968
3662.99	0.8008
3672.03	0.8053
3681.07	0.8122
3690.11	0.8141
3699.16	0.815
3708.2	0.8165
3717.24	0.8198
3726.28	0.8187
3735.32	0.8178
3744.36	0.8201
3753.4	0.8225
3762.44	0.8255
3771.49	0.8231
3780.53	0.8125
3789.57	0.8105
3798.61	0.8138
3807.65	0.8176
3816.69	0.8218
3825.73	0.8269
3834.77	0.8316
3843.82	0.8319
3852.86	0.8246
3861.9	0.8149
3870.94	0.8118
3879.98	0.814
3889.02	0.8177
3898.06	0.8207
3907.1	0.8168
3916.15	0.8169
3925.19	0.8207
3934.23	0.8173
3943.27	0.8147
3952.31	0.8157
3961.35	0.8189
3970.39	0.8213
3979.43	0.8205
3988.48	0.819
3997.52	0.8173
4006.56	0.8164
4015.6	0.8145
