Infrared Spectrum: L-9(3-DIMETHYLAMINOPROPYL) 10-METHYL-2-TRIFLUOROMETHYL-9,10-DIHYDROANTHRACENE, HYDROCHLORIDE
Formula: C21 H25 Cl F3 N
State: SOLID (OIL MULL)
Class: COBLENTZ III
Instrument: Not specified, most likely a prism spectrometer.
Instrument parameters: NaCl PRISM
Sampling: TRANSMISSION
Resolution: 2
Origin: SMITH KLINE & FRENCH LABS.
MICROMETERS	TRANSMITTANCE
2.165	0.692
2.19879	0.692
2.23258	0.693
2.26637	0.693
2.30016	0.693
2.33394	0.691
2.36773	0.699
2.40152	0.703
2.43531	0.711
2.4691	0.713
2.50289	0.725
2.53668	0.743
2.57047	0.745
2.60426	0.746
2.63804	0.753
2.67183	0.759
2.70562	0.76
2.73941	0.766
2.7732	0.77
2.80699	0.77
2.84078	0.765
2.87457	0.752
2.90836	0.734
2.94215	0.733
2.97593	0.725
3.00972	0.724
3.04351	0.723
3.0773	0.725
3.11109	0.729
3.14488	0.734
3.17867	0.73
3.21246	0.724
3.24625	0.709
3.28003	0.653
3.31382	0.623
3.34761	0.518
3.3814	0.376
3.41519	0.269
3.44898	0.211
3.48277	0.187
3.51656	0.183
3.55035	0.245
3.58413	0.411
3.61792	0.491
3.65171	0.55
3.6855	0.573
3.71929	0.569
3.75308	0.556
3.78687	0.527
3.82066	0.5
3.85445	0.462
3.88823	0.412
3.92202	0.381
3.95581	0.375
3.9896	0.355
4.02339	0.338
4.05718	0.306
4.09097	0.288
4.12476	0.284
4.15855	0.289
4.19233	0.311
4.22612	0.323
4.25991	0.342
4.2937	0.378
4.32749	0.437
4.36128	0.522
4.39507	0.604
4.42886	0.653
4.46265	0.693
4.49644	0.724
4.53022	0.743
4.56401	0.765
4.5978	0.774
4.63159	0.798
4.66538	0.814
4.69917	0.822
4.73296	0.83
4.76675	0.84
4.80054	0.856
4.83432	0.866
4.86811	0.867
4.9019	0.872
4.93569	0.875
4.96948	0.877
5.00327	0.883
5.03706	0.893
5.07085	0.891
5.10464	0.899
5.13842	0.9
5.17221	0.895
5.206	0.888
5.23979	0.889
5.27358	0.89
5.30737	0.891
5.34116	0.9
5.37495	0.902
5.40874	0.903
5.44252	0.905
5.47631	0.905
5.5101	0.908
5.54389	0.912
5.57768	0.913
5.61147	0.913
5.64526	0.914
5.67905	0.918
5.71284	0.917
5.74662	0.917
5.78041	0.913
5.8142	0.907
5.84799	0.903
5.88178	0.902
5.91557	0.906
5.94936	0.893
5.98315	0.888
6.01694	0.888
6.05073	0.885
6.08451	0.882
6.1183	0.867
6.15209	0.828
6.18588	0.813
6.21967	0.82
6.25346	0.83
6.28725	0.84
6.32104	0.841
6.35483	0.824
6.38861	0.841
6.4224	0.843
6.45619	0.852
6.48998	0.864
6.52377	0.865
6.55756	0.865
6.59135	0.859
6.62514	0.85
6.65893	0.807
6.69271	0.633
6.7265	0.475
6.76029	0.407
6.79408	0.334
6.82787	0.251
6.86166	0.223
6.89545	0.204
6.92924	0.265
6.96303	0.307
6.99681	0.317
7.0306	0.337
7.06439	0.493
7.09818	0.605
7.13197	0.677
7.16576	0.674
7.19955	0.638
7.23334	0.487
7.26713	0.393
7.30091	0.411
7.3347	0.509
7.36849	0.567
7.40228	0.548
7.43607	0.442
7.46986	0.287
7.50365	0.118
7.53744	0.081
7.57123	0.174
7.60502	0.301
7.6388	0.364
7.67259	0.387
7.70638	0.472
7.74017	0.555
7.77396	0.568
7.80775	0.497
7.84154	0.57
7.87533	0.717
7.90912	0.722
7.9429	0.693
7.97669	0.709
8.01048	0.768
8.04427	0.782
8.07806	0.778
8.11185	0.763
8.14564	0.757
8.17943	0.778
8.21322	0.771
8.247	0.748
8.28079	0.707
8.31458	0.682
8.34837	0.665
8.38216	0.661
8.41595	0.623
8.44974	0.525
8.48353	0.368
8.51732	0.278
8.5511	0.177
8.58489	0.164
8.61868	0.169
8.65247	0.199
8.68626	0.235
8.72005	0.322
8.75384	0.299
8.78763	0.228
8.82142	0.188
8.8552	0.165
8.88899	0.121
8.92278	0.098
8.95657	0.096
8.99036	0.099
9.02415	0.177
9.05794	0.269
9.09173	0.394
9.12552	0.527
9.15931	0.584
9.19309	0.588
9.22688	0.459
9.26067	0.276
9.29446	0.224
9.32825	0.402
9.36204	0.561
9.39583	0.638
9.42962	0.656
9.46341	0.646
9.49719	0.677
9.53098	0.715
9.56477	0.723
9.59856	0.694
9.63235	0.662
9.66614	0.567
9.69993	0.631
9.73372	0.74
9.76751	0.786
9.80129	0.811
9.83508	0.782
9.86887	0.703
9.90266	0.669
9.93645	0.697
9.97024	0.77
10.004	0.801
10.0378	0.819
10.0716	0.823
10.1054	0.826
10.1392	0.775
10.173	0.751
10.2068	0.754
10.2406	0.694
10.2743	0.61
10.3081	0.609
10.3419	0.709
10.3757	0.754
10.4095	0.763
10.4433	0.768
10.4771	0.775
10.5109	0.8
10.5447	0.806
10.5784	0.8
10.6122	0.786
10.646	0.79
10.6798	0.801
10.7136	0.796
10.7474	0.78
10.7812	0.745
10.815	0.728
10.8488	0.688
10.8825	0.734
10.9163	0.772
10.9501	0.759
10.9839	0.756
11.0177	0.733
11.0515	0.71
11.0853	0.721
11.1191	0.783
11.1529	0.831
11.1866	0.865
11.2204	0.883
11.2542	0.885
11.288	0.877
11.3218	0.86
11.3556	0.841
11.3894	0.848
11.4232	0.868
11.457	0.888
11.4907	0.895
11.5245	0.906
11.5583	0.912
11.5921	0.918
11.6259	0.907
11.6597	0.901
11.6935	0.896
11.7273	0.897
11.7611	0.902
11.7948	0.895
11.8286	0.883
11.8624	0.862
11.8962	0.805
11.93	0.646
11.9638	0.502
11.9976	0.466
12.0314	0.465
12.0652	0.564
12.0989	0.734
12.1327	0.823
12.1665	0.873
12.2003	0.894
12.2341	0.903
12.2679	0.896
12.3017	0.896
12.3355	0.9
12.3693	0.908
12.403	0.919
12.4368	0.923
12.4706	0.915
12.5044	0.908
12.5382	0.897
12.572	0.883
12.6058	0.875
12.6396	0.872
12.6734	0.887
12.7071	0.891
12.7409	0.883
12.7747	0.881
12.8085	0.876
12.8423	0.87
12.8761	0.862
12.9099	0.837
12.9437	0.768
12.9775	0.667
13.0112	0.531
13.045	0.439
13.0788	0.439
13.1126	0.519
13.1464	0.528
13.1802	0.462
13.214	0.383
13.2478	0.421
13.2816	0.584
13.3153	0.701
13.3491	0.736
13.3829	0.776
13.4167	0.789
13.4505	0.783
13.4843	0.784
13.5181	0.802
13.5519	0.811
13.5857	0.817
13.6194	0.817
13.6532	0.811
13.687	0.796
13.7208	0.799
13.7546	0.801
13.7884	0.801
13.8222	0.802
13.856	0.802
13.8898	0.802
13.9235	0.805
13.9573	0.801
13.9911	0.812
14.0249	0.805
14.0587	0.782
14.0925	0.781
14.1263	0.789
14.1601	0.788
14.1939	0.801
14.2276	0.829
14.2614	0.842
14.2952	0.844
14.329	0.859
14.3628	0.861
14.3966	0.855
14.4304	0.847
14.4642	0.834
14.498	0.808
14.5317	0.727
14.5655	0.646
14.5993	0.591
14.6331	0.64
14.6669	0.718
14.7007	0.748
14.7345	0.762
14.7683	0.776
14.8021	0.789
14.8358	0.794
14.8696	0.8
14.9034	0.81
14.9372	0.813
14.971	0.806
15.0048	0.776
15.0386	0.759
15.0724	0.764
