Infrared Spectrum: Urea, 1,3-bis(2-chlorocyclohexyl)-
Formula: C13 H22 Cl2 N2 O
State: SOLID (1 mg / 650 mg KBr DISC)
Class: COBLENTZ III
Instrument: PERKIN-ELMER 221 (GRATING)
Instrument parameters: FILTER AT 980 CM^-^1. GRATING 4000-1428 CM^-^1, NaCl PRISM 1428-650 CM^-^1
Resolution: 2
Origin: SOUTHERN RESEARCH INSTITUTE
1/CM	TRANSMITTANCE
591.95	0.7626
600.977	0.7535
610.005	0.7457
619.032	0.7414
628.06	0.7182
637.087	0.738
646.114	0.745
655.142	0.7519
664.169	0.7557
673.197	0.7613
682.224	0.7675
691.251	0.7736
700.279	0.7742
709.306	0.764
718.334	0.7481
727.361	0.6937
736.388	0.5841
745.416	0.7093
754.443	0.7516
763.471	0.7789
772.498	0.8014
781.525	0.8586
790.553	0.8498
799.58	0.7906
808.608	0.8238
817.635	0.8822
826.662	0.8933
835.69	0.8774
844.717	0.8268
853.744	0.8843
862.772	0.8225
871.799	0.8798
880.827	0.8959
889.854	0.893
898.881	0.8598
907.909	0.8196
916.936	0.8603
925.964	0.8911
934.991	0.8754
944.018	0.8372
953.046	0.7095
962.073	0.7811
971.101	0.8723
980.128	0.7602
989.155	0.874
998.183	0.8607
1007.21	0.8517
1016.24	0.8526
1025.27	0.8311
1034.29	0.8019
1043.32	0.8122
1052.35	0.8245
1061.37	0.8287
1070.4	0.8213
1079.43	0.7508
1088.46	0.7161
1097.48	0.8106
1106.51	0.8212
1115.54	0.7778
1124.57	0.7356
1133.59	0.7204
1142.62	0.7929
1151.65	0.7969
1160.68	0.7978
1169.7	0.7911
1178.73	0.7662
1187.76	0.717
1196.79	0.6189
1205.81	0.651
1214.84	0.6347
1223.87	0.6393
1232.9	0.6825
1241.92	0.6544
1250.95	0.5525
1259.98	0.6456
1269	0.5598
1278.03	0.6417
1287.06	0.6775
1296.09	0.7339
1305.11	0.7158
1314.14	0.4504
1323.17	0.6829
1332.2	0.7053
1341.22	0.7617
1350.25	0.7977
1359.28	0.8181
1368.31	0.8286
1377.33	0.8331
1386.36	0.8364
1395.39	0.839
1404.42	0.8409
1413.44	0.8411
1422.47	0.8367
1431.5	0.8129
1440.53	0.6892
1449.55	0.5867
1458.58	0.7366
1467.61	0.7975
1476.63	0.8006
1485.66	0.785
1494.69	0.7364
1503.72	0.6824
1512.74	0.6198
1521.77	0.5719
1530.8	0.5197
1539.83	0.4371
1548.85	0.3579
1557.88	0.2149
1566.91	0.1806
1575.94	0.2082
1584.96	0.3088
1593.99	0.4547
1603.02	0.5447
1612.05	0.4405
1621.07	0.2334
1630.1	0.13
1639.13	0.1655
1648.16	0.3427
1657.18	0.4516
1666.21	0.5328
1675.24	0.605
1684.26	0.6406
1693.29	0.7008
1702.32	0.7462
1711.35	0.7888
1720.37	0.8158
1729.4	0.8301
1738.43	0.8379
1747.46	0.846
1756.48	0.8548
1765.51	0.8627
1774.54	0.87
1783.57	0.8752
1792.59	0.8795
1801.62	0.8825
1810.65	0.885
1819.68	0.8869
1828.7	0.8883
1837.73	0.8889
1846.76	0.8896
1855.79	0.8904
1864.81	0.8912
1873.84	0.892
1882.87	0.8922
1891.9	0.892
1900.92	0.8916
1909.95	0.8912
1918.98	0.8907
1928	0.8903
1937.03	0.8903
1946.06	0.8905
1955.09	0.8906
1964.11	0.8908
1973.14	0.8908
1982.17	0.8908
1991.2	0.8907
2000.22	0.8907
2009.25	0.8906
2018.28	0.8905
2027.31	0.8901
2036.33	0.8897
2045.36	0.8893
2054.39	0.8892
2063.42	0.8893
2072.44	0.8893
2081.47	0.8894
2090.5	0.8894
2099.53	0.8893
2108.55	0.8892
2117.58	0.8889
2126.61	0.8876
2135.63	0.887
2144.66	0.8867
2153.69	0.8864
2162.72	0.8866
2171.74	0.8875
2180.77	0.8884
2189.8	0.8894
2198.83	0.8909
2207.85	0.8909
2216.88	0.8905
2225.91	0.8902
2234.94	0.8888
2243.96	0.8873
2252.99	0.8858
2262.02	0.8851
2271.05	0.8857
2280.07	0.8862
2289.1	0.8865
2298.13	0.8866
2307.16	0.8868
2316.18	0.8877
2325.21	0.8887
2334.24	0.8898
2343.26	0.8902
2352.29	0.8891
2361.32	0.8872
2370.35	0.8862
2379.37	0.8868
2388.4	0.8874
2397.43	0.8882
2406.46	0.8888
2415.48	0.8891
2424.51	0.8892
2433.54	0.8888
2442.57	0.8883
2451.59	0.8882
2460.62	0.8883
2469.65	0.8883
2478.68	0.8875
2487.7	0.8867
2496.73	0.8858
2505.76	0.8852
2514.79	0.8846
2523.81	0.8839
2532.84	0.8833
2541.87	0.8828
2550.89	0.8828
2559.92	0.8828
2568.95	0.8827
2577.98	0.8825
2587	0.8823
2596.03	0.8819
2605.06	0.8815
2614.09	0.8806
2623.11	0.8793
2632.14	0.8778
2641.17	0.8736
2650.2	0.8672
2659.22	0.8662
2668.25	0.8676
2677.28	0.8714
2686.31	0.8755
2695.33	0.8777
2704.36	0.8791
2713.39	0.8797
2722.42	0.8789
2731.44	0.8778
2740.47	0.877
2749.5	0.8762
2758.53	0.8735
2767.55	0.8668
2776.58	0.861
2785.61	0.8493
2794.63	0.8423
2803.66	0.8389
2812.69	0.8385
2821.72	0.8381
2830.74	0.8323
2839.77	0.8182
2848.8	0.7455
2857.83	0.5233
2866.85	0.4552
2875.88	0.6009
2884.91	0.7442
2893.94	0.7326
2902.96	0.7047
2911.99	0.6531
2921.02	0.5262
2930.05	0.3886
2939.07	0.3004
2948.1	0.2861
2957.13	0.3514
2966.16	0.559
2975.18	0.664
2984.21	0.7551
2993.24	0.7975
3002.26	0.807
3011.29	0.8081
3020.32	0.8051
3029.35	0.8006
3038.37	0.7965
3047.4	0.7932
3056.43	0.789
3065.46	0.7866
3074.48	0.7855
3083.51	0.7864
3092.54	0.7888
3101.57	0.7878
3110.59	0.7772
3119.62	0.7695
3128.65	0.77
3137.68	0.7741
3146.7	0.7784
3155.73	0.7816
3164.76	0.7826
3173.79	0.7793
3182.81	0.7721
3191.84	0.7638
3200.87	0.7554
3209.89	0.7469
3218.92	0.7367
3227.95	0.7234
3236.98	0.703
3246	0.6782
3255.03	0.6484
3264.06	0.6163
3273.09	0.5775
3282.11	0.5372
3291.14	0.5038
3300.17	0.4694
3309.2	0.4466
3318.22	0.4348
3327.25	0.4262
3336.28	0.4253
3345.31	0.4354
3354.33	0.4536
3363.36	0.4792
3372.39	0.5123
3381.42	0.5524
3390.44	0.6044
3399.47	0.6366
3408.5	0.6597
3417.52	0.6863
3426.55	0.707
3435.58	0.7232
3444.61	0.735
3453.63	0.7424
3462.66	0.7484
3471.69	0.7576
3480.72	0.7657
3489.74	0.7704
3498.77	0.7755
3507.8	0.7794
3516.83	0.7834
3525.85	0.7883
3534.88	0.7931
3543.91	0.7976
3552.94	0.8022
3561.96	0.8066
3570.99	0.8108
3580.02	0.8156
3589.05	0.8205
3598.07	0.8253
3607.1	0.8298
3616.13	0.834
3625.16	0.8382
3634.18	0.8426
3643.21	0.847
3652.24	0.8515
3661.26	0.8559
3670.29	0.858
3679.32	0.8601
3688.35	0.8622
3697.37	0.8637
3706.4	0.865
3715.43	0.8674
3724.46	0.8702
3733.48	0.8716
3742.51	0.8718
3751.54	0.8719
3760.57	0.8714
3769.59	0.8708
3778.62	0.8705
3787.65	0.8705
3796.68	0.8706
3805.7	0.8706
3814.73	0.8706
3823.76	0.8701
3832.79	0.8696
3841.81	0.8691
3850.84	0.8685
3859.87	0.8671
3868.89	0.8657
3877.92	0.8644
3886.95	0.8635
3895.98	0.8636
3905	0.8641
3914.03	0.8646
3923.06	0.8646
3932.09	0.8646
3941.11	0.864
3950.14	0.8634
3959.17	0.8628
3968.2	0.862
3977.22	0.861
3986.25	0.8599
3995.28	0.8593
4004.31	0.8593
