Infrared Spectrum: SODIUM CARBOXYMETHYL CELLULOSE
Formula: C17 H26 Na2 O14 X2
State: SOLID (KBr PELLET)
Class: COBLENTZ
Instrument: Not specified, most likely a prism, grating, or hybrid spectrometer.
Sampling: TRANSMISSION
Resolution: 4
Origin: WYANDOTTE CHEMICALS CORP., WYANDOTTE, MICHIGAN, USA
MICROMETERS	TRANSMITTANCE
2.033	0.983
2.07279	0.973
2.11258	0.975
2.15237	0.975
2.19217	0.971
2.23196	0.971
2.27175	0.968
2.31154	0.978
2.35133	0.98
2.39112	0.971
2.43091	0.966
2.4707	0.97
2.5105	0.97
2.55029	0.963
2.59008	0.965
2.62987	0.966
2.66966	0.955
2.70945	0.887
2.74924	0.691
2.78904	0.465
2.82883	0.328
2.86862	0.235
2.90841	0.176
2.9482	0.154
2.98799	0.146
3.02778	0.174
3.06758	0.239
3.10737	0.31
3.14716	0.401
3.18695	0.496
3.22674	0.579
3.26653	0.649
3.30632	0.697
3.34611	0.676
3.38591	0.588
3.4257	0.566
3.46549	0.589
3.50528	0.656
3.54507	0.715
3.58486	0.759
3.62465	0.782
3.66445	0.805
3.70424	0.818
3.74403	0.827
3.78382	0.85
3.82361	0.862
3.8634	0.875
3.90319	0.883
3.94299	0.887
3.98278	0.897
4.02257	0.901
4.06236	0.906
4.10215	0.911
4.14194	0.913
4.18173	0.92
4.22152	0.923
4.26132	0.941
4.30111	0.945
4.3409	0.94
4.38069	0.921
4.42048	0.92
4.46027	0.93
4.50006	0.923
4.53986	0.923
4.57965	0.921
4.61944	0.913
4.65923	0.911
4.69902	0.91
4.73881	0.911
4.7786	0.913
4.8184	0.908
4.85819	0.913
4.89798	0.911
4.93777	0.905
4.97756	0.915
5.01735	0.916
5.05714	0.915
5.09693	0.921
5.13673	0.918
5.17652	0.921
5.21631	0.923
5.2561	0.93
5.29589	0.926
5.33568	0.931
5.37547	0.935
5.41527	0.921
5.45506	0.925
5.49485	0.921
5.53464	0.921
5.57443	0.923
5.61422	0.928
5.65401	0.915
5.69381	0.908
5.7336	0.898
5.77339	0.878
5.81318	0.86
5.85297	0.838
5.89276	0.808
5.93255	0.772
5.97234	0.692
6.01214	0.599
6.05193	0.458
6.09172	0.299
6.13151	0.176
6.1713	0.126
6.21109	0.129
6.25088	0.227
6.29068	0.395
6.33047	0.568
6.37026	0.636
6.41005	0.712
6.44984	0.74
6.48963	0.759
6.52942	0.777
6.56922	0.78
6.60901	0.784
6.6488	0.765
6.68859	0.754
6.72838	0.715
6.76817	0.659
6.80796	0.606
6.84775	0.556
6.88755	0.519
6.92734	0.463
6.96713	0.382
7.00692	0.33
7.04671	0.333
7.0865	0.383
7.12629	0.451
7.16609	0.495
7.20588	0.526
7.24567	0.526
7.28546	0.546
7.32525	0.561
7.36504	0.559
7.40483	0.533
7.44463	0.503
7.48442	0.473
7.52421	0.451
7.564	0.47
7.60379	0.518
7.64358	0.543
7.68337	0.576
7.72316	0.589
7.76296	0.606
7.80275	0.611
7.84254	0.609
7.88233	0.599
7.92212	0.606
7.96191	0.619
8.0017	0.631
8.0415	0.634
8.08129	0.632
8.12108	0.632
8.16087	0.639
8.20066	0.632
8.24045	0.627
8.28024	0.607
8.32004	0.598
8.35983	0.599
8.39962	0.598
8.43941	0.588
8.4792	0.539
8.51899	0.493
8.55878	0.436
8.59857	0.382
8.63837	0.32
8.67816	0.297
8.71795	0.285
8.75774	0.267
8.79753	0.247
8.83732	0.225
8.87711	0.186
8.91691	0.172
8.9567	0.152
8.99649	0.134
9.03628	0.129
9.07607	0.127
9.11586	0.122
9.15565	0.122
9.19545	0.112
9.23524	0.104
9.27503	0.091
9.31482	0.079
9.35461	0.076
9.3944	0.069
9.43419	0.066
9.47398	0.068
9.51378	0.076
9.55357	0.088
9.59336	0.099
9.63315	0.107
9.67294	0.106
9.71273	0.107
9.75252	0.101
9.79232	0.111
9.83211	0.122
9.8719	0.146
9.91169	0.182
9.95148	0.2
9.99127	0.22
10.0311	0.254
10.0709	0.272
10.1106	0.332
10.1504	0.387
10.1902	0.44
10.23	0.486
10.2698	0.519
10.3096	0.553
10.3494	0.579
10.3892	0.591
10.429	0.598
10.4688	0.602
10.5086	0.614
10.5484	0.621
10.5881	0.632
10.6279	0.644
10.6677	0.649
10.7075	0.642
10.7473	0.651
10.7871	0.646
10.8269	0.657
10.8667	0.651
10.9065	0.651
10.9463	0.649
10.9861	0.649
11.0258	0.647
11.0656	0.647
11.1054	0.647
11.1452	0.647
11.185	0.649
11.2248	0.654
11.2646	0.667
11.3044	0.684
11.3442	0.697
11.384	0.71
11.4238	0.725
11.4636	0.732
11.5033	0.739
11.5431	0.742
11.5829	0.747
11.6227	0.749
11.6625	0.75
11.7023	0.75
11.7421	0.752
11.7819	0.752
11.8217	0.752
11.8615	0.749
11.9013	0.745
11.941	0.745
11.9808	0.749
12.0206	0.749
12.0604	0.744
12.1002	0.737
12.14	0.734
12.1798	0.735
12.2196	0.737
12.2594	0.735
12.2992	0.73
12.339	0.724
12.3788	0.722
12.4185	0.72
12.4583	0.714
12.4981	0.679
12.5379	0.656
12.5777	0.626
12.6175	0.594
12.6573	0.584
12.6971	0.574
12.7369	0.569
12.7767	0.573
12.8165	0.584
12.8563	0.599
12.896	0.614
12.9358	0.607
12.9756	0.611
13.0154	0.606
13.0552	0.591
13.095	0.589
13.1348	0.586
13.1746	0.584
13.2144	0.591
13.2542	0.599
13.294	0.604
13.3337	0.609
13.3735	0.627
13.4133	0.631
13.4531	0.632
13.4929	0.637
13.5327	0.631
13.5725	0.631
13.6123	0.631
13.6521	0.626
13.6919	0.624
13.7317	0.622
13.7715	0.619
13.8112	0.614
13.851	0.614
13.8908	0.607
13.9306	0.606
13.9704	0.606
14.0102	0.609
14.05	0.614
14.0898	0.609
14.1296	0.607
14.1694	0.609
14.2092	0.609
14.2489	0.612
14.2887	0.614
14.3285	0.616
14.3683	0.619
14.4081	0.624
14.4479	0.622
14.4877	0.624
14.5275	0.629
14.5673	0.629
14.6071	0.632
14.6469	0.636
14.6867	0.636
14.7264	0.637
14.7662	0.637
14.806	0.634
14.8458	0.629
14.8856	0.631
14.9254	0.634
14.9652	0.624
15.005	0.606
15.0448	0.591
15.0846	0.594
15.1244	0.602
15.1641	0.611
15.2039	0.607
15.2437	0.609
15.2835	0.611
15.3233	0.607
15.3631	0.609
15.4029	0.609
15.4427	0.609
15.4825	0.609
15.5223	0.609
15.5621	0.611
15.6019	0.606
15.6416	0.612
15.6814	0.607
15.7212	0.606
15.761	0.602
15.8008	0.602
15.8406	0.604
15.8804	0.601
15.9202	0.593
15.96	0.588
15.9998	0.583
