Infrared Spectrum: Phosphate, tris(2-diethylaminoethyl)-, trihydrochloride
Formula: C18 H45 Cl3 N3 O4 P
State: SOLID (OIL MULL)
Class: COBLENTZ III
Instrument: PERKIN-ELMER 21 (GRATING)
Instrument parameters: NaCl PRISM
Sampling: TRANSMISSION
Resolution: 2
Origin: SMITH KLINE & FRENCH LABS.
1/CM	TRANSMITTANCE
667	0.7847
676	0.807
685	0.8155
694	0.8356
703	0.8469
712	0.8301
721	0.7998
730	0.8039
739	0.7416
748	0.5803
757	0.6943
766	0.7573
775	0.8578
784	0.8545
793	0.8005
802	0.547
811	0.5709
820	0.799
829	0.7053
838	0.5283
847	0.7319
856	0.8373
865	0.857
874	0.861
883	0.7923
892	0.7153
901	0.6299
910	0.7439
919	0.7963
928	0.7973
937	0.7788
946	0.7376
955	0.5747
964	0.386
973	0.4114
982	0.2212
991	0.3022
1000	0.3661
1009	0.1164
1018	0.091
1027	0.1013
1036	0.2134
1045	0.1384
1054	0.118
1063	0.1677
1072	0.2394
1081	0.1207
1090	0.1833
1099	0.4629
1108	0.7052
1117	0.7581
1126	0.7623
1135	0.7996
1144	0.7819
1153	0.7574
1162	0.6826
1171	0.6745
1180	0.5689
1189	0.8181
1198	0.8257
1207	0.8135
1216	0.8159
1225	0.7971
1234	0.764
1243	0.6821
1252	0.2911
1261	0.1691
1270	0.1515
1279	0.3363
1288	0.5853
1297	0.6676
1306	0.6157
1315	0.6845
1324	0.6944
1333	0.6648
1342	0.6809
1351	0.6563
1360	0.5901
1369	0.3881
1378	0.2796
1387	0.2783
1396	0.4165
1405	0.4404
1414	0.6838
1423	0.7052
1432	0.5464
1441	0.2772
1450	0.2289
1459	0.1551
1468	0.1271
1477	0.2182
1486	0.2921
1495	0.5326
1504	0.7561
1513	0.7985
1522	0.8141
1531	0.8257
1540	0.8226
1549	0.8221
1558	0.8331
1567	0.8234
1576	0.8443
1585	0.8682
1594	0.8806
1603	0.8899
1612	0.903
1621	0.904
1630	0.9037
1639	0.9126
1648	0.9104
1657	0.9102
1666	0.9111
1675	0.9091
1684	0.9091
1693	0.9126
1702	0.9068
1711	0.9117
1720	0.9135
1729	0.9142
1738	0.9147
1747	0.915
1756	0.9137
1765	0.9115
1774	0.9127
1783	0.9119
1792	0.9133
1801	0.9159
1810	0.915
1819	0.9132
1828	0.9098
1837	0.9074
1846	0.909
1855	0.9102
1864	0.9096
1873	0.9081
1882	0.9057
1891	0.9031
1900	0.9001
1909	0.8964
1918	0.8901
1927	0.8892
1936	0.8892
1945	0.8869
1954	0.8896
1963	0.9022
1972	0.9026
1981	0.8996
1990	0.8962
1999	0.8926
2008	0.8937
2017	0.8935
2026	0.8905
2035	0.8771
2044	0.8665
2053	0.8627
2062	0.862
2071	0.8607
2080	0.8577
2089	0.8525
2098	0.8506
2107	0.8533
2116	0.8333
2125	0.8263
2134	0.8231
2143	0.8204
2152	0.8178
2161	0.8161
2170	0.8132
2179	0.8076
2188	0.7927
2197	0.7779
2206	0.762
2215	0.747
2224	0.7386
2233	0.7233
2242	0.695
2251	0.6822
2260	0.6656
2269	0.649
2278	0.6292
2287	0.6093
2296	0.5804
2305	0.5413
2314	0.5108
2323	0.5014
2332	0.465
2341	0.4003
2350	0.3763
2359	0.3563
2368	0.3482
2377	0.3454
2386	0.341
2395	0.3269
2404	0.3093
2413	0.2944
2422	0.273
2431	0.2466
2440	0.2211
2449	0.1947
2458	0.1675
2467	0.1439
2476	0.1143
2485	0.1004
2494	0.1021
2503	0.1255
2512	0.1523
2521	0.1646
2530	0.1646
2539	0.1628
2548	0.1598
2557	0.1504
2566	0.1394
2575	0.1311
2584	0.121
2593	0.1182
2602	0.1279
2611	0.1437
2620	0.1609
2629	0.1761
2638	0.1888
2647	0.201
2656	0.2129
2665	0.2457
2674	0.3063
2683	0.3662
2692	0.4108
2701	0.4246
2710	0.4254
2719	0.4147
2728	0.4088
2737	0.4121
2746	0.4378
2755	0.4525
2764	0.4547
2773	0.4551
2782	0.4279
2791	0.3904
2800	0.3779
2809	0.3493
2818	0.2978
2827	0.2467
2836	0.196
2845	0.1455
2854	0.1011
2863	0.0855
2872	0.0774
2881	0.0735
2890	0.0729
2899	0.0733
2908	0.0744
2917	0.0754
2926	0.0777
2935	0.0815
2944	0.0862
2953	0.0939
2962	0.1277
2971	0.2139
2980	0.2997
2989	0.3851
2998	0.4699
3007	0.5564
3016	0.6221
3025	0.6745
3034	0.7066
3043	0.7318
3052	0.7532
3061	0.7901
3070	0.8114
3079	0.8222
3088	0.8316
3097	0.8357
3106	0.8393
3115	0.8427
3124	0.8459
3133	0.8491
3142	0.8544
3151	0.8614
3160	0.8654
3169	0.8693
3178	0.8694
3187	0.8696
3196	0.8689
3205	0.8676
3214	0.8663
3223	0.865
3232	0.8648
3241	0.8649
3250	0.865
3259	0.864
3268	0.861
3277	0.8585
3286	0.8567
3295	0.8549
3304	0.8534
3313	0.8518
3322	0.8495
3331	0.8465
3340	0.8446
3349	0.8446
3358	0.8453
3367	0.8486
3376	0.8528
3385	0.8586
3394	0.8623
3403	0.8646
3412	0.8644
3421	0.8634
3430	0.8631
3439	0.8681
3448	0.8752
3457	0.8796
3466	0.8828
3475	0.8855
3484	0.887
3493	0.8884
3502	0.8898
3511	0.8909
3520	0.8915
3529	0.892
3538	0.8926
3547	0.8923
3556	0.8916
3565	0.8904
3574	0.8881
3583	0.8858
3592	0.8834
3601	0.8811
3610	0.8786
3619	0.8759
3628	0.8733
3637	0.8714
3646	0.8711
3655	0.8706
3664	0.8703
3673	0.872
3682	0.8743
3691	0.8764
3700	0.8775
3709	0.8785
3718	0.8784
3727	0.8778
3736	0.8771
3745	0.8764
3754	0.8752
3763	0.8737
3772	0.8723
3781	0.8708
3790	0.8704
3799	0.8704
3808	0.8706
3817	0.8707
3826	0.8712
3835	0.8721
3844	0.8731
3853	0.8741
3862	0.8736
3871	0.8709
3880	0.868
3889	0.865
3898	0.8604
3907	0.8552
3916	0.8514
3925	0.8478
3934	0.8443
3943	0.8407
3952	0.8382
3961	0.8356
3970	0.8332
3979	0.8313
3988	0.8306
3997	0.8299
