Infrared Spectrum: 1,4-Butanediamine, N-(3-aminopropyl)-, phosphate (1 to 1)
Formula: C7 H22 N3 O4 P
State: SOLID (SPLIT MULL), FLUOROLUBE FOR 3800-1330 CM^-^1, NUJOL FOR 1330-400 CM^-^1
Class: COBLENTZ III
Instrument: BECKMAN IR-9 (GRATING)
Instrument parameters: ORDER CHANGES: 670, 1200, 2000 CM^-^1
Sampling: TRANSMISSION
Resolution: 2
Origin: DOW CHEMICAL COMPANY
1/CM	TRANSMITTANCE
403	0.3205
412	0.3261
421	0.3489
430	0.3852
439	0.4265
448	0.4695
457	0.4703
466	0.4414
475	0.3663
484	0.2912
493	0.1911
502	0.1426
511	0.1678
520	0.1552
529	0.1299
538	0.2123
547	0.2951
556	0.3339
565	0.5389
574	0.6752
583	0.7988
592	0.8371
601	0.8551
610	0.8604
619	0.859
628	0.8501
637	0.8343
646	0.8169
655	0.7982
664	0.7778
673	0.7609
682	0.7528
691	0.7219
700	0.6696
709	0.6111
718	0.5334
727	0.4535
736	0.4702
745	0.4553
754	0.4237
763	0.3781
772	0.3581
781	0.373
790	0.4283
799	0.43
808	0.4028
817	0.3671
826	0.3367
835	0.3007
844	0.264
853	0.2338
862	0.221
871	0.1921
880	0.1578
889	0.1167
898	0.1105
907	0.1323
916	0.1242
925	0.086
934	0.0503
943	0.0359
952	0.0363
961	0.036
970	0.0472
979	0.0675
988	0.0814
997	0.0871
1006	0.075
1015	0.0589
1024	0.0465
1033	0.0341
1042	0.0278
1051	0.0326
1060	0.0398
1069	0.0527
1078	0.0706
1087	0.0929
1096	0.0997
1105	0.0939
1114	0.0789
1123	0.0619
1132	0.0521
1141	0.0661
1150	0.0948
1159	0.1366
1168	0.1849
1177	0.1875
1186	0.2077
1195	0.2343
1204	0.2564
1213	0.2654
1222	0.2769
1231	0.2938
1240	0.3148
1249	0.3339
1258	0.322
1267	0.3544
1276	0.3697
1285	0.4343
1294	0.4733
1303	0.5005
1312	0.5315
1321	0.5574
1330	0.5685
1339	0.6265
1348	0.6564
1357	0.7827
1366	0.836
1375	0.8477
1384	0.8225
1393	0.802
1402	0.5244
1411	0.6807
1420	0.8054
1429	0.8328
1438	0.8265
1447	0.7823
1456	0.7203
1465	0.6414
1474	0.4785
1483	0.4974
1492	0.562
1501	0.5535
1510	0.4833
1519	0.5285
1528	0.4809
1537	0.3691
1546	0.3842
1555	0.4288
1564	0.3894
1573	0.5271
1582	0.6065
1591	0.6048
1600	0.5682
1609	0.4702
1618	0.3644
1627	0.2101
1636	0.2446
1645	0.4267
1654	0.5087
1663	0.5578
1672	0.5734
1681	0.5963
1690	0.6165
1699	0.6358
1708	0.6543
1717	0.6722
1726	0.6866
1735	0.6986
1744	0.7123
1753	0.726
1762	0.7413
1771	0.757
1780	0.7714
1789	0.7861
1798	0.7997
1807	0.8124
1816	0.8255
1825	0.8353
1834	0.8434
1843	0.85
1852	0.8551
1861	0.8585
1870	0.8622
1879	0.8661
1888	0.869
1897	0.8703
1906	0.8706
1915	0.87
1924	0.867
1933	0.8603
1942	0.852
1951	0.8432
1960	0.8332
1969	0.8228
1978	0.8119
1987	0.7972
1996	0.7778
2005	0.6003
2014	0.3672
2023	0.3577
2032	0.3485
2041	0.3363
2050	0.324
2059	0.3111
2068	0.2972
2077	0.2824
2086	0.2687
2095	0.2554
2104	0.2442
2113	0.2344
2122	0.2257
2131	0.2195
2140	0.2133
2149	0.2078
2158	0.2029
2167	0.1984
2176	0.1943
2185	0.1909
2194	0.1878
2203	0.1843
2212	0.1804
2221	0.1764
2230	0.1721
2239	0.1673
2248	0.1618
2257	0.1561
2266	0.1504
2275	0.1446
2284	0.1387
2293	0.1327
2302	0.1272
2311	0.1218
2320	0.1177
2329	0.1148
2338	0.1136
2347	0.1137
2356	0.1137
2365	0.1134
2374	0.1132
2383	0.1128
2392	0.1124
2401	0.1114
2410	0.1103
2419	0.1094
2428	0.1083
2437	0.1061
2446	0.1039
2455	0.1008
2464	0.0972
2473	0.0934
2482	0.0905
2491	0.0894
2500	0.0884
2509	0.0872
2518	0.0859
2527	0.0843
2536	0.0806
2545	0.0725
2554	0.0643
2563	0.0606
2572	0.0603
2581	0.0618
2590	0.0649
2599	0.0664
2608	0.0662
2617	0.0645
2626	0.0615
2635	0.0588
2644	0.0559
2653	0.0526
2662	0.0495
2671	0.0463
2680	0.0438
2689	0.0412
2698	0.0392
2707	0.0376
2716	0.036
2725	0.035
2734	0.034
2743	0.033
2752	0.0321
2761	0.0312
2770	0.0303
2779	0.0294
2788	0.0289
2797	0.0288
2806	0.0288
2815	0.0288
2824	0.0291
2833	0.0294
2842	0.0297
2851	0.0299
2860	0.0302
2869	0.0306
2878	0.031
2887	0.0314
2896	0.0319
2905	0.0322
2914	0.0327
2923	0.0331
2932	0.0336
2941	0.034
2950	0.0347
2959	0.0353
2968	0.036
2977	0.0367
2986	0.0375
2995	0.0383
3004	0.0391
3013	0.0394
3022	0.0399
3031	0.0404
3040	0.0413
3049	0.0421
3058	0.0435
3067	0.0448
3076	0.0473
3085	0.0505
3094	0.0545
3103	0.059
3112	0.0656
3121	0.0733
3130	0.0814
3139	0.0905
3148	0.1007
3157	0.1128
3166	0.1254
3175	0.1388
3184	0.1527
3193	0.1674
3202	0.1842
3211	0.2047
3220	0.2291
3229	0.2509
3238	0.2681
3247	0.2817
3256	0.295
3265	0.3082
3274	0.3214
3283	0.3371
3292	0.3515
3301	0.3694
3310	0.3917
3319	0.4033
3328	0.4191
3337	0.4309
3346	0.4418
3355	0.452
3364	0.4625
3373	0.4736
3382	0.4849
3391	0.4972
3400	0.5091
3409	0.5194
3418	0.527
3427	0.5331
3436	0.5365
3445	0.5359
3454	0.5333
3463	0.5284
3472	0.5241
3481	0.5232
3490	0.5285
3499	0.5422
3508	0.5573
3517	0.5771
3526	0.5956
3535	0.6125
3544	0.6319
3553	0.6514
3562	0.6712
3571	0.6897
3580	0.7062
3589	0.7238
3598	0.742
3607	0.7611
3616	0.7797
3625	0.7969
3634	0.8125
3643	0.8254
3652	0.8366
3661	0.8401
3670	0.8385
3679	0.8383
3688	0.8354
3697	0.8316
3706	0.8275
3715	0.8231
3724	0.8187
3733	0.8141
3742	0.8094
3751	0.8044
3760	0.7998
3769	0.7958
3778	0.7919
3787	0.7886
3796	0.7852
