Infrared Spectrum: PULEGONE, 2,4-DINITROPHENYL HYDRAZONE
Formula: C16 H20 N4 O4
State: SOLID (KBr PELLET)
Melting point: 142 C
Class: COBLENTZ
Instrument: Not specified, most likely a grating spectrometer.
Sampling: TRANSMISSION
Resolution: 4
Origin: CITRUS EXPERIMENT STATION, UNIVERSITY OF FLORIDA (G. EDWARDS)
MICROMETERS	TRANSMITTANCE
2.02	0.692
2.05335	0.696
2.0867	0.698
2.12005	0.7
2.1534	0.701
2.18675	0.702
2.2201	0.705
2.25345	0.708
2.28681	0.712
2.32016	0.714
2.35351	0.718
2.38686	0.722
2.42021	0.726
2.45356	0.729
2.48691	0.73
2.52026	0.732
2.55361	0.737
2.58696	0.738
2.62031	0.738
2.65366	0.738
2.68701	0.732
2.72036	0.724
2.75371	0.714
2.78706	0.706
2.82042	0.693
2.85377	0.684
2.88712	0.678
2.92047	0.681
2.95382	0.696
2.98717	0.68
3.02052	0.434
3.05387	0.724
3.08722	0.766
3.12057	0.79
3.15392	0.801
3.18727	0.786
3.22062	0.697
3.25397	0.764
3.28732	0.758
3.32068	0.73
3.35403	0.609
3.38738	0.448
3.42073	0.462
3.45408	0.541
3.48743	0.581
3.52078	0.685
3.55413	0.725
3.58748	0.74
3.62083	0.748
3.65418	0.752
3.68753	0.752
3.72088	0.752
3.75423	0.756
3.78758	0.756
3.82093	0.764
3.85429	0.765
3.88764	0.765
3.92099	0.765
3.95434	0.77
3.98769	0.77
4.02104	0.765
4.05439	0.762
4.08774	0.764
4.12109	0.765
4.15444	0.765
4.18779	0.765
4.22114	0.772
4.25449	0.776
4.28784	0.78
4.32119	0.778
4.35454	0.778
4.3879	0.777
4.42125	0.778
4.4546	0.782
4.48795	0.786
4.5213	0.786
4.55465	0.784
4.588	0.786
4.62135	0.79
4.6547	0.79
4.68805	0.79
4.7214	0.79
4.75475	0.792
4.7881	0.792
4.82145	0.789
4.8548	0.789
4.88816	0.79
4.92151	0.792
4.95486	0.793
4.98821	0.789
5.02156	0.792
5.05491	0.786
5.08826	0.781
5.12161	0.785
5.15496	0.797
5.18831	0.798
5.22166	0.798
5.25501	0.797
5.28836	0.798
5.32171	0.798
5.35506	0.796
5.38841	0.796
5.42177	0.792
5.45512	0.777
5.48847	0.788
5.52182	0.79
5.55517	0.794
5.58852	0.796
5.62187	0.793
5.65522	0.792
5.68857	0.786
5.72192	0.789
5.75527	0.792
5.78862	0.788
5.82197	0.786
5.85532	0.772
5.88867	0.772
5.92203	0.758
5.95538	0.746
5.98873	0.724
6.02208	0.709
6.05543	0.636
6.08878	0.58
6.12213	0.321
6.15548	0.1
6.18883	0.082
6.22218	0.221
6.25553	0.25
6.28888	0.048
6.32223	0.201
6.35558	0.462
6.38893	0.605
6.42228	0.653
6.45564	0.59
6.48899	0.422
6.52234	0.401
6.55569	0.25
6.58904	0.194
6.62239	0.152
6.65574	0.182
6.68909	0.41
6.72244	0.57
6.75579	0.624
6.78914	0.622
6.82249	0.561
6.85584	0.517
6.88919	0.506
6.92254	0.452
6.9559	0.4
6.98925	0.441
7.0226	0.402
7.05595	0.19
7.0893	0.25
7.12265	0.624
7.156	0.712
7.18935	0.7
7.2227	0.66
7.25605	0.534
7.2894	0.369
7.32275	0.372
7.3561	0.472
7.38945	0.444
7.4228	0.306
7.45615	0.092
7.48951	0.002
7.52286	0.052
7.55621	0.272
7.58956	0.23
7.62291	0.072
7.65626	0.054
7.68961	0.16
7.72296	0.312
7.75631	0.361
7.78966	0.34
7.82301	0.234
7.85636	0.154
7.88971	0.117
7.92306	0.052
7.95641	0.024
7.98977	0.081
8.02312	0.308
8.05647	0.45
8.08982	0.54
8.12317	0.533
8.15652	0.453
8.18987	0.322
8.22322	0.185
8.25657	0.314
8.28992	0.497
8.32327	0.582
8.35662	0.62
8.38997	0.65
8.42332	0.664
8.45667	0.673
8.49002	0.685
8.52338	0.702
8.55673	0.712
8.59008	0.709
8.62343	0.702
8.65678	0.701
8.69013	0.682
8.72348	0.602
8.75683	0.492
8.79018	0.402
8.82353	0.305
8.85688	0.176
8.89023	0.129
8.92358	0.19
8.95693	0.306
8.99028	0.416
9.02363	0.494
9.05699	0.53
9.09034	0.552
9.12369	0.557
9.15704	0.549
9.19039	0.529
9.22374	0.474
9.25709	0.413
9.29044	0.414
9.32379	0.494
9.35714	0.561
9.39049	0.601
9.42384	0.602
9.45719	0.537
9.49054	0.462
9.52389	0.513
9.55725	0.602
9.5906	0.665
9.62395	0.696
9.6573	0.71
9.69065	0.717
9.724	0.72
9.75735	0.72
9.7907	0.717
9.82405	0.713
9.8574	0.696
9.89075	0.676
9.9241	0.69
9.95745	0.72
9.9908	0.736
10.0242	0.737
10.0575	0.736
10.0909	0.732
10.1242	0.729
10.1576	0.721
10.1909	0.72
10.2243	0.724
10.2576	0.73
10.291	0.729
10.3243	0.726
10.3577	0.733
10.391	0.748
10.4244	0.753
10.4577	0.753
10.4911	0.752
10.5244	0.744
10.5578	0.737
10.5911	0.74
10.6245	0.746
10.6578	0.742
10.6912	0.736
10.7245	0.721
10.7579	0.69
10.7912	0.621
10.8246	0.481
10.8579	0.48
10.8913	0.496
10.9246	0.52
10.958	0.601
10.9913	0.676
11.0247	0.716
11.058	0.732
11.0914	0.74
11.1247	0.744
11.1581	0.749
11.1914	0.748
11.2248	0.744
11.2581	0.74
11.2915	0.73
11.3248	0.71
11.3582	0.696
11.3915	0.701
11.4249	0.72
11.4582	0.732
11.4916	0.74
11.5249	0.745
11.5583	0.749
11.5916	0.749
11.625	0.742
11.6583	0.733
11.6917	0.73
11.725	0.732
11.7584	0.742
11.7917	0.746
11.8251	0.741
11.8584	0.736
11.8918	0.721
11.9251	0.682
11.9585	0.593
11.9918	0.461
12.0252	0.356
12.0585	0.428
12.0919	0.576
12.1252	0.696
12.1586	0.726
12.1919	0.734
12.2253	0.737
12.2586	0.74
12.292	0.741
12.3253	0.744
12.3587	0.742
12.392	0.742
12.4254	0.742
12.4588	0.741
12.4921	0.738
12.5255	0.73
12.5588	0.722
12.5922	0.716
12.6255	0.71
12.6589	0.705
12.6922	0.702
12.7256	0.701
12.7589	0.704
12.7923	0.708
12.8256	0.71
12.859	0.713
12.8923	0.713
12.9257	0.713
12.959	0.712
12.9924	0.71
13.0257	0.705
13.0591	0.7
13.0924	0.682
13.1258	0.652
13.1591	0.658
13.1925	0.682
13.2258	0.693
13.2592	0.692
13.2925	0.69
13.3259	0.685
13.3592	0.669
13.3926	0.641
13.4259	0.564
13.4593	0.44
13.4926	0.312
13.526	0.312
13.5593	0.452
13.5927	0.573
13.626	0.645
13.6594	0.665
13.6927	0.67
13.7261	0.669
13.7594	0.664
13.7928	0.661
13.8261	0.658
13.8595	0.656
13.8928	0.664
13.9262	0.67
13.9595	0.672
13.9929	0.668
14.0262	0.661
14.0596	0.66
14.0929	0.653
14.1263	0.649
14.1596	0.641
14.193	0.63
14.2263	0.618
14.2597	0.593
14.293	0.552
14.3264	0.502
14.3597	0.461
14.3931	0.453
14.4264	0.469
14.4598	0.509
14.4931	0.546
14.5265	0.568
14.5598	0.568
14.5932	0.568
14.6265	0.569
14.6599	0.574
14.6932	0.58
14.7266	0.588
14.7599	0.594
14.7933	0.594
14.8266	0.592
14.86	0.584
14.8933	0.573
14.9267	0.556
14.96	0.556
14.9934	0.558
