Infrared Spectrum: Formimidic acid, N-6-(chloropurin-2-yl), ethyl ester
Formula: C8 H8 Cl N5 O
State: SOLID (KBr DISC)
Class: COBLENTZ III
Instrument: PERKIN-ELMER 21 (GRATING)
Instrument parameters: FILTER CHANGE ABOUT 1090 CM^-^1
Sampling: TRANSMISSION
Resolution: 2
Origin: SOUTHERN RESEARCH INSTITUTE
1/CM	TRANSMITTANCE
595.97	0.8576
605.031	0.8723
614.092	0.8343
623.153	0.7662
632.214	0.7623
641.275	0.8476
650.336	0.9212
659.396	0.9148
668.457	0.9141
677.518	0.8842
686.579	0.8267
695.64	0.7998
704.701	0.86
713.762	0.8476
722.823	0.7833
731.884	0.7653
740.945	0.7973
750.006	0.7843
759.067	0.7701
768.127	0.76
777.188	0.7062
786.249	0.6781
795.31	0.6314
804.371	0.7143
813.432	0.704
822.493	0.6899
831.554	0.6652
840.615	0.633
849.676	0.6524
858.737	0.7041
867.798	0.7285
876.858	0.7442
885.919	0.7565
894.98	0.7451
904.041	0.6998
913.102	0.5874
922.163	0.5716
931.224	0.5965
940.285	0.7238
949.346	0.7753
958.407	0.7872
967.468	0.8121
976.529	0.8473
985.589	0.851
994.65	0.8409
1003.71	0.8298
1012.77	0.8159
1021.83	0.798
1030.89	0.7738
1039.95	0.7462
1049.02	0.7638
1058.08	0.7668
1067.14	0.7698
1076.2	0.7717
1085.26	0.7764
1094.32	0.7689
1103.38	0.7462
1112.44	0.7425
1121.5	0.7455
1130.56	0.7492
1139.63	0.7452
1148.69	0.7382
1157.75	0.7309
1166.81	0.7064
1175.87	0.6681
1184.93	0.5845
1193.99	0.4978
1203.05	0.4541
1212.11	0.4021
1221.17	0.3292
1230.23	0.2529
1239.3	0.2107
1248.36	0.2167
1257.42	0.2689
1266.48	0.3749
1275.54	0.5023
1284.6	0.4949
1293.66	0.4606
1302.72	0.537
1311.78	0.6569
1320.84	0.7021
1329.9	0.6949
1338.97	0.6598
1348.03	0.5371
1357.09	0.5902
1366.15	0.5217
1375.21	0.3672
1384.27	0.2349
1393.33	0.217
1402.39	0.3312
1411.45	0.5008
1420.51	0.6429
1429.57	0.6368
1438.64	0.5827
1447.7	0.4568
1456.76	0.5728
1465.82	0.6491
1474.88	0.627
1483.94	0.5503
1493	0.4941
1502.06	0.4546
1511.12	0.3984
1520.18	0.4006
1529.24	0.4886
1538.31	0.5189
1547.37	0.5633
1556.43	0.5609
1565.49	0.4426
1574.55	0.3362
1583.61	0.2704
1592.67	0.3493
1601.73	0.3771
1610.79	0.2741
1619.85	0.2417
1628.91	0.2516
1637.98	0.3855
1647.04	0.4996
1656.1	0.5002
1665.16	0.422
1674.22	0.2982
1683.28	0.2137
1692.34	0.2035
1701.4	0.2123
1710.46	0.2438
1719.52	0.4206
1728.58	0.6141
1737.65	0.7478
1746.71	0.7997
1755.77	0.8278
1764.83	0.8494
1773.89	0.864
1782.95	0.874
1792.01	0.8798
1801.07	0.8864
1810.13	0.899
1819.19	0.9077
1828.25	0.9118
1837.32	0.9134
1846.38	0.9142
1855.44	0.9153
1864.5	0.9188
1873.56	0.9227
1882.62	0.9264
1891.68	0.9293
1900.74	0.9327
1909.8	0.9353
1918.86	0.9373
1927.92	0.9386
1936.99	0.9398
1946.05	0.9401
1955.11	0.9404
1964.17	0.9418
1973.23	0.9433
1982.29	0.9444
1991.35	0.9471
2000.41	0.9485
2009.47	0.9476
2018.53	0.9444
2027.59	0.9443
2036.66	0.9431
2045.72	0.943
2054.78	0.9461
2063.84	0.9455
2072.9	0.9457
2081.96	0.9438
2091.02	0.9414
2100.08	0.9391
2109.14	0.9374
2118.2	0.9357
2127.27	0.9343
2136.33	0.9333
2145.39	0.9322
2154.45	0.9308
2163.51	0.9293
2172.57	0.9278
2181.63	0.9263
2190.69	0.9243
2199.75	0.922
2208.81	0.9192
2217.87	0.9161
2226.94	0.9131
2236	0.91
2245.06	0.907
2254.12	0.9044
2263.18	0.9018
2272.24	0.8985
2281.3	0.8941
2290.36	0.8838
2299.42	0.8738
2308.48	0.8666
2317.54	0.8591
2326.61	0.8517
2335.67	0.8498
2344.73	0.852
2353.79	0.8576
2362.85	0.8601
2371.91	0.8617
2380.97	0.8635
2390.03	0.8619
2399.09	0.8565
2408.15	0.8504
2417.21	0.8477
2426.28	0.8433
2435.34	0.833
2444.4	0.8257
2453.46	0.8183
2462.52	0.8112
2471.58	0.805
2480.64	0.7988
2489.7	0.791
2498.76	0.7836
2507.82	0.7765
2516.88	0.7699
2525.95	0.7648
2535.01	0.7611
2544.07	0.7595
2553.13	0.759
2562.19	0.7591
2571.25	0.7629
2580.31	0.76
2589.37	0.7542
2598.43	0.7515
2607.49	0.7457
2616.55	0.7396
2625.62	0.7328
2634.68	0.725
2643.74	0.717
2652.8	0.7089
2661.86	0.7001
2670.92	0.6905
2679.98	0.68
2689.04	0.67
2698.1	0.6604
2707.16	0.6518
2716.22	0.6431
2725.29	0.6342
2734.35	0.6253
2743.41	0.6162
2752.47	0.6069
2761.53	0.597
2770.59	0.5891
2779.65	0.5849
2788.71	0.5816
2797.77	0.578
2806.83	0.5739
2815.89	0.5688
2824.96	0.5645
2834.02	0.5618
2843.08	0.56
2852.14	0.5588
2861.2	0.5577
2870.26	0.5564
2879.32	0.5529
2888.38	0.5372
2897.44	0.5169
2906.5	0.4971
2915.56	0.4816
2924.63	0.4765
2933.69	0.4777
2942.75	0.4789
2951.81	0.4801
2960.87	0.4813
2969.93	0.4901
2978.99	0.5027
2988.05	0.5146
2997.11	0.5196
3006.17	0.5187
3015.23	0.517
3024.3	0.5155
3033.36	0.5135
3042.42	0.5084
3051.48	0.4997
3060.54	0.4814
3069.6	0.4659
3078.66	0.4524
3087.72	0.4476
3096.78	0.4466
3105.84	0.4495
3114.91	0.4525
3123.97	0.4575
3133.03	0.4632
3142.09	0.4694
3151.15	0.4791
3160.21	0.4902
3169.27	0.4998
3178.33	0.5062
3187.39	0.5117
3196.45	0.5163
3205.51	0.5232
3214.58	0.5327
3223.64	0.5459
3232.7	0.5585
3241.76	0.5712
3250.82	0.5834
3259.88	0.5947
3268.94	0.6058
3278	0.621
3287.06	0.6337
3296.12	0.6427
3305.18	0.6506
3314.25	0.6584
3323.31	0.6661
3332.37	0.6736
3341.43	0.6804
3350.49	0.6867
3359.55	0.692
3368.61	0.6969
3377.67	0.6992
3386.73	0.6998
3395.79	0.7007
3404.85	0.7048
3413.92	0.7116
3422.98	0.7155
3432.04	0.7196
3441.1	0.7299
3450.16	0.7387
3459.22	0.7475
3468.28	0.7569
3477.34	0.7661
3486.4	0.774
3495.46	0.7818
3504.52	0.7906
3513.59	0.8004
3522.65	0.8109
3531.71	0.8208
3540.77	0.83
3549.83	0.8381
3558.89	0.8456
3567.95	0.8532
3577.01	0.8606
3586.07	0.8682
3595.13	0.8758
3604.19	0.881
3613.26	0.8853
3622.32	0.8892
3631.38	0.8974
3640.44	0.9049
3649.5	0.9078
3658.56	0.911
3667.62	0.9129
3676.68	0.9182
3685.74	0.9157
3694.8	0.9123
3703.86	0.9112
3712.93	0.9119
3721.99	0.9142
3731.05	0.9161
3740.11	0.9176
3749.17	0.9187
3758.23	0.9191
3767.29	0.9202
3776.35	0.9216
3785.41	0.9236
3794.47	0.9227
3803.53	0.9191
3812.6	0.9147
3821.66	0.9105
3830.72	0.9091
3839.78	0.912
3848.84	0.9144
3857.9	0.9116
3866.96	0.9072
3876.02	0.905
3885.08	0.9056
3894.14	0.9127
3903.2	0.9186
3912.27	0.9181
3921.33	0.9155
3930.39	0.9145
3939.45	0.9139
3948.51	0.9135
3957.57	0.914
3966.63	0.9151
3975.69	0.9168
3984.75	0.9157
3993.81	0.9124
4002.87	0.9105
4011.94	0.9044
