Infrared Spectrum: Beta-DIETHYLAMINOETHYL-p-AMINOBENZOATE CYCLOHEXYLSULFAMATE
Formula: C19 H33 N3 O5 S
State: SOLID (NUJOL MULL)
Class: COBLENTZ
Instrument: PERKIN-ELMER
Sampling: TRANSMISSION
Resolution: 4
Origin: ABBOTT LABORATORIES - WASHBURN
MICROMETERS	TRANSMITTANCE
2.015	0.379
2.04915	0.383
2.08331	0.3911
2.11746	0.4001
2.15162	0.4099
2.18577	0.4189
2.21993	0.424
2.25408	0.427
2.28824	0.426
2.32239	0.417
2.35655	0.4219
2.3907	0.4269
2.42486	0.432
2.45901	0.439
2.49317	0.4511
2.52732	0.469
2.56148	0.475
2.59563	0.4843
2.62979	0.4999
2.66394	0.506
2.6981	0.517
2.73225	0.527
2.76641	0.536
2.80056	0.5482
2.83472	0.561
2.86887	0.5768
2.90303	0.5769
2.93718	0.3533
2.97134	0.3707
3.00549	0.3357
3.03965	0.3243
3.0738	0.3724
3.10796	0.276
3.14211	0.3568
3.17627	0.3962
3.21042	0.419
3.24458	0.42
3.27873	0.3918
3.31289	0.2737
3.34704	0.1277
3.3812	0.0457
3.41535	0.024
3.44951	0.0201
3.48366	0.0272
3.51782	0.0672
3.55197	0.3088
3.58613	0.3932
3.62028	0.426
3.65444	0.4187
3.68859	0.3876
3.72275	0.3501
3.7569	0.3666
3.79106	0.4021
3.82521	0.445
3.85937	0.4675
3.89352	0.4913
3.92767	0.5218
3.96183	0.5369
3.99598	0.551
4.03014	0.56
4.06429	0.5802
4.09845	0.6012
4.1326	0.6179
4.16676	0.6297
4.20091	0.637
4.23507	0.637
4.26922	0.6421
4.30338	0.6541
4.33753	0.6632
4.37169	0.673
4.40584	0.675
4.44	0.678
4.47415	0.683
4.50831	0.689
4.54246	0.6941
4.57662	0.701
4.61077	0.702
4.64493	0.706
4.67908	0.711
4.71324	0.716
4.74739	0.7211
4.78155	0.7261
4.8157	0.7349
4.84986	0.731
4.88401	0.738
4.91817	0.742
4.95232	0.7451
4.98648	0.75
5.02063	0.757
5.05479	0.7619
5.08894	0.768
5.1231	0.773
5.15725	0.774
5.19141	0.7733
5.22556	0.764
5.25972	0.7729
5.29387	0.7833
5.32803	0.7941
5.36218	0.8019
5.39634	0.807
5.43049	0.812
5.46465	0.8147
5.4988	0.817
5.53296	0.819
5.56711	0.8229
5.60127	0.823
5.63542	0.823
5.66958	0.826
5.70373	0.828
5.73788	0.8216
5.77204	0.8115
5.80619	0.8086
5.84035	0.7536
5.8745	0.568
5.90866	0.1671
5.94281	0.2908
5.97697	0.4788
6.01112	0.4104
6.04528	0.3153
6.07943	0.4426
6.11359	0.6052
6.14774	0.6274
6.1819	0.3889
6.21605	0.142
6.25021	0.2312
6.28436	0.3737
6.31852	0.4947
6.35267	0.5534
6.38683	0.5589
6.42098	0.6225
6.45514	0.6445
6.48929	0.6581
6.52345	0.6835
6.5576	0.5898
6.59176	0.4636
6.62591	0.5964
6.66007	0.644
6.69422	0.639
6.72838	0.5699
6.76253	0.3546
6.79669	0.2227
6.83084	0.0719
6.865	0.063
6.89915	0.0794
6.93331	0.1463
6.96746	0.2602
7.00162	0.4287
7.03577	0.484
7.06993	0.481
7.10408	0.5537
7.13824	0.5659
7.17239	0.5478
7.20655	0.4484
7.2407	0.327
7.27486	0.2168
7.30901	0.2853
7.34317	0.2569
7.37732	0.4546
7.41148	0.494
7.44563	0.4605
7.47979	0.379
7.51394	0.3611
7.5481	0.3623
7.58225	0.475
7.6164	0.4602
7.65056	0.317
7.68471	0.414
7.71887	0.4414
7.75302	0.3857
7.78718	0.192
7.82133	0.1169
7.85549	0.1654
7.88964	0.2411
7.9238	0.274
7.95795	0.3071
7.99211	0.3554
8.02626	0.3426
8.06042	0.2348
8.09457	0.156
8.12873	0.228
8.16288	0.3248
8.19704	0.3859
8.23119	0.4444
8.26535	0.4822
8.2995	0.5045
8.33366	0.5144
8.36781	0.5193
8.40197	0.4934
8.43612	0.366
8.47028	0.326
8.50443	0.3148
8.53859	0.2639
8.57274	0.1878
8.6069	0.285
8.64105	0.2308
8.67521	0.1462
8.70936	0.103
8.74352	0.0987
8.77767	0.1517
8.81183	0.1523
8.84598	0.162
8.88014	0.2061
8.91429	0.2435
8.94845	0.1875
8.9826	0.1358
9.01676	0.164
9.05091	0.2185
9.08507	0.2747
9.11922	0.3164
9.15338	0.31
9.18753	0.3308
9.22169	0.3492
9.25584	0.3552
9.29	0.3891
9.32415	0.405
9.35831	0.3699
9.39246	0.357
9.42662	0.378
9.46077	0.374
9.49492	0.371
9.52908	0.374
9.56323	0.3811
9.59739	0.386
9.63154	0.3654
9.6657	0.3178
9.69985	0.2618
9.73401	0.2464
9.76816	0.1509
9.80232	0.1005
9.83647	0.1345
9.87063	0.2023
9.90478	0.2539
9.93894	0.3003
9.97309	0.3381
10.0072	0.3775
10.0414	0.427
10.0756	0.4456
10.1097	0.4731
10.1439	0.482
10.178	0.4782
10.2122	0.4587
10.2463	0.4662
10.2805	0.4904
10.3146	0.512
10.3488	0.5234
10.383	0.5364
10.4171	0.554
10.4513	0.5602
10.4854	0.568
10.5196	0.5791
10.5537	0.587
10.5879	0.597
10.622	0.6089
10.6562	0.613
10.6903	0.6164
10.7245	0.62
10.7587	0.6166
10.7928	0.613
10.827	0.6222
10.8611	0.63
10.8953	0.6275
10.9294	0.613
10.9636	0.6288
10.9977	0.6451
11.0319	0.658
11.0661	0.6492
11.1002	0.6023
11.1344	0.5502
11.1685	0.5583
11.2027	0.5963
11.2368	0.618
11.271	0.6229
11.3051	0.6454
11.3393	0.6627
11.3734	0.676
11.4076	0.6762
11.4418	0.6423
11.4759	0.5502
11.5101	0.4926
11.5442	0.4919
11.5784	0.5307
11.6125	0.5765
11.6467	0.5963
11.6808	0.5999
11.715	0.5717
11.7491	0.5656
11.7833	0.577
11.8175	0.5028
11.8516	0.3696
11.8858	0.4646
11.9199	0.5822
11.9541	0.6296
11.9882	0.6459
12.0224	0.6651
12.0565	0.671
12.0907	0.673
12.1249	0.6486
12.159	0.626
12.1932	0.6289
12.2273	0.6478
12.2615	0.646
12.2956	0.6496
12.3298	0.6713
12.3639	0.6784
12.3981	0.69
12.4322	0.687
12.4664	0.6732
12.5006	0.6713
12.5347	0.6777
12.5689	0.682
12.603	0.6815
12.6372	0.683
12.6713	0.69
12.7055	0.6801
12.7396	0.6611
12.7738	0.6764
12.808	0.685
12.8421	0.6793
12.8763	0.663
12.9104	0.6206
12.9446	0.5409
12.9787	0.3882
13.0129	0.316
13.047	0.4186
13.0812	0.5101
13.1153	0.5555
13.1495	0.6037
13.1837	0.6344
13.2178	0.6468
13.252	0.6571
13.2861	0.663
13.3203	0.664
13.3544	0.664
13.3886	0.664
13.4227	0.6622
13.4569	0.656
13.491	0.6484
13.5252	0.637
13.5594	0.6278
13.5935	0.6267
13.6277	0.6111
13.6618	0.609
13.696	0.5991
13.7301	0.597
13.7643	0.5855
13.7984	0.5703
13.8326	0.5549
13.8668	0.5465
13.9009	0.5413
13.9351	0.544
13.9692	0.548
14.0034	0.556
14.0375	0.558
14.0717	0.558
14.1058	0.5553
14.14	0.5473
14.1741	0.5276
14.2083	0.4948
14.2425	0.4208
14.2766	0.381
14.3108	0.4043
14.3449	0.4477
14.3791	0.4717
14.4132	0.4786
14.4474	0.4885
14.4815	0.496
14.5157	0.4993
14.5499	0.503
14.584	0.506
14.6182	0.5125
14.6523	0.5189
14.6865	0.5244
14.7206	0.5327
14.7548	0.5399
14.7889	0.5465
14.8231	0.553
14.8572	0.5563
14.8914	0.561
14.9256	0.563
14.9597	0.563
14.9939	0.5669
15.028	0.567
15.0622	0.5728
15.0963	0.5746
15.1305	0.577
15.1646	0.579
15.1988	0.577
15.2329	0.577
15.2671	0.577
15.3013	0.577
15.3354	0.577
15.3696	0.5735
