Infrared Spectrum: 1-(3-METHYL-4-MORPHOLINO-2,2-DIPHENYLBUTYRYL)PYRROLIDINE, CITRATE
Formula: C31 H40 N2 O9
State: SOLID (KBr DISC)
Class: COBLENTZ III
Instrument: PERKIN-ELMER 21 (GRATING)
Instrument parameters: NaCl PRISM
Sampling: TRANSMISSION
Resolution: 2
Origin: SMITH KLINE & FRENCH LABS.
MICROMETERS	TRANSMITTANCE
2.005	0.877
2.03915	0.879
2.07329	0.884
2.10744	0.881
2.14159	0.874
2.17574	0.877
2.20988	0.882
2.24403	0.881
2.27818	0.87
2.31232	0.869
2.34647	0.877
2.38062	0.876
2.41476	0.871
2.44891	0.874
2.48306	0.874
2.51721	0.875
2.55135	0.875
2.5855	0.876
2.61965	0.875
2.65379	0.876
2.68794	0.868
2.72209	0.868
2.75623	0.864
2.79038	0.847
2.82453	0.804
2.85868	0.77
2.89282	0.692
2.92697	0.638
2.96112	0.678
2.99526	0.709
3.02941	0.724
3.06356	0.72
3.09771	0.689
3.13185	0.619
3.166	0.57
3.20015	0.515
3.23429	0.461
3.26844	0.409
3.30259	0.368
3.33673	0.356
3.37088	0.33
3.40503	0.312
3.43918	0.35
3.47332	0.411
3.50747	0.449
3.54162	0.532
3.57576	0.581
3.60991	0.601
3.64406	0.616
3.6782	0.628
3.71235	0.636
3.7465	0.626
3.78065	0.628
3.81479	0.622
3.84894	0.612
3.88309	0.616
3.91723	0.622
3.95138	0.625
3.98553	0.632
4.01968	0.633
4.05382	0.63
4.08797	0.637
4.12212	0.642
4.15626	0.653
4.19041	0.659
4.22456	0.667
4.2587	0.664
4.29285	0.663
4.327	0.666
4.36115	0.698
4.39529	0.709
4.42944	0.722
4.46359	0.727
4.49773	0.735
4.53188	0.75
4.56603	0.759
4.60017	0.76
4.63432	0.765
4.66847	0.771
4.70262	0.772
4.73676	0.775
4.77091	0.778
4.80506	0.78
4.8392	0.781
4.87335	0.787
4.9075	0.788
4.94165	0.788
4.97579	0.788
5.00994	0.787
5.04409	0.782
5.07823	0.782
5.11238	0.789
5.14653	0.792
5.18067	0.792
5.21482	0.791
5.24897	0.791
5.28312	0.792
5.31726	0.797
5.35141	0.798
5.38556	0.796
5.4197	0.788
5.45385	0.776
5.488	0.771
5.52214	0.772
5.55629	0.769
5.59044	0.75
5.62459	0.713
5.65873	0.658
5.69288	0.573
5.72703	0.47
5.76117	0.275
5.79532	0.194
5.82947	0.191
5.86362	0.31
5.89776	0.518
5.93191	0.61
5.96606	0.654
6.0002	0.658
6.03435	0.65
6.0685	0.601
6.10264	0.522
6.13679	0.4
6.17094	0.249
6.20509	0.175
6.23923	0.108
6.27338	0.101
6.30753	0.157
6.34167	0.289
6.37582	0.445
6.40997	0.489
6.44411	0.59
6.47826	0.594
6.51241	0.639
6.54656	0.663
6.5807	0.66
6.61485	0.65
6.649	0.54
6.68314	0.442
6.71729	0.49
6.75144	0.549
6.78559	0.51
6.81973	0.481
6.85388	0.432
6.88803	0.371
6.92217	0.31
6.95632	0.33
6.99047	0.316
7.02461	0.251
7.05876	0.241
7.09291	0.25
7.12706	0.341
7.1612	0.372
7.19535	0.39
7.2295	0.422
7.26364	0.457
7.29779	0.44
7.33194	0.409
7.36608	0.3
7.40023	0.262
7.43438	0.295
7.46853	0.274
7.50267	0.379
7.53682	0.46
7.57097	0.474
7.60511	0.432
7.63926	0.407
7.67341	0.349
7.70756	0.312
7.7417	0.368
7.77585	0.422
7.81	0.533
7.84414	0.567
7.87829	0.488
7.91244	0.442
7.94658	0.432
7.98073	0.384
8.01488	0.366
8.04903	0.421
8.08317	0.482
8.11732	0.503
8.15147	0.496
8.18561	0.492
8.21976	0.501
8.25391	0.512
8.28805	0.492
8.3222	0.428
8.35635	0.329
8.3905	0.236
8.42464	0.145
8.45879	0.12
8.49294	0.164
8.52708	0.258
8.56123	0.354
8.59538	0.389
8.62953	0.38
8.66367	0.41
8.69782	0.499
8.73197	0.522
8.76611	0.517
8.80026	0.548
8.83441	0.571
8.86855	0.587
8.9027	0.582
8.93685	0.572
8.971	0.538
9.00514	0.422
9.03929	0.304
9.07344	0.33
9.10758	0.499
9.14173	0.551
9.17588	0.567
9.21002	0.588
9.24417	0.557
9.27832	0.472
9.31247	0.398
9.34661	0.376
9.38076	0.489
9.41491	0.518
9.44905	0.421
9.4832	0.382
9.51735	0.394
9.5515	0.49
9.58564	0.565
9.61979	0.592
9.65394	0.6
9.68808	0.598
9.72223	0.599
9.75638	0.643
9.79052	0.621
9.82467	0.62
9.85882	0.642
9.89297	0.667
9.92711	0.67
9.96126	0.687
9.99541	0.699
10.0296	0.698
10.0637	0.687
10.0978	0.648
10.132	0.559
10.1661	0.517
10.2003	0.555
10.2344	0.612
10.2686	0.643
10.3027	0.671
10.3369	0.698
10.371	0.704
10.4052	0.713
10.4393	0.722
10.4735	0.716
10.5076	0.708
10.5418	0.697
10.5759	0.698
10.6101	0.691
10.6442	0.698
10.6783	0.699
10.7125	0.692
10.7466	0.688
10.7808	0.652
10.8149	0.638
10.8491	0.658
10.8832	0.641
10.9174	0.622
10.9515	0.62
10.9857	0.63
11.0198	0.653
11.054	0.648
11.0881	0.63
11.1223	0.588
11.1564	0.517
11.1906	0.466
11.2247	0.489
11.2588	0.51
11.293	0.517
11.3271	0.478
11.3613	0.463
11.3954	0.467
11.4296	0.461
11.4637	0.47
11.4979	0.492
11.532	0.493
11.5662	0.499
11.6003	0.543
11.6345	0.561
11.6686	0.57
11.7028	0.588
11.7369	0.621
11.7711	0.642
11.8052	0.659
11.8393	0.673
11.8735	0.677
11.9076	0.677
11.9418	0.658
11.9759	0.608
12.0101	0.517
12.0442	0.526
12.0784	0.599
12.1125	0.628
12.1467	0.661
12.1808	0.673
12.215	0.676
12.2491	0.667
12.2833	0.628
12.3174	0.599
12.3516	0.641
12.3857	0.68
12.4198	0.703
12.454	0.719
12.4881	0.719
12.5223	0.719
12.5564	0.725
12.5906	0.748
12.6247	0.761
12.6589	0.766
12.693	0.771
12.7272	0.774
12.7613	0.774
12.7955	0.78
12.8296	0.774
12.8638	0.77
12.8979	0.741
12.9321	0.641
12.9662	0.608
13.0003	0.648
13.0345	0.678
13.0686	0.688
13.1028	0.63
13.1369	0.516
13.1711	0.421
13.2052	0.468
13.2394	0.578
13.2735	0.652
13.3077	0.698
13.3418	0.73
13.376	0.759
13.4101	0.766
13.4443	0.777
13.4784	0.781
13.5126	0.78
13.5467	0.782
13.5808	0.78
13.615	0.77
13.6491	0.742
13.6833	0.641
13.7174	0.567
13.7516	0.568
13.7857	0.587
13.8199	0.587
13.854	0.555
13.8882	0.538
13.9223	0.529
13.9565	0.52
13.9906	0.449
14.0248	0.341
14.0589	0.351
14.0931	0.449
14.1272	0.467
14.1613	0.395
14.1955	0.305
14.2296	0.299
14.2638	0.404
14.2979	0.484
14.3321	0.557
14.3662	0.597
14.4004	0.638
14.4345	0.669
14.4687	0.681
14.5028	0.699
14.537	0.724
14.5711	0.721
14.6053	0.735
14.6394	0.743
14.6736	0.75
14.7077	0.754
14.7418	0.758
14.776	0.728
14.8101	0.699
14.8443	0.698
14.8784	0.722
14.9126	0.747
14.9467	0.755
14.9809	0.76
15.015	0.763
15.0492	0.763
15.0833	0.761
15.1175	0.761
15.1516	0.761
