Infrared Spectrum: o-HYDROXYBENZOYL OSMOCENE
Formula: C17 H14 O2 Os
State: SOLID (MINERAL OIL MULL)
Class: COBLENTZ
Instrument: Not specified, most likely a prism, grating, or hybrid spectrometer.
Sampling: TRANSMISSION
Resolution: 4
Origin: WYANDOTTE CHEMICALS CORP., WYANDOTTE, MICHIGAN, USA
MICROMETERS	TRANSMITTANCE
2.02	0.679
2.06084	0.703
2.10168	0.708
2.14251	0.71
2.18335	0.712
2.22419	0.717
2.26503	0.725
2.30587	0.732
2.3467	0.739
2.38754	0.746
2.42838	0.751
2.46922	0.754
2.51006	0.758
2.55089	0.764
2.59173	0.771
2.63257	0.778
2.67341	0.778
2.71425	0.78
2.75508	0.775
2.79592	0.775
2.83676	0.775
2.8776	0.776
2.91844	0.773
2.95927	0.775
3.00011	0.771
3.04095	0.771
3.08179	0.759
3.12263	0.746
3.16346	0.735
3.2043	0.73
3.24514	0.695
3.28598	0.688
3.32682	0.689
3.36765	0.459
3.40849	0.245
3.44933	0.345
3.49017	0.439
3.53101	0.545
3.57184	0.778
3.61268	0.81
3.65352	0.826
3.69436	0.824
3.7352	0.826
3.77603	0.833
3.81687	0.833
3.85771	0.838
3.89855	0.851
3.93939	0.86
3.98022	0.863
4.02106	0.863
4.0619	0.86
4.10274	0.86
4.14358	0.863
4.18441	0.862
4.22525	0.863
4.26609	0.865
4.30693	0.865
4.34777	0.858
4.3886	0.863
4.42944	0.872
4.47028	0.873
4.51112	0.873
4.55196	0.875
4.59279	0.88
4.63363	0.889
4.67447	0.892
4.71531	0.89
4.75615	0.897
4.79698	0.901
4.83782	0.896
4.87866	0.897
4.9195	0.901
4.96034	0.897
5.00117	0.906
5.04201	0.902
5.08285	0.896
5.12369	0.897
5.16453	0.902
5.20536	0.89
5.2462	0.901
5.28704	0.901
5.32788	0.901
5.36872	0.899
5.40955	0.906
5.45039	0.897
5.49123	0.902
5.53207	0.889
5.57291	0.887
5.61374	0.894
5.65458	0.887
5.69542	0.879
5.73626	0.88
5.7771	0.877
5.81793	0.868
5.85877	0.872
5.89961	0.868
5.94045	0.868
5.98129	0.868
6.02212	0.863
6.06296	0.863
6.1038	0.85
6.14464	0.647
6.18548	0.49
6.22631	0.62
6.26715	0.35
6.30799	0.482
6.34883	0.64
6.38967	0.715
6.4305	0.771
6.47134	0.785
6.51218	0.805
6.55302	0.819
6.59386	0.816
6.63469	0.812
6.67553	0.785
6.71637	0.654
6.75721	0.563
6.79805	0.626
6.83888	0.568
6.87972	0.563
6.92056	0.441
6.9614	0.56
7.00224	0.712
7.04307	0.752
7.08391	0.781
7.12475	0.77
7.16559	0.708
7.20643	0.78
7.24726	0.666
7.2881	0.591
7.32894	0.679
7.36978	0.749
7.41062	0.742
7.45145	0.701
7.49229	0.698
7.53313	0.695
7.57397	0.632
7.61481	0.7
7.65564	0.713
7.69648	0.664
7.73732	0.568
7.77816	0.676
7.819	0.758
7.85983	0.783
7.90067	0.78
7.94151	0.746
7.98235	0.558
8.02318	0.471
8.06402	0.584
8.10486	0.659
8.1457	0.684
8.18654	0.594
8.22737	0.448
8.26821	0.555
8.30905	0.57
8.34989	0.611
8.39073	0.664
8.43156	0.705
8.4724	0.708
8.51324	0.715
8.55408	0.72
8.59492	0.737
8.63575	0.734
8.67659	0.71
8.71743	0.57
8.75827	0.511
8.79911	0.666
8.83994	0.715
8.88078	0.722
8.92162	0.732
8.96246	0.729
9.0033	0.698
9.04413	0.715
9.08497	0.732
9.12581	0.655
9.16665	0.683
9.20749	0.708
9.24832	0.71
9.28916	0.717
9.33	0.717
9.37084	0.718
9.41168	0.718
9.45251	0.724
9.49335	0.732
9.53419	0.705
9.57503	0.696
9.61587	0.637
9.6567	0.722
9.69754	0.712
9.73838	0.737
9.77922	0.643
9.82006	0.703
9.86089	0.758
9.90173	0.781
9.94257	0.788
9.98341	0.8
10.0242	0.785
10.0651	0.698
10.1059	0.751
10.1468	0.735
10.1876	0.778
10.2284	0.809
10.2693	0.805
10.3101	0.81
10.351	0.809
10.3918	0.809
10.4326	0.785
10.4735	0.78
10.5143	0.792
10.5551	0.78
10.596	0.678
10.6368	0.729
10.6777	0.771
10.7185	0.783
10.7593	0.785
10.8002	0.785
10.841	0.783
10.8818	0.783
10.9227	0.776
10.9635	0.778
11.0044	0.77
11.0452	0.766
11.086	0.781
11.1269	0.778
11.1677	0.775
11.2085	0.771
11.2494	0.776
11.2902	0.775
11.3311	0.771
11.3719	0.758
11.4127	0.752
11.4536	0.759
11.4944	0.752
11.5353	0.717
11.5761	0.689
11.6169	0.718
11.6578	0.727
11.6986	0.689
11.7394	0.705
11.7803	0.744
11.8211	0.764
11.862	0.773
11.9028	0.756
11.9436	0.72
11.9845	0.693
12.0253	0.621
12.0661	0.589
12.107	0.601
12.1478	0.645
12.1887	0.683
12.2295	0.735
12.2703	0.751
12.3112	0.77
12.352	0.771
12.3929	0.727
12.4337	0.698
12.4745	0.742
12.5154	0.771
12.5562	0.785
12.597	0.787
12.6379	0.783
12.6787	0.766
12.7196	0.77
12.7604	0.792
12.8012	0.809
12.8421	0.819
12.8829	0.821
12.9237	0.802
12.9646	0.735
13.0054	0.674
13.0463	0.674
13.0871	0.72
13.1279	0.742
13.1688	0.751
13.2096	0.751
13.2504	0.749
13.2913	0.749
13.3321	0.751
13.373	0.752
13.4138	0.747
13.4546	0.744
13.4955	0.725
13.5363	0.708
13.5772	0.689
13.618	0.674
13.6588	0.667
13.6997	0.671
13.7405	0.684
13.7813	0.705
13.8222	0.734
13.863	0.751
13.9039	0.766
13.9447	0.781
13.9855	0.798
14.0264	0.817
14.0672	0.831
14.108	0.816
14.1489	0.742
14.1897	0.718
14.2306	0.752
14.2714	0.785
14.3122	0.805
14.3531	0.821
14.3939	0.829
14.4347	0.834
14.4756	0.838
14.5164	0.839
14.5573	0.843
14.5981	0.841
14.6389	0.843
14.6798	0.839
14.7206	0.834
14.7615	0.827
14.8023	0.824
14.8431	0.821
14.884	0.805
14.9248	0.793
14.9656	0.764
15.0065	0.749
15.0473	0.729
15.0882	0.708
15.129	0.684
15.1698	0.676
15.2107	0.706
15.2515	0.727
15.2923	0.751
15.3332	0.758
15.374	0.758
15.4149	0.752
15.4557	0.746
15.4965	0.732
15.5374	0.732
15.5782	0.724
15.6191	0.722
15.6599	0.713
15.7007	0.706
15.7416	0.7
15.7824	0.689
15.8232	0.679
15.8641	0.664
15.9049	0.666
15.9458	0.654
15.9866	0.647
