Infrared Spectrum: SODIUM TRIPOLYPHOSPHATE, FORM II
Formula: O10 P3 Na5
State: SOLID (1.2 mg / 400 mg KBr PELLET)
Class: COBLENTZ
Instrument: PERKIN-ELMER 421 (GRATING)
Instrument parameters: GRATING CHANGE AT 1999 CM^-^1
Sampling: TRANSMISSION
Resolution: 4
Origin: PROCTER AND GAMBLE CO.
1/CM	TRANSMITTANCE
506.772	0.709
515.801	0.709
524.831	0.704
533.86	0.69
542.889	0.603
551.919	0.62
560.948	0.5861
569.977	0.3531
579.007	0.4149
588.036	0.579
597.066	0.569
606.095	0.2641
615.124	0.3939
624.154	0.6319
633.183	0.81
642.212	0.844
651.242	0.7762
660.271	0.3822
669.3	0.3359
678.33	0.533
687.359	0.688
696.388	0.789
705.418	0.823
714.447	0.825
723.476	0.808
732.506	0.642
741.535	0.5959
750.565	0.818
759.594	0.878
768.623	0.9
777.653	0.902
786.682	0.9
795.711	0.897
804.741	0.9
813.77	0.897
822.799	0.887
831.829	0.878
840.858	0.861
849.887	0.837
858.917	0.781
867.946	0.694
876.976	0.5231
886.005	0.2751
895.034	0.1
904.064	0.09
913.093	0.184
922.122	0.3139
931.152	0.413
940.181	0.5
949.21	0.504
958.24	0.589
967.269	0.717
976.298	0.769
985.328	0.781
994.357	0.794
1003.39	0.81
1012.42	0.5707
1021.45	0.793
1030.47	0.803
1039.5	0.805
1048.53	0.782
1057.56	0.76
1066.59	0.726
1075.62	0.663
1084.65	0.494
1093.68	0.165
1102.71	0.4818
1111.74	0.535
1120.77	0.398
1129.8	0.23
1138.83	0.049
1147.86	0.0849
1156.89	0.027
1165.91	0.029
1174.94	0.07
1183.97	0.128
1193	0.3379
1202.03	0.2562
1211.06	0.099
1220.09	0.261
1229.12	0.405
1238.15	0.5209
1247.18	0.598
1256.21	0.647
1265.24	0.685
1274.27	0.707
1283.3	0.729
1292.33	0.745
1301.36	0.755
1310.38	0.762
1319.41	0.772
1328.44	0.781
1337.47	0.784
1346.5	0.789
1355.53	0.796
1364.56	0.805
1373.59	0.805
1382.62	0.808
1391.65	0.808
1400.68	0.811
1409.71	0.813
1418.74	0.818
1427.77	0.822
1436.8	0.822
1445.82	0.818
1454.85	0.817
1463.88	0.818
1472.91	0.823
1481.94	0.829
1490.97	0.832
1500	0.832
1509.03	0.835
1518.06	0.835
1527.09	0.837
1536.12	0.837
1545.15	0.839
1554.18	0.835
1563.21	0.823
1572.24	0.823
1581.27	0.82
1590.29	0.818
1599.32	0.817
1608.35	0.81
1617.38	0.798
1626.41	0.793
1635.44	0.796
1644.47	0.808
1653.5	0.813
1662.53	0.815
1671.56	0.822
1680.59	0.829
1689.62	0.835
1698.65	0.835
1707.68	0.842
1716.71	0.841
1725.73	0.842
1734.76	0.842
1743.79	0.846
1752.82	0.851
1761.85	0.852
1770.88	0.852
1779.91	0.854
1788.94	0.858
1797.97	0.856
1807	0.854
1816.03	0.858
1825.06	0.859
1834.09	0.859
1843.12	0.861
1852.15	0.863
1861.18	0.866
1870.2	0.864
1879.23	0.866
1888.26	0.863
1897.29	0.864
1906.32	0.866
1915.35	0.866
1924.38	0.866
1933.41	0.866
1942.44	0.864
1951.47	0.864
1960.5	0.864
1969.53	0.866
1978.56	0.866
1987.59	0.868
1996.62	0.854
2005.64	0.856
2014.67	0.864
2023.7	0.866
2032.73	0.8634
2041.76	0.863
2050.79	0.863
2059.82	0.861
2068.85	0.861
2077.88	0.861
2086.91	0.861
2095.94	0.861
2104.97	0.8626
2114	0.859
2123.03	0.8584
2132.06	0.858
2141.09	0.856
2150.11	0.856
2159.14	0.854
2168.17	0.854
2177.2	0.854
2186.23	0.854
2195.26	0.8544
2204.29	0.858
2213.32	0.858
2222.35	0.858
2231.38	0.858
2240.41	0.858
2249.44	0.858
2258.47	0.856
2267.5	0.856
2276.53	0.854
2285.55	0.8505
2294.58	0.8466
2303.61	0.846
2312.64	0.846
2321.67	0.846
2330.7	0.846
2339.73	0.846
2348.76	0.8466
2357.79	0.8457
2366.82	0.846
2375.85	0.846
2384.88	0.8464
2393.91	0.851
2402.94	0.8477
2411.97	0.844
2421	0.844
2430.02	0.8429
2439.05	0.844
2448.08	0.844
2457.11	0.842
2466.14	0.841
2475.17	0.842
2484.2	0.842
2493.23	0.842
2502.26	0.841
2511.29	0.8413
2520.32	0.841
2529.35	0.842
2538.38	0.841
2547.41	0.8438
2556.44	0.839
2565.46	0.8399
2574.49	0.842
2583.52	0.8423
2592.55	0.842
2601.58	0.8417
2610.61	0.839
2619.64	0.8417
2628.67	0.841
2637.7	0.842
2646.73	0.842
2655.76	0.8415
2664.79	0.8413
2673.82	0.841
2682.85	0.8389
2691.88	0.8365
2700.91	0.835
2709.93	0.835
2718.96	0.8341
2727.99	0.835
2737.02	0.8335
2746.05	0.832
2755.08	0.8307
2764.11	0.8291
2773.14	0.832
2782.17	0.8315
2791.2	0.827
2800.23	0.827
2809.26	0.825
2818.29	0.8229
2827.32	0.8164
2836.35	0.8105
2845.37	0.7985
2854.4	0.789
2863.43	0.8001
2872.46	0.801
2881.49	0.801
2890.52	0.798
2899.55	0.793
2908.58	0.7833
2917.61	0.7536
2926.64	0.7534
2935.67	0.7755
2944.7	0.7837
2953.73	0.784
2962.76	0.7883
2971.79	0.7935
2980.82	0.796
2989.84	0.796
2998.87	0.796
3007.9	0.796
3016.93	0.796
3025.96	0.796
3034.99	0.7931
3044.02	0.791
3053.05	0.786
3062.08	0.786
3071.11	0.782
3080.14	0.781
3089.17	0.7788
3098.2	0.777
3107.23	0.777
3116.26	0.7746
3125.28	0.774
3134.31	0.77
3143.34	0.7684
3152.37	0.7645
3161.4	0.762
3170.43	0.76
3179.46	0.7618
3188.49	0.757
3197.52	0.755
3206.55	0.7486
3215.58	0.7452
3224.61	0.741
3233.64	0.74
3242.67	0.737
3251.7	0.7353
3260.72	0.733
3269.75	0.731
3278.78	0.729
3287.81	0.725
3296.84	0.724
3305.87	0.7231
3314.9	0.7169
3323.93	0.7103
3332.96	0.705
3341.99	0.7011
3351.02	0.6952
3360.05	0.69
3369.08	0.684
3378.11	0.6755
3387.14	0.6688
3396.17	0.666
3405.19	0.6607
3414.22	0.659
3423.25	0.658
3432.28	0.658
3441.31	0.659
3450.34	0.6613
3459.37	0.6647
3468.4	0.668
3477.43	0.6707
3486.46	0.6749
3495.49	0.6786
3504.52	0.6857
3513.55	0.6891
3522.58	0.6935
3531.61	0.6969
3540.63	0.7076
3549.66	0.712
3558.69	0.7157
3567.72	0.7225
3576.75	0.7279
3585.78	0.7358
3594.81	0.7474
3603.84	0.752
3612.87	0.753
3621.9	0.755
3630.93	0.7583
3639.96	0.76
3648.99	0.7631
3658.02	0.7665
3667.05	0.769
3676.08	0.7703
3685.1	0.772
3694.13	0.772
3703.16	0.772
3712.19	0.772
3721.22	0.767
3730.25	0.765
3739.28	0.767
3748.31	0.767
3757.34	0.769
3766.37	0.772
3775.4	0.772
3784.43	0.7708
3793.46	0.769
3802.49	0.7671
3811.52	0.7636
3820.54	0.762
3829.57	0.76
3838.6	0.76
3847.63	0.76
3856.66	0.762
3865.69	0.762
3874.72	0.762
3883.75	0.762
3892.78	0.762
3901.81	0.762
3910.84	0.762
3919.87	0.7608
3928.9	0.7584
3937.93	0.76
3946.96	0.76
3955.99	0.76
3965.01	0.76
3974.04	0.76
3983.07	0.758
3992.1	0.757
