Infrared Spectrum: 2,6-Methano-3-benzazocin-8-ol, 1,2,3,4,5,6-hexahydro-3, 6,11-trimethyl-, hydrochloride, monohydrate
Formula: C15 H22 Cl N O  * H2 O
State: SOLID (OIL MULL)
Class: COBLENTZ III
Instrument: PERKIN-ELMER 21 (GRATING)
Instrument parameters: NaCl PRISM
Sampling: TRANSMISSION
Resolution: 2
Origin: SMITH, KLINE & FRENCH LABS.
1/CM	TRANSMITTANCE
655	0.5367
664	0.6077
673	0.6539
682	0.6703
691	0.6766
700	0.6795
709	0.7163
718	0.6839
727	0.5538
736	0.6925
745	0.7319
754	0.7423
763	0.7063
772	0.7283
781	0.7469
790	0.7232
799	0.7876
808	0.7449
817	0.7114
826	0.538
835	0.8024
844	0.6768
853	0.7978
862	0.6367
871	0.7709
880	0.7921
889	0.7738
898	0.8288
907	0.8187
916	0.7839
925	0.7461
934	0.5901
943	0.7494
952	0.7565
961	0.7495
970	0.7597
979	0.7545
988	0.7206
997	0.7225
1006	0.7591
1015	0.677
1024	0.6673
1033	0.6347
1042	0.6861
1051	0.6525
1060	0.7318
1069	0.6796
1078	0.7572
1087	0.6966
1096	0.6495
1105	0.7364
1114	0.7611
1123	0.7561
1132	0.696
1141	0.6781
1150	0.664
1159	0.6827
1168	0.6401
1177	0.5466
1186	0.6466
1195	0.6095
1204	0.5905
1213	0.5389
1222	0.3507
1231	0.2456
1240	0.3739
1249	0.4102
1258	0.666
1267	0.5582
1276	0.4868
1285	0.646
1294	0.6395
1303	0.6369
1312	0.5587
1321	0.6536
1330	0.6052
1339	0.5631
1348	0.488
1357	0.4919
1366	0.3611
1375	0.219
1384	0.241
1393	0.5735
1402	0.6303
1411	0.6038
1420	0.504
1429	0.4338
1438	0.21
1447	0.1079
1456	0.099
1465	0.0819
1474	0.1676
1483	0.3646
1492	0.5548
1501	0.5227
1510	0.4853
1519	0.57
1528	0.761
1537	0.7769
1546	0.7808
1555	0.7896
1564	0.7789
1573	0.7807
1582	0.7672
1591	0.7026
1600	0.6578
1609	0.5694
1618	0.3917
1627	0.6797
1636	0.7663
1645	0.7664
1654	0.76
1663	0.7594
1672	0.7754
1681	0.7933
1690	0.7911
1699	0.7779
1708	0.8194
1717	0.8269
1726	0.8291
1735	0.8287
1744	0.825
1753	0.8279
1762	0.8319
1771	0.8315
1780	0.8318
1789	0.8305
1798	0.8317
1807	0.8446
1816	0.8304
1825	0.8287
1834	0.827
1843	0.8246
1852	0.8212
1861	0.8164
1870	0.8113
1879	0.8085
1888	0.8063
1897	0.8027
1906	0.8037
1915	0.8033
1924	0.8027
1933	0.8007
1942	0.7987
1951	0.7969
1960	0.7958
1969	0.7949
1978	0.7938
1987	0.7897
1996	0.7859
2005	0.7821
2014	0.7788
2023	0.778
2032	0.7775
2041	0.7772
2050	0.7775
2059	0.7776
2068	0.7718
2077	0.7707
2086	0.7667
2095	0.7593
2104	0.7605
2113	0.7594
2122	0.7529
2131	0.7482
2140	0.7466
2149	0.7358
2158	0.7298
2167	0.7286
2176	0.7281
2185	0.7284
2194	0.7291
2203	0.7262
2212	0.7215
2221	0.7215
2230	0.7195
2239	0.7118
2248	0.7092
2257	0.7086
2266	0.7075
2275	0.7048
2284	0.6981
2293	0.6862
2302	0.6738
2311	0.6658
2320	0.6546
2329	0.6273
2338	0.6137
2347	0.6102
2356	0.6087
2365	0.6054
2374	0.5993
2383	0.591
2392	0.5882
2401	0.5672
2410	0.5597
2419	0.5425
2428	0.5246
2437	0.4919
2446	0.473
2455	0.4619
2464	0.4516
2473	0.4433
2482	0.4373
2491	0.4313
2500	0.4229
2509	0.4003
2518	0.3761
2527	0.3539
2536	0.3404
2545	0.3359
2554	0.3339
2563	0.3278
2572	0.3262
2581	0.3258
2590	0.3199
2599	0.3026
2608	0.2874
2617	0.272
2626	0.2556
2635	0.2392
2644	0.236
2653	0.2605
2662	0.2802
2671	0.2842
2680	0.2922
2689	0.3049
2698	0.3229
2707	0.3423
2716	0.369
2725	0.3778
2734	0.4074
2743	0.4535
2752	0.4758
2761	0.4959
2770	0.5026
2779	0.5034
2788	0.4993
2797	0.4809
2806	0.4498
2815	0.3619
2824	0.257
2833	0.1415
2842	0.0879
2851	0.0669
2860	0.0532
2869	0.0488
2878	0.0475
2887	0.0447
2896	0.0349
2905	0.0338
2914	0.0346
2923	0.0354
2932	0.0369
2941	0.0417
2950	0.0442
2959	0.0448
2968	0.0665
2977	0.0949
2986	0.1482
2995	0.2011
3004	0.2495
3013	0.2704
3022	0.291
3031	0.3115
3040	0.3196
3049	0.3173
3058	0.3107
3067	0.3004
3076	0.2915
3085	0.2799
3094	0.2634
3103	0.2452
3112	0.2403
3121	0.2366
3130	0.2232
3139	0.2133
3148	0.2034
3157	0.1948
3166	0.1902
3175	0.1884
3184	0.1882
3193	0.1904
3202	0.1937
3211	0.2011
3220	0.2213
3229	0.2486
3238	0.2756
3247	0.3026
3256	0.3294
3265	0.356
3274	0.3825
3283	0.4105
3292	0.4285
3301	0.4409
3310	0.448
3319	0.4503
3328	0.4507
3337	0.4503
3346	0.4494
3355	0.4472
3364	0.4444
3373	0.439
3382	0.4305
3391	0.4228
3400	0.417
3409	0.4169
3418	0.4179
3427	0.4239
3436	0.4525
3445	0.4846
3454	0.5165
3463	0.5482
3472	0.5799
3481	0.6055
3490	0.6288
3499	0.6422
3508	0.6512
3517	0.6607
3526	0.675
3535	0.6815
3544	0.6862
3553	0.6893
3562	0.6911
3571	0.6929
3580	0.6945
3589	0.696
3598	0.6976
3607	0.6983
3616	0.698
3625	0.6975
3634	0.6963
3643	0.6948
3652	0.6924
3661	0.6893
3670	0.685
3679	0.6798
3688	0.6749
3697	0.6702
3706	0.6659
3715	0.6617
3724	0.6571
3733	0.652
3742	0.6469
3751	0.6425
3760	0.6387
3769	0.635
3778	0.6312
3787	0.6275
3796	0.6243
3805	0.6212
3814	0.6181
3823	0.6151
3832	0.6121
3841	0.6095
3850	0.6076
3859	0.6057
3868	0.6038
3877	0.602
3886	0.6002
3895	0.599
3904	0.598
3913	0.597
3922	0.596
3931	0.5949
3940	0.5939
3949	0.5919
3958	0.5893
3967	0.5867
3976	0.5848
3985	0.5829
3994	0.5813
