Infrared Spectrum: Ethylenediamine dihydrochloride
Formula: C2 H10 Cl2 N2
State: SOLID (SPLIT MULL)
Class: COBLENTZ III
Instrument: DOW KBr FOREPRISM-GRATING
Instrument parameters: BLAZED AT 3.5, 12.0, 20.0 MICRON AND CHANGED AT 5.0, 7.5, 14.9 MICRON
Sampling: TRANSMISSION
Resolution: 2
Origin: DOW CHEMICAL COMPANY
1/CM	TRANSMITTANCE
3790	0.6646
3781	0.6665
3772	0.6684
3763	0.6706
3754	0.6741
3745	0.6775
3736	0.6808
3727	0.6837
3718	0.6867
3709	0.6896
3700	0.6925
3691	0.6961
3682	0.6998
3673	0.7033
3664	0.7068
3655	0.7105
3646	0.714
3637	0.7175
3628	0.7211
3619	0.7246
3610	0.728
3601	0.7308
3592	0.7315
3583	0.7219
3574	0.7312
3565	0.7382
3556	0.7431
3547	0.7474
3538	0.7517
3529	0.7548
3520	0.7571
3511	0.7596
3502	0.7621
3493	0.7648
3484	0.7675
3475	0.7703
3466	0.774
3457	0.7778
3448	0.7818
3439	0.7857
3430	0.7904
3421	0.7953
3412	0.8003
3403	0.8054
3394	0.8107
3385	0.816
3376	0.8216
3367	0.8271
3358	0.8328
3349	0.8378
3340	0.8428
3331	0.8478
3322	0.8533
3313	0.8584
3304	0.8633
3295	0.8681
3286	0.8718
3277	0.875
3268	0.8782
3259	0.8747
3250	0.8625
3241	0.8161
3232	0.7786
3223	0.7839
3214	0.7885
3205	0.7672
3196	0.7738
3187	0.7796
3178	0.7812
3169	0.7589
3160	0.7308
3151	0.6892
3142	0.6472
3133	0.6243
3124	0.5905
3115	0.5108
3106	0.4668
3097	0.4278
3088	0.421
3079	0.4039
3070	0.3799
3061	0.3334
3052	0.2992
3043	0.2553
3034	0.2071
3025	0.1676
3016	0.1472
3007	0.1121
2998	0.1071
2989	0.1042
2980	0.0899
2971	0.0888
2962	0.0976
2953	0.0904
2944	0.0871
2935	0.0828
2926	0.0717
2917	0.0607
2908	0.0543
2899	0.0538
2890	0.0631
2881	0.0614
2872	0.0678
2863	0.0791
2854	0.0921
2845	0.107
2836	0.1192
2827	0.1209
2818	0.1083
2809	0.0792
2800	0.0776
2791	0.0966
2782	0.1211
2773	0.1644
2764	0.1851
2755	0.1833
2746	0.1671
2737	0.1917
2728	0.2278
2719	0.2112
2710	0.2021
2701	0.2577
2692	0.2457
2683	0.1659
2674	0.2041
2665	0.2166
2656	0.2577
2647	0.2792
2638	0.2785
2629	0.2964
2620	0.3457
2611	0.3724
2602	0.3884
2593	0.359
2584	0.3352
2575	0.3259
2566	0.3657
2557	0.3848
2548	0.3803
2539	0.3698
2530	0.3073
2521	0.3116
2512	0.3526
2503	0.4188
2494	0.4489
2485	0.4676
2476	0.486
2467	0.4935
2458	0.4325
2449	0.4076
2440	0.4142
2431	0.43
2422	0.4415
2413	0.4682
2404	0.4946
2395	0.5135
2386	0.5327
2377	0.5437
2368	0.5516
2359	0.5583
2350	0.5646
2341	0.5707
2332	0.5762
2323	0.5722
2314	0.5685
2305	0.5671
2296	0.5716
2287	0.5644
2278	0.5738
2269	0.5985
2260	0.6079
2251	0.6178
2242	0.6278
2233	0.6371
2224	0.6451
2215	0.6531
2206	0.6607
2197	0.6682
2188	0.6758
2179	0.6821
2170	0.6878
2161	0.6928
2152	0.6954
2143	0.6981
2134	0.7012
2125	0.6998
2116	0.6596
2107	0.6401
2098	0.6598
2089	0.6501
2080	0.6107
2071	0.5839
2062	0.4506
2053	0.5124
2044	0.5508
2035	0.5862
2026	0.6086
2017	0.6246
2008	0.6229
1999	0.6521
1990	0.6851
1981	0.7103
1972	0.7218
1963	0.7289
1954	0.7294
1945	0.7417
1936	0.7518
1927	0.7615
1918	0.7697
1909	0.7749
1900	0.7788
1891	0.7818
1882	0.7836
1873	0.7875
1864	0.7943
1855	0.7968
1846	0.7971
1837	0.7938
1828	0.7894
1819	0.7878
1810	0.7915
1801	0.7949
1792	0.7962
1783	0.8018
1774	0.8061
1765	0.8111
1756	0.8138
1747	0.8139
1738	0.8108
1729	0.8121
1720	0.8174
1711	0.8265
1702	0.8288
1693	0.8234
1684	0.8198
1675	0.8172
1666	0.8151
1657	0.8161
1648	0.818
1639	0.8268
1630	0.8478
1621	0.8698
1612	0.5671
1603	0.2984
1594	0.6842
1585	0.7876
1576	0.8114
1567	0.8118
1558	0.8119
1549	0.8171
1540	0.8389
1531	0.8654
1522	0.8658
1513	0.2058
1504	0.1558
1495	0.5632
1486	0.5425
1477	0.6908
1468	0.7345
1459	0.7644
1450	0.7781
1441	0.7849
1432	0.7841
1423	0.7831
1414	0.7812
1405	0.7784
1396	0.7798
1387	0.7736
1378	0.7672
1369	0.766
1360	0.7483
1351	0.7405
1342	0.6348
1333	0.714
1324	0.714
1315	0.7099
1306	0.711
1297	0.7156
1288	0.7219
1279	0.7284
1270	0.7349
1261	0.7425
1252	0.7465
1243	0.7511
1234	0.756
1225	0.7556
1216	0.7519
1207	0.746
1198	0.7494
1189	0.7522
1180	0.7483
1171	0.7492
1162	0.7388
1153	0.7211
1144	0.7318
1135	0.7399
1126	0.7507
1117	0.7715
1108	0.7736
1099	0.7358
1090	0.2259
1081	0.6226
1072	0.7421
1063	0.7675
1054	0.7656
1045	0.6836
1036	0.1199
1027	0.5196
1018	0.631
1009	0.3459
1000	0.6715
991	0.7324
982	0.7483
973	0.7476
964	0.7536
955	0.7671
946	0.7791
937	0.7888
928	0.7968
919	0.7965
910	0.8019
901	0.8078
892	0.8117
883	0.8263
874	0.8385
865	0.8462
856	0.8537
847	0.8578
838	0.8557
829	0.6865
820	0.4582
811	0.7842
802	0.8256
793	0.847
784	0.8509
775	0.8451
766	0.845
757	0.8443
748	0.838
739	0.8097
730	0.7774
721	0.7875
712	0.8449
703	0.8683
694	0.8786
685	0.8855
676	0.8774
667	0.8839
658	0.8795
649	0.8814
640	0.882
631	0.8814
622	0.8789
613	0.8766
604	0.8751
595	0.8749
586	0.8747
577	0.8725
568	0.869
559	0.8634
550	0.8592
541	0.8555
532	0.852
523	0.8496
514	0.8466
505	0.8428
496	0.8387
487	0.8312
478	0.8131
469	0.8011
460	0.7989
451	0.7887
442	0.778
433	0.7662
424	0.753
415	0.7388
406	0.7256
397	0.7146
388	0.7038
