Infrared Spectrum: Malonic dilactone, Alpha-[2-(diethylamino)ethyl]-cis-1(Me),3(H),4(H)-cis-3(H)-1,8-dihydroxy-3-p-menthyl
Formula: C19 H31 N O4
State: SOLUTION (7% CHCl3 FOR 2.5-12.5 MICRON) VS SOLVENT
Class: COBLENTZ
Instrument: PERKIN-ELMER 21 (GRATING)
Instrument parameters: FILTER AT ABOUT 10 MICRONS
Path length: 0.01 CM
Resolution: 2
Origin: ABBOTT LABORATORIES
1/CM	TRANSMITTANCE
798	0.9965
807	0.9536
816	0.9184
825	0.888
834	0.8651
843	0.9074
852	0.906
861	0.8805
870	0.863
879	0.8076
888	0.7917
897	0.7848
906	0.8434
915	0.7936
924	0.7506
933	0.498
942	0.5651
951	0.6731
960	0.7971
969	0.7093
978	0.6178
987	0.7445
996	0.7616
1005	0.7638
1014	0.6876
1023	0.727
1032	0.754
1041	0.724
1050	0.6809
1059	0.5891
1068	0.5096
1077	0.5487
1086	0.4008
1095	0.4167
1104	0.5105
1113	0.5258
1122	0.3796
1131	0.1111
1140	0.1318
1149	0.2979
1158	0.282
1167	0.3001
1176	0.479
1185	0.4668
1194	0.4076
1203	0.465
1212	0.458
1221	0.459
1230	0.4879
1239	0.5295
1248	0.3922
1257	0.3245
1266	0.4125
1275	0.4075
1284	0.3791
1293	0.4718
1302	0.5992
1311	0.5455
1320	0.6105
1329	0.6612
1338	0.5573
1347	0.6412
1356	0.6572
1365	0.5621
1374	0.3993
1383	0.4638
1392	0.7268
1401	0.8191
1410	0.8401
1419	0.8395
1428	0.7603
1437	0.6293
1446	0.5318
1455	0.5544
1464	0.6044
1473	0.6701
1482	0.8033
1491	0.8706
1500	0.888
1509	0.9049
1518	0.9089
1527	0.9075
1536	0.9045
1545	0.901
1554	0.8962
1563	0.8931
1572	0.8926
1581	0.8928
1590	0.8903
1599	0.8845
1608	0.8762
1617	0.8671
1626	0.8643
1635	0.8628
1644	0.857
1653	0.8458
1662	0.8328
1671	0.8118
1680	0.7794
1689	0.681
1698	0.5486
1707	0.4691
1716	0.45
1725	0.3953
1734	0.1261
1743	0.0274
1752	0.074
1761	0.2839
1770	0.5454
1779	0.7261
1788	0.8208
1797	0.8562
1806	0.8717
1815	0.8771
1824	0.8805
1833	0.8838
1842	0.8869
1851	0.8896
1860	0.8917
1869	0.8943
1878	0.8972
1887	0.8997
1896	0.9012
1905	0.9027
1914	0.9037
1923	0.9044
1932	0.9052
1941	0.9058
1950	0.9061
1959	0.9064
1968	0.9068
1977	0.9068
1986	0.9069
1995	0.9069
2004	0.9069
2013	0.9077
2022	0.9063
2031	0.906
2040	0.9055
2049	0.9048
2058	0.9041
2067	0.9032
2076	0.9022
2085	0.9013
2094	0.9002
2103	0.8994
2112	0.8986
2121	0.8977
2130	0.8971
2139	0.8968
2148	0.8965
2157	0.8963
2166	0.8961
2175	0.8959
2184	0.8957
2193	0.8954
2202	0.8951
2211	0.8948
2220	0.8946
2229	0.8945
2238	0.8943
2247	0.8942
2256	0.8941
2265	0.894
2274	0.8941
2283	0.8942
2292	0.8944
2301	0.8943
2310	0.8941
2319	0.894
2328	0.8938
2337	0.8936
2346	0.8935
2355	0.8933
2364	0.8931
2373	0.893
2382	0.8927
2391	0.8924
2400	0.8904
2409	0.8801
2418	0.8748
2427	0.8735
2436	0.8724
2445	0.8716
2454	0.8709
2463	0.8702
2472	0.8694
2481	0.8692
2490	0.8692
2499	0.8691
2508	0.869
2517	0.8689
2526	0.8688
2535	0.8688
2544	0.8688
2553	0.869
2562	0.8693
2571	0.8694
2580	0.8693
2589	0.8692
2598	0.8692
2607	0.8692
2616	0.8681
2625	0.8663
2634	0.8636
2643	0.8608
2652	0.8579
2661	0.8534
2670	0.8485
2679	0.8436
2688	0.8376
2697	0.8307
2706	0.8223
2715	0.8135
2724	0.8035
2733	0.7928
2742	0.782
2751	0.769
2760	0.7517
2769	0.7318
2778	0.704
2787	0.6722
2796	0.645
2805	0.6062
2814	0.6107
2823	0.6255
2832	0.6294
2841	0.6297
2850	0.6285
2859	0.6205
2868	0.5823
2877	0.5404
2886	0.5184
2895	0.5004
2904	0.4767
2913	0.451
2922	0.4039
2931	0.348
2940	0.3352
2949	0.3309
2958	0.3297
2967	0.3306
2976	0.3742
2985	0.4584
2994	0.5422
3003	0.6255
3012	0.7083
3021	0.7503
3030	0.7772
3039	0.7997
3048	0.8171
3057	0.8323
3066	0.8479
3075	0.8579
3084	0.8625
3093	0.8655
3102	0.8667
3111	0.8679
3120	0.8686
3129	0.8707
3138	0.8692
3147	0.8692
3156	0.8691
3165	0.869
3174	0.8688
3183	0.8684
3192	0.868
3201	0.8676
3210	0.8672
3219	0.8667
3228	0.8662
3237	0.8658
3246	0.8653
3255	0.8649
3264	0.8644
3273	0.864
3282	0.8636
3291	0.8632
3300	0.8628
3309	0.8625
3318	0.862
3327	0.8617
3336	0.8613
3345	0.861
3354	0.8606
3363	0.8606
3372	0.8606
3381	0.8606
3390	0.8606
3399	0.8606
3408	0.8612
3417	0.862
3426	0.8628
3435	0.8635
3444	0.865
3453	0.8665
3462	0.868
3471	0.8695
3480	0.8711
3489	0.8728
3498	0.875
3507	0.8773
3516	0.8797
3525	0.8821
3534	0.8842
3543	0.8856
3552	0.8869
3561	0.8882
3570	0.8895
3579	0.8907
3588	0.8915
3597	0.8918
3606	0.8922
3615	0.8925
3624	0.8929
3633	0.8933
3642	0.8935
3651	0.8934
3660	0.8933
3669	0.8932
3678	0.8931
3687	0.8931
3696	0.893
3705	0.8929
3714	0.8928
3723	0.8926
3732	0.8925
3741	0.8924
3750	0.8923
3759	0.8922
3768	0.8921
3777	0.8919
3786	0.8918
3795	0.8917
3804	0.8916
3813	0.8914
3822	0.8913
3831	0.8911
3840	0.8911
3849	0.8909
3858	0.8908
3867	0.8907
3876	0.8905
3885	0.8904
3894	0.8904
3903	0.8902
3912	0.8901
3921	0.89
3930	0.8899
3939	0.8898
3948	0.8897
3957	0.8895
3966	0.8895
3975	0.8893
3984	0.8892
3993	0.8892
