Infrared Spectrum: CUPROUS OXIDE
Formula: Cu2 O
State: SOLID (3 mg / 300 mg CsI DISC)
Class: COBLENTZ
Instrument: Not specified, most likely a grating spectrometer.
Sampling: TRANSMISSION
Resolution: 4
Origin: DESOTO CHEMICAL COATINGS, INC.
1/CM	TRANSMITTANCE
200	0.91
210.643	0.915
221.286	0.93
231.929	0.928
242.572	0.932
253.215	0.934
263.858	0.923
274.501	0.915
285.144	0.891
295.787	0.871
306.43	0.848
317.073	0.823
327.716	0.788
338.359	0.765
349.002	0.745
359.645	0.725
370.289	0.698
380.932	0.67
391.575	0.64
402.218	0.623
412.861	0.595
423.504	0.587
434.147	0.589
444.79	0.601
455.433	0.605
466.076	0.601
476.719	0.592
487.362	0.581
498.005	0.569
508.648	0.552
519.291	0.534
529.934	0.52
540.577	0.498
551.22	0.473
561.863	0.443
572.506	0.415
583.149	0.382
593.792	0.312
604.435	0.231
615.078	0.151
625.721	0.138
636.364	0.164
647.007	0.2859
657.65	0.6009
668.293	0.844
678.936	0.983
689.579	0.997
700.222	0.989
710.866	0.989
721.509	0.979
732.152	0.938
742.795	0.888
753.438	0.845
764.081	0.802
774.724	0.774
785.367	0.747
796.01	0.73
806.653	0.711
817.296	0.697
827.939	0.683
838.582	0.67
849.225	0.65
859.868	0.636
870.511	0.626
881.154	0.615
891.797	0.604
902.44	0.595
913.083	0.584
923.726	0.575
934.369	0.565
945.012	0.558
955.655	0.55
966.298	0.542
976.941	0.532
987.584	0.528
998.227	0.517
1008.87	0.51
1019.51	0.501
1030.16	0.491
1040.8	0.485
1051.44	0.481
1062.09	0.473
1072.73	0.465
1083.37	0.459
1094.01	0.455
1104.66	0.45
1115.3	0.446
1125.94	0.442
1136.59	0.442
1147.23	0.439
1157.87	0.436
1168.52	0.434
1179.16	0.431
1189.8	0.428
1200.44	0.423
1211.09	0.42
1221.73	0.414
1232.37	0.412
1243.02	0.408
1253.66	0.402
1264.3	0.4
1274.95	0.398
1285.59	0.39
1296.23	0.39
1306.88	0.383
1317.52	0.38
1328.16	0.379
1338.8	0.373
1349.45	0.368
1360.09	0.361
1370.73	0.36
1381.38	0.356
1392.02	0.355
1402.66	0.351
1413.31	0.349
1423.95	0.345
1434.59	0.343
1445.23	0.34
1455.88	0.336
1466.52	0.331
1477.16	0.331
1487.81	0.332
1498.45	0.327
1509.09	0.32
1519.74	0.32
1530.38	0.319
1541.02	0.319
1551.67	0.315
1562.31	0.31
1572.95	0.306
1583.59	0.3
1594.24	0.297
1604.88	0.293
1615.52	0.284
1626.17	0.284
1636.81	0.285
1647.45	0.289
1658.1	0.285
1668.74	0.286
1679.38	0.292
1690.02	0.292
1700.67	0.286
1711.31	0.281
1721.95	0.28
1732.6	0.282
1743.24	0.28
1753.88	0.28
1764.53	0.278
1775.17	0.274
1785.81	0.274
1796.45	0.272
1807.1	0.27
1817.74	0.266
1828.38	0.269
1839.03	0.265
1849.67	0.262
1860.31	0.261
1870.96	0.258
1881.6	0.257
1892.24	0.258
1902.89	0.253
1913.53	0.252
1924.17	0.249
1934.81	0.249
1945.46	0.25
1956.1	0.25
1966.74	0.245
1977.39	0.241
1988.03	0.242
1998.67	0.239
2009.32	0.242
2019.96	0.2415
2030.6	0.239
2041.24	0.239
2051.89	0.238
2062.53	0.2375
2073.17	0.2335
2083.82	0.229
2094.46	0.227
2105.1	0.227
2115.75	0.225
2126.39	0.223
2137.03	0.222
2147.67	0.221
2158.32	0.219
2168.96	0.219
2179.6	0.219
2190.25	0.219
2200.89	0.219
2211.53	0.215
2222.18	0.215
2232.82	0.214
2243.46	0.2122
2254.11	0.21
2264.75	0.211
2275.39	0.209
2286.03	0.209
2296.68	0.2066
2307.32	0.205
2317.96	0.205
2328.61	0.203
2339.25	0.201
2349.89	0.199
2360.54	0.199
2371.18	0.1986
2381.82	0.198
2392.46	0.197
2403.11	0.1963
2413.75	0.195
2424.39	0.194
2435.04	0.193
2445.68	0.191
2456.32	0.191
2466.97	0.19
2477.61	0.189
2488.25	0.1897
2498.89	0.189
2509.54	0.187
2520.18	0.184
2530.82	0.182
2541.47	0.182
2552.11	0.18
2562.75	0.18
2573.4	0.18
2584.04	0.178
2594.68	0.176
2605.33	0.176
2615.97	0.174
2626.61	0.178
2637.25	0.1757
2647.9	0.171
2658.54	0.171
2669.18	0.171
2679.83	0.1695
2690.47	0.17
2701.11	0.1695
2711.76	0.167
2722.4	0.167
2733.04	0.167
2743.68	0.167
2754.33	0.1668
2764.97	0.163
2775.61	0.16
2786.26	0.1598
2796.9	0.158
2807.54	0.159
2818.19	0.159
2828.83	0.156
2839.47	0.1576
2850.11	0.155
2860.76	0.1524
2871.4	0.1518
2882.04	0.1502
2892.69	0.15
2903.33	0.147
2913.97	0.147
2924.62	0.147
2935.26	0.147
2945.9	0.147
2956.55	0.1457
2967.19	0.144
2977.83	0.146
2988.47	0.1462
2999.12	0.147
3009.76	0.146
3020.4	0.1428
3031.05	0.1421
3041.69	0.142
3052.33	0.143
3062.98	0.14
3073.62	0.142
3084.26	0.142
3094.9	0.139
3105.55	0.138
3116.19	0.138
3126.83	0.1378
3137.48	0.1349
3148.12	0.134
3158.76	0.135
3169.41	0.1351
3180.05	0.1349
3190.69	0.131
3201.33	0.1311
3211.98	0.132
3222.62	0.1311
3233.26	0.1309
3243.91	0.1309
3254.55	0.13
3265.19	0.1282
3275.84	0.13
3286.48	0.128
3297.12	0.128
3307.77	0.127
3318.41	0.1269
3329.05	0.124
3339.69	0.1259
3350.34	0.1229
3360.98	0.1189
3371.62	0.115
3382.27	0.117
3392.91	0.116
3403.55	0.115
3414.2	0.112
3424.84	0.111
3435.48	0.108
3446.12	0.111
3456.77	0.111
3467.41	0.111
3478.05	0.111
3488.7	0.111
3499.34	0.111
3509.98	0.112
3520.63	0.112
3531.27	0.113
3541.91	0.112
3552.55	0.112
3563.2	0.112
3573.84	0.112
3584.48	0.113
3595.13	0.113
3605.77	0.115
3616.41	0.115
3627.06	0.117
3637.7	0.116
3648.34	0.1159
3658.99	0.12
3669.63	0.1171
3680.27	0.117
3690.91	0.117
3701.56	0.1151
3712.2	0.113
3722.84	0.1132
3733.49	0.112
3744.13	0.113
3754.77	0.113
3765.42	0.112
3776.06	0.109
3786.7	0.108
3797.34	0.108
3807.99	0.111
3818.63	0.108
3829.27	0.1108
3839.92	0.113
3850.56	0.111
3861.2	0.1081
3871.85	0.108
3882.49	0.111
3893.13	0.108
3903.77	0.105
3914.42	0.107
3925.06	0.1106
3935.7	0.109
3946.35	0.1071
3956.99	0.1032
3967.63	0.1002
3978.28	0.1
3988.92	0.099
