Infrared Spectrum: METHYLAMINE, 1-p-CHLOROPHENYL-1-PHENYL-, HYDROCHLORIDE
Formula: C13 H13 Cl2 N
State: SOLID (SPLIT MULL), FLUOROLUBE FOR 3800-1330 CM^-^1, NUJOL FOR 1330-400 CM^-^1
Class: COBLENTZ III
Instrument: BECKMAN IR-9 (GRATING)
Instrument parameters: ORDER CHANGES: 670, 1200, 2000 CM^-^1
Sampling: TRANSMISSION
Resolution: 2
Origin: DOW CHEMICAL COMPANY
1/CM	TRANSMITTANCE
405	0.5586
414	0.581
423	0.6496
432	0.7003
441	0.7376
450	0.7675
459	0.7833
468	0.8015
477	0.7891
486	0.7425
495	0.8037
504	0.8241
513	0.8357
522	0.838
531	0.8243
540	0.6475
549	0.1979
558	0.805
567	0.8475
576	0.858
585	0.8654
594	0.8754
603	0.8586
612	0.8187
621	0.8736
630	0.8654
639	0.859
648	0.8682
657	0.8621
666	0.8351
675	0.7111
684	0.8317
693	0.4527
702	0.2123
711	0.7397
720	0.6462
729	0.7133
738	0.7178
747	0.6806
756	0.5045
765	0.5294
774	0.2598
783	0.7867
792	0.8128
801	0.7974
810	0.8202
819	0.7524
828	0.6262
837	0.3656
846	0.7989
855	0.8284
864	0.8307
873	0.8282
882	0.8259
891	0.8174
900	0.8209
909	0.8193
918	0.7578
927	0.823
936	0.8221
945	0.8193
954	0.82
963	0.8104
972	0.7496
981	0.7807
990	0.71
999	0.7501
1008	0.7471
1017	0.7799
1026	0.7431
1035	0.7739
1044	0.8145
1053	0.8135
1062	0.7889
1071	0.641
1080	0.6537
1089	0.2933
1098	0.5868
1107	0.7278
1116	0.7742
1125	0.7511
1134	0.7742
1143	0.7865
1152	0.7675
1161	0.7649
1170	0.7737
1179	0.7433
1188	0.604
1197	0.7368
1206	0.7583
1215	0.8012
1224	0.803
1233	0.8088
1242	0.8036
1251	0.8024
1260	0.7936
1269	0.7618
1278	0.7143
1287	0.7036
1296	0.7396
1305	0.6611
1314	0.7387
1323	0.7465
1332	0.7041
1341	0.6915
1350	0.7201
1359	0.7724
1368	0.7734
1377	0.7247
1386	0.7683
1395	0.7807
1404	0.7775
1413	0.5687
1422	0.7961
1431	0.8075
1440	0.7975
1449	0.7298
1458	0.7043
1467	0.8097
1476	0.7804
1485	0.6674
1494	0.4592
1503	0.6842
1512	0.4231
1521	0.4539
1530	0.6875
1539	0.798
1548	0.8199
1557	0.8175
1566	0.8065
1575	0.7639
1584	0.6768
1593	0.5434
1602	0.5749
1611	0.6304
1620	0.8365
1629	0.8705
1638	0.8773
1647	0.8735
1656	0.8594
1665	0.8568
1674	0.8665
1683	0.8721
1692	0.8743
1701	0.8744
1710	0.8733
1719	0.8705
1728	0.8673
1737	0.8642
1746	0.8618
1755	0.8596
1764	0.8547
1773	0.8501
1782	0.847
1791	0.8484
1800	0.8482
1809	0.8455
1818	0.8462
1827	0.8518
1836	0.8475
1845	0.8437
1854	0.8436
1863	0.8447
1872	0.8421
1881	0.8364
1890	0.8334
1899	0.821
1908	0.8274
1917	0.838
1926	0.8383
1935	0.837
1944	0.8349
1953	0.8292
1962	0.8245
1971	0.8324
1980	0.8282
1989	0.8246
1998	0.8168
2007	0.8161
2016	0.8056
2025	0.7956
2034	0.7855
2043	0.7705
2052	0.7624
2061	0.7738
2070	0.7939
2079	0.8084
2088	0.8143
2097	0.8168
2106	0.8183
2115	0.8184
2124	0.8171
2133	0.815
2142	0.8128
2151	0.8098
2160	0.8061
2169	0.8021
2178	0.7982
2187	0.7928
2196	0.7878
2205	0.786
2214	0.7851
2223	0.783
2232	0.7808
2241	0.7776
2250	0.7753
2259	0.7726
2268	0.7696
2277	0.7665
2286	0.7636
2295	0.7608
2304	0.7581
2313	0.7555
2322	0.7539
2331	0.7522
2340	0.751
2349	0.7496
2358	0.7483
2367	0.7474
2376	0.7465
2385	0.7454
2394	0.7441
2403	0.7426
2412	0.7401
2421	0.7367
2430	0.733
2439	0.7291
2448	0.7261
2457	0.725
2466	0.7234
2475	0.7198
2484	0.7157
2493	0.7108
2502	0.7039
2511	0.7018
2520	0.7001
2529	0.6975
2538	0.6903
2547	0.6789
2556	0.6615
2565	0.6387
2574	0.6009
2583	0.5651
2592	0.546
2601	0.526
2610	0.5247
2619	0.5419
2628	0.5658
2637	0.5748
2646	0.5646
2655	0.5662
2664	0.5655
2673	0.5492
2682	0.534
2691	0.53
2700	0.5303
2709	0.5365
2718	0.5399
2727	0.5365
2736	0.5286
2745	0.5204
2754	0.5073
2763	0.487
2772	0.4677
2781	0.4431
2790	0.4088
2799	0.3822
2808	0.354
2817	0.3232
2826	0.29
2835	0.254
2844	0.2234
2853	0.1942
2862	0.1693
2871	0.1675
2880	0.1749
2889	0.1929
2898	0.211
2907	0.2211
2916	0.2298
2925	0.2368
2934	0.2425
2943	0.2449
2952	0.2652
2961	0.2926
2970	0.3174
2979	0.345
2988	0.3682
2997	0.3798
3006	0.396
3015	0.4233
3024	0.4433
3033	0.4493
3042	0.4644
3051	0.4675
3060	0.5293
3069	0.5875
3078	0.6307
3087	0.6415
3096	0.6495
3105	0.6842
3114	0.6997
3123	0.7117
3132	0.7264
3141	0.7411
3150	0.7549
3159	0.7628
3168	0.7626
3177	0.7608
3186	0.7565
3195	0.7496
3204	0.7445
3213	0.7603
3222	0.771
3231	0.7747
3240	0.7756
3249	0.7747
3258	0.773
3267	0.7712
3276	0.7699
3285	0.7685
3294	0.7671
3303	0.7657
3312	0.7628
3321	0.7596
3330	0.7564
3339	0.7531
3348	0.7498
3357	0.7469
3366	0.7447
3375	0.7422
3384	0.7399
3393	0.7375
3402	0.7354
3411	0.7333
3420	0.7312
3429	0.7292
3438	0.7272
3447	0.7253
3456	0.7235
3465	0.7221
3474	0.7208
3483	0.7195
3492	0.7182
3501	0.7167
3510	0.7151
3519	0.7137
3528	0.7121
3537	0.7106
3546	0.7091
3555	0.7075
3564	0.706
3573	0.7047
3582	0.7035
3591	0.7021
3600	0.7008
3609	0.6996
3618	0.6983
3627	0.6969
3636	0.6957
3645	0.6942
3654	0.6928
3663	0.6912
3672	0.69
3681	0.6886
3690	0.6874
3699	0.6851
3708	0.6826
3717	0.6808
3726	0.679
3735	0.6771
3744	0.6754
3753	0.6737
3762	0.6721
3771	0.6706
3780	0.6692
3789	0.6678
