Infrared Spectrum: Carbanilic acid, m-chloro-, 1-(cyclohexylcarbonyl) ethyl ester
Formula: C16 H20 Cl N O3
State: SOLID (SPLIT MULL), FLUOROLUBE FOR 3800-1330 CM^-^1, NUJOL FOR 1330-450 CM^-^1
Class: COBLENTZ III
Instrument: DOW KBr FOREPRISM-GRATING
Instrument parameters: BLAZED AT 3.5, 12.0, 20.0 MICRON AND CHANGED AT 5.0, 7.5, 14.9 MICRON
Sampling: TRANSMISSION
Resolution: 2
Origin: DOW CHEMICAL COMPANY
1/CM	TRANSMITTANCE
3798	0.852
3789	0.8525
3780	0.8532
3771	0.8532
3762	0.8532
3753	0.8536
3744	0.8541
3735	0.8544
3726	0.8547
3717	0.8549
3708	0.8552
3699	0.8549
3690	0.8544
3681	0.854
3672	0.8565
3663	0.8571
3654	0.8571
3645	0.8571
3636	0.8573
3627	0.8575
3618	0.8581
3609	0.8585
3600	0.8592
3591	0.8597
3582	0.8603
3573	0.861
3564	0.8617
3555	0.8623
3546	0.8625
3537	0.8628
3528	0.8631
3519	0.8632
3510	0.8633
3501	0.8635
3492	0.8644
3483	0.8654
3474	0.8659
3465	0.8635
3456	0.8597
3447	0.8571
3438	0.8564
3429	0.8561
3420	0.8577
3411	0.861
3402	0.8624
3393	0.8607
3384	0.858
3375	0.8534
3366	0.8454
3357	0.8321
3348	0.7854
3339	0.6751
3330	0.5397
3321	0.4066
3312	0.403
3303	0.5148
3294	0.6785
3285	0.7258
3276	0.7508
3267	0.7691
3258	0.7839
3249	0.7987
3240	0.8118
3231	0.8195
3222	0.828
3213	0.8342
3204	0.8366
3195	0.832
3186	0.8181
3177	0.8112
3168	0.827
3159	0.8448
3150	0.8468
3141	0.8438
3132	0.8351
3123	0.8191
3114	0.8142
3105	0.8216
3096	0.8374
3087	0.8387
3078	0.8349
3069	0.833
3060	0.8065
3051	0.8132
3042	0.8481
3033	0.854
3024	0.8574
3015	0.8586
3006	0.8488
2997	0.8155
2988	0.8021
2979	0.8254
2970	0.8115
2961	0.758
2952	0.6312
2943	0.4924
2934	0.3972
2925	0.5751
2916	0.616
2907	0.6861
2898	0.7591
2889	0.7957
2880	0.8083
2871	0.7968
2862	0.695
2853	0.636
2844	0.8138
2835	0.8311
2826	0.8395
2817	0.8441
2808	0.8485
2799	0.8524
2790	0.856
2781	0.8595
2772	0.8618
2763	0.8637
2754	0.8657
2745	0.867
2736	0.8685
2727	0.8698
2718	0.8712
2709	0.8727
2700	0.8751
2691	0.8768
2682	0.8774
2673	0.876
2664	0.8723
2655	0.8705
2646	0.8715
2637	0.8725
2628	0.8736
2619	0.874
2610	0.8746
2601	0.875
2592	0.8756
2583	0.8763
2574	0.877
2565	0.8775
2556	0.8781
2547	0.8781
2538	0.8778
2529	0.8771
2520	0.8756
2511	0.8739
2502	0.8725
2493	0.871
2484	0.8696
2475	0.8681
2466	0.8663
2457	0.8644
2448	0.8625
2439	0.861
2430	0.8595
2421	0.8583
2412	0.8573
2403	0.8563
2394	0.8562
2385	0.8571
2376	0.8574
2367	0.8602
2358	0.8628
2349	0.8602
2340	0.8553
2331	0.8518
2322	0.849
2313	0.8463
2304	0.8443
2295	0.844
2286	0.8438
2277	0.8441
2268	0.8447
2259	0.8454
2250	0.8471
2241	0.8505
2232	0.8571
2223	0.8634
2214	0.8678
2205	0.8694
2196	0.8685
2187	0.8695
2178	0.8706
2169	0.872
2160	0.8741
2151	0.876
2142	0.8778
2133	0.8795
2124	0.8812
2115	0.8828
2106	0.8847
2097	0.8863
2088	0.8875
2079	0.8887
2070	0.8897
2061	0.8905
2052	0.891
2043	0.8912
2034	0.8911
2025	0.8913
2016	0.8925
2007	0.8944
1998	0.8958
1989	0.8968
1980	0.8977
1971	0.8997
1962	0.9018
1953	0.9033
1944	0.8977
1935	0.8903
1926	0.8935
1917	0.8973
1908	0.9
1899	0.902
1890	0.9009
1881	0.8966
1872	0.8934
1863	0.887
1854	0.8767
1845	0.8804
1836	0.8805
1827	0.879
1818	0.8738
1809	0.8657
1800	0.8612
1791	0.8603
1782	0.8534
1773	0.8462
1764	0.8408
1755	0.7949
1746	0.6834
1737	0.0936
1728	0.2303
1719	0.0144
1710	0.491
1701	0.7046
1692	0.7678
1683	0.7797
1674	0.8145
1665	0.8298
1656	0.8309
1647	0.8404
1638	0.8392
1629	0.8427
1620	0.838
1611	0.7899
1602	0.4797
1593	0.054
1584	0.5925
1575	0.736
1566	0.7431
1557	0.7051
1548	0.4535
1539	0.2461
1530	0.496
1521	0.6997
1512	0.7757
1503	0.7896
1494	0.6964
1485	0.222
1476	0.5565
1467	0.6603
1458	0.6768
1449	0.5571
1440	0.6352
1431	0.7587
1422	0.7
1413	0.601
1404	0.432
1395	0.6964
1386	0.5643
1377	0.7217
1368	0.7239
1359	0.4809
1350	0.6395
1341	0.5884
1332	0.6356
1323	0.5973
1314	0.4438
1305	0.4
1296	0.5482
1287	0.6581
1278	0.6811
1269	0.6711
1260	0.6481
1251	0.5703
1242	0.3512
1233	0.1711
1224	0.1818
1215	0.0129
1206	0.0564
1197	0.4553
1188	0.6246
1179	0.6883
1170	0.719
1161	0.7019
1152	0.706
1143	0.65
1134	0.4658
1125	0.6425
1116	0.6057
1107	0.2932
1098	0.1135
1089	0.5612
1080	0.6575
1071	0.611
1062	0.2569
1053	0.6443
1044	0.7108
1035	0.6043
1026	0.6705
1017	0.6928
1008	0.4068
999	0.7104
990	0.7665
981	0.7836
972	0.7815
963	0.7793
954	0.7749
945	0.6186
936	0.7284
927	0.6817
918	0.6695
909	0.7046
900	0.7487
891	0.6493
882	0.5054
873	0.571
864	0.6547
855	0.7101
846	0.7669
837	0.7761
828	0.7919
819	0.7941
810	0.7978
801	0.7971
792	0.771
783	0.6987
774	0.3206
765	0.5873
756	0.7239
747	0.6542
738	0.7268
729	0.7233
720	0.6833
711	0.6855
702	0.6712
693	0.6515
684	0.4687
675	0.6071
666	0.6598
657	0.6907
648	0.7245
639	0.7565
630	0.7765
621	0.7918
612	0.8014
603	0.8075
594	0.8111
585	0.8132
576	0.8056
567	0.798
558	0.7996
549	0.8004
540	0.7978
531	0.7921
522	0.7849
513	0.7801
504	0.7768
495	0.775
486	0.7757
477	0.7767
468	0.7742
459	0.77
