Infrared Spectrum: Acetyl tri-(2-methylpentyl) citrate
Formula: C26 H46 O8
State: SOLUTION (10% CCl4 FOR 2.7-7.5, 10% CS2 FOR 7.5-26 MICRON) VS SOLVENT
Class: COBLENTZ III
Instrument: DOW KBr FOREPRISM-GRATING
Instrument parameters: BLAZED AT 3.5, 12.0, 20.0 MICRON AND CHANGED AT 5.0, 7.5, 14.9 MICRON
Sampling: TRANSMISSION
Path length: 0.011 CM, 0.011 CM
Resolution: 2
Origin: DOW CHEMICAL COMPANY
1/CM	TRANSMITTANCE
3786	0.8513
3777	0.8501
3768	0.8488
3759	0.848
3750	0.8475
3741	0.8482
3732	0.8489
3723	0.85
3714	0.8512
3705	0.852
3696	0.8527
3687	0.8534
3678	0.8537
3669	0.8539
3660	0.8542
3651	0.8546
3642	0.855
3633	0.8554
3624	0.8561
3615	0.8571
3606	0.8581
3597	0.8598
3588	0.8616
3579	0.8628
3570	0.8632
3561	0.8631
3552	0.8636
3543	0.864
3534	0.8646
3525	0.8654
3516	0.8662
3507	0.8659
3498	0.8643
3489	0.8598
3480	0.8534
3471	0.8475
3462	0.8435
3453	0.8409
3444	0.8408
3435	0.8465
3426	0.8587
3417	0.8688
3408	0.8751
3399	0.8775
3390	0.88
3381	0.8816
3372	0.8831
3363	0.8845
3354	0.885
3345	0.8853
3336	0.8858
3327	0.8861
3318	0.8863
3309	0.8865
3300	0.8867
3291	0.8868
3282	0.8871
3273	0.8874
3264	0.8871
3255	0.887
3246	0.8867
3237	0.8863
3228	0.8859
3219	0.8821
3210	0.8785
3201	0.8755
3192	0.8733
3183	0.8712
3174	0.8703
3165	0.8693
3156	0.8684
3147	0.8675
3138	0.867
3129	0.8661
3120	0.865
3111	0.8637
3102	0.8624
3093	0.8596
3084	0.8563
3075	0.8527
3066	0.8482
3057	0.843
3048	0.8353
3039	0.8198
3030	0.8005
3021	0.7822
3012	0.7486
3003	0.6408
2994	0.4733
2985	0.3291
2976	0.1767
2967	0.041
2958	0.0217
2949	0.0675
2940	0.1277
2931	0.098
2922	0.0967
2913	0.1527
2904	0.2151
2895	0.2346
2886	0.298
2877	0.2117
2868	0.2056
2859	0.3595
2850	0.4064
2841	0.6006
2832	0.6664
2823	0.7143
2814	0.7492
2805	0.7778
2796	0.8006
2787	0.8122
2778	0.8195
2769	0.8246
2760	0.8282
2751	0.8304
2742	0.8307
2733	0.822
2724	0.8132
2715	0.8191
2706	0.8277
2697	0.834
2688	0.8382
2679	0.8403
2670	0.8425
2661	0.8446
2652	0.8464
2643	0.8478
2634	0.8483
2625	0.8487
2616	0.8492
2607	0.8499
2598	0.8508
2589	0.8518
2580	0.853
2571	0.8542
2562	0.8554
2553	0.8565
2544	0.858
2535	0.8595
2526	0.8611
2517	0.8624
2508	0.8631
2499	0.8637
2490	0.8643
2481	0.8647
2472	0.8652
2463	0.8656
2454	0.8653
2445	0.8649
2436	0.864
2427	0.8625
2418	0.8608
2409	0.8586
2400	0.8571
2391	0.8564
2382	0.8575
2373	0.8584
2364	0.8586
2355	0.8589
2346	0.8593
2337	0.8596
2328	0.8568
2319	0.8524
2310	0.8512
2301	0.8521
2292	0.8533
2283	0.8544
2274	0.8554
2265	0.8564
2256	0.8574
2247	0.8584
2238	0.8595
2229	0.8604
2220	0.8608
2211	0.861
2202	0.8615
2193	0.8621
2184	0.8635
2175	0.8687
2166	0.8668
2157	0.8649
2148	0.8642
2139	0.8634
2130	0.8627
2121	0.8611
2112	0.8592
2103	0.8586
2094	0.8583
2085	0.858
2076	0.8578
2067	0.858
2058	0.8581
2049	0.8583
2040	0.8593
2031	0.8599
2022	0.8605
2013	0.8611
2004	0.8617
1995	0.8621
1986	0.8571
1977	0.8577
1968	0.8584
1959	0.8575
1950	0.8568
1941	0.8559
1932	0.855
1923	0.854
1914	0.8528
1905	0.8513
1896	0.8496
1887	0.8471
1878	0.8425
1869	0.8388
1860	0.8353
1851	0.8316
1842	0.8259
1833	0.8182
1824	0.8084
1815	0.7942
1806	0.7751
1797	0.7464
1788	0.7038
1779	0.5688
1770	0.2662
1761	0.0949
1752	0.0111
1743	0.0052
1734	0.0051
1725	0.0172
1716	0.3407
1707	0.5394
1698	0.6099
1689	0.6837
1680	0.7384
1671	0.7667
1662	0.7801
1653	0.7846
1644	0.7865
1635	0.7961
1626	0.8064
1617	0.814
1608	0.8201
1599	0.8264
1590	0.8308
1581	0.8328
1572	0.833
1563	0.833
1554	0.8352
1545	0.8375
1536	0.8365
1527	0.8234
1518	0.8178
1509	0.805
1500	0.7865
1491	0.7615
1482	0.7299
1473	0.3434
1464	0.2629
1455	0.3068
1446	0.4568
1437	0.4446
1428	0.4723
1419	0.478
1410	0.4585
1401	0.4452
1392	0.3032
1383	0.2655
1374	0.1779
1365	0.2584
1356	0.276
1347	0.2685
1338	0.3559
1329	0.4444
1320	0.4659
1311	0.481
1302	0.3541
1293	0.1686
1284	0.1296
1275	0.1423
1266	0.171
1257	0.1995
1248	0.1999
1239	0.108
1230	0.0662
1221	0.0625
1212	0.0908
1203	0.1045
1194	0.0922
1185	0.0503
1176	0.0377
1167	0.1194
1158	0.1913
1149	0.2016
1140	0.1802
1131	0.2073
1122	0.3408
1113	0.4835
1104	0.5596
1095	0.5991
1086	0.6006
1077	0.3703
1068	0.3071
1059	0.3316
1050	0.3328
1041	0.2507
1032	0.3304
1023	0.5236
1014	0.3314
1005	0.3121
996	0.2366
987	0.2594
978	0.4673
969	0.5622
960	0.608
951	0.5949
942	0.6303
933	0.6628
924	0.6681
915	0.6889
906	0.7134
897	0.7222
888	0.7336
879	0.7661
870	0.7918
861	0.7974
852	0.8075
843	0.8233
834	0.8107
825	0.8075
816	0.8068
807	0.8056
798	0.7786
789	0.7611
780	0.7818
771	0.7895
762	0.814
753	0.8268
744	0.7839
735	0.7171
726	0.8211
717	0.8498
708	0.8609
699	0.8656
690	0.8638
681	0.8499
672	0.8205
663	0.7914
654	0.7757
645	0.7738
636	0.8019
627	0.8258
618	0.831
609	0.8202
600	0.7701
591	0.7769
582	0.7965
573	0.81
564	0.8193
555	0.8267
546	0.8261
537	0.8193
528	0.8044
519	0.8034
510	0.8036
501	0.8006
492	0.7948
483	0.7864
474	0.779
465	0.7786
456	0.7751
447	0.765
438	0.7649
429	0.7656
420	0.766
411	0.7667
402	0.7674
393	0.7676
