Infrared Spectrum: Methanediamine, N,N'-dimethyl-, dihydrochloride
Formula: C3 H12 Cl2 N2
State: SOLID (KBr DISC, 0.9% WT.)
Class: COBLENTZ III
Instrument: PERKIN-ELMER 157
Sampling: TRANSMISSION
Resolution: 2
Origin: BRITISH PETROLEUM CO. LTD., ENGLAND
1/CM	TRANSMITTANCE
667	0.8677
676	0.8638
685	0.8584
694	0.8601
703	0.8524
712	0.8448
721	0.8172
730	0.8134
739	0.7931
748	0.7795
757	0.7618
766	0.761
775	0.7418
784	0.7268
793	0.6967
802	0.6685
811	0.6282
820	0.5922
829	0.5481
838	0.5465
847	0.5163
856	0.3851
865	0.1697
874	0.2271
883	0.2731
892	0.3337
901	0.516
910	0.4863
919	0.4197
928	0.4643
937	0.4965
946	0.5367
955	0.5542
964	0.5312
973	0.4889
982	0.4862
991	0.4746
1000	0.4812
1009	0.4461
1018	0.2343
1027	0.0423
1036	0.4459
1045	0.5005
1054	0.5305
1063	0.5264
1072	0.5089
1081	0.4236
1090	0.4529
1099	0.4599
1108	0.4224
1117	0.4693
1126	0.5246
1135	0.5262
1144	0.4985
1153	0.4594
1162	0.428
1171	0.4349
1180	0.4421
1189	0.4539
1198	0.4973
1207	0.5172
1216	0.5232
1225	0.5004
1234	0.3675
1243	0.4737
1252	0.3217
1261	0.3194
1270	0.5118
1279	0.5225
1288	0.4961
1297	0.4847
1306	0.4772
1315	0.4549
1324	0.4204
1333	0.3968
1342	0.3836
1351	0.371
1360	0.3518
1369	0.329
1378	0.3104
1387	0.2808
1396	0.2263
1405	0.1398
1414	0.2204
1423	0.1952
1432	0.1698
1441	0.1967
1450	0.1666
1459	0.0458
1468	0.0332
1477	0.0446
1486	0.0982
1495	0.2926
1504	0.3207
1513	0.3262
1522	0.3257
1531	0.3233
1540	0.3216
1549	0.3212
1558	0.3214
1567	0.3119
1576	0.2637
1585	0.2024
1594	0.127
1603	0.2822
1612	0.3218
1621	0.3221
1630	0.3251
1639	0.3481
1648	0.3725
1657	0.4083
1666	0.4115
1675	0.4116
1684	0.4103
1693	0.3997
1702	0.382
1711	0.3726
1720	0.3716
1729	0.3709
1738	0.3729
1747	0.402
1756	0.4208
1765	0.4212
1774	0.4139
1783	0.4163
1792	0.4277
1801	0.4494
1810	0.483
1819	0.5079
1828	0.5303
1837	0.5325
1846	0.5327
1855	0.5329
1864	0.5323
1873	0.5288
1882	0.5233
1891	0.5188
1900	0.5168
1909	0.5221
1918	0.5296
1927	0.532
1936	0.5327
1945	0.5327
1954	0.5326
1963	0.5324
1972	0.5323
1981	0.5305
1990	0.5242
1999	0.5191
2008	0.5152
2017	0.5102
2026	0.5036
2035	0.4978
2044	0.4909
2053	0.4839
2062	0.4772
2071	0.4724
2080	0.45
2089	0.4386
2098	0.4281
2107	0.4164
2116	0.4071
2125	0.4116
2134	0.4305
2143	0.4523
2152	0.4621
2161	0.4628
2170	0.462
2179	0.4604
2188	0.4571
2197	0.4535
2206	0.4486
2215	0.4458
2224	0.4443
2233	0.4337
2242	0.4296
2251	0.4262
2260	0.4231
2269	0.4179
2278	0.4027
2287	0.3835
2296	0.3719
2305	0.371
2314	0.3555
2323	0.3366
2332	0.3178
2341	0.2993
2350	0.2879
2359	0.274
2368	0.2606
2377	0.2443
2386	0.2316
2395	0.1951
2404	0.1267
2413	0.0635
2422	0.0362
2431	0.0313
2440	0.032
2449	0.0575
2458	0.0919
2467	0.1262
2476	0.1508
2485	0.1547
2494	0.1544
2503	0.1518
2512	0.1552
2521	0.163
2530	0.1668
2539	0.1653
2548	0.1606
2557	0.1554
2566	0.1503
2575	0.1434
2584	0.1357
2593	0.1264
2602	0.1196
2611	0.1113
2620	0.0985
2629	0.0805
2638	0.0627
2647	0.0504
2656	0.0381
2665	0.0353
2674	0.0336
2683	0.0308
2692	0.0158
2701	0.0134
2710	0.012
2719	0.0111
2728	0.0103
2737	0.0094
2746	0.0091
2755	0.0088
2764	0.0087
2773	0.0088
2782	0.0089
2791	0.009
2800	0.0092
2809	0.0093
2818	0.0094
2827	0.0095
2836	0.0097
2845	0.0098
2854	0.01
2863	0.0102
2872	0.0103
2881	0.0105
2890	0.0106
2899	0.0106
2908	0.0107
2917	0.0107
2926	0.0107
2935	0.0108
2944	0.011
2953	0.0111
2962	0.0113
2971	0.0116
2980	0.012
2989	0.0123
2998	0.0132
3007	0.0168
3016	0.0219
3025	0.0254
3034	0.0269
3043	0.028
3052	0.0292
3061	0.0319
3070	0.0346
3079	0.0378
3088	0.0412
3097	0.0448
3106	0.0503
3115	0.0581
3124	0.0632
3133	0.0653
3142	0.0665
3151	0.0675
3160	0.0683
3169	0.07
3178	0.0806
3187	0.0901
3196	0.094
3205	0.0967
3214	0.0997
3223	0.1027
3232	0.1055
3241	0.1079
3250	0.1097
3259	0.1104
3268	0.1102
3277	0.1092
3286	0.1077
3295	0.1053
3304	0.1025
3313	0.0997
3322	0.0967
3331	0.0938
3340	0.0914
3349	0.0889
3358	0.0863
3367	0.0841
3376	0.0824
3385	0.0807
3394	0.0794
3403	0.0783
3412	0.0781
3421	0.0782
3430	0.0787
3439	0.0809
3448	0.0834
3457	0.088
3466	0.0939
3475	0.0994
3484	0.104
3493	0.1084
3502	0.1127
3511	0.1164
3520	0.1349
3529	0.162
3538	0.1724
3547	0.1797
3556	0.1899
3565	0.207
3574	0.2169
3583	0.2232
3592	0.2284
3601	0.2339
3610	0.2366
3619	0.2385
3628	0.2398
3637	0.2406
3646	0.2412
3655	0.2418
3664	0.2423
3673	0.2426
3682	0.243
3691	0.2432
3700	0.2434
3709	0.2436
3718	0.2438
3727	0.2441
3736	0.2442
3745	0.2442
3754	0.2441
3763	0.2438
3772	0.2434
3781	0.2427
3790	0.2411
3799	0.2391
3808	0.2374
3817	0.2358
3826	0.2344
3835	0.2332
3844	0.2322
3853	0.2313
3862	0.2306
3871	0.2302
3880	0.2298
3889	0.2294
3898	0.2291
3907	0.2289
3916	0.2287
3925	0.2285
3934	0.2283
3943	0.2283
3952	0.2283
3961	0.2283
3970	0.2283
3979	0.2283
3988	0.2282
3997	0.2282
