Infrared Spectrum: LEAD CARBONATE
Formula: Pb C O3
State: SOLID (NUJOL MULL)
Class: COBLENTZ
Instrument: Not specified, most likely a prism, grating, or hybrid spectrometer.
Sampling: TRANSMISSION
Resolution: 4
Origin: MELLON INSTITUTE
MICROMETERS	TRANSMITTANCE
2.043	0.451
2.08402	0.452
2.12504	0.464
2.16605	0.475
2.20707	0.481
2.24809	0.49
2.28911	0.497
2.33012	0.509
2.37114	0.523
2.41216	0.53
2.45318	0.54
2.49419	0.552
2.53521	0.562
2.57623	0.569
2.61725	0.583
2.65826	0.586
2.69928	0.6
2.7403	0.603
2.78132	0.607
2.82233	0.607
2.86335	0.608
2.90437	0.61
2.94539	0.615
2.9864	0.622
3.02742	0.629
3.06844	0.636
3.10946	0.641
3.15047	0.648
3.19149	0.655
3.23251	0.66
3.27353	0.65
3.31454	0.469
3.35556	0.246
3.39658	0.307
3.4376	0.372
3.47861	0.531
3.51963	0.704
3.56065	0.737
3.60167	0.754
3.64268	0.763
3.6837	0.768
3.72472	0.771
3.76574	0.775
3.80675	0.778
3.84777	0.783
3.88879	0.789
3.92981	0.795
3.97082	0.799
4.01184	0.799
4.05286	0.801
4.09388	0.801
4.13489	0.801
4.17591	0.802
4.21693	0.801
4.25795	0.799
4.29896	0.794
4.33998	0.802
4.381	0.801
4.42202	0.806
4.46303	0.807
4.50405	0.814
4.54507	0.816
4.58609	0.818
4.6271	0.818
4.66812	0.823
4.70914	0.823
4.75016	0.823
4.79117	0.823
4.83219	0.826
4.87321	0.831
4.91423	0.842
4.95524	0.845
4.99626	0.849
5.03728	0.854
5.0783	0.854
5.11931	0.855
5.16033	0.861
5.20135	0.864
5.24237	0.869
5.28338	0.881
5.3244	0.879
5.36542	0.879
5.40644	0.881
5.44745	0.883
5.48847	0.883
5.52949	0.89
5.57051	0.891
5.61152	0.9
5.65254	0.903
5.69356	0.909
5.73458	0.903
5.77559	0.905
5.81661	0.91
5.85763	0.914
5.89865	0.924
5.93966	0.921
5.98068	0.927
6.0217	0.924
6.06272	0.926
6.10373	0.934
6.14475	0.929
6.18577	0.929
6.22679	0.922
6.2678	0.914
6.30882	0.897
6.34984	0.895
6.39086	0.893
6.43187	0.888
6.47289	0.873
6.51391	0.862
6.55493	0.849
6.59594	0.83
6.63696	0.785
6.67798	0.716
6.719	0.596
6.76001	0.483
6.80103	0.355
6.84205	0.319
6.88307	0.252
6.92408	0.24
6.9651	0.224
7.00612	0.21
7.04714	0.2
7.08815	0.192
7.12917	0.192
7.17019	0.204
7.21121	0.233
7.25222	0.291
7.29324	0.351
7.33426	0.425
7.37528	0.463
7.41629	0.531
7.45731	0.581
7.49833	0.655
7.53935	0.686
7.58036	0.704
7.62138	0.739
7.6624	0.759
7.70342	0.778
7.74443	0.792
7.78545	0.802
7.82647	0.823
7.86749	0.842
7.9085	0.852
7.94952	0.859
7.99054	0.866
8.03156	0.871
8.07257	0.874
8.11359	0.885
8.15461	0.89
8.19563	0.893
8.23664	0.895
8.27766	0.895
8.31868	0.893
8.3597	0.895
8.40071	0.9
8.44173	0.9
8.48275	0.905
8.52377	0.902
8.56478	0.903
8.6058	0.905
8.64682	0.907
8.68784	0.903
8.72885	0.903
8.76987	0.909
8.81089	0.914
8.85191	0.914
8.89292	0.905
8.93394	0.91
8.97496	0.912
9.01598	0.912
9.057	0.91
9.09801	0.909
9.13903	0.914
9.18005	0.912
9.22107	0.912
9.26208	0.914
9.3031	0.919
9.34412	0.921
9.38514	0.922
9.42615	0.922
9.46717	0.915
9.50819	0.903
9.54921	0.9
9.59022	0.902
9.63124	0.91
9.67226	0.917
9.71328	0.921
9.75429	0.926
9.79531	0.924
9.83633	0.927
9.87735	0.934
9.91836	0.933
9.95938	0.934
10.0004	0.934
10.0414	0.938
10.0824	0.941
10.1235	0.943
10.1645	0.946
10.2055	0.941
10.2465	0.939
10.2875	0.943
10.3285	0.936
10.3696	0.934
10.4106	0.945
10.4516	0.945
10.4926	0.938
10.5336	0.946
10.5746	0.945
10.6157	0.945
10.6567	0.943
10.6977	0.936
10.7387	0.934
10.7797	0.938
10.8207	0.938
10.8618	0.936
10.9028	0.934
10.9438	0.936
10.9848	0.936
11.0258	0.945
11.0669	0.946
11.1079	0.945
11.1489	0.939
11.1899	0.934
11.2309	0.943
11.2719	0.941
11.313	0.941
11.354	0.936
11.395	0.938
11.436	0.936
11.477	0.936
11.518	0.941
11.5591	0.939
11.6001	0.934
11.6411	0.934
11.6821	0.931
11.7231	0.929
11.7642	0.931
11.8052	0.922
11.8462	0.909
11.8872	0.893
11.9282	0.891
11.9692	0.897
12.0103	0.905
12.0513	0.909
12.0923	0.909
12.1333	0.91
12.1743	0.91
12.2153	0.915
12.2564	0.921
12.2974	0.921
12.3384	0.912
12.3794	0.907
12.4204	0.905
12.4614	0.905
12.5025	0.898
12.5435	0.898
12.5845	0.9
12.6255	0.897
12.6665	0.891
12.7076	0.89
12.7486	0.885
12.7896	0.883
12.8306	0.879
12.8716	0.876
12.9126	0.874
12.9537	0.869
12.9947	0.866
13.0357	0.864
13.0767	0.862
13.1177	0.859
13.1587	0.855
13.1998	0.852
13.2408	0.852
13.2818	0.847
13.3228	0.843
13.3638	0.842
13.4049	0.831
13.4459	0.825
13.4869	0.818
13.5279	0.811
13.5689	0.802
13.6099	0.797
13.651	0.789
13.692	0.78
13.733	0.773
13.774	0.766
13.815	0.754
13.856	0.753
13.8971	0.751
13.9381	0.751
13.9791	0.749
14.0201	0.74
14.0611	0.728
14.1021	0.715
14.1432	0.703
14.1842	0.686
14.2252	0.672
14.2662	0.634
14.3072	0.602
14.3483	0.569
14.3893	0.552
14.4303	0.547
14.4713	0.521
14.5123	0.497
14.5533	0.459
14.5944	0.449
14.6354	0.452
14.6764	0.475
14.7174	0.499
14.7584	0.507
14.7994	0.511
14.8405	0.526
14.8815	0.547
14.9225	0.545
14.9635	0.543
15.0045	0.547
15.0456	0.543
15.0866	0.543
15.1276	0.536
15.1686	0.538
15.2096	0.53
15.2506	0.521
15.2917	0.519
15.3327	0.521
15.3737	0.521
15.4147	0.521
15.4557	0.519
15.4967	0.516
15.5378	0.514
15.5788	0.518
15.6198	0.518
15.6608	0.521
15.7018	0.523
15.7428	0.523
15.7839	0.524
15.8249	0.519
15.8659	0.521
15.9069	0.524
15.9479	0.524
15.989	0.53
