Infrared Spectrum: VALERIC ACID, 2-(DIETHYLPHOSPHONO), METHYL ESTER
Formula: C10 H21 O5 P
State: LIQUID (NEAT)
Class: COBLENTZ III
Instrument: PERKIN-ELMER 21 (GRATING)
Instrument parameters: FILTER CHANGE ABOUT 1090 CM^-^1
Sampling: TRANSMISSION
Path length: CAPILLARY
Resolution: 2
Origin: SOUTHERN RESEARCH INSTITUTE
1/CM	TRANSMITTANCE
603.34	0.7702
612.406	0.7761
621.472	0.7872
630.539	0.8051
639.605	0.8265
648.671	0.8511
657.737	0.8813
666.804	0.9115
675.87	0.93
684.936	0.927
694.002	0.915
703.069	0.901
712.135	0.8861
721.201	0.8742
730.267	0.8437
739.334	0.792
748.4	0.7204
757.466	0.715
766.532	0.7105
775.599	0.716
784.665	0.6677
793.731	0.636
802.797	0.6904
811.864	0.7433
820.93	0.7636
829.996	0.7766
839.062	0.7454
848.129	0.7011
857.195	0.6708
866.261	0.6555
875.327	0.756
884.394	0.7714
893.46	0.7572
902.526	0.7408
911.592	0.7259
920.659	0.6735
929.725	0.5879
938.791	0.5224
947.857	0.3832
956.923	0.2587
965.99	0.1869
975.056	0.2108
984.122	0.3327
993.188	0.4937
1002.25	0.515
1011.32	0.3715
1020.39	0.0776
1029.45	0.0595
1038.52	0.0892
1047.59	0.0806
1056.65	0.0923
1065.72	0.1394
1074.78	0.3372
1083.85	0.5148
1092.92	0.4827
1101.98	0.4255
1111.05	0.4689
1120.12	0.4527
1129.18	0.6148
1138.25	0.6147
1147.31	0.576
1156.38	0.383
1165.45	0.2559
1174.51	0.3051
1183.58	0.4615
1192.65	0.408
1201.71	0.3677
1210.78	0.4353
1219.84	0.5052
1228.91	0.5134
1237.98	0.3861
1247.04	0.1651
1256.11	0.1045
1265.18	0.1318
1274.24	0.2292
1283.31	0.3499
1292.37	0.4365
1301.44	0.4522
1310.51	0.532
1319.57	0.5651
1328.64	0.49
1337.71	0.4488
1346.77	0.5255
1355.84	0.612
1364.9	0.6562
1373.97	0.6134
1383.04	0.6279
1392.1	0.5805
1401.17	0.5844
1410.24	0.6745
1419.3	0.7017
1428.37	0.6811
1437.43	0.5873
1446.5	0.474
1455.57	0.4993
1464.63	0.5284
1473.7	0.5357
1482.77	0.6336
1491.83	0.6762
1500.9	0.7267
1509.96	0.7361
1519.03	0.7406
1528.1	0.7428
1537.16	0.7421
1546.23	0.7433
1555.3	0.7411
1564.36	0.7345
1573.43	0.7448
1582.49	0.7419
1591.56	0.7442
1600.63	0.7411
1609.69	0.7385
1618.76	0.7327
1627.83	0.717
1636.89	0.7105
1645.96	0.7081
1655.02	0.7097
1664.09	0.7159
1673.16	0.7095
1682.22	0.7013
1691.29	0.6814
1700.36	0.6548
1709.42	0.6341
1718.49	0.615
1727.55	0.3867
1736.62	0.1136
1745.69	0.1184
1754.75	0.3693
1763.82	0.5841
1772.89	0.6585
1781.95	0.6887
1791.02	0.7032
1800.08	0.7028
1809.15	0.7056
1818.22	0.712
1827.28	0.7137
1836.35	0.7122
1845.42	0.7145
1854.48	0.721
1863.55	0.7247
1872.61	0.724
1881.68	0.7232
1890.75	0.7234
1899.81	0.7236
1908.88	0.7235
1917.95	0.723
1927.01	0.7222
1936.08	0.7222
1945.14	0.7212
1954.21	0.7189
1963.28	0.7176
1972.34	0.7173
1981.41	0.7208
1990.48	0.719
1999.54	0.7157
2008.61	0.7155
2017.67	0.7154
2026.74	0.7153
2035.81	0.7146
2044.87	0.7092
2053.94	0.7092
2063.01	0.7101
2072.07	0.7105
2081.14	0.7102
2090.2	0.7101
2099.27	0.7101
2108.34	0.7105
2117.4	0.7108
2126.47	0.7102
2135.54	0.7107
2144.6	0.71
2153.67	0.7086
2162.73	0.7071
2171.8	0.7059
2180.87	0.7052
2189.93	0.71
2199	0.7108
2208.07	0.7102
2217.13	0.7085
2226.2	0.7077
2235.26	0.7063
2244.33	0.7067
2253.4	0.7074
2262.46	0.7073
2271.53	0.7073
2280.59	0.7075
2289.66	0.7087
2298.73	0.709
2307.79	0.7065
2316.86	0.7033
2325.93	0.6984
2334.99	0.6935
2344.06	0.6943
2353.12	0.6961
2362.19	0.6973
2371.26	0.6974
2380.32	0.6975
2389.39	0.6974
2398.46	0.6968
2407.52	0.6957
2416.59	0.6954
2425.65	0.6949
2434.72	0.6942
2443.79	0.6935
2452.85	0.6927
2461.92	0.6919
2470.99	0.691
2480.05	0.6907
2489.12	0.6906
2498.18	0.691
2507.25	0.6926
2516.32	0.6994
2525.38	0.6993
2534.45	0.6916
2543.52	0.6903
2552.58	0.6899
2561.65	0.689
2570.71	0.6878
2579.78	0.688
2588.85	0.6887
2597.91	0.6895
2606.98	0.6891
2616.05	0.6881
2625.11	0.6871
2634.18	0.687
2643.24	0.6874
2652.31	0.6877
2661.38	0.6879
2670.44	0.6881
2679.51	0.6885
2688.58	0.6884
2697.64	0.6841
2706.71	0.6787
2715.77	0.6779
2724.84	0.6783
2733.91	0.6799
2742.97	0.6816
2752.04	0.6831
2761.11	0.6837
2770.17	0.6817
2779.24	0.6745
2788.3	0.6624
2797.37	0.6628
2806.44	0.6597
2815.5	0.6498
2824.57	0.6386
2833.64	0.6267
2842.7	0.6039
2851.77	0.5631
2860.83	0.5221
2869.9	0.49
2878.97	0.4805
2888.03	0.4838
2897.1	0.4813
2906.17	0.4425
2915.23	0.4053
2924.3	0.3828
2933.36	0.3649
2942.43	0.3445
2951.5	0.3321
2960.56	0.3118
2969.63	0.3087
2978.7	0.3379
2987.76	0.3678
2996.83	0.3882
3005.89	0.4562
3014.96	0.5232
3024.03	0.5599
3033.09	0.5913
3042.16	0.6089
3051.23	0.6206
3060.29	0.6289
3069.36	0.6358
3078.42	0.6412
3087.49	0.646
3096.56	0.6499
3105.62	0.6517
3114.69	0.6529
3123.76	0.6557
3132.82	0.6598
3141.89	0.6603
3150.95	0.6584
3160.02	0.6561
3169.09	0.6546
3178.15	0.6541
3187.22	0.6543
3196.29	0.6545
3205.35	0.6545
3214.42	0.6543
3223.48	0.6539
3232.55	0.653
3241.62	0.6522
3250.68	0.6513
3259.75	0.6503
3268.82	0.6489
3277.88	0.6474
3286.95	0.6465
3296.01	0.6456
3305.08	0.6447
3314.15	0.6441
3323.21	0.6441
3332.28	0.6463
3341.35	0.6477
3350.41	0.6464
3359.48	0.6439
3368.54	0.6395
3377.61	0.6308
3386.68	0.6194
3395.74	0.6132
3404.81	0.6066
3413.88	0.6012
3422.94	0.5971
3432.01	0.5941
3441.07	0.5826
3450.14	0.5717
3459.21	0.5706
3468.27	0.5698
3477.34	0.5702
3486.41	0.5703
3495.47	0.573
3504.54	0.5757
3513.6	0.5793
3522.67	0.5772
3531.74	0.5753
3540.8	0.5799
3549.87	0.5871
3558.94	0.5951
3568	0.5966
3577.07	0.5989
3586.13	0.6018
3595.2	0.6049
3604.27	0.6068
3613.33	0.6089
3622.4	0.6117
3631.47	0.6191
3640.53	0.6259
3649.6	0.6279
3658.66	0.628
3667.73	0.6296
3676.8	0.6337
3685.86	0.6377
3694.93	0.6385
3704	0.6394
3713.06	0.6402
3722.13	0.6411
3731.19	0.6419
3740.26	0.6424
3749.33	0.643
3758.39	0.6441
3767.46	0.6457
3776.53	0.6474
3785.59	0.6493
3794.66	0.6502
3803.72	0.649
3812.79	0.646
3821.86	0.6437
3830.92	0.6458
3839.99	0.6495
3849.05	0.6495
3858.12	0.649
3867.19	0.6477
3876.25	0.6464
3885.32	0.645
3894.39	0.6436
3903.45	0.6415
3912.52	0.6391
3921.58	0.6389
3930.65	0.6389
3939.72	0.64
3948.78	0.6408
3957.85	0.6393
3966.92	0.6372
3975.98	0.6397
3985.05	0.6427
3994.11	0.6399
4003.18	0.6448
