Infrared Spectrum: ETHYLAMINE SULFATE, 3,4,5-TRIMETHOXYPHEN-, DIHYDRATE
Formula: C22 H36 N2 O10 S  * 2 H2 O
State: SOLID (1.2 mg / 200 mg KBr DISC)
Melting point: 183-186 C
Class: COBLENTZ III
Instrument: PERKIN-ELMER 21 (GRATING)
Instrument parameters: FILTER AT ABOUT 10 MICRONS
Sampling: TRANSMISSION
Resolution: 2
1/CM	TRANSMITTANCE
4000	0.9771
3991	0.977
3982	0.9768
3973	0.9767
3964	0.9766
3955	0.9764
3946	0.9763
3937	0.9763
3928	0.9762
3919	0.9762
3910	0.9762
3901	0.9764
3892	0.9774
3883	0.9784
3874	0.9795
3865	0.9807
3856	0.982
3847	0.9833
3838	0.9847
3829	0.9861
3820	0.9873
3811	0.9881
3802	0.9888
3793	0.9894
3784	0.99
3775	0.9905
3766	0.9907
3757	0.9911
3748	0.9916
3739	0.9918
3730	0.9907
3721	0.9887
3712	0.987
3703	0.986
3694	0.9852
3685	0.9847
3676	0.9843
3667	0.9838
3658	0.9828
3649	0.9791
3640	0.9711
3631	0.955
3622	0.9396
3613	0.925
3604	0.9086
3595	0.8762
3586	0.8348
3577	0.8192
3568	0.8036
3559	0.7842
3550	0.7628
3541	0.741
3532	0.7165
3523	0.6938
3514	0.671
3505	0.6468
3496	0.6224
3487	0.5979
3478	0.5734
3469	0.5487
3460	0.5238
3451	0.4988
3442	0.4738
3433	0.4583
3424	0.4524
3415	0.4504
3406	0.4493
3397	0.45
3388	0.4529
3379	0.464
3370	0.4759
3361	0.4925
3352	0.5144
3343	0.5362
3334	0.5584
3325	0.5806
3316	0.6029
3307	0.622
3298	0.6294
3289	0.6354
3280	0.6371
3271	0.6372
3262	0.6344
3253	0.6305
3244	0.6254
3235	0.6193
3226	0.6108
3217	0.5909
3208	0.5655
3199	0.5476
3190	0.5316
3181	0.5186
3172	0.5067
3163	0.4947
3154	0.4832
3145	0.4717
3136	0.4596
3127	0.4468
3118	0.4312
3109	0.4148
3100	0.4009
3091	0.3876
3082	0.3758
3073	0.3647
3064	0.3559
3055	0.3473
3046	0.3386
3037	0.33
3028	0.3223
3019	0.3147
3010	0.3071
3001	0.2998
2992	0.2924
2983	0.2856
2974	0.279
2965	0.2719
2956	0.2641
2947	0.2579
2938	0.2529
2929	0.25
2920	0.2484
2911	0.2521
2902	0.2574
2893	0.2649
2884	0.2728
2875	0.2823
2866	0.2937
2857	0.3149
2848	0.3275
2839	0.3327
2830	0.3372
2821	0.3618
2812	0.3956
2803	0.4364
2794	0.4673
2785	0.4874
2776	0.5076
2767	0.5252
2758	0.5423
2749	0.5575
2740	0.5721
2731	0.5829
2722	0.5937
2713	0.6057
2704	0.6181
2695	0.6308
2686	0.6421
2677	0.649
2668	0.6517
2659	0.6543
2650	0.6569
2641	0.6633
2632	0.6739
2623	0.6864
2614	0.7004
2605	0.7136
2596	0.7224
2587	0.7255
2578	0.7258
2569	0.7296
2560	0.7371
2551	0.7478
2542	0.7621
2533	0.7789
2524	0.7967
2515	0.8125
2506	0.8228
2497	0.8293
2488	0.8331
2479	0.8354
2470	0.8368
2461	0.8375
2452	0.8384
2443	0.8444
2434	0.8535
2425	0.8635
2416	0.8735
2407	0.8847
2398	0.8971
2389	0.909
2380	0.9178
2371	0.9249
2362	0.9258
2353	0.9271
2344	0.9321
2335	0.9361
2326	0.9375
2317	0.9388
2308	0.9394
2299	0.9378
2290	0.9342
2281	0.9353
2272	0.9377
2263	0.9381
2254	0.9347
2245	0.9338
2236	0.9346
2227	0.9348
2218	0.9324
2209	0.9303
2200	0.9304
2191	0.9318
2182	0.9327
2173	0.9295
2164	0.9252
2155	0.9207
2146	0.9167
2137	0.9128
2128	0.9087
2119	0.9038
2110	0.8991
2101	0.8935
2092	0.89
2083	0.8893
2074	0.8899
2065	0.8923
2056	0.8956
2047	0.8982
2038	0.8999
2029	0.9002
2020	0.8977
2011	0.8968
2002	0.9003
1993	0.9009
1984	0.8971
1975	0.9036
1966	0.9148
1957	0.919
1948	0.918
1939	0.9224
1930	0.9291
1921	0.9349
1912	0.9401
1903	0.9442
1894	0.9475
1885	0.95
1876	0.9498
1867	0.9494
1858	0.9492
1849	0.9491
1840	0.9471
1831	0.9433
1822	0.9443
1813	0.9475
1804	0.9467
1795	0.9427
1786	0.9393
1777	0.9363
1768	0.9334
1759	0.9301
1750	0.9199
1741	0.9062
1732	0.8991
1723	0.8945
1714	0.8774
1705	0.8675
1696	0.8425
1687	0.7857
1678	0.7357
1669	0.6938
1660	0.6703
1651	0.6347
1642	0.5669
1633	0.5694
1624	0.5862
1615	0.5851
1606	0.5329
1597	0.2749
1588	0.1544
1579	0.5434
1570	0.7025
1561	0.7225
1552	0.7192
1543	0.685
1534	0.5625
1525	0.4612
1516	0.2201
1507	0.2869
1498	0.4535
1489	0.5964
1480	0.4909
1471	0.2523
1462	0.2296
1453	0.4299
1444	0.4864
1435	0.4336
1426	0.1915
1417	0.5221
1408	0.7321
1399	0.7776
1390	0.7355
1381	0.7697
1372	0.8134
1363	0.8018
1354	0.7195
1345	0.414
1336	0.3739
1327	0.5845
1318	0.6667
1309	0.5988
1300	0.6126
1291	0.7981
1282	0.8137
1273	0.7956
1264	0.7143
1255	0.5312
1246	0.2062
1237	0.1491
1228	0.3674
1219	0.649
1210	0.7003
1201	0.6976
1192	0.5722
1183	0.4974
1174	0.5116
1165	0.3524
1156	0.2488
1147	0.1492
1138	0.073
1129	0.0353
1120	0.0343
1111	0.0532
1102	0.0763
1093	0.111
1084	0.1031
1075	0.1133
1066	0.1837
1057	0.2726
1048	0.3668
1039	0.4541
1030	0.4464
1021	0.4956
1012	0.5553
1003	0.56
994	0.2096
985	0.5005
976	0.5581
967	0.5581
958	0.5775
949	0.6037
940	0.6431
931	0.7304
922	0.7774
913	0.7581
904	0.7974
895	0.8331
886	0.8502
877	0.8533
868	0.8552
859	0.8634
850	0.837
841	0.6798
832	0.3916
823	0.6678
814	0.8155
805	0.8583
796	0.8562
787	0.7175
778	0.6512
769	0.7871
760	0.8578
751	0.8344
742	0.8492
733	0.8539
724	0.8561
715	0.8451
706	0.831
697	0.8168
688	0.793
679	0.7174
670	0.4627
