Infrared Spectrum: Urea, 1-(2',4'-di-tert-butylphenyl)-3,3-dimethyl-
Formula: C17 H28 N2 O
State: SOLID (NUJOL MULL)
Melting point: 172 C
Class: COBLENTZ III
Instrument: BECKMAN IR-4 (HYBRID PRISM-GRATING)
Instrument parameters: NaCl PRISM
Sampling: TRANSMISSION
Resolution: 2
Origin: MONSANTO (J. FREEMAN)
1/CM	TRANSMITTANCE
626	0.8888
635	0.8927
644	0.8968
653	0.8532
662	0.9246
671	0.9614
680	0.9472
689	0.9622
698	0.9659
707	0.9482
716	0.8902
725	0.8442
734	0.8636
743	0.9004
752	0.8626
761	0.8762
770	0.7781
779	0.9277
788	0.9525
797	0.9608
806	0.9537
815	0.6456
824	0.8955
833	0.9193
842	0.9448
851	0.9456
860	0.9481
869	0.9447
878	0.9269
887	0.7216
896	0.9161
905	0.9117
914	0.7991
923	0.8036
932	0.8343
941	0.8903
950	0.8899
959	0.8925
968	0.8909
977	0.8922
986	0.9061
995	0.9118
1004	0.9118
1013	0.8966
1022	0.81
1031	0.7565
1040	0.8492
1049	0.8648
1058	0.8462
1067	0.7668
1076	0.8013
1085	0.8333
1094	0.7269
1103	0.8503
1112	0.8425
1121	0.7081
1130	0.7605
1139	0.8288
1148	0.8042
1157	0.7834
1166	0.7954
1175	0.7694
1184	0.7299
1193	0.4953
1202	0.5138
1211	0.6219
1220	0.7699
1229	0.7712
1238	0.7023
1247	0.4554
1256	0.4543
1265	0.3489
1274	0.5735
1283	0.577
1292	0.525
1301	0.6846
1310	0.7167
1319	0.7591
1328	0.7688
1337	0.7653
1346	0.7343
1355	0.6779
1364	0.5402
1373	0.2636
1382	0.1847
1391	0.208
1400	0.4743
1409	0.5428
1418	0.6615
1427	0.7299
1436	0.6803
1445	0.5086
1454	0.339
1463	0.2087
1472	0.1254
1481	0.1396
1490	0.303
1499	0.3153
1508	0.2904
1517	0.2183
1526	0.1917
1535	0.1378
1544	0.1316
1553	0.3107
1562	0.4825
1571	0.5803
1580	0.6692
1589	0.6891
1598	0.6826
1607	0.591
1616	0.4528
1625	0.4864
1634	0.1776
1643	0.0608
1652	0.0674
1661	0.262
1670	0.4851
1679	0.6933
1688	0.7804
1697	0.8191
1706	0.8542
1715	0.8945
1724	0.915
1733	0.9271
1742	0.9326
1751	0.9356
1760	0.9354
1769	0.9327
1778	0.9265
1787	0.9248
1796	0.9292
1805	0.9385
1814	0.9387
1823	0.9385
1832	0.9382
1841	0.9377
1850	0.9373
1859	0.937
1868	0.9367
1877	0.9364
1886	0.9362
1895	0.936
1904	0.9363
1913	0.9341
1922	0.9303
1931	0.932
1940	0.9371
1949	0.9386
1958	0.9388
1967	0.939
1976	0.939
1985	0.939
1994	0.9388
2003	0.9387
2012	0.9385
2021	0.9382
2030	0.9378
2039	0.9375
2048	0.9371
2057	0.9365
2066	0.9357
2075	0.9347
2084	0.9339
2093	0.9329
2102	0.9322
2111	0.9315
2120	0.9307
2129	0.93
2138	0.9293
2147	0.9283
2156	0.9269
2165	0.9256
2174	0.9242
2183	0.9229
2192	0.9216
2201	0.9205
2210	0.9194
2219	0.9183
2228	0.9172
2237	0.9162
2246	0.9154
2255	0.9145
2264	0.9137
2273	0.9129
2282	0.9123
2291	0.9118
2300	0.9112
2309	0.9107
2318	0.9103
2327	0.9106
2336	0.9109
2345	0.9112
2354	0.9118
2363	0.9123
2372	0.9122
2381	0.912
2390	0.9118
2399	0.9114
2408	0.9082
2417	0.9027
2426	0.8985
2435	0.8974
2444	0.8969
2453	0.8971
2462	0.8973
2471	0.8976
2480	0.898
2489	0.8986
2498	0.8993
2507	0.8996
2516	0.8996
2525	0.8988
2534	0.8971
2543	0.8951
2552	0.8925
2561	0.8898
2570	0.8869
2579	0.8837
2588	0.8804
2597	0.877
2606	0.8731
2615	0.8692
2624	0.8653
2633	0.8614
2642	0.8574
2651	0.8534
2660	0.8492
2669	0.8447
2678	0.8402
2687	0.8357
2696	0.8307
2705	0.8253
2714	0.82
2723	0.8147
2732	0.8096
2741	0.8046
2750	0.7995
2759	0.7955
2768	0.7919
2777	0.7883
2786	0.785
2795	0.784
2804	0.7843
2813	0.7817
2822	0.7615
2831	0.7398
2840	0.7099
2849	0.6675
2858	0.6289
2867	0.6061
2876	0.591
2885	0.0416
2894	0.037
2903	0.0381
2912	0.0397
2921	0.0415
2930	0.0419
2939	0.0401
2948	0.0282
2957	0.0168
2966	0.0101
2975	0.0077
2984	0.0065
2993	0.0065
3002	0.0474
3011	0.1107
3020	0.1736
3029	0.2361
3038	0.2982
3047	0.36
3056	0.4215
3065	0.4825
3074	0.5621
3083	0.6168
3092	0.6315
3101	0.6413
3110	0.6499
3119	0.6571
3128	0.6623
3137	0.665
3146	0.666
3155	0.6665
3164	0.6663
3173	0.6653
3182	0.6572
3191	0.6473
3200	0.6368
3209	0.5989
3218	0.5765
3227	0.5431
3236	0.4749
3245	0.407
3254	0.3396
3263	0.2875
3272	0.2853
3281	0.299
3290	0.3412
3299	0.3833
3308	0.425
3317	0.4666
3326	0.508
3335	0.5491
3344	0.6037
3353	0.6537
3362	0.671
3371	0.6865
3380	0.7019
3389	0.7172
3398	0.7464
3407	0.7613
3416	0.7715
3425	0.7805
3434	0.7862
3443	0.7919
3452	0.796
3461	0.7993
3470	0.8027
3479	0.8062
3488	0.8098
3497	0.8117
3506	0.813
3515	0.8142
3524	0.8155
3533	0.8167
3542	0.8177
3551	0.8186
3560	0.8195
3569	0.8203
3578	0.8212
3587	0.822
3596	0.8225
3605	0.823
3614	0.8234
3623	0.8239
3632	0.8244
3641	0.8249
3650	0.8252
3659	0.8252
3668	0.8254
3677	0.8256
3686	0.8256
3695	0.8258
3704	0.826
3713	0.826
3722	0.8262
3731	0.8263
3740	0.8261
3749	0.8259
3758	0.8257
3767	0.8255
3776	0.8254
3785	0.8252
3794	0.825
3803	0.8249
3812	0.8247
3821	0.8245
3830	0.8242
3839	0.8239
3848	0.8236
3857	0.8233
3866	0.823
3875	0.8227
3884	0.8223
3893	0.8216
3902	0.821
3911	0.8204
3920	0.8198
3929	0.8192
3938	0.8184
3947	0.8174
3956	0.8164
3965	0.8154
3974	0.8144
3983	0.8134
3992	0.8124
