Infrared Spectrum: CYCLOPENTANECARBOXYLIC ACID, 3Alpha-HYDROXY-, HYDRAZIDE
Formula: C6 H12 N2 O2
State: SOLID (0.8 mg / 650 mg KBr DISC)
Class: COBLENTZ III
Instrument: PERKIN-ELMER 21 (GRATING)
Instrument parameters: FILTER CHANGE AT ABOUT 1020 CM^-^1
Sampling: TRANSMISSION
Resolution: 2
Origin: SOUTHERN RESEARCH INSTITUTE
1/CM	TRANSMITTANCE
603.807	0.595
613.094	0.5931
622.381	0.5785
631.668	0.5565
640.955	0.546
650.241	0.5512
659.528	0.5695
668.815	0.5985
678.102	0.6177
687.389	0.6312
696.676	0.6381
705.963	0.643
715.25	0.644
724.537	0.647
733.823	0.6545
743.11	0.6663
752.397	0.671
761.684	0.6645
770.971	0.645
780.258	0.6443
789.545	0.6466
798.832	0.647
808.119	0.6491
817.406	0.6708
826.692	0.72
835.979	0.7443
845.266	0.752
854.553	0.75
863.84	0.751
873.127	0.7554
882.414	0.7673
891.701	0.772
900.988	0.77
910.274	0.7559
919.561	0.7451
928.848	0.7081
938.135	0.6563
947.422	0.6065
956.709	0.6045
965.996	0.6369
975.283	0.6249
984.57	0.6527
993.856	0.638
1003.14	0.652
1012.43	0.649
1021.72	0.642
1031	0.5953
1040.29	0.5827
1049.58	0.5191
1058.86	0.3939
1068.15	0.2789
1077.44	0.3322
1086.73	0.4428
1096.01	0.6485
1105.3	0.731
1114.59	0.7491
1123.87	0.76
1133.16	0.762
1142.45	0.759
1151.73	0.777
1161.02	0.784
1170.31	0.7733
1179.59	0.7651
1188.88	0.7522
1198.17	0.7726
1207.46	0.7638
1216.74	0.7488
1226.03	0.7036
1235.32	0.6246
1244.6	0.6484
1253.89	0.5818
1263.18	0.509
1272.46	0.6513
1281.75	0.6435
1291.04	0.6038
1300.32	0.6134
1309.61	0.5795
1318.9	0.6573
1328.18	0.663
1337.47	0.656
1346.76	0.6452
1356.05	0.6085
1365.33	0.5406
1374.62	0.5747
1383.91	0.647
1393.19	0.6274
1402.48	0.602
1411.77	0.6251
1421.05	0.7055
1430.34	0.699
1439.63	0.6571
1448.91	0.6345
1458.2	0.61
1467.49	0.5976
1476.77	0.5823
1486.06	0.6925
1495.35	0.7072
1504.64	0.6588
1513.92	0.622
1523.21	0.5553
1532.5	0.5028
1541.78	0.4329
1551.07	0.3979
1560.36	0.486
1569.64	0.5368
1578.93	0.5534
1588.22	0.5201
1597.5	0.427
1606.79	0.2934
1616.08	0.2236
1625.37	0.3373
1634.65	0.394
1643.94	0.38
1653.23	0.3643
1662.51	0.3013
1671.8	0.215
1681.09	0.3928
1690.37	0.5222
1699.66	0.6759
1708.95	0.7312
1718.23	0.7619
1727.52	0.7849
1736.81	0.8157
1746.09	0.8371
1755.38	0.8479
1764.67	0.8579
1773.96	0.863
1783.24	0.8684
1792.53	0.8786
1801.82	0.882
1811.1	0.886
1820.39	0.8863
1829.68	0.889
1838.96	0.8902
1848.25	0.8941
1857.54	0.896
1866.82	0.8989
1876.11	0.9
1885.4	0.9
1894.69	0.9
1903.97	0.9
1913.26	0.9
1922.55	0.9
1931.83	0.899
1941.12	0.898
1950.41	0.896
1959.69	0.896
1968.98	0.899
1978.27	0.899
1987.55	0.899
1996.84	0.899
2006.13	0.898
2015.41	0.8954
2024.7	0.894
2033.99	0.8946
2043.28	0.895
2052.56	0.896
2061.85	0.896
2071.14	0.896
2080.42	0.896
2089.71	0.896
2099	0.896
2108.28	0.896
2117.57	0.896
2126.86	0.895
2136.14	0.895
2145.43	0.895
2154.72	0.895
2164	0.895
2173.29	0.895
2182.58	0.895
2191.87	0.895
2201.15	0.895
2210.44	0.896
2219.73	0.895
2229.01	0.894
2238.3	0.892
2247.59	0.891
2256.87	0.89
2266.16	0.889
2275.45	0.887
2284.73	0.885
2294.02	0.883
2303.31	0.883
2312.6	0.885
2321.88	0.886
2331.17	0.886
2340.46	0.886
2349.74	0.885
2359.03	0.885
2368.32	0.885
2377.6	0.8814
2386.89	0.877
2396.18	0.873
2405.46	0.87
2414.75	0.869
2424.04	0.866
2433.32	0.865
2442.61	0.863
2451.9	0.862
2461.19	0.8574
2470.47	0.853
2479.76	0.8494
2489.05	0.8444
2498.33	0.8348
2507.62	0.825
2516.91	0.82
2526.19	0.817
2535.48	0.816
2544.77	0.815
2554.05	0.812
2563.34	0.808
2572.63	0.8011
2581.92	0.7844
2591.2	0.778
2600.49	0.771
2609.78	0.7648
2619.06	0.758
2628.35	0.756
2637.64	0.756
2646.92	0.756
2656.21	0.756
2665.5	0.7504
2674.78	0.7338
2684.07	0.7158
2693.36	0.6981
2702.64	0.6828
2711.93	0.672
2721.22	0.6674
2730.51	0.6611
2739.79	0.651
2749.08	0.6394
2758.37	0.6251
2767.65	0.6025
2776.94	0.594
2786.23	0.5962
2795.51	0.6026
2804.8	0.6106
2814.09	0.6104
2823.37	0.6038
2832.66	0.5805
2841.95	0.5535
2851.24	0.5093
2860.52	0.4772
2869.81	0.476
2879.1	0.4852
2888.38	0.486
2897.67	0.4808
2906.96	0.4651
2916.24	0.4429
2925.53	0.4152
2934.82	0.417
2944.1	0.4216
2953.39	0.4256
2962.68	0.4522
2971.96	0.4826
2981.25	0.5105
2990.54	0.5368
2999.83	0.5444
3009.11	0.5301
3018.4	0.5154
3027.69	0.4991
3036.97	0.4728
3046.26	0.4495
3055.55	0.4265
3064.83	0.4134
3074.12	0.409
3083.41	0.408
3092.69	0.406
3101.98	0.404
3111.27	0.394
3120.55	0.3805
3129.84	0.359
3139.13	0.3528
3148.42	0.3372
3157.7	0.3224
3166.99	0.3144
3176.28	0.3002
3185.56	0.2881
3194.85	0.2788
3204.14	0.2708
3213.42	0.266
3222.71	0.265
3232	0.2542
3241.28	0.2412
3250.57	0.2301
3259.86	0.2131
3269.15	0.2024
3278.43	0.1855
3287.72	0.1734
3297.01	0.17
3306.29	0.1776
3315.58	0.1952
3324.87	0.2407
3334.15	0.2705
3343.44	0.2947
3352.73	0.3142
3362.01	0.3375
3371.3	0.3701
3380.59	0.3926
3389.87	0.4006
3399.16	0.4096
3408.45	0.4232
3417.74	0.4426
3427.02	0.4582
3436.31	0.4652
3445.6	0.4899
3454.88	0.5036
3464.17	0.5181
3473.46	0.5342
3482.74	0.546
3492.03	0.5715
3501.32	0.5955
3510.6	0.6112
3519.89	0.6236
3529.18	0.6356
3538.47	0.6462
3547.75	0.6635
3557.04	0.6799
3566.33	0.705
3575.61	0.723
3584.9	0.7386
3594.19	0.7456
3603.47	0.7572
3612.76	0.7618
3622.05	0.7725
3631.33	0.7825
3640.62	0.791
3649.91	0.8029
3659.19	0.8126
3668.48	0.8156
3677.77	0.816
3687.06	0.8189
3696.34	0.8246
3705.63	0.826
3714.92	0.8296
3724.2	0.834
3733.49	0.837
3742.78	0.838
3752.06	0.841
3761.35	0.85
3770.64	0.854
3779.92	0.8616
3789.21	0.863
3798.5	0.867
3807.78	0.8678
3817.07	0.862
3826.36	0.8584
3835.65	0.8548
3844.93	0.852
3854.22	0.853
3863.51	0.852
3872.79	0.8454
3882.08	0.844
3891.37	0.8444
3900.65	0.842
3909.94	0.8406
3919.23	0.84
3928.51	0.838
3937.8	0.838
3947.09	0.838
3956.38	0.838
3965.66	0.837
3974.95	0.836
3984.24	0.834
3993.52	0.8334
4002.81	0.8294
4012.1	0.8268
