Infrared Spectrum: CD3-2-PHENANTHRENE
Formula: C15 H9 D3
State: SOLUTION (146 g/L IN HEPTANE)
Class: COBLENTZ
Instrument: Not specified, most likely a prism, grating, or hybrid spectrometer.
Sampling: TRANSMISSION
Path length: 0.01 CM
Resolution: 4
Origin: CENTRE D'ETUDES NUCLEAIRES DE GRENOBLE
MICROMETERS	TRANSMITTANCE
1.993	0.932
2.03302	0.935
2.07304	0.937
2.11306	0.935
2.15308	0.927
2.19311	0.923
2.23313	0.928
2.27315	0.935
2.31317	0.942
2.35319	0.947
2.39321	0.945
2.43323	0.942
2.47325	0.938
2.51327	0.935
2.55329	0.932
2.59332	0.93
2.63334	0.928
2.67336	0.928
2.71338	0.93
2.7534	0.935
2.79342	0.932
2.83344	0.922
2.87346	0.919
2.91348	0.917
2.95351	0.917
2.99353	0.914
3.03355	0.91
3.07357	0.904
3.11359	0.9
3.15361	0.905
3.19363	0.905
3.23365	0.871
3.27367	0.677
3.3137	0.466
3.35372	0.573
3.39374	0.624
3.43376	0.618
3.47378	0.604
3.5138	0.603
3.55382	0.614
3.59384	0.761
3.63386	0.905
3.67388	0.922
3.71391	0.925
3.75393	0.93
3.79395	0.925
3.83397	0.917
3.87399	0.912
3.91401	0.905
3.95403	0.9
3.99405	0.9
4.03407	0.895
4.0741	0.895
4.11412	0.895
4.15414	0.895
4.19416	0.9
4.23418	0.91
4.2742	0.905
4.31422	0.887
4.35424	0.859
4.39426	0.866
4.43428	0.861
4.47431	0.826
4.51433	0.765
4.55435	0.752
4.59437	0.786
4.63439	0.851
4.67441	0.842
4.71443	0.743
4.75445	0.834
4.79447	0.864
4.8345	0.856
4.87452	0.687
4.91454	0.836
4.95456	0.872
4.99458	0.882
5.0346	0.882
5.07462	0.877
5.11464	0.871
5.15466	0.852
5.19469	0.796
5.23471	0.818
5.27473	0.757
5.31475	0.808
5.35477	0.847
5.39479	0.859
5.43481	0.869
5.47483	0.838
5.51485	0.788
5.55487	0.809
5.5949	0.823
5.63492	0.844
5.67494	0.813
5.71496	0.766
5.75498	0.795
5.795	0.823
5.83502	0.833
5.87504	0.771
5.91506	0.824
5.95509	0.814
5.99511	0.776
6.03513	0.791
6.07515	0.796
6.11517	0.801
6.15519	0.634
6.19521	0.514
6.23523	0.614
6.27525	0.593
6.31527	0.723
6.3553	0.761
6.39532	0.783
6.43534	0.803
6.47536	0.786
6.51538	0.813
6.5554	0.763
6.59542	0.74
6.63544	0.793
6.67546	0.8
6.71549	0.74
6.75551	0.591
6.79553	0.77
6.83555	0.786
6.87557	0.775
6.91559	0.766
6.95561	0.757
6.99563	0.745
7.03565	0.656
7.07567	0.697
7.1157	0.761
7.15572	0.804
7.19574	0.804
7.23576	0.819
7.27578	0.851
7.3158	0.808
7.35582	0.77
7.39584	0.785
7.43586	0.808
7.47589	0.836
7.51591	0.838
7.55593	0.838
7.59595	0.844
7.63597	0.834
7.67599	0.722
7.71601	0.814
7.75603	0.824
7.79605	0.836
7.83608	0.847
7.8761	0.829
7.91612	0.811
7.95614	0.758
7.99616	0.418
8.03618	0.644
8.0762	0.738
8.11622	0.669
8.15624	0.641
8.19626	0.793
8.23629	0.814
8.27631	0.811
8.31633	0.771
8.35635	0.783
8.39637	0.79
8.43639	0.818
8.47641	0.768
8.51643	0.712
8.55645	0.763
8.59648	0.776
8.6365	0.778
8.67652	0.788
8.71654	0.788
8.75656	0.747
8.79658	0.795
8.8366	0.806
8.87662	0.803
8.91664	0.791
8.95666	0.793
8.99669	0.795
9.03671	0.79
9.07673	0.776
9.11675	0.717
9.15677	0.765
9.19679	0.786
9.23681	0.795
9.27683	0.806
9.31685	0.803
9.35688	0.795
9.3969	0.783
9.43692	0.755
9.47694	0.733
9.51696	0.717
9.55698	0.684
9.597	0.654
9.63702	0.603
9.67704	0.674
9.71707	0.743
9.75709	0.783
9.79711	0.79
9.83713	0.793
9.87715	0.796
9.91717	0.795
9.95719	0.765
9.99721	0.651
10.0372	0.801
10.0773	0.819
10.1173	0.826
10.1573	0.826
10.1973	0.826
10.2373	0.823
10.2774	0.826
10.3174	0.833
10.3574	0.834
10.3974	0.831
10.4374	0.826
10.4775	0.819
10.5175	0.814
10.5575	0.804
10.5975	0.685
10.6375	0.679
10.6776	0.788
10.7176	0.824
10.7576	0.833
10.7976	0.818
10.8377	0.796
10.8777	0.743
10.9177	0.557
10.9577	0.161
10.9977	0.3
11.0378	0.53
11.0778	0.687
11.1178	0.78
11.1578	0.814
11.1978	0.814
11.2379	0.804
11.2779	0.788
11.3179	0.783
11.3579	0.79
11.3979	0.806
11.438	0.806
11.478	0.785
11.518	0.689
11.558	0.528
11.5981	0.538
11.6381	0.674
11.6781	0.745
11.7181	0.78
11.7581	0.796
11.7982	0.809
11.8382	0.819
11.8782	0.823
11.9182	0.821
11.9582	0.819
11.9983	0.819
12.0383	0.811
12.0783	0.804
12.1183	0.781
12.1583	0.75
12.1984	0.702
12.2384	0.601
12.2784	0.332
12.3184	0.056
12.3585	0.029
12.3985	0.092
12.4385	0.274
12.4785	0.444
12.5185	0.591
12.5586	0.666
12.5986	0.715
12.6386	0.752
12.6786	0.773
12.7186	0.795
12.7587	0.813
12.7987	0.819
12.8387	0.834
12.8787	0.838
12.9188	0.838
12.9588	0.819
12.9988	0.796
13.0388	0.752
13.0788	0.604
13.1189	0.393
13.1589	0.376
13.1989	0.494
13.2389	0.581
13.2789	0.614
13.319	0.603
13.359	0.449
13.399	0.206
13.439	0.059
13.479	0.039
13.5191	0.12
13.5591	0.254
13.5991	0.401
13.6391	0.499
13.6792	0.59
13.7192	0.649
13.7592	0.694
13.7992	0.697
13.8392	0.684
13.8793	0.679
13.9193	0.687
13.9593	0.738
13.9993	0.806
14.0393	0.829
14.0794	0.833
14.1194	0.831
14.1594	0.819
14.1994	0.783
14.2394	0.629
14.2795	0.557
14.3195	0.656
14.3595	0.783
14.3995	0.826
14.4396	0.849
14.4796	0.859
14.5196	0.861
14.5596	0.861
14.5996	0.862
14.6397	0.871
14.6797	0.867
14.7197	0.867
14.7597	0.871
14.7997	0.869
14.8398	0.867
14.8798	0.864
14.9198	0.846
14.9598	0.818
14.9998	0.785
15.0399	0.747
15.0799	0.775
15.1199	0.821
15.1599	0.846
15.2	0.866
15.24	0.871
15.28	0.876
15.32	0.877
15.36	0.88
15.4001	0.882
15.4401	0.885
15.4801	0.887
15.5201	0.89
15.5601	0.889
15.6002	0.88
15.6402	0.884
15.6802	0.889
15.7202	0.892
15.7602	0.892
15.8003	0.89
15.8403	0.887
15.8803	0.892
15.9203	0.894
