Infrared Spectrum: 3-(4-ANILINO-1-NAPHTHYLAZO)-2,7-NAPHTHALENEDISULFONIC ACID, MONOAMMONIUM SALT
Formula: C26 H22 N4 S6 S2
State: SOLID (MINERAL OIL MULL)
Class: COBLENTZ
Instrument: Not specified, most likely a prism, grating, or hybrid spectrometer.
Sampling: TRANSMISSION
Resolution: 4
Origin: WYANDOTTE CHEMICALS CORP., WYANDOTTE, MICHIGAN, USA
MICROMETERS	TRANSMITTANCE
2.012	0.381
2.04915	0.402
2.0863	0.413
2.12346	0.41
2.16061	0.419
2.19776	0.429
2.23491	0.426
2.27207	0.429
2.30922	0.432
2.34637	0.451
2.38352	0.463
2.42067	0.479
2.45783	0.496
2.49498	0.514
2.53213	0.522
2.56928	0.533
2.60643	0.561
2.64359	0.57
2.68074	0.584
2.71789	0.562
2.75504	0.5
2.7922	0.407
2.82935	0.34
2.8665	0.278
2.90365	0.241
2.9408	0.214
2.97796	0.2
3.01511	0.208
3.05226	0.185
3.08941	0.172
3.12656	0.143
3.16372	0.121
3.20087	0.13
3.23802	0.133
3.27517	0.108
3.31233	0.093
3.34948	0.043
3.38663	0.013
3.42378	0.017
3.46093	0.02
3.49809	0.018
3.53524	0.038
3.57239	0.216
3.60954	0.329
3.64669	0.399
3.68385	0.415
3.721	0.444
3.75815	0.479
3.7953	0.496
3.83246	0.527
3.86961	0.545
3.90676	0.58
3.94391	0.6
3.98106	0.612
4.01822	0.636
4.05537	0.65
4.09252	0.659
4.12967	0.668
4.16682	0.682
4.20398	0.681
4.24113	0.688
4.27828	0.679
4.31543	0.69
4.35259	0.709
4.38974	0.746
4.42689	0.752
4.46404	0.744
4.50119	0.762
4.53835	0.762
4.5755	0.766
4.61265	0.765
4.6498	0.769
4.68695	0.78
4.72411	0.79
4.76126	0.802
4.79841	0.808
4.83556	0.814
4.87272	0.819
4.90987	0.818
4.94702	0.819
4.98417	0.832
5.02132	0.846
5.05848	0.863
5.09563	0.875
5.13278	0.875
5.16993	0.883
5.20708	0.872
5.24424	0.88
5.28139	0.889
5.31854	0.894
5.35569	0.9
5.39285	0.909
5.43	0.925
5.46715	0.912
5.5043	0.911
5.54145	0.914
5.57861	0.912
5.61576	0.919
5.65291	0.925
5.69006	0.945
5.72721	0.942
5.76437	0.948
5.80152	0.953
5.83867	0.939
5.87582	0.895
5.91298	0.9
5.95013	0.869
5.98728	0.849
6.02443	0.805
6.06158	0.788
6.09874	0.74
6.13589	0.648
6.17304	0.657
6.21019	0.494
6.24734	0.469
6.2845	0.472
6.32165	0.2
6.3588	0.337
6.39595	0.441
6.43311	0.371
6.47026	0.289
6.50741	0.247
6.54456	0.447
6.58171	0.603
6.61887	0.483
6.65602	0.342
6.69317	0.329
6.73032	0.25
6.76748	0.171
6.80463	0.04
6.84178	0.04
6.87893	0.045
6.91608	0.079
6.95324	0.147
6.99039	0.222
7.02754	0.248
7.06469	0.202
7.10184	0.178
7.139	0.175
7.17615	0.191
7.2133	0.178
7.25045	0.107
7.28761	0.181
7.32476	0.3
7.36191	0.499
7.39906	0.499
7.43621	0.388
7.47337	0.362
7.51052	0.353
7.54767	0.245
7.58482	0.199
7.62197	0.169
7.65913	0.245
7.69628	0.37
7.73343	0.441
7.77058	0.399
7.80774	0.222
7.84489	0.11
7.88204	0.155
7.91919	0.349
7.95634	0.318
7.9935	0.307
8.03065	0.3
8.0678	0.244
8.10495	0.202
8.1421	0.172
8.17926	0.122
8.21641	0.088
8.25356	0.08
8.29071	0.096
8.32787	0.091
8.36502	0.09
8.40217	0.071
8.43932	0.066
8.47647	0.065
8.51363	0.049
8.55078	0.049
8.58793	0.066
8.62508	0.097
8.66223	0.11
8.69939	0.149
8.73654	0.219
8.77369	0.301
8.81084	0.379
8.848	0.387
8.88515	0.41
8.9223	0.483
8.95945	0.502
8.9966	0.432
9.03376	0.223
9.07091	0.091
9.10806	0.108
9.14521	0.219
9.18236	0.3
9.21952	0.34
9.25667	0.315
9.29382	0.233
9.33097	0.163
9.36813	0.23
9.40528	0.351
9.44243	0.398
9.47958	0.354
9.51673	0.29
9.55389	0.227
9.59104	0.209
9.62819	0.189
9.66534	0.105
9.70249	0.062
9.73965	0.099
9.7768	0.171
9.81395	0.239
9.8511	0.248
9.88826	0.247
9.92541	0.264
9.96256	0.36
9.99971	0.43
10.0369	0.489
10.074	0.534
10.1112	0.567
10.1483	0.59
10.1855	0.611
10.2226	0.608
10.2598	0.603
10.2969	0.606
10.3341	0.629
10.3712	0.639
10.4084	0.654
10.4455	0.659
10.4827	0.632
10.5198	0.597
10.557	0.553
10.5941	0.558
10.6313	0.603
10.6685	0.623
10.7056	0.662
10.7428	0.687
10.7799	0.71
10.8171	0.727
10.8542	0.734
10.8914	0.741
10.9285	0.732
10.9657	0.751
11.0028	0.766
11.04	0.754
11.0771	0.743
11.1143	0.768
11.1514	0.794
11.1886	0.776
11.2257	0.73
11.2629	0.718
11.3	0.702
11.3372	0.681
11.3743	0.632
11.4115	0.618
11.4486	0.64
11.4858	0.671
11.523	0.732
11.5601	0.791
11.5973	0.821
11.6344	0.827
11.6716	0.846
11.7087	0.863
11.7459	0.863
11.783	0.856
11.8202	0.844
11.8573	0.838
11.8945	0.825
11.9316	0.8
11.9688	0.76
12.0059	0.772
12.0431	0.793
12.0802	0.746
12.1174	0.65
12.1545	0.572
12.1917	0.583
12.2288	0.604
12.266	0.64
12.3031	0.682
12.3403	0.701
12.3774	0.746
12.4146	0.766
12.4518	0.769
12.4889	0.783
12.5261	0.785
12.5632	0.797
12.6004	0.807
12.6375	0.782
12.6747	0.76
12.7118	0.786
12.749	0.799
12.7861	0.802
12.8233	0.807
12.8604	0.774
12.8976	0.76
12.9347	0.772
12.9719	0.76
13.009	0.71
13.0462	0.648
13.0833	0.572
13.1205	0.489
13.1576	0.418
13.1948	0.368
13.2319	0.37
13.2691	0.399
13.3063	0.402
13.3434	0.407
13.3806	0.499
13.4177	0.584
13.4549	0.618
13.492	0.625
13.5292	0.581
13.5663	0.488
13.6035	0.407
13.6406	0.395
13.6778	0.444
13.7149	0.511
13.7521	0.572
13.7892	0.6
13.8264	0.615
13.8635	0.609
13.9007	0.57
13.9378	0.528
13.975	0.514
14.0121	0.55
14.0493	0.569
14.0864	0.587
14.1236	0.589
14.1608	0.55
14.1979	0.46
14.2351	0.367
14.2722	0.289
14.3094	0.239
14.3465	0.2
14.3837	0.189
14.4208	0.192
14.458	0.219
14.4951	0.27
14.5323	0.304
14.5694	0.373
14.6066	0.438
14.6437	0.505
14.6809	0.544
14.718	0.572
14.7552	0.581
14.7923	0.576
14.8295	0.569
14.8666	0.525
14.9038	0.482
14.9409	0.427
14.9781	0.388
15.0153	0.365
15.0524	0.36
15.0896	0.356
15.1267	0.353
15.1639	0.36
15.201	0.396
15.2382	0.441
15.2753	0.468
15.3125	0.482
15.3496	0.491
15.3868	0.519
15.4239	0.541
15.4611	0.548
15.4982	0.559
15.5354	0.559
15.5725	0.559
15.6097	0.562
15.6468	0.545
15.684	0.531
15.7211	0.524
15.7583	0.519
15.7954	0.513
15.8326	0.499
15.8698	0.491
15.9069	0.483
15.9441	0.46
15.9812	0.451
