Infrared Spectrum: (4-CHLORO-2-METHYL PHENOXY) ACETIC ACID, CALCIUM SALT
Formula: C18 H16 Ca Cl2 O6
State: SOLID (MINERAL OIL MULL)
Class: COBLENTZ
Instrument: Not specified, most likely a prism, grating, or hybrid spectrometer.
Sampling: TRANSMISSION
Resolution: 4
Origin: DOW CHEMICAL COMPANY
MICROMETERS	TRANSMITTANCE
2.041	0.841
2.08218	0.841
2.12335	0.841
2.16453	0.842
2.20571	0.834
2.24689	0.827
2.28806	0.825
2.32924	0.83
2.37042	0.834
2.41159	0.839
2.45277	0.844
2.49395	0.849
2.53513	0.852
2.5763	0.859
2.61748	0.859
2.65866	0.861
2.69983	0.837
2.74101	0.801
2.78219	0.793
2.82337	0.777
2.86454	0.77
2.90572	0.758
2.9469	0.762
2.98807	0.767
3.02925	0.774
3.07043	0.774
3.11161	0.776
3.15278	0.781
3.19396	0.777
3.23514	0.764
3.27631	0.753
3.31749	0.666
3.35867	0.283
3.39985	0.094
3.44102	0.21
3.4822	0.285
3.52338	0.721
3.56455	0.81
3.60573	0.839
3.64691	0.834
3.68809	0.847
3.72926	0.847
3.77044	0.854
3.81162	0.868
3.85279	0.871
3.89397	0.875
3.93515	0.878
3.97633	0.882
4.0175	0.882
4.05868	0.885
4.09986	0.888
4.14103	0.888
4.18221	0.882
4.22339	0.873
4.26457	0.882
4.30574	0.89
4.34692	0.894
4.3881	0.897
4.42927	0.9
4.47045	0.9
4.51163	0.899
4.55281	0.9
4.59398	0.899
4.63516	0.9
4.67634	0.899
4.71751	0.897
4.75869	0.9
4.79987	0.899
4.84105	0.899
4.88222	0.902
4.9234	0.902
4.96458	0.904
5.00575	0.904
5.04693	0.905
5.08811	0.909
5.12929	0.905
5.17046	0.907
5.21164	0.9
5.25282	0.9
5.29399	0.894
5.33517	0.897
5.37635	0.899
5.41753	0.892
5.4587	0.899
5.49988	0.902
5.54106	0.897
5.58224	0.897
5.62341	0.888
5.66459	0.88
5.70577	0.87
5.74694	0.859
5.78812	0.859
5.8293	0.849
5.87048	0.83
5.91165	0.794
5.95283	0.699
5.99401	0.545
6.03518	0.449
6.07636	0.317
6.11754	0.196
6.15872	0.116
6.19989	0.071
6.24107	0.073
6.28225	0.105
6.32342	0.191
6.3646	0.394
6.40578	0.615
6.44696	0.675
6.48813	0.724
6.52931	0.738
6.57049	0.717
6.61166	0.627
6.65284	0.475
6.69402	0.191
6.7352	0.244
6.77637	0.328
6.81755	0.241
6.85873	0.217
6.8999	0.239
6.94108	0.249
6.98226	0.218
7.02344	0.288
7.06461	0.446
7.10579	0.531
7.14697	0.603
7.18814	0.644
7.22932	0.569
7.2705	0.635
7.31168	0.702
7.35285	0.716
7.39403	0.629
7.43521	0.495
7.47638	0.449
7.51756	0.606
7.55874	0.69
7.59992	0.69
7.64109	0.579
7.68227	0.49
7.72345	0.598
7.76462	0.695
7.8058	0.659
7.84698	0.622
7.88816	0.553
7.92933	0.509
7.97051	0.466
8.01169	0.381
8.05286	0.353
8.09404	0.331
8.13522	0.422
8.1764	0.635
8.21757	0.745
8.25875	0.757
8.29993	0.69
8.3411	0.492
8.38228	0.258
8.42346	0.329
8.46464	0.382
8.50581	0.478
8.54699	0.668
8.58817	0.741
8.62934	0.755
8.67052	0.733
8.7117	0.663
8.75288	0.517
8.79405	0.442
8.83523	0.558
8.87641	0.639
8.91758	0.611
8.95876	0.594
8.99994	0.714
9.04112	0.794
9.08229	0.788
9.12347	0.772
9.16465	0.796
9.20582	0.815
9.247	0.789
9.28818	0.733
9.32936	0.649
9.37053	0.586
9.41171	0.569
9.45289	0.577
9.49406	0.582
9.53524	0.57
9.57642	0.557
9.6176	0.543
9.65877	0.545
9.69995	0.579
9.74113	0.62
9.7823	0.671
9.82348	0.712
9.86466	0.755
9.90584	0.784
9.94701	0.794
9.98819	0.788
10.0294	0.786
10.0705	0.811
10.1117	0.839
10.1529	0.852
10.1941	0.861
10.2353	0.863
10.2764	0.854
10.3176	0.842
10.3588	0.823
10.4	0.801
10.4411	0.77
10.4823	0.758
10.5235	0.76
10.5647	0.769
10.6058	0.77
10.647	0.77
10.6882	0.779
10.7294	0.786
10.7706	0.791
10.8117	0.798
10.8529	0.806
10.8941	0.815
10.9353	0.82
10.9764	0.823
11.0176	0.829
11.0588	0.827
11.1	0.815
11.1412	0.791
11.1823	0.755
11.2235	0.717
11.2647	0.673
11.3059	0.625
11.347	0.598
11.3882	0.588
11.4294	0.581
11.4706	0.611
11.5117	0.668
11.5529	0.728
11.5941	0.769
11.6353	0.786
11.6765	0.798
11.7176	0.8
11.7588	0.801
11.8	0.801
11.8412	0.793
11.8823	0.779
11.9235	0.76
11.9647	0.74
12.0059	0.697
12.047	0.654
12.0882	0.618
12.1294	0.6
12.1706	0.598
12.2118	0.606
12.2529	0.6
12.2941	0.574
12.3353	0.54
12.3765	0.502
12.4176	0.464
12.4588	0.437
12.5	0.423
12.5412	0.446
12.5824	0.519
12.6235	0.598
12.6647	0.649
12.7059	0.682
12.7471	0.699
12.7882	0.712
12.8294	0.729
12.8706	0.743
12.9118	0.748
12.9529	0.75
12.9941	0.75
13.0353	0.745
13.0765	0.735
13.1177	0.717
13.1588	0.702
13.2	0.699
13.2412	0.709
13.2824	0.731
13.3235	0.748
13.3647	0.75
13.4059	0.748
13.4471	0.736
13.4882	0.726
13.5294	0.707
13.5706	0.688
13.6118	0.668
13.653	0.647
13.6941	0.625
13.7353	0.603
13.7765	0.591
13.8177	0.588
13.8588	0.586
13.9	0.588
13.9412	0.588
13.9824	0.584
14.0236	0.574
14.0647	0.564
14.1059	0.552
14.1471	0.541
14.1883	0.535
14.2294	0.529
14.2706	0.528
14.3118	0.538
14.353	0.552
14.3941	0.567
14.4353	0.582
14.4765	0.593
14.5177	0.601
14.5589	0.605
14.6	0.608
14.6412	0.608
14.6824	0.606
14.7236	0.606
14.7647	0.605
14.8059	0.601
14.8471	0.596
14.8883	0.588
14.9294	0.576
14.9706	0.572
15.0118	0.576
15.053	0.562
15.0942	0.548
15.1353	0.536
15.1765	0.517
15.2177	0.502
15.2589	0.488
15.3	0.463
15.3412	0.439
15.3824	0.41
15.4236	0.389
15.4648	0.382
15.5059	0.396
15.5471	0.41
15.5883	0.422
15.6295	0.429
15.6706	0.43
15.7118	0.434
15.753	0.429
15.7942	0.427
15.8353	0.42
15.8765	0.418
15.9177	0.422
