Infrared Spectrum: 3,5,6-TRICHLORO-2,2,3,4,4,5,6,6-OCTAFLUOROHEXANOIC ACID
Formula: C6 H Cl3 F8 O2
State: LIQUID
Class: COBLENTZ
Instrument: Not specified, most likely a prism, grating, or hybrid spectrometer.
Sampling: TRANSMISSION
Path length: 0.0015 CM
Resolution: 4
Origin: WYANDOTTE CHEMICALS CORP., WYANDOTTE, MICHIGAN, USA
MICROMETERS	TRANSMITTANCE
2.025	0.958
2.06218	0.961
2.09937	0.97
2.13655	0.965
2.17374	0.973
2.21092	0.981
2.2481	0.976
2.28529	0.979
2.32247	0.975
2.35966	0.982
2.39684	0.981
2.43402	0.981
2.47121	0.981
2.50839	0.986
2.54558	0.995
2.58276	0.998
2.61994	1
2.65713	0.995
2.69431	0.965
2.7315	0.951
2.76868	0.945
2.80587	0.905
2.84305	0.861
2.88023	0.844
2.91742	0.818
2.9546	0.794
2.99179	0.732
3.02897	0.586
3.06615	0.497
3.10334	0.427
3.14052	0.395
3.17771	0.371
3.21489	0.363
3.25207	0.363
3.28926	0.399
3.32644	0.451
3.36363	0.463
3.40081	0.46
3.43799	0.475
3.47518	0.516
3.51236	0.547
3.54955	0.603
3.58673	0.643
3.62391	0.678
3.6611	0.706
3.69828	0.699
3.73547	0.716
3.77265	0.737
3.80983	0.769
3.84702	0.772
3.8842	0.763
3.92139	0.762
3.95857	0.754
3.99575	0.76
4.03294	0.788
4.07012	0.802
4.10731	0.819
4.14449	0.838
4.18167	0.855
4.21886	0.869
4.25604	0.87
4.29323	0.881
4.33041	0.892
4.3676	0.9
4.40478	0.909
4.44196	0.914
4.47915	0.923
4.51633	0.928
4.55352	0.922
4.5907	0.93
4.62788	0.931
4.66507	0.942
4.70225	0.947
4.73944	0.951
4.77662	0.953
4.8138	0.948
4.85099	0.948
4.88817	0.945
4.92536	0.945
4.96254	0.947
4.99972	0.945
5.03691	0.948
5.07409	0.939
5.11128	0.931
5.14846	0.936
5.18564	0.936
5.22283	0.933
5.26001	0.933
5.2972	0.928
5.33438	0.925
5.37156	0.919
5.40875	0.908
5.44593	0.902
5.48312	0.886
5.5203	0.833
5.55748	0.668
5.59467	0.438
5.63185	0.11
5.66904	0.035
5.70622	0.124
5.7434	0.391
5.78059	0.58
5.81777	0.667
5.85496	0.712
5.89214	0.758
5.92933	0.776
5.96651	0.8
6.00369	0.824
6.04088	0.828
6.07806	0.827
6.11525	0.832
6.15243	0.822
6.18961	0.832
6.2268	0.86
6.26398	0.872
6.30117	0.88
6.33835	0.883
6.37553	0.878
6.41272	0.886
6.4499	0.874
6.48709	0.855
6.52427	0.867
6.56145	0.88
6.59864	0.88
6.63582	0.869
6.67301	0.863
6.71019	0.853
6.74737	0.849
6.78456	0.818
6.82174	0.796
6.85893	0.73
6.89611	0.631
6.93329	0.503
6.97048	0.468
7.00766	0.548
7.04485	0.62
7.08203	0.678
7.11921	0.726
7.1564	0.763
7.19358	0.783
7.23077	0.8
7.26795	0.81
7.30514	0.818
7.34232	0.822
7.3795	0.828
7.41669	0.819
7.45387	0.821
7.49106	0.819
7.52824	0.816
7.56542	0.805
7.60261	0.79
7.63979	0.755
7.67698	0.704
7.71416	0.646
7.75134	0.575
7.78853	0.508
7.82571	0.446
7.8629	0.373
7.90008	0.275
7.93726	0.216
7.97445	0.195
8.01163	0.186
8.04882	0.171
8.086	0.171
8.12318	0.143
8.16037	0.09
8.19755	0.073
8.23474	0.068
8.27192	0.045
8.3091	0.038
8.34629	0.029
8.38347	0.035
8.42066	0.034
8.45784	0.035
8.49502	0.031
8.53221	0.034
8.56939	0.04
8.60658	0.049
8.64376	0.059
8.68094	0.069
8.71813	0.079
8.75531	0.104
8.7925	0.097
8.82968	0.082
8.86687	0.069
8.90405	0.087
8.94123	0.129
8.97842	0.185
9.0156	0.233
9.05279	0.27
9.08997	0.3
9.12715	0.37
9.16434	0.451
9.20152	0.488
9.23871	0.491
9.27589	0.472
9.31307	0.514
9.35026	0.542
9.38744	0.524
9.42463	0.463
9.46181	0.384
9.49899	0.292
9.53618	0.195
9.57336	0.135
9.61055	0.133
9.64773	0.206
9.68491	0.272
9.7221	0.303
9.75928	0.318
9.79647	0.348
9.83365	0.44
9.87083	0.552
9.90802	0.614
9.9452	0.65
9.98239	0.678
10.0196	0.69
10.0568	0.682
10.0939	0.642
10.1311	0.553
10.1683	0.455
10.2055	0.339
10.2427	0.209
10.2799	0.133
10.317	0.111
10.3542	0.157
10.3914	0.22
10.4286	0.234
10.4658	0.265
10.503	0.318
10.5401	0.331
10.5773	0.278
10.6145	0.265
10.6517	0.307
10.6889	0.334
10.7261	0.323
10.7633	0.309
10.8004	0.337
10.8376	0.368
10.8748	0.354
10.912	0.342
10.9492	0.351
10.9864	0.345
11.0235	0.334
11.0607	0.317
11.0979	0.329
11.1351	0.365
11.1723	0.407
11.2095	0.429
11.2466	0.451
11.2838	0.463
11.321	0.461
11.3582	0.48
11.3954	0.491
11.4326	0.51
11.4697	0.502
11.5069	0.48
11.5441	0.449
11.5813	0.432
11.6185	0.424
11.6557	0.423
11.6929	0.426
11.73	0.405
11.7672	0.41
11.8044	0.41
11.8416	0.407
11.8788	0.43
11.916	0.475
11.9531	0.519
11.9903	0.55
12.0275	0.572
12.0647	0.592
12.1019	0.603
12.1391	0.606
12.1762	0.611
12.2134	0.608
12.2506	0.603
12.2878	0.594
12.325	0.594
12.3622	0.583
12.3993	0.575
12.4365	0.561
12.4737	0.541
12.5109	0.538
12.5481	0.524
12.5853	0.52
12.6225	0.505
12.6596	0.493
12.6968	0.489
12.734	0.486
12.7712	0.477
12.8084	0.485
12.8456	0.494
12.8827	0.503
12.9199	0.511
12.9571	0.525
12.9943	0.525
13.0315	0.534
13.0687	0.536
13.1058	0.545
13.143	0.542
13.1802	0.553
13.2174	0.567
13.2546	0.573
13.2918	0.567
13.329	0.559
13.3661	0.541
13.4033	0.516
13.4405	0.508
13.4777	0.496
13.5149	0.489
13.5521	0.475
13.5892	0.469
13.6264	0.482
13.6636	0.502
13.7008	0.528
13.738	0.536
13.7752	0.531
13.8123	0.544
13.8495	0.542
13.8867	0.539
13.9239	0.539
13.9611	0.524
13.9983	0.524
14.0354	0.519
14.0726	0.5
14.1098	0.491
14.147	0.493
14.1842	0.472
14.2214	0.465
14.2586	0.452
14.2957	0.435
14.3329	0.429
14.3701	0.418
14.4073	0.401
14.4445	0.407
14.4817	0.402
14.5188	0.407
14.556	0.413
14.5932	0.416
14.6304	0.418
14.6676	0.426
14.7048	0.418
14.7419	0.435
14.7791	0.44
14.8163	0.458
14.8535	0.474
14.8907	0.479
14.9279	0.508
14.965	0.519
15.0022	0.527
15.0394	0.541
15.0766	0.572
15.1138	0.561
15.151	0.567
15.1882	0.566
15.2253	0.58
15.2625	0.586
15.2997	0.586
15.3369	0.583
15.3741	0.564
15.4113	0.558
15.4484	0.552
15.4856	0.534
15.5228	0.533
15.56	0.538
15.5972	0.542
15.6344	0.545
15.6715	0.561
15.7087	0.57
15.7459	0.57
15.7831	0.566
15.8203	0.589
15.8575	0.589
15.8947	0.592
15.9318	0.597
15.969	0.608
16.0062	0.595
