Infrared Spectrum: BARIUM BUTYRATE
Formula: C8 H14 Ba O4
State: SOLID (0.12% IN KBr PELLET)
Class: COBLENTZ
Instrument: Not specified, most likely a prism, grating, or hybrid spectrometer.
Sampling: TRANSMISSION
Path length: 0.0031 CM THICK
Resolution: 4
MICROMETERS	TRANSMITTANCE
2.03	0.176
2.06881	0.18
2.10763	0.18
2.14644	0.198
2.18526	0.211
2.22407	0.209
2.26288	0.224
2.3017	0.232
2.34051	0.243
2.37933	0.256
2.41814	0.279
2.45695	0.287
2.49577	0.3
2.53458	0.306
2.5734	0.318
2.61221	0.345
2.65102	0.347
2.68984	0.365
2.72865	0.365
2.76747	0.371
2.80628	0.368
2.84509	0.36
2.88391	0.365
2.92272	0.37
2.96154	0.386
3.00035	0.399
3.03916	0.426
3.07798	0.431
3.11679	0.441
3.15561	0.454
3.19442	0.459
3.23323	0.469
3.27205	0.457
3.31086	0.431
3.34968	0.288
3.38849	0.092
3.4273	0.155
3.46612	0.282
3.50493	0.327
3.54375	0.504
3.58256	0.535
3.62137	0.576
3.66019	0.594
3.699	0.61
3.73781	0.61
3.77663	0.634
3.81544	0.646
3.85426	0.659
3.89307	0.66
3.93188	0.675
3.9707	0.683
4.00951	0.678
4.04833	0.68
4.08714	0.686
4.12595	0.712
4.16477	0.722
4.20358	0.73
4.2424	0.74
4.28121	0.746
4.32002	0.753
4.35884	0.759
4.39765	0.761
4.43647	0.772
4.47528	0.78
4.51409	0.772
4.55291	0.787
4.59172	0.8
4.63054	0.803
4.66935	0.806
4.70816	0.798
4.74698	0.813
4.78579	0.826
4.82461	0.827
4.86342	0.831
4.90223	0.837
4.94105	0.85
4.97986	0.853
5.01868	0.845
5.05749	0.858
5.0963	0.87
5.13512	0.87
5.17393	0.879
5.21275	0.887
5.25156	0.892
5.29037	0.887
5.32919	0.892
5.368	0.896
5.40682	0.902
5.44563	0.9
5.48444	0.886
5.52326	0.896
5.56207	0.9
5.60089	0.899
5.6397	0.871
5.67851	0.875
5.71733	0.847
5.75614	0.86
5.79496	0.827
5.83377	0.797
5.87258	0.865
5.9114	0.823
5.95021	0.819
5.98903	0.84
6.02784	0.818
6.06665	0.743
6.10547	0.762
6.14428	0.728
6.1831	0.698
6.22191	0.641
6.26072	0.527
6.29954	0.337
6.33835	0.064
6.37717	0.019
6.41598	0.022
6.45479	0.003
6.49361	0
6.53242	0.017
6.57124	0.008
6.61005	0.05
6.64886	0.144
6.68768	0.259
6.72649	0.386
6.7653	0.394
6.80412	0.266
6.84293	0.183
6.88175	0.134
6.92056	0.03
6.95937	0.008
6.99819	0.014
7.037	0.034
7.07582	0.089
7.11463	0.157
7.15344	0.248
7.19226	0.394
7.23107	0.376
7.26989	0.35
7.3087	0.636
7.34751	0.735
7.38633	0.706
7.42514	0.564
7.46396	0.47
7.50277	0.753
7.54158	0.823
7.5804	0.844
7.61921	0.837
7.65803	0.808
7.69684	0.798
7.73565	0.728
7.77447	0.771
7.81328	0.857
7.8521	0.873
7.89091	0.806
7.92972	0.579
7.96854	0.355
8.00735	0.49
8.04617	0.771
8.08498	0.865
8.12379	0.884
8.16261	0.852
8.20142	0.857
8.24024	0.904
8.27905	0.92
8.31786	0.928
8.35668	0.949
8.39549	0.956
8.43431	0.956
8.47312	0.961
8.51193	0.962
8.55075	0.969
8.58956	0.967
8.62838	0.974
8.66719	0.969
8.706	0.969
8.74482	0.965
8.78363	0.978
8.82245	0.97
8.86126	0.972
8.90007	0.946
8.93889	0.93
8.9777	0.858
9.01652	0.772
9.05533	0.657
9.09414	0.589
9.13296	0.756
9.17177	0.836
9.21059	0.883
9.2494	0.909
9.28821	0.918
9.32703	0.918
9.36584	0.917
9.40466	0.933
9.44347	0.935
9.48228	0.938
9.5211	0.933
9.55991	0.922
9.59873	0.844
9.63754	0.813
9.67635	0.878
9.71517	0.91
9.75398	0.92
9.7928	0.926
9.83161	0.933
9.87042	0.949
9.90924	0.957
9.94805	0.97
9.98686	0.972
10.0257	0.977
10.0645	0.978
10.1033	0.99
10.1421	0.993
10.1809	0.98
10.2197	0.998
10.2586	0.988
10.2974	0.978
10.3362	0.972
10.375	0.985
10.4138	0.993
10.4526	0.988
10.4914	0.988
10.5303	0.974
10.5691	0.887
10.6079	0.819
10.6467	0.881
10.6855	0.941
10.7243	0.974
10.7631	0.985
10.802	0.988
10.8408	0.993
10.8796	0.998
10.9184	0.995
10.9572	0.99
10.996	0.987
11.0348	0.972
11.0737	0.935
11.1125	0.866
11.1513	0.706
11.1901	0.644
11.2289	0.55
11.2677	0.603
11.3065	0.626
11.3454	0.629
11.3842	0.792
11.423	0.925
11.4618	0.964
11.5006	0.982
11.5394	0.988
11.5782	0.993
11.6171	1
11.6559	1.001
11.6947	0.993
11.7335	0.991
11.7723	1
11.8111	0.995
11.8499	0.99
11.8887	0.998
11.9276	1.003
11.9664	0.998
12.0052	1.001
12.044	1.001
12.0828	1.006
12.1216	1.006
12.1604	0.991
12.1993	1.003
12.2381	0.996
12.2769	0.987
12.3157	0.991
12.3545	0.982
12.3933	0.974
12.4321	0.98
12.471	0.98
12.5098	0.98
12.5486	0.98
12.5874	0.978
12.6262	0.975
12.665	0.97
12.7038	0.969
12.7427	0.951
12.7815	0.956
12.8203	0.954
12.8591	0.948
12.8979	0.925
12.9367	0.904
12.9755	0.876
13.0144	0.824
13.0532	0.732
13.092	0.594
13.1308	0.41
13.1696	0.345
13.2084	0.397
13.2472	0.441
13.2861	0.547
13.3249	0.673
13.3637	0.748
13.4025	0.797
13.4413	0.831
13.4801	0.855
13.5189	0.855
13.5578	0.858
13.5966	0.875
13.6354	0.881
13.6742	0.876
13.713	0.873
13.7518	0.855
13.7906	0.842
13.8294	0.824
13.8683	0.813
13.9071	0.798
13.9459	0.782
13.9847	0.767
14.0235	0.748
14.0623	0.717
14.1011	0.711
14.14	0.701
14.1788	0.662
14.2176	0.636
14.2564	0.599
14.2952	0.551
14.334	0.506
14.3728	0.451
14.4117	0.399
14.4505	0.391
14.4893	0.441
14.5281	0.532
14.5669	0.595
14.6057	0.65
14.6445	0.691
14.6834	0.735
14.7222	0.771
14.761	0.792
14.7998	0.805
14.8386	0.818
14.8774	0.827
14.9162	0.826
14.9551	0.829
14.9939	0.84
15.0327	0.847
15.0715	0.826
15.1103	0.816
15.1491	0.813
15.1879	0.801
15.2268	0.803
15.2656	0.798
15.3044	0.8
15.3432	0.788
15.382	0.784
15.4208	0.774
15.4596	0.777
15.4984	0.771
15.5373	0.764
15.5761	0.762
15.6149	0.74
15.6537	0.751
15.6925	0.74
15.7313	0.73
15.7701	0.73
15.809	0.717
15.8478	0.712
15.8866	0.701
15.9254	0.699
15.9642	0.694
16.003	0.691
