Infrared Spectrum: Aniline, 4-tert-butyl-N-(1,3-dimethylbutyl)-
Formula: C16 H27 N
State: LIQUID (NEAT)
Class: COBLENTZ III
Instrument: BECKMAN IR-4 (HYBRID PRISM-GRATING)
Instrument parameters: NaCl PRISM
Sampling: TRANSMISSION
Path length: CAPILLARY
Resolution: 2
Origin: MONSANTO (J. FREEMAN)
1/CM	TRANSMITTANCE
626	0.8071
635	0.7996
644	0.7847
653	0.7868
662	0.8047
671	0.8303
680	0.847
689	0.809
698	0.7713
707	0.7875
716	0.8036
725	0.782
734	0.7663
743	0.83
752	0.7763
761	0.863
770	0.8769
779	0.8613
788	0.8263
797	0.7012
806	0.4695
815	0.1923
824	0.2293
833	0.5294
842	0.6761
851	0.8221
860	0.8595
869	0.8686
878	0.8531
887	0.8003
896	0.8858
905	0.9119
914	0.8864
923	0.7714
932	0.8061
941	0.8516
950	0.8298
959	0.9
968	0.918
977	0.8113
986	0.8843
995	0.9349
1004	0.9413
1013	0.8906
1022	0.8502
1031	0.8178
1040	0.7977
1049	0.8562
1058	0.7842
1067	0.7522
1076	0.7314
1085	0.7881
1094	0.8638
1103	0.8479
1112	0.6481
1121	0.4559
1130	0.5381
1139	0.5464
1148	0.5758
1157	0.4419
1166	0.3115
1175	0.3206
1184	0.5049
1193	0.4389
1202	0.1912
1211	0.5486
1220	0.734
1229	0.7403
1238	0.6544
1247	0.5776
1256	0.3721
1265	0.1899
1274	0.1865
1283	0.3772
1292	0.447
1301	0.4113
1310	0.2416
1319	0.3596
1328	0.2784
1337	0.2888
1346	0.4423
1355	0.4972
1364	0.434
1373	0.1977
1382	0.3067
1391	0.3814
1400	0.4049
1409	0.4709
1418	0.4392
1427	0.697
1436	0.6494
1445	0.5074
1454	0.3739
1463	0.2656
1472	0.2149
1481	0.2069
1490	0.2484
1499	0.3975
1508	0.46
1517	0.4137
1526	0.1519
1535	0.0696
1544	0.3487
1553	0.466
1562	0.6246
1571	0.7367
1580	0.7417
1589	0.6796
1598	0.6719
1607	0.5253
1616	0.3382
1625	0.1532
1634	0.2856
1643	0.5553
1652	0.6865
1661	0.7197
1670	0.7513
1679	0.7999
1688	0.8581
1697	0.8817
1706	0.8993
1715	0.9088
1724	0.9167
1733	0.922
1742	0.9228
1751	0.9199
1760	0.914
1769	0.9117
1778	0.924
1787	0.9402
1796	0.9517
1805	0.9556
1814	0.9558
1823	0.9549
1832	0.9523
1841	0.9483
1850	0.9453
1859	0.9441
1868	0.919
1877	0.871
1886	0.8521
1895	0.8586
1904	0.9141
1913	0.9336
1922	0.9467
1931	0.9554
1940	0.9602
1949	0.962
1958	0.9628
1967	0.9637
1976	0.965
1985	0.9669
1994	0.9694
2003	0.9724
2012	0.9745
2021	0.9725
2030	0.9709
2039	0.9717
2048	0.9735
2057	0.9759
2066	0.9782
2075	0.9808
2084	0.9834
2093	0.9841
2102	0.9838
2111	0.9826
2120	0.9811
2129	0.9789
2138	0.9766
2147	0.9756
2156	0.9761
2165	0.9784
2174	0.9808
2183	0.9822
2192	0.982
2201	0.9815
2210	0.9811
2219	0.9806
2228	0.9803
2237	0.9803
2246	0.9804
2255	0.9813
2264	0.982
2273	0.9825
2282	0.9823
2291	0.9818
2300	0.9805
2309	0.9788
2318	0.9762
2327	0.9737
2336	0.9724
2345	0.9712
2354	0.9722
2363	0.9738
2372	0.976
2381	0.9799
2390	0.9823
2399	0.9771
2408	0.9708
2417	0.9635
2426	0.9636
2435	0.9643
2444	0.9653
2453	0.9659
2462	0.9665
2471	0.9666
2480	0.9662
2489	0.9641
2498	0.9619
2507	0.9591
2516	0.9564
2525	0.9542
2534	0.9522
2543	0.951
2552	0.9498
2561	0.9459
2570	0.939
2579	0.9293
2588	0.9196
2597	0.9101
2606	0.9025
2615	0.8965
2624	0.896
2633	0.8995
2642	0.9085
2651	0.915
2660	0.9159
2669	0.9154
2678	0.9146
2687	0.913
2696	0.9109
2705	0.9095
2714	0.9083
2723	0.9067
2732	0.89
2741	0.8712
2750	0.8549
2759	0.8443
2768	0.8456
2777	0.8535
2786	0.8628
2795	0.8657
2804	0.8633
2813	0.8407
2822	0.8097
2831	0.7792
2840	0.7572
2849	0.7356
2858	0.7135
2867	0.6309
2876	0.5219
2885	0.4136
2894	0.306
2903	0.1991
2912	0.1749
2921	0.1709
2930	0.164
2939	0.1425
2948	0.1236
2957	0.1172
2966	0.1136
2975	0.1047
2984	0.0727
2993	0.0592
3002	0.0608
3011	0.0852
3020	0.1523
3029	0.2188
3038	0.285
3047	0.3508
3056	0.4161
3065	0.4811
3074	0.5346
3083	0.5453
3092	0.5536
3101	0.6025
3110	0.6562
3119	0.7094
3128	0.7459
3137	0.7559
3146	0.7735
3155	0.8579
3164	0.8628
3173	0.8653
3182	0.8671
3191	0.8686
3200	0.8702
3209	0.8717
3218	0.8723
3227	0.8726
3236	0.8746
3245	0.8837
3254	0.8939
3263	0.8997
3272	0.9038
3281	0.9073
3290	0.9088
3299	0.9097
3308	0.91
3317	0.9098
3326	0.9086
3335	0.906
3344	0.8897
3353	0.8678
3362	0.846
3371	0.8244
3380	0.803
3389	0.7816
3398	0.7603
3407	0.7391
3416	0.7181
3425	0.6972
3434	0.6763
3443	0.6556
3452	0.635
3461	0.6312
3470	0.6737
3479	0.7667
3488	0.8337
3497	0.8526
3506	0.8795
3515	0.8957
3524	0.9049
3533	0.9128
3542	0.9199
3551	0.9259
3560	0.93
3569	0.9331
3578	0.9361
3587	0.939
3596	0.941
3605	0.9429
3614	0.9449
3623	0.9466
3632	0.9478
3641	0.9489
3650	0.95
3659	0.9507
3668	0.9514
3677	0.9521
3686	0.9528
3695	0.9533
3704	0.9537
3713	0.9541
3722	0.9544
3731	0.9546
3740	0.9546
3749	0.9547
3758	0.9547
3767	0.9544
3776	0.954
3785	0.9537
3794	0.9532
3803	0.9527
3812	0.952
3821	0.9514
3830	0.9507
3839	0.9498
3848	0.9485
3857	0.947
3866	0.9439
3875	0.9422
3884	0.9415
3893	0.941
3902	0.9405
3911	0.9399
3920	0.9395
3929	0.9389
3938	0.9384
3947	0.9379
3956	0.9373
3965	0.9368
3974	0.9363
3983	0.9358
3992	0.9353
