Infrared Spectrum: Triazole-4-carboxylic acid, 1,2,3-, 5-phenylacetamido-
Formula: C11 H10 N4 O3
State: SOLID (1 mg / 650 mg KBr DISC)
Class: COBLENTZ III
Instrument: PERKIN-ELMER 221 (GRATING)
Instrument parameters: FILTER AT 980 CM^-^1. GRATING 4000-1428 CM^-^1, NaCl PRISM 1428-650 CM^-^1
Sampling: TRANSMISSION
Resolution: 2
Origin: SOUTHERN RESEARCH INSTITUTE
1/CM	TRANSMITTANCE
631	0.8148
640	0.8124
649	0.8091
658	0.8015
667	0.7247
676	0.8008
685	0.7731
694	0.6137
703	0.8019
712	0.7967
721	0.7651
730	0.715
739	0.5863
748	0.6732
757	0.6214
766	0.5912
775	0.7184
784	0.6236
793	0.7047
802	0.7262
811	0.761
820	0.7182
829	0.6872
838	0.8058
847	0.8135
856	0.8359
865	0.8354
874	0.8327
883	0.822
892	0.8036
901	0.7724
910	0.7375
919	0.7409
928	0.73
937	0.7251
946	0.7369
955	0.7538
964	0.753
973	0.6436
982	0.7674
991	0.7121
1000	0.6395
1009	0.7782
1018	0.7778
1027	0.7468
1036	0.7007
1045	0.5957
1054	0.6265
1063	0.7204
1072	0.7906
1081	0.8059
1090	0.8
1099	0.7876
1108	0.7677
1117	0.734
1126	0.6851
1135	0.5693
1144	0.5322
1153	0.7457
1162	0.7562
1171	0.749
1180	0.733
1189	0.7051
1198	0.6307
1207	0.529
1216	0.4154
1225	0.3049
1234	0.3993
1243	0.4903
1252	0.5373
1261	0.4874
1270	0.4074
1279	0.5999
1288	0.4864
1297	0.3194
1306	0.3853
1315	0.5374
1324	0.6199
1333	0.6179
1342	0.6505
1351	0.645
1360	0.6384
1369	0.6431
1378	0.6517
1387	0.6106
1396	0.5075
1405	0.4166
1414	0.7274
1423	0.7312
1432	0.7242
1441	0.6815
1450	0.5974
1459	0.597
1468	0.6201
1477	0.6172
1486	0.5967
1495	0.5312
1504	0.3748
1513	0.3582
1522	0.4097
1531	0.654
1540	0.7094
1549	0.7012
1558	0.6766
1567	0.6295
1576	0.562
1585	0.4554
1594	0.3388
1603	0.2357
1612	0.3141
1621	0.4178
1630	0.5003
1639	0.6297
1648	0.6274
1657	0.5659
1666	0.4843
1675	0.2253
1684	0.2227
1693	0.3628
1702	0.3033
1711	0.1926
1720	0.3558
1729	0.5159
1738	0.6206
1747	0.6665
1756	0.7207
1765	0.7731
1774	0.8013
1783	0.8137
1792	0.8194
1801	0.8246
1810	0.8315
1819	0.8405
1828	0.8498
1837	0.8562
1846	0.8575
1855	0.858
1864	0.8585
1873	0.859
1882	0.8595
1891	0.86
1900	0.8604
1909	0.8608
1918	0.8612
1927	0.8614
1936	0.8609
1945	0.8605
1954	0.8603
1963	0.8604
1972	0.8617
1981	0.8652
1990	0.8663
1999	0.8665
2008	0.8665
2017	0.8663
2026	0.8659
2035	0.8654
2044	0.8645
2053	0.8636
2062	0.8628
2071	0.8621
2080	0.8615
2089	0.8608
2098	0.8602
2107	0.8595
2116	0.8588
2125	0.8585
2134	0.8594
2143	0.8619
2152	0.8635
2161	0.8631
2170	0.8618
2179	0.8604
2188	0.8592
2197	0.8586
2206	0.858
2215	0.8574
2224	0.8562
2233	0.8547
2242	0.8512
2251	0.8488
2260	0.8461
2269	0.8434
2278	0.8399
2287	0.8364
2296	0.8329
2305	0.8293
2314	0.8254
2323	0.8216
2332	0.8178
2341	0.8144
2350	0.811
2359	0.8076
2368	0.8042
2377	0.8008
2386	0.7974
2395	0.7934
2404	0.788
2413	0.7826
2422	0.7777
2431	0.7734
2440	0.769
2449	0.7646
2458	0.7593
2467	0.7512
2476	0.7418
2485	0.7339
2494	0.7253
2503	0.7204
2512	0.7151
2521	0.7103
2530	0.7099
2539	0.7094
2548	0.7086
2557	0.7071
2566	0.7064
2575	0.7057
2584	0.7049
2593	0.7041
2602	0.7036
2611	0.7041
2620	0.7047
2629	0.7054
2638	0.7061
2647	0.7067
2656	0.7069
2665	0.707
2674	0.707
2683	0.7069
2692	0.7066
2701	0.7052
2710	0.7041
2719	0.7034
2728	0.7011
2737	0.6956
2746	0.6902
2755	0.6859
2764	0.6817
2773	0.6776
2782	0.6732
2791	0.6688
2800	0.6645
2809	0.6606
2818	0.6569
2827	0.6494
2836	0.6367
2845	0.6272
2854	0.6269
2863	0.6271
2872	0.6263
2881	0.6249
2890	0.6224
2899	0.6194
2908	0.6174
2917	0.6155
2926	0.6145
2935	0.6139
2944	0.6131
2953	0.6125
2962	0.6164
2971	0.6197
2980	0.6198
2989	0.6179
2998	0.6144
3007	0.6112
3016	0.6088
3025	0.607
3034	0.6062
3043	0.6057
3052	0.6058
3061	0.6064
3070	0.6083
3079	0.6104
3088	0.6109
3097	0.6102
3106	0.6089
3115	0.6074
3124	0.6059
3133	0.6044
3142	0.6034
3151	0.6032
3160	0.5996
3169	0.5889
3178	0.5783
3187	0.5622
3196	0.544
3205	0.5101
3214	0.4916
3223	0.4733
3232	0.4443
3241	0.4204
3250	0.4116
3259	0.414
3268	0.4285
3277	0.4617
3286	0.5004
3295	0.5181
3304	0.5417
3313	0.5664
3322	0.5854
3331	0.5943
3340	0.5966
3349	0.5954
3358	0.5806
3367	0.5132
3376	0.4862
3385	0.5306
3394	0.5757
3403	0.5905
3412	0.6033
3421	0.614
3430	0.6225
3439	0.6297
3448	0.6369
3457	0.6424
3466	0.6492
3475	0.6573
3484	0.6658
3493	0.6733
3502	0.6806
3511	0.6902
3520	0.706
3529	0.7236
3538	0.7267
3547	0.7353
3556	0.7437
3565	0.7535
3574	0.7665
3583	0.7755
3592	0.785
3601	0.7952
3610	0.8101
3619	0.8233
3628	0.8335
3637	0.8372
3646	0.8385
3655	0.8387
3664	0.8388
3673	0.8404
3682	0.8442
3691	0.8507
3700	0.8523
3709	0.8522
3718	0.8525
3727	0.8521
3736	0.8515
3745	0.8507
3754	0.85
3763	0.8492
3772	0.8484
3781	0.8477
3790	0.847
3799	0.8467
3808	0.8468
3817	0.847
3826	0.8469
3835	0.8462
3844	0.8454
3853	0.8452
3862	0.8453
3871	0.8455
3880	0.8457
3889	0.8465
3898	0.8474
3907	0.8475
3916	0.8471
3925	0.8462
3934	0.8444
3943	0.8433
3952	0.8429
3961	0.8427
3970	0.8429
3979	0.8435
3988	0.844
3997	0.8446
