Infrared Spectrum: 9-Octadecenoic acid, pentyl ester
Formula: C23 H44 O2
State: SOLUTION (10% CCl4 FOR 2.7-7.5, 10% CS2 FOR 7.5-26 MICRON) VS SOLVENT
Class: COBLENTZ
Instrument: DOW KBr FOREPRISM-GRATING
Instrument parameters: BLAZED AT 3.5, 12.0, 20.0 MICRON AND CHANGED AT 5.0, 7.5, 14.9 MICRON
Sampling: TRANSMISSION
Path length: 0.011 CM, 0.011 CM
Resolution: 2
Origin: DOW CHEMICAL COMPANY
1/CM	TRANSMITTANCE
3792	0.8574
3783	0.8566
3774	0.8557
3765	0.8557
3756	0.8558
3747	0.8556
3738	0.8554
3729	0.8556
3720	0.8558
3711	0.856
3702	0.8562
3693	0.8564
3684	0.8567
3675	0.8568
3666	0.8571
3657	0.8571
3648	0.8571
3639	0.8562
3630	0.8553
3621	0.8546
3612	0.8543
3603	0.8544
3594	0.8557
3585	0.8587
3576	0.8625
3567	0.8645
3558	0.8639
3549	0.8627
3540	0.8615
3531	0.8603
3522	0.8604
3513	0.8621
3504	0.8646
3495	0.8666
3486	0.8682
3477	0.8692
3468	0.8697
3459	0.8671
3450	0.8635
3441	0.8628
3432	0.8655
3423	0.8697
3414	0.874
3405	0.8768
3396	0.8783
3387	0.8785
3378	0.8788
3369	0.8792
3360	0.8805
3351	0.8831
3342	0.8857
3333	0.8844
3324	0.8834
3315	0.883
3306	0.8833
3297	0.8835
3288	0.8833
3279	0.883
3270	0.8828
3261	0.8821
3252	0.8817
3243	0.8813
3234	0.8814
3225	0.8806
3216	0.879
3207	0.8775
3198	0.8761
3189	0.8748
3180	0.8738
3171	0.872
3162	0.8701
3153	0.8682
3144	0.8673
3135	0.8665
3126	0.8655
3117	0.8635
3108	0.8623
3099	0.8602
3090	0.8563
3081	0.8509
3072	0.8446
3063	0.8368
3054	0.8291
3045	0.8208
3036	0.81
3027	0.7886
3018	0.7456
3009	0.521
3000	0.5354
2991	0.5435
2982	0.3802
2973	0.2004
2964	0.0606
2955	0.0435
2946	0.0542
2937	0.0433
2928	0.0163
2919	0.017
2910	0.0565
2901	0.1225
2892	0.1885
2883	0.2546
2874	0.2304
2865	0.1558
2856	0.0663
2847	0.1994
2838	0.4412
2829	0.5814
2820	0.6588
2811	0.7108
2802	0.7467
2793	0.7707
2784	0.7861
2775	0.7978
2766	0.8071
2757	0.8125
2748	0.8165
2739	0.8158
2730	0.8133
2721	0.8124
2712	0.8143
2703	0.8188
2694	0.8218
2685	0.8223
2676	0.8212
2667	0.8218
2658	0.8237
2649	0.8257
2640	0.8278
2631	0.8309
2622	0.8341
2613	0.8371
2604	0.8403
2595	0.8433
2586	0.8464
2577	0.8494
2568	0.8518
2559	0.854
2550	0.8562
2541	0.8577
2532	0.8588
2523	0.8602
2514	0.8621
2505	0.864
2496	0.8659
2487	0.8668
2478	0.8678
2469	0.8688
2460	0.8695
2451	0.8696
2442	0.8696
2433	0.8697
2424	0.8692
2415	0.8683
2406	0.8674
2397	0.8668
2388	0.8675
2379	0.8682
2370	0.8698
2361	0.8711
2352	0.8718
2343	0.8724
2334	0.8721
2325	0.8716
2316	0.8649
2307	0.8595
2298	0.8601
2289	0.8613
2280	0.8632
2271	0.8651
2262	0.8665
2253	0.8677
2244	0.869
2235	0.8702
2226	0.8716
2217	0.8728
2208	0.8739
2199	0.875
2190	0.8757
2181	0.8791
2172	0.8788
2163	0.8771
2154	0.8771
2145	0.8771
2136	0.8773
2127	0.8773
2118	0.8771
2109	0.877
2100	0.8767
2091	0.8761
2082	0.8732
2073	0.8718
2064	0.8705
2055	0.8703
2046	0.8703
2037	0.87
2028	0.8691
2019	0.8695
2010	0.8739
2001	0.8763
1992	0.8734
1983	0.8741
1974	0.8747
1965	0.8749
1956	0.8752
1947	0.8753
1938	0.8753
1929	0.8755
1920	0.8759
1911	0.8763
1902	0.8757
1893	0.875
1884	0.8739
1875	0.8725
1866	0.871
1857	0.8703
1848	0.8695
1839	0.8685
1830	0.8671
1821	0.8635
1812	0.8578
1803	0.8502
1794	0.8417
1785	0.8301
1776	0.8118
1767	0.7853
1758	0.741
1749	0.5523
1740	0.1202
1731	0.0316
1722	0.1462
1713	0.4339
1704	0.5751
1695	0.6585
1686	0.7241
1677	0.7705
1668	0.7904
1659	0.8028
1650	0.8092
1641	0.824
1632	0.8337
1623	0.8413
1614	0.8493
1605	0.8575
1596	0.8639
1587	0.8657
1578	0.8623
1569	0.8627
1560	0.8645
1551	0.8654
1542	0.8651
1533	0.8623
1524	0.8575
1515	0.848
1506	0.8354
1497	0.8161
1488	0.7861
1479	0.7196
1470	0.2413
1461	0.2985
1452	0.4642
1443	0.5468
1434	0.5857
1425	0.6499
1416	0.6475
1407	0.6971
1398	0.6369
1389	0.5174
1380	0.5202
1371	0.4491
1362	0.507
1353	0.5322
1344	0.5601
1335	0.5953
1326	0.6084
1317	0.582
1308	0.5553
1299	0.551
1290	0.5562
1281	0.5297
1272	0.5026
1263	0.4923
1254	0.4516
1245	0.3959
1236	0.4079
1227	0.4374
1218	0.4571
1209	0.4493
1200	0.417
1191	0.3224
1182	0.2693
1173	0.2514
1164	0.2342
1155	0.3149
1146	0.4078
1137	0.4903
1128	0.5476
1119	0.5282
1110	0.535
1101	0.5754
1092	0.5795
1083	0.5889
1074	0.618
1065	0.6349
1056	0.6239
1047	0.6223
1038	0.6681
1029	0.7022
1020	0.7098
1011	0.7037
1002	0.6828
993	0.6758
984	0.6698
975	0.6468
966	0.596
957	0.6451
948	0.6868
939	0.7362
930	0.7584
921	0.76
912	0.7618
903	0.7717
894	0.7888
885	0.801
876	0.8058
867	0.8085
858	0.8176
849	0.8317
840	0.8365
831	0.8188
822	0.7924
813	0.8028
804	0.8181
795	0.8252
786	0.8297
777	0.8088
768	0.7933
759	0.7932
750	0.7878
741	0.7661
732	0.7239
723	0.6518
714	0.6745
705	0.7332
696	0.765
687	0.7811
678	0.7968
669	0.8195
660	0.8542
651	0.852
642	0.8505
633	0.8499
624	0.8473
615	0.8313
606	0.8295
597	0.8275
588	0.827
579	0.827
570	0.8307
561	0.8344
552	0.8375
543	0.8386
534	0.8277
525	0.8155
516	0.8154
507	0.8228
498	0.8267
489	0.8236
480	0.823
471	0.824
462	0.8217
453	0.8202
444	0.8208
435	0.821
426	0.8216
417	0.8243
408	0.8262
399	0.8282
