Infrared Spectrum: Adenine, N-[p-(methylthio)phenyl]-
Formula: C12 H11 N5 S
State: SOLID (1 mg / 650 mg KBr DISC)
Class: COBLENTZ III
Instrument: PERKIN-ELMER 21 (GRATING)
Instrument parameters: FILTER CHANGE ABOUT 1090 CM^-^1
Sampling: TRANSMISSION
Resolution: 2
Origin: SOUTHERN RESEARCH INSTITUTE
1/CM	TRANSMITTANCE
608	0.9714
617	0.9774
626	0.9607
635	0.9357
644	0.8701
653	0.8625
662	0.9551
671	0.9281
680	0.9105
689	0.9056
698	0.9299
707	0.9175
716	0.9182
725	0.9124
734	0.9084
743	0.9121
752	0.9155
761	0.9083
770	0.8717
779	0.7187
788	0.7548
797	0.7451
806	0.8089
815	0.7522
824	0.7148
833	0.7498
842	0.7799
851	0.7866
860	0.7945
869	0.8049
878	0.8153
887	0.8284
896	0.798
905	0.6837
914	0.7104
923	0.7526
932	0.6392
941	0.645
950	0.7866
959	0.8122
968	0.8315
977	0.8539
986	0.8894
995	0.8878
1004	0.8833
1013	0.8569
1022	0.8469
1031	0.8726
1040	0.8741
1049	0.8677
1058	0.8543
1067	0.8327
1076	0.776
1085	0.6661
1094	0.755
1103	0.7876
1112	0.804
1121	0.7998
1130	0.7981
1139	0.7994
1148	0.7567
1157	0.7225
1166	0.7557
1175	0.7987
1184	0.778
1193	0.8105
1202	0.8153
1211	0.7948
1220	0.7511
1229	0.6469
1238	0.4988
1247	0.4811
1256	0.5955
1265	0.7609
1274	0.7422
1283	0.7211
1292	0.6664
1301	0.5576
1310	0.6492
1319	0.5749
1328	0.527
1337	0.6612
1346	0.653
1355	0.5366
1364	0.6174
1373	0.7063
1382	0.643
1391	0.5671
1400	0.527
1409	0.536
1418	0.5952
1427	0.5797
1436	0.5219
1445	0.4963
1454	0.461
1463	0.4156
1472	0.3873
1481	0.3844
1490	0.3563
1499	0.3888
1508	0.5738
1517	0.5179
1526	0.5162
1535	0.5701
1544	0.6011
1553	0.5592
1562	0.3416
1571	0.3285
1580	0.2413
1589	0.2607
1598	0.3266
1607	0.211
1616	0.1293
1625	0.1707
1634	0.3046
1643	0.5293
1652	0.6729
1661	0.7535
1670	0.7891
1679	0.8161
1688	0.8223
1697	0.8242
1706	0.8275
1715	0.8302
1724	0.8299
1733	0.8287
1742	0.8297
1751	0.8319
1760	0.8327
1769	0.8319
1778	0.8315
1787	0.8305
1796	0.8291
1805	0.8297
1814	0.8327
1823	0.835
1832	0.8361
1841	0.8357
1850	0.8343
1859	0.8331
1868	0.8336
1877	0.8268
1886	0.8222
1895	0.8302
1904	0.829
1913	0.8316
1922	0.8341
1931	0.8332
1940	0.8305
1949	0.8335
1958	0.835
1967	0.8332
1976	0.8332
1985	0.8346
1994	0.8319
2003	0.8289
2012	0.8265
2021	0.8246
2030	0.8224
2039	0.8203
2048	0.8192
2057	0.8171
2066	0.815
2075	0.8129
2084	0.809
2093	0.8056
2102	0.8036
2111	0.8039
2120	0.8078
2129	0.8056
2138	0.801
2147	0.7968
2156	0.7927
2165	0.7898
2174	0.7874
2183	0.7848
2192	0.7817
2201	0.778
2210	0.7727
2219	0.7697
2228	0.7685
2237	0.7673
2246	0.7655
2255	0.7627
2264	0.7591
2273	0.753
2282	0.745
2291	0.7376
2300	0.7294
2309	0.7208
2318	0.7126
2327	0.705
2336	0.6997
2345	0.6973
2354	0.6984
2363	0.7011
2372	0.7018
2381	0.7005
2390	0.6979
2399	0.6951
2408	0.6935
2417	0.6893
2426	0.6835
2435	0.6742
2444	0.666
2453	0.6593
2462	0.6594
2471	0.6596
2480	0.6523
2489	0.652
2498	0.6416
2507	0.6308
2516	0.6222
2525	0.6132
2534	0.6155
2543	0.6193
2552	0.614
2561	0.6111
2570	0.6061
2579	0.6004
2588	0.6027
2597	0.6041
2606	0.6042
2615	0.6037
2624	0.6029
2633	0.6004
2642	0.5974
2651	0.5941
2660	0.5916
2669	0.5878
2678	0.5843
2687	0.5792
2696	0.576
2705	0.5739
2714	0.5727
2723	0.5721
2732	0.5668
2741	0.5562
2750	0.5507
2759	0.5499
2768	0.5486
2777	0.5433
2786	0.5431
2795	0.5485
2804	0.5579
2813	0.5662
2822	0.5709
2831	0.5756
2840	0.5778
2849	0.5719
2858	0.5618
2867	0.558
2876	0.5551
2885	0.5514
2894	0.5426
2903	0.5308
2912	0.5318
2921	0.5273
2930	0.5181
2939	0.5126
2948	0.509
2957	0.5073
2966	0.5062
2975	0.5067
2984	0.5069
2993	0.5071
3002	0.507
3011	0.5057
3020	0.4993
3029	0.4982
3038	0.4966
3047	0.4949
3056	0.4937
3065	0.4944
3074	0.4958
3083	0.4983
3092	0.5013
3101	0.5044
3110	0.5075
3119	0.5104
3128	0.5128
3137	0.5142
3146	0.5139
3155	0.5143
3164	0.5162
3173	0.5227
3182	0.5306
3191	0.5347
3200	0.5374
3209	0.54
3218	0.5423
3227	0.5437
3236	0.5411
3245	0.5508
3254	0.5649
3263	0.5717
3272	0.5786
3281	0.5828
3290	0.587
3299	0.5905
3308	0.5924
3317	0.5927
3326	0.5888
3335	0.5829
3344	0.5747
3353	0.5658
3362	0.5565
3371	0.5469
3380	0.5394
3389	0.5371
3398	0.5375
3407	0.5387
3416	0.54
3425	0.5406
3434	0.5433
3443	0.5478
3452	0.5554
3461	0.5639
3470	0.5655
3479	0.572
3488	0.5775
3497	0.5832
3506	0.5897
3515	0.5963
3524	0.6036
3533	0.6109
3542	0.619
3551	0.6276
3560	0.6365
3569	0.6463
3578	0.6561
3587	0.6667
3596	0.6738
3605	0.6768
3614	0.6793
3623	0.689
3632	0.6973
3641	0.7038
3650	0.7063
3659	0.7067
3668	0.707
3677	0.7072
3686	0.7072
3695	0.7072
3704	0.7065
3713	0.7056
3722	0.7039
3731	0.7004
3740	0.6978
3749	0.699
3758	0.7006
3767	0.7033
3776	0.7068
3785	0.7078
3794	0.6985
3803	0.6943
3812	0.6936
3821	0.6928
3830	0.693
3839	0.6951
3848	0.7009
3857	0.6987
3866	0.6947
3875	0.6935
3884	0.6931
3893	0.6916
3902	0.6917
3911	0.6939
3920	0.6961
3929	0.6916
3938	0.6866
3947	0.6832
3956	0.6805
3965	0.6796
3974	0.6821
3983	0.6869
3992	0.6956
