Infrared Spectrum: PYRIMIDINE, 4-AMINO-2,6-DICHLORO-5-(ETHYLAMINO)-, HYDROCHLORIDE
Formula: C6 H9 Cl3 N4
State: SOLID (1 mg / 650 mg KBr DISC)
Class: COBLENTZ III
Instrument: PERKIN-ELMER 221 (GRATING)
Instrument parameters: FILTER CHANGE AT 980 CM^-^1, GRATING FOR 4000-1428 CM^-^1, NaCl PRISM FOR 1428-650 CM^-^1
Sampling: TRANSMISSION
Resolution: 4
Origin: SOUTHERN RESEARCH INSTITUTE
1/CM	TRANSMITTANCE
625.177	0.51
634.169	0.51
643.16	0.51
652.152	0.511
661.144	0.514
670.135	0.513
679.127	0.464
688.119	0.494
697.11	0.472
706.102	0.436
715.094	0.434
724.085	0.383
733.077	0.291
742.069	0.523
751.06	0.476
760.052	0.38
769.044	0.216
778.035	0.407
787.027	0.326
796.019	0.286
805.01	0.439
814.002	0.5
822.994	0.466
831.985	0.381
840.977	0.3
849.969	0.235
858.96	0.27
867.952	0.493
876.944	0.558
885.935	0.508
894.927	0.404
903.919	0.312
912.91	0.45
921.902	0.532
930.893	0.525
939.885	0.481
948.877	0.449
957.868	0.414
966.86	0.388
975.852	0.336
984.843	0.045
993.835	0.246
1002.83	0.155
1011.82	0.341
1020.81	0.4
1029.8	0.318
1038.79	0.348
1047.79	0.483
1056.78	0.47
1065.77	0.429
1074.76	0.379
1083.75	0.343
1092.74	0.296
1101.74	0.207
1110.73	0.302
1119.72	0.285
1128.71	0.28
1137.7	0.287
1146.69	0.297
1155.69	0.347
1164.68	0.381
1173.67	0.379
1182.66	0.367
1191.65	0.356
1200.64	0.336
1209.63	0.307
1218.63	0.293
1227.62	0.248
1236.61	0.194
1245.6	0.151
1254.59	0.184
1263.58	0.24
1272.58	0.21
1281.57	0.155
1290.56	0.135
1299.55	0.314
1308.54	0.344
1317.53	0.315
1326.53	0.233
1335.52	0.165
1344.51	0.112
1353.5	0.104
1362.49	0.15
1371.48	0.216
1380.48	0.251
1389.47	0.324
1398.46	0.269
1407.45	0.208
1416.44	0.171
1425.43	0.294
1434.43	0.313
1443.42	0.277
1452.41	0.221
1461.4	0.257
1470.39	0.173
1479.38	0.254
1488.38	0.332
1497.37	0.344
1506.36	0.333
1515.35	0.295
1524.34	0.213
1533.33	0.134
1542.33	0.092
1551.32	0.101
1560.31	0.098
1569.3	0.076
1578.29	0.054
1587.28	0.069
1596.28	0.138
1605.27	0.281
1614.26	0.397
1623.25	0.408
1632.24	0.315
1641.23	0.152
1650.23	0.075
1659.22	0.135
1668.21	0.217
1677.2	0.307
1686.19	0.403
1695.18	0.484
1704.18	0.525
1713.17	0.553
1722.16	0.59
1731.15	0.643
1740.14	0.663
1749.13	0.7
1758.13	0.713
1767.12	0.716
1776.11	0.716
1785.1	0.715
1794.09	0.713
1803.08	0.707
1812.08	0.692
1821.07	0.686
1830.06	0.702
1839.05	0.701
1848.04	0.688
1857.03	0.678
1866.03	0.658
1875.02	0.645
1884.01	0.643
1893	0.643
1901.99	0.641
1910.98	0.633
1919.98	0.626
1928.97	0.62
1937.96	0.591
1946.95	0.563
1955.94	0.556
1964.93	0.566
1973.93	0.571
1982.92	0.569
1991.91	0.563
2000.9	0.556
2009.89	0.553
2018.88	0.551
2027.88	0.548
2036.87	0.541
2045.86	0.53
2054.85	0.528
2063.84	0.526
2072.83	0.525
2081.83	0.524
2090.82	0.522
2099.81	0.52
2108.8	0.518
2117.79	0.515
2126.78	0.5
2135.78	0.478
2144.77	0.466
2153.76	0.458
2162.75	0.472
2171.74	0.48
2180.73	0.472
2189.73	0.466
2198.72	0.453
2207.71	0.444
2216.7	0.439
2225.69	0.437
2234.68	0.435
2243.68	0.429
2252.67	0.427
2261.66	0.424
2270.65	0.416
2279.64	0.404
2288.63	0.395
2297.63	0.383
2306.62	0.367
2315.61	0.35
2324.6	0.333
2333.59	0.322
2342.58	0.316
2351.58	0.31
2360.57	0.308
2369.56	0.308
2378.55	0.308
2387.54	0.308
2396.53	0.3
2405.53	0.275
2414.52	0.25
2423.51	0.245
2432.5	0.243
2441.49	0.243
2450.48	0.238
2459.48	0.23
2468.47	0.23
2477.46	0.247
2486.45	0.273
2495.44	0.275
2504.43	0.261
2513.43	0.254
2522.42	0.242
2531.41	0.226
2540.4	0.21
2549.39	0.202
2558.38	0.198
2567.38	0.194
2576.37	0.184
2585.36	0.174
2594.35	0.162
2603.34	0.152
2612.33	0.146
2621.33	0.144
2630.32	0.143
2639.31	0.144
2648.3	0.15
2657.29	0.156
2666.28	0.158
2675.28	0.158
2684.27	0.163
2693.26	0.175
2702.25	0.19
2711.24	0.201
2720.23	0.206
2729.23	0.208
2738.22	0.209
2747.21	0.209
2756.2	0.209
2765.19	0.208
2774.18	0.208
2783.18	0.21
2792.17	0.215
2801.16	0.216
2810.15	0.214
2819.14	0.211
2828.13	0.208
2837.13	0.201
2846.12	0.195
2855.11	0.192
2864.1	0.196
2873.09	0.2
2882.08	0.209
2891.08	0.22
2900.07	0.229
2909.06	0.249
2918.05	0.26
2927.04	0.274
2936.03	0.282
2945.03	0.293
2954.02	0.297
2963.01	0.292
2972	0.29
2980.99	0.306
2989.98	0.312
2998.98	0.322
3007.97	0.332
3016.96	0.333
3025.95	0.327
3034.94	0.323
3043.93	0.308
3052.93	0.294
3061.92	0.287
3070.91	0.284
3079.9	0.28
3088.89	0.275
3097.88	0.25
3106.88	0.225
3115.87	0.214
3124.86	0.205
3133.85	0.198
3142.84	0.181
3151.83	0.154
3160.83	0.124
3169.82	0.098
3178.81	0.08
3187.8	0.083
3196.79	0.109
3205.78	0.144
3214.78	0.174
3223.77	0.184
3232.76	0.188
3241.75	0.208
3250.74	0.234
3259.73	0.258
3268.73	0.271
3277.72	0.273
3286.71	0.257
3295.7	0.227
3304.69	0.184
3313.68	0.131
3322.68	0.126
3331.67	0.135
3340.66	0.152
3349.65	0.166
3358.64	0.167
3367.63	0.166
3376.63	0.167
3385.62	0.185
3394.61	0.246
3403.6	0.315
3412.59	0.35
3421.58	0.391
3430.58	0.433
3439.57	0.45
3448.56	0.453
3457.55	0.455
3466.54	0.457
3475.53	0.458
3484.53	0.46
3493.52	0.463
3502.51	0.465
3511.5	0.466
3520.49	0.468
3529.48	0.47
3538.48	0.471
3547.47	0.473
3556.46	0.475
3565.45	0.478
3574.44	0.484
3583.43	0.49
3592.43	0.493
3601.42	0.498
3610.41	0.502
3619.4	0.506
3628.39	0.509
3637.38	0.511
3646.38	0.512
3655.37	0.512
3664.36	0.512
3673.35	0.51
3682.34	0.509
3691.33	0.508
3700.33	0.508
3709.32	0.507
3718.31	0.502
3727.3	0.498
3736.29	0.494
3745.28	0.49
3754.28	0.489
3763.27	0.488
3772.26	0.488
3781.25	0.487
3790.24	0.483
3799.23	0.481
3808.23	0.48
3817.22	0.479
3826.21	0.478
3835.2	0.477
3844.19	0.475
3853.18	0.474
3862.18	0.473
3871.17	0.472
3880.16	0.471
3889.15	0.47
3898.14	0.469
3907.13	0.469
3916.13	0.468
3925.12	0.468
3934.11	0.468
3943.1	0.468
3952.09	0.468
3961.08	0.467
3970.08	0.467
3979.07	0.467
3988.06	0.467
3997.05	0.467
4006.04	0.468
