Infrared Spectrum: PYRIDINE HYDROCHLORIDE
Formula: C5 H6 Cl N
State: SOLID (KBr PELLET)
Class: COBLENTZ
Instrument: PERKIN-ELMER
Sampling: TRANSMISSION
Resolution: 4
Origin: STANDARD OIL OF OHIO
MICROMETERS	TRANSMITTANCE
2.047	0.836
2.08093	0.845
2.11485	0.85
2.14878	0.852
2.18271	0.855
2.21663	0.862
2.25056	0.869
2.28449	0.869
2.31841	0.874
2.35234	0.877
2.38626	0.879
2.42019	0.874
2.45412	0.858
2.48804	0.867
2.52197	0.879
2.5559	0.887
2.58982	0.899
2.62375	0.903
2.65768	0.909
2.6916	0.909
2.72553	0.909
2.75946	0.901
2.79338	0.862
2.82731	0.799
2.86124	0.736
2.89516	0.7
2.92909	0.685
2.96301	0.702
2.99694	0.744
3.03087	0.76
3.06479	0.695
3.09872	0.522
3.13265	0.52
3.16657	0.386
3.2005	0.333
3.23443	0.236
3.26835	0.141
3.30228	0.154
3.33621	0.175
3.37013	0.227
3.40406	0.221
3.43799	0.231
3.47191	0.204
3.50584	0.168
3.53976	0.156
3.57369	0.146
3.60762	0.141
3.64154	0.146
3.67547	0.154
3.7094	0.17
3.74332	0.178
3.77725	0.197
3.81118	0.232
3.8451	0.292
3.87903	0.345
3.91296	0.413
3.94688	0.498
3.98081	0.581
4.01474	0.634
4.04866	0.693
4.08259	0.732
4.11651	0.767
4.15044	0.809
4.18437	0.846
4.21829	0.858
4.25222	0.869
4.28615	0.879
4.32007	0.894
4.354	0.909
4.38793	0.916
4.42185	0.92
4.45578	0.911
4.48971	0.918
4.52363	0.923
4.55756	0.921
4.59149	0.914
4.62541	0.914
4.65934	0.913
4.69326	0.903
4.72719	0.896
4.76112	0.874
4.79504	0.848
4.82897	0.824
4.8629	0.809
4.89682	0.802
4.93075	0.812
4.96468	0.841
4.9986	0.86
5.03253	0.862
5.06646	0.85
5.10038	0.824
5.13431	0.812
5.16824	0.816
5.20216	0.826
5.23609	0.84
5.27001	0.853
5.30394	0.862
5.33787	0.874
5.37179	0.894
5.40572	0.903
5.43965	0.908
5.47357	0.911
5.5075	0.918
5.54143	0.921
5.57535	0.923
5.60928	0.93
5.64321	0.933
5.67713	0.937
5.71106	0.938
5.74499	0.935
5.77891	0.926
5.81284	0.928
5.84676	0.926
5.88069	0.926
5.91462	0.925
5.94854	0.95
5.98247	0.93
6.0164	0.88
6.05032	0.792
6.08425	0.571
6.11818	0.35
6.1521	0.522
6.18603	0.323
6.21996	0.132
6.25388	0.404
6.28781	0.795
6.32174	0.855
6.35566	0.882
6.38959	0.886
6.42351	0.823
6.45744	0.695
6.49137	0.278
6.52529	0.073
6.55922	0.328
6.59315	0.557
6.62707	0.704
6.661	0.75
6.69493	0.559
6.72885	0.124
6.76278	0.374
6.79671	0.69
6.83063	0.78
6.86456	0.811
6.89849	0.826
6.93241	0.826
6.96634	0.826
7.00026	0.846
7.03419	0.874
7.06812	0.892
7.10204	0.901
7.13597	0.897
7.1699	0.865
7.20382	0.841
7.23775	0.802
7.27168	0.768
7.3056	0.797
7.33953	0.852
7.37346	0.875
7.40738	0.87
7.44131	0.797
7.47524	0.702
7.50916	0.681
7.54309	0.731
7.57701	0.773
7.61094	0.79
7.64487	0.801
7.67879	0.819
7.71272	0.829
7.74665	0.833
7.78057	0.828
7.8145	0.812
7.84843	0.804
7.88235	0.804
7.91628	0.78
7.95021	0.724
7.98413	0.517
8.01806	0.486
8.05199	0.503
8.08591	0.556
8.11984	0.7
8.15376	0.777
8.18769	0.811
8.22162	0.829
8.25554	0.841
8.28947	0.828
8.3234	0.755
8.35732	0.656
8.39125	0.62
8.42518	0.651
8.4591	0.726
8.49303	0.775
8.52696	0.782
8.56088	0.758
8.59481	0.732
8.62874	0.717
8.66266	0.715
8.69659	0.734
8.73051	0.795
8.76444	0.848
8.79837	0.88
8.83229	0.901
8.86622	0.911
8.90015	0.916
8.93407	0.92
8.968	0.92
9.00193	0.913
9.03585	0.901
9.06978	0.884
9.10371	0.869
9.13763	0.86
9.17156	0.855
9.20549	0.855
9.23941	0.853
9.27334	0.85
9.30726	0.843
9.34119	0.828
9.37512	0.765
9.40904	0.661
9.44297	0.462
9.4769	0.413
9.51082	0.561
9.54475	0.644
9.57868	0.702
9.6126	0.71
9.64653	0.681
9.68046	0.651
9.71438	0.651
9.74831	0.69
9.78224	0.707
9.81616	0.693
9.85009	0.671
9.88401	0.664
9.91794	0.647
9.95187	0.571
9.98579	0.517
10.0197	0.501
10.0536	0.525
10.0876	0.576
10.1215	0.661
10.1554	0.715
10.1894	0.77
10.2233	0.814
10.2572	0.835
10.2911	0.858
10.3251	0.872
10.359	0.884
10.3929	0.891
10.4268	0.899
10.4608	0.901
10.4947	0.901
10.5286	0.901
10.5625	0.899
10.5965	0.896
10.6304	0.889
10.6643	0.877
10.6982	0.853
10.7322	0.833
10.7661	0.802
10.8	0.775
10.834	0.751
10.8679	0.734
10.9018	0.721
10.9357	0.705
10.9697	0.702
11.0036	0.7
11.0375	0.704
11.0714	0.721
11.1054	0.732
11.1393	0.75
11.1732	0.763
11.2071	0.775
11.2411	0.78
11.275	0.782
11.3089	0.782
11.3429	0.785
11.3768	0.797
11.4107	0.812
11.4446	0.829
11.4786	0.85
11.5125	0.858
11.5464	0.869
11.5803	0.879
11.6143	0.889
11.6482	0.899
11.6821	0.903
11.716	0.903
11.75	0.906
11.7839	0.909
11.8178	0.909
11.8518	0.909
11.8857	0.913
11.9196	0.918
11.9535	0.921
11.9875	0.921
12.0214	0.921
12.0553	0.923
12.0892	0.926
12.1232	0.925
12.1571	0.925
12.191	0.926
12.2249	0.926
12.2589	0.926
12.2928	0.926
12.3267	0.926
12.3606	0.926
12.3946	0.923
12.4285	0.916
12.4624	0.911
12.4964	0.908
12.5303	0.901
12.5642	0.894
12.5981	0.891
12.6321	0.886
12.666	0.882
12.6999	0.88
12.7338	0.872
12.7678	0.867
12.8017	0.86
12.8356	0.853
12.8695	0.836
12.9035	0.801
12.9374	0.76
12.9713	0.714
13.0053	0.668
13.0392	0.477
13.0731	0.261
13.107	0.161
13.141	0.069
13.1749	0.02
13.2088	0.006
13.2427	0.003
13.2767	0.005
13.3106	0.017
13.3445	0.1
13.3784	0.2
13.4124	0.35
13.4463	0.465
13.4802	0.562
13.5141	0.649
13.5481	0.687
13.582	0.731
13.6159	0.765
13.6499	0.792
13.6838	0.811
13.7177	0.826
13.7516	0.841
13.7856	0.85
13.8195	0.86
13.8534	0.865
13.8873	0.872
13.9213	0.877
13.9552	0.88
13.9891	0.882
14.023	0.882
14.057	0.882
14.0909	0.88
14.1248	0.879
14.1587	0.875
14.1927	0.872
14.2266	0.867
14.2605	0.855
14.2945	0.843
14.3284	0.821
14.3623	0.77
14.3962	0.729
14.4302	0.615
14.4641	0.496
14.498	0.312
14.5319	0.158
14.5659	0.098
14.5998	0.068
14.6337	0.054
14.6676	0.051
14.7016	0.052
14.7355	0.079
14.7694	0.207
14.8034	0.355
14.8373	0.455
14.8712	0.559
14.9051	0.612
14.9391	0.642
14.973	0.687
15.0069	0.727
15.0408	0.746
15.0748	0.761
15.1087	0.767
15.1426	0.77
15.1765	0.772
15.2105	0.773
15.2444	0.773
15.2783	0.773
15.3123	0.778
15.3462	0.782
15.3801	0.784
15.414	0.785
