Infrared Spectrum: 1,1'-BIS(Beta,Beta-DIETHOXYETHYL) FERROCENE
Formula: C22 H34 Fe O4
State: LIQUID
Class: COBLENTZ
Instrument: Not specified, most likely a prism, grating, or hybrid spectrometer.
Sampling: TRANSMISSION
Path length: CAPILLARY
Resolution: 4
Origin: WYANDOTTE CHEMICALS CORP., WYANDOTTE, MICHIGAN, USA
MICROMETERS	TRANSMITTANCE
2.007	0.923
2.04784	0.926
2.08867	0.912
2.12951	0.918
2.17034	0.882
2.21118	0.854
2.25201	0.87
2.29285	0.883
2.33368	0.86
2.37452	0.86
2.41535	0.853
2.45619	0.86
2.49702	0.856
2.53786	0.894
2.57869	0.897
2.61953	0.904
2.66036	0.904
2.7012	0.904
2.74203	0.899
2.78287	0.882
2.8237	0.861
2.86454	0.849
2.90537	0.841
2.94621	0.854
2.98704	0.863
3.02788	0.872
3.06871	0.872
3.10955	0.853
3.15038	0.839
3.19122	0.824
3.23205	0.605
3.27289	0.639
3.31372	0.576
3.35456	0.013
3.39539	0.051
3.43623	0.025
3.47706	0.032
3.5179	0.117
3.55873	0.479
3.59957	0.53
3.6404	0.633
3.68124	0.662
3.72207	0.769
3.76291	0.79
3.80374	0.839
3.84458	0.832
3.88541	0.892
3.92625	0.912
3.96708	0.912
4.00792	0.921
4.04875	0.921
4.08959	0.918
4.13042	0.919
4.17126	0.904
4.21209	0.904
4.25293	0.918
4.29376	0.918
4.3346	0.926
4.37543	0.919
4.41627	0.912
4.4571	0.901
4.49794	0.899
4.53877	0.901
4.57961	0.897
4.62044	0.906
4.66128	0.904
4.70211	0.892
4.74295	0.906
4.78378	0.892
4.82462	0.909
4.86545	0.907
4.90629	0.911
4.94712	0.916
4.98796	0.911
5.02879	0.909
5.06963	0.894
5.11046	0.868
5.1513	0.863
5.19213	0.86
5.23297	0.875
5.2738	0.875
5.31464	0.868
5.35547	0.882
5.39631	0.892
5.43714	0.902
5.47798	0.904
5.51881	0.902
5.55965	0.912
5.60048	0.901
5.64132	0.858
5.68215	0.858
5.72299	0.812
5.76382	0.75
5.80466	0.684
5.8455	0.631
5.88633	0.629
5.92717	0.679
5.968	0.704
6.00884	0.696
6.04967	0.663
6.09051	0.67
6.13134	0.706
6.17218	0.715
6.21301	0.783
6.25385	0.837
6.29468	0.86
6.33552	0.858
6.37635	0.882
6.41719	0.861
6.45802	0.87
6.49886	0.853
6.53969	0.861
6.58053	0.849
6.62136	0.815
6.6622	0.769
6.70303	0.616
6.74387	0.351
6.7847	0.349
6.82554	0.366
6.86637	0.295
6.90721	0.182
6.94804	0.233
6.98888	0.32
7.02971	0.481
7.07055	0.477
7.11138	0.375
7.15222	0.291
7.19305	0.194
7.23389	0.172
7.27472	0.097
7.31556	0.127
7.35639	0.279
7.39723	0.179
7.43806	0.088
7.4789	0.156
7.51973	0.448
7.56057	0.576
7.6014	0.592
7.64224	0.552
7.68307	0.452
7.72391	0.37
7.76474	0.325
7.80558	0.343
7.84641	0.44
7.88725	0.501
7.92808	0.556
7.96892	0.561
8.00975	0.445
8.05059	0.431
8.09142	0.455
8.13226	0.332
8.17309	0.279
8.21393	0.383
8.25476	0.395
8.2956	0.332
8.33643	0.204
8.37727	0.134
8.4181	0.129
8.45894	0.201
8.49977	0.206
8.54061	0.139
8.58144	0.104
8.62228	0.069
8.66311	0.059
8.70395	0.046
8.74478	0.035
8.78562	0.013
8.82645	0.013
8.86729	0.013
8.90812	0.011
8.94896	0.003
8.98979	0.011
9.03063	0.006
9.07146	0.013
9.1123	0.029
9.15313	0.03
9.19397	0.023
9.2348	0.02
9.27564	0.013
9.31647	0.013
9.35731	0.006
9.39814	0.005
9.43898	0.006
9.47981	0.006
9.52065	0.003
9.56148	0.008
9.60232	0.011
9.64316	0.017
9.68399	0.02
9.72483	0.017
9.76566	0.015
9.8065	0.011
9.84733	0.018
9.88817	0.017
9.929	0.02
9.96984	0.022
10.0107	0.029
10.0515	0.049
10.0923	0.097
10.1332	0.167
10.174	0.247
10.2148	0.343
10.2557	0.426
10.2965	0.5
10.3374	0.546
10.3782	0.583
10.419	0.607
10.4599	0.634
10.5007	0.646
10.5415	0.658
10.5824	0.663
10.6232	0.67
10.664	0.663
10.7049	0.621
10.7457	0.52
10.7865	0.397
10.8274	0.372
10.8682	0.423
10.909	0.498
10.9499	0.53
10.9907	0.571
11.0315	0.569
11.0724	0.559
11.1132	0.517
11.1541	0.443
11.1949	0.426
11.2357	0.419
11.2766	0.421
11.3174	0.469
11.3582	0.513
11.3991	0.578
11.4399	0.612
11.4807	0.639
11.5216	0.645
11.5624	0.631
11.6032	0.607
11.6441	0.581
11.6849	0.544
11.7257	0.467
11.7666	0.416
11.8074	0.387
11.8482	0.375
11.8891	0.383
11.9299	0.39
11.9708	0.361
12.0116	0.302
12.0524	0.254
12.0933	0.204
12.1341	0.174
12.1749	0.15
12.2158	0.15
12.2566	0.163
12.2974	0.192
12.3383	0.189
12.3791	0.172
12.4199	0.172
12.4608	0.187
12.5016	0.204
12.5424	0.276
12.5833	0.365
12.6241	0.459
12.6649	0.515
12.7058	0.585
12.7466	0.621
12.7875	0.668
12.8283	0.687
12.8691	0.72
12.91	0.726
12.9508	0.745
12.9916	0.749
13.0325	0.75
13.0733	0.762
13.1141	0.774
13.155	0.752
13.1958	0.761
13.2366	0.74
13.2775	0.737
13.3183	0.732
13.3591	0.716
13.4	0.709
13.4408	0.708
13.4817	0.713
13.5225	0.711
13.5633	0.72
13.6042	0.692
13.645	0.703
13.6858	0.679
13.7267	0.66
13.7675	0.667
13.8083	0.675
13.8492	0.686
13.89	0.697
13.9308	0.73
13.9717	0.738
14.0125	0.761
14.0533	0.771
14.0942	0.779
14.135	0.784
14.1758	0.798
14.2167	0.8
14.2575	0.807
14.2984	0.791
14.3392	0.812
14.38	0.802
14.4209	0.788
14.4617	0.793
14.5025	0.781
14.5434	0.774
14.5842	0.773
14.625	0.755
14.6659	0.749
14.7067	0.761
14.7475	0.749
14.7884	0.749
14.8292	0.72
14.87	0.718
14.9109	0.726
14.9517	0.715
14.9925	0.72
15.0334	0.713
15.0742	0.713
15.1151	0.697
15.1559	0.713
15.1967	0.716
15.2376	0.735
15.2784	0.749
15.3192	0.738
15.3601	0.73
15.4009	0.73
15.4417	0.726
15.4826	0.706
15.5234	0.711
15.5642	0.706
15.6051	0.704
15.6459	0.713
15.6867	0.709
15.7276	0.692
15.7684	0.699
15.8092	0.687
15.8501	0.675
15.8909	0.679
15.9318	0.668
15.9726	0.653
