Infrared Spectrum: MAGNESIUM CHROMATE
Formula: Mg Cr O4  * 7 H2 O
State: SOLID (NUJOL MULL)
Class: COBLENTZ
Instrument: Not specified, most likely a prism, grating, or hybrid spectrometer.
Sampling: TRANSMISSION
Resolution: 4
Origin: MELLON INSTITUTE
MICROMETERS	TRANSMITTANCE
2.057	0.644
2.09799	0.667
2.13899	0.691
2.17998	0.715
2.22098	0.732
2.26197	0.744
2.30296	0.753
2.34396	0.761
2.38495	0.773
2.42595	0.797
2.46694	0.816
2.50793	0.835
2.54893	0.85
2.58992	0.861
2.63092	0.876
2.67191	0.9
2.7129	0.89
2.7539	0.838
2.79489	0.574
2.83589	0.289
2.87688	0.207
2.91787	0.161
2.95887	0.121
2.99986	0.106
3.04086	0.101
3.08185	0.097
3.12284	0.102
3.16384	0.123
3.20483	0.156
3.24583	0.19
3.28682	0.224
3.32781	0.197
3.36881	0.06
3.4098	0.037
3.4508	0.111
3.49179	0.099
3.53278	0.449
3.57378	0.636
3.61477	0.674
3.65577	0.699
3.69676	0.722
3.73775	0.737
3.77875	0.749
3.81974	0.765
3.86074	0.775
3.90173	0.79
3.94273	0.802
3.98372	0.813
4.02471	0.825
4.06571	0.83
4.1067	0.831
4.1477	0.831
4.18869	0.821
4.22968	0.802
4.27068	0.794
4.31167	0.782
4.35267	0.773
4.39366	0.771
4.43465	0.773
4.47565	0.778
4.51664	0.787
4.55764	0.802
4.59863	0.816
4.63962	0.83
4.68062	0.837
4.72161	0.845
4.76261	0.854
4.8036	0.861
4.84459	0.866
4.88559	0.874
4.92658	0.883
4.96758	0.89
5.00857	0.893
5.04956	0.905
5.09056	0.909
5.13155	0.914
5.17255	0.919
5.21354	0.924
5.25453	0.929
5.29553	0.933
5.33652	0.934
5.37752	0.936
5.41851	0.939
5.4595	0.941
5.5005	0.941
5.54149	0.945
5.58249	0.95
5.62348	0.951
5.66447	0.951
5.70547	0.953
5.74646	0.953
5.78746	0.955
5.82845	0.955
5.86944	0.951
5.91044	0.936
5.95143	0.91
5.99243	0.855
6.03342	0.615
6.07441	0.48
6.11541	0.463
6.1564	0.399
6.1974	0.497
6.23839	0.679
6.27938	0.773
6.32038	0.806
6.36137	0.828
6.40237	0.845
6.44336	0.855
6.48435	0.866
6.52535	0.876
6.56634	0.881
6.60734	0.886
6.64833	0.895
6.68932	0.895
6.73032	0.876
6.77131	0.809
6.81231	0.617
6.8533	0.452
6.89429	0.466
6.93529	0.595
6.97628	0.758
7.01728	0.828
7.05827	0.849
7.09926	0.876
7.14026	0.891
7.18125	0.886
7.22225	0.771
7.26324	0.639
7.30423	0.694
7.34523	0.795
7.38622	0.83
7.42722	0.84
7.46821	0.845
7.5092	0.862
7.5502	0.876
7.59119	0.885
7.63219	0.885
7.67318	0.881
7.71418	0.878
7.75517	0.879
7.79616	0.881
7.83716	0.885
7.87815	0.885
7.91915	0.888
7.96014	0.888
8.00113	0.888
8.04213	0.888
8.08312	0.888
8.12412	0.89
8.16511	0.888
8.2061	0.89
8.2471	0.891
8.28809	0.89
8.32909	0.89
8.37008	0.888
8.41107	0.888
8.45207	0.886
8.49306	0.885
8.53406	0.881
8.57505	0.878
8.61604	0.874
8.65704	0.869
8.69803	0.867
8.73903	0.866
8.78002	0.861
8.82101	0.857
8.86201	0.857
8.903	0.854
8.944	0.854
8.98499	0.852
9.02598	0.852
9.06698	0.85
9.10797	0.847
9.14897	0.85
9.18996	0.85
9.23095	0.85
9.27195	0.85
9.31294	0.849
9.35394	0.849
9.39493	0.849
9.43592	0.845
9.47692	0.843
9.51791	0.842
9.55891	0.838
9.5999	0.838
9.64089	0.835
9.68189	0.833
9.72288	0.83
9.76388	0.831
9.80487	0.826
9.84586	0.823
9.88686	0.821
9.92785	0.814
9.96885	0.811
10.0098	0.806
10.0508	0.801
10.0918	0.79
10.1328	0.771
10.1738	0.725
10.2148	0.698
10.2558	0.646
10.2968	0.6
10.3378	0.564
10.3788	0.543
10.4198	0.518
10.4608	0.499
10.5018	0.476
10.5428	0.454
10.5838	0.44
10.6248	0.423
10.6657	0.403
10.7067	0.391
10.7477	0.372
10.7887	0.343
10.8297	0.303
10.8707	0.265
10.9117	0.234
10.9527	0.209
10.9937	0.188
11.0347	0.169
11.0757	0.154
11.1167	0.144
11.1577	0.132
11.1987	0.126
11.2397	0.123
11.2807	0.121
11.3216	0.118
11.3626	0.116
11.4036	0.12
11.4446	0.123
11.4856	0.135
11.5266	0.168
11.5676	0.202
11.6086	0.217
11.6496	0.214
11.6906	0.21
11.7316	0.21
11.7726	0.216
11.8136	0.231
11.8546	0.248
11.8956	0.279
11.9366	0.315
11.9776	0.339
12.0185	0.361
12.0595	0.38
12.1005	0.397
12.1415	0.418
12.1825	0.427
12.2235	0.437
12.2645	0.442
12.3055	0.445
12.3465	0.447
12.3875	0.447
12.4285	0.451
12.4695	0.451
12.5105	0.451
12.5515	0.451
12.5925	0.451
12.6335	0.449
12.6745	0.447
12.7154	0.444
12.7564	0.439
12.7974	0.433
12.8384	0.427
12.8794	0.42
12.9204	0.416
12.9614	0.416
13.0024	0.411
13.0434	0.409
13.0844	0.406
13.1254	0.406
13.1664	0.404
13.2074	0.403
13.2484	0.403
13.2894	0.403
13.3304	0.403
13.3714	0.403
13.4123	0.404
13.4533	0.408
13.4943	0.408
13.5353	0.408
13.5763	0.408
13.6173	0.408
13.6583	0.404
13.6993	0.401
13.7403	0.394
13.7813	0.389
13.8223	0.379
13.8633	0.373
13.9043	0.37
13.9453	0.365
13.9863	0.36
14.0273	0.356
14.0682	0.349
14.1092	0.348
14.1502	0.344
14.1912	0.341
14.2322	0.339
14.2732	0.339
14.3142	0.337
14.3552	0.337
14.3962	0.337
14.4372	0.337
14.4782	0.336
14.5192	0.337
14.5602	0.339
14.6012	0.341
14.6422	0.344
14.6832	0.348
14.7242	0.351
14.7651	0.353
14.8061	0.358
14.8471	0.363
14.8881	0.365
14.9291	0.367
14.9701	0.37
15.0111	0.37
15.0521	0.373
15.0931	0.373
15.1341	0.372
15.1751	0.373
15.2161	0.373
15.2571	0.373
15.2981	0.375
15.3391	0.377
15.3801	0.379
15.4211	0.379
15.462	0.38
15.503	0.38
15.544	0.382
15.585	0.384
15.626	0.384
15.667	0.384
15.708	0.385
15.749	0.387
15.79	0.389
15.831	0.391
15.872	0.396
15.913	0.396
15.954	0.399
15.995	0.401
