Infrared Spectrum: POTASSIUM BROMATE
Formula: K Br O3
State: SOLID (NUJOL MULL)
Class: COBLENTZ
Instrument: Not specified, most likely a prism, grating, or hybrid spectrometer.
Sampling: TRANSMISSION
Resolution: 4
Origin: MELLON INSTITUTE
MICROMETERS	TRANSMITTANCE
2.025	0.761
2.06592	0.761
2.10684	0.762
2.14775	0.762
2.18867	0.766
2.22959	0.768
2.27051	0.769
2.31142	0.769
2.35234	0.771
2.39326	0.769
2.43418	0.769
2.4751	0.769
2.51601	0.769
2.55693	0.771
2.59785	0.771
2.63877	0.771
2.67968	0.769
2.7206	0.768
2.76152	0.768
2.80244	0.766
2.84336	0.762
2.88427	0.761
2.92519	0.759
2.96611	0.754
3.00703	0.756
3.04794	0.761
3.08886	0.764
3.12978	0.769
3.1707	0.774
3.21162	0.783
3.25253	0.788
3.29345	0.768
3.33437	0.494
3.37529	0.335
3.4162	0.493
3.45712	0.477
3.49804	0.69
3.53896	0.812
3.57988	0.84
3.62079	0.848
3.66171	0.852
3.70263	0.853
3.74355	0.855
3.78446	0.857
3.82538	0.857
3.8663	0.86
3.90722	0.862
3.94814	0.862
3.98905	0.864
4.02997	0.864
4.07089	0.864
4.11181	0.862
4.15272	0.859
4.19364	0.857
4.23456	0.857
4.27548	0.855
4.3164	0.855
4.35731	0.855
4.39823	0.855
4.43915	0.855
4.48007	0.855
4.52098	0.855
4.5619	0.855
4.60282	0.859
4.64374	0.859
4.68466	0.86
4.72557	0.859
4.76649	0.862
4.80741	0.86
4.84833	0.859
4.88924	0.859
4.93016	0.859
4.97108	0.859
5.012	0.859
5.05292	0.86
5.09383	0.862
5.13475	0.864
5.17567	0.865
5.21659	0.869
5.2575	0.871
5.29842	0.872
5.33934	0.874
5.38026	0.874
5.42118	0.878
5.46209	0.881
5.50301	0.883
5.54393	0.884
5.58485	0.888
5.62576	0.891
5.66668	0.893
5.7076	0.896
5.74852	0.898
5.78944	0.902
5.83035	0.903
5.87127	0.902
5.91219	0.902
5.95311	0.9
5.99402	0.898
6.03494	0.895
6.07586	0.891
6.11678	0.89
6.1577	0.89
6.19861	0.891
6.23953	0.891
6.28045	0.895
6.32137	0.9
6.36228	0.903
6.4032	0.905
6.44412	0.907
6.48504	0.91
6.52596	0.91
6.56687	0.91
6.60779	0.91
6.64871	0.91
6.68963	0.907
6.73054	0.886
6.77146	0.793
6.81238	0.74
6.8533	0.771
6.89422	0.816
6.93513	0.867
6.97605	0.896
7.01697	0.91
7.05789	0.915
7.0988	0.919
7.13972	0.905
7.18064	0.865
7.22156	0.84
7.26248	0.872
7.30339	0.895
7.34431	0.902
7.38523	0.905
7.42615	0.907
7.46706	0.91
7.50798	0.912
7.5489	0.914
7.58982	0.915
7.63073	0.917
7.67165	0.917
7.71257	0.919
7.75349	0.919
7.79441	0.919
7.83532	0.919
7.87624	0.919
7.91716	0.92
7.95808	0.92
7.99899	0.92
8.03991	0.92
8.08083	0.92
8.12175	0.92
8.16267	0.92
8.20358	0.922
8.2445	0.92
8.28542	0.92
8.32634	0.919
8.36725	0.919
8.40817	0.919
8.44909	0.919
8.49001	0.919
8.53093	0.919
8.57184	0.919
8.61276	0.919
8.65368	0.919
8.6946	0.917
8.73551	0.915
8.77643	0.917
8.81735	0.915
8.85827	0.915
8.89919	0.914
8.9401	0.914
8.98102	0.914
9.02194	0.914
9.06286	0.915
9.10377	0.917
9.14469	0.92
9.18561	0.924
9.22653	0.924
9.26745	0.926
9.30836	0.929
9.34928	0.931
9.3902	0.932
9.43112	0.932
9.47203	0.934
9.51295	0.936
9.55387	0.938
9.59479	0.938
9.63571	0.938
9.67662	0.939
9.71754	0.939
9.75846	0.939
9.79938	0.941
9.84029	0.941
9.88121	0.943
9.92213	0.943
9.96305	0.943
10.004	0.945
10.0449	0.945
10.0858	0.943
10.1267	0.943
10.1676	0.943
10.2086	0.945
10.2495	0.945
10.2904	0.946
10.3313	0.948
10.3722	0.946
10.4131	0.946
10.4541	0.946
10.495	0.945
10.5359	0.941
10.5768	0.941
10.6177	0.939
10.6587	0.939
10.6996	0.938
10.7405	0.936
10.7814	0.936
10.8223	0.936
10.8632	0.936
10.9042	0.934
10.9451	0.934
10.986	0.932
11.0269	0.934
11.0678	0.931
11.1087	0.931
11.1497	0.929
11.1906	0.929
11.2315	0.926
11.2724	0.926
11.3133	0.926
11.3543	0.926
11.3952	0.924
11.4361	0.924
11.477	0.922
11.5179	0.92
11.5588	0.917
11.5998	0.915
11.6407	0.915
11.6816	0.912
11.7225	0.905
11.7634	0.898
11.8043	0.886
11.8453	0.872
11.8862	0.852
11.9271	0.823
11.968	0.78
12.0089	0.718
12.0499	0.647
12.0908	0.565
12.1317	0.498
12.1726	0.429
12.2135	0.35
12.2544	0.3
12.2954	0.269
12.3363	0.242
12.3772	0.219
12.4181	0.19
12.459	0.151
12.5	0.128
12.5409	0.108
12.5818	0.099
12.6227	0.097
12.6636	0.097
12.7045	0.099
12.7455	0.103
12.7864	0.125
12.8273	0.256
12.8682	0.379
12.9091	0.494
12.95	0.575
12.991	0.621
13.0319	0.663
13.0728	0.685
13.1137	0.702
13.1546	0.719
13.1956	0.733
13.2365	0.752
13.2774	0.762
13.3183	0.769
13.3592	0.771
13.4001	0.773
13.4411	0.776
13.482	0.776
13.5229	0.776
13.5638	0.776
13.6047	0.776
13.6456	0.774
13.6866	0.774
13.7275	0.774
13.7684	0.773
13.8093	0.771
13.8502	0.769
13.8912	0.768
13.9321	0.766
13.973	0.764
14.0139	0.764
14.0548	0.762
14.0957	0.762
14.1367	0.756
14.1776	0.754
14.2185	0.752
14.2594	0.749
14.3003	0.743
14.3412	0.738
14.3822	0.733
14.4231	0.728
14.464	0.723
14.5049	0.716
14.5458	0.711
14.5868	0.707
14.6277	0.704
14.6686	0.699
14.7095	0.694
14.7504	0.692
14.7913	0.687
14.8323	0.685
14.8732	0.683
14.9141	0.68
14.955	0.676
14.9959	0.675
15.0369	0.673
15.0778	0.671
15.1187	0.67
15.1596	0.668
15.2005	0.666
15.2414	0.664
15.2824	0.664
15.3233	0.664
15.3642	0.664
15.4051	0.664
15.446	0.664
15.4869	0.664
15.5279	0.666
15.5688	0.666
15.6097	0.666
15.6506	0.671
15.6915	0.675
15.7325	0.678
15.7734	0.682
15.8143	0.689
15.8552	0.694
15.8961	0.701
15.937	0.704
15.978	0.714
