Infrared Spectrum: PROPANE, 1,3-DI-4-PYRIDINYL-, HYDROCHLORIDE
Formula: C13 H15 Cl N2
State: SOLID (KBr DISC, 0.8% WT.)
Class: COBLENTZ III
Instrument: PERKIN-ELMER 157
Sampling: TRANSMISSION
Resolution: 2
Origin: BRITISH PETROLEUM CO. LTD., ENGLAND
1/CM	TRANSMITTANCE
667	0.6463
676	0.6463
685	0.6463
694	0.6471
703	0.6475
712	0.6442
721	0.6304
730	0.568
739	0.5997
748	0.5659
757	0.6007
766	0.5784
775	0.4829
784	0.2656
793	0.0279
802	0.086
811	0.4339
820	0.2684
829	0.5666
838	0.6623
847	0.4834
856	0.5846
865	0.6783
874	0.7252
883	0.7255
892	0.7112
901	0.7064
910	0.6948
919	0.6742
928	0.6233
937	0.6131
946	0.6453
955	0.6389
964	0.6292
973	0.6071
982	0.5059
991	0.5616
1000	0.5169
1009	0.4052
1018	0.4643
1027	0.5225
1036	0.5553
1045	0.542
1054	0.4716
1063	0.5552
1072	0.4166
1081	0.5284
1090	0.5286
1099	0.3831
1108	0.5486
1117	0.5473
1126	0.5441
1135	0.5373
1144	0.5349
1153	0.5207
1162	0.5098
1171	0.5061
1180	0.4774
1189	0.3184
1198	0.2502
1207	0.4991
1216	0.5056
1225	0.3397
1234	0.4176
1243	0.4382
1252	0.4359
1261	0.5091
1270	0.598
1279	0.5955
1288	0.5722
1297	0.5443
1306	0.4385
1315	0.3214
1324	0.4747
1333	0.4883
1342	0.3386
1351	0.3309
1360	0.5033
1369	0.5384
1378	0.5733
1387	0.5985
1396	0.5974
1405	0.5966
1414	0.5957
1423	0.5812
1432	0.5506
1441	0.478
1450	0.408
1459	0.4883
1468	0.4659
1477	0.4178
1486	0.1115
1495	0.0684
1504	0.0843
1513	0.2641
1522	0.6018
1531	0.6143
1540	0.5994
1549	0.554
1558	0.5412
1567	0.4965
1576	0.4416
1585	0.3149
1594	0.1174
1603	0.0733
1612	0.2629
1621	0.1469
1630	0.0431
1639	0.1662
1648	0.347
1657	0.4215
1666	0.4705
1675	0.5
1684	0.5103
1693	0.5071
1702	0.4966
1711	0.4956
1720	0.4956
1729	0.5043
1738	0.5149
1747	0.5281
1756	0.5489
1765	0.5636
1774	0.5654
1783	0.5664
1792	0.5672
1801	0.5678
1810	0.5723
1819	0.5694
1828	0.5547
1837	0.5318
1846	0.5288
1855	0.5327
1864	0.5488
1873	0.5845
1882	0.5866
1891	0.5794
1900	0.5674
1909	0.5427
1918	0.5138
1927	0.4966
1936	0.5047
1945	0.5307
1954	0.5566
1963	0.5605
1972	0.5545
1981	0.5422
1990	0.5236
1999	0.4995
2008	0.4738
2017	0.4771
2026	0.5088
2035	0.5239
2044	0.5284
2053	0.5333
2062	0.5376
2071	0.539
2080	0.5398
2089	0.5402
2098	0.5407
2107	0.5411
2116	0.5413
2125	0.5415
2134	0.5416
2143	0.5416
2152	0.5415
2161	0.5412
2170	0.5404
2179	0.538
2188	0.5338
2197	0.5299
2206	0.5275
2215	0.5259
2224	0.5208
2233	0.5189
2242	0.5181
2251	0.5174
2260	0.517
2269	0.5148
2278	0.5094
2287	0.5025
2296	0.4943
2305	0.4864
2314	0.4805
2323	0.4761
2332	0.4711
2341	0.4653
2350	0.4599
2359	0.458
2368	0.4561
2377	0.4549
2386	0.452
2395	0.4454
2404	0.4364
2413	0.4279
2422	0.4203
2431	0.4119
2440	0.4015
2449	0.3911
2458	0.3776
2467	0.3638
2476	0.3502
2485	0.3368
2494	0.3239
2503	0.3039
2512	0.284
2521	0.2669
2530	0.2497
2539	0.2343
2548	0.2223
2557	0.2093
2566	0.1941
2575	0.1792
2584	0.1669
2593	0.1529
2602	0.1407
2611	0.1302
2620	0.1202
2629	0.1103
2638	0.0992
2647	0.0886
2656	0.0789
2665	0.0704
2674	0.0632
2683	0.058
2692	0.0535
2701	0.0491
2710	0.0454
2719	0.0419
2728	0.0399
2737	0.038
2746	0.0363
2755	0.0348
2764	0.0339
2773	0.0346
2782	0.0356
2791	0.0366
2800	0.0392
2809	0.0407
2818	0.0403
2827	0.0399
2836	0.0399
2845	0.0413
2854	0.0439
2863	0.0478
2872	0.05
2881	0.0512
2890	0.0517
2899	0.0523
2908	0.0525
2917	0.0527
2926	0.0529
2935	0.0533
2944	0.0538
2953	0.0547
2962	0.056
2971	0.0588
2980	0.061
2989	0.0621
2998	0.0624
3007	0.0623
3016	0.0623
3025	0.063
3034	0.0684
3043	0.0809
3052	0.0974
3061	0.1073
3070	0.1157
3079	0.1166
3088	0.1165
3097	0.118
3106	0.1214
3115	0.1296
3124	0.1335
3133	0.1343
3142	0.1325
3151	0.1243
3160	0.1038
3169	0.0958
3178	0.0936
3187	0.0937
3196	0.0939
3205	0.0941
3214	0.0942
3223	0.094
3232	0.0937
3241	0.0919
3250	0.0882
3259	0.0839
3268	0.079
3277	0.0744
3286	0.0705
3295	0.0666
3304	0.0633
3313	0.0605
3322	0.0594
3331	0.0591
3340	0.0591
3349	0.0591
3358	0.0591
3367	0.0591
3376	0.0591
3385	0.059
3394	0.0589
3403	0.0588
3412	0.0589
3421	0.0593
3430	0.0597
3439	0.0611
3448	0.0666
3457	0.074
3466	0.0844
3475	0.0971
3484	0.1105
3493	0.1411
3502	0.1757
3511	0.2101
3520	0.2445
3529	0.2786
3538	0.3125
3547	0.3463
3556	0.3799
3565	0.4133
3574	0.4465
3583	0.4725
3592	0.4934
3601	0.5023
3610	0.5112
3619	0.5209
3628	0.5357
3637	0.5407
3646	0.5421
3655	0.5429
3664	0.5432
3673	0.5433
3682	0.543
3691	0.542
3700	0.5363
3709	0.53
3718	0.5256
3727	0.521
3736	0.5195
3745	0.519
3754	0.5185
3763	0.5182
3772	0.518
3781	0.517
3790	0.5139
3799	0.509
3808	0.5045
3817	0.5006
3826	0.4957
3835	0.4903
3844	0.4847
3853	0.4805
3862	0.4769
3871	0.4739
3880	0.4709
3889	0.468
3898	0.4652
3907	0.4627
3916	0.4605
3925	0.4585
3934	0.4575
3943	0.4566
3952	0.4558
3961	0.4547
3970	0.4515
3979	0.4481
3988	0.4447
3997	0.4415
