Infrared Spectrum: 1,4-BUTANEDIAMINE DIHYDROCHLORIDE
Formula: C4 H12 N2  * 2 H Cl
State: SOLID (MINERAL OIL MULL)
Class: COBLENTZ
Instrument: Not specified, most likely a prism, grating, or hybrid spectrometer.
Sampling: TRANSMISSION
Resolution: 4
Origin: WYANDOTTE CHEMICALS CORP., WYANDOTTE, MICHIGAN, USA
MICROMETERS	TRANSMITTANCE
2.019	0.51
2.05623	0.498
2.09346	0.481
2.1307	0.495
2.16793	0.495
2.20516	0.489
2.24239	0.484
2.27962	0.493
2.31686	0.509
2.35409	0.529
2.39132	0.559
2.42855	0.58
2.46578	0.594
2.50302	0.614
2.54025	0.635
2.57748	0.67
2.61471	0.698
2.65194	0.734
2.68918	0.759
2.72641	0.784
2.76364	0.801
2.80087	0.827
2.8381	0.849
2.87534	0.866
2.91257	0.877
2.9498	0.897
2.98703	0.925
3.02426	0.937
3.06149	0.77
3.09873	0.271
3.13596	0.116
3.17319	0.074
3.21042	0.04
3.24765	0.026
3.28489	0.029
3.32212	0.024
3.35935	0.018
3.39658	0.027
3.43381	0.031
3.47105	0.024
3.50828	0.027
3.54551	0.026
3.58274	0.038
3.61997	0.048
3.65721	0.068
3.69444	0.068
3.73167	0.099
3.7689	0.128
3.80613	0.118
3.84337	0.155
3.8806	0.189
3.91783	0.156
3.95506	0.175
3.99229	0.236
4.02953	0.271
4.06676	0.26
4.10399	0.301
4.14122	0.333
4.17845	0.305
4.21569	0.271
4.25292	0.333
4.29015	0.369
4.32738	0.406
4.36461	0.448
4.40185	0.498
4.43908	0.513
4.47631	0.523
4.51354	0.537
4.55077	0.546
4.58801	0.569
4.62524	0.593
4.66247	0.621
4.6997	0.641
4.73693	0.652
4.77416	0.639
4.8114	0.631
4.84863	0.555
4.88586	0.459
4.92309	0.386
4.96032	0.25
4.99756	0.169
5.03479	0.271
5.07202	0.36
5.10925	0.47
5.14648	0.565
5.18372	0.594
5.22095	0.63
5.25818	0.645
5.29541	0.67
5.33264	0.684
5.36988	0.68
5.40711	0.715
5.44434	0.695
5.48157	0.706
5.5188	0.737
5.55604	0.723
5.59327	0.711
5.6305	0.687
5.66773	0.704
5.70496	0.717
5.7422	0.711
5.77943	0.72
5.81666	0.739
5.85389	0.74
5.89112	0.787
5.92836	0.753
5.96559	0.757
6.00282	0.767
6.04005	0.776
6.07728	0.782
6.11452	0.753
6.15175	0.416
6.18898	0.43
6.22621	0.395
6.26344	0.63
6.30068	0.677
6.33791	0.708
6.37514	0.72
6.41237	0.788
6.4496	0.77
6.48683	0.802
6.52407	0.793
6.5613	0.809
6.59853	0.765
6.63576	0.675
6.67299	0.506
6.71023	0.164
6.74746	0.055
6.78469	0.023
6.82192	0.045
6.85915	0.035
6.89639	0.026
6.93362	0.034
6.97085	0.083
7.00808	0.173
7.04531	0.187
7.08255	0.127
7.11978	0.108
7.15701	0.18
7.19424	0.18
7.23147	0.116
7.26871	0.17
7.30594	0.256
7.34317	0.388
7.3804	0.381
7.41763	0.293
7.45487	0.4
7.4921	0.517
7.52933	0.569
7.56656	0.576
7.60379	0.597
7.64103	0.591
7.67826	0.524
7.71549	0.363
7.75272	0.071
7.78995	0.041
7.82719	0.118
7.86442	0.29
7.90165	0.42
7.93888	0.498
7.97611	0.554
8.01335	0.6
8.05058	0.628
8.08781	0.658
8.12504	0.683
8.16227	0.7
8.1995	0.701
8.23674	0.712
8.27397	0.725
8.3112	0.743
8.34843	0.77
8.38566	0.787
8.4229	0.791
8.46013	0.785
8.49736	0.751
8.53459	0.717
8.57182	0.751
8.60906	0.77
8.64629	0.759
8.68352	0.76
8.72075	0.76
8.75798	0.706
8.79522	0.596
8.83245	0.43
8.86968	0.194
8.90691	0.054
8.94414	0.032
8.98138	0.062
9.01861	0.149
9.05584	0.245
9.09307	0.315
9.1303	0.371
9.16754	0.427
9.20477	0.467
9.242	0.506
9.27923	0.54
9.31646	0.572
9.3537	0.599
9.39093	0.625
9.42816	0.642
9.46539	0.645
9.50262	0.614
9.53986	0.554
9.57709	0.445
9.61432	0.206
9.65155	0.127
9.68878	0.164
9.72602	0.104
9.76325	0.135
9.80048	0.318
9.83771	0.453
9.87494	0.552
9.91217	0.613
9.94941	0.664
9.98664	0.706
10.0239	0.737
10.0611	0.75
10.0983	0.767
10.1356	0.781
10.1728	0.795
10.21	0.804
10.2473	0.815
10.2845	0.819
10.3217	0.83
10.359	0.85
10.3962	0.874
10.4334	0.878
10.4707	0.892
10.5079	0.903
10.5451	0.911
10.5824	0.922
10.6196	0.925
10.6568	0.925
10.694	0.917
10.7313	0.889
10.7685	0.788
10.8057	0.5
10.843	0.194
10.8802	0.082
10.9174	0.212
10.9547	0.38
10.9919	0.524
11.0291	0.605
11.0664	0.652
11.1036	0.675
11.1408	0.68
11.1781	0.669
11.2153	0.628
11.2525	0.56
11.2898	0.486
11.327	0.372
11.3642	0.214
11.4015	0.096
11.4387	0.051
11.4759	0.046
11.5131	0.079
11.5504	0.138
11.5876	0.234
11.6248	0.33
11.6621	0.428
11.6993	0.495
11.7365	0.565
11.7738	0.599
11.811	0.639
11.8482	0.67
11.8855	0.698
11.9227	0.728
11.9599	0.753
11.9972	0.768
12.0344	0.795
12.0716	0.813
12.1089	0.822
12.1461	0.835
12.1833	0.863
12.2206	0.874
12.2578	0.891
12.295	0.911
12.3323	0.925
12.3695	0.931
12.4067	0.937
12.4439	0.944
12.4812	0.954
12.5184	0.967
12.5556	0.976
12.5929	0.987
12.6301	0.99
12.6673	0.993
12.7046	0.99
12.7418	0.989
12.779	0.979
12.8163	0.954
12.8535	0.905
12.8907	0.801
12.928	0.627
12.9652	0.451
13.0024	0.214
13.0397	0.158
13.0769	0.225
13.1141	0.369
13.1514	0.495
13.1886	0.611
13.2258	0.684
13.2631	0.737
13.3003	0.779
13.3375	0.809
13.3747	0.829
13.412	0.843
13.4492	0.849
13.4864	0.85
13.5237	0.843
13.5609	0.836
13.5981	0.84
13.6354	0.846
13.6726	0.847
13.7098	0.847
13.7471	0.847
13.7843	0.84
13.8215	0.832
13.8588	0.826
13.896	0.84
13.9332	0.878
13.9705	0.93
14.0077	0.956
14.0449	0.99
14.0822	0.996
14.1194	1.003
14.1566	1.006
14.1939	1.003
14.2311	1.006
14.2683	1.009
14.3055	1.009
14.3428	1.009
14.38	1.009
14.4172	1.009
14.4545	1.006
14.4917	1.004
14.5289	1.004
14.5662	1
14.6034	1
14.6406	0.998
14.6779	0.998
14.7151	0.993
14.7523	0.984
14.7896	0.981
14.8268	0.976
14.864	0.968
14.9013	0.967
14.9385	0.964
14.9757	0.931
15.013	0.869
15.0502	0.809
15.0874	0.784
15.1246	0.809
15.1619	0.847
15.1991	0.86
15.2363	0.875
15.2736	0.86
15.3108	0.858
15.348	0.836
15.3853	0.826
15.4225	0.816
15.4597	0.791
15.497	0.774
15.5342	0.767
15.5714	0.753
15.6087	0.728
15.6459	0.715
15.6831	0.701
15.7204	0.689
15.7576	0.667
15.7948	0.652
15.8321	0.642
15.8693	0.625
15.9065	0.608
15.9438	0.596
15.981	0.574
