Infrared Spectrum: 1,3-CYCLOHEXANEDIONE, 5,5-DIMETHYL-2-(4'-CARBOMETHOXYBUTYRO)-
Formula: C14 H20 O5
State: LIQUID (NEAT)
Class: COBLENTZ III
Instrument: PERKIN-ELMER 21 (GRATING)
Instrument parameters: FILTER CHANGE ABOUT 1075 CM^-^1
Sampling: TRANSMISSION
Path length: CAPILLARY
Resolution: 2
Origin: SOUTHERN RESEARCH INSTITUTE
1/CM	TRANSMITTANCE
616.714	0.8029
625.749	0.815
634.784	0.8262
643.819	0.8365
652.853	0.8464
661.888	0.8579
670.923	0.8627
679.958	0.8618
688.993	0.8582
698.028	0.8526
707.063	0.847
716.097	0.8411
725.132	0.8306
734.167	0.8134
743.202	0.7952
752.237	0.7872
761.272	0.7795
770.307	0.7726
779.342	0.7659
788.376	0.7554
797.411	0.7459
806.446	0.7388
815.481	0.7341
824.516	0.7316
833.551	0.7299
842.586	0.7291
851.62	0.7154
860.655	0.6877
869.69	0.6796
878.725	0.6846
887.76	0.7157
896.795	0.7376
905.83	0.7266
914.864	0.6992
923.899	0.6846
932.934	0.6899
941.969	0.6511
951.004	0.665
960.039	0.7015
969.074	0.6818
978.108	0.6593
987.143	0.6017
996.178	0.5837
1005.21	0.556
1014.25	0.5307
1023.28	0.5261
1032.32	0.488
1041.35	0.4868
1050.39	0.4969
1059.42	0.5056
1068.46	0.5748
1077.49	0.5977
1086.53	0.634
1095.56	0.6462
1104.6	0.6444
1113.63	0.6182
1122.67	0.5676
1131.7	0.4827
1140.74	0.344
1149.77	0.3513
1158.81	0.3775
1167.84	0.3695
1176.88	0.3858
1185.91	0.3926
1194.95	0.3548
1203.98	0.3559
1213.01	0.3752
1222.05	0.4008
1231.08	0.4056
1240.12	0.4031
1249.15	0.3867
1258.19	0.3836
1267.22	0.4104
1276.26	0.4233
1285.29	0.4257
1294.33	0.4385
1303.36	0.3863
1312.4	0.3664
1321.43	0.4078
1330.47	0.4546
1339.5	0.4969
1348.54	0.4828
1357.57	0.4489
1366.61	0.3615
1375.64	0.3874
1384.68	0.3584
1393.71	0.365
1402.75	0.3068
1411.78	0.2699
1420.82	0.2352
1429.85	0.201
1438.89	0.1967
1447.92	0.2215
1456.96	0.2807
1465.99	0.3016
1475.03	0.3906
1484.06	0.3959
1493.1	0.378
1502.13	0.3419
1511.17	0.3098
1520.2	0.2699
1529.23	0.2246
1538.27	0.1849
1547.3	0.1714
1556.34	0.168
1565.37	0.1753
1574.41	0.1919
1583.44	0.2137
1592.48	0.2381
1601.51	0.2661
1610.55	0.3021
1619.58	0.3371
1628.62	0.346
1637.65	0.3325
1646.69	0.2472
1655.72	0.1432
1664.76	0.156
1673.79	0.3205
1682.83	0.4813
1691.86	0.4858
1700.9	0.4682
1709.93	0.3825
1718.97	0.2486
1728	0.1663
1737.04	0.2042
1746.07	0.3815
1755.11	0.5404
1764.14	0.5951
1773.18	0.6279
1782.21	0.6474
1791.25	0.6607
1800.28	0.6702
1809.32	0.6789
1818.35	0.6862
1827.39	0.6917
1836.42	0.6964
1845.46	0.6997
1854.49	0.7025
1863.52	0.7045
1872.56	0.7061
1881.59	0.7076
1890.63	0.709
1899.66	0.7102
1908.7	0.7114
1917.73	0.7138
1926.77	0.7175
1935.8	0.7219
1944.84	0.723
1953.87	0.7236
1962.91	0.7239
1971.94	0.7243
1980.98	0.7246
1990.01	0.7249
1999.05	0.7252
2008.08	0.7251
2017.12	0.7287
2026.15	0.7344
2035.19	0.7343
2044.22	0.7335
2053.26	0.7343
2062.29	0.7357
2071.33	0.7366
2080.36	0.737
2089.4	0.7386
2098.43	0.742
2107.47	0.746
2116.5	0.749
2125.54	0.7499
2134.57	0.7503
2143.61	0.7508
2152.64	0.7512
2161.68	0.7517
2170.71	0.7515
2179.74	0.7511
2188.78	0.7508
2197.81	0.7523
2206.85	0.754
2215.88	0.7554
2224.92	0.7558
2233.95	0.7548
2242.99	0.7539
2252.02	0.7532
2261.06	0.7531
2270.09	0.7527
2279.13	0.7563
2288.16	0.7643
2297.2	0.7724
2306.23	0.7813
2315.27	0.7838
2324.3	0.7812
2333.34	0.777
2342.37	0.7716
2351.41	0.7657
2360.44	0.7598
2369.48	0.754
2378.51	0.7499
2387.55	0.7494
2396.58	0.7491
2405.62	0.7486
2414.65	0.7481
2423.69	0.7486
2432.72	0.7492
2441.76	0.749
2450.79	0.7487
2459.83	0.7484
2468.86	0.7483
2477.9	0.7482
2486.93	0.7481
2495.97	0.7482
2505	0.7484
2514.03	0.7485
2523.07	0.7472
2532.1	0.7447
2541.14	0.7428
2550.17	0.7417
2559.21	0.7414
2568.24	0.7413
2577.28	0.7411
2586.31	0.741
2595.35	0.7409
2604.38	0.7409
2613.42	0.7409
2622.45	0.7409
2631.49	0.7409
2640.52	0.7406
2649.56	0.7404
2658.59	0.7401
2667.63	0.7393
2676.66	0.7382
2685.7	0.7371
2694.73	0.7362
2703.77	0.7354
2712.8	0.7346
2721.84	0.7338
2730.87	0.7328
2739.91	0.7318
2748.94	0.7295
2757.98	0.7261
2767.01	0.7209
2776.05	0.714
2785.08	0.7068
2794.12	0.6994
2803.15	0.6872
2812.19	0.6644
2821.22	0.6415
2830.26	0.6015
2839.29	0.5605
2848.32	0.5564
2857.36	0.5564
2866.39	0.5551
2875.43	0.5521
2884.46	0.547
2893.5	0.5362
2902.53	0.4815
2911.57	0.4113
2920.6	0.3902
2929.64	0.3909
2938.67	0.4023
2947.71	0.5097
2956.74	0.5876
2965.78	0.6391
2974.81	0.6623
2983.85	0.677
2992.88	0.6884
3001.92	0.6978
3010.95	0.7057
3019.99	0.7136
3029.02	0.7207
3038.06	0.7258
3047.09	0.7274
3056.13	0.7276
3065.16	0.7274
3074.2	0.7275
3083.23	0.7277
3092.27	0.7276
3101.3	0.7271
3110.34	0.7257
3119.37	0.7244
3128.41	0.7235
3137.44	0.7232
3146.48	0.7233
3155.51	0.7247
3164.54	0.7279
3173.58	0.7288
3182.61	0.7261
3191.65	0.7228
3200.68	0.7193
3209.72	0.7177
3218.75	0.7243
3227.79	0.7264
3236.82	0.7226
3245.86	0.7219
3254.89	0.7231
3263.93	0.7199
3272.96	0.7166
3282	0.7172
3291.03	0.7215
3300.07	0.7248
3309.1	0.7277
3318.14	0.7307
3327.17	0.7345
3336.21	0.737
3345.24	0.7387
3354.28	0.7391
3363.31	0.7395
3372.35	0.7399
3381.38	0.7397
3390.42	0.738
3399.45	0.7376
3408.49	0.7372
3417.52	0.7375
3426.56	0.7385
3435.59	0.7394
3444.63	0.7404
3453.66	0.7423
3462.7	0.7453
3471.73	0.7481
3480.77	0.7489
3489.8	0.7483
3498.83	0.7475
3507.87	0.747
3516.9	0.747
3525.94	0.7494
3534.97	0.7556
3544.01	0.7597
3553.04	0.7599
3562.08	0.7601
3571.11	0.7603
3580.15	0.7609
3589.18	0.7614
3598.22	0.7614
3607.25	0.7618
3616.29	0.765
3625.32	0.7687
3634.36	0.7707
3643.39	0.7731
3652.43	0.7752
3661.46	0.7763
3670.5	0.7771
3679.53	0.7777
3688.57	0.7786
3697.6	0.7801
3706.64	0.7807
3715.67	0.7801
3724.71	0.7795
3733.74	0.7784
3742.78	0.7766
3751.81	0.7749
3760.85	0.7754
3769.88	0.7762
3778.92	0.7802
3787.95	0.7827
3796.99	0.7834
3806.02	0.7827
3815.05	0.7818
3824.09	0.7802
3833.12	0.7786
3842.16	0.777
3851.19	0.7754
3860.23	0.7735
3869.26	0.7713
3878.3	0.7692
3887.33	0.7671
3896.37	0.7658
3905.4	0.7649
3914.44	0.7646
3923.47	0.7643
3932.51	0.764
3941.54	0.7637
3950.58	0.7634
3959.61	0.7631
3968.65	0.7628
3977.68	0.763
3986.72	0.7637
3995.75	0.7649
4004.79	0.7668
4013.82	0.7696
4022.86	0.7731
4031.89	0.7779
4040.93	0.7873
4049.96	0.8131
4059	0.8693
