Infrared Spectrum: 2-Benzothiazolinone, 3-methyl-,
Formula: C8 H13 N O S
State: SOLUTION 7% (CS2 FOR 7.5-15 microns, AND CCl4 FOR 2.5-7.5 microns)
Class: COBLENTZ III
Instrument: PERKIN-ELMER 21 (GRATING)
Instrument parameters: FILTER AT ABOUT 10 MICRONS
Path length: 0.01 CM
Resolution: 2
Origin: ABBOTT LABORATORIES
1/CM	TRANSMITTANCE
665	0.908
674	0.8962
683	0.7292
692	0.8974
701	0.8824
710	0.7915
719	0.6574
728	0.7727
737	0.2173
746	0.311
755	0.8045
764	0.8824
773	0.9003
782	0.9033
791	0.8954
800	0.8934
809	0.9013
818	0.8973
827	0.8884
836	0.8532
845	0.8636
854	0.8591
863	0.7343
872	0.5491
881	0.8156
890	0.8844
899	0.895
908	0.8791
917	0.7572
926	0.8824
935	0.8922
944	0.8907
953	0.8871
962	0.8795
971	0.8665
980	0.8515
989	0.8013
998	0.5626
1007	0.6934
1016	0.7151
1025	0.488
1034	0.706
1043	0.6568
1052	0.5835
1061	0.7497
1070	0.7821
1079	0.7896
1088	0.8206
1097	0.8147
1106	0.724
1115	0.3796
1124	0.3188
1133	0.6905
1142	0.781
1151	0.6527
1160	0.7675
1169	0.8399
1178	0.8574
1187	0.8605
1196	0.8548
1205	0.8426
1214	0.8135
1223	0.6974
1232	0.2785
1241	0.331
1250	0.7338
1259	0.8155
1268	0.8267
1277	0.7618
1286	0.6494
1295	0.3412
1304	0.6263
1313	0.2427
1322	0.3417
1331	0.5826
1340	0.5571
1349	0.4986
1358	0.8189
1367	0.836
1376	0.8345
1385	0.8324
1394	0.8076
1403	0.7223
1412	0.7325
1421	0.8162
1430	0.7706
1439	0.669
1448	0.557
1457	0.4706
1466	0.2186
1475	0.205
1484	0.7473
1493	0.8314
1502	0.8387
1511	0.852
1520	0.8475
1529	0.8535
1538	0.8457
1547	0.8178
1556	0.7967
1565	0.758
1574	0.5845
1583	0.3756
1592	0.2545
1601	0.6924
1610	0.8161
1619	0.8136
1628	0.7469
1637	0.6613
1646	0.5768
1655	0.4869
1664	0.1302
1673	0.0215
1682	0.0121
1691	0.0484
1700	0.1248
1709	0.41
1718	0.4329
1727	0.6318
1736	0.656
1745	0.7631
1754	0.829
1763	0.8755
1772	0.8981
1781	0.8953
1790	0.8871
1799	0.8815
1808	0.8848
1817	0.8894
1826	0.8913
1835	0.8972
1844	0.8935
1853	0.8837
1862	0.8417
1871	0.847
1880	0.899
1889	0.916
1898	0.9171
1907	0.9044
1916	0.8963
1925	0.9124
1934	0.9251
1943	0.9242
1952	0.9218
1961	0.9188
1970	0.9151
1979	0.9074
1988	0.9051
1997	0.9142
2006	0.9254
2015	0.9289
2024	0.9299
2033	0.9309
2042	0.9315
2051	0.9317
2060	0.9315
2069	0.9312
2078	0.9308
2087	0.9292
2096	0.9273
2105	0.9268
2114	0.9257
2123	0.9258
2132	0.9261
2141	0.9265
2150	0.9272
2159	0.928
2168	0.9298
2177	0.9306
2186	0.9294
2195	0.9267
2204	0.9241
2213	0.9238
2222	0.9235
2231	0.9253
2240	0.9278
2249	0.9297
2258	0.9293
2267	0.9269
2276	0.9249
2285	0.9247
2294	0.9261
2303	0.9277
2312	0.9305
2321	0.9335
2330	0.9345
2339	0.9339
2348	0.9334
2357	0.9328
2366	0.9317
2375	0.9306
2384	0.9291
2393	0.927
2402	0.9255
2411	0.9248
2420	0.9241
2429	0.9242
2438	0.9253
2447	0.9265
2456	0.9282
2465	0.9303
2474	0.9311
2483	0.9311
2492	0.9299
2501	0.9283
2510	0.9269
2519	0.9259
2528	0.9249
2537	0.9241
2546	0.9235
2555	0.9229
2564	0.9222
2573	0.9211
2582	0.9201
2591	0.9192
2600	0.9182
2609	0.9172
2618	0.9166
2627	0.9161
2636	0.9156
2645	0.9151
2654	0.9145
2663	0.9141
2672	0.914
2681	0.9141
2690	0.9142
2699	0.9142
2708	0.9141
2717	0.9137
2726	0.9134
2735	0.9115
2744	0.908
2753	0.9046
2762	0.9003
2771	0.8957
2780	0.891
2789	0.8858
2798	0.8798
2807	0.8737
2816	0.8643
2825	0.8542
2834	0.8442
2843	0.834
2852	0.8219
2861	0.8156
2870	0.8121
2879	0.8041
2888	0.7886
2897	0.7742
2906	0.7744
2915	0.7755
2924	0.7848
2933	0.801
2942	0.8257
2951	0.8499
2960	0.8638
2969	0.8695
2978	0.8679
2987	0.8643
2996	0.8585
3005	0.8519
3014	0.8484
3023	0.8464
3032	0.8462
3041	0.8469
3050	0.8507
3059	0.8598
3068	0.8831
3077	0.9183
3086	0.9201
3095	0.9208
3104	0.9211
3113	0.9213
3122	0.9216
3131	0.9214
3140	0.9212
3149	0.9208
3158	0.9205
3167	0.9192
3176	0.9176
3185	0.916
3194	0.9145
3203	0.9129
3212	0.9112
3221	0.909
3230	0.9068
3239	0.9047
3248	0.9026
3257	0.9005
3266	0.8976
3275	0.8946
3284	0.8915
3293	0.8886
3302	0.8865
3311	0.8857
3320	0.8876
3329	0.8946
3338	0.9047
3347	0.9128
3356	0.9178
3365	0.9227
3374	0.9273
3383	0.93
3392	0.9326
3401	0.9351
3410	0.9368
3419	0.9374
3428	0.938
3437	0.9381
3446	0.9382
3455	0.9383
3464	0.9384
3473	0.9384
3482	0.9382
3491	0.938
3500	0.9378
3509	0.9376
3518	0.9374
3527	0.9372
3536	0.9371
3545	0.9369
3554	0.9367
3563	0.9365
3572	0.9363
3581	0.9363
3590	0.9362
3599	0.9361
3608	0.9361
3617	0.9361
3626	0.936
3635	0.9359
3644	0.9359
3653	0.9358
3662	0.9356
3671	0.9355
3680	0.9354
3689	0.9352
3698	0.9352
3707	0.935
3716	0.9348
3725	0.9348
3734	0.935
3743	0.9353
3752	0.9355
3761	0.9357
3770	0.9359
3779	0.9361
3788	0.9364
3797	0.9366
3806	0.937
3815	0.9374
3824	0.9378
3833	0.9382
3842	0.9385
3851	0.9389
3860	0.9393
3869	0.9397
3878	0.94
3887	0.9404
3896	0.9407
3905	0.9409
3914	0.9411
3923	0.9412
3932	0.9413
3941	0.9414
3950	0.9416
3959	0.9417
3968	0.9418
3977	0.942
3986	0.9421
3995	0.9422
