Infrared Spectrum: Phenothiazine,10-[3-(4-methyl-1-piperazinyl)propyl]-2-(trifluoromethyl)-, 5-oxide, dihydrochloride, hydrate
Formula: C21 H26 Cl2 F3 N3 O S  * H2 O
State: SOLID (OIL MULL)
Class: COBLENTZ III
Instrument: PERKIN-ELMER 21 (GRATING)
Instrument parameters: NaCl PRISM
Sampling: TRANSMISSION
Resolution: 2
Origin: SMITH KLINE & FRENCH LABS.
1/CM	TRANSMITTANCE
669	0.5746
678	0.5929
687	0.6491
696	0.6567
705	0.5999
714	0.638
723	0.6386
732	0.677
741	0.6415
750	0.6881
759	0.6588
768	0.4377
777	0.5542
786	0.7721
795	0.7878
804	0.7428
813	0.7498
822	0.7268
831	0.7362
840	0.7751
849	0.8048
858	0.7609
867	0.5552
876	0.7218
885	0.797
894	0.807
903	0.757
912	0.7918
921	0.7878
930	0.7504
939	0.4542
948	0.6072
957	0.4035
966	0.6551
975	0.5608
984	0.4289
993	0.4438
1002	0.6034
1011	0.5396
1020	0.5164
1029	0.7221
1038	0.6927
1047	0.4258
1056	0.5643
1065	0.5644
1074	0.6909
1083	0.652
1092	0.4472
1101	0.5836
1110	0.5202
1119	0.427
1128	0.2159
1137	0.3206
1146	0.5101
1155	0.4022
1164	0.4669
1173	0.2572
1182	0.4024
1191	0.6494
1200	0.6838
1209	0.7394
1218	0.6831
1227	0.7074
1236	0.5372
1245	0.3203
1254	0.4843
1263	0.6926
1272	0.5664
1281	0.6891
1290	0.6629
1299	0.5705
1308	0.3243
1317	0.4395
1326	0.4742
1335	0.3691
1344	0.5378
1353	0.6024
1362	0.3489
1371	0.3929
1380	0.3708
1389	0.5217
1398	0.679
1407	0.6803
1416	0.5875
1425	0.4695
1434	0.2141
1443	0.2637
1452	0.1131
1461	0.1482
1470	0.2238
1479	0.44
1488	0.5478
1497	0.4849
1506	0.6801
1515	0.7768
1524	0.8206
1533	0.8304
1542	0.8315
1551	0.8245
1560	0.8115
1569	0.7925
1578	0.6562
1587	0.52
1596	0.6601
1605	0.6892
1614	0.7178
1623	0.6997
1632	0.6998
1641	0.7082
1650	0.7613
1659	0.7916
1668	0.8276
1677	0.8625
1686	0.8832
1695	0.8946
1704	0.9011
1713	0.905
1722	0.9039
1731	0.903
1740	0.9103
1749	0.9117
1758	0.9129
1767	0.9136
1776	0.9138
1785	0.9148
1794	0.9158
1803	0.9156
1812	0.9132
1821	0.9087
1830	0.9059
1839	0.9052
1848	0.9066
1857	0.9071
1866	0.9061
1875	0.9081
1884	0.9062
1893	0.9014
1902	0.8961
1911	0.8905
1920	0.8849
1929	0.8801
1938	0.8753
1947	0.8709
1956	0.8669
1965	0.8672
1974	0.8661
1983	0.8593
1992	0.8524
2001	0.8452
2010	0.8377
2019	0.8302
2028	0.8227
2037	0.8149
2046	0.8072
2055	0.8005
2064	0.7965
2073	0.7932
2082	0.7909
2091	0.7865
2100	0.7782
2109	0.7647
2118	0.7548
2127	0.7495
2136	0.7437
2145	0.7348
2154	0.7227
2163	0.7085
2172	0.6961
2181	0.6847
2190	0.6757
2199	0.6687
2208	0.6615
2217	0.653
2226	0.6426
2235	0.6302
2244	0.617
2253	0.6009
2262	0.5809
2271	0.5608
2280	0.5417
2289	0.5225
2298	0.5036
2307	0.4845
2316	0.4647
2325	0.4487
2334	0.4344
2343	0.421
2352	0.4085
2361	0.3975
2370	0.3869
2379	0.3773
2388	0.3695
2397	0.3636
2406	0.3611
2415	0.361
2424	0.3638
2433	0.3685
2442	0.3755
2451	0.3961
2460	0.4212
2469	0.432
2478	0.4362
2487	0.4383
2496	0.4404
2505	0.4527
2514	0.4577
2523	0.4598
2532	0.4614
2541	0.4618
2550	0.4626
2559	0.4654
2568	0.4749
2577	0.4939
2586	0.5165
2595	0.5391
2604	0.5555
2613	0.557
2622	0.558
2631	0.5598
2640	0.565
2649	0.5752
2658	0.5937
2667	0.6242
2676	0.6498
2685	0.6718
2694	0.6946
2703	0.7062
2712	0.7163
2721	0.7242
2730	0.732
2739	0.7389
2748	0.7402
2757	0.7401
2766	0.7367
2775	0.7286
2784	0.7165
2793	0.6986
2802	0.6772
2811	0.615
2820	0.5271
2829	0.3597
2838	0.1954
2847	0.1384
2856	0.1214
2865	0.1191
2874	0.1187
2883	0.1175
2892	0.1124
2901	0.1073
2910	0.107
2919	0.1091
2928	0.1146
2937	0.1334
2946	0.1639
2955	0.1871
2964	0.2118
2973	0.3031
2982	0.367
2991	0.4305
3000	0.4901
3009	0.5301
3018	0.552
3027	0.5746
3036	0.5981
3045	0.6155
3054	0.621
3063	0.6214
3072	0.62
3081	0.6193
3090	0.6199
3099	0.6213
3108	0.6222
3117	0.6218
3126	0.6205
3135	0.6169
3144	0.6063
3153	0.5954
3162	0.5846
3171	0.5738
3180	0.5632
3189	0.5526
3198	0.542
3207	0.5315
3216	0.521
3225	0.5106
3234	0.5002
3243	0.49
3252	0.4802
3261	0.4731
3270	0.4621
3279	0.4475
3288	0.433
3297	0.4186
3306	0.4042
3315	0.3899
3324	0.3757
3333	0.3616
3342	0.352
3351	0.3422
3360	0.3324
3369	0.3258
3378	0.3197
3387	0.3159
3396	0.3135
3405	0.3129
3414	0.3124
3423	0.3127
3432	0.313
3441	0.3139
3450	0.3149
3459	0.3163
3468	0.3181
3477	0.3213
3486	0.3325
3495	0.3463
3504	0.3684
3513	0.3957
3522	0.4251
3531	0.4415
3540	0.4692
3549	0.4954
3558	0.5204
3567	0.554
3576	0.5888
3585	0.6234
3594	0.6578
3603	0.6847
3612	0.715
3621	0.7386
3630	0.761
3639	0.7773
3648	0.7997
3657	0.8145
3666	0.8247
3675	0.8308
3684	0.8336
3693	0.8348
3702	0.8351
3711	0.8349
3720	0.8347
3729	0.8342
3738	0.833
3747	0.8317
3756	0.8304
3765	0.829
3774	0.8275
3783	0.8259
3792	0.8237
3801	0.8212
3810	0.8187
3819	0.8147
3828	0.8105
3837	0.8077
3846	0.8054
3855	0.8036
3864	0.802
3873	0.8005
3882	0.799
3891	0.7975
3900	0.7964
3909	0.7953
3918	0.7943
3927	0.7933
3936	0.7923
3945	0.7912
3954	0.7902
3963	0.7892
3972	0.7882
3981	0.7872
3990	0.7857
3999	0.783
