Infrared Spectrum: BARIUM THIOSULFATE
Formula: Ba S2 O3  * H2 O
State: SOLID (NUJOL MULL)
Class: COBLENTZ
Instrument: Not specified, most likely a prism, grating, or hybrid spectrometer.
Sampling: TRANSMISSION
Resolution: 4
Origin: MELLON INSTITUTE
MICROMETERS	TRANSMITTANCE
2.029	0.748
2.0689	0.758
2.10881	0.77
2.14871	0.776
2.18862	0.781
2.22852	0.79
2.26843	0.79
2.30833	0.793
2.34824	0.8
2.38814	0.805
2.42804	0.816
2.46795	0.823
2.50785	0.826
2.54776	0.833
2.58766	0.835
2.62757	0.85
2.66747	0.85
2.70738	0.845
2.74728	0.835
2.78718	0.813
2.82709	0.751
2.86699	0.636
2.9069	0.34
2.9468	0.32
2.98671	0.383
3.02661	0.383
3.06652	0.398
3.10642	0.441
3.14632	0.521
3.18623	0.598
3.22613	0.663
3.26604	0.696
3.30594	0.598
3.34585	0.2
3.38575	0.203
3.42566	0.373
3.46556	0.431
3.50546	0.816
3.54537	0.873
3.58527	0.9
3.62518	0.903
3.66508	0.903
3.70499	0.905
3.74489	0.911
3.78479	0.913
3.8247	0.92
3.8646	0.926
3.90451	0.93
3.94441	0.931
3.98432	0.936
4.02422	0.936
4.06413	0.938
4.10403	0.938
4.14393	0.94
4.18384	0.94
4.22374	0.926
4.26365	0.921
4.30355	0.913
4.34346	0.913
4.38336	0.926
4.42327	0.93
4.46317	0.926
4.50307	0.926
4.54298	0.923
4.58288	0.921
4.62279	0.918
4.66269	0.913
4.7026	0.911
4.7425	0.903
4.78241	0.901
4.82231	0.901
4.86221	0.903
4.90212	0.92
4.94202	0.925
4.98193	0.93
5.02183	0.935
5.06174	0.938
5.10164	0.941
5.14155	0.945
5.18145	0.948
5.22135	0.953
5.26126	0.953
5.30116	0.953
5.34107	0.953
5.38097	0.955
5.42088	0.955
5.46078	0.953
5.50069	0.955
5.54059	0.955
5.58049	0.958
5.6204	0.961
5.6603	0.961
5.70021	0.961
5.74011	0.961
5.78002	0.958
5.81992	0.96
5.85983	0.948
5.89973	0.926
5.93963	0.888
5.97954	0.833
6.01944	0.796
6.05935	0.8
6.09925	0.823
6.13916	0.853
6.17906	0.898
6.21897	0.923
6.25887	0.931
6.29877	0.935
6.33868	0.935
6.37858	0.94
6.41849	0.938
6.45839	0.943
6.4983	0.94
6.5382	0.935
6.57811	0.941
6.61801	0.936
6.65791	0.938
6.69782	0.923
6.73772	0.9
6.77763	0.79
6.81753	0.666
6.85744	0.655
6.89734	0.726
6.93724	0.8
6.97715	0.858
7.01705	0.885
7.05696	0.901
7.09686	0.911
7.13677	0.903
7.17667	0.88
7.21658	0.786
7.25648	0.796
7.29638	0.833
7.33629	0.876
7.37619	0.898
7.4161	0.91
7.456	0.915
7.49591	0.928
7.53581	0.936
7.57572	0.938
7.61562	0.94
7.65552	0.94
7.69543	0.941
7.73533	0.943
7.77524	0.943
7.81514	0.948
7.85505	0.948
7.89495	0.945
7.93486	0.941
7.97476	0.941
8.01466	0.938
8.05457	0.935
8.09447	0.928
8.13438	0.928
8.17428	0.925
8.21419	0.923
8.25409	0.92
8.294	0.915
8.3339	0.91
8.3738	0.903
8.41371	0.9
8.45361	0.89
8.49352	0.875
8.53342	0.848
8.57333	0.823
8.61323	0.798
8.65314	0.76
8.69304	0.706
8.73294	0.62
8.77285	0.44
8.81275	0.238
8.85266	0.156
8.89256	0.091
8.93247	0.081
8.97237	0.098
9.01228	0.091
9.05218	0.09
9.09208	0.106
9.13199	0.121
9.17189	0.125
9.2118	0.116
9.2517	0.093
9.29161	0.088
9.33151	0.113
9.37142	0.203
9.41132	0.353
9.45122	0.446
9.49113	0.518
9.53103	0.573
9.57094	0.611
9.61084	0.643
9.65075	0.653
9.69065	0.661
9.73056	0.673
9.77046	0.671
9.81036	0.601
9.85027	0.39
9.89017	0.306
9.93008	0.27
9.96998	0.218
10.0099	0.175
10.0498	0.148
10.0897	0.141
10.1296	0.223
10.1695	0.418
10.2094	0.558
10.2493	0.641
10.2892	0.715
10.3291	0.751
10.369	0.785
10.4089	0.805
10.4488	0.821
10.4887	0.838
10.5286	0.846
10.5685	0.853
10.6085	0.863
10.6484	0.868
10.6883	0.871
10.7282	0.878
10.7681	0.883
10.808	0.886
10.8479	0.89
10.8878	0.895
10.9277	0.898
10.9676	0.9
11.0075	0.905
11.0474	0.903
11.0873	0.903
11.1272	0.903
11.1671	0.901
11.207	0.901
11.2469	0.9
11.2868	0.898
11.3267	0.898
11.3666	0.893
11.4065	0.886
11.4464	0.88
11.4864	0.87
11.5263	0.861
11.5662	0.851
11.6061	0.841
11.646	0.833
11.6859	0.826
11.7258	0.818
11.7657	0.81
11.8056	0.806
11.8455	0.801
11.8854	0.8
11.9253	0.798
11.9652	0.798
12.0051	0.801
12.045	0.801
12.0849	0.81
12.1248	0.816
12.1647	0.818
12.2046	0.82
12.2445	0.823
12.2844	0.83
12.3243	0.836
12.3642	0.841
12.4042	0.845
12.4441	0.848
12.484	0.846
12.5239	0.85
12.5638	0.85
12.6037	0.853
12.6436	0.855
12.6835	0.856
12.7234	0.858
12.7633	0.861
12.8032	0.863
12.8431	0.865
12.883	0.866
12.9229	0.87
12.9628	0.873
13.0027	0.876
13.0426	0.875
13.0825	0.876
13.1224	0.876
13.1623	0.873
13.2022	0.875
13.2421	0.875
13.282	0.875
13.322	0.875
13.3619	0.873
13.4018	0.87
13.4417	0.866
13.4816	0.861
13.5215	0.86
13.5614	0.86
13.6013	0.858
13.6412	0.855
13.6811	0.85
13.721	0.845
13.7609	0.836
13.8008	0.828
13.8407	0.825
13.8806	0.821
13.9205	0.82
13.9604	0.811
14.0003	0.798
14.0402	0.78
14.0801	0.758
14.12	0.731
14.1599	0.69
14.1999	0.646
14.2398	0.565
14.2797	0.458
14.3196	0.36
14.3595	0.32
14.3994	0.288
14.4393	0.268
14.4792	0.261
14.5191	0.261
14.559	0.265
14.5989	0.27
14.6388	0.273
14.6787	0.273
14.7186	0.273
14.7585	0.281
14.7984	0.303
14.8383	0.36
14.8782	0.398
14.9181	0.445
14.958	0.48
14.9979	0.515
15.0378	0.545
15.0777	0.57
15.1177	0.586
15.1576	0.598
15.1975	0.605
15.2374	0.611
15.2773	0.613
15.3172	0.616
15.3571	0.618
15.397	0.62
15.4369	0.621
15.4768	0.625
15.5167	0.625
15.5566	0.625
15.5965	0.625
15.6364	0.623
15.6763	0.625
15.7162	0.626
15.7561	0.626
15.796	0.625
15.8359	0.623
15.8758	0.623
15.9157	0.626
15.9556	0.626
