Infrared Spectrum: CALCIUM IODATE
Formula: Ca ( I O3)2  * 6 H2 O
State: SOLID (NUJOL MULL)
Class: COBLENTZ
Instrument: Not specified, most likely a prism, grating, or hybrid spectrometer.
Sampling: TRANSMISSION
Resolution: 4
Origin: MELLON INSTITUTE
MICROMETERS	TRANSMITTANCE
2.017	0.447
2.05797	0.456
2.09894	0.469
2.1399	0.48
2.18087	0.49
2.22184	0.499
2.26281	0.504
2.30377	0.514
2.34474	0.521
2.38571	0.53
2.42668	0.542
2.46764	0.554
2.50861	0.564
2.54958	0.578
2.59055	0.59
2.63151	0.6
2.67248	0.61
2.71345	0.624
2.75442	0.636
2.79538	0.65
2.83635	0.639
2.87732	0.516
2.91829	0.476
2.95925	0.466
3.00022	0.449
3.04119	0.499
3.08216	0.53
3.12312	0.545
3.16409	0.555
3.20506	0.564
3.24603	0.581
3.28699	0.569
3.32796	0.427
3.36893	0.12
3.4099	0.109
3.45087	0.207
3.49183	0.257
3.5328	0.641
3.57377	0.718
3.61474	0.744
3.6557	0.751
3.69667	0.756
3.73764	0.759
3.77861	0.77
3.81957	0.775
3.86054	0.783
3.90151	0.792
3.94248	0.801
3.98344	0.806
4.02441	0.811
4.06538	0.814
4.10635	0.818
4.14731	0.821
4.18828	0.823
4.22925	0.826
4.27022	0.83
4.31118	0.831
4.35215	0.835
4.39312	0.837
4.43409	0.84
4.47505	0.843
4.51602	0.847
4.55699	0.852
4.59796	0.855
4.63893	0.859
4.67989	0.862
4.72086	0.866
4.76183	0.869
4.8028	0.874
4.84376	0.876
4.88473	0.881
4.9257	0.885
4.96667	0.891
5.00763	0.895
5.0486	0.902
5.08957	0.903
5.13054	0.905
5.1715	0.91
5.21247	0.914
5.25344	0.919
5.29441	0.921
5.33537	0.924
5.37634	0.926
5.41731	0.927
5.45828	0.929
5.49924	0.933
5.54021	0.934
5.58118	0.936
5.62215	0.939
5.66311	0.941
5.70408	0.943
5.74505	0.945
5.78602	0.946
5.82698	0.946
5.86795	0.948
5.90892	0.948
5.94989	0.95
5.99086	0.951
6.03182	0.95
6.07279	0.95
6.11376	0.943
6.15473	0.931
6.19569	0.792
6.23666	0.861
6.27763	0.912
6.3186	0.922
6.35956	0.924
6.40053	0.927
6.4415	0.933
6.48247	0.936
6.52343	0.936
6.5644	0.934
6.60537	0.933
6.64634	0.933
6.6873	0.931
6.72827	0.922
6.76924	0.873
6.81021	0.656
6.85117	0.552
6.89214	0.581
6.93311	0.682
6.97408	0.79
7.01504	0.873
7.05601	0.917
7.09698	0.943
7.13795	0.953
7.17891	0.931
7.21988	0.831
7.26085	0.718
7.30182	0.816
7.34279	0.876
7.38375	0.915
7.42472	0.936
7.46569	0.943
7.50666	0.951
7.54762	0.96
7.58859	0.963
7.62956	0.967
7.67053	0.969
7.71149	0.97
7.75246	0.97
7.79343	0.974
7.8344	0.974
7.87536	0.975
7.91633	0.977
7.9573	0.977
7.99827	0.977
8.03923	0.979
8.0802	0.979
8.12117	0.979
8.16214	0.979
8.2031	0.979
8.24407	0.979
8.28504	0.979
8.32601	0.979
8.36697	0.979
8.40794	0.979
8.44891	0.977
8.48988	0.975
8.53084	0.974
8.57181	0.972
8.61278	0.969
8.65375	0.969
8.69472	0.967
8.73568	0.969
8.77665	0.969
8.81762	0.969
8.85859	0.969
8.89955	0.969
8.94052	0.969
8.98149	0.97
9.02246	0.97
9.06342	0.97
9.10439	0.97
9.14536	0.97
9.18633	0.97
9.22729	0.97
9.26826	0.97
9.30923	0.969
9.3502	0.969
9.39116	0.969
9.43213	0.967
9.4731	0.967
9.51407	0.967
9.55503	0.965
9.596	0.965
9.63697	0.965
9.67794	0.965
9.7189	0.965
9.75987	0.965
9.80084	0.967
9.84181	0.969
9.88277	0.97
9.92374	0.974
9.96471	0.974
10.0057	0.974
10.0466	0.974
10.0876	0.974
10.1286	0.974
10.1695	0.974
10.2105	0.974
10.2515	0.977
10.2925	0.979
10.3334	0.981
10.3744	0.984
10.4154	0.986
10.4563	0.987
10.4973	0.986
10.5383	0.989
10.5792	0.989
10.6202	0.991
10.6612	0.991
10.7021	0.993
10.7431	0.993
10.7841	0.996
10.825	0.998
10.866	0.998
10.907	1
10.9479	1
10.9889	1
11.0299	1
11.0708	1
11.1118	1
11.1528	1
11.1937	1
11.2347	1
11.2757	1
11.3166	1
11.3576	1
11.3986	1
11.4395	0.998
11.4805	0.994
11.5215	0.993
11.5624	0.987
11.6034	0.982
11.6444	0.975
11.6853	0.963
11.7263	0.955
11.7673	0.938
11.8083	0.915
11.8492	0.857
11.8902	0.747
11.9312	0.663
11.9721	0.639
12.0131	0.593
12.0541	0.511
12.095	0.48
12.136	0.469
12.177	0.439
12.2179	0.409
12.2589	0.391
12.2999	0.387
12.3408	0.399
12.3818	0.445
12.4228	0.478
12.4637	0.497
12.5047	0.5
12.5457	0.488
12.5866	0.44
12.6276	0.385
12.6686	0.363
12.7095	0.351
12.7505	0.339
12.7915	0.317
12.8324	0.298
12.8734	0.291
12.9144	0.291
12.9553	0.301
12.9963	0.337
13.0373	0.37
13.0782	0.384
13.1192	0.38
13.1602	0.377
13.2011	0.384
13.2421	0.391
13.2831	0.392
13.3241	0.389
13.365	0.382
13.406	0.384
13.447	0.408
13.4879	0.459
13.5289	0.506
13.5699	0.555
13.6108	0.603
13.6518	0.644
13.6928	0.67
13.7337	0.698
13.7747	0.71
13.8157	0.72
13.8566	0.734
13.8976	0.749
13.9386	0.763
13.9795	0.778
14.0205	0.792
14.0615	0.801
14.1024	0.809
14.1434	0.818
14.1844	0.823
14.2253	0.826
14.2663	0.831
14.3073	0.831
14.3482	0.831
14.3892	0.83
14.4302	0.823
14.4711	0.814
14.5121	0.802
14.5531	0.797
14.594	0.789
14.635	0.782
14.676	0.777
14.7169	0.768
14.7579	0.756
14.7989	0.744
14.8399	0.723
14.8808	0.708
14.9218	0.696
14.9628	0.682
15.0037	0.672
15.0447	0.662
15.0857	0.656
15.1266	0.643
15.1676	0.638
15.2086	0.626
15.2495	0.619
15.2905	0.612
15.3315	0.605
15.3724	0.6
15.4134	0.596
15.4544	0.591
15.4953	0.588
15.5363	0.584
15.5773	0.581
15.6182	0.578
15.6592	0.572
15.7002	0.569
15.7411	0.566
15.7821	0.562
15.8231	0.559
15.864	0.554
15.905	0.552
15.946	0.55
15.9869	0.55
