Infrared Spectrum: Polyethylene glycol
Formula: C2 H6 O2
State: LIQUID (NEAT)
Class: COBLENTZ
Instrument: DOW KBr FOREPRISM-GRATING
Instrument parameters: BLAZED AT 3.5, 12.0, 20.0 MICRON AND CHANGED AT 5.0, 7.5, 14.9 MICRON
Sampling: TRANSMISSION
Path length: CAPILLARY
Resolution: 2
Origin: DOW CHEMICAL COMPANY
1/CM	TRANSMITTANCE
3796	0.8397
3787	0.84
3778	0.8406
3769	0.8415
3760	0.8424
3751	0.8432
3742	0.844
3733	0.8446
3724	0.845
3715	0.8453
3706	0.8456
3697	0.8457
3688	0.8457
3679	0.8457
3670	0.8453
3661	0.8446
3652	0.8439
3643	0.8431
3634	0.8423
3625	0.8414
3616	0.8404
3607	0.8393
3598	0.8355
3589	0.8293
3580	0.821
3571	0.8135
3562	0.8068
3553	0.8001
3544	0.7934
3535	0.7864
3526	0.7789
3517	0.7689
3508	0.7571
3499	0.7456
3490	0.7342
3481	0.7228
3472	0.7124
3463	0.7042
3454	0.6976
3445	0.6918
3436	0.6861
3427	0.6808
3418	0.6736
3409	0.6642
3400	0.6535
3391	0.6414
3382	0.6302
3373	0.6192
3364	0.6087
3355	0.5987
3346	0.5902
3337	0.5809
3328	0.5752
3319	0.5737
3310	0.5734
3301	0.577
3292	0.5849
3283	0.5964
3274	0.6078
3265	0.6187
3256	0.6356
3247	0.6525
3238	0.6667
3229	0.6806
3220	0.6947
3211	0.7093
3202	0.7224
3193	0.7343
3184	0.7457
3175	0.7567
3166	0.7678
3157	0.7775
3148	0.7874
3139	0.7956
3130	0.8028
3121	0.8095
3112	0.816
3103	0.8215
3094	0.8266
3085	0.8294
3076	0.8321
3067	0.8347
3058	0.8351
3049	0.8352
3040	0.835
3031	0.8343
3022	0.8336
3013	0.8325
3004	0.8314
2995	0.8254
2986	0.8136
2977	0.7908
2968	0.7467
2959	0.6366
2950	0.5131
2941	0.4343
2932	0.4098
2923	0.3739
2914	0.3458
2905	0.327
2896	0.3098
2887	0.2897
2878	0.2693
2869	0.2517
2860	0.2548
2851	0.3079
2842	0.4135
2833	0.5066
2824	0.5532
2815	0.5889
2806	0.626
2797	0.6571
2788	0.6865
2779	0.7115
2770	0.7342
2761	0.7496
2752	0.7619
2743	0.7654
2734	0.7687
2725	0.7734
2716	0.7783
2707	0.7848
2698	0.7918
2689	0.7997
2680	0.8107
2671	0.8242
2662	0.8335
2653	0.8401
2644	0.8438
2635	0.8449
2626	0.8461
2617	0.8473
2608	0.8487
2599	0.85
2590	0.8515
2581	0.8525
2572	0.8534
2563	0.8544
2554	0.8556
2545	0.8567
2536	0.8575
2527	0.8583
2518	0.858
2509	0.8575
2500	0.8582
2491	0.8593
2482	0.8603
2473	0.8613
2464	0.8623
2455	0.8627
2446	0.8633
2437	0.8638
2428	0.8643
2419	0.8648
2410	0.8655
2401	0.8668
2392	0.8657
2383	0.8658
2374	0.8665
2365	0.8675
2356	0.8689
2347	0.8702
2338	0.8707
2329	0.8687
2320	0.8658
2311	0.8628
2302	0.862
2293	0.8612
2284	0.8607
2275	0.8607
2266	0.8607
2257	0.8617
2248	0.8625
2239	0.8636
2230	0.8646
2221	0.8657
2212	0.8668
2203	0.8678
2194	0.8681
2185	0.8685
2176	0.8738
2167	0.873
2158	0.8721
2149	0.8714
2140	0.8715
2131	0.8715
2122	0.8715
2113	0.8712
2104	0.8709
2095	0.8706
2086	0.8703
2077	0.87
2068	0.8698
2059	0.8694
2050	0.8689
2041	0.8684
2032	0.8683
2023	0.8687
2014	0.8688
2005	0.8685
1996	0.8696
1987	0.8693
1978	0.864
1969	0.8583
1960	0.8555
1951	0.8531
1942	0.8543
1933	0.8567
1924	0.8591
1915	0.8618
1906	0.8646
1897	0.8671
1888	0.8697
1879	0.8718
1870	0.8736
1861	0.8753
1852	0.8766
1843	0.8778
1834	0.8787
1825	0.8792
1816	0.8797
1807	0.8799
1798	0.8801
1789	0.8801
1780	0.8801
1771	0.88
1762	0.8795
1753	0.8782
1744	0.876
1735	0.8725
1726	0.8643
1717	0.856
1708	0.8546
1699	0.8632
1690	0.8689
1681	0.8692
1672	0.8668
1663	0.8634
1654	0.8588
1645	0.8542
1636	0.8531
1627	0.8528
1618	0.8528
1609	0.8533
1600	0.8541
1591	0.8548
1582	0.8555
1573	0.8552
1564	0.8547
1555	0.8542
1546	0.8537
1537	0.853
1528	0.8518
1519	0.8502
1510	0.8459
1501	0.838
1492	0.814
1483	0.7743
1474	0.7006
1465	0.6474
1456	0.6312
1447	0.6547
1438	0.7218
1429	0.7707
1420	0.7724
1411	0.7661
1402	0.7621
1393	0.7578
1384	0.7458
1375	0.7342
1366	0.6996
1357	0.5939
1348	0.5212
1339	0.7289
1330	0.7368
1321	0.713
1312	0.7117
1303	0.653
1294	0.6154
1285	0.6275
1276	0.6611
1267	0.6908
1258	0.6556
1249	0.5681
1240	0.5979
1231	0.6825
1222	0.7326
1213	0.7572
1204	0.7734
1195	0.7719
1186	0.7615
1177	0.7376
1168	0.699
1159	0.5539
1150	0.322
1141	0.2463
1132	0.2058
1123	0.1667
1114	0.1405
1105	0.1385
1096	0.1549
1087	0.1924
1078	0.2666
1069	0.33
1060	0.3957
1051	0.4853
1042	0.5314
1033	0.5383
1024	0.5922
1015	0.6755
1006	0.719
997	0.7304
988	0.7333
979	0.75
970	0.7588
961	0.68
952	0.5447
943	0.5704
934	0.6089
925	0.6491
916	0.6893
907	0.7295
898	0.7592
889	0.7454
880	0.7407
871	0.7488
862	0.7365
853	0.7191
844	0.7069
835	0.7155
826	0.7661
817	0.7928
808	0.8081
799	0.8237
790	0.8393
781	0.8528
772	0.8597
763	0.8609
754	0.8605
745	0.8594
736	0.8581
727	0.8568
718	0.8545
709	0.852
700	0.8496
691	0.8458
682	0.8415
673	0.8318
664	0.8363
655	0.8391
646	0.833
637	0.8207
628	0.8078
619	0.7949
610	0.7831
601	0.7715
592	0.7603
583	0.7522
574	0.7478
565	0.7438
556	0.7408
547	0.7415
538	0.7378
529	0.7304
520	0.7283
511	0.7311
502	0.7353
493	0.7406
484	0.7478
475	0.7522
466	0.7555
457	0.7562
448	0.754
439	0.7503
430	0.7471
421	0.7465
412	0.7461
403	0.7461
394	0.7475
