Infrared Spectrum: ADENINE, 3-(p-FLUOROBENZYL)-
Formula: C12 H10 F N5
State: SOLID (1 mg / 650 mg KBr DISC)
Class: COBLENTZ
Instrument: PERKIN-ELMER 221 (GRATING)
Instrument parameters: FILTER CHANGES AT 2490, 980 CM^-^1, GRATING FOR 4000-1428 CM^-^1, NaCl PRISM FOR 1428-650 CM^-^1
Sampling: TRANSMISSION
Resolution: 4
Origin: SOUTHERN RESEARCH INST.
1/CM	TRANSMITTANCE
605.313	0.791
614.942	0.796
624.571	0.844
634.201	0.867
643.83	0.724
653.459	0.572
663.088	0.568
672.718	0.669
682.347	0.796
691.976	0.864
701.605	0.896
711.235	0.857
720.864	0.924
730.493	0.935
740.122	0.932
749.751	0.893
759.381	0.751
769.01	0.79
778.639	0.708
788.268	0.929
797.898	0.816
807.527	0.605
817.156	0.79
826.785	0.863
836.415	0.803
846.044	0.708
855.673	0.848
865.302	0.958
874.931	0.957
884.561	0.954
894.19	0.948
903.819	0.905
913.448	0.95
923.078	0.929
932.707	0.928
942.336	0.901
951.965	0.932
961.594	0.938
971.224	0.924
980.853	0.888
990.482	0.861
1000.11	0.739
1009.74	0.539
1019.37	0.909
1029	0.931
1038.63	0.928
1048.26	0.901
1057.89	0.831
1067.52	0.897
1077.15	0.912
1086.77	0.847
1096.4	0.705
1106.03	0.91
1115.66	0.905
1125.29	0.893
1134.92	0.871
1144.55	0.76
1154.18	0.539
1163.81	0.681
1173.44	0.871
1183.07	0.83
1192.7	0.8
1202.33	0.767
1211.95	0.662
1221.58	0.412
1231.21	0.68
1240.84	0.81
1250.47	0.869
1260.1	0.795
1269.73	0.633
1279.36	0.858
1288.99	0.84
1298.62	0.794
1308.25	0.714
1317.88	0.662
1327.51	0.845
1337.13	0.859
1346.76	0.852
1356.39	0.851
1366.02	0.863
1375.65	0.839
1385.28	0.769
1394.91	0.549
1404.54	0.706
1414.17	0.7
1423.8	0.719
1433.43	0.601
1443.06	0.791
1452.69	0.796
1462.31	0.862
1471.94	0.889
1481.57	0.867
1491.2	0.802
1500.83	0.651
1510.46	0.365
1520.09	0.697
1529.72	0.769
1539.35	0.824
1548.98	0.685
1558.61	0.775
1568.24	0.848
1577.87	0.832
1587.49	0.746
1597.12	0.629
1606.75	0.494
1616.38	0.572
1626.01	0.408
1635.64	0.393
1645.27	0.608
1654.9	0.642
1664.53	0.719
1674.16	0.747
1683.79	0.736
1693.42	0.628
1703.05	0.389
1712.67	0.218
1722.3	0.667
1731.93	0.859
1741.56	0.911
1751.19	0.941
1760.82	0.948
1770.45	0.954
1780.08	0.955
1789.71	0.95
1799.34	0.943
1808.97	0.915
1818.6	0.975
1828.23	0.973
1837.85	0.97
1847.48	0.969
1857.11	0.968
1866.74	0.965
1876.37	0.956
1886	0.953
1895.63	0.95
1905.26	0.948
1914.89	0.946
1924.52	0.945
1934.15	0.943
1943.78	0.943
1953.41	0.942
1963.03	0.942
1972.66	0.94
1982.29	0.938
1991.92	0.935
2001.55	0.931
2011.18	0.925
2020.81	0.924
2030.44	0.924
2040.07	0.928
2049.7	0.928
2059.33	0.926
2068.96	0.924
2078.59	0.924
2088.21	0.925
2097.84	0.925
2107.47	0.925
2117.1	0.925
2126.73	0.925
2136.36	0.924
2145.99	0.925
2155.62	0.924
2165.25	0.924
2174.88	0.924
2184.51	0.924
2194.14	0.923
2203.77	0.923
2213.39	0.921
2223.02	0.92
2232.65	0.918
2242.28	0.916
2251.91	0.914
2261.54	0.912
2271.17	0.912
2280.8	0.909
2290.43	0.905
2300.06	0.897
2309.69	0.891
2319.32	0.888
2328.95	0.886
2338.57	0.886
2348.2	0.886
2357.83	0.893
2367.46	0.898
2377.09	0.899
2386.72	0.898
2396.35	0.897
2405.98	0.893
2415.61	0.89
2425.24	0.887
2434.87	0.885
2444.5	0.883
2454.13	0.883
2463.75	0.884
2473.38	0.885
2483.01	0.883
2492.64	0.88
2502.27	0.879
2511.9	0.878
2521.53	0.877
2531.16	0.875
2540.79	0.875
2550.42	0.875
2560.05	0.871
2569.68	0.861
2579.31	0.859
2588.93	0.856
2598.56	0.852
2608.19	0.85
2617.82	0.847
2627.45	0.84
2637.08	0.833
2646.71	0.83
2656.34	0.827
2665.97	0.818
2675.6	0.812
2685.23	0.8
2694.86	0.795
2704.49	0.81
2714.11	0.812
2723.74	0.811
2733.37	0.805
2743	0.791
2752.63	0.791
2762.26	0.801
2771.89	0.803
2781.52	0.795
2791.15	0.789
2800.78	0.779
2810.41	0.772
2820.04	0.768
2829.67	0.756
2839.29	0.741
2848.92	0.719
2858.55	0.698
2868.18	0.689
2877.81	0.705
2887.44	0.711
2897.07	0.703
2906.7	0.68
2916.33	0.677
2925.96	0.681
2935.59	0.676
2945.22	0.653
2954.85	0.655
2964.47	0.667
2974.1	0.654
2983.73	0.642
2993.36	0.606
3002.99	0.591
3012.62	0.583
3022.25	0.569
3031.88	0.538
3041.51	0.534
3051.14	0.529
3060.77	0.522
3070.4	0.492
3080.02	0.526
3089.65	0.555
3099.28	0.567
3108.91	0.571
3118.54	0.578
3128.17	0.587
3137.8	0.59
3147.43	0.592
3157.06	0.594
3166.69	0.592
3176.32	0.59
3185.95	0.586
3195.58	0.577
3205.2	0.568
3214.83	0.546
3224.46	0.512
3234.09	0.484
3243.72	0.467
3253.35	0.452
3262.98	0.462
3272.61	0.511
3282.24	0.575
3291.87	0.633
3301.5	0.657
3311.13	0.654
3320.76	0.67
3330.38	0.687
3340.01	0.723
3349.64	0.734
3359.27	0.733
3368.9	0.728
3378.53	0.723
3388.16	0.738
3397.79	0.76
3407.42	0.771
3417.05	0.774
3426.68	0.775
3436.31	0.774
3445.94	0.773
3455.56	0.775
3465.19	0.777
3474.82	0.78
3484.45	0.787
3494.08	0.791
3503.71	0.795
3513.34	0.8
3522.97	0.803
3532.6	0.81
3542.23	0.814
3551.86	0.819
3561.49	0.824
3571.12	0.83
3580.74	0.838
3590.37	0.843
3600	0.848
3609.63	0.849
3619.26	0.852
3628.89	0.857
3638.52	0.863
3648.15	0.867
3657.78	0.866
3667.41	0.864
3677.04	0.861
3686.67	0.863
3696.3	0.865
3705.92	0.865
3715.55	0.864
3725.18	0.863
3734.81	0.861
3744.44	0.857
3754.07	0.86
3763.7	0.862
3773.33	0.862
3782.96	0.859
3792.59	0.856
3802.22	0.855
3811.85	0.854
3821.48	0.853
3831.1	0.852
3840.73	0.851
3850.36	0.85
3859.99	0.85
3869.62	0.85
3879.25	0.85
3888.88	0.85
3898.51	0.85
3908.14	0.849
3917.77	0.849
3927.4	0.848
3937.03	0.848
3946.66	0.848
3956.28	0.848
3965.91	0.848
3975.54	0.848
3985.17	0.848
3994.8	0.848
4004.43	0.848
4014.06	0.848
