Infrared Spectrum: p-Toluenesulfonic acid, potassium salt
Formula: C7 H7 K O3 S
State: SOLID (SPLIT MULL), FLUOROLUBE FOR 3800-1335 CM^-^1, NUJOL FOR 1335-400 CM^-^1
Class: COBLENTZ III
Instrument: DOW KBr FOREPRISM-GRATING
Instrument parameters: BLAZED AT 3.5, 12.0, 20.0 MICRON AND CHANGED AT 5.0, 7.5, 14.9 MICRON
Sampling: TRANSMISSION
Resolution: 2
Origin: DOW CHEMICAL COMPANY
1/CM	TRANSMITTANCE
3792	0.5725
3783	0.5719
3774	0.5714
3765	0.5722
3756	0.5735
3747	0.5748
3738	0.5754
3729	0.577
3720	0.579
3711	0.582
3702	0.5854
3693	0.5851
3684	0.5849
3675	0.5848
3666	0.5848
3657	0.5859
3648	0.5874
3639	0.5882
3630	0.5886
3621	0.5889
3612	0.5893
3603	0.5894
3594	0.5894
3585	0.5894
3576	0.5894
3567	0.5899
3558	0.591
3549	0.592
3540	0.593
3531	0.5939
3522	0.5947
3513	0.5955
3504	0.5962
3495	0.597
3486	0.5983
3477	0.5995
3468	0.6009
3459	0.6022
3450	0.6037
3441	0.6054
3432	0.6071
3423	0.6087
3414	0.6104
3405	0.6117
3396	0.613
3387	0.6141
3378	0.6153
3369	0.6165
3360	0.6177
3351	0.6188
3342	0.62
3333	0.6212
3324	0.6224
3315	0.6236
3306	0.6253
3297	0.6269
3288	0.6286
3279	0.6302
3270	0.6318
3261	0.6331
3252	0.6343
3243	0.6354
3234	0.6366
3225	0.6377
3216	0.639
3207	0.6404
3198	0.6418
3189	0.6433
3180	0.6449
3171	0.6462
3162	0.6478
3153	0.6493
3144	0.651
3135	0.653
3126	0.6539
3117	0.6545
3108	0.6554
3099	0.6558
3090	0.6508
3081	0.6478
3072	0.65
3063	0.6449
3054	0.6439
3045	0.6233
3036	0.6309
3027	0.6362
3018	0.6426
3009	0.6478
3000	0.6515
2991	0.6478
2982	0.6373
2973	0.6325
2964	0.6289
2955	0.6259
2946	0.6231
2937	0.6083
2928	0.5964
2919	0.6018
2910	0.6218
2901	0.6315
2892	0.6362
2883	0.6387
2874	0.6349
2865	0.634
2856	0.6349
2847	0.6468
2838	0.6637
2829	0.6728
2820	0.6801
2811	0.6848
2802	0.6885
2793	0.6912
2784	0.6945
2775	0.6981
2766	0.7015
2757	0.7045
2748	0.7051
2739	0.7056
2730	0.7058
2721	0.7061
2712	0.7081
2703	0.7099
2694	0.7126
2685	0.7156
2676	0.7185
2667	0.7212
2658	0.723
2649	0.7245
2640	0.7253
2631	0.726
2622	0.7267
2613	0.7271
2604	0.7278
2595	0.728
2586	0.7281
2577	0.7283
2568	0.7286
2559	0.7298
2550	0.731
2541	0.7321
2532	0.7325
2523	0.7331
2514	0.7336
2505	0.7341
2496	0.7342
2487	0.7341
2478	0.7341
2469	0.7339
2460	0.7334
2451	0.7326
2442	0.7315
2433	0.7297
2424	0.7271
2415	0.7245
2406	0.7239
2397	0.7234
2388	0.7233
2379	0.7225
2370	0.7211
2361	0.7188
2352	0.7158
2343	0.7125
2334	0.7112
2325	0.7094
2316	0.7121
2307	0.7158
2298	0.72
2289	0.723
2280	0.7257
2271	0.7274
2262	0.7278
2253	0.7292
2244	0.7318
2235	0.7358
2226	0.7419
2217	0.7498
2208	0.7557
2199	0.7608
2190	0.7658
2181	0.7707
2172	0.7751
2163	0.7775
2154	0.7796
2145	0.7815
2136	0.7843
2127	0.7869
2118	0.7898
2109	0.7921
2100	0.7946
2091	0.7964
2082	0.7971
2073	0.7984
2064	0.8021
2055	0.8058
2046	0.8086
2037	0.811
2028	0.8133
2019	0.8149
2010	0.8172
2001	0.8254
1992	0.847
1983	0.8492
1974	0.8518
1965	0.8603
1956	0.8653
1947	0.8585
1938	0.8575
1929	0.856
1920	0.8316
1911	0.8441
1902	0.8502
1893	0.8528
1884	0.853
1875	0.8556
1866	0.8571
1857	0.8587
1848	0.8602
1839	0.8616
1830	0.8625
1821	0.8625
1812	0.8616
1803	0.8599
1794	0.8602
1785	0.8613
1776	0.8617
1767	0.8607
1758	0.8597
1749	0.8589
1740	0.8427
1731	0.8478
1722	0.8546
1713	0.8639
1704	0.8571
1695	0.8565
1686	0.8516
1677	0.8499
1668	0.8495
1659	0.8381
1650	0.8455
1641	0.8508
1632	0.8515
1623	0.8552
1614	0.8587
1605	0.7944
1596	0.8445
1587	0.8662
1578	0.8668
1569	0.8702
1560	0.8657
1551	0.8697
1542	0.8563
1533	0.8707
1524	0.8653
1515	0.8681
1506	0.8557
1497	0.7457
1488	0.8462
1479	0.8425
1470	0.7899
1461	0.7738
1452	0.7941
1443	0.8093
1434	0.811
1425	0.791
1416	0.7865
1407	0.7569
1398	0.6946
1389	0.753
1380	0.71
1371	0.7619
1362	0.7635
1353	0.7208
1344	0.6624
1335	0.6853
1326	0.6992
1317	0.6951
1308	0.6533
1299	0.6625
1290	0.6667
1281	0.6656
1272	0.6536
1263	0.6319
1254	0.6012
1245	0.553
1236	0.4854
1227	0.2761
1218	0.082
1209	0.0161
1200	0.0164
1191	0.0091
1182	0.057
1173	0.2674
1164	0.395
1155	0.4323
1146	0.4162
1137	0.2947
1128	0.0292
1119	0.2976
1110	0.3277
1101	0.5356
1092	0.6135
1083	0.6599
1074	0.6725
1065	0.68
1056	0.6778
1047	0.5586
1038	0.045
1029	0.6145
1020	0.6528
1011	0.2169
1002	0.6204
993	0.6985
984	0.7185
975	0.7244
966	0.7205
957	0.7384
948	0.7699
939	0.7983
930	0.8043
921	0.8105
912	0.8181
903	0.8231
894	0.8243
885	0.8216
876	0.8325
867	0.8328
858	0.8297
849	0.6891
840	0.813
831	0.8204
822	0.7236
813	0.2882
804	0.7033
795	0.8156
786	0.84
777	0.8428
768	0.8425
759	0.8375
750	0.8234
741	0.8183
732	0.7867
723	0.7251
714	0.7285
705	0.7735
696	0.4472
687	0.0248
678	0.5552
669	0.8334
660	0.8503
651	0.867
642	0.871
633	0.8656
624	0.7758
615	0.7291
606	0.8597
597	0.8437
588	0.7839
579	0.5177
570	0.0367
561	0.4653
552	0.6058
543	0.7941
534	0.833
525	0.8528
516	0.8666
507	0.8764
498	0.866
489	0.8775
480	0.9077
471	0.9128
462	0.912
453	0.909
444	0.9085
435	0.9096
426	0.9114
417	0.9141
408	0.9156
399	0.9113
390	0.9018
381	0.9045
