Infrared Spectrum: CALCIUM CARBONATE (CALCITE)
Formula: C O3 Ca
State: SOLID (0.3 mg / 300 mg CsI DISC)
Class: COBLENTZ III
Instrument: BECKMAN IR-12 (GRATING)
Instrument parameters: GRATING BLAZED AT 3330, 1330, 445, 220 CM^-^1
Sampling: TRANSMISSION
Resolution: 4
Origin: DESOTO CHEMICAL COATINGS, INC.
1/CM	TRANSMITTANCE
200	0.826
210.627	0.822
221.255	0.804
231.882	0.6301
242.509	0.7
253.137	0.762
263.764	0.773
274.391	0.758
285.019	0.706
295.646	0.572
306.273	0.444
316.901	0.285
327.528	0.273
338.155	0.365
348.783	0.417
359.41	0.441
370.037	0.5179
380.665	0.598
391.292	0.669
401.919	0.702
412.547	0.725
423.174	0.754
433.801	0.777
444.429	0.79
455.056	0.806
465.684	0.817
476.311	0.832
486.938	0.842
497.566	0.857
508.193	0.872
518.82	0.882
529.448	0.888
540.075	0.894
550.702	0.901
561.33	0.905
571.957	0.908
582.584	0.91
593.212	0.91
603.839	0.916
614.466	0.917
625.094	0.922
635.721	0.928
646.348	0.929
656.976	0.933
667.603	0.941
678.23	0.946
688.858	0.954
699.485	0.957
710.112	0.941
720.74	0.866
731.367	0.941
741.994	0.956
752.622	0.964
763.249	0.969
773.876	0.965
784.504	0.964
795.131	0.964
805.758	0.966
816.386	0.97
827.013	0.97
837.64	0.973
848.268	0.97
858.895	0.958
869.522	0.8221
880.15	0.561
890.777	0.844
901.404	0.9
912.032	0.918
922.659	0.925
933.286	0.928
943.914	0.928
954.541	0.929
965.169	0.926
975.796	0.924
986.423	0.918
997.051	0.908
1007.68	0.897
1018.31	0.888
1028.93	0.876
1039.56	0.869
1050.19	0.861
1060.81	0.85
1071.44	0.842
1082.07	0.837
1092.7	0.836
1103.32	0.833
1113.95	0.83
1124.58	0.832
1135.21	0.832
1145.83	0.836
1156.46	0.829
1167.09	0.822
1177.72	0.82
1188.34	0.818
1198.97	0.812
1209.6	0.808
1220.22	0.801
1230.85	0.79
1241.48	0.781
1252.11	0.772
1262.73	0.756
1273.36	0.742
1283.99	0.724
1294.62	0.702
1305.24	0.677
1315.87	0.65
1326.5	0.618
1337.13	0.584
1347.75	0.541
1358.38	0.492
1369.01	0.441
1379.63	0.3741
1390.26	0.289
1400.89	0.212
1411.52	0.118
1422.14	0.098
1432.77	0.106
1443.4	0.124
1454.03	0.149
1464.65	0.192
1475.28	0.252
1485.91	0.322
1496.54	0.38
1507.16	0.425
1517.79	0.469
1528.42	0.502
1539.04	0.537
1549.67	0.553
1560.3	0.584
1570.93	0.6
1581.55	0.61
1592.18	0.616
1602.81	0.621
1613.44	0.624
1624.06	0.633
1634.69	0.646
1645.32	0.657
1655.95	0.669
1666.57	0.676
1677.2	0.68
1687.83	0.682
1698.45	0.69
1709.08	0.697
1719.71	0.701
1730.34	0.706
1740.96	0.71
1751.59	0.714
1762.22	0.721
1772.85	0.728
1783.47	0.729
1794.1	0.71
1804.73	0.706
1815.36	0.72
1825.98	0.725
1836.61	0.732
1847.24	0.733
1857.87	0.74
1868.49	0.74
1879.12	0.737
1889.75	0.738
1900.37	0.741
1911	0.741
1921.63	0.742
1932.26	0.746
1942.88	0.745
1953.51	0.746
1964.14	0.748
1974.77	0.749
1985.39	0.749
1996.02	0.749
2006.65	0.746
2017.28	0.748
2027.9	0.746
2038.53	0.749
2049.16	0.749
2059.78	0.749
2070.41	0.75
2081.04	0.75
2091.67	0.7509
2102.29	0.753
2112.92	0.754
2123.55	0.754
2134.18	0.753
2144.8	0.7534
2155.43	0.754
2166.06	0.754
2176.69	0.7549
2187.31	0.756
2197.94	0.7536
2208.57	0.754
2219.19	0.756
2229.82	0.756
2240.45	0.756
2251.08	0.756
2261.7	0.756
2272.33	0.754
2282.96	0.754
2293.59	0.754
2304.21	0.7564
2314.84	0.7574
2325.47	0.7587
2336.1	0.7604
2346.72	0.761
2357.35	0.76
2367.98	0.76
2378.6	0.756
2389.23	0.757
2399.86	0.7573
2410.49	0.7577
2421.11	0.753
2431.74	0.7533
2442.37	0.754
2453	0.7533
2463.62	0.757
2474.25	0.756
2484.88	0.756
2495.51	0.756
2506.13	0.7511
2516.76	0.7374
2527.39	0.7287
2538.01	0.7253
2548.64	0.7306
2559.27	0.7346
2569.9	0.7363
2580.52	0.737
2591.15	0.7377
2601.78	0.737
2612.41	0.7373
2623.03	0.738
2633.66	0.74
2644.29	0.7402
2654.92	0.74
2665.54	0.742
2676.17	0.7418
2686.8	0.741
2697.42	0.741
2708.05	0.741
2718.68	0.741
2729.31	0.741
2739.93	0.741
2750.56	0.741
2761.19	0.741
2771.82	0.741
2782.44	0.74
2793.07	0.74
2803.7	0.738
2814.33	0.738
2824.95	0.738
2835.58	0.737
2846.21	0.7338
2856.84	0.729
2867.46	0.7237
2878.09	0.7205
2888.72	0.717
2899.34	0.718
2909.97	0.7169
2920.6	0.7129
2931.23	0.71
2941.85	0.712
2952.48	0.718
2963.11	0.7161
2973.74	0.718
2984.36	0.716
2994.99	0.716
3005.62	0.717
3016.25	0.7201
3026.87	0.721
3037.5	0.7207
3048.13	0.718
3058.75	0.721
3069.38	0.718
3080.01	0.717
3090.64	0.718
3101.26	0.718
3111.89	0.718
3122.52	0.7179
3133.15	0.716
3143.77	0.7161
3154.4	0.717
3165.03	0.7159
3175.66	0.713
3186.28	0.712
3196.91	0.709
3207.54	0.7061
3218.16	0.709
3228.79	0.706
3239.42	0.701
3250.05	0.702
3260.67	0.701
3271.3	0.698
3281.93	0.694
3292.56	0.692
3303.18	0.686
3313.81	0.685
3324.44	0.682
3335.07	0.682
3345.69	0.6741
3356.32	0.672
3366.95	0.665
3377.57	0.662
3388.2	0.6571
3398.83	0.652
3409.46	0.644
3420.08	0.6371
3430.71	0.636
3441.34	0.633
3451.97	0.632
3462.59	0.6291
3473.22	0.629
3483.85	0.63
3494.48	0.6318
3505.1	0.6357
3515.73	0.64
3526.36	0.6419
3536.98	0.644
3547.61	0.6489
3558.24	0.6518
3568.87	0.6579
3579.49	0.6645
3590.12	0.6677
3600.75	0.6699
3611.38	0.6757
3622	0.6779
3632.63	0.68
3643.26	0.682
3653.89	0.682
3664.51	0.684
3675.14	0.684
3685.77	0.6823
3696.39	0.681
3707.02	0.686
3717.65	0.6823
3728.28	0.682
3738.9	0.682
3749.53	0.682
3760.16	0.681
3770.79	0.682
3781.41	0.6812
3792.04	0.681
3802.67	0.6812
3813.3	0.68
3823.92	0.6808
3834.55	0.681
3845.18	0.6808
3855.81	0.678
3866.43	0.68
3877.06	0.6795
3887.69	0.677
3898.31	0.676
3908.94	0.676
3919.57	0.674
3930.2	0.673
3940.82	0.673
3951.45	0.672
3962.08	0.6705
3972.71	0.6715
3983.33	0.673
