Infrared Spectrum: Aniline, N-isobutyl-2-tert-butyl-
Formula: C14 H23 N
State: LIQUID (NEAT)
Class: COBLENTZ III
Instrument: BECKMAN IR-4 (HYBRID PRISM-GRATING)
Instrument parameters: NaCl PRISM
Sampling: TRANSMISSION
Path length: CAPILLARY
Resolution: 2
Origin: MONSANTO (J. FREEMAN)
1/CM	TRANSMITTANCE
4000	0.9124
3991	0.9125
3982	0.9125
3973	0.9127
3964	0.9128
3955	0.913
3946	0.913
3937	0.9132
3928	0.9136
3919	0.9139
3910	0.9144
3901	0.9147
3892	0.9152
3883	0.9155
3874	0.916
3865	0.9166
3856	0.9171
3847	0.9177
3838	0.9182
3829	0.9187
3820	0.9193
3811	0.9199
3802	0.9206
3793	0.9212
3784	0.9218
3775	0.9223
3766	0.9227
3757	0.9231
3748	0.9236
3739	0.9239
3730	0.9241
3721	0.9243
3712	0.9245
3703	0.9246
3694	0.9242
3685	0.9236
3676	0.9228
3667	0.9218
3658	0.9202
3649	0.9185
3640	0.9161
3631	0.9133
3622	0.9096
3613	0.9032
3604	0.8951
3595	0.8797
3586	0.8646
3577	0.8489
3568	0.8246
3559	0.7858
3550	0.7461
3541	0.7061
3532	0.6701
3523	0.6667
3514	0.6903
3505	0.7212
3496	0.7524
3487	0.7837
3478	0.8151
3469	0.8467
3460	0.8784
3451	0.9071
3442	0.9158
3433	0.9187
3424	0.9196
3415	0.9206
3406	0.9208
3397	0.9212
3388	0.9215
3379	0.9225
3370	0.9237
3361	0.9246
3352	0.9254
3343	0.9263
3334	0.927
3325	0.9277
3316	0.9283
3307	0.9286
3298	0.9291
3289	0.9295
3280	0.9298
3271	0.928
3262	0.9227
3253	0.9187
3244	0.9151
3235	0.9115
3226	0.9078
3217	0.9053
3208	0.9031
3199	0.9001
3190	0.8964
3181	0.8904
3172	0.8812
3163	0.8706
3154	0.8566
3145	0.8395
3136	0.8118
3127	0.7743
3118	0.7356
3109	0.6965
3100	0.6639
3091	0.6662
3082	0.6776
3073	0.6832
3064	0.6875
3055	0.6975
3046	0.6987
3037	0.6251
3028	0.5209
3019	0.4162
3010	0.3107
3001	0.2046
2992	0.098
2983	0.0722
2974	0.0729
2965	0.0913
2956	0.147
2947	0.2029
2938	0.2394
2929	0.2389
2920	0.2303
2911	0.2227
2902	0.2307
2893	0.2774
2884	0.385
2875	0.4936
2866	0.602
2857	0.6397
2848	0.6714
2839	0.715
2830	0.7589
2821	0.8031
2812	0.8473
2803	0.8668
2794	0.8717
2785	0.8728
2776	0.8714
2767	0.8671
2758	0.8699
2749	0.8815
2740	0.8975
2731	0.9173
2722	0.922
2713	0.9231
2704	0.9233
2695	0.9232
2686	0.9228
2677	0.9225
2668	0.9221
2659	0.922
2650	0.9218
2641	0.9216
2632	0.9216
2623	0.9218
2614	0.9221
2605	0.923
2596	0.9251
2587	0.9289
2578	0.934
2569	0.9367
2560	0.9382
2551	0.94
2542	0.9424
2533	0.9449
2524	0.9487
2515	0.9512
2506	0.9528
2497	0.954
2488	0.9553
2479	0.9566
2470	0.9573
2461	0.9571
2452	0.9568
2443	0.9567
2434	0.9564
2425	0.9562
2416	0.9597
2407	0.974
2398	0.98
2389	0.9803
2380	0.9805
2371	0.9797
2362	0.9773
2353	0.9715
2344	0.9668
2335	0.9642
2326	0.9618
2317	0.9621
2308	0.9627
2299	0.9643
2290	0.9662
2281	0.9671
2272	0.9678
2263	0.9682
2254	0.9681
2245	0.968
2236	0.9671
2227	0.9666
2218	0.9659
2209	0.9649
2200	0.9623
2191	0.9604
2182	0.962
2173	0.9675
2164	0.9694
2155	0.9692
2146	0.9693
2137	0.9697
2128	0.9702
2119	0.9708
2110	0.9715
2101	0.9717
2092	0.9717
2083	0.9718
2074	0.972
2065	0.9724
2056	0.973
2047	0.9738
2038	0.9747
2029	0.9751
2020	0.9751
2011	0.9748
2002	0.9745
1993	0.974
1984	0.9731
1975	0.9717
1966	0.9678
1957	0.961
1948	0.9528
1939	0.9444
1930	0.9411
1921	0.9452
1912	0.9381
1903	0.924
1894	0.9296
1885	0.948
1876	0.9482
1867	0.9515
1858	0.9549
1849	0.9584
1840	0.9623
1831	0.9636
1822	0.9594
1813	0.9557
1804	0.9593
1795	0.9574
1786	0.946
1777	0.9447
1768	0.9585
1759	0.967
1750	0.9678
1741	0.9659
1732	0.9614
1723	0.9559
1714	0.9527
1705	0.9477
1696	0.9358
1687	0.9241
1678	0.9201
1669	0.9194
1660	0.9168
1651	0.9092
1642	0.8856
1633	0.8398
1624	0.7076
1615	0.3879
1606	0.296
1597	0.5018
1588	0.2963
1579	0.7353
1570	0.8432
1561	0.8325
1552	0.7136
1543	0.5441
1534	0.3432
1525	0.14
1516	0.1218
1507	0.304
1498	0.4503
1489	0.301
1480	0.237
1471	0.2446
1462	0.1798
1453	0.1103
1444	0.2735
1435	0.5592
1426	0.7661
1417	0.7611
1408	0.6334
1399	0.4724
1390	0.6398
1381	0.533
1372	0.456
1363	0.8174
1354	0.8452
1345	0.8118
1336	0.6458
1327	0.397
1318	0.2097
1309	0.4326
1300	0.5264
1291	0.571
1282	0.675
1273	0.4577
1264	0.2533
1255	0.355
1246	0.4369
1237	0.5462
1228	0.8252
1219	0.8709
1210	0.8405
1201	0.6212
1192	0.7378
1183	0.7539
1174	0.5467
1165	0.5006
1156	0.6441
1147	0.8637
1138	0.8713
1129	0.7721
1120	0.8167
1111	0.8457
1102	0.5718
1093	0.8155
1084	0.8945
1075	0.7728
1066	0.7018
1057	0.3412
1048	0.8825
1039	0.9168
1030	0.8434
1021	0.8983
1012	0.9554
1003	0.9639
994	0.9712
985	0.9667
976	0.9532
967	0.9182
958	0.9189
949	0.9339
940	0.9128
931	0.8048
922	0.8551
913	0.9261
904	0.9373
895	0.9739
886	0.9828
877	0.9816
868	0.9558
859	0.912
850	0.9104
841	0.8435
832	0.9078
823	0.9237
814	0.8935
805	0.9182
796	0.9111
787	0.9175
778	0.9312
769	0.8959
760	0.7884
751	0.3045
742	0.0742
733	0.6232
724	0.8796
715	0.9158
706	0.9298
697	0.9401
688	0.9571
679	0.9596
670	0.9787
661	0.9882
652	1.0171
643	1.0157
634	1.0083
