Infrared Spectrum: AMMONIUM PHOSPHATE, DIBASIC
Formula: ( N H4)2 H P O4
State: SOLID (NUJOL ANF FLUOROLUBE MULLS)
Class: COBLENTZ
Instrument: Not specified, most likely a prism, grating, or hybrid spectrometer.
Sampling: TRANSMISSION
Resolution: 4
Origin: MELLON INSTITUTE
MICROMETERS	TRANSMITTANCE
2.035	0.843
2.07495	0.846
2.1149	0.848
2.15485	0.848
2.1948	0.853
2.23475	0.873
2.2747	0.878
2.31465	0.881
2.3546	0.885
2.39455	0.89
2.4345	0.896
2.47445	0.9
2.5144	0.903
2.55435	0.905
2.5943	0.906
2.63425	0.906
2.6742	0.906
2.71415	0.906
2.7541	0.908
2.79405	0.908
2.834	0.905
2.87395	0.89
2.9139	0.873
2.95385	0.838
2.9938	0.751
3.03375	0.636
3.0737	0.461
3.11365	0.366
3.1536	0.305
3.19355	0.226
3.23351	0.173
3.27346	0.136
3.31341	0.123
3.35336	0.113
3.39331	0.103
3.43326	0.086
3.47321	0.078
3.51316	0.078
3.55311	0.075
3.59306	0.1
3.63301	0.123
3.67296	0.161
3.71291	0.213
3.75286	0.246
3.79281	0.281
3.83276	0.326
3.87271	0.381
3.91266	0.425
3.95261	0.46
3.99256	0.48
4.03251	0.498
4.07246	0.506
4.11241	0.515
4.15236	0.523
4.19231	0.523
4.23226	0.526
4.27221	0.53
4.31216	0.53
4.35211	0.533
4.39206	0.543
4.43201	0.55
4.47196	0.55
4.51191	0.545
4.55186	0.543
4.59181	0.548
4.63176	0.551
4.67171	0.563
4.71166	0.58
4.75161	0.605
4.79156	0.631
4.83151	0.658
4.87146	0.66
4.91141	0.661
4.95136	0.663
4.99131	0.666
5.03126	0.665
5.07121	0.645
5.11116	0.618
5.15111	0.591
5.19106	0.581
5.23101	0.581
5.27096	0.59
5.31091	0.618
5.35086	0.628
5.39081	0.648
5.43076	0.678
5.47071	0.706
5.51066	0.731
5.55061	0.75
5.59056	0.763
5.63052	0.775
5.67047	0.785
5.71042	0.791
5.75037	0.788
5.79032	0.748
5.83027	0.693
5.87022	0.696
5.91017	0.735
5.95012	0.743
5.99007	0.766
6.03002	0.778
6.06997	0.788
6.10992	0.795
6.14987	0.801
6.18982	0.813
6.22977	0.835
6.26972	0.845
6.30967	0.845
6.34962	0.84
6.38957	0.831
6.42952	0.783
6.46947	0.73
6.50942	0.671
6.54937	0.558
6.58932	0.563
6.62927	0.556
6.66922	0.436
6.70917	0.288
6.74912	0.258
6.78907	0.195
6.82902	0.196
6.86897	0.253
6.90892	0.398
6.94887	0.543
6.98882	0.591
7.02877	0.516
7.06872	0.48
7.10867	0.615
7.14862	0.766
7.18857	0.83
7.22852	0.856
7.26847	0.876
7.30842	0.885
7.34837	0.893
7.38832	0.9
7.42827	0.908
7.46822	0.911
7.50817	0.92
7.54812	0.92
7.58807	0.918
7.62802	0.911
7.66797	0.916
7.70792	0.92
7.74787	0.915
7.78782	0.91
7.82777	0.911
7.86772	0.906
7.90767	0.898
7.94762	0.89
7.98757	0.883
8.02753	0.873
8.06748	0.863
8.10743	0.843
8.14738	0.8
8.18733	0.768
8.22728	0.75
8.26723	0.753
8.30718	0.75
8.34713	0.745
8.38708	0.763
8.42703	0.798
8.46698	0.823
8.50693	0.848
8.54688	0.853
8.58683	0.868
8.62678	0.868
8.66673	0.861
8.70668	0.858
8.74663	0.855
8.78658	0.851
8.82653	0.835
8.86648	0.818
8.90643	0.785
8.94638	0.738
8.98633	0.671
9.02628	0.616
9.06623	0.555
9.10618	0.478
9.14613	0.406
9.18608	0.36
9.22603	0.331
9.26598	0.31
9.30593	0.29
9.34588	0.275
9.38583	0.265
9.42578	0.256
9.46573	0.256
9.50568	0.263
9.54563	0.285
9.58558	0.333
9.62553	0.435
9.66548	0.475
9.70543	0.49
9.74538	0.505
9.78533	0.55
9.82528	0.596
9.86523	0.653
9.90518	0.676
9.94513	0.698
9.98508	0.723
10.025	0.743
10.065	0.753
10.1049	0.753
10.1449	0.745
10.1848	0.731
10.2248	0.681
10.2647	0.63
10.3047	0.538
10.3446	0.486
10.3846	0.43
10.4245	0.405
10.4645	0.383
10.5044	0.388
10.5444	0.428
10.5843	0.495
10.6243	0.598
10.6642	0.663
10.7042	0.718
10.7441	0.755
10.7841	0.776
10.824	0.79
10.864	0.803
10.9039	0.806
10.9439	0.798
10.9838	0.74
11.0238	0.668
11.0637	0.633
11.1037	0.623
11.1436	0.63
11.1836	0.65
11.2235	0.693
11.2635	0.728
11.3034	0.761
11.3434	0.781
11.3833	0.8
11.4233	0.813
11.4632	0.823
11.5032	0.828
11.5431	0.83
11.5831	0.83
11.623	0.828
11.663	0.823
11.7029	0.816
11.7429	0.815
11.7828	0.825
11.8228	0.84
11.8627	0.855
11.9027	0.871
11.9426	0.881
11.9826	0.891
12.0225	0.901
12.0625	0.906
12.1024	0.911
12.1424	0.918
12.1823	0.923
12.2223	0.92
12.2622	0.923
12.3022	0.928
12.3421	0.928
12.3821	0.928
12.422	0.928
12.462	0.93
12.5019	0.931
12.5419	0.93
12.5818	0.925
12.6218	0.925
12.6617	0.931
12.7017	0.928
12.7416	0.923
12.7816	0.93
12.8215	0.923
12.8615	0.923
12.9014	0.92
12.9414	0.92
12.9813	0.92
13.0213	0.918
13.0612	0.918
13.1012	0.913
13.1411	0.911
13.1811	0.905
13.221	0.908
13.261	0.903
13.3009	0.903
13.3409	0.903
13.3808	0.901
13.4208	0.896
13.4607	0.893
13.5007	0.89
13.5406	0.883
13.5806	0.883
13.6205	0.883
13.6605	0.876
13.7004	0.871
13.7404	0.871
13.7803	0.865
13.8203	0.861
13.8602	0.853
13.9002	0.851
13.9401	0.848
13.9801	0.843
14.0201	0.841
14.06	0.838
14.1	0.826
14.1399	0.816
14.1799	0.811
14.2198	0.803
14.2598	0.796
14.2997	0.79
14.3397	0.78
14.3796	0.77
14.4196	0.765
14.4595	0.763
14.4995	0.753
14.5394	0.748
14.5794	0.745
14.6193	0.74
14.6593	0.733
14.6992	0.728
14.7392	0.715
14.7791	0.703
14.8191	0.705
14.859	0.703
14.899	0.688
14.9389	0.676
14.9789	0.671
15.0188	0.668
15.0588	0.665
15.0987	0.656
15.1387	0.651
15.1786	0.646
15.2186	0.645
15.2585	0.643
15.2985	0.635
15.3384	0.631
15.3784	0.626
15.4183	0.625
15.4583	0.625
15.4982	0.621
15.5382	0.618
15.5781	0.616
15.6181	0.618
15.658	0.615
15.698	0.615
15.7379	0.62
15.7779	0.616
15.8178	0.613
15.8578	0.62
15.8977	0.621
15.9377	0.623
15.9776	0.623
