Infrared Spectrum: NOREPHEDRINE-o-(p-HYDROXYBENZOYL)BENZOATE
Formula: C23 H23 N O5
State: SOLID (OIL MULL)
Class: COBLENTZ III
Instrument: Not specified, most likely a prism spectrometer.
Instrument parameters: NaCl PRISM
Sampling: TRANSMISSION
Resolution: 2
Origin: SMITH KLINE & FRENCH LABS.
MICROMETERS	TRANSMITTANCE
2	0.778
2.03416	0.786
2.06832	0.798
2.10248	0.809
2.13664	0.809
2.17079	0.815
2.20495	0.829
2.23911	0.834
2.27327	0.833
2.30743	0.832
2.34159	0.833
2.37575	0.833
2.40991	0.841
2.44407	0.852
2.47822	0.851
2.51238	0.862
2.54654	0.869
2.5807	0.871
2.61486	0.876
2.64902	0.879
2.68318	0.881
2.71734	0.886
2.7515	0.888
2.78565	0.879
2.81981	0.87
2.85397	0.868
2.88813	0.862
2.92229	0.851
2.95645	0.84
2.99061	0.833
3.02477	0.8
3.05893	0.752
3.09308	0.65
3.12724	0.521
3.1614	0.342
3.19556	0.281
3.22972	0.294
3.26388	0.259
3.29804	0.282
3.3322	0.342
3.36635	0.335
3.40051	0.213
3.43467	0.1
3.46883	0.059
3.50299	0.183
3.53715	0.181
3.57131	0.392
3.60547	0.503
3.63963	0.532
3.67378	0.548
3.70794	0.561
3.7421	0.577
3.77626	0.588
3.81042	0.601
3.84458	0.603
3.87874	0.612
3.9129	0.648
3.94706	0.687
3.98121	0.689
4.01537	0.672
4.04953	0.695
4.08369	0.727
4.11785	0.736
4.15201	0.745
4.18617	0.766
4.22033	0.781
4.25449	0.788
4.28864	0.789
4.3228	0.798
4.35696	0.822
4.39112	0.834
4.42528	0.84
4.45944	0.844
4.4936	0.851
4.52776	0.857
4.56192	0.869
4.59607	0.874
4.63023	0.878
4.66439	0.88
4.69855	0.885
4.73271	0.89
4.76687	0.89
4.80103	0.879
4.83519	0.873
4.86935	0.869
4.9035	0.871
4.93766	0.869
4.97182	0.865
5.00598	0.864
5.04014	0.864
5.0743	0.865
5.10846	0.859
5.14262	0.867
5.17678	0.871
5.21093	0.869
5.24509	0.869
5.27925	0.87
5.31341	0.873
5.34757	0.879
5.38173	0.873
5.41589	0.871
5.45005	0.871
5.48421	0.871
5.51836	0.873
5.55252	0.876
5.58668	0.876
5.62084	0.874
5.655	0.87
5.68916	0.87
5.72332	0.871
5.75748	0.869
5.79163	0.862
5.82579	0.852
5.85995	0.849
5.89411	0.842
5.92827	0.824
5.96243	0.792
5.99659	0.741
6.03075	0.504
6.06491	0.352
6.09906	0.631
6.13322	0.623
6.16738	0.556
6.20154	0.455
6.2357	0.328
6.26986	0.218
6.30402	0.103
6.33818	0.089
6.37234	0.163
6.40649	0.08
6.44065	0.123
6.47481	0.286
6.50897	0.461
6.54313	0.608
6.57729	0.643
6.61145	0.44
6.64561	0.437
6.67977	0.577
6.71392	0.584
6.74808	0.388
6.78224	0.5
6.8164	0.432
6.85056	0.359
6.88472	0.289
6.91888	0.276
6.95304	0.421
6.9872	0.461
7.02135	0.443
7.05551	0.44
7.08967	0.458
7.12383	0.472
7.15799	0.349
7.19215	0.287
7.22631	0.181
7.26047	0.053
7.29463	0.05
7.32878	0.283
7.36294	0.49
7.3971	0.594
7.43126	0.62
7.46542	0.611
7.49958	0.659
7.53374	0.66
7.5679	0.623
7.60206	0.452
7.63621	0.269
7.67037	0.548
7.70453	0.565
7.73869	0.527
7.77285	0.39
7.80701	0.355
7.84117	0.38
7.87533	0.329
7.90949	0.171
7.94364	0.079
7.9778	0.275
8.01196	0.52
8.04612	0.648
8.08028	0.698
8.11444	0.737
8.1486	0.735
8.18276	0.694
8.21691	0.602
8.25107	0.531
8.28523	0.596
8.31939	0.624
8.35355	0.737
8.38771	0.794
8.42187	0.806
8.45603	0.81
8.49019	0.807
8.52434	0.704
8.5585	0.74
8.59266	0.699
8.62682	0.557
8.66098	0.407
8.69514	0.506
8.7293	0.487
8.76346	0.607
8.79762	0.717
8.83177	0.791
8.86593	0.815
8.90009	0.834
8.93425	0.84
8.96841	0.82
9.00257	0.786
9.03673	0.782
9.07089	0.785
9.10505	0.782
9.1392	0.713
9.17336	0.677
9.20752	0.719
9.24168	0.797
9.27584	0.832
9.31	0.835
9.34416	0.84
9.37832	0.842
9.41248	0.824
9.44663	0.797
9.48079	0.746
9.51495	0.64
9.54911	0.528
9.58327	0.647
9.61743	0.74
9.65159	0.75
9.68575	0.774
9.71991	0.743
9.75406	0.81
9.78822	0.835
9.82238	0.836
9.85654	0.836
9.8907	0.807
9.92486	0.805
9.95902	0.83
9.99318	0.844
10.0273	0.842
10.0615	0.839
10.0957	0.834
10.1298	0.803
10.164	0.76
10.1981	0.799
10.2323	0.839
10.2664	0.844
10.3006	0.852
10.3348	0.855
10.3689	0.828
10.4031	0.834
10.4372	0.841
10.4714	0.847
10.5056	0.85
10.5397	0.852
10.5739	0.851
10.608	0.833
10.6422	0.798
10.6764	0.685
10.7105	0.46
10.7447	0.479
10.7788	0.707
10.813	0.754
10.8471	0.772
10.8813	0.775
10.9155	0.769
10.9496	0.768
10.9838	0.799
11.0179	0.821
11.0521	0.821
11.0863	0.82
11.1204	0.812
11.1546	0.807
11.1887	0.801
11.2229	0.795
11.2571	0.78
11.2912	0.772
11.3254	0.772
11.3595	0.772
11.3937	0.772
11.4278	0.772
11.462	0.78
11.4962	0.782
11.5303	0.772
11.5645	0.771
11.5986	0.742
11.6328	0.665
11.667	0.495
11.7011	0.478
11.7353	0.592
11.7694	0.649
11.8036	0.707
11.8378	0.699
11.8719	0.646
11.9061	0.635
11.9402	0.657
11.9744	0.687
12.0085	0.714
12.0427	0.74
12.0769	0.734
12.111	0.704
12.1452	0.661
12.1793	0.637
12.2135	0.658
12.2477	0.66
12.2818	0.579
12.316	0.57
12.3501	0.619
12.3843	0.642
12.4185	0.664
12.4526	0.673
12.4868	0.681
12.5209	0.696
12.5551	0.707
12.5893	0.716
12.6234	0.724
12.6576	0.727
12.6917	0.727
12.7259	0.719
12.76	0.705
12.7942	0.638
12.8284	0.603
12.8625	0.652
12.8967	0.731
12.9308	0.762
12.965	0.775
12.9992	0.778
13.0333	0.775
13.0675	0.754
13.1016	0.706
13.1358	0.601
13.17	0.42
13.2041	0.472
13.2383	0.63
13.2724	0.71
13.3066	0.737
13.3407	0.747
13.3749	0.74
13.4091	0.707
13.4432	0.607
13.4774	0.442
13.5115	0.357
13.5457	0.469
13.5799	0.586
13.614	0.555
13.6482	0.483
13.6823	0.489
13.7165	0.643
13.7507	0.723
13.7848	0.745
13.819	0.762
13.8531	0.774
13.8873	0.777
13.9214	0.776
13.9556	0.788
13.9898	0.789
14.0239	0.789
14.0581	0.778
14.0922	0.764
14.1264	0.733
14.1606	0.681
14.1947	0.539
14.2289	0.49
14.263	0.531
14.2972	0.595
14.3314	0.584
14.3655	0.509
14.3997	0.52
14.4338	0.644
14.468	0.73
14.5021	0.746
14.5363	0.766
14.5705	0.77
14.6046	0.772
14.6388	0.774
14.6729	0.776
14.7071	0.777
14.7413	0.776
14.7754	0.771
14.8096	0.763
14.8437	0.753
14.8779	0.742
14.9121	0.733
14.9462	0.722
14.9804	0.711
15.0145	0.694
15.0487	0.705
15.0828	0.71
15.117	0.688
15.1512	0.637
15.1853	0.571
15.2195	0.544
15.2536	0.544
15.2878	0.576
15.322	0.632
