Infrared Spectrum: Armeen 2HT hydrochloride
Formula: C32-36 H68-76 Cl N
State: SOLID (KBr DISC, 0.9% WT.)
Class: COBLENTZ
Instrument: PERKIN-ELMER 157
Sampling: TRANSMISSION
Resolution: 2
Origin: BRITISH PETROLEUM CO. LTD., ENGLAND
1/CM	TRANSMITTANCE
667	1.001
676	0.976
685	0.9476
694	0.9078
703	0.8391
712	0.6584
721	0.2345
730	0.5517
739	0.7521
748	0.7905
757	0.7879
766	0.7686
775	0.7454
784	0.7396
793	0.7325
802	0.7973
811	0.7947
820	0.7831
829	0.7866
838	0.7733
847	0.7686
856	0.7601
865	0.7564
874	0.7367
883	0.6858
892	0.6889
901	0.747
910	0.7495
919	0.7487
928	0.7461
937	0.7401
946	0.729
955	0.7169
964	0.7032
973	0.7051
982	0.6988
991	0.6851
1000	0.6712
1009	0.6546
1018	0.6234
1027	0.613
1036	0.5594
1045	0.5615
1054	0.6207
1063	0.6211
1072	0.6326
1081	0.6657
1090	0.671
1099	0.6582
1108	0.6476
1117	0.6476
1126	0.6612
1135	0.6666
1144	0.6531
1153	0.6357
1162	0.6358
1171	0.6334
1180	0.6265
1189	0.6241
1198	0.6227
1207	0.6201
1216	0.6182
1225	0.6154
1234	0.6091
1243	0.6022
1252	0.5951
1261	0.5875
1270	0.5788
1279	0.5698
1288	0.5603
1297	0.5526
1306	0.5511
1315	0.5528
1324	0.5456
1333	0.5404
1342	0.5133
1351	0.5115
1360	0.5015
1369	0.4398
1378	0.4283
1387	0.4713
1396	0.46
1405	0.4056
1414	0.4133
1423	0.4073
1432	0.359
1441	0.2595
1450	0.1553
1459	0.059
1468	0.0398
1477	0.1802
1486	0.3733
1495	0.4261
1504	0.4555
1513	0.46
1522	0.4555
1531	0.4465
1540	0.4391
1549	0.438
1558	0.4386
1567	0.4396
1576	0.4343
1585	0.426
1594	0.3975
1603	0.4098
1612	0.4263
1621	0.4331
1630	0.4185
1639	0.3958
1648	0.4364
1657	0.4496
1666	0.455
1675	0.4615
1684	0.4617
1693	0.4616
1702	0.4619
1711	0.4627
1720	0.4645
1729	0.4718
1738	0.4726
1747	0.4729
1756	0.4723
1765	0.4716
1774	0.4708
1783	0.4701
1792	0.4658
1801	0.4633
1810	0.4623
1819	0.4596
1828	0.4516
1837	0.4444
1846	0.4396
1855	0.4385
1864	0.4383
1873	0.4379
1882	0.4379
1891	0.4379
1900	0.4378
1909	0.4378
1918	0.438
1927	0.4376
1936	0.4364
1945	0.4335
1954	0.4308
1963	0.4284
1972	0.4259
1981	0.4237
1990	0.4219
1999	0.4201
2008	0.4186
2017	0.4172
2026	0.4158
2035	0.4145
2044	0.412
2053	0.4094
2062	0.4073
2071	0.4053
2080	0.4033
2089	0.4015
2098	0.3998
2107	0.3978
2116	0.3945
2125	0.3888
2134	0.3834
2143	0.3802
2152	0.3791
2161	0.3784
2170	0.3776
2179	0.3764
2188	0.3752
2197	0.3736
2206	0.3714
2215	0.3688
2224	0.3643
2233	0.3561
2242	0.3509
2251	0.35
2260	0.349
2269	0.3467
2278	0.3399
2287	0.3337
2296	0.3252
2305	0.3125
2314	0.3034
2323	0.2958
2332	0.2866
2341	0.2751
2350	0.2645
2359	0.2599
2368	0.259
2377	0.2579
2386	0.2548
2395	0.2483
2404	0.2352
2413	0.2117
2422	0.1748
2431	0.1536
2440	0.1526
2449	0.1698
2458	0.1917
2467	0.2106
2476	0.2149
2485	0.2135
2494	0.2084
2503	0.2004
2512	0.1898
2521	0.1826
2530	0.1813
2539	0.181
2548	0.1803
2557	0.1785
2566	0.1701
2575	0.164
2584	0.1565
2593	0.15
2602	0.1428
2611	0.135
2620	0.1268
2629	0.1183
2638	0.1091
2647	0.0979
2656	0.0877
2665	0.0787
2674	0.0689
2683	0.0608
2692	0.0533
2701	0.0445
2710	0.0354
2719	0.0264
2728	0.0204
2737	0.0197
2746	0.0194
2755	0.0192
2764	0.0189
2773	0.0188
2782	0.0186
2791	0.0185
2800	0.0184
2809	0.0183
2818	0.0183
2827	0.0182
2836	0.0181
2845	0.0181
2854	0.0181
2863	0.0182
2872	0.0188
2881	0.0215
2890	0.0254
2899	0.0297
2908	0.0326
2917	0.0333
2926	0.0337
2935	0.034
2944	0.0342
2953	0.0345
2962	0.0352
2971	0.0408
2980	0.0525
2989	0.0596
2998	0.0656
3007	0.0732
3016	0.0792
3025	0.0844
3034	0.0912
3043	0.0991
3052	0.1039
3061	0.1095
3070	0.1133
3079	0.1152
3088	0.1171
3097	0.1187
3106	0.1202
3115	0.1215
3124	0.1227
3133	0.124
3142	0.1248
3151	0.1257
3160	0.1265
3169	0.1275
3178	0.1285
3187	0.1298
3196	0.1311
3205	0.1321
3214	0.1324
3223	0.1319
3232	0.1312
3241	0.1306
3250	0.1304
3259	0.1305
3268	0.1307
3277	0.1309
3286	0.1314
3295	0.1319
3304	0.1328
3313	0.1339
3322	0.1338
3331	0.133
3340	0.132
3349	0.1314
3358	0.1317
3367	0.132
3376	0.1326
3385	0.1338
3394	0.135
3403	0.1355
3412	0.1353
3421	0.1349
3430	0.1342
3439	0.1335
3448	0.1328
3457	0.1321
3466	0.1314
3475	0.1307
3484	0.13
3493	0.1297
3502	0.1296
3511	0.1296
3520	0.1297
3529	0.1298
3538	0.1299
3547	0.1294
3556	0.1282
3565	0.1269
3574	0.1254
3583	0.1239
3592	0.1229
3601	0.1223
3610	0.1216
3619	0.121
3628	0.121
3637	0.1212
3646	0.1213
3655	0.1215
3664	0.1216
3673	0.1217
3682	0.1217
3691	0.1217
3700	0.1218
3709	0.1218
3718	0.1218
3727	0.1217
3736	0.1216
3745	0.1215
3754	0.1213
3763	0.1212
3772	0.121
3781	0.1209
3790	0.1207
3799	0.1205
3808	0.1202
3817	0.1198
3826	0.1194
3835	0.1179
3844	0.1161
3853	0.1137
3862	0.1113
3871	0.1093
3880	0.1074
3889	0.1057
3898	0.1046
3907	0.1035
3916	0.1024
3925	0.1015
3934	0.1011
3943	0.1007
3952	0.1002
3961	0.0997
3970	0.0991
3979	0.0986
3988	0.098
3997	0.0976
