Infrared Spectrum: MONOBROMOPENTABORANE
Formula: B5 H8 Br
State: SOLUTION (CS2 SOLUTION VS. SOLVENT);
Class: COBLENTZ
Instrument: Not specified, most likely a prism, grating, or hybrid spectrometer.
Sampling: TRANSMISSION
Resolution: 4
Origin: KALLERY CHEMICAL COMPANY
MICROMETERS	TRANSMITTANCE
2.034	0.906
2.06776	0.906
2.10153	0.904
2.13529	0.903
2.16906	0.901
2.20282	0.899
2.23659	0.899
2.27035	0.899
2.30412	0.898
2.33788	0.898
2.37165	0.896
2.40541	0.896
2.43917	0.894
2.47294	0.893
2.5067	0.891
2.54047	0.888
2.57423	0.888
2.608	0.888
2.64176	0.886
2.67553	0.881
2.70929	0.878
2.74305	0.878
2.77682	0.874
2.81058	0.864
2.84435	0.858
2.87811	0.851
2.91188	0.848
2.94564	0.841
2.97941	0.833
3.01317	0.818
3.04694	0.804
3.0807	0.792
3.11446	0.789
3.14823	0.797
3.18199	0.808
3.21576	0.813
3.24952	0.821
3.28329	0.831
3.31705	0.841
3.35082	0.846
3.38458	0.851
3.41834	0.854
3.45211	0.858
3.48587	0.859
3.51964	0.856
3.5534	0.853
3.58717	0.851
3.62093	0.851
3.6547	0.849
3.68846	0.844
3.72223	0.831
3.75599	0.711
3.78975	0.395
3.82352	0.195
3.85728	0.474
3.89105	0.739
3.92481	0.792
3.95858	0.821
3.99234	0.834
4.02611	0.836
4.05987	0.836
4.09363	0.833
4.1274	0.833
4.16116	0.836
4.19493	0.841
4.22869	0.846
4.26246	0.848
4.29622	0.846
4.32999	0.844
4.36375	0.839
4.39752	0.841
4.43128	0.846
4.46504	0.844
4.49881	0.841
4.53257	0.843
4.56634	0.843
4.6001	0.833
4.63387	0.829
4.66763	0.833
4.7014	0.838
4.73516	0.843
4.76892	0.841
4.80269	0.843
4.83645	0.843
4.87022	0.839
4.90398	0.838
4.93775	0.838
4.97151	0.834
5.00528	0.833
5.03904	0.833
5.07281	0.831
5.10657	0.828
5.14033	0.824
5.1741	0.821
5.20786	0.816
5.24163	0.801
5.27539	0.792
5.30916	0.792
5.34292	0.784
5.37669	0.754
5.41045	0.672
5.44422	0.619
5.47798	0.691
5.51174	0.667
5.54551	0.636
5.57927	0.624
5.61304	0.712
5.6468	0.744
5.68057	0.786
5.71433	0.797
5.7481	0.797
5.78186	0.792
5.81562	0.794
5.84939	0.796
5.88315	0.786
5.91692	0.792
5.95068	0.797
5.98445	0.801
6.01821	0.801
6.05198	0.794
6.08574	0.779
6.11951	0.769
6.15327	0.762
6.18703	0.749
6.2208	0.747
6.25456	0.756
6.28833	0.759
6.32209	0.762
6.35586	0.762
6.38962	0.761
6.42339	0.761
6.45715	0.761
6.49091	0.761
6.52468	0.759
6.55844	0.759
6.59221	0.759
6.62597	0.759
6.65974	0.757
6.6935	0.757
6.72727	0.756
6.76103	0.757
6.7948	0.757
6.82856	0.752
6.86232	0.749
6.89609	0.746
6.92985	0.652
6.96362	0.373
6.99738	0.262
7.03115	0.29
7.06491	0.484
7.09868	0.484
7.13244	0.447
7.1662	0.422
7.19997	0.387
7.23373	0.347
7.2675	0.353
7.30126	0.407
7.33503	0.495
7.36879	0.57
7.40256	0.609
7.43632	0.632
7.47009	0.637
7.50385	0.651
7.53761	0.662
7.57138	0.667
7.60514	0.669
7.63891	0.662
7.67267	0.661
7.70644	0.662
7.7402	0.664
7.77397	0.666
7.80773	0.667
7.8415	0.664
7.87526	0.662
7.90902	0.666
7.94279	0.669
7.97655	0.677
8.01032	0.687
8.04408	0.702
8.07785	0.712
8.11161	0.721
8.14538	0.727
8.17914	0.729
8.2129	0.719
8.24667	0.679
8.28043	0.624
8.3142	0.574
8.34796	0.514
8.38173	0.514
8.41549	0.544
8.44926	0.575
8.48302	0.597
8.51679	0.584
8.55055	0.537
8.58431	0.495
8.61808	0.467
8.65184	0.454
8.68561	0.452
8.71937	0.385
8.75314	0.28
8.7869	0.222
8.82067	0.32
8.85443	0.512
8.88819	0.587
8.92196	0.644
8.95572	0.674
8.98949	0.687
9.02325	0.692
9.05702	0.701
9.09078	0.709
9.12455	0.714
9.15831	0.719
9.19208	0.722
9.22584	0.724
9.2596	0.727
9.29337	0.729
9.32713	0.729
9.3609	0.729
9.39466	0.727
9.42843	0.714
9.46219	0.677
9.49596	0.624
9.52972	0.5
9.56348	0.574
9.59725	0.632
9.63101	0.704
9.66478	0.736
9.69854	0.742
9.73231	0.711
9.76607	0.674
9.79984	0.696
9.8336	0.726
9.86737	0.749
9.90113	0.759
9.93489	0.764
9.96866	0.767
10.0024	0.767
10.0362	0.767
10.07	0.769
10.1037	0.771
10.1375	0.771
10.1712	0.774
10.205	0.772
10.2388	0.771
10.2725	0.769
10.3063	0.764
10.3401	0.761
10.3738	0.761
10.4076	0.761
10.4414	0.761
10.4751	0.761
10.5089	0.762
10.5427	0.761
10.5764	0.762
10.6102	0.762
10.6439	0.764
10.6777	0.762
10.7115	0.761
10.7452	0.752
10.779	0.742
10.8128	0.727
10.8465	0.704
10.8803	0.664
10.9141	0.577
10.9478	0.46
10.9816	0.342
11.0154	0.262
11.0491	0.233
11.0829	0.242
11.1167	0.318
11.1504	0.437
11.1842	0.502
11.2179	0.585
11.2517	0.634
11.2855	0.629
11.3192	0.58
11.353	0.52
11.3868	0.51
11.4205	0.547
11.4543	0.59
11.4881	0.592
11.5218	0.487
11.5556	0.407
11.5894	0.417
11.6231	0.358
11.6569	0.469
11.6906	0.564
11.7244	0.657
11.7582	0.712
11.7919	0.729
11.8257	0.746
11.8595	0.749
11.8932	0.756
11.927	0.759
11.9608	0.761
11.9945	0.761
12.0283	0.762
12.0621	0.762
12.0958	0.762
12.1296	0.762
12.1634	0.762
12.1971	0.762
12.2309	0.762
12.2646	0.761
12.2984	0.761
12.3322	0.761
12.3659	0.759
12.3997	0.757
12.4335	0.757
12.4672	0.754
12.501	0.752
12.5348	0.751
12.5685	0.747
12.6023	0.744
12.6361	0.741
12.6698	0.736
12.7036	0.734
12.7373	0.734
12.7711	0.732
12.8049	0.732
12.8386	0.729
12.8724	0.724
12.9062	0.721
12.9399	0.714
12.9737	0.699
13.0075	0.679
13.0412	0.651
13.075	0.601
13.1088	0.544
13.1425	0.497
13.1763	0.444
13.2101	0.414
13.2438	0.482
13.2776	0.542
13.3113	0.589
13.3451	0.624
13.3789	0.649
13.4126	0.662
13.4464	0.671
13.4802	0.677
13.5139	0.679
13.5477	0.681
13.5815	0.681
13.6152	0.684
13.649	0.682
13.6828	0.679
13.7165	0.679
13.7503	0.677
13.784	0.677
13.8178	0.679
13.8516	0.682
13.8853	0.681
13.9191	0.681
13.9529	0.681
13.9866	0.684
14.0204	0.689
14.0542	0.691
14.0879	0.692
14.1217	0.696
14.1555	0.699
14.1892	0.704
14.223	0.707
14.2568	0.709
14.2905	0.711
14.3243	0.712
14.358	0.712
14.3918	0.714
14.4256	0.716
14.4593	0.714
14.4931	0.716
14.5269	0.712
14.5606	0.712
14.5944	0.711
14.6282	0.707
14.6619	0.704
14.6957	0.702
14.7295	0.699
14.7632	0.696
14.797	0.691
14.8307	0.686
14.8645	0.684
14.8983	0.686
14.932	0.701
