Infrared Spectrum: 5-NITRO-O-CRESOL
Formula: C7 H7 N3 O
State: SOLUTION (3% CHCl3)
Class: COBLENTZ
Instrument: Not specified, most likely a prism, grating, or hybrid spectrometer.
Sampling: TRANSMISSION
Path length: 0.009 CM
Resolution: 4
MICROMETERS	TRANSMITTANCE
1.95	0.954
1.98564	0.954
2.02127	0.954
2.05691	0.953
2.09254	0.951
2.12818	0.949
2.16381	0.947
2.19945	0.949
2.23509	0.949
2.27072	0.946
2.30636	0.944
2.34199	0.944
2.37763	0.942
2.41326	0.942
2.4489	0.94
2.48454	0.94
2.52017	0.94
2.55581	0.939
2.59144	0.939
2.62708	0.933
2.66271	0.932
2.69835	0.928
2.73399	0.907
2.76962	0.754
2.80526	0.831
2.84089	0.859
2.87653	0.852
2.91216	0.827
2.9478	0.813
2.98344	0.794
3.01907	0.773
3.05471	0.765
3.09034	0.779
3.12598	0.8
3.16162	0.815
3.19725	0.833
3.23289	0.845
3.26852	0.826
3.30416	0.845
3.33979	0.862
3.37543	0.871
3.41107	0.873
3.4467	0.886
3.48234	0.892
3.51797	0.9
3.55361	0.902
3.58924	0.902
3.62488	0.902
3.66052	0.902
3.69615	0.904
3.73179	0.904
3.76742	0.906
3.80306	0.906
3.83869	0.907
3.87433	0.911
3.90997	0.913
3.9456	0.911
3.98124	0.911
4.01687	0.911
4.05251	0.909
4.08814	0.907
4.12378	0.906
4.15942	0.907
4.19505	0.913
4.23069	0.914
4.26632	0.913
4.30196	0.913
4.33759	0.914
4.37323	0.914
4.40887	0.916
4.4445	0.916
4.48014	0.916
4.51577	0.918
4.55141	0.916
4.58704	0.918
4.62268	0.918
4.65832	0.918
4.69395	0.918
4.72959	0.918
4.76522	0.918
4.80086	0.918
4.83649	0.918
4.87213	0.918
4.90777	0.916
4.9434	0.916
4.97904	0.916
5.01467	0.914
5.05031	0.913
5.08594	0.911
5.12158	0.911
5.15722	0.911
5.19285	0.911
5.22849	0.909
5.26412	0.909
5.29976	0.913
5.3354	0.913
5.37103	0.913
5.40667	0.914
5.4423	0.914
5.47794	0.913
5.51357	0.911
5.54921	0.914
5.58485	0.914
5.62048	0.906
5.65612	0.9
5.69175	0.899
5.72739	0.899
5.76302	0.899
5.79866	0.899
5.8343	0.899
5.86993	0.899
5.90557	0.899
5.9412	0.899
5.97684	0.899
6.01247	0.893
6.04811	0.886
6.08375	0.88
6.11938	0.867
6.15502	0.838
6.19065	0.81
6.22629	0.76
6.26192	0.833
6.29756	0.852
6.3332	0.845
6.36883	0.794
6.40447	0.78
6.4401	0.782
6.47574	0.737
6.51137	0.434
6.54701	0.139
6.58265	0.186
6.61828	0.358
6.65392	0.631
6.68955	0.707
6.72519	0.758
6.76082	0.794
6.79646	0.817
6.8321	0.812
6.86773	0.775
6.90337	0.763
6.939	0.768
6.97464	0.765
7.01027	0.723
7.04591	0.629
7.08155	0.667
7.11718	0.786
7.15282	0.798
7.18845	0.794
7.22409	0.74
7.25972	0.68
7.29536	0.737
7.331	0.697
7.36663	0.53
7.40227	0.252
7.4379	0.163
7.47354	0.354
7.50917	0.594
7.54481	0.697
7.58045	0.753
7.61608	0.763
7.65172	0.768
7.68735	0.76
7.72299	0.751
7.75863	0.772
7.79426	0.775
7.8299	0.732
7.86553	0.716
7.90117	0.6
7.9368	0.511
7.97244	0.514
8.00808	0.633
8.04371	0.7
8.07935	0.713
8.11498	0.726
8.15062	0.704
8.18625	0.686
8.22189	0.704
8.25753	0.713
8.29316	0.716
8.3288	0.721
8.36443	0.787
8.40007	0.813
8.4357	0.768
8.47134	0.721
8.50698	0.711
8.54261	0.697
8.57825	0.645
8.61388	0.636
8.64952	0.751
8.68515	0.817
8.72079	0.834
8.75643	0.848
8.79206	0.859
8.8277	0.86
8.86333	0.822
8.89897	0.751
8.9346	0.681
8.97024	0.699
9.00588	0.805
9.04151	0.841
9.07715	0.857
9.11278	0.855
9.14842	0.846
9.18405	0.772
9.21969	0.718
9.25533	0.784
9.29096	0.834
9.3266	0.846
9.36223	0.864
9.39787	0.871
9.4335	0.881
9.46914	0.899
9.50478	0.909
9.54041	0.895
9.57605	0.869
9.61168	0.798
9.64732	0.77
9.68295	0.794
9.71859	0.843
9.75423	0.885
9.78986	0.89
9.8255	0.89
9.86113	0.89
9.89677	0.878
9.93241	0.862
9.96804	0.852
10.0037	0.819
10.0393	0.812
10.0749	0.834
10.1106	0.864
10.1462	0.871
10.1819	0.883
10.2175	0.893
10.2531	0.895
10.2888	0.897
10.3244	0.897
10.36	0.897
10.3957	0.897
10.4313	0.897
10.4669	0.895
10.5026	0.89
10.5382	0.876
10.5738	0.853
10.6095	0.782
10.6451	0.784
10.6808	0.833
10.7164	0.871
10.752	0.885
10.7877	0.89
10.8233	0.893
10.8589	0.895
10.8946	0.895
10.9302	0.895
10.9658	0.895
11.0015	0.895
11.0371	0.893
11.0727	0.89
11.1084	0.885
11.144	0.881
11.1797	0.878
11.2153	0.867
11.2509	0.845
11.2866	0.8
11.3222	0.789
11.3578	0.772
11.3935	0.733
11.4291	0.697
11.4647	0.695
11.5004	0.706
11.536	0.772
11.5716	0.82
11.6073	0.846
11.6429	0.867
11.6786	0.878
11.7142	0.881
11.7498	0.881
11.7855	0.881
11.8211	0.881
11.8567	0.885
11.8924	0.885
11.928	0.89
11.9636	0.89
11.9993	0.881
12.0349	0.866
12.0705	0.853
12.1062	0.827
12.1418	0.772
12.1775	0.667
12.2131	0.42
12.2487	0.332
12.2844	0.608
12.32	0.73
12.3556	0.803
12.3913	0.833
12.4269	0.845
12.4625	0.841
12.4982	0.84
12.5338	0.845
12.5694	0.843
12.6051	0.846
12.6407	0.85
12.6764	0.852
12.712	0.85
12.7476	0.85
12.7833	0.857
12.8189	0.862
12.8545	0.866
12.8902	0.866
12.9258	0.867
12.9614	0.867
12.9971	0.86
13.0327	0.859
13.0683	0.86
13.104	0.867
13.1396	0.878
13.1753	0.886
13.2109	0.89
13.2465	0.892
13.2822	0.888
13.3178	0.885
13.3534	0.881
13.3891	0.883
13.4247	0.883
13.4603	0.883
13.496	0.88
13.5316	0.878
13.5673	0.88
13.6029	0.888
13.6385	0.89
13.6742	0.89
13.7098	0.886
13.7454	0.876
13.7811	0.874
13.8167	0.88
13.8523	0.873
13.888	0.864
13.9236	0.852
13.9592	0.85
13.9949	0.848
14.0305	0.85
14.0662	0.848
14.1018	0.845
14.1374	0.843
14.1731	0.841
14.2087	0.843
14.2443	0.85
14.28	0.852
14.3156	0.853
14.3512	0.853
14.3869	0.853
14.4225	0.852
14.4581	0.85
14.4938	0.855
14.5294	0.864
14.5651	0.862
14.6007	0.864
14.6363	0.862
14.672	0.867
14.7076	0.869
14.7432	0.862
14.7789	0.859
14.8145	0.855
14.8501	0.857
14.8858	0.862
14.9214	0.862
14.957	0.853
14.9927	0.829
15.0283	0.819
15.064	0.819
15.0996	0.836
15.1352	0.846
15.1709	0.86
15.2065	0.864
15.2421	0.867
15.2778	0.869
15.3134	0.873
15.349	0.873
15.3847	0.871
