Infrared Spectrum: 1-Piperazine ethanol, 4-[3-(2-trifluoromethyl-10-phenoxazinyl)propyl]-, dihydrochloride
Formula: C22 H28 Cl2 F3 N3 O2
State: SOLID (KBr DISC)
Class: COBLENTZ III
Instrument: PERKIN-ELMER 21 (GRATING)
Instrument parameters: NaCl PRISM
Sampling: TRANSMISSION
Resolution: 2
Origin: SMITH KLINE & FRENCH LABS.
1/CM	TRANSMITTANCE
651	0.5873
660	0.6613
669	0.6677
678	0.5854
687	0.73
696	0.7437
705	0.707
714	0.661
723	0.6351
732	0.2804
741	0.2946
750	0.5898
759	0.6683
768	0.7607
777	0.7672
786	0.773
795	0.7396
804	0.4749
813	0.5401
822	0.6365
831	0.711
840	0.6096
849	0.3851
858	0.5581
867	0.7466
876	0.7553
885	0.7227
894	0.6561
903	0.6375
912	0.6494
921	0.5976
930	0.4749
939	0.5215
948	0.373
957	0.3601
966	0.6395
975	0.7295
984	0.6978
993	0.6225
1002	0.5005
1011	0.4852
1020	0.5615
1029	0.5501
1038	0.3914
1047	0.4397
1056	0.3734
1065	0.2461
1074	0.1301
1083	0.1428
1092	0.1021
1101	0.1603
1110	0.2152
1119	0.2721
1128	0.2507
1137	0.1133
1146	0.2227
1155	0.2421
1164	0.3887
1173	0.5273
1182	0.5743
1191	0.5866
1200	0.4928
1209	0.5058
1218	0.5479
1227	0.3814
1236	0.5063
1245	0.4246
1254	0.3162
1263	0.122
1272	0.1017
1281	0.1882
1290	0.3562
1299	0.3638
1308	0.1776
1317	0.1932
1326	0.1106
1335	0.2904
1344	0.2521
1353	0.3676
1362	0.4254
1371	0.2861
1380	0.2529
1389	0.3523
1398	0.4246
1407	0.4803
1416	0.4694
1425	0.4033
1434	0.3235
1443	0.2227
1452	0.0994
1461	0.2309
1470	0.3517
1479	0.4548
1488	0.3837
1497	0.1767
1506	0.0997
1515	0.1761
1524	0.4324
1533	0.5214
1542	0.6184
1551	0.728
1560	0.7397
1569	0.7334
1578	0.7007
1587	0.6678
1596	0.6014
1605	0.5731
1614	0.6134
1623	0.5966
1632	0.544
1641	0.4783
1650	0.5529
1659	0.6344
1668	0.7373
1677	0.7688
1686	0.7925
1695	0.8092
1704	0.8179
1713	0.8229
1722	0.8266
1731	0.8296
1740	0.8317
1749	0.8342
1758	0.8404
1767	0.8489
1776	0.8548
1785	0.8574
1794	0.8584
1803	0.858
1812	0.8566
1821	0.8497
1830	0.8366
1839	0.8287
1848	0.8258
1857	0.8242
1866	0.8229
1875	0.8218
1884	0.8207
1893	0.8197
1902	0.8175
1911	0.8145
1920	0.8121
1929	0.8133
1938	0.8125
1947	0.8077
1956	0.8021
1965	0.7964
1974	0.7907
1983	0.7855
1992	0.7807
2001	0.7763
2010	0.7719
2019	0.7677
2028	0.7636
2037	0.7597
2046	0.7568
2055	0.7552
2064	0.7537
2073	0.749
2082	0.7421
2091	0.7356
2100	0.7294
2109	0.7226
2118	0.7151
2127	0.7084
2136	0.7039
2145	0.6999
2154	0.6911
2163	0.6726
2172	0.6551
2181	0.6391
2190	0.6254
2199	0.6126
2208	0.6038
2217	0.5954
2226	0.583
2235	0.5665
2244	0.5498
2253	0.5335
2262	0.5252
2271	0.5184
2280	0.4939
2289	0.4797
2298	0.4686
2307	0.4436
2316	0.4
2325	0.3589
2334	0.3328
2343	0.2951
2352	0.2672
2361	0.2577
2370	0.2488
2379	0.2388
2388	0.2302
2397	0.222
2406	0.2139
2415	0.2077
2424	0.2052
2433	0.2092
2442	0.2173
2451	0.2264
2460	0.2373
2469	0.245
2478	0.2477
2487	0.2493
2496	0.251
2505	0.2542
2514	0.2571
2523	0.2591
2532	0.2611
2541	0.2778
2550	0.281
2559	0.2913
2568	0.3129
2577	0.3319
2586	0.3532
2595	0.3743
2604	0.3842
2613	0.3835
2622	0.3832
2631	0.3831
2640	0.3891
2649	0.418
2658	0.4572
2667	0.468
2676	0.4804
2685	0.4934
2694	0.5134
2703	0.5335
2712	0.5516
2721	0.5654
2730	0.579
2739	0.5924
2748	0.6067
2757	0.6269
2766	0.6316
2775	0.6315
2784	0.628
2793	0.6243
2802	0.618
2811	0.6097
2820	0.5982
2829	0.5844
2838	0.5761
2847	0.5685
2856	0.5553
2865	0.5149
2874	0.4794
2883	0.467
2892	0.4612
2901	0.4601
2910	0.4603
2919	0.4613
2928	0.4628
2937	0.4651
2946	0.4694
2955	0.4858
2964	0.5191
2973	0.5212
2982	0.5215
2991	0.5217
3000	0.5236
3009	0.5334
3018	0.5682
3027	0.5773
3036	0.5812
3045	0.5819
3054	0.5822
3063	0.5824
3072	0.5824
3081	0.5823
3090	0.5818
3099	0.5803
3108	0.577
3117	0.5719
3126	0.5629
3135	0.5554
3144	0.547
3153	0.5182
3162	0.4871
3171	0.4561
3180	0.4252
3189	0.3946
3198	0.3641
3207	0.3339
3216	0.302
3225	0.2786
3234	0.2602
3243	0.2357
3252	0.2144
3261	0.2111
3270	0.2105
3279	0.2119
3288	0.2151
3297	0.222
3306	0.2304
3315	0.2349
3324	0.2364
3333	0.2367
3342	0.2365
3351	0.2356
3360	0.234
3369	0.2319
3378	0.2266
3387	0.2188
3396	0.2152
3405	0.2148
3414	0.215
3423	0.2162
3432	0.2206
3441	0.2262
3450	0.2361
3459	0.2444
3468	0.2476
3477	0.2498
3486	0.2582
3495	0.2837
3504	0.3306
3513	0.3546
3522	0.3811
3531	0.4073
3540	0.4335
3549	0.4595
3558	0.4911
3567	0.5343
3576	0.5644
3585	0.5821
3594	0.5992
3603	0.6131
3612	0.6263
3621	0.6607
3630	0.6879
3639	0.6961
3648	0.7006
3657	0.7022
3666	0.7028
3675	0.7031
3684	0.7034
3693	0.7035
3702	0.7035
3711	0.7039
3720	0.7044
3729	0.7053
3738	0.7068
3747	0.7089
3756	0.7104
3765	0.7099
3774	0.7091
3783	0.7082
3792	0.7064
3801	0.7035
3810	0.7003
3819	0.6973
3828	0.6945
3837	0.692
3846	0.6917
3855	0.692
3864	0.692
3873	0.6921
3882	0.692
3891	0.6917
3900	0.6912
3909	0.6899
3918	0.6878
3927	0.6853
3936	0.6821
3945	0.6815
3954	0.6812
3963	0.6814
3972	0.6816
3981	0.6802
3990	0.6762
3999	0.6709
