Infrared Spectrum: PYRIDINE BORANE
Formula: C5 H8 N B
State: LIQUID
Class: COBLENTZ
Instrument: Not specified, most likely a prism, grating, or hybrid spectrometer.
Sampling: TRANSMISSION
Path length: 0.003 CM
Resolution: 4
Origin: WYANDOTTE CHEMICALS CORP., WYANDOTTE, MICHIGAN, USA
MICROMETERS	TRANSMITTANCE
2.012	0.943
2.05179	0.935
2.09158	0.938
2.13137	0.94
2.17115	0.945
2.21094	0.953
2.25073	0.958
2.29052	0.931
2.33031	0.933
2.3701	0.943
2.40989	0.948
2.44968	0.958
2.48946	0.963
2.52925	0.96
2.56904	0.95
2.60883	0.958
2.64862	0.96
2.68841	0.966
2.7282	0.961
2.76799	0.946
2.80777	0.936
2.84756	0.935
2.88735	0.925
2.92714	0.915
2.96693	0.918
3.00672	0.921
3.04651	0.911
3.0863	0.888
3.12608	0.873
3.16587	0.828
3.20566	0.73
3.24545	0.697
3.28524	0.836
3.32503	0.865
3.36482	0.853
3.4046	0.873
3.44439	0.886
3.48418	0.885
3.52397	0.895
3.56376	0.921
3.60355	0.928
3.64334	0.928
3.68313	0.923
3.72291	0.918
3.7627	0.913
3.80249	0.905
3.84228	0.885
3.88207	0.861
3.92186	0.831
3.96165	0.792
4.00144	0.73
4.04122	0.648
4.08101	0.53
4.1208	0.354
4.16059	0.193
4.20038	0.046
4.24017	0.034
4.27996	0.049
4.31975	0.066
4.35953	0.063
4.39932	0.081
4.43911	0.114
4.4789	0.206
4.51869	0.48
4.55848	0.713
4.59827	0.782
4.63805	0.801
4.67784	0.855
4.71763	0.858
4.75742	0.84
4.79721	0.795
4.837	0.783
4.87679	0.866
4.91658	0.901
4.95636	0.898
4.99615	0.885
5.03594	0.885
5.07573	0.901
5.11552	0.908
5.15531	0.89
5.1951	0.9
5.23489	0.915
5.27467	0.92
5.31446	0.903
5.35425	0.881
5.39404	0.83
5.43383	0.851
5.47362	0.91
5.51341	0.938
5.5532	0.941
5.59298	0.956
5.63277	0.963
5.67256	0.958
5.71235	0.951
5.75214	0.926
5.79193	0.92
5.83172	0.92
5.8715	0.923
5.91129	0.921
5.95108	0.906
5.99087	0.898
6.03066	0.873
6.07045	0.818
6.11024	0.45
6.15003	0.53
6.18981	0.845
6.2296	0.85
6.26939	0.787
6.30918	0.853
6.34897	0.9
6.38876	0.898
6.42855	0.906
6.46834	0.9
6.50812	0.893
6.54791	0.866
6.5877	0.846
6.62749	0.772
6.66728	0.452
6.70707	0.572
6.74686	0.663
6.78665	0.369
6.82643	0.194
6.86622	0.56
6.90601	0.618
6.9458	0.7
6.98559	0.732
7.02538	0.717
7.06517	0.688
7.10495	0.668
7.14474	0.705
7.18453	0.748
7.22432	0.763
7.26411	0.758
7.3039	0.765
7.34369	0.755
7.38348	0.682
7.42326	0.565
7.46305	0.757
7.50284	0.782
7.54263	0.775
7.58242	0.763
7.62221	0.757
7.662	0.737
7.70179	0.72
7.74157	0.698
7.78136	0.69
7.82115	0.702
7.86094	0.697
7.90073	0.668
7.94052	0.579
7.98031	0.612
8.0201	0.678
8.05988	0.693
8.09967	0.692
8.13946	0.668
8.17925	0.622
8.21904	0.559
8.25883	0.509
8.29862	0.465
8.3384	0.397
8.37819	0.291
8.41798	0.131
8.45777	0.041
8.49756	0.034
8.53735	0.036
8.57714	0.044
8.61693	0.119
8.65671	0.242
8.6965	0.425
8.73629	0.56
8.77608	0.632
8.81587	0.653
8.85566	0.66
8.89545	0.665
8.93524	0.662
8.97502	0.617
9.01481	0.437
9.0546	0.154
9.09439	0.038
9.13418	0.039
9.17397	0.169
9.21376	0.437
9.25355	0.564
9.29333	0.618
9.33312	0.64
9.37291	0.58
9.4127	0.465
9.45249	0.65
9.49228	0.698
9.53207	0.707
9.57185	0.718
9.61164	0.722
9.65143	0.727
9.69122	0.702
9.73101	0.547
9.7708	0.529
9.81059	0.708
9.85038	0.737
9.89016	0.752
9.92995	0.755
9.96974	0.758
10.0095	0.758
10.0493	0.742
10.0891	0.728
10.1289	0.735
10.1687	0.73
10.2085	0.722
10.2483	0.715
10.2881	0.698
10.3278	0.692
10.3676	0.688
10.4074	0.715
10.4472	0.727
10.487	0.725
10.5268	0.71
10.5666	0.687
10.6064	0.65
10.6462	0.595
10.6859	0.499
10.7257	0.4
10.7655	0.317
10.8053	0.274
10.8451	0.312
10.8849	0.44
10.9247	0.559
10.9645	0.645
11.0042	0.708
11.044	0.747
11.0838	0.768
11.1236	0.792
11.1634	0.801
11.2032	0.806
11.243	0.808
11.2828	0.806
11.3226	0.805
11.3623	0.803
11.4021	0.8
11.4419	0.803
11.4817	0.806
11.5215	0.821
11.5613	0.83
11.6011	0.833
11.6409	0.835
11.6807	0.841
11.7204	0.845
11.7602	0.853
11.8	0.861
11.8398	0.863
11.8796	0.861
11.9194	0.866
11.9592	0.868
11.999	0.868
12.0388	0.87
12.0785	0.87
12.1183	0.868
12.1581	0.868
12.1979	0.868
12.2377	0.866
12.2775	0.865
12.3173	0.861
12.3571	0.855
12.3969	0.861
12.4366	0.855
12.4764	0.855
12.5162	0.851
12.556	0.841
12.5958	0.843
12.6356	0.835
12.6754	0.825
12.7152	0.805
12.755	0.792
12.7947	0.763
12.8345	0.73
12.8743	0.687
12.9141	0.63
12.9539	0.559
12.9937	0.454
13.0335	0.341
13.0733	0.227
13.113	0.126
13.1528	0.074
13.1926	0.048
13.2324	0.044
13.2722	0.048
13.312	0.074
13.3518	0.183
13.3916	0.359
13.4314	0.509
13.4711	0.612
13.5109	0.668
13.5507	0.707
13.5905	0.738
13.6303	0.748
13.6701	0.762
13.7099	0.768
13.7497	0.772
13.7895	0.78
13.8292	0.773
13.869	0.762
13.9088	0.75
13.9486	0.735
13.9884	0.715
14.0282	0.675
14.068	0.647
14.1078	0.628
14.1476	0.602
14.1873	0.589
14.2271	0.585
14.2669	0.595
14.3067	0.607
14.3465	0.607
14.3863	0.582
14.4261	0.524
14.4659	0.427
14.5057	0.304
14.5454	0.204
14.5852	0.154
14.625	0.138
14.6648	0.153
14.7046	0.216
14.7444	0.306
14.7842	0.392
14.824	0.482
14.8638	0.559
14.9035	0.63
14.9433	0.677
14.9831	0.695
15.0229	0.712
15.0627	0.723
15.1025	0.758
15.1423	0.772
15.1821	0.777
15.2219	0.778
15.2616	0.767
15.3014	0.772
15.3412	0.772
15.381	0.762
15.4208	0.76
15.4606	0.755
15.5004	0.753
15.5402	0.757
15.58	0.762
15.6197	0.752
15.6595	0.752
15.6993	0.742
15.7391	0.74
15.7789	0.733
15.8187	0.728
15.8585	0.727
15.8983	0.722
15.938	0.717
15.9778	0.718
