Infrared Spectrum: MELEZITOSE, MONOHYDRATE
Formula: C18 H32 O16  * H2 O
State: SOLID (SPLIT MULL), FLUOROLUBE FOR 3800-1330 CM^-^1, NUJOL FOR 1330-400 CM^-^1
Class: COBLENTZ III
Instrument: BECKMAN IR-9 (GRATING)
Instrument parameters: ORDER CHANGES: 670, 1200, 2000 CM^-^1
Sampling: TRANSMISSION
Resolution: 2
Origin: DOW CHEMICAL COMPANY
1/CM	TRANSMITTANCE
405	0.6143
414	0.6179
423	0.6542
432	0.7588
441	0.7844
450	0.7885
459	0.8011
468	0.8273
477	0.8265
486	0.8098
495	0.7954
504	0.768
513	0.7651
522	0.7943
531	0.7886
540	0.7712
549	0.7319
558	0.6218
567	0.7745
576	0.776
585	0.7114
594	0.64
603	0.7261
612	0.71
621	0.6697
630	0.6252
639	0.6775
648	0.6854
657	0.6711
666	0.6561
675	0.6181
684	0.6178
693	0.6158
702	0.5945
711	0.5862
720	0.5672
729	0.6406
738	0.7215
747	0.7558
756	0.7868
765	0.8084
774	0.8118
783	0.7544
792	0.81
801	0.8359
810	0.8337
819	0.8228
828	0.7461
837	0.7742
846	0.8075
855	0.7588
864	0.8418
873	0.749
882	0.8333
891	0.8715
900	0.8575
909	0.7599
918	0.4193
927	0.6296
936	0.561
945	0.833
954	0.8537
963	0.8295
972	0.7725
981	0.6448
990	0.3436
999	0.075
1008	0.1686
1017	0.4569
1026	0.2028
1035	0.1981
1044	0.4044
1053	0.246
1062	0.1628
1071	0.1291
1080	0.3241
1089	0.3748
1098	0.3282
1107	0.3484
1116	0.297
1125	0.481
1134	0.5775
1143	0.4597
1152	0.3207
1161	0.4853
1170	0.6865
1179	0.7554
1188	0.7915
1197	0.8084
1206	0.81
1215	0.7875
1224	0.6926
1233	0.7367
1242	0.7972
1251	0.7732
1260	0.6248
1269	0.6815
1278	0.736
1287	0.7631
1296	0.6684
1305	0.7031
1314	0.6906
1323	0.5284
1332	0.4978
1341	0.3573
1350	0.3447
1359	0.4077
1368	0.4374
1377	0.5735
1386	0.5964
1395	0.5594
1404	0.5757
1413	0.5788
1422	0.516
1431	0.5148
1440	0.5462
1449	0.5218
1458	0.4466
1467	0.4919
1476	0.567
1485	0.6826
1494	0.7731
1503	0.8075
1512	0.8246
1521	0.8338
1530	0.842
1539	0.8497
1548	0.8541
1557	0.8565
1566	0.858
1575	0.8589
1584	0.855
1593	0.8493
1602	0.841
1611	0.828
1620	0.8115
1629	0.7917
1638	0.7667
1647	0.7267
1656	0.7201
1665	0.7875
1674	0.8317
1683	0.8557
1692	0.8671
1701	0.8762
1710	0.883
1719	0.8875
1728	0.8895
1737	0.8903
1746	0.8909
1755	0.8918
1764	0.8916
1773	0.8914
1782	0.8911
1791	0.8908
1800	0.8903
1809	0.8899
1818	0.8898
1827	0.8898
1836	0.8897
1845	0.8897
1854	0.8896
1863	0.8886
1872	0.8873
1881	0.8881
1890	0.8881
1899	0.8878
1908	0.8867
1917	0.8849
1926	0.8832
1935	0.8814
1944	0.8801
1953	0.881
1962	0.8805
1971	0.8782
1980	0.8746
1989	0.8697
1998	0.8617
2007	0.8508
2016	0.8424
2025	0.8388
2034	0.8375
2043	0.8358
2052	0.8342
2061	0.8325
2070	0.831
2079	0.8288
2088	0.8266
2097	0.8243
2106	0.8228
2115	0.8215
2124	0.8202
2133	0.8189
2142	0.8175
2151	0.8162
2160	0.815
2169	0.8136
2178	0.8119
2187	0.8096
2196	0.8072
2205	0.8049
2214	0.8026
2223	0.8005
2232	0.7984
2241	0.7954
2250	0.7917
2259	0.7878
2268	0.7849
2277	0.7822
2286	0.7803
2295	0.7789
2304	0.7776
2313	0.7782
2322	0.7784
2331	0.7786
2340	0.7798
2349	0.7805
2358	0.7811
2367	0.7821
2376	0.7818
2385	0.773
2394	0.7625
2403	0.7583
2412	0.7567
2421	0.755
2430	0.7525
2439	0.749
2448	0.7451
2457	0.7411
2466	0.7375
2475	0.734
2484	0.7308
2493	0.7278
2502	0.725
2511	0.7221
2520	0.7197
2529	0.7172
2538	0.7149
2547	0.7125
2556	0.7098
2565	0.7071
2574	0.7044
2583	0.7011
2592	0.6949
2601	0.6885
2610	0.6817
2619	0.6739
2628	0.666
2637	0.6582
2646	0.6504
2655	0.6443
2664	0.6388
2673	0.6343
2682	0.6294
2691	0.6242
2700	0.6189
2709	0.6136
2718	0.6083
2727	0.6022
2736	0.5957
2745	0.5896
2754	0.5874
2763	0.5844
2772	0.5794
2781	0.5707
2790	0.5596
2799	0.5475
2808	0.5355
2817	0.5235
2826	0.5118
2835	0.5005
2844	0.4892
2853	0.4744
2862	0.4588
2871	0.4406
2880	0.4206
2889	0.3988
2898	0.3764
2907	0.3759
2916	0.3094
2925	0.3299
2934	0.3384
2943	0.3242
2952	0.4512
2961	0.4642
2970	0.4554
2979	0.446
2988	0.4728
2997	0.4707
3006	0.4785
3015	0.4689
3024	0.458
3033	0.4436
3042	0.4269
3051	0.4059
3060	0.3834
3069	0.3584
3078	0.3366
3087	0.313
3096	0.2903
3105	0.2698
3114	0.2509
3123	0.2349
3132	0.2195
3141	0.2049
3150	0.1908
3159	0.1768
3168	0.1644
3177	0.1535
3186	0.1436
3195	0.1336
3204	0.1267
3213	0.1236
3222	0.1228
3231	0.1179
3240	0.1056
3249	0.0917
3258	0.0833
3267	0.0753
3276	0.0674
3285	0.0601
3294	0.0544
3303	0.0528
3312	0.0545
3321	0.0578
3330	0.0611
3339	0.0618
3348	0.0617
3357	0.0612
3366	0.0659
3375	0.0734
3384	0.0759
3393	0.0746
3402	0.0714
3411	0.077
3420	0.1179
3429	0.1499
3438	0.1718
3447	0.1917
3456	0.2029
3465	0.2012
3474	0.1685
3483	0.139
3492	0.1689
3501	0.221
3510	0.2857
3519	0.348
3528	0.4009
3537	0.4458
3546	0.5134
3555	0.5579
3564	0.5973
3573	0.631
3582	0.6578
3591	0.6818
3600	0.7239
3609	0.7421
3618	0.7545
3627	0.7632
3636	0.7705
3645	0.7758
3654	0.7811
3663	0.7843
3672	0.7869
3681	0.789
3690	0.7891
3699	0.7887
3708	0.7869
3717	0.7846
3726	0.7819
3735	0.7784
3744	0.7748
3753	0.7712
3762	0.7686
3771	0.7661
3780	0.7642
3789	0.7614
3798	0.758
