Infrared Spectrum: RHODANINE, 5,5'-ETHYLIDENEDI-
Formula: C8 H8 N2 O2 S4
State: SOLID (KBr PELLET)
Melting point: 240 C DECOMPOSES
Class: COBLENTZ
Instrument: Not specified, most likely a prism, grating, or hybrid spectrometer.
Sampling: TRANSMISSION
Resolution: 4
Origin: TENNESSEE EASTMAN COMPANY, RESEARCH LABORATORIES
MICROMETERS	TRANSMITTANCE
1.993	0.759
2.03405	0.757
2.07511	0.759
2.11616	0.764
2.15721	0.769
2.19826	0.776
2.23932	0.783
2.28037	0.788
2.32142	0.792
2.36248	0.793
2.40353	0.797
2.44458	0.802
2.48563	0.804
2.52669	0.812
2.56774	0.812
2.60879	0.812
2.64985	0.812
2.6909	0.812
2.73195	0.716
2.773	0.637
2.81406	0.591
2.85511	0.542
2.89616	0.501
2.93721	0.53
2.97827	0.596
3.01932	0.609
3.06037	0.546
3.10143	0.458
3.14248	0.41
3.18353	0.417
3.22458	0.42
3.26564	0.419
3.30669	0.505
3.34774	0.589
3.3888	0.658
3.42985	0.654
3.4709	0.56
3.51195	0.673
3.55301	0.788
3.59406	0.838
3.63511	0.85
3.67617	0.865
3.71722	0.874
3.75827	0.879
3.79932	0.878
3.84038	0.891
3.88143	0.922
3.92248	0.929
3.96354	0.929
4.00459	0.929
4.04564	0.932
4.08669	0.943
4.12775	0.95
4.1688	0.95
4.20985	0.95
4.2509	0.939
4.29196	0.936
4.33301	0.951
4.37406	0.967
4.41512	0.967
4.45617	0.969
4.49722	0.97
4.53827	0.974
4.57933	0.97
4.62038	0.974
4.66143	0.977
4.70249	0.986
4.74354	0.986
4.78459	0.987
4.82564	0.986
4.8667	0.986
4.90775	0.987
4.9488	0.987
4.98986	0.991
5.03091	0.991
5.07196	0.991
5.11301	0.991
5.15407	0.991
5.19512	0.991
5.23617	0.989
5.27723	0.984
5.31828	0.981
5.35933	0.972
5.40038	0.969
5.44144	0.963
5.48249	0.946
5.52354	0.922
5.5646	0.881
5.60565	0.833
5.6467	0.673
5.68775	0.345
5.72881	0.073
5.76986	0.07
5.81091	0.072
5.85196	0.116
5.89302	0.123
5.93407	0.424
5.97512	0.663
6.01618	0.754
6.05723	0.756
6.09828	0.747
6.13933	0.743
6.18039	0.75
6.22144	0.792
6.26249	0.831
6.30355	0.852
6.3446	0.862
6.38565	0.869
6.4267	0.879
6.46776	0.878
6.50881	0.879
6.54986	0.874
6.59092	0.869
6.63197	0.853
6.67302	0.824
6.71407	0.792
6.75513	0.697
6.79618	0.591
6.83723	0.307
6.87829	0.14
6.91934	0.067
6.96039	0.115
7.00144	0.261
7.0425	0.451
7.08355	0.597
7.1246	0.704
7.16565	0.711
7.20671	0.756
7.24776	0.798
7.28881	0.805
7.32987	0.812
7.37092	0.809
7.41197	0.793
7.45302	0.725
7.49408	0.603
7.53513	0.45
7.57618	0.446
7.61724	0.453
7.65829	0.412
7.69934	0.458
7.74039	0.532
7.78145	0.62
7.8225	0.671
7.86355	0.647
7.90461	0.601
7.94566	0.544
7.98671	0.532
8.02776	0.505
8.06882	0.415
8.10987	0.192
8.15092	0.061
8.19198	0.051
8.23303	0.08
8.27408	0.104
8.31513	0.108
8.35619	0.18
8.39724	0.249
8.43829	0.256
8.47935	0.243
8.5204	0.262
8.56145	0.328
8.6025	0.484
8.64356	0.658
8.68461	0.73
8.72566	0.716
8.76671	0.702
8.80777	0.752
8.84882	0.78
8.88987	0.79
8.93093	0.78
8.97198	0.687
9.01303	0.58
9.05408	0.542
9.09514	0.544
9.13619	0.522
9.17724	0.417
9.2183	0.316
9.25935	0.214
9.3004	0.151
9.34145	0.192
9.38251	0.408
9.42356	0.623
9.46461	0.745
9.50567	0.785
9.54672	0.805
9.58777	0.831
9.62882	0.841
9.66988	0.85
9.71093	0.864
9.75198	0.876
9.79304	0.888
9.83409	0.895
9.87514	0.896
9.91619	0.896
9.95725	0.881
9.9983	0.85
10.0394	0.838
10.0804	0.852
10.1215	0.86
10.1625	0.871
10.2036	0.884
10.2446	0.893
10.2857	0.891
10.3267	0.89
10.3678	0.891
10.4088	0.891
10.4499	0.9
10.4909	0.903
10.532	0.905
10.573	0.905
10.6141	0.902
10.6551	0.872
10.6962	0.857
10.7373	0.845
10.7783	0.848
10.8194	0.859
10.8604	0.878
10.9015	0.896
10.9425	0.905
10.9836	0.907
11.0246	0.903
11.0657	0.891
11.1067	0.876
11.1478	0.876
11.1888	0.884
11.2299	0.89
11.2709	0.876
11.312	0.831
11.353	0.819
11.3941	0.855
11.4351	0.881
11.4762	0.896
11.5173	0.9
11.5583	0.902
11.5994	0.905
11.6404	0.903
11.6815	0.907
11.7225	0.907
11.7636	0.907
11.8046	0.905
11.8457	0.902
11.8867	0.903
11.9278	0.893
11.9688	0.884
12.0099	0.874
12.0509	0.864
12.092	0.852
12.133	0.848
12.1741	0.843
12.2152	0.835
12.2562	0.826
12.2973	0.814
12.3383	0.804
12.3794	0.79
12.4204	0.781
12.4615	0.771
12.5025	0.762
12.5436	0.754
12.5846	0.733
12.6257	0.719
12.6667	0.702
12.7078	0.69
12.7488	0.678
12.7899	0.659
12.8309	0.646
12.872	0.63
12.913	0.627
12.9541	0.652
12.9952	0.692
13.0362	0.721
13.0773	0.738
13.1183	0.749
13.1594	0.756
13.2004	0.762
13.2415	0.766
13.2825	0.769
13.3236	0.773
13.3646	0.778
13.4057	0.786
13.4467	0.79
13.4878	0.795
13.5288	0.8
13.5699	0.804
13.6109	0.805
13.652	0.809
13.6931	0.812
13.7341	0.817
13.7752	0.821
13.8162	0.823
13.8573	0.821
13.8983	0.821
13.9394	0.824
13.9804	0.828
14.0215	0.831
14.0625	0.831
14.1036	0.833
14.1446	0.833
14.1857	0.833
14.2267	0.823
14.2678	0.807
14.3088	0.783
14.3499	0.764
14.391	0.723
14.432	0.699
14.4731	0.685
14.5141	0.683
14.5552	0.683
14.5962	0.69
14.6373	0.692
14.6783	0.692
14.7194	0.687
14.7604	0.678
14.8015	0.671
14.8425	0.664
14.8836	0.666
14.9246	0.664
14.9657	0.666
15.0067	0.699
15.0478	0.735
15.0888	0.768
15.1299	0.78
15.171	0.785
15.212	0.788
15.2531	0.792
15.2941	0.793
15.3352	0.792
15.3762	0.79
15.4173	0.788
15.4583	0.788
15.4994	0.786
15.5404	0.783
15.5815	0.78
15.6225	0.771
15.6636	0.766
15.7046	0.759
15.7457	0.747
15.7867	0.737
15.8278	0.726
15.8689	0.718
15.9099	0.707
15.951	0.695
