Infrared Spectrum: 1,2,5-THIADIAZOLE-3-CARBOXAMIDOXIME, 4-(HYDROXYIMINOMETHYLAMINO)-
Formula: C4 H6 N6 O2 S
State: SOLID (0.7 mg / 670 mg KBr DISC)
Class: COBLENTZ III
Instrument: PERKIN-ELMER 221 (GRATING)
Instrument parameters: FILTER CHANGE AT 2490, 980 CM^-^1, GRATING FOR 4000-1428 CM^-^1, NaCl PRISM FOR 1428-650 CM^-^1
Sampling: TRANSMISSION
Resolution: 4
Origin: SOUTHERN RESEARCH INSTITUTE
1/CM	TRANSMITTANCE
603.741	0.599
612.909	0.598
622.076	0.603
631.244	0.612
640.411	0.617
649.579	0.591
658.746	0.605
667.914	0.667
677.081	0.655
686.249	0.636
695.416	0.555
704.584	0.524
713.752	0.606
722.919	0.549
732.087	0.668
741.254	0.672
750.422	0.614
759.589	0.581
768.757	0.414
777.924	0.232
787.092	0.367
796.259	0.533
805.427	0.546
814.595	0.598
823.762	0.637
832.93	0.562
842.097	0.713
851.265	0.678
860.432	0.352
869.6	0.67
878.767	0.779
887.935	0.733
897.102	0.413
906.27	0.328
915.438	0.551
924.605	0.399
933.773	0.586
942.94	0.781
952.108	0.739
961.275	0.44
970.443	0.731
979.61	0.458
988.778	0.234
997.945	0.528
1007.11	0.765
1016.28	0.918
1025.45	0.921
1034.62	0.913
1043.78	0.904
1052.95	0.893
1062.12	0.883
1071.29	0.872
1080.45	0.855
1089.62	0.792
1098.79	0.753
1107.96	0.785
1117.12	0.848
1126.29	0.838
1135.46	0.831
1144.63	0.818
1153.79	0.81
1162.96	0.793
1172.13	0.77
1181.3	0.74
1190.46	0.707
1199.63	0.588
1208.8	0.414
1217.97	0.337
1227.13	0.569
1236.3	0.69
1245.47	0.785
1254.64	0.767
1263.8	0.733
1272.97	0.689
1282.14	0.688
1291.31	0.657
1300.47	0.587
1309.64	0.564
1318.81	0.481
1327.98	0.601
1337.14	0.466
1346.31	0.354
1355.48	0.337
1364.65	0.406
1373.81	0.506
1382.98	0.602
1392.15	0.655
1401.32	0.687
1410.48	0.678
1419.65	0.653
1428.82	0.633
1437.99	0.582
1447.16	0.518
1456.32	0.401
1465.49	0.393
1474.66	0.4
1483.83	0.479
1492.99	0.518
1502.16	0.455
1511.33	0.289
1520.5	0.187
1529.66	0.217
1538.83	0.273
1548	0.204
1557.17	0.342
1566.33	0.408
1575.5	0.297
1584.67	0.395
1593.84	0.612
1603	0.705
1612.17	0.644
1621.34	0.467
1630.51	0.289
1639.67	0.16
1648.84	0.165
1658.01	0.228
1667.18	0.263
1676.34	0.077
1685.51	0.243
1694.68	0.407
1703.85	0.532
1713.01	0.651
1722.18	0.753
1731.35	0.805
1740.52	0.841
1749.68	0.836
1758.85	0.867
1768.02	0.868
1777.19	0.864
1786.35	0.86
1795.52	0.852
1804.69	0.812
1813.86	0.846
1823.02	0.877
1832.19	0.881
1841.36	0.883
1850.53	0.881
1859.69	0.877
1868.86	0.868
1878.03	0.864
1887.2	0.862
1896.36	0.855
1905.53	0.852
1914.7	0.848
1923.87	0.844
1933.03	0.841
1942.2	0.834
1951.37	0.829
1960.54	0.826
1969.71	0.824
1978.87	0.821
1988.04	0.817
1997.21	0.813
2006.38	0.81
2015.54	0.805
2024.71	0.797
2033.88	0.793
2043.05	0.79
2052.21	0.786
2061.38	0.781
2070.55	0.778
2079.72	0.773
2088.88	0.771
2098.05	0.768
2107.22	0.765
2116.39	0.76
2125.55	0.755
2134.72	0.751
2143.89	0.749
2153.06	0.748
2162.22	0.747
2171.39	0.744
2180.56	0.736
2189.73	0.735
2198.89	0.734
2208.06	0.732
2217.23	0.726
2226.4	0.72
2235.56	0.713
2244.73	0.71
2253.9	0.707
2263.07	0.702
2272.23	0.697
2281.4	0.693
2290.57	0.69
2299.74	0.68
2308.9	0.672
2318.07	0.659
2327.24	0.643
2336.41	0.64
2345.57	0.638
2354.74	0.636
2363.91	0.637
2373.08	0.637
2382.24	0.636
2391.41	0.635
2400.58	0.627
2409.75	0.617
2418.91	0.615
2428.08	0.614
2437.25	0.612
2446.42	0.609
2455.58	0.606
2464.75	0.601
2473.92	0.595
2483.09	0.585
2492.26	0.574
2501.42	0.569
2510.59	0.565
2519.76	0.559
2528.93	0.554
2538.09	0.535
2547.26	0.53
2556.43	0.529
2565.6	0.53
2574.76	0.527
2583.93	0.52
2593.1	0.516
2602.27	0.504
2611.43	0.495
2620.6	0.479
2629.77	0.475
2638.94	0.47
2648.1	0.467
2657.27	0.452
2666.44	0.444
2675.61	0.436
2684.77	0.422
2693.94	0.406
2703.11	0.389
2712.28	0.376
2721.44	0.367
2730.61	0.364
2739.78	0.363
2748.95	0.361
2758.11	0.349
2767.28	0.34
2776.45	0.326
2785.62	0.306
2794.78	0.281
2803.95	0.25
2813.12	0.242
2822.29	0.228
2831.45	0.223
2840.62	0.222
2849.79	0.223
2858.96	0.23
2868.12	0.253
2877.29	0.29
2886.46	0.34
2895.63	0.384
2904.79	0.385
2913.96	0.382
2923.13	0.381
2932.3	0.38
2941.46	0.375
2950.63	0.365
2959.8	0.359
2968.97	0.337
2978.14	0.326
2987.3	0.324
2996.47	0.322
3005.64	0.321
3014.81	0.318
3023.97	0.311
3033.14	0.308
3042.31	0.308
3051.48	0.305
3060.64	0.292
3069.81	0.271
3078.98	0.261
3088.15	0.26
3097.31	0.26
3106.48	0.26
3115.65	0.272
3124.82	0.267
3133.98	0.259
3143.15	0.254
3152.32	0.257
3161.49	0.261
3170.65	0.263
3179.82	0.263
3188.99	0.262
3198.16	0.26
3207.32	0.259
3216.49	0.26
3225.66	0.276
3234.83	0.298
3243.99	0.308
3253.16	0.308
3262.33	0.308
3271.5	0.304
3280.66	0.3
3289.83	0.296
3299	0.293
3308.17	0.288
3317.33	0.284
3326.5	0.27
3335.67	0.262
3344.84	0.253
3354	0.247
3363.17	0.209
3372.34	0.134
3381.51	0.17
3390.67	0.247
3399.84	0.331
3409.01	0.354
3418.18	0.362
3427.34	0.365
3436.51	0.366
3445.68	0.366
3454.85	0.36
3464.01	0.34
3473.18	0.299
3482.35	0.185
3491.52	0.208
3500.69	0.38
3509.85	0.582
3519.02	0.649
3528.19	0.684
3537.36	0.699
3546.52	0.704
3555.69	0.707
3564.86	0.707
3574.03	0.707
3583.19	0.707
3592.36	0.706
3601.53	0.704
3610.7	0.701
3619.86	0.697
3629.03	0.695
3638.2	0.693
3647.37	0.691
3656.53	0.687
3665.7	0.685
3674.87	0.675
3684.04	0.662
3693.2	0.658
3702.37	0.655
3711.54	0.652
3720.71	0.649
3729.87	0.643
3739.04	0.633
3748.21	0.63
3757.38	0.628
3766.54	0.626
3775.71	0.623
3784.88	0.62
3794.05	0.617
3803.21	0.614
3812.38	0.61
3821.55	0.605
3830.72	0.601
3839.88	0.598
3849.05	0.594
3858.22	0.592
3867.39	0.59
3876.55	0.588
3885.72	0.586
3894.89	0.581
3904.06	0.58
3913.22	0.578
3922.39	0.575
3931.56	0.573
3940.73	0.571
3949.89	0.569
3959.06	0.568
3968.23	0.566
3977.4	0.565
3986.56	0.565
3995.73	0.564
4004.9	0.563
