Infrared Spectrum: Dodecane-1-sulfonic acid, sodium salt
Formula: C12 H25 O3 S Na
State: SOLID (1 mg / 100 mg KBr DISC)
Class: COBLENTZ III
Instrument: BECKMAN IR-12 (GRATING)
Instrument parameters: GRATING
Sampling: TRANSMISSION
Resolution: 2
Origin: COLGATE-PALMOLIVE COMPANY (KELLENBACH)
1/CM	TRANSMITTANCE
204	0.1343
214	0.148
224	0.2471
234	0.3665
244	0.5011
254	0.61
264	0.7162
274	0.7816
284	0.7981
294	0.8464
304	0.8482
314	0.8615
324	0.883
334	0.885
344	0.8837
354	0.8828
364	0.8938
374	0.9121
384	0.9392
394	0.9527
404	0.952
414	0.9512
424	0.9727
434	0.9711
444	0.9655
454	0.9688
464	0.9768
474	0.9782
484	0.973
494	0.9506
504	0.9532
514	0.9491
524	0.8707
534	0.7785
544	0.8023
554	0.8204
564	0.8892
574	0.9241
584	0.9346
594	0.9272
604	0.8708
614	0.6901
624	0.6545
634	0.9041
644	0.9388
654	0.9214
664	0.9266
674	0.9205
684	0.9341
694	0.9297
704	0.9248
714	0.8795
724	0.8294
734	0.8916
744	0.9218
754	0.9285
764	0.9339
774	0.9318
784	0.8623
794	0.794
804	0.8404
814	0.9305
824	0.949
834	0.9388
844	0.9423
854	0.9559
864	0.9659
874	0.9655
884	0.9617
894	0.9569
904	0.9571
914	0.9517
924	0.9504
934	0.9558
944	0.9614
954	0.9649
964	0.9603
974	0.9485
984	0.9376
994	0.9267
1004	0.9313
1014	0.9366
1024	0.9382
1034	0.8373
1044	0.6668
1054	0.4963
1064	0.3367
1074	0.6589
1084	0.8046
1094	0.8397
1104	0.8705
1114	0.8857
1124	0.8755
1134	0.8607
1144	0.797
1154	0.5919
1164	0.3734
1174	0.2546
1184	0.2421
1194	0.2515
1204	0.2583
1214	0.3429
1224	0.4237
1234	0.5232
1244	0.6286
1254	0.6715
1264	0.785
1274	0.8043
1284	0.837
1294	0.8336
1304	0.8554
1314	0.882
1324	0.8964
1334	0.8966
1344	0.9077
1354	0.9081
1364	0.9035
1374	0.8926
1384	0.9004
1394	0.9077
1404	0.9085
1414	0.8825
1424	0.8919
1434	0.885
1444	0.869
1454	0.7958
1464	0.7132
1474	0.7132
1484	0.9004
1494	0.9093
1504	0.9118
1514	0.9104
1524	0.9079
1534	0.9052
1544	0.9033
1554	0.9034
1564	0.9057
1574	0.9088
1584	0.9122
1594	0.9135
1604	0.9099
1614	0.9025
1624	0.8915
1634	0.8805
1644	0.8729
1654	0.8702
1664	0.8773
1674	0.8889
1684	0.8977
1694	0.9008
1704	0.9017
1714	0.9018
1724	0.9012
1734	0.9013
1744	0.9036
1754	0.9069
1764	0.9113
1774	0.9135
1784	0.9136
1794	0.9098
1804	0.9043
1814	0.8989
1824	0.8978
1834	0.8987
1844	0.9018
1854	0.905
1864	0.9065
1874	0.9018
1884	0.8955
1894	0.8953
1904	0.892
1914	0.8919
1924	0.8909
1934	0.8911
1944	0.8907
1954	0.8895
1964	0.8881
1974	0.8862
1984	0.8842
1994	0.8811
2004	0.8781
2014	0.8765
2024	0.8755
2034	0.8757
2044	0.8742
2054	0.8715
2064	0.8691
2074	0.8689
2084	0.8687
2094	0.8684
2104	0.8674
2114	0.8662
2124	0.8645
2134	0.8625
2144	0.8627
2154	0.8627
2164	0.8623
2174	0.8609
2184	0.8592
2194	0.8576
2204	0.8559
2214	0.8542
2224	0.852
2234	0.8498
2244	0.8489
2254	0.8489
2264	0.8509
2274	0.8525
2284	0.8521
2294	0.8504
2304	0.8472
2314	0.8407
2324	0.8337
2334	0.8245
2344	0.8145
2354	0.8079
2364	0.8121
2374	0.8212
2384	0.8353
2394	0.8445
2404	0.8454
2414	0.8437
2424	0.8428
2434	0.8427
2444	0.8433
2454	0.8434
2464	0.8425
2474	0.8408
2484	0.8392
2494	0.8386
2504	0.8384
2514	0.8382
2524	0.8364
2534	0.8345
2544	0.8326
2554	0.8312
2564	0.8298
2574	0.828
2584	0.8259
2594	0.8253
2604	0.8257
2614	0.8224
2624	0.8183
2634	0.814
2644	0.8131
2654	0.8123
2664	0.8123
2674	0.8123
2684	0.8134
2694	0.8154
2704	0.8135
2714	0.8079
2724	0.8035
2734	0.8022
2744	0.8021
2754	0.8017
2764	0.8003
2774	0.7983
2784	0.7944
2794	0.787
2804	0.7746
2814	0.757
2824	0.7324
2834	0.6377
2844	0.4132
2854	0.3534
2864	0.5011
2874	0.5436
2884	0.5495
2894	0.508
2904	0.3881
2914	0.2619
2924	0.2025
2934	0.3035
2944	0.4556
2954	0.4559
2964	0.5022
2974	0.6366
2984	0.7002
2994	0.7277
3004	0.743
3014	0.7507
3024	0.7551
3034	0.758
3044	0.7606
3054	0.7668
3064	0.7653
3074	0.7654
3084	0.7687
3094	0.7713
3104	0.772
3114	0.7721
3124	0.7714
3134	0.7693
3144	0.7673
3154	0.7665
3164	0.7688
3174	0.7704
3184	0.7707
3194	0.7685
3204	0.7653
3214	0.7631
3224	0.7612
3234	0.7591
3244	0.7573
3254	0.7559
3264	0.7547
3274	0.7518
3284	0.7481
3294	0.744
3304	0.7401
3314	0.7357
3324	0.7312
3334	0.7267
3344	0.7222
3354	0.7177
3364	0.7124
3374	0.7058
3384	0.6974
3394	0.6895
3404	0.6817
3414	0.6751
3424	0.6691
3434	0.6654
3444	0.662
3454	0.6581
3464	0.6586
3474	0.6618
3484	0.6657
3494	0.67
3504	0.6747
3514	0.6792
3524	0.6838
3534	0.6881
3544	0.6928
3554	0.6974
3564	0.6998
3574	0.7021
3584	0.7041
3594	0.7063
3604	0.7094
3614	0.7127
3624	0.7165
3634	0.7205
3644	0.7236
3654	0.725
3664	0.7246
3674	0.7229
3684	0.7214
3694	0.7214
3704	0.726
3714	0.7243
3724	0.7216
3734	0.719
3744	0.716
3754	0.7142
3764	0.7154
3774	0.7189
3784	0.7223
3794	0.7225
3804	0.7208
3814	0.7185
3824	0.7161
3834	0.7135
3844	0.711
3854	0.7094
3864	0.7081
3874	0.7074
3884	0.7081
3894	0.7086
3904	0.7089
3914	0.7079
3924	0.7052
3934	0.7033
3944	0.7031
3954	0.7036
3964	0.7038
3974	0.7036
3984	0.7029
3994	0.7021
