Infrared Spectrum: Thiaxanthene, 9-(3-dimethylaminopropyl)-2-triflluoromethyl-,maleate (1 to 1)
Formula: C23 H24 F3 N O4 S
State: SOLID (OIL MULL)
Class: COBLENTZ III
Instrument: PERKIN-ELMER 21 (GRATING)
Instrument parameters: NaCl PRISM
Sampling: TRANSMISSION
Resolution: 2
Origin: SMITH KLINE & FRENCH LABS.
1/CM	TRANSMITTANCE
661	0.6059
670	0.6696
679	0.686
688	0.6613
697	0.7084
706	0.7272
715	0.6878
724	0.5978
733	0.6348
742	0.5398
751	0.4437
760	0.2968
769	0.4908
778	0.8007
787	0.8825
796	0.8404
805	0.8841
814	0.8555
823	0.8179
832	0.766
841	0.7038
850	0.4256
859	0.5889
868	0.4102
877	0.4659
886	0.6274
895	0.5399
904	0.7246
913	0.6808
922	0.6924
931	0.6422
940	0.562
949	0.5129
958	0.4925
967	0.5115
976	0.4736
985	0.433
994	0.3488
1003	0.3514
1012	0.362
1021	0.3324
1030	0.304
1039	0.2841
1048	0.2943
1057	0.2816
1066	0.2937
1075	0.2622
1084	0.1845
1093	0.2849
1102	0.2947
1111	0.1184
1120	0.1841
1129	0.3027
1138	0.2748
1147	0.216
1156	0.3548
1165	0.2758
1174	0.3615
1183	0.3598
1192	0.4418
1201	0.4544
1210	0.4672
1219	0.6312
1228	0.6727
1237	0.7056
1246	0.6799
1255	0.5765
1264	0.6277
1273	0.5078
1282	0.6114
1291	0.5493
1300	0.3902
1309	0.3279
1318	0.2296
1327	0.0772
1336	0.2225
1345	0.2418
1354	0.1014
1363	0.1949
1372	0.116
1381	0.2
1390	0.4811
1399	0.5522
1408	0.4033
1417	0.3264
1426	0.2413
1435	0.1201
1444	0.0784
1453	0.0703
1462	0.0744
1471	0.0901
1480	0.173
1489	0.2188
1498	0.2688
1507	0.3241
1516	0.352
1525	0.3448
1534	0.3824
1543	0.447
1552	0.4426
1561	0.376
1570	0.2691
1579	0.2026
1588	0.2774
1597	0.3643
1606	0.3434
1615	0.3796
1624	0.4641
1633	0.605
1642	0.6988
1651	0.7715
1660	0.7948
1669	0.7961
1678	0.7641
1687	0.6856
1696	0.6362
1705	0.6783
1714	0.8108
1723	0.8805
1732	0.9113
1741	0.9228
1750	0.9165
1759	0.9071
1768	0.8982
1777	0.8835
1786	0.8677
1795	0.8487
1804	0.8321
1813	0.8261
1822	0.8353
1831	0.8494
1840	0.8521
1849	0.8566
1858	0.8522
1867	0.862
1876	0.8715
1885	0.8767
1894	0.8775
1903	0.8744
1912	0.868
1921	0.8674
1930	0.8531
1939	0.8399
1948	0.8407
1957	0.849
1966	0.8659
1975	0.8726
1984	0.8751
1993	0.8761
2002	0.8755
2011	0.875
2020	0.8738
2029	0.8725
2038	0.8712
2047	0.8689
2056	0.8665
2065	0.864
2074	0.8613
2083	0.8585
2092	0.8553
2101	0.8459
2110	0.8391
2119	0.835
2128	0.8329
2137	0.8312
2146	0.8286
2155	0.8241
2164	0.8175
2173	0.8131
2182	0.8115
2191	0.8087
2200	0.8021
2209	0.7934
2218	0.7846
2227	0.7736
2236	0.7645
2245	0.7553
2254	0.746
2263	0.7357
2272	0.7266
2281	0.7185
2290	0.7002
2299	0.6848
2308	0.6733
2317	0.6612
2326	0.6498
2335	0.6397
2344	0.6307
2353	0.6224
2362	0.6154
2371	0.6087
2380	0.6027
2389	0.5967
2398	0.5914
2407	0.5891
2416	0.5929
2425	0.5952
2434	0.5984
2443	0.6028
2452	0.6117
2461	0.6208
2470	0.6295
2479	0.6304
2488	0.6317
2497	0.6385
2506	0.6516
2515	0.6684
2524	0.6762
2533	0.6774
2542	0.6767
2551	0.6733
2560	0.6657
2569	0.6534
2578	0.6378
2587	0.6252
2596	0.6255
2605	0.6265
2614	0.6281
2623	0.6304
2632	0.6343
2641	0.6409
2650	0.6517
2659	0.6602
2668	0.6635
2677	0.6717
2686	0.6815
2695	0.6898
2704	0.6966
2713	0.7398
2722	0.7487
2731	0.7481
2740	0.7447
2749	0.7367
2758	0.72
2767	0.6688
2776	0.5815
2785	0.4951
2794	0.4094
2803	0.3241
2812	0.2394
2821	0.1552
2830	0.0851
2839	0.0781
2848	0.0766
2857	0.0745
2866	0.071
2875	0.0641
2884	0.0582
2893	0.0561
2902	0.0558
2911	0.0564
2920	0.0582
2929	0.0637
2938	0.1179
2947	0.2133
2956	0.3081
2965	0.4023
2974	0.4959
2983	0.5696
2992	0.5959
3001	0.6164
3010	0.6355
3019	0.6627
3028	0.6844
3037	0.7089
3046	0.7364
3055	0.7565
3064	0.7649
3073	0.7699
3082	0.7748
3091	0.7783
3100	0.7809
3109	0.7828
3118	0.7849
3127	0.7873
3136	0.7914
3145	0.7958
3154	0.8004
3163	0.8051
3172	0.8098
3181	0.8149
3190	0.8201
3199	0.8246
3208	0.8271
3217	0.8271
3226	0.8263
3235	0.8244
3244	0.8219
3253	0.8211
3262	0.8208
3271	0.8205
3280	0.8204
3289	0.8206
3298	0.8207
3307	0.8209
3316	0.821
3325	0.821
3334	0.8211
3343	0.8212
3352	0.8212
3361	0.8213
3370	0.8213
3379	0.8211
3388	0.821
3397	0.8209
3406	0.8207
3415	0.8207
3424	0.8205
3433	0.8204
3442	0.82
3451	0.8196
3460	0.8193
3469	0.8189
3478	0.8185
3487	0.8173
3496	0.8155
3505	0.8129
3514	0.8097
3523	0.8066
3532	0.8035
3541	0.8006
3550	0.7981
3559	0.7956
3568	0.7932
3577	0.7915
3586	0.7902
3595	0.7888
3604	0.7875
3613	0.7861
3622	0.7849
3631	0.784
3640	0.7832
3649	0.7828
3658	0.7824
3667	0.7819
3676	0.781
3685	0.7799
3694	0.7787
3703	0.7767
3712	0.7743
3721	0.7713
3730	0.7698
3739	0.7686
3748	0.7676
3757	0.7673
3766	0.767
3775	0.7669
3784	0.767
3793	0.767
3802	0.7667
3811	0.766
3820	0.7629
3829	0.7597
3838	0.7575
3847	0.756
3856	0.7557
3865	0.7552
3874	0.7548
3883	0.7545
3892	0.7541
3901	0.7539
3910	0.7537
3919	0.7534
3928	0.7514
3937	0.749
3946	0.7459
3955	0.7427
3964	0.738
3973	0.7332
3982	0.7289
3991	0.7249
4000	0.7209
