Infrared Spectrum: Piperazine,2-methyl-,dihydrochloride (probably hydrated)
Formula: C5 H14 Cl2 N2
State: SOLID (KBr DISC, 0.9% WT.)
Class: COBLENTZ III
Instrument: PERKIN-ELMER 157
Sampling: TRANSMISSION
Resolution: 2
Origin: BRITISH PETROLEUM CO. LTD., ENGLAND
1/CM	TRANSMITTANCE
668	0.8323
677	0.8173
686	0.7972
695	0.7891
704	0.7778
713	0.7655
722	0.7506
731	0.7481
740	0.7339
749	0.7189
758	0.7092
767	0.7005
776	0.6843
785	0.5911
794	0.6619
803	0.672
812	0.6586
821	0.6487
830	0.6293
839	0.5792
848	0.3346
857	0.44
866	0.6163
875	0.5407
884	0.5355
893	0.5235
902	0.309
911	0.3472
920	0.4667
929	0.3999
938	0.2329
947	0.0488
956	0.3223
965	0.2653
974	0.0503
983	0.112
992	0.2711
1001	0.4948
1010	0.5745
1019	0.5639
1028	0.4395
1037	0.1562
1046	0.1962
1055	0.1711
1064	0.4287
1073	0.237
1082	0.2907
1091	0.5703
1100	0.5305
1109	0.3294
1118	0.1727
1127	0.3245
1136	0.5347
1145	0.6042
1154	0.595
1163	0.4398
1172	0.4026
1181	0.5682
1190	0.6075
1199	0.5808
1208	0.5401
1217	0.5483
1226	0.5616
1235	0.5441
1244	0.4736
1253	0.3978
1262	0.4995
1271	0.4369
1280	0.2738
1289	0.4333
1298	0.4024
1307	0.2904
1316	0.1197
1325	0.2554
1334	0.3158
1343	0.2353
1352	0.3773
1361	0.2682
1370	0.1686
1379	0.251
1388	0.206
1397	0.1255
1406	0.0465
1415	0.0493
1424	0.0581
1433	0.0684
1442	0.089
1451	0.0785
1460	0.1687
1469	0.3158
1478	0.3962
1487	0.4361
1496	0.4327
1505	0.4227
1514	0.4001
1523	0.3814
1532	0.343
1541	0.2505
1550	0.1981
1559	0.1108
1568	0.1136
1577	0.2887
1586	0.3358
1595	0.3723
1604	0.4152
1613	0.4479
1622	0.4579
1631	0.4699
1640	0.5026
1649	0.5314
1658	0.5469
1667	0.5659
1676	0.5823
1685	0.5884
1694	0.5903
1703	0.5917
1712	0.5922
1721	0.5934
1730	0.599
1739	0.6
1748	0.5991
1757	0.5963
1766	0.5888
1775	0.5839
1784	0.5838
1793	0.584
1802	0.5801
1811	0.5694
1820	0.5593
1829	0.5514
1838	0.5482
1847	0.5497
1856	0.5527
1865	0.5507
1874	0.5467
1883	0.5411
1892	0.5318
1901	0.5227
1910	0.5217
1919	0.5258
1928	0.5367
1937	0.5406
1946	0.5365
1955	0.5254
1964	0.5143
1973	0.5039
1982	0.4916
1991	0.4815
2000	0.4664
2009	0.445
2018	0.4394
2027	0.4393
2036	0.4543
2045	0.4788
2054	0.4818
2063	0.4811
2072	0.4791
2081	0.4758
2090	0.4625
2099	0.45
2108	0.4355
2117	0.4112
2126	0.3947
2135	0.3943
2144	0.3978
2153	0.413
2162	0.4187
2171	0.4167
2180	0.413
2189	0.4039
2198	0.3916
2207	0.3816
2216	0.3726
2225	0.3661
2234	0.3579
2243	0.3491
2252	0.3397
2261	0.329
2270	0.3174
2279	0.3046
2288	0.2904
2297	0.277
2306	0.2621
2315	0.2351
2324	0.2081
2333	0.1751
2342	0.1508
2351	0.1268
2360	0.1037
2369	0.09
2378	0.0834
2387	0.0855
2396	0.1033
2405	0.1213
2414	0.1216
2423	0.1162
2432	0.1041
2441	0.1002
2450	0.1
2459	0.0997
2468	0.0968
2477	0.085
2486	0.0702
2495	0.0611
2504	0.059
2513	0.0578
2522	0.0572
2531	0.0566
2540	0.0559
2549	0.0523
2558	0.0462
2567	0.0411
2576	0.0391
2585	0.0387
2594	0.0383
2603	0.0381
2612	0.0361
2621	0.0283
2630	0.0177
2639	0.0116
2648	0.0105
2657	0.01
2666	0.0101
2675	0.0103
2684	0.0104
2693	0.0106
2702	0.0108
2711	0.011
2720	0.0114
2729	0.0119
2738	0.0124
2747	0.0132
2756	0.0142
2765	0.0157
2774	0.0173
2783	0.019
2792	0.0198
2801	0.0195
2810	0.0192
2819	0.0189
2828	0.0187
2837	0.0184
2846	0.0181
2855	0.0182
2864	0.0183
2873	0.0186
2882	0.0192
2891	0.0197
2900	0.0202
2909	0.0208
2918	0.0211
2927	0.0213
2936	0.0216
2945	0.0218
2954	0.0219
2963	0.0223
2972	0.0233
2981	0.0244
2990	0.0269
2999	0.031
3008	0.0372
3017	0.0434
3026	0.0485
3035	0.0588
3044	0.0682
3053	0.0746
3062	0.0819
3071	0.09
3080	0.0998
3089	0.1116
3098	0.1228
3107	0.1369
3116	0.159
3125	0.1835
3134	0.2076
3143	0.2315
3152	0.2553
3161	0.2789
3170	0.3024
3179	0.3255
3188	0.3394
3197	0.3496
3206	0.3594
3215	0.3672
3224	0.3704
3233	0.3728
3242	0.3748
3251	0.3777
3260	0.3811
3269	0.3797
3278	0.377
3287	0.3706
3296	0.3629
3305	0.3539
3314	0.3449
3323	0.3359
3332	0.3277
3341	0.3195
3350	0.3107
3359	0.2983
3368	0.2841
3377	0.2693
3386	0.2579
3395	0.2434
3404	0.2293
3413	0.219
3422	0.212
3431	0.2091
3440	0.2068
3449	0.2062
3458	0.2058
3467	0.2058
3476	0.2045
3485	0.1927
3494	0.1879
3503	0.1879
3512	0.1897
3521	0.1988
3530	0.2324
3539	0.2662
3548	0.2998
3557	0.3332
3566	0.3664
3575	0.3995
3584	0.4325
3593	0.4652
3602	0.4978
3611	0.5303
3620	0.5625
3629	0.5946
3638	0.6266
3647	0.655
3656	0.6647
3665	0.6713
3674	0.6737
3683	0.6746
3692	0.6752
3701	0.6754
3710	0.6756
3719	0.6756
3728	0.6757
3737	0.6757
3746	0.6757
3755	0.6757
3764	0.6757
3773	0.6756
3782	0.6753
3791	0.6743
3800	0.6722
3809	0.6683
3818	0.6666
3827	0.6662
3836	0.6661
3845	0.666
3854	0.6658
3863	0.6655
3872	0.665
3881	0.6641
3890	0.6628
3899	0.6598
3908	0.6578
3917	0.6569
3926	0.6567
3935	0.6566
3944	0.6566
3953	0.6566
3962	0.6566
3971	0.6566
3980	0.6566
3989	0.6566
3998	0.6566
