Infrared Spectrum: PIPERAZINE DIHYDROCHLORIDE
Formula: C4 H10 N2  * 2 H Cl
State: SOLID (MINERAL OIL MULL)
Class: COBLENTZ
Instrument: Not specified, most likely a prism, grating, or hybrid spectrometer.
Sampling: TRANSMISSION
Resolution: 4
Origin: WYANDOTTE CHEMICALS CORP., WYANDOTTE, MICHIGAN, USA
MICROMETERS	TRANSMITTANCE
2.025	0.529
2.06218	0.532
2.09937	0.529
2.13655	0.527
2.17374	0.521
2.21092	0.518
2.2481	0.524
2.28529	0.551
2.32247	0.566
2.35966	0.578
2.39684	0.592
2.43402	0.603
2.47121	0.62
2.50839	0.619
2.54558	0.639
2.58276	0.691
2.61994	0.704
2.65713	0.743
2.69431	0.75
2.7315	0.736
2.76868	0.65
2.80586	0.558
2.84305	0.538
2.88023	0.492
2.91742	0.507
2.9546	0.501
2.99179	0.484
3.02897	0.571
3.06615	0.626
3.10334	0.589
3.14052	0.425
3.17771	0.284
3.21489	0.088
3.25207	0.03
3.28926	0.024
3.32644	0.023
3.36363	0.018
3.40081	0.015
3.43799	0.012
3.47518	0.013
3.51236	0.021
3.54955	0.03
3.58673	0.029
3.62391	0.015
3.6611	0.021
3.69828	0.023
3.73547	0.026
3.77265	0.04
3.80983	0.035
3.84702	0.054
3.8842	0.052
3.92139	0.06
3.95857	0.086
3.99575	0.094
4.03294	0.148
4.07012	0.119
4.10731	0.106
4.14449	0.097
4.18167	0.167
4.21886	0.219
4.25604	0.181
4.29323	0.222
4.33041	0.267
4.36759	0.329
4.40478	0.377
4.44196	0.382
4.47915	0.421
4.51633	0.455
4.55351	0.486
4.5907	0.517
4.62788	0.512
4.66507	0.481
4.70225	0.534
4.73944	0.537
4.77662	0.569
4.8138	0.569
4.85099	0.609
4.88817	0.63
4.92536	0.631
4.96254	0.634
4.99972	0.653
5.03691	0.64
5.07409	0.665
5.11128	0.678
5.14846	0.671
5.18564	0.696
5.22283	0.698
5.26001	0.691
5.2972	0.698
5.33438	0.699
5.37156	0.73
5.40875	0.743
5.44593	0.736
5.48312	0.76
5.5203	0.767
5.55748	0.75
5.59467	0.756
5.63185	0.758
5.66904	0.767
5.70622	0.718
5.7434	0.766
5.78059	0.766
5.81777	0.76
5.85496	0.747
5.89214	0.772
5.92932	0.756
5.96651	0.756
6.00369	0.755
6.04088	0.747
6.07806	0.712
6.11524	0.599
6.15243	0.56
6.18961	0.28
6.2268	0.142
6.26398	0.226
6.30116	0.239
6.33835	0.105
6.37553	0.195
6.41272	0.252
6.4499	0.239
6.48709	0.13
6.52427	0.266
6.56145	0.4
6.59864	0.445
6.63582	0.459
6.67301	0.43
6.71019	0.318
6.74737	0.216
6.78456	0.046
6.82174	0.026
6.85893	0.029
6.89611	0.058
6.93329	0.071
6.97048	0.117
7.00766	0.28
7.04485	0.3
7.08203	0.26
7.11921	0.185
7.1564	0.162
7.19358	0.091
7.23077	0.047
7.26795	0.1
7.30513	0.182
7.34232	0.331
7.3795	0.428
7.41669	0.476
7.45387	0.496
7.49105	0.513
7.52824	0.267
7.56542	0.291
7.60261	0.226
7.63979	0.371
7.67697	0.438
7.71416	0.501
7.75134	0.534
7.78853	0.521
7.82571	0.6
7.86289	0.639
7.90008	0.662
7.93726	0.679
7.97445	0.684
8.01163	0.704
8.04881	0.724
8.086	0.729
8.12318	0.739
8.16037	0.738
8.19755	0.73
8.23474	0.594
8.27192	0.377
8.3091	0.582
8.34629	0.578
8.38347	0.678
8.42066	0.721
8.45784	0.634
8.49502	0.665
8.53221	0.684
8.56939	0.507
8.60658	0.5
8.64376	0.628
8.68094	0.67
8.71813	0.64
8.75531	0.577
8.7925	0.634
8.82968	0.684
8.86686	0.718
8.90405	0.721
8.94123	0.727
8.97842	0.727
9.0156	0.701
9.05278	0.671
9.08997	0.603
9.12715	0.427
9.16434	0.173
9.20152	0.089
9.2387	0.195
9.27589	0.419
9.31307	0.521
9.35026	0.413
9.38744	0.224
9.42462	0.165
9.46181	0.061
9.49899	0.097
9.53618	0.215
9.57336	0.311
9.61054	0.359
9.64773	0.498
9.68491	0.571
9.7221	0.605
9.75928	0.574
9.79646	0.458
9.83365	0.452
9.87083	0.588
9.90802	0.608
9.9452	0.546
9.98239	0.588
10.0196	0.651
10.0568	0.642
10.0939	0.6
10.1311	0.66
10.1683	0.718
10.2055	0.73
10.2427	0.722
10.2799	0.727
10.317	0.73
10.3542	0.736
10.3914	0.755
10.4286	0.753
10.4658	0.755
10.503	0.743
10.5401	0.715
10.5773	0.648
10.6145	0.565
10.6517	0.51
10.6889	0.339
10.7261	0.13
10.7632	0.061
10.8004	0.139
10.8376	0.284
10.8748	0.441
10.912	0.529
10.9492	0.602
10.9864	0.668
11.0235	0.704
11.0607	0.736
11.0979	0.767
11.1351	0.786
11.1723	0.798
11.2095	0.8
11.2466	0.811
11.2838	0.814
11.321	0.817
11.3582	0.795
11.3954	0.688
11.4326	0.718
11.4697	0.441
11.5069	0.236
11.5441	0.448
11.5813	0.64
11.6185	0.726
11.6557	0.755
11.6929	0.781
11.73	0.809
11.7672	0.823
11.8044	0.832
11.8416	0.852
11.8788	0.863
11.916	0.874
11.9531	0.865
11.9903	0.804
12.0275	0.704
12.0647	0.555
12.1019	0.599
12.1391	0.747
12.1762	0.831
12.2134	0.859
12.2506	0.845
12.2878	0.817
12.325	0.808
12.3622	0.767
12.3993	0.821
12.4365	0.845
12.4737	0.869
12.5109	0.877
12.5481	0.88
12.5853	0.886
12.6225	0.904
12.6596	0.907
12.6968	0.913
12.734	0.916
12.7712	0.919
12.8084	0.921
12.8456	0.922
12.8827	0.921
12.9199	0.927
12.9571	0.922
12.9943	0.921
13.0315	0.922
13.0687	0.927
13.1058	0.931
13.143	0.931
13.1802	0.934
13.2174	0.925
13.2546	0.927
13.2918	0.925
13.3289	0.93
13.3661	0.925
13.4033	0.922
13.4405	0.913
13.4777	0.907
13.5149	0.896
13.5521	0.888
13.5892	0.879
13.6264	0.866
13.6636	0.873
13.7008	0.865
13.738	0.871
13.7752	0.869
13.8123	0.854
13.8495	0.848
13.8867	0.852
13.9239	0.866
13.9611	0.894
13.9983	0.907
14.0354	0.914
14.0726	0.933
14.1098	0.944
14.147	0.948
14.1842	0.955
14.2214	0.961
14.2585	0.958
14.2957	0.967
14.3329	0.962
14.3701	0.955
14.4073	0.958
14.4445	0.952
14.4817	0.95
14.5188	0.948
14.556	0.933
14.5932	0.927
14.6304	0.927
14.6676	0.916
14.7048	0.9
14.7419	0.894
14.7791	0.88
14.8163	0.877
14.8535	0.868
14.8907	0.859
14.9279	0.848
14.965	0.839
15.0022	0.795
15.0394	0.729
15.0766	0.671
15.1138	0.688
15.151	0.719
15.1882	0.75
15.2253	0.769
15.2625	0.773
15.2997	0.761
15.3369	0.753
15.3741	0.739
15.4113	0.736
15.4484	0.722
15.4856	0.701
15.5228	0.696
15.56	0.684
15.5972	0.676
15.6344	0.665
15.6715	0.651
15.7087	0.639
15.7459	0.623
15.7831	0.6
15.8203	0.605
15.8575	0.577
15.8946	0.577
15.9318	0.558
15.969	0.54
16.0062	0.523
