Infrared Spectrum: NICOTINAMIDE, HYDROBROMIDE
Formula: C6 H7 Br N2 O
State: SOLID (SPLIT MULL)
Class: COBLENTZ III
Instrument: DOW KBr FOREPRISM-GRATING
Instrument parameters: BLAZED AT 3.5, 12.0, 20.0 MICRON AND CHANGED AT 5.0, 7.5, 14.9 MICRON
Sampling: TRANSMISSION
Resolution: 2
Origin: DOW CHEMICAL COMPANY
1/CM	TRANSMITTANCE
469	0.9178
478	0.9093
487	0.8987
496	0.8873
505	0.8782
514	0.8702
523	0.8612
532	0.8284
541	0.6934
550	0.8894
559	0.8821
568	0.8555
577	0.8158
586	0.7522
595	0.6699
604	0.577
613	0.4371
622	0.242
631	0.2469
640	0.0991
649	0.5774
658	0.6936
667	0.3879
676	0.4567
685	0.8658
694	0.8918
703	0.8728
712	0.7967
721	0.6995
730	0.8668
739	0.8983
748	0.8957
757	0.8683
766	0.8168
775	0.6327
784	0.5303
793	0.7251
802	0.9254
811	0.9184
820	0.3702
829	0.9346
838	0.9871
847	0.9916
856	0.9875
865	0.9832
874	0.9824
883	0.9639
892	0.9267
901	0.7649
910	0.8762
919	0.9578
928	0.9596
937	0.9565
946	0.9495
955	0.903
964	0.9536
973	0.9538
982	0.9494
991	0.9338
1000	0.8781
1009	0.8417
1018	0.6022
1027	0.7251
1036	0.8875
1045	0.9236
1054	0.9244
1063	0.914
1072	0.9294
1081	0.9298
1090	0.9128
1099	0.7912
1108	0.8567
1117	0.7788
1126	0.2112
1135	0.8605
1144	0.8645
1153	0.8709
1162	0.8802
1171	0.8768
1180	0.8208
1189	0.8656
1198	0.8738
1207	0.8544
1216	0.8274
1225	0.8252
1234	0.8092
1243	0.7686
1252	0.7006
1261	0.583
1270	0.7253
1279	0.7155
1288	0.6808
1297	0.6682
1306	0.6711
1315	0.6541
1324	0.6294
1333	0.6081
1342	0.5242
1351	0.5416
1360	0.6089
1369	0.6758
1378	0.651
1387	0.623
1396	0.5376
1405	0.2902
1414	0.1603
1423	0.6635
1432	0.733
1441	0.7395
1450	0.7424
1459	0.6968
1468	0.3268
1477	0.8084
1486	0.8142
1495	0.8125
1504	0.8024
1513	0.7864
1522	0.7671
1531	0.7305
1540	0.6775
1549	0.4876
1558	0.7519
1567	0.7557
1576	0.7315
1585	0.6765
1594	0.5744
1603	0.2272
1612	0.4262
1621	0.3202
1630	0.3292
1639	0.516
1648	0.4566
1657	0.1246
1666	0.0493
1675	0.1174
1684	0.6681
1693	0.7991
1702	0.8907
1711	0.9197
1720	0.9068
1729	0.8955
1738	0.9004
1747	0.9027
1756	0.8996
1765	0.8944
1774	0.8767
1783	0.8558
1792	0.8483
1801	0.8442
1810	0.8636
1819	0.8736
1828	0.8697
1837	0.8618
1846	0.8521
1855	0.8463
1864	0.852
1873	0.8594
1882	0.8518
1891	0.8336
1900	0.7992
1909	0.7651
1918	0.7612
1927	0.798
1936	0.8136
1945	0.8165
1954	0.8046
1963	0.8021
1972	0.8087
1981	0.798
1990	0.8089
1999	0.8323
2008	0.8165
2017	0.7981
2026	0.7768
2035	0.7596
2044	0.7693
2053	0.7784
2062	0.7906
2071	0.8132
2080	0.8184
2089	0.8214
2098	0.8253
2107	0.8215
2116	0.8176
2125	0.8147
2134	0.8118
2143	0.8089
2152	0.8057
2161	0.8006
2170	0.7954
2179	0.7901
2188	0.7846
2197	0.7787
2206	0.7728
2215	0.7668
2224	0.7601
2233	0.7518
2242	0.746
2251	0.7425
2260	0.7407
2269	0.7378
2278	0.7345
2287	0.7291
2296	0.7239
2305	0.7188
2314	0.7132
2323	0.7069
2332	0.7014
2341	0.696
2350	0.6905
2359	0.6851
2368	0.6792
2377	0.6728
2386	0.6664
2395	0.6592
2404	0.6515
2413	0.6434
2422	0.635
2431	0.6254
2440	0.6147
2449	0.6029
2458	0.5902
2467	0.5751
2476	0.5581
2485	0.5406
2494	0.523
2503	0.5069
2512	0.4917
2521	0.4751
2530	0.4569
2539	0.4408
2548	0.422
2557	0.3996
2566	0.3746
2575	0.344
2584	0.3099
2593	0.2816
2602	0.2695
2611	0.2664
2620	0.2592
2629	0.2377
2638	0.2359
2647	0.2353
2656	0.2167
2665	0.2
2674	0.1901
2683	0.2225
2692	0.2774
2701	0.2697
2710	0.2458
2719	0.2291
2728	0.2334
2737	0.2566
2746	0.2866
2755	0.3127
2764	0.3388
2773	0.3649
2782	0.3909
2791	0.4177
2800	0.4473
2809	0.4383
2818	0.4368
2827	0.4724
2836	0.5035
2845	0.5108
2854	0.5152
2863	0.5186
2872	0.5567
2881	0.5806
2890	0.5469
2899	0.4966
2908	0.4993
2917	0.5301
2926	0.5452
2935	0.5775
2944	0.5559
2953	0.521
2962	0.5094
2971	0.5178
2980	0.5401
2989	0.5571
2998	0.557
3007	0.5401
3016	0.5189
3025	0.469
3034	0.4204
3043	0.387
3052	0.4088
3061	0.3482
3070	0.2964
3079	0.4577
3088	0.4651
3097	0.432
3106	0.3693
3115	0.3358
3124	0.2703
3133	0.1607
3142	0.1018
3151	0.0878
3160	0.226
3169	0.3872
3178	0.535
3187	0.5764
3196	0.5757
3205	0.5407
3214	0.5087
3223	0.512
3232	0.5162
3241	0.5148
3250	0.5203
3259	0.5223
3268	0.5134
3277	0.5003
3286	0.4841
3295	0.4667
3304	0.4449
3313	0.4064
3322	0.3616
3331	0.2378
3340	0.0983
3349	0.1041
3358	0.3582
3367	0.5684
3376	0.6784
3385	0.7355
3394	0.7511
3403	0.756
3412	0.7562
3421	0.7544
3430	0.7511
3439	0.7465
3448	0.7422
3457	0.7381
3466	0.7343
3475	0.7301
3484	0.726
3493	0.7215
3502	0.7175
3511	0.7146
3520	0.7124
3529	0.7114
3538	0.7105
3547	0.7098
3556	0.7091
3565	0.7081
3574	0.7071
3583	0.7058
3592	0.7045
3601	0.7025
3610	0.7005
3619	0.6984
3628	0.6962
3637	0.6944
3646	0.6925
3655	0.6905
3664	0.688
3673	0.6854
3682	0.6815
3691	0.6782
3700	0.6771
3709	0.6751
3718	0.6722
3727	0.6693
3736	0.6668
3745	0.6643
3754	0.6618
3763	0.6594
3772	0.6575
3781	0.6562
3790	0.6557
