Infrared Spectrum: L-ARGININE, HYDROCHLORIDE
Formula: C6 H15 Cl N4 O2
State: SOLID (KCl DISC)
Melting point: 235 C DECOMP.
Class: COBLENTZ III
Instrument: PERKIN-ELMER 21 (GRATING)
Instrument parameters: FILTER AT ABOUT 10 MICRONS
Sampling: TRANSMISSION
Resolution: 2
1/CM	TRANSMITTANCE
4000	0.779
3991	0.7817
3982	0.7845
3973	0.7872
3964	0.7901
3955	0.793
3946	0.7958
3937	0.7987
3928	0.8015
3919	0.8044
3910	0.808
3901	0.8115
3892	0.8153
3883	0.8188
3874	0.8201
3865	0.821
3856	0.8221
3847	0.8239
3838	0.8263
3829	0.8286
3820	0.8311
3811	0.8334
3802	0.837
3793	0.8428
3784	0.8486
3775	0.854
3766	0.8575
3757	0.8612
3748	0.8648
3739	0.8671
3730	0.8692
3721	0.8712
3712	0.8733
3703	0.8753
3694	0.8775
3685	0.8798
3676	0.8821
3667	0.8845
3658	0.8868
3649	0.8891
3640	0.8912
3631	0.8933
3622	0.8949
3613	0.8963
3604	0.8975
3595	0.8971
3586	0.8965
3577	0.8954
3568	0.8912
3559	0.8807
3550	0.8613
3541	0.8339
3532	0.8183
3523	0.806
3514	0.7978
3505	0.7894
3496	0.7811
3487	0.7654
3478	0.7435
3469	0.7187
3460	0.6541
3451	0.6212
3442	0.5969
3433	0.5576
3424	0.5162
3415	0.4747
3406	0.4328
3397	0.3942
3388	0.38
3379	0.3532
3370	0.2774
3361	0.2657
3352	0.2562
3343	0.248
3334	0.2428
3325	0.2398
3316	0.2374
3307	0.2368
3298	0.2371
3289	0.2385
3280	0.2413
3271	0.2473
3262	0.2543
3253	0.2597
3244	0.2624
3235	0.2631
3226	0.2505
3217	0.2363
3208	0.222
3199	0.2077
3190	0.1933
3181	0.1787
3172	0.1643
3163	0.1496
3154	0.1446
3145	0.1428
3136	0.1614
3127	0.1765
3118	0.1916
3109	0.2068
3100	0.2222
3091	0.2264
3082	0.2272
3073	0.2279
3064	0.2284
3055	0.2285
3046	0.2288
3037	0.229
3028	0.2284
3019	0.2277
3010	0.227
3001	0.2263
2992	0.2256
2983	0.225
2974	0.2244
2965	0.2224
2956	0.2163
2947	0.2089
2938	0.2002
2929	0.1902
2920	0.185
2911	0.1808
2902	0.1786
2893	0.1776
2884	0.177
2875	0.1772
2866	0.1791
2857	0.1854
2848	0.1939
2839	0.2036
2830	0.2153
2821	0.226
2812	0.2355
2803	0.2452
2794	0.2552
2785	0.2663
2776	0.2774
2767	0.2887
2758	0.3001
2749	0.3107
2740	0.3184
2731	0.3264
2722	0.3339
2713	0.3412
2704	0.3484
2695	0.3553
2686	0.3612
2677	0.3671
2668	0.3729
2659	0.3766
2650	0.3804
2641	0.3848
2632	0.3895
2623	0.3932
2614	0.3957
2605	0.3964
2596	0.398
2587	0.4008
2578	0.4071
2569	0.416
2560	0.4262
2551	0.4355
2542	0.4446
2533	0.4544
2524	0.4618
2515	0.4662
2506	0.4705
2497	0.4779
2488	0.4862
2479	0.4945
2470	0.5032
2461	0.5128
2452	0.5224
2443	0.5319
2434	0.5414
2425	0.5516
2416	0.5624
2407	0.5762
2398	0.5877
2389	0.5946
2380	0.5977
2371	0.6007
2362	0.6046
2353	0.6087
2344	0.6162
2335	0.6243
2326	0.6319
2317	0.6395
2308	0.6468
2299	0.6536
2290	0.6608
2281	0.6651
2272	0.6699
2263	0.6757
2254	0.6843
2245	0.6964
2236	0.7045
2227	0.7078
2218	0.7104
2209	0.7122
2200	0.713
2191	0.7183
2182	0.7201
2173	0.7217
2164	0.7233
2155	0.7241
2146	0.7245
2137	0.696
2128	0.6825
2119	0.6768
2110	0.6755
2101	0.6804
2092	0.6892
2083	0.6925
2074	0.6971
2065	0.7065
2056	0.718
2047	0.7298
2038	0.7418
2029	0.7543
2020	0.7669
2011	0.778
2002	0.7887
1993	0.7998
1984	0.8112
1975	0.823
1966	0.8348
1957	0.8417
1948	0.8451
1939	0.8494
1930	0.855
1921	0.8608
1912	0.8658
1903	0.8728
1894	0.8797
1885	0.8866
1876	0.8943
1867	0.9013
1858	0.9064
1849	0.9109
1840	0.9128
1831	0.9135
1822	0.9128
1813	0.9118
1804	0.9108
1795	0.9017
1786	0.8965
1777	0.8898
1768	0.8762
1759	0.8578
1750	0.7899
1741	0.7403
1732	0.6678
1723	0.6118
1714	0.4883
1705	0.2923
1696	0.1469
1687	0.0872
1678	0.1118
1669	0.1383
1660	0.1299
1651	0.1274
1642	0.129
1633	0.1832
1624	0.2606
1615	0.322
1606	0.2921
1597	0.2412
1588	0.1823
1579	0.1157
1570	0.1359
1561	0.2416
1552	0.3486
1543	0.3647
1534	0.2597
1525	0.1362
1516	0.1362
1507	0.2182
1498	0.3081
1489	0.3992
1480	0.481
1471	0.4198
1462	0.3837
1453	0.4333
1444	0.5005
1435	0.5279
1426	0.4134
1417	0.2295
1408	0.26
1399	0.3818
1390	0.3876
1381	0.4544
1372	0.5086
1363	0.3426
1354	0.3746
1345	0.4588
1336	0.4637
1327	0.3123
1318	0.3426
1309	0.3906
1300	0.48
1291	0.4973
1282	0.5069
1273	0.5447
1264	0.5114
1255	0.556
1246	0.5765
1237	0.587
1228	0.5898
1219	0.5574
1210	0.535
1201	0.5662
1192	0.5402
1183	0.5056
1174	0.4483
1165	0.5414
1156	0.5862
1147	0.6087
1138	0.5133
1129	0.513
1120	0.5414
1111	0.5469
1102	0.5366
1093	0.5643
1084	0.584
1075	0.6005
1066	0.6144
1057	0.605
1048	0.6079
1039	0.6421
1030	0.6464
1021	0.5606
1012	0.6309
1003	0.6806
994	0.6407
985	0.693
976	0.7104
967	0.6989
958	0.7145
949	0.7285
940	0.7382
931	0.7449
922	0.755
913	0.7598
904	0.7632
895	0.6668
886	0.7518
877	0.7799
868	0.7903
859	0.6922
850	0.5462
841	0.6989
832	0.7558
823	0.7732
814	0.7799
805	0.7811
796	0.6605
787	0.7089
778	0.749
769	0.7468
760	0.6327
751	0.6457
742	0.6534
733	0.6398
724	0.5755
715	0.5749
706	0.5222
697	0.5094
688	0.5639
679	0.5909
670	0.5868
