Infrared Spectrum: Phosphorothioic acid, S-3-aminopropyl ester, hydrate
Formula: C3 H10 N O3 P S  * H2 O
State: SOLID (1 mg / 650 mg KBr DISC)
Class: COBLENTZ III
Instrument: PERKIN-ELMER 521 (GRATING)
Instrument parameters: FILTERS AT 3150, 2500, 2000, 1150, 700, 410. GRATING CHANGES: 2000, 630
Resolution: 2
Origin: SOUTHERN RESEARCH INSTITUTE
1/CM	TRANSMITTANCE
249	0.1998
258	0.2252
267	0.2497
276	0.276
285	0.3041
294	0.3433
303	0.4359
312	0.4534
321	0.4768
330	0.5111
339	0.5262
348	0.524
357	0.5672
366	0.6086
375	0.6203
384	0.6155
393	0.5888
402	0.5544
411	0.6056
420	0.6291
429	0.6155
438	0.5625
447	0.5034
456	0.4498
465	0.4247
474	0.4046
483	0.3709
492	0.3773
501	0.5149
510	0.5732
519	0.6214
528	0.6335
537	0.6397
546	0.6377
555	0.6194
564	0.5722
573	0.4964
582	0.3721
591	0.2386
600	0.2401
609	0.4011
618	0.6016
627	0.6939
636	0.7195
645	0.7303
654	0.7393
663	0.7475
672	0.7513
681	0.7502
690	0.747
699	0.7378
708	0.7203
717	0.6879
726	0.7015
735	0.6783
744	0.6857
753	0.6886
762	0.6731
771	0.6463
780	0.6358
789	0.623
798	0.606
807	0.5881
816	0.5678
825	0.5501
834	0.5316
843	0.5547
852	0.6033
861	0.5948
870	0.5705
879	0.5447
888	0.523
897	0.4759
906	0.4011
915	0.3036
924	0.2226
933	0.3141
942	0.4894
951	0.5401
960	0.5433
969	0.5227
978	0.4666
987	0.387
996	0.3425
1005	0.2632
1014	0.1807
1023	0.1406
1032	0.1321
1041	0.1789
1050	0.2715
1059	0.3823
1068	0.5077
1077	0.5444
1086	0.5615
1095	0.5585
1104	0.5266
1113	0.487
1122	0.4172
1131	0.3495
1140	0.2716
1149	0.2119
1158	0.1857
1167	0.2297
1176	0.2756
1185	0.2788
1194	0.2829
1203	0.3213
1212	0.4029
1221	0.417
1230	0.4518
1239	0.5159
1248	0.5031
1257	0.5383
1266	0.6348
1275	0.6628
1284	0.673
1293	0.6604
1302	0.6846
1311	0.6898
1320	0.6737
1329	0.6598
1338	0.6832
1347	0.7174
1356	0.7245
1365	0.7178
1374	0.6803
1383	0.6271
1392	0.6627
1401	0.7151
1410	0.7178
1419	0.7034
1428	0.6733
1437	0.6257
1446	0.653
1455	0.6166
1464	0.6151
1473	0.689
1482	0.6854
1491	0.6723
1500	0.6407
1509	0.5979
1518	0.5269
1527	0.4708
1536	0.4994
1545	0.5993
1554	0.627
1563	0.6311
1572	0.6267
1581	0.6154
1590	0.6024
1599	0.5831
1608	0.5505
1617	0.5151
1626	0.4882
1635	0.5088
1644	0.5726
1653	0.6409
1662	0.6629
1671	0.6737
1680	0.6858
1689	0.6917
1698	0.6971
1707	0.7026
1716	0.7077
1725	0.7123
1734	0.7167
1743	0.721
1752	0.7251
1761	0.7284
1770	0.7314
1779	0.7339
1788	0.7364
1797	0.7385
1806	0.7399
1815	0.7413
1824	0.7427
1833	0.7437
1842	0.7446
1851	0.7454
1860	0.7463
1869	0.7473
1878	0.7482
1887	0.7492
1896	0.7501
1905	0.75
1914	0.7495
1923	0.749
1932	0.7481
1941	0.7458
1950	0.7426
1959	0.7361
1968	0.7286
1977	0.721
1986	0.7149
1995	0.7125
2004	0.708
2013	0.7015
2022	0.6946
2031	0.6855
2040	0.6759
2049	0.6651
2058	0.654
2067	0.6419
2076	0.6292
2085	0.6168
2094	0.6069
2103	0.6015
2112	0.5976
2121	0.595
2130	0.5924
2139	0.5872
2148	0.5908
2157	0.5975
2166	0.602
2175	0.6013
2184	0.5977
2193	0.5916
2202	0.5832
2211	0.5749
2220	0.5686
2229	0.5658
2238	0.5637
2247	0.5586
2256	0.5514
2265	0.5431
2274	0.5345
2283	0.527
2292	0.5198
2301	0.5147
2310	0.5162
2319	0.5185
2328	0.5206
2337	0.5226
2346	0.5246
2355	0.5265
2364	0.5284
2373	0.5301
2382	0.5321
2391	0.5342
2400	0.5351
2409	0.536
2418	0.535
2427	0.5338
2436	0.5309
2445	0.5252
2454	0.516
2463	0.5043
2472	0.4917
2481	0.4798
2490	0.469
2499	0.4592
2508	0.4522
2517	0.4469
2526	0.4442
2535	0.4393
2544	0.433
2553	0.4249
2562	0.4147
2571	0.4014
2580	0.3895
2589	0.3776
2598	0.365
2607	0.3535
2616	0.3434
2625	0.3341
2634	0.3287
2643	0.3261
2652	0.3237
2661	0.3226
2670	0.324
2679	0.3292
2688	0.3279
2697	0.3203
2706	0.3079
2715	0.2906
2724	0.2787
2733	0.274
2742	0.2768
2751	0.2838
2760	0.2872
2769	0.2866
2778	0.2855
2787	0.2819
2796	0.2738
2805	0.2606
2814	0.2466
2823	0.2356
2832	0.231
2841	0.2309
2850	0.2328
2859	0.2344
2868	0.2247
2877	0.211
2886	0.2014
2895	0.1982
2904	0.1975
2913	0.1989
2922	0.2033
2931	0.2085
2940	0.2172
2949	0.2267
2958	0.2345
2967	0.2367
2976	0.2359
2985	0.2369
2994	0.2431
3003	0.2509
3012	0.2595
3021	0.2679
3030	0.2764
3039	0.2851
3048	0.2961
3057	0.3081
3066	0.3199
3075	0.3315
3084	0.3426
3093	0.3546
3102	0.3682
3111	0.3828
3120	0.3966
3129	0.409
3138	0.4196
3147	0.4278
3156	0.433
3165	0.4492
3174	0.4633
3183	0.4775
3192	0.4913
3201	0.5045
3210	0.5176
3219	0.5302
3228	0.5394
3237	0.5464
3246	0.5529
3255	0.5597
3264	0.567
3273	0.5753
3282	0.5842
3291	0.5937
3300	0.6024
3309	0.6077
3318	0.6102
3327	0.6122
3336	0.6138
3345	0.6148
3354	0.6152
3363	0.6136
3372	0.6088
3381	0.6086
3390	0.6091
3399	0.6101
3408	0.6115
3417	0.613
3426	0.6142
3435	0.6162
3444	0.6194
3453	0.6244
3462	0.63
3471	0.6356
3480	0.6412
3489	0.6473
3498	0.6536
3507	0.6622
3516	0.6708
3525	0.6799
3534	0.6891
3543	0.6983
3552	0.7064
3561	0.7139
3570	0.7202
3579	0.726
3588	0.732
3597	0.7381
3606	0.7443
3615	0.7505
3624	0.7568
3633	0.7634
3642	0.7628
3651	0.7679
3660	0.7751
3669	0.7637
3678	0.7686
3687	0.7676
3696	0.781
3705	0.7794
3714	0.7789
3723	0.7856
3732	0.7832
3741	0.7795
3750	0.7781
3759	0.7872
3768	0.7923
3777	0.7932
3786	0.7942
3795	0.7933
