Infrared Spectrum: COCAINE MURIATE
Formula: C17 H22 Cl N O4
State: SOLID (1 mg / 125 mg KBr DISC)
Melting point: 195 C
Class: COBLENTZ III
Instrument: PERKIN-ELMER 21 (GRATING)
Instrument parameters: FILTER AT ABOUT 10 MICRONS
Sampling: TRANSMISSION
Resolution: 2
Origin: BUREAU OF CUSTOMS
1/CM	TRANSMITTANCE
4000	0.9217
3991	0.9223
3982	0.923
3973	0.9236
3964	0.9239
3955	0.9236
3946	0.9233
3937	0.923
3928	0.9228
3919	0.9225
3910	0.9223
3901	0.9221
3892	0.9218
3883	0.9218
3874	0.9216
3865	0.9216
3856	0.9214
3847	0.9213
3838	0.9221
3829	0.9234
3820	0.9246
3811	0.9259
3802	0.9265
3793	0.927
3784	0.9275
3775	0.928
3766	0.9285
3757	0.9285
3748	0.9281
3739	0.9277
3730	0.9271
3721	0.9267
3712	0.9258
3703	0.9247
3694	0.9237
3685	0.9221
3676	0.9198
3667	0.9174
3658	0.9145
3649	0.9099
3640	0.9052
3631	0.8989
3622	0.8923
3613	0.8853
3604	0.8758
3595	0.8663
3586	0.8571
3577	0.8485
3568	0.8399
3559	0.8312
3550	0.8221
3541	0.8125
3532	0.8028
3523	0.7925
3514	0.7811
3505	0.7701
3496	0.7615
3487	0.7534
3478	0.7451
3469	0.7353
3460	0.7254
3451	0.7162
3442	0.7072
3433	0.6997
3424	0.6971
3415	0.6962
3406	0.6961
3397	0.7001
3388	0.7107
3379	0.7218
3370	0.7339
3361	0.7461
3352	0.7598
3343	0.7735
3334	0.7861
3325	0.7956
3316	0.8049
3307	0.8142
3298	0.8214
3289	0.8284
3280	0.835
3271	0.8404
3262	0.8459
3253	0.8514
3244	0.8554
3235	0.8588
3226	0.8621
3217	0.8656
3208	0.8681
3199	0.8702
3190	0.8717
3181	0.8725
3172	0.8734
3163	0.8737
3154	0.8725
3145	0.8709
3136	0.8662
3127	0.8614
3118	0.8554
3109	0.8486
3100	0.8412
3091	0.8352
3082	0.8309
3073	0.8285
3064	0.8264
3055	0.8211
3046	0.8137
3037	0.8
3028	0.7881
3019	0.7446
3010	0.7051
3001	0.7096
2992	0.7147
2983	0.7104
2974	0.6591
2965	0.6099
2956	0.6041
2947	0.6105
2938	0.626
2929	0.6536
2920	0.6705
2911	0.6741
2902	0.6761
2893	0.6808
2884	0.6908
2875	0.7071
2866	0.7161
2857	0.7221
2848	0.7244
2839	0.7253
2830	0.726
2821	0.7264
2812	0.7243
2803	0.7137
2794	0.6981
2785	0.685
2776	0.6761
2767	0.6698
2758	0.6668
2749	0.6692
2740	0.6808
2731	0.6937
2722	0.6961
2713	0.6965
2704	0.6844
2695	0.6732
2686	0.673
2677	0.6737
2668	0.676
2659	0.6783
2650	0.6818
2641	0.6858
2632	0.6897
2623	0.695
2614	0.7006
2605	0.7064
2596	0.7121
2587	0.7221
2578	0.7278
2569	0.7295
2560	0.7175
2551	0.6892
2542	0.6814
2533	0.6798
2524	0.6922
2515	0.7104
2506	0.7237
2497	0.7321
2488	0.7405
2479	0.7584
2470	0.7842
2461	0.8081
2452	0.8237
2443	0.8282
2434	0.8302
2425	0.8332
2416	0.8413
2407	0.8513
2398	0.858
2389	0.864
2380	0.872
2371	0.8742
2362	0.8748
2353	0.874
2344	0.8745
2335	0.8813
2326	0.8868
2317	0.8938
2308	0.9045
2299	0.9142
2290	0.922
2281	0.9264
2272	0.929
2263	0.9315
2254	0.9335
2245	0.9355
2236	0.9375
2227	0.9385
2218	0.9395
2209	0.9405
2200	0.9414
2191	0.9424
2182	0.9432
2173	0.944
2164	0.944
2155	0.9439
2146	0.9439
2137	0.9439
2128	0.9432
2119	0.9421
2110	0.9412
2101	0.9413
2092	0.9418
2083	0.9421
2074	0.9421
2065	0.943
2056	0.944
2047	0.9437
2038	0.9402
2029	0.9375
2020	0.9354
2011	0.934
2002	0.9364
1993	0.9398
1984	0.9428
1975	0.9423
1966	0.939
1957	0.9394
1948	0.9411
1939	0.9438
1930	0.9458
1921	0.947
1912	0.9478
1903	0.9478
1894	0.9475
1885	0.9466
1876	0.9427
1867	0.9425
1858	0.9432
1849	0.9435
1840	0.9423
1831	0.9325
1822	0.9286
1813	0.924
1804	0.9163
1795	0.9054
1786	0.8915
1777	0.8678
1768	0.8458
1759	0.8054
1750	0.7122
1741	0.2984
1732	0.0668
1723	0.1682
1714	0.1054
1705	0.403
1696	0.6721
1687	0.7485
1678	0.7872
1669	0.8149
1660	0.8264
1651	0.8264
1642	0.8172
1633	0.8117
1624	0.8154
1615	0.8253
1606	0.7825
1597	0.7595
1588	0.8334
1579	0.8491
1570	0.8811
1561	0.8927
1552	0.8886
1543	0.8875
1534	0.8906
1525	0.8928
1516	0.8905
1507	0.8757
1498	0.8286
1489	0.5452
1480	0.6267
1471	0.7475
1462	0.6099
1453	0.4254
1444	0.6184
1435	0.5446
1426	0.6653
1417	0.8135
1408	0.8264
1399	0.7042
1390	0.7336
1381	0.675
1372	0.5362
1363	0.5338
1354	0.6182
1345	0.6301
1336	0.6832
1327	0.6442
1318	0.6216
1309	0.5509
1300	0.4305
1291	0.4548
1282	0.2522
1273	0.1066
1264	0.0771
1255	0.3064
1246	0.2971
1237	0.3537
1228	0.3046
1219	0.5062
1210	0.5473
1201	0.5847
1192	0.6893
1183	0.6407
1174	0.6116
1165	0.5164
1156	0.5923
1147	0.5394
1138	0.4649
1129	0.4916
1120	0.4585
1111	0.2191
1102	0.2577
1093	0.5544
1084	0.7371
1075	0.4155
1066	0.5908
1057	0.6811
1048	0.7855
1039	0.8096
1030	0.6121
1021	0.5284
1012	0.5447
1003	0.7221
994	0.7706
985	0.7488
976	0.7095
967	0.8257
958	0.8492
949	0.8314
940	0.8852
931	0.8959
922	0.8409
913	0.8933
904	0.9067
895	0.8741
886	0.8995
877	0.9106
868	0.8999
859	0.8896
850	0.715
841	0.8868
832	0.8411
823	0.9007
814	0.8075
805	0.8925
796	0.8609
787	0.8642
778	0.8841
769	0.9028
760	0.8846
751	0.7968
742	0.8367
733	0.3755
724	0.5333
715	0.6179
706	0.7715
697	0.8425
688	0.8196
679	0.7708
670	0.8284
661	0.8118
652	0.8112
