Infrared Spectrum: LITHIUM-12-HYDROXY STEARATE
Formula: C18 H35 O3 Li
State: SOLID (MINERAL OIL MULL)
Class: COBLENTZ
Instrument: Not specified, most likely a prism, grating, or hybrid spectrometer.
Sampling: TRANSMISSION
Resolution: 4
Origin: WYANDOTTE CHEMICALS CORP., WYANDOTTE, MICHIGAN, USA
MICROMETERS	TRANSMITTANCE
2.061	0.868
2.10186	0.868
2.14271	0.872
2.18357	0.86
2.22442	0.802
2.26528	0.787
2.30614	0.787
2.34699	0.788
2.38785	0.807
2.4287	0.829
2.46956	0.836
2.51042	0.848
2.55127	0.86
2.59213	0.872
2.63298	0.88
2.67384	0.889
2.7147	0.882
2.75555	0.88
2.79641	0.867
2.83726	0.824
2.87812	0.766
2.91898	0.705
2.95983	0.614
3.00069	0.466
3.04154	0.39
3.0824	0.4
3.12325	0.424
3.16411	0.531
3.20497	0.616
3.24582	0.65
3.28668	0.599
3.32753	0.405
3.36839	0.037
3.40925	0.032
3.4501	0.034
3.49096	0.039
3.53181	0.085
3.57267	0.475
3.61353	0.63
3.65438	0.672
3.69524	0.684
3.73609	0.71
3.77695	0.732
3.81781	0.754
3.85866	0.78
3.89952	0.804
3.94037	0.827
3.98123	0.839
4.02209	0.862
4.06294	0.873
4.1038	0.884
4.14465	0.894
4.18551	0.896
4.22637	0.894
4.26722	0.879
4.30808	0.879
4.34893	0.89
4.38979	0.913
4.43065	0.919
4.4715	0.921
4.51236	0.925
4.55321	0.93
4.59407	0.933
4.63493	0.935
4.67578	0.938
4.71664	0.938
4.75749	0.94
4.79835	0.94
4.83921	0.94
4.88006	0.94
4.92092	0.942
4.96177	0.94
5.00263	0.936
5.04348	0.938
5.08434	0.938
5.1252	0.938
5.16605	0.942
5.20691	0.942
5.24776	0.943
5.28862	0.945
5.32948	0.945
5.37033	0.947
5.41119	0.948
5.45204	0.95
5.4929	0.95
5.53376	0.95
5.57461	0.95
5.61547	0.942
5.65632	0.926
5.69718	0.919
5.73804	0.844
5.77889	0.567
5.81975	0.691
5.8606	0.724
5.90146	0.826
5.94232	0.863
5.98317	0.868
6.02403	0.851
6.06488	0.821
6.10574	0.764
6.1466	0.669
6.18745	0.482
6.22831	0.229
6.26916	0.04
6.31002	0.056
6.35088	0.11
6.39173	0.081
6.43259	0.255
6.47344	0.49
6.5143	0.538
6.55516	0.618
6.59601	0.642
6.63687	0.632
6.67772	0.565
6.71858	0.422
6.75944	0.201
6.80029	0.04
6.84115	0.039
6.882	0.04
6.92286	0.068
6.96371	0.165
7.00457	0.238
7.04543	0.248
7.08628	0.226
7.12714	0.315
7.16799	0.408
7.20885	0.332
7.24971	0.19
7.29056	0.323
7.33142	0.413
7.37227	0.468
7.41313	0.425
7.45399	0.398
7.49484	0.504
7.5357	0.543
7.57655	0.567
7.61741	0.558
7.65827	0.529
7.69912	0.553
7.73998	0.572
7.78083	0.584
7.82169	0.608
7.86255	0.609
7.9034	0.603
7.94426	0.618
7.98511	0.609
8.02597	0.611
8.06683	0.638
8.10768	0.635
8.14854	0.608
8.18939	0.642
8.23025	0.64
8.27111	0.649
8.31196	0.657
8.35282	0.637
8.39367	0.64
8.43453	0.64
8.47539	0.63
8.51624	0.637
8.5571	0.649
8.59795	0.676
8.63881	0.688
8.67967	0.695
8.72052	0.688
8.76138	0.623
8.80223	0.514
8.84309	0.492
8.88394	0.557
8.9248	0.567
8.96566	0.517
9.00651	0.601
9.04737	0.632
9.08822	0.654
9.12908	0.672
9.16994	0.654
9.21079	0.579
9.25165	0.494
9.2925	0.478
9.33336	0.531
9.37422	0.568
9.41507	0.577
9.45593	0.592
9.49678	0.621
9.53764	0.637
9.5785	0.628
9.61935	0.628
9.66021	0.638
9.70106	0.597
9.74192	0.579
9.78278	0.625
9.82363	0.678
9.86449	0.7
9.90534	0.715
9.9462	0.698
9.98706	0.666
10.0279	0.63
10.0688	0.643
10.1096	0.686
10.1505	0.718
10.1913	0.72
10.2322	0.71
10.273	0.725
10.3139	0.732
10.3548	0.735
10.3956	0.742
10.4365	0.752
10.4773	0.756
10.5182	0.754
10.559	0.763
10.5999	0.763
10.6408	0.751
10.6816	0.724
10.7225	0.718
10.7633	0.729
10.8042	0.727
10.845	0.703
10.8859	0.611
10.9267	0.638
10.9676	0.73
11.0085	0.776
11.0493	0.8
11.0902	0.81
11.131	0.814
11.1719	0.81
11.2127	0.8
11.2536	0.776
11.2944	0.768
11.3353	0.778
11.3762	0.793
11.417	0.8
11.4579	0.798
11.4987	0.79
11.5396	0.775
11.5804	0.734
11.6213	0.676
11.6621	0.654
11.703	0.7
11.7439	0.763
11.7847	0.778
11.8256	0.783
11.8664	0.785
11.9073	0.771
11.9481	0.729
11.989	0.664
12.0299	0.62
12.0707	0.703
12.1116	0.77
12.1524	0.795
12.1933	0.807
12.2341	0.817
12.275	0.816
12.3158	0.816
12.3567	0.809
12.3976	0.812
12.4384	0.81
12.4793	0.809
12.5201	0.797
12.561	0.778
12.6018	0.77
12.6427	0.764
12.6835	0.758
12.7244	0.754
12.7653	0.768
12.8061	0.775
12.847	0.775
12.8878	0.768
12.9287	0.764
12.9695	0.754
13.0104	0.751
13.0513	0.741
13.0921	0.727
13.133	0.713
13.1738	0.681
13.2147	0.676
13.2555	0.689
13.2964	0.705
13.3372	0.706
13.3781	0.695
13.419	0.681
13.4598	0.657
13.5007	0.64
13.5415	0.613
13.5824	0.591
13.6232	0.574
13.6641	0.56
13.7049	0.546
13.7458	0.517
13.7867	0.468
13.8275	0.413
13.8684	0.332
13.9092	0.313
13.9501	0.367
13.9909	0.422
14.0318	0.477
14.0727	0.499
14.1135	0.507
14.1544	0.516
14.1952	0.526
14.2361	0.538
14.2769	0.546
14.3178	0.557
14.3586	0.565
14.3995	0.57
14.4404	0.58
14.4812	0.589
14.5221	0.597
14.5629	0.597
14.6038	0.599
14.6446	0.604
14.6855	0.608
14.7263	0.608
14.7672	0.609
14.8081	0.606
14.8489	0.604
14.8898	0.606
14.9306	0.608
14.9715	0.606
15.0123	0.584
15.0532	0.575
15.0941	0.586
15.1349	0.596
15.1758	0.599
15.2166	0.591
15.2575	0.592
15.2983	0.591
15.3392	0.586
15.38	0.586
15.4209	0.586
15.4618	0.58
15.5026	0.577
15.5435	0.57
15.5843	0.57
15.6252	0.568
15.666	0.567
15.7069	0.565
15.7477	0.562
15.7886	0.558
15.8295	0.557
15.8703	0.558
15.9112	0.555
15.952	0.55
15.9929	0.55
