Infrared Spectrum: S-Triazine, 6-butylamino-2,4-diamino-, monohydrochloride
Formula: C7 H15 Cl N6
State: SOLID (KBr DISC, 0.9% WT.)
Class: COBLENTZ III
Instrument: PERKIN-ELMER 157
Sampling: TRANSMISSION
Resolution: 2
Origin: BRITISH PETROLEUM CO. LTD., ENGLAND
1/CM	TRANSMITTANCE
668	0.2169
677	0.2179
686	0.2188
695	0.1914
704	0.1162
713	0.1388
722	0.0875
731	0.1048
740	0.1005
749	0.0763
758	0.1077
767	0.2153
776	0.2444
785	0.107
794	0.2708
803	0.4768
812	0.604
821	0.6528
830	0.6915
839	0.7097
848	0.7081
857	0.7071
866	0.7063
875	0.6929
884	0.6734
893	0.6623
902	0.626
911	0.6235
920	0.602
929	0.5466
938	0.4334
947	0.4476
956	0.4111
965	0.2887
974	0.2406
983	0.3664
992	0.3972
1001	0.4085
1010	0.478
1019	0.4922
1028	0.4573
1037	0.3605
1046	0.2576
1055	0.2245
1064	0.2125
1073	0.2593
1082	0.245
1091	0.3473
1100	0.3129
1109	0.2683
1118	0.3103
1127	0.3196
1136	0.2991
1145	0.2232
1154	0.235
1163	0.2675
1172	0.2924
1181	0.3061
1190	0.2556
1199	0.1256
1208	0.176
1217	0.1983
1226	0.1152
1235	0.2051
1244	0.1988
1253	0.1656
1262	0.1394
1271	0.1522
1280	0.1357
1289	0.0973
1298	0.0513
1307	0.037
1316	0.0362
1325	0.0215
1334	0.0195
1343	0.0179
1352	0.0183
1361	0.0283
1370	0.0339
1379	0.0389
1388	0.0273
1397	0.02
1406	0.0251
1415	0.0354
1424	0.0346
1433	0.0383
1442	0.0443
1451	0.0399
1460	0.0393
1469	0.039
1478	0.0376
1487	0.0266
1496	0.0191
1505	0.0195
1514	0.0223
1523	0.0216
1532	0.0209
1541	0.0202
1550	0.0194
1559	0.0188
1568	0.0182
1577	0.0176
1586	0.017
1595	0.0165
1604	0.0161
1613	0.0158
1622	0.0161
1631	0.0165
1640	0.017
1649	0.0177
1658	0.0185
1667	0.0201
1676	0.0228
1685	0.0273
1694	0.0293
1703	0.0295
1712	0.0329
1721	0.0399
1730	0.086
1739	0.1127
1748	0.1673
1757	0.2786
1766	0.3649
1775	0.4388
1784	0.5048
1793	0.5699
1802	0.6224
1811	0.6379
1820	0.6583
1829	0.6834
1838	0.7575
1847	0.7707
1856	0.7993
1865	0.8119
1874	0.8186
1883	0.8289
1892	0.8274
1901	0.8209
1910	0.8181
1919	0.8173
1928	0.8233
1937	0.8302
1946	0.831
1955	0.8265
1964	0.8186
1973	0.8158
1982	0.815
1991	0.8157
2000	0.8137
2009	0.7996
2018	0.7968
2027	0.788
2036	0.7782
2045	0.7696
2054	0.7615
2063	0.7549
2072	0.7515
2081	0.7491
2090	0.7387
2099	0.7355
2108	0.7333
2117	0.7315
2126	0.7297
2135	0.7226
2144	0.7084
2153	0.6971
2162	0.6953
2171	0.6948
2180	0.6949
2189	0.6952
2198	0.6943
2207	0.6902
2216	0.6841
2225	0.6777
2234	0.6713
2243	0.6646
2252	0.6557
2261	0.6444
2270	0.6334
2279	0.6224
2288	0.6116
2297	0.5978
2306	0.586
2315	0.5782
2324	0.5703
2333	0.5623
2342	0.5544
2351	0.5467
2360	0.5407
2369	0.5359
2378	0.5311
2387	0.5265
2396	0.5218
2405	0.5156
2414	0.5085
2423	0.4974
2432	0.482
2441	0.4654
2450	0.4512
2459	0.4386
2468	0.4254
2477	0.4088
2486	0.3944
2495	0.3752
2504	0.3521
2513	0.325
2522	0.3078
2531	0.2926
2540	0.2787
2549	0.2688
2558	0.258
2567	0.2469
2576	0.2358
2585	0.2248
2594	0.2142
2603	0.2017
2612	0.1887
2621	0.1762
2630	0.153
2639	0.1254
2648	0.1021
2657	0.0853
2666	0.0731
2675	0.065
2684	0.062
2693	0.0613
2702	0.061
2711	0.0586
2720	0.0547
2729	0.0455
2738	0.0443
2747	0.0436
2756	0.0431
2765	0.0421
2774	0.0388
2783	0.034
2792	0.03
2801	0.0263
2810	0.0236
2819	0.021
2828	0.0194
2837	0.0181
2846	0.0168
2855	0.016
2864	0.0153
2873	0.015
2882	0.0148
2891	0.0146
2900	0.0145
2909	0.0144
2918	0.0143
2927	0.0143
2936	0.0142
2945	0.0142
2954	0.0141
2963	0.014
2972	0.0139
2981	0.0137
2990	0.0136
2999	0.0135
3008	0.0135
3017	0.0136
3026	0.0136
3035	0.0137
3044	0.0137
3053	0.0139
3062	0.0142
3071	0.0145
3080	0.0148
3089	0.0151
3098	0.0154
3107	0.0156
3116	0.0159
3125	0.0162
3134	0.0165
3143	0.0168
3152	0.017
3161	0.0174
3170	0.0177
3179	0.018
3188	0.0184
3197	0.0189
3206	0.0193
3215	0.0198
3224	0.0204
3233	0.021
3242	0.0215
3251	0.0222
3260	0.0231
3269	0.0241
3278	0.0253
3287	0.027
3296	0.0289
3305	0.0296
3314	0.0302
3323	0.0309
3332	0.0323
3341	0.0368
3350	0.0384
3359	0.0396
3368	0.0411
3377	0.0593
3386	0.0732
3395	0.0979
3404	0.1339
3413	0.1752
3422	0.2082
3431	0.267
3440	0.2961
3449	0.3525
3458	0.3849
3467	0.4172
3476	0.4493
3485	0.4813
3494	0.5021
3503	0.5234
3512	0.5503
3521	0.5887
3530	0.6034
3539	0.6123
3548	0.6197
3557	0.6261
3566	0.6363
3575	0.6435
3584	0.6463
3593	0.6477
3602	0.6485
3611	0.6486
3620	0.6486
3629	0.648
3638	0.6477
3647	0.647
3656	0.6453
3665	0.6409
3674	0.6374
3683	0.6339
3692	0.6295
3701	0.6277
3710	0.6266
3719	0.6264
3728	0.6261
3737	0.626
3746	0.6249
3755	0.6208
3764	0.616
3773	0.6112
3782	0.6063
3791	0.6018
3800	0.5975
3809	0.5933
3818	0.5892
3827	0.5852
3836	0.5816
3845	0.578
3854	0.5743
3863	0.5712
3872	0.5699
3881	0.5693
3890	0.5687
3899	0.5677
3908	0.5638
3917	0.5617
3926	0.561
3935	0.5608
3944	0.5598
3953	0.5586
3962	0.5573
3971	0.5561
3980	0.5548
3989	0.5535
3998	0.5524
