Infrared Spectrum: Piperazine, 1,4-diallyl-2-methyl-,
Formula: C11 H20 N2
State: LIQUID (NEAT)
Boiling point: 107-108 C
Class: COBLENTZ III
Instrument: BAIRD (GRATING)
Instrument parameters: NaCl PRISM
Path length: 0.003 CM
Resolution: 2
Origin: WYANDOTTE CHEMICALS CORP.
1/CM	TRANSMITTANCE
626	0.7407
635	0.7473
644	0.752
653	0.7271
662	0.5864
671	0.7599
680	0.8081
689	0.7791
698	0.7845
707	0.818
716	0.8565
725	0.8749
734	0.8772
743	0.8632
752	0.8191
761	0.8378
770	0.8376
779	0.7777
788	0.7758
797	0.8434
806	0.8353
815	0.7585
824	0.6122
833	0.3817
842	0.376
851	0.61
860	0.7544
869	0.7076
878	0.6575
887	0.6027
896	0.5964
905	0.2734
914	0.0366
923	0.0331
932	0.2674
941	0.4729
950	0.5548
959	0.5535
968	0.5977
977	0.6245
986	0.5615
995	0.1889
1004	0.1788
1013	0.4327
1022	0.5217
1031	0.6029
1040	0.4016
1049	0.3222
1058	0.1057
1067	0.4119
1076	0.4289
1085	0.3597
1094	0.4263
1103	0.6095
1112	0.5557
1121	0.5338
1130	0.3172
1139	0.1604
1148	0.0815
1157	0.0386
1166	0.0336
1175	0.1295
1184	0.3673
1193	0.4801
1202	0.6859
1211	0.7617
1220	0.6813
1229	0.6005
1238	0.713
1247	0.7056
1256	0.5188
1265	0.2987
1274	0.3644
1283	0.3716
1292	0.2589
1301	0.3646
1310	0.2806
1319	0.2019
1328	0.3357
1337	0.1099
1346	0.1512
1355	0.2464
1364	0.368
1373	0.366
1382	0.2318
1391	0.4054
1400	0.636
1409	0.6417
1418	0.6429
1427	0.3525
1436	0.3779
1445	0.4251
1454	0.2993
1463	0.2033
1472	0.206
1481	0.3916
1490	0.7132
1499	0.7958
1508	0.8443
1517	0.854
1526	0.874
1535	0.8754
1544	0.8756
1553	0.8781
1562	0.8861
1571	0.8915
1580	0.8947
1589	0.8975
1598	0.8998
1607	0.8973
1616	0.8906
1625	0.8804
1634	0.8628
1643	0.8287
1652	0.5243
1661	0.5275
1670	0.8174
1679	0.8638
1688	0.8879
1697	0.8976
1706	0.914
1715	0.9289
1724	0.9296
1733	0.9299
1742	0.9358
1751	0.9433
1760	0.9464
1769	0.946
1778	0.9422
1787	0.9376
1796	0.9316
1805	0.9257
1814	0.913
1823	0.8641
1832	0.806
1841	0.7967
1850	0.8325
1859	0.8743
1868	0.9092
1877	0.9211
1886	0.929
1895	0.9275
1904	0.9254
1913	0.9284
1922	0.9315
1931	0.935
1940	0.9392
1949	0.9355
1958	0.9308
1967	0.9246
1976	0.92
1985	0.9222
1994	0.931
2003	0.9382
2012	0.945
2021	0.9489
2030	0.95
2039	0.9513
2048	0.9536
2057	0.9565
2066	0.9542
2075	0.9515
2084	0.9519
2093	0.9522
2102	0.9523
2111	0.9518
2120	0.951
2129	0.9517
2138	0.9546
2147	0.9562
2156	0.9542
2165	0.9528
2174	0.9512
2183	0.9493
2192	0.9477
2201	0.9467
2210	0.9459
2219	0.9458
2228	0.9457
2237	0.9458
2246	0.9462
2255	0.9464
2264	0.9463
2273	0.9461
2282	0.9458
2291	0.9444
2300	0.943
2309	0.9407
2318	0.9389
2327	0.9409
2336	0.944
2345	0.9442
2354	0.942
2363	0.9374
2372	0.9327
2381	0.9322
2390	0.9337
2399	0.9352
2408	0.9366
2417	0.9378
2426	0.9385
2435	0.9393
2444	0.9387
2453	0.9381
2462	0.9367
2471	0.9341
2480	0.9304
2489	0.9244
2498	0.9166
2507	0.9085
2516	0.9005
2525	0.8913
2534	0.8819
2543	0.874
2552	0.8664
2561	0.8586
2570	0.8506
2579	0.8436
2588	0.8367
2597	0.8299
2606	0.7838
2615	0.7581
2624	0.7391
2633	0.7236
2642	0.7137
2651	0.7057
2660	0.6937
2669	0.6522
2678	0.6067
2687	0.5616
2696	0.5168
2705	0.4722
2714	0.411
2723	0.339
2732	0.2681
2741	0.1977
2750	0.1293
2759	0.0718
2768	0.0527
2777	0.0419
2786	0.0338
2795	0.0287
2804	0.0281
2813	0.0317
2822	0.0701
2831	0.1406
2840	0.2108
2849	0.2804
2858	0.2943
2867	0.2507
2876	0.2031
2885	0.1726
2894	0.1545
2903	0.1412
2912	0.1326
2921	0.1198
2930	0.1041
2939	0.0885
2948	0.0805
2957	0.0828
2966	0.0915
2975	0.0978
2984	0.1522
2993	0.2351
3002	0.3174
3011	0.3993
3020	0.4806
3029	0.5616
3038	0.642
3047	0.7219
3056	0.7511
3065	0.6896
3074	0.6063
3083	0.5236
3092	0.4586
3101	0.5073
3110	0.614
3119	0.7201
3128	0.8256
3137	0.865
3146	0.8766
3155	0.8845
3164	0.8919
3173	0.8955
3182	0.8989
3191	0.9016
3200	0.9039
3209	0.9073
3218	0.9115
3227	0.9191
3236	0.92
3245	0.9201
3254	0.9199
3263	0.9188
3272	0.9175
3281	0.9165
3290	0.9159
3299	0.9181
3308	0.9214
3317	0.9252
3326	0.9292
3335	0.9333
3344	0.9375
3353	0.9411
3362	0.9431
3371	0.945
3380	0.946
3389	0.9463
3398	0.9466
3407	0.9467
3416	0.9467
3425	0.9468
3434	0.9468
3443	0.947
3452	0.9473
3461	0.9476
3470	0.9479
3479	0.9488
3488	0.9502
3497	0.9521
3506	0.9543
3515	0.9558
3524	0.9552
3533	0.9542
3542	0.9532
3551	0.9522
3560	0.9511
3569	0.9498
3578	0.9485
3587	0.9473
3596	0.9494
3605	0.9515
3614	0.9537
3623	0.9569
3632	0.9604
3641	0.9638
3650	0.9662
3659	0.9684
3668	0.9693
3677	0.969
3686	0.9689
3695	0.9687
3704	0.9684
3713	0.9682
3722	0.968
3731	0.9678
3740	0.9675
3749	0.9673
3758	0.9671
3767	0.9669
3776	0.9668
3785	0.9669
3794	0.9669
3803	0.9669
3812	0.9669
3821	0.9669
3830	0.9662
3839	0.965
3848	0.9638
3857	0.9626
3866	0.9598
3875	0.9563
3884	0.9528
3893	0.9493
3902	0.9458
3911	0.9423
3920	0.9398
3929	0.9385
3938	0.9372
3947	0.9358
3956	0.9345
3965	0.9332
3974	0.9319
3983	0.9307
3992	0.93
