Infrared Spectrum: Propane, 1,3-bis(2-tert-butyl-4-MethylAnilino)-
Formula: C25 H38 N2
State: SOLUTION (CCl4 FOR 1-7.5, CS2 FOR 7.5-16 MICRON)
Class: COBLENTZ III
Instrument: BECKMAN IR-4 (HYBRID PRISM-GRATING)
Instrument parameters: NaCl PRISM
Sampling: TRANSMISSION
Path length: 0.010 CM, 0.005 CM
Resolution: 2
Origin: MONSANTO (J. FREEMAN)
1/CM	TRANSMITTANCE
625.04	0.6717
633.836	0.6442
642.632	0.64
651.428	0.6441
660.224	0.7052
669.02	0.7316
677.816	0.767
686.612	0.7827
695.408	0.8048
704.204	0.8116
713	0.8133
721.796	0.8073
730.592	0.8044
739.388	0.8106
748.184	0.8309
756.98	0.8387
765.776	0.8124
774.572	0.798
783.368	0.7541
792.164	0.5518
800.96	0.126
809.756	0.3883
818.552	0.7139
827.348	0.8109
836.144	0.8403
844.94	0.8432
853.736	0.8305
862.532	0.8237
871.328	0.7443
880.124	0.6682
888.92	0.8712
897.716	0.8814
906.512	0.8411
915.308	0.8443
924.104	0.8468
932.9	0.8623
941.696	0.8896
950.492	0.8906
959.288	0.8876
968.084	0.8839
976.88	0.878
985.677	0.864
994.473	0.8267
1003.27	0.8489
1012.06	0.7609
1020.86	0.7306
1029.66	0.7802
1038.45	0.784
1047.25	0.8322
1056.04	0.8369
1064.84	0.8305
1073.64	0.8275
1082.43	0.8293
1091.23	0.8127
1100.02	0.7415
1108.82	0.6476
1117.62	0.57
1126.41	0.6482
1135.21	0.8163
1144	0.8219
1152.8	0.619
1161.6	0.5417
1170.39	0.7541
1179.19	0.7659
1187.98	0.6388
1196.78	0.5148
1205.58	0.4278
1214.37	0.2114
1223.17	0.5632
1231.96	0.5007
1240.76	0.3846
1249.56	0.3293
1258.35	0.3636
1267.15	0.2204
1275.94	0.3454
1284.74	0.3074
1293.54	0.4139
1302.33	0.3329
1311.13	0.1914
1319.92	0.5632
1328.72	0.7164
1337.52	0.7743
1346.31	0.8055
1355.11	0.8167
1363.91	0.775
1372.7	0.5493
1381.5	0.3791
1390.29	0.5771
1399.09	0.5262
1407.89	0.352
1416.68	0.3044
1425.48	0.4476
1434.27	0.587
1443.07	0.5163
1451.87	0.4344
1460.66	0.388
1469.46	0.264
1478.25	0.171
1487.05	0.1097
1495.85	0.2191
1504.64	0.1544
1513.44	0.0305
1522.23	0.0152
1531.03	0.0209
1539.83	0.2409
1548.62	0.3545
1557.42	0.397
1566.21	0.426
1575.01	0.5213
1583.81	0.5567
1592.6	0.5225
1601.4	0.6148
1610.19	0.6192
1618.99	0.3894
1627.79	0.4513
1636.58	0.6628
1645.38	0.8117
1654.17	0.8765
1662.97	0.8985
1671.77	0.9122
1680.56	0.9208
1689.36	0.9235
1698.15	0.9259
1706.95	0.932
1715.75	0.9378
1724.54	0.9416
1733.34	0.9425
1742.13	0.9381
1750.93	0.9317
1759.73	0.9205
1768.52	0.9081
1777.32	0.9192
1786.11	0.9328
1794.91	0.9379
1803.71	0.9374
1812.5	0.9306
1821.3	0.9095
1830.09	0.9067
1838.89	0.9244
1847.69	0.9334
1856.48	0.929
1865.28	0.9141
1874.07	0.8982
1882.87	0.8988
1891.67	0.9122
1900.46	0.9336
1909.26	0.9414
1918.05	0.9447
1926.85	0.9455
1935.65	0.9461
1944.44	0.9473
1953.24	0.9486
1962.03	0.9491
1970.83	0.9493
1979.63	0.9498
1988.42	0.9503
1997.22	0.951
2006.01	0.9512
2014.81	0.9514
2023.61	0.9514
2032.4	0.9514
2041.2	0.9514
2049.99	0.9518
2058.79	0.9525
2067.59	0.9531
2076.38	0.954
2085.18	0.9551
2093.97	0.957
2102.77	0.9588
2111.57	0.9601
2120.36	0.9601
2129.16	0.9583
2137.95	0.9564
2146.75	0.9578
2155.55	0.9603
2164.34	0.9623
2173.14	0.9609
2181.93	0.9583
2190.73	0.9565
2199.53	0.9551
2208.32	0.9547
2217.12	0.9548
2225.91	0.9559
2234.71	0.9565
2243.51	0.9569
2252.3	0.9564
2261.1	0.955
2269.89	0.9528
2278.69	0.9505
2287.49	0.9483
2296.28	0.9455
2305.08	0.9422
2313.87	0.939
2322.67	0.9357
2331.47	0.9328
2340.26	0.9298
2349.06	0.9268
2357.85	0.9239
2366.65	0.9209
2375.45	0.918
2384.24	0.9153
2393.04	0.9179
2401.83	0.9294
2410.63	0.9454
2419.43	0.949
2428.22	0.9509
2437.02	0.953
2445.81	0.9548
2454.61	0.9554
2463.41	0.9555
2472.2	0.955
2481	0.9539
2489.79	0.9517
2498.59	0.9495
2507.39	0.947
2516.18	0.9446
2524.98	0.942
2533.77	0.9394
2542.57	0.9364
2551.37	0.9334
2560.16	0.9304
2568.96	0.9278
2577.75	0.9264
2586.55	0.9271
2595.35	0.929
2604.14	0.9311
2612.94	0.9331
2621.73	0.935
2630.53	0.9368
2639.33	0.9376
2648.12	0.9384
2656.92	0.9382
2665.71	0.9368
2674.51	0.9348
2683.31	0.9321
2692.1	0.9285
2700.9	0.9243
2709.69	0.9166
2718.49	0.9031
2727.29	0.8894
2736.08	0.8758
2744.88	0.8624
2753.68	0.8503
2762.47	0.8591
2771.27	0.8748
2780.06	0.8746
2788.86	0.8723
2797.66	0.8619
2806.45	0.8416
2815.25	0.7997
2824.04	0.7247
2832.84	0.6531
2841.64	0.6021
2850.43	0.5019
2859.23	0.3354
2868.02	0.2042
2876.82	0.1978
2885.62	0.1945
2894.41	0.173
2903.21	0.1386
2912	0.1168
2920.8	0.1134
2929.6	0.1088
2938.39	0.0857
2947.19	0.0644
2955.98	0.0629
2964.78	0.1067
2973.58	0.1823
2982.37	0.2575
2991.17	0.3321
2999.96	0.4063
3008.76	0.4801
3017.56	0.5506
3026.35	0.5584
3035.15	0.5638
3043.94	0.5731
3052.74	0.5982
3061.54	0.6418
3070.33	0.6851
3079.13	0.7281
3087.92	0.7709
3096.72	0.8134
3105.52	0.841
3114.31	0.865
3123.11	0.8845
3131.9	0.9003
3140.7	0.9098
3149.5	0.9193
3158.29	0.9272
3167.09	0.9344
3175.88	0.9395
3184.68	0.9437
3193.48	0.945
3202.27	0.9463
3211.07	0.9474
3219.86	0.9482
3228.66	0.9489
3237.46	0.9497
3246.25	0.9512
3255.05	0.9527
3263.84	0.9543
3272.64	0.9563
3281.44	0.9589
3290.23	0.9607
3299.03	0.9608
3307.82	0.9597
3316.62	0.9583
3325.42	0.9563
3334.21	0.9541
3343.01	0.951
3351.8	0.9475
3360.6	0.9428
3369.4	0.9374
3378.19	0.9304
3386.99	0.922
3395.78	0.9095
3404.58	0.8901
3413.38	0.8766
3422.17	0.8664
3430.97	0.847
3439.76	0.8179
3448.56	0.789
3457.36	0.7602
3466.15	0.7316
3474.95	0.719
3483.74	0.7195
3492.54	0.7333
3501.34	0.7585
3510.13	0.7835
3518.93	0.8086
3527.72	0.8334
3536.52	0.858
3545.32	0.8827
3554.11	0.9071
3562.91	0.929
3571.7	0.9319
3580.5	0.9329
3589.3	0.9341
3598.09	0.9349
3606.89	0.9357
3615.68	0.9365
3624.48	0.9374
3633.28	0.9384
3642.07	0.9394
3650.87	0.9408
3659.66	0.9423
3668.46	0.9438
3677.26	0.9452
3686.05	0.9468
3694.85	0.9482
3703.64	0.9489
3712.44	0.9495
3721.24	0.9501
3730.03	0.9507
3738.83	0.9512
3747.62	0.9514
3756.42	0.9515
3765.22	0.9517
3774.01	0.9519
3782.81	0.952
3791.6	0.9522
3800.4	0.9523
3809.2	0.9524
3817.99	0.9523
3826.79	0.9523
3835.58	0.9523
3844.38	0.9522
3853.18	0.9522
3861.97	0.9521
3870.77	0.9519
3879.56	0.9516
3888.36	0.9513
3897.16	0.9509
3905.95	0.9506
3914.75	0.9503
