Infrared Spectrum: Carbanilic acid, 2,4-di-tert-butyl-, ethyl ester
Formula: C17 H27 N O2
State: SOLID (NUJOL MULL)
Class: COBLENTZ III
Instrument: BECKMAN IR-4 (HYBRID PRISM-GRATING)
Instrument parameters: NaCl PRISM
Sampling: TRANSMISSION
Resolution: 2
Origin: MONSANTO (J. FREEMAN)
1/CM	TRANSMITTANCE
626	0.7804
635	0.7473
644	0.7259
653	0.7012
662	0.7543
671	0.8166
680	0.8606
689	0.8233
698	0.6996
707	0.8243
716	0.8593
725	0.8723
734	0.8562
743	0.9536
752	0.9628
761	0.8352
770	0.8764
779	0.8181
788	0.9792
797	0.9959
806	0.9336
815	0.8472
824	0.81
833	0.8743
842	0.9722
851	0.9921
860	1.0019
869	0.9984
878	0.961
887	0.8507
896	0.9393
905	0.9774
914	0.9587
923	0.9254
932	0.9343
941	0.9571
950	0.9632
959	0.9635
968	0.9428
977	0.9624
986	0.9649
995	0.9427
1004	0.9567
1013	0.9532
1022	0.9278
1031	0.9284
1040	0.8946
1049	0.7732
1058	0.336
1067	0.1536
1076	0.7756
1085	0.7739
1094	0.5924
1103	0.4028
1112	0.8197
1121	0.687
1130	0.8631
1139	0.9032
1148	0.8591
1157	0.8507
1166	0.8274
1175	0.589
1184	0.8226
1193	0.8015
1202	0.628
1211	0.6918
1220	0.7048
1229	0.5658
1238	0.18
1247	0.0535
1256	0.226
1265	0.3163
1274	0.4146
1283	0.5094
1292	0.606
1301	0.6327
1310	0.5099
1319	0.7467
1328	0.809
1337	0.8137
1346	0.806
1355	0.7797
1364	0.5994
1373	0.2921
1382	0.5062
1391	0.5011
1400	0.6329
1409	0.617
1418	0.7958
1427	0.8046
1436	0.7246
1445	0.5696
1454	0.3438
1463	0.2196
1472	0.1692
1481	0.2912
1490	0.3716
1499	0.45
1508	0.4411
1517	0.4339
1526	0.1508
1535	0.0824
1544	0.3122
1553	0.6223
1562	0.7258
1571	0.792
1580	0.8684
1589	0.9123
1598	0.9067
1607	0.8192
1616	0.7664
1625	0.9091
1634	0.917
1643	0.9124
1652	0.8918
1661	0.8037
1670	0.6846
1679	0.6017
1688	0.3805
1697	0.0442
1706	0.0199
1715	0.1097
1724	0.2401
1733	0.5208
1742	0.6842
1751	0.8044
1760	0.8333
1769	0.8906
1778	0.9046
1787	0.934
1796	0.9422
1805	0.9455
1814	0.9481
1823	0.9498
1832	0.9515
1841	0.9586
1850	0.9656
1859	0.9692
1868	0.9717
1877	0.9731
1886	0.974
1895	0.9748
1904	0.9751
1913	0.9749
1922	0.9736
1931	0.9693
1940	0.9659
1949	0.9696
1958	0.9731
1967	0.9761
1976	0.9786
1985	0.9795
1994	0.9792
2003	0.9797
2012	0.9824
2021	0.9837
2030	0.9835
2039	0.9832
2048	0.9828
2057	0.9824
2066	0.9821
2075	0.9818
2084	0.9813
2093	0.9805
2102	0.9804
2111	0.9812
2120	0.9811
2129	0.9809
2138	0.9807
2147	0.9805
2156	0.9803
2165	0.9801
2174	0.9799
2183	0.9796
2192	0.9785
2201	0.9773
2210	0.9762
2219	0.9753
2228	0.9744
2237	0.9734
2246	0.9732
2255	0.9733
2264	0.9734
2273	0.9733
2282	0.9733
2291	0.9711
2300	0.9685
2309	0.9679
2318	0.9683
2327	0.9692
2336	0.97
2345	0.9714
2354	0.9727
2363	0.9734
2372	0.9738
2381	0.9731
2390	0.9709
2399	0.9666
2408	0.965
2417	0.9647
2426	0.9651
2435	0.9655
2444	0.9656
2453	0.9656
2462	0.9648
2471	0.9641
2480	0.9634
2489	0.9626
2498	0.9618
2507	0.961
2516	0.9601
2525	0.9593
2534	0.9579
2543	0.9559
2552	0.9537
2561	0.9507
2570	0.9476
2579	0.9443
2588	0.9408
2597	0.937
2606	0.9316
2615	0.9262
2624	0.9236
2633	0.921
2642	0.9185
2651	0.9163
2660	0.9142
2669	0.9122
2678	0.9096
2687	0.907
2696	0.904
2705	0.8994
2714	0.8947
2723	0.8885
2732	0.8823
2741	0.8757
2750	0.8674
2759	0.8595
2768	0.8527
2777	0.848
2786	0.8458
2795	0.8437
2804	0.8417
2813	0.8388
2822	0.8328
2831	0.8115
2840	0.7778
2849	0.7445
2858	0.6496
2867	0.5411
2876	0.3242
2885	0.1004
2894	0.0652
2903	0.0786
2912	0.0747
2921	0.0606
2930	0.0465
2939	0.0326
2948	0.0186
2957	0.0062
2966	0.0044
2975	0.049
2984	0.1268
2993	0.2042
3002	0.2811
3011	0.3575
3020	0.4334
3029	0.5089
3038	0.584
3047	0.664
3056	0.714
3065	0.7793
3074	0.8278
3083	0.8506
3092	0.8622
3101	0.8712
3110	0.8772
3119	0.8805
3128	0.8811
3137	0.8805
3146	0.8789
3155	0.8749
3164	0.8696
3173	0.8634
3182	0.8563
3191	0.8483
3200	0.8365
3209	0.822
3218	0.8057
3227	0.7759
3236	0.7568
3245	0.7394
3254	0.7182
3263	0.6904
3272	0.5825
3281	0.5044
3290	0.353
3299	0.2112
3308	0.1435
3317	0.1449
3326	0.1951
3335	0.2739
3344	0.3524
3353	0.4304
3362	0.508
3371	0.5852
3380	0.662
3389	0.7328
3398	0.7663
3407	0.8022
3416	0.8172
3425	0.8509
3434	0.8652
3443	0.8714
3452	0.8768
3461	0.8809
3470	0.8848
3479	0.8877
3488	0.8904
3497	0.8931
3506	0.8955
3515	0.8977
3524	0.8995
3533	0.9009
3542	0.9023
3551	0.9037
3560	0.9049
3569	0.9058
3578	0.9068
3587	0.9073
3596	0.9076
3605	0.9079
3614	0.9082
3623	0.9085
3632	0.9088
3641	0.9091
3650	0.9094
3659	0.9096
3668	0.9099
3677	0.9102
3686	0.9105
3695	0.9107
3704	0.9111
3713	0.9114
3722	0.9117
3731	0.9119
3740	0.9123
3749	0.9188
3758	0.9129
3767	0.9132
3776	0.9134
3785	0.9137
3794	0.9137
3803	0.9136
3812	0.9134
3821	0.9133
3830	0.913
3839	0.9128
3848	0.9124
3857	0.9119
3866	0.9114
3875	0.911
3884	0.9105
3893	0.9101
3902	0.9096
3911	0.909
3920	0.9081
3929	0.9073
3938	0.9065
3947	0.9057
3956	0.9049
3965	0.9041
3974	0.9033
3983	0.9024
3992	0.9014
