Infrared Spectrum: NICKELOUS PHOSPHATE, TRIBASIC
Formula: Ni3 ( P O4)2  * 7 H2 O
State: SOLID (NUJOL MULL)
Class: COBLENTZ
Instrument: Not specified, most likely a prism, grating, or hybrid spectrometer.
Sampling: TRANSMISSION
Resolution: 4
Origin: MELLON INSTITUTE
MICROMETERS	TRANSMITTANCE
2.036	0.984
2.07588	0.986
2.11576	0.986
2.15564	0.979
2.19552	0.979
2.2354	0.986
2.27528	0.981
2.31516	0.968
2.35504	0.969
2.39492	0.969
2.4348	0.969
2.47468	0.968
2.51456	0.971
2.55444	0.964
2.59432	0.961
2.6342	0.968
2.67408	0.948
2.71396	0.951
2.75384	0.918
2.79372	0.844
2.8336	0.77
2.87348	0.62
2.91336	0.453
2.95324	0.489
2.99312	0.483
3.033	0.413
3.07288	0.331
3.11276	0.297
3.15264	0.272
3.19252	0.259
3.2324	0.249
3.27228	0.235
3.31216	0.237
3.35204	0.14
3.39192	0.095
3.4318	0.202
3.47168	0.198
3.51156	0.357
3.55144	0.443
3.59132	0.488
3.6312	0.523
3.67108	0.553
3.71096	0.583
3.75084	0.613
3.79071	0.633
3.83059	0.657
3.87047	0.675
3.91035	0.688
3.95023	0.7
3.99011	0.71
4.02999	0.717
4.06987	0.72
4.10975	0.719
4.14963	0.722
4.18951	0.719
4.22939	0.687
4.26927	0.685
4.30915	0.685
4.34903	0.702
4.38891	0.747
4.42879	0.777
4.46867	0.789
4.50855	0.801
4.54843	0.811
4.58831	0.817
4.62819	0.822
4.66807	0.831
4.70795	0.837
4.74783	0.842
4.78771	0.847
4.82759	0.851
4.86747	0.852
4.90735	0.854
4.94723	0.852
4.98711	0.856
5.02699	0.859
5.06687	0.862
5.10675	0.864
5.14663	0.864
5.18651	0.864
5.22639	0.864
5.26627	0.861
5.30615	0.862
5.34603	0.861
5.38591	0.861
5.42579	0.861
5.46567	0.859
5.50555	0.854
5.54543	0.857
5.58531	0.861
5.62519	0.864
5.66507	0.866
5.70495	0.861
5.74483	0.864
5.78471	0.859
5.82459	0.852
5.86447	0.839
5.90435	0.832
5.94423	0.822
5.98411	0.811
6.02399	0.804
6.06387	0.797
6.10375	0.792
6.14363	0.787
6.18351	0.767
6.22339	0.75
6.26327	0.742
6.30315	0.745
6.34303	0.762
6.38291	0.777
6.42279	0.795
6.46267	0.802
6.50255	0.829
6.54243	0.827
6.58231	0.831
6.62219	0.841
6.66207	0.846
6.70195	0.852
6.74183	0.831
6.78171	0.777
6.82159	0.64
6.86147	0.59
6.90135	0.598
6.94123	0.607
6.98111	0.633
7.02099	0.74
7.06087	0.775
7.10075	0.854
7.14063	0.874
7.18051	0.886
7.22039	0.859
7.26027	0.801
7.30014	0.824
7.34002	0.854
7.3799	0.894
7.41978	0.904
7.45966	0.911
7.49954	0.921
7.53942	0.931
7.5793	0.934
7.61918	0.936
7.65906	0.938
7.69894	0.936
7.73882	0.939
7.7787	0.938
7.81858	0.943
7.85846	0.946
7.89834	0.946
7.93822	0.946
7.9781	0.944
8.01798	0.949
8.05786	0.949
8.09774	0.953
8.13762	0.951
8.1775	0.951
8.21738	0.951
8.25726	0.951
8.29714	0.953
8.33702	0.953
8.3769	0.953
8.41678	0.951
8.45666	0.948
8.49654	0.943
8.53642	0.938
8.5763	0.936
8.61618	0.928
8.65606	0.924
8.69594	0.918
8.73582	0.914
8.7757	0.911
8.81558	0.901
8.85546	0.891
8.89534	0.881
8.93522	0.874
8.9751	0.854
9.01498	0.832
9.05486	0.817
9.09474	0.801
9.13462	0.78
9.1745	0.754
9.21438	0.719
9.25426	0.658
9.29414	0.591
9.33402	0.513
9.3739	0.463
9.41378	0.429
9.45366	0.413
9.49354	0.403
9.53342	0.394
9.5733	0.372
9.61318	0.342
9.65306	0.302
9.69294	0.269
9.73282	0.24
9.7727	0.204
9.81258	0.19
9.85246	0.185
9.89234	0.182
9.93222	0.18
9.9721	0.178
10.012	0.178
10.0519	0.182
10.0917	0.188
10.1316	0.204
10.1715	0.219
10.2114	0.247
10.2513	0.269
10.2911	0.295
10.331	0.316
10.3709	0.331
10.4108	0.346
10.4507	0.354
10.4905	0.369
10.5304	0.379
10.5703	0.381
10.6102	0.382
10.6501	0.384
10.6899	0.408
10.7298	0.444
10.7697	0.481
10.8096	0.516
10.8495	0.541
10.8893	0.555
10.9292	0.575
10.9691	0.585
11.009	0.585
11.0489	0.58
11.0887	0.573
11.1286	0.56
11.1685	0.55
11.2084	0.538
11.2483	0.53
11.2881	0.523
11.328	0.515
11.3679	0.511
11.4078	0.511
11.4477	0.52
11.4875	0.53
11.5274	0.543
11.5673	0.561
11.6072	0.578
11.6471	0.602
11.6869	0.618
11.7268	0.64
11.7667	0.662
11.8066	0.678
11.8465	0.697
11.8863	0.709
11.9262	0.717
11.9661	0.727
12.006	0.737
12.0459	0.742
12.0857	0.745
12.1256	0.75
12.1655	0.754
12.2054	0.755
12.2453	0.759
12.2851	0.759
12.325	0.762
12.3649	0.76
12.4048	0.764
12.4447	0.765
12.4845	0.769
12.5244	0.77
12.5643	0.769
12.6042	0.769
12.644	0.762
12.6839	0.759
12.7238	0.759
12.7637	0.757
12.8036	0.754
12.8434	0.752
12.8833	0.744
12.9232	0.737
12.9631	0.73
13.003	0.729
13.0428	0.725
13.0827	0.72
13.1226	0.71
13.1625	0.705
13.2024	0.7
13.2422	0.692
13.2821	0.69
13.322	0.687
13.3619	0.682
13.4018	0.68
13.4416	0.68
13.4815	0.678
13.5214	0.678
13.5613	0.678
13.6012	0.678
13.641	0.678
13.6809	0.678
13.7208	0.678
13.7607	0.678
13.8006	0.682
13.8404	0.685
13.8803	0.683
13.9202	0.683
13.9601	0.687
14	0.693
14.0398	0.698
14.0797	0.702
14.1196	0.704
14.1595	0.705
14.1994	0.712
14.2392	0.715
14.2791	0.715
14.319	0.719
14.3589	0.717
14.3988	0.719
14.4386	0.719
14.4785	0.719
14.5184	0.714
14.5583	0.709
14.5982	0.704
14.638	0.704
14.6779	0.7
14.7178	0.697
14.7577	0.695
14.7976	0.69
14.8374	0.685
14.8773	0.68
14.9172	0.677
14.9571	0.673
14.997	0.673
15.0368	0.667
15.0767	0.665
15.1166	0.658
15.1565	0.653
15.1964	0.652
15.2362	0.645
15.2761	0.643
15.316	0.64
15.3559	0.638
15.3958	0.635
15.4356	0.63
15.4755	0.627
15.5154	0.623
15.5553	0.618
15.5952	0.617
15.635	0.61
15.6749	0.607
15.7148	0.605
15.7547	0.603
15.7946	0.603
15.8344	0.602
15.8743	0.595
15.9142	0.593
15.9541	0.591
15.994	0.591
