Infrared Spectrum: NICKEL COMPLEX OF 2,2'-THIOBIS[4-(1,1,3,3-TETRAMETHYLBUTYL)PHENOL]
Formula: C28 H42 O2 S Ni
State: SOLID (KBr PELLET)
Class: COBLENTZ
Instrument: Not specified, most likely a prism, grating, or hybrid spectrometer.
Sampling: TRANSMISSION
Resolution: 4
Origin: TENNESSEE EASTMAN COMPANY, RESEARCH LABORATORIES
MICROMETERS	TRANSMITTANCE
2.02	0.924
2.061	0.922
2.10199	0.927
2.14299	0.929
2.18399	0.934
2.22499	0.936
2.26598	0.929
2.30698	0.933
2.34798	0.934
2.38897	0.936
2.42997	0.939
2.47097	0.941
2.51197	0.948
2.55296	0.948
2.59396	0.95
2.63496	0.953
2.67595	0.955
2.71695	0.919
2.75795	0.859
2.79895	0.818
2.83994	0.766
2.88094	0.701
2.92194	0.672
2.96293	0.701
3.00393	0.72
3.04493	0.74
3.08593	0.751
3.12692	0.756
3.16792	0.778
3.20892	0.792
3.24991	0.751
3.29091	0.696
3.33191	0.312
3.37291	0.053
3.4139	0.212
3.4549	0.298
3.4959	0.675
3.5369	0.792
3.57789	0.826
3.61889	0.835
3.65989	0.838
3.70088	0.838
3.74188	0.843
3.78288	0.849
3.82388	0.852
3.86487	0.854
3.90587	0.85
3.94687	0.85
3.98786	0.854
4.02886	0.862
4.06986	0.866
4.11086	0.871
4.15185	0.878
4.19285	0.881
4.23385	0.867
4.27484	0.864
4.31584	0.879
4.35684	0.91
4.39784	0.922
4.43883	0.926
4.47983	0.934
4.52083	0.936
4.56182	0.938
4.60282	0.943
4.64382	0.943
4.68482	0.943
4.72581	0.946
4.76681	0.95
4.80781	0.958
4.8488	0.958
4.8898	0.958
4.9308	0.958
4.9718	0.958
5.01279	0.96
5.05379	0.957
5.09479	0.958
5.13578	0.953
5.17678	0.946
5.21778	0.938
5.25878	0.922
5.29977	0.922
5.34077	0.929
5.38177	0.934
5.42276	0.933
5.46376	0.927
5.50476	0.927
5.54576	0.915
5.58675	0.914
5.62775	0.888
5.66875	0.885
5.70974	0.874
5.75074	0.876
5.79174	0.886
5.83274	0.878
5.87373	0.864
5.91473	0.857
5.95573	0.845
5.99672	0.842
6.03772	0.831
6.07872	0.821
6.11972	0.821
6.16071	0.807
6.20171	0.77
6.24271	0.548
6.28371	0.699
6.3247	0.753
6.3657	0.802
6.4067	0.819
6.44769	0.813
6.48869	0.811
6.52969	0.782
6.57069	0.631
6.61168	0.418
6.65268	0.24
6.69368	0.068
6.73467	0.073
6.77567	0.173
6.81667	0.265
6.85767	0.375
6.89866	0.454
6.93966	0.523
6.98066	0.564
7.02165	0.586
7.06265	0.572
7.10365	0.506
7.14465	0.375
7.18564	0.421
7.22664	0.571
7.26764	0.581
7.30863	0.279
7.34963	0.451
7.39063	0.66
7.43163	0.603
7.47262	0.639
7.51362	0.595
7.55462	0.511
7.59561	0.557
7.63661	0.459
7.67761	0.379
7.71861	0.329
7.7596	0.322
7.8006	0.392
7.8416	0.43
7.88259	0.397
7.92359	0.308
7.96459	0.253
8.00559	0.216
8.04658	0.281
8.08758	0.368
8.12858	0.457
8.16957	0.509
8.21057	0.511
8.25157	0.504
8.29257	0.506
8.33356	0.514
8.37456	0.511
8.41556	0.502
8.45655	0.518
8.49755	0.56
8.53855	0.564
8.57955	0.578
8.62054	0.579
8.66154	0.542
8.70254	0.571
8.74353	0.626
8.78453	0.668
8.82553	0.679
8.86653	0.672
8.90752	0.686
8.94852	0.696
8.98952	0.704
9.03052	0.677
9.07151	0.646
9.11251	0.686
9.15351	0.703
9.1945	0.713
9.2355	0.72
9.2765	0.722
9.3175	0.723
9.35849	0.701
9.39949	0.636
9.44049	0.607
9.48148	0.656
9.52248	0.701
9.56348	0.722
9.60448	0.725
9.64547	0.722
9.68647	0.722
9.72747	0.72
9.76846	0.728
9.80946	0.728
9.85046	0.728
9.89146	0.728
9.93245	0.725
9.97345	0.732
10.0144	0.737
10.0554	0.739
10.0964	0.735
10.1374	0.72
10.1784	0.698
10.2194	0.682
10.2604	0.698
10.3014	0.71
10.3424	0.715
10.3834	0.725
10.4244	0.723
10.4654	0.725
10.5064	0.723
10.5474	0.723
10.5884	0.723
10.6294	0.723
10.6704	0.723
10.7114	0.728
10.7524	0.73
10.7934	0.728
10.8344	0.708
10.8754	0.708
10.9164	0.728
10.9574	0.742
10.9984	0.759
11.0394	0.768
11.0804	0.768
11.1214	0.747
11.1624	0.72
11.2034	0.67
11.2444	0.631
11.2854	0.615
11.3264	0.603
11.3674	0.6
11.4084	0.605
11.4493	0.622
11.4903	0.653
11.5313	0.66
11.5723	0.68
11.6133	0.715
11.6543	0.734
11.6953	0.739
11.7363	0.74
11.7773	0.732
11.8183	0.696
11.8593	0.663
11.9003	0.61
11.9413	0.54
11.9823	0.44
12.0233	0.329
12.0643	0.289
12.1053	0.305
12.1463	0.363
12.1873	0.433
12.2283	0.511
12.2693	0.598
12.3103	0.665
12.3513	0.713
12.3923	0.747
12.4333	0.797
12.4743	0.809
12.5153	0.818
12.5563	0.83
12.5973	0.835
12.6383	0.838
12.6793	0.842
12.7203	0.847
12.7613	0.849
12.8023	0.852
12.8433	0.857
12.8842	0.859
12.9252	0.859
12.9662	0.855
13.0072	0.842
13.0482	0.826
13.0892	0.792
13.1302	0.746
13.1712	0.679
13.2122	0.672
13.2532	0.703
13.2942	0.742
13.3352	0.765
13.3762	0.768
13.4172	0.761
13.4582	0.754
13.4992	0.739
13.5402	0.718
13.5812	0.696
13.6222	0.672
13.6632	0.675
13.7042	0.694
13.7452	0.744
13.7862	0.775
13.8272	0.801
13.8682	0.828
13.9092	0.85
13.9502	0.871
13.9912	0.885
14.0322	0.9
14.0732	0.91
14.1142	0.924
14.1552	0.933
14.1962	0.946
14.2372	0.955
14.2782	0.958
14.3191	0.96
14.3601	0.965
14.4011	0.967
14.4421	0.97
14.4831	0.97
14.5241	0.97
14.5651	0.974
14.6061	0.977
14.6471	0.975
14.6881	0.979
14.7291	0.979
14.7701	0.977
14.8111	0.977
14.8521	0.969
14.8931	0.951
14.9341	0.919
14.9751	0.91
15.0161	0.912
15.0571	0.929
15.0981	0.939
15.1391	0.943
15.1801	0.943
15.2211	0.941
15.2621	0.929
15.3031	0.924
15.3441	0.914
15.3851	0.902
15.4261	0.897
15.4671	0.891
15.5081	0.878
15.5491	0.867
15.5901	0.864
15.6311	0.854
15.6721	0.843
15.7131	0.83
15.754	0.813
15.795	0.801
15.836	0.789
15.877	0.783
15.918	0.78
15.959	0.771
