Infrared Spectrum: POTASSIUM NITRITE
Formula: K N O2
State: SOLID (NUJOL MULL)
Class: COBLENTZ
Instrument: Not specified, most likely a prism, grating, or hybrid spectrometer.
Sampling: TRANSMISSION
Resolution: 4
Origin: MELLON INSTITUTE
MICROMETERS	TRANSMITTANCE
2.048	0.661
2.08795	0.661
2.1279	0.664
2.16785	0.666
2.2078	0.669
2.24775	0.674
2.2877	0.677
2.32765	0.681
2.3676	0.684
2.40755	0.689
2.4475	0.697
2.48745	0.699
2.5274	0.702
2.56735	0.706
2.6073	0.709
2.64725	0.714
2.6872	0.714
2.72715	0.714
2.7671	0.711
2.80705	0.704
2.847	0.697
2.88695	0.694
2.9269	0.694
2.96685	0.697
3.0068	0.701
3.04675	0.706
3.0867	0.711
3.12665	0.717
3.1666	0.724
3.20655	0.734
3.24651	0.747
3.28646	0.722
3.32641	0.627
3.36636	0.537
3.40631	0.589
3.44626	0.587
3.48621	0.694
3.52616	0.764
3.56611	0.782
3.60606	0.792
3.64601	0.801
3.68596	0.804
3.72591	0.806
3.76586	0.803
3.80581	0.789
3.84576	0.764
3.88571	0.759
3.92566	0.779
3.96561	0.799
4.00556	0.808
4.04551	0.809
4.08546	0.813
4.12541	0.816
4.16536	0.819
4.20531	0.823
4.24526	0.823
4.28521	0.828
4.32516	0.829
4.36511	0.833
4.40506	0.834
4.44501	0.841
4.48496	0.844
4.52491	0.846
4.56486	0.848
4.60481	0.851
4.64476	0.853
4.68471	0.853
4.72466	0.853
4.76461	0.854
4.80456	0.856
4.84451	0.858
4.88446	0.859
4.92441	0.863
4.96436	0.866
5.00431	0.869
5.04426	0.871
5.08421	0.874
5.12416	0.881
5.16411	0.883
5.20406	0.886
5.24401	0.888
5.28396	0.888
5.32391	0.889
5.36386	0.893
5.40381	0.894
5.44376	0.899
5.48371	0.899
5.52366	0.903
5.56361	0.906
5.60356	0.909
5.64352	0.913
5.68347	0.913
5.72342	0.916
5.76337	0.921
5.80332	0.923
5.84327	0.924
5.88322	0.931
5.92317	0.931
5.96312	0.938
6.00307	0.941
6.04302	0.943
6.08297	0.946
6.12292	0.951
6.16287	0.953
6.20282	0.958
6.24277	0.961
6.28272	0.963
6.32267	0.964
6.36262	0.966
6.40257	0.969
6.44252	0.971
6.48247	0.969
6.52242	0.969
6.56237	0.969
6.60232	0.964
6.64227	0.961
6.68222	0.951
6.72217	0.926
6.76212	0.844
6.80207	0.779
6.84202	0.777
6.88197	0.792
6.92192	0.772
6.96187	0.742
7.00182	0.697
7.04177	0.624
7.08172	0.577
7.12167	0.549
7.16162	0.529
7.20157	0.512
7.24152	0.514
7.28147	0.535
7.32142	0.57
7.36137	0.597
7.40132	0.597
7.44127	0.554
7.48122	0.38
7.52117	0.308
7.56112	0.363
7.60107	0.377
7.64102	0.343
7.68097	0.27
7.72092	0.195
7.76087	0.125
7.80082	0.1
7.84077	0.081
7.88072	0.07
7.92067	0.058
7.96062	0.048
8.00057	0.038
8.04053	0.033
8.08048	0.031
8.12043	0.031
8.16038	0.036
8.20033	0.043
8.24028	0.06
8.28023	0.098
8.32018	0.156
8.36013	0.202
8.40008	0.248
8.44003	0.297
8.47998	0.335
8.51993	0.397
8.55988	0.439
8.59983	0.47
8.63978	0.497
8.67973	0.529
8.71968	0.554
8.75963	0.579
8.79958	0.599
8.83953	0.614
8.87948	0.629
8.91943	0.637
8.95938	0.644
8.99933	0.649
9.03928	0.657
9.07923	0.674
9.11918	0.694
9.15913	0.714
9.19908	0.727
9.23903	0.739
9.27898	0.752
9.31893	0.762
9.35888	0.772
9.39883	0.786
9.43878	0.792
9.47873	0.797
9.51868	0.801
9.55863	0.813
9.59858	0.821
9.63853	0.831
9.67848	0.841
9.71843	0.848
9.75838	0.859
9.79833	0.868
9.83828	0.874
9.87823	0.881
9.91818	0.886
9.95813	0.891
9.99808	0.896
10.038	0.898
10.078	0.898
10.1179	0.901
10.1579	0.903
10.1978	0.904
10.2378	0.908
10.2777	0.909
10.3177	0.913
10.3576	0.916
10.3976	0.919
10.4375	0.923
10.4775	0.921
10.5174	0.923
10.5574	0.924
10.5973	0.926
10.6373	0.928
10.6772	0.928
10.7172	0.929
10.7571	0.929
10.7971	0.931
10.837	0.929
10.877	0.931
10.9169	0.934
10.9569	0.934
10.9968	0.936
11.0368	0.939
11.0767	0.941
11.1167	0.943
11.1566	0.944
11.1966	0.944
11.2365	0.944
11.2765	0.944
11.3164	0.944
11.3564	0.948
11.3963	0.949
11.4363	0.951
11.4762	0.951
11.5162	0.953
11.5561	0.953
11.5961	0.953
11.636	0.954
11.676	0.954
11.7159	0.954
11.7559	0.958
11.7958	0.958
11.8358	0.958
11.8757	0.954
11.9157	0.951
11.9556	0.941
11.9956	0.858
12.0355	0.681
12.0755	0.696
12.1154	0.797
12.1554	0.883
12.1953	0.911
12.2353	0.919
12.2752	0.928
12.3152	0.931
12.3551	0.934
12.3951	0.938
12.435	0.939
12.475	0.939
12.5149	0.943
12.5549	0.941
12.5948	0.943
12.6348	0.943
12.6747	0.941
12.7147	0.941
12.7546	0.941
12.7946	0.939
12.8345	0.936
12.8745	0.934
12.9144	0.933
12.9544	0.931
12.9943	0.928
13.0343	0.921
13.0742	0.913
13.1142	0.911
13.1541	0.909
13.1941	0.913
13.234	0.909
13.274	0.908
13.3139	0.904
13.3539	0.899
13.3938	0.894
13.4338	0.888
13.4737	0.884
13.5137	0.879
13.5536	0.876
13.5936	0.869
13.6335	0.866
13.6735	0.861
13.7134	0.856
13.7534	0.849
13.7933	0.843
13.8333	0.834
13.8732	0.828
13.9132	0.821
13.9531	0.818
13.9931	0.811
14.0331	0.803
14.073	0.796
14.113	0.787
14.1529	0.777
14.1929	0.771
14.2328	0.761
14.2728	0.752
14.3127	0.747
14.3527	0.737
14.3926	0.732
14.4326	0.726
14.4725	0.717
14.5125	0.711
14.5524	0.704
14.5924	0.699
14.6323	0.694
14.6723	0.691
14.7122	0.684
14.7522	0.679
14.7921	0.672
14.8321	0.667
14.872	0.661
14.912	0.654
14.9519	0.649
14.9919	0.644
15.0318	0.641
15.0718	0.637
15.1117	0.632
15.1517	0.629
15.1916	0.626
15.2316	0.621
15.2715	0.619
15.3115	0.614
15.3514	0.611
15.3914	0.609
15.4313	0.606
15.4713	0.606
15.5112	0.604
15.5512	0.602
15.5911	0.602
15.6311	0.602
15.671	0.604
15.711	0.604
15.7509	0.607
15.7909	0.612
15.8308	0.616
15.8708	0.617
15.9107	0.621
15.9507	0.624
15.9906	0.629
