Infrared Spectrum: ALUMINUM CHROMATE
Formula: Al2 ( Cr O4)3
State: SOLID (NUJOL MULL)
Class: COBLENTZ
Instrument: Not specified, most likely a prism, grating, or hybrid spectrometer.
Sampling: TRANSMISSION
Resolution: 4
Origin: MELLON INSTITUTE
MICROMETERS	TRANSMITTANCE
2.022	0.728
2.06302	0.742
2.10404	0.754
2.14506	0.77
2.18608	0.782
2.2271	0.792
2.26812	0.795
2.30914	0.795
2.35016	0.804
2.39119	0.819
2.43221	0.833
2.47323	0.849
2.51425	0.862
2.55527	0.874
2.59629	0.89
2.63731	0.903
2.67833	0.9
2.71935	0.871
2.76037	0.65
2.80139	0.439
2.84241	0.222
2.88343	0.204
2.92445	0.257
2.96547	0.293
3.00649	0.339
3.04751	0.368
3.08853	0.394
3.12956	0.416
3.17058	0.433
3.2116	0.447
3.25262	0.454
3.29364	0.432
3.33466	0.169
3.37568	0.039
3.4167	0.121
3.45772	0.126
3.49874	0.432
3.53976	0.641
3.58078	0.692
3.6218	0.722
3.66282	0.744
3.70384	0.761
3.74486	0.78
3.78588	0.797
3.8269	0.809
3.86793	0.825
3.90895	0.835
3.94997	0.845
3.99099	0.854
4.03201	0.861
4.07303	0.866
4.11405	0.873
4.15507	0.878
4.19609	0.881
4.23711	0.886
4.27813	0.891
4.31915	0.897
4.36017	0.9
4.40119	0.907
4.44221	0.91
4.48323	0.914
4.52425	0.915
4.56527	0.921
4.6063	0.924
4.64732	0.926
4.68834	0.927
4.72936	0.929
4.77038	0.931
4.8114	0.931
4.85242	0.933
4.89344	0.933
4.93446	0.934
4.97548	0.934
5.0165	0.939
5.05752	0.941
5.09854	0.945
5.13956	0.95
5.18058	0.951
5.2216	0.955
5.26262	0.957
5.30364	0.96
5.34467	0.962
5.38569	0.963
5.42671	0.967
5.46773	0.967
5.50875	0.97
5.54977	0.972
5.59079	0.975
5.63181	0.979
5.67283	0.982
5.71385	0.984
5.75487	0.984
5.79589	0.984
5.83691	0.975
5.87793	0.962
5.91895	0.941
5.95997	0.921
6.00099	0.897
6.04201	0.869
6.08304	0.843
6.12406	0.816
6.16508	0.811
6.2061	0.825
6.24712	0.867
6.28814	0.898
6.32916	0.912
6.37018	0.924
6.4112	0.933
6.45222	0.939
6.49324	0.945
6.53426	0.95
6.57528	0.951
6.6163	0.953
6.65732	0.951
6.69834	0.941
6.73936	0.905
6.78038	0.821
6.82141	0.548
6.86243	0.514
6.90345	0.559
6.94447	0.706
6.98549	0.833
7.02651	0.905
7.06753	0.939
7.10855	0.955
7.14957	0.951
7.19059	0.888
7.23161	0.716
7.27263	0.744
7.31365	0.802
7.35467	0.869
7.39569	0.89
7.43671	0.903
7.47773	0.919
7.51875	0.931
7.55978	0.934
7.6008	0.934
7.64182	0.934
7.68284	0.934
7.72386	0.938
7.76488	0.939
7.8059	0.939
7.84692	0.938
7.88794	0.936
7.92896	0.934
7.96998	0.931
8.011	0.929
8.05202	0.922
8.09304	0.917
8.13406	0.907
8.17508	0.9
8.2161	0.891
8.25712	0.883
8.29815	0.874
8.33917	0.864
8.38019	0.855
8.42121	0.85
8.46223	0.84
8.50325	0.833
8.54427	0.821
8.58529	0.807
8.62631	0.794
8.66733	0.783
8.70835	0.773
8.74937	0.763
8.79039	0.754
8.83141	0.746
8.87243	0.742
8.91345	0.735
8.95447	0.73
8.99549	0.725
9.03652	0.72
9.07754	0.71
9.11856	0.703
9.15958	0.689
9.2006	0.682
9.24162	0.674
9.28264	0.662
9.32366	0.65
9.36468	0.638
9.4057	0.622
9.44672	0.607
9.48774	0.596
9.52876	0.579
9.56978	0.562
9.6108	0.542
9.65182	0.511
9.69284	0.459
9.73386	0.403
9.77489	0.365
9.81591	0.344
9.85693	0.336
9.89795	0.337
9.93897	0.344
9.97999	0.358
10.021	0.372
10.062	0.379
10.103	0.382
10.1441	0.377
10.1851	0.368
10.2261	0.36
10.2671	0.349
10.3082	0.334
10.3492	0.327
10.3902	0.322
10.4312	0.32
10.4722	0.317
10.5133	0.317
10.5543	0.319
10.5953	0.319
10.6363	0.322
10.6773	0.327
10.7184	0.348
10.7594	0.351
10.8004	0.353
10.8414	0.36
10.8824	0.365
10.9235	0.373
10.9645	0.382
11.0055	0.394
11.0465	0.404
11.0875	0.413
11.1286	0.415
11.1696	0.418
11.2106	0.418
11.2516	0.421
11.2926	0.421
11.3337	0.423
11.3747	0.423
11.4157	0.423
11.4567	0.423
11.4977	0.423
11.5388	0.423
11.5798	0.425
11.6208	0.423
11.6618	0.421
11.7029	0.42
11.7439	0.418
11.7849	0.42
11.8259	0.416
11.8669	0.411
11.908	0.404
11.949	0.399
11.99	0.394
12.031	0.387
12.072	0.38
12.1131	0.373
12.1541	0.37
12.1951	0.365
12.2361	0.356
12.2771	0.346
12.3182	0.337
12.3592	0.329
12.4002	0.32
12.4412	0.315
12.4822	0.31
12.5233	0.303
12.5643	0.3
12.6053	0.293
12.6463	0.289
12.6873	0.288
12.7284	0.284
12.7694	0.283
12.8104	0.281
12.8514	0.279
12.8924	0.277
12.9335	0.276
12.9745	0.274
13.0155	0.272
13.0565	0.271
13.0976	0.269
13.1386	0.269
13.1796	0.269
13.2206	0.267
13.2616	0.265
13.3027	0.264
13.3437	0.262
13.3847	0.262
13.4257	0.26
13.4667	0.26
13.5078	0.262
13.5488	0.265
13.5898	0.271
13.6308	0.276
13.6718	0.281
13.7129	0.286
13.7539	0.291
13.7949	0.296
13.8359	0.303
13.8769	0.308
13.918	0.317
13.959	0.324
14	0.325
14.041	0.334
14.082	0.337
14.1231	0.341
14.1641	0.344
14.2051	0.343
14.2461	0.344
14.2871	0.344
14.3282	0.343
14.3692	0.343
14.4102	0.344
14.4512	0.346
14.4922	0.349
14.5333	0.351
14.5743	0.356
14.6153	0.355
14.6563	0.353
14.6974	0.348
14.7384	0.346
14.7794	0.348
14.8204	0.349
14.8614	0.353
14.9025	0.356
14.9435	0.358
14.9845	0.358
15.0255	0.361
15.0665	0.365
15.1076	0.367
15.1486	0.372
15.1896	0.375
15.2306	0.379
15.2716	0.382
15.3127	0.387
15.3537	0.391
15.3947	0.394
15.4357	0.397
15.4767	0.397
15.5178	0.399
15.5588	0.399
15.5998	0.404
15.6408	0.409
15.6818	0.413
15.7229	0.418
15.7639	0.423
15.8049	0.425
15.8459	0.43
15.8869	0.437
15.928	0.444
15.969	0.452
