Infrared Spectrum: BENOXINATE HYDROCHLORIDE
Formula: C17 H29 Cl N2 O3
State: SOLID (1.03 mg / 200 mg KCl DISC)
Melting point: 157-60 C
Class: COBLENTZ III
Instrument: PERKIN-ELMER 21 (GRATING)
Instrument parameters: FILTER AT ABOUT 10 MICRONS
Sampling: TRANSMISSION
Resolution: 2
1/CM	TRANSMITTANCE
4000	0.8372
3991	0.8383
3982	0.8397
3973	0.841
3964	0.8425
3955	0.8435
3946	0.845
3937	0.8464
3928	0.8476
3919	0.849
3910	0.8502
3901	0.8515
3892	0.8528
3883	0.854
3874	0.8556
3865	0.8571
3856	0.8585
3847	0.8603
3838	0.8617
3829	0.8634
3820	0.8649
3811	0.8663
3802	0.8681
3793	0.8696
3784	0.8709
3775	0.8719
3766	0.873
3757	0.874
3748	0.875
3739	0.8758
3730	0.8772
3721	0.8781
3712	0.8792
3703	0.8805
3694	0.8823
3685	0.884
3676	0.8859
3667	0.8887
3658	0.8925
3649	0.8967
3640	0.9019
3631	0.9086
3622	0.9143
3613	0.9143
3604	0.9133
3595	0.9121
3586	0.9109
3577	0.9107
3568	0.9105
3559	0.9095
3550	0.9088
3541	0.9087
3532	0.9099
3523	0.9131
3514	0.9174
3505	0.9192
3496	0.9187
3487	0.8944
3478	0.8443
3469	0.7942
3460	0.7734
3451	0.7723
3442	0.7994
3433	0.8369
3424	0.8684
3415	0.8808
3406	0.8904
3397	0.8962
3388	0.9003
3379	0.9006
3370	0.8982
3361	0.894
3352	0.8868
3343	0.8607
3334	0.8077
3325	0.7503
3316	0.6932
3307	0.6363
3298	0.5947
3289	0.5891
3280	0.5883
3271	0.6043
3262	0.6298
3253	0.6554
3244	0.6737
3235	0.6786
3226	0.6786
3217	0.673
3208	0.642
3199	0.6102
3190	0.5913
3181	0.5881
3172	0.5912
3163	0.6294
3154	0.6714
3145	0.712
3136	0.7348
3127	0.7579
3118	0.7773
3109	0.7953
3100	0.8093
3091	0.8228
3082	0.8311
3073	0.8386
3064	0.8431
3055	0.8452
3046	0.8451
3037	0.8443
3028	0.8419
3019	0.8344
3010	0.8086
3001	0.7875
2992	0.7436
2983	0.6924
2974	0.642
2965	0.6268
2956	0.6225
2947	0.6196
2938	0.6181
2929	0.6259
2920	0.6378
2911	0.6479
2902	0.6561
2893	0.6609
2884	0.662
2875	0.6636
2866	0.672
2857	0.7024
2848	0.7242
2839	0.745
2830	0.7623
2821	0.7779
2812	0.7827
2803	0.7841
2794	0.7844
2785	0.7879
2776	0.7873
2767	0.7812
2758	0.7738
2749	0.7695
2740	0.7658
2731	0.7622
2722	0.7587
2713	0.7557
2704	0.7512
2695	0.7438
2686	0.7343
2677	0.7225
2668	0.7079
2659	0.6935
2650	0.6765
2641	0.6591
2632	0.6435
2623	0.6309
2614	0.6192
2605	0.6089
2596	0.6005
2587	0.594
2578	0.5891
2569	0.5855
2560	0.588
2551	0.5986
2542	0.6064
2533	0.6134
2524	0.6185
2515	0.6236
2506	0.6252
2497	0.6233
2488	0.6135
2479	0.6081
2470	0.6063
2461	0.6129
2452	0.6258
2443	0.6441
2434	0.6564
2425	0.6733
2416	0.6953
2407	0.7159
2398	0.7366
2389	0.7507
2380	0.7594
2371	0.7634
2362	0.7662
2353	0.7723
2344	0.7793
2335	0.7879
2326	0.7982
2317	0.8128
2308	0.8279
2299	0.8374
2290	0.8519
2281	0.8602
2272	0.8658
2263	0.8709
2254	0.8762
2245	0.8811
2236	0.8848
2227	0.888
2218	0.8905
2209	0.893
2200	0.8959
2191	0.8989
2182	0.902
2173	0.9039
2164	0.9051
2155	0.9065
2146	0.9065
2137	0.9061
2128	0.9082
2119	0.912
2110	0.9143
2101	0.9159
2092	0.9166
2083	0.9176
2074	0.9182
2065	0.9188
2056	0.9194
2047	0.92
2038	0.9206
2029	0.9209
2020	0.9212
2011	0.9214
2002	0.9217
1993	0.9213
1984	0.9209
1975	0.9209
1966	0.9216
1957	0.9218
1948	0.9216
1939	0.9207
1930	0.921
1921	0.9213
1912	0.921
1903	0.9204
1894	0.9172
1885	0.9146
1876	0.9183
1867	0.9208
1858	0.9215
1849	0.9221
1840	0.9221
1831	0.9221
1822	0.9225
1813	0.9213
1804	0.9195
1795	0.9187
1786	0.9181
1777	0.9166
1768	0.9135
1759	0.907
1750	0.8964
1741	0.8811
1732	0.7663
1723	0.5217
1714	0.3833
1705	0.4444
1696	0.6297
1687	0.7825
1678	0.8277
1669	0.8444
1660	0.8498
1651	0.841
1642	0.7521
1633	0.5554
1624	0.4041
1615	0.4154
1606	0.571
1597	0.4944
1588	0.5723
1579	0.5809
1570	0.7343
1561	0.8018
1552	0.821
1543	0.777
1534	0.48
1525	0.5124
1516	0.6408
1507	0.7706
1498	0.8251
1489	0.7792
1480	0.6921
1471	0.6304
1462	0.6089
1453	0.6278
1444	0.6197
1435	0.5942
1426	0.6765
1417	0.7296
1408	0.6911
1399	0.6503
1390	0.6687
1381	0.5925
1372	0.5683
1363	0.6112
1354	0.7292
1345	0.7913
1336	0.8114
1327	0.737
1318	0.5033
1309	0.5436
1300	0.5019
1291	0.5223
1282	0.625
1273	0.4734
1264	0.3745
1255	0.4256
1246	0.5933
1237	0.6502
1228	0.6006
1219	0.4274
1210	0.3764
1201	0.4629
1192	0.6058
1183	0.7048
1174	0.7544
1165	0.7995
1156	0.7917
1147	0.714
1138	0.5102
1129	0.61
1120	0.6697
1111	0.5325
1102	0.4773
1093	0.6386
1084	0.7056
1075	0.6809
1066	0.691
1057	0.701
1048	0.7543
1039	0.7265
1030	0.6694
1021	0.6361
1012	0.6769
1003	0.7583
994	0.8236
985	0.8104
976	0.8402
967	0.8613
958	0.8479
949	0.7716
940	0.81
931	0.8766
922	0.8898
913	0.8808
904	0.854
895	0.8691
886	0.8791
877	0.8678
868	0.6928
859	0.8182
850	0.8335
841	0.8369
832	0.7664
823	0.7981
814	0.842
805	0.7909
796	0.7983
787	0.859
778	0.8942
769	0.8578
760	0.4972
751	0.7824
742	0.8306
733	0.7974
724	0.8399
715	0.902
706	0.9152
697	0.9185
688	0.9199
679	0.9181
