Infrared Spectrum: 8-QUINOLINOL, BISMUTH SALT
Formula: C27 H18 N3 O3 Bi
State: SOLID (MINERAL OIL MULL)
Class: COBLENTZ
Instrument: Not specified, most likely a prism, grating, or hybrid spectrometer.
Sampling: TRANSMISSION
Resolution: 4
Origin: DOW CHEMICAL COMPANY
MICROMETERS	TRANSMITTANCE
2.041	0.631
2.0822	0.634
2.1234	0.643
2.16459	0.648
2.20579	0.648
2.24699	0.648
2.28819	0.648
2.32939	0.646
2.37058	0.651
2.41178	0.663
2.45298	0.682
2.49418	0.699
2.53538	0.709
2.57657	0.718
2.61777	0.732
2.65897	0.733
2.70017	0.735
2.74136	0.737
2.78256	0.737
2.82376	0.735
2.86496	0.732
2.90616	0.726
2.94735	0.721
2.98855	0.72
3.02975	0.721
3.07095	0.723
3.11215	0.723
3.15334	0.733
3.19454	0.74
3.23574	0.715
3.27694	0.68
3.31814	0.595
3.35933	0.276
3.40053	0.032
3.44173	0.1
3.48293	0.191
3.52413	0.667
3.56532	0.75
3.60652	0.776
3.64772	0.776
3.68892	0.773
3.73011	0.779
3.77131	0.783
3.81251	0.795
3.85371	0.802
3.89491	0.813
3.9361	0.827
3.9773	0.831
4.0185	0.836
4.0597	0.841
4.1009	0.843
4.14209	0.841
4.18329	0.841
4.22449	0.841
4.26569	0.846
4.30689	0.851
4.34808	0.86
4.38928	0.861
4.43048	0.863
4.47168	0.863
4.51288	0.865
4.55407	0.865
4.59527	0.865
4.63647	0.868
4.67767	0.87
4.71886	0.868
4.76006	0.872
4.80126	0.875
4.84246	0.88
4.88366	0.883
4.92485	0.889
4.96605	0.889
5.00725	0.889
5.04845	0.889
5.08965	0.889
5.13084	0.883
5.17204	0.88
5.21324	0.878
5.25444	0.878
5.29564	0.882
5.33683	0.889
5.37803	0.892
5.41923	0.892
5.46043	0.892
5.50163	0.892
5.54282	0.892
5.58402	0.892
5.62522	0.899
5.66642	0.899
5.70762	0.892
5.74881	0.892
5.79001	0.899
5.83121	0.901
5.87241	0.897
5.9136	0.892
5.9548	0.889
5.996	0.889
6.0372	0.882
6.0784	0.878
6.11959	0.873
6.16079	0.858
6.20199	0.793
6.24319	0.747
6.28439	0.808
6.32558	0.588
6.36678	0.426
6.40798	0.796
6.44918	0.839
6.49038	0.843
6.53157	0.849
6.57277	0.849
6.61397	0.771
6.65517	0.435
6.69637	0.477
6.73756	0.697
6.77876	0.45
6.81996	0.141
6.86116	0.09
6.90235	0.416
6.94355	0.619
6.98475	0.622
7.02595	0.701
7.06715	0.755
7.10834	0.687
7.14954	0.464
7.19074	0.288
7.23194	0.273
7.27314	0.273
7.31433	0.534
7.35553	0.74
7.39673	0.769
7.43793	0.749
7.47913	0.554
7.52032	0.349
7.56152	0.201
7.60272	0.668
7.64392	0.762
7.68512	0.764
7.72631	0.691
7.76751	0.564
7.80871	0.501
7.84991	0.711
7.89111	0.819
7.9323	0.839
7.9735	0.849
8.0147	0.843
8.0559	0.766
8.09709	0.737
8.13829	0.755
8.17949	0.82
8.22069	0.856
8.26189	0.87
8.30308	0.887
8.34428	0.902
8.38548	0.904
8.42668	0.873
8.46788	0.861
8.50907	0.866
8.55027	0.887
8.59147	0.89
8.63267	0.894
8.67387	0.899
8.71506	0.899
8.75626	0.899
8.79746	0.899
8.83866	0.899
8.87986	0.897
8.92105	0.861
8.96225	0.718
9.00345	0.568
9.04465	0.428
9.08584	0.467
9.12704	0.771
9.16824	0.834
9.20944	0.843
9.25064	0.843
9.29183	0.843
9.33303	0.844
9.37423	0.846
9.41543	0.86
9.45663	0.865
9.49782	0.878
9.53902	0.894
9.58022	0.897
9.62142	0.89
9.66262	0.88
9.70381	0.883
9.74501	0.895
9.78621	0.904
9.82741	0.914
9.86861	0.919
9.9098	0.924
9.951	0.93
9.9922	0.93
10.0334	0.931
10.0746	0.931
10.1158	0.93
10.157	0.919
10.1982	0.902
10.2394	0.887
10.2806	0.904
10.3218	0.928
10.363	0.928
10.4042	0.924
10.4454	0.909
10.4866	0.899
10.5278	0.894
10.569	0.907
10.6102	0.919
10.6514	0.926
10.6926	0.931
10.7338	0.933
10.775	0.935
10.8162	0.94
10.8574	0.941
10.8986	0.945
10.9398	0.948
10.9809	0.948
11.0221	0.943
11.0633	0.931
11.1045	0.912
11.1457	0.911
11.1869	0.936
11.2281	0.941
11.2693	0.947
11.3105	0.948
11.3517	0.948
11.3929	0.94
11.4341	0.933
11.4753	0.94
11.5165	0.948
11.5577	0.95
11.5989	0.941
11.6401	0.94
11.6813	0.95
11.7225	0.952
11.7637	0.952
11.8049	0.952
11.8461	0.952
11.8873	0.952
11.9285	0.952
11.9697	0.952
12.0109	0.941
12.0521	0.911
12.0933	0.86
12.1345	0.74
12.1757	0.564
12.2169	0.443
12.2581	0.674
12.2993	0.887
12.3405	0.875
12.3817	0.764
12.4229	0.699
12.4641	0.757
12.5053	0.849
12.5465	0.858
12.5877	0.796
12.6289	0.689
12.6701	0.614
12.7113	0.602
12.7525	0.638
12.7937	0.677
12.8349	0.762
12.8761	0.819
12.9173	0.846
12.9584	0.863
12.9996	0.87
13.0408	0.87
13.082	0.86
13.1232	0.843
13.1644	0.808
13.2056	0.749
13.2468	0.679
13.288	0.648
13.3292	0.627
13.3704	0.587
13.4116	0.559
13.4528	0.544
13.494	0.508
13.5352	0.486
13.5764	0.476
13.6176	0.484
13.6588	0.525
13.7	0.549
13.7412	0.51
13.7824	0.469
13.8236	0.494
13.8648	0.564
13.906	0.651
13.9472	0.699
13.9884	0.728
14.0296	0.742
14.0708	0.747
14.112	0.747
14.1532	0.747
14.1944	0.742
14.2356	0.733
14.2768	0.726
14.318	0.716
14.3592	0.709
14.4004	0.703
14.4416	0.697
14.4828	0.689
14.524	0.679
14.5652	0.67
14.6064	0.663
14.6476	0.65
14.6888	0.643
14.73	0.638
14.7712	0.627
14.8124	0.622
14.8536	0.61
14.8948	0.598
14.9359	0.585
14.9771	0.585
15.0183	0.585
15.0595	0.58
15.1007	0.569
15.1419	0.559
15.1831	0.547
15.2243	0.539
15.2655	0.529
15.3067	0.52
15.3479	0.511
15.3891	0.5
15.4303	0.488
15.4715	0.469
15.5127	0.45
15.5539	0.44
15.5951	0.433
15.6363	0.428
15.6775	0.421
15.7187	0.419
15.7599	0.418
15.8011	0.418
15.8423	0.416
15.8835	0.416
15.9247	0.418
