Infrared Spectrum: SODIUM BISULFATE
Formula: Na H S O4
State: SOLID (NUJOL MULL)
Class: COBLENTZ
Instrument: Not specified, most likely a prism, grating, or hybrid spectrometer.
Sampling: TRANSMISSION
Resolution: 4
Origin: MELLON INSTITUTE
MICROMETERS	TRANSMITTANCE
2.014	0.907
2.05398	0.907
2.09395	0.909
2.13393	0.909
2.1739	0.909
2.21388	0.909
2.25386	0.909
2.29383	0.909
2.33381	0.907
2.37379	0.906
2.41376	0.904
2.45374	0.904
2.49371	0.902
2.53369	0.901
2.57367	0.899
2.61364	0.894
2.65362	0.885
2.6936	0.87
2.73357	0.837
2.77355	0.741
2.81352	0.592
2.8535	0.473
2.89348	0.473
2.93345	0.533
2.97343	0.575
3.0134	0.595
3.05338	0.625
3.09336	0.642
3.13333	0.651
3.17331	0.656
3.21329	0.657
3.25326	0.654
3.29324	0.639
3.33321	0.449
3.37319	0.3
3.41317	0.343
3.45314	0.374
3.49312	0.456
3.53309	0.625
3.57307	0.708
3.61305	0.734
3.65302	0.753
3.693	0.773
3.73298	0.78
3.77295	0.78
3.81293	0.768
3.8529	0.758
3.89288	0.761
3.93286	0.77
3.97283	0.771
4.01281	0.773
4.05279	0.778
4.09276	0.783
4.13274	0.791
4.17271	0.793
4.21269	0.785
4.25267	0.783
4.29264	0.785
4.33262	0.8
4.37259	0.813
4.41257	0.825
4.45255	0.833
4.49252	0.842
4.5325	0.854
4.57248	0.862
4.61245	0.867
4.65243	0.867
4.6924	0.867
4.73238	0.869
4.77236	0.874
4.81233	0.879
4.85231	0.879
4.89228	0.882
4.93226	0.887
4.97224	0.892
5.01221	0.895
5.05219	0.899
5.09217	0.901
5.13214	0.902
5.17212	0.904
5.21209	0.907
5.25207	0.909
5.29205	0.909
5.33202	0.911
5.372	0.912
5.41198	0.912
5.45195	0.909
5.49193	0.904
5.5319	0.904
5.57188	0.901
5.61186	0.901
5.65183	0.901
5.69181	0.899
5.73178	0.897
5.77176	0.894
5.81174	0.887
5.85171	0.877
5.89169	0.86
5.93167	0.833
5.97164	0.753
6.01162	0.639
6.05159	0.637
6.09157	0.708
6.13155	0.802
6.17152	0.86
6.2115	0.884
6.25147	0.892
6.29145	0.897
6.33143	0.899
6.3714	0.901
6.41138	0.901
6.45136	0.901
6.49133	0.901
6.53131	0.901
6.57128	0.901
6.61126	0.901
6.65124	0.901
6.69121	0.899
6.73119	0.877
6.77117	0.803
6.81114	0.751
6.85112	0.738
6.89109	0.75
6.93107	0.776
6.97105	0.8
7.01102	0.803
7.051	0.805
7.09097	0.802
7.13095	0.791
7.17093	0.748
7.2109	0.674
7.25088	0.674
7.29086	0.669
7.33083	0.654
7.37081	0.637
7.41078	0.604
7.45076	0.573
7.49074	0.543
7.53071	0.506
7.57069	0.481
7.61067	0.463
7.65064	0.451
7.69062	0.437
7.73059	0.429
7.77057	0.419
7.81055	0.411
7.85052	0.402
7.8905	0.395
7.93047	0.387
7.97045	0.38
8.01043	0.375
8.0504	0.374
8.09038	0.374
8.13036	0.384
8.17033	0.395
8.21031	0.414
8.25028	0.432
8.29026	0.442
8.33024	0.449
8.37021	0.444
8.41019	0.436
8.45016	0.427
8.49014	0.427
8.53012	0.432
8.57009	0.453
8.61007	0.479
8.65005	0.505
8.69002	0.538
8.73	0.575
8.76997	0.604
8.80995	0.632
8.84993	0.654
8.8899	0.671
8.92988	0.684
8.96986	0.692
9.00983	0.704
9.04981	0.708
9.08978	0.711
9.12976	0.704
9.16974	0.687
9.20971	0.624
9.24969	0.572
9.28966	0.543
9.32964	0.545
9.36962	0.543
9.40959	0.536
9.44957	0.53
9.48955	0.525
9.52952	0.518
9.5695	0.518
9.60947	0.526
9.64945	0.546
9.68943	0.587
9.7294	0.64
9.76938	0.681
9.80935	0.723
9.84933	0.751
9.88931	0.78
9.92928	0.802
9.96926	0.82
10.0092	0.842
10.0492	0.854
10.0892	0.865
10.1292	0.874
10.1691	0.879
10.2091	0.887
10.2491	0.89
10.2891	0.894
10.329	0.897
10.369	0.897
10.409	0.899
10.449	0.901
10.4889	0.899
10.5289	0.901
10.5689	0.901
10.6089	0.899
10.6489	0.897
10.6888	0.894
10.7288	0.889
10.7688	0.885
10.8088	0.882
10.8487	0.874
10.8887	0.865
10.9287	0.859
10.9687	0.852
11.0086	0.84
11.0486	0.828
11.0886	0.81
11.1286	0.783
11.1685	0.75
11.2085	0.718
11.2485	0.679
11.2885	0.642
11.3284	0.602
11.3684	0.555
11.4084	0.515
11.4484	0.5
11.4884	0.488
11.5283	0.481
11.5683	0.478
11.6083	0.476
11.6483	0.481
11.6882	0.5
11.7282	0.525
11.7682	0.552
11.8082	0.588
11.8481	0.622
11.8881	0.666
11.9281	0.703
11.9681	0.733
12.008	0.755
12.048	0.771
12.088	0.788
12.128	0.803
12.1679	0.815
12.2079	0.823
12.2479	0.83
12.2879	0.833
12.3279	0.837
12.3678	0.835
12.4078	0.832
12.4478	0.83
12.4878	0.825
12.5277	0.822
12.5677	0.815
12.6077	0.81
12.6477	0.805
12.6876	0.798
12.7276	0.79
12.7676	0.778
12.8076	0.773
12.8475	0.766
12.8875	0.763
12.9275	0.761
12.9675	0.761
13.0074	0.76
13.0474	0.761
13.0874	0.763
13.1274	0.765
13.1674	0.766
13.2073	0.77
13.2473	0.77
13.2873	0.771
13.3273	0.771
13.3672	0.771
13.4072	0.77
13.4472	0.765
13.4872	0.765
13.5271	0.763
13.5671	0.76
13.6071	0.756
13.6471	0.751
13.687	0.746
13.727	0.744
13.767	0.739
13.807	0.736
13.8469	0.734
13.8869	0.731
13.9269	0.726
13.9669	0.723
14.0069	0.716
14.0468	0.713
14.0868	0.708
14.1268	0.701
14.1668	0.696
14.2067	0.689
14.2467	0.682
14.2867	0.676
14.3267	0.672
14.3666	0.664
14.4066	0.661
14.4466	0.652
14.4866	0.645
14.5265	0.642
14.5665	0.634
14.6065	0.624
14.6465	0.619
14.6864	0.614
14.7264	0.605
14.7664	0.602
14.8064	0.592
14.8464	0.587
14.8863	0.58
14.9263	0.573
14.9663	0.568
15.0063	0.563
15.0462	0.56
15.0862	0.555
15.1262	0.555
15.1662	0.553
15.2061	0.552
15.2461	0.552
15.2861	0.553
15.3261	0.553
15.366	0.553
15.406	0.557
15.446	0.562
15.486	0.565
15.5259	0.568
15.5659	0.573
15.6059	0.577
15.6459	0.582
15.6859	0.587
15.7258	0.59
15.7658	0.598
15.8058	0.602
15.8458	0.605
15.8857	0.614
15.9257	0.622
15.9657	0.635
