Infrared Spectrum: CODEINE, HYDROCHLORIDE (DIHYDRATE)
Formula: C18 H22 Cl N O3  * 2 H2 O
State: SOLID (1.4/250 mg KBr DISC)
Melting point: ABOUT 280 C SOME DECOMP.
Class: COBLENTZ III
Instrument: PERKIN-ELMER 21 (GRATING)
Instrument parameters: FILTER AT ABOUT 10 MICRONS
Sampling: TRANSMISSION
Resolution: 2
Origin: BUREAU OF CUSTOMS
1/CM	TRANSMITTANCE
4000	0.7543
3991	0.7565
3982	0.7587
3973	0.7608
3964	0.7632
3955	0.7655
3946	0.7678
3937	0.7701
3928	0.7725
3919	0.7748
3910	0.7771
3901	0.7795
3892	0.7818
3883	0.7843
3874	0.7867
3865	0.7891
3856	0.7917
3847	0.7953
3838	0.7988
3829	0.8024
3820	0.8061
3811	0.8101
3802	0.8142
3793	0.8175
3784	0.821
3775	0.8243
3766	0.8274
3757	0.8306
3748	0.8331
3739	0.8338
3730	0.8342
3721	0.8346
3712	0.835
3703	0.8374
3694	0.843
3685	0.8488
3676	0.8534
3667	0.8556
3658	0.8568
3649	0.8574
3640	0.8568
3631	0.8541
3622	0.8403
3613	0.8042
3604	0.7855
3595	0.7596
3586	0.7047
3577	0.6485
3568	0.592
3559	0.5353
3550	0.4782
3541	0.4209
3532	0.3632
3523	0.3053
3514	0.2471
3505	0.1885
3496	0.1488
3487	0.1565
3478	0.182
3469	0.208
3460	0.234
3451	0.2602
3442	0.2866
3433	0.3131
3424	0.3397
3415	0.3656
3406	0.3664
3397	0.3668
3388	0.3738
3379	0.3809
3370	0.3979
3361	0.3909
3352	0.3742
3343	0.3534
3334	0.3325
3325	0.3114
3316	0.2903
3307	0.2731
3298	0.2725
3289	0.2734
3280	0.2864
3271	0.2998
3262	0.3133
3253	0.3268
3244	0.3405
3235	0.3543
3226	0.3575
3217	0.3295
3208	0.3175
3199	0.3187
3190	0.3299
3181	0.3456
3172	0.3614
3163	0.3772
3154	0.3932
3145	0.4092
3136	0.4253
3127	0.4415
3118	0.4578
3109	0.4743
3100	0.4908
3091	0.5073
3082	0.5223
3073	0.5194
3064	0.4966
3055	0.4727
3046	0.4486
3037	0.4245
3028	0.4027
3019	0.4153
3010	0.4404
3001	0.4579
2992	0.4758
2983	0.5054
2974	0.5144
2965	0.5107
2956	0.4764
2947	0.4447
2938	0.441
2929	0.4532
2920	0.4749
2911	0.4968
2902	0.5187
2893	0.5408
2884	0.5631
2875	0.5786
2866	0.5767
2857	0.5669
2848	0.5326
2839	0.5129
2830	0.5088
2821	0.5059
2812	0.5022
2803	0.4978
2794	0.4901
2785	0.473
2776	0.4344
2767	0.3959
2758	0.3574
2749	0.3184
2740	0.3081
2731	0.3346
2722	0.3694
2713	0.4045
2704	0.4279
2695	0.4225
2686	0.4162
2677	0.4195
2668	0.4352
2659	0.4526
2650	0.4655
2641	0.4789
2632	0.4939
2623	0.5096
2614	0.5266
2605	0.556
2596	0.5773
2587	0.5812
2578	0.5791
2569	0.5733
2560	0.5736
2551	0.5823
2542	0.5871
2533	0.5877
2524	0.591
2515	0.6029
2506	0.6189
2497	0.636
2488	0.6519
2479	0.6676
2470	0.6831
2461	0.6978
2452	0.7115
2443	0.7224
2434	0.7326
2425	0.743
2416	0.7521
2407	0.7607
2398	0.769
2389	0.7765
2380	0.7843
2371	0.7917
2362	0.798
2353	0.8042
2344	0.8101
2335	0.8157
2326	0.821
2317	0.8263
2308	0.8321
2299	0.8383
2290	0.8444
2281	0.85
2272	0.8546
2263	0.8565
2254	0.8585
2245	0.8609
2236	0.864
2227	0.8671
2218	0.8696
2209	0.8723
2200	0.8748
2191	0.8774
2182	0.8798
2173	0.8833
2164	0.8862
2155	0.888
2146	0.8887
2137	0.8886
2128	0.8867
2119	0.88
2110	0.8687
2101	0.8568
2092	0.8502
2083	0.8464
2074	0.8442
2065	0.8424
2056	0.8408
2047	0.8414
2038	0.8456
2029	0.8515
2020	0.8585
2011	0.8707
2002	0.884
1993	0.8978
1984	0.9094
1975	0.918
1966	0.9218
1957	0.9212
1948	0.9255
1939	0.933
1930	0.9411
1921	0.9427
1912	0.9444
1903	0.9471
1894	0.9528
1885	0.9582
1876	0.9617
1867	0.9605
1858	0.9561
1849	0.9571
1840	0.9644
1831	0.9763
1822	0.9859
1813	0.9928
1804	0.9957
1795	0.9975
1786	0.9982
1777	0.9974
1768	0.9961
1759	0.9894
1750	0.975
1741	0.9635
1732	0.9605
1723	0.9782
1714	0.9687
1705	0.9778
1696	0.966
1687	0.952
1678	0.9418
1669	0.927
1660	0.8699
1651	0.7128
1642	0.4391
1633	0.5803
1624	0.7248
1615	0.675
1606	0.4948
1597	0.7161
1588	0.8295
1579	0.8883
1570	0.9188
1561	0.9332
1552	0.9386
1543	0.9345
1534	0.904
1525	0.7589
1516	0.5246
1507	0.368
1498	0.2648
1489	0.5528
1480	0.5744
1471	0.4977
1462	0.4265
1453	0.2382
1444	0.3504
1435	0.5119
1426	0.621
1417	0.5957
1408	0.5814
1399	0.432
1390	0.5618
1381	0.6129
1372	0.6958
1363	0.6817
1354	0.6475
1345	0.7554
1336	0.7956
1327	0.7551
1318	0.6524
1309	0.8471
1300	0.8625
1291	0.7188
1282	0.3768
1273	0.323
1264	0.411
1255	0.6636
1246	0.5555
1237	0.7118
1228	0.7418
1219	0.7843
1210	0.7669
1201	0.6436
1192	0.5762
1183	0.4406
1174	0.6558
1165	0.7561
1156	0.3859
1147	0.6875
1138	0.7097
1129	0.3368
1120	0.4783
1111	0.4677
1102	0.7441
1093	0.6824
1084	0.3959
1075	0.357
1066	0.2509
1057	0.4764
1048	0.2524
1039	0.4331
1030	0.5191
1021	0.5284
1012	0.6036
1003	0.7525
994	0.783
985	0.7978
976	0.4915
967	0.5408
958	0.7239
949	0.8097
940	0.4542
931	0.665
922	0.7851
913	0.3943
904	0.7575
895	0.8449
886	0.881
877	0.8049
868	0.5453
859	0.8656
850	0.8967
841	0.4638
832	0.7508
823	0.8759
814	0.7901
805	0.6992
796	0.3456
787	0.3868
778	0.7984
769	0.7796
760	0.8809
751	0.6449
742	0.8562
733	0.8686
724	0.7955
715	0.7321
706	0.7698
697	0.6868
688	0.6494
679	0.6568
670	0.6016
661	0.6411
652	0.6508
