Infrared Spectrum: CHROMIUM POTASSIUM SULFATE
Formula: Cr2 ( S O4 )3  * K2 S O4  * 24 H2 O
State: SOLID (NUJOL MULL)
Class: COBLENTZ
Instrument: Not specified, most likely a prism, grating, or hybrid spectrometer.
Sampling: TRANSMISSION
Resolution: 4
Origin: MELLON INSTITUTE
MICROMETERS	TRANSMITTANCE
2.023	0.864
2.06288	0.864
2.10276	0.859
2.14264	0.854
2.18252	0.851
2.2224	0.844
2.26228	0.841
2.30216	0.839
2.34204	0.836
2.38192	0.831
2.4218	0.827
2.46168	0.827
2.50156	0.827
2.54144	0.819
2.58132	0.819
2.6212	0.816
2.66108	0.816
2.70096	0.809
2.74084	0.797
2.78072	0.76
2.8206	0.692
2.86048	0.618
2.90036	0.568
2.94024	0.525
2.98012	0.516
3.02	0.52
3.05988	0.531
3.09976	0.541
3.13964	0.543
3.17952	0.533
3.2194	0.516
3.25928	0.501
3.29916	0.473
3.33904	0.287
3.37892	0.183
3.4188	0.222
3.45868	0.242
3.49856	0.391
3.53844	0.451
3.57832	0.488
3.6182	0.528
3.65808	0.551
3.69796	0.573
3.73784	0.593
3.77772	0.607
3.8176	0.625
3.85748	0.643
3.89736	0.647
3.93724	0.652
3.97712	0.653
4.017	0.653
4.05688	0.657
4.09676	0.657
4.13663	0.663
4.17651	0.66
4.21639	0.657
4.25627	0.655
4.29615	0.655
4.33603	0.672
4.37591	0.7
4.41579	0.715
4.45567	0.732
4.49555	0.744
4.53543	0.754
4.57531	0.762
4.61519	0.765
4.65507	0.772
4.69495	0.779
4.73483	0.785
4.77471	0.792
4.81459	0.794
4.85447	0.794
4.89435	0.797
4.93423	0.804
4.97411	0.812
5.01399	0.819
5.05387	0.827
5.09375	0.834
5.13363	0.837
5.17351	0.842
5.21339	0.846
5.25327	0.851
5.29315	0.854
5.33303	0.856
5.37291	0.857
5.41279	0.857
5.45267	0.861
5.49255	0.862
5.53243	0.866
5.57231	0.866
5.61219	0.867
5.65207	0.872
5.69195	0.879
5.73183	0.881
5.77171	0.884
5.81159	0.882
5.85147	0.876
5.89135	0.872
5.93123	0.864
5.97111	0.854
6.01099	0.844
6.05087	0.837
6.09075	0.832
6.13063	0.834
6.17051	0.841
6.21039	0.846
6.25027	0.852
6.29015	0.854
6.33003	0.856
6.36991	0.862
6.40979	0.867
6.44967	0.876
6.48955	0.876
6.52943	0.881
6.56931	0.886
6.60919	0.891
6.64907	0.892
6.68895	0.891
6.72883	0.882
6.76871	0.822
6.80859	0.745
6.84847	0.749
6.88835	0.79
6.92823	0.826
6.96811	0.874
7.00799	0.882
7.04787	0.896
7.08775	0.901
7.12763	0.903
7.16751	0.892
7.20739	0.842
7.24727	0.856
7.28715	0.882
7.32703	0.903
7.36691	0.911
7.40679	0.916
7.44667	0.924
7.48655	0.929
7.52643	0.934
7.56631	0.938
7.60619	0.938
7.64607	0.939
7.68595	0.939
7.72583	0.944
7.76571	0.944
7.80559	0.948
7.84547	0.951
7.88535	0.953
7.92523	0.953
7.96511	0.954
8.00499	0.953
8.04487	0.953
8.08475	0.953
8.12463	0.949
8.16451	0.948
8.20439	0.944
8.24427	0.938
8.28415	0.926
8.32402	0.919
8.3639	0.904
8.40378	0.897
8.44366	0.889
8.48354	0.886
8.52342	0.884
8.5633	0.866
8.60318	0.852
8.64306	0.829
8.68294	0.802
8.72282	0.764
8.7627	0.725
8.80258	0.672
8.84246	0.618
8.88234	0.565
8.92222	0.51
8.9621	0.486
9.00198	0.446
9.04186	0.399
9.08174	0.369
9.12162	0.344
9.1615	0.334
9.20138	0.331
9.24126	0.339
9.28114	0.364
9.32102	0.404
9.3609	0.441
9.40078	0.469
9.44066	0.513
9.48054	0.55
9.52042	0.602
9.5603	0.648
9.60018	0.692
9.64006	0.729
9.67994	0.76
9.71982	0.79
9.7597	0.801
9.79958	0.814
9.83946	0.831
9.87934	0.844
9.91922	0.859
9.9591	0.866
9.99898	0.871
10.0389	0.874
10.0787	0.876
10.1186	0.876
10.1585	0.881
10.1984	0.882
10.2383	0.882
10.2781	0.882
10.318	0.884
10.3579	0.891
10.3978	0.892
10.4377	0.892
10.4775	0.894
10.5174	0.892
10.5573	0.892
10.5972	0.889
10.6371	0.886
10.6769	0.887
10.7168	0.886
10.7567	0.886
10.7966	0.886
10.8365	0.887
10.8763	0.887
10.9162	0.884
10.9561	0.882
10.996	0.886
11.0359	0.886
11.0757	0.887
11.1156	0.891
11.1555	0.891
11.1954	0.894
11.2353	0.896
11.2751	0.899
11.315	0.901
11.3549	0.901
11.3948	0.901
11.4347	0.903
11.4745	0.904
11.5144	0.904
11.5543	0.904
11.5942	0.908
11.6341	0.909
11.6739	0.913
11.7138	0.916
11.7537	0.921
11.7936	0.921
11.8335	0.924
11.8733	0.928
11.9132	0.928
11.9531	0.931
11.993	0.936
12.0329	0.939
12.0727	0.938
12.1126	0.938
12.1525	0.941
12.1924	0.941
12.2323	0.941
12.2721	0.941
12.312	0.941
12.3519	0.941
12.3918	0.941
12.4317	0.941
12.4715	0.941
12.5114	0.939
12.5513	0.938
12.5912	0.938
12.6311	0.933
12.6709	0.929
12.7108	0.926
12.7507	0.924
12.7906	0.921
12.8305	0.914
12.8703	0.913
12.9102	0.906
12.9501	0.904
12.99	0.901
13.0299	0.901
13.0697	0.899
13.1096	0.899
13.1495	0.892
13.1894	0.887
13.2293	0.884
13.2691	0.884
13.309	0.879
13.3489	0.874
13.3888	0.872
13.4287	0.862
13.4685	0.856
13.5084	0.847
13.5483	0.839
13.5882	0.831
13.6281	0.819
13.6679	0.804
13.7078	0.801
13.7477	0.792
13.7876	0.782
13.8275	0.779
13.8673	0.775
13.9072	0.77
13.9471	0.767
13.987	0.764
14.0269	0.757
14.0667	0.75
14.1066	0.747
14.1465	0.747
14.1864	0.737
14.2263	0.732
14.2661	0.724
14.306	0.717
14.3459	0.712
14.3858	0.704
14.4257	0.704
14.4655	0.7
14.5054	0.7
14.5453	0.697
14.5852	0.698
14.625	0.695
14.6649	0.688
14.7048	0.685
14.7447	0.682
14.7846	0.673
14.8244	0.673
14.8643	0.68
14.9042	0.673
14.9441	0.668
14.984	0.667
15.0238	0.667
15.0637	0.665
15.1036	0.662
15.1435	0.66
15.1834	0.655
15.2232	0.66
15.2631	0.662
15.303	0.657
15.3429	0.658
15.3828	0.662
15.4226	0.662
15.4625	0.66
15.5024	0.655
15.5423	0.657
15.5822	0.657
15.622	0.657
15.6619	0.658
15.7018	0.655
15.7417	0.657
15.7816	0.657
15.8214	0.662
15.8613	0.662
15.9012	0.663
15.9411	0.663
15.981	0.668
