Infrared Spectrum: DIMETHISOQUIN HYDROCHLORIDE
Formula: C17 H25 Cl N2 O
State: SOLID (1 mg / 200 mg KCl DISC) VS KCl
Class: COBLENTZ III
Instrument: PERKIN-ELMER 21 (GRATING)
Instrument parameters: FILTER AT ABOUT 10 MICRONS
Sampling: TRANSMISSION
Path length: 0.055 CM (THICKNESS)
Resolution: 2
1/CM	TRANSMITTANCE
4000	0.9436
3991	0.9431
3982	0.9426
3973	0.9422
3964	0.942
3955	0.9418
3946	0.9416
3937	0.9424
3928	0.944
3919	0.9456
3910	0.9472
3901	0.9486
3892	0.95
3883	0.9514
3874	0.9514
3865	0.951
3856	0.9504
3847	0.9498
3838	0.9492
3829	0.9486
3820	0.9491
3811	0.9497
3802	0.9503
3793	0.9509
3784	0.9517
3775	0.9523
3766	0.953
3757	0.9536
3748	0.9542
3739	0.9543
3730	0.9546
3721	0.9548
3712	0.9549
3703	0.9551
3694	0.9553
3685	0.9553
3676	0.9549
3667	0.9547
3658	0.9543
3649	0.9541
3640	0.9537
3631	0.9532
3622	0.9523
3613	0.9514
3604	0.9505
3595	0.9496
3586	0.9483
3577	0.9466
3568	0.9446
3559	0.9421
3550	0.9398
3541	0.9373
3532	0.9342
3523	0.931
3514	0.9265
3505	0.9215
3496	0.9162
3487	0.9089
3478	0.9014
3469	0.895
3460	0.8897
3451	0.8863
3442	0.8839
3433	0.8823
3424	0.8807
3415	0.8794
3406	0.8783
3397	0.8804
3388	0.8833
3379	0.8856
3370	0.8879
3361	0.8902
3352	0.894
3343	0.898
3334	0.9019
3325	0.9061
3316	0.9098
3307	0.9129
3298	0.9159
3289	0.9188
3280	0.9214
3271	0.924
3262	0.9267
3253	0.9291
3244	0.9318
3235	0.9345
3226	0.9371
3217	0.9397
3208	0.9417
3199	0.9435
3190	0.9455
3181	0.9468
3172	0.9477
3163	0.9484
3154	0.9489
3145	0.9493
3136	0.95
3127	0.9499
3118	0.9489
3109	0.9471
3100	0.9446
3091	0.9401
3082	0.9295
3073	0.9091
3064	0.9028
3055	0.8976
3046	0.8884
3037	0.8413
3028	0.8236
3019	0.8204
3010	0.818
3001	0.7995
2992	0.7305
2983	0.6615
2974	0.5922
2965	0.5247
2956	0.5058
2947	0.4931
2938	0.4753
2929	0.4728
2920	0.4924
2911	0.5246
2902	0.5567
2893	0.5874
2884	0.596
2875	0.6046
2866	0.6247
2857	0.6545
2848	0.6843
2839	0.7143
2830	0.7444
2821	0.7746
2812	0.7924
2803	0.7975
2794	0.8003
2785	0.8009
2776	0.8013
2767	0.8012
2758	0.8009
2749	0.7989
2740	0.7913
2731	0.7762
2722	0.7505
2713	0.7181
2704	0.6857
2695	0.6532
2686	0.6206
2677	0.5879
2668	0.5548
2659	0.522
2650	0.4888
2641	0.4556
2632	0.4222
2623	0.3887
2614	0.3549
2605	0.3326
2596	0.3305
2587	0.3374
2578	0.3678
2569	0.3976
2560	0.4277
2551	0.4578
2542	0.4881
2533	0.5185
2524	0.532
2515	0.529
2506	0.5192
2497	0.5036
2488	0.4835
2479	0.4596
2470	0.4503
2461	0.4503
2452	0.4657
2443	0.5015
2434	0.5375
2425	0.5736
2416	0.61
2407	0.6465
2398	0.6831
2389	0.72
2380	0.74
2371	0.7452
2362	0.75
2353	0.7594
2344	0.7765
2335	0.7925
2326	0.8073
2317	0.8226
2308	0.8376
2299	0.8522
2290	0.8673
2281	0.8746
2272	0.8814
2263	0.8878
2254	0.8943
2245	0.9003
2236	0.9055
2227	0.908
2218	0.9103
2209	0.9138
2200	0.9199
2191	0.9258
2182	0.9272
2173	0.9287
2164	0.929
2155	0.9293
2146	0.9295
2137	0.9295
2128	0.9295
2119	0.9316
2110	0.9338
2101	0.9362
2092	0.9386
2083	0.9411
2074	0.9429
2065	0.9446
2056	0.9464
2047	0.9475
2038	0.9484
2029	0.9492
2020	0.9491
2011	0.9491
2002	0.9487
1993	0.9494
1984	0.9484
1975	0.9402
1966	0.9373
1957	0.9415
1948	0.9443
1939	0.9446
1930	0.9457
1921	0.9471
1912	0.9487
1903	0.9503
1894	0.9523
1885	0.9546
1876	0.9573
1867	0.9571
1858	0.9555
1849	0.9531
1840	0.9498
1831	0.946
1822	0.9451
1813	0.9514
1804	0.9526
1795	0.9526
1786	0.9515
1777	0.9512
1768	0.9509
1759	0.9501
1750	0.9482
1741	0.9459
1732	0.9451
1723	0.9447
1714	0.943
1705	0.9425
1696	0.9435
1687	0.9421
1678	0.9297
1669	0.9116
1660	0.9004
1651	0.8363
1642	0.6892
1633	0.4055
1624	0.6395
1615	0.8446
1606	0.7488
1597	0.6479
1588	0.591
1579	0.509
1570	0.7881
1561	0.8577
1552	0.8821
1543	0.8918
1534	0.9024
1525	0.9053
1516	0.8872
1507	0.5714
1498	0.6392
1489	0.6299
1480	0.7341
1471	0.6281
1462	0.5579
1453	0.5915
1444	0.6523
1435	0.6325
1426	0.6681
1417	0.5697
1408	0.472
1399	0.4878
1390	0.5518
1381	0.7081
1372	0.7709
1363	0.6682
1354	0.4828
1345	0.626
1336	0.472
1327	0.3314
1318	0.419
1309	0.6271
1300	0.7993
1291	0.8341
1282	0.8057
1273	0.8454
1264	0.8343
1255	0.8859
1246	0.8831
1237	0.8809
1228	0.8795
1219	0.8466
1210	0.7121
1201	0.8637
1192	0.8124
1183	0.8091
1174	0.8144
1165	0.7496
1156	0.5658
1147	0.794
1138	0.8358
1129	0.8249
1120	0.5456
1111	0.6149
1102	0.5498
1093	0.6601
1084	0.7935
1075	0.8361
1066	0.8421
1057	0.8693
1048	0.9051
1039	0.8124
1030	0.8172
1021	0.8567
1012	0.9009
1003	0.9148
994	0.861
985	0.5264
976	0.7407
967	0.8006
958	0.8721
949	0.9289
940	0.9376
931	0.8767
922	0.8119
913	0.9244
904	0.9294
895	0.9486
886	0.9521
877	0.9504
868	0.8302
859	0.9207
850	0.9447
841	0.9008
832	0.5265
823	0.9092
814	0.9393
805	0.9495
796	0.8363
787	0.9152
778	0.9263
769	0.8965
760	0.9128
751	0.4194
742	0.8767
733	0.8754
724	0.9405
715	0.9522
706	0.9462
697	0.9482
688	0.8782
679	0.9117
670	0.7136
