Infrared Spectrum: M-CRESOL, 4,4'-ETHYLIDENE BIS(6-TERT-OCTYL)-
Formula: C32 H50 O2
State: SOLID (KBr PELLET)
Class: COBLENTZ
Instrument: Not specified, most likely a prism, grating, or hybrid spectrometer.
Sampling: TRANSMISSION
Resolution: 4
Origin: TENNESSEE EASTMAN COMPANY, RESEARCH LABORATORIES
MICROMETERS	TRANSMITTANCE
2.007	0.958
2.04812	0.96
2.08924	0.962
2.13035	0.965
2.17147	0.967
2.21259	0.969
2.25371	0.963
2.29482	0.946
2.33594	0.938
2.37706	0.939
2.41818	0.943
2.45929	0.948
2.50041	0.953
2.54153	0.953
2.58265	0.953
2.62376	0.953
2.66488	0.957
2.706	0.953
2.74712	0.845
2.78823	0.641
2.82935	0.399
2.87047	0.123
2.91159	0.24
2.95271	0.327
2.99382	0.411
3.03494	0.542
3.07606	0.634
3.11718	0.694
3.15829	0.759
3.19941	0.826
3.24053	0.859
3.28165	0.869
3.32276	0.723
3.36388	0.138
3.405	0.03
3.44612	0.073
3.48723	0.137
3.52835	0.555
3.56947	0.811
3.61059	0.871
3.65171	0.898
3.69282	0.895
3.73394	0.893
3.77506	0.914
3.81618	0.919
3.85729	0.936
3.89841	0.939
3.93953	0.95
3.98065	0.948
4.02176	0.948
4.06288	0.95
4.104	0.948
4.14512	0.948
4.18623	0.95
4.22735	0.951
4.26847	0.953
4.30959	0.951
4.3507	0.955
4.39182	0.963
4.43294	0.974
4.47406	0.977
4.51518	0.977
4.55629	0.977
4.59741	0.975
4.63853	0.975
4.67965	0.974
4.72076	0.974
4.76188	0.974
4.803	0.972
4.84412	0.974
4.88523	0.972
4.92635	0.972
4.96747	0.972
5.00859	0.972
5.0497	0.974
5.09082	0.975
5.13194	0.974
5.17306	0.972
5.21418	0.974
5.25529	0.977
5.29641	0.975
5.33753	0.975
5.37865	0.975
5.41976	0.981
5.46088	0.977
5.502	0.972
5.54312	0.965
5.58423	0.957
5.62535	0.948
5.66647	0.95
5.70759	0.941
5.7487	0.91
5.78982	0.885
5.83094	0.871
5.87206	0.859
5.91317	0.866
5.95429	0.871
5.99541	0.845
6.03653	0.814
6.07765	0.761
6.11876	0.708
6.15988	0.634
6.201	0.583
6.24212	0.734
6.28323	0.801
6.32435	0.753
6.36547	0.766
6.40659	0.826
6.4477	0.843
6.48882	0.807
6.52994	0.754
6.57106	0.341
6.61217	0.349
6.65329	0.62
6.69441	0.502
6.73553	0.373
6.77665	0.267
6.81776	0.24
6.85888	0.221
6.9	0.276
6.94112	0.447
6.98223	0.569
7.02335	0.602
7.06447	0.348
7.10559	0.077
7.1467	0.193
7.18782	0.361
7.22894	0.289
7.27006	0.307
7.31117	0.36
7.35229	0.3
7.39341	0.658
7.43453	0.646
7.47564	0.674
7.51676	0.617
7.55788	0.492
7.599	0.68
7.64012	0.603
7.68123	0.675
7.72235	0.722
7.76347	0.543
7.80459	0.288
7.8457	0.415
7.88682	0.339
7.92794	0.406
7.96906	0.506
8.01017	0.433
8.05129	0.469
8.09241	0.605
8.13353	0.619
8.17464	0.572
8.21576	0.457
8.25688	0.31
8.298	0.178
8.33911	0.051
8.38023	0.065
8.42135	0.322
8.46247	0.53
8.50359	0.602
8.5447	0.557
8.58582	0.375
8.62694	0.236
8.66806	0.216
8.70917	0.433
8.75029	0.576
8.79141	0.564
8.83253	0.627
8.87364	0.701
8.91476	0.684
8.95588	0.588
8.997	0.655
9.03811	0.747
9.07923	0.773
9.12035	0.799
9.16147	0.816
9.20259	0.823
9.2437	0.802
9.28482	0.732
9.32594	0.481
9.36706	0.428
9.40817	0.648
9.44929	0.744
9.49041	0.802
9.53153	0.804
9.57264	0.802
9.61376	0.722
9.65488	0.648
9.696	0.622
9.73711	0.67
9.77823	0.567
9.81935	0.677
9.86047	0.734
9.90158	0.699
9.9427	0.686
9.98382	0.759
10.0249	0.825
10.0661	0.845
10.1072	0.855
10.1483	0.849
10.1894	0.831
10.2305	0.766
10.2716	0.749
10.3128	0.809
10.3539	0.849
10.395	0.866
10.4361	0.866
10.4772	0.867
10.5183	0.874
10.5595	0.876
10.6006	0.874
10.6417	0.864
10.6828	0.849
10.7239	0.849
10.7651	0.831
10.8062	0.794
10.8473	0.732
10.8884	0.789
10.9295	0.814
10.9706	0.813
11.0118	0.83
11.0529	0.74
11.094	0.586
11.1351	0.674
11.1762	0.668
11.2173	0.536
11.2585	0.747
11.2996	0.843
11.3407	0.862
11.3818	0.873
11.4229	0.866
11.4641	0.833
11.5052	0.801
11.5463	0.756
11.5874	0.564
11.6285	0.432
11.6696	0.54
11.7108	0.545
11.7519	0.674
11.793	0.763
11.8341	0.765
11.8752	0.687
11.9163	0.663
11.9575	0.727
11.9986	0.792
12.0397	0.842
12.0808	0.864
12.1219	0.871
12.1631	0.876
12.2042	0.881
12.2453	0.881
12.2864	0.864
12.3275	0.842
12.3686	0.787
12.4098	0.766
12.4509	0.818
12.492	0.857
12.5331	0.873
12.5742	0.883
12.6153	0.89
12.6565	0.883
12.6976	0.879
12.7387	0.888
12.7798	0.893
12.8209	0.898
12.8621	0.9
12.9032	0.9
12.9443	0.897
12.9854	0.897
13.0265	0.902
13.0676	0.9
13.1088	0.898
13.1499	0.902
13.191	0.9
13.2321	0.854
13.2732	0.816
13.3143	0.814
13.3555	0.835
13.3966	0.845
13.4377	0.84
13.4788	0.819
13.5199	0.777
13.5611	0.722
13.6022	0.706
13.6433	0.747
13.6844	0.807
13.7255	0.85
13.7666	0.859
13.8078	0.874
13.8489	0.879
13.89	0.888
13.9311	0.9
13.9722	0.903
14.0133	0.91
14.0545	0.917
14.0956	0.919
14.1367	0.919
14.1778	0.922
14.2189	0.924
14.2601	0.924
14.3012	0.926
14.3423	0.926
14.3834	0.926
14.4245	0.924
14.4656	0.922
14.5068	0.902
14.5479	0.9
14.589	0.9
14.6301	0.902
14.6712	0.907
14.7123	0.91
14.7535	0.914
14.7946	0.917
14.8357	0.919
14.8768	0.919
14.9179	0.919
14.9591	0.914
15.0002	0.897
15.0413	0.895
15.0824	0.895
15.1235	0.9
15.1646	0.89
15.2058	0.873
15.2469	0.85
15.288	0.823
15.3291	0.804
15.3702	0.801
15.4113	0.801
15.4525	0.802
15.4936	0.802
15.5347	0.802
15.5758	0.802
15.6169	0.802
15.6581	0.799
15.6992	0.783
15.7403	0.763
15.7814	0.753
15.8225	0.742
15.8636	0.734
15.9048	0.73
15.9459	0.727
15.987	0.72
