Infrared Spectrum: 9H-PURINE, 6-(METHYLTHIO)-9-Beta-D-RIBOFURANOSYL-, 5'-BARIUM PHOSPHATE, HYDRATED
Formula: C11 H13 N4 O7 S Ba P
State: SOLID (1 mg / 650 mg KBr DISC)
Class: COBLENTZ III
Instrument: PERKIN-ELMER 221 (GRATING)
Instrument parameters: FILTER CHANGES AT 2490, 980 CM^-^1, GRATING FOR 4000-1428 CM^-^1, NaCl PRISM FOR 1428-650 CM^-^1
Sampling: TRANSMISSION
Resolution: 4
Origin: SOUTHERN RESEARCH INST.
1/CM	TRANSMITTANCE
624.654	0.487
634.273	0.514
643.891	0.571
653.51	0.607
663.128	0.636
672.747	0.645
682.366	0.651
691.984	0.647
701.603	0.604
711.221	0.583
720.84	0.546
730.458	0.511
740.077	0.502
749.696	0.485
759.314	0.47
768.933	0.466
778.551	0.464
788.17	0.42
797.789	0.481
807.407	0.456
817.026	0.437
826.644	0.513
836.263	0.578
845.882	0.613
855.5	0.629
865.119	0.588
874.737	0.577
884.356	0.604
893.974	0.611
903.593	0.605
913.212	0.617
922.83	0.622
932.449	0.52
942.067	0.406
951.686	0.311
961.305	0.324
970.923	0.247
980.542	0.156
990.16	0.177
999.779	0.259
1009.4	0.523
1019.02	0.512
1028.63	0.399
1038.25	0.292
1047.87	0.195
1057.49	0.132
1067.11	0.1
1076.73	0.098
1086.35	0.097
1095.96	0.097
1105.58	0.096
1115.2	0.1
1124.82	0.108
1134.44	0.111
1144.06	0.138
1153.68	0.189
1163.29	0.265
1172.91	0.404
1182.53	0.489
1192.15	0.521
1201.77	0.397
1211.39	0.313
1221.01	0.359
1230.63	0.435
1240.24	0.532
1249.86	0.627
1259.48	0.646
1269.1	0.672
1278.72	0.697
1288.34	0.701
1297.96	0.702
1307.57	0.693
1317.19	0.612
1326.81	0.464
1336.43	0.377
1346.05	0.517
1355.67	0.643
1365.29	0.668
1374.9	0.66
1384.52	0.601
1394.14	0.527
1403.76	0.558
1413.38	0.557
1423	0.486
1432.62	0.445
1442.23	0.49
1451.85	0.62
1461.47	0.672
1471.09	0.693
1480.71	0.649
1490.33	0.638
1499.95	0.738
1509.56	0.804
1519.18	0.814
1528.8	0.801
1538.42	0.727
1548.04	0.607
1557.66	0.388
1567.28	0.133
1576.89	0.124
1586.51	0.262
1596.13	0.478
1605.75	0.661
1615.37	0.714
1624.99	0.73
1634.61	0.746
1644.22	0.759
1653.84	0.774
1663.46	0.797
1673.08	0.827
1682.7	0.835
1692.32	0.846
1701.94	0.86
1711.55	0.878
1721.17	0.888
1730.79	0.896
1740.41	0.9
1750.03	0.907
1759.65	0.911
1769.27	0.918
1778.88	0.921
1788.5	0.926
1798.12	0.928
1807.74	0.93
1817.36	0.932
1826.98	0.935
1836.6	0.937
1846.21	0.938
1855.83	0.937
1865.45	0.937
1875.07	0.935
1884.69	0.933
1894.31	0.933
1903.93	0.934
1913.54	0.935
1923.16	0.935
1932.78	0.936
1942.4	0.936
1952.02	0.935
1961.64	0.934
1971.26	0.933
1980.87	0.931
1990.49	0.929
2000.11	0.926
2009.73	0.922
2019.35	0.915
2028.97	0.912
2038.59	0.911
2048.2	0.911
2057.82	0.904
2067.44	0.9
2077.06	0.898
2086.68	0.896
2096.3	0.894
2105.92	0.893
2115.54	0.892
2125.15	0.89
2134.77	0.889
2144.39	0.888
2154.01	0.886
2163.63	0.885
2173.25	0.885
2182.87	0.883
2192.48	0.88
2202.1	0.879
2211.72	0.878
2221.34	0.878
2230.96	0.877
2240.58	0.876
2250.2	0.872
2259.81	0.866
2269.43	0.864
2279.05	0.863
2288.67	0.862
2298.29	0.862
2307.91	0.861
2317.53	0.854
2327.14	0.849
2336.76	0.841
2346.38	0.834
2356	0.832
2365.62	0.826
2375.24	0.823
2384.86	0.819
2394.47	0.814
2404.09	0.807
2413.71	0.803
2423.33	0.8
2432.95	0.799
2442.57	0.797
2452.19	0.795
2461.8	0.786
2471.42	0.786
2481.04	0.786
2490.66	0.762
2500.28	0.747
2509.9	0.741
2519.52	0.734
2529.13	0.729
2538.75	0.723
2548.37	0.72
2557.99	0.716
2567.61	0.712
2577.23	0.71
2586.85	0.708
2596.46	0.701
2606.08	0.698
2615.7	0.693
2625.32	0.686
2634.94	0.667
2644.56	0.66
2654.18	0.657
2663.79	0.649
2673.41	0.643
2683.03	0.636
2692.65	0.632
2702.27	0.628
2711.89	0.627
2721.51	0.626
2731.12	0.626
2740.74	0.624
2750.36	0.622
2759.98	0.619
2769.6	0.617
2779.22	0.614
2788.84	0.609
2798.45	0.604
2808.07	0.595
2817.69	0.581
2827.31	0.571
2836.93	0.56
2846.55	0.549
2856.17	0.542
2865.78	0.533
2875.4	0.523
2885.02	0.509
2894.64	0.503
2904.26	0.488
2913.88	0.472
2923.5	0.459
2933.12	0.472
2942.73	0.486
2952.35	0.5
2961.97	0.512
2971.59	0.515
2981.21	0.512
2990.83	0.503
3000.45	0.489
3010.06	0.486
3019.68	0.477
3029.3	0.465
3038.92	0.456
3048.54	0.451
3058.16	0.446
3067.78	0.441
3077.39	0.436
3087.01	0.416
3096.63	0.405
3106.25	0.402
3115.87	0.402
3125.49	0.402
3135.11	0.402
3144.72	0.402
3154.34	0.401
3163.96	0.4
3173.58	0.398
3183.2	0.397
3192.82	0.395
3202.44	0.394
3212.05	0.391
3221.67	0.389
3231.29	0.384
3240.91	0.381
3250.53	0.378
3260.15	0.377
3269.77	0.378
3279.38	0.38
3289	0.38
3298.62	0.374
3308.24	0.37
3317.86	0.369
3327.48	0.366
3337.1	0.357
3346.71	0.346
3356.33	0.341
3365.95	0.329
3375.57	0.326
3385.19	0.324
3394.81	0.325
3404.43	0.327
3414.04	0.328
3423.66	0.331
3433.28	0.334
3442.9	0.339
3452.52	0.344
3462.14	0.354
3471.76	0.367
3481.37	0.375
3490.99	0.394
3500.61	0.416
3510.23	0.436
3519.85	0.457
3529.47	0.479
3539.09	0.501
3548.7	0.525
3558.32	0.547
3567.94	0.574
3577.56	0.605
3587.18	0.64
3596.8	0.677
3606.42	0.722
3616.03	0.76
3625.65	0.797
3635.27	0.831
3644.89	0.855
3654.51	0.883
3664.13	0.904
3673.75	0.922
3683.36	0.929
3692.98	0.94
3702.6	0.947
3712.22	0.948
3721.84	0.95
3731.46	0.951
3741.08	0.952
3750.7	0.952
3760.31	0.952
3769.93	0.952
3779.55	0.951
3789.17	0.948
3798.79	0.946
3808.41	0.944
3818.03	0.941
3827.64	0.94
3837.26	0.94
3846.88	0.939
3856.5	0.938
3866.12	0.937
3875.74	0.934
3885.36	0.931
3894.97	0.929
3904.59	0.926
3914.21	0.926
3923.83	0.925
3933.45	0.922
3943.07	0.92
3952.69	0.918
3962.3	0.916
3971.92	0.916
3981.54	0.916
3991.16	0.916
4000.78	0.917
4010.4	0.918
