Infrared Spectrum: Benzensulfonic acid, 2,4,6-trinitro-, sodium salt
Formula: C6 H2 N3 Na O9 S
State: SOLID (SPLIT MULL), FLUOROLUBE FOR 3800-1330 CM^-^1, NUJOL FOR 1330-400 CM^-^1
Class: COBLENTZ III
Instrument: BECKMAN IR-9 (GRATING)
Instrument parameters: ORDER CHANGES: 670, 1200, 2000 CM^-^1
Sampling: TRANSMISSION
Resolution: 2
Origin: DOW CHEMICAL COMPANY
1/CM	TRANSMITTANCE
3796	0.8334
3787	0.8331
3778	0.8328
3769	0.833
3760	0.8338
3751	0.836
3742	0.8383
3733	0.8395
3724	0.8409
3715	0.839
3706	0.8341
3697	0.8339
3688	0.8337
3679	0.8334
3670	0.8328
3661	0.8321
3652	0.8316
3643	0.8309
3634	0.8296
3625	0.8281
3616	0.8185
3607	0.8201
3598	0.8258
3589	0.8124
3580	0.8092
3571	0.8302
3562	0.8306
3553	0.8307
3544	0.8309
3535	0.8312
3526	0.8315
3517	0.8317
3508	0.832
3499	0.8325
3490	0.8331
3481	0.8336
3472	0.8341
3463	0.8346
3454	0.8349
3445	0.8351
3436	0.8353
3427	0.8355
3418	0.8359
3409	0.8368
3400	0.8375
3391	0.8385
3382	0.8393
3373	0.8403
3364	0.8417
3355	0.843
3346	0.8443
3337	0.8456
3328	0.847
3319	0.8477
3310	0.8482
3301	0.8486
3292	0.8491
3283	0.8495
3274	0.85
3265	0.8504
3256	0.8509
3247	0.8513
3238	0.8518
3229	0.8521
3220	0.8521
3211	0.8521
3202	0.8523
3193	0.8524
3184	0.8527
3175	0.853
3166	0.8532
3157	0.8527
3148	0.852
3139	0.8504
3130	0.8483
3121	0.8448
3112	0.8377
3103	0.8028
3094	0.5279
3085	0.4956
3076	0.809
3067	0.8236
3058	0.8306
3049	0.8342
3040	0.8413
3031	0.8468
3022	0.8492
3013	0.8503
3004	0.8503
2995	0.8501
2986	0.8496
2977	0.849
2968	0.8483
2959	0.847
2950	0.8421
2941	0.8375
2932	0.8348
2923	0.8349
2914	0.8355
2905	0.8401
2896	0.8462
2887	0.8513
2878	0.8553
2869	0.856
2860	0.8574
2851	0.8618
2842	0.8645
2833	0.865
2824	0.8655
2815	0.8659
2806	0.8662
2797	0.8664
2788	0.8666
2779	0.8668
2770	0.8671
2761	0.8675
2752	0.8682
2743	0.8686
2734	0.8696
2725	0.8709
2716	0.8723
2707	0.8736
2698	0.8748
2689	0.8752
2680	0.8758
2671	0.8762
2662	0.8768
2653	0.8771
2644	0.8771
2635	0.8771
2626	0.8773
2617	0.8774
2608	0.8775
2599	0.8777
2590	0.878
2581	0.8783
2572	0.8786
2563	0.8788
2554	0.879
2545	0.8792
2536	0.8789
2527	0.8773
2518	0.8759
2509	0.8749
2500	0.8757
2491	0.8766
2482	0.8778
2473	0.8791
2464	0.8796
2455	0.8794
2446	0.8789
2437	0.8784
2428	0.8781
2419	0.8775
2410	0.8767
2401	0.8753
2392	0.8802
2383	0.8892
2374	0.888
2365	0.8856
2356	0.8809
2347	0.8773
2338	0.8754
2329	0.8737
2320	0.8727
2311	0.8717
2302	0.8707
2293	0.8715
2284	0.8728
2275	0.8742
2266	0.8765
2257	0.8787
2248	0.8809
2239	0.8825
2230	0.884
2221	0.8853
2212	0.8867
2203	0.888
2194	0.8894
2185	0.8899
2176	0.8904
2167	0.8908
2158	0.8913
2149	0.8917
2140	0.8923
2131	0.8928
2122	0.8935
2113	0.8941
2104	0.8948
2095	0.8954
2086	0.896
2077	0.8966
2068	0.8973
2059	0.8978
2050	0.8984
2041	0.8984
2032	0.8984
2023	0.8983
2014	0.898
2005	0.8977
1996	0.8978
1987	0.8993
1978	0.8985
1969	0.8974
1960	0.8964
1951	0.8964
1942	0.8965
1933	0.8957
1924	0.8948
1915	0.8938
1906	0.8925
1897	0.8915
1888	0.8907
1879	0.8905
1870	0.8907
1861	0.8903
1852	0.8863
1843	0.8718
1834	0.8656
1825	0.8789
1816	0.8894
1807	0.8903
1798	0.8909
1789	0.8907
1780	0.8902
1771	0.8896
1762	0.889
1753	0.8883
1744	0.8875
1735	0.8866
1726	0.8856
1717	0.8843
1708	0.883
1699	0.8821
1690	0.8805
1681	0.8784
1672	0.8757
1663	0.8709
1654	0.8642
1645	0.8578
1636	0.8562
1627	0.8487
1618	0.7975
1609	0.6865
1600	0.7869
1591	0.7783
1582	0.7156
1573	0.3545
1564	0.2116
1555	0.1446
1546	0.3376
1537	0.5476
1528	0.7497
1519	0.7832
1510	0.8092
1501	0.8271
1492	0.8401
1483	0.8481
1474	0.8521
1465	0.847
1456	0.8451
1447	0.8492
1438	0.8524
1429	0.8503
1420	0.8293
1411	0.798
1402	0.7867
1393	0.803
1384	0.7438
1375	0.6575
1366	0.1296
1357	0.2687
1348	0.6428
1339	0.7893
1330	0.8151
1321	0.8186
1312	0.8078
1303	0.7775
1294	0.6195
1285	0.3218
1276	0.4038
1267	0.7196
1258	0.7587
1249	0.621
1240	0.328
1231	0.5603
1222	0.7875
1213	0.8122
1204	0.8001
1195	0.8118
1186	0.8223
1177	0.8271
1168	0.8277
1159	0.8253
1150	0.8178
1141	0.7895
1132	0.5253
1123	0.77
1114	0.8187
1105	0.8139
1096	0.7846
1087	0.5109
1078	0.7601
1069	0.8048
1060	0.804
1051	0.7718
1042	0.5602
1033	0.8197
1024	0.8327
1015	0.842
1006	0.8477
997	0.8493
988	0.8504
979	0.8508
970	0.8509
961	0.8499
952	0.8455
943	0.8041
934	0.8251
925	0.7661
916	0.6778
907	0.8487
898	0.8523
889	0.856
880	0.8591
871	0.8614
862	0.8627
853	0.863
844	0.8613
835	0.8539
826	0.8591
817	0.8591
808	0.8578
799	0.8565
790	0.8555
781	0.8513
772	0.8394
763	0.7336
754	0.3884
745	0.8065
736	0.7611
727	0.4871
718	0.7168
709	0.8428
700	0.8452
691	0.8457
682	0.8424
673	0.827
664	0.7951
655	0.8108
646	0.4094
637	0.8111
628	0.8446
619	0.8484
610	0.8497
601	0.8499
592	0.8461
583	0.829
574	0.811
565	0.778
556	0.7765
547	0.8184
538	0.8362
529	0.8223
520	0.8012
511	0.8089
502	0.7991
493	0.7632
484	0.7561
475	0.7256
466	0.6377
457	0.6976
448	0.6542
439	0.6329
430	0.6236
421	0.5731
412	0.5707
403	0.5851
