Infrared Spectrum: 9H-Purine, 6-(ethylthio)-9-Beta-D-ribofuranosyl-, hydrate
Formula: C12 H16 N4 O4 S  * H2 O
State: SOLID (0.8 mg / 650 mg KBr DISC)
Class: COBLENTZ III
Instrument: PERKIN-ELMER 21 (GRATING)
Instrument parameters: FILTER CHANGE ABOUT 1090 CM^-^1
Sampling: TRANSMISSION
Resolution: 2
Origin: SOUTHERN RESEARCH INSTITUTE
1/CM	TRANSMITTANCE
602	0.539
611	0.5336
620	0.5206
629	0.4946
638	0.5381
647	0.579
656	0.6372
665	0.6465
674	0.6431
683	0.6461
692	0.6387
701	0.6044
710	0.6136
719	0.6191
728	0.5974
737	0.5821
746	0.5799
755	0.5939
764	0.6359
773	0.6458
782	0.6312
791	0.5246
800	0.617
809	0.5296
818	0.5456
827	0.5401
836	0.5038
845	0.5568
854	0.5091
863	0.4473
872	0.4564
881	0.534
890	0.5629
899	0.5368
908	0.5714
917	0.5857
926	0.569
935	0.3752
944	0.3924
953	0.4274
962	0.5668
971	0.5491
980	0.5156
989	0.5489
998	0.5448
1007	0.5119
1016	0.4025
1025	0.3502
1034	0.3175
1043	0.2858
1052	0.2899
1061	0.302
1070	0.2762
1079	0.2397
1088	0.2963
1097	0.3219
1106	0.2969
1115	0.2717
1124	0.2967
1133	0.3887
1142	0.4375
1151	0.4848
1160	0.5203
1169	0.4336
1178	0.4803
1187	0.4545
1196	0.2803
1205	0.2509
1214	0.2899
1223	0.3709
1232	0.4519
1241	0.4985
1250	0.5041
1259	0.5005
1268	0.5149
1277	0.5747
1286	0.5788
1295	0.5524
1304	0.4983
1313	0.4169
1322	0.3432
1331	0.2929
1340	0.36
1349	0.5287
1358	0.5448
1367	0.5221
1376	0.477
1385	0.4274
1394	0.4215
1403	0.4171
1412	0.3726
1421	0.3783
1430	0.3658
1439	0.3905
1448	0.491
1457	0.556
1466	0.5947
1475	0.5525
1484	0.5372
1493	0.6036
1502	0.6658
1511	0.666
1520	0.6361
1529	0.5905
1538	0.4255
1547	0.318
1556	0.1204
1565	0.1147
1574	0.1788
1583	0.3303
1592	0.4431
1601	0.5736
1610	0.5989
1619	0.6088
1628	0.6228
1637	0.6558
1646	0.6881
1655	0.7041
1664	0.7215
1673	0.7791
1682	0.7864
1691	0.7845
1700	0.7835
1709	0.7824
1718	0.7819
1727	0.7829
1736	0.7847
1745	0.7879
1754	0.7856
1763	0.7837
1772	0.7879
1781	0.7936
1790	0.7954
1799	0.7968
1808	0.7998
1817	0.8032
1826	0.8031
1835	0.7977
1844	0.7926
1853	0.7893
1862	0.7861
1871	0.7836
1880	0.7818
1889	0.7845
1898	0.784
1907	0.7763
1916	0.7804
1925	0.7835
1934	0.7815
1943	0.7795
1952	0.7777
1961	0.7758
1970	0.7756
1979	0.7745
1988	0.7729
1997	0.7713
2006	0.7696
2015	0.7674
2024	0.7651
2033	0.7623
2042	0.7594
2051	0.7572
2060	0.7551
2069	0.7535
2078	0.7521
2087	0.7507
2096	0.7498
2105	0.7552
2114	0.7516
2123	0.7449
2132	0.7431
2141	0.7411
2150	0.7393
2159	0.7376
2168	0.7365
2177	0.7368
2186	0.7381
2195	0.7334
2204	0.7298
2213	0.728
2222	0.7273
2231	0.726
2240	0.7251
2249	0.7242
2258	0.7233
2267	0.7221
2276	0.7201
2285	0.7182
2294	0.7167
2303	0.7168
2312	0.7124
2321	0.7083
2330	0.7054
2339	0.7026
2348	0.6973
2357	0.6913
2366	0.687
2375	0.6842
2384	0.6839
2393	0.6796
2402	0.674
2411	0.6704
2420	0.6751
2429	0.6747
2438	0.6656
2447	0.6627
2456	0.6612
2465	0.6556
2474	0.6488
2483	0.6367
2492	0.6333
2501	0.6317
2510	0.6297
2519	0.6269
2528	0.6241
2537	0.6213
2546	0.619
2555	0.6171
2564	0.6133
2573	0.6086
2582	0.6029
2591	0.5975
2600	0.5929
2609	0.5888
2618	0.579
2627	0.5756
2636	0.5715
2645	0.5675
2654	0.5635
2663	0.5588
2672	0.5539
2681	0.5493
2690	0.5447
2699	0.543
2708	0.5453
2717	0.5433
2726	0.5364
2735	0.5292
2744	0.522
2753	0.5158
2762	0.5098
2771	0.5019
2780	0.493
2789	0.4845
2798	0.477
2807	0.4698
2816	0.4527
2825	0.4392
2834	0.4305
2843	0.4252
2852	0.4226
2861	0.4233
2870	0.4189
2879	0.4096
2888	0.3877
2897	0.3732
2906	0.3741
2915	0.3905
2924	0.412
2933	0.4264
2942	0.4373
2951	0.4468
2960	0.4602
2969	0.4665
2978	0.4667
2987	0.4669
2996	0.4654
3005	0.4395
3014	0.424
3023	0.4119
3032	0.4043
3041	0.3989
3050	0.3883
3059	0.376
3068	0.3631
3077	0.3508
3086	0.3414
3095	0.3355
3104	0.3299
3113	0.3233
3122	0.317
3131	0.3154
3140	0.3072
3149	0.2911
3158	0.2805
3167	0.2734
3176	0.2696
3185	0.2654
3194	0.2611
3203	0.2568
3212	0.252
3221	0.2472
3230	0.243
3239	0.2389
3248	0.2345
3257	0.2297
3266	0.2262
3275	0.2234
3284	0.2235
3293	0.2209
3302	0.2227
3311	0.2148
3320	0.2107
3329	0.2068
3338	0.2055
3347	0.2047
3356	0.2031
3365	0.2023
3374	0.2033
3383	0.2052
3392	0.2076
3401	0.2128
3410	0.2283
3419	0.237
3428	0.2369
3437	0.264
3446	0.2813
3455	0.3006
3464	0.32
3473	0.3395
3482	0.359
3491	0.3819
3500	0.4021
3509	0.4263
3518	0.4461
3527	0.4692
3536	0.4805
3545	0.495
3554	0.5338
3563	0.5614
3572	0.5919
3581	0.618
3590	0.6393
3599	0.658
3608	0.671
3617	0.6799
3626	0.6893
3635	0.6992
3644	0.7066
3653	0.7116
3662	0.7164
3671	0.7208
3680	0.7225
3689	0.7234
3698	0.7237
3707	0.7205
3716	0.7128
3725	0.7034
3734	0.7017
3743	0.7099
3752	0.7159
3761	0.716
3770	0.7192
3779	0.7125
3788	0.7089
3797	0.702
3806	0.6956
3815	0.6934
3824	0.6949
3833	0.6983
3842	0.6982
3851	0.6976
3860	0.6998
3869	0.701
3878	0.7008
3887	0.6983
3896	0.694
3905	0.69
3914	0.6863
3923	0.6881
3932	0.685
3941	0.6832
3950	0.68
3959	0.6771
3968	0.6799
3977	0.681
3986	0.6769
3995	0.6748
