Infrared Spectrum: SODIUM PHOSPHATE DIBASIC HEPTAHYDRATE
Formula: Na2 H P O4  * 7 H2 O
State: SOLID (MINERAL OIL MULL)
Class: COBLENTZ
Instrument: Not specified, most likely a prism, grating, or hybrid spectrometer.
Sampling: TRANSMISSION
Resolution: 4
Origin: DOW CHEMICAL COMPANY
MICROMETERS	TRANSMITTANCE
2.041	0.965
2.08214	0.967
2.12327	0.977
2.16441	0.982
2.20554	0.975
2.24668	0.962
2.28781	0.943
2.32895	0.945
2.37009	0.95
2.41122	0.958
2.45236	0.96
2.49349	0.981
2.53463	0.987
2.57576	0.993
2.6169	1
2.65804	1
2.69917	1
2.74031	1
2.78144	0.996
2.82258	0.991
2.86371	0.962
2.90485	0.946
2.94599	0.936
2.98712	0.933
3.02826	0.931
3.06939	0.914
3.11053	0.897
3.15166	0.881
3.1928	0.855
3.23394	0.828
3.27507	0.795
3.31621	0.704
3.35734	0.411
3.39848	0.101
3.43962	0.061
3.48075	0.101
3.52189	0.168
3.56302	0.547
3.60416	0.665
3.64529	0.703
3.68643	0.703
3.72757	0.701
3.7687	0.684
3.80984	0.648
3.85097	0.62
3.89211	0.605
3.93324	0.591
3.97438	0.591
4.01552	0.555
4.05665	0.54
4.09779	0.536
4.13892	0.535
4.18006	0.54
4.22119	0.548
4.26233	0.559
4.30347	0.571
4.3446	0.593
4.38574	0.61
4.42687	0.626
4.46801	0.636
4.50914	0.65
4.55028	0.662
4.59142	0.684
4.63255	0.699
4.67369	0.708
4.71482	0.723
4.75596	0.739
4.79709	0.746
4.83823	0.746
4.87937	0.74
4.9205	0.737
4.96164	0.734
5.00277	0.728
5.04391	0.716
5.08504	0.699
5.12618	0.692
5.16732	0.675
5.20845	0.658
5.24959	0.638
5.29072	0.622
5.33186	0.615
5.37299	0.595
5.41413	0.569
5.45527	0.554
5.4964	0.545
5.53754	0.538
5.57867	0.536
5.61981	0.533
5.66095	0.545
5.70208	0.552
5.74322	0.564
5.78435	0.578
5.82549	0.586
5.86662	0.596
5.90776	0.61
5.9489	0.638
5.99003	0.653
6.03117	0.675
6.0723	0.679
6.11344	0.692
6.15457	0.706
6.19571	0.725
6.23685	0.735
6.27798	0.739
6.31912	0.742
6.36025	0.746
6.40139	0.749
6.44252	0.749
6.48366	0.749
6.5248	0.751
6.56593	0.753
6.60707	0.753
6.6482	0.747
6.68934	0.73
6.73047	0.68
6.77161	0.548
6.81275	0.358
6.85388	0.279
6.89502	0.331
6.93615	0.471
6.97729	0.608
7.01842	0.65
7.05956	0.638
7.1007	0.59
7.14183	0.533
7.18297	0.487
7.2241	0.396
7.26524	0.322
7.30637	0.368
7.34751	0.399
7.38865	0.439
7.42978	0.5
7.47092	0.59
7.51205	0.655
7.55319	0.699
7.59432	0.689
7.63546	0.713
7.6766	0.727
7.71773	0.744
7.75887	0.753
7.8	0.758
7.84114	0.761
7.88227	0.765
7.92341	0.763
7.96455	0.758
8.00568	0.751
8.04682	0.74
8.08795	0.728
8.12909	0.708
8.17023	0.686
8.21136	0.66
8.2525	0.62
8.29363	0.571
8.33477	0.509
8.3759	0.432
8.41704	0.344
8.45818	0.272
8.49931	0.205
8.54045	0.157
8.58158	0.138
8.62272	0.125
8.66385	0.125
8.70499	0.133
8.74613	0.154
8.78726	0.188
8.8284	0.226
8.86953	0.269
8.91067	0.3
8.9518	0.312
8.99294	0.31
9.03408	0.295
9.07521	0.262
9.11635	0.234
9.15748	0.202
9.19862	0.178
9.23975	0.147
9.28089	0.125
9.32203	0.121
9.36316	0.121
9.4043	0.126
9.44543	0.144
9.48657	0.156
9.5277	0.186
9.56884	0.216
9.60998	0.238
9.65111	0.279
9.69225	0.319
9.73338	0.353
9.77452	0.384
9.81565	0.409
9.85679	0.428
9.89793	0.439
9.93906	0.444
9.9802	0.435
10.0213	0.404
10.0625	0.373
10.1036	0.363
10.1447	0.346
10.1859	0.327
10.227	0.301
10.2681	0.271
10.3093	0.248
10.3504	0.226
10.3916	0.209
10.4327	0.198
10.4738	0.18
10.515	0.173
10.5561	0.173
10.5972	0.173
10.6384	0.19
10.6795	0.212
10.7206	0.233
10.7618	0.271
10.8029	0.312
10.844	0.367
10.8852	0.404
10.9263	0.445
10.9675	0.485
11.0086	0.523
11.0497	0.55
11.0909	0.572
11.132	0.586
11.1731	0.591
11.2143	0.593
11.2554	0.572
11.2965	0.536
11.3377	0.469
11.3788	0.411
11.4199	0.334
11.4611	0.255
11.5022	0.197
11.5434	0.159
11.5845	0.128
11.6256	0.114
11.6668	0.113
11.7079	0.13
11.749	0.154
11.7902	0.193
11.8313	0.234
11.8724	0.272
11.9136	0.315
11.9547	0.36
11.9958	0.397
12.037	0.421
12.0781	0.449
12.1193	0.471
12.1604	0.488
12.2015	0.507
12.2427	0.523
12.2838	0.542
12.3249	0.557
12.3661	0.569
12.4072	0.584
12.4483	0.593
12.4895	0.602
12.5306	0.615
12.5717	0.626
12.6129	0.636
12.654	0.643
12.6952	0.65
12.7363	0.651
12.7774	0.66
12.8186	0.663
12.8597	0.668
12.9008	0.668
12.942	0.675
12.9831	0.679
13.0242	0.684
13.0654	0.687
13.1065	0.691
13.1476	0.691
13.1888	0.692
13.2299	0.694
13.2711	0.698
13.3122	0.699
13.3533	0.699
13.3945	0.699
13.4356	0.699
13.4767	0.698
13.5179	0.696
13.559	0.691
13.6001	0.687
13.6413	0.687
13.6824	0.682
13.7235	0.68
13.7647	0.674
13.8058	0.667
13.847	0.667
13.8881	0.674
13.9292	0.68
13.9704	0.692
14.0115	0.698
14.0526	0.699
14.0938	0.701
14.1349	0.704
14.176	0.704
14.2172	0.699
14.2583	0.696
14.2995	0.692
14.3406	0.691
14.3817	0.689
14.4229	0.689
14.464	0.689
14.5051	0.689
14.5463	0.682
14.5874	0.679
14.6285	0.674
14.6697	0.667
14.7108	0.665
14.7519	0.66
14.7931	0.658
14.8342	0.656
14.8754	0.65
14.9165	0.646
14.9576	0.639
14.9988	0.632
15.0399	0.626
15.081	0.62
15.1222	0.62
15.1633	0.617
15.2044	0.608
15.2456	0.603
15.2867	0.596
15.3278	0.59
15.369	0.583
15.4101	0.579
15.4513	0.574
15.4924	0.567
15.5335	0.566
15.5747	0.56
15.6158	0.555
15.6569	0.554
15.6981	0.552
15.7392	0.55
15.7803	0.547
15.8215	0.545
15.8626	0.545
15.9037	0.547
