Infrared Spectrum: MORPHINE, HYDROCHLORIDE (TRIHYDRATE)
Formula: C17 H20 Cl N O3  * 3 H2 O
State: SOLID (1.2 mg / 250 mg KBr DISC)
Melting point: ABOUT 200 C DECOMP.
Class: COBLENTZ III
Instrument: PERKIN-ELMER 21 (GRATING)
Instrument parameters: FILTER AT ABOUT 10 MICRONS
Sampling: TRANSMISSION
Resolution: 2
Origin: BUREAU OF CUSTOMS
1/CM	TRANSMITTANCE
4000	0.9625
3991	0.9628
3982	0.9632
3973	0.9636
3964	0.964
3955	0.9644
3946	0.9647
3937	0.9651
3928	0.9655
3919	0.9659
3910	0.9664
3901	0.9668
3892	0.9674
3883	0.9678
3874	0.9684
3865	0.9689
3856	0.9694
3847	0.9699
3838	0.9702
3829	0.9705
3820	0.9708
3811	0.9711
3802	0.971
3793	0.9706
3784	0.9702
3775	0.9689
3766	0.9664
3757	0.9639
3748	0.96
3739	0.9528
3730	0.9456
3721	0.937
3712	0.9264
3703	0.9157
3694	0.9028
3685	0.8871
3676	0.86
3667	0.8038
3658	0.7645
3649	0.7375
3640	0.7108
3631	0.6834
3622	0.6419
3613	0.6276
3604	0.6158
3595	0.6035
3586	0.5832
3577	0.5405
3568	0.4974
3559	0.4542
3550	0.4107
3541	0.3671
3532	0.3232
3523	0.2905
3514	0.2798
3505	0.2527
3496	0.2366
3487	0.2269
3478	0.2172
3469	0.2065
3460	0.196
3451	0.1875
3442	0.1791
3433	0.17
3424	0.1599
3415	0.1548
3406	0.1517
3397	0.1514
3388	0.1524
3379	0.1552
3370	0.1607
3361	0.1666
3352	0.176
3343	0.1857
3334	0.1957
3325	0.2048
3316	0.2125
3307	0.2204
3298	0.226
3289	0.2299
3280	0.2334
3271	0.2367
3262	0.2398
3253	0.2441
3244	0.2504
3235	0.2567
3226	0.2652
3217	0.2744
3208	0.2838
3199	0.2951
3190	0.3069
3181	0.3187
3172	0.3321
3163	0.3457
3154	0.36
3145	0.3749
3136	0.389
3127	0.3962
3118	0.4012
3109	0.4034
3100	0.4024
3091	0.395
3082	0.3816
3073	0.3736
3064	0.3726
3055	0.3909
3046	0.4193
3037	0.4365
3028	0.4493
3019	0.4593
3010	0.4635
3001	0.4631
2992	0.4512
2983	0.4258
2974	0.3978
2965	0.3947
2956	0.4022
2947	0.4279
2938	0.4523
2929	0.4729
2920	0.4884
2911	0.505
2902	0.5248
2893	0.5293
2884	0.5273
2875	0.517
2866	0.5078
2857	0.5036
2848	0.5028
2839	0.5038
2830	0.4981
2821	0.4831
2812	0.4646
2803	0.4426
2794	0.4182
2785	0.4103
2776	0.4091
2767	0.4144
2758	0.4205
2749	0.4262
2740	0.4321
2731	0.4379
2722	0.4437
2713	0.4494
2704	0.4542
2695	0.4579
2686	0.4618
2677	0.4653
2668	0.4687
2659	0.4736
2650	0.4824
2641	0.5175
2632	0.5448
2623	0.5644
2614	0.5773
2605	0.5881
2596	0.5993
2587	0.6109
2578	0.6218
2569	0.6325
2560	0.6438
2551	0.6564
2542	0.6717
2533	0.6978
2524	0.7186
2515	0.7324
2506	0.7464
2497	0.7658
2488	0.7911
2479	0.8111
2470	0.8233
2461	0.8336
2452	0.8431
2443	0.8512
2434	0.8571
2425	0.8639
2416	0.8758
2407	0.8827
2398	0.884
2389	0.8795
2380	0.8721
2371	0.8741
2362	0.8798
2353	0.888
2344	0.8964
2335	0.9043
2326	0.9123
2317	0.9201
2308	0.928
2299	0.9325
2290	0.9357
2281	0.9391
2272	0.9409
2263	0.9425
2254	0.9444
2245	0.9458
2236	0.9466
2227	0.9473
2218	0.9481
2209	0.9481
2200	0.9482
2191	0.9482
2182	0.9483
2173	0.9467
2164	0.9448
2155	0.943
2146	0.937
2137	0.9318
2128	0.9271
2119	0.9246
2110	0.9234
2101	0.923
2092	0.9241
2083	0.9253
2074	0.9284
2065	0.9313
2056	0.9347
2047	0.9383
2038	0.9418
2029	0.9452
2020	0.9484
2011	0.9516
2002	0.9548
1993	0.957
1984	0.9593
1975	0.9616
1966	0.9635
1957	0.9654
1948	0.9673
1939	0.9687
1930	0.969
1921	0.9693
1912	0.9696
1903	0.97
1894	0.9691
1885	0.9668
1876	0.9643
1867	0.9602
1858	0.9551
1849	0.9564
1840	0.958
1831	0.9567
1822	0.9553
1813	0.9562
1804	0.9503
1795	0.9478
1786	0.9454
1777	0.9428
1768	0.9404
1759	0.9371
1750	0.9328
1741	0.9277
1732	0.9215
1723	0.9134
1714	0.9018
1705	0.8848
1696	0.8549
1687	0.8125
1678	0.7508
1669	0.6186
1660	0.4764
1651	0.5123
1642	0.5606
1633	0.5405
1624	0.6326
1615	0.7593
1606	0.8285
1597	0.8539
1588	0.8727
1579	0.8801
1570	0.8794
1561	0.876
1552	0.8662
1543	0.7757
1534	0.7135
1525	0.4753
1516	0.2539
1507	0.4487
1498	0.5966
1489	0.4114
1480	0.3768
1471	0.4636
1462	0.477
1453	0.546
1444	0.5669
1435	0.543
1426	0.5032
1417	0.4943
1408	0.5677
1399	0.6188
1390	0.5879
1381	0.5914
1372	0.5295
1363	0.5978
1354	0.5241
1345	0.5962
1336	0.5834
1327	0.3403
1318	0.3521
1309	0.501
1300	0.6291
1291	0.5753
1282	0.526
1273	0.6562
1264	0.6621
1255	0.5777
1246	0.6326
1237	0.5959
1228	0.6339
1219	0.7498
1210	0.7381
1201	0.7264
1192	0.6988
1183	0.5039
1174	0.6807
1165	0.5891
1156	0.6353
1147	0.7436
1138	0.6031
1129	0.4169
1120	0.4122
1111	0.6868
1102	0.7422
1093	0.6192
1084	0.4266
1075	0.295
1066	0.4371
1057	0.7154
1048	0.7562
1039	0.6994
1030	0.6448
1021	0.4312
1012	0.7917
1003	0.8431
994	0.8318
985	0.6382
976	0.5155
967	0.5641
958	0.5102
949	0.6264
940	0.5835
931	0.6528
922	0.7674
913	0.8438
904	0.8618
895	0.8532
886	0.8458
877	0.7611
868	0.7707
859	0.8336
850	0.7978
841	0.431
832	0.7499
823	0.7312
814	0.7635
805	0.6168
796	0.5486
787	0.3816
778	0.6919
769	0.7134
760	0.6069
751	0.7147
742	0.744
733	0.7507
724	0.6837
715	0.6806
706	0.546
697	0.6511
688	0.6528
679	0.6187
670	0.5671
661	0.5854
652	0.5894
