Infrared Spectrum: Coumarin, 6,7-bis(2-diethylaminoethoxy)-4-methyl-, dihydrochloride
Formula: C22 H36 Cl2 N2 O4
State: SOLID (KBr DISC)
Class: COBLENTZ
Instrument: PERKIN-ELMER 21 (GRATING)
Instrument parameters: NaCl PRISM
Sampling: TRANSMISSION
Resolution: 2
Origin: SMITH KLINE & FRENCH LABS.
1/CM	TRANSMITTANCE
660	0.8502
669	0.873
678	0.8657
687	0.828
696	0.8812
705	0.8493
714	0.8839
723	0.8904
732	0.8767
741	0.7435
750	0.8846
759	0.8788
768	0.8832
777	0.8883
786	0.8262
795	0.7571
804	0.757
813	0.7719
822	0.5861
831	0.5316
840	0.5931
849	0.6108
858	0.4707
867	0.599
876	0.7369
885	0.8187
894	0.807
903	0.7093
912	0.769
921	0.8033
930	0.7556
939	0.5544
948	0.4046
957	0.4911
966	0.7648
975	0.7712
984	0.7129
993	0.6856
1002	0.5458
1011	0.3161
1020	0.2805
1029	0.2539
1038	0.383
1047	0.5129
1056	0.3318
1065	0.3001
1074	0.3568
1083	0.6557
1092	0.8065
1101	0.8167
1110	0.8029
1119	0.7501
1128	0.6901
1137	0.5879
1146	0.4369
1155	0.2449
1164	0.2678
1173	0.2077
1182	0.3623
1191	0.6689
1200	0.6578
1209	0.4918
1218	0.3483
1227	0.2752
1236	0.207
1245	0.435
1254	0.5101
1263	0.3603
1272	0.137
1281	0.2175
1290	0.4872
1299	0.6118
1308	0.7047
1317	0.6921
1326	0.6643
1335	0.5601
1344	0.4682
1353	0.4885
1362	0.3187
1371	0.2793
1380	0.2553
1389	0.187
1398	0.2844
1407	0.3211
1416	0.2676
1425	0.1303
1434	0.1721
1443	0.2599
1452	0.2921
1461	0.2837
1470	0.3068
1479	0.3981
1488	0.6252
1497	0.5739
1506	0.2797
1515	0.3699
1524	0.5225
1533	0.5963
1542	0.5637
1551	0.334
1560	0.2204
1569	0.4085
1578	0.6148
1587	0.6022
1596	0.4765
1605	0.2642
1614	0.2772
1623	0.451
1632	0.512
1641	0.4529
1650	0.3783
1659	0.291
1668	0.2474
1677	0.1587
1686	0.0877
1695	0.0896
1704	0.0948
1713	0.1672
1722	0.2337
1731	0.3832
1740	0.5021
1749	0.6377
1758	0.6855
1767	0.7578
1776	0.7907
1785	0.7976
1794	0.8291
1803	0.8383
1812	0.8439
1821	0.8426
1830	0.858
1839	0.8608
1848	0.8603
1857	0.8596
1866	0.8598
1875	0.8686
1884	0.8611
1893	0.8525
1902	0.8523
1911	0.8556
1920	0.845
1929	0.8389
1938	0.8357
1947	0.8291
1956	0.8244
1965	0.8264
1974	0.8273
1983	0.8201
1992	0.8105
2001	0.8047
2010	0.8051
2019	0.8037
2028	0.7996
2037	0.7933
2046	0.7818
2055	0.7809
2064	0.7756
2073	0.7697
2082	0.7644
2091	0.7592
2100	0.7542
2109	0.7506
2118	0.7472
2127	0.7452
2136	0.7432
2145	0.7417
2154	0.7393
2163	0.7314
2172	0.7216
2181	0.7139
2190	0.7073
2199	0.6944
2208	0.6701
2217	0.6482
2226	0.6345
2235	0.6342
2244	0.6306
2253	0.6065
2262	0.589
2271	0.5679
2280	0.5431
2289	0.5062
2298	0.4439
2307	0.4193
2316	0.4066
2325	0.4085
2334	0.3885
2343	0.3756
2352	0.3718
2361	0.3443
2370	0.3087
2379	0.2881
2388	0.2781
2397	0.2675
2406	0.2544
2415	0.2379
2424	0.2227
2433	0.208
2442	0.2042
2451	0.2045
2460	0.2127
2469	0.2148
2478	0.2171
2487	0.2288
2496	0.2317
2505	0.2302
2514	0.2245
2523	0.2167
2532	0.2088
2541	0.2073
2550	0.211
2559	0.2177
2568	0.2201
2577	0.22
2586	0.2251
2595	0.2307
2604	0.2345
2613	0.2383
2622	0.2427
2631	0.2505
2640	0.2584
2649	0.2657
2658	0.2733
2667	0.2834
2676	0.3103
2685	0.3425
2694	0.3459
2703	0.3466
2712	0.354
2721	0.3701
2730	0.389
2739	0.3973
2748	0.3945
2757	0.3907
2766	0.3897
2775	0.3864
2784	0.3713
2793	0.3515
2802	0.3464
2811	0.3389
2820	0.3206
2829	0.3022
2838	0.286
2847	0.2803
2856	0.2754
2865	0.2695
2874	0.27
2883	0.2714
2892	0.2745
2901	0.2949
2910	0.3191
2919	0.343
2928	0.3665
2937	0.3825
2946	0.4201
2955	0.4371
2964	0.4427
2973	0.4438
2982	0.443
2991	0.4408
3000	0.4406
3009	0.4465
3018	0.4473
3027	0.447
3036	0.4511
3045	0.4591
3054	0.4609
3063	0.4592
3072	0.4554
3081	0.4512
3090	0.4425
3099	0.4323
3108	0.4243
3117	0.4164
3126	0.4068
3135	0.3948
3144	0.3897
3153	0.3823
3162	0.359
3171	0.3473
3180	0.336
3189	0.3248
3198	0.3162
3207	0.3121
3216	0.3099
3225	0.3004
3234	0.283
3243	0.2659
3252	0.2488
3261	0.2387
3270	0.2363
3279	0.2351
3288	0.234
3297	0.233
3306	0.232
3315	0.2299
3324	0.2263
3333	0.2201
3342	0.2154
3351	0.2129
3360	0.2128
3369	0.2227
3378	0.2406
3387	0.2433
3396	0.2461
3405	0.2516
3414	0.2621
3423	0.2729
3432	0.2934
3441	0.3211
3450	0.3345
3459	0.3505
3468	0.359
3477	0.3672
3486	0.3752
3495	0.3842
3504	0.3938
3513	0.4012
3522	0.4077
3531	0.4136
3540	0.4367
3549	0.4552
3558	0.4697
3567	0.4796
3576	0.4873
3585	0.4905
3594	0.4912
3603	0.4911
3612	0.4907
3621	0.491
3630	0.4937
3639	0.4976
3648	0.5017
3657	0.5057
3666	0.5087
3675	0.5104
3684	0.5105
3693	0.5101
3702	0.5097
3711	0.5086
3720	0.507
3729	0.5051
3738	0.5025
3747	0.4996
3756	0.4966
3765	0.494
3774	0.4928
3783	0.4918
3792	0.4911
3801	0.491
3810	0.4911
3819	0.4914
3828	0.4915
3837	0.4918
3846	0.4919
3855	0.4925
3864	0.4933
3873	0.4937
3882	0.4938
3891	0.4934
3900	0.493
3909	0.4926
3918	0.4925
3927	0.4949
3936	0.4976
3945	0.5
3954	0.5026
3963	0.5053
3972	0.5075
3981	0.5088
3990	0.507
3999	0.5048
