Infrared Spectrum: HEPTANE NITRILE
Formula: C7 H12 N
State: LIQUID
Boiling point: 182-184 C
Class: COBLENTZ
Instrument: Not specified, most likely a prism, grating, or hybrid spectrometer.
Sampling: TRANSMISSION
Path length: 0.003 CM
Resolution: 4
Origin: WYANDOTTE CHEMICALS CORP., WYANDOTTE, MICHIGAN, USA
MICROMETERS	TRANSMITTANCE
2.089	0.983
2.12894	0.981
2.16888	0.965
2.20883	0.918
2.24877	0.928
2.28871	0.935
2.32865	0.938
2.36859	0.935
2.40853	0.938
2.44848	0.951
2.48842	0.96
2.52836	0.968
2.5683	0.97
2.60824	0.978
2.64818	0.971
2.68813	0.965
2.72807	0.958
2.76801	0.953
2.80795	0.953
2.84789	0.956
2.88783	0.965
2.92778	0.975
2.96772	0.973
3.00766	0.973
3.0476	0.97
3.08754	0.955
3.12748	0.93
3.16743	0.916
3.20737	0.911
3.24731	0.881
3.28725	0.782
3.32719	0.386
3.36713	0
3.40708	0.044
3.44702	0.169
3.48696	0.069
3.5269	0.59
3.56684	0.805
3.60678	0.87
3.64673	0.885
3.68667	0.886
3.72661	0.901
3.76655	0.905
3.80649	0.913
3.84643	0.925
3.88638	0.931
3.92632	0.933
3.96626	0.955
4.0062	0.956
4.04614	0.955
4.08608	0.953
4.12603	0.948
4.16597	0.95
4.20591	0.946
4.24585	0.955
4.28579	0.965
4.32573	0.966
4.36568	0.955
4.40562	0.933
4.44556	0.895
4.4855	0.702
4.52544	0.449
4.56538	0.926
4.60533	0.943
4.64527	0.951
4.68521	0.953
4.72515	0.956
4.76509	0.96
4.80503	0.97
4.84498	0.973
4.88492	0.965
4.92486	0.968
4.9648	0.968
5.00474	0.968
5.04468	0.965
5.08463	0.96
5.12457	0.965
5.16451	0.97
5.20445	0.97
5.24439	0.971
5.28433	0.971
5.32428	0.971
5.36422	0.971
5.40416	0.96
5.4441	0.96
5.48404	0.96
5.52398	0.958
5.56393	0.96
5.60387	0.96
5.64381	0.96
5.68375	0.958
5.72369	0.956
5.76363	0.953
5.80358	0.95
5.84352	0.948
5.88346	0.946
5.9234	0.943
5.96334	0.938
6.00328	0.936
6.04323	0.935
6.08317	0.928
6.12311	0.925
6.16305	0.925
6.20299	0.933
6.24293	0.933
6.28288	0.931
6.32282	0.928
6.36276	0.926
6.4027	0.925
6.44264	0.921
6.48258	0.916
6.52253	0.91
6.56247	0.893
6.60241	0.871
6.64235	0.845
6.68229	0.793
6.72223	0.567
6.76218	0.247
6.80212	0.236
6.84206	0.361
6.882	0.517
6.92194	0.515
6.96188	0.336
7.00183	0.613
7.04177	0.765
7.08171	0.801
7.12165	0.821
7.16159	0.767
7.20153	0.663
7.24148	0.612
7.28142	0.772
7.32136	0.78
7.3613	0.765
7.40124	0.773
7.44118	0.8
7.48113	0.767
7.52107	0.785
7.56101	0.825
7.60095	0.816
7.64089	0.813
7.68083	0.833
7.72078	0.863
7.76072	0.86
7.80066	0.85
7.8406	0.855
7.88054	0.85
7.92048	0.856
7.96043	0.865
8.00037	0.883
8.04031	0.888
8.08025	0.896
8.12019	0.881
8.16013	0.861
8.20008	0.851
8.24002	0.873
8.27996	0.888
8.3199	0.891
8.35984	0.89
8.39978	0.89
8.43973	0.895
8.47967	0.9
8.51961	0.911
8.55955	0.925
8.59949	0.925
8.63943	0.931
8.67938	0.935
8.71932	0.935
8.75926	0.935
8.7992	0.923
8.83914	0.901
8.87908	0.848
8.91903	0.798
8.95897	0.811
8.99891	0.863
9.03885	0.891
9.07879	0.898
9.11873	0.901
9.15868	0.898
9.19862	0.896
9.23856	0.89
9.2785	0.891
9.31844	0.898
9.35838	0.898
9.39833	0.878
9.43827	0.863
9.47821	0.865
9.51815	0.878
9.55809	0.893
9.59803	0.903
9.63798	0.905
9.67792	0.903
9.71786	0.905
9.7578	0.905
9.79774	0.906
9.83768	0.9
9.87763	0.898
9.91757	0.893
9.95751	0.886
9.99745	0.883
10.0374	0.888
10.0773	0.893
10.1173	0.893
10.1572	0.893
10.1972	0.893
10.2371	0.898
10.277	0.9
10.317	0.908
10.3569	0.916
10.3969	0.918
10.4368	0.925
10.4768	0.923
10.5167	0.915
10.5566	0.906
10.5966	0.898
10.6365	0.886
10.6765	0.895
10.7164	0.903
10.7563	0.91
10.7963	0.91
10.8362	0.906
10.8762	0.891
10.9161	0.888
10.9561	0.893
10.996	0.881
11.0359	0.881
11.0759	0.883
11.1158	0.878
11.1558	0.855
11.1957	0.831
11.2356	0.818
11.2756	0.805
11.3155	0.792
11.3555	0.826
11.3954	0.845
11.4354	0.851
11.4753	0.856
11.5152	0.866
11.5552	0.873
11.5951	0.873
11.6351	0.873
11.675	0.875
11.7149	0.873
11.7549	0.865
11.7948	0.851
11.8348	0.838
11.8747	0.833
11.9147	0.83
11.9546	0.84
11.9945	0.855
12.0345	0.87
12.0744	0.875
12.1144	0.871
12.1543	0.871
12.1942	0.871
12.2342	0.865
12.2741	0.856
12.3141	0.848
12.354	0.84
12.394	0.838
12.4339	0.833
12.4738	0.828
12.5138	0.81
12.5537	0.803
12.5937	0.803
12.6336	0.8
12.6735	0.793
12.7135	0.792
12.7534	0.792
12.7934	0.792
12.8333	0.792
12.8733	0.795
12.9132	0.8
12.9531	0.8
12.9931	0.798
13.033	0.797
13.073	0.797
13.1129	0.797
13.1528	0.797
13.1928	0.795
13.2327	0.795
13.2727	0.797
13.3126	0.797
13.3526	0.797
13.3925	0.798
13.4324	0.795
13.4724	0.795
13.5123	0.793
13.5523	0.79
13.5922	0.772
13.6321	0.745
13.6721	0.72
13.712	0.672
13.752	0.637
13.7919	0.61
13.8319	0.633
13.8718	0.693
13.9117	0.752
13.9517	0.793
13.9916	0.825
14.0316	0.841
14.0715	0.86
14.1114	0.871
14.1514	0.883
14.1913	0.891
14.2313	0.896
14.2712	0.9
14.3112	0.906
14.3511	0.908
14.391	0.911
14.431	0.913
14.4709	0.916
14.5109	0.916
14.5508	0.915
14.5907	0.913
14.6307	0.915
14.6706	0.915
14.7106	0.913
14.7505	0.91
14.7905	0.915
14.8304	0.915
14.8703	0.911
14.9103	0.911
14.9502	0.91
14.9902	0.905
15.0301	0.883
15.07	0.888
15.11	0.898
15.1499	0.905
15.1899	0.906
15.2298	0.905
15.2698	0.903
15.3097	0.896
15.3496	0.893
15.3896	0.891
15.4295	0.89
15.4695	0.89
15.5094	0.886
15.5493	0.885
15.5893	0.881
15.6292	0.878
15.6692	0.876
15.7091	0.873
15.7491	0.871
15.789	0.875
15.8289	0.873
15.8689	0.865
15.9088	0.86
15.9488	0.856
15.9887	0.858
16.0286	0.855
