Infrared Spectrum: 3-Penten-2-ol (trans)
Formula: C5 H10 O
State: SOLUTION (10% CCl4 FOR 3800-1330, 10% CS2 FOR 1330-400 CM^-^1)
Class: COBLENTZ III
Instrument: DOW KBr FOREPRISM-GRATING
Instrument parameters: BLAZED AT 3.5, 12.0, 20.0 MICRON AND CHANGED AT 5.0, 7.5, 14.9 MICRON
Sampling: TRANSMISSION
Path length: 0.011 CM, 0.011 CM
Resolution: 2
Origin: DOW CHEMICAL COMPANY
1/CM	TRANSMITTANCE
3800	0.8986
3791	0.8992
3782	0.8983
3773	0.8996
3764	0.9002
3755	0.9009
3746	0.9022
3737	0.9045
3728	0.9052
3719	0.9047
3710	0.9058
3701	0.9058
3692	0.9028
3683	0.8968
3674	0.8893
3665	0.8725
3656	0.8563
3647	0.8589
3638	0.8641
3629	0.8653
3620	0.8332
3611	0.7361
3602	0.5474
3593	0.5803
3584	0.6488
3575	0.7167
3566	0.7548
3557	0.7552
3548	0.7427
3539	0.7126
3530	0.685
3521	0.6503
3512	0.6099
3503	0.5508
3494	0.4825
3485	0.441
3476	0.4098
3467	0.3799
3458	0.3612
3449	0.3447
3440	0.327
3431	0.3107
3422	0.2965
3413	0.2854
3404	0.2755
3395	0.2668
3386	0.2593
3377	0.2517
3368	0.2453
3359	0.2403
3350	0.2371
3341	0.2356
3332	0.2361
3323	0.2407
3314	0.2517
3305	0.2671
3296	0.2827
3287	0.2993
3278	0.3205
3269	0.3475
3260	0.377
3251	0.4089
3242	0.4448
3233	0.4772
3224	0.508
3215	0.5401
3206	0.5777
3197	0.6076
3188	0.6333
3179	0.6544
3170	0.6719
3161	0.6896
3152	0.7055
3143	0.7204
3134	0.7389
3125	0.7551
3116	0.7692
3107	0.7833
3098	0.7934
3089	0.7982
3080	0.7975
3071	0.7993
3062	0.7941
3053	0.7762
3044	0.7472
3035	0.6758
3026	0.5537
3017	0.5383
3008	0.5325
2999	0.5069
2990	0.4365
2981	0.306
2972	0.1558
2963	0.0993
2954	0.2204
2945	0.3492
2936	0.3133
2927	0.2537
2918	0.236
2909	0.2385
2900	0.3257
2891	0.3931
2882	0.3701
2873	0.2982
2864	0.3054
2855	0.3175
2846	0.379
2837	0.5369
2828	0.5959
2819	0.6682
2810	0.7096
2801	0.7568
2792	0.7877
2783	0.8116
2774	0.83
2765	0.843
2756	0.8513
2747	0.857
2738	0.86
2729	0.8466
2720	0.8266
2711	0.8419
2702	0.8537
2693	0.8625
2684	0.8695
2675	0.8742
2666	0.8777
2657	0.88
2648	0.8807
2639	0.8811
2630	0.882
2621	0.8837
2612	0.8856
2603	0.8875
2594	0.8895
2585	0.8915
2576	0.8937
2567	0.8959
2558	0.8983
2549	0.9006
2540	0.9027
2531	0.9048
2522	0.9072
2513	0.9094
2504	0.9115
2495	0.9109
2486	0.9092
2477	0.9088
2468	0.909
2459	0.9099
2450	0.9109
2441	0.9122
2432	0.9127
2423	0.9122
2414	0.9113
2405	0.9116
2396	0.9121
2387	0.9153
2378	0.9222
2369	0.9282
2360	0.9342
2351	0.9406
2342	0.9351
2333	0.9311
2324	0.932
2315	0.9282
2306	0.9234
2297	0.9205
2288	0.9167
2279	0.9165
2270	0.9148
2261	0.9134
2252	0.9138
2243	0.9144
2234	0.9147
2225	0.9154
2216	0.9149
2207	0.9158
2198	0.9168
2189	0.9173
2180	0.9186
2171	0.919
2162	0.915
2153	0.9121
2144	0.9144
2135	0.9172
2126	0.9194
2117	0.9216
2108	0.9235
2099	0.9248
2090	0.9251
2081	0.9239
2072	0.9224
2063	0.9231
2054	0.9251
2045	0.9244
2036	0.9234
2027	0.9223
2018	0.9204
2009	0.916
2000	0.9084
1991	0.8879
1982	0.9065
1973	0.9089
1964	0.9057
1955	0.9108
1946	0.9108
1937	0.9105
1928	0.9096
1919	0.9096
1910	0.9102
1901	0.9116
1892	0.9118
1883	0.9114
1874	0.9091
1865	0.9046
1856	0.9052
1847	0.9028
1838	0.9015
1829	0.8987
1820	0.8946
1811	0.8941
1802	0.8959
1793	0.901
1784	0.9032
1775	0.8997
1766	0.8928
1757	0.8715
1748	0.8443
1739	0.8455
1730	0.8443
1721	0.8025
1712	0.7945
1703	0.8031
1694	0.8234
1685	0.8382
1676	0.7254
1667	0.658
1658	0.79
1649	0.8452
1640	0.869
1631	0.8667
1622	0.8493
1613	0.8758
1604	0.8737
1595	0.8483
1586	0.8329
1577	0.8082
1568	0.8213
1559	0.814
1550	0.7685
1541	0.7181
1532	0.7217
1523	0.7661
1514	0.7895
1505	0.7917
1496	0.787
1487	0.7713
1478	0.7555
1469	0.6603
1460	0.5186
1451	0.3134
1442	0.231
1433	0.33
1424	0.5257
1415	0.5417
1406	0.5136
1397	0.5101
1388	0.4984
1379	0.357
1370	0.3388
1361	0.3285
1352	0.5198
1343	0.6006
1334	0.6068
1325	0.62
1316	0.6107
1307	0.5695
1298	0.4981
1289	0.5056
1280	0.5248
1271	0.5515
1262	0.5743
1253	0.5271
1244	0.447
1235	0.4975
1226	0.6234
1217	0.7267
1208	0.7564
1199	0.789
1190	0.8102
1181	0.7855
1172	0.7418
1163	0.6643
1154	0.5297
1145	0.3884
1136	0.4582
1127	0.5635
1118	0.5273
1109	0.3991
1100	0.4563
1091	0.5404
1082	0.5168
1073	0.3738
1064	0.234
1055	0.1147
1046	0.1745
1037	0.2751
1028	0.4158
1019	0.4481
1010	0.5066
1001	0.5948
992	0.6295
983	0.6364
974	0.3938
965	0.0673
956	0.0252
947	0.4927
938	0.6583
929	0.7024
920	0.6906
911	0.3576
902	0.2669
893	0.7224
884	0.8223
875	0.8395
866	0.7684
857	0.6439
848	0.733
839	0.8228
830	0.8043
821	0.7961
812	0.8852
803	0.8946
794	0.8605
785	0.8386
776	0.8336
767	0.8495
758	0.8478
749	0.8284
740	0.8163
731	0.7858
722	0.7591
713	0.7551
704	0.7542
695	0.7532
686	0.733
677	0.7359
668	0.7341
659	0.7469
650	0.6916
641	0.6862
632	0.6907
623	0.6993
614	0.7103
605	0.716
596	0.7218
587	0.7265
578	0.7314
569	0.7361
560	0.7387
551	0.7366
542	0.7312
533	0.7255
524	0.7286
515	0.692
506	0.6581
497	0.6885
488	0.6556
479	0.6827
470	0.693
461	0.7015
452	0.6973
443	0.6724
434	0.6263
425	0.5782
416	0.5663
407	0.4922
398	0.3614
389	0.2906
