Infrared Spectrum: 4,4'-BIPHENYLDISULFONIC ACID, SODIUM SALT
Formula: C12 H8 O6 S2 Na2
State: SOLID (MINERAL OIL MULL)
Class: COBLENTZ
Instrument: Not specified, most likely a prism, grating, or hybrid spectrometer.
Sampling: TRANSMISSION
Resolution: 4
Origin: DOW CHEMICAL COMPANY
MICROMETERS	TRANSMITTANCE
2.027	0.495
2.06708	0.502
2.10715	0.51
2.14723	0.519
2.1873	0.529
2.22738	0.529
2.26745	0.515
2.30753	0.515
2.3476	0.529
2.38768	0.544
2.42775	0.55
2.46783	0.579
2.5079	0.592
2.54798	0.597
2.58805	0.612
2.62813	0.617
2.66821	0.618
2.70828	0.623
2.74836	0.607
2.78843	0.594
2.82851	0.569
2.86858	0.555
2.90866	0.554
2.94873	0.569
2.98881	0.59
3.02888	0.6
3.06896	0.61
3.10903	0.608
3.14911	0.603
3.18918	0.603
3.22926	0.547
3.26933	0.482
3.30941	0.464
3.34949	0.078
3.38956	0.009
3.42964	0.023
3.46971	0.038
3.50979	0.287
3.54986	0.605
3.58994	0.692
3.63001	0.713
3.67009	0.693
3.71016	0.717
3.75024	0.725
3.79031	0.738
3.83039	0.748
3.87046	0.777
3.91054	0.798
3.95062	0.805
3.99069	0.81
4.03077	0.821
4.07084	0.823
4.11092	0.825
4.15099	0.83
4.19107	0.831
4.23114	0.831
4.27122	0.833
4.31129	0.833
4.35137	0.838
4.39144	0.838
4.43152	0.838
4.47159	0.843
4.51167	0.853
4.55174	0.865
4.59182	0.863
4.6319	0.873
4.67197	0.88
4.71205	0.881
4.75212	0.883
4.7922	0.886
4.83227	0.891
4.87235	0.895
4.91242	0.898
4.9525	0.906
4.99257	0.91
5.03265	0.911
5.07272	0.911
5.1128	0.901
5.15287	0.868
5.19295	0.875
5.23303	0.918
5.2731	0.931
5.31318	0.935
5.35325	0.935
5.39333	0.936
5.4334	0.938
5.47348	0.938
5.51355	0.928
5.55363	0.933
5.5937	0.943
5.63378	0.95
5.67385	0.956
5.71393	0.951
5.754	0.951
5.79408	0.951
5.83415	0.936
5.87423	0.915
5.91431	0.891
5.95438	0.891
5.99446	0.865
6.03453	0.866
6.07461	0.868
6.11468	0.868
6.15476	0.866
6.19483	0.858
6.23491	0.816
6.27498	0.886
6.31506	0.916
6.35513	0.906
6.39521	0.855
6.43528	0.851
6.47536	0.903
6.51544	0.928
6.55551	0.921
6.59559	0.901
6.63566	0.875
6.67574	0.788
6.71581	0.612
6.75589	0.51
6.79596	0.191
6.83604	0.121
6.87611	0.222
6.91619	0.397
6.95626	0.648
6.99634	0.763
7.03641	0.801
7.07649	0.803
7.11656	0.765
7.15664	0.539
7.19672	0.347
7.23679	0.297
7.27687	0.369
7.31694	0.529
7.35702	0.623
7.39709	0.662
7.43717	0.7
7.47724	0.725
7.51732	0.715
7.55739	0.683
7.59747	0.673
7.63754	0.642
7.67762	0.662
7.71769	0.667
7.75777	0.627
7.79785	0.565
7.83792	0.429
7.878	0.336
7.91807	0.344
7.95815	0.264
7.99822	0.138
8.0383	0.038
8.07837	0.024
8.11845	0.103
8.15852	0.191
8.1986	0.206
8.23867	0.169
8.27875	0.083
8.31882	0.031
8.3589	0.014
8.39897	0.013
8.43905	0.016
8.47913	0.038
8.5192	0.089
8.55928	0.179
8.59935	0.236
8.63943	0.264
8.6795	0.262
8.71958	0.153
8.75965	0.044
8.79973	0.018
8.8398	0.033
8.87988	0.081
8.91995	0.149
8.96003	0.212
9.0001	0.237
9.04018	0.277
9.08026	0.352
9.12033	0.445
9.16041	0.512
9.20048	0.562
9.24056	0.6
9.28063	0.615
9.32071	0.625
9.36078	0.633
9.40086	0.612
9.44093	0.485
9.48101	0.236
9.52108	0.038
9.56116	0.031
9.60123	0.168
9.64131	0.366
9.68138	0.51
9.72146	0.587
9.76154	0.62
9.80161	0.585
9.84169	0.455
9.88176	0.484
9.92184	0.622
9.96191	0.48
10.002	0.217
10.0421	0.477
10.0821	0.618
10.1222	0.695
10.1623	0.718
10.2024	0.73
10.2424	0.733
10.2825	0.737
10.3226	0.74
10.3627	0.753
10.4027	0.758
10.4428	0.767
10.4829	0.782
10.523	0.792
10.563	0.798
10.6031	0.798
10.6432	0.801
10.6833	0.803
10.7233	0.81
10.7634	0.818
10.8035	0.825
10.8436	0.826
10.8836	0.828
10.9237	0.831
10.9638	0.841
11.0039	0.846
11.0439	0.851
11.084	0.853
11.1241	0.855
11.1642	0.855
11.2042	0.856
11.2443	0.858
11.2844	0.861
11.3245	0.87
11.3645	0.876
11.4046	0.878
11.4447	0.876
11.4848	0.878
11.5248	0.87
11.5649	0.863
11.605	0.856
11.6451	0.855
11.6852	0.856
11.7252	0.86
11.7653	0.856
11.8054	0.838
11.8455	0.818
11.8855	0.788
11.9256	0.747
11.9657	0.735
12.0058	0.742
12.0458	0.722
12.0859	0.602
12.126	0.4
12.1661	0.116
12.2061	0.108
12.2462	0.485
12.2863	0.69
12.3264	0.765
12.3664	0.798
12.4065	0.813
12.4466	0.825
12.4867	0.831
12.5267	0.833
12.5668	0.831
12.6069	0.831
12.647	0.836
12.687	0.843
12.7271	0.848
12.7672	0.848
12.8073	0.848
12.8473	0.843
12.8874	0.833
12.9275	0.823
12.9676	0.82
13.0076	0.816
13.0477	0.806
13.0878	0.805
13.1279	0.808
13.1679	0.815
13.208	0.808
13.2481	0.797
13.2882	0.777
13.3282	0.76
13.3683	0.733
13.4084	0.69
13.4485	0.615
13.4885	0.53
13.5286	0.414
13.5687	0.251
13.6088	0.116
13.6488	0.038
13.6889	0.023
13.729	0.028
13.7691	0.078
13.8091	0.173
13.8492	0.272
13.8893	0.332
13.9294	0.342
13.9694	0.362
14.0095	0.449
14.0496	0.54
14.0897	0.597
14.1297	0.637
14.1698	0.657
14.2099	0.67
14.25	0.677
14.29	0.678
14.3301	0.678
14.3702	0.672
14.4103	0.662
14.4503	0.653
14.4904	0.643
14.5305	0.64
14.5706	0.64
14.6106	0.635
14.6507	0.628
14.6908	0.613
14.7309	0.603
14.7709	0.602
14.811	0.602
14.8511	0.602
14.8912	0.599
14.9313	0.594
14.9713	0.587
15.0114	0.58
15.0515	0.569
15.0916	0.564
15.1316	0.564
15.1717	0.555
15.2118	0.549
15.2519	0.539
15.2919	0.535
15.332	0.524
15.3721	0.514
15.4122	0.495
15.4522	0.475
15.4923	0.444
15.5324	0.402
15.5725	0.377
15.6125	0.369
15.6526	0.367
15.6927	0.364
15.7328	0.362
15.7728	0.361
15.8129	0.359
15.853	0.354
