Infrared Spectrum: SYM-DIETHYLDIBORANE
Formula: C4 H14 B2
State: VAPOR AT 30 mmHg PRESSURE;
Class: COBLENTZ
Instrument: Not specified, most likely a prism, grating, or hybrid spectrometer.
Sampling: TRANSMISSION
Path length: 5 CM
Resolution: 4
Origin: KALLERY CHEMICAL COMPANY
MICROMETERS	TRANSMITTANCE
2.013	0.814
2.04674	0.807
2.08048	0.812
2.11422	0.817
2.14796	0.817
2.1817	0.819
2.21544	0.814
2.24918	0.812
2.28292	0.806
2.31666	0.799
2.3504	0.804
2.38414	0.804
2.41788	0.804
2.45162	0.802
2.48536	0.802
2.5191	0.802
2.55284	0.802
2.58658	0.807
2.62032	0.806
2.65406	0.809
2.6878	0.777
2.72154	0.769
2.75528	0.752
2.78902	0.72
2.82276	0.739
2.85649	0.772
2.89023	0.792
2.92397	0.799
2.95771	0.801
2.99145	0.804
3.02519	0.809
3.05893	0.812
3.09267	0.809
3.12641	0.801
3.16015	0.795
3.19389	0.792
3.22763	0.785
3.26137	0.78
3.29511	0.762
3.32885	0.709
3.36259	0.107
3.39633	0.168
3.43007	0.252
3.46381	0.274
3.49755	0.596
3.53129	0.677
3.56503	0.755
3.59877	0.777
3.63251	0.765
3.66625	0.767
3.69999	0.779
3.73373	0.787
3.76747	0.78
3.80121	0.734
3.83495	0.66
3.86869	0.698
3.90243	0.697
3.93617	0.234
3.96991	0.115
4.00365	0.125
4.03739	0.52
4.07113	0.759
4.10487	0.764
4.13861	0.755
4.17235	0.764
4.20609	0.78
4.23983	0.787
4.27357	0.782
4.30731	0.782
4.34105	0.785
4.37479	0.785
4.40853	0.78
4.44227	0.775
4.47601	0.775
4.50974	0.787
4.54348	0.794
4.57722	0.79
4.61096	0.787
4.6447	0.785
4.67844	0.789
4.71218	0.797
4.74592	0.787
4.77966	0.787
4.8134	0.79
4.84714	0.787
4.88088	0.789
4.91462	0.785
4.94836	0.789
4.9821	0.785
5.01584	0.784
5.04958	0.785
5.08332	0.777
5.11706	0.769
5.1508	0.755
5.18454	0.727
5.21828	0.705
5.25202	0.715
5.28576	0.734
5.3195	0.747
5.35324	0.747
5.38698	0.725
5.42072	0.722
5.45446	0.724
5.4882	0.725
5.52194	0.737
5.55568	0.732
5.58942	0.715
5.62316	0.72
5.6569	0.707
5.69064	0.709
5.72438	0.695
5.75812	0.695
5.79186	0.648
5.8256	0.6
5.85934	0.593
5.89308	0.568
5.92682	0.536
5.96056	0.463
5.9943	0.362
6.02804	0.282
6.06178	0.237
6.09552	0.18
6.12926	0.091
6.16299	0.041
6.19673	0.031
6.23047	0.026
6.26421	0.026
6.29795	0.031
6.33169	0.031
6.36543	0.048
6.39917	0.071
6.43291	0.212
6.46665	0.284
6.50039	0.408
6.53413	0.494
6.56787	0.5
6.60161	0.516
6.63535	0.531
6.66909	0.546
6.70283	0.548
6.73657	0.536
6.77031	0.481
6.80405	0.433
6.83779	0.429
6.87153	0.464
6.90527	0.53
6.93901	0.546
6.97275	0.546
7.00649	0.525
7.04023	0.528
7.07397	0.57
7.10771	0.603
7.14145	0.642
7.17519	0.645
7.20893	0.648
7.24267	0.66
7.27641	0.682
7.31015	0.707
7.34389	0.727
7.37763	0.737
7.41137	0.737
7.44511	0.749
7.47885	0.745
7.51259	0.75
7.54633	0.75
7.58007	0.745
7.61381	0.734
7.64755	0.692
7.68129	0.608
7.71503	0.518
7.74877	0.516
7.78251	0.566
7.81624	0.652
7.84998	0.719
7.88372	0.745
7.91746	0.744
7.9512	0.749
7.98494	0.749
8.01868	0.754
8.05242	0.754
8.08616	0.75
8.1199	0.759
8.15364	0.757
8.18738	0.764
8.22112	0.759
8.25486	0.76
8.2886	0.765
8.32234	0.762
8.35608	0.76
8.38982	0.76
8.42356	0.755
8.4573	0.747
8.49104	0.734
8.52478	0.727
8.55852	0.709
8.59226	0.698
8.626	0.685
8.65974	0.658
8.69348	0.618
8.72722	0.573
8.76096	0.513
8.7947	0.413
8.82844	0.275
8.86218	0.157
8.89592	0.096
8.92966	0.056
8.9634	0.05
8.99714	0.05
9.03088	0.063
9.06462	0.143
9.09836	0.205
9.1321	0.376
9.16584	0.503
9.19958	0.546
9.23332	0.613
9.26706	0.645
9.3008	0.652
9.33454	0.652
9.36828	0.628
9.40202	0.608
9.43576	0.602
9.46949	0.6
9.50323	0.598
9.53697	0.607
9.57071	0.617
9.60445	0.628
9.63819	0.63
9.67193	0.628
9.70567	0.627
9.73941	0.62
9.77315	0.618
9.80689	0.615
9.84063	0.617
9.87437	0.627
9.90811	0.638
9.94185	0.65
9.97559	0.657
10.0093	0.672
10.0431	0.688
10.0768	0.698
10.1106	0.717
10.1443	0.729
10.178	0.735
10.2118	0.744
10.2455	0.742
10.2793	0.752
10.313	0.762
10.3467	0.76
10.3805	0.762
10.4142	0.77
10.4479	0.767
10.4817	0.767
10.5154	0.764
10.5492	0.76
10.5829	0.754
10.6166	0.749
10.6504	0.745
10.6841	0.729
10.7179	0.714
10.7516	0.707
10.7853	0.692
10.8191	0.677
10.8528	0.668
10.8866	0.658
10.9203	0.648
10.954	0.645
10.9878	0.647
11.0215	0.65
11.0553	0.655
11.089	0.655
11.1227	0.662
11.1565	0.663
11.1902	0.678
11.224	0.688
11.2577	0.7
11.2914	0.704
11.3252	0.698
11.3589	0.697
11.3927	0.693
11.4264	0.693
11.4601	0.685
11.4939	0.667
11.5276	0.652
11.5614	0.613
11.5951	0.576
11.6288	0.553
11.6626	0.53
11.6963	0.501
11.7301	0.496
11.7638	0.496
11.7975	0.501
11.8313	0.513
11.865	0.521
11.8988	0.54
11.9325	0.553
11.9662	0.561
12	0.531
12.0337	0.503
12.0675	0.458
12.1012	0.436
12.1349	0.423
12.1687	0.413
12.2024	0.429
12.2362	0.451
12.2699	0.474
12.3036	0.501
12.3374	0.541
12.3711	0.588
12.4049	0.628
12.4386	0.662
12.4723	0.683
12.5061	0.702
12.5398	0.715
12.5736	0.719
12.6073	0.724
12.641	0.729
12.6748	0.734
12.7085	0.737
12.7423	0.737
12.776	0.737
12.8097	0.739
12.8435	0.739
12.8772	0.734
12.911	0.729
12.9447	0.725
12.9784	0.72
13.0122	0.717
13.0459	0.717
13.0797	0.717
13.1134	0.709
13.1471	0.71
13.1809	0.709
13.2146	0.705
13.2484	0.702
13.2821	0.7
13.3158	0.7
13.3496	0.704
13.3833	0.704
13.4171	0.707
13.4508	0.714
13.4845	0.715
13.5183	0.719
13.552	0.724
13.5858	0.727
13.6195	0.727
13.6532	0.727
13.687	0.727
13.7207	0.727
13.7544	0.725
13.7882	0.724
13.8219	0.722
13.8557	0.72
13.8894	0.724
13.9231	0.72
13.9569	0.719
13.9906	0.719
14.0244	0.719
14.0581	0.719
14.0918	0.719
14.1256	0.72
14.1593	0.725
14.1931	0.727
14.2268	0.724
14.2605	0.72
14.2943	0.719
14.328	0.715
14.3618	0.71
14.3955	0.712
14.4292	0.709
14.463	0.707
14.4967	0.695
14.5305	0.693
14.5642	0.692
14.5979	0.687
14.6317	0.683
14.6654	0.68
14.6992	0.673
14.7329	0.673
14.7666	0.668
14.8004	0.668
14.8341	0.665
14.8679	0.667
14.9016	0.662
14.9353	0.652
14.9691	0.65
15.0028	0.658
15.0366	0.662
15.0703	0.657
15.104	0.655
15.1378	0.655
15.1715	0.653
15.2053	0.65
15.239	0.652
