Infrared Spectrum: ANTIMONY PENTOXIDE
Formula: Sb2 O5
State: SOLID (NUJOL MULL)
Class: COBLENTZ
Instrument: Not specified, most likely a prism, grating, or hybrid spectrometer.
Sampling: TRANSMISSION
Resolution: 4
Origin: MELLON INSTITUTE
MICROMETERS	TRANSMITTANCE
2.011	0.471
2.05194	0.476
2.09288	0.483
2.13382	0.492
2.17476	0.5
2.21571	0.509
2.25665	0.516
2.29759	0.523
2.33853	0.531
2.37947	0.54
2.42041	0.552
2.46135	0.561
2.50229	0.573
2.54324	0.583
2.58418	0.593
2.62512	0.6
2.66606	0.607
2.707	0.612
2.74794	0.617
2.78888	0.623
2.82982	0.619
2.87077	0.619
2.91171	0.614
2.95265	0.612
2.99359	0.611
3.03453	0.607
3.07547	0.607
3.11641	0.607
3.15735	0.609
3.1983	0.612
3.23924	0.612
3.28018	0.595
3.32112	0.397
3.36206	0.139
3.403	0.142
3.44394	0.13
3.48488	0.301
3.52582	0.636
3.56677	0.712
3.60771	0.733
3.64865	0.748
3.68959	0.759
3.73053	0.769
3.77147	0.779
3.81241	0.788
3.85335	0.798
3.8943	0.802
3.93524	0.81
3.97618	0.817
4.01712	0.822
4.05806	0.826
4.099	0.829
4.13994	0.834
4.18088	0.838
4.22183	0.839
4.26277	0.841
4.30371	0.843
4.34465	0.848
4.38559	0.851
4.42653	0.853
4.46747	0.855
4.50841	0.86
4.54936	0.864
4.5903	0.865
4.63124	0.869
4.67218	0.87
4.71312	0.874
4.75406	0.876
4.795	0.879
4.83594	0.881
4.87688	0.882
4.91783	0.886
4.95877	0.889
4.99971	0.893
5.04065	0.893
5.08159	0.895
5.12253	0.898
5.16347	0.9
5.20441	0.901
5.24536	0.903
5.2863	0.905
5.32724	0.907
5.36818	0.91
5.40912	0.91
5.45006	0.913
5.491	0.915
5.53194	0.919
5.57289	0.92
5.61383	0.922
5.65477	0.924
5.69571	0.925
5.73665	0.927
5.77759	0.929
5.81853	0.929
5.85947	0.929
5.90042	0.927
5.94136	0.925
5.9823	0.924
6.02324	0.919
6.06418	0.912
6.10512	0.912
6.14606	0.913
6.187	0.92
6.22794	0.924
6.26889	0.927
6.30983	0.929
6.35077	0.929
6.39171	0.927
6.43265	0.927
6.47359	0.927
6.51453	0.925
6.55547	0.924
6.59642	0.922
6.63736	0.915
6.6783	0.9
6.71924	0.848
6.76018	0.683
6.80112	0.535
6.84206	0.523
6.883	0.616
6.92395	0.722
6.96489	0.812
7.00583	0.851
7.04677	0.884
7.08771	0.895
7.12865	0.884
7.16959	0.757
7.21053	0.678
7.25148	0.741
7.29242	0.807
7.33336	0.855
7.3743	0.876
7.41524	0.882
7.45618	0.891
7.49712	0.893
7.53806	0.895
7.579	0.896
7.61995	0.9
7.66089	0.901
7.70183	0.901
7.74277	0.901
7.78371	0.903
7.82465	0.905
7.86559	0.907
7.90653	0.905
7.94748	0.905
7.98842	0.905
8.02936	0.91
8.0703	0.912
8.11124	0.912
8.15218	0.912
8.19312	0.913
8.23406	0.912
8.27501	0.913
8.31595	0.915
8.35689	0.915
8.39783	0.915
8.43877	0.915
8.47971	0.915
8.52065	0.913
8.56159	0.912
8.60253	0.91
8.64348	0.91
8.68442	0.907
8.72536	0.907
8.7663	0.91
8.80724	0.912
8.84818	0.907
8.88912	0.908
8.93006	0.907
8.97101	0.907
9.01195	0.907
9.05289	0.907
9.09383	0.907
9.13477	0.907
9.17571	0.907
9.21665	0.907
9.25759	0.907
9.29854	0.907
9.33948	0.907
9.38042	0.912
9.42136	0.913
9.4623	0.915
9.50324	0.915
9.54418	0.917
9.58512	0.919
9.62607	0.919
9.66701	0.92
9.70795	0.922
9.74889	0.922
9.78983	0.922
9.83077	0.924
9.87171	0.925
9.91265	0.927
9.95359	0.929
9.99454	0.931
10.0355	0.932
10.0764	0.932
10.1174	0.932
10.1583	0.934
10.1992	0.936
10.2402	0.938
10.2811	0.938
10.3221	0.938
10.363	0.938
10.4039	0.938
10.4449	0.938
10.4858	0.938
10.5268	0.938
10.5677	0.936
10.6087	0.934
10.6496	0.934
10.6905	0.932
10.7315	0.931
10.7724	0.927
10.8134	0.927
10.8543	0.927
10.8952	0.924
10.9362	0.924
10.9771	0.922
11.0181	0.919
11.059	0.913
11.0999	0.908
11.1409	0.901
11.1818	0.898
11.2228	0.895
11.2637	0.889
11.3047	0.884
11.3456	0.881
11.3865	0.872
11.4275	0.864
11.4684	0.851
11.5094	0.843
11.5503	0.834
11.5912	0.824
11.6322	0.814
11.6731	0.802
11.7141	0.786
11.755	0.777
11.7959	0.76
11.8369	0.746
11.8778	0.738
11.9188	0.726
11.9597	0.712
12.0007	0.703
12.0416	0.685
12.0825	0.674
12.1235	0.66
12.1644	0.647
12.2054	0.631
12.2463	0.616
12.2872	0.602
12.3282	0.585
12.3691	0.569
12.4101	0.55
12.451	0.535
12.4919	0.516
12.5329	0.5
12.5738	0.483
12.6148	0.466
12.6557	0.452
12.6967	0.438
12.7376	0.423
12.7785	0.411
12.8195	0.401
12.8604	0.387
12.9014	0.376
12.9423	0.37
12.9832	0.361
13.0242	0.352
13.0651	0.345
13.1061	0.342
13.147	0.337
13.188	0.332
13.2289	0.328
13.2698	0.323
13.3108	0.321
13.3517	0.321
13.3927	0.321
13.4336	0.318
13.4745	0.316
13.5155	0.316
13.5564	0.316
13.5974	0.318
13.6383	0.321
13.6792	0.325
13.7202	0.332
13.7611	0.342
13.8021	0.349
13.843	0.356
13.884	0.361
13.9249	0.368
13.9658	0.373
14.0068	0.378
14.0477	0.383
14.0887	0.387
14.1296	0.388
14.1705	0.39
14.2115	0.388
14.2524	0.388
14.2934	0.387
14.3343	0.385
14.3752	0.383
14.4162	0.383
14.4571	0.382
14.4981	0.38
14.539	0.38
14.58	0.376
14.6209	0.378
14.6618	0.376
14.7028	0.378
14.7437	0.38
14.7847	0.382
14.8256	0.383
14.8665	0.387
14.9075	0.39
14.9484	0.392
14.9894	0.397
15.0303	0.401
15.0712	0.402
15.1122	0.407
15.1531	0.413
15.1941	0.414
15.235	0.418
15.276	0.419
15.3169	0.421
15.3578	0.425
15.3988	0.43
15.4397	0.433
15.4807	0.435
15.5216	0.44
15.5625	0.445
15.6035	0.452
15.6444	0.457
15.6854	0.466
15.7263	0.471
15.7672	0.476
15.8082	0.483
15.8491	0.487
15.8901	0.492
15.931	0.497
15.972	0.502
