Infrared Spectrum: 2-(M-PHENOXYPHENOXY)-3-(2-TRIMETHYLSILYLETHYL) PYRAZINE
Formula: C21 H24 N2 O2 Si
State: LIQUID
Class: COBLENTZ
Instrument: Not specified, most likely a prism, grating, or hybrid spectrometer.
Sampling: TRANSMISSION
Path length: CAPILLARY
Resolution: 4
Origin: WYANDOTTE CHEMICALS CORP., WYANDOTTE, MICHIGAN, USA
MICROMETERS	TRANSMITTANCE
2.033	0.973
2.07275	0.97
2.11251	0.968
2.15226	0.971
2.19202	0.955
2.23177	0.96
2.27153	0.958
2.31128	0.948
2.35104	0.945
2.39079	0.951
2.43054	0.96
2.4703	0.96
2.51005	0.956
2.54981	0.948
2.58956	0.95
2.62932	0.96
2.66907	0.951
2.70883	0.946
2.74858	0.935
2.78833	0.933
2.82809	0.933
2.86784	0.928
2.9076	0.925
2.94735	0.915
2.98711	0.913
3.02686	0.905
3.06661	0.898
3.10637	0.876
3.14612	0.861
3.18588	0.81
3.22563	0.575
3.26539	0.662
3.30514	0.68
3.3449	0.322
3.38465	0.514
3.4244	0.519
3.46416	0.713
3.50391	0.8
3.54367	0.831
3.58342	0.871
3.62318	0.881
3.66293	0.891
3.70269	0.901
3.74244	0.9
3.78219	0.906
3.82195	0.905
3.8617	0.895
3.90146	0.901
3.94121	0.908
3.98097	0.896
4.02072	0.891
4.06048	0.886
4.10023	0.876
4.13998	0.858
4.17974	0.86
4.21949	0.853
4.25925	0.88
4.299	0.893
4.33876	0.91
4.37851	0.916
4.41826	0.913
4.45802	0.916
4.49777	0.913
4.53753	0.898
4.57728	0.901
4.61704	0.913
4.65679	0.905
4.69655	0.903
4.7363	0.91
4.77605	0.91
4.81581	0.891
4.85556	0.9
4.89532	0.898
4.93507	0.883
4.97483	0.891
5.01458	0.891
5.05434	0.89
5.09409	0.878
5.13384	0.866
5.1736	0.831
5.21335	0.84
5.25311	0.855
5.29286	0.875
5.33262	0.875
5.37237	0.855
5.41213	0.868
5.45188	0.873
5.49163	0.883
5.53139	0.878
5.57114	0.85
5.6109	0.856
5.65065	0.861
5.69041	0.855
5.73016	0.836
5.76992	0.835
5.80967	0.833
5.84942	0.828
5.88918	0.818
5.92893	0.815
5.96869	0.801
6.00844	0.787
6.0482	0.757
6.08795	0.66
6.1277	0.344
6.16746	0.171
6.20721	0.049
6.24697	0.158
6.28672	0.319
6.32648	0.535
6.36623	0.632
6.40599	0.485
6.44574	0.207
6.48549	0.391
6.52525	0.557
6.565	0.587
6.60476	0.424
6.64451	0.101
6.68427	0.046
6.72402	0.109
6.76378	0.299
6.80353	0.319
6.84328	0.299
6.88304	0.262
6.92279	0.346
6.96255	0.322
7.0023	0.224
7.04206	0.096
7.08181	0.048
7.12157	0.051
7.16132	0.083
7.20107	0.229
7.24083	0.391
7.28058	0.484
7.32034	0.522
7.36009	0.452
7.39985	0.302
7.4396	0.173
7.47935	0.196
7.51911	0.292
7.55886	0.316
7.59862	0.227
7.63837	0.168
7.67813	0.149
7.71788	0.149
7.75764	0.163
7.79739	0.121
7.83714	0.061
7.8769	0.053
7.91665	0.051
7.95641	0.051
7.99616	0.074
8.03592	0.163
8.07567	0.261
8.11543	0.311
8.15518	0.184
8.19493	0.056
8.23469	0.048
8.27444	0.116
8.3142	0.219
8.35395	0.219
8.39371	0.204
8.43346	0.209
8.47322	0.159
8.51297	0.084
8.55272	0.058
8.59248	0.078
8.63223	0.146
8.67199	0.246
8.71174	0.351
8.7515	0.361
8.79125	0.234
8.83101	0.128
8.87076	0.113
8.91051	0.274
8.95027	0.51
8.99002	0.57
9.02978	0.62
9.06953	0.643
9.10929	0.587
9.14904	0.59
9.18879	0.613
9.22855	0.535
9.2683	0.452
9.30806	0.497
9.34781	0.655
9.38757	0.742
9.42732	0.772
9.46708	0.782
9.50683	0.78
9.54658	0.778
9.58634	0.777
9.62609	0.755
9.66585	0.733
9.7056	0.623
9.74536	0.469
9.78511	0.545
9.82487	0.612
9.86462	0.61
9.90437	0.595
9.94413	0.525
9.98388	0.605
10.0236	0.632
10.0634	0.613
10.1031	0.618
10.1429	0.599
10.1827	0.537
10.2224	0.42
10.2622	0.284
10.3019	0.176
10.3417	0.123
10.3814	0.138
10.4212	0.227
10.4609	0.396
10.5007	0.517
10.5404	0.585
10.5802	0.647
10.62	0.7
10.6597	0.725
10.6995	0.737
10.7392	0.738
10.779	0.73
10.8187	0.68
10.8585	0.61
10.8982	0.527
10.938	0.425
10.9777	0.349
11.0175	0.346
11.0573	0.389
11.097	0.391
11.1368	0.342
11.1765	0.316
11.2163	0.329
11.256	0.374
11.2958	0.389
11.3355	0.376
11.3753	0.347
11.415	0.296
11.4548	0.212
11.4946	0.159
11.5343	0.111
11.5741	0.089
11.6138	0.073
11.6536	0.073
11.6933	0.074
11.7331	0.076
11.7728	0.081
11.8126	0.076
11.8523	0.079
11.8921	0.074
11.9318	0.071
11.9716	0.073
12.0114	0.089
12.0511	0.101
12.0909	0.141
12.1306	0.183
12.1704	0.241
12.2101	0.309
12.2499	0.386
12.2896	0.44
12.3294	0.48
12.3691	0.519
12.4089	0.527
12.4487	0.544
12.4884	0.55
12.5282	0.534
12.5679	0.504
12.6077	0.462
12.6474	0.397
12.6872	0.332
12.7269	0.309
12.7667	0.312
12.8064	0.312
12.8462	0.314
12.886	0.309
12.9257	0.309
12.9655	0.297
13.0052	0.292
13.045	0.279
13.0847	0.271
13.1245	0.267
13.1642	0.241
13.204	0.234
13.2437	0.224
13.2835	0.221
13.3233	0.234
13.363	0.261
13.4028	0.309
13.4425	0.349
13.4823	0.386
13.522	0.409
13.5618	0.439
13.6015	0.487
13.6413	0.545
13.681	0.587
13.7208	0.628
13.7606	0.66
13.8003	0.678
13.8401	0.69
13.8798	0.697
13.9196	0.695
13.9593	0.69
13.9991	0.683
14.0388	0.667
14.0786	0.663
14.1183	0.652
14.1581	0.625
14.1979	0.584
14.2376	0.539
14.2774	0.484
14.3171	0.41
14.3569	0.334
14.3966	0.282
14.4364	0.229
14.4761	0.219
14.5159	0.219
14.5556	0.242
14.5954	0.264
14.6351	0.291
14.6749	0.327
14.7147	0.396
14.7544	0.469
14.7942	0.549
14.8339	0.617
14.8737	0.662
14.9134	0.698
14.9532	0.713
14.9929	0.713
15.0327	0.703
15.0724	0.678
15.1122	0.672
15.152	0.688
15.1917	0.72
15.2315	0.735
15.2712	0.748
15.311	0.758
15.3507	0.77
15.3905	0.768
15.4302	0.77
15.47	0.78
15.5097	0.773
15.5495	0.777
15.5893	0.78
15.629	0.777
15.6688	0.78
15.7085	0.778
15.7483	0.78
15.788	0.773
15.8278	0.772
15.8675	0.772
15.9073	0.762
15.947	0.757
15.9868	0.755
