Infrared Spectrum: TRIMETHYL AMINE PICRATE
Formula: C9 H12 N4 O7
State: SOLID (KBr PELLET)
Class: COBLENTZ
Instrument: Not specified, most likely a grating spectrometer.
Sampling: TRANSMISSION
Resolution: 4
Origin: CITRUS EXPERIMENT STATION, UNIVERSITY OF FLORIDA (G. EDWARDS)
MICROMETERS	TRANSMITTANCE
2.033	0.596
2.06616	0.599
2.09933	0.603
2.13249	0.606
2.16566	0.607
2.19882	0.611
2.23199	0.619
2.26515	0.623
2.29831	0.628
2.33148	0.634
2.36464	0.64
2.39781	0.644
2.43097	0.648
2.46413	0.652
2.4973	0.659
2.53046	0.663
2.56363	0.671
2.59679	0.674
2.62996	0.676
2.66312	0.679
2.69628	0.678
2.72945	0.675
2.76261	0.671
2.79578	0.671
2.82894	0.67
2.8621	0.667
2.89527	0.67
2.92843	0.679
2.9616	0.688
2.99476	0.696
3.02793	0.7
3.06109	0.699
3.09425	0.699
3.12742	0.686
3.16058	0.663
3.19375	0.603
3.22691	0.53
3.26008	0.449
3.29324	0.421
3.3264	0.472
3.35957	0.473
3.39273	0.469
3.4259	0.507
3.45906	0.493
3.49222	0.467
3.52539	0.441
3.55855	0.4
3.59172	0.325
3.62488	0.389
3.65805	0.469
3.69121	0.551
3.72437	0.599
3.75754	0.632
3.7907	0.643
3.82387	0.659
3.85703	0.663
3.89019	0.662
3.92336	0.655
3.95652	0.66
3.98969	0.668
4.02285	0.663
4.05602	0.68
4.08918	0.714
4.12234	0.722
4.15551	0.734
4.18867	0.75
4.22184	0.759
4.255	0.761
4.28817	0.761
4.32133	0.762
4.35449	0.765
4.38766	0.765
4.42082	0.767
4.45399	0.765
4.48715	0.77
4.52031	0.777
4.55348	0.782
4.58664	0.786
4.61981	0.791
4.65297	0.791
4.68614	0.791
4.7193	0.791
4.75246	0.791
4.78563	0.795
4.81879	0.794
4.85196	0.794
4.88512	0.799
4.91828	0.802
4.95145	0.802
4.98461	0.802
5.01778	0.801
5.05094	0.802
5.08411	0.809
5.11727	0.81
5.15043	0.813
5.1836	0.813
5.21676	0.815
5.24993	0.81
5.28309	0.807
5.31626	0.805
5.34942	0.801
5.38258	0.793
5.41575	0.789
5.44891	0.803
5.48208	0.803
5.51524	0.807
5.5484	0.811
5.58157	0.811
5.61473	0.805
5.6479	0.798
5.68106	0.777
5.71423	0.77
5.74739	0.773
5.78055	0.765
5.81372	0.743
5.84688	0.715
5.88005	0.696
5.91321	0.666
5.94637	0.627
5.97954	0.56
6.0127	0.452
6.04587	0.22
6.07903	0.125
6.1122	0.06
6.14536	0.101
6.17852	0.13
6.21169	0.19
6.24485	0.28
6.27802	0.392
6.31118	0.469
6.34435	0.336
6.37751	0.208
6.41067	0.344
6.44384	0.42
6.477	0.475
6.51017	0.453
6.54333	0.44
6.57649	0.439
6.60966	0.413
6.64282	0.387
6.67599	0.272
6.70915	0.181
6.74232	0.212
6.77548	0.353
6.80864	0.417
6.84181	0.457
6.87497	0.469
6.90814	0.423
6.9413	0.337
6.97446	0.407
7.00763	0.575
7.04079	0.611
7.07396	0.62
7.10712	0.631
7.14029	0.671
7.17345	0.682
7.20661	0.66
7.23978	0.552
7.27294	0.372
7.30611	0.186
7.33927	0.273
7.37244	0.373
7.4056	0.18
7.43876	0.062
7.47193	0.072
7.50509	0.14
7.53826	0.194
7.57142	0.14
7.60458	0.076
7.63775	0.081
7.67091	0.153
7.70408	0.166
7.73724	0.17
7.77041	0.21
7.80357	0.18
7.83673	0.12
7.8699	0.112
7.90306	0.164
7.93623	0.209
7.96939	0.196
8.00255	0.18
8.03572	0.22
8.06888	0.28
8.10205	0.331
8.13521	0.401
8.16838	0.467
8.20154	0.523
8.2347	0.555
8.26787	0.582
8.30103	0.602
8.3342	0.622
8.36736	0.642
8.40053	0.654
8.43369	0.664
8.46685	0.671
8.50002	0.66
8.53318	0.622
8.56635	0.508
8.59951	0.348
8.63267	0.421
8.66584	0.52
8.699	0.528
8.73217	0.594
8.76533	0.63
8.7985	0.654
8.83166	0.672
8.86482	0.687
8.89799	0.702
8.93115	0.711
8.96432	0.722
8.99748	0.726
9.03065	0.731
9.06381	0.74
9.09697	0.74
9.13014	0.743
9.1633	0.744
9.19647	0.74
9.22963	0.714
9.26279	0.675
9.29596	0.563
9.32912	0.421
9.36229	0.441
9.39545	0.542
9.42862	0.563
9.46178	0.631
9.49494	0.674
9.52811	0.691
9.56127	0.694
9.59444	0.702
9.6276	0.714
9.66076	0.726
9.69393	0.732
9.72709	0.748
9.76026	0.751
9.79342	0.754
9.82659	0.755
9.85975	0.763
9.89291	0.767
9.92608	0.771
9.95924	0.777
9.99241	0.778
10.0256	0.762
10.0587	0.735
10.0919	0.664
10.1251	0.477
10.1582	0.345
10.1914	0.381
10.2246	0.547
10.2577	0.652
10.2909	0.706
10.324	0.734
10.3572	0.755
10.3904	0.778
10.4235	0.783
10.4567	0.785
10.4899	0.789
10.523	0.79
10.5562	0.775
10.5894	0.72
10.6225	0.607
10.6557	0.644
10.6889	0.711
10.722	0.743
10.7552	0.744
10.7883	0.731
10.8215	0.662
10.8547	0.568
10.8878	0.614
10.921	0.714
10.9542	0.711
10.9873	0.6
11.0205	0.441
11.0537	0.441
11.0868	0.584
11.12	0.671
11.1532	0.714
11.1863	0.74
11.2195	0.761
11.2526	0.771
11.2858	0.783
11.319	0.79
11.3521	0.797
11.3853	0.798
11.4185	0.801
11.4516	0.801
11.4848	0.805
11.518	0.807
11.5511	0.809
11.5843	0.813
11.6175	0.822
11.6506	0.822
11.6838	0.823
11.7169	0.822
11.7501	0.822
11.7833	0.818
11.8164	0.819
11.8496	0.821
11.8828	0.811
11.9159	0.81
11.9491	0.803
11.9823	0.811
12.0154	0.817
12.0486	0.817
12.0818	0.818
12.1149	0.813
12.1481	0.794
12.1812	0.766
12.2144	0.754
12.2476	0.775
12.2807	0.791
12.3139	0.799
12.3471	0.802
12.3802	0.81
12.4134	0.813
12.4466	0.818
12.4797	0.817
12.5129	0.811
12.546	0.791
12.5792	0.773
12.6124	0.762
12.6455	0.712
12.6787	0.578
12.7119	0.392
12.745	0.451
12.7782	0.671
12.8114	0.765
12.8445	0.795
12.8777	0.803
12.9109	0.821
12.944	0.823
12.9772	0.825
13.0103	0.826
13.0435	0.829
13.0767	0.829
13.1098	0.821
13.143	0.818
13.1762	0.818
13.2093	0.811
13.2425	0.802
13.2757	0.787
13.3088	0.757
13.342	0.714
13.3752	0.627
13.4083	0.492
13.4415	0.409
13.4746	0.461
13.5078	0.616
13.541	0.704
13.5741	0.742
13.6073	0.757
13.6405	0.758
13.6736	0.753
13.7068	0.746
13.74	0.723
13.7731	0.691
13.8063	0.636
13.8395	0.579
13.8726	0.535
13.9058	0.522
13.9389	0.523
13.9721	0.522
14.0053	0.5
14.0384	0.453
14.0716	0.385
14.1048	0.367
14.1379	0.395
14.1711	0.465
14.2043	0.542
14.2374	0.586
14.2706	0.615
14.3038	0.64
14.3369	0.652
14.3701	0.667
14.4032	0.674
14.4364	0.68
14.4696	0.683
14.5027	0.687
14.5359	0.684
14.5691	0.682
14.6022	0.68
14.6354	0.68
14.6686	0.682
14.7017	0.698
14.7349	0.703
14.7681	0.71
14.8012	0.715
14.8344	0.716
14.8675	0.714
14.9007	0.714
14.9339	0.731
14.967	0.774
15.0002	0.779
