Infrared Spectrum: CD3-3-PHENANTHRENE
Formula: C15 H9 D3
State: SOLUTION (224 g/L IN HEPTANE)
Class: COBLENTZ
Instrument: Not specified, most likely a prism, grating, or hybrid spectrometer.
Sampling: TRANSMISSION
Path length: 0.01 CM
Resolution: 4
Origin: CENTRE D'ETUDES NUCLEAIRES DE GRENOBLE
MICROMETERS	TRANSMITTANCE
2.014	0.871
2.05398	0.876
2.09396	0.876
2.13393	0.871
2.17391	0.866
2.21389	0.868
2.25387	0.875
2.29384	0.883
2.33382	0.891
2.3738	0.898
2.41378	0.9
2.45376	0.896
2.49373	0.893
2.53371	0.89
2.57369	0.883
2.61367	0.876
2.65365	0.88
2.69362	0.881
2.7336	0.88
2.77358	0.88
2.81356	0.883
2.85353	0.878
2.89351	0.88
2.93349	0.881
2.97347	0.883
3.01345	0.881
3.05342	0.878
3.0934	0.876
3.13338	0.876
3.17336	0.89
3.21334	0.885
3.25331	0.846
3.29329	0.529
3.33327	0.44
3.37325	0.584
3.41322	0.607
3.4532	0.565
3.49318	0.534
3.53316	0.527
3.57314	0.53
3.61311	0.79
3.65309	0.935
3.69307	0.948
3.73305	0.936
3.77303	0.936
3.813	0.928
3.85298	0.931
3.89296	0.931
3.93294	0.92
3.97291	0.918
4.01289	0.915
4.05287	0.915
4.09285	0.911
4.13283	0.911
4.1728	0.915
4.21278	0.915
4.25276	0.906
4.29274	0.885
4.33271	0.885
4.37269	0.883
4.41267	0.885
4.45265	0.88
4.49263	0.826
4.5326	0.775
4.57258	0.763
4.61256	0.84
4.65254	0.878
4.69252	0.878
4.73249	0.703
4.77247	0.871
4.81245	0.883
4.85243	0.87
4.8924	0.752
4.93238	0.89
4.97236	0.91
5.01234	0.92
5.05232	0.921
5.09229	0.921
5.13227	0.918
5.17225	0.885
5.21223	0.873
5.25221	0.811
5.29218	0.79
5.33216	0.853
5.37214	0.903
5.41212	0.911
5.45209	0.91
5.49207	0.888
5.53205	0.86
5.57203	0.823
5.61201	0.856
5.65198	0.88
5.69196	0.853
5.73194	0.843
5.77192	0.895
5.81189	0.885
5.85187	0.853
5.89185	0.863
5.93183	0.856
5.97181	0.845
6.01178	0.841
6.05176	0.86
6.09174	0.861
6.13172	0.803
6.1717	0.642
6.21167	0.532
6.25165	0.572
6.29163	0.633
6.33161	0.803
6.37158	0.838
6.41156	0.83
6.45154	0.835
6.49152	0.836
6.5315	0.858
6.57147	0.851
6.61145	0.718
6.65143	0.547
6.69141	0.68
6.73139	0.84
6.77136	0.911
6.81134	0.926
6.85132	0.911
6.8913	0.875
6.93127	0.843
6.97125	0.828
7.01123	0.788
7.05121	0.69
7.09119	0.778
7.13116	0.801
7.17114	0.725
7.21112	0.84
7.2511	0.908
7.29108	0.911
7.33105	0.851
7.37103	0.838
7.41101	0.838
7.45099	0.88
7.49096	0.913
7.53094	0.91
7.57092	0.915
7.6109	0.918
7.65088	0.92
7.69085	0.92
7.73083	0.87
7.77081	0.858
7.81079	0.906
7.85076	0.94
7.89074	0.95
7.93072	0.908
7.9707	0.883
8.01068	0.825
8.05065	0.73
8.09063	0.765
8.13061	0.85
8.17059	0.858
8.21057	0.775
8.25054	0.723
8.29052	0.648
8.3305	0.75
8.37048	0.803
8.41045	0.845
8.45043	0.861
8.49041	0.88
8.53039	0.875
8.57037	0.87
8.61034	0.813
8.65032	0.836
8.6903	0.752
8.73028	0.67
8.77026	0.803
8.81023	0.866
8.85021	0.881
8.89019	0.885
8.93017	0.883
8.97014	0.876
9.01012	0.868
9.0501	0.851
9.09008	0.831
9.13006	0.77
9.17003	0.833
9.21001	0.848
9.24999	0.866
9.28997	0.878
9.32995	0.883
9.36992	0.873
9.4099	0.841
9.44988	0.793
9.48986	0.752
9.52983	0.718
9.56981	0.678
9.60979	0.539
9.64977	0.642
9.68975	0.742
9.72972	0.77
9.7697	0.765
9.80968	0.782
9.84966	0.808
9.88963	0.83
9.92961	0.845
9.96959	0.853
10.0096	0.86
10.0495	0.861
10.0895	0.858
10.1295	0.846
10.1695	0.856
10.2095	0.865
10.2494	0.871
10.2894	0.88
10.3294	0.881
10.3694	0.883
10.4093	0.88
10.4493	0.87
10.4893	0.851
10.5293	0.83
10.5693	0.762
10.6092	0.708
10.6492	0.843
10.6892	0.893
10.7292	0.905
10.7691	0.9
10.8091	0.886
10.8491	0.875
10.8891	0.843
10.9291	0.738
10.969	0.534
11.009	0.217
11.049	0.409
11.089	0.667
11.1289	0.792
11.1689	0.85
11.2089	0.868
11.2489	0.875
11.2889	0.858
11.3288	0.83
11.3688	0.702
11.4088	0.673
11.4488	0.782
11.4887	0.801
11.5287	0.74
11.5687	0.564
11.6087	0.474
11.6487	0.337
11.6886	0.246
11.7286	0.442
11.7686	0.633
11.8086	0.702
11.8485	0.745
11.8885	0.755
11.9285	0.745
11.9685	0.707
12.0085	0.662
12.0484	0.6
12.0884	0.505
12.1284	0.314
12.1684	0.103
12.2083	0.049
12.2483	0.053
12.2883	0.166
12.3283	0.344
12.3683	0.494
12.4082	0.637
12.4482	0.695
12.4882	0.737
12.5282	0.782
12.5682	0.81
12.6081	0.821
12.6481	0.836
12.6881	0.848
12.7281	0.848
12.768	0.851
12.808	0.865
12.848	0.876
12.888	0.863
12.928	0.853
12.9679	0.836
13.0079	0.855
13.0479	0.868
13.0879	0.876
13.1278	0.873
13.1678	0.863
13.2078	0.856
13.2478	0.833
13.2878	0.798
13.3277	0.737
13.3677	0.687
13.4077	0.554
13.4477	0.331
13.4876	0.144
13.5276	0.056
13.5676	0.059
13.6076	0.148
13.6476	0.327
13.6875	0.502
13.7275	0.653
13.7675	0.7
13.8075	0.707
13.8474	0.713
13.8874	0.738
13.9274	0.788
13.9674	0.82
14.0074	0.853
14.0473	0.893
14.0873	0.893
14.1273	0.88
14.1673	0.811
14.2072	0.557
14.2472	0.402
14.2872	0.504
14.3272	0.722
14.3672	0.833
14.4071	0.865
14.4471	0.883
14.4871	0.888
14.5271	0.895
14.567	0.898
14.607	0.901
14.647	0.903
14.687	0.903
14.727	0.901
14.7669	0.898
14.8069	0.888
14.8469	0.873
14.8869	0.868
14.9268	0.873
14.9668	0.885
15.0068	0.89
15.0468	0.898
15.0868	0.905
15.1267	0.913
15.1667	0.921
15.2067	0.918
15.2467	0.92
15.2866	0.918
15.3266	0.921
15.3666	0.921
15.4066	0.921
15.4466	0.92
15.4865	0.921
15.5265	0.926
15.5665	0.93
15.6065	0.928
15.6464	0.93
15.6864	0.931
15.7264	0.931
15.7664	0.928
15.8064	0.928
15.8463	0.93
15.8863	0.921
