Infrared Spectrum: 2-(p-NONYLPHENOXY)-6-(p-PHENOXYBENZYL) PYRAZINE
Formula: C32 H36 N2 O2
State: LIQUID
Class: COBLENTZ
Instrument: Not specified, most likely a prism, grating, or hybrid spectrometer.
Sampling: TRANSMISSION
Path length: CAPILLARY
Resolution: 4
Origin: WYANDOTTE CHEMICALS CORP., WYANDOTTE, MICHIGAN, USA
MICROMETERS	TRANSMITTANCE
2.014	0.909
2.05489	0.903
2.09579	0.909
2.13668	0.914
2.17757	0.9
2.21847	0.897
2.25936	0.9
2.30026	0.907
2.34115	0.902
2.38204	0.895
2.42294	0.898
2.46383	0.902
2.50472	0.903
2.54562	0.905
2.58651	0.91
2.6274	0.917
2.6683	0.903
2.70919	0.907
2.75009	0.91
2.79098	0.893
2.83187	0.879
2.87277	0.869
2.91366	0.85
2.95455	0.838
2.99545	0.811
3.03634	0.79
3.07724	0.799
3.11813	0.782
3.15902	0.732
3.19992	0.722
3.24081	0.679
3.2817	0.658
3.3226	0.584
3.36349	0.346
3.40438	0.435
3.44528	0.557
3.48617	0.552
3.52707	0.795
3.56796	0.833
3.60885	0.861
3.64975	0.862
3.69064	0.871
3.73153	0.888
3.77243	0.89
3.81332	0.888
3.85421	0.891
3.89511	0.891
3.936	0.9
3.9769	0.895
4.01779	0.891
4.05868	0.891
4.09958	0.885
4.14047	0.883
4.18136	0.883
4.22226	0.876
4.26315	0.874
4.30404	0.902
4.34494	0.927
4.38583	0.931
4.42673	0.915
4.46762	0.912
4.50851	0.919
4.54941	0.919
4.5903	0.922
4.63119	0.919
4.67209	0.921
4.71298	0.922
4.75388	0.924
4.79477	0.921
4.83566	0.914
4.87656	0.903
4.91745	0.909
4.95834	0.897
4.99924	0.902
5.04013	0.902
5.08102	0.898
5.12192	0.902
5.16281	0.898
5.20371	0.89
5.2446	0.9
5.28549	0.888
5.32639	0.89
5.36728	0.893
5.40817	0.897
5.44907	0.903
5.48996	0.907
5.53085	0.898
5.57175	0.89
5.61264	0.881
5.65354	0.878
5.69443	0.879
5.73532	0.871
5.77622	0.861
5.81711	0.859
5.858	0.859
5.8989	0.835
5.93979	0.802
5.98068	0.749
6.02158	0.735
6.06247	0.758
6.10337	0.751
6.14426	0.636
6.18515	0.531
6.22605	0.367
6.26694	0.425
6.30783	0.641
6.34873	0.708
6.38962	0.708
6.43052	0.632
6.47141	0.608
6.5123	0.648
6.5532	0.499
6.59409	0.228
6.63498	0.325
6.67588	0.169
6.71677	0.351
6.75766	0.454
6.79856	0.373
6.83945	0.337
6.88035	0.409
6.92124	0.49
6.96213	0.555
7.00303	0.6
7.04392	0.495
7.08481	0.421
7.12571	0.516
7.1666	0.476
7.20749	0.262
7.24839	0.173
7.28928	0.246
7.33018	0.469
7.37107	0.605
7.41196	0.638
7.45286	0.617
7.49375	0.581
7.53464	0.584
7.57554	0.584
7.61643	0.583
7.65732	0.579
7.69822	0.56
7.73911	0.512
7.78001	0.488
7.8209	0.468
7.86179	0.457
7.90269	0.444
7.94358	0.334
7.98447	0.188
8.02537	0.149
8.06626	0.169
8.10716	0.202
8.14805	0.238
8.18894	0.214
8.22984	0.186
8.27073	0.329
8.31162	0.456
8.35252	0.53
8.39341	0.55
8.4343	0.425
8.4752	0.298
8.51609	0.368
8.55699	0.408
8.59788	0.44
8.63877	0.488
8.67967	0.519
8.72056	0.569
8.76145	0.612
8.80235	0.696
8.84324	0.732
8.88413	0.732
8.92503	0.699
8.96592	0.71
9.00682	0.732
9.04771	0.725
9.0886	0.725
9.1295	0.759
9.17039	0.765
9.21128	0.758
9.25218	0.742
9.29307	0.711
9.33396	0.74
9.37486	0.799
9.41575	0.814
9.45665	0.818
9.49754	0.818
9.53843	0.814
9.57933	0.806
9.62022	0.787
9.66111	0.771
9.70201	0.749
9.7429	0.679
9.7838	0.636
9.82469	0.521
9.86558	0.593
9.90648	0.653
9.94737	0.711
9.98826	0.756
10.0292	0.801
10.0701	0.814
10.1109	0.811
10.1518	0.795
10.1927	0.802
10.2336	0.809
10.2745	0.814
10.3154	0.811
10.3563	0.804
10.3972	0.789
10.4381	0.766
10.479	0.749
10.5199	0.77
10.5608	0.802
10.6017	0.818
10.6426	0.828
10.6835	0.835
10.7243	0.838
10.7652	0.833
10.8061	0.826
10.847	0.823
10.8879	0.802
10.9288	0.801
10.9697	0.795
11.0106	0.785
11.0515	0.775
11.0924	0.77
11.1333	0.759
11.1742	0.749
11.2151	0.734
11.256	0.728
11.2969	0.728
11.3378	0.74
11.3786	0.737
11.4195	0.711
11.4604	0.627
11.5013	0.595
11.5422	0.648
11.5831	0.68
11.624	0.677
11.6649	0.662
11.7058	0.641
11.7467	0.627
11.7876	0.619
11.8285	0.602
11.8694	0.584
11.9103	0.578
11.9512	0.574
11.9921	0.584
12.0329	0.61
12.0738	0.627
12.1147	0.648
12.1556	0.667
12.1965	0.672
12.2374	0.67
12.2783	0.677
12.3192	0.701
12.3601	0.728
12.401	0.735
12.4419	0.73
12.4828	0.723
12.5237	0.708
12.5646	0.691
12.6055	0.679
12.6464	0.66
12.6872	0.646
12.7281	0.648
12.769	0.653
12.8099	0.66
12.8508	0.655
12.8917	0.655
12.9326	0.648
12.9735	0.65
13.0144	0.636
13.0553	0.629
13.0962	0.614
13.1371	0.612
13.178	0.59
13.2189	0.569
13.2598	0.548
13.3006	0.54
13.3415	0.542
13.3824	0.567
13.4233	0.595
13.4642	0.62
13.5051	0.65
13.546	0.684
13.5869	0.715
13.6278	0.756
13.6687	0.777
13.7096	0.795
13.7505	0.804
13.7914	0.809
13.8323	0.818
13.8732	0.828
13.9141	0.838
13.9549	0.842
13.9958	0.849
14.0367	0.84
14.0776	0.84
14.1185	0.842
14.1594	0.83
14.2003	0.814
14.2412	0.795
14.2821	0.768
14.323	0.728
14.3639	0.679
14.4048	0.626
14.4457	0.574
14.4866	0.533
14.5275	0.523
14.5684	0.559
14.6092	0.643
14.6501	0.71
14.691	0.758
14.7319	0.789
14.7728	0.809
14.8137	0.823
14.8546	0.819
14.8955	0.828
14.9364	0.826
14.9773	0.828
15.0182	0.799
15.0591	0.787
15.1	0.814
15.1409	0.823
15.1818	0.828
15.2227	0.818
15.2635	0.813
15.3044	0.813
15.3453	0.802
15.3862	0.794
15.4271	0.801
15.468	0.79
15.5089	0.789
15.5498	0.789
15.5907	0.785
15.6316	0.782
15.6725	0.778
15.7134	0.778
15.7543	0.768
15.7952	0.768
15.8361	0.761
15.877	0.758
15.9178	0.751
15.9587	0.74
