Infrared Spectrum: 1,4-Benzenediamine, N,N'-bis(2-methyl-propyl)-,dihydrochloride
Formula: C14 H26 Cl2 N2
State: SOLID (KBr DISC, 0.8% WT.)
Class: COBLENTZ III
Instrument: PERKIN-ELMER 157
Sampling: TRANSMISSION
Resolution: 2
Origin: BRITISH PETROLEUM CO. LTD., ENGLAND
1/CM	TRANSMITTANCE
667	1.0254
676	1.0057
685	0.9746
694	0.9021
703	0.8601
712	0.9402
721	0.919
730	0.9039
739	0.8656
748	0.8039
757	0.4803
766	0.6187
775	0.3834
784	0.6344
793	0.665
802	0.7312
811	0.5587
820	0.5357
829	0.6019
838	0.713
847	0.6643
856	0.7106
865	0.4888
874	0.6211
883	0.463
892	0.4876
901	0.4983
910	0.667
919	0.7245
928	0.7172
937	0.6989
946	0.665
955	0.7207
964	0.6876
973	0.5296
982	0.5014
991	0.5409
1000	0.4716
1009	0.2721
1018	0.3781
1027	0.4615
1036	0.5715
1045	0.7317
1054	0.743
1063	0.7377
1072	0.7188
1081	0.6782
1090	0.5746
1099	0.221
1108	0.2973
1117	0.282
1126	0.4418
1135	0.3454
1144	0.4449
1153	0.6069
1162	0.6379
1171	0.5115
1180	0.6218
1189	0.5647
1198	0.2957
1207	0.5158
1216	0.6363
1225	0.6589
1234	0.6429
1243	0.5609
1252	0.4816
1261	0.4613
1270	0.4942
1279	0.3672
1288	0.2552
1297	0.3747
1306	0.3834
1315	0.3509
1324	0.362
1333	0.2487
1342	0.1908
1351	0.2303
1360	0.325
1369	0.2536
1378	0.112
1387	0.109
1396	0.0826
1405	0.1238
1414	0.1485
1423	0.1761
1432	0.1157
1441	0.1079
1450	0.0902
1459	0.0711
1468	0.0865
1477	0.2298
1486	0.2161
1495	0.2472
1504	0.1933
1513	0.131
1522	0.1728
1531	0.3494
1540	0.4274
1549	0.4254
1558	0.3039
1567	0.174
1576	0.1258
1585	0.2146
1594	0.4286
1603	0.4877
1612	0.4877
1621	0.4891
1630	0.5054
1639	0.5304
1648	0.5398
1657	0.5446
1666	0.5438
1675	0.5457
1684	0.5496
1693	0.5496
1702	0.5458
1711	0.5423
1720	0.5543
1729	0.5549
1738	0.5639
1747	0.5656
1756	0.5656
1765	0.5656
1774	0.5656
1783	0.564
1792	0.5577
1801	0.546
1810	0.5326
1819	0.5167
1828	0.5067
1837	0.5148
1846	0.5206
1855	0.5138
1864	0.5118
1873	0.5062
1882	0.4978
1891	0.4875
1900	0.4801
1909	0.4722
1918	0.4559
1927	0.424
1936	0.3891
1945	0.3662
1954	0.3886
1963	0.4284
1972	0.4342
1981	0.4281
1990	0.3978
1999	0.3616
2008	0.3394
2017	0.3542
2026	0.3929
2035	0.4052
2044	0.4052
2053	0.4018
2062	0.3938
2071	0.389
2080	0.388
2089	0.3869
2098	0.4014
2107	0.4229
2116	0.4295
2125	0.4289
2134	0.4269
2143	0.42
2152	0.4114
2161	0.403
2170	0.3961
2179	0.3888
2188	0.381
2197	0.3714
2206	0.3558
2215	0.3391
2224	0.3328
2233	0.3254
2242	0.3156
2251	0.3031
2260	0.2693
2269	0.2484
2278	0.2377
2287	0.2361
2296	0.2338
2305	0.2097
2314	0.1854
2323	0.1612
2332	0.1363
2341	0.1119
2350	0.0938
2359	0.073
2368	0.0581
2377	0.0513
2386	0.05
2395	0.0492
2404	0.0483
2413	0.0437
2422	0.0347
2431	0.0295
2440	0.0265
2449	0.024
2458	0.023
2467	0.0228
2476	0.0231
2485	0.024
2494	0.0258
2503	0.0282
2512	0.0291
2521	0.0284
2530	0.0233
2539	0.0138
2548	0.009
2557	0.0088
2566	0.0088
2575	0.0088
2584	0.0089
2593	0.009
2602	0.009
2611	0.0091
2620	0.0092
2629	0.0092
2638	0.0092
2647	0.0092
2656	0.0092
2665	0.0092
2674	0.0093
2683	0.0094
2692	0.0094
2701	0.0095
2710	0.0096
2719	0.0096
2728	0.0097
2737	0.0101
2746	0.0121
2755	0.0151
2764	0.0177
2773	0.0208
2782	0.0228
2791	0.0236
2800	0.024
2809	0.0242
2818	0.0242
2827	0.0241
2836	0.024
2845	0.0238
2854	0.0235
2863	0.0233
2872	0.0232
2881	0.0238
2890	0.0249
2899	0.0258
2908	0.0267
2917	0.0276
2926	0.0285
2935	0.0291
2944	0.0296
2953	0.0301
2962	0.0306
2971	0.0312
2980	0.0317
2989	0.0322
2998	0.0446
3007	0.0464
3016	0.0476
3025	0.0487
3034	0.0503
3043	0.0584
3052	0.0855
3061	0.1189
3070	0.1213
3079	0.1228
3088	0.135
3097	0.1529
3106	0.1544
3115	0.1553
3124	0.1666
3133	0.1845
3142	0.194
3151	0.204
3160	0.2094
3169	0.2115
3178	0.2126
3187	0.2133
3196	0.214
3205	0.2143
3214	0.2147
3223	0.2149
3232	0.2151
3241	0.215
3250	0.2149
3259	0.2148
3268	0.2142
3277	0.2136
3286	0.2128
3295	0.2115
3304	0.2098
3313	0.2078
3322	0.2056
3331	0.203
3340	0.2004
3349	0.1978
3358	0.1952
3367	0.1922
3376	0.1899
3385	0.1893
3394	0.189
3403	0.1888
3412	0.1886
3421	0.1885
3430	0.1886
3439	0.1886
3448	0.1886
3457	0.1887
3466	0.1887
3475	0.1891
3484	0.1903
3493	0.1923
3502	0.1961
3511	0.2007
3520	0.2044
3529	0.2069
3538	0.2088
3547	0.2098
3556	0.2105
3565	0.2111
3574	0.2117
3583	0.212
3592	0.2123
3601	0.2125
3610	0.2128
3619	0.2131
3628	0.2132
3637	0.2134
3646	0.2136
3655	0.2138
3664	0.2139
3673	0.2141
3682	0.2144
3691	0.2146
3700	0.2148
3709	0.215
3718	0.2153
3727	0.2155
3736	0.2156
3745	0.2157
3754	0.2158
3763	0.2156
3772	0.2151
3781	0.2137
3790	0.2124
3799	0.211
3808	0.2105
3817	0.2109
3826	0.2109
3835	0.2109
3844	0.2109
3853	0.2108
3862	0.2098
3871	0.2078
3880	0.2057
3889	0.2036
3898	0.2012
3907	0.1989
3916	0.1967
3925	0.1947
3934	0.193
3943	0.1914
3952	0.1905
3961	0.1903
3970	0.19
3979	0.1897
3988	0.1895
3997	0.1893
