Infrared Spectrum: 9-Octadecenoic acid, tetrahydrofurfuryl ester
Formula: C23 H42 O3
State: SOLUTION (10% CCl4 FOR 2.7-7.5, 10% CS2 FOR 7.5-26 MICRON) VS SOLVENT
Class: COBLENTZ III
Instrument: DOW KBr FOREPRISM-GRATING
Instrument parameters: BLAZED AT 3.5, 12.0, 20.0 MICRON AND CHANGED AT 5.0, 7.5, 14.9 MICRON
Sampling: TRANSMISSION
Path length: 0.011 CM, 0.011 CM
Resolution: 2
Origin: DOW CHEMICAL COMPANY
1/CM	TRANSMITTANCE
3794	0.8605
3785	0.8613
3776	0.8623
3767	0.8634
3758	0.8642
3749	0.864
3740	0.8578
3731	0.8578
3722	0.8614
3713	0.8646
3704	0.8657
3695	0.8661
3686	0.8654
3677	0.8578
3668	0.8552
3659	0.856
3650	0.8618
3641	0.8625
3632	0.8577
3623	0.8601
3614	0.8571
3605	0.8524
3596	0.8498
3587	0.8494
3578	0.8513
3569	0.8548
3560	0.8546
3551	0.8531
3542	0.8514
3533	0.8484
3524	0.8456
3515	0.8448
3506	0.8452
3497	0.8451
3488	0.8441
3479	0.8421
3470	0.8393
3461	0.8356
3452	0.8327
3443	0.8317
3434	0.8327
3425	0.8357
3416	0.8393
3407	0.842
3398	0.8446
3389	0.8465
3380	0.8484
3371	0.8502
3362	0.8513
3353	0.8523
3344	0.8533
3335	0.8542
3326	0.855
3317	0.8557
3308	0.8563
3299	0.8568
3290	0.8575
3281	0.858
3272	0.8587
3263	0.8594
3254	0.8602
3245	0.8604
3236	0.8601
3227	0.8583
3218	0.856
3209	0.8533
3200	0.8508
3191	0.8494
3182	0.8485
3173	0.8477
3164	0.8468
3155	0.8459
3146	0.8448
3137	0.8435
3128	0.8415
3119	0.8391
3110	0.8359
3101	0.8321
3092	0.8281
3083	0.8239
3074	0.8182
3065	0.8107
3056	0.8018
3047	0.7921
3038	0.7806
3029	0.7658
3020	0.7318
3011	0.56
3002	0.504
2993	0.4551
2984	0.2508
2975	0.1923
2966	0.1162
2957	0.0915
2948	0.0804
2939	0.0383
2930	0.0131
2921	0.0155
2912	0.0456
2903	0.0819
2894	0.1721
2885	0.2464
2876	0.1918
2867	0.1216
2858	0.0514
2849	0.156
2840	0.4225
2831	0.5115
2822	0.6362
2813	0.6978
2804	0.7306
2795	0.7556
2786	0.7744
2777	0.7896
2768	0.7993
2759	0.8076
2750	0.8104
2741	0.8112
2732	0.8118
2723	0.8128
2714	0.8137
2705	0.814
2696	0.8143
2687	0.8143
2678	0.8137
2669	0.8137
2660	0.8146
2651	0.8178
2642	0.8213
2633	0.8249
2624	0.8286
2615	0.8323
2606	0.836
2597	0.8396
2588	0.8431
2579	0.8467
2570	0.8502
2561	0.8534
2552	0.8564
2543	0.8593
2534	0.8623
2525	0.8652
2516	0.8678
2507	0.8704
2498	0.873
2489	0.8755
2480	0.877
2471	0.8785
2462	0.88
2453	0.8813
2444	0.881
2435	0.8807
2426	0.8802
2417	0.8796
2408	0.8789
2399	0.8783
2390	0.8783
2381	0.8792
2372	0.8808
2363	0.8811
2354	0.8801
2345	0.8801
2336	0.8805
2327	0.8808
2318	0.8767
2309	0.8731
2300	0.8725
2291	0.8751
2282	0.8775
2273	0.8795
2264	0.8808
2255	0.8813
2246	0.8818
2237	0.8825
2228	0.8832
2219	0.8835
2210	0.8837
2201	0.8842
2192	0.8853
2183	0.8915
2174	0.8923
2165	0.8847
2156	0.886
2147	0.8871
2138	0.8868
2129	0.8857
2120	0.8856
2111	0.8853
2102	0.8847
2093	0.8839
2084	0.8835
2075	0.8835
2066	0.8834
2057	0.8832
2048	0.883
2039	0.8825
2030	0.8814
2021	0.8805
2012	0.8816
2003	0.8838
1994	0.8838
1985	0.8844
1976	0.8856
1967	0.8863
1958	0.8868
1949	0.8871
1940	0.8875
1931	0.8875
1922	0.8875
1913	0.8873
1904	0.887
1895	0.8865
1886	0.8857
1877	0.8849
1868	0.8845
1859	0.8844
1850	0.8825
1841	0.8804
1832	0.8768
1823	0.8714
1814	0.8649
1805	0.8567
1796	0.8367
1787	0.8067
1778	0.7812
1769	0.7597
1760	0.7158
1751	0.4337
1742	0.1145
1733	0.0391
1724	0.1812
1715	0.3725
1706	0.4401
1697	0.5546
1688	0.7058
1679	0.7669
1670	0.7914
1661	0.8088
1652	0.8137
1643	0.8231
1634	0.8358
1625	0.8461
1616	0.8559
1607	0.8637
1598	0.8682
1589	0.8721
1580	0.8767
1571	0.8793
1562	0.881
1553	0.8821
1544	0.8823
1535	0.8799
1526	0.8728
1517	0.8674
1508	0.8581
1499	0.8427
1490	0.8195
1481	0.7843
1472	0.516
1463	0.3379
1454	0.3954
1445	0.494
1436	0.5672
1427	0.6475
1418	0.6195
1409	0.6694
1400	0.6514
1391	0.6009
1382	0.555
1373	0.5505
1364	0.5178
1355	0.5453
1346	0.5747
1337	0.5968
1328	0.6012
1319	0.5899
1310	0.5621
1301	0.5414
1292	0.53
1283	0.5059
1274	0.4912
1265	0.4864
1256	0.4609
1247	0.4249
1238	0.4
1229	0.4216
1220	0.4395
1211	0.438
1202	0.4227
1193	0.3684
1184	0.3147
1175	0.2524
1166	0.2291
1157	0.2722
1148	0.3747
1139	0.4536
1130	0.4977
1121	0.5231
1112	0.4982
1103	0.4707
1094	0.3673
1085	0.2997
1076	0.3158
1067	0.4155
1058	0.541
1049	0.5814
1040	0.5781
1031	0.514
1022	0.4209
1013	0.4928
1004	0.5717
995	0.5712
986	0.5705
977	0.6133
968	0.6236
959	0.6615
950	0.7011
941	0.7118
932	0.7112
923	0.7031
914	0.6671
905	0.6878
896	0.6994
887	0.7053
878	0.7099
869	0.7156
860	0.7236
851	0.7456
842	0.7636
833	0.7657
824	0.7668
815	0.7845
806	0.8017
797	0.8155
788	0.8244
779	0.8267
770	0.8168
761	0.8105
752	0.8034
743	0.7831
734	0.7404
725	0.6638
716	0.6653
707	0.7317
698	0.7531
689	0.7678
680	0.7851
671	0.8042
662	0.8292
653	0.8266
644	0.8278
635	0.833
626	0.8342
617	0.8282
608	0.8231
599	0.8197
590	0.8172
581	0.8164
572	0.8198
563	0.8264
554	0.8325
545	0.8363
536	0.8331
527	0.827
518	0.8255
509	0.8262
500	0.8257
491	0.7975
482	0.8008
473	0.7985
464	0.7971
455	0.8007
446	0.8047
437	0.8069
428	0.8087
419	0.8096
410	0.8104
401	0.813
