Infrared Spectrum: PHOSPHONIC ACID, CHLORO, CYCLIC 2-ETHYL-2-HYDROXY-METHYLTRIMETHYLENE ESTER
Formula: C6 H12 Cl O4 P
Class: COBLENTZ
Instrument: Not specified, most likely a prism, grating, or hybrid spectrometer.
Sampling: TRANSMISSION
Path length: SMEAR
Resolution: 4
Origin: TENNESSEE EASTMAN COMPANY, RESEARCH LABORATORIES
MICROMETERS	TRANSMITTANCE
1.986	0.965
2.02684	0.964
2.06768	0.958
2.10851	0.958
2.14935	0.958
2.19019	0.958
2.23103	0.953
2.27187	0.94
2.3127	0.94
2.35354	0.941
2.39438	0.943
2.43522	0.946
2.47606	0.95
2.51689	0.952
2.55773	0.952
2.59857	0.952
2.63941	0.952
2.68025	0.948
2.72108	0.941
2.76192	0.921
2.80276	0.875
2.8436	0.813
2.88444	0.727
2.92527	0.623
2.96611	0.643
3.00695	0.702
3.04779	0.76
3.08863	0.808
3.12946	0.835
3.1703	0.864
3.21114	0.88
3.25198	0.885
3.29282	0.878
3.33365	0.767
3.37449	0.457
3.41533	0.563
3.45617	0.599
3.49701	0.758
3.53785	0.832
3.57868	0.854
3.61952	0.861
3.66036	0.871
3.7012	0.878
3.74204	0.888
3.78287	0.893
3.82371	0.898
3.86455	0.904
3.90539	0.91
3.94623	0.914
3.98706	0.916
4.0279	0.912
4.06874	0.895
4.10958	0.851
4.15042	0.801
4.19125	0.789
4.23209	0.849
4.27293	0.869
4.31377	0.876
4.35461	0.904
4.39544	0.924
4.43628	0.933
4.47712	0.938
4.51796	0.941
4.5588	0.943
4.59963	0.945
4.64047	0.945
4.68131	0.945
4.72215	0.946
4.76299	0.948
4.80382	0.948
4.84466	0.952
4.8855	0.953
4.92634	0.953
4.96718	0.955
5.00801	0.962
5.04885	0.962
5.08969	0.96
5.13053	0.955
5.17137	0.95
5.2122	0.95
5.25304	0.95
5.29388	0.948
5.33472	0.941
5.37556	0.936
5.41639	0.941
5.45723	0.941
5.49807	0.938
5.53891	0.934
5.57975	0.934
5.62058	0.934
5.66142	0.94
5.70226	0.94
5.7431	0.931
5.78394	0.928
5.82477	0.933
5.86561	0.931
5.90645	0.907
5.94729	0.914
5.98813	0.902
6.02896	0.892
6.0698	0.881
6.11064	0.88
6.15148	0.886
6.19232	0.893
6.23316	0.917
6.27399	0.926
6.31483	0.934
6.35567	0.922
6.39651	0.924
6.43735	0.924
6.47818	0.905
6.51902	0.921
6.55986	0.9
6.6007	0.905
6.64154	0.888
6.68237	0.808
6.72321	0.633
6.76405	0.529
6.80489	0.489
6.84573	0.619
6.88656	0.669
6.9274	0.731
6.96824	0.821
7.00908	0.842
7.04992	0.844
7.09075	0.842
7.13159	0.806
7.17243	0.755
7.21327	0.758
7.25411	0.809
7.29494	0.832
7.33578	0.82
7.37662	0.806
7.41746	0.821
7.4583	0.811
7.49913	0.782
7.53997	0.753
7.58081	0.726
7.62165	0.628
7.66249	0.429
7.70332	0.272
7.74416	0.208
7.785	0.184
7.82584	0.183
7.86668	0.191
7.90751	0.207
7.94835	0.222
7.98919	0.258
8.03003	0.323
8.07087	0.388
8.1117	0.464
8.15254	0.517
8.19338	0.57
8.23422	0.602
8.27506	0.611
8.31589	0.606
8.35673	0.616
8.39757	0.619
8.43841	0.621
8.47925	0.636
8.52008	0.648
8.56092	0.65
8.60176	0.643
8.6426	0.642
8.68344	0.664
8.72427	0.676
8.76511	0.674
8.80595	0.643
8.84679	0.636
8.88763	0.628
8.92847	0.601
8.9693	0.559
9.01014	0.477
9.05098	0.445
9.09182	0.441
9.13266	0.393
9.17349	0.333
9.21433	0.258
9.25517	0.214
9.29601	0.198
9.33685	0.208
9.37768	0.217
9.41852	0.222
9.45936	0.224
9.5002	0.226
9.54104	0.222
9.58187	0.214
9.62271	0.188
9.66355	0.171
9.70439	0.179
9.74523	0.198
9.78606	0.215
9.8269	0.231
9.86774	0.244
9.90858	0.253
9.94942	0.263
9.99025	0.258
10.0311	0.238
10.0719	0.215
10.1128	0.202
10.1536	0.183
10.1944	0.174
10.2353	0.164
10.2761	0.154
10.317	0.15
10.3578	0.152
10.3986	0.164
10.4395	0.19
10.4803	0.253
10.5211	0.313
10.562	0.363
10.6028	0.405
10.6437	0.445
10.6845	0.482
10.7253	0.518
10.7662	0.566
10.807	0.602
10.8479	0.633
10.8887	0.654
10.9295	0.669
10.9704	0.678
11.0112	0.679
11.052	0.667
11.0929	0.654
11.1337	0.648
11.1746	0.643
11.2154	0.636
11.2562	0.636
11.2971	0.628
11.3379	0.616
11.3787	0.602
11.4196	0.582
11.4604	0.563
11.5013	0.535
11.5421	0.525
11.5829	0.522
11.6238	0.523
11.6646	0.522
11.7055	0.489
11.7463	0.453
11.7871	0.416
11.828	0.386
11.8688	0.375
11.9096	0.38
11.9505	0.412
11.9913	0.453
12.0322	0.5
12.073	0.534
12.1138	0.568
12.1547	0.595
12.1955	0.613
12.2363	0.623
12.2772	0.628
12.318	0.626
12.3589	0.602
12.3997	0.57
12.4405	0.525
12.4814	0.486
12.5222	0.465
12.563	0.458
12.6039	0.467
12.6447	0.489
12.6856	0.508
12.7264	0.525
12.7672	0.539
12.8081	0.558
12.8489	0.578
12.8898	0.609
12.9306	0.635
12.9714	0.666
13.0123	0.684
13.0531	0.707
13.0939	0.726
13.1348	0.734
13.1756	0.736
13.2165	0.738
13.2573	0.732
13.2981	0.732
13.339	0.732
13.3798	0.732
13.4206	0.732
13.4615	0.722
13.5023	0.707
13.5432	0.688
13.584	0.659
13.6248	0.631
13.6657	0.618
13.7065	0.606
13.7474	0.611
13.7882	0.636
13.829	0.667
13.8699	0.695
13.9107	0.717
13.9515	0.738
13.9924	0.748
14.0332	0.76
14.0741	0.767
14.1149	0.773
14.1557	0.777
14.1966	0.779
14.2374	0.78
14.2782	0.784
14.3191	0.784
14.3599	0.787
14.4008	0.791
14.4416	0.794
14.4824	0.794
14.5233	0.796
14.5641	0.797
14.605	0.801
14.6458	0.801
14.6866	0.801
14.7275	0.801
14.7683	0.801
14.8091	0.797
14.85	0.796
14.8908	0.787
14.9317	0.782
14.9725	0.777
15.0133	0.777
15.0542	0.777
15.095	0.775
15.1358	0.77
15.1767	0.767
15.2175	0.761
15.2584	0.756
15.2992	0.753
15.34	0.751
15.3809	0.746
15.4217	0.744
15.4625	0.743
15.5034	0.743
15.5442	0.741
15.5851	0.739
15.6259	0.738
15.6667	0.732
15.7076	0.727
15.7484	0.722
15.7893	0.72
15.8301	0.719
15.8709	0.717
15.9118	0.717
