Infrared Spectrum: 3H-V-TRIAZOLO[4,5-d]PYRIMIDINE, 5-AMINO-3-BUTYL-7-HYDROXY-
Formula: C8 H12 N6 O
State: SOLID (2.9 mg / 650 mg KBr DISC)
Class: COBLENTZ III
Instrument: PERKIN-ELMER 21 (GRATING)
Instrument parameters: FILTER CHANGE AT 1020 CM^-^1
Sampling: TRANSMISSION
Resolution: 2
Origin: SOUTHERN RESEARCH INSTITUTE (W.C. COBURN, JR.)
1/CM	TRANSMITTANCE
605.825	0.616
614.799	0.6151
623.774	0.6111
632.748	0.6002
641.722	0.5738
650.697	0.576
659.671	0.595
668.645	0.612
677.62	0.609
686.594	0.5386
695.568	0.3647
704.543	0.546
713.517	0.5307
722.491	0.5811
731.466	0.6112
740.44	0.681
749.415	0.6095
758.389	0.6048
767.363	0.7436
776.338	0.741
785.312	0.6269
794.286	0.7459
803.261	0.809
812.235	0.8136
821.209	0.805
830.184	0.842
839.158	0.84
848.132	0.8124
857.107	0.7553
866.081	0.6741
875.055	0.8479
884.03	0.851
893.004	0.851
901.978	0.851
910.953	0.848
919.927	0.8391
928.901	0.8199
937.876	0.8255
946.85	0.838
955.824	0.836
964.799	0.832
973.773	0.8278
982.747	0.8178
991.722	0.7999
1000.7	0.7858
1009.67	0.7342
1018.64	0.5975
1027.62	0.7214
1036.59	0.7975
1045.57	0.788
1054.54	0.766
1063.52	0.794
1072.49	0.7885
1081.47	0.7739
1090.44	0.7142
1099.41	0.777
1108.39	0.7641
1117.36	0.746
1126.34	0.7429
1135.31	0.73
1144.29	0.7033
1153.26	0.6496
1162.23	0.6068
1171.21	0.6678
1180.18	0.6666
1189.16	0.6365
1198.13	0.4838
1207.11	0.458
1216.08	0.739
1225.05	0.739
1234.03	0.732
1243	0.729
1251.98	0.7021
1260.95	0.648
1269.93	0.5964
1278.9	0.519
1287.88	0.606
1296.85	0.577
1305.82	0.5277
1314.8	0.5944
1323.77	0.5516
1332.75	0.5295
1341.72	0.5194
1350.7	0.4746
1359.67	0.5321
1368.64	0.602
1377.62	0.5817
1386.59	0.475
1395.57	0.6653
1404.54	0.779
1413.52	0.7701
1422.49	0.7563
1431.46	0.6962
1440.44	0.6742
1449.41	0.692
1458.39	0.651
1467.36	0.631
1476.34	0.6725
1485.31	0.676
1494.29	0.6517
1503.26	0.6237
1512.23	0.5752
1521.21	0.523
1530.18	0.4189
1539.16	0.314
1548.13	0.319
1557.11	0.3704
1566.08	0.1909
1575.05	0.055
1584.03	0.102
1593	0.244
1601.98	0.1484
1610.95	0.095
1619.93	0.3083
1628.9	0.4236
1637.87	0.4205
1646.85	0.343
1655.82	0.1267
1664.8	0.0459
1673.77	0.1617
1682.75	0.3091
1691.72	0.2219
1700.7	0.0965
1709.67	0.0347
1718.64	0.232
1727.62	0.3829
1736.59	0.5006
1745.57	0.6019
1754.54	0.7049
1763.52	0.7523
1772.49	0.7885
1781.46	0.8133
1790.44	0.842
1799.41	0.8521
1808.39	0.862
1817.36	0.866
1826.34	0.8758
1835.31	0.881
1844.28	0.8937
1853.26	0.901
1862.23	0.908
1871.21	0.909
1880.18	0.908
1889.16	0.9136
1898.13	0.9186
1907.1	0.9218
1916.08	0.9252
1925.05	0.932
1934.03	0.934
1943	0.934
1951.98	0.935
1960.95	0.937
1969.93	0.937
1978.9	0.937
1987.87	0.936
1996.85	0.935
2005.82	0.934
2014.8	0.932
2023.77	0.9289
2032.75	0.928
2041.72	0.928
2050.69	0.928
2059.67	0.928
2068.64	0.9291
2077.62	0.9315
2086.59	0.9365
2095.57	0.94
2104.54	0.9455
2113.51	0.946
2122.49	0.946
2131.46	0.946
2140.44	0.946
2149.41	0.947
2158.39	0.947
2167.36	0.947
2176.34	0.947
2185.31	0.946
2194.28	0.9405
2203.26	0.941
2212.23	0.941
2221.21	0.947
2230.18	0.9479
2239.16	0.945
2248.13	0.9415
2257.1	0.94
2266.08	0.9355
2275.05	0.927
2284.03	0.923
2293	0.923
2301.98	0.932
2310.95	0.9401
2319.92	0.9481
2328.9	0.95
2337.87	0.95
2346.85	0.95
2355.82	0.95
2364.8	0.9479
2373.77	0.9415
2382.75	0.9305
2391.72	0.9289
2400.69	0.93
2409.67	0.931
2418.64	0.9315
2427.62	0.928
2436.59	0.923
2445.57	0.923
2454.54	0.923
2463.51	0.9239
2472.49	0.9261
2481.46	0.926
2490.44	0.926
2499.41	0.923
2508.39	0.921
2517.36	0.9149
2526.33	0.914
2535.31	0.9125
2544.28	0.9099
2553.26	0.911
2562.23	0.911
2571.21	0.911
2580.18	0.911
2589.16	0.911
2598.13	0.911
2607.1	0.909
2616.08	0.9044
2625.05	0.8975
2634.03	0.8904
2643	0.885
2651.98	0.8835
2660.95	0.88
2669.92	0.8745
2678.9	0.8669
2687.87	0.861
2696.85	0.857
2705.82	0.857
2714.8	0.856
2723.77	0.852
2732.74	0.8489
2741.72	0.845
2750.69	0.836
2759.67	0.8247
2768.64	0.8114
2777.62	0.805
2786.59	0.802
2795.57	0.799
2804.54	0.7955
2813.51	0.791
2822.49	0.7845
2831.46	0.7765
2840.44	0.7695
2849.41	0.7609
2858.39	0.7515
2867.36	0.7435
2876.33	0.7309
2885.31	0.7209
2894.28	0.6854
2903.26	0.6588
2912.23	0.6291
2921.21	0.5962
2930.18	0.5688
2939.15	0.5525
2948.13	0.5378
2957.1	0.534
2966.08	0.5641
2975.05	0.6213
2984.03	0.6531
2993	0.6525
3001.97	0.6409
3010.95	0.6305
3019.92	0.6195
3028.9	0.6105
3037.87	0.5884
3046.85	0.5754
3055.82	0.5548
3064.8	0.5355
3073.77	0.5115
3082.74	0.4754
3091.72	0.4337
3100.69	0.3954
3109.67	0.3628
3118.64	0.3263
3127.62	0.3014
3136.59	0.2895
3145.56	0.289
3154.54	0.2976
3163.51	0.3207
3172.49	0.3487
3181.46	0.3801
3190.44	0.3996
3199.41	0.402
3208.38	0.399
3217.36	0.3889
3226.33	0.3799
3235.31	0.3695
3244.28	0.3515
3253.26	0.3365
3262.23	0.329
3271.21	0.3249
3280.18	0.3185
3289.15	0.3145
3298.13	0.3085
3307.1	0.3025
3316.08	0.2945
3325.05	0.2885
3334.03	0.2871
3343	0.2946
3351.97	0.3116
3360.95	0.3375
3369.92	0.3678
3378.9	0.4078
3387.87	0.4555
3396.85	0.4997
3405.82	0.5272
3414.79	0.566
3423.77	0.5992
3432.74	0.6272
3441.72	0.6592
3450.69	0.6832
3459.67	0.7051
3468.64	0.7211
3477.62	0.7385
3486.59	0.7475
3495.56	0.7615
3504.54	0.7731
3513.51	0.791
3522.49	0.8035
3531.46	0.8157
3540.44	0.8252
3549.41	0.8365
3558.38	0.8441
3567.36	0.85
3576.33	0.857
3585.31	0.8626
3594.28	0.8741
3603.26	0.881
3612.23	0.8885
3621.2	0.9002
3630.18	0.9135
3639.15	0.9211
3648.13	0.9265
3657.1	0.934
3666.08	0.9355
3675.05	0.9381
3684.03	0.939
3693	0.944
3701.97	0.944
3710.95	0.944
3719.92	0.9465
3728.9	0.947
3737.87	0.947
3746.85	0.947
3755.82	0.9495
3764.79	0.9521
3773.77	0.9551
3782.74	0.959
3791.72	0.9595
3800.69	0.96
3809.67	0.9569
3818.64	0.95
3827.61	0.946
3836.59	0.945
3845.56	0.944
3854.54	0.944
3863.51	0.9445
3872.49	0.946
3881.46	0.946
3890.44	0.946
3899.41	0.946
3908.38	0.946
3917.36	0.946
3926.33	0.945
3935.31	0.9429
3944.28	0.942
3953.26	0.942
3962.23	0.9415
3971.2	0.941
3980.18	0.941
3989.15	0.941
3998.13	0.939
4007.1	0.936
4016.08	0.936
