Infrared Spectrum: TRICHLORO ACETIC ACID, TRIPROPYLENE GLYCOL DIESTER
Formula: C13 H18 Cl6 O6
State: SOLUTION (10% CCl4 FOR 5000-1330, 10% CS2 FOR 1330-625 CM^-^1)
Class: COBLENTZ
Instrument: Not specified, most likely a prism, grating, or hybrid spectrometer.
Sampling: TRANSMISSION
Path length: 0.0107 CM, 0.0100 CM
Resolution: 4
Origin: DOW CHEMICAL COMPANY
MICROMETERS	TRANSMITTANCE
2.041	0.834
2.08216	0.836
2.12331	0.836
2.16447	0.836
2.20563	0.832
2.24678	0.829
2.28794	0.825
2.32909	0.831
2.37025	0.834
2.41141	0.836
2.45256	0.839
2.49372	0.839
2.53488	0.844
2.57603	0.853
2.61719	0.858
2.65835	0.858
2.6995	0.858
2.74066	0.854
2.78181	0.839
2.82297	0.829
2.86413	0.824
2.90528	0.834
2.94644	0.831
2.9876	0.831
3.02875	0.831
3.06991	0.829
3.11107	0.829
3.15222	0.831
3.19338	0.831
3.23454	0.829
3.27569	0.807
3.31685	0.686
3.358	0.552
3.39916	0.59
3.44032	0.581
3.48147	0.718
3.52263	0.781
3.56379	0.788
3.60494	0.803
3.6461	0.82
3.68726	0.837
3.72841	0.837
3.76957	0.837
3.81072	0.831
3.85188	0.829
3.89304	0.832
3.93419	0.839
3.97535	0.848
4.01651	0.848
4.05766	0.848
4.09882	0.858
4.13998	0.86
4.18113	0.86
4.22229	0.86
4.26344	0.863
4.3046	0.872
4.34576	0.868
4.38691	0.87
4.42807	0.878
4.46923	0.882
4.51038	0.882
4.55154	0.882
4.5927	0.882
4.63385	0.882
4.67501	0.882
4.71616	0.882
4.75732	0.882
4.79848	0.882
4.83963	0.88
4.88079	0.882
4.92195	0.882
4.9631	0.882
5.00426	0.882
5.04542	0.882
5.08657	0.878
5.12773	0.88
5.16888	0.88
5.21004	0.878
5.2512	0.878
5.29235	0.877
5.33351	0.877
5.37467	0.87
5.41582	0.853
5.45698	0.837
5.49814	0.805
5.53929	0.75
5.58045	0.558
5.62161	0.163
5.66276	0.105
5.70392	0.395
5.74507	0.619
5.78623	0.732
5.82739	0.786
5.86854	0.81
5.9097	0.813
5.95086	0.82
5.99201	0.834
6.03317	0.837
6.07433	0.839
6.11548	0.841
6.15664	0.831
6.19779	0.79
6.23895	0.715
6.28011	0.667
6.32126	0.643
6.36242	0.604
6.40358	0.546
6.44473	0.511
6.48589	0.554
6.52705	0.629
6.5682	0.689
6.60936	0.725
6.65051	0.767
6.69167	0.788
6.73283	0.769
6.77398	0.703
6.81514	0.641
6.8563	0.598
6.89745	0.697
6.93861	0.769
6.97977	0.791
7.02092	0.783
7.06208	0.764
7.10323	0.737
7.14439	0.67
7.18555	0.563
7.2267	0.481
7.26786	0.558
7.30902	0.663
7.35017	0.66
7.39133	0.629
7.43249	0.638
7.47364	0.677
7.5148	0.682
7.55595	0.674
7.59711	0.665
7.63827	0.627
7.67942	0.587
7.72058	0.529
7.76174	0.484
7.80289	0.416
7.84405	0.365
7.88521	0.317
7.92636	0.203
7.96752	0.088
8.00868	0.032
8.04983	0.032
8.09099	0.069
8.13214	0.105
8.1733	0.242
8.21446	0.409
8.25561	0.51
8.29677	0.573
8.33793	0.607
8.37908	0.622
8.42024	0.604
8.4614	0.554
8.50255	0.489
8.54371	0.438
8.58486	0.401
8.62602	0.385
8.66718	0.382
8.70833	0.377
8.74949	0.375
8.79065	0.353
8.8318	0.331
8.87296	0.303
8.91412	0.279
8.95527	0.261
8.99643	0.255
9.03758	0.254
9.07874	0.259
9.1199	0.269
9.16105	0.3
9.20221	0.343
9.24337	0.363
9.28452	0.375
9.32568	0.38
9.36684	0.383
9.40799	0.409
9.44915	0.436
9.4903	0.467
9.53146	0.522
9.57262	0.587
9.61377	0.616
9.65493	0.617
9.69609	0.609
9.73724	0.576
9.7784	0.534
9.81956	0.484
9.86071	0.438
9.90187	0.395
9.94302	0.37
9.98418	0.389
10.0253	0.43
10.0665	0.46
10.1077	0.469
10.1488	0.45
10.19	0.414
10.2311	0.409
10.2723	0.513
10.3134	0.593
10.3546	0.639
10.3957	0.677
10.4369	0.692
10.4781	0.703
10.5192	0.701
10.5604	0.68
10.6015	0.668
10.6427	0.656
10.6838	0.648
10.725	0.648
10.7662	0.653
10.8073	0.655
10.8485	0.656
10.8896	0.656
10.9308	0.65
10.9719	0.646
11.0131	0.643
11.0542	0.638
11.0954	0.638
11.1366	0.639
11.1777	0.641
11.2189	0.631
11.26	0.61
11.3012	0.588
11.3423	0.54
11.3835	0.479
11.4247	0.402
11.4658	0.344
11.507	0.325
11.5481	0.327
11.5893	0.354
11.6304	0.378
11.6716	0.395
11.7127	0.392
11.7539	0.378
11.7951	0.349
11.8362	0.296
11.8774	0.235
11.9185	0.197
11.9597	0.194
12.0008	0.199
12.042	0.192
12.0832	0.124
12.1243	0.092
12.1655	0.121
12.2066	0.225
12.2478	0.295
12.2889	0.319
12.3301	0.32
12.3713	0.339
12.4124	0.414
12.4536	0.494
12.4947	0.554
12.5359	0.595
12.577	0.627
12.6182	0.653
12.6593	0.67
12.7005	0.682
12.7417	0.689
12.7828	0.691
12.824	0.694
12.8651	0.696
12.9063	0.696
12.9474	0.692
12.9886	0.686
13.0298	0.682
13.0709	0.674
13.1121	0.655
13.1532	0.624
13.1944	0.59
13.2355	0.535
13.2767	0.496
13.3178	0.481
13.359	0.482
13.4002	0.496
13.4413	0.523
13.4825	0.551
13.5236	0.576
13.5648	0.609
13.6059	0.626
13.6471	0.631
13.6883	0.633
13.7294	0.631
13.7706	0.627
13.8117	0.621
13.8529	0.616
13.894	0.612
13.9352	0.604
13.9764	0.595
14.0175	0.588
14.0587	0.578
14.0998	0.569
14.141	0.558
14.1821	0.544
14.2233	0.523
14.2644	0.506
14.3056	0.484
14.3468	0.459
14.3879	0.43
14.4291	0.389
14.4702	0.337
14.5114	0.286
14.5525	0.221
14.5937	0.158
14.6349	0.104
14.676	0.069
14.7172	0.056
14.7583	0.075
14.7995	0.116
14.8406	0.182
14.8818	0.226
14.9229	0.267
14.9641	0.317
15.0053	0.368
15.0464	0.402
15.0876	0.412
15.1287	0.418
15.1699	0.421
15.211	0.423
15.2522	0.421
15.2934	0.419
15.3345	0.418
15.3757	0.421
15.4168	0.421
15.458	0.423
15.4991	0.418
15.5403	0.416
15.5814	0.414
15.6226	0.414
15.6638	0.414
15.7049	0.412
15.7461	0.411
15.7872	0.411
15.8284	0.411
15.8695	0.412
15.9107	0.414
