Infrared Spectrum: Ethomeen C/15 hydrochloride
Formula: C22-24 H48-52 Cl N O5
State: LIQUID (NEAT)
Class: COBLENTZ
Instrument: PERKIN-ELMER 157
Sampling: TRANSMISSION
Resolution: 2
Origin: BRITISH PETROLEUM CO. LTD., ENGLAND
1/CM	TRANSMITTANCE
668	0.3225
677	0.3458
686	0.3541
695	0.3708
704	0.3688
713	0.3328
722	0.2793
731	0.3376
740	0.3874
749	0.4149
758	0.4363
767	0.4493
776	0.4658
785	0.4681
794	0.461
803	0.4376
812	0.417
821	0.4058
830	0.3983
839	0.4098
848	0.4311
857	0.4339
866	0.3878
875	0.3249
884	0.2561
893	0.2542
902	0.3164
911	0.3147
920	0.2725
929	0.2511
938	0.2523
947	0.2649
956	0.2736
965	0.2849
974	0.2976
983	0.2889
992	0.2655
1001	0.2286
1010	0.205
1019	0.1495
1028	0.1074
1037	0.075
1046	0.0484
1055	0.0261
1064	0.0133
1073	0.0127
1082	0.0158
1091	0.0195
1100	0.0179
1109	0.0118
1118	0.0124
1127	0.0149
1136	0.0186
1145	0.0314
1154	0.1314
1163	0.2508
1172	0.3274
1181	0.3617
1190	0.3768
1199	0.3742
1208	0.358
1217	0.2835
1226	0.2551
1235	0.2321
1244	0.221
1253	0.2221
1262	0.2371
1271	0.239
1280	0.2244
1289	0.2208
1298	0.2205
1307	0.2302
1316	0.2488
1325	0.25
1334	0.2528
1343	0.1869
1352	0.1389
1361	0.1552
1370	0.1554
1379	0.1665
1388	0.1706
1397	0.169
1406	0.1669
1415	0.1592
1424	0.1511
1433	0.1038
1442	0.0652
1451	0.0422
1460	0.0399
1469	0.0528
1478	0.1408
1487	0.2607
1496	0.4025
1505	0.5421
1514	0.5587
1523	0.6033
1532	0.6083
1541	0.6108
1550	0.6121
1559	0.613
1568	0.6146
1577	0.6135
1586	0.6095
1595	0.5964
1604	0.5797
1613	0.5379
1622	0.4961
1631	0.4744
1640	0.4739
1649	0.4886
1658	0.5107
1667	0.538
1676	0.5902
1685	0.6138
1694	0.6195
1703	0.6152
1712	0.6144
1721	0.6141
1730	0.6207
1739	0.6484
1748	0.664
1757	0.6813
1766	0.6945
1775	0.6993
1784	0.7011
1793	0.7025
1802	0.7027
1811	0.7029
1820	0.7031
1829	0.7027
1838	0.7017
1847	0.7004
1856	0.6976
1865	0.6947
1874	0.6922
1883	0.6917
1892	0.6883
1901	0.6828
1910	0.6768
1919	0.6713
1928	0.6667
1937	0.6641
1946	0.6632
1955	0.663
1964	0.6635
1973	0.6644
1982	0.6663
1991	0.6678
2000	0.6673
2009	0.6656
2018	0.6619
2027	0.6559
2036	0.6518
2045	0.6481
2054	0.6442
2063	0.6403
2072	0.6363
2081	0.6322
2090	0.6283
2099	0.6244
2108	0.6205
2117	0.6167
2126	0.6121
2135	0.6075
2144	0.6041
2153	0.6014
2162	0.5993
2171	0.5983
2180	0.597
2189	0.5884
2198	0.5847
2207	0.5827
2216	0.5803
2225	0.5745
2234	0.5658
2243	0.5558
2252	0.5456
2261	0.5352
2270	0.5248
2279	0.5138
2288	0.502
2297	0.4887
2306	0.4749
2315	0.4646
2324	0.4494
2333	0.4293
2342	0.4095
2351	0.3922
2360	0.3824
2369	0.3707
2378	0.3603
2387	0.3447
2396	0.3248
2405	0.3132
2414	0.299
2423	0.2774
2432	0.2668
2441	0.2575
2450	0.2415
2459	0.2233
2468	0.2112
2477	0.2055
2486	0.2004
2495	0.1938
2504	0.1873
2513	0.1798
2522	0.174
2531	0.1708
2540	0.1684
2549	0.1658
2558	0.1561
2567	0.1481
2576	0.1438
2585	0.1417
2594	0.1411
2603	0.1414
2612	0.1421
2621	0.1433
2630	0.1445
2639	0.1455
2648	0.1461
2657	0.1467
2666	0.1472
2675	0.1476
2684	0.148
2693	0.1484
2702	0.1486
2711	0.1488
2720	0.149
2729	0.1491
2738	0.149
2747	0.149
2756	0.1488
2765	0.1482
2774	0.144
2783	0.1259
2792	0.1073
2801	0.0888
2810	0.0704
2819	0.0521
2828	0.038
2837	0.0312
2846	0.0273
2855	0.0272
2864	0.0282
2873	0.0295
2882	0.0305
2891	0.0312
2900	0.0315
2909	0.0319
2918	0.0321
2927	0.0324
2936	0.0331
2945	0.0494
2954	0.0824
2963	0.1153
2972	0.1479
2981	0.1803
2990	0.2086
2999	0.2187
3008	0.2218
3017	0.2233
3026	0.2238
3035	0.2242
3044	0.2242
3053	0.2236
3062	0.221
3071	0.214
3080	0.206
3089	0.1968
3098	0.1869
3107	0.1763
3116	0.1663
3125	0.1564
3134	0.1337
3143	0.1148
3152	0.0908
3161	0.0623
3170	0.0554
3179	0.0503
3188	0.0463
3197	0.0426
3206	0.0396
3215	0.0376
3224	0.0357
3233	0.0346
3242	0.0335
3251	0.0328
3260	0.0324
3269	0.0321
3278	0.0318
3287	0.0317
3296	0.0318
3305	0.0319
3314	0.0319
3323	0.0321
3332	0.0325
3341	0.0328
3350	0.0333
3359	0.034
3368	0.0348
3377	0.0359
3386	0.0375
3395	0.0399
3404	0.0432
3413	0.0464
3422	0.0496
3431	0.0536
3440	0.0589
3449	0.0661
3458	0.0747
3467	0.0863
3476	0.0994
3485	0.1089
3494	0.1193
3503	0.135
3512	0.1571
3521	0.1679
3530	0.1786
3539	0.19
3548	0.2409
3557	0.278
3566	0.315
3575	0.3517
3584	0.3883
3593	0.4313
3602	0.5087
3611	0.5723
3620	0.624
3629	0.6408
3638	0.6563
3647	0.6687
3656	0.6788
3665	0.6878
3674	0.6986
3683	0.705
3692	0.7093
3701	0.7122
3710	0.7136
3719	0.7147
3728	0.7156
3737	0.7161
3746	0.7165
3755	0.7168
3764	0.717
3773	0.7172
3782	0.7172
3791	0.7171
3800	0.717
3809	0.7169
3818	0.7167
3827	0.7163
3836	0.7159
3845	0.7155
3854	0.7147
3863	0.7128
3872	0.7111
3881	0.7092
3890	0.7071
3899	0.705
3908	0.7026
3917	0.7007
3926	0.6991
3935	0.6979
3944	0.6968
3953	0.6959
3962	0.6953
3971	0.6948
3980	0.6943
3989	0.6938
3998	0.6933
