Infrared Spectrum: Isoxazolium compounds: 2-Ethyl-5-(m-sulfophenyl)-hydroxide, inner salt
Formula: C11 H11 N O4 S
State: SOLID (SPLIT MULL), FLUOROLUBE FOR 3800-1330 CM^-^1, NUJOL FOR 1330-400 CM^-^1
Class: COBLENTZ III
Instrument: DOW KBr FOREPRISM-GRATING
Instrument parameters: BLAZED AT 3.5, 12.0, 20.0 MICRON AND CHANGED AT 5.0, 7.5, 14.9 MICRON
Sampling: TRANSMISSION
Resolution: 2
Origin: DOW CHEMICAL COMPANY
1/CM	TRANSMITTANCE
399	0.4938
408	0.5887
417	0.6811
426	0.7482
435	0.7947
444	0.8158
453	0.8431
462	0.8414
471	0.8402
480	0.8165
489	0.7898
498	0.7918
507	0.7117
516	0.7475
525	0.7724
534	0.77
543	0.773
552	0.6004
561	0.6415
570	0.7275
579	0.5007
588	0.5331
597	0.7222
606	0.4398
615	0.2321
624	0.6728
633	0.6599
642	0.4279
651	0.7256
660	0.7374
669	0.7434
678	0.4207
687	0.6841
696	0.612
705	0.7778
714	0.7701
723	0.7342
732	0.7536
741	0.7642
750	0.7239
759	0.768
768	0.7147
777	0.5935
786	0.7535
795	0.7361
804	0.3816
813	0.5428
822	0.7256
831	0.6797
840	0.3791
849	0.5806
858	0.6924
867	0.7615
876	0.7674
885	0.7595
894	0.5473
903	0.7422
912	0.7482
921	0.7468
930	0.7335
939	0.6531
948	0.5867
957	0.5462
966	0.6019
975	0.6053
984	0.6054
993	0.1945
1002	0.6259
1011	0.5404
1020	0.3424
1029	0.0132
1038	0.4345
1047	0.5292
1056	0.5672
1065	0.5133
1074	0.5042
1083	0.2744
1092	0.3441
1101	0.4991
1110	0.4168
1119	0.2819
1128	0.3302
1137	0.3449
1146	0.5257
1155	0.5149
1164	0.436
1173	0.3308
1182	0.1366
1191	0.0184
1200	0.1279
1209	0.4155
1218	0.2791
1227	0.0277
1236	0.2159
1245	0.3026
1254	0.3637
1263	0.5295
1272	0.6531
1281	0.6674
1290	0.5294
1299	0.5929
1308	0.6508
1317	0.597
1326	0.6564
1335	0.6778
1344	0.6391
1353	0.6796
1362	0.6982
1371	0.6787
1380	0.7268
1389	0.69
1398	0.5312
1407	0.6791
1416	0.7141
1425	0.5795
1434	0.4399
1443	0.5878
1452	0.7265
1461	0.6243
1470	0.6858
1479	0.7819
1488	0.8045
1497	0.7985
1506	0.7287
1515	0.5359
1524	0.2375
1533	0.5194
1542	0.8318
1551	0.8655
1560	0.8571
1569	0.7812
1578	0.7874
1587	0.7955
1596	0.7774
1605	0.5299
1614	0.7915
1623	0.8275
1632	0.8387
1641	0.8327
1650	0.8268
1659	0.8271
1668	0.8239
1677	0.8184
1686	0.814
1695	0.8121
1704	0.8157
1713	0.8188
1722	0.8213
1731	0.8153
1740	0.8111
1749	0.8035
1758	0.8118
1767	0.8178
1776	0.8139
1785	0.8068
1794	0.8017
1803	0.8033
1812	0.8049
1821	0.8053
1830	0.8065
1839	0.8038
1848	0.8012
1857	0.7958
1866	0.791
1875	0.7806
1884	0.7826
1893	0.7853
1902	0.7818
1911	0.773
1920	0.7626
1929	0.7539
1938	0.7619
1947	0.7715
1956	0.7761
1965	0.7771
1974	0.7741
1983	0.765
1992	0.7607
2001	0.7775
2010	0.7818
2019	0.7815
2028	0.7798
2037	0.7758
2046	0.7712
2055	0.7649
2064	0.7586
2073	0.7535
2082	0.7503
2091	0.7475
2100	0.7418
2109	0.7356
2118	0.7303
2127	0.7258
2136	0.7215
2145	0.7172
2154	0.7126
2163	0.7081
2172	0.7041
2181	0.7001
2190	0.6968
2199	0.6936
2208	0.69
2217	0.6858
2226	0.6814
2235	0.6768
2244	0.6714
2253	0.6642
2262	0.6578
2271	0.6562
2280	0.6567
2289	0.6549
2298	0.6508
2307	0.6475
2316	0.6451
2325	0.6426
2334	0.6411
2343	0.6395
2352	0.6379
2361	0.6375
2370	0.6383
2379	0.6405
2388	0.6408
2397	0.6401
2406	0.6388
2415	0.6375
2424	0.6362
2433	0.6345
2442	0.6328
2451	0.6309
2460	0.6288
2469	0.6266
2478	0.625
2487	0.6235
2496	0.6221
2505	0.623
2514	0.6239
2523	0.6208
2532	0.6169
2541	0.6136
2550	0.6106
2559	0.6079
2568	0.6057
2577	0.6034
2586	0.6012
2595	0.5993
2604	0.5972
2613	0.595
2622	0.5933
2631	0.5916
2640	0.5901
2649	0.5884
2658	0.5869
2667	0.5853
2676	0.5833
2685	0.5812
2694	0.5792
2703	0.5766
2712	0.5737
2721	0.5706
2730	0.5676
2739	0.5643
2748	0.561
2757	0.5574
2766	0.5538
2775	0.5502
2784	0.5466
2793	0.5427
2802	0.5384
2811	0.5342
2820	0.5299
2829	0.5249
2838	0.5198
2847	0.5147
2856	0.5083
2865	0.4992
2874	0.4925
2883	0.4914
2892	0.4896
2901	0.4837
2910	0.4742
2919	0.4628
2928	0.4474
2937	0.4264
2946	0.4262
2955	0.4223
2964	0.4139
2973	0.4032
2982	0.3729
2991	0.3418
3000	0.353
3009	0.3773
3018	0.391
3027	0.3916
3036	0.4469
3045	0.4474
3054	0.448
3063	0.4453
3072	0.4353
3081	0.4486
3090	0.4323
3099	0.4133
3108	0.3893
3117	0.3818
3126	0.4792
3135	0.4999
3144	0.518
3153	0.5201
3162	0.5197
3171	0.519
3180	0.5173
3189	0.5153
3198	0.5132
3207	0.5103
3216	0.5056
3225	0.5008
3234	0.4976
3243	0.4946
3252	0.4914
3261	0.4881
3270	0.4849
3279	0.4816
3288	0.4784
3297	0.4748
3306	0.4712
3315	0.4675
3324	0.4639
3333	0.4604
3342	0.4575
3351	0.4546
3360	0.4517
3369	0.4488
3378	0.4462
3387	0.4438
3396	0.4412
3405	0.4387
3414	0.4362
3423	0.4344
3432	0.433
3441	0.4322
3450	0.4328
3459	0.4333
3468	0.4335
3477	0.4336
3486	0.4335
3495	0.433
3504	0.431
3513	0.428
3522	0.4243
3531	0.4326
3540	0.4389
3549	0.4446
3558	0.4494
3567	0.4531
3576	0.4538
3585	0.4541
3594	0.4544
3603	0.4548
3612	0.4552
3621	0.4555
3630	0.4556
3639	0.4556
3648	0.4547
3657	0.4537
3666	0.4528
3675	0.452
3684	0.4512
3693	0.4505
3702	0.4495
3711	0.4485
3720	0.4474
3729	0.446
3738	0.4444
3747	0.4427
3756	0.4405
3765	0.438
3774	0.436
3783	0.4346
3792	0.4334
