Infrared Spectrum: PROLIXIN
Formula: C22 H28 Cl2 F3 N3 O S
State: SOLID (NUJOL MULL)
Class: COBLENTZ III
Instrument: PERKIN-ELMER 21 (GRATING)
Resolution: 2
Origin: THE SQUIBB INSTITUTE FOR MEDICAL RESEARCH
1/CM	TRANSMITTANCE
657	0.8421
666	0.9222
675	0.9022
684	0.9406
693	0.9411
702	0.892
711	0.9499
720	0.8976
729	0.8831
738	0.9432
747	0.9393
756	0.9147
765	0.3018
774	0.9235
783	0.9383
792	0.9614
801	0.9723
810	0.9646
819	0.9193
828	0.7027
837	0.9128
846	0.9654
855	0.9546
864	0.7273
873	0.9199
882	0.9439
891	0.9302
900	0.7421
909	0.9136
918	0.9424
927	0.9262
936	0.7555
945	0.8551
954	0.8527
963	0.7538
972	0.8585
981	0.8505
990	0.9414
999	0.9342
1008	0.8898
1017	0.7694
1026	0.7716
1035	0.834
1044	0.8866
1053	0.8414
1062	0.7714
1071	0.6057
1080	0.4812
1089	0.6755
1098	0.6327
1107	0.2885
1116	0.2262
1125	0.6014
1134	0.536
1143	0.5651
1152	0.6156
1161	0.4714
1170	0.8682
1179	0.8807
1188	0.9027
1197	0.8881
1206	0.792
1215	0.8472
1224	0.8296
1233	0.606
1242	0.3294
1251	0.5397
1260	0.6442
1269	0.695
1278	0.7551
1287	0.7408
1296	0.7009
1305	0.7103
1314	0.5833
1323	0.5839
1332	0.4206
1341	0.2563
1350	0.6704
1359	0.7856
1368	0.7213
1377	0.6852
1386	0.7087
1395	0.6834
1404	0.6765
1413	0.5833
1422	0.3226
1431	0.4405
1440	0.4586
1449	0.4129
1458	0.3807
1467	0.3302
1476	0.6395
1485	0.6773
1494	0.7731
1503	0.8999
1512	0.9327
1521	0.9362
1530	0.9311
1539	0.9298
1548	0.9284
1557	0.9069
1566	0.8827
1575	0.8875
1584	0.8938
1593	0.8376
1602	0.7648
1611	0.8823
1620	0.9519
1629	0.9573
1638	0.9639
1647	0.9722
1656	0.9796
1665	0.9842
1674	0.9825
1683	0.9781
1692	0.9739
1701	0.973
1710	0.9721
1719	0.9723
1728	0.9751
1737	0.9813
1746	0.9907
1755	0.9921
1764	0.9922
1773	0.9923
1782	0.9925
1791	0.9931
1800	0.9941
1809	0.9954
1818	0.9968
1827	0.9967
1836	0.9956
1845	0.9942
1854	0.9927
1863	0.9909
1872	0.9886
1881	0.9851
1890	0.9865
1899	0.9894
1908	0.9914
1917	0.9926
1926	0.9934
1935	0.9928
1944	0.9901
1953	0.9867
1962	0.9926
1971	0.9964
1980	0.9969
1989	0.9956
1998	0.9945
2007	0.9932
2016	0.9913
2025	0.9883
2034	0.9859
2043	0.9839
2052	0.9821
2061	0.9806
2070	0.9789
2079	0.9772
2088	0.9755
2097	0.9731
2106	0.9693
2115	0.9656
2124	0.9615
2133	0.9574
2142	0.9532
2151	0.9478
2160	0.9428
2169	0.9383
2178	0.9331
2187	0.9265
2196	0.9197
2205	0.9116
2214	0.9034
2223	0.8938
2232	0.8844
2241	0.8751
2250	0.8653
2259	0.8511
2268	0.8331
2277	0.8012
2286	0.772
2295	0.7283
2304	0.6976
2313	0.6586
2322	0.6292
2331	0.6146
2340	0.5985
2349	0.5783
2358	0.5642
2367	0.5591
2376	0.5426
2385	0.4908
2394	0.43
2403	0.3908
2412	0.3677
2421	0.3553
2430	0.3556
2439	0.3603
2448	0.3848
2457	0.404
2466	0.4355
2475	0.4575
2484	0.4595
2493	0.4613
2502	0.4637
2511	0.4664
2520	0.4702
2529	0.4749
2538	0.4817
2547	0.4905
2556	0.5027
2565	0.5155
2574	0.5372
2583	0.5914
2592	0.6262
2601	0.6385
2610	0.6405
2619	0.6424
2628	0.6439
2637	0.6454
2646	0.6486
2655	0.6723
2664	0.7095
2673	0.7323
2682	0.7518
2691	0.764
2700	0.7759
2709	0.7892
2718	0.7996
2727	0.808
2736	0.8136
2745	0.8191
2754	0.8169
2763	0.8141
2772	0.8064
2781	0.7929
2790	0.7782
2799	0.7616
2808	0.6978
2817	0.6097
2826	0.5222
2835	0.4368
2844	0.409
2853	0.3974
2862	0.3919
2871	0.3889
2880	0.3884
2889	0.3885
2898	0.3902
2907	0.3984
2916	0.4101
2925	0.4282
2934	0.4519
2943	0.4721
2952	0.4925
2961	0.5203
2970	0.5661
2979	0.7109
2988	0.7415
2997	0.7674
3006	0.7995
3015	0.8275
3024	0.837
3033	0.8413
3042	0.8442
3051	0.8459
3060	0.8474
3069	0.8477
3078	0.847
3087	0.8453
3096	0.8418
3105	0.8375
3114	0.8315
3123	0.8249
3132	0.8174
3141	0.8069
3150	0.7961
3159	0.7839
3168	0.7654
3177	0.747
3186	0.7088
3195	0.6616
3204	0.6146
3213	0.5679
3222	0.5215
3231	0.4888
3240	0.4796
3249	0.4741
3258	0.4726
3267	0.5066
3276	0.5658
3285	0.5898
3294	0.5969
3303	0.6057
3312	0.6194
3321	0.6641
3330	0.7594
3339	0.7798
3348	0.7893
3357	0.7964
3366	0.8056
3375	0.8379
3384	0.8574
3393	0.8732
3402	0.8845
3411	0.8898
3420	0.8951
3429	0.9008
3438	0.9055
3447	0.9096
3456	0.912
3465	0.9131
3474	0.9142
3483	0.9141
3492	0.9139
3501	0.9139
3510	0.9138
3519	0.9136
3528	0.9134
3537	0.9132
3546	0.913
3555	0.9128
3564	0.9125
3573	0.9122
3582	0.9117
3591	0.9114
3600	0.9113
3609	0.9113
3618	0.9113
3627	0.9114
3636	0.9114
3645	0.9114
3654	0.9114
3663	0.9114
3672	0.9115
3681	0.9115
3690	0.9114
3699	0.9112
3708	0.9109
3717	0.9107
3726	0.9104
3735	0.9102
3744	0.9099
3753	0.9095
3762	0.9089
3771	0.9082
3780	0.9076
3789	0.907
3798	0.9063
3807	0.9053
3816	0.9041
3825	0.903
3834	0.9018
3843	0.9007
3852	0.8996
3861	0.8984
3870	0.8972
3879	0.896
3888	0.8949
3897	0.8937
3906	0.8926
3915	0.8914
3924	0.8902
3933	0.8892
3942	0.8882
3951	0.8873
3960	0.8863
3969	0.8854
3978	0.8845
3987	0.8836
3996	0.8826
