Infrared Spectrum: 1-CYCLOPENTADIENYL-5-PHENYL-1,1,3,3,5,5-HEXAMETHYL TRISILOXANE
Formula: C17 H28 O2 Si3
State: LIQUID
Class: COBLENTZ
Instrument: Not specified, most likely a prism, grating, or hybrid spectrometer.
Sampling: TRANSMISSION
Path length: CAPILLARY
Resolution: 4
Origin: WYANDOTTE CHEMICALS CORP., WYANDOTTE, MICHIGAN, USA
MICROMETERS	TRANSMITTANCE
2.04	0.915
2.07977	0.916
2.11954	0.921
2.15931	0.923
2.19909	0.921
2.23886	0.923
2.27863	0.925
2.3184	0.928
2.35817	0.926
2.39794	0.926
2.43772	0.928
2.47749	0.93
2.51726	0.931
2.55703	0.933
2.5968	0.931
2.63657	0.93
2.67635	0.93
2.71612	0.93
2.75589	0.931
2.79566	0.931
2.83543	0.931
2.8752	0.93
2.91498	0.923
2.95475	0.923
2.99452	0.925
3.03429	0.928
3.07406	0.928
3.11383	0.928
3.1536	0.921
3.19338	0.903
3.23315	0.823
3.27292	0.813
3.31269	0.823
3.35246	0.579
3.39223	0.794
3.43201	0.792
3.47178	0.867
3.51155	0.901
3.55132	0.918
3.59109	0.928
3.63086	0.936
3.67064	0.941
3.71041	0.943
3.75018	0.951
3.78995	0.946
3.82972	0.961
3.86949	0.963
3.90926	0.961
3.94904	0.96
3.98881	0.96
4.02858	0.958
4.06835	0.958
4.10812	0.96
4.14789	0.961
4.18767	0.961
4.22744	0.965
4.26721	0.97
4.30698	0.971
4.34675	0.965
4.38652	0.958
4.4263	0.961
4.46607	0.966
4.50584	0.966
4.54561	0.965
4.58538	0.97
4.62515	0.968
4.66493	0.966
4.7047	0.968
4.74447	0.97
4.78424	0.971
4.82401	0.973
4.86378	0.968
4.90355	0.961
4.94333	0.961
4.9831	0.966
5.02287	0.971
5.06264	0.968
5.10241	0.966
5.14218	0.958
5.18196	0.938
5.22173	0.953
5.2615	0.961
5.30127	0.95
5.34104	0.96
5.38081	0.968
5.42059	0.97
5.46036	0.963
5.50013	0.953
5.5399	0.943
5.57967	0.961
5.61944	0.961
5.65921	0.956
5.69899	0.946
5.73876	0.943
5.77853	0.941
5.8183	0.945
5.85807	0.943
5.89784	0.933
5.93762	0.938
5.97739	0.926
6.01716	0.913
6.05693	0.905
6.0967	0.9
6.13647	0.893
6.17625	0.898
6.21602	0.897
6.25579	0.89
6.29556	0.908
6.33533	0.9
6.3751	0.916
6.41488	0.908
6.45465	0.916
6.49442	0.933
6.53419	0.92
6.57396	0.921
6.61373	0.91
6.6535	0.92
6.69328	0.885
6.73305	0.898
6.77282	0.887
6.81259	0.86
6.85236	0.872
6.89213	0.867
6.93191	0.862
6.97168	0.704
7.01145	0.799
7.05122	0.784
7.09099	0.772
7.13076	0.802
7.17054	0.835
7.21031	0.845
7.25008	0.853
7.28985	0.862
7.32962	0.873
7.36939	0.898
7.40916	0.888
7.44894	0.872
7.48871	0.89
7.52848	0.9
7.56825	0.888
7.60802	0.883
7.64779	0.882
7.68757	0.867
7.72734	0.858
7.76711	0.85
7.80688	0.833
7.84665	0.76
7.88642	0.519
7.9262	0.174
7.96597	0.162
8.00574	0.36
8.04551	0.7
8.08528	0.812
8.12505	0.853
8.16483	0.873
8.2046	0.883
8.24437	0.888
8.28414	0.883
8.32391	0.882
8.36368	0.885
8.40345	0.88
8.44323	0.888
8.483	0.888
8.52277	0.88
8.56254	0.867
8.60231	0.84
8.64208	0.825
8.68186	0.802
8.72163	0.779
8.7614	0.742
8.80117	0.681
8.84094	0.576
8.88071	0.45
8.92049	0.227
8.96026	0.35
9.00003	0.378
9.0398	0.315
9.07957	0.239
9.11934	0.189
9.15911	0.166
9.19889	0.139
9.23866	0.126
9.27843	0.119
9.3182	0.116
9.35797	0.106
9.39774	0.094
9.43752	0.084
9.47729	0.078
9.51706	0.069
9.55683	0.076
9.5966	0.083
9.63637	0.102
9.67615	0.162
9.71592	0.194
9.75569	0.262
9.79546	0.363
9.83523	0.445
9.875	0.468
9.91478	0.568
9.95455	0.624
9.99432	0.619
10.0341	0.561
10.0739	0.593
10.1136	0.581
10.1534	0.541
10.1932	0.496
10.2329	0.435
10.2727	0.413
10.3125	0.463
10.3523	0.576
10.392	0.644
10.4318	0.692
10.4716	0.662
10.5113	0.548
10.5511	0.46
10.5909	0.593
10.6307	0.717
10.6704	0.777
10.7102	0.802
10.75	0.825
10.7898	0.83
10.8295	0.838
10.8693	0.838
10.9091	0.837
10.9488	0.825
10.9886	0.805
11.0284	0.73
11.0682	0.73
11.1079	0.76
11.1477	0.749
11.1875	0.749
11.2272	0.774
11.267	0.784
11.3068	0.774
11.3466	0.759
11.3863	0.732
11.4261	0.705
11.4659	0.679
11.5056	0.649
11.5454	0.599
11.5852	0.548
11.625	0.5
11.6647	0.433
11.7045	0.401
11.7443	0.401
11.784	0.421
11.8238	0.445
11.8636	0.455
11.9034	0.458
11.9431	0.438
11.9829	0.382
12.0227	0.299
12.0624	0.249
12.1022	0.247
12.142	0.287
12.1818	0.325
12.2215	0.305
12.2613	0.284
12.3011	0.29
12.3408	0.29
12.3806	0.249
12.4204	0.2
12.4602	0.161
12.4999	0.126
12.5397	0.091
12.5795	0.084
12.6192	0.081
12.659	0.091
12.6988	0.132
12.7386	0.187
12.7783	0.247
12.8181	0.31
12.8579	0.398
12.8976	0.493
12.9374	0.569
12.9772	0.616
13.017	0.646
13.0567	0.624
13.0965	0.591
13.1363	0.518
13.176	0.5
13.2158	0.551
13.2556	0.616
13.2954	0.647
13.3351	0.641
13.3749	0.611
13.4147	0.551
13.4544	0.504
13.4942	0.511
13.534	0.533
13.5738	0.556
13.6135	0.571
13.6533	0.581
13.6931	0.576
13.7328	0.554
13.7726	0.516
13.8124	0.49
13.8522	0.468
13.8919	0.478
13.9317	0.533
13.9715	0.573
14.0112	0.594
14.051	0.594
14.0908	0.578
14.1306	0.548
14.1703	0.501
14.2101	0.453
14.2499	0.42
14.2897	0.378
14.3294	0.35
14.3692	0.323
14.409	0.328
14.4487	0.368
14.4885	0.425
14.5283	0.473
14.5681	0.508
14.6078	0.534
14.6476	0.561
14.6874	0.598
14.7271	0.614
14.7669	0.639
14.8067	0.666
14.8465	0.674
14.8862	0.697
14.926	0.704
14.9658	0.717
15.0055	0.717
15.0453	0.709
15.0851	0.707
15.1249	0.737
15.1646	0.747
15.2044	0.755
15.2442	0.762
15.2839	0.759
15.3237	0.75
15.3635	0.744
15.4033	0.739
15.443	0.742
15.4828	0.737
15.5226	0.735
15.5623	0.74
15.6021	0.747
15.6419	0.764
15.6817	0.764
15.7214	0.772
15.7612	0.769
15.801	0.77
15.8407	0.765
15.8805	0.759
15.9203	0.759
15.9601	0.754
