Infrared Spectrum: Aniline, 2-tert-butyl-4,5-dichloro-
Formula: C10 H13 Cl2 N
State: LIQUID (NEAT)
Class: COBLENTZ III
Instrument: BECKMAN IR-4 (HYBRID PRISM-GRATING)
Instrument parameters: NaCl PRISM
Sampling: TRANSMISSION
Path length: CAPILLARY
Resolution: 2
Origin: MONSANTO (J. FREEMAN)
1/CM	TRANSMITTANCE
626.339	0.7055
635	0.7091
643.661	0.7222
652.322	0.7132
660.983	0.6856
669.643	0.6278
678.304	0.418
686.965	0.4437
695.626	0.6894
704.287	0.705
712.948	0.6888
721.609	0.6128
730.27	0.7629
738.931	0.7745
747.592	0.773
756.252	0.7779
764.913	0.7818
773.574	0.7887
782.235	0.799
790.896	0.8017
799.557	0.7936
808.218	0.7887
816.879	0.7771
825.54	0.5791
834.2	0.6254
842.861	0.4442
851.522	0.5246
860.183	0.6867
868.844	0.7563
877.505	0.3822
886.166	0.4014
894.827	0.6739
903.488	0.8089
912.149	0.8101
920.809	0.7212
929.47	0.4502
938.131	0.4475
946.792	0.6655
955.453	0.7851
964.114	0.8251
972.775	0.8395
981.436	0.853
990.097	0.8626
998.757	0.8621
1007.42	0.841
1016.08	0.6794
1024.74	0.7161
1033.4	0.8544
1042.06	0.8586
1050.72	0.8468
1059.38	0.8289
1068.04	0.8051
1076.71	0.7764
1085.37	0.7336
1094.03	0.5874
1102.69	0.339
1111.35	0.5922
1120.01	0.7804
1128.67	0.8018
1137.33	0.7711
1145.99	0.447
1154.65	0.3774
1163.31	0.7345
1171.98	0.8177
1180.64	0.8395
1189.3	0.7603
1197.96	0.6925
1206.62	0.7771
1215.28	0.8024
1223.94	0.7729
1232.6	0.6859
1241.26	0.3164
1249.92	0.466
1258.58	0.5273
1267.25	0.4719
1275.91	0.5921
1284.57	0.7551
1293.23	0.6968
1301.89	0.7832
1310.55	0.8639
1319.21	0.8624
1327.87	0.8573
1336.53	0.8619
1345.19	0.8507
1353.85	0.8046
1362.52	0.4551
1371.18	0.1441
1379.84	0.3289
1388.5	0.6262
1397.16	0.4845
1405.82	0.668
1414.48	0.7927
1423.14	0.811
1431.8	0.8026
1440.46	0.6358
1449.12	0.4204
1457.78	0.251
1466.45	0.1625
1475.11	0.1008
1483.77	0.0777
1492.43	0.2045
1501.09	0.3716
1509.75	0.5072
1518.41	0.6401
1527.07	0.7109
1535.73	0.747
1544.39	0.7095
1553.05	0.5978
1561.72	0.6047
1570.38	0.7252
1579.04	0.6651
1587.7	0.5264
1596.36	0.4747
1605.02	0.3947
1613.68	0.2338
1622.34	0.1618
1631	0.3468
1639.66	0.5311
1648.32	0.6427
1656.99	0.7695
1665.65	0.8141
1674.31	0.8451
1682.97	0.8656
1691.63	0.8771
1700.29	0.8858
1708.95	0.8948
1717.61	0.9291
1726.27	0.9326
1734.93	0.9323
1743.59	0.9311
1752.26	0.9263
1760.92	0.92
1769.58	0.9198
1778.24	0.9269
1786.9	0.9351
1795.56	0.9396
1804.22	0.9391
1812.88	0.9379
1821.54	0.9358
1830.2	0.9331
1838.86	0.9306
1847.53	0.9354
1856.19	0.9428
1864.85	0.9456
1873.51	0.9464
1882.17	0.9464
1890.83	0.9465
1899.49	0.9463
1908.15	0.9463
1916.81	0.9466
1925.47	0.9468
1934.13	0.947
1942.8	0.9473
1951.46	0.9475
1960.12	0.9478
1968.78	0.9483
1977.44	0.949
1986.1	0.9503
1994.76	0.9522
2003.42	0.9548
2012.08	0.9571
2020.74	0.9579
2029.4	0.9579
2038.06	0.958
2046.73	0.9577
2055.39	0.9575
2064.05	0.957
2072.71	0.9564
2081.37	0.9557
2090.03	0.955
2098.69	0.9544
2107.35	0.9536
2116.01	0.9529
2124.67	0.9522
2133.33	0.9516
2142	0.951
2150.66	0.9505
2159.32	0.9502
2167.98	0.9501
2176.64	0.95
2185.3	0.951
2193.96	0.9531
2202.62	0.9553
2211.28	0.958
2219.94	0.9606
2228.6	0.9622
2237.27	0.9624
2245.93	0.9623
2254.59	0.9613
2263.25	0.9602
2271.91	0.9588
2280.57	0.9581
2289.23	0.9578
2297.89	0.9576
2306.55	0.9577
2315.21	0.9577
2323.87	0.9577
2332.54	0.9579
2341.2	0.958
2349.86	0.9577
2358.52	0.9566
2367.18	0.9531
2375.84	0.9495
2384.5	0.9502
2393.16	0.9545
2401.82	0.9589
2410.48	0.9602
2419.14	0.9611
2427.81	0.9611
2436.47	0.961
2445.13	0.9606
2453.79	0.9603
2462.45	0.9593
2471.11	0.9583
2479.77	0.9573
2488.43	0.9567
2497.09	0.9562
2505.75	0.9556
2514.41	0.9547
2523.08	0.9538
2531.74	0.9515
2540.4	0.9482
2549.06	0.9448
2557.72	0.9411
2566.38	0.9417
2575.04	0.9441
2583.7	0.947
2592.36	0.95
2601.02	0.9514
2609.68	0.9515
2618.34	0.9513
2627.01	0.9511
2635.67	0.9505
2644.33	0.95
2652.99	0.9494
2661.65	0.9487
2670.31	0.948
2678.97	0.9474
2687.63	0.9454
2696.29	0.9433
2704.95	0.9399
2713.61	0.9366
2722.28	0.9333
2730.94	0.9303
2739.6	0.9299
2748.26	0.9302
2756.92	0.9309
2765.58	0.931
2774.24	0.93
2782.9	0.9258
2791.56	0.9197
2800.22	0.9103
2808.88	0.9018
2817.55	0.8914
2826.21	0.8809
2834.87	0.8648
2843.53	0.8445
2852.19	0.7589
2860.85	0.5469
2869.51	0.5447
2878.17	0.5421
2886.83	0.5365
2895.49	0.5189
2904.15	0.4947
2912.82	0.4575
2921.48	0.4025
2930.14	0.292
2938.8	0.2479
2947.46	0.2545
2956.12	0.3274
2964.78	0.4095
2973.44	0.4911
2982.1	0.5722
2990.76	0.6528
2999.42	0.7331
3008.09	0.8385
3016.75	0.8542
3025.41	0.8671
3034.07	0.8773
3042.73	0.8827
3051.39	0.8865
3060.05	0.8886
3068.71	0.8894
3077.37	0.8894
3086.03	0.8895
3094.69	0.8908
3103.35	0.8934
3112.02	0.898
3120.68	0.8991
3129.34	0.8981
3138	0.8971
3146.66	0.8958
3155.32	0.8928
3163.98	0.8881
3172.64	0.8836
3181.3	0.8792
3189.96	0.8749
3198.62	0.8687
3207.29	0.8644
3215.95	0.8651
3224.61	0.8709
3233.27	0.8762
3241.93	0.8814
3250.59	0.8841
3259.25	0.8846
3267.91	0.884
3276.57	0.886
3285.23	0.8788
3293.89	0.8744
3302.56	0.8674
3311.22	0.8582
3319.88	0.8468
3328.54	0.835
3337.2	0.775
3345.86	0.665
3354.52	0.555
3363.18	0.4691
3371.84	0.464
3380.5	0.5132
3389.16	0.5797
3397.83	0.6458
3406.49	0.7117
3415.15	0.7409
3423.81	0.7414
3432.47	0.7097
3441.13	0.6706
3449.79	0.6318
3458.45	0.5933
3467.11	0.5588
3475.77	0.559
3484.43	0.6006
3493.1	0.6745
3501.76	0.7481
3510.42	0.8101
3519.08	0.835
3527.74	0.8527
3536.4	0.8681
3545.06	0.8827
3553.72	0.8931
3562.38	0.9015
3571.04	0.9068
3579.7	0.9116
3588.37	0.9152
3597.03	0.9181
3605.69	0.9198
3614.35	0.9214
3623.01	0.9224
3631.67	0.9234
3640.33	0.924
3648.99	0.9245
3657.65	0.925
3666.31	0.9256
3674.97	0.9262
3683.63	0.9268
3692.3	0.9272
3700.96	0.9276
3709.62	0.9278
3718.28	0.9281
3726.94	0.9282
3735.6	0.9282
3744.26	0.9282
3752.92	0.9282
3761.58	0.9283
3770.24	0.9285
3778.9	0.9289
3787.57	0.9297
3796.23	0.9305
3804.89	0.9307
3813.55	0.9305
3822.21	0.9298
3830.87	0.9291
3839.53	0.9284
3848.19	0.9275
3856.85	0.9266
3865.51	0.9257
