Infrared Spectrum: 6-NITRO-2,4-DISULFONIC ACID PHENOL, TRI-POTASSIUM SALT
Formula: C6 H2 N O9 S2 K3
State: SOLID (MINERAL OIL MULL)
Class: COBLENTZ
Instrument: Not specified, most likely a prism, grating, or hybrid spectrometer.
Sampling: TRANSMISSION
Resolution: 4
Origin: WYANDOTTE CHEMICALS CORP., WYANDOTTE, MICHIGAN, USA
MICROMETERS	TRANSMITTANCE
2.02	0.688
2.05975	0.697
2.09951	0.703
2.13926	0.715
2.17902	0.716
2.21877	0.71
2.25853	0.711
2.29828	0.716
2.33803	0.723
2.37779	0.731
2.41754	0.735
2.4573	0.735
2.49705	0.731
2.53681	0.735
2.57656	0.754
2.61631	0.728
2.65607	0.74
2.69582	0.698
2.73558	0.582
2.77533	0.493
2.81509	0.483
2.85484	0.432
2.89459	0.397
2.93435	0.455
2.9741	0.496
3.01386	0.519
3.05361	0.538
3.09337	0.518
3.13312	0.614
3.17287	0.677
3.21263	0.701
3.25238	0.725
3.29214	0.723
3.33189	0.548
3.37165	0.155
3.4114	0.152
3.45115	0.264
3.49091	0.273
3.53066	0.538
3.57042	0.798
3.61017	0.844
3.64993	0.855
3.68968	0.857
3.72943	0.86
3.76919	0.869
3.80894	0.874
3.8487	0.88
3.88845	0.889
3.9282	0.895
3.96796	0.9
4.00771	0.9
4.04747	0.897
4.08722	0.894
4.12698	0.9
4.16673	0.902
4.20648	0.902
4.24624	0.884
4.28599	0.867
4.32575	0.887
4.3655	0.912
4.40526	0.937
4.44501	0.917
4.48476	0.908
4.52452	0.903
4.56427	0.902
4.60403	0.913
4.64378	0.917
4.68354	0.922
4.72329	0.93
4.76304	0.935
4.8028	0.937
4.84255	0.937
4.88231	0.928
4.92206	0.928
4.96182	0.938
5.00157	0.94
5.04132	0.938
5.08108	0.937
5.12083	0.94
5.16059	0.947
5.20034	0.948
5.2401	0.948
5.27985	0.955
5.3196	0.95
5.35936	0.94
5.39911	0.951
5.43887	0.933
5.47862	0.958
5.51838	0.945
5.55813	0.938
5.59788	0.943
5.63764	0.933
5.67739	0.943
5.71715	0.932
5.7569	0.935
5.79666	0.915
5.83641	0.907
5.87616	0.892
5.91592	0.86
5.95567	0.827
5.99543	0.778
6.03518	0.725
6.07494	0.672
6.11469	0.546
6.15444	0.377
6.1942	0.238
6.23395	0.5
6.27371	0.69
6.31346	0.738
6.35322	0.692
6.39297	0.412
6.43272	0.263
6.47248	0.298
6.51223	0.475
6.55199	0.504
6.59174	0.427
6.6315	0.327
6.67125	0.524
6.711	0.634
6.75076	0.591
6.79051	0.397
6.83027	0.456
6.87002	0.519
6.90978	0.597
6.94953	0.715
6.98928	0.769
7.02904	0.793
7.06879	0.796
7.10855	0.718
7.1483	0.652
7.18806	0.713
7.22781	0.632
7.26756	0.605
7.30732	0.663
7.34707	0.675
7.38683	0.63
7.42658	0.604
7.46633	0.516
7.50609	0.289
7.54584	0.332
7.5856	0.506
7.62535	0.649
7.66511	0.687
7.70486	0.667
7.74461	0.645
7.78437	0.614
7.82412	0.399
7.86388	0.289
7.90363	0.177
7.94339	0.231
7.98314	0.268
8.02289	0.228
8.06265	0.19
8.1024	0.251
8.14216	0.236
8.18191	0.173
8.22167	0.11
8.26142	0.11
8.30117	0.119
8.34093	0.122
8.38068	0.127
8.42044	0.129
8.46019	0.13
8.49995	0.157
8.5397	0.23
8.57945	0.322
8.61921	0.365
8.65896	0.359
8.69872	0.453
8.73847	0.561
8.77823	0.622
8.81798	0.649
8.85773	0.667
8.89749	0.678
8.93724	0.7
8.977	0.711
9.01675	0.692
9.05651	0.602
9.09626	0.466
9.13601	0.506
9.17577	0.506
9.21552	0.48
9.25528	0.624
9.29503	0.697
9.33479	0.713
9.37454	0.705
9.41429	0.673
9.45405	0.62
9.4938	0.442
9.53356	0.213
9.57331	0.107
9.61307	0.091
9.65282	0.102
9.69257	0.157
9.73233	0.327
9.77208	0.488
9.81184	0.548
9.85159	0.635
9.89135	0.68
9.9311	0.715
9.97085	0.738
10.0106	0.751
10.0504	0.771
10.0901	0.779
10.1299	0.786
10.1696	0.796
10.2094	0.799
10.2491	0.799
10.2889	0.801
10.3286	0.809
10.3684	0.812
10.4082	0.817
10.4479	0.821
10.4877	0.822
10.5274	0.824
10.5672	0.822
10.6069	0.816
10.6467	0.812
10.6864	0.821
10.7262	0.811
10.7659	0.806
10.8057	0.829
10.8454	0.836
10.8852	0.824
10.925	0.796
10.9647	0.779
11.0045	0.721
11.0442	0.617
11.084	0.705
11.1237	0.781
11.1635	0.809
11.2032	0.799
11.243	0.784
11.2827	0.812
11.3225	0.836
11.3623	0.844
11.402	0.85
11.4418	0.855
11.4815	0.857
11.5213	0.855
11.561	0.852
11.6008	0.846
11.6405	0.824
11.6803	0.753
11.72	0.715
11.7598	0.776
11.7996	0.821
11.8393	0.834
11.8791	0.847
11.9188	0.85
11.9586	0.855
11.9983	0.855
12.0381	0.855
12.0778	0.859
12.1176	0.857
12.1573	0.855
12.1971	0.855
12.2368	0.854
12.2766	0.852
12.3164	0.85
12.3561	0.85
12.3959	0.849
12.4356	0.844
12.4754	0.839
12.5151	0.829
12.5549	0.816
12.5946	0.766
12.6344	0.663
12.6741	0.657
12.7139	0.567
12.7537	0.647
12.7934	0.716
12.8332	0.703
12.8729	0.692
12.9127	0.687
12.9524	0.698
12.9922	0.738
13.0319	0.771
13.0717	0.781
13.1114	0.793
13.1512	0.796
13.1909	0.796
13.2307	0.791
13.2705	0.788
13.3102	0.779
13.35	0.763
13.3897	0.726
13.4295	0.685
13.4692	0.692
13.509	0.701
13.5487	0.69
13.5885	0.675
13.6282	0.682
13.668	0.701
13.7078	0.703
13.7475	0.67
13.7873	0.642
13.827	0.677
13.8668	0.705
13.9065	0.715
13.9463	0.725
13.986	0.731
14.0258	0.738
14.0655	0.741
14.1053	0.741
14.1451	0.743
14.1848	0.738
14.2246	0.738
14.2643	0.743
14.3041	0.738
14.3438	0.738
14.3836	0.733
14.4233	0.731
14.4631	0.73
14.5028	0.728
14.5426	0.728
14.5823	0.725
14.6221	0.723
14.6619	0.72
14.7016	0.715
14.7414	0.715
14.7811	0.705
14.8209	0.697
14.8606	0.687
14.9004	0.673
14.9401	0.655
14.9799	0.644
15.0196	0.617
15.0594	0.597
15.0992	0.562
15.1389	0.536
15.1787	0.526
15.2184	0.538
15.2582	0.551
15.2979	0.571
15.3377	0.584
15.3774	0.586
15.4172	0.586
15.4569	0.579
15.4967	0.569
15.5365	0.557
15.5762	0.546
15.616	0.539
15.6557	0.529
15.6955	0.534
15.7352	0.552
15.775	0.582
15.8147	0.602
15.8545	0.61
15.8942	0.624
15.934	0.635
15.9737	0.634
