Infrared Spectrum: Oxadiazole, 1,2,4-, 5-(Alpha-bromopentadecyl)-3-(5-nitrofuran-2-yl)-
Formula: C21 H32 Br N3 O4
State: SOLUTION (7% CHCl3) VS SOLVENT
Class: COBLENTZ III
Instrument: PERKIN-ELMER 421 (GRATING)
Instrument parameters: GRATINGS: 1999 CM^-^1
Sampling: TRANSMISSION
Path length: 0.01 CM
Resolution: 2
Origin: ABBOTT LABORATORIES - WASHBURN
1/CM	TRANSMITTANCE
684	0.817
693	0.78
702	0.7523
711	0.7379
720	0.7357
729	0.7347
738	0.735
747	0.7353
756	0.7343
765	0.733
774	0.7309
783	0.7281
792	0.7135
801	0.3661
810	0.5729
819	0.8605
828	0.9077
837	0.919
846	0.9163
855	0.9122
864	0.909
873	0.8957
882	0.87
891	0.773
900	0.5632
909	0.8385
918	0.8179
927	0.873
936	0.8978
945	0.8944
954	0.8767
963	0.6963
972	0.8884
981	0.8217
990	0.8734
999	0.8558
1008	0.6245
1017	0.8181
1026	0.8773
1035	0.885
1044	0.8871
1053	0.8864
1062	0.884
1071	0.8885
1080	0.8989
1089	0.9229
1098	0.9523
1107	0.9342
1116	0.943
1125	0.9317
1134	0.8923
1143	0.8788
1152	0.8469
1161	0.8591
1170	0.8599
1179	0.8366
1188	0.8206
1197	0.7593
1206	0.7491
1215	0.7468
1224	0.7445
1233	0.6329
1242	0.7322
1251	0.8346
1260	0.8283
1269	0.7933
1278	0.7242
1287	0.6752
1296	0.613
1305	0.4171
1314	0.2772
1323	0.2582
1332	0.3731
1341	0.1603
1350	0.1922
1359	0.5777
1368	0.4592
1377	0.6419
1386	0.8041
1395	0.7622
1404	0.587
1413	0.7863
1422	0.745
1431	0.7284
1440	0.7184
1449	0.5995
1458	0.5565
1467	0.8032
1476	0.8591
1485	0.8515
1494	0.8117
1503	0.5996
1512	0.2677
1521	0.4221
1530	0.6292
1539	0.6075
1548	0.3978
1557	0.4712
1566	0.4534
1575	0.6647
1584	0.8456
1593	0.8639
1602	0.8555
1611	0.7936
1620	0.8622
1629	0.891
1638	0.9062
1647	0.9102
1656	0.912
1665	0.9154
1674	0.9197
1683	0.915
1692	0.9122
1701	0.9104
1710	0.9082
1719	0.9026
1728	0.898
1737	0.904
1746	0.9054
1755	0.9043
1764	0.9044
1773	0.9136
1782	0.921
1791	0.9233
1800	0.9233
1809	0.9224
1818	0.9202
1827	0.9209
1836	0.9232
1845	0.9229
1854	0.9234
1863	0.9239
1872	0.9244
1881	0.9249
1890	0.9254
1899	0.9255
1908	0.9252
1917	0.9247
1926	0.9242
1935	0.9237
1944	0.9233
1953	0.923
1962	0.9229
1971	0.923
1980	0.9216
1989	0.9148
1998	0.9135
2007	0.9193
2016	0.9192
2025	0.919
2034	0.9194
2043	0.9213
2052	0.9245
2061	0.9247
2070	0.9238
2079	0.9231
2088	0.9228
2097	0.9226
2106	0.9226
2115	0.9224
2124	0.9216
2133	0.9207
2142	0.9194
2151	0.9184
2160	0.92
2169	0.9219
2178	0.9226
2187	0.9226
2196	0.9224
2205	0.9216
2214	0.9207
2223	0.9198
2232	0.9189
2241	0.918
2250	0.9171
2259	0.9158
2268	0.9144
2277	0.9131
2286	0.9117
2295	0.9103
2304	0.9091
2313	0.9084
2322	0.9079
2331	0.9078
2340	0.908
2349	0.9084
2358	0.9093
2367	0.9104
2376	0.9117
2385	0.9105
2394	0.9087
2403	0.9076
2412	0.9071
2421	0.907
2430	0.9068
2439	0.9062
2448	0.9055
2457	0.9045
2466	0.9031
2475	0.9007
2484	0.8974
2493	0.9061
2502	0.9052
2511	0.9047
2520	0.9044
2529	0.904
2538	0.9036
2547	0.9035
2556	0.9037
2565	0.8992
2574	0.8983
2583	0.8988
2592	0.8985
2601	0.8976
2610	0.8964
2619	0.8958
2628	0.8949
2637	0.8925
2646	0.89
2655	0.8843
2664	0.8794
2673	0.8782
2682	0.8782
2691	0.8787
2700	0.8809
2709	0.8828
2718	0.8832
2727	0.8807
2736	0.8764
2745	0.8736
2754	0.8727
2763	0.8725
2772	0.8689
2781	0.8613
2790	0.8496
2799	0.8358
2808	0.8191
2817	0.7928
2826	0.7356
2835	0.5841
2844	0.3044
2853	0.225
2862	0.4361
2871	0.5464
2880	0.5343
2889	0.4403
2898	0.3393
2907	0.1997
2916	0.0937
2925	0.0916
2934	0.2248
2943	0.3618
2952	0.3892
2961	0.5614
2970	0.668
2979	0.7883
2988	0.7968
2997	0.7944
3006	0.7925
3015	0.795
3024	0.7978
3033	0.816
3042	0.8424
3051	0.861
3060	0.8692
3069	0.872
3078	0.873
3087	0.8742
3096	0.8744
3105	0.8709
3114	0.8582
3123	0.8301
3132	0.7975
3141	0.766
3150	0.7958
3159	0.8508
3168	0.8646
3177	0.8731
3186	0.8776
3195	0.8788
3204	0.8792
3213	0.8799
3222	0.8802
3231	0.881
3240	0.882
3249	0.8825
3258	0.8826
3267	0.8828
3276	0.8833
3285	0.8835
3294	0.8833
3303	0.8828
3312	0.8823
3321	0.8819
3330	0.8817
3339	0.8815
3348	0.8812
3357	0.8815
3366	0.8817
3375	0.8823
3384	0.883
3393	0.8838
3402	0.8845
3411	0.8849
3420	0.8853
3429	0.8861
3438	0.8869
3447	0.8874
3456	0.8877
3465	0.8879
3474	0.8883
3483	0.8889
3492	0.8894
3501	0.8901
3510	0.891
3519	0.8918
3528	0.8924
3537	0.8925
3546	0.8926
3555	0.8928
3564	0.8928
3573	0.8929
3582	0.8927
3591	0.8923
3600	0.8918
3609	0.8911
3618	0.8909
3627	0.8904
3636	0.8901
3645	0.8902
3654	0.8896
3663	0.8888
3672	0.8881
3681	0.8877
3690	0.8873
3699	0.8874
3708	0.8877
3717	0.8879
3726	0.8882
3735	0.8886
3744	0.8889
3753	0.8889
3762	0.8883
3771	0.8877
3780	0.8875
3789	0.8875
3798	0.887
3807	0.8861
3816	0.8848
3825	0.8832
3834	0.8866
3843	0.8867
3852	0.8857
3861	0.8851
3870	0.8841
3879	0.8829
3888	0.8833
3897	0.8848
3906	0.8838
3915	0.8818
3924	0.8798
3933	0.8789
3942	0.8805
3951	0.8814
3960	0.8812
3969	0.8806
3978	0.8806
3987	0.8813
3996	0.8801
