Infrared Spectrum: BIS-(3-[2-(3-METHYLPYRAZOXY)]-2,2,4,4--TETRAMETHYL-1-CYCLOBUTOXY) DIMETHYLSILANE
Formula: C28 H44 N4 O4 Si
State: LIQUID
Class: COBLENTZ
Instrument: Not specified, most likely a prism, grating, or hybrid spectrometer.
Sampling: TRANSMISSION
Path length: 0.0015 CM
Resolution: 4
Origin: WYANDOTTE CHEMICALS CORP., WYANDOTTE, MICHIGAN, USA
MICROMETERS	TRANSMITTANCE
2.034	0.955
2.0748	0.95
2.11559	0.947
2.15639	0.938
2.19719	0.895
2.23799	0.906
2.27878	0.918
2.31958	0.919
2.36038	0.926
2.40117	0.93
2.44197	0.926
2.48277	0.931
2.52356	0.933
2.56436	0.955
2.60516	0.921
2.64596	0.969
2.68675	0.941
2.72755	0.948
2.76835	0.947
2.80914	0.928
2.84994	0.916
2.89074	0.904
2.93154	0.902
2.97233	0.902
3.01313	0.895
3.05393	0.901
3.09472	0.892
3.13552	0.87
3.17632	0.851
3.21712	0.844
3.25791	0.634
3.29871	0.704
3.33951	0.092
3.3803	0.102
3.4211	0.233
3.4619	0.252
3.50269	0.527
3.54349	0.755
3.58429	0.807
3.62509	0.82
3.66588	0.812
3.70668	0.819
3.74748	0.889
3.78827	0.897
3.82907	0.901
3.86987	0.899
3.91067	0.897
3.95146	0.907
3.99226	0.901
4.03306	0.882
4.07385	0.877
4.11465	0.882
4.15545	0.89
4.19625	0.904
4.23704	0.885
4.27784	0.887
4.31864	0.907
4.35943	0.924
4.40023	0.921
4.44103	0.914
4.48182	0.906
4.52262	0.919
4.56342	0.919
4.60422	0.912
4.64501	0.907
4.68581	0.918
4.72661	0.916
4.7674	0.93
4.8082	0.928
4.849	0.933
4.8898	0.918
4.93059	0.909
4.97139	0.909
5.01219	0.93
5.05298	0.935
5.09378	0.933
5.13458	0.921
5.17537	0.918
5.21617	0.916
5.25697	0.907
5.29777	0.907
5.33856	0.902
5.37936	0.924
5.42016	0.933
5.46095	0.936
5.50175	0.918
5.54255	0.909
5.58335	0.902
5.62414	0.883
5.66494	0.883
5.70574	0.899
5.74653	0.901
5.78733	0.883
5.82813	0.873
5.86893	0.863
5.90972	0.851
5.95052	0.827
5.99132	0.82
6.03211	0.813
6.07291	0.812
6.11371	0.807
6.1545	0.791
6.1953	0.761
6.2361	0.679
6.2769	0.513
6.31769	0.648
6.35849	0.65
6.39929	0.378
6.44008	0.203
6.48088	0.177
6.52168	0.339
6.56248	0.558
6.60327	0.631
6.64407	0.665
6.68487	0.662
6.72566	0.576
6.76646	0.245
6.80726	0.18
6.84805	0.158
6.88885	0.129
6.92965	0.08
6.97045	0.061
7.01124	0.052
7.05204	0.051
7.09284	0.066
7.13363	0.098
7.17443	0.221
7.21523	0.129
7.25603	0.1
7.29682	0.143
7.33762	0.305
7.37842	0.271
7.41921	0.116
7.46001	0.092
7.50081	0.167
7.54161	0.194
7.5824	0.117
7.6232	0.059
7.664	0.156
7.70479	0.179
7.74559	0.252
7.78639	0.421
7.82718	0.39
7.86798	0.235
7.90878	0.075
7.94958	0.058
7.99037	0.182
8.03117	0.457
8.07197	0.556
8.11276	0.539
8.15356	0.525
8.19436	0.571
8.23516	0.529
8.27595	0.39
8.31675	0.206
8.35755	0.073
8.39834	0.105
8.43914	0.264
8.47994	0.261
8.52074	0.098
8.56153	0.059
8.60233	0.09
8.64313	0.097
8.68392	0.073
8.72472	0.058
8.76552	0.058
8.80631	0.059
8.84711	0.056
8.88791	0.052
8.92871	0.058
8.9695	0.093
9.0103	0.192
9.0511	0.252
9.09189	0.232
9.13269	0.22
9.17349	0.247
9.21429	0.267
9.25508	0.233
9.29588	0.221
9.33668	0.167
9.37747	0.104
9.41827	0.056
9.45907	0.054
9.49986	0.051
9.54066	0.052
9.58146	0.056
9.62226	0.061
9.66305	0.092
9.70385	0.17
9.74465	0.247
9.78544	0.278
9.82624	0.203
9.86704	0.078
9.90784	0.052
9.94863	0.052
9.98943	0.071
10.0302	0.162
10.071	0.25
10.1118	0.315
10.1526	0.329
10.1934	0.278
10.2342	0.255
10.275	0.327
10.3158	0.443
10.3566	0.525
10.3974	0.551
10.4382	0.529
10.479	0.496
10.5198	0.494
10.5606	0.513
10.6014	0.549
10.6422	0.568
10.683	0.575
10.7238	0.54
10.7646	0.476
10.8054	0.351
10.8462	0.199
10.887	0.102
10.9278	0.064
10.9686	0.059
11.0094	0.063
11.0502	0.08
11.091	0.104
11.1317	0.11
11.1725	0.119
11.2133	0.121
11.2541	0.11
11.2949	0.104
11.3357	0.104
11.3765	0.131
11.4173	0.18
11.4581	0.24
11.4989	0.274
11.5397	0.259
11.5805	0.233
11.6213	0.22
11.6621	0.209
11.7029	0.228
11.7437	0.269
11.7845	0.261
11.8253	0.206
11.8661	0.146
11.9069	0.109
11.9477	0.09
11.9885	0.093
12.0293	0.131
12.0701	0.187
12.1109	0.247
12.1517	0.295
12.1925	0.336
12.2333	0.37
12.2741	0.389
12.3149	0.392
12.3557	0.365
12.3965	0.322
12.4373	0.261
12.4781	0.186
12.5188	0.126
12.5596	0.098
12.6004	0.09
12.6412	0.097
12.682	0.121
12.7228	0.165
12.7636	0.225
12.8044	0.295
12.8452	0.377
12.886	0.476
12.9268	0.559
12.9676	0.605
13.0084	0.624
13.0492	0.672
13.09	0.694
13.1308	0.703
13.1716	0.73
13.2124	0.754
13.2532	0.761
13.294	0.752
13.3348	0.73
13.3756	0.726
13.4164	0.762
13.4572	0.781
13.498	0.793
13.5388	0.791
13.5796	0.784
13.6204	0.773
13.6612	0.784
13.702	0.805
13.7428	0.819
13.7836	0.827
13.8244	0.829
13.8652	0.831
13.9059	0.836
13.9467	0.837
13.9875	0.841
14.0283	0.839
14.0691	0.839
14.1099	0.836
14.1507	0.837
14.1915	0.825
14.2323	0.831
14.2731	0.82
14.3139	0.82
14.3547	0.812
14.3955	0.812
14.4363	0.805
14.4771	0.805
14.5179	0.803
14.5587	0.802
14.5995	0.795
14.6403	0.796
14.6811	0.793
14.7219	0.796
14.7627	0.796
14.8035	0.798
14.8443	0.798
14.8851	0.805
14.9259	0.796
14.9667	0.79
15.0075	0.767
15.0483	0.74
15.0891	0.713
15.1299	0.697
15.1707	0.684
15.2115	0.663
15.2523	0.655
15.293	0.66
15.3338	0.686
15.3746	0.711
15.4154	0.728
15.4562	0.737
15.497	0.749
15.5378	0.745
15.5786	0.74
15.6194	0.735
15.6602	0.725
15.701	0.721
15.7418	0.718
15.7826	0.716
15.8234	0.713
15.8642	0.715
15.905	0.709
15.9458	0.704
15.9866	0.697
