Infrared Spectrum: Calcium pyrophosphate, tetrabasic (Form I)
Formula: O7 P2 Ca2
State: SOLID (1 mg / 100 mg, KBr DISC)
Class: COBLENTZ III
Instrument: BECKMAN IR-12 (GRATING)
Instrument parameters: GRATING
Sampling: TRANSMISSION
Resolution: 2
Origin: COLGATE-PALMOLIVE COMPANY (KELLENBACH)
1/CM	TRANSMITTANCE
204	0.0669
214	0.0506
224	0.0491
234	0.1083
244	0.1852
254	0.1892
264	0.2147
274	0.2131
284	0.2107
294	0.2811
304	0.3055
314	0.3582
324	0.469
334	0.5605
344	0.6087
354	0.6431
364	0.6813
374	0.7289
384	0.7961
394	0.8568
404	0.8679
414	0.9092
424	0.9092
434	0.9053
444	0.8777
454	0.7689
464	0.7751
474	0.8339
484	0.7822
494	0.5438
504	0.5968
514	0.6947
524	0.5773
534	0.4716
544	0.4596
554	0.4289
564	0.2438
574	0.2259
584	0.2752
594	0.3701
604	0.507
614	0.4318
624	0.4431
634	0.6419
644	0.7657
654	0.8365
664	0.8953
674	0.9171
684	0.9252
694	0.9244
704	0.897
714	0.8142
724	0.5339
734	0.5051
744	0.7452
754	0.8569
764	0.9085
774	0.9132
784	0.9122
794	0.9029
804	0.8865
814	0.8582
824	0.8267
834	0.8044
844	0.7595
854	0.7219
864	0.6771
874	0.6171
884	0.5586
894	0.486
904	0.3928
914	0.3004
924	0.2632
934	0.2132
944	0.202
954	0.2506
964	0.2416
974	0.1555
984	0.3305
994	0.6263
1004	0.3228
1014	0.5525
1024	0.4447
1034	0.3285
1044	0.581
1054	0.4478
1064	0.2124
1074	0.2175
1084	0.2056
1094	0.241
1104	0.2034
1114	0.4309
1124	0.5694
1134	0.3219
1144	0.2057
1154	0.2078
1164	0.1645
1174	0.1644
1184	0.2567
1194	0.1817
1204	0.3519
1214	0.1639
1224	0.2191
1234	0.2905
1244	0.339
1254	0.3875
1264	0.4219
1274	0.4562
1284	0.4821
1294	0.5019
1304	0.5203
1314	0.5384
1324	0.5563
1334	0.5745
1344	0.5923
1354	0.6058
1364	0.6174
1374	0.6286
1384	0.6382
1394	0.6475
1404	0.656
1414	0.6649
1424	0.674
1434	0.6802
1444	0.686
1454	0.6936
1464	0.7013
1474	0.7078
1484	0.7179
1494	0.7241
1504	0.7233
1514	0.727
1524	0.7282
1534	0.7307
1544	0.7262
1554	0.7321
1564	0.7289
1574	0.7389
1584	0.7481
1594	0.7543
1604	0.7584
1614	0.7552
1624	0.747
1634	0.7411
1644	0.7409
1654	0.7329
1664	0.7463
1674	0.7517
1684	0.7568
1694	0.7646
1704	0.762
1714	0.7702
1724	0.7671
1734	0.7705
1744	0.7685
1754	0.7726
1764	0.7796
1774	0.7854
1784	0.7939
1794	0.7949
1804	0.7905
1814	0.7878
1824	0.7871
1834	0.7881
1844	0.7909
1854	0.7966
1864	0.8014
1874	0.8011
1884	0.7966
1894	0.7972
1904	0.7973
1914	0.7974
1924	0.7974
1934	0.7973
1944	0.7969
1954	0.7965
1964	0.7957
1974	0.7947
1984	0.7937
1994	0.7925
2004	0.7878
2014	0.7831
2024	0.7782
2034	0.7765
2044	0.7752
2054	0.774
2064	0.7733
2074	0.7727
2084	0.7721
2094	0.7717
2104	0.7715
2114	0.7713
2124	0.771
2134	0.7701
2144	0.7691
2154	0.768
2164	0.7672
2174	0.7673
2184	0.7674
2194	0.7675
2204	0.7676
2214	0.7683
2224	0.7691
2234	0.7693
2244	0.7694
2254	0.7695
2264	0.7696
2274	0.7696
2284	0.7696
2294	0.7691
2304	0.7672
2314	0.7644
2324	0.7603
2334	0.7567
2344	0.7553
2354	0.755
2364	0.7548
2374	0.7609
2384	0.7686
2394	0.7712
2404	0.7717
2414	0.7719
2424	0.7716
2434	0.7712
2444	0.7707
2454	0.7703
2464	0.7699
2474	0.7695
2484	0.7692
2494	0.7686
2504	0.7678
2514	0.7669
2524	0.766
2534	0.7655
2544	0.7651
2554	0.7646
2564	0.7642
2574	0.7639
2584	0.7636
2594	0.7633
2604	0.763
2614	0.7627
2624	0.762
2634	0.7611
2644	0.7603
2654	0.7594
2664	0.7585
2674	0.7576
2684	0.7567
2694	0.7561
2704	0.7555
2714	0.7549
2724	0.7543
2734	0.7537
2744	0.7528
2754	0.7519
2764	0.7511
2774	0.7502
2784	0.7493
2794	0.7484
2804	0.7476
2814	0.7467
2824	0.7459
2834	0.7451
2844	0.7443
2854	0.7434
2864	0.7426
2874	0.7418
2884	0.741
2894	0.7402
2904	0.7394
2914	0.7386
2924	0.7378
2934	0.737
2944	0.7362
2954	0.7353
2964	0.7344
2974	0.7335
2984	0.7326
2994	0.7317
3004	0.7308
3014	0.7299
3024	0.729
3034	0.7282
3044	0.7275
3054	0.7269
3064	0.7263
3074	0.7256
3084	0.725
3094	0.7244
3104	0.7238
3114	0.7232
3124	0.7227
3134	0.7221
3144	0.7216
3154	0.7192
3164	0.7164
3174	0.7138
3184	0.7119
3194	0.71
3204	0.7082
3214	0.7065
3224	0.7048
3234	0.7031
3244	0.7013
3254	0.6993
3264	0.6973
3274	0.6953
3284	0.6932
3294	0.6902
3304	0.6872
3314	0.6842
3324	0.681
3334	0.6762
3344	0.6713
3354	0.6662
3364	0.6606
3374	0.6549
3384	0.6488
3394	0.6434
3404	0.6394
3414	0.6378
3424	0.6365
3434	0.6357
3444	0.6349
3454	0.6349
3464	0.6353
3474	0.636
3484	0.6372
3494	0.6387
3504	0.6403
3514	0.6423
3524	0.6445
3534	0.6468
3544	0.6491
3554	0.6514
3564	0.6544
3574	0.6592
3584	0.6629
3594	0.6624
3604	0.6638
3614	0.6669
3624	0.6706
3634	0.6737
3644	0.6749
3654	0.6746
3664	0.6799
3674	0.685
3684	0.6864
3694	0.6867
3704	0.6866
3714	0.6846
3724	0.6838
3734	0.6829
3744	0.68
3754	0.6774
3764	0.6775
3774	0.6805
3784	0.683
3794	0.6825
3804	0.68
3814	0.6777
3824	0.6759
3834	0.6742
3844	0.6729
3854	0.6721
3864	0.6713
3874	0.6707
3884	0.6704
3894	0.67
3904	0.6712
3914	0.6725
3924	0.6731
3934	0.6725
3944	0.672
3954	0.6715
3964	0.6709
3974	0.6699
3984	0.6689
3994	0.668
