Infrared Spectrum: Ethanol, 2-[(N-Methyl-N-Purin-2-yl)Amino]-
Formula: C8 H11 N5 O
State: SOLID (0.9 mg / 650 mg KBr DISC)
Class: COBLENTZ III
Instrument: PERKIN-ELMER 21 (GRATING)
Instrument parameters: FILTER CHANGE ABOUT 1025 CM^-^1
Sampling: TRANSMISSION
Resolution: 2
Origin: SOUTHERN RESEARCH INSTITUTE
1/CM	TRANSMITTANCE
604	0.3965
613.032	0.3929
622.064	0.4123
631.095	0.4498
640.127	0.5315
649.159	0.5352
658.191	0.5349
667.223	0.541
676.254	0.5628
685.286	0.6016
694.318	0.6278
703.35	0.6469
712.382	0.6573
721.413	0.6594
730.445	0.6396
739.477	0.6462
748.509	0.6484
757.541	0.6784
766.572	0.6706
775.604	0.6462
784.636	0.5313
793.668	0.4002
802.7	0.563
811.731	0.5711
820.763	0.5888
829.795	0.6568
838.827	0.6702
847.859	0.643
856.89	0.6989
865.922	0.7318
874.954	0.7095
883.986	0.6579
893.018	0.6329
902.049	0.6734
911.081	0.6179
920.113	0.5261
929.145	0.307
938.177	0.5942
947.208	0.5831
956.24	0.6467
965.272	0.7297
974.304	0.7884
983.336	0.7827
992.367	0.765
1001.4	0.7277
1010.43	0.6601
1019.46	0.5213
1028.49	0.696
1037.53	0.6691
1046.56	0.513
1055.59	0.2818
1064.62	0.4102
1073.65	0.3095
1082.69	0.7325
1091.72	0.7703
1100.75	0.7633
1109.78	0.6961
1118.81	0.5435
1127.84	0.5511
1136.88	0.6672
1145.91	0.6779
1154.94	0.7881
1163.97	0.7902
1173	0.7831
1182.04	0.7686
1191.07	0.7684
1200.1	0.7625
1209.13	0.6978
1218.16	0.7096
1227.19	0.7309
1236.23	0.6872
1245.26	0.5257
1254.29	0.4128
1263.32	0.6849
1272.35	0.6841
1281.39	0.6764
1290.42	0.464
1299.45	0.5014
1308.48	0.7022
1317.51	0.6851
1326.54	0.5934
1335.58	0.67
1344.61	0.5055
1353.64	0.3052
1362.67	0.5045
1371.7	0.6045
1380.73	0.5929
1389.77	0.6148
1398.8	0.4015
1407.83	0.1911
1416.86	0.3515
1425.89	0.3069
1434.93	0.3937
1443.96	0.3987
1452.99	0.6152
1462.02	0.5754
1471.05	0.5846
1480.08	0.5496
1489.12	0.4606
1498.15	0.3885
1507.18	0.5658
1516.21	0.5459
1525.24	0.3174
1534.28	0.1015
1543.31	0.0987
1552.34	0.2258
1561.37	0.3146
1570.4	0.188
1579.43	0.1579
1588.47	0.4428
1597.5	0.6476
1606.53	0.6683
1615.56	0.6302
1624.59	0.4394
1633.63	0.3
1642.66	0.156
1651.69	0.3377
1660.72	0.4071
1669.75	0.5155
1678.78	0.6965
1687.82	0.7687
1696.85	0.7824
1705.88	0.795
1714.91	0.8038
1723.94	0.8113
1732.98	0.821
1742.01	0.832
1751.04	0.8374
1760.07	0.84
1769.1	0.8427
1778.13	0.8414
1787.17	0.8311
1796.2	0.8187
1805.23	0.8041
1814.26	0.7915
1823.29	0.7991
1832.33	0.8345
1841.36	0.8614
1850.39	0.8705
1859.42	0.8721
1868.45	0.872
1877.48	0.8706
1886.52	0.8677
1895.55	0.8609
1904.58	0.8469
1913.61	0.831
1922.64	0.8474
1931.67	0.8716
1940.71	0.8771
1949.74	0.8803
1958.77	0.8822
1967.8	0.8836
1976.83	0.8824
1985.87	0.8811
1994.9	0.8799
2003.93	0.8786
2012.96	0.8771
2021.99	0.8757
2031.02	0.8743
2040.06	0.8726
2049.09	0.8703
2058.12	0.8681
2067.15	0.8658
2076.18	0.8634
2085.22	0.861
2094.25	0.8585
2103.28	0.8561
2112.31	0.8536
2121.34	0.8512
2130.37	0.8487
2139.41	0.8463
2148.44	0.8439
2157.47	0.8415
2166.5	0.839
2175.53	0.8362
2184.57	0.8335
2193.6	0.8308
2202.63	0.8282
2211.66	0.8243
2220.69	0.8205
2229.72	0.8165
2238.76	0.8125
2247.79	0.8085
2256.82	0.8043
2265.85	0.7997
2274.88	0.7949
2283.92	0.7896
2292.95	0.784
2301.98	0.7748
2311.01	0.7647
2320.04	0.7522
2329.07	0.742
2338.11	0.7348
2347.14	0.7296
2356.17	0.7268
2365.2	0.7253
2374.23	0.7239
2383.27	0.7149
2392.3	0.7033
2401.33	0.6969
2410.36	0.6924
2419.39	0.6862
2428.42	0.6773
2437.46	0.6679
2446.49	0.6586
2455.52	0.6492
2464.55	0.64
2473.58	0.6305
2482.61	0.6217
2491.65	0.6156
2500.68	0.5998
2509.71	0.5753
2518.74	0.5487
2527.77	0.5222
2536.81	0.5028
2545.84	0.5082
2554.87	0.5288
2563.9	0.5365
2572.93	0.5231
2581.96	0.5049
2591	0.4918
2600.03	0.4864
2609.06	0.4808
2618.09	0.4716
2627.12	0.4564
2636.16	0.4363
2645.19	0.4179
2654.22	0.3978
2663.25	0.3759
2672.28	0.3542
2681.31	0.3421
2690.35	0.3347
2699.38	0.3281
2708.41	0.3221
2717.44	0.3194
2726.47	0.3194
2735.51	0.3187
2744.54	0.3103
2753.57	0.2943
2762.6	0.2802
2771.63	0.2714
2780.66	0.2654
2789.7	0.2603
2798.73	0.258
2807.76	0.2578
2816.79	0.2671
2825.82	0.2819
2834.86	0.2986
2843.89	0.3121
2852.92	0.3257
2861.95	0.3418
2870.98	0.3425
2880.01	0.3388
2889.05	0.3323
2898.08	0.3221
2907.11	0.308
2916.14	0.2907
2925.17	0.2734
2934.2	0.26
2943.24	0.2559
2952.27	0.2619
2961.3	0.2715
2970.33	0.2836
2979.36	0.2967
2988.4	0.3054
2997.43	0.3134
3006.46	0.3239
3015.49	0.3351
3024.52	0.3355
3033.55	0.3365
3042.59	0.3416
3051.62	0.3506
3060.65	0.3428
3069.68	0.3112
3078.71	0.2836
3087.75	0.2808
3096.78	0.3006
3105.81	0.3265
3114.84	0.3587
3123.87	0.409
3132.9	0.4344
3141.94	0.4488
3150.97	0.4584
3160	0.4662
3169.03	0.468
3178.06	0.4642
3187.1	0.4556
3196.13	0.4421
3205.16	0.423
3214.19	0.4004
3223.22	0.3766
3232.25	0.3553
3241.29	0.3357
3250.32	0.3157
3259.35	0.2977
3268.38	0.2911
3277.41	0.2973
3286.45	0.3091
3295.48	0.3232
3304.51	0.3387
3313.54	0.3652
3322.57	0.3944
3331.6	0.4142
3340.64	0.4325
3349.67	0.45
3358.7	0.4663
3367.73	0.4813
3376.76	0.4898
3385.8	0.4973
3394.83	0.5049
3403.86	0.5129
3412.89	0.5209
3421.92	0.5285
3430.95	0.5358
3439.99	0.5431
3449.02	0.5507
3458.05	0.5583
3467.08	0.5662
3476.11	0.5785
3485.14	0.5908
3494.18	0.6035
3503.21	0.6168
3512.24	0.6306
3521.27	0.6445
3530.3	0.6585
3539.34	0.6726
3548.37	0.6869
3557.4	0.7032
3566.43	0.7237
3575.46	0.7436
3584.49	0.7538
3593.53	0.7641
3602.56	0.7734
3611.59	0.7812
3620.62	0.7868
3629.65	0.7925
3638.69	0.7976
3647.72	0.8021
3656.75	0.8041
3665.78	0.806
3674.81	0.8061
3683.84	0.8061
3692.88	0.8062
3701.91	0.8064
3710.94	0.8065
3719.97	0.8066
3729	0.807
3738.04	0.8075
3747.07	0.8079
3756.1	0.8089
3765.13	0.8112
3774.16	0.8136
3783.19	0.8149
3792.23	0.8151
3801.26	0.8139
3810.29	0.8117
3819.32	0.8095
3828.35	0.8078
3837.39	0.8061
3846.42	0.8043
3855.45	0.8036
3864.48	0.8031
3873.51	0.8026
3882.54	0.8021
3891.58	0.8024
3900.61	0.8028
3909.64	0.8031
3918.67	0.8036
3927.7	0.8041
3936.73	0.8045
3945.77	0.8043
3954.8	0.8042
3963.83	0.8041
3972.86	0.8041
3981.89	0.8042
3990.93	0.8033
3999.96	0.8021
4008.99	0.8008
