Infrared Spectrum: Ammonium nitrate, tetra-(n-butyl)-
Formula: C16 H36 N2 O3
State: SOLID (SPLIT MULL), FLUOROLUBE FOR 3800-1330 CM^-^1, NUJOL FOR 1330-400 CM^-^1
Class: COBLENTZ III
Instrument: BECKMAN IR-9 (GRATING)
Instrument parameters: ORDER CHANGES: 670, 1200, 2000 CM^-^1
Sampling: TRANSMISSION
Resolution: 2
Origin: DOW CHEMICAL COMPANY
1/CM	TRANSMITTANCE
402	0.5659
411	0.5796
420	0.6165
429	0.6681
438	0.7139
447	0.7503
456	0.7856
465	0.7998
474	0.815
483	0.8326
492	0.8466
501	0.8539
510	0.8573
519	0.8592
528	0.8612
537	0.8634
546	0.8657
555	0.8676
564	0.8692
573	0.8714
582	0.8746
591	0.8777
600	0.8811
609	0.8824
618	0.883
627	0.8839
636	0.8841
645	0.8843
654	0.885
663	0.8848
672	0.8841
681	0.8816
690	0.8762
699	0.8656
708	0.8407
717	0.7985
726	0.7627
735	0.7583
744	0.7158
753	0.7749
762	0.8194
771	0.8299
780	0.8321
789	0.8304
798	0.8243
807	0.8178
816	0.8437
825	0.85
834	0.7581
843	0.847
852	0.8499
861	0.8465
870	0.8243
879	0.7506
888	0.7145
897	0.7481
906	0.8042
915	0.8408
924	0.844
933	0.8447
942	0.8449
951	0.8437
960	0.8424
969	0.8389
978	0.8342
987	0.8354
996	0.8409
1005	0.824
1014	0.8115
1023	0.8088
1032	0.7725
1041	0.786
1050	0.8067
1059	0.7912
1068	0.7932
1077	0.7984
1086	0.8199
1095	0.8292
1104	0.8189
1113	0.8029
1122	0.8137
1131	0.8181
1140	0.8085
1149	0.7733
1158	0.7446
1167	0.7777
1176	0.7614
1185	0.7662
1194	0.822
1203	0.8275
1212	0.828
1221	0.8226
1230	0.8127
1239	0.7992
1248	0.7784
1257	0.7583
1266	0.7467
1275	0.7114
1284	0.6641
1293	0.6251
1302	0.5169
1311	0.4002
1320	0.2826
1329	0.1975
1338	0.1615
1347	0.1816
1356	0.2461
1365	0.3756
1374	0.4943
1383	0.548
1392	0.6593
1401	0.7356
1410	0.7581
1419	0.7842
1428	0.7868
1437	0.7961
1446	0.7807
1455	0.7441
1464	0.7221
1473	0.7488
1482	0.7411
1491	0.6394
1500	0.8189
1509	0.8422
1518	0.8526
1527	0.8577
1536	0.8605
1545	0.8628
1554	0.8648
1563	0.867
1572	0.8686
1581	0.8684
1590	0.8687
1599	0.8692
1608	0.8697
1617	0.8701
1626	0.8702
1635	0.87
1644	0.8701
1653	0.8704
1662	0.8707
1671	0.871
1680	0.8713
1689	0.8718
1698	0.8708
1707	0.869
1716	0.857
1725	0.852
1734	0.8636
1743	0.8537
1752	0.8679
1761	0.8724
1770	0.8733
1779	0.8741
1788	0.8756
1797	0.8771
1806	0.8785
1815	0.8792
1824	0.8795
1833	0.8796
1842	0.8795
1851	0.8793
1860	0.879
1869	0.8786
1878	0.8783
1887	0.8781
1896	0.8779
1905	0.8782
1914	0.8789
1923	0.8798
1932	0.8806
1941	0.8811
1950	0.8804
1959	0.8799
1968	0.8794
1977	0.8797
1986	0.8804
1995	0.8769
2004	0.8853
2013	0.8852
2022	0.8854
2031	0.8859
2040	0.8863
2049	0.8865
2058	0.8868
2067	0.8871
2076	0.8871
2085	0.8871
2094	0.8868
2103	0.8865
2112	0.8862
2121	0.8859
2130	0.8851
2139	0.884
2148	0.8829
2157	0.8818
2166	0.8807
2175	0.8801
2184	0.8796
2193	0.8791
2202	0.8783
2211	0.8775
2220	0.8767
2229	0.8755
2238	0.8744
2247	0.8731
2256	0.8715
2265	0.8699
2274	0.8693
2283	0.8689
2292	0.8691
2301	0.8694
2310	0.8698
2319	0.8703
2328	0.8712
2337	0.8719
2346	0.8723
2355	0.8727
2364	0.8711
2373	0.8654
2382	0.8562
2391	0.8575
2400	0.8615
2409	0.8655
2418	0.8683
2427	0.8697
2436	0.8706
2445	0.871
2454	0.8719
2463	0.8728
2472	0.8737
2481	0.8735
2490	0.8734
2499	0.8737
2508	0.8742
2517	0.8746
2526	0.8748
2535	0.8743
2544	0.8739
2553	0.8733
2562	0.8729
2571	0.8723
2580	0.8717
2589	0.871
2598	0.8703
2607	0.8697
2616	0.8691
2625	0.8685
2634	0.868
2643	0.8673
2652	0.8667
2661	0.866
2670	0.8653
2679	0.8647
2688	0.864
2697	0.862
2706	0.8598
2715	0.8575
2724	0.8553
2733	0.8529
2742	0.8504
2751	0.8494
2760	0.8487
2769	0.8485
2778	0.8482
2787	0.8461
2796	0.8418
2805	0.8369
2814	0.8292
2823	0.8195
2832	0.808
2841	0.7905
2850	0.7691
2859	0.6752
2868	0.5973
2877	0.598
2886	0.7217
2895	0.7204
2904	0.6909
2913	0.6511
2922	0.6083
2931	0.5671
2940	0.5489
2949	0.5334
2958	0.398
2967	0.5444
2976	0.6807
2985	0.7679
2994	0.7803
3003	0.7911
3012	0.8064
3021	0.8237
3030	0.8363
3039	0.8415
3048	0.8448
3057	0.8464
3066	0.8478
3075	0.849
3084	0.8495
3093	0.8506
3102	0.8513
3111	0.8514
3120	0.8521
3129	0.8528
3138	0.8532
3147	0.8536
3156	0.8532
3165	0.8526
3174	0.852
3183	0.8511
3192	0.8502
3201	0.8492
3210	0.8488
3219	0.8483
3228	0.848
3237	0.8476
3246	0.847
3255	0.8462
3264	0.8452
3273	0.8441
3282	0.843
3291	0.8418
3300	0.8405
3309	0.8393
3318	0.8386
3327	0.8378
3336	0.8373
3345	0.8381
3354	0.8393
3363	0.8419
3372	0.8434
3381	0.8426
3390	0.8419
3399	0.8413
3408	0.8408
3417	0.8403
3426	0.84
3435	0.8395
3444	0.8391
3453	0.8387
3462	0.8383
3471	0.8379
3480	0.8376
3489	0.8374
3498	0.8373
3507	0.837
3516	0.8369
3525	0.8369
3534	0.8371
3543	0.8372
3552	0.8373
3561	0.8369
3570	0.8364
3579	0.8247
3588	0.8231
3597	0.8377
3606	0.838
3615	0.8384
3624	0.8391
3633	0.8402
3642	0.8409
3651	0.8413
3660	0.8413
3669	0.8411
3678	0.8415
3687	0.8418
3696	0.842
3705	0.842
3714	0.842
3723	0.8421
3732	0.842
3741	0.8417
3750	0.8415
3759	0.841
3768	0.8406
3777	0.8402
3786	0.8401
3795	0.8399
