Infrared Spectrum: 2-Furamidoxime, o-(2-bromobutyryl)-5-nitro-
Formula: C9 H10 Br N3 O5
State: SOLUTION (7% CHCl3) VS SOLVENT
Melting point: 121 C
Class: COBLENTZ III
Instrument: PERKIN-ELMER 421 (GRATING)
Instrument parameters: GRATINGS: 1999 CM^-^1
Sampling: TRANSMISSION
Path length: 0.03 CM
Resolution: 2
Origin: ABBOTT LABORATORIES - WASHBURN
1/CM	TRANSMITTANCE
660	0.5687
669	0.5703
678	0.5709
687	0.5707
696	0.5678
705	0.5636
714	0.5601
723	0.5566
732	0.5531
741	0.5498
750	0.5476
759	0.547
768	0.546
777	0.5428
786	0.5403
795	0.5381
804	0.5397
813	0.5683
822	0.731
831	0.7715
840	0.775
849	0.7793
858	0.7749
867	0.7594
876	0.671
885	0.6917
894	0.7118
903	0.68
912	0.5325
921	0.5433
930	0.6143
939	0.6963
948	0.7447
957	0.6157
966	0.398
975	0.7238
984	0.8472
993	0.8537
1002	0.829
1011	0.284
1020	0.69
1029	0.8165
1038	0.847
1047	0.8244
1056	0.7033
1065	0.5972
1074	0.5482
1083	0.4149
1092	0.2978
1101	0.3746
1110	0.4563
1119	0.3253
1128	0.3773
1137	0.5328
1146	0.6907
1155	0.7148
1164	0.6871
1173	0.544
1182	0.5047
1191	0.5128
1200	0.5126
1209	0.5118
1218	0.5139
1227	0.512
1236	0.5137
1245	0.5429
1254	0.598
1263	0.6593
1272	0.7082
1281	0.6576
1290	0.5773
1299	0.6427
1308	0.5162
1317	0.5086
1326	0.5666
1335	0.3304
1344	0.0558
1353	0.0945
1362	0.4108
1371	0.6398
1380	0.4702
1389	0.3024
1398	0.6929
1407	0.7764
1416	0.7822
1425	0.7823
1434	0.7823
1443	0.7725
1452	0.7042
1461	0.7672
1470	0.7678
1479	0.7542
1488	0.6235
1497	0.3966
1506	0.3274
1515	0.3915
1524	0.3638
1533	0.3051
1542	0.2931
1551	0.7041
1560	0.6951
1569	0.4884
1578	0.426
1587	0.4322
1596	0.6636
1605	0.7308
1614	0.663
1623	0.5075
1632	0.09
1641	0.2595
1650	0.5594
1659	0.7513
1668	0.8326
1677	0.849
1686	0.8545
1695	0.8532
1704	0.8495
1713	0.831
1722	0.8191
1731	0.7505
1740	0.541
1749	0.3223
1758	0.1898
1767	0.2075
1776	0.4071
1785	0.6639
1794	0.8065
1803	0.8509
1812	0.8636
1821	0.872
1830	0.8783
1839	0.8828
1848	0.8864
1857	0.8896
1866	0.8944
1875	0.8956
1884	0.8974
1893	0.8982
1902	0.8986
1911	0.8983
1920	0.8992
1929	0.8997
1938	0.9002
1947	0.9015
1956	0.9042
1965	0.9073
1974	0.9098
1983	0.9149
1992	0.9134
2001	0.9048
2010	0.9034
2019	0.9053
2028	0.9038
2037	0.9061
2046	0.9124
2055	0.9121
2064	0.9152
2073	0.9171
2082	0.9193
2091	0.9205
2100	0.9206
2109	0.9195
2118	0.9187
2127	0.9203
2136	0.9229
2145	0.9226
2154	0.9202
2163	0.921
2172	0.9224
2181	0.9223
2190	0.9225
2199	0.9235
2208	0.9238
2217	0.9236
2226	0.9241
2235	0.9244
2244	0.9201
2253	0.9213
2262	0.9227
2271	0.9236
2280	0.9246
2289	0.9252
2298	0.9249
2307	0.9231
2316	0.924
2325	0.9236
2334	0.9222
2343	0.9204
2352	0.9174
2361	0.9141
2370	0.9105
2379	0.9047
2388	0.8877
2397	0.8852
2406	0.8868
2415	0.8867
2424	0.8898
2433	0.8935
2442	0.8987
2451	0.9064
2460	0.9128
2469	0.9103
2478	0.8996
2487	0.9115
2496	0.9137
2505	0.9195
2514	0.9317
2523	0.9324
2532	0.9313
2541	0.9296
2550	0.9297
2559	0.9344
2568	0.9334
2577	0.9306
2586	0.929
2595	0.9318
2604	0.9359
2613	0.9386
2622	0.9393
2631	0.9362
2640	0.9324
2649	0.9297
2658	0.9301
2667	0.9286
2676	0.9277
2685	0.9261
2694	0.9144
2703	0.9072
2712	0.9098
2721	0.9082
2730	0.9033
2739	0.904
2748	0.9113
2757	0.9157
2766	0.9218
2775	0.9158
2784	0.913
2793	0.9209
2802	0.921
2811	0.9199
2820	0.9169
2829	0.9079
2838	0.8877
2847	0.8724
2856	0.8643
2865	0.8447
2874	0.815
2883	0.8507
2892	0.8585
2901	0.8495
2910	0.834
2919	0.8042
2928	0.7764
2937	0.7705
2946	0.7617
2955	0.7314
2964	0.6671
2973	0.6569
2982	0.733
2991	0.7437
3000	0.7598
3009	0.7929
3018	0.7913
3027	0.7883
3036	0.7927
3045	0.806
3054	0.8194
3063	0.8274
3072	0.8311
3081	0.8334
3090	0.8354
3099	0.8388
3108	0.8388
3117	0.8274
3126	0.8085
3135	0.7271
3144	0.722
3153	0.8353
3162	0.8592
3171	0.8691
3180	0.8812
3189	0.8952
3198	0.9036
3207	0.9147
3216	0.9189
3225	0.922
3234	0.926
3243	0.9293
3252	0.9286
3261	0.9246
3270	0.9205
3279	0.9207
3288	0.9198
3297	0.9155
3306	0.9081
3315	0.8984
3324	0.89
3333	0.8833
3342	0.8758
3351	0.8693
3360	0.8639
3369	0.8547
3378	0.8333
3387	0.7735
3396	0.655
3405	0.5059
3414	0.4579
3423	0.5851
3432	0.7935
3441	0.8615
3450	0.868
3459	0.8644
3468	0.8472
3477	0.8221
3486	0.7684
3495	0.697
3504	0.6206
3513	0.5324
3522	0.4918
3531	0.6098
3540	0.7994
3549	0.8603
3558	0.8757
3567	0.8806
3576	0.8828
3585	0.8866
3594	0.8929
3603	0.8973
3612	0.8977
3621	0.8977
3630	0.8951
3639	0.8946
3648	0.8887
3657	0.8796
3666	0.8704
3675	0.8611
3684	0.8651
3693	0.8713
3702	0.8872
3711	0.8914
3720	0.8924
3729	0.8918
3738	0.8905
3747	0.8889
3756	0.8877
3765	0.8882
3774	0.8898
3783	0.893
3792	0.894
3801	0.89
3810	0.8872
3819	0.8883
3828	0.8877
3837	0.8904
3846	0.8959
3855	0.8898
3864	0.8891
3873	0.8889
3882	0.8899
3891	0.891
3900	0.889
3909	0.8858
3918	0.8862
3927	0.8865
3936	0.8846
3945	0.881
3954	0.8771
3963	0.8764
3972	0.8766
3981	0.8743
3990	0.875
3999	0.8763
