Infrared Spectrum: ACETIC ACID, NITRILOTRI-, TRISODIUM SALT
Formula: C6 H6 N Na3 O6
State: SOLID (OIL MULL)
Class: COBLENTZ III
Instrument: PERKIN-ELMER 521 (GRATING)
Instrument parameters: FILTERS AT 3150, 2500, 2000, 1150, 700, 410. GRATING CHANGES: 2000, 630
Sampling: TRANSMISSION
Path length: CsBr PLATES
Resolution: 2
Origin: STANDARD OIL OF OHIO
1/CM	TRANSMITTANCE
3906	0.8717
3896	0.8733
3886	0.8751
3876	0.8764
3866	0.8777
3856	0.8783
3846	0.8786
3836	0.8788
3826	0.8786
3816	0.8782
3806	0.878
3796	0.8803
3786	0.8825
3776	0.8848
3766	0.8877
3756	0.8906
3746	0.8928
3736	0.8945
3726	0.8956
3716	0.8955
3706	0.8945
3696	0.8921
3686	0.8889
3676	0.8851
3666	0.8768
3656	0.8698
3646	0.8602
3636	0.8493
3626	0.8383
3616	0.8268
3606	0.8132
3596	0.7991
3586	0.7831
3576	0.7653
3566	0.7445
3556	0.7112
3546	0.6689
3536	0.6139
3526	0.5864
3516	0.5439
3506	0.5084
3496	0.4733
3486	0.4451
3476	0.4321
3466	0.4277
3456	0.4287
3446	0.4285
3436	0.4262
3426	0.4162
3416	0.3978
3406	0.3764
3396	0.3537
3386	0.3337
3376	0.3184
3366	0.306
3356	0.2965
3346	0.2907
3336	0.2881
3326	0.2914
3316	0.295
3306	0.3017
3296	0.3083
3286	0.3115
3276	0.3126
3266	0.3116
3256	0.3082
3246	0.3019
3236	0.2928
3226	0.2855
3216	0.2802
3206	0.2759
3196	0.2722
3186	0.2707
3176	0.2708
3166	0.2745
3156	0.281
3146	0.2899
3136	0.3021
3126	0.3168
3116	0.3308
3106	0.3444
3096	0.3603
3086	0.3768
3076	0.3923
3066	0.4032
3056	0.409
3046	0.4104
3036	0.4108
3026	0.4092
3016	0.4009
3006	0.3852
2996	0.3
2986	0.2444
2976	0.1579
2966	0.121
2956	0.0353
2946	0.0341
2936	0.0287
2926	0.0123
2916	0.008
2906	0.0214
2896	0.0421
2886	0.0656
2876	0.0713
2866	0.0528
2856	0.0421
2846	0.069
2836	0.1181
2826	0.2528
2816	0.4014
2806	0.5234
2796	0.6002
2786	0.6612
2776	0.7037
2766	0.7293
2756	0.7498
2746	0.7565
2736	0.7562
2726	0.7462
2716	0.7495
2706	0.7706
2696	0.7769
2686	0.7771
2676	0.7757
2666	0.7738
2656	0.7768
2646	0.7851
2636	0.8007
2626	0.8051
2616	0.8083
2606	0.8115
2596	0.8161
2586	0.8208
2576	0.8268
2566	0.8348
2556	0.8435
2546	0.8478
2536	0.8514
2526	0.8551
2516	0.8589
2506	0.8625
2496	0.8666
2486	0.8711
2476	0.8758
2466	0.8805
2456	0.8845
2446	0.8859
2436	0.8823
2426	0.879
2416	0.8764
2406	0.8757
2396	0.875
2386	0.8749
2376	0.875
2366	0.8751
2356	0.8764
2346	0.8749
2336	0.8693
2326	0.86
2316	0.8505
2306	0.8446
2296	0.8392
2286	0.8358
2276	0.8331
2266	0.8313
2256	0.8373
2246	0.8411
2236	0.8449
2226	0.8499
2216	0.8551
2206	0.86
2196	0.864
2186	0.868
2176	0.872
2166	0.8753
2156	0.8782
2146	0.8811
2136	0.8848
2126	0.8893
2116	0.8925
2106	0.8949
2096	0.8954
2086	0.8951
2076	0.893
2066	0.8903
2056	0.8871
2046	0.8864
2036	0.8875
2026	0.8896
2016	0.8912
2006	0.8928
1996	0.8959
1986	0.8962
1976	0.8954
1966	0.8938
1956	0.8924
1946	0.8871
1936	0.8847
1926	0.8823
1916	0.8795
1906	0.8755
1896	0.8692
1886	0.8627
1876	0.8557
1866	0.8486
1856	0.8412
1846	0.8339
1836	0.8278
1826	0.8202
1816	0.8108
1806	0.7997
1796	0.7849
1786	0.7711
1776	0.7549
1766	0.7362
1756	0.7115
1746	0.6807
1736	0.6428
1726	0.5991
1716	0.5399
1706	0.4932
1696	0.4477
1686	0.4002
1676	0.3577
1666	0.3399
1656	0.3228
1646	0.2852
1636	0.1844
1626	0.0729
1616	0.038
1606	0.0333
1596	0.0196
1586	0.0204
1576	0.022
1566	0.0337
1556	0.0817
1546	0.1424
1536	0.2354
1526	0.3101
1516	0.3528
1506	0.3864
1496	0.4102
1486	0.4193
1476	0.4039
1466	0.165
1456	0.146
1446	0.1224
1436	0.1508
1426	0.1181
1416	0.0674
1406	0.045
1396	0.0861
1386	0.2312
1376	0.2246
1366	0.3296
1356	0.4378
1346	0.3875
1336	0.2022
1326	0.1277
1316	0.2703
1306	0.4221
1296	0.4216
1286	0.2421
1276	0.3395
1266	0.2989
1256	0.2488
1246	0.5092
1236	0.5637
1226	0.6601
1216	0.6991
1206	0.7189
1196	0.7312
1186	0.7428
1176	0.7458
1166	0.7257
1156	0.5551
1146	0.5717
1136	0.3051
1126	0.5608
1116	0.7287
1106	0.7815
1096	0.8042
1086	0.8101
1076	0.8156
1066	0.8209
1056	0.8247
1046	0.8292
1036	0.8303
1026	0.8246
1016	0.7711
1006	0.5817
996	0.4271
986	0.4252
976	0.4862
966	0.76
956	0.7651
946	0.6774
936	0.7189
926	0.5376
916	0.2917
906	0.4652
896	0.6792
886	0.7561
876	0.7812
866	0.7845
856	0.7787
846	0.7591
836	0.7225
826	0.6672
816	0.5943
806	0.5526
796	0.5477
786	0.5616
776	0.5721
766	0.5587
756	0.4833
746	0.4433
736	0.3468
726	0.3123
716	0.4093
706	0.5102
696	0.5481
686	0.5793
676	0.6105
666	0.6262
656	0.5819
646	0.4066
636	0.4547
626	0.4266
616	0.4675
606	0.4967
596	0.4943
586	0.3922
576	0.4604
566	0.5374
556	0.6144
546	0.6415
536	0.5164
526	0.5497
516	0.571
506	0.453
496	0.636
486	0.7899
476	0.8402
466	0.8647
456	0.8764
446	0.8767
436	0.882
426	0.8873
416	0.8757
406	0.8718
396	0.8461
386	0.7687
376	0.6381
366	0.5197
356	0.6199
346	0.6982
336	0.753
326	0.7855
316	0.7585
306	0.6978
296	0.6027
286	0.4957
276	0.4351
266	0.366
256	0.37
246	0.3734
