Infrared Spectrum: Benzylic acid, 1-methyl-4-piperidyl ester, hydrochloride
Formula: C20 H24 Cl N O3
State: SOLID (SPLIT MULL), FLUOROLUBE FOR 3800-1330 CM^-^1, NUJOL FOR 1330-400 CM^-^1
Class: COBLENTZ III
Instrument: BECKMAN IR-9 (GRATING)
Instrument parameters: ORDER CHANGES: 670, 1200, 2000 CM^-^1
Sampling: TRANSMISSION
Resolution: 2
Origin: DOW CHEMICAL COMPANY
1/CM	TRANSMITTANCE
403	0.7637
412	0.7781
421	0.8087
430	0.8266
439	0.8548
448	0.873
457	0.891
466	0.896
475	0.8849
484	0.8762
493	0.8616
502	0.8419
511	0.8471
520	0.828
529	0.8482
538	0.8418
547	0.8282
556	0.8087
565	0.7552
574	0.718
583	0.7894
592	0.8121
601	0.7948
610	0.7276
619	0.7487
628	0.7119
637	0.7866
646	0.807
655	0.8191
664	0.8267
673	0.6829
682	0.7812
691	0.8023
700	0.8115
709	0.5111
718	0.7284
727	0.7166
736	0.7362
745	0.6744
754	0.7819
763	0.7781
772	0.5035
781	0.3756
790	0.7915
799	0.7693
808	0.8013
817	0.817
826	0.8293
835	0.8245
844	0.8115
853	0.7904
862	0.6876
871	0.7996
880	0.8107
889	0.8029
898	0.7677
907	0.5887
916	0.7036
925	0.7612
934	0.7755
943	0.7391
952	0.7616
961	0.7481
970	0.5866
979	0.571
988	0.6697
997	0.7292
1006	0.6465
1015	0.7354
1024	0.7301
1033	0.5874
1042	0.5812
1051	0.6822
1060	0.3137
1069	0.6889
1078	0.717
1087	0.6927
1096	0.5474
1105	0.59
1114	0.7128
1123	0.7078
1132	0.6831
1141	0.6762
1150	0.6296
1159	0.5418
1168	0.5028
1177	0.6177
1186	0.5861
1195	0.5721
1204	0.604
1213	0.6179
1222	0.5591
1231	0.3632
1240	0.2025
1249	0.4174
1258	0.617
1267	0.6529
1276	0.7074
1285	0.7019
1294	0.6737
1303	0.6727
1312	0.6439
1321	0.6499
1330	0.7033
1339	0.7581
1348	0.7504
1357	0.7757
1366	0.8107
1375	0.8064
1384	0.8278
1393	0.8316
1402	0.8181
1411	0.756
1420	0.761
1429	0.8061
1438	0.7684
1447	0.7365
1456	0.7806
1465	0.7547
1474	0.7734
1483	0.8223
1492	0.8149
1501	0.8513
1510	0.8685
1519	0.8593
1528	0.8125
1537	0.8536
1546	0.878
1555	0.8909
1564	0.8879
1573	0.8772
1582	0.8703
1591	0.8721
1600	0.8644
1609	0.8523
1618	0.8576
1627	0.8611
1636	0.8501
1645	0.8497
1654	0.8495
1663	0.848
1672	0.8451
1681	0.8374
1690	0.8346
1699	0.8297
1708	0.8068
1717	0.748
1726	0.4892
1735	0.8048
1744	0.839
1753	0.9029
1762	0.9126
1771	0.9051
1780	0.894
1789	0.8903
1798	0.8873
1807	0.8842
1816	0.8802
1825	0.8754
1834	0.8706
1843	0.8675
1852	0.8656
1861	0.8641
1870	0.8626
1879	0.8611
1888	0.8596
1897	0.858
1906	0.8577
1915	0.8575
1924	0.8574
1933	0.8571
1942	0.8558
1951	0.8553
1960	0.8532
1969	0.8512
1978	0.8492
1987	0.8472
1996	0.8394
2005	0.8467
2014	0.859
2023	0.8648
2032	0.8662
2041	0.8652
2050	0.8632
2059	0.8592
2068	0.8556
2077	0.8521
2086	0.8486
2095	0.8451
2104	0.8414
2113	0.8374
2122	0.8335
2131	0.829
2140	0.8241
2149	0.8192
2158	0.8144
2167	0.8098
2176	0.8053
2185	0.8007
2194	0.7962
2203	0.7922
2212	0.7884
2221	0.7845
2230	0.7794
2239	0.7743
2248	0.7692
2257	0.764
2266	0.7581
2275	0.7521
2284	0.7462
2293	0.741
2302	0.7359
2311	0.7307
2320	0.7257
2329	0.7203
2338	0.715
2347	0.7097
2356	0.7043
2365	0.6985
2374	0.6912
2383	0.684
2392	0.6766
2401	0.6699
2410	0.6648
2419	0.6597
2428	0.6548
2437	0.6511
2446	0.6488
2455	0.6445
2464	0.6351
2473	0.6337
2482	0.6387
2491	0.6474
2500	0.6575
2509	0.6696
2518	0.682
2527	0.6868
2536	0.6871
2545	0.6819
2554	0.6818
2563	0.6896
2572	0.6907
2581	0.6889
2590	0.6908
2599	0.6972
2608	0.7006
2617	0.701
2626	0.7019
2635	0.7046
2644	0.7088
2653	0.7129
2662	0.7164
2671	0.7217
2680	0.727
2689	0.7333
2698	0.7396
2707	0.7448
2716	0.7493
2725	0.7511
2734	0.7517
2743	0.7523
2752	0.7528
2761	0.7521
2770	0.751
2779	0.7497
2788	0.7484
2797	0.7464
2806	0.7441
2815	0.7413
2824	0.738
2833	0.7347
2842	0.7311
2851	0.7273
2860	0.7235
2869	0.72
2878	0.7168
2887	0.7155
2896	0.7136
2905	0.7057
2914	0.6981
2923	0.6919
2932	0.6883
2941	0.6836
2950	0.6666
2959	0.6607
2968	0.6822
2977	0.6998
2986	0.6955
2995	0.688
3004	0.6871
3013	0.6887
3022	0.6859
3031	0.6831
3040	0.6818
3049	0.6753
3058	0.6719
3067	0.6784
3076	0.6831
3085	0.6861
3094	0.688
3103	0.6876
3112	0.6851
3121	0.6822
3130	0.6798
3139	0.6773
3148	0.6756
3157	0.6734
3166	0.6701
3175	0.6652
3184	0.6612
3193	0.6571
3202	0.6527
3211	0.648
3220	0.6433
3229	0.6382
3238	0.6313
3247	0.6243
3256	0.6175
3265	0.6096
3274	0.6011
3283	0.5937
3292	0.5896
3301	0.5938
3310	0.6044
3319	0.6147
3328	0.6248
3337	0.6344
3346	0.6429
3355	0.6486
3364	0.6509
3373	0.6531
3382	0.6553
3391	0.6555
3400	0.6557
3409	0.6557
3418	0.6557
3427	0.6571
3436	0.66
3445	0.6632
3454	0.6673
3463	0.6695
3472	0.6706
3481	0.6716
3490	0.6726
3499	0.6728
3508	0.6727
3517	0.6727
3526	0.6726
3535	0.6726
3544	0.6722
3553	0.6718
3562	0.6714
3571	0.671
3580	0.6706
3589	0.6701
3598	0.6699
3607	0.6696
3616	0.6694
3625	0.6691
3634	0.6689
3643	0.6686
3652	0.6682
3661	0.6676
3670	0.667
3679	0.6664
3688	0.6659
3697	0.6653
3706	0.6647
3715	0.664
3724	0.6634
3733	0.6627
3742	0.6621
3751	0.6615
3760	0.6603
3769	0.6589
3778	0.6575
3787	0.6565
3796	0.6557
