Infrared Spectrum: ETHYLENE GLYCOL DISTEARATE
Formula: C38 H72 O4
State: SOLID (COCONITRILE MULL)
Class: COBLENTZ
Instrument: PERKIN-ELMER
Sampling: TRANSMISSION
Resolution: 4
MICROMETERS	TRANSMITTANCE
2.024	0.853
2.06072	0.853
2.09745	0.854
2.13417	0.858
2.1709	0.865
2.20762	0.868
2.24434	0.873
2.28107	0.87
2.31779	0.858
2.35452	0.841
2.39124	0.844
2.42796	0.841
2.46469	0.848
2.50141	0.867
2.53814	0.876
2.57486	0.879
2.61158	0.884
2.64831	0.893
2.68503	0.893
2.72176	0.893
2.75848	0.891
2.79521	0.89
2.83193	0.871
2.86865	0.853
2.90538	0.85
2.9421	0.865
2.97883	0.875
3.01555	0.879
3.05227	0.879
3.089	0.882
3.12572	0.882
3.16245	0.881
3.19917	0.884
3.23589	0.884
3.27262	0.87
3.30934	0.845
3.34607	0.814
3.38279	0.64
3.41951	0.268
3.45624	0.128
3.49296	0.145
3.52969	0.155
3.56641	0.637
3.60313	0.765
3.63986	0.825
3.67658	0.854
3.71331	0.875
3.75003	0.888
3.78675	0.89
3.82348	0.884
3.8602	0.887
3.89693	0.899
3.93365	0.916
3.97037	0.932
4.0071	0.936
4.04382	0.936
4.08055	0.944
4.11727	0.942
4.15399	0.945
4.19072	0.947
4.22744	0.945
4.26417	0.944
4.30089	0.939
4.33762	0.935
4.37434	0.941
4.41106	0.939
4.44779	0.939
4.48451	0.953
4.52124	0.952
4.55796	0.952
4.59468	0.952
4.63141	0.953
4.66813	0.95
4.70486	0.952
4.74158	0.955
4.7783	0.955
4.81503	0.95
4.85175	0.949
4.88848	0.949
4.9252	0.947
4.96192	0.942
4.99865	0.949
5.03537	0.952
5.0721	0.95
5.10882	0.953
5.14554	0.953
5.18227	0.953
5.21899	0.953
5.25572	0.947
5.29244	0.944
5.32916	0.95
5.36589	0.945
5.40261	0.941
5.43934	0.935
5.47606	0.929
5.51278	0.905
5.54951	0.898
5.58623	0.864
5.62296	0.777
5.65968	0.759
5.69641	0.407
5.73313	0.047
5.76985	0.467
5.80658	0.586
5.8433	0.637
5.88003	0.731
5.91675	0.834
5.95347	0.876
5.9902	0.882
6.02692	0.901
6.06365	0.908
6.10037	0.925
6.13709	0.932
6.17382	0.932
6.21054	0.935
6.24727	0.935
6.28399	0.935
6.32071	0.935
6.35744	0.933
6.39416	0.935
6.43089	0.935
6.46761	0.936
6.50433	0.936
6.54106	0.935
6.57778	0.935
6.61451	0.935
6.65123	0.921
6.68795	0.904
6.72468	0.864
6.7614	0.709
6.79813	0.412
6.83485	0.266
6.87157	0.591
6.9083	0.791
6.94502	0.804
6.98175	0.794
7.01847	0.739
7.05519	0.705
7.09192	0.692
7.12864	0.782
7.16537	0.665
7.20209	0.45
7.23882	0.629
7.27554	0.714
7.31226	0.745
7.34899	0.771
7.38571	0.787
7.42244	0.78
7.45916	0.773
7.49588	0.807
7.53261	0.839
7.56933	0.85
7.60606	0.794
7.64278	0.74
7.6795	0.793
7.71623	0.777
7.75295	0.705
7.78968	0.717
7.8264	0.699
7.86312	0.549
7.89985	0.675
7.93657	0.76
7.9733	0.742
8.01002	0.768
8.04674	0.68
8.08347	0.731
8.12019	0.739
8.15692	0.763
8.19364	0.66
8.23036	0.614
8.26709	0.722
8.30381	0.708
8.34054	0.523
8.37726	0.396
8.41398	0.592
8.45071	0.39
8.48743	0.212
8.52416	0.466
8.56088	0.603
8.59761	0.672
8.63433	0.714
8.67105	0.753
8.70778	0.774
8.7445	0.793
8.78123	0.822
8.81795	0.842
8.85467	0.85
8.8914	0.842
8.92812	0.78
8.96485	0.779
9.00157	0.825
9.03829	0.828
9.07502	0.808
9.11174	0.807
9.14847	0.837
9.18519	0.845
9.22191	0.848
9.25864	0.85
9.29536	0.851
9.33209	0.851
9.36881	0.851
9.40553	0.848
9.44226	0.85
9.47898	0.85
9.51571	0.85
9.55243	0.853
9.58915	0.851
9.62588	0.854
9.6626	0.837
9.69933	0.85
9.73605	0.876
9.77277	0.879
9.8095	0.87
9.84622	0.836
9.88295	0.819
9.91967	0.836
9.95639	0.837
9.99312	0.871
10.0298	0.867
10.0666	0.799
10.1033	0.765
10.14	0.837
10.1767	0.885
10.2135	0.891
10.2502	0.873
10.2869	0.873
10.3236	0.893
10.3604	0.921
10.3971	0.921
10.4338	0.927
10.4705	0.925
10.5073	0.924
10.544	0.922
10.5807	0.932
10.6174	0.932
10.6542	0.936
10.6909	0.932
10.7276	0.91
10.7643	0.912
10.801	0.927
10.8378	0.932
10.8745	0.925
10.9112	0.907
10.9479	0.899
10.9847	0.904
11.0214	0.902
11.0581	0.878
11.0948	0.776
11.1316	0.612
11.1683	0.654
11.205	0.805
11.2417	0.836
11.2785	0.875
11.3152	0.899
11.3519	0.904
11.3886	0.896
11.4254	0.902
11.4621	0.927
11.4988	0.936
11.5355	0.939
11.5723	0.944
11.609	0.95
11.6457	0.95
11.6824	0.945
11.7191	0.921
11.7559	0.888
11.7926	0.895
11.8293	0.921
11.866	0.925
11.9028	0.933
11.9395	0.942
11.9762	0.945
12.0129	0.955
12.0497	0.955
12.0864	0.955
12.1231	0.953
12.1598	0.953
12.1966	0.955
12.2333	0.939
12.27	0.929
12.3067	0.896
12.3435	0.884
12.3802	0.919
12.4169	0.935
12.4536	0.942
12.4904	0.949
12.5271	0.935
12.5638	0.924
12.6005	0.908
12.6373	0.913
12.674	0.93
12.7107	0.929
12.7474	0.901
12.7841	0.824
12.8209	0.828
12.8576	0.904
12.8943	0.935
12.931	0.938
12.9678	0.936
13.0045	0.932
13.0412	0.935
13.0779	0.927
13.1147	0.91
13.1514	0.87
13.1881	0.876
13.2248	0.89
13.2616	0.91
13.2983	0.912
13.335	0.908
13.3717	0.89
13.4085	0.847
13.4452	0.804
13.4819	0.782
13.5186	0.777
13.5554	0.762
13.5921	0.716
13.6288	0.635
13.6655	0.492
13.7022	0.466
13.739	0.611
13.7757	0.675
13.8124	0.669
13.8491	0.572
13.8859	0.436
13.9226	0.592
13.9593	0.768
13.996	0.834
14.0328	0.864
14.0695	0.882
14.1062	0.882
14.1429	0.887
14.1797	0.888
14.2164	0.881
14.2531	0.873
14.2898	0.851
14.3266	0.834
14.3633	0.825
14.4	0.83
14.4367	0.85
14.4735	0.873
14.5102	0.891
14.5469	0.905
14.5836	0.919
14.6203	0.929
14.6571	0.932
14.6938	0.936
14.7305	0.939
14.7672	0.945
14.804	0.955
14.8407	0.953
14.8774	0.955
14.9141	0.956
14.9509	0.953
14.9876	0.955
15.0243	0.955
15.061	0.953
