Infrared Spectrum: Acetanilide, 2,6-di-isopropyl-4-tert-butyl-
Formula: C18 H29 N O
State: SOLID (NUJOL MULL)
Class: COBLENTZ III
Instrument: BECKMAN IR-4 (HYBRID PRISM-GRATING)
Instrument parameters: NaCl PRISM
Sampling: TRANSMISSION
Resolution: 2
Origin: MONSANTO (J. FREEMAN)
1/CM	TRANSMITTANCE
627	0.863
636	0.8673
645	0.8655
654	0.8755
663	0.8897
672	0.9221
681	0.9189
690	0.8922
699	0.8495
708	0.792
717	0.719
726	0.6902
735	0.7373
744	0.7131
753	0.8357
762	0.8838
771	0.8918
780	0.9174
789	0.9383
798	0.9496
807	0.9491
816	0.9081
825	0.9365
834	0.945
843	0.9282
852	0.9335
861	0.9368
870	0.8535
879	0.853
888	0.9114
897	0.9282
906	0.9245
915	0.8894
924	0.7943
933	0.8518
942	0.7785
951	0.8545
960	0.8436
969	0.6545
978	0.8111
987	0.8858
996	0.8729
1005	0.8087
1014	0.8477
1023	0.8969
1032	0.8845
1041	0.8907
1050	0.9152
1059	0.9052
1068	0.838
1077	0.8685
1086	0.9177
1095	0.9171
1104	0.9005
1113	0.9035
1122	0.9199
1131	0.9231
1140	0.9135
1149	0.8888
1158	0.8824
1167	0.8495
1176	0.8767
1185	0.8798
1194	0.7789
1203	0.7442
1212	0.8602
1221	0.8645
1230	0.8327
1239	0.63
1248	0.7509
1257	0.7514
1266	0.7371
1275	0.6766
1284	0.6128
1293	0.5095
1302	0.3587
1311	0.5407
1320	0.6942
1329	0.6866
1338	0.607
1347	0.5815
1356	0.4345
1365	0.2154
1374	0.1818
1383	0.3206
1392	0.527
1401	0.61
1410	0.572
1419	0.5304
1428	0.4936
1437	0.3447
1446	0.1753
1455	0.1119
1464	0.0942
1473	0.2035
1482	0.4131
1491	0.4475
1500	0.4339
1509	0.365
1518	0.2909
1527	0.243
1536	0.2486
1545	0.5337
1554	0.693
1563	0.7965
1572	0.7754
1581	0.7662
1590	0.7364
1599	0.6186
1608	0.7491
1617	0.7228
1626	0.6623
1635	0.5885
1644	0.4281
1653	0.2694
1662	0.1718
1671	0.6385
1680	0.7779
1689	0.8784
1698	0.9392
1707	0.9637
1716	0.9748
1725	0.9785
1734	0.9774
1743	0.9693
1752	0.9559
1761	0.9521
1770	0.9567
1779	0.9671
1788	0.9728
1797	0.974
1806	0.9747
1815	0.9758
1824	0.9759
1833	0.9764
1842	0.9769
1851	0.9776
1860	0.9781
1869	0.9787
1878	0.9791
1887	0.9795
1896	0.9799
1905	0.9801
1914	0.9802
1923	0.9803
1932	0.9805
1941	0.9804
1950	0.9804
1959	0.9803
1968	0.9803
1977	0.9792
1986	0.9779
1995	0.9767
2004	0.9756
2013	0.9745
2022	0.9735
2031	0.9734
2040	0.9739
2049	0.9744
2058	0.9747
2067	0.9751
2076	0.975
2085	0.9748
2094	0.9746
2103	0.9742
2112	0.9735
2121	0.9728
2130	0.972
2139	0.9713
2148	0.9703
2157	0.9692
2166	0.968
2175	0.9669
2184	0.9658
2193	0.965
2202	0.9644
2211	0.9638
2220	0.9632
2229	0.9626
2238	0.9621
2247	0.9616
2256	0.9611
2265	0.9605
2274	0.9601
2283	0.9598
2292	0.9596
2301	0.9594
2310	0.9592
2319	0.959
2328	0.9585
2337	0.9579
2346	0.9573
2355	0.9567
2364	0.9561
2373	0.9554
2382	0.9547
2391	0.954
2400	0.9533
2409	0.9523
2418	0.9512
2427	0.9502
2436	0.9491
2445	0.9483
2454	0.9477
2463	0.9471
2472	0.9465
2481	0.9455
2490	0.944
2499	0.9425
2508	0.9409
2517	0.9376
2526	0.9343
2535	0.9302
2544	0.9248
2553	0.9182
2562	0.9108
2571	0.9034
2580	0.8964
2589	0.8906
2598	0.8847
2607	0.8793
2616	0.8739
2625	0.8691
2634	0.8649
2643	0.8605
2652	0.856
2661	0.8519
2670	0.8484
2679	0.8462
2688	0.8422
2697	0.8353
2706	0.8284
2715	0.8261
2724	0.8253
2733	0.8247
2742	0.824
2751	0.822
2760	0.7859
2769	0.7356
2778	0.6857
2787	0.636
2796	0.5868
2805	0.5398
2814	0.4668
2823	0.3804
2832	0.2945
2841	0.2094
2850	0.1748
2859	0.0766
2868	0.0484
2877	0.0364
2886	0.0246
2895	0.0165
2904	0.0119
2913	0.0087
2922	0.0065
2931	0.0048
2940	0.004
2949	0.0037
2958	0.0037
2967	0.093
2976	0.1949
2985	0.2963
2994	0.397
3003	0.4913
3012	0.5421
3021	0.5667
3030	0.5925
3039	0.6201
3048	0.6475
3057	0.6747
3066	0.7018
3075	0.7234
3084	0.7281
3093	0.7297
3102	0.7297
3111	0.7151
3120	0.6787
3129	0.6425
3138	0.6065
3147	0.5708
3156	0.5352
3165	0.4998
3174	0.4647
3183	0.4296
3192	0.3948
3201	0.3602
3210	0.3259
3219	0.2917
3228	0.2777
3237	0.2774
3246	0.31
3255	0.4239
3264	0.5401
3273	0.6556
3282	0.7705
3291	0.8402
3300	0.8648
3309	0.8814
3318	0.8953
3327	0.9103
3336	0.9189
3345	0.9226
3354	0.9252
3363	0.9268
3372	0.9282
3381	0.9297
3390	0.9305
3399	0.9312
3408	0.932
3417	0.9328
3426	0.9335
3435	0.9341
3444	0.9347
3453	0.9352
3462	0.9358
3471	0.9361
3480	0.9364
3489	0.9366
3498	0.937
3507	0.9373
3516	0.9375
3525	0.9378
3534	0.9381
3543	0.9383
3552	0.9386
3561	0.9388
3570	0.939
3579	0.939
3588	0.9391
3597	0.9391
3606	0.9392
3615	0.9393
3624	0.9393
3633	0.9394
3642	0.9391
3651	0.9386
3660	0.9382
3669	0.9377
3678	0.9373
3687	0.9368
3696	0.9358
3705	0.9348
3714	0.9338
3723	0.9329
3732	0.9319
3741	0.931
3750	0.93
3759	0.9289
3768	0.9277
3777	0.9265
3786	0.9253
3795	0.9242
3804	0.923
3813	0.9218
3822	0.9207
3831	0.9196
3840	0.9185
3849	0.9173
3858	0.9163
3867	0.9151
3876	0.914
3885	0.9129
3894	0.9119
3903	0.9107
3912	0.9096
3921	0.908
3930	0.9063
3939	0.9047
3948	0.903
3957	0.9014
3966	0.8998
3975	0.8982
3984	0.8963
3993	0.8944
