Infrared Spectrum: 1(HYDROXYMETHYL)-2,2-DIPHENYLCYCLOPROPANE
Formula: C16 H15 O
State: LIQUID
Class: COBLENTZ
Instrument: Not specified, most likely a grating spectrometer.
Sampling: TRANSMISSION
Resolution: 4
Origin: ABBOTT LABORATORIES
MICROMETERS	TRANSMITTANCE
1.993	0.827
2.02895	0.825
2.0649	0.823
2.10086	0.822
2.13681	0.81
2.17276	0.799
2.20871	0.801
2.24466	0.808
2.28062	0.808
2.31657	0.804
2.35252	0.81
2.38847	0.806
2.42442	0.784
2.46038	0.753
2.49633	0.784
2.53228	0.792
2.56823	0.799
2.60418	0.801
2.64014	0.801
2.67609	0.792
2.71204	0.754
2.74799	0.607
2.78395	0.476
2.8199	0.423
2.85585	0.31
2.8918	0.2
2.92775	0.151
2.96371	0.143
2.99966	0.146
3.03561	0.158
3.07156	0.21
3.10751	0.293
3.14347	0.378
3.17942	0.443
3.21537	0.385
3.25132	0.26
3.28727	0.238
3.32323	0.428
3.35918	0.449
3.39513	0.385
3.43108	0.378
3.46703	0.345
3.50299	0.428
3.53894	0.556
3.57489	0.628
3.61084	0.673
3.64679	0.685
3.68275	0.706
3.7187	0.713
3.75465	0.72
3.7906	0.728
3.82655	0.737
3.86251	0.746
3.89846	0.758
3.93441	0.772
3.97036	0.772
4.00631	0.778
4.04227	0.782
4.07822	0.784
4.11417	0.785
4.15012	0.794
4.18608	0.799
4.22203	0.801
4.25798	0.797
4.29393	0.792
4.32988	0.785
4.36584	0.797
4.40179	0.801
4.43774	0.803
4.47369	0.806
4.50964	0.81
4.5456	0.808
4.58155	0.808
4.6175	0.811
4.65345	0.813
4.6894	0.811
4.72536	0.806
4.76131	0.797
4.79726	0.794
4.83321	0.791
4.86916	0.791
4.90512	0.791
4.94107	0.789
4.97702	0.778
5.01297	0.77
5.04892	0.737
5.08488	0.682
5.12083	0.649
5.15678	0.706
5.19273	0.761
5.22868	0.754
5.26464	0.715
5.30059	0.689
5.33654	0.696
5.37249	0.753
5.40844	0.77
5.4444	0.766
5.48035	0.746
5.5163	0.69
5.55225	0.69
5.58821	0.742
5.62416	0.756
5.66011	0.727
5.69606	0.715
5.73201	0.709
5.76797	0.73
5.80392	0.751
5.83987	0.747
5.87582	0.744
5.91177	0.734
5.94773	0.718
5.98368	0.683
6.01963	0.658
6.05558	0.651
6.09153	0.678
6.12749	0.677
6.16344	0.656
6.19939	0.535
6.23534	0.227
6.27129	0.45
6.30725	0.519
6.3432	0.576
6.37915	0.666
6.4151	0.694
6.45105	0.694
6.48701	0.692
6.52296	0.683
6.55891	0.689
6.59486	0.673
6.63081	0.614
6.66677	0.253
6.70272	0.122
6.73867	0.447
6.77462	0.509
6.81057	0.443
6.84653	0.373
6.88248	0.205
6.91843	0.138
6.95438	0.259
6.99034	0.373
7.02629	0.386
7.06224	0.376
7.09819	0.348
7.13414	0.333
7.1701	0.348
7.20605	0.383
7.242	0.4
7.27795	0.411
7.3139	0.44
7.34986	0.462
7.38581	0.512
7.42176	0.526
7.45771	0.504
7.49366	0.468
7.52962	0.428
7.56557	0.414
7.60152	0.398
7.63747	0.398
7.67342	0.43
7.70938	0.464
7.74533	0.497
7.78128	0.509
7.81723	0.493
7.85318	0.473
7.88914	0.493
7.92509	0.502
7.96104	0.511
7.99699	0.514
8.03294	0.511
8.0689	0.497
8.10485	0.483
8.1408	0.464
8.17675	0.457
8.2127	0.464
8.24866	0.512
8.28461	0.538
8.32056	0.557
8.35651	0.557
8.39247	0.542
8.42842	0.509
8.46437	0.497
8.50032	0.487
8.53627	0.488
8.57223	0.542
8.60818	0.549
8.64413	0.466
8.68008	0.411
8.71603	0.411
8.75199	0.409
8.78794	0.402
8.82389	0.398
8.85984	0.485
8.89579	0.54
8.93175	0.573
8.9677	0.588
9.00365	0.59
9.0396	0.585
9.07555	0.587
9.11151	0.58
9.14746	0.535
9.18341	0.412
9.21936	0.371
9.25531	0.369
9.29127	0.309
9.32722	0.371
9.36317	0.414
9.39912	0.495
9.43507	0.519
9.47103	0.469
9.50698	0.333
9.54293	0.224
9.57888	0.164
9.61483	0.113
9.65079	0.086
9.68674	0.082
9.72269	0.089
9.75864	0.089
9.7946	0.082
9.83055	0.094
9.8665	0.127
9.90245	0.155
9.9384	0.234
9.97436	0.284
10.0103	0.264
10.0463	0.328
10.0822	0.392
10.1182	0.383
10.1541	0.359
10.1901	0.352
10.226	0.371
10.262	0.411
10.2979	0.426
10.3339	0.435
10.3698	0.426
10.4058	0.433
10.4417	0.495
10.4777	0.544
10.5136	0.592
10.5496	0.639
10.5855	0.658
10.6215	0.663
10.6574	0.663
10.6934	0.661
10.7293	0.644
10.7653	0.628
10.8013	0.604
10.8372	0.578
10.8732	0.55
10.9091	0.542
10.9451	0.549
10.981	0.559
11.017	0.59
11.0529	0.621
11.0889	0.652
11.1248	0.659
11.1608	0.658
11.1967	0.644
11.2327	0.64
11.2686	0.626
11.3046	0.623
11.3405	0.625
11.3765	0.632
11.4124	0.649
11.4484	0.668
11.4843	0.687
11.5203	0.69
11.5562	0.689
11.5922	0.685
11.6281	0.656
11.6641	0.637
11.7001	0.618
11.736	0.58
11.772	0.559
11.8079	0.547
11.8439	0.544
11.8798	0.556
11.9158	0.571
11.9517	0.592
11.9877	0.613
12.0236	0.626
12.0596	0.637
12.0955	0.626
12.1315	0.621
12.1674	0.626
12.2034	0.642
12.2393	0.659
12.2753	0.67
12.3112	0.668
12.3472	0.666
12.3831	0.663
12.4191	0.652
12.455	0.64
12.491	0.63
12.527	0.621
12.5629	0.618
12.5989	0.618
12.6348	0.62
12.6708	0.625
12.7067	0.621
12.7427	0.607
12.7786	0.59
12.8146	0.554
12.8505	0.488
12.8865	0.411
12.9224	0.291
12.9584	0.241
12.9943	0.208
13.0303	0.191
13.0662	0.174
13.1022	0.164
13.1381	0.155
13.1741	0.148
13.21	0.139
13.246	0.129
13.2819	0.122
13.3179	0.119
13.3538	0.126
13.3898	0.146
13.4258	0.203
13.4617	0.255
13.4977	0.284
13.5336	0.309
13.5696	0.329
13.6055	0.35
13.6415	0.39
13.6774	0.436
13.7134	0.454
13.7493	0.468
13.7853	0.474
13.8212	0.469
13.8572	0.461
13.8931	0.442
13.9291	0.417
13.965	0.359
14.001	0.293
14.0369	0.193
14.0729	0.126
14.1088	0.07
14.1448	0.024
14.1807	0.017
14.2167	0.015
14.2526	0.015
14.2886	0.015
14.3246	0.017
14.3605	0.02
14.3965	0.039
14.4324	0.079
14.4684	0.151
14.5043	0.212
14.5403	0.257
14.5762	0.293
14.6122	0.321
14.6481	0.331
14.6841	0.34
14.72	0.343
14.756	0.345
14.7919	0.347
14.8279	0.348
14.8638	0.345
14.8998	0.343
14.9357	0.347
14.9717	0.348
15.0076	0.345
15.0436	0.35
15.0795	0.354
15.1155	0.35
15.1515	0.341
15.1874	0.335
15.2234	0.329
15.2593	0.321
15.2953	0.317
15.3312	0.324
15.3672	0.328
15.4031	0.335
15.4391	0.338
15.475	0.34
