Infrared Spectrum: 5-P-ANISYL-7-OXO-1,2,3a,4-TETRAZAINDENE
Formula: C12 H10 N4 O2
State: SOLID (KBr PRESSING)
Melting point: 283-285 C
Class: COBLENTZ
Instrument: Not specified, most likely a prism, grating, or hybrid spectrometer.
Sampling: TRANSMISSION
Resolution: 4
Origin: EASTMAN KODAK COMPANY, RESEARCH LABORATORIES, ROCHESTER, N.Y.
MICROMETERS	TRANSMITTANCE
2.033	0.687
2.06802	0.691
2.10305	0.696
2.13807	0.706
2.17309	0.713
2.20811	0.715
2.24314	0.727
2.27816	0.731
2.31318	0.736
2.3482	0.738
2.38323	0.743
2.41825	0.746
2.45327	0.75
2.48829	0.753
2.52332	0.757
2.55834	0.762
2.59336	0.776
2.62838	0.79
2.66341	0.799
2.69843	0.788
2.73345	0.746
2.76847	0.663
2.8035	0.568
2.83852	0.518
2.87354	0.483
2.90856	0.481
2.94359	0.534
2.97861	0.593
3.01363	0.633
3.04865	0.67
3.08368	0.687
3.1187	0.689
3.15372	0.687
3.18874	0.544
3.22377	0.53
3.25879	0.554
3.29381	0.521
3.32883	0.485
3.36386	0.448
3.39888	0.397
3.4339	0.441
3.46892	0.458
3.50395	0.441
3.53897	0.46
3.57399	0.469
3.60902	0.488
3.64404	0.493
3.67906	0.485
3.71408	0.464
3.74911	0.448
3.78413	0.429
3.81915	0.404
3.85417	0.389
3.8892	0.373
3.92422	0.361
3.95924	0.364
3.99426	0.363
4.02929	0.38
4.06431	0.406
4.09933	0.436
4.13435	0.455
4.16938	0.472
4.2044	0.478
4.23942	0.486
4.27444	0.502
4.30947	0.539
4.34449	0.579
4.37951	0.61
4.41453	0.636
4.44956	0.663
4.48458	0.687
4.5196	0.703
4.55462	0.724
4.58965	0.739
4.62467	0.75
4.65969	0.764
4.69471	0.773
4.72974	0.773
4.76476	0.781
4.79978	0.787
4.8348	0.79
4.86983	0.794
4.90485	0.794
4.93987	0.794
4.97489	0.811
5.00992	0.818
5.04494	0.816
5.07996	0.816
5.11498	0.816
5.15001	0.823
5.18503	0.83
5.22005	0.818
5.25508	0.809
5.2901	0.818
5.32512	0.82
5.36014	0.818
5.39517	0.813
5.43019	0.816
5.46521	0.815
5.50023	0.813
5.53526	0.806
5.57028	0.801
5.6053	0.795
5.64032	0.792
5.67535	0.788
5.71037	0.774
5.74539	0.753
5.78041	0.736
5.81544	0.727
5.85046	0.746
5.88548	0.757
5.9205	0.764
5.95553	0.76
5.99055	0.738
6.02557	0.705
6.06059	0.694
6.09562	0.671
6.13064	0.642
6.16566	0.521
6.20068	0.09
6.23571	0.237
6.27073	0.483
6.30575	0.328
6.34077	0.277
6.3758	0.101
6.41082	0.092
6.44584	0.162
6.48086	0.237
6.51589	0.39
6.55091	0.349
6.58593	0.268
6.62095	0.293
6.65598	0.366
6.691	0.303
6.72602	0.181
6.76105	0.253
6.79607	0.27
6.83109	0.221
6.86611	0.226
6.90114	0.204
6.93616	0.2
6.97118	0.193
7.0062	0.232
7.04123	0.191
7.07625	0.247
7.11127	0.357
7.14629	0.431
7.18132	0.567
7.21634	0.623
7.25136	0.673
7.28638	0.696
7.32141	0.656
7.35643	0.408
7.39145	0.171
7.42647	0.162
7.4615	0.186
7.49652	0.359
7.53154	0.495
7.56656	0.554
7.60159	0.561
7.63661	0.486
7.67163	0.317
7.70665	0.333
7.74168	0.303
7.7767	0.464
7.81172	0.579
7.84674	0.617
7.88177	0.591
7.91679	0.38
7.95181	0.181
7.98683	0.198
8.02186	0.26
8.05688	0.289
8.0919	0.157
8.12692	0.08
8.16195	0.132
8.19697	0.445
8.23199	0.572
8.26702	0.638
8.30204	0.664
8.33706	0.67
8.37208	0.656
8.40711	0.497
8.44213	0.151
8.47715	0.101
8.51217	0.223
8.5472	0.469
8.58222	0.577
8.61724	0.617
8.65226	0.624
8.68729	0.609
8.72231	0.624
8.75733	0.65
8.79235	0.698
8.82738	0.72
8.8624	0.675
8.89742	0.63
8.93244	0.696
8.96747	0.745
9.00249	0.776
9.03751	0.79
9.07253	0.797
9.10756	0.802
9.14258	0.801
9.1776	0.809
9.21262	0.815
9.24765	0.816
9.28267	0.815
9.31769	0.801
9.35271	0.792
9.38774	0.797
9.42276	0.808
9.45778	0.813
9.4928	0.811
9.52783	0.794
9.56285	0.766
9.59787	0.734
9.63289	0.691
9.66792	0.593
9.70294	0.406
9.73796	0.19
9.77298	0.226
9.80801	0.441
9.84303	0.584
9.87805	0.687
9.91308	0.75
9.9481	0.783
9.98312	0.808
10.0181	0.834
10.0532	0.851
10.0882	0.856
10.1232	0.853
10.1582	0.851
10.1933	0.849
10.2283	0.835
10.2633	0.766
10.2983	0.647
10.3333	0.792
10.3684	0.82
10.4034	0.823
10.4384	0.83
10.4734	0.837
10.5085	0.856
10.5435	0.853
10.5785	0.842
10.6135	0.804
10.6485	0.762
10.6836	0.481
10.7186	0.45
10.7536	0.567
10.7886	0.656
10.8237	0.767
10.8587	0.815
10.8937	0.832
10.9287	0.853
10.9638	0.844
10.9988	0.844
11.0338	0.841
11.0688	0.839
11.1038	0.837
11.1389	0.837
11.1739	0.839
11.2089	0.834
11.2439	0.823
11.279	0.808
11.314	0.788
11.349	0.776
11.384	0.745
11.419	0.732
11.4541	0.746
11.4891	0.757
11.5241	0.785
11.5591	0.808
11.5942	0.825
11.6292	0.848
11.6642	0.841
11.6992	0.841
11.7342	0.837
11.7693	0.808
11.8043	0.762
11.8393	0.698
11.8743	0.575
11.9094	0.387
11.9444	0.328
11.9794	0.396
12.0144	0.441
12.0495	0.39
12.0845	0.246
12.1195	0.178
12.1545	0.19
12.1895	0.212
12.2246	0.364
12.2596	0.502
12.2946	0.549
12.3296	0.488
12.3647	0.56
12.3997	0.663
12.4347	0.734
12.4697	0.783
12.5047	0.804
12.5398	0.813
12.5748	0.83
12.6098	0.834
12.6448	0.835
12.6799	0.846
12.7149	0.848
12.7499	0.848
12.7849	0.853
12.8199	0.846
12.855	0.844
12.89	0.842
12.925	0.835
12.96	0.828
12.9951	0.813
13.0301	0.783
13.0651	0.776
13.1001	0.783
13.1352	0.801
13.1702	0.802
13.2052	0.802
13.2402	0.806
13.2752	0.808
13.3103	0.808
13.3453	0.809
13.3803	0.804
13.4153	0.837
13.4504	0.863
13.4854	0.883
13.5204	0.89
13.5554	0.883
13.5904	0.86
13.6255	0.86
13.6605	0.884
13.6955	0.9
13.7305	0.909
13.7656	0.919
13.8006	0.926
13.8356	0.921
13.8706	0.914
13.9056	0.916
13.9407	0.919
13.9757	0.916
14.0107	0.905
14.0457	0.897
14.0808	0.89
14.1158	0.872
14.1508	0.841
14.1858	0.799
14.2208	0.755
14.2559	0.705
14.2909	0.663
14.3259	0.621
14.3609	0.614
14.396	0.633
14.431	0.713
14.466	0.778
14.501	0.823
14.5361	0.853
14.5711	0.863
14.6061	0.867
14.6411	0.86
14.6761	0.851
14.7112	0.818
14.7462	0.79
14.7812	0.79
14.8162	0.825
14.8513	0.844
14.8863	0.846
14.9213	0.841
14.9563	0.818
14.9913	0.767
15.0264	0.731
15.0614	0.743
15.0964	0.757
15.1314	0.701
15.1665	0.609
15.2015	0.567
15.2365	0.624
15.2715	0.703
15.3065	0.774
15.3416	0.801
15.3766	0.815
15.4116	0.82
15.4466	0.823
15.4817	0.823
15.5167	0.823
15.5517	0.823
15.5867	0.816
15.6218	0.806
15.6568	0.792
15.6918	0.773
15.7268	0.743
15.7618	0.732
15.7969	0.731
15.8319	0.734
15.8669	0.741
15.9019	0.746
15.937	0.748
15.972	0.748
16.007	0.731
