Infrared Spectrum: BARBITURIC ACID, 5-HYDROXY-5-SEMICARBAZIDO-, MONOHYDRATE
Formula: C5 H7 N5 O5  * H2 O
State: SOLID (0.7 mg / 650 mg KBr DISC)
Class: COBLENTZ III
Instrument: PERKIN-ELMER 21 (GRATING)
Instrument parameters: FILTER CHANGE AT 1090 CM^-^1
Sampling: TRANSMISSION
Resolution: 2
Origin: SOUTHERN RESEARCH INSTITUTE
1/CM	TRANSMITTANCE
611.842	0.772
620.97	0.77
630.098	0.7683
639.226	0.764
648.354	0.7545
657.482	0.7463
666.61	0.7305
675.738	0.7103
684.866	0.676
693.994	0.6548
703.122	0.6393
712.25	0.6115
721.378	0.5505
730.506	0.5173
739.633	0.5515
748.761	0.4349
757.889	0.5119
767.017	0.585
776.145	0.6366
785.273	0.6668
794.401	0.6543
803.529	0.629
812.657	0.6482
821.785	0.658
830.913	0.64
840.041	0.5959
849.169	0.5329
858.297	0.4442
867.425	0.4331
876.553	0.4754
885.681	0.5071
894.809	0.5664
903.937	0.59
913.065	0.5884
922.193	0.5621
931.321	0.564
940.449	0.5807
949.577	0.6117
958.705	0.6138
967.833	0.608
976.96	0.5911
986.088	0.5806
995.216	0.5595
1004.34	0.5254
1013.47	0.4764
1022.6	0.37
1031.73	0.4098
1040.86	0.5253
1049.98	0.541
1059.11	0.5105
1068.24	0.465
1077.37	0.441
1086.5	0.4273
1095.62	0.369
1104.75	0.3754
1113.88	0.4306
1123.01	0.466
1132.14	0.4625
1141.26	0.4363
1150.39	0.3924
1159.52	0.3124
1168.65	0.207
1177.78	0.3029
1186.9	0.4653
1196.03	0.51
1205.16	0.534
1214.29	0.5234
1223.42	0.5007
1232.54	0.4374
1241.67	0.4237
1250.8	0.5166
1259.93	0.6141
1269.06	0.6555
1278.18	0.6538
1287.31	0.6436
1296.44	0.6347
1305.57	0.6248
1314.7	0.5963
1323.82	0.5617
1332.95	0.544
1342.08	0.5252
1351.21	0.4855
1360.33	0.4405
1369.46	0.3456
1378.59	0.2753
1387.72	0.3219
1396.85	0.441
1405.97	0.4237
1415.1	0.3451
1424.23	0.3088
1433.36	0.2973
1442.49	0.3998
1451.61	0.3766
1460.74	0.333
1469.87	0.3476
1479	0.387
1488.13	0.3909
1497.25	0.5658
1506.38	0.6443
1515.51	0.652
1524.64	0.6267
1533.77	0.5827
1542.89	0.5598
1552.02	0.5559
1561.15	0.5067
1570.28	0.4392
1579.41	0.3199
1588.53	0.2493
1597.66	0.3864
1606.79	0.4687
1615.92	0.4311
1625.05	0.3457
1634.17	0.2856
1643.3	0.194
1652.43	0.2098
1661.56	0.2672
1670.69	0.378
1679.81	0.3278
1688.94	0.2122
1698.07	0.1763
1707.2	0.1285
1716.33	0.1298
1725.45	0.1623
1734.58	0.2242
1743.71	0.2724
1752.84	0.321
1761.97	0.3073
1771.09	0.3554
1780.22	0.4178
1789.35	0.476
1798.48	0.5112
1807.61	0.5408
1816.73	0.5677
1825.86	0.5807
1834.99	0.6066
1844.12	0.622
1853.24	0.6429
1862.37	0.6526
1871.5	0.655
1880.63	0.6733
1889.76	0.6839
1898.88	0.6961
1908.01	0.7011
1917.14	0.709
1926.27	0.722
1935.4	0.732
1944.52	0.733
1953.65	0.7403
1962.78	0.747
1971.91	0.7546
1981.04	0.758
1990.16	0.7635
1999.29	0.7709
2008.42	0.773
2017.55	0.7735
2026.68	0.776
2035.8	0.776
2044.93	0.781
2054.06	0.781
2063.19	0.781
2072.32	0.781
2081.44	0.781
2090.57	0.782
2099.7	0.783
2108.83	0.788
2117.96	0.792
2127.08	0.796
2136.21	0.796
2145.34	0.795
2154.47	0.8035
2163.6	0.8
2172.72	0.7995
2181.85	0.806
2190.98	0.8045
2200.11	0.809
2209.24	0.8109
2218.36	0.812
2227.49	0.812
2236.62	0.812
2245.75	0.812
2254.88	0.81
2264	0.81
2273.13	0.81
2282.26	0.812
2291.39	0.8066
2300.52	0.8
2309.64	0.7931
2318.77	0.7855
2327.9	0.777
2337.03	0.773
2346.15	0.772
2355.28	0.772
2364.41	0.7725
2373.54	0.7815
2382.67	0.782
2391.79	0.7801
2400.92	0.77
2410.05	0.765
2419.18	0.76
2428.31	0.7531
2437.43	0.7486
2446.56	0.7415
2455.69	0.738
2464.82	0.7245
2473.95	0.7256
2483.07	0.719
2492.2	0.716
2501.33	0.716
2510.46	0.716
2519.59	0.7092
2528.71	0.6975
2537.84	0.6896
2546.97	0.682
2556.1	0.6655
2565.23	0.6665
2574.35	0.67
2583.48	0.6565
2592.61	0.6451
2601.74	0.6335
2610.87	0.6215
2619.99	0.6102
2629.12	0.6065
2638.25	0.6001
2647.38	0.5931
2656.51	0.5821
2665.63	0.5715
2674.76	0.5705
2683.89	0.5602
2693.02	0.5435
2702.15	0.5311
2711.27	0.5175
2720.4	0.4945
2729.53	0.4915
2738.66	0.4731
2747.79	0.4591
2756.91	0.449
2766.04	0.4426
2775.17	0.44
2784.3	0.4429
2793.43	0.4495
2802.55	0.458
2811.68	0.4715
2820.81	0.4775
2829.94	0.4964
2839.06	0.5075
2848.19	0.5225
2857.32	0.526
2866.45	0.5449
2875.58	0.5619
2884.7	0.5819
2893.83	0.6069
2902.96	0.6155
2912.09	0.5872
2921.22	0.5626
2930.34	0.5511
2939.47	0.539
2948.6	0.5282
2957.73	0.5206
2966.86	0.5142
2975.98	0.4986
2985.11	0.5014
2994.24	0.498
3003.37	0.507
3012.5	0.507
3021.62	0.5204
3030.75	0.521
3039.88	0.5239
3049.01	0.5329
3058.14	0.539
3067.26	0.5554
3076.39	0.5805
3085.52	0.5819
3094.65	0.5935
3103.78	0.598
3112.9	0.598
3122.03	0.5945
3131.16	0.5855
3140.29	0.5675
3149.42	0.5522
3158.54	0.5403
3167.67	0.5242
3176.8	0.5032
3185.93	0.4872
3195.06	0.4706
3204.18	0.454
3213.31	0.4361
3222.44	0.4087
3231.57	0.4029
3240.7	0.4095
3249.82	0.4319
3258.95	0.437
3268.08	0.4355
3277.21	0.4275
3286.33	0.4095
3295.46	0.3921
3304.59	0.3685
3313.72	0.3367
3322.85	0.2925
3331.97	0.2197
3341.1	0.2075
3350.23	0.2214
3359.36	0.2255
3368.49	0.238
3377.61	0.231
3386.74	0.229
3395.87	0.2538
3405	0.2859
3414.13	0.3069
3423.25	0.323
3432.38	0.3514
3441.51	0.3724
3450.64	0.379
3459.77	0.3766
3468.89	0.3515
3478.02	0.3042
3487.15	0.3168
3496.28	0.3544
3505.41	0.3944
3514.53	0.396
3523.66	0.3846
3532.79	0.3627
3541.92	0.3465
3551.05	0.3493
3560.17	0.3791
3569.3	0.4144
3578.43	0.4806
3587.56	0.5064
3596.69	0.5437
3605.81	0.5833
3614.94	0.5994
3624.07	0.6178
3633.2	0.6555
3642.33	0.6943
3651.45	0.7123
3660.58	0.732
3669.71	0.7466
3678.84	0.759
3687.97	0.763
3697.09	0.781
3706.22	0.7924
3715.35	0.7999
3724.48	0.8109
3733.61	0.818
3742.73	0.823
3751.86	0.8201
3760.99	0.8249
3770.12	0.827
3779.24	0.8269
3788.37	0.8359
3797.5	0.841
3806.63	0.84
3815.76	0.844
3824.88	0.8415
3834.01	0.839
3843.14	0.84
3852.27	0.845
3861.4	0.845
3870.52	0.845
3879.65	0.845
3888.78	0.849
3897.91	0.848
3907.04	0.8429
3916.16	0.845
3925.29	0.8485
3934.42	0.853
3943.55	0.8545
3952.68	0.849
3961.8	0.855
3970.93	0.853
3980.06	0.8559
3989.19	0.8545
3998.32	0.858
4007.44	0.858
