Infrared Spectrum: LEVULINIC ACID, BUTYL ESTER
Formula: C9 H19 O3
State: SOLUTION (10% CCl4 FOR 3800-1330, 10% CS2 FOR 1330-400 CM^-^1)
Class: COBLENTZ III
Instrument: BECKMAN IR-9 (GRATING)
Instrument parameters: ORDER CHANGES: 670, 1200, 2000 CM^-^1
Sampling: TRANSMISSION
Path length: 0.012 CM, 0.011 CM
Resolution: 2
Origin: DOW CHEMICAL COMPANY
1/CM	TRANSMITTANCE
404	0.0473
413	0.0773
422	0.4325
431	0.5098
440	0.548
449	0.6289
458	0.6485
467	0.6638
476	0.6905
485	0.7199
494	0.7234
503	0.7001
512	0.6698
521	0.7128
530	0.7526
539	0.7642
548	0.7562
557	0.7354
566	0.7107
575	0.7148
584	0.7532
593	0.7874
602	0.8043
611	0.8017
620	0.8025
629	0.8172
638	0.8165
647	0.7942
656	0.7625
665	0.8074
674	0.8384
683	0.8564
692	0.8699
701	0.8807
710	0.8816
719	0.8714
728	0.821
737	0.7408
746	0.7749
755	0.7394
764	0.6508
773	0.8101
782	0.822
791	0.8198
800	0.8021
809	0.7868
818	0.7782
827	0.7506
836	0.7498
845	0.7225
854	0.676
863	0.696
872	0.7301
881	0.7544
890	0.7612
899	0.7621
908	0.7611
917	0.7271
926	0.6797
935	0.6047
944	0.5319
953	0.5918
962	0.5862
971	0.6506
980	0.6839
989	0.616
998	0.6499
1007	0.65
1016	0.6268
1025	0.4846
1034	0.5236
1043	0.6871
1052	0.622
1061	0.5076
1070	0.4322
1079	0.5143
1088	0.6615
1097	0.7296
1106	0.7278
1115	0.6312
1124	0.5681
1133	0.4753
1142	0.3015
1151	0.0831
1160	0.0033
1169	0.0821
1178	0.0976
1187	0.0526
1196	0.091
1205	0.0622
1214	0.0595
1223	0.1876
1232	0.1908
1241	0.1929
1250	0.2415
1259	0.2715
1268	0.2989
1277	0.3622
1286	0.4618
1295	0.4694
1304	0.3984
1313	0.3184
1322	0.4305
1331	0.4631
1340	0.434
1349	0.2398
1358	0.0442
1367	0.0644
1376	0.231
1385	0.3232
1394	0.2465
1403	0.2668
1412	0.2202
1421	0.2097
1430	0.3525
1439	0.4089
1448	0.5098
1457	0.3832
1466	0.3476
1475	0.4464
1484	0.6428
1493	0.7014
1502	0.6904
1511	0.6551
1520	0.6094
1529	0.5688
1538	0.5112
1547	0.4517
1556	0.4342
1565	0.4794
1574	0.5424
1583	0.5855
1592	0.607
1601	0.7
1610	0.7561
1619	0.7815
1628	0.7939
1637	0.7967
1646	0.7895
1655	0.7772
1664	0.7525
1673	0.7167
1682	0.6303
1691	0.534
1700	0.4099
1709	0.2481
1718	0.0183
1727	0.0026
1736	0.0023
1745	0.0015
1754	0.1384
1763	0.4414
1772	0.5492
1781	0.6425
1790	0.7085
1799	0.7537
1808	0.7774
1817	0.7974
1826	0.8167
1835	0.8327
1844	0.8468
1853	0.8543
1862	0.8594
1871	0.8638
1880	0.8675
1889	0.8701
1898	0.872
1907	0.8738
1916	0.8757
1925	0.8775
1934	0.879
1943	0.8811
1952	0.8798
1961	0.8778
1970	0.8762
1979	0.8753
1988	0.8735
1997	0.87
2006	0.8671
2015	0.8668
2024	0.8675
2033	0.869
2042	0.871
2051	0.8725
2060	0.8728
2069	0.873
2078	0.8727
2087	0.8723
2096	0.8721
2105	0.872
2114	0.8718
2123	0.8714
2132	0.8711
2141	0.8711
2150	0.8728
2159	0.8744
2168	0.876
2177	0.8774
2186	0.8789
2195	0.8803
2204	0.8813
2213	0.8821
2222	0.8827
2231	0.8825
2240	0.8821
2249	0.8787
2258	0.8751
2267	0.8713
2276	0.8675
2285	0.8642
2294	0.8618
2303	0.8599
2312	0.8611
2321	0.8624
2330	0.8625
2339	0.8616
2348	0.8606
2357	0.8591
2366	0.8592
2375	0.8604
2384	0.8662
2393	0.8721
2402	0.8746
2411	0.8764
2420	0.8775
2429	0.8781
2438	0.8786
2447	0.8812
2456	0.8861
2465	0.8865
2474	0.8856
2483	0.8847
2492	0.8841
2501	0.8838
2510	0.8836
2519	0.8834
2528	0.8833
2537	0.8832
2546	0.8832
2555	0.883
2564	0.8827
2573	0.8823
2582	0.8818
2591	0.8811
2600	0.8802
2609	0.8794
2618	0.8788
2627	0.8788
2636	0.8788
2645	0.8768
2654	0.8748
2663	0.8727
2672	0.8707
2681	0.8692
2690	0.869
2699	0.8684
2708	0.8673
2717	0.8657
2726	0.8639
2735	0.8601
2744	0.8556
2753	0.854
2762	0.8596
2771	0.8582
2780	0.8534
2789	0.8466
2798	0.8375
2807	0.8286
2816	0.8168
2825	0.8003
2834	0.7799
2843	0.7522
2852	0.6558
2861	0.6212
2870	0.5143
2879	0.3082
2888	0.343
2897	0.4881
2906	0.3938
2915	0.3151
2924	0.2685
2933	0.2067
2942	0.1346
2951	0.185
2960	0.1316
2969	0.0349
2978	0.1786
2987	0.483
2996	0.5349
3005	0.6478
3014	0.7053
3023	0.7468
3032	0.7758
3041	0.7936
3050	0.8064
3059	0.8165
3068	0.8265
3077	0.8359
3086	0.8447
3095	0.8497
3104	0.8542
3113	0.8586
3122	0.8621
3131	0.8638
3140	0.8654
3149	0.8661
3158	0.8668
3167	0.8671
3176	0.8675
3185	0.8677
3194	0.8678
3203	0.868
3212	0.8686
3221	0.8692
3230	0.8698
3239	0.8704
3248	0.8711
3257	0.8718
3266	0.8727
3275	0.8736
3284	0.8741
3293	0.8745
3302	0.875
3311	0.8754
3320	0.875
3329	0.8745
3338	0.874
3347	0.8734
3356	0.8727
3365	0.8718
3374	0.8711
3383	0.8692
3392	0.8666
3401	0.8616
3410	0.847
3419	0.8291
3428	0.8125
3437	0.8108
3446	0.8128
3455	0.8175
3464	0.8235
3473	0.8364
3482	0.8515
3491	0.8625
3500	0.8659
3509	0.8667
3518	0.8673
3527	0.8675
3536	0.868
3545	0.8686
3554	0.8691
3563	0.8691
3572	0.8691
3581	0.8692
3590	0.8706
3599	0.8793
3608	0.8818
3617	0.8828
3626	0.8831
3635	0.8839
3644	0.8849
3653	0.8858
3662	0.886
3671	0.8844
3680	0.8801
3689	0.8745
3698	0.8714
3707	0.8783
3716	0.8903
3725	0.8942
3734	0.8951
3743	0.8955
3752	0.8955
3761	0.8955
3770	0.8958
3779	0.8961
3788	0.8965
3797	0.8968
