Infrared Spectrum: M-PHENYLENEDIAMINE DIHYDROCHLORIDE
Formula: C6 H10 Cl2 N2
State: SOLID (MINERAL OIL MULL)
Class: COBLENTZ
Instrument: Not specified, most likely a prism, grating, or hybrid spectrometer.
Sampling: TRANSMISSION
Resolution: 4
Origin: WYANDOTTE CHEMICALS CORP., WYANDOTTE, MICHIGAN, USA
MICROMETERS	TRANSMITTANCE
2.034	0.382
2.07491	0.387
2.11583	0.39
2.15674	0.399
2.19766	0.407
2.23857	0.416
2.27949	0.419
2.3204	0.436
2.36132	0.45
2.40223	0.46
2.44315	0.472
2.48406	0.482
2.52498	0.5
2.56589	0.513
2.60681	0.532
2.64772	0.542
2.68864	0.559
2.72955	0.571
2.77047	0.59
2.81138	0.598
2.8523	0.609
2.89321	0.61
2.93413	0.621
2.97504	0.633
3.01595	0.651
3.05687	0.667
3.09778	0.662
3.1387	0.607
3.17961	0.508
3.22053	0.395
3.26144	0.308
3.30236	0.257
3.34327	0.158
3.38419	0.047
3.4251	0.037
3.46602	0.04
3.50693	0.039
3.54785	0.058
3.58876	0.112
3.62968	0.141
3.67059	0.153
3.71151	0.168
3.75242	0.216
3.79334	0.233
3.83425	0.187
3.87517	0.156
3.91608	0.148
3.957	0.167
3.99791	0.203
4.03882	0.223
4.07974	0.259
4.12065	0.279
4.16157	0.3
4.20248	0.317
4.2434	0.344
4.28431	0.351
4.32523	0.372
4.36614	0.402
4.40706	0.45
4.44797	0.47
4.48889	0.488
4.5298	0.501
4.57072	0.511
4.61163	0.52
4.65255	0.529
4.69346	0.542
4.73438	0.571
4.77529	0.592
4.81621	0.607
4.85712	0.614
4.89804	0.612
4.93895	0.617
4.97986	0.638
5.02078	0.648
5.06169	0.651
5.10261	0.658
5.14352	0.663
5.18444	0.674
5.22535	0.679
5.26627	0.684
5.30718	0.686
5.3481	0.687
5.38901	0.687
5.42993	0.691
5.47084	0.701
5.51176	0.703
5.55267	0.704
5.59359	0.701
5.6345	0.709
5.67542	0.726
5.71633	0.73
5.75725	0.747
5.79816	0.755
5.83908	0.766
5.87999	0.779
5.9209	0.79
5.96182	0.796
6.00273	0.805
6.04365	0.808
6.08456	0.776
6.12548	0.747
6.16639	0.641
6.20731	0.675
6.24822	0.58
6.28914	0.443
6.33005	0.343
6.37097	0.296
6.41188	0.255
6.4528	0.201
6.49371	0.158
6.53463	0.196
6.57554	0.276
6.61646	0.329
6.65737	0.366
6.69829	0.247
6.7392	0.262
6.78012	0.153
6.82103	0.131
6.86194	0.203
6.90286	0.31
6.94377	0.436
6.98469	0.532
7.0256	0.58
7.06652	0.598
7.10743	0.598
7.14835	0.578
7.18926	0.549
7.23018	0.36
7.27109	0.401
7.31201	0.5
7.35292	0.598
7.39384	0.619
7.43475	0.638
7.47567	0.641
7.51658	0.672
7.5575	0.675
7.59841	0.656
7.63933	0.655
7.68024	0.677
7.72116	0.704
7.76207	0.713
7.80299	0.725
7.8439	0.726
7.88481	0.732
7.92573	0.728
7.96664	0.619
8.00756	0.689
8.04847	0.721
8.08939	0.74
8.1303	0.755
8.17122	0.761
8.21213	0.761
8.25305	0.761
8.29396	0.764
8.33488	0.769
8.37579	0.778
8.41671	0.779
8.45762	0.778
8.49854	0.766
8.53945	0.747
8.58037	0.733
8.62128	0.715
8.6622	0.66
8.70311	0.621
8.74403	0.653
8.78494	0.617
8.82585	0.588
8.86677	0.566
8.90768	0.535
8.9486	0.535
8.98951	0.573
9.03043	0.592
9.07134	0.607
9.11226	0.638
9.15317	0.658
9.19409	0.684
9.235	0.689
9.27592	0.715
9.31683	0.726
9.35775	0.735
9.39866	0.747
9.43958	0.761
9.48049	0.766
9.52141	0.779
9.56232	0.793
9.60324	0.802
9.64415	0.815
9.68507	0.822
9.72598	0.827
9.76689	0.832
9.80781	0.844
9.84872	0.848
9.88964	0.856
9.93055	0.858
9.97147	0.863
10.0124	0.878
10.0533	0.882
10.0942	0.885
10.1351	0.894
10.176	0.894
10.217	0.87
10.2579	0.868
10.2988	0.866
10.3397	0.865
10.3806	0.868
10.4215	0.88
10.4624	0.887
10.5034	0.889
10.5443	0.897
10.5852	0.902
10.6261	0.907
10.667	0.909
10.7079	0.907
10.7488	0.904
10.7898	0.757
10.8307	0.778
10.8716	0.853
10.9125	0.885
10.9534	0.902
10.9943	0.914
11.0353	0.918
11.0762	0.923
11.1171	0.923
11.158	0.916
11.1989	0.919
11.2398	0.919
11.2807	0.921
11.3217	0.926
11.3626	0.93
11.4035	0.928
11.4444	0.928
11.4853	0.919
11.5262	0.897
11.5671	0.813
11.6081	0.675
11.649	0.795
11.6899	0.878
11.7308	0.894
11.7717	0.916
11.8126	0.919
11.8535	0.923
11.8945	0.924
11.9354	0.926
11.9763	0.926
12.0172	0.926
12.0581	0.923
12.099	0.93
12.14	0.928
12.1809	0.928
12.2218	0.926
12.2627	0.926
12.3036	0.924
12.3445	0.924
12.3854	0.924
12.4264	0.928
12.4673	0.924
12.5082	0.918
12.5491	0.921
12.59	0.911
12.6309	0.901
12.6718	0.889
12.7128	0.858
12.7537	0.827
12.7946	0.795
12.8355	0.725
12.8764	0.653
12.9173	0.583
12.9582	0.578
12.9992	0.634
13.0401	0.725
13.081	0.788
13.1219	0.831
13.1628	0.856
13.2037	0.882
13.2447	0.904
13.2856	0.907
13.3265	0.914
13.3674	0.916
13.4083	0.918
13.4492	0.916
13.4901	0.909
13.5311	0.887
13.572	0.815
13.6129	0.786
13.6538	0.779
13.6947	0.788
13.7356	0.825
13.7765	0.834
13.8175	0.834
13.8584	0.829
13.8993	0.831
13.9402	0.854
13.9811	0.883
14.022	0.899
14.0629	0.916
14.1039	0.919
14.1448	0.924
14.1857	0.926
14.2266	0.93
14.2675	0.931
14.3084	0.926
14.3494	0.93
14.3903	0.924
14.4312	0.921
14.4721	0.911
14.513	0.899
14.5539	0.892
14.5948	0.875
14.6358	0.849
14.6767	0.834
14.7176	0.803
14.7585	0.771
14.7994	0.726
14.8403	0.656
14.8812	0.554
14.9222	0.46
14.9631	0.452
15.004	0.489
15.0449	0.547
15.0858	0.646
15.1267	0.721
15.1676	0.738
15.2086	0.737
15.2495	0.733
15.2904	0.721
15.3313	0.706
15.3722	0.696
15.4131	0.68
15.4541	0.662
15.495	0.65
15.5359	0.639
15.5768	0.631
15.6177	0.624
15.6586	0.612
15.6995	0.598
15.7405	0.588
15.7814	0.578
15.8223	0.561
15.8632	0.542
15.9041	0.534
15.945	0.52
15.9859	0.51
