Infrared Spectrum: MORPHOLINE HYDROCHLORIDE
Formula: C4 H10 Cl N O
State: SOLID (SPLIT MULL)
Class: COBLENTZ III
Instrument: BECKMAN IR-9 (GRATING)
Instrument parameters: ORDER CHANGES: 670, 1200, 2000 CM^-^1
Sampling: TRANSMISSION
Resolution: 2
Origin: DOW CHEMICAL COMPANY
1/CM	TRANSMITTANCE
3818	0.7017
3809	0.7034
3800	0.7051
3791	0.7068
3782	0.708
3773	0.709
3764	0.7105
3755	0.7121
3746	0.7139
3737	0.7156
3728	0.7172
3719	0.7191
3710	0.7208
3701	0.7225
3692	0.7242
3683	0.7258
3674	0.7275
3665	0.7289
3656	0.7301
3647	0.7314
3638	0.7326
3629	0.7339
3620	0.7343
3611	0.7344
3602	0.7345
3593	0.7345
3584	0.735
3575	0.7355
3566	0.736
3557	0.7365
3548	0.7367
3539	0.7368
3530	0.7369
3521	0.7371
3512	0.7374
3503	0.7381
3494	0.7388
3485	0.7394
3476	0.7401
3467	0.7408
3458	0.7415
3449	0.7424
3440	0.7431
3431	0.7439
3422	0.7453
3413	0.7472
3404	0.7493
3395	0.7512
3386	0.7535
3377	0.756
3368	0.7585
3359	0.761
3350	0.7635
3341	0.7657
3332	0.7676
3323	0.7697
3314	0.7718
3305	0.7749
3296	0.7775
3287	0.7799
3278	0.7817
3269	0.7821
3260	0.7825
3251	0.7822
3242	0.7817
3233	0.7806
3224	0.7794
3215	0.778
3206	0.7762
3197	0.7725
3188	0.768
3179	0.7603
3170	0.7458
3161	0.7284
3152	0.6906
3143	0.6791
3134	0.6871
3125	0.6881
3116	0.6751
3107	0.6537
3098	0.6285
3089	0.5965
3080	0.561
3071	0.5323
3062	0.4997
3053	0.4675
3044	0.4385
3035	0.3882
3026	0.3612
3017	0.3609
3008	0.3595
2999	0.313
2990	0.3296
2981	0.3266
2972	0.2798
2963	0.2698
2954	0.2681
2945	0.2553
2936	0.235
2927	0.2356
2918	0.2534
2909	0.2828
2900	0.3178
2891	0.3304
2882	0.3306
2873	0.3403
2864	0.3676
2855	0.3999
2846	0.4283
2837	0.39
2828	0.3447
2819	0.3662
2810	0.358
2801	0.3168
2792	0.2768
2783	0.2824
2774	0.3017
2765	0.3296
2756	0.3458
2747	0.3134
2738	0.276
2729	0.2369
2720	0.2266
2711	0.2699
2702	0.3274
2693	0.3749
2684	0.4014
2675	0.4296
2666	0.4508
2657	0.4666
2648	0.4648
2639	0.4714
2630	0.513
2621	0.5029
2612	0.443
2603	0.4386
2594	0.491
2585	0.5468
2576	0.5772
2567	0.5969
2558	0.6137
2549	0.6268
2540	0.6337
2531	0.6401
2522	0.6501
2513	0.6564
2504	0.6607
2495	0.6571
2486	0.6418
2477	0.5853
2468	0.4266
2459	0.4285
2450	0.491
2441	0.5423
2432	0.5894
2423	0.6218
2414	0.6507
2405	0.6742
2396	0.6908
2387	0.6944
2378	0.6958
2369	0.699
2360	0.7031
2351	0.7084
2342	0.7136
2333	0.7215
2324	0.7304
2315	0.7378
2306	0.7424
2297	0.7457
2288	0.7493
2279	0.7558
2270	0.7622
2261	0.7694
2252	0.7725
2243	0.773
2234	0.7751
2225	0.7815
2216	0.7871
2207	0.7896
2198	0.7861
2189	0.7825
2180	0.7696
2171	0.758
2162	0.7801
2153	0.7969
2144	0.8078
2135	0.8097
2126	0.8108
2117	0.8124
2108	0.814
2099	0.8167
2090	0.8198
2081	0.8231
2072	0.8264
2063	0.8297
2054	0.8341
2045	0.8364
2036	0.8371
2027	0.8363
2018	0.8355
2009	0.8345
2000	0.8334
1991	0.8305
1982	0.8375
1973	0.8311
1964	0.8397
1955	0.8477
1946	0.85
1937	0.8504
1928	0.8474
1919	0.8475
1910	0.8568
1901	0.854
1892	0.8523
1883	0.8543
1874	0.8541
1865	0.8491
1856	0.8451
1847	0.8506
1838	0.8573
1829	0.8554
1820	0.858
1811	0.8692
1802	0.8699
1793	0.8691
1784	0.8689
1775	0.8715
1766	0.8739
1757	0.8753
1748	0.8748
1739	0.8744
1730	0.8741
1721	0.8725
1712	0.8662
1703	0.8631
1694	0.8618
1685	0.8617
1676	0.8612
1667	0.8614
1658	0.8587
1649	0.8547
1640	0.8555
1631	0.8591
1622	0.8606
1613	0.8603
1604	0.8571
1595	0.853
1586	0.8416
1577	0.6818
1568	0.5598
1559	0.8025
1550	0.8435
1541	0.8445
1532	0.8449
1523	0.8453
1514	0.8461
1505	0.8468
1496	0.8463
1487	0.8443
1478	0.8364
1469	0.8358
1460	0.7847
1451	0.3876
1442	0.4742
1433	0.4772
1424	0.6222
1415	0.6441
1406	0.7712
1397	0.768
1388	0.7762
1379	0.6851
1370	0.7868
1361	0.7581
1352	0.5703
1343	0.7275
1334	0.7494
1325	0.7065
1316	0.5493
1307	0.3084
1298	0.615
1289	0.7508
1280	0.7658
1271	0.7806
1262	0.7891
1253	0.7888
1244	0.7783
1235	0.7537
1226	0.6598
1217	0.7708
1208	0.7724
1199	0.7596
1190	0.6574
1181	0.6819
1172	0.7492
1163	0.7569
1154	0.7589
1145	0.7564
1136	0.7245
1127	0.6851
1118	0.5867
1109	0.348
1100	0.1103
1091	0.3294
1082	0.565
1073	0.6784
1064	0.7188
1055	0.6986
1046	0.3934
1037	0.4246
1028	0.7372
1019	0.7419
1010	0.7764
1001	0.7878
992	0.795
983	0.8012
974	0.803
965	0.8035
956	0.8065
947	0.8078
938	0.8032
929	0.7894
920	0.7453
911	0.3478
902	0.5728
893	0.7601
884	0.7482
875	0.4988
866	0.4578
857	0.794
848	0.8168
839	0.824
830	0.8275
821	0.6903
812	0.8421
803	0.8462
794	0.8444
785	0.8385
776	0.8314
767	0.8297
758	0.8302
749	0.8298
740	0.8157
731	0.7885
722	0.7746
713	0.8344
704	0.8538
695	0.8625
686	0.8818
677	0.88
668	0.8605
659	0.8593
650	0.856
641	0.8505
632	0.8439
623	0.8345
614	0.8086
605	0.8044
596	0.4074
587	0.8062
578	0.8191
569	0.8111
560	0.8075
551	0.8075
542	0.8058
533	0.7986
524	0.7858
515	0.7778
506	0.7751
497	0.7711
488	0.7657
479	0.7594
470	0.7515
461	0.7291
452	0.6844
443	0.4968
434	0.4754
425	0.2806
416	0.2897
407	0.406
398	0.4167
