Infrared Spectrum: 1,4-Octadiene (E & Z)
Formula: C8 H14
State: LIQUID (NEAT)
Class: COBLENTZ III
Instrument: BECKMAN IR-12 (GRATING)
Instrument parameters: GRATING
Sampling: TRANSMISSION
Path length: 0.0104 CM
Resolution: 2
Origin: COLGATE-PALMOLIVE COMPANY (KELLENBACH)
1/CM	TRANSMITTANCE
404	0.6557
413	0.6942
422	0.7372
431	0.77
440	0.804
449	0.8265
458	0.8366
467	0.8435
476	0.8748
485	0.8762
494	0.8742
503	0.869
512	0.822
521	0.7273
530	0.6618
539	0.6122
548	0.4923
557	0.5724
566	0.6498
575	0.6792
584	0.6763
593	0.6467
602	0.6624
611	0.6271
620	0.5225
629	0.418
638	0.3328
647	0.2988
656	0.4223
665	0.549
674	0.5748
683	0.5227
692	0.473
701	0.4225
710	0.3392
719	0.2938
728	0.3088
737	0.3561
746	0.4681
755	0.4806
764	0.5441
773	0.5305
782	0.5705
791	0.6742
800	0.7439
809	0.7878
818	0.7919
827	0.7781
836	0.7416
845	0.59
854	0.4759
863	0.4215
872	0.3694
881	0.176
890	0.0984
899	0.0254
908	0.0067
917	0.0194
926	0.0922
935	0.1649
944	0.2066
953	0.1009
962	0.011
971	0.0645
980	0.0223
989	0.0077
998	0.0249
1007	0.1267
1016	0.204
1025	0.3479
1034	0.408
1043	0.3934
1052	0.3057
1061	0.2355
1070	0.2247
1079	0.3371
1088	0.3454
1097	0.2882
1106	0.3974
1115	0.5422
1124	0.5451
1133	0.5937
1142	0.641
1151	0.731
1160	0.769
1169	0.7878
1178	0.7648
1187	0.7371
1196	0.7117
1205	0.6703
1214	0.6404
1223	0.6055
1232	0.6326
1241	0.6365
1250	0.4237
1259	0.2737
1268	0.2962
1277	0.4137
1286	0.4146
1295	0.4253
1304	0.4376
1313	0.4523
1322	0.4817
1331	0.4018
1340	0.3489
1349	0.4473
1358	0.5277
1367	0.4397
1376	0.0851
1385	0.3198
1394	0.3344
1403	0.1475
1412	0.1122
1421	0.0543
1430	0.0309
1439	0.0275
1448	0.0355
1457	0.0177
1466	0.0513
1475	0.3994
1484	0.5411
1493	0.6286
1502	0.6758
1511	0.7138
1520	0.7454
1529	0.7631
1538	0.7707
1547	0.7723
1556	0.7772
1565	0.7906
1574	0.7987
1583	0.7959
1592	0.7827
1601	0.7122
1610	0.6213
1619	0.5475
1628	0.2653
1637	0.0227
1646	0.276
1655	0.5255
1664	0.5879
1673	0.7021
1682	0.7229
1691	0.7274
1700	0.7368
1709	0.7172
1718	0.6959
1727	0.6837
1736	0.6958
1745	0.7312
1754	0.7777
1763	0.8147
1772	0.8454
1781	0.8533
1790	0.8445
1799	0.8014
1808	0.6828
1817	0.5065
1826	0.466
1835	0.5895
1844	0.7332
1853	0.7775
1862	0.7989
1871	0.8284
1880	0.8382
1889	0.8474
1898	0.8668
1907	0.8905
1916	0.9076
1925	0.9051
1934	0.912
1943	0.9106
1952	0.8997
1961	0.8732
1970	0.8348
1979	0.8385
1988	0.8751
1997	0.8906
2006	0.8982
2015	0.8997
2024	0.8999
2033	0.9003
2042	0.9035
2051	0.9019
2060	0.9055
2069	0.9124
2078	0.9155
2087	0.916
2096	0.9157
2105	0.9162
2114	0.9164
2123	0.9166
2132	0.9172
2141	0.9173
2150	0.9094
2159	0.9033
2168	0.8995
2177	0.897
2186	0.895
2195	0.8946
2204	0.8961
2213	0.8998
2222	0.9021
2231	0.9043
2240	0.9064
2249	0.9081
2258	0.9094
2267	0.9103
2276	0.9098
2285	0.905
2294	0.8991
2303	0.8924
2312	0.8845
2321	0.8779
2330	0.8767
2339	0.8769
2348	0.8798
2357	0.8866
2366	0.8923
2375	0.8929
2384	0.8897
2393	0.8876
2402	0.8884
2411	0.9003
2420	0.9059
2429	0.9088
2438	0.9114
2447	0.9131
2456	0.9123
2465	0.9063
2474	0.9062
2483	0.9041
2492	0.8941
2501	0.8821
2510	0.873
2519	0.864
2528	0.8548
2537	0.8464
2546	0.8421
2555	0.8453
2564	0.8506
2573	0.8476
2582	0.8415
2591	0.8383
2600	0.8409
2609	0.8424
2618	0.8319
2627	0.8142
2636	0.7944
2645	0.7709
2654	0.7532
2663	0.7572
2672	0.7635
2681	0.7508
2690	0.7229
2699	0.7051
2708	0.698
2717	0.6576
2726	0.6404
2735	0.6757
2744	0.6993
2753	0.6874
2762	0.6204
2771	0.553
2780	0.4857
2789	0.4266
2798	0.2531
2807	0.1467
2816	0.054
2825	0.0162
2834	0.0121
2843	0.0097
2852	0.0079
2861	0.0071
2870	0.007
2879	0.0073
2888	0.0548
2897	0.0521
2906	0.012
2915	0.0087
2924	0.0072
2933	0.0066
2942	0.0064
2951	0.0062
2960	0.0063
2969	0.0064
2978	0.0072
2987	0.0096
2996	0.0129
3005	0.0173
3014	0.0254
3023	0.073
3032	0.139
3041	0.1857
3050	0.1332
3059	0.1073
3068	0.0355
3077	0.0701
3086	0.3982
3095	0.491
3104	0.6333
3113	0.697
3122	0.7333
3131	0.7519
3140	0.7634
3149	0.7741
3158	0.7805
3167	0.7833
3176	0.7857
3185	0.7956
3194	0.8211
3203	0.8421
3212	0.858
3221	0.8706
3230	0.8821
3239	0.8888
3248	0.8832
3257	0.8793
3266	0.8841
3275	0.8975
3284	0.9055
3293	0.9105
3302	0.9142
3311	0.9177
3320	0.9212
3329	0.9227
3338	0.9243
3347	0.925
3356	0.9249
3365	0.9233
3374	0.9216
3383	0.9204
3392	0.9196
3401	0.919
3410	0.9185
3419	0.9182
3428	0.9179
3437	0.9183
3446	0.9187
3455	0.9192
3464	0.9198
3473	0.9203
3482	0.9205
3491	0.9206
3500	0.9247
3509	0.9265
3518	0.9257
3527	0.9252
3536	0.9239
3545	0.9226
3554	0.9266
3563	0.931
3572	0.9332
3581	0.9322
3590	0.9297
3599	0.9283
3608	0.9274
3617	0.9271
3626	0.9272
3635	0.9286
3644	0.9281
3653	0.9218
3662	0.9203
3671	0.9197
3680	0.9195
3689	0.9195
3698	0.9197
3707	0.9203
3716	0.9212
3725	0.9219
3734	0.9212
3743	0.9183
3752	0.9112
3761	0.9042
3770	0.9036
3779	0.9049
3788	0.9096
3797	0.9111
3806	0.9143
3815	0.9199
3824	0.9223
3833	0.922
3842	0.9209
3851	0.9205
3860	0.9207
3869	0.9168
3878	0.9104
3887	0.9029
3896	0.903
3905	0.9033
3914	0.8944
3923	0.8818
3932	0.8755
3941	0.8678
3950	0.8594
3959	0.8543
3968	0.8514
3977	0.8386
3986	0.8313
3995	0.8321
