Infrared Spectrum: AMMONIUM CHLORIDE
Formula: N H4 Cl
State: SOLID (NUJOL AND FLUOROLUBE MULLS)
Class: COBLENTZ
Instrument: Not specified, most likely a prism, grating, or hybrid spectrometer.
Sampling: TRANSMISSION
Resolution: 4
Origin: MELLON INSTITUTE
MICROMETERS	TRANSMITTANCE
2.081	0.794
2.12095	0.799
2.16091	0.799
2.20086	0.804
2.24081	0.806
2.28077	0.812
2.32072	0.819
2.36067	0.827
2.40062	0.836
2.44058	0.844
2.48053	0.852
2.52048	0.862
2.56044	0.871
2.60039	0.876
2.64034	0.879
2.6803	0.884
2.72025	0.891
2.7602	0.894
2.80016	0.896
2.84011	0.899
2.88006	0.903
2.92001	0.906
2.95997	0.908
2.99992	0.891
3.03987	0.829
3.07983	0.71
3.11978	0.513
3.15973	0.396
3.19969	0.404
3.23964	0.403
3.27959	0.387
3.31955	0.479
3.3595	0.575
3.39945	0.66
3.4394	0.705
3.47936	0.698
3.51931	0.687
3.55926	0.724
3.59922	0.797
3.63917	0.822
3.67912	0.842
3.71908	0.856
3.75903	0.871
3.79898	0.877
3.83894	0.889
3.87889	0.894
3.91884	0.901
3.95879	0.908
3.99875	0.913
4.0387	0.914
4.07865	0.919
4.11861	0.921
4.15856	0.923
4.19851	0.923
4.23847	0.923
4.27842	0.923
4.31837	0.923
4.35833	0.923
4.39828	0.924
4.43823	0.924
4.47818	0.926
4.51814	0.926
4.55809	0.929
4.59804	0.931
4.638	0.933
4.67795	0.934
4.7179	0.934
4.75786	0.934
4.79781	0.938
4.83776	0.939
4.87772	0.939
4.91767	0.936
4.95762	0.936
4.99757	0.931
5.03753	0.933
5.07748	0.934
5.11743	0.938
5.15739	0.943
5.19734	0.946
5.23729	0.949
5.27725	0.951
5.3172	0.951
5.35715	0.953
5.39711	0.951
5.43706	0.951
5.47701	0.949
5.51696	0.946
5.55692	0.944
5.59687	0.938
5.63682	0.929
5.67678	0.914
5.71673	0.906
5.75668	0.908
5.79664	0.911
5.83659	0.921
5.87654	0.931
5.9165	0.943
5.95645	0.949
5.9964	0.958
6.03635	0.963
6.07631	0.964
6.11626	0.971
6.15621	0.976
6.19617	0.983
6.23612	0.984
6.27607	0.983
6.31603	0.983
6.35598	0.983
6.39593	0.981
6.43589	0.976
6.47584	0.976
6.51579	0.976
6.55574	0.976
6.5957	0.974
6.63565	0.976
6.6756	0.978
6.71556	0.981
6.75551	0.983
6.79546	0.978
6.83542	0.958
6.87537	0.899
6.91532	0.817
6.95528	0.792
6.99523	0.7
7.03518	0.511
7.07513	0.307
7.11509	0.316
7.15504	0.521
7.19499	0.702
7.23495	0.77
7.2749	0.827
7.31485	0.839
7.35481	0.851
7.39476	0.861
7.43471	0.871
7.47467	0.881
7.51462	0.887
7.55457	0.896
7.59452	0.903
7.63448	0.911
7.67443	0.918
7.71438	0.924
7.75434	0.931
7.79429	0.938
7.83424	0.944
7.8742	0.948
7.91415	0.953
7.9541	0.956
7.99406	0.959
8.03401	0.961
8.07396	0.961
8.11391	0.963
8.15387	0.964
8.19382	0.966
8.23377	0.971
8.27373	0.973
8.31368	0.974
8.35363	0.976
8.39359	0.978
8.43354	0.978
8.47349	0.979
8.51345	0.981
8.5534	0.981
8.59335	0.979
8.6333	0.983
8.67326	0.981
8.71321	0.981
8.75316	0.981
8.79312	0.983
8.83307	0.981
8.87302	0.983
8.91298	0.983
8.95293	0.983
8.99288	0.983
9.03284	0.984
9.07279	0.983
9.11274	0.984
9.15269	0.983
9.19265	0.983
9.2326	0.983
9.27255	0.983
9.31251	0.984
9.35246	0.983
9.39241	0.984
9.43237	0.984
9.47232	0.986
9.51227	0.984
9.55223	0.986
9.59218	0.986
9.63213	0.986
9.67208	0.986
9.71204	0.984
9.75199	0.986
9.79194	0.988
9.8319	0.988
9.87185	0.988
9.9118	0.991
9.95176	0.991
9.99171	0.993
10.0317	0.991
10.0716	0.991
10.1116	0.991
10.1515	0.993
10.1915	0.994
10.2314	0.996
10.2714	0.996
10.3113	0.996
10.3513	0.996
10.3912	0.996
10.4312	0.996
10.4711	0.996
10.5111	0.996
10.5511	0.998
10.591	0.998
10.631	0.998
10.6709	0.998
10.7109	0.998
10.7508	0.998
10.7908	0.998
10.8307	0.998
10.8707	0.998
10.9106	1.001
10.9506	1.001
10.9905	1.001
11.0305	1.001
11.0704	1.001
11.1104	1.001
11.1503	1
11.1903	1
11.2303	1
11.2702	0.998
11.3102	1
11.3501	1
11.3901	1
11.43	1
11.47	1
11.5099	1
11.5499	1
11.5898	1
11.6298	1
11.6697	1
11.7097	1
11.7496	0.998
11.7896	0.996
11.8296	0.996
11.8695	0.996
11.9095	0.996
11.9494	0.996
11.9894	0.996
12.0293	0.996
12.0693	0.998
12.1092	0.998
12.1492	0.998
12.1891	0.998
12.2291	0.998
12.269	0.996
12.309	0.996
12.3489	0.996
12.3889	0.996
12.4288	0.998
12.4688	0.998
12.5088	0.998
12.5487	0.998
12.5887	0.998
12.6286	0.998
12.6686	0.998
12.7085	0.996
12.7485	0.996
12.7884	0.994
12.8284	0.996
12.8683	0.994
12.9083	0.994
12.9482	0.993
12.9882	0.993
13.0281	0.991
13.0681	0.991
13.108	0.991
13.148	0.991
13.188	0.991
13.2279	0.989
13.2679	0.988
13.3078	0.984
13.3478	0.981
13.3877	0.978
13.4277	0.976
13.4676	0.973
13.5076	0.971
13.5475	0.966
13.5875	0.964
13.6274	0.961
13.6674	0.956
13.7073	0.954
13.7473	0.949
13.7873	0.944
13.8272	0.941
13.8672	0.936
13.9071	0.933
13.9471	0.931
13.987	0.928
14.027	0.919
14.0669	0.914
14.1069	0.909
14.1468	0.906
14.1868	0.901
14.2267	0.896
14.2667	0.892
14.3066	0.886
14.3466	0.886
14.3865	0.881
14.4265	0.874
14.4665	0.871
14.5064	0.864
14.5464	0.857
14.5863	0.854
14.6263	0.849
14.6662	0.844
14.7062	0.841
14.7461	0.834
14.7861	0.826
14.826	0.821
14.866	0.816
14.9059	0.809
14.9459	0.806
14.9858	0.801
15.0258	0.795
15.0657	0.79
15.1057	0.789
15.1457	0.785
15.1856	0.784
15.2256	0.78
15.2655	0.777
15.3055	0.775
15.3454	0.772
15.3854	0.769
15.4253	0.767
15.4653	0.765
15.5052	0.764
15.5452	0.762
15.5851	0.76
15.6251	0.759
15.665	0.757
15.705	0.759
15.745	0.759
15.7849	0.76
15.8249	0.762
15.8648	0.764
15.9048	0.767
15.9447	0.77
15.9847	0.772
16.0246	0.77
