Infrared Spectrum: GLUTARIC ACID, 2-OXO-, 1-SODIUM SALT
Formula: C5 H5 Na O5
State: SOLID (SPLIT MULL), FLUOROLUBE FOR 3800-1330 CM^-^1, NUJOL FOR 1330-400 CM^-^1
Class: COBLENTZ III
Instrument: DOW KBr FOREPRISM-GRATING
Instrument parameters: BLAZED AT 3.5, 12.0, 20.0 MICRON AND CHANGED AT 5.0, 7.5, 14.9 MICRON
Sampling: TRANSMISSION
Resolution: 2
Origin: DOW CHEMICAL COMPANY
1/CM	TRANSMITTANCE
382	0.7018
391	0.706
400	0.7157
409	0.7242
418	0.7311
427	0.7262
436	0.7531
445	0.7937
454	0.8108
463	0.819
472	0.8238
481	0.8239
490	0.8106
499	0.7608
508	0.784
517	0.8356
526	0.8441
535	0.8474
544	0.8498
553	0.8505
562	0.835
571	0.8447
580	0.833
589	0.85
598	0.8631
607	0.8709
616	0.868
625	0.8573
634	0.8245
643	0.7348
652	0.5697
661	0.8271
670	0.8574
679	0.8599
688	0.8452
697	0.8106
706	0.7592
715	0.8024
724	0.7511
733	0.7892
742	0.801
751	0.8098
760	0.7784
769	0.5629
778	0.7593
787	0.8139
796	0.8227
805	0.8182
814	0.8091
823	0.7974
832	0.7775
841	0.7511
850	0.5966
859	0.7076
868	0.6321
877	0.5982
886	0.6745
895	0.6821
904	0.6354
913	0.7006
922	0.7565
931	0.7595
940	0.776
949	0.7819
958	0.7803
967	0.7782
976	0.783
985	0.7908
994	0.7887
1003	0.7849
1012	0.7685
1021	0.7799
1030	0.7861
1039	0.7794
1048	0.7458
1057	0.5409
1066	0.789
1075	0.7835
1084	0.7785
1093	0.7428
1102	0.5233
1111	0.7536
1120	0.7822
1129	0.7797
1138	0.773
1147	0.7658
1156	0.7576
1165	0.7704
1174	0.763
1183	0.7615
1192	0.7648
1201	0.7576
1210	0.7472
1219	0.7325
1228	0.6468
1237	0.668
1246	0.7308
1255	0.7271
1264	0.7039
1273	0.6508
1282	0.674
1291	0.6618
1300	0.5903
1309	0.368
1318	0.1576
1327	0.343
1336	0.5227
1345	0.5553
1354	0.5739
1363	0.596
1372	0.6583
1381	0.64
1390	0.5306
1399	0.5516
1408	0.4242
1417	0.3947
1426	0.4129
1435	0.576
1444	0.5536
1453	0.5575
1462	0.7245
1471	0.7544
1480	0.7642
1489	0.7651
1498	0.7649
1507	0.7628
1516	0.7601
1525	0.7547
1534	0.7468
1543	0.7361
1552	0.7235
1561	0.7033
1570	0.6708
1579	0.6381
1588	0.5959
1597	0.5537
1606	0.5475
1615	0.4736
1624	0.3044
1633	0.0621
1642	0.0644
1651	0.104
1660	0.4667
1669	0.5488
1678	0.4952
1687	0.3212
1696	0.1514
1705	0.0764
1714	0.138
1723	0.3105
1732	0.4788
1741	0.7171
1750	0.7612
1759	0.7875
1768	0.8035
1777	0.809
1786	0.8257
1795	0.8362
1804	0.8449
1813	0.8524
1822	0.8566
1831	0.8601
1840	0.863
1849	0.8636
1858	0.8628
1867	0.8613
1876	0.87
1885	0.8718
1894	0.8738
1903	0.8755
1912	0.8768
1921	0.8775
1930	0.8775
1939	0.8793
1948	0.8787
1957	0.8844
1966	0.8825
1975	0.8783
1984	0.8774
1993	0.8763
2002	0.8345
2011	0.8346
2020	0.8336
2029	0.8318
2038	0.8291
2047	0.8271
2056	0.8252
2065	0.8243
2074	0.823
2083	0.8215
2092	0.82
2101	0.8185
2110	0.8171
2119	0.8158
2128	0.8146
2137	0.8133
2146	0.8115
2155	0.8099
2164	0.8082
2173	0.8065
2182	0.8045
2191	0.8012
2200	0.7981
2209	0.7949
2218	0.7912
2227	0.7865
2236	0.7811
2245	0.7796
2254	0.778
2263	0.7753
2272	0.7744
2281	0.7747
2290	0.7736
2299	0.7668
2308	0.7701
2317	0.7754
2326	0.7757
2335	0.7758
2344	0.7758
2353	0.7758
2362	0.7758
2371	0.7756
2380	0.7745
2389	0.7728
2398	0.7715
2407	0.7708
2416	0.7696
2425	0.7676
2434	0.7667
2443	0.7667
2452	0.7658
2461	0.7641
2470	0.7618
2479	0.7591
2488	0.7561
2497	0.7512
2506	0.744
2515	0.7418
2524	0.7471
2533	0.7505
2542	0.7495
2551	0.7372
2560	0.7251
2569	0.7251
2578	0.7261
2587	0.7205
2596	0.7139
2605	0.7105
2614	0.709
2623	0.6978
2632	0.6788
2641	0.6762
2650	0.6911
2659	0.6997
2668	0.7007
2677	0.6993
2686	0.6982
2695	0.6951
2704	0.6825
2713	0.6804
2722	0.6806
2731	0.675
2740	0.6688
2749	0.6633
2758	0.6731
2767	0.6833
2776	0.6818
2785	0.6758
2794	0.6682
2803	0.6637
2812	0.663
2821	0.6622
2830	0.6585
2839	0.6514
2848	0.6414
2857	0.6344
2866	0.6281
2875	0.6207
2884	0.6116
2893	0.5989
2902	0.5806
2911	0.5746
2920	0.5766
2929	0.5607
2938	0.5717
2947	0.5818
2956	0.5781
2965	0.5682
2974	0.5652
2983	0.562
2992	0.5579
3001	0.5536
3010	0.5484
3019	0.5423
3028	0.5332
3037	0.5223
3046	0.5224
3055	0.5227
3064	0.5251
3073	0.5278
3082	0.5303
3091	0.5329
3100	0.5362
3109	0.5406
3118	0.5456
3127	0.5574
3136	0.5694
3145	0.5794
3154	0.5909
3163	0.6031
3172	0.6158
3181	0.6281
3190	0.6401
3199	0.6524
3208	0.6654
3217	0.6803
3226	0.6945
3235	0.7095
3244	0.7231
3253	0.7343
3262	0.7431
3271	0.7486
3280	0.7541
3289	0.7593
3298	0.764
3307	0.7689
3316	0.7739
3325	0.7788
3334	0.7826
3343	0.7861
3352	0.7884
3361	0.7901
3370	0.7906
3379	0.7903
3388	0.7896
3397	0.7903
3406	0.7967
3415	0.7999
3424	0.8017
3433	0.8026
3442	0.8033
3451	0.8033
3460	0.8033
3469	0.8034
3478	0.8036
3487	0.8033
3496	0.8028
3505	0.8021
3514	0.8035
3523	0.8042
3532	0.8044
3541	0.8054
3550	0.8061
3559	0.8065
3568	0.8065
3577	0.8061
3586	0.8093
3595	0.8114
3604	0.8117
3613	0.8117
3622	0.8122
3631	0.8125
3640	0.8126
3649	0.8128
3658	0.8132
3667	0.8136
3676	0.8141
3685	0.8144
3694	0.8146
3703	0.8147
3712	0.8148
3721	0.8146
3730	0.8141
3739	0.8135
3748	0.813
3757	0.8122
3766	0.8117
3775	0.8119
3784	0.8124
