Infrared Spectrum: Sodium gluconate
Formula: C6 H11 Na O7
State: SOLID (SPLIT MULL)
Class: COBLENTZ III
Instrument: DOW KBr FOREPRISM-GRATING
Instrument parameters: BLAZED AT 3.5, 12.0, 20.0 MICRON AND CHANGED AT 5.0, 7.5, 14.9 MICRON
Sampling: TRANSMISSION
Resolution: 2
Origin: DOW CHEMICAL COMPANY
1/CM	TRANSMITTANCE
3773.46	0.6233
3764.5	0.6262
3755.54	0.6296
3746.58	0.633
3737.61	0.6363
3728.65	0.6402
3719.69	0.6443
3710.73	0.6485
3701.77	0.6535
3692.81	0.6591
3683.84	0.6651
3674.88	0.6708
3665.92	0.6757
3656.96	0.6806
3648	0.6868
3639.04	0.6925
3630.07	0.6968
3621.11	0.7008
3612.15	0.7036
3603.19	0.7068
3594.23	0.7111
3585.27	0.7143
3576.31	0.7235
3567.34	0.7271
3558.38	0.6199
3549.42	0.1975
3540.46	0.1215
3531.5	0.2954
3522.54	0.4236
3513.57	0.4837
3504.61	0.5156
3495.65	0.5354
3486.69	0.5356
3477.73	0.5195
3468.77	0.4742
3459.81	0.398
3450.84	0.3167
3441.88	0.208
3432.92	0.1608
3423.96	0.2024
3415	0.2764
3406.04	0.331
3397.07	0.3445
3388.11	0.347
3379.15	0.3377
3370.19	0.3205
3361.23	0.3016
3352.27	0.2703
3343.3	0.2063
3334.34	0.1537
3325.38	0.0903
3316.42	0.0706
3307.46	0.0765
3298.5	0.1273
3289.54	0.1537
3280.57	0.1746
3271.61	0.19
3262.65	0.1991
3253.69	0.202
3244.73	0.2032
3235.77	0.2022
3226.8	0.198
3217.84	0.1887
3208.88	0.1746
3199.92	0.1589
3190.96	0.1432
3182	0.1306
3173.03	0.1187
3164.07	0.1068
3155.11	0.1044
3146.15	0.1128
3137.19	0.1217
3128.23	0.1327
3119.27	0.1433
3110.3	0.1508
3101.34	0.1594
3092.38	0.1655
3083.42	0.1699
3074.46	0.1752
3065.5	0.1815
3056.53	0.1883
3047.57	0.195
3038.61	0.2024
3029.65	0.2097
3020.69	0.2174
3011.73	0.227
3002.77	0.2294
2993.8	0.2302
2984.84	0.2574
2975.88	0.2466
2966.92	0.1895
2957.96	0.2492
2949	0.2642
2940.03	0.2409
2931.07	0.1906
2922.11	0.2112
2913.15	0.2725
2904.19	0.2917
2895.23	0.2506
2886.26	0.2482
2877.3	0.2467
2868.34	0.246
2859.38	0.2563
2850.42	0.2628
2841.46	0.2652
2832.5	0.2576
2823.53	0.2485
2814.57	0.2422
2805.61	0.2417
2796.65	0.2466
2787.69	0.2608
2778.73	0.2755
2769.76	0.2972
2760.8	0.3117
2751.84	0.3142
2742.88	0.3215
2733.92	0.3308
2724.96	0.3315
2716	0.3273
2707.03	0.3262
2698.07	0.3343
2689.11	0.3438
2680.15	0.3493
2671.19	0.3506
2662.23	0.3541
2653.26	0.371
2644.3	0.3824
2635.34	0.3953
2626.38	0.4078
2617.42	0.4212
2608.46	0.4333
2599.49	0.4444
2590.53	0.4574
2581.57	0.4639
2572.61	0.4704
2563.65	0.4768
2554.69	0.4808
2545.73	0.4858
2536.76	0.4928
2527.8	0.5004
2518.84	0.5097
2509.88	0.5183
2500.92	0.5264
2491.96	0.5337
2482.99	0.5391
2474.03	0.5428
2465.07	0.5456
2456.11	0.5515
2447.15	0.5573
2438.19	0.5645
2429.22	0.5717
2420.26	0.5776
2411.3	0.5833
2402.34	0.5877
2393.38	0.5909
2384.42	0.5926
2375.46	0.5938
2366.49	0.5952
2357.53	0.5971
2348.57	0.5995
2339.61	0.6024
2330.65	0.6071
2321.69	0.6137
2312.72	0.6227
2303.76	0.6289
2294.8	0.6353
2285.84	0.642
2276.88	0.6495
2267.92	0.6573
2258.96	0.6649
2249.99	0.673
2241.03	0.682
2232.07	0.6898
2223.11	0.6969
2214.15	0.7029
2205.19	0.7082
2196.22	0.7135
2187.26	0.7192
2178.3	0.7249
2169.34	0.7309
2160.38	0.7375
2151.42	0.7439
2142.45	0.7495
2133.49	0.7545
2124.53	0.7593
2115.57	0.7642
2106.61	0.7689
2097.65	0.7738
2088.69	0.7793
2079.72	0.7835
2070.76	0.7871
2061.8	0.7911
2052.84	0.7949
2043.88	0.7989
2034.92	0.8011
2025.95	0.8028
2016.99	0.8062
2008.03	0.8097
1999.07	0.8072
1990.11	0.7864
1981.15	0.8098
1972.18	0.8159
1963.22	0.8223
1954.26	0.8284
1945.3	0.8327
1936.34	0.8347
1927.38	0.8354
1918.42	0.8383
1909.45	0.8413
1900.49	0.8437
1891.53	0.8466
1882.57	0.8505
1873.61	0.8547
1864.65	0.8564
1855.68	0.8512
1846.72	0.8542
1837.76	0.8615
1828.8	0.865
1819.84	0.8684
1810.88	0.8707
1801.92	0.8721
1792.95	0.8756
1783.99	0.8765
1775.03	0.8765
1766.07	0.8753
1757.11	0.8739
1748.15	0.8698
1739.18	0.8653
1730.22	0.8643
1721.26	0.8618
1712.3	0.8534
1703.34	0.8418
1694.38	0.8223
1685.41	0.7853
1676.45	0.716
1667.49	0.6398
1658.53	0.5026
1649.57	0.3247
1640.61	0.1498
1631.65	0.1055
1622.68	0.1393
1613.72	0.1809
1604.76	0.1657
1595.8	0.1438
1586.84	0.2013
1577.88	0.2682
1568.91	0.3611
1559.95	0.4266
1550.99	0.4934
1542.03	0.5624
1533.07	0.5917
1524.11	0.6137
1515.14	0.6358
1506.18	0.6472
1497.22	0.6339
1488.26	0.5732
1479.3	0.4352
1470.34	0.2666
1461.38	0.3374
1452.41	0.2634
1443.45	0.1448
1434.49	0.201
1425.53	0.2469
1416.57	0.1471
1407.61	0.043
1398.64	0.0375
1389.68	0.0922
1380.72	0.1729
1371.76	0.2345
1362.8	0.3091
1353.84	0.3247
1344.88	0.2837
1335.91	0.3495
1326.95	0.3845
1317.99	0.3872
1309.03	0.3016
1300.07	0.3806
1291.11	0.4178
1282.14	0.335
1273.18	0.4119
1264.22	0.4068
1255.26	0.3
1246.3	0.2549
1237.34	0.3841
1228.37	0.3402
1219.41	0.431
1210.45	0.324
1201.49	0.2895
1192.53	0.3816
1183.57	0.4777
1174.61	0.5484
1165.64	0.5694
1156.68	0.5692
1147.72	0.5364
1138.76	0.3383
1129.8	0.2981
1120.84	0.3767
1111.87	0.2852
1102.91	0.0654
1093.95	0.0482
1084.99	0.1644
1076.03	0.2346
1067.07	0.1949
1058.11	0.2025
1049.14	0.2569
1040.18	0.0859
1031.22	0.1689
1022.26	0.3192
1013.3	0.4131
1004.34	0.4771
995.374	0.5283
986.412	0.5621
977.451	0.4907
968.489	0.4386
959.528	0.4997
950.566	0.2417
941.605	0.4457
932.643	0.5387
923.682	0.5686
914.72	0.5605
905.758	0.4681
896.797	0.5827
887.835	0.5937
878.874	0.2545
869.912	0.2795
860.951	0.4542
851.989	0.5321
843.027	0.5707
834.066	0.5944
825.104	0.5049
816.143	0.3605
807.181	0.2509
798.22	0.3931
789.258	0.3656
780.296	0.3794
771.335	0.3923
762.373	0.3933
753.412	0.3295
744.45	0.2578
735.489	0.224
726.527	0.209
717.565	0.231
708.604	0.3022
699.642	0.1869
690.681	0.1859
681.719	0.2629
672.758	0.3297
663.796	0.3831
654.834	0.3223
645.873	0.1968
636.911	0.4108
627.95	0.5287
618.988	0.5666
610.027	0.576
601.065	0.4548
592.104	0.2211
583.142	0.4118
574.18	0.5134
565.219	0.5518
556.257	0.5659
547.296	0.5546
538.334	0.5206
529.373	0.4297
520.411	0.3293
511.449	0.3124
502.488	0.3852
493.526	0.4797
484.565	0.4754
475.603	0.3615
466.642	0.3547
457.68	0.3446
448.718	0.2769
439.757	0.351
430.795	0.3268
421.834	0.2792
412.872	0.2308
403.911	0.2078
394.949	0.1996
385.987	0.1986
