Infrared Spectrum: POTASSIUM PERCHLORATE
Formula: K Cl O4
State: SOLID (NUJOL MULL)
Class: COBLENTZ
Instrument: Not specified, most likely a prism, grating, or hybrid spectrometer.
Sampling: TRANSMISSION
Resolution: 4
Origin: MELLON INSTITUTE
MICROMETERS	TRANSMITTANCE
2.042	0.904
2.08193	0.902
2.12185	0.902
2.16178	0.902
2.2017	0.904
2.24163	0.906
2.28156	0.909
2.32148	0.911
2.36141	0.911
2.40133	0.912
2.44126	0.912
2.48118	0.912
2.52111	0.916
2.56104	0.916
2.60096	0.917
2.64089	0.919
2.68081	0.921
2.72074	0.921
2.76067	0.922
2.80059	0.922
2.84052	0.926
2.88044	0.929
2.92037	0.931
2.96029	0.932
3.00022	0.934
3.04015	0.936
3.08007	0.936
3.12	0.936
3.15992	0.936
3.19985	0.934
3.23978	0.932
3.2797	0.924
3.31963	0.845
3.35955	0.37
3.39948	0.351
3.4394	0.43
3.47933	0.432
3.51926	0.725
3.55918	0.864
3.59911	0.899
3.63903	0.912
3.67896	0.919
3.71889	0.922
3.75881	0.924
3.79874	0.931
3.83866	0.934
3.87859	0.938
3.91851	0.941
3.95844	0.943
3.99837	0.946
4.03829	0.948
4.07822	0.949
4.11814	0.946
4.15807	0.943
4.198	0.939
4.23792	0.936
4.27785	0.936
4.31777	0.934
4.3577	0.934
4.39762	0.934
4.43755	0.934
4.47748	0.934
4.5174	0.934
4.55733	0.932
4.59725	0.929
4.63718	0.931
4.67711	0.927
4.71703	0.926
4.75696	0.924
4.79688	0.921
4.83681	0.917
4.87673	0.914
4.91666	0.911
4.95659	0.902
4.99651	0.896
5.03644	0.896
5.07636	0.902
5.11629	0.912
5.15622	0.917
5.19614	0.921
5.23607	0.922
5.27599	0.924
5.31592	0.922
5.35585	0.921
5.39577	0.919
5.4357	0.914
5.47562	0.914
5.51555	0.912
5.55547	0.911
5.5954	0.911
5.63533	0.906
5.67525	0.906
5.71518	0.904
5.7551	0.902
5.79503	0.899
5.83496	0.899
5.87488	0.894
5.91481	0.892
5.95473	0.889
5.99466	0.887
6.03458	0.884
6.07451	0.884
6.11444	0.882
6.15436	0.881
6.19429	0.881
6.23421	0.877
6.27414	0.876
6.31407	0.876
6.35399	0.874
6.39392	0.872
6.43384	0.869
6.47377	0.865
6.51369	0.864
6.55362	0.864
6.59355	0.86
6.63347	0.859
6.6734	0.854
6.71332	0.844
6.75325	0.802
6.79318	0.698
6.8331	0.603
6.87303	0.618
6.91295	0.668
6.95288	0.725
6.9928	0.773
7.03273	0.788
7.07266	0.798
7.11258	0.804
7.15251	0.807
7.19243	0.747
7.23236	0.698
7.27229	0.71
7.31221	0.738
7.35214	0.768
7.39206	0.775
7.43199	0.778
7.47191	0.78
7.51184	0.782
7.55177	0.783
7.59169	0.783
7.63162	0.783
7.67154	0.78
7.71147	0.782
7.7514	0.778
7.79132	0.773
7.83125	0.768
7.87117	0.765
7.9111	0.76
7.95103	0.753
7.99095	0.748
8.03088	0.745
8.0708	0.738
8.11073	0.728
8.15065	0.718
8.19058	0.705
8.23051	0.69
8.27043	0.678
8.31036	0.659
8.35028	0.634
8.39021	0.603
8.43014	0.566
8.47006	0.524
8.50999	0.504
8.54991	0.484
8.58984	0.447
8.62976	0.413
8.66969	0.395
8.70962	0.363
8.74954	0.351
8.78947	0.346
8.82939	0.34
8.86932	0.336
8.90925	0.326
8.94917	0.318
8.9891	0.311
9.02902	0.308
9.06895	0.304
9.10887	0.298
9.1488	0.293
9.18873	0.288
9.22865	0.283
9.26858	0.281
9.3085	0.276
9.34843	0.279
9.38836	0.284
9.42828	0.298
9.46821	0.309
9.50813	0.328
9.54806	0.358
9.58798	0.388
9.62791	0.415
9.66784	0.442
9.70776	0.467
9.74769	0.49
9.78761	0.519
9.82754	0.544
9.86747	0.562
9.90739	0.572
9.94732	0.581
9.98724	0.592
10.0272	0.609
10.0671	0.628
10.107	0.646
10.1469	0.656
10.1869	0.661
10.2268	0.67
10.2667	0.676
10.3066	0.683
10.3466	0.691
10.3865	0.698
10.4264	0.705
10.4664	0.71
10.5063	0.715
10.5462	0.723
10.5861	0.723
10.6261	0.683
10.666	0.681
10.7059	0.701
10.7458	0.715
10.7858	0.728
10.8257	0.74
10.8656	0.747
10.9055	0.752
10.9455	0.755
10.9854	0.76
11.0253	0.772
11.0652	0.778
11.1052	0.782
11.1451	0.787
11.185	0.792
11.2249	0.797
11.2649	0.798
11.3048	0.802
11.3447	0.805
11.3846	0.809
11.4246	0.81
11.4645	0.814
11.5044	0.817
11.5444	0.822
11.5843	0.824
11.6242	0.827
11.6641	0.829
11.7041	0.832
11.744	0.834
11.7839	0.839
11.8238	0.842
11.8638	0.844
11.9037	0.847
11.9436	0.852
11.9835	0.854
12.0235	0.857
12.0634	0.86
12.1033	0.86
12.1432	0.864
12.1832	0.867
12.2231	0.871
12.263	0.872
12.3029	0.876
12.3429	0.876
12.3828	0.879
12.4227	0.879
12.4626	0.881
12.5026	0.881
12.5425	0.881
12.5824	0.882
12.6223	0.882
12.6623	0.884
12.7022	0.882
12.7421	0.884
12.7821	0.884
12.822	0.886
12.8619	0.884
12.9018	0.887
12.9418	0.889
12.9817	0.889
13.0216	0.889
13.0615	0.889
13.1015	0.891
13.1414	0.889
13.1813	0.889
13.2212	0.889
13.2612	0.884
13.3011	0.882
13.341	0.882
13.3809	0.882
13.4209	0.879
13.4608	0.877
13.5007	0.876
13.5406	0.874
13.5806	0.871
13.6205	0.865
13.6604	0.862
13.7003	0.86
13.7403	0.859
13.7802	0.857
13.8201	0.854
13.8601	0.852
13.9	0.85
13.9399	0.85
13.9798	0.854
14.0198	0.854
14.0597	0.854
14.0996	0.855
14.1395	0.854
14.1795	0.855
14.2194	0.855
14.2593	0.855
14.2992	0.855
14.3392	0.855
14.3791	0.855
14.419	0.854
14.4589	0.852
14.4989	0.85
14.5388	0.847
14.5787	0.844
14.6186	0.842
14.6586	0.842
14.6985	0.839
14.7384	0.834
14.7783	0.835
14.8183	0.834
14.8582	0.835
14.8981	0.834
14.938	0.832
14.978	0.829
15.0179	0.825
15.0578	0.824
15.0978	0.825
15.1377	0.822
15.1776	0.82
15.2175	0.819
15.2575	0.817
15.2974	0.814
15.3373	0.807
15.3772	0.798
15.4172	0.782
15.4571	0.767
15.497	0.752
15.5369	0.737
15.5769	0.73
15.6168	0.728
15.6567	0.721
15.6966	0.72
15.7366	0.718
15.7765	0.721
15.8164	0.728
15.8563	0.735
15.8963	0.74
15.9362	0.747
15.9761	0.762
16.016	0.765
