Infrared Spectrum: BENZOIC ACID, O-(AMMONIUM SULFO)-
Formula: C7 H9 N O5 S
State: SOLID (KBr PELLET)
Class: COBLENTZ
Instrument: Not specified, most likely a prism, grating, or hybrid spectrometer.
Sampling: TRANSMISSION
Resolution: 4
Origin: TENNESSEE EASTMAN COMPANY, RESEARCH LABORATORIES
MICROMETERS	TRANSMITTANCE
2.026	0.861
2.06572	0.861
2.10543	0.863
2.14515	0.863
2.18487	0.863
2.22459	0.866
2.2643	0.876
2.30402	0.881
2.34374	0.888
2.38346	0.89
2.42317	0.891
2.46289	0.896
2.50261	0.903
2.54232	0.913
2.58204	0.915
2.62176	0.913
2.66148	0.915
2.70119	0.911
2.74091	0.903
2.78063	0.863
2.82035	0.823
2.86006	0.785
2.89978	0.742
2.9395	0.688
2.97921	0.62
3.01893	0.504
3.05865	0.341
3.09837	0.199
3.13808	0.114
3.1778	0.076
3.21752	0.066
3.25724	0.076
3.29695	0.089
3.33667	0.106
3.37639	0.118
3.4161	0.146
3.45582	0.242
3.49554	0.319
3.53526	0.372
3.57497	0.356
3.61469	0.497
3.65441	0.572
3.69413	0.594
3.73384	0.584
3.77356	0.449
3.81328	0.42
3.85299	0.603
3.89271	0.662
3.93243	0.687
3.97215	0.597
4.01186	0.693
4.05158	0.803
4.0913	0.851
4.13102	0.875
4.17073	0.891
4.21045	0.92
4.25017	0.945
4.28988	0.931
4.3296	0.923
4.36932	0.928
4.40904	0.95
4.44875	0.951
4.48847	0.96
4.52819	0.956
4.56791	0.963
4.60762	0.97
4.64734	0.968
4.68706	0.97
4.72677	0.968
4.76649	0.953
4.80621	0.928
4.84593	0.925
4.88564	0.936
4.92536	0.94
4.96508	0.94
5.0048	0.94
5.04451	0.928
5.08423	0.93
5.12395	0.9
5.16366	0.915
5.20338	0.91
5.2431	0.9
5.28282	0.906
5.32253	0.901
5.36225	0.893
5.40197	0.875
5.44169	0.85
5.4814	0.85
5.52112	0.836
5.56084	0.826
5.60055	0.783
5.64027	0.737
5.67999	0.648
5.71971	0.494
5.75942	0.149
5.79914	0.028
5.83886	0.254
5.87857	0.467
5.91829	0.628
5.95801	0.643
5.99773	0.712
6.03744	0.75
6.07716	0.745
6.11688	0.755
6.1566	0.767
6.19631	0.773
6.23603	0.78
6.27575	0.595
6.31546	0.792
6.35518	0.722
6.3949	0.78
6.43462	0.795
6.47433	0.803
6.51405	0.79
6.55377	0.783
6.59349	0.775
6.6332	0.758
6.67292	0.745
6.71264	0.662
6.75235	0.592
6.79207	0.6
6.83179	0.618
6.87151	0.555
6.91122	0.464
6.95094	0.337
6.99066	0.314
7.03038	0.214
7.07009	0.081
7.10981	0.054
7.14953	0.058
7.18924	0.154
7.22896	0.329
7.26868	0.442
7.3084	0.557
7.34811	0.612
7.38783	0.66
7.42755	0.7
7.46727	0.72
7.50698	0.72
7.5467	0.718
7.58642	0.698
7.62613	0.675
7.66585	0.602
7.70557	0.364
7.74529	0.294
7.785	0.219
7.82472	0.068
7.86444	0.053
7.90416	0.163
7.94387	0.372
7.98359	0.437
8.02331	0.254
8.06302	0.038
8.10274	0.038
8.14246	0.144
8.18218	0.161
8.22189	0.103
8.26161	0.064
8.30133	0.094
8.34105	0.059
8.38076	0.036
8.42048	0.034
8.4602	0.036
8.49991	0.076
8.53963	0.207
8.57935	0.356
8.61907	0.444
8.65878	0.492
8.6985	0.414
8.73822	0.094
8.77794	0.139
8.81765	0.239
8.85737	0.449
8.89709	0.572
8.9368	0.67
8.97652	0.728
9.01624	0.753
9.05596	0.755
9.09567	0.763
9.13539	0.753
9.17511	0.595
9.21483	0.227
9.25454	0.121
9.29426	0.374
9.33398	0.613
9.37369	0.755
9.41341	0.806
9.45313	0.831
9.49285	0.838
9.53256	0.838
9.57228	0.762
9.612	0.539
9.65172	0.652
9.69143	0.663
9.73115	0.216
9.77087	0.069
9.81058	0.276
9.8503	0.67
9.89002	0.768
9.92974	0.821
9.96945	0.843
10.0092	0.851
10.0489	0.853
10.0886	0.856
10.1283	0.863
10.168	0.865
10.2078	0.868
10.2475	0.868
10.2872	0.868
10.3269	0.86
10.3666	0.846
10.4063	0.848
10.4461	0.851
10.4858	0.855
10.5255	0.858
10.5652	0.858
10.6049	0.858
10.6446	0.858
10.6844	0.858
10.7241	0.858
10.7638	0.851
10.8035	0.85
10.8432	0.85
10.883	0.838
10.9227	0.815
10.9624	0.797
11.0021	0.767
11.0418	0.718
11.0815	0.665
11.1213	0.603
11.161	0.52
11.2007	0.457
11.2404	0.392
11.2801	0.361
11.3198	0.357
11.3596	0.362
11.3993	0.394
11.439	0.442
11.4787	0.49
11.5184	0.53
11.5581	0.572
11.5979	0.605
11.6376	0.638
11.6773	0.658
11.717	0.678
11.7567	0.702
11.7964	0.725
11.8362	0.743
11.8759	0.762
11.9156	0.778
11.9553	0.79
11.995	0.805
12.0348	0.818
12.0745	0.828
12.1142	0.836
12.1539	0.843
12.1936	0.85
12.2333	0.856
12.2731	0.858
12.3128	0.858
12.3525	0.851
12.3922	0.806
12.4319	0.58
12.4716	0.366
12.5114	0.404
12.5511	0.434
12.5908	0.384
12.6305	0.525
12.6702	0.677
12.7099	0.752
12.7497	0.797
12.7894	0.816
12.8291	0.826
12.8688	0.83
12.9085	0.83
12.9482	0.803
12.988	0.702
13.0277	0.447
13.0674	0.277
13.1071	0.226
13.1468	0.449
13.1866	0.715
13.2263	0.823
13.266	0.858
13.3057	0.865
13.3454	0.865
13.3851	0.865
13.4249	0.86
13.4646	0.838
13.5043	0.763
13.544	0.617
13.5837	0.425
13.6234	0.366
13.6632	0.459
13.7029	0.632
13.7426	0.735
13.7823	0.783
13.822	0.79
13.8617	0.738
13.9015	0.554
13.9412	0.352
13.9809	0.267
14.0206	0.349
14.0603	0.53
14.1	0.675
14.1398	0.767
14.1795	0.821
14.2192	0.855
14.2589	0.88
14.2986	0.886
14.3384	0.891
14.3781	0.9
14.4178	0.903
14.4575	0.908
14.4972	0.91
14.5369	0.911
14.5767	0.911
14.6164	0.911
14.6561	0.911
14.6958	0.911
14.7355	0.911
14.7752	0.91
14.815	0.903
14.8547	0.89
14.8944	0.88
14.9341	0.861
14.9738	0.825
15.0135	0.801
15.0533	0.801
15.093	0.801
15.1327	0.793
15.1724	0.773
15.2121	0.73
15.2519	0.67
15.2916	0.577
15.3313	0.485
15.371	0.427
15.4107	0.397
15.4504	0.379
15.4902	0.379
15.5299	0.397
15.5696	0.442
15.6093	0.499
15.649	0.525
15.6887	0.537
15.7285	0.542
15.7682	0.544
15.8079	0.542
15.8476	0.52
15.8873	0.48
15.927	0.44
15.9668	0.404
