Infrared Spectrum: 1,2,4-TRIAZOLE, 3-AMINO-, PICRATE
Formula: C8 H7 N7 O7
State: SOLID (NUJOL MULL)
Class: COBLENTZ
Instrument: Not specified, most likely a prism, grating, or hybrid spectrometer.
Sampling: TRANSMISSION
Resolution: 4
Origin: TENNESSEE EASTMAN COMPANY, RESEARCH LABORATORIES
MICROMETERS	TRANSMITTANCE
2.041	0.536
2.08196	0.546
2.12291	0.565
2.16387	0.58
2.20482	0.591
2.24578	0.589
2.28674	0.589
2.32769	0.592
2.36865	0.608
2.4096	0.618
2.45056	0.632
2.49152	0.649
2.53247	0.662
2.57343	0.672
2.61438	0.683
2.65534	0.706
2.6963	0.727
2.73725	0.747
2.77821	0.77
2.81916	0.797
2.86012	0.812
2.90108	0.385
2.94203	0.609
2.98299	0.417
3.02394	0.529
3.0649	0.596
3.10586	0.63
3.14681	0.637
3.18777	0.601
3.22872	0.502
3.26968	0.49
3.31064	0.453
3.35159	0.115
3.39255	0.023
3.4335	0.01
3.47446	0.032
3.51542	0.218
3.55637	0.553
3.59733	0.604
3.63828	0.625
3.67924	0.623
3.7202	0.642
3.76115	0.655
3.80211	0.683
3.84306	0.706
3.88402	0.724
3.92498	0.756
3.96593	0.771
4.00689	0.783
4.04784	0.792
4.0888	0.8
4.12976	0.814
4.17071	0.816
4.21167	0.827
4.25262	0.851
4.29358	0.851
4.33454	0.853
4.37549	0.856
4.41645	0.862
4.4574	0.865
4.49836	0.872
4.53932	0.887
4.58027	0.896
4.62123	0.899
4.66218	0.911
4.70314	0.918
4.7441	0.919
4.78505	0.923
4.82601	0.931
4.86696	0.931
4.90792	0.936
4.94888	0.94
4.98983	0.948
5.03079	0.952
5.07174	0.954
5.1127	0.959
5.15366	0.964
5.19461	0.969
5.23557	0.971
5.27652	0.971
5.31748	0.971
5.35844	0.967
5.39939	0.967
5.44035	0.972
5.4813	0.977
5.52226	0.988
5.56322	0.989
5.60417	0.988
5.64513	0.988
5.68609	0.988
5.72704	0.974
5.768	0.933
5.80895	0.713
5.84991	0.502
5.89087	0.344
5.93182	0.638
5.97278	0.78
6.01373	0.8
6.05469	0.531
6.09565	0.32
6.1366	0.449
6.17756	0.495
6.21851	0.725
6.25947	0.657
6.30043	0.534
6.34138	0.575
6.38234	0.342
6.42329	0.362
6.46425	0.424
6.50521	0.628
6.54616	0.524
6.58712	0.308
6.62807	0.522
6.66903	0.49
6.70999	0.514
6.75094	0.453
6.7919	0.287
6.83285	0.247
6.87381	0.323
6.91477	0.442
6.95572	0.494
6.99668	0.584
7.03763	0.713
7.07859	0.778
7.11955	0.752
7.1605	0.751
7.20146	0.679
7.24241	0.422
7.28337	0.315
7.32433	0.277
7.36528	0.33
7.40624	0.291
7.44719	0.199
7.48815	0.144
7.52911	0.238
7.57006	0.41
7.61102	0.536
7.65197	0.611
7.69293	0.592
7.73389	0.589
7.77484	0.5
7.8158	0.361
7.85675	0.425
7.89771	0.499
7.93867	0.567
7.97962	0.424
8.02058	0.56
8.06153	0.647
8.10249	0.695
8.14345	0.739
8.1844	0.768
8.22536	0.778
8.26631	0.788
8.30727	0.8
8.34823	0.812
8.38918	0.821
8.43014	0.826
8.47109	0.822
8.51205	0.703
8.55301	0.599
8.59396	0.684
8.63492	0.764
8.67587	0.78
8.71683	0.805
8.75779	0.819
8.79874	0.827
8.8397	0.853
8.88065	0.856
8.92161	0.858
8.96257	0.86
9.00352	0.862
9.04448	0.862
9.08543	0.858
9.12639	0.822
9.16735	0.793
9.2083	0.744
9.24926	0.776
9.29021	0.78
9.33117	0.788
9.37213	0.798
9.41308	0.809
9.45404	0.802
9.49499	0.744
9.53595	0.783
9.57691	0.817
9.61786	0.827
9.65882	0.856
9.69977	0.858
9.74073	0.86
9.78169	0.86
9.82264	0.862
9.8636	0.867
9.90455	0.867
9.94551	0.867
9.98647	0.87
10.0274	0.87
10.0684	0.868
10.1093	0.87
10.1503	0.868
10.1912	0.868
10.2322	0.867
10.2732	0.863
10.3141	0.862
10.3551	0.863
10.396	0.863
10.437	0.853
10.4779	0.764
10.5189	0.589
10.5599	0.7
10.6008	0.729
10.6418	0.73
10.6827	0.8
10.7237	0.817
10.7646	0.81
10.8056	0.737
10.8465	0.727
10.8875	0.737
10.9285	0.788
10.9694	0.856
11.0104	0.872
11.0513	0.887
11.0923	0.899
11.1332	0.902
11.1742	0.906
11.2151	0.906
11.2561	0.908
11.2971	0.908
11.338	0.908
11.379	0.908
11.4199	0.908
11.4609	0.897
11.5018	0.87
11.5428	0.844
11.5838	0.724
11.6247	0.638
11.6657	0.78
11.7066	0.86
11.7476	0.887
11.7885	0.902
11.8295	0.906
11.8704	0.897
11.9114	0.879
11.9524	0.882
11.9933	0.884
12.0343	0.879
12.0752	0.848
12.1162	0.822
12.1571	0.778
12.1981	0.771
12.239	0.768
12.28	0.77
12.321	0.776
12.3619	0.793
12.4029	0.812
12.4438	0.839
12.4848	0.858
12.5257	0.862
12.5667	0.867
12.6077	0.86
12.6486	0.674
12.6896	0.517
12.7305	0.642
12.7715	0.792
12.8124	0.836
12.8534	0.86
12.8943	0.865
12.9353	0.867
12.9763	0.87
13.0172	0.879
13.0582	0.885
13.0991	0.887
13.1401	0.875
13.181	0.843
13.222	0.809
13.2629	0.807
13.3039	0.746
13.3449	0.691
13.3858	0.737
13.4268	0.8
13.4677	0.821
13.5087	0.822
13.5496	0.821
13.5906	0.804
13.6316	0.752
13.6725	0.688
13.7135	0.659
13.7544	0.679
13.7954	0.706
13.8363	0.706
13.8773	0.696
13.9182	0.672
13.9592	0.626
14.0002	0.597
14.0411	0.599
14.0821	0.599
14.123	0.579
14.164	0.587
14.2049	0.637
14.2459	0.693
14.2868	0.727
14.3278	0.749
14.3688	0.768
14.4097	0.78
14.4507	0.785
14.4916	0.787
14.5326	0.788
14.5735	0.788
14.6145	0.788
14.6555	0.788
14.6964	0.788
14.7374	0.788
14.7783	0.787
14.8193	0.783
14.8602	0.776
14.9012	0.771
14.9421	0.768
14.9831	0.763
15.0241	0.746
15.065	0.729
15.106	0.713
15.1469	0.705
15.1879	0.688
15.2288	0.679
15.2698	0.669
15.3107	0.667
15.3517	0.666
15.3927	0.664
15.4336	0.666
15.4746	0.667
15.5155	0.669
15.5565	0.676
15.5974	0.678
15.6384	0.679
15.6794	0.681
15.7203	0.684
15.7613	0.688
15.8022	0.688
15.8432	0.689
15.8841	0.693
15.9251	0.695
15.966	0.695
16.007	0.695
