Infrared Spectrum: Alpha-CHLOROETHANE SULFONIC ACID
Formula: C2 H4 Cl Na O3 S
State: SOLID (MINERAL OIL MULL)
Class: COBLENTZ
Instrument: Not specified, most likely a prism, grating, or hybrid spectrometer.
Sampling: TRANSMISSION
Resolution: 4
Origin: DOW CHEMICAL COMPANY
MICROMETERS	TRANSMITTANCE
2.048	0.731
2.08906	0.731
2.13011	0.736
2.17117	0.743
2.21222	0.736
2.25328	0.724
2.29433	0.717
2.33539	0.723
2.37644	0.733
2.4175	0.736
2.45856	0.747
2.49961	0.75
2.54067	0.752
2.58172	0.757
2.62278	0.764
2.66383	0.758
2.70489	0.758
2.74594	0.721
2.787	0.666
2.82806	0.605
2.86911	0.576
2.91017	0.581
2.95122	0.6
2.99228	0.625
3.03333	0.673
3.07439	0.699
3.11544	0.712
3.1565	0.719
3.19755	0.721
3.23861	0.712
3.27967	0.68
3.32072	0.492
3.36178	0.167
3.40283	0.049
3.44389	0.105
3.48494	0.16
3.526	0.523
3.56705	0.735
3.60811	0.774
3.64917	0.774
3.69022	0.784
3.73128	0.782
3.77233	0.8
3.81339	0.81
3.85444	0.82
3.8955	0.827
3.93655	0.83
3.97761	0.834
4.01867	0.832
4.05972	0.829
4.10078	0.841
4.14183	0.849
4.18289	0.841
4.22394	0.841
4.265	0.849
4.30605	0.859
4.34711	0.847
4.38817	0.842
4.42922	0.849
4.47028	0.859
4.51133	0.87
4.55239	0.873
4.59344	0.873
4.6345	0.875
4.67555	0.871
4.71661	0.88
4.75767	0.876
4.79872	0.882
4.83978	0.88
4.88083	0.882
4.92189	0.885
4.96294	0.887
5.004	0.888
5.04505	0.894
5.08611	0.892
5.12717	0.895
5.16822	0.897
5.20928	0.899
5.25033	0.9
5.29139	0.9
5.33244	0.9
5.3735	0.905
5.41455	0.904
5.45561	0.904
5.49666	0.902
5.53772	0.9
5.57878	0.902
5.61983	0.905
5.66089	0.904
5.70194	0.895
5.743	0.894
5.78405	0.894
5.82511	0.89
5.86616	0.882
5.90722	0.873
5.94828	0.859
5.98933	0.832
6.03039	0.822
6.07144	0.841
6.1125	0.842
6.15355	0.851
6.19461	0.87
6.23566	0.87
6.27672	0.873
6.31778	0.873
6.35883	0.873
6.39989	0.875
6.44094	0.873
6.482	0.88
6.52305	0.87
6.56411	0.87
6.60516	0.866
6.64622	0.851
6.68728	0.815
6.72833	0.731
6.76939	0.536
6.81044	0.329
6.8515	0.287
6.89255	0.345
6.93361	0.605
6.97466	0.741
7.01572	0.757
7.05678	0.764
7.09783	0.76
7.13889	0.75
7.17994	0.652
7.221	0.459
7.26205	0.452
7.30311	0.605
7.34416	0.68
7.38522	0.682
7.42627	0.671
7.46733	0.67
7.50839	0.652
7.54944	0.629
7.5905	0.593
7.63155	0.538
7.67261	0.48
7.71366	0.449
7.75472	0.382
7.79577	0.29
7.83683	0.217
7.87789	0.254
7.91894	0.157
7.96	0.09
8.00105	0.15
8.04211	0.169
8.08316	0.095
8.12422	0.052
8.16527	0.041
8.20633	0.046
8.24739	0.046
8.28844	0.034
8.3295	0.041
8.37055	0.071
8.41161	0.107
8.45266	0.148
8.49372	0.223
8.53477	0.304
8.57583	0.382
8.61689	0.446
8.65794	0.483
8.699	0.524
8.74005	0.545
8.78111	0.552
8.82216	0.567
8.86322	0.579
8.90427	0.591
8.94533	0.6
8.98639	0.611
9.02744	0.651
9.0685	0.661
9.10955	0.601
9.15061	0.482
9.19166	0.471
9.23272	0.589
9.27377	0.543
9.31483	0.36
9.35588	0.338
9.39694	0.482
9.438	0.485
9.47905	0.321
9.52011	0.14
9.56116	0.107
9.60222	0.123
9.64327	0.242
9.68433	0.442
9.72538	0.536
9.76644	0.579
9.8075	0.629
9.84855	0.687
9.88961	0.736
9.93066	0.764
9.97172	0.77
10.0128	0.772
10.0538	0.772
10.0949	0.758
10.1359	0.719
10.177	0.682
10.2181	0.695
10.2591	0.757
10.3002	0.801
10.3412	0.829
10.3823	0.839
10.4233	0.851
10.4644	0.854
10.5054	0.861
10.5465	0.863
10.5876	0.866
10.6286	0.868
10.6697	0.861
10.7107	0.864
10.7518	0.866
10.7928	0.87
10.8339	0.868
10.8749	0.863
10.916	0.859
10.9571	0.851
10.9981	0.847
11.0392	0.846
11.0802	0.847
11.1213	0.847
11.1623	0.847
11.2034	0.866
11.2444	0.875
11.2855	0.88
11.3266	0.883
11.3676	0.887
11.4087	0.887
11.4497	0.887
11.4908	0.887
11.5318	0.887
11.5729	0.887
11.6139	0.887
11.655	0.887
11.6961	0.887
11.7371	0.882
11.7782	0.878
11.8192	0.878
11.8603	0.878
11.9013	0.878
11.9424	0.878
11.9834	0.876
12.0245	0.878
12.0656	0.876
12.1066	0.876
12.1477	0.876
12.1887	0.87
12.2298	0.87
12.2708	0.868
12.3119	0.866
12.3529	0.861
12.394	0.861
12.435	0.858
12.4761	0.849
12.5172	0.847
12.5582	0.841
12.5993	0.839
12.6403	0.834
12.6814	0.827
12.7224	0.822
12.7635	0.813
12.8045	0.801
12.8456	0.788
12.8867	0.764
12.9277	0.729
12.9688	0.663
13.0098	0.562
13.0509	0.441
13.0919	0.35
13.133	0.376
13.174	0.485
13.2151	0.586
13.2562	0.642
13.2972	0.676
13.3383	0.678
13.3793	0.675
13.4204	0.671
13.4614	0.666
13.5025	0.651
13.5435	0.641
13.5846	0.652
13.6257	0.68
13.6667	0.692
13.7078	0.699
13.7488	0.697
13.7899	0.692
13.8309	0.69
13.872	0.694
13.913	0.699
13.9541	0.702
13.9952	0.702
14.0362	0.697
14.0773	0.688
14.1183	0.678
14.1594	0.668
14.2004	0.649
14.2415	0.625
14.2825	0.589
14.3236	0.55
14.3647	0.488
14.4057	0.418
14.4468	0.321
14.4878	0.235
14.5289	0.167
14.5699	0.129
14.611	0.123
14.652	0.15
14.6931	0.215
14.7342	0.297
14.7752	0.365
14.8163	0.415
14.8573	0.439
14.8984	0.454
14.9394	0.47
14.9805	0.487
15.0215	0.495
15.0626	0.495
15.1037	0.488
15.1447	0.483
15.1858	0.482
15.2268	0.478
15.2679	0.47
15.3089	0.463
15.35	0.454
15.391	0.451
15.4321	0.441
15.4732	0.43
15.5142	0.42
15.5553	0.41
15.5963	0.403
15.6374	0.393
15.6784	0.382
15.7195	0.376
15.7605	0.369
15.8016	0.364
15.8427	0.357
15.8837	0.36
