Infrared Spectrum: 7-(2-DIMETHYLAMINOETHYL)BENZO(c)PHENOTHIAZINE, HYDROCHLORIDE
Formula: C20 H21 Cl N2 S
State: SOLID (OIL MULL)
Class: COBLENTZ III
Instrument: Not specified, most likely a prism spectrometer.
Instrument parameters: NaCl PRISM
Sampling: TRANSMISSION
Resolution: 2
Origin: SMITH KLINE & FRENCH LABS.
MICROMETERS	TRANSMITTANCE
2.018	0.191
2.05171	0.195
2.08541	0.199
2.11912	0.208
2.15283	0.218
2.18653	0.233
2.22024	0.252
2.25395	0.262
2.28766	0.261
2.32136	0.261
2.35507	0.273
2.38878	0.276
2.42248	0.286
2.45619	0.29
2.4899	0.292
2.5236	0.297
2.55731	0.304
2.59102	0.312
2.62472	0.326
2.65843	0.332
2.69214	0.336
2.72585	0.344
2.75955	0.345
2.79326	0.346
2.82697	0.354
2.86067	0.356
2.89438	0.352
2.92809	0.352
2.96179	0.352
2.9955	0.357
3.02921	0.363
3.06291	0.368
3.09662	0.376
3.13033	0.382
3.16403	0.383
3.19774	0.376
3.23145	0.384
3.26516	0.363
3.29886	0.322
3.33257	0.269
3.36628	0.145
3.39998	0.029
3.43369	0.023
3.4674	0.027
3.5011	0.028
3.53481	0.044
3.56852	0.351
3.60222	0.458
3.63593	0.492
3.66964	0.5
3.70335	0.488
3.73705	0.472
3.77076	0.44
3.80447	0.43
3.83817	0.422
3.87188	0.392
3.90559	0.321
3.93929	0.32
3.973	0.359
4.00671	0.363
4.04041	0.336
4.07412	0.274
4.10783	0.26
4.14154	0.262
4.17524	0.272
4.20895	0.274
4.24266	0.285
4.27636	0.297
4.31007	0.314
4.34378	0.344
4.37748	0.38
4.41119	0.419
4.4449	0.435
4.4786	0.453
4.51231	0.478
4.54602	0.492
4.57973	0.513
4.61343	0.523
4.64714	0.533
4.68085	0.54
4.71455	0.547
4.74826	0.558
4.78197	0.567
4.81567	0.575
4.84938	0.581
4.88309	0.589
4.91679	0.592
4.9505	0.6
4.98421	0.607
5.01791	0.613
5.05162	0.618
5.08533	0.622
5.11904	0.617
5.15274	0.621
5.18645	0.625
5.22016	0.629
5.25386	0.63
5.28757	0.639
5.32128	0.643
5.35498	0.646
5.38869	0.648
5.4224	0.654
5.4561	0.654
5.48981	0.657
5.52352	0.663
5.55723	0.665
5.59093	0.667
5.62464	0.673
5.65835	0.679
5.69205	0.683
5.72576	0.687
5.75947	0.69
5.79317	0.69
5.82688	0.69
5.86059	0.69
5.89429	0.693
5.928	0.695
5.96171	0.695
5.99542	0.696
6.02912	0.7
6.06283	0.713
6.09654	0.718
6.13024	0.718
6.16395	0.508
6.19766	0.573
6.23136	0.653
6.26507	0.564
6.29878	0.633
6.33248	0.604
6.36619	0.559
6.3999	0.63
6.43361	0.643
6.46731	0.681
6.50102	0.699
6.53473	0.712
6.56843	0.717
6.60214	0.7
6.63585	0.503
6.66955	0.436
6.70326	0.529
6.73697	0.411
6.77067	0.193
6.80438	0.163
6.83809	0.082
6.87179	0.055
6.9055	0.069
6.93921	0.146
6.97292	0.336
7.00662	0.414
7.04033	0.49
7.07404	0.557
7.10774	0.564
7.14145	0.569
7.17516	0.575
7.20886	0.498
7.24257	0.324
7.27628	0.218
7.30998	0.282
7.34369	0.3
7.3774	0.345
7.41111	0.345
7.44481	0.333
7.47852	0.377
7.51223	0.497
7.54593	0.52
7.57964	0.513
7.61335	0.507
7.64705	0.511
7.68076	0.535
7.71447	0.551
7.74817	0.491
7.78188	0.516
7.81559	0.573
7.8493	0.557
7.883	0.519
7.91671	0.448
7.95042	0.323
7.98412	0.408
8.01783	0.348
8.05154	0.315
8.08524	0.34
8.11895	0.412
8.15266	0.466
8.18636	0.556
8.22007	0.588
8.25378	0.6
8.28749	0.633
8.32119	0.654
8.3549	0.673
8.38861	0.687
8.42231	0.687
8.45602	0.669
8.48973	0.597
8.52343	0.581
8.55714	0.592
8.59085	0.571
8.62455	0.54
8.65826	0.558
8.69197	0.562
8.72567	0.598
8.75938	0.66
8.79309	0.676
8.8268	0.663
8.8605	0.675
8.89421	0.7
8.92792	0.688
8.96162	0.625
8.99533	0.633
9.02904	0.673
9.06274	0.719
9.09645	0.729
9.13016	0.735
9.16386	0.733
9.19757	0.735
9.23128	0.735
9.26499	0.724
9.29869	0.714
9.3324	0.73
9.36611	0.733
9.39981	0.736
9.43352	0.737
9.46723	0.736
9.50093	0.73
9.53464	0.724
9.56835	0.718
9.60205	0.72
9.63576	0.688
9.66947	0.651
9.70318	0.645
9.73688	0.617
9.77059	0.609
9.8043	0.643
9.838	0.655
9.87171	0.655
9.90542	0.681
9.93912	0.688
9.97283	0.709
10.0065	0.73
10.0402	0.725
10.074	0.718
10.1077	0.707
10.1414	0.706
10.1751	0.724
10.2088	0.72
10.2425	0.682
10.2762	0.631
10.3099	0.643
10.3436	0.664
10.3773	0.676
10.411	0.684
10.4447	0.691
10.4784	0.685
10.5121	0.706
10.5458	0.731
10.5796	0.737
10.6133	0.737
10.647	0.736
10.6807	0.719
10.7144	0.666
10.7481	0.622
10.7818	0.592
10.8155	0.643
10.8492	0.683
10.8829	0.731
10.9166	0.748
10.9503	0.751
10.984	0.756
11.0177	0.77
11.0515	0.781
11.0852	0.781
11.1189	0.76
11.1526	0.713
11.1863	0.711
11.22	0.744
11.2537	0.776
11.2874	0.788
11.3211	0.803
11.3548	0.814
11.3885	0.818
11.4222	0.823
11.4559	0.829
11.4896	0.829
11.5233	0.827
11.5571	0.782
11.5908	0.715
11.6245	0.719
11.6582	0.717
11.6919	0.742
11.7256	0.773
11.7593	0.791
11.793	0.815
11.8267	0.82
11.8604	0.826
11.8941	0.835
11.9278	0.838
11.9615	0.839
11.9952	0.84
12.029	0.834
12.0627	0.828
12.0964	0.816
12.1301	0.794
12.1638	0.751
12.1975	0.73
12.2312	0.741
12.2649	0.719
12.2986	0.615
12.3323	0.553
12.366	0.425
12.3997	0.404
12.4334	0.405
12.4671	0.36
12.5008	0.359
12.5346	0.428
12.5683	0.611
12.602	0.697
12.6357	0.742
12.6694	0.764
12.7031	0.785
12.7368	0.793
12.7705	0.8
12.8042	0.805
12.8379	0.8
12.8716	0.79
12.9053	0.776
12.939	0.72
12.9727	0.567
13.0065	0.591
13.0402	0.701
13.0739	0.72
13.1076	0.705
13.1413	0.652
13.175	0.601
13.2087	0.564
13.2424	0.496
13.2761	0.464
13.3098	0.495
13.3435	0.484
13.3772	0.416
13.4109	0.297
13.4446	0.29
13.4783	0.268
13.5121	0.217
13.5458	0.333
13.5795	0.449
13.6132	0.553
13.6469	0.563
13.6806	0.597
13.7143	0.649
13.748	0.666
13.7817	0.685
13.8154	0.69
13.8491	0.693
13.8828	0.694
13.9165	0.7
13.9502	0.711
13.984	0.726
14.0177	0.73
14.0514	0.727
14.0851	0.721
14.1188	0.73
14.1525	0.736
14.1862	0.741
14.2199	0.744
14.2536	0.745
14.2873	0.748
14.321	0.749
14.3547	0.749
14.3884	0.747
14.4221	0.744
14.4558	0.742
14.4896	0.738
14.5233	0.735
14.557	0.73
14.5907	0.726
14.6244	0.712
14.6581	0.693
14.6918	0.665
14.7255	0.664
14.7592	0.658
14.7929	0.624
14.8266	0.616
14.8603	0.646
14.894	0.664
14.9277	0.67
14.9615	0.657
14.9952	0.63
15.0289	0.598
15.0626	0.61
15.0963	0.599
15.13	0.589
15.1637	0.601
15.1974	0.622
15.2311	0.613
