Infrared Spectrum: 3,6-DISODIUM SULFONATE, 1,8-DIHYDROXY NAPHTHALENE
Formula: C10 H6 O8 S2 Na2
State: SOLID (MINERAL OIL MULL)
Class: COBLENTZ
Instrument: Not specified, most likely a prism, grating, or hybrid spectrometer.
Sampling: TRANSMISSION
Resolution: 4
Origin: WYANDOTTE CHEMICALS CORP., WYANDOTTE, MICHIGAN, USA
MICROMETERS	TRANSMITTANCE
2.014	0.439
2.05484	0.449
2.09567	0.461
2.13651	0.468
2.17734	0.48
2.21818	0.478
2.25901	0.48
2.29985	0.494
2.34068	0.502
2.38152	0.516
2.42235	0.538
2.46319	0.551
2.50402	0.577
2.54486	0.599
2.58569	0.614
2.62653	0.635
2.66736	0.667
2.7082	0.695
2.74903	0.688
2.78987	0.579
2.8307	0.342
2.87154	0.434
2.91237	0.347
2.95321	0.183
2.99404	0.214
3.03488	0.274
3.07571	0.286
3.11655	0.318
3.15738	0.284
3.19822	0.221
3.23905	0.17
3.27989	0.19
3.32072	0.161
3.36156	0.045
3.40239	0.022
3.44323	0.022
3.48406	0.032
3.5249	0.049
3.56573	0.34
3.60657	0.446
3.6474	0.478
3.68824	0.449
3.72907	0.47
3.76991	0.5
3.81074	0.528
3.85158	0.54
3.89241	0.558
3.93325	0.574
3.97409	0.587
4.01492	0.597
4.05576	0.616
4.09659	0.626
4.13743	0.638
4.17826	0.652
4.2191	0.662
4.25993	0.667
4.30077	0.678
4.3416	0.689
4.38244	0.706
4.42327	0.713
4.46411	0.724
4.50494	0.73
4.54578	0.73
4.58661	0.739
4.62745	0.744
4.66828	0.744
4.70912	0.747
4.74995	0.773
4.79079	0.783
4.83162	0.795
4.87246	0.804
4.91329	0.81
4.95413	0.824
4.99496	0.822
5.0358	0.833
5.07663	0.836
5.11747	0.85
5.1583	0.862
5.19914	0.865
5.23997	0.873
5.28081	0.875
5.32164	0.885
5.36248	0.889
5.40331	0.896
5.44415	0.908
5.48498	0.913
5.52582	0.913
5.56665	0.914
5.60749	0.918
5.64832	0.908
5.68916	0.911
5.72999	0.908
5.77083	0.896
5.81166	0.897
5.8525	0.875
5.89333	0.836
5.93417	0.706
5.97501	0.374
6.01584	0.429
6.05668	0.735
6.09751	0.746
6.13835	0.577
6.17918	0.224
6.22002	0.466
6.26085	0.621
6.30169	0.674
6.34252	0.749
6.38336	0.795
6.42419	0.812
6.46503	0.819
6.50586	0.761
6.5467	0.649
6.58753	0.749
6.62837	0.783
6.6692	0.746
6.71004	0.649
6.75087	0.417
6.79171	0.132
6.83254	0.127
6.87338	0.218
6.91421	0.342
6.95505	0.492
6.99588	0.524
7.03672	0.477
7.07755	0.507
7.11839	0.591
7.15922	0.432
7.20006	0.211
7.24089	0.088
7.28173	0.117
7.32256	0.265
7.3634	0.413
7.40423	0.509
7.44507	0.5
7.4859	0.408
7.52674	0.27
7.56757	0.235
7.60841	0.299
7.64924	0.4
7.69008	0.475
7.73091	0.41
7.77175	0.388
7.81258	0.453
7.85342	0.453
7.89426	0.422
7.93509	0.41
7.97593	0.354
8.01676	0.272
8.0576	0.206
8.09843	0.144
8.13927	0.1
8.1801	0.078
8.22094	0.073
8.26177	0.073
8.30261	0.081
8.34344	0.103
8.38428	0.09
8.42511	0.076
8.46595	0.068
8.50678	0.076
8.54762	0.08
8.58845	0.076
8.62929	0.078
8.67012	0.109
8.71096	0.143
8.75179	0.182
8.79263	0.223
8.83346	0.306
8.8743	0.388
8.91513	0.459
8.95597	0.454
8.9968	0.471
9.03764	0.584
9.07847	0.637
9.11931	0.654
9.16014	0.608
9.20098	0.381
9.24181	0.209
9.28265	0.405
9.32348	0.356
9.36432	0.166
9.40515	0.103
9.44599	0.109
9.48682	0.182
9.52766	0.366
9.56849	0.32
9.60933	0.109
9.65016	0.071
9.691	0.076
9.73183	0.137
9.77267	0.207
9.81351	0.269
9.85434	0.315
9.89518	0.361
9.93601	0.405
9.97685	0.441
10.0177	0.471
10.0585	0.502
10.0994	0.526
10.1402	0.543
10.181	0.558
10.2219	0.57
10.2627	0.58
10.3035	0.596
10.3444	0.608
10.3852	0.623
10.426	0.635
10.4669	0.652
10.5077	0.655
10.5485	0.667
10.5894	0.678
10.6302	0.689
10.671	0.695
10.7119	0.701
10.7527	0.708
10.7935	0.718
10.8344	0.73
10.8752	0.73
10.9161	0.698
10.9569	0.594
10.9977	0.604
11.0386	0.568
11.0794	0.645
11.1202	0.683
11.1611	0.688
11.2019	0.672
11.2427	0.611
11.2836	0.439
11.3244	0.32
11.3652	0.664
11.4061	0.729
11.4469	0.674
11.4877	0.495
11.5286	0.236
11.5694	0.374
11.6102	0.611
11.6511	0.71
11.6919	0.751
11.7328	0.78
11.7736	0.785
11.8144	0.792
11.8553	0.8
11.8961	0.798
11.9369	0.773
11.9778	0.689
12.0186	0.589
12.0594	0.713
12.1003	0.783
12.1411	0.805
12.1819	0.824
12.2228	0.831
12.2636	0.831
12.3044	0.833
12.3453	0.839
12.3861	0.838
12.427	0.841
12.4678	0.841
12.5086	0.836
12.5495	0.833
12.5903	0.831
12.6311	0.821
12.672	0.814
12.7128	0.793
12.7536	0.752
12.7945	0.63
12.8353	0.473
12.8761	0.632
12.917	0.751
12.9578	0.788
12.9986	0.788
13.0395	0.792
13.0803	0.802
13.1211	0.804
13.162	0.8
13.2028	0.792
13.2437	0.785
13.2845	0.775
13.3253	0.768
13.3662	0.756
13.407	0.746
13.4478	0.724
13.4887	0.705
13.5295	0.688
13.5703	0.678
13.6112	0.664
13.652	0.654
13.6928	0.638
13.7337	0.62
13.7745	0.597
13.8153	0.577
13.8562	0.55
13.897	0.536
13.9379	0.531
13.9787	0.538
14.0195	0.562
14.0604	0.582
14.1012	0.592
14.142	0.591
14.1829	0.586
14.2237	0.568
14.2645	0.548
14.3054	0.516
14.3462	0.482
14.387	0.441
14.4279	0.395
14.4687	0.352
14.5095	0.321
14.5504	0.298
14.5912	0.277
14.632	0.272
14.6729	0.274
14.7137	0.274
14.7546	0.284
14.7954	0.289
14.8362	0.293
14.8771	0.299
14.9179	0.304
14.9587	0.315
14.9996	0.328
15.0404	0.332
15.0812	0.332
15.1221	0.327
15.1629	0.32
15.2037	0.318
15.2446	0.316
15.2854	0.311
15.3262	0.311
15.3671	0.316
15.4079	0.321
15.4487	0.325
15.4896	0.33
15.5304	0.335
15.5713	0.344
15.6121	0.354
15.6529	0.366
15.6938	0.378
15.7346	0.378
15.7754	0.379
15.8163	0.378
15.8571	0.376
15.8979	0.369
15.9388	0.367
