Infrared Spectrum: 1-PROPANETHIOL, 2-[(3-AMINOPROPYL)AMINO]-, DIHYDROCHLORIDE
Formula: C6 H18 Cl2 N2 S
State: SOLID (1 mg / 650 mg KBr DISC)
Class: COBLENTZ III
Instrument: PERKIN-ELMER 521 (GRATING)
Instrument parameters: FILTER CHANGE AT 3150, 2500, 2000, 1150, 700, 410 CM^-^1, GRATING CHANGES AT 2000, 630 CM^-^1
Sampling: TRANSMISSION
Resolution: 4
Origin: SOUTHERN RESEARCH INSTITUTE
1/CM	TRANSMITTANCE
246.946	0.229
255.974	0.258
265.002	0.295
274.03	0.343
283.059	0.386
292.087	0.404
301.115	0.425
310.143	0.462
319.171	0.506
328.199	0.549
337.228	0.577
346.256	0.602
355.284	0.614
364.312	0.614
373.34	0.589
382.368	0.501
391.396	0.528
400.425	0.612
409.453	0.666
418.481	0.607
427.509	0.674
436.537	0.726
445.565	0.741
454.594	0.721
463.622	0.718
472.65	0.754
481.678	0.752
490.706	0.7
499.734	0.691
508.762	0.733
517.791	0.761
526.819	0.784
535.847	0.743
544.875	0.748
553.903	0.786
562.931	0.789
571.96	0.791
580.988	0.792
590.016	0.793
599.044	0.794
608.072	0.791
617.1	0.786
626.128	0.785
635.157	0.786
644.185	0.786
653.213	0.785
662.241	0.783
671.269	0.781
680.297	0.78
689.326	0.776
698.354	0.772
707.382	0.763
716.41	0.745
725.438	0.704
734.466	0.645
743.494	0.57
752.523	0.466
761.551	0.526
770.579	0.731
779.607	0.787
788.635	0.764
797.663	0.743
806.692	0.745
815.72	0.746
824.748	0.764
833.776	0.773
842.804	0.762
851.832	0.734
860.86	0.714
869.889	0.712
878.917	0.677
887.945	0.639
896.973	0.629
906.001	0.704
915.029	0.728
924.058	0.693
933.086	0.706
942.114	0.681
951.142	0.602
960.17	0.509
969.198	0.643
978.226	0.645
987.255	0.44
996.283	0.485
1005.31	0.587
1014.34	0.64
1023.37	0.712
1032.4	0.64
1041.42	0.666
1050.45	0.592
1059.48	0.531
1068.51	0.531
1077.54	0.619
1086.56	0.671
1095.59	0.65
1104.62	0.709
1113.65	0.675
1122.68	0.537
1131.71	0.446
1140.73	0.552
1149.76	0.522
1158.79	0.619
1167.82	0.587
1176.85	0.498
1185.87	0.569
1194.9	0.731
1203.93	0.722
1212.96	0.686
1221.99	0.654
1231.01	0.707
1240.04	0.701
1249.07	0.697
1258.1	0.695
1267.13	0.678
1276.16	0.662
1285.18	0.667
1294.21	0.583
1303.24	0.665
1312.27	0.634
1321.3	0.642
1330.32	0.591
1339.35	0.561
1348.38	0.592
1357.41	0.628
1366.44	0.64
1375.47	0.591
1384.49	0.475
1393.52	0.378
1402.55	0.525
1411.58	0.434
1420.61	0.519
1429.63	0.532
1438.66	0.456
1447.69	0.372
1456.72	0.28
1465.75	0.192
1474.77	0.291
1483.8	0.324
1492.83	0.321
1501.86	0.368
1510.89	0.406
1519.92	0.493
1528.94	0.543
1537.97	0.534
1547	0.486
1556.03	0.394
1565.06	0.299
1574.08	0.271
1583.11	0.335
1592.14	0.391
1601.17	0.442
1610.2	0.492
1619.23	0.558
1628.25	0.636
1637.28	0.681
1646.31	0.713
1655.34	0.739
1664.37	0.757
1673.39	0.769
1682.42	0.775
1691.45	0.779
1700.48	0.78
1709.51	0.784
1718.54	0.788
1727.56	0.789
1736.59	0.794
1745.62	0.797
1754.65	0.798
1763.68	0.795
1772.7	0.791
1781.73	0.785
1790.76	0.78
1799.79	0.775
1808.82	0.77
1817.84	0.762
1826.87	0.759
1835.9	0.755
1844.93	0.75
1853.96	0.746
1862.99	0.744
1872.01	0.735
1881.04	0.729
1890.07	0.723
1899.1	0.717
1908.13	0.71
1917.15	0.703
1926.18	0.696
1935.21	0.689
1944.24	0.683
1953.27	0.677
1962.3	0.677
1971.32	0.68
1980.35	0.688
1989.38	0.69
1998.41	0.697
2007.44	0.705
2016.46	0.707
2025.49	0.712
2034.52	0.716
2043.55	0.72
2052.58	0.724
2061.6	0.727
2070.63	0.73
2079.66	0.733
2088.69	0.736
2097.72	0.735
2106.75	0.731
2115.77	0.728
2124.8	0.726
2133.83	0.722
2142.86	0.719
2151.89	0.715
2160.91	0.71
2169.94	0.706
2178.97	0.7
2188	0.692
2197.03	0.684
2206.06	0.677
2215.08	0.671
2224.11	0.666
2233.14	0.659
2242.17	0.656
2251.2	0.648
2260.22	0.638
2269.25	0.627
2278.28	0.614
2287.31	0.598
2296.34	0.583
2305.37	0.569
2314.39	0.555
2323.42	0.543
2332.45	0.535
2341.48	0.528
2350.51	0.517
2359.53	0.503
2368.56	0.486
2377.59	0.469
2386.62	0.451
2395.65	0.439
2404.67	0.435
2413.7	0.434
2422.73	0.43
2431.76	0.416
2440.79	0.394
2449.82	0.369
2458.84	0.35
2467.87	0.336
2476.9	0.329
2485.93	0.321
2494.96	0.31
2503.98	0.306
2513.01	0.311
2522.04	0.327
2531.07	0.338
2540.1	0.356
2549.13	0.36
2558.15	0.35
2567.18	0.341
2576.21	0.332
2585.24	0.32
2594.27	0.308
2603.29	0.295
2612.32	0.289
2621.35	0.286
2630.38	0.283
2639.41	0.273
2648.44	0.256
2657.46	0.236
2666.49	0.216
2675.52	0.201
2684.55	0.197
2693.58	0.191
2702.6	0.176
2711.63	0.17
2720.66	0.161
2729.69	0.15
2738.72	0.142
2747.74	0.14
2756.77	0.139
2765.8	0.137
2774.83	0.134
2783.86	0.125
2792.89	0.125
2801.91	0.132
2810.94	0.135
2819.97	0.133
2829	0.131
2838.03	0.129
2847.05	0.125
2856.08	0.122
2865.11	0.12
2874.14	0.117
2883.17	0.115
2892.2	0.112
2901.22	0.105
2910.25	0.092
2919.28	0.086
2928.31	0.078
2937.34	0.073
2946.36	0.07
2955.39	0.069
2964.42	0.068
2973.45	0.069
2982.48	0.07
2991.5	0.072
3000.53	0.074
3009.56	0.077
3018.59	0.079
3027.62	0.084
3036.65	0.088
3045.67	0.096
3054.7	0.102
3063.73	0.112
3072.76	0.122
3081.79	0.131
3090.81	0.142
3099.84	0.149
3108.87	0.168
3117.9	0.181
3126.93	0.193
3135.96	0.214
3144.98	0.234
3154.01	0.251
3163.04	0.27
3172.07	0.293
3181.1	0.311
3190.12	0.344
3199.15	0.371
3208.18	0.394
3217.21	0.416
3226.24	0.448
3235.27	0.48
3244.29	0.51
3253.32	0.539
3262.35	0.561
3271.38	0.586
3280.41	0.607
3289.43	0.626
3298.46	0.639
3307.49	0.647
3316.52	0.657
3325.55	0.661
3334.57	0.664
3343.6	0.662
3352.63	0.658
3361.66	0.653
3370.69	0.645
3379.72	0.638
3388.74	0.628
3397.77	0.619
3406.8	0.614
3415.83	0.612
3424.86	0.611
3433.88	0.611
3442.91	0.612
3451.94	0.614
3460.97	0.618
3470	0.626
3479.03	0.638
3488.05	0.645
3497.08	0.656
3506.11	0.666
3515.14	0.675
3524.17	0.688
3533.19	0.697
3542.22	0.71
3551.25	0.721
3560.28	0.735
3569.31	0.745
3578.33	0.758
3587.36	0.769
3596.39	0.787
3605.42	0.797
3614.45	0.806
3623.48	0.822
3632.5	0.833
3641.53	0.844
3650.56	0.85
3659.59	0.854
3668.62	0.853
3677.64	0.852
3686.67	0.853
3695.7	0.856
3704.73	0.859
3713.76	0.86
3722.79	0.859
3731.81	0.858
3740.84	0.857
3749.87	0.857
3758.9	0.858
3767.93	0.859
3776.95	0.859
3785.98	0.858
3795.01	0.857
3804.04	0.856
