Infrared Spectrum: ACETAMIDE, N-[2-[1,1-DIMETHYLETHYL)-4-METHYLPHENYL]
Formula: C13 H19 N O
State: SOLID (NUJOL MULL)
Class: COBLENTZ III
Instrument: BECKMAN IR-4 (HYBRID PRISM-GRATING)
Instrument parameters: NaCl PRISM
Sampling: TRANSMISSION
Resolution: 2
Origin: MONSANTO (J. FREEMAN)
MICROMETERS	TRANSMITTANCE
0.971	0.634
1.0134	0.64
1.0558	0.652
1.0982	0.669
1.1406	0.681
1.18301	0.693
1.22541	0.705
1.26781	0.711
1.31021	0.724
1.35261	0.734
1.39501	0.745
1.43741	0.753
1.47981	0.762
1.52221	0.766
1.56462	0.769
1.60702	0.78
1.64942	0.788
1.69182	0.798
1.73422	0.804
1.77662	0.81
1.81902	0.816
1.86142	0.82
1.90382	0.825
1.94623	0.829
1.98863	0.834
2.03103	0.837
2.07343	0.841
2.11583	0.844
2.15823	0.844
2.20063	0.843
2.24303	0.824
2.28544	0.825
2.32784	0.831
2.37024	0.836
2.41264	0.846
2.45504	0.853
2.49744	0.856
2.53984	0.867
2.58224	0.87
2.62464	0.873
2.66705	0.876
2.70945	0.877
2.75185	0.876
2.79425	0.873
2.83665	0.87
2.87905	0.866
2.92145	0.854
2.96385	0.826
3.00625	0.61
3.04866	0.143
3.09106	0.525
3.13346	0.7
3.17586	0.789
3.21826	0.808
3.26066	0.763
3.30306	0.564
3.34546	0.195
3.38786	0.03
3.43027	0.06
3.47267	0.125
3.51507	0.519
3.55747	0.766
3.59987	0.84
3.64227	0.865
3.68467	0.871
3.72707	0.876
3.76948	0.881
3.81188	0.887
3.85428	0.894
3.89668	0.9
3.93908	0.907
3.98148	0.913
4.02388	0.918
4.06628	0.921
4.10868	0.925
4.15109	0.93
4.19349	0.93
4.23589	0.929
4.27829	0.933
4.32069	0.935
4.36309	0.936
4.40549	0.938
4.44789	0.941
4.49029	0.941
4.5327	0.941
4.5751	0.941
4.6175	0.944
4.6599	0.944
4.7023	0.948
4.7447	0.951
4.7871	0.951
4.8295	0.951
4.8719	0.951
4.91431	0.953
4.95671	0.951
4.99911	0.951
5.04151	0.955
5.08391	0.961
5.12631	0.959
5.16871	0.957
5.21111	0.957
5.25351	0.957
5.29592	0.957
5.33832	0.961
5.38072	0.962
5.42312	0.962
5.46552	0.957
5.50792	0.953
5.55032	0.955
5.59272	0.953
5.63513	0.948
5.67753	0.943
5.71993	0.949
5.76233	0.956
5.80473	0.944
5.84713	0.924
5.88953	0.873
5.93193	0.771
5.97433	0.406
6.01674	0.2
6.05914	0.06
6.10154	0.193
6.14394	0.597
6.18634	0.715
6.22874	0.644
6.27114	0.742
6.31354	0.828
6.35594	0.81
6.39835	0.808
6.44075	0.759
6.48315	0.638
6.52555	0.34
6.56795	0.157
6.61035	0.225
6.65275	0.462
6.69515	0.497
6.73755	0.57
6.77996	0.449
6.82236	0.341
6.86476	0.276
6.90716	0.265
6.94956	0.361
6.99196	0.507
7.03436	0.616
7.07676	0.679
7.11916	0.671
7.16157	0.632
7.20397	0.626
7.24637	0.521
7.28877	0.43
7.33117	0.283
7.37357	0.652
7.41597	0.759
7.45837	0.771
7.50078	0.777
7.54318	0.772
7.58558	0.758
7.62798	0.752
7.67038	0.741
7.71278	0.676
7.75518	0.417
7.79758	0.265
7.83998	0.492
7.88239	0.685
7.92479	0.746
7.96719	0.697
8.00959	0.711
8.05199	0.848
8.09439	0.872
8.13679	0.86
8.17919	0.843
8.22159	0.859
8.264	0.78
8.3064	0.837
8.3488	0.847
8.3912	0.859
8.4336	0.909
8.476	0.921
8.5184	0.925
8.5608	0.926
8.6032	0.93
8.64561	0.931
8.68801	0.932
8.73041	0.935
8.77281	0.929
8.81521	0.945
8.85761	0.948
8.90001	0.949
8.94241	0.949
8.98481	0.951
9.02722	0.953
9.06962	0.951
9.11202	0.931
9.15442	0.881
9.19682	0.897
9.23922	0.924
9.28162	0.927
9.32402	0.942
9.36643	0.949
9.40883	0.949
9.45123	0.947
9.49363	0.947
9.53603	0.944
9.57843	0.933
9.62083	0.902
9.66323	0.853
9.70563	0.868
9.74804	0.905
9.79044	0.883
9.83284	0.894
9.87524	0.865
9.91764	0.727
9.96004	0.713
10.0024	0.866
10.0448	0.913
10.0872	0.923
10.1296	0.924
10.172	0.923
10.2144	0.9
10.2568	0.862
10.2993	0.885
10.3417	0.854
10.3841	0.921
10.4265	0.943
10.4689	0.942
10.5113	0.927
10.5537	0.89
10.5961	0.93
10.6385	0.943
10.6809	0.945
10.7233	0.947
10.7657	0.935
10.8081	0.913
10.8505	0.929
10.8929	0.912
10.9353	0.894
10.9777	0.935
11.0201	0.949
11.0625	0.957
11.1049	0.961
11.1473	0.962
11.1897	0.962
11.2321	0.955
11.2745	0.948
11.3169	0.924
11.3593	0.85
11.4017	0.84
11.4441	0.953
11.4865	0.965
11.5289	0.969
11.5713	0.971
11.6137	0.971
11.6561	0.968
11.6985	0.966
11.7409	0.96
11.7833	0.949
11.8257	0.92
11.8681	0.855
11.9105	0.793
11.9529	0.853
11.9953	0.929
12.0377	0.936
12.0801	0.932
12.1225	0.924
12.1649	0.888
12.2073	0.798
12.2497	0.612
12.2921	0.443
12.3345	0.796
12.3769	0.903
12.4193	0.9
12.4617	0.844
12.5041	0.742
12.5465	0.758
12.5889	0.888
12.6313	0.939
12.6737	0.951
12.7161	0.96
12.7585	0.961
12.8009	0.961
12.8433	0.961
12.8857	0.962
12.9281	0.963
12.9705	0.963
13.0129	0.963
13.0553	0.962
13.0977	0.961
13.1401	0.959
13.1825	0.956
13.2249	0.953
13.2673	0.95
13.3097	0.947
13.3521	0.939
13.3945	0.925
13.4369	0.907
13.4793	0.889
13.5217	0.883
13.5641	0.888
13.6065	0.885
13.6489	0.881
13.6913	0.865
13.7337	0.848
13.7761	0.83
13.8185	0.806
13.8609	0.787
13.9033	0.784
13.9457	0.782
13.9881	0.777
14.0306	0.771
14.073	0.765
14.1154	0.768
14.1578	0.778
14.2002	0.79
14.2426	0.808
14.285	0.83
14.3274	0.843
14.3698	0.864
14.4122	0.878
14.4546	0.89
14.497	0.9
14.5394	0.911
14.5818	0.918
14.6242	0.914
14.6666	0.924
14.709	0.93
14.7514	0.937
14.7938	0.939
14.8362	0.931
14.8786	0.937
14.921	0.941
14.9634	0.941
15.0058	0.937
15.0482	0.936
15.0906	0.932
15.133	0.932
15.1754	0.931
15.2178	0.927
15.2602	0.927
15.3026	0.926
15.345	0.919
15.3874	0.919
15.4298	0.923
15.4722	0.92
15.5146	0.915
15.557	0.913
15.5994	0.913
15.6418	0.913
15.6842	0.912
15.7266	0.913
15.769	0.914
15.8114	0.912
15.8538	0.917
15.8962	0.918
