Infrared Spectrum: 2-METHYL-2-p-TOLUENESULFONYLAMINO-1,3-PROPANEDIOL ACETATE p-TOLUENESULFONATE
Formula: C20 H25 N O7 S2
State: SOLID(MINERAL OIL MULL)
Melting point: 118-118.5 C
Class: COBLENTZ
Instrument: Not specified, most likely a prism, grating, or hybrid spectrometer.
Sampling: TRANSMISSION
Resolution: 4
Origin: ARTHUR D. LITTLE, INC.
1/CM	TRANSMITTANCE
574.665	0.6
583.021	0.592
591.376	0.575
599.732	0.575
608.088	0.572
616.443	0.568
624.799	0.575
633.155	0.584
641.51	0.563
649.866	0.487
658.222	0.316
666.577	0.254
674.933	0.595
683.288	0.766
691.644	0.785
700	0.683
708.355	0.824
716.711	0.837
725.067	0.855
733.422	0.861
741.778	0.868
750.134	0.836
758.489	0.759
766.845	0.603
775.201	0.471
783.556	0.75
791.912	0.689
800.268	0.719
808.623	0.617
816.979	0.288
825.335	0.434
833.69	0.378
842.046	0.399
850.402	0.599
858.757	0.656
867.113	0.542
875.468	0.62
883.824	0.834
892.18	0.879
900.535	0.815
908.891	0.717
917.247	0.731
925.602	0.77
933.958	0.844
942.314	0.826
950.669	0.71
959.025	0.575
967.381	0.396
975.736	0.267
984.092	0.301
992.448	0.413
1000.8	0.403
1009.16	0.309
1017.51	0.522
1025.87	0.477
1034.23	0.558
1042.58	0.446
1050.94	0.49
1059.29	0.721
1067.65	0.795
1076	0.777
1084.36	0.682
1092.72	0.379
1101.07	0.428
1109.43	0.612
1117.78	0.627
1126.14	0.637
1134.49	0.631
1142.85	0.441
1151.2	0.208
1159.56	0.18
1167.92	0.212
1176.27	0.117
1184.63	0.26
1192.98	0.285
1201.34	0.572
1209.69	0.525
1218.05	0.421
1226.41	0.266
1234.76	0.201
1243.12	0.429
1251.47	0.634
1259.83	0.649
1268.18	0.571
1276.54	0.652
1284.9	0.572
1293.25	0.61
1301.61	0.532
1309.96	0.403
1318.32	0.294
1326.67	0.282
1335.03	0.567
1343.38	0.455
1351.74	0.252
1360.1	0.228
1368.45	0.242
1376.81	0.48
1385.16	0.617
1393.52	0.599
1401.87	0.557
1410.23	0.442
1418.59	0.368
1426.94	0.39
1435.3	0.394
1443.65	0.375
1452.01	0.315
1460.36	0.331
1468.72	0.436
1477.08	0.732
1485.43	0.794
1493.79	0.784
1502.14	0.868
1510.5	0.929
1518.85	0.934
1527.21	0.939
1535.56	0.941
1543.92	0.946
1552.28	0.942
1560.63	0.935
1568.99	0.935
1577.34	0.914
1585.7	0.848
1594.05	0.757
1602.41	0.738
1610.77	0.95
1619.12	0.957
1627.48	0.95
1635.83	0.941
1644.19	0.935
1652.54	0.935
1660.9	0.936
1669.26	0.936
1677.61	0.929
1685.97	0.914
1694.32	0.89
1702.68	0.869
1711.03	0.831
1719.39	0.724
1727.74	0.582
1736.1	0.333
1744.46	0.278
1752.81	0.488
1761.17	0.71
1769.52	0.819
1777.88	0.88
1786.23	0.907
1794.59	0.925
1802.95	0.938
1811.3	0.942
1819.66	0.952
1828.01	0.96
1836.37	0.971
1844.72	0.98
1853.08	0.983
1861.44	0.98
1869.79	0.977
1878.15	0.977
1886.5	0.977
1894.86	0.977
1903.21	0.976
1911.57	0.971
1919.92	0.96
1928.28	0.953
1936.64	0.952
1944.99	0.942
1953.35	0.955
1961.7	0.966
1970.06	0.97
1978.41	0.974
1986.77	0.977
1995.13	0.98
2003.48	0.978
2011.84	0.978
2020.19	0.976
2028.55	0.973
2036.9	0.969
2045.26	0.966
2053.62	0.971
2061.97	0.977
2070.33	0.973
2078.68	0.969
2087.04	0.967
2095.39	0.966
2103.75	0.966
2112.1	0.963
2120.46	0.96
2128.82	0.962
2137.17	0.959
2145.53	0.952
2153.88	0.942
2162.24	0.942
2170.59	0.941
2178.95	0.941
2187.31	0.939
2195.66	0.938
2204.02	0.941
2212.37	0.939
2220.73	0.938
2229.08	0.939
2237.44	0.938
2245.8	0.934
2254.15	0.941
2262.51	0.936
2270.86	0.942
2279.22	0.934
2287.57	0.929
2295.93	0.925
2304.28	0.911
2312.64	0.903
2321	0.885
2329.35	0.88
2337.71	0.878
2346.06	0.879
2354.42	0.883
2362.77	0.885
2371.13	0.893
2379.49	0.907
2387.84	0.917
2396.2	0.921
2404.55	0.924
2412.91	0.925
2421.26	0.925
2429.62	0.927
2437.98	0.927
2446.33	0.928
2454.69	0.931
2463.04	0.932
2471.4	0.934
2479.75	0.935
2488.11	0.938
2496.46	0.939
2504.82	0.942
2513.18	0.945
2521.53	0.946
2529.89	0.948
2538.24	0.95
2546.6	0.95
2554.95	0.952
2563.31	0.952
2571.67	0.953
2580.02	0.955
2588.38	0.956
2596.73	0.957
2605.09	0.957
2613.44	0.957
2621.8	0.957
2630.16	0.957
2638.51	0.957
2646.87	0.957
2655.22	0.957
2663.58	0.957
2671.93	0.959
2680.29	0.959
2688.64	0.959
2697	0.962
2705.36	0.963
2713.71	0.96
2722.07	0.957
2730.42	0.953
2738.78	0.96
2747.13	0.963
2755.49	0.973
2763.85	0.976
2772.2	0.969
2780.56	0.95
2788.91	0.934
2797.27	0.906
2805.62	0.871
2813.98	0.847
2822.34	0.787
2830.69	0.694
2839.05	0.558
2847.4	0.309
2855.76	0.124
2864.11	0.12
2872.47	0.141
2880.82	0.172
2889.18	0.191
2897.54	0.131
2905.89	0.068
2914.25	0.05
2922.6	0.03
2930.96	0.026
2939.31	0.03
2947.67	0.04
2956.03	0.054
2964.38	0.086
2972.74	0.137
2981.09	0.225
2989.45	0.399
2997.8	0.521
3006.16	0.596
3014.52	0.662
3022.87	0.714
3031.23	0.732
3039.58	0.726
3047.94	0.732
3056.29	0.77
3064.65	0.784
3073	0.788
3081.36	0.792
3089.72	0.801
3098.07	0.798
3106.43	0.801
3114.78	0.808
3123.14	0.819
3131.49	0.827
3139.85	0.829
3148.21	0.83
3156.56	0.826
3164.92	0.822
3173.27	0.819
3181.63	0.813
3189.98	0.806
3198.34	0.798
3206.7	0.787
3215.05	0.78
3223.41	0.759
3231.76	0.736
3240.12	0.708
3248.47	0.675
3256.83	0.621
3265.18	0.551
3273.54	0.466
3281.9	0.347
3290.25	0.31
3298.61	0.452
3306.96	0.659
3315.32	0.761
3323.67	0.837
3332.03	0.887
3340.39	0.91
3348.74	0.921
3357.1	0.927
3365.45	0.935
3373.81	0.939
3382.16	0.945
3390.52	0.948
3398.88	0.948
3407.23	0.945
3415.59	0.943
3423.94	0.942
3432.3	0.941
3440.65	0.935
3449.01	0.932
3457.36	0.928
3465.72	0.924
3474.08	0.921
3482.43	0.922
3490.79	0.924
