Infrared Spectrum: RESORCINOL, 2,4-DIBENZOYL-6-HEXYL-
Formula: C26 H26 O4
State: SOLID (OIL MULL)
Class: COBLENTZ
Instrument: Not specified, most likely a prism, grating, or hybrid spectrometer.
Sampling: TRANSMISSION
Resolution: 4
Origin: TENNESSEE EASTMAN COMPANY, RESEARCH LABORATORIES
MICROMETERS	TRANSMITTANCE
2.021	0.407
2.06212	0.41
2.10324	0.414
2.14435	0.417
2.18547	0.417
2.22659	0.417
2.26771	0.412
2.30882	0.408
2.34994	0.408
2.39106	0.414
2.43218	0.414
2.4733	0.42
2.51441	0.436
2.55553	0.436
2.59665	0.436
2.63777	0.438
2.67888	0.439
2.72	0.448
2.76112	0.458
2.80224	0.474
2.84336	0.475
2.88447	0.479
2.92559	0.482
2.96671	0.484
3.00783	0.484
3.04894	0.481
3.09006	0.469
3.13118	0.455
3.1723	0.434
3.21342	0.432
3.25453	0.4
3.29565	0.326
3.33677	0.201
3.37789	0.03
3.419	0.029
3.46012	0.029
3.50124	0.089
3.54236	0.359
3.58348	0.448
3.62459	0.484
3.66571	0.475
3.70683	0.472
3.74795	0.474
3.78906	0.474
3.83018	0.479
3.8713	0.501
3.91242	0.518
3.95354	0.541
3.99465	0.551
4.03577	0.558
4.07689	0.56
4.11801	0.572
4.15912	0.572
4.20024	0.577
4.24136	0.579
4.28248	0.579
4.3236	0.579
4.36471	0.604
4.40583	0.615
4.44695	0.623
4.48807	0.628
4.52918	0.634
4.5703	0.637
4.61142	0.646
4.65254	0.651
4.69366	0.658
4.73477	0.663
4.77589	0.666
4.81701	0.67
4.85813	0.671
4.89924	0.676
4.94036	0.68
4.98148	0.683
5.0226	0.692
5.06372	0.697
5.10483	0.69
5.14595	0.699
5.18707	0.713
5.22819	0.713
5.26931	0.711
5.31042	0.723
5.35154	0.742
5.39266	0.752
5.43378	0.75
5.47489	0.75
5.51601	0.749
5.55713	0.752
5.59825	0.762
5.63937	0.762
5.68048	0.774
5.7216	0.786
5.76272	0.8
5.80384	0.81
5.84495	0.81
5.88607	0.809
5.92719	0.809
5.96831	0.802
6.00943	0.766
6.05054	0.714
6.09166	0.553
6.13278	0.365
6.1739	0.195
6.21501	0.106
6.25613	0.101
6.29725	0.161
6.33837	0.199
6.37949	0.243
6.4206	0.376
6.46172	0.407
6.50284	0.465
6.54396	0.484
6.58507	0.505
6.62619	0.508
6.66731	0.496
6.70843	0.463
6.74955	0.319
6.79066	0.108
6.83178	0.072
6.8729	0.061
6.91402	0.08
6.95513	0.151
6.99625	0.28
7.03737	0.405
7.07849	0.472
7.11961	0.498
7.16072	0.465
7.20184	0.312
7.24296	0.183
7.28408	0.176
7.32519	0.223
7.36631	0.221
7.40743	0.307
7.44855	0.403
7.48967	0.405
7.53078	0.326
7.5719	0.288
7.61302	0.39
7.65414	0.369
7.69525	0.335
7.73637	0.316
7.77749	0.316
7.81861	0.257
7.85973	0.247
7.90084	0.297
7.94196	0.352
7.98308	0.357
8.0242	0.316
8.06531	0.247
8.10643	0.218
8.14755	0.3
8.18867	0.359
8.22979	0.412
8.2709	0.463
8.31202	0.487
8.35314	0.391
8.39426	0.424
8.43537	0.453
8.47649	0.338
8.51761	0.436
8.55873	0.493
8.59985	0.498
8.64096	0.529
8.68208	0.56
8.7232	0.565
8.76432	0.463
8.80543	0.295
8.84655	0.402
8.88767	0.493
8.92879	0.551
8.96991	0.575
9.01102	0.58
9.05214	0.579
9.09326	0.572
9.13438	0.606
9.17549	0.632
9.21661	0.625
9.25773	0.56
9.29885	0.599
9.33997	0.642
9.38108	0.656
9.4222	0.673
9.46332	0.689
9.50444	0.694
9.54555	0.694
9.58667	0.649
9.62779	0.561
9.66891	0.64
9.71003	0.671
9.75114	0.623
9.79226	0.414
9.83338	0.352
9.8745	0.431
9.91561	0.477
9.95673	0.479
9.99785	0.494
10.039	0.542
10.0801	0.57
10.1212	0.582
10.1623	0.587
10.2034	0.589
10.2446	0.56
10.2857	0.5
10.3268	0.534
10.3679	0.575
10.409	0.603
10.4501	0.625
10.4913	0.642
10.5324	0.658
10.5735	0.668
10.6146	0.673
10.6557	0.678
10.6969	0.682
10.738	0.682
10.7791	0.682
10.8202	0.666
10.8613	0.663
10.9024	0.656
10.9436	0.627
10.9847	0.654
11.0258	0.694
11.0669	0.713
11.108	0.719
11.1491	0.718
11.1903	0.714
11.2314	0.711
11.2725	0.711
11.3136	0.711
11.3547	0.711
11.3959	0.711
11.437	0.711
11.4781	0.709
11.5192	0.694
11.5603	0.668
11.6014	0.628
11.6426	0.537
11.6837	0.451
11.7248	0.379
11.7659	0.388
11.807	0.443
11.8482	0.432
11.8893	0.396
11.9304	0.372
11.9715	0.372
12.0126	0.419
12.0537	0.446
12.0949	0.487
12.136	0.51
12.1771	0.522
12.2182	0.527
12.2593	0.529
12.3004	0.565
12.3416	0.621
12.3827	0.651
12.4238	0.646
12.4649	0.599
12.506	0.534
12.5472	0.491
12.5883	0.484
12.6294	0.517
12.6705	0.554
12.7116	0.591
12.7527	0.611
12.7939	0.615
12.835	0.554
12.8761	0.465
12.9172	0.4
12.9583	0.441
12.9994	0.529
13.0406	0.57
13.0817	0.591
13.1228	0.603
13.1639	0.611
13.205	0.608
13.2462	0.587
13.2873	0.537
13.3284	0.527
13.3695	0.527
13.4106	0.518
13.4517	0.489
13.4929	0.469
13.534	0.47
13.5751	0.506
13.6162	0.534
13.6573	0.548
13.6985	0.549
13.7396	0.544
13.7807	0.513
13.8218	0.482
13.8629	0.465
13.904	0.47
13.9452	0.527
13.9863	0.567
14.0274	0.599
14.0685	0.609
14.1096	0.613
14.1507	0.606
14.1919	0.554
14.233	0.465
14.2741	0.376
14.3152	0.302
14.3563	0.252
14.3975	0.225
14.4386	0.223
14.4797	0.238
14.5208	0.307
14.5619	0.395
14.603	0.443
14.6442	0.477
14.6853	0.51
14.7264	0.522
14.7675	0.53
14.8086	0.537
14.8497	0.539
14.8909	0.537
14.932	0.529
14.9731	0.527
15.0142	0.532
15.0553	0.532
15.0965	0.53
15.1376	0.532
15.1787	0.537
15.2198	0.542
15.2609	0.546
15.302	0.544
15.3432	0.544
15.3843	0.542
15.4254	0.542
15.4665	0.542
15.5076	0.541
15.5488	0.532
15.5899	0.525
15.631	0.506
15.6721	0.489
15.7132	0.45
15.7543	0.431
15.7955	0.407
15.8366	0.381
15.8777	0.372
15.9188	0.371
15.9599	0.372
16.001	0.372
