Infrared Spectrum: 17-ETHYLENEDIOXY-3Alpha,5Alpha-CYCLOANDROSTAN-6-ONE
Formula: C21 H30 O3
State: SOLUTION 7% (CS2 FOR 7.5-15 microns, AND CCl4 FOR 2.5-7.5 microns)
Class: COBLENTZ III
Instrument: PERKIN-ELMER 21 (GRATING)
Instrument parameters: FILTER AT ABOUT 10 MICRONS
Path length: 0.01 CM
Resolution: 2
Origin: ABBOTT LABORATORIES
1/CM	TRANSMITTANCE
666	0.8219
675	0.7873
684	0.8225
693	0.8416
702	0.8654
711	0.8676
720	0.8634
729	0.8573
738	0.844
747	0.7999
756	0.8232
765	0.8482
774	0.8255
783	0.7969
792	0.8267
801	0.789
810	0.7203
819	0.8316
828	0.8213
837	0.8475
846	0.8678
855	0.85
864	0.7752
873	0.6892
882	0.7736
891	0.6713
900	0.5874
909	0.7598
918	0.6912
927	0.7675
936	0.7564
945	0.5528
954	0.6758
963	0.6036
972	0.7579
981	0.699
990	0.7484
999	0.6317
1008	0.5918
1017	0.6754
1026	0.4883
1035	0.3729
1044	0.4132
1053	0.533
1062	0.5053
1071	0.601
1080	0.6041
1089	0.3819
1098	0.3118
1107	0.5696
1116	0.5962
1125	0.509
1134	0.5576
1143	0.5642
1152	0.4501
1161	0.2399
1170	0.3138
1179	0.5979
1188	0.6606
1197	0.71
1206	0.6735
1215	0.6486
1224	0.6739
1233	0.7287
1242	0.7455
1251	0.7012
1260	0.7207
1269	0.5665
1278	0.5859
1287	0.3849
1296	0.4532
1305	0.3435
1314	0.5906
1323	0.683
1332	0.7317
1341	0.666
1350	0.657
1359	0.5166
1368	0.4777
1377	0.4988
1386	0.6815
1395	0.7644
1404	0.7087
1413	0.7134
1422	0.6695
1431	0.6505
1440	0.6769
1449	0.5527
1458	0.5845
1467	0.5805
1476	0.7461
1485	0.8385
1494	0.8577
1503	0.8822
1512	0.9027
1521	0.9179
1530	0.9252
1539	0.9242
1548	0.9202
1557	0.9138
1566	0.9057
1575	0.8961
1584	0.8861
1593	0.8735
1602	0.8626
1611	0.852
1620	0.8409
1629	0.8269
1638	0.8049
1647	0.7799
1656	0.7529
1665	0.7026
1674	0.4774
1683	0.1817
1692	0.1347
1701	0.4904
1710	0.7298
1719	0.795
1728	0.825
1737	0.841
1746	0.8491
1755	0.8542
1764	0.8571
1773	0.8601
1782	0.8629
1791	0.865
1800	0.8663
1809	0.8676
1818	0.8682
1827	0.8677
1836	0.8674
1845	0.8679
1854	0.8692
1863	0.8705
1872	0.8715
1881	0.8716
1890	0.8714
1899	0.871
1908	0.8698
1917	0.8684
1926	0.8674
1935	0.8684
1944	0.8698
1953	0.8707
1962	0.8699
1971	0.8689
1980	0.8666
1989	0.866
1998	0.8701
2007	0.8714
2016	0.8713
2025	0.8706
2034	0.8691
2043	0.8689
2052	0.8692
2061	0.87
2070	0.8724
2079	0.8742
2088	0.8757
2097	0.8771
2106	0.8773
2115	0.8773
2124	0.8774
2133	0.8774
2142	0.877
2151	0.8767
2160	0.8763
2169	0.8767
2178	0.8772
2187	0.8776
2196	0.8782
2205	0.8783
2214	0.8782
2223	0.8781
2232	0.878
2241	0.8778
2250	0.8777
2259	0.8776
2268	0.8774
2277	0.8773
2286	0.8771
2295	0.8766
2304	0.8761
2313	0.8755
2322	0.875
2331	0.8745
2340	0.874
2349	0.8739
2358	0.8738
2367	0.8738
2376	0.8737
2385	0.8736
2394	0.8737
2403	0.8744
2412	0.8751
2421	0.8758
2430	0.8755
2439	0.8752
2448	0.8747
2457	0.8742
2466	0.8732
2475	0.8721
2484	0.871
2493	0.87
2502	0.8689
2511	0.8678
2520	0.8668
2529	0.8657
2538	0.8642
2547	0.8624
2556	0.8606
2565	0.8586
2574	0.8564
2583	0.8543
2592	0.8533
2601	0.8529
2610	0.8524
2619	0.8521
2628	0.8517
2637	0.8524
2646	0.8534
2655	0.8544
2664	0.8553
2673	0.8561
2682	0.8567
2691	0.8572
2700	0.8567
2709	0.8562
2718	0.855
2727	0.8527
2736	0.8487
2745	0.8437
2754	0.8372
2763	0.8314
2772	0.8234
2781	0.8077
2790	0.7741
2799	0.7468
2808	0.6968
2817	0.6687
2826	0.6273
2835	0.5117
2844	0.3967
2853	0.3194
2862	0.3292
2871	0.3399
2880	0.3497
2889	0.3404
2898	0.2848
2907	0.2274
2916	0.1968
2925	0.1935
2934	0.1942
2943	0.2228
2952	0.2972
2961	0.3711
2970	0.4445
2979	0.5175
2988	0.5901
2997	0.6622
3006	0.7339
3015	0.8115
3024	0.8377
3033	0.8495
3042	0.8552
3051	0.8604
3060	0.8639
3069	0.8671
3078	0.8703
3087	0.873
3096	0.8756
3105	0.8782
3114	0.8807
3123	0.8831
3132	0.8855
3141	0.8878
3150	0.8897
3159	0.8906
3168	0.8914
3177	0.8921
3186	0.8922
3195	0.8923
3204	0.8924
3213	0.8925
3222	0.8928
3231	0.8929
3240	0.8931
3249	0.8933
3258	0.893
3267	0.8922
3276	0.8916
3285	0.8906
3294	0.8881
3303	0.8858
3312	0.8847
3321	0.8839
3330	0.8843
3339	0.8856
3348	0.887
3357	0.8885
3366	0.8899
3375	0.8907
3384	0.8915
3393	0.8922
3402	0.8926
3411	0.893
3420	0.8934
3429	0.8936
3438	0.8938
3447	0.894
3456	0.8942
3465	0.8944
3474	0.8947
3483	0.8947
3492	0.8945
3501	0.8944
3510	0.8942
3519	0.894
3528	0.8938
3537	0.8936
3546	0.8935
3555	0.8933
3564	0.8932
3573	0.8931
3582	0.893
3591	0.8929
3600	0.8928
3609	0.8927
3618	0.8926
3627	0.8925
3636	0.8924
3645	0.8923
3654	0.8922
3663	0.8921
3672	0.8921
3681	0.8921
3690	0.8921
3699	0.8921
3708	0.8921
3717	0.8921
3726	0.8921
3735	0.8921
3744	0.8921
3753	0.8921
3762	0.8921
3771	0.8921
3780	0.8921
3789	0.8921
3798	0.8921
3807	0.8922
3816	0.8922
3825	0.8922
3834	0.8922
3843	0.8923
3852	0.8923
3861	0.8922
3870	0.8921
3879	0.892
3888	0.892
3897	0.8919
3906	0.8919
3915	0.8918
3924	0.8917
3933	0.8916
3942	0.8916
3951	0.8915
3960	0.8914
3969	0.8913
3978	0.8913
3987	0.8913
3996	0.8912
