Infrared Spectrum: Aniline, 2-chloro-6-(1',1'-dimethylpropyl)-
Formula: C11 H16 Cl N
State: LIQUID (NEAT)
Class: COBLENTZ III
Instrument: BECKMAN IR-4 (HYBRID PRISM-GRATING)
Instrument parameters: NaCl PRISM
Sampling: TRANSMISSION
Path length: CAPILLARY
Resolution: 2
Origin: MONSANTO (J. FREEMAN)
1/CM	TRANSMITTANCE
626	0.5717
635	0.5603
644	0.5248
653	0.5157
662	0.5185
671	0.5314
680	0.5314
689	0.5444
698	0.5461
707	0.5345
716	0.4066
725	0.2913
734	0.0732
743	0.2432
752	0.4263
761	0.4104
770	0.1556
779	0.3077
788	0.4693
797	0.5655
806	0.5414
815	0.3865
824	0.4945
833	0.5823
842	0.5466
851	0.6224
860	0.679
869	0.6106
878	0.5691
887	0.6808
896	0.6908
905	0.737
914	0.6785
923	0.7278
932	0.7205
941	0.7006
950	0.6892
959	0.754
968	0.7706
977	0.7652
986	0.7098
995	0.7078
1004	0.5717
1013	0.6577
1022	0.7269
1031	0.6447
1040	0.5061
1049	0.3778
1058	0.2563
1067	0.2615
1076	0.3058
1085	0.3275
1094	0.4003
1103	0.5335
1112	0.6764
1121	0.687
1130	0.7257
1139	0.7947
1148	0.7266
1157	0.685
1166	0.6012
1175	0.598
1184	0.7463
1193	0.6784
1202	0.6882
1211	0.7404
1220	0.6256
1229	0.6283
1238	0.6429
1247	0.5652
1256	0.2742
1265	0.3971
1274	0.4563
1283	0.5967
1292	0.437
1301	0.3214
1310	0.4315
1319	0.5855
1328	0.6485
1337	0.7407
1346	0.8028
1355	0.8063
1364	0.6935
1373	0.5209
1382	0.3621
1391	0.4348
1400	0.5857
1409	0.5405
1418	0.5919
1427	0.4043
1436	0.0575
1445	0.0726
1454	0.1538
1463	0.1422
1472	0.1241
1481	0.3132
1490	0.4349
1499	0.4763
1508	0.3899
1517	0.3063
1526	0.6447
1535	0.7034
1544	0.7104
1553	0.698
1562	0.6461
1571	0.5028
1580	0.5312
1589	0.4227
1598	0.3747
1607	0.1623
1616	0.0629
1625	0.0944
1634	0.2225
1643	0.4038
1652	0.574
1661	0.6745
1670	0.7279
1679	0.7487
1688	0.7766
1697	0.8067
1706	0.8352
1715	0.8649
1724	0.8899
1733	0.9031
1742	0.9004
1751	0.8978
1760	0.8949
1769	0.8939
1778	0.8972
1787	0.8908
1796	0.8745
1805	0.8694
1814	0.8783
1823	0.8898
1832	0.8942
1841	0.8796
1850	0.8563
1859	0.8496
1868	0.8761
1877	0.8864
1886	0.8848
1895	0.8813
1904	0.8604
1913	0.8504
1922	0.8793
1931	0.8967
1940	0.9111
1949	0.9171
1958	0.9229
1967	0.926
1976	0.9275
1985	0.9285
1994	0.9293
2003	0.9299
2012	0.9304
2021	0.9304
2030	0.9304
2039	0.9305
2048	0.9306
2057	0.9309
2066	0.9311
2075	0.9313
2084	0.9314
2093	0.9316
2102	0.9314
2111	0.9313
2120	0.9312
2129	0.9316
2138	0.932
2147	0.9326
2156	0.9332
2165	0.9339
2174	0.9344
2183	0.9346
2192	0.9351
2201	0.9364
2210	0.9378
2219	0.9387
2228	0.9396
2237	0.9405
2246	0.9407
2255	0.9401
2264	0.9394
2273	0.9382
2282	0.936
2291	0.9334
2300	0.9304
2309	0.9264
2318	0.9227
2327	0.9243
2336	0.9269
2345	0.929
2354	0.9307
2363	0.9325
2372	0.9341
2381	0.9356
2390	0.9371
2399	0.9385
2408	0.9399
2417	0.941
2426	0.9419
2435	0.9428
2444	0.9441
2453	0.9457
2462	0.9462
2471	0.9463
2480	0.9452
2489	0.9438
2498	0.9422
2507	0.94
2516	0.9376
2525	0.933
2534	0.9274
2543	0.9216
2552	0.9187
2561	0.9177
2570	0.9145
2579	0.9073
2588	0.9058
2597	0.9052
2606	0.9053
2615	0.9069
2624	0.9087
2633	0.91
2642	0.9112
2651	0.9124
2660	0.9136
2669	0.9147
2678	0.9159
2687	0.917
2696	0.9174
2705	0.9177
2714	0.9166
2723	0.9141
2732	0.9099
2741	0.9056
2750	0.9024
2759	0.9009
2768	0.9011
2777	0.9007
2786	0.899
2795	0.8908
2804	0.882
2813	0.8795
2822	0.8753
2831	0.8552
2840	0.8337
2849	0.8074
2858	0.7079
2867	0.6018
2876	0.4964
2885	0.3916
2894	0.3299
2903	0.302
2912	0.2863
2921	0.2795
2930	0.2747
2939	0.2682
2948	0.2527
2957	0.1931
2966	0.1762
2975	0.107
2984	0.0948
2993	0.0944
3002	0.0925
3011	0.1689
3020	0.2773
3029	0.385
3038	0.4921
3047	0.5987
3056	0.7045
3065	0.7365
3074	0.731
3083	0.7202
3092	0.7095
3101	0.7069
3110	0.7312
3119	0.7712
3128	0.8111
3137	0.8512
3146	0.8759
3155	0.8776
3164	0.8777
3173	0.8766
3182	0.8727
3191	0.8646
3200	0.8553
3209	0.8517
3218	0.8513
3227	0.8569
3236	0.8677
3245	0.88
3254	0.8867
3263	0.8892
3272	0.8913
3281	0.8926
3290	0.8921
3299	0.8932
3308	0.8926
3317	0.8916
3326	0.89
3335	0.885
3344	0.8665
3353	0.8155
3362	0.7648
3371	0.7144
3380	0.6643
3389	0.6145
3398	0.5649
3407	0.5156
3416	0.4665
3425	0.4177
3434	0.3787
3443	0.401
3452	0.4877
3461	0.5764
3470	0.6646
3479	0.6821
3488	0.6516
3497	0.6165
3506	0.5818
3515	0.5471
3524	0.5127
3533	0.4783
3542	0.4443
3551	0.4141
3560	0.4142
3569	0.5137
3578	0.6358
3587	0.7572
3596	0.8323
3605	0.8522
3614	0.8742
3623	0.8897
3632	0.8946
3641	0.8992
3650	0.9025
3659	0.9053
3668	0.9073
3677	0.9078
3686	0.9081
3695	0.9085
3704	0.9087
3713	0.9085
3722	0.9082
3731	0.908
3740	0.9076
3749	0.9074
3758	0.9072
3767	0.907
3776	0.9068
3785	0.9066
3794	0.9065
3803	0.9064
3812	0.9063
3821	0.9062
3830	0.9061
3839	0.906
3848	0.906
3857	0.9059
3866	0.9057
3875	0.9053
3884	0.9049
3893	0.9045
3902	0.9041
3911	0.9036
3920	0.9029
3929	0.9022
3938	0.9015
3947	0.9005
3956	0.8992
3965	0.8979
3974	0.8965
3983	0.8945
3992	0.8923
