Infrared Spectrum: DIFERROCENYL METHANOL
Formula: C21 H20 Fe2 O
State: SOLID (MINERAL OIL MULL)
Class: COBLENTZ
Instrument: Not specified, most likely a prism, grating, or hybrid spectrometer.
Sampling: TRANSMISSION
Resolution: 4
Origin: WYANDOTTE CHEMICALS CORP., WYANDOTTE, MICHIGAN, USA
MICROMETERS	TRANSMITTANCE
2.014	0.122
2.05484	0.127
2.09567	0.127
2.13651	0.124
2.17734	0.122
2.21818	0.121
2.25901	0.116
2.29985	0.119
2.34068	0.121
2.38152	0.122
2.42235	0.124
2.46319	0.127
2.50402	0.105
2.54486	0.117
2.58569	0.134
2.62653	0.15
2.66736	0.155
2.7082	0.155
2.74903	0.153
2.78987	0.141
2.8307	0.1
2.87154	0.078
2.91237	0.022
2.95321	0.037
2.99404	0.075
3.03488	0.107
3.07571	0.131
3.11655	0.141
3.15738	0.138
3.19822	0.112
3.23905	0.088
3.27989	0.034
3.32072	0.064
3.36156	0.047
3.40239	0.018
3.44323	0.011
3.48406	0.017
3.5249	0.018
3.56573	0.09
3.60657	0.221
3.6474	0.267
3.68824	0.267
3.72907	0.264
3.76991	0.257
3.81074	0.264
3.85158	0.273
3.89241	0.279
3.93325	0.296
3.97408	0.305
4.01492	0.31
4.05575	0.313
4.09659	0.315
4.13742	0.308
4.17826	0.313
4.21909	0.315
4.25993	0.317
4.30076	0.319
4.3416	0.32
4.38243	0.324
4.42327	0.341
4.4641	0.358
4.50494	0.354
4.54577	0.332
4.58661	0.325
4.62744	0.353
4.66828	0.365
4.70911	0.37
4.74995	0.392
4.79078	0.409
4.83162	0.412
4.87245	0.421
4.91329	0.418
4.95413	0.409
4.99496	0.414
5.0358	0.435
5.07663	0.438
5.11747	0.443
5.1583	0.45
5.19914	0.459
5.23997	0.453
5.28081	0.469
5.32164	0.479
5.36248	0.482
5.40331	0.486
5.44415	0.5
5.48498	0.498
5.52582	0.506
5.56665	0.505
5.60749	0.457
5.64832	0.383
5.68916	0.286
5.72999	0.276
5.77083	0.281
5.81166	0.261
5.8525	0.238
5.89333	0.221
5.93417	0.215
5.975	0.216
6.01584	0.215
6.05667	0.203
6.09751	0.208
6.13834	0.266
6.17918	0.394
6.22001	0.464
6.26085	0.513
6.30168	0.54
6.34252	0.552
6.38335	0.566
6.42419	0.573
6.46502	0.566
6.50586	0.568
6.54669	0.568
6.58753	0.568
6.62836	0.558
6.6692	0.505
6.71003	0.411
6.75087	0.308
6.7917	0.213
6.83254	0.092
6.87337	0.066
6.91421	0.092
6.95504	0.187
6.99588	0.276
7.03671	0.23
7.07755	0.09
7.11838	0.015
7.15922	0.022
7.20005	0.04
7.24089	0.03
7.28172	0.022
7.32256	0.046
7.36339	0.107
7.40423	0.22
7.44506	0.237
7.4859	0.329
7.52673	0.389
7.56757	0.3
7.6084	0.136
7.64924	0.23
7.69007	0.274
7.73091	0.261
7.77174	0.332
7.81258	0.187
7.85342	0.182
7.89425	0.351
7.93509	0.414
7.97592	0.327
8.01676	0.273
8.05759	0.25
8.09843	0.235
8.13926	0.206
8.1801	0.223
8.22093	0.242
8.26177	0.259
8.3026	0.191
8.34344	0.083
8.38427	0.022
8.42511	0.049
8.46594	0.129
8.50678	0.254
8.54761	0.25
8.58845	0.194
8.62928	0.189
8.67012	0.197
8.71095	0.264
8.75179	0.382
8.79262	0.505
8.83346	0.587
8.87429	0.639
8.91513	0.686
8.95596	0.72
8.9968	0.766
9.03763	0.646
9.07847	0.235
9.1193	0.139
9.16014	0.286
9.20097	0.508
9.24181	0.585
9.28264	0.622
9.32348	0.656
9.36431	0.675
9.40515	0.585
9.44598	0.464
9.48682	0.291
9.52765	0.158
9.56849	0.061
9.60932	0.022
9.65016	0.03
9.69099	0.025
9.73183	0.044
9.77266	0.02
9.8135	0.018
9.85433	0.047
9.89517	0.107
9.936	0.058
9.97684	0.015
10.0177	0.01
10.0585	0.01
10.0993	0.01
10.1402	0.011
10.181	0.015
10.2218	0.018
10.2627	0.039
10.3035	0.078
10.3444	0.16
10.3852	0.278
10.426	0.387
10.4669	0.469
10.5077	0.539
10.5485	0.581
10.5894	0.616
10.6302	0.643
10.671	0.658
10.7119	0.605
10.7527	0.472
10.7935	0.325
10.8344	0.313
10.8752	0.494
10.916	0.627
10.9569	0.614
10.9977	0.436
11.0386	0.191
11.0794	0.11
11.1202	0.221
11.1611	0.426
11.2019	0.563
11.2427	0.612
11.2836	0.622
11.3244	0.607
11.3652	0.634
11.4061	0.697
11.4469	0.738
11.4877	0.718
11.5286	0.563
11.5694	0.401
11.6102	0.348
11.6511	0.325
11.6919	0.332
11.7327	0.46
11.7736	0.455
11.8144	0.305
11.8553	0.249
11.8961	0.232
11.9369	0.186
11.9778	0.151
12.0186	0.087
12.0594	0.02
12.1003	0.01
12.1411	0.008
12.1819	0.01
12.2228	0.01
12.2636	0.006
12.3044	0.006
12.3453	0.006
12.3861	0.006
12.4269	0.003
12.4678	0.008
12.5086	0.01
12.5494	0.011
12.5903	0.018
12.6311	0.063
12.672	0.131
12.7128	0.18
12.7536	0.201
12.7945	0.18
12.8353	0.179
12.8761	0.174
12.917	0.18
12.9578	0.244
12.9986	0.324
13.0395	0.387
13.0803	0.43
13.1211	0.464
13.162	0.494
13.2028	0.5
13.2436	0.467
13.2845	0.389
13.3253	0.279
13.3661	0.16
13.407	0.098
13.4478	0.127
13.4887	0.186
13.5295	0.208
13.5703	0.175
13.6112	0.131
13.652	0.11
13.6928	0.136
13.7337	0.168
13.7745	0.197
13.8153	0.254
13.8562	0.351
13.897	0.484
13.9378	0.576
13.9787	0.646
14.0195	0.728
14.0603	0.788
14.1012	0.843
14.142	0.882
14.1829	0.909
14.2237	0.933
14.2645	0.948
14.3054	0.957
14.3462	0.955
14.387	0.936
14.4279	0.889
14.4687	0.802
14.5095	0.74
14.5504	0.732
14.5912	0.795
14.632	0.848
14.6729	0.883
14.7137	0.897
14.7545	0.897
14.7954	0.897
14.8362	0.885
14.877	0.873
14.9179	0.854
14.9587	0.827
14.9996	0.773
15.0404	0.686
15.0812	0.569
15.1221	0.506
15.1629	0.506
15.2037	0.559
15.2446	0.602
15.2854	0.631
15.3262	0.646
15.3671	0.645
15.4079	0.646
15.4487	0.641
15.4896	0.627
15.5304	0.614
15.5712	0.602
15.6121	0.593
15.6529	0.578
15.6937	0.563
15.7346	0.546
15.7754	0.525
15.8163	0.503
15.8571	0.481
15.8979	0.453
15.9388	0.433
15.9796	0.423
