Infrared Spectrum: Valeric acid, 2-hydrazino-3-methyl-
Formula: C6 H14 N2 O2
State: SOLID (0.75 mg / 641 mg KBr DISC)
Class: COBLENTZ III
Instrument: PERKIN-ELMER 21 (GRATING)
Instrument parameters: FILTER CHANGE ABOUT 1080 CM^-^1
Sampling: TRANSMISSION
Resolution: 2
Origin: SOUTHERN RESEARCH INSTITUTE
1/CM	TRANSMITTANCE
667.67	0.5839
675.709	0.5989
683.748	0.7974
691.787	0.9523
699.827	0.9703
707.866	0.9721
715.905	0.9764
723.944	0.9833
731.983	0.9717
740.022	0.9533
748.061	0.9034
756.101	0.8214
764.14	0.8512
772.179	0.8403
780.218	0.9011
788.257	0.7934
796.296	0.8624
804.335	0.8577
812.375	0.7821
820.414	0.487
828.453	0.7751
836.492	0.69
844.531	0.4268
852.57	0.2745
860.609	0.4511
868.649	0.8797
876.688	0.9401
884.727	0.9634
892.766	0.9759
900.805	0.9789
908.844	0.9549
916.883	0.9159
924.923	0.864
932.962	0.829
941.001	0.9454
949.04	0.9431
957.079	0.9301
965.118	0.9225
973.157	0.9531
981.197	0.9614
989.236	0.9477
997.275	0.9315
1005.31	0.9235
1013.35	0.8841
1021.39	0.8593
1029.43	0.8724
1037.47	0.8716
1045.51	0.8493
1053.55	0.6608
1061.59	0.5275
1069.63	0.7117
1077.67	0.8782
1085.71	0.9098
1093.74	0.9026
1101.78	0.9023
1109.82	0.8473
1117.86	0.7326
1125.9	0.8548
1133.94	0.8316
1141.98	0.7142
1150.02	0.7572
1158.06	0.9033
1166.1	0.9097
1174.14	0.8881
1182.18	0.9134
1190.21	0.9073
1198.25	0.8811
1206.29	0.81
1214.33	0.7541
1222.37	0.8551
1230.41	0.7857
1238.45	0.6032
1246.49	0.6226
1254.53	0.7995
1262.57	0.855
1270.61	0.8404
1278.64	0.7688
1286.68	0.8088
1294.72	0.8256
1302.76	0.7762
1310.8	0.6919
1318.84	0.6777
1326.88	0.3466
1334.92	0.2399
1342.96	0.4313
1351	0.3552
1359.04	0.4726
1367.08	0.4131
1375.11	0.5783
1383.15	0.5535
1391.19	0.4906
1399.23	0.4658
1407.27	0.2559
1415.31	0.1446
1423.35	0.3398
1431.39	0.5945
1439.43	0.6463
1447.47	0.6313
1455.51	0.5235
1463.55	0.4465
1471.58	0.4646
1479.62	0.4389
1487.66	0.3389
1495.7	0.2139
1503.74	0.0898
1511.78	0.0861
1519.82	0.1187
1527.86	0.1558
1535.9	0.2307
1543.94	0.4226
1551.98	0.4763
1560.02	0.516
1568.05	0.5009
1576.09	0.4295
1584.13	0.2248
1592.17	0.1778
1600.21	0.2318
1608.25	0.3624
1616.29	0.3604
1624.33	0.2379
1632.37	0.18
1640.41	0.2672
1648.45	0.3684
1656.48	0.5249
1664.52	0.6497
1672.56	0.7315
1680.6	0.7682
1688.64	0.8241
1696.68	0.8576
1704.72	0.8715
1712.76	0.8914
1720.8	0.8981
1728.84	0.9143
1736.88	0.9326
1744.92	0.9399
1752.95	0.9445
1760.99	0.9469
1769.03	0.9448
1777.07	0.9439
1785.11	0.9584
1793.15	0.9585
1801.19	0.9587
1809.23	0.9599
1817.27	0.9617
1825.31	0.9644
1833.35	0.969
1841.39	0.9731
1849.42	0.9809
1857.46	0.9828
1865.5	0.9825
1873.54	0.9812
1881.58	0.98
1889.62	0.9796
1897.66	0.9824
1905.7	0.9837
1913.74	0.9865
1921.78	0.9858
1929.82	0.9845
1937.85	0.984
1945.89	0.9855
1953.93	0.9874
1961.97	0.9863
1970.01	0.9841
1978.05	0.9824
1986.09	0.9809
1994.13	0.9906
2002.17	0.9935
2010.21	0.9853
2018.25	0.9838
2026.29	0.9814
2034.32	0.9814
2042.36	0.9864
2050.4	0.9828
2058.44	0.9739
2066.48	0.9713
2074.52	0.9606
2082.56	0.9483
2090.6	0.9366
2098.64	0.9249
2106.68	0.9144
2114.72	0.9052
2122.76	0.8981
2130.79	0.8827
2138.83	0.8638
2146.87	0.8321
2154.91	0.7853
2162.95	0.7518
2170.99	0.7252
2179.03	0.6997
2187.07	0.6614
2195.11	0.6314
2203.15	0.6231
2211.19	0.6691
2219.22	0.7337
2227.26	0.7585
2235.3	0.765
2243.34	0.7905
2251.38	0.8164
2259.42	0.8395
2267.46	0.8545
2275.5	0.8667
2283.54	0.8741
2291.58	0.877
2299.62	0.875
2307.66	0.873
2315.69	0.8694
2323.73	0.8561
2331.77	0.8536
2339.81	0.8563
2347.85	0.8486
2355.89	0.8364
2363.93	0.8223
2371.97	0.7999
2380.01	0.7845
2388.05	0.7722
2396.09	0.7646
2404.13	0.759
2412.16	0.7528
2420.2	0.744
2428.24	0.7305
2436.28	0.7133
2444.32	0.6944
2452.36	0.6745
2460.4	0.6563
2468.44	0.6359
2476.48	0.6187
2484.52	0.606
2492.56	0.5926
2500.59	0.5785
2508.63	0.5624
2516.67	0.5423
2524.71	0.5176
2532.75	0.4953
2540.79	0.4744
2548.83	0.4566
2556.87	0.4378
2564.91	0.426
2572.95	0.3972
2580.99	0.371
2589.03	0.3566
2597.06	0.3471
2605.1	0.3397
2613.14	0.3349
2621.18	0.3314
2629.22	0.3325
2637.26	0.3388
2645.3	0.3379
2653.34	0.3269
2661.38	0.3169
2669.42	0.3103
2677.46	0.2978
2685.5	0.2882
2693.53	0.2873
2701.57	0.2769
2709.61	0.2818
2717.65	0.2856
2725.69	0.2969
2733.73	0.319
2741.77	0.3339
2749.81	0.343
2757.85	0.3409
2765.89	0.3407
2773.93	0.3426
2781.97	0.3296
2790	0.3122
2798.04	0.3058
2806.08	0.3078
2814.12	0.3086
2822.16	0.2995
2830.2	0.2834
2838.24	0.2749
2846.28	0.2682
2854.32	0.2592
2862.36	0.2649
2870.4	0.2894
2878.43	0.2852
2886.47	0.2825
2894.51	0.2687
2902.55	0.2393
2910.59	0.1968
2918.63	0.1928
2926.67	0.1912
2934.71	0.1742
2942.75	0.1469
2950.79	0.1337
2958.83	0.1779
2966.87	0.2265
2974.9	0.2382
2982.94	0.2585
2990.98	0.2638
2999.02	0.2759
3007.06	0.2973
3015.1	0.3153
3023.14	0.3345
3031.18	0.3532
3039.22	0.3696
3047.26	0.3843
3055.3	0.4104
3063.34	0.4327
3071.37	0.4539
3079.41	0.4825
3087.45	0.5118
3095.49	0.5377
3103.53	0.5605
3111.57	0.5832
3119.61	0.6097
3127.65	0.6415
3135.69	0.6677
3143.73	0.6796
3151.77	0.6911
3159.8	0.7037
3167.84	0.7131
3175.88	0.7209
3183.92	0.7296
3191.96	0.7259
3200	0.7135
3208.04	0.696
3216.08	0.657
3224.12	0.6009
3232.16	0.4682
3240.2	0.4644
3248.24	0.5864
3256.27	0.6989
3264.31	0.7165
3272.35	0.736
3280.39	0.7441
3288.43	0.7466
3296.47	0.7545
3304.51	0.7625
3312.55	0.7623
3320.59	0.7577
3328.63	0.7567
3336.67	0.7573
3344.71	0.7567
3352.74	0.7499
3360.78	0.7426
3368.82	0.7344
3376.86	0.7261
3384.9	0.7207
3392.94	0.7159
3400.98	0.7117
3409.02	0.7079
3417.06	0.7047
3425.1	0.7053
3433.14	0.7098
3441.17	0.7147
3449.21	0.7228
3457.25	0.7322
3465.29	0.7417
3473.33	0.752
3481.37	0.762
3489.41	0.7722
3497.45	0.7805
3505.49	0.7901
3513.53	0.7983
3521.57	0.8086
3529.61	0.8184
3537.64	0.8287
3545.68	0.8402
3553.72	0.8495
3561.76	0.8533
3569.8	0.8736
3577.84	0.89
3585.88	0.9119
3593.92	0.9209
3601.96	0.9286
3610	0.9327
3618.04	0.9457
3626.08	0.9532
3634.11	0.9669
3642.15	0.9695
3650.19	0.9727
3658.23	0.9815
3666.27	0.9936
3674.31	0.9983
3682.35	1.0007
3690.39	1.0026
3698.43	1.0096
3706.47	1.0174
3714.51	1.02
3722.54	1.0212
3730.58	1.0237
3738.62	1.0282
3746.66	1.0228
3754.7	1.011
3762.74	1.0042
3770.78	1.0084
3778.82	1.0158
3786.86	1.021
3794.9	1.022
3802.94	1.0266
3810.98	1.0303
