Infrared Spectrum: 3Alpha,5Alpha-Cycloandrostan-6Beta-ol,17-ethylenedioxy
Formula: C21 H32 O3
State: SOLUTION 7% (CHCl3 FOR 2.5-15 microns)
Class: COBLENTZ
Instrument: PERKIN-ELMER 21 (GRATING)
Instrument parameters: FILTER AT ABOUT 10 MICRONS
Path length: 0.01 CM
Resolution: 2
Origin: ABBOTT LABORATORIES
1/CM	TRANSMITTANCE
665	1.0024
674	1.0039
683	1.0037
692	1.0028
701	1.0023
710	1.001
719	0.9963
728	0.9869
737	0.9974
746	0.9997
755	0.9983
764	1.0014
773	1.0024
782	0.9997
791	0.992
800	0.9723
809	0.9249
818	0.8894
827	0.8618
836	0.8381
845	0.8562
854	0.8619
863	0.8242
872	0.7426
881	0.7238
890	0.7702
899	0.7192
908	0.5832
917	0.7066
926	0.6365
935	0.7423
944	0.3479
953	0.6187
962	0.6164
971	0.6909
980	0.7367
989	0.6863
998	0.7382
1007	0.6369
1016	0.4172
1025	0.3105
1034	0.3499
1043	0.2695
1052	0.3209
1061	0.5056
1070	0.6159
1079	0.5836
1088	0.5628
1097	0.3738
1106	0.327
1115	0.5714
1124	0.5459
1133	0.547
1142	0.5713
1151	0.5473
1160	0.3862
1169	0.3549
1178	0.3824
1187	0.6435
1196	0.7268
1205	0.6756
1214	0.6367
1223	0.5982
1232	0.5605
1241	0.5706
1250	0.6093
1259	0.6932
1268	0.6501
1277	0.5538
1286	0.6463
1295	0.7055
1304	0.525
1313	0.5026
1322	0.6727
1331	0.7276
1340	0.6841
1349	0.6439
1358	0.7183
1367	0.7358
1376	0.5652
1385	0.6267
1394	0.6181
1403	0.5989
1412	0.7359
1421	0.7841
1430	0.6959
1439	0.6466
1448	0.6638
1457	0.5567
1466	0.5755
1475	0.6467
1484	0.7573
1493	0.8278
1502	0.8644
1511	0.8881
1520	0.8995
1529	0.8967
1538	0.8825
1547	0.8701
1556	0.8607
1565	0.8546
1574	0.8503
1583	0.8501
1592	0.8505
1601	0.8511
1610	0.8511
1619	0.8509
1628	0.8504
1637	0.8516
1646	0.8536
1655	0.8566
1664	0.8583
1673	0.8591
1682	0.8588
1691	0.8577
1700	0.8566
1709	0.8566
1718	0.8568
1727	0.8582
1736	0.8594
1745	0.8603
1754	0.8611
1763	0.8616
1772	0.8615
1781	0.8608
1790	0.86
1799	0.8594
1808	0.8591
1817	0.8587
1826	0.8589
1835	0.8595
1844	0.86
1853	0.8605
1862	0.8601
1871	0.8596
1880	0.859
1889	0.8578
1898	0.8564
1907	0.8559
1916	0.8568
1925	0.8577
1934	0.8579
1943	0.8575
1952	0.8571
1961	0.8567
1970	0.8565
1979	0.8563
1988	0.8561
1997	0.856
2006	0.8558
2015	0.8558
2024	0.8559
2033	0.8562
2042	0.8564
2051	0.8566
2060	0.858
2069	0.8598
2078	0.8618
2087	0.8643
2096	0.8652
2105	0.8656
2114	0.8658
2123	0.8659
2132	0.8661
2141	0.8661
2150	0.866
2159	0.8659
2168	0.8658
2177	0.8657
2186	0.8656
2195	0.8656
2204	0.8655
2213	0.8655
2222	0.8655
2231	0.8655
2240	0.8654
2249	0.8653
2258	0.8653
2267	0.8656
2276	0.8665
2285	0.8692
2294	0.872
2303	0.8748
2312	0.8775
2321	0.8794
2330	0.8813
2339	0.8834
2348	0.8863
2357	0.8892
2366	0.8932
2375	0.8981
2384	0.9036
2393	0.8983
2402	0.8769
2411	0.8603
2420	0.8542
2429	0.8507
2438	0.8484
2447	0.8463
2456	0.845
2465	0.8451
2474	0.8458
2483	0.8475
2492	0.8488
2501	0.8494
2510	0.8495
2519	0.8489
2528	0.8483
2537	0.8478
2546	0.847
2555	0.8462
2564	0.8455
2573	0.8447
2582	0.8434
2591	0.8422
2600	0.841
2609	0.8397
2618	0.8385
2627	0.8374
2636	0.8362
2645	0.835
2654	0.8349
2663	0.8353
2672	0.8357
2681	0.8359
2690	0.8355
2699	0.835
2708	0.8346
2717	0.8333
2726	0.8313
2735	0.8294
2744	0.8266
2753	0.8228
2762	0.8155
2771	0.8061
2780	0.7951
2789	0.7822
2798	0.7687
2807	0.7535
2816	0.7369
2825	0.6756
2834	0.5358
2843	0.3968
2852	0.2918
2861	0.2877
2870	0.2838
2879	0.28
2888	0.276
2897	0.2596
2906	0.2325
2915	0.2203
2924	0.2182
2933	0.2362
2942	0.2549
2951	0.3063
2960	0.3734
2969	0.4403
2978	0.5067
2987	0.5727
2996	0.6383
3005	0.7035
3014	0.7684
3023	0.8206
3032	0.8323
3041	0.8382
3050	0.8424
3059	0.8471
3068	0.8551
3077	0.8642
3086	0.8684
3095	0.8696
3104	0.8704
3113	0.8703
3122	0.8698
3131	0.8695
3140	0.8706
3149	0.8717
3158	0.8728
3167	0.8735
3176	0.8743
3185	0.875
3194	0.8761
3203	0.8775
3212	0.8789
3221	0.8803
3230	0.8815
3239	0.8801
3248	0.8822
3257	0.8819
3266	0.8812
3275	0.88
3284	0.8787
3293	0.8776
3302	0.8764
3311	0.8754
3320	0.8743
3329	0.873
3338	0.8718
3347	0.8706
3356	0.8694
3365	0.8682
3374	0.8666
3383	0.8647
3392	0.8629
3401	0.861
3410	0.8592
3419	0.8574
3428	0.8556
3437	0.8538
3446	0.8521
3455	0.8515
3464	0.8511
3473	0.8508
3482	0.8505
3491	0.8508
3500	0.8514
3509	0.8521
3518	0.8527
3527	0.8529
3536	0.8426
3545	0.8227
3554	0.8028
3563	0.783
3572	0.7634
3581	0.7439
3590	0.7344
3599	0.7383
3608	0.7674
3617	0.8035
3626	0.8392
3635	0.8691
3644	0.877
3653	0.8815
3662	0.883
3671	0.884
3680	0.8851
3689	0.8858
3698	0.8859
3707	0.886
3716	0.8862
3725	0.8863
3734	0.8864
3743	0.8858
3752	0.8852
3761	0.8846
3770	0.8841
3779	0.8835
3788	0.8829
3797	0.8825
3806	0.882
3815	0.8815
3824	0.8811
3833	0.8806
3842	0.8802
3851	0.8797
3860	0.8793
3869	0.8788
3878	0.8784
3887	0.8784
3896	0.8782
3905	0.8781
3914	0.8779
3923	0.8778
3932	0.8777
3941	0.8777
3950	0.8776
3959	0.8776
3968	0.8775
3977	0.8774
3986	0.8774
3995	0.8773
