Infrared Spectrum: SECOANDROST-5-ENE-16-PEROXYACETIC ACID, 16,17-,17-CARBOXY-3-Beta-HYDROXY-, OO-tert-BUTYL O-METHYL ESTER,
Formula: C26 H40 O7
State: SOLUTION 7% (CHCl3 FOR 2.5-15 microns)
Class: COBLENTZ
Instrument: PERKIN-ELMER 421 (GRATING)
Instrument parameters: GRATING CHANGE AT 1999 CM^-^
Path length: 0.01 CM
Resolution: 2
Origin: ABBOTT LABORATORIES
1/CM	TRANSMITTANCE
719	0.8053
728	0.8063
737	0.8069
746	0.8072
755	0.8079
764	0.8092
773	0.8098
782	0.8092
791	0.8084
800	0.8074
809	0.8062
818	0.8181
827	0.8217
836	0.7312
845	0.7558
854	0.7954
863	0.7961
872	0.8209
881	0.8172
890	0.7538
899	0.7746
908	0.8249
917	0.8228
926	0.806
935	0.8125
944	0.8045
953	0.8249
962	0.7908
971	0.6815
980	0.7472
989	0.7301
998	0.6401
1007	0.5493
1016	0.3647
1025	0.3795
1034	0.5622
1043	0.6005
1052	0.5935
1061	0.5242
1070	0.52
1079	0.4722
1088	0.3859
1097	0.3498
1106	0.3249
1115	0.4478
1124	0.6174
1133	0.6316
1142	0.6212
1151	0.6371
1160	0.6049
1169	0.5133
1178	0.4192
1187	0.3679
1196	0.3165
1205	0.2651
1214	0.2138
1223	0.1624
1232	0.1138
1241	0.1003
1250	0.1749
1259	0.3212
1268	0.4676
1277	0.614
1286	0.6347
1295	0.689
1304	0.6772
1313	0.7718
1322	0.7847
1331	0.7935
1340	0.7423
1349	0.509
1358	0.2268
1367	0.4873
1376	0.5043
1385	0.7579
1394	0.7897
1403	0.7525
1412	0.7066
1421	0.5855
1430	0.5679
1439	0.624
1448	0.6001
1457	0.6276
1466	0.7076
1475	0.8456
1484	0.8677
1493	0.8776
1502	0.884
1511	0.8926
1520	0.896
1529	0.898
1538	0.8972
1547	0.8963
1556	0.894
1565	0.8915
1574	0.8884
1583	0.885
1592	0.8804
1601	0.875
1610	0.8686
1619	0.8614
1628	0.8532
1637	0.8423
1646	0.8281
1655	0.8079
1664	0.7682
1673	0.7486
1682	0.6774
1691	0.5137
1700	0.1898
1709	0.0861
1718	0.1154
1727	0.3201
1736	0.4535
1745	0.3924
1754	0.2694
1763	0.2904
1772	0.5315
1781	0.7254
1790	0.8089
1799	0.8409
1808	0.8603
1817	0.8736
1826	0.8872
1835	0.8901
1844	0.891
1853	0.8923
1862	0.8937
1871	0.8953
1880	0.8978
1889	0.8989
1898	0.8967
1907	0.8962
1916	0.8965
1925	0.897
1934	0.8947
1943	0.8909
1952	0.8955
1961	0.8979
1970	0.8968
1979	0.8952
1988	0.8941
1997	0.8938
2006	0.8935
2015	0.8929
2024	0.8923
2033	0.8943
2042	0.898
2051	0.9007
2060	0.901
2069	0.9003
2078	0.8994
2087	0.8979
2096	0.8963
2105	0.8961
2114	0.8963
2123	0.8966
2132	0.8966
2141	0.8965
2150	0.8964
2159	0.8962
2168	0.8962
2177	0.8963
2186	0.8964
2195	0.8966
2204	0.8968
2213	0.897
2222	0.8966
2231	0.8962
2240	0.8958
2249	0.8958
2258	0.8958
2267	0.8956
2276	0.8954
2285	0.8962
2294	0.8976
2303	0.8987
2312	0.8993
2321	0.9
2330	0.9007
2339	0.9006
2348	0.898
2357	0.8949
2366	0.8932
2375	0.8885
2384	0.8856
2393	0.8818
2402	0.8789
2411	0.876
2420	0.8744
2429	0.8748
2438	0.8764
2447	0.8784
2456	0.8804
2465	0.8816
2474	0.8837
2483	0.8898
2492	0.8924
2501	0.8929
2510	0.8932
2519	0.8939
2528	0.8943
2537	0.8943
2546	0.894
2555	0.8935
2564	0.8929
2573	0.8922
2582	0.8912
2591	0.8901
2600	0.889
2609	0.8879
2618	0.8867
2627	0.8859
2636	0.8853
2645	0.8849
2654	0.8845
2663	0.8832
2672	0.8819
2681	0.8819
2690	0.8826
2699	0.8814
2708	0.88
2717	0.879
2726	0.8795
2735	0.8801
2744	0.8784
2753	0.8753
2762	0.8708
2771	0.8652
2780	0.8578
2789	0.8489
2798	0.8375
2807	0.8219
2816	0.7946
2825	0.7407
2834	0.6854
2843	0.6472
2852	0.6301
2861	0.6126
2870	0.609
2879	0.5968
2888	0.5623
2897	0.5178
2906	0.506
2915	0.4768
2924	0.4235
2933	0.344
2942	0.3534
2951	0.4068
2960	0.3752
2969	0.3378
2978	0.4237
2987	0.5323
2996	0.5339
3005	0.5238
3014	0.5298
3023	0.5893
3032	0.6935
3041	0.7494
3050	0.7818
3059	0.792
3068	0.7966
3077	0.7996
3086	0.8074
3095	0.8145
3104	0.8151
3113	0.8166
3122	0.8202
3131	0.8304
3140	0.8353
3149	0.8381
3158	0.8417
3167	0.8458
3176	0.8497
3185	0.8517
3194	0.8536
3203	0.855
3212	0.8563
3221	0.8576
3230	0.8585
3239	0.8575
3248	0.858
3257	0.8605
3266	0.8608
3275	0.8603
3284	0.8598
3293	0.8591
3302	0.8585
3311	0.857
3320	0.8552
3329	0.8538
3338	0.8535
3347	0.8533
3356	0.8513
3365	0.8494
3374	0.8478
3383	0.8461
3392	0.8444
3401	0.8427
3410	0.8421
3419	0.8421
3428	0.8453
3437	0.8484
3446	0.8502
3455	0.8513
3464	0.8519
3473	0.851
3482	0.8501
3491	0.8481
3500	0.8441
3509	0.84
3518	0.8363
3527	0.8384
3536	0.8505
3545	0.856
3554	0.8588
3563	0.8606
3572	0.8622
3581	0.8637
3590	0.8653
3599	0.8676
3608	0.8685
3617	0.8673
3626	0.8638
3635	0.8624
3644	0.8605
3653	0.859
3662	0.8574
3671	0.8576
3680	0.8607
3689	0.8629
3698	0.864
3707	0.8639
3716	0.8624
3725	0.8614
3734	0.8604
3743	0.86
3752	0.8598
3761	0.8597
3770	0.8598
3779	0.8595
3788	0.8588
3797	0.8579
3806	0.8564
3815	0.8548
3824	0.8533
3833	0.8525
3842	0.8519
3851	0.851
3860	0.8499
3869	0.8491
3878	0.8493
3887	0.8495
3896	0.8508
3905	0.8518
3914	0.8513
3923	0.8493
3932	0.8483
3941	0.8477
3950	0.8472
3959	0.8467
3968	0.846
3977	0.8454
3986	0.845
3995	0.8448
