Infrared Spectrum: 5-METHYL-7-OXO-1,2,3a,4-TETRAZAINDENE
Formula: C6 H6 N4 O
State: SOLID (KBr PRESSING)
Melting point: 296-298 C
Class: COBLENTZ
Instrument: Not specified, most likely a prism, grating, or hybrid spectrometer.
Sampling: TRANSMISSION
Resolution: 4
Origin: EASTMAN KODAK COMPANY, RESEARCH LABORATORIES, ROCHESTER, N.Y.
MICROMETERS	TRANSMITTANCE
2.031	0.642
2.0661	0.65
2.1012	0.659
2.13629	0.668
2.17139	0.677
2.20649	0.682
2.24159	0.687
2.27669	0.691
2.31178	0.694
2.34688	0.699
2.38198	0.705
2.41708	0.712
2.45217	0.719
2.48727	0.724
2.52237	0.729
2.55747	0.739
2.59257	0.746
2.62766	0.748
2.66276	0.757
2.69786	0.757
2.73296	0.75
2.76806	0.706
2.80315	0.642
2.83825	0.575
2.87335	0.539
2.90845	0.523
2.94355	0.547
2.97864	0.591
3.01374	0.647
3.04884	0.685
3.08394	0.694
3.11903	0.696
3.15413	0.689
3.18923	0.647
3.22433	0.336
3.25943	0.431
3.29452	0.432
3.32962	0.427
3.36472	0.399
3.39982	0.349
3.43492	0.389
3.47001	0.389
3.50511	0.378
3.54021	0.373
3.57531	0.368
3.61041	0.354
3.6455	0.371
3.6806	0.366
3.7157	0.329
3.7508	0.303
3.78589	0.296
3.82099	0.28
3.85609	0.268
3.89119	0.249
3.92629	0.211
3.96138	0.214
3.99648	0.216
4.03158	0.216
4.06668	0.232
4.10178	0.233
4.13687	0.247
4.17197	0.267
4.20707	0.277
4.24217	0.282
4.27727	0.298
4.31236	0.345
4.34746	0.389
4.38256	0.399
4.41766	0.429
4.45275	0.448
4.48785	0.464
4.52295	0.5
4.55805	0.527
4.59315	0.532
4.62824	0.549
4.66334	0.567
4.69844	0.579
4.73354	0.591
4.76864	0.609
4.80373	0.623
4.83883	0.633
4.87393	0.638
4.90903	0.661
4.94412	0.664
4.97922	0.691
5.01432	0.708
5.04942	0.717
5.08452	0.731
5.11961	0.729
5.15471	0.727
5.18981	0.734
5.22491	0.736
5.26001	0.736
5.2951	0.734
5.3302	0.722
5.3653	0.713
5.4004	0.699
5.4355	0.689
5.47059	0.677
5.50569	0.65
5.54079	0.623
5.57589	0.612
5.61098	0.591
5.64608	0.581
5.68118	0.575
5.71628	0.565
5.75138	0.541
5.78647	0.506
5.82157	0.476
5.85667	0.5
5.89177	0.516
5.92687	0.502
5.96196	0.528
5.99706	0.567
6.03216	0.591
6.06726	0.598
6.10236	0.598
6.13745	0.579
6.17255	0.549
6.20765	0.568
6.24275	0.56
6.27784	0.457
6.31294	0.225
6.34804	0.111
6.38314	0.08
6.41824	0.071
6.45333	0.083
6.48843	0.155
6.52353	0.294
6.55863	0.333
6.59373	0.354
6.62882	0.352
6.66392	0.246
6.69902	0.16
6.73412	0.212
6.76922	0.242
6.80431	0.209
6.83941	0.197
6.87451	0.188
6.90961	0.146
6.9447	0.101
6.9798	0.099
7.0149	0.116
7.05	0.153
7.0851	0.179
7.12019	0.214
7.15529	0.253
7.19039	0.319
7.22549	0.41
7.26059	0.438
7.29568	0.375
7.33078	0.279
7.36588	0.237
7.40098	0.12
7.43608	0.104
7.47117	0.148
7.50627	0.198
7.54137	0.247
7.57647	0.335
7.61156	0.378
7.64666	0.465
7.68176	0.532
7.71686	0.464
7.75196	0.211
7.78705	0.181
7.82215	0.27
7.85725	0.396
7.89235	0.452
7.92745	0.499
7.96254	0.537
7.99764	0.575
8.03274	0.602
8.06784	0.631
8.10294	0.636
8.13803	0.671
8.17313	0.698
8.20823	0.726
8.24333	0.722
8.27842	0.65
8.31352	0.406
8.34862	0.369
8.38372	0.179
8.41882	0.212
8.45391	0.445
8.48901	0.516
8.52411	0.574
8.55921	0.616
8.59431	0.642
8.6294	0.65
8.6645	0.486
8.6996	0.465
8.7347	0.561
8.7698	0.616
8.80489	0.67
8.83999	0.685
8.87509	0.691
8.91019	0.701
8.94528	0.706
8.98038	0.717
9.01548	0.729
9.05058	0.734
9.08568	0.739
9.12077	0.745
9.15587	0.752
9.19097	0.753
9.22607	0.753
9.26117	0.75
9.29626	0.75
9.33136	0.752
9.36646	0.755
9.40156	0.762
9.43666	0.773
9.47175	0.778
9.50685	0.771
9.54195	0.753
9.57705	0.741
9.61214	0.732
9.64724	0.72
9.68234	0.678
9.71744	0.621
9.75254	0.53
9.78763	0.413
9.82273	0.369
9.85783	0.493
9.89293	0.584
9.92803	0.647
9.96312	0.673
9.99822	0.689
10.0333	0.663
10.0684	0.591
10.1035	0.588
10.1386	0.663
10.1737	0.713
10.2088	0.675
10.2439	0.422
10.279	0.593
10.3141	0.689
10.3492	0.736
10.3843	0.753
10.4194	0.76
10.4545	0.769
10.4896	0.778
10.5247	0.781
10.5598	0.787
10.5949	0.783
10.63	0.78
10.6651	0.771
10.7002	0.76
10.7353	0.752
10.7704	0.743
10.8055	0.732
10.8406	0.713
10.8757	0.682
10.9108	0.661
10.9459	0.623
10.981	0.591
11.0161	0.553
11.0512	0.53
11.0863	0.53
11.1214	0.535
11.1565	0.56
11.1915	0.586
11.2266	0.607
11.2617	0.636
11.2968	0.649
11.3319	0.664
11.367	0.666
11.4021	0.623
11.4372	0.513
11.4723	0.376
11.5074	0.361
11.5425	0.474
11.5776	0.591
11.6127	0.654
11.6478	0.666
11.6829	0.6
11.718	0.513
11.7531	0.488
11.7882	0.53
11.8233	0.605
11.8584	0.678
11.8935	0.724
11.9286	0.755
11.9637	0.788
11.9988	0.794
12.0339	0.795
12.069	0.753
12.1041	0.598
12.1392	0.401
12.1743	0.345
12.2094	0.452
12.2445	0.586
12.2796	0.673
12.3147	0.717
12.3498	0.757
12.3849	0.785
12.42	0.804
12.4551	0.813
12.4902	0.825
12.5253	0.83
12.5604	0.837
12.5955	0.844
12.6306	0.846
12.6657	0.848
12.7008	0.853
12.7359	0.855
12.771	0.86
12.8061	0.855
12.8412	0.855
12.8762	0.853
12.9113	0.853
12.9464	0.853
12.9815	0.849
13.0166	0.844
13.0517	0.835
13.0868	0.827
13.1219	0.818
13.157	0.811
13.1921	0.804
13.2272	0.783
13.2623	0.785
13.2974	0.813
13.3325	0.835
13.3676	0.849
13.4027	0.872
13.4378	0.879
13.4729	0.891
13.508	0.907
13.5431	0.912
13.5782	0.919
13.6133	0.923
13.6484	0.923
13.6835	0.923
13.7186	0.926
13.7537	0.931
13.7888	0.935
13.8239	0.935
13.859	0.933
13.8941	0.935
13.9292	0.931
13.9643	0.93
13.9994	0.933
14.0345	0.93
14.0696	0.919
14.1047	0.893
14.1398	0.865
14.1749	0.827
14.21	0.774
14.2451	0.734
14.2802	0.685
14.3153	0.647
14.3504	0.624
14.3855	0.631
14.4206	0.705
14.4557	0.78
14.4908	0.841
14.5258	0.87
14.5609	0.893
14.596	0.905
14.6311	0.909
14.6662	0.909
14.7013	0.909
14.7364	0.909
14.7715	0.909
14.8066	0.909
14.8417	0.905
14.8768	0.895
14.9119	0.86
14.947	0.815
14.9821	0.755
15.0172	0.734
15.0523	0.764
15.0874	0.794
15.1225	0.795
15.1576	0.729
15.1927	0.607
15.2278	0.513
15.2629	0.514
15.298	0.582
15.3331	0.656
15.3682	0.712
15.4033	0.745
15.4384	0.766
15.4735	0.785
15.5086	0.79
15.5437	0.792
15.5788	0.794
15.6139	0.785
15.649	0.794
15.6841	0.79
15.7192	0.783
15.7543	0.781
15.7894	0.774
15.8245	0.769
15.8596	0.764
15.8947	0.762
15.9298	0.755
15.9649	0.753
16	0.748
