Infrared Spectrum: p-Biphenylglyoxal, hydrate
Formula: C14 H10 O2  * H2 O
State: SOLID (OIL MULL)
Class: COBLENTZ III
Instrument: PERKIN-ELMER 21 (GRATING)
Instrument parameters: NaCl PRISM
Sampling: TRANSMISSION
Resolution: 2
Origin: SMITH KLINE & FRENCH LABS.
1/CM	TRANSMITTANCE
4000	0.4712
3991	0.4728
3982	0.4742
3973	0.4756
3964	0.4774
3955	0.4794
3946	0.4814
3937	0.4834
3928	0.4854
3919	0.4873
3910	0.4894
3901	0.4912
3892	0.4932
3883	0.4952
3874	0.4969
3865	0.4984
3856	0.4999
3847	0.501
3838	0.5017
3829	0.5025
3820	0.5033
3811	0.5041
3802	0.505
3793	0.5059
3784	0.5068
3775	0.5078
3766	0.5089
3757	0.51
3748	0.5112
3739	0.5122
3730	0.5134
3721	0.515
3712	0.5166
3703	0.5177
3694	0.5188
3685	0.52
3676	0.5212
3667	0.5228
3658	0.5243
3649	0.526
3640	0.5278
3631	0.5319
3622	0.5358
3613	0.5384
3604	0.5403
3595	0.5418
3586	0.5432
3577	0.5444
3568	0.5457
3559	0.5471
3550	0.5484
3541	0.5496
3532	0.5507
3523	0.5519
3514	0.5528
3505	0.5532
3496	0.5534
3487	0.5532
3478	0.5403
3469	0.5223
3460	0.5079
3451	0.4915
3442	0.47
3433	0.4493
3424	0.4176
3415	0.3712
3406	0.3245
3397	0.2775
3388	0.2303
3379	0.2103
3370	0.2105
3361	0.2117
3352	0.222
3343	0.2195
3334	0.2188
3325	0.2126
3316	0.2105
3307	0.2149
3298	0.2346
3289	0.2507
3280	0.2645
3271	0.2784
3262	0.2925
3253	0.3066
3244	0.3208
3235	0.335
3226	0.3494
3217	0.3639
3208	0.3782
3199	0.39
3190	0.3999
3181	0.4082
3172	0.4167
3163	0.4251
3154	0.4342
3145	0.443
3136	0.4478
3127	0.4522
3118	0.4565
3109	0.4602
3100	0.4636
3091	0.4667
3082	0.4692
3073	0.471
3064	0.4721
3055	0.4727
3046	0.4729
3037	0.4726
3028	0.4712
3019	0.4665
3010	0.4597
3001	0.4531
2992	0.4477
2983	0.4424
2974	0.4349
2965	0.4165
2956	0.3847
2947	0.357
2938	0.2899
2929	0.2219
2920	0.1894
2911	0.1338
2902	0.0832
2893	0.0691
2884	0.0636
2875	0.0625
2866	0.0622
2857	0.0624
2848	0.0632
2839	0.0659
2830	0.068
2821	0.0683
2812	0.0688
2803	0.0855
2794	0.1614
2785	0.2543
2776	0.3479
2767	0.4041
2758	0.4391
2749	0.4824
2740	0.5182
2731	0.5338
2722	0.5487
2713	0.5573
2704	0.5612
2695	0.5621
2686	0.5624
2677	0.5631
2668	0.566
2659	0.5693
2650	0.5708
2641	0.5716
2632	0.5732
2623	0.5751
2614	0.5777
2605	0.5802
2596	0.5824
2587	0.5846
2578	0.5882
2569	0.5924
2560	0.5967
2551	0.6015
2542	0.6062
2533	0.6114
2524	0.6166
2515	0.6212
2506	0.625
2497	0.6286
2488	0.631
2479	0.6338
2470	0.6367
2461	0.6398
2452	0.643
2443	0.6458
2434	0.6487
2425	0.6517
2416	0.6546
2407	0.6567
2398	0.6588
2389	0.6607
2380	0.6625
2371	0.6644
2362	0.6665
2353	0.6682
2344	0.6698
2335	0.6681
2326	0.663
2317	0.6619
2308	0.6622
2299	0.6644
2290	0.6675
2281	0.6725
2272	0.6796
2263	0.6843
2254	0.6854
2245	0.6861
2236	0.6871
2227	0.6887
2218	0.6912
2209	0.6939
2200	0.6965
2191	0.6992
2182	0.7017
2173	0.7043
2164	0.7049
2155	0.7042
2146	0.7046
2137	0.7083
2128	0.7126
2119	0.7144
2110	0.7154
2101	0.7164
2092	0.7174
2083	0.719
2074	0.721
2065	0.7231
2056	0.7243
2047	0.7254
2038	0.7262
2029	0.7271
2020	0.7272
2011	0.7278
2002	0.7296
1993	0.7339
1984	0.7365
1975	0.7367
1966	0.7365
1957	0.7362
1948	0.7343
1939	0.7297
1930	0.7275
1921	0.7299
1912	0.7342
1903	0.7368
1894	0.7399
1885	0.7426
1876	0.7445
1867	0.7453
1858	0.7498
1849	0.7586
1840	0.7634
1831	0.7646
1822	0.7643
1813	0.7619
1804	0.7584
1795	0.7588
1786	0.7608
1777	0.763
1768	0.7647
1759	0.7657
1750	0.766
1741	0.7654
1732	0.7557
1723	0.7435
1714	0.7368
1705	0.691
1696	0.466
1687	0.2158
1678	0.2223
1669	0.4772
1660	0.582
1651	0.609
1642	0.6264
1633	0.6498
1624	0.6791
1615	0.696
1606	0.6661
1597	0.3898
1588	0.5934
1579	0.6714
1570	0.6892
1561	0.7064
1552	0.6621
1543	0.7065
1534	0.7141
1525	0.7119
1516	0.7083
1507	0.7083
1498	0.7021
1489	0.669
1480	0.5221
1471	0.4448
1462	0.2247
1453	0.1817
1444	0.2029
1435	0.2921
1426	0.4671
1417	0.5249
1408	0.5649
1399	0.439
1390	0.5136
1381	0.465
1372	0.2534
1363	0.3938
1354	0.5104
1345	0.5784
1336	0.5539
1327	0.6097
1318	0.6288
1309	0.5826
1300	0.5846
1291	0.542
1282	0.521
1273	0.5372
1264	0.5507
1255	0.5765
1246	0.5983
1237	0.4312
1228	0.3188
1219	0.3823
1210	0.4536
1201	0.4739
1192	0.5864
1183	0.6023
1174	0.6168
1165	0.6358
1156	0.6123
1147	0.6001
1138	0.5625
1129	0.3197
1120	0.2576
1111	0.461
1102	0.5545
1093	0.6247
1084	0.6562
1075	0.6656
1066	0.6568
1057	0.6621
1048	0.6143
1039	0.5024
1030	0.2484
1021	0.4519
1012	0.326
1003	0.546
994	0.6299
985	0.6441
976	0.6106
967	0.2932
958	0.6012
949	0.482
940	0.6625
931	0.7044
922	0.7341
913	0.7485
904	0.7449
895	0.7751
886	0.7842
877	0.7819
868	0.7084
859	0.516
850	0.7454
841	0.7525
832	0.7605
823	0.5817
814	0.628
805	0.7615
796	0.7951
787	0.8022
778	0.798
769	0.716
760	0.5753
751	0.2077
742	0.6164
733	0.6035
724	0.3514
715	0.5749
706	0.6983
697	0.5859
688	0.2821
679	0.5623
670	0.6511
