Infrared Spectrum: ARSENIC TRIOXIDE
Formula: As2 O3
State: SOLID (NUJOL MULL)
Class: COBLENTZ
Instrument: Not specified, most likely a prism, grating, or hybrid spectrometer.
Sampling: TRANSMISSION
Resolution: 4
Origin: MELLON INSTITUTE
MICROMETERS	TRANSMITTANCE
2.064	0.864
2.10499	0.862
2.14599	0.862
2.18698	0.862
2.22798	0.86
2.26897	0.86
2.30996	0.86
2.35096	0.86
2.39195	0.862
2.43295	0.862
2.47394	0.862
2.51494	0.864
2.55593	0.864
2.59692	0.864
2.63792	0.865
2.67891	0.864
2.71991	0.864
2.7609	0.862
2.80189	0.862
2.84289	0.862
2.88388	0.862
2.92488	0.862
2.96587	0.862
3.00686	0.862
3.04786	0.862
3.08885	0.862
3.12985	0.864
3.17084	0.864
3.21184	0.864
3.25283	0.865
3.29382	0.86
3.33482	0.757
3.37581	0.534
3.41681	0.568
3.4578	0.604
3.49879	0.704
3.53979	0.828
3.58078	0.871
3.62178	0.891
3.66277	0.902
3.70377	0.907
3.74476	0.908
3.78575	0.912
3.82675	0.914
3.86774	0.914
3.90874	0.917
3.94973	0.917
3.99072	0.922
4.03172	0.92
4.07271	0.917
4.11371	0.915
4.1547	0.914
4.19569	0.91
4.23669	0.905
4.27768	0.9
4.31868	0.9
4.35967	0.9
4.40067	0.898
4.44166	0.898
4.48265	0.898
4.52365	0.895
4.56464	0.895
4.60564	0.896
4.64663	0.895
4.68762	0.895
4.72862	0.898
4.76961	0.902
4.81061	0.903
4.8516	0.905
4.89259	0.905
4.93359	0.908
4.97458	0.908
5.01558	0.914
5.05657	0.915
5.09757	0.915
5.13856	0.917
5.17955	0.917
5.22055	0.92
5.26154	0.922
5.30254	0.922
5.34353	0.924
5.38452	0.924
5.42552	0.924
5.46651	0.926
5.50751	0.926
5.5485	0.926
5.58949	0.931
5.63049	0.934
5.67148	0.938
5.71248	0.941
5.75347	0.945
5.79447	0.946
5.83546	0.95
5.87645	0.953
5.91745	0.957
5.95844	0.958
5.99944	0.963
6.04043	0.965
6.08142	0.965
6.12242	0.967
6.16341	0.967
6.20441	0.967
6.2454	0.969
6.2864	0.969
6.32739	0.969
6.36838	0.969
6.40938	0.967
6.45037	0.967
6.49137	0.969
6.53236	0.969
6.57335	0.967
6.61435	0.963
6.65534	0.963
6.69634	0.963
6.73733	0.951
6.77832	0.869
6.81932	0.845
6.86031	0.855
6.90131	0.883
6.9423	0.903
6.9833	0.927
7.02429	0.939
7.06528	0.946
7.10628	0.953
7.14727	0.953
7.18827	0.938
7.22926	0.907
7.27025	0.917
7.31125	0.927
7.35224	0.943
7.39324	0.948
7.43423	0.953
7.47522	0.957
7.51622	0.957
7.55721	0.957
7.59821	0.958
7.6392	0.957
7.6802	0.957
7.72119	0.957
7.76218	0.96
7.80318	0.962
7.84417	0.962
7.88517	0.96
7.92616	0.96
7.96715	0.962
8.00815	0.96
8.04914	0.96
8.09014	0.96
8.13113	0.96
8.17212	0.962
8.21312	0.962
8.25411	0.962
8.29511	0.963
8.3361	0.963
8.3771	0.963
8.41809	0.963
8.45908	0.965
8.50008	0.965
8.54107	0.965
8.58207	0.965
8.62306	0.965
8.66405	0.965
8.70505	0.967
8.74604	0.965
8.78704	0.965
8.82803	0.965
8.86902	0.967
8.91002	0.963
8.95101	0.962
8.99201	0.963
9.033	0.963
9.074	0.963
9.11499	0.962
9.15598	0.962
9.19698	0.96
9.23797	0.96
9.27897	0.96
9.31996	0.958
9.36095	0.957
9.40195	0.946
9.44294	0.945
9.48394	0.938
9.52493	0.932
9.56593	0.927
9.60692	0.927
9.64791	0.927
9.68891	0.932
9.7299	0.936
9.7709	0.946
9.81189	0.951
9.85288	0.955
9.89388	0.955
9.93487	0.962
9.97587	0.967
10.0169	0.967
10.0579	0.969
10.0988	0.969
10.1398	0.969
10.1808	0.969
10.2218	0.969
10.2628	0.969
10.3038	0.969
10.3448	0.969
10.3858	0.969
10.4268	0.969
10.4678	0.969
10.5088	0.967
10.5498	0.967
10.5908	0.967
10.6318	0.969
10.6728	0.967
10.7138	0.967
10.7548	0.967
10.7957	0.965
10.8367	0.967
10.8777	0.965
10.9187	0.965
10.9597	0.967
11.0007	0.969
11.0417	0.967
11.0827	0.965
11.1237	0.96
11.1647	0.963
11.2057	0.962
11.2467	0.958
11.2877	0.957
11.3287	0.958
11.3697	0.957
11.4107	0.955
11.4517	0.953
11.4926	0.95
11.5336	0.945
11.5746	0.936
11.6156	0.919
11.6566	0.888
11.6976	0.838
11.7386	0.776
11.7796	0.702
11.8206	0.634
11.8616	0.597
11.9026	0.577
11.9436	0.56
11.9846	0.536
12.0256	0.505
12.0666	0.484
12.1076	0.451
12.1486	0.42
12.1895	0.383
12.2305	0.343
12.2715	0.307
12.3125	0.266
12.3535	0.238
12.3945	0.209
12.4355	0.195
12.4765	0.194
12.5175	0.264
12.5585	0.403
12.5995	0.553
12.6405	0.618
12.6815	0.687
12.7225	0.725
12.7635	0.747
12.8045	0.766
12.8455	0.776
12.8864	0.792
12.9274	0.802
12.9684	0.81
13.0094	0.819
13.0504	0.824
13.0914	0.828
13.1324	0.831
13.1734	0.831
13.2144	0.833
13.2554	0.833
13.2964	0.833
13.3374	0.831
13.3784	0.831
13.4194	0.828
13.4604	0.826
13.5014	0.823
13.5424	0.817
13.5833	0.81
13.6243	0.807
13.6653	0.802
13.7063	0.797
13.7473	0.792
13.7883	0.783
13.8293	0.78
13.8703	0.774
13.9113	0.768
13.9523	0.762
13.9933	0.761
14.0343	0.754
14.0753	0.747
14.1163	0.743
14.1573	0.737
14.1983	0.731
14.2393	0.726
14.2802	0.718
14.3212	0.714
14.3622	0.707
14.4032	0.702
14.4442	0.697
14.4852	0.694
14.5262	0.689
14.5672	0.683
14.6082	0.68
14.6492	0.675
14.6902	0.673
14.7312	0.668
14.7722	0.666
14.8132	0.664
14.8542	0.659
14.8952	0.654
14.9362	0.654
14.9771	0.652
15.0181	0.652
15.0591	0.652
15.1001	0.652
15.1411	0.654
15.1821	0.654
15.2231	0.656
15.2641	0.656
15.3051	0.659
15.3461	0.661
15.3871	0.664
15.4281	0.666
15.4691	0.671
15.5101	0.675
15.5511	0.678
15.5921	0.682
15.6331	0.687
15.674	0.692
15.715	0.699
15.756	0.702
15.797	0.711
15.838	0.716
15.879	0.725
15.92	0.731
15.961	0.743
16.002	0.747
