Infrared Spectrum: 1-AMINO-2,6-DIMETHYLPIPERIDINE DIHYDROCHLORIDE
Formula: C7 H18 Cl2 N2
State: SOLID (SPLIT MULL), FLUOROLUBE FOR 3800-1335 CM^-^1, NUJOL FOR 1335-460 CM^-^1
Melting point: 289 C
Class: COBLENTZ III
Instrument: DOW KBr FOREPRISM-GRATING
Instrument parameters: BLAZED AT 3.5, 12.0, 20.0 MICRON AND CHANGED AT 5.0, 7.5, 14.9 MICRON
Sampling: TRANSMISSION
Resolution: 2
Origin: DOW CHEMICAL COMPANY
1/CM	TRANSMITTANCE
458.022	0.76
466.813	0.76
475.604	0.757
484.396	0.708
493.187	0.398
501.978	0.789
510.769	0.81
519.561	0.812
528.352	0.809
537.143	0.815
545.934	0.812
554.726	0.715
563.517	0.819
572.308	0.834
581.099	0.843
589.89	0.85
598.682	0.853
607.473	0.856
616.264	0.853
625.055	0.852
633.847	0.856
642.638	0.856
651.429	0.857
660.22	0.857
669.012	0.869
677.803	0.882
686.594	0.879
695.385	0.872
704.176	0.865
712.968	0.836
721.759	0.787
730.55	0.819
739.341	0.831
748.133	0.85
756.924	0.856
765.715	0.857
774.506	0.858
783.298	0.856
792.089	0.857
800.88	0.868
809.671	0.868
818.462	0.86
827.254	0.85
836.045	0.852
844.836	0.852
853.627	0.846
862.419	0.83
871.21	0.842
880.001	0.832
888.792	0.615
897.584	0.836
906.375	0.836
915.166	0.831
923.957	0.835
932.749	0.83
941.54	0.824
950.331	0.764
959.122	0.793
967.913	0.745
976.705	0.649
985.496	0.819
994.287	0.824
1003.08	0.732
1011.87	0.793
1020.66	0.819
1029.45	0.8
1038.24	0.806
1047.03	0.809
1055.83	0.717
1064.62	0.573
1073.41	0.789
1082.2	0.806
1090.99	0.819
1099.78	0.773
1108.57	0.52
1117.36	0.778
1126.16	0.82
1134.95	0.815
1143.74	0.808
1152.53	0.812
1161.32	0.798
1170.11	0.79
1178.9	0.6819
1187.69	0.716
1196.49	0.66
1205.28	0.812
1214.07	0.812
1222.86	0.747
1231.65	0.806
1240.44	0.809
1249.23	0.793
1258.02	0.793
1266.82	0.783
1275.61	0.773
1284.4	0.758
1293.19	0.775
1301.98	0.76
1310.77	0.721
1319.56	0.706
1328.35	0.75
1337.15	0.742
1345.94	0.676
1354.73	0.742
1363.52	0.782
1372.31	0.735
1381.1	0.5898
1389.89	0.4193
1398.68	0.812
1407.48	0.813
1416.27	0.815
1425.06	0.815
1433.85	0.6689
1442.64	0.698
1451.43	0.721
1460.22	0.561
1469.01	0.3631
1477.8	0.7861
1486.6	0.931
1495.39	0.946
1504.18	0.936
1512.97	0.923
1521.76	0.915
1530.55	0.912
1539.34	0.923
1548.13	0.92
1556.93	0.921
1565.72	0.926
1574.51	0.904
1583.3	0.7579
1592.09	0.7311
1600.88	0.968
1609.67	0.98
1618.46	0.984
1627.26	0.968
1636.05	0.972
1644.84	0.971
1653.63	0.954
1662.42	0.945
1671.21	0.956
1680	0.957
1688.79	0.968
1697.59	0.971
1706.38	0.965
1715.17	0.961
1723.96	0.943
1732.75	0.943
1741.54	0.956
1750.33	0.954
1759.12	0.954
1767.92	0.954
1776.71	0.957
1785.5	0.956
1794.29	0.954
1803.08	0.954
1811.87	0.95
1820.66	0.945
1829.45	0.945
1838.25	0.939
1847.04	0.939
1855.83	0.924
1864.62	0.923
1873.41	0.939
1882.2	0.939
1890.99	0.934
1899.78	0.941
1908.58	0.949
1917.37	0.949
1926.16	0.936
1934.95	0.906
1943.74	0.91
1952.53	0.935
1961.32	0.947
1970.11	0.954
1978.91	0.949
1987.7	0.946
1996.49	0.941
2005.28	0.935
2014.07	0.934
2022.86	0.932
2031.65	0.932
2040.44	0.931
2049.23	0.928
2058.03	0.919
2066.82	0.904
2075.61	0.8723
2084.4	0.752
2093.19	0.7998
2101.98	0.8512
2110.77	0.912
2119.56	0.91
2128.36	0.909
2137.15	0.904
2145.94	0.8802
2154.73	0.872
2163.52	0.8778
2172.31	0.879
2181.1	0.878
2189.89	0.886
2198.69	0.882
2207.48	0.871
2216.27	0.869
2225.06	0.8691
2233.85	0.8583
2242.64	0.852
2251.43	0.8392
2260.22	0.82
2269.02	0.821
2277.81	0.823
2286.6	0.8132
2295.39	0.7972
2304.18	0.7941
2312.97	0.795
2321.76	0.7891
2330.55	0.773
2339.35	0.7691
2348.14	0.7571
2356.93	0.7245
2365.72	0.7054
2374.51	0.6835
2383.3	0.667
2392.09	0.6759
2400.88	0.7398
2409.68	0.7364
2418.47	0.7053
2427.26	0.6931
2436.05	0.6714
2444.84	0.6138
2453.63	0.4525
2462.42	0.4099
2471.21	0.4209
2480.01	0.4511
2488.8	0.535
2497.59	0.6517
2506.38	0.6176
2515.17	0.5516
2523.96	0.4845
2532.75	0.4018
2541.54	0.2199
2550.34	0.214
2559.13	0.4778
2567.92	0.4928
2576.71	0.622
2585.5	0.6529
2594.29	0.627
2603.08	0.5558
2611.87	0.4799
2620.66	0.536
2629.46	0.4799
2638.25	0.5802
2647.04	0.5423
2655.83	0.4692
2664.62	0.4094
2673.41	0.3442
2682.2	0.2342
2690.99	0.203
2699.79	0.1269
2708.58	0.1445
2717.37	0.0791
2726.16	0.1309
2734.95	0.1052
2743.74	0.054
2752.53	0.0569
2761.32	0.0813
2770.12	0.1991
2778.91	0.2073
2787.7	0.176
2796.49	0.152
2805.28	0.1115
2814.07	0.1224
2822.86	0.1597
2831.65	0.1419
2840.45	0.1407
2849.24	0.1727
2858.03	0.2313
2866.82	0.3965
2875.61	0.4288
2884.4	0.3639
2893.19	0.275
2901.98	0.1798
2910.78	0.1925
2919.57	0.2305
2928.36	0.271
2937.15	0.2015
2945.94	0.0706
2954.73	0.1124
2963.52	0.2252
2972.31	0.202
2981.11	0.3061
2989.9	0.433
2998.69	0.5172
3007.48	0.6228
3016.27	0.7218
3025.06	0.7762
3033.85	0.8049
3042.64	0.8329
3051.44	0.8508
3060.23	0.8706
3069.02	0.8908
3077.81	0.9044
3086.6	0.909
3095.39	0.9116
3104.18	0.915
3112.97	0.915
3121.77	0.915
3130.56	0.915
3139.35	0.915
3148.14	0.912
3156.93	0.9052
3165.72	0.8934
3174.51	0.8697
3183.3	0.8626
3192.1	0.898
3200.89	0.906
3209.68	0.9128
3218.47	0.913
3227.26	0.912
3236.05	0.912
3244.84	0.913
3253.63	0.9168
3262.42	0.9208
3271.22	0.923
3280.01	0.9232
3288.8	0.923
3297.59	0.924
3306.38	0.926
3315.17	0.9245
3323.96	0.921
3332.75	0.917
3341.55	0.917
3350.34	0.916
3359.13	0.915
3367.92	0.915
3376.71	0.913
3385.5	0.91
3394.29	0.908
3403.08	0.905
3411.88	0.901
3420.67	0.898
3429.46	0.8943
3438.25	0.893
3447.04	0.891
3455.83	0.89
3464.62	0.8893
3473.41	0.889
3482.21	0.887
3491	0.8845
3499.79	0.883
3508.58	0.882
3517.37	0.882
3526.16	0.88
3534.95	0.8783
3543.74	0.878
3552.54	0.878
3561.33	0.878
3570.12	0.875
3578.91	0.871
3587.7	0.871
3596.49	0.871
3605.28	0.869
3614.07	0.868
3622.87	0.8656
3631.66	0.865
3640.45	0.8633
3649.24	0.861
3658.03	0.861
3666.82	0.8586
3675.61	0.8546
3684.4	0.852
3693.2	0.852
3701.99	0.852
3710.78	0.849
3719.57	0.8463
3728.36	0.845
3737.15	0.845
3745.94	0.843
3754.73	0.842
3763.53	0.8396
3772.32	0.838
3781.11	0.835
3789.9	0.8326
3798.69	0.831
