Infrared Spectrum: TITANIC ACID, TETRAPENTYL ESTER
Formula: C20 H44 O4 Ti
State: SOLUTION (10% CCl4 FOR 3800-1330, 10% CS2 FOR 1330-400)
Class: COBLENTZ III
Instrument: BECKMAN IR-9 (GRATING)
Instrument parameters: ORDER CHANGES: 670, 1200, 2000 CM^-^1
Sampling: TRANSMISSION
Path length: 0.011 CM, 0.011 CM
Resolution: 2
Origin: DOW CHEMICAL COMPANY
1/CM	TRANSMITTANCE
405	0.183
414	0.257
423	0.385
432	0.4691
441	0.505
450	0.5121
459	0.4977
468	0.4521
477	0.401
486	0.3576
495	0.3141
504	0.2897
513	0.2865
522	0.2541
531	0.2242
540	0.2116
549	0.2138
558	0.219
567	0.2264
576	0.2055
585	0.1724
594	0.1506
603	0.1485
612	0.1579
621	0.1716
630	0.1809
639	0.1805
648	0.1972
657	0.2349
666	0.2911
675	0.3337
684	0.4197
693	0.4969
702	0.5749
711	0.6433
720	0.6567
729	0.5625
738	0.5715
747	0.6339
756	0.6844
765	0.7019
774	0.6426
783	0.6156
792	0.5194
801	0.6116
810	0.7182
819	0.784
828	0.8022
837	0.7882
846	0.7273
855	0.7047
864	0.7031
873	0.7251
882	0.6994
891	0.5811
900	0.5738
909	0.5564
918	0.5929
927	0.782
936	0.8561
945	0.8726
954	0.8655
963	0.7922
972	0.6318
981	0.4724
990	0.3182
999	0.3273
1008	0.2541
1017	0.2358
1026	0.2537
1035	0.2523
1044	0.123
1053	0.0675
1062	0.056
1071	0.0614
1080	0.0323
1089	0.0163
1098	0.0403
1107	0.0508
1116	0.0934
1125	0.0684
1134	0.0655
1143	0.0928
1152	0.2473
1161	0.4455
1170	0.5955
1179	0.7055
1188	0.7612
1197	0.7622
1206	0.6659
1215	0.6303
1224	0.7689
1233	0.7778
1242	0.7403
1251	0.7792
1260	0.814
1269	0.8112
1278	0.7818
1287	0.7939
1296	0.761
1305	0.7778
1314	0.8095
1323	0.8174
1332	0.8071
1341	0.7761
1350	0.7555
1359	0.6357
1368	0.4792
1377	0.3944
1386	0.5394
1395	0.7399
1404	0.783
1413	0.7926
1422	0.7884
1431	0.7427
1440	0.6968
1449	0.6493
1458	0.411
1467	0.2977
1476	0.4997
1485	0.7165
1494	0.7701
1503	0.7623
1512	0.7343
1521	0.6925
1530	0.6465
1539	0.5665
1548	0.4759
1557	0.4585
1566	0.5226
1575	0.5988
1584	0.6244
1593	0.6603
1602	0.7448
1611	0.8324
1620	0.8595
1629	0.888
1638	0.8964
1647	0.9004
1656	0.9046
1665	0.9072
1674	0.909
1683	0.9106
1692	0.9118
1701	0.9129
1710	0.9136
1719	0.9149
1728	0.9175
1737	0.9171
1746	0.9174
1755	0.9188
1764	0.9193
1773	0.9199
1782	0.9247
1791	0.9223
1800	0.9237
1809	0.9243
1818	0.9263
1827	0.9278
1836	0.9286
1845	0.9287
1854	0.9287
1863	0.9288
1872	0.9291
1881	0.9294
1890	0.9299
1899	0.9304
1908	0.9308
1917	0.9309
1926	0.9309
1935	0.9307
1944	0.9303
1953	0.9299
1962	0.9296
1971	0.9295
1980	0.9294
1989	0.9294
1998	0.9296
2007	0.9298
2016	0.9295
2025	0.9286
2034	0.9278
2043	0.9266
2052	0.9254
2061	0.9245
2070	0.9251
2079	0.9264
2088	0.9281
2097	0.9318
2106	0.9319
2115	0.9319
2124	0.9319
2133	0.9319
2142	0.9319
2151	0.9319
2160	0.9319
2169	0.9319
2178	0.9319
2187	0.9319
2196	0.9319
2205	0.9319
2214	0.9319
2223	0.9319
2232	0.9319
2241	0.9319
2250	0.9308
2259	0.9282
2268	0.9229
2277	0.9197
2286	0.9173
2295	0.9157
2304	0.9168
2313	0.9213
2322	0.9278
2331	0.933
2340	0.9367
2349	0.9386
2358	0.9407
2367	0.942
2376	0.9428
2385	0.9423
2394	0.9366
2403	0.9334
2412	0.9334
2421	0.9335
2430	0.9338
2439	0.934
2448	0.9342
2457	0.9337
2466	0.9332
2475	0.9327
2484	0.9323
2493	0.9318
2502	0.9314
2511	0.9302
2520	0.929
2529	0.9276
2538	0.9261
2547	0.9236
2556	0.9199
2565	0.9154
2574	0.9107
2583	0.9058
2592	0.9009
2601	0.8985
2610	0.8968
2619	0.8961
2628	0.8968
2637	0.8965
2646	0.8944
2655	0.8901
2664	0.8771
2673	0.8534
2682	0.8498
2691	0.8447
2700	0.821
2709	0.7994
2718	0.797
2727	0.7953
2736	0.7905
2745	0.8067
2754	0.8238
2763	0.8334
2772	0.8333
2781	0.8246
2790	0.8084
2799	0.7818
2808	0.7391
2817	0.6604
2826	0.5219
2835	0.3007
2844	0.1669
2853	0.0663
2862	0.0476
2871	0.0472
2880	0.079
2889	0.1639
2898	0.1586
2907	0.1093
2916	0.0648
2925	0.0284
2934	0.0139
2943	0.0148
2952	0.0388
2961	0.0158
2970	0.0214
2979	0.2607
2988	0.4974
2997	0.5785
3006	0.6932
3015	0.745
3024	0.7858
3033	0.8066
3042	0.8217
3051	0.8355
3060	0.8465
3069	0.854
3078	0.8585
3087	0.8626
3096	0.8653
3105	0.8674
3114	0.8695
3123	0.8708
3132	0.872
3141	0.8725
3150	0.8725
3159	0.8726
3168	0.8733
3177	0.8736
3186	0.8739
3195	0.8742
3204	0.8752
3213	0.8762
3222	0.8767
3231	0.8767
3240	0.876
3249	0.8752
3258	0.8741
3267	0.8725
3276	0.871
3285	0.8695
3294	0.8681
3303	0.8666
3312	0.8653
3321	0.8642
3330	0.8636
3339	0.8628
3348	0.8622
3357	0.8614
3366	0.8607
3375	0.8605
3384	0.8603
3393	0.8601
3402	0.8602
3411	0.8607
3420	0.8612
3429	0.862
3438	0.8637
3447	0.8653
3456	0.8668
3465	0.8682
3474	0.8696
3483	0.871
3492	0.8727
3501	0.8744
3510	0.8762
3519	0.8787
3528	0.882
3537	0.8856
3546	0.8894
3555	0.8937
3564	0.8996
3573	0.9048
3582	0.9059
3591	0.9032
3600	0.9076
3609	0.9053
3618	0.8814
3627	0.8374
3636	0.8071
3645	0.7992
3654	0.8534
3663	0.8871
3672	0.9018
3681	0.9084
3690	0.9104
3699	0.9111
3708	0.9114
3717	0.9114
3726	0.9118
3735	0.9121
3744	0.9122
3753	0.9122
3762	0.9123
3771	0.9121
3780	0.9121
3789	0.9131
3798	0.9142
