Infrared Spectrum: 1-(2-Quinolyl)hexahydro-2H-azepin-2-one-
Formula: C15 H16 N2 O
State: SOLID (SPLIT MULL), FLUOROLUBE FOR 3800-1330 CM^-^1, NUJOL FOR 1330-400 CM^-^1
Class: COBLENTZ III
Instrument: DOW KBr FOREPRISM-GRATING
Instrument parameters: BLAZED AT 3.5, 12.0, 20.0 MICRON AND CHANGED AT 5.0, 7.5, 14.9 MICRON
Sampling: TRANSMISSION
Resolution: 2
Origin: DOW CHEMICAL COMPANY
1/CM	TRANSMITTANCE
3800	0.7528
3791	0.7538
3782	0.7548
3773	0.7558
3764	0.7568
3755	0.7575
3746	0.7581
3737	0.7592
3728	0.7596
3719	0.7598
3710	0.7596
3701	0.7592
3692	0.7592
3683	0.7593
3674	0.7594
3665	0.7594
3656	0.7594
3647	0.7599
3638	0.7604
3629	0.7608
3620	0.7608
3611	0.7608
3602	0.7607
3593	0.7594
3584	0.7525
3575	0.755
3566	0.7565
3557	0.7574
3548	0.7572
3539	0.7567
3530	0.7561
3521	0.7557
3512	0.7555
3503	0.7555
3494	0.7554
3485	0.7554
3476	0.7554
3467	0.7553
3458	0.7555
3449	0.7557
3440	0.7558
3431	0.7561
3422	0.7561
3413	0.7562
3404	0.7562
3395	0.7565
3386	0.7568
3377	0.7571
3368	0.7575
3359	0.7575
3350	0.7572
3341	0.7571
3332	0.7569
3323	0.7568
3314	0.7556
3305	0.7507
3296	0.7528
3287	0.7553
3278	0.7571
3269	0.7591
3260	0.761
3251	0.7628
3242	0.7649
3233	0.7661
3224	0.7675
3215	0.7688
3206	0.7701
3197	0.7718
3188	0.7734
3179	0.775
3170	0.7758
3161	0.7768
3152	0.7775
3143	0.7778
3134	0.7778
3125	0.7778
3116	0.7776
3107	0.7772
3098	0.7768
3089	0.7765
3080	0.7746
3071	0.7711
3062	0.7556
3053	0.7478
3044	0.7596
3035	0.7614
3026	0.7751
3017	0.7751
3008	0.7753
2999	0.7757
2990	0.7651
2981	0.7715
2972	0.7722
2963	0.76
2954	0.6858
2945	0.6407
2936	0.656
2927	0.5745
2918	0.5386
2909	0.6435
2900	0.6972
2891	0.7362
2882	0.7531
2873	0.7597
2864	0.7425
2855	0.7321
2846	0.7517
2837	0.7675
2828	0.7786
2819	0.7862
2810	0.7921
2801	0.7975
2792	0.8025
2783	0.8065
2774	0.8093
2765	0.8115
2756	0.8137
2747	0.8157
2738	0.8172
2729	0.8188
2720	0.8199
2711	0.8207
2702	0.8214
2693	0.8214
2684	0.8208
2675	0.8224
2666	0.8253
2657	0.8282
2648	0.8298
2639	0.8314
2630	0.8327
2621	0.8339
2612	0.8349
2603	0.8358
2594	0.837
2585	0.8384
2576	0.8398
2567	0.8408
2558	0.8417
2549	0.8425
2540	0.8432
2531	0.8436
2522	0.8441
2513	0.8444
2504	0.8447
2495	0.8454
2486	0.846
2477	0.8461
2468	0.8462
2459	0.8462
2450	0.8463
2441	0.8463
2432	0.8464
2423	0.8464
2414	0.8465
2405	0.8466
2396	0.8468
2387	0.8486
2378	0.8497
2369	0.8497
2360	0.8502
2351	0.8505
2342	0.8501
2333	0.8495
2324	0.8501
2315	0.8574
2306	0.8573
2297	0.8488
2288	0.8484
2279	0.8491
2270	0.8502
2261	0.8513
2252	0.8525
2243	0.8536
2234	0.8553
2225	0.8573
2216	0.8593
2207	0.8609
2198	0.8625
2189	0.8643
2180	0.866
2171	0.8677
2162	0.8689
2153	0.87
2144	0.871
2135	0.872
2126	0.8728
2117	0.8738
2108	0.8746
2099	0.8748
2090	0.8751
2081	0.8755
2072	0.8761
2063	0.8768
2054	0.8775
2045	0.8785
2036	0.8799
2027	0.8812
2018	0.8818
2009	0.8828
2000	0.8844
1991	0.8806
1982	0.8828
1973	0.8818
1964	0.8793
1955	0.8809
1946	0.8809
1937	0.8823
1928	0.8837
1919	0.8848
1910	0.8861
1901	0.8875
1892	0.8888
1883	0.8895
1874	0.8897
1865	0.8892
1856	0.8885
1847	0.8865
1838	0.8845
1829	0.8854
1820	0.887
1811	0.8886
1802	0.8877
1793	0.8857
1784	0.8818
1775	0.8806
1766	0.8804
1757	0.8805
1748	0.8796
1739	0.876
1730	0.8731
1721	0.8698
1712	0.865
1703	0.8578
1694	0.8385
1685	0.7481
1676	0.4417
1667	0.1234
1658	0.4715
1649	0.6506
1640	0.7149
1631	0.7608
1622	0.7118
1613	0.6175
1604	0.7249
1595	0.4727
1586	0.7896
1577	0.7968
1568	0.7011
1559	0.7748
1550	0.8012
1541	0.8188
1532	0.831
1523	0.8291
1514	0.7893
1505	0.5549
1496	0.77
1487	0.8085
1478	0.7531
1469	0.55
1460	0.7256
1451	0.7107
1442	0.7568
1433	0.4131
1424	0.5821
1415	0.6924
1406	0.5054
1397	0.3014
1388	0.5929
1379	0.6995
1370	0.7222
1361	0.7058
1352	0.6401
1343	0.7135
1334	0.5969
1325	0.6349
1316	0.29
1307	0.6706
1298	0.7411
1289	0.7428
1280	0.6356
1271	0.4899
1262	0.5243
1253	0.7108
1244	0.6506
1235	0.7597
1226	0.7611
1217	0.4262
1208	0.534
1199	0.3664
1190	0.6218
1181	0.7514
1172	0.769
1163	0.7637
1154	0.7441
1145	0.7101
1136	0.7707
1127	0.666
1118	0.7748
1109	0.6554
1100	0.7854
1091	0.7645
1082	0.7465
1073	0.7932
1064	0.81
1055	0.8133
1046	0.8149
1037	0.8118
1028	0.8103
1019	0.7931
1010	0.8065
1001	0.8088
992	0.7768
983	0.8021
974	0.7853
965	0.7228
956	0.7871
947	0.8176
938	0.8357
929	0.8391
920	0.8452
911	0.8518
902	0.852
893	0.8503
884	0.8367
875	0.8537
866	0.8347
857	0.8562
848	0.8543
839	0.7756
830	0.7431
821	0.5804
812	0.8315
803	0.865
794	0.8585
785	0.8246
776	0.5234
767	0.8043
758	0.7656
749	0.8506
740	0.8613
731	0.8555
722	0.8306
713	0.8498
704	0.8944
695	0.9091
686	0.9109
677	0.9047
668	0.9249
659	0.9103
650	0.91
641	0.8687
632	0.8957
623	0.8887
614	0.8528
605	0.8833
596	0.8871
587	0.8821
578	0.852
569	0.8796
560	0.8823
551	0.8812
542	0.8604
533	0.8745
524	0.8562
515	0.8205
506	0.8292
497	0.8623
488	0.8637
479	0.836
470	0.8496
461	0.8444
452	0.8449
443	0.848
434	0.8481
425	0.845
416	0.8362
407	0.8235
398	0.8112
