Infrared Spectrum: BIS-(4-t-OCTYLPHENYL) PHTHALATE
Formula: C36 H46 O4
State: SOLUTION (10% IN CCl4 FOR 5000-1350 CM^-^1, 10% IN CS2 FOR 1350-625 CM^-^1)
Class: COBLENTZ
Instrument: Not specified, most likely a prism, grating, or hybrid spectrometer.
Sampling: TRANSMISSION
Path length: 0.01 CM, 0.01 CM
Resolution: 4
Origin: DOW CHEMICAL COMPANY
MICROMETERS	TRANSMITTANCE
2.033	0.811
2.0722	0.813
2.11139	0.816
2.15059	0.819
2.18978	0.823
2.22898	0.816
2.26817	0.81
2.30737	0.813
2.34656	0.826
2.38576	0.823
2.42495	0.827
2.46415	0.834
2.50334	0.844
2.54254	0.845
2.58173	0.847
2.62093	0.852
2.66012	0.853
2.69932	0.855
2.73852	0.853
2.77771	0.844
2.81691	0.829
2.8561	0.813
2.8953	0.808
2.93449	0.814
2.97369	0.814
3.01288	0.818
3.05208	0.818
3.09127	0.814
3.13047	0.819
3.16966	0.824
3.20886	0.816
3.24805	0.779
3.28725	0.733
3.32644	0.636
3.36564	0.225
3.40484	0.228
3.44403	0.295
3.48323	0.483
3.52242	0.759
3.56162	0.832
3.60081	0.863
3.64001	0.866
3.6792	0.871
3.7184	0.876
3.75759	0.884
3.79679	0.892
3.83598	0.897
3.87518	0.902
3.91437	0.909
3.95357	0.918
3.99276	0.922
4.03196	0.923
4.07116	0.923
4.11035	0.922
4.14955	0.918
4.18874	0.909
4.22794	0.894
4.26713	0.878
4.30633	0.883
4.34552	0.892
4.38472	0.907
4.42391	0.923
4.46311	0.928
4.5023	0.928
4.5415	0.928
4.58069	0.928
4.61989	0.928
4.65908	0.928
4.69828	0.926
4.73747	0.925
4.77667	0.925
4.81587	0.923
4.85506	0.923
4.89426	0.922
4.93345	0.92
4.97265	0.917
5.01184	0.913
5.05104	0.915
5.09023	0.918
5.12943	0.922
5.16862	0.922
5.20782	0.917
5.24701	0.879
5.28621	0.881
5.3254	0.9
5.3646	0.9
5.40379	0.886
5.44299	0.889
5.48219	0.883
5.52138	0.87
5.56058	0.831
5.59977	0.724
5.63897	0.516
5.67816	0.149
5.71736	0.069
5.75655	0.204
5.79575	0.607
5.83494	0.754
5.87414	0.8
5.91333	0.844
5.95253	0.863
5.99172	0.868
6.03092	0.866
6.07011	0.858
6.10931	0.845
6.14851	0.821
6.1877	0.764
6.2269	0.603
6.26609	0.582
6.30529	0.548
6.34448	0.571
6.38368	0.561
6.42287	0.5
6.46207	0.483
6.50126	0.53
6.54046	0.555
6.57965	0.49
6.61885	0.331
6.65804	0.339
6.69724	0.469
6.73643	0.42
6.77563	0.412
6.81483	0.438
6.85402	0.543
6.89322	0.639
6.93241	0.753
6.97161	0.79
7.0108	0.787
7.05	0.724
7.08919	0.694
7.12839	0.673
7.16758	0.637
7.20678	0.732
7.24597	0.748
7.28517	0.512
7.32436	0.519
7.36356	0.8
7.40275	0.758
7.44195	0.766
7.48115	0.753
7.52034	0.727
7.55954	0.74
7.59873	0.66
7.63793	0.56
7.67712	0.478
7.71632	0.314
7.75551	0.15
7.79471	0.126
7.8339	0.095
7.8731	0.021
7.91229	0.032
7.95149	0.06
7.99068	0.081
8.02988	0.162
8.06907	0.232
8.10827	0.264
8.14747	0.301
8.18666	0.235
8.22586	0.066
8.26505	0.019
8.30425	0.09
8.34344	0.397
8.38264	0.569
8.42183	0.563
8.46103	0.363
8.50022	0.094
8.53942	0.086
8.57861	0.339
8.61781	0.608
8.657	0.732
8.6962	0.771
8.73539	0.766
8.77459	0.696
8.81379	0.514
8.85298	0.477
8.89218	0.579
8.93137	0.634
8.97057	0.594
9.00976	0.456
9.04896	0.329
9.08815	0.321
9.12735	0.384
9.16654	0.275
9.20574	0.139
9.24493	0.254
9.28413	0.547
9.32332	0.719
9.36252	0.75
9.40171	0.698
9.44091	0.553
9.48011	0.295
9.5193	0.12
9.5585	0.185
9.59769	0.303
9.63689	0.353
9.67608	0.488
9.71528	0.623
9.75447	0.667
9.79367	0.482
9.83286	0.366
9.87206	0.753
9.91125	0.831
9.95045	0.868
9.98964	0.881
10.0288	0.889
10.068	0.894
10.1072	0.887
10.1464	0.873
10.1856	0.844
10.2248	0.818
10.264	0.868
10.3032	0.883
10.3424	0.889
10.3816	0.865
10.4208	0.84
10.46	0.875
10.4992	0.894
10.5384	0.884
10.5776	0.858
10.6168	0.831
10.656	0.858
10.6952	0.868
10.7344	0.868
10.7735	0.849
10.8127	0.803
10.8519	0.808
10.8911	0.836
10.9303	0.839
10.9695	0.845
11.0087	0.86
11.0479	0.86
11.0871	0.85
11.1263	0.827
11.1655	0.8
11.2047	0.748
11.2439	0.672
11.2831	0.573
11.3223	0.488
11.3615	0.438
11.4007	0.426
11.4399	0.449
11.4791	0.496
11.5183	0.556
11.5575	0.597
11.5967	0.616
11.6358	0.634
11.675	0.641
11.7142	0.649
11.7534	0.654
11.7926	0.66
11.8318	0.676
11.871	0.698
11.9102	0.702
11.9494	0.689
11.9886	0.644
12.0278	0.587
12.067	0.55
12.1062	0.543
12.1454	0.547
12.1846	0.532
12.2238	0.478
12.263	0.423
12.3022	0.384
12.3414	0.417
12.3806	0.545
12.4198	0.654
12.4589	0.719
12.4981	0.737
12.5373	0.735
12.5765	0.719
12.6157	0.694
12.6549	0.68
12.6941	0.668
12.7333	0.66
12.7725	0.667
12.8117	0.676
12.8509	0.685
12.8901	0.685
12.9293	0.686
12.9685	0.685
13.0077	0.683
13.0469	0.685
13.0861	0.688
13.1253	0.693
13.1645	0.693
13.2037	0.681
13.2429	0.663
13.282	0.634
13.3212	0.608
13.3604	0.586
13.3996	0.543
13.4388	0.506
13.478	0.48
13.5172	0.47
13.5564	0.452
13.5956	0.42
13.6348	0.402
13.674	0.425
13.7132	0.478
13.7524	0.538
13.7916	0.582
13.8308	0.61
13.87	0.626
13.9092	0.633
13.9484	0.621
13.9876	0.605
14.0268	0.569
14.066	0.547
14.1051	0.537
14.1443	0.538
14.1835	0.535
14.2227	0.524
14.2619	0.522
14.3011	0.545
14.3403	0.569
14.3795	0.594
14.4187	0.603
14.4579	0.61
14.4971	0.613
14.5363	0.615
14.5755	0.61
14.6147	0.607
14.6539	0.599
14.6931	0.59
14.7323	0.589
14.7715	0.587
14.8107	0.581
14.8499	0.573
14.8891	0.558
14.9283	0.548
14.9674	0.547
15.0066	0.535
15.0458	0.519
15.085	0.506
15.1242	0.5
15.1634	0.483
15.2026	0.469
15.2418	0.459
15.281	0.451
15.3202	0.444
15.3594	0.433
15.3986	0.423
15.4378	0.41
15.477	0.404
15.5162	0.4
15.5554	0.404
15.5946	0.41
15.6338	0.41
15.673	0.41
15.7122	0.412
15.7514	0.409
15.7905	0.404
15.8297	0.402
15.8689	0.402
