Infrared Spectrum: 6,6,12,12-TETRAMETHYL-1,4,8,11-TETROXADISPIRO-[4.1.4.1]DODECANE
Formula: C12 H20 O4
State: SOLID (KBr PELLET)
Melting point: 104-105 C
Class: COBLENTZ
Instrument: Not specified, most likely a prism, grating, or hybrid spectrometer.
Sampling: TRANSMISSION
Resolution: 4
Origin: TENNESSEE EASTMAN COMPANY, RESEARCH LABORATORIES
MICROMETERS	TRANSMITTANCE
2.055	0.914
2.09591	0.914
2.13683	0.921
2.17774	0.929
2.21866	0.929
2.25957	0.903
2.30049	0.9
2.3414	0.907
2.38232	0.912
2.42323	0.912
2.46415	0.912
2.50506	0.912
2.54598	0.91
2.58689	0.912
2.62781	0.915
2.66872	0.927
2.70964	0.929
2.75055	0.921
2.79146	0.876
2.83238	0.83
2.87329	0.802
2.91421	0.778
2.95512	0.777
2.99604	0.818
3.03695	0.842
3.07787	0.852
3.11878	0.855
3.1597	0.857
3.20061	0.861
3.24153	0.861
3.28244	0.821
3.32336	0.595
3.36427	0.02
3.40519	0.092
3.4461	0.072
3.48702	0.313
3.52793	0.78
3.56884	0.862
3.60976	0.907
3.65067	0.915
3.69159	0.905
3.7325	0.897
3.77342	0.869
3.81433	0.929
3.85525	0.938
3.89616	0.938
3.93708	0.936
3.97799	0.938
4.01891	0.943
4.05982	0.946
4.10074	0.946
4.14165	0.943
4.18257	0.936
4.22348	0.936
4.26439	0.927
4.30531	0.917
4.34622	0.917
4.38714	0.919
4.42805	0.931
4.46897	0.933
4.50988	0.927
4.5508	0.927
4.59171	0.933
4.63263	0.938
4.67354	0.931
4.71446	0.909
4.75537	0.909
4.79629	0.915
4.8372	0.909
4.87812	0.897
4.91903	0.859
4.95995	0.843
5.00086	0.878
5.04177	0.859
5.08269	0.895
5.1236	0.907
5.16452	0.919
5.20543	0.931
5.24635	0.933
5.28726	0.934
5.32818	0.936
5.36909	0.936
5.41001	0.933
5.45092	0.933
5.49184	0.927
5.53275	0.915
5.57367	0.921
5.61458	0.919
5.6555	0.91
5.69641	0.915
5.73732	0.897
5.77824	0.878
5.81915	0.879
5.86007	0.888
5.90098	0.885
5.9419	0.888
5.98281	0.881
6.02373	0.869
6.06464	0.855
6.10556	0.849
6.14647	0.847
6.18739	0.847
6.2283	0.838
6.26922	0.84
6.31013	0.855
6.35105	0.849
6.39196	0.849
6.43287	0.849
6.47379	0.837
6.5147	0.837
6.55562	0.811
6.59653	0.794
6.63745	0.715
6.67836	0.526
6.71928	0.385
6.76019	0.409
6.80111	0.445
6.84202	0.06
6.88294	0.188
6.92385	0.303
6.96477	0.615
7.00568	0.739
7.0466	0.771
7.08751	0.789
7.12843	0.778
7.16934	0.765
7.21025	0.706
7.25117	0.332
7.29208	0.457
7.333	0.588
7.37391	0.73
7.41483	0.54
7.45574	0.547
7.49666	0.797
7.53757	0.816
7.57849	0.811
7.6194	0.778
7.66032	0.727
7.70123	0.656
7.74215	0.656
7.78306	0.619
7.82398	0.476
7.86489	0.293
7.9058	0.137
7.94672	0.152
7.98763	0.209
8.02855	0.204
8.06946	0.132
8.11038	0.077
8.15129	0.125
8.19221	0.216
8.23312	0.217
8.27404	0.276
8.31495	0.478
8.35587	0.571
8.39678	0.595
8.4377	0.607
8.47861	0.626
8.51953	0.638
8.56044	0.634
8.60136	0.619
8.64227	0.591
8.68318	0.516
8.7241	0.379
8.76501	0.358
8.80593	0.403
8.84684	0.387
8.88776	0.332
8.92867	0.245
8.96959	0.144
9.0105	0.061
9.05142	0.022
9.09233	0.01
9.13325	0.008
9.17416	0.006
9.21508	0.008
9.25599	0.01
9.29691	0.013
9.33782	0.046
9.37873	0.087
9.41965	0.108
9.46056	0.092
9.50148	0.042
9.54239	0.017
9.58331	0.01
9.62422	0.008
9.66514	0.01
9.70605	0.029
9.74697	0.072
9.78788	0.09
9.8288	0.053
9.86971	0.018
9.91063	0.017
9.95154	0.02
9.99246	0.022
10.0334	0.03
10.0743	0.041
10.1152	0.092
10.1561	0.226
10.197	0.356
10.2379	0.433
10.2789	0.468
10.3198	0.468
10.3607	0.397
10.4016	0.269
10.4425	0.078
10.4834	0.036
10.5243	0.085
10.5653	0.233
10.6062	0.404
10.6471	0.523
10.688	0.626
10.7289	0.699
10.7698	0.739
10.8107	0.763
10.8517	0.782
10.8926	0.797
10.9335	0.807
10.9744	0.816
11.0153	0.819
11.0562	0.821
11.0972	0.821
11.1381	0.821
11.179	0.818
11.2199	0.811
11.2608	0.799
11.3017	0.787
11.3426	0.78
11.3836	0.782
11.4245	0.797
11.4654	0.816
11.5063	0.823
11.5472	0.83
11.5881	0.837
11.629	0.835
11.67	0.807
11.7109	0.728
11.7518	0.608
11.7927	0.588
11.8336	0.706
11.8745	0.794
11.9154	0.835
11.9564	0.861
11.9973	0.883
12.0382	0.895
12.0791	0.903
12.12	0.909
12.1609	0.91
12.2019	0.914
12.2428	0.917
12.2837	0.919
12.3246	0.919
12.3655	0.921
12.4064	0.922
12.4473	0.922
12.4883	0.922
12.5292	0.921
12.5701	0.921
12.611	0.917
12.6519	0.897
12.6928	0.813
12.7337	0.773
12.7747	0.837
12.8156	0.881
12.8565	0.898
12.8974	0.905
12.9383	0.912
12.9792	0.919
13.0201	0.919
13.0611	0.922
13.102	0.922
13.1429	0.924
13.1838	0.926
13.2247	0.926
13.2656	0.926
13.3065	0.924
13.3475	0.924
13.3884	0.924
13.4293	0.924
13.4702	0.924
13.5111	0.922
13.552	0.921
13.593	0.919
13.6339	0.917
13.6748	0.912
13.7157	0.907
13.7566	0.907
13.7975	0.903
13.8384	0.9
13.8794	0.897
13.9203	0.895
13.9612	0.891
14.0021	0.881
14.043	0.876
14.0839	0.871
14.1248	0.864
14.1658	0.854
14.2067	0.845
14.2476	0.837
14.2885	0.825
14.3294	0.816
14.3703	0.804
14.4112	0.795
14.4522	0.777
14.4931	0.759
14.534	0.746
14.5749	0.734
14.6158	0.72
14.6567	0.711
14.6976	0.708
14.7386	0.704
14.7795	0.706
14.8204	0.708
14.8613	0.711
14.9022	0.718
14.9431	0.718
14.9841	0.713
15.025	0.715
15.0659	0.718
15.1068	0.727
15.1477	0.728
15.1886	0.725
15.2295	0.722
15.2705	0.715
15.3114	0.706
15.3523	0.698
15.3932	0.691
15.4341	0.684
15.475	0.675
15.5159	0.668
15.5569	0.662
15.5978	0.653
15.6387	0.639
15.6796	0.626
15.7205	0.607
15.7614	0.584
15.8023	0.562
15.8433	0.538
15.8842	0.524
15.9251	0.516
15.966	0.518
