Infrared Spectrum: N,N'-BIS-(2-CHLOROCYCLOHEXYL)UREA
Formula: C13 H22 Cl2 N2 O
State: SOLID (1 mg / 650 mg KBr DISC)
Class: COBLENTZ III
Instrument: PERKIN-ELMER 221 (GRATING)
Instrument parameters: FILTER CHANGE AT 2490, 980 CM^-^1, GRATING FOR 4000-1428 CM^-^1, NaCl PRISM FOR 1428-650 CM^-^1
Sampling: TRANSMISSION
Resolution: 4
Origin: SOUTHERN RESEARCH INSTITUTE
1/CM	TRANSMITTANCE
609.489	0.796
618.694	0.796
627.898	0.811
637.103	0.824
646.307	0.804
655.512	0.783
664.716	0.796
673.921	0.805
683.125	0.624
692.33	0.654
701.535	0.832
710.739	0.86
719.944	0.88
729.148	0.888
738.353	0.881
747.557	0.89
756.762	0.895
765.966	0.892
775.171	0.875
784.376	0.886
793.58	0.885
802.785	0.9
811.989	0.915
821.194	0.912
830.398	0.904
839.603	0.833
848.807	0.888
858.012	0.903
867.217	0.791
876.421	0.898
885.626	0.905
894.83	0.9
904.035	0.887
913.239	0.786
922.444	0.859
931.648	0.904
940.853	0.907
950.058	0.903
959.262	0.894
968.467	0.845
977.671	0.831
986.876	0.885
996.08	0.894
1005.28	0.894
1014.49	0.889
1023.69	0.87
1032.9	0.861
1042.1	0.826
1051.31	0.85
1060.51	0.832
1069.72	0.852
1078.92	0.835
1088.13	0.84
1097.33	0.831
1106.54	0.722
1115.74	0.732
1124.94	0.814
1134.15	0.824
1143.35	0.848
1152.56	0.854
1161.76	0.852
1170.97	0.831
1180.17	0.806
1189.38	0.79
1198.58	0.791
1207.79	0.807
1216.99	0.792
1226.19	0.792
1235.4	0.741
1244.6	0.662
1253.81	0.585
1263.01	0.671
1272.22	0.721
1281.42	0.808
1290.63	0.799
1299.83	0.74
1309.04	0.718
1318.24	0.8
1327.44	0.802
1336.65	0.716
1345.85	0.783
1355.06	0.806
1364.26	0.846
1373.47	0.859
1382.67	0.869
1391.88	0.872
1401.08	0.874
1410.29	0.872
1419.49	0.859
1428.69	0.84
1437.9	0.752
1447.1	0.696
1456.31	0.799
1465.51	0.768
1474.72	0.838
1483.92	0.832
1493.13	0.794
1502.33	0.758
1511.54	0.719
1520.74	0.676
1529.94	0.621
1539.15	0.535
1548.35	0.401
1557.56	0.324
1566.76	0.319
1575.97	0.369
1585.17	0.539
1594.38	0.618
1603.58	0.678
1612.79	0.639
1621.99	0.39
1631.19	0.201
1640.4	0.274
1649.6	0.509
1658.81	0.621
1668.01	0.69
1677.22	0.732
1686.42	0.769
1695.63	0.789
1704.83	0.813
1714.04	0.846
1723.24	0.853
1732.44	0.86
1741.65	0.863
1750.85	0.863
1760.06	0.872
1769.26	0.877
1778.47	0.878
1787.67	0.886
1796.88	0.888
1806.08	0.891
1815.29	0.893
1824.49	0.895
1833.69	0.897
1842.9	0.898
1852.1	0.899
1861.31	0.901
1870.51	0.901
1879.72	0.901
1888.92	0.901
1898.13	0.901
1907.33	0.901
1916.54	0.901
1925.74	0.901
1934.94	0.901
1944.15	0.901
1953.35	0.901
1962.56	0.9
1971.76	0.9
1980.97	0.9
1990.17	0.899
1999.38	0.899
2008.58	0.899
2017.79	0.899
2026.99	0.899
2036.2	0.898
2045.4	0.898
2054.6	0.898
2063.81	0.898
2073.01	0.898
2082.22	0.897
2091.42	0.897
2100.63	0.896
2109.83	0.895
2119.04	0.894
2128.24	0.894
2137.45	0.894
2146.65	0.894
2155.85	0.894
2165.06	0.895
2174.26	0.897
2183.47	0.898
2192.67	0.898
2201.88	0.898
2211.08	0.898
2220.29	0.898
2229.49	0.898
2238.7	0.898
2247.9	0.898
2257.1	0.897
2266.31	0.896
2275.51	0.896
2284.72	0.895
2293.92	0.895
2303.13	0.894
2312.33	0.894
2321.54	0.893
2330.74	0.891
2339.95	0.891
2349.15	0.891
2358.35	0.891
2367.56	0.89
2376.76	0.89
2385.97	0.89
2395.17	0.89
2404.38	0.89
2413.58	0.89
2422.79	0.89
2431.99	0.889
2441.2	0.889
2450.4	0.889
2459.6	0.889
2468.81	0.888
2478.01	0.888
2487.22	0.888
2496.42	0.888
2505.63	0.888
2514.83	0.888
2524.04	0.888
2533.24	0.887
2542.45	0.887
2551.65	0.887
2560.85	0.886
2570.06	0.886
2579.26	0.886
2588.47	0.886
2597.67	0.886
2606.88	0.886
2616.08	0.887
2625.29	0.888
2634.49	0.885
2643.7	0.879
2652.9	0.877
2662.1	0.878
2671.31	0.878
2680.51	0.878
2689.72	0.879
2698.92	0.88
2708.13	0.881
2717.33	0.881
2726.54	0.88
2735.74	0.878
2744.95	0.872
2754.15	0.872
2763.36	0.868
2772.56	0.865
2781.76	0.862
2790.97	0.859
2800.17	0.858
2809.38	0.857
2818.58	0.855
2827.79	0.853
2836.99	0.827
2846.2	0.75
2855.4	0.686
2864.61	0.631
2873.81	0.734
2883.01	0.783
2892.22	0.759
2901.42	0.719
2910.63	0.699
2919.83	0.623
2929.04	0.477
2938.24	0.4
2947.45	0.458
2956.65	0.576
2965.86	0.701
2975.06	0.768
2984.26	0.808
2993.47	0.828
3002.67	0.835
3011.88	0.837
3021.08	0.838
3030.29	0.839
3039.49	0.84
3048.7	0.84
3057.9	0.843
3067.11	0.845
3076.31	0.846
3085.51	0.839
3094.72	0.834
3103.92	0.831
3113.13	0.831
3122.33	0.831
3131.54	0.833
3140.74	0.834
3149.95	0.832
3159.15	0.828
3168.36	0.826
3177.56	0.826
3186.76	0.824
3195.97	0.818
3205.17	0.812
3214.38	0.805
3223.58	0.802
3232.79	0.796
3241.99	0.788
3251.2	0.77
3260.4	0.748
3269.61	0.729
3278.81	0.698
3288.01	0.667
3297.22	0.624
3306.42	0.582
3315.63	0.547
3324.83	0.519
3334.04	0.512
3343.24	0.51
3352.45	0.517
3361.65	0.536
3370.86	0.584
3380.06	0.631
3389.26	0.67
3398.47	0.716
3407.67	0.735
3416.88	0.744
3426.08	0.765
3435.29	0.774
3444.49	0.78
3453.7	0.783
3462.9	0.788
3472.11	0.792
3481.31	0.793
3490.51	0.795
3499.72	0.797
3508.92	0.799
3518.13	0.804
3527.33	0.81
3536.54	0.815
3545.74	0.819
3554.95	0.821
3564.15	0.824
3573.36	0.83
3582.56	0.831
3591.76	0.834
3600.97	0.837
3610.17	0.839
3619.38	0.843
3628.58	0.847
3637.79	0.849
3646.99	0.85
3656.2	0.85
3665.4	0.85
3674.61	0.85
3683.81	0.85
3693.02	0.851
3702.22	0.854
3711.42	0.856
3720.63	0.855
3729.83	0.854
3739.04	0.852
3748.24	0.85
3757.45	0.851
3766.65	0.854
3775.86	0.853
3785.06	0.853
3794.27	0.853
3803.47	0.851
3812.67	0.85
3821.88	0.85
3831.08	0.849
3840.29	0.849
3849.49	0.849
3858.7	0.849
3867.9	0.848
3877.11	0.848
3886.31	0.848
3895.52	0.848
3904.72	0.848
3913.92	0.848
3923.13	0.848
3932.33	0.848
3941.54	0.848
3950.74	0.848
3959.95	0.848
3969.15	0.847
3978.36	0.847
3987.56	0.847
3996.77	0.848
4005.97	0.849
