Infrared Spectrum: Cyclohexane, D12
Formula: C6 D12
State: LIQUID (NEAT)
Class: COBLENTZ III
Instrument: DOW KBr FOREPRISM-GRATING
Instrument parameters: BLAZED AT 3.5, 12.0, 20.0 MICRON AND CHANGED AT 5.0, 7.5, 14.9 MICRON
Sampling: TRANSMISSION
Path length: 0.0528 CM
Resolution: 2
Origin: DOW CHEMICAL COMPANY
1/CM	TRANSMITTANCE
3800	0.9964
3791	0.9962
3782	0.9911
3773	0.9865
3764	0.9847
3755	0.985
3746	0.9877
3737	0.9928
3728	0.9978
3719	0.9975
3710	0.9865
3701	0.9797
3692	0.9828
3683	0.9895
3674	0.9949
3665	0.9925
3656	0.9906
3647	0.9906
3638	0.9914
3629	0.9936
3620	0.9971
3611	0.9965
3602	0.9915
3593	0.9885
3584	0.9915
3575	0.9907
3566	0.9875
3557	0.9903
3548	0.993
3539	0.9936
3530	0.9917
3521	0.9877
3512	0.9835
3503	0.9787
3494	0.9739
3485	0.9689
3476	0.964
3467	0.9594
3458	0.9515
3449	0.8852
3440	0.8927
3431	0.9184
3422	0.9073
3413	0.8391
3404	0.8211
3395	0.8437
3386	0.8697
3377	0.8789
3368	0.8674
3359	0.8503
3350	0.8061
3341	0.8062
3332	0.785
3323	0.5842
3314	0.4089
3305	0.5739
3296	0.5977
3287	0.4241
3278	0.4258
3269	0.4159
3260	0.3559
3251	0.3256
3242	0.2667
3233	0.3164
3224	0.3682
3215	0.2977
3206	0.3372
3197	0.3853
3188	0.2704
3179	0.2017
3170	0.2179
3161	0.2084
3152	0.0853
3143	0.1087
3134	0.3527
3125	0.363
3116	0.2762
3107	0.4192
3098	0.5068
3089	0.4327
3080	0.6255
3071	0.6739
3062	0.7301
3053	0.7857
3044	0.7721
3035	0.7421
3026	0.7215
3017	0.5619
3008	0.7051
2999	0.7355
2990	0.7283
2981	0.6578
2972	0.4259
2963	0.2538
2954	0.2842
2945	0.355
2936	0.2429
2927	0.1157
2918	0.0208
2909	0.0194
2900	0.0666
2891	0.0627
2882	0.0241
2873	0.166
2864	0.3106
2855	0.368
2846	0.5551
2837	0.6533
2828	0.6515
2819	0.7318
2810	0.7868
2801	0.7178
2792	0.6664
2783	0.7511
2774	0.8097
2765	0.8158
2756	0.8154
2747	0.7875
2738	0.7871
2729	0.7308
2720	0.8095
2711	0.8598
2702	0.9171
2693	0.9395
2684	0.9454
2675	0.9421
2666	0.9355
2657	0.9385
2648	0.9488
2639	0.9371
2630	0.9128
2621	0.8836
2612	0.8271
2603	0.6184
2594	0.5243
2585	0.5948
2576	0.6009
2567	0.5712
2558	0.6896
2549	0.7068
2540	0.7105
2531	0.7875
2522	0.8111
2513	0.7575
2504	0.7067
2495	0.7126
2486	0.7367
2477	0.725
2468	0.7358
2459	0.7689
2450	0.8004
2441	0.8106
2432	0.8021
2423	0.7331
2414	0.1317
2405	0.0741
2396	0.1921
2387	0.2732
2378	0.0463
2369	0.066
2360	0.3491
2351	0.5997
2342	0.635
2333	0.6504
2324	0.6526
2315	0.5238
2306	0.3236
2297	0.1233
2288	0.003
2279	0.0032
2270	0.0353
2261	0.0375
2252	0.0174
2243	0.0002
2234	0.0002
2225	0.0002
2216	0.0002
2207	0.0002
2198	0.0001
2189	0.0001
2180	0.0001
2171	0.0001
2162	0.0001
2153	0.0001
2144	0.0001
2135	0
2126	0
2117	0
2108	0
2099	0
2090	0
2081	0
2072	0
2063	0
2054	0
2045	0.1295
2036	0.2755
2027	0.3766
2018	0.3242
2009	0.0653
2000	0.0005
1991	0.0358
1982	0.1866
1973	0.605
1964	0.6707
1955	0.5703
1946	0.3025
1937	0.37
1928	0.4277
1919	0.4885
1910	0.5504
1901	0.5095
1892	0.3373
1883	0.4814
1874	0.5829
1865	0.5748
1856	0.574
1847	0.7565
1838	0.8459
1829	0.8498
1820	0.8492
1811	0.7765
1802	0.6515
1793	0.4808
1784	0.6471
1775	0.7765
1766	0.7361
1757	0.7125
1748	0.8224
1739	0.8084
1730	0.7032
1721	0.7334
1712	0.7783
1703	0.5814
1694	0.8014
1685	0.8945
1676	0.9207
1667	0.8994
1658	0.8886
1649	0.9133
1640	0.8548
1631	0.7771
1622	0.5829
1613	0.7401
1604	0.7014
1595	0.8723
1586	0.6618
1577	0.7124
1568	0.8764
1559	0.8931
1550	0.8048
1541	0.8104
1532	0.7221
1523	0.7734
1514	0.4375
1505	0.7941
1496	0.8761
1487	0.8887
1478	0.8643
1469	0.744
1460	0.7071
1451	0.6928
1442	0.6632
1433	0.8145
1424	0.8847
1415	0.8915
1406	0.8752
1397	0.894
1388	0.847
1379	0.7971
1370	0.82
1361	0.7047
1352	0.8192
1343	0.8747
1334	0.848
1325	0.6921
1316	0.7045
1307	0.3297
1298	0.6378
1289	0.6836
1280	0.733
1271	0.7743
1262	0.7492
1253	0.6918
1244	0.7751
1235	0.7635
1226	0.6669
1217	0.4754
1208	0.4401
1199	0.4657
1190	0.387
1181	0.2384
1172	0.0909
1163	0.0033
1154	0.0039
1145	0.1346
1136	0.2879
1127	0.2509
1118	0.2077
1109	0.1167
1100	0.0408
1091	0.0044
1082	0.0042
1073	0.0031
1064	0.0315
1055	0.1972
1046	0.3318
1037	0.3616
1028	0.3192
1019	0.2681
1010	0.1512
1001	0.0342
992	0.0036
983	0.0046
974	0.0517
965	0.2211
956	0.332
947	0.2768
938	0.1735
929	0.0782
920	0.0233
911	0.0041
902	0.2317
893	0.4645
884	0.5387
875	0.5733
866	0.7438
857	0.7735
848	0.7776
839	0.753
830	0.6799
821	0.6193
812	0.5678
803	0.4573
794	0.3359
785	0.398
776	0.4868
767	0.4474
758	0.5188
749	0.4789
740	0.3666
731	0.1507
722	0.0025
713	0.215
704	0.2265
695	0.0235
686	0.0062
677	0.3178
668	0.5615
659	0.689
650	0.7465
641	0.7758
632	0.8069
623	0.8394
614	0.8468
605	0.8891
596	0.9158
587	0.9334
578	0.9441
569	0.944
560	0.9459
551	0.9498
542	0.9434
533	0.9274
524	0.9236
515	0.936
506	0.939
497	0.9115
488	0.9198
479	0.9215
470	0.9182
461	0.9104
