Infrared Spectrum: Polythiomethylene
Formula: C99 H99 S99
State: SOLID (SPLIT MULL), FLUOROLUBE FOR 3800-1330 CM^-^1, NUJOL FOR 1330-400 CM^-^1
Class: COBLENTZ III
Instrument: DOW KBr FOREPRISM-GRATING
Instrument parameters: BLAZED AT 3.5, 12.0, 20.0 MICRON AND CHANGED AT 5.0, 7.5, 14.9 MICRON
Sampling: TRANSMISSION
Resolution: 2
Origin: DOW CHEMICAL COMPANY
1/CM	TRANSMITTANCE
389	0.9147
398	0.9142
407	0.9135
416	0.9123
425	0.9103
434	0.9082
443	0.9054
452	0.9025
461	0.8995
470	0.8962
479	0.8918
488	0.8858
497	0.8788
506	0.8718
515	0.8646
524	0.8573
533	0.8498
542	0.8409
551	0.832
560	0.8233
569	0.8147
578	0.8061
587	0.7975
596	0.7893
605	0.781
614	0.7703
623	0.7587
632	0.7371
641	0.7174
650	0.5654
659	0.568
668	0.6412
677	0.5356
686	0.621
695	0.5893
704	0.4105
713	0.146
722	0.3147
731	0.1519
740	0.1719
749	0.1821
758	0.7447
767	0.7738
776	0.7708
785	0.765
794	0.7567
803	0.7511
812	0.7411
821	0.7298
830	0.7168
839	0.7008
848	0.6796
857	0.6511
866	0.6095
875	0.3716
884	0.5799
893	0.6393
902	0.5814
911	0.6567
920	0.6412
929	0.6257
938	0.6124
947	0.6047
956	0.5983
965	0.5882
974	0.5862
983	0.5912
992	0.5879
1001	0.5801
1010	0.5743
1019	0.5691
1028	0.5587
1037	0.5543
1046	0.549
1055	0.5432
1064	0.5366
1073	0.5281
1082	0.52
1091	0.5052
1100	0.5112
1109	0.4991
1118	0.4797
1127	0.4693
1136	0.4614
1145	0.4387
1154	0.3925
1163	0.3193
1172	0.1448
1181	0.1292
1190	0.3762
1199	0.5307
1208	0.5173
1217	0.4392
1226	0.4678
1235	0.4945
1244	0.4821
1253	0.4673
1262	0.4532
1271	0.4403
1280	0.4283
1289	0.4162
1298	0.4053
1307	0.3992
1316	0.3962
1325	0.387
1334	0.3743
1343	0.5957
1352	0.5036
1361	0.5539
1370	0.3389
1379	0.4681
1388	0.6262
1397	0.4928
1406	0.7211
1415	0.7086
1424	0.7069
1433	0.7054
1442	0.7008
1451	0.6995
1460	0.7024
1469	0.7017
1478	0.6981
1487	0.6855
1496	0.6836
1505	0.6895
1514	0.6939
1523	0.6928
1532	0.688
1541	0.6801
1550	0.6762
1559	0.6743
1568	0.671
1577	0.6672
1586	0.6634
1595	0.6596
1604	0.6558
1613	0.6486
1622	0.6376
1631	0.631
1640	0.6291
1649	0.6278
1658	0.6272
1667	0.6282
1676	0.63
1685	0.632
1694	0.6321
1703	0.6318
1712	0.6296
1721	0.6272
1730	0.6235
1739	0.6195
1748	0.6137
1757	0.6074
1766	0.6007
1775	0.5942
1784	0.5899
1793	0.5856
1802	0.581
1811	0.5764
1820	0.5724
1829	0.5694
1838	0.5665
1847	0.5634
1856	0.5601
1865	0.5568
1874	0.5534
1883	0.55
1892	0.5465
1901	0.5434
1910	0.5404
1919	0.5367
1928	0.5321
1937	0.5287
1946	0.526
1955	0.5233
1964	0.5205
1973	0.5169
1982	0.513
1991	0.5078
2000	0.4966
2009	0.5055
2018	0.5117
2027	0.5062
2036	0.5004
2045	0.4945
2054	0.489
2063	0.4844
2072	0.4792
2081	0.4741
2090	0.469
2099	0.464
2108	0.4593
2117	0.4562
2126	0.4532
2135	0.45
2144	0.4468
2153	0.4436
2162	0.4408
2171	0.4378
2180	0.435
2189	0.4312
2198	0.4272
2207	0.4231
2216	0.4191
2225	0.4148
2234	0.4099
2243	0.4049
2252	0.4
2261	0.395
2270	0.39
2279	0.3853
2288	0.3808
2297	0.3762
2306	0.3716
2315	0.3666
2324	0.3632
2333	0.3603
2342	0.3584
2351	0.3576
2360	0.3568
2369	0.3559
2378	0.3556
2387	0.3553
2396	0.3536
2405	0.351
2414	0.3484
2423	0.346
2432	0.3439
2441	0.3416
2450	0.3394
2459	0.337
2468	0.3348
2477	0.3325
2486	0.3302
2495	0.3278
2504	0.3256
2513	0.3232
2522	0.3209
2531	0.3189
2540	0.317
2549	0.315
2558	0.313
2567	0.311
2576	0.3091
2585	0.3069
2594	0.3045
2603	0.3021
2612	0.2997
2621	0.2973
2630	0.2949
2639	0.2925
2648	0.2899
2657	0.2873
2666	0.2846
2675	0.282
2684	0.2794
2693	0.2767
2702	0.2741
2711	0.2716
2720	0.2691
2729	0.2665
2738	0.264
2747	0.2614
2756	0.2585
2765	0.2557
2774	0.2528
2783	0.2499
2792	0.2473
2801	0.245
2810	0.2427
2819	0.2405
2828	0.2385
2837	0.2357
2846	0.2322
2855	0.2285
2864	0.2246
2873	0.2202
2882	0.2142
2891	0.2079
2900	0.2008
2909	0.1948
2918	0.2083
2927	0.207
2936	0.2018
2945	0.1882
2954	0.1674
2963	0.1412
2972	0.2164
2981	0.2162
2990	0.2148
2999	0.2128
3008	0.2111
3017	0.2094
3026	0.2076
3035	0.2056
3044	0.2034
3053	0.2013
3062	0.1987
3071	0.1963
3080	0.1941
3089	0.1925
3098	0.1909
3107	0.1893
3116	0.1877
3125	0.1862
3134	0.1848
3143	0.1833
3152	0.1819
3161	0.1804
3170	0.1789
3179	0.1771
3188	0.1754
3197	0.1736
3206	0.1719
3215	0.1702
3224	0.1684
3233	0.1667
3242	0.165
3251	0.1633
3260	0.1617
3269	0.16
3278	0.1584
3287	0.1567
3296	0.1552
3305	0.1541
3314	0.153
3323	0.1519
3332	0.1508
3341	0.1496
3350	0.1485
3359	0.1477
3368	0.147
3377	0.1462
3386	0.1454
3395	0.1446
3404	0.1439
3413	0.1431
3422	0.1423
3431	0.1415
3440	0.1407
3449	0.1399
3458	0.1391
3467	0.1383
3476	0.1374
3485	0.1362
3494	0.1351
3503	0.1339
3512	0.1327
3521	0.1316
3530	0.1308
3539	0.13
3548	0.1292
3557	0.1286
3566	0.1278
3575	0.1269
3584	0.1259
3593	0.1249
3602	0.1239
3611	0.1228
3620	0.1218
3629	0.1209
3638	0.1206
3647	0.1202
3656	0.1199
3665	0.1195
3674	0.1191
3683	0.1187
3692	0.1183
3701	0.1176
3710	0.117
3719	0.1163
3728	0.1157
3737	0.1151
3746	0.1146
3755	0.1142
3764	0.1138
3773	0.1135
3782	0.1134
3791	0.1132
3800	0.1131
