Infrared Spectrum: Succinic acid, hydrazino-, hydrobromide
Formula: C4 H9 Br N2 O4
State: SOLID (0.9 mg / 650 mg KBr DISC)
Class: COBLENTZ III
Instrument: PERKIN-ELMER 21 (GRATING)
Instrument parameters: FILTER CHANGE ABOUT 1070 CM^-^1
Sampling: TRANSMISSION
Resolution: 2
Origin: SOUTHERN RESEARCH INSTITUTE
1/CM	TRANSMITTANCE
635.808	0.7001
643.841	0.6776
651.875	0.6654
659.908	0.6856
667.941	0.7554
675.975	0.7641
684.008	0.7596
692.041	0.7445
700.075	0.7236
708.108	0.7175
716.141	0.7973
724.175	0.8075
732.208	0.809
740.241	0.8081
748.275	0.8053
756.308	0.7984
764.341	0.7904
772.375	0.7816
780.408	0.7751
788.441	0.7736
796.475	0.7737
804.508	0.768
812.541	0.7552
820.575	0.745
828.608	0.7478
836.641	0.7586
844.675	0.7469
852.708	0.7315
860.741	0.7087
868.775	0.6613
876.808	0.5595
884.841	0.6795
892.875	0.6449
900.908	0.5808
908.941	0.496
916.975	0.5265
925.008	0.6104
933.041	0.5457
941.075	0.4919
949.108	0.4525
957.141	0.4451
965.175	0.4442
973.208	0.4381
981.241	0.3955
989.275	0.2688
997.308	0.5233
1005.34	0.5498
1013.37	0.5673
1021.41	0.5827
1029.44	0.5851
1037.47	0.5805
1045.51	0.5684
1053.54	0.5337
1061.57	0.4492
1069.61	0.3738
1077.64	0.3132
1085.67	0.2877
1093.71	0.2919
1101.74	0.3818
1109.77	0.4488
1117.81	0.4929
1125.84	0.5247
1133.87	0.5357
1141.91	0.5243
1149.94	0.5041
1157.97	0.4685
1166.01	0.3181
1174.04	0.4663
1182.07	0.4353
1190.11	0.3627
1198.14	0.364
1206.17	0.3588
1214.21	0.2801
1222.24	0.1767
1230.27	0.1315
1238.31	0.1327
1246.34	0.2534
1254.37	0.4902
1262.41	0.515
1270.44	0.502
1278.47	0.4834
1286.51	0.4697
1294.54	0.4385
1302.57	0.3144
1310.61	0.2224
1318.64	0.3061
1326.67	0.3181
1334.71	0.1893
1342.74	0.1479
1350.77	0.1877
1358.81	0.2699
1366.84	0.2683
1374.87	0.1818
1382.91	0.1138
1390.94	0.1459
1398.97	0.3285
1407.01	0.3558
1415.04	0.3237
1423.07	0.2903
1431.11	0.3636
1439.14	0.4892
1447.17	0.5154
1455.21	0.5269
1463.24	0.5318
1471.27	0.5273
1479.31	0.4751
1487.34	0.4227
1495.37	0.3717
1503.41	0.3809
1511.44	0.3955
1519.47	0.3848
1527.51	0.3509
1535.54	0.3332
1543.57	0.2752
1551.61	0.2556
1559.64	0.1716
1567.67	0.1244
1575.71	0.0624
1583.74	0.0324
1591.77	0.0386
1599.81	0.0823
1607.84	0.1311
1615.87	0.213
1623.91	0.2699
1631.94	0.349
1639.97	0.3801
1648.01	0.3833
1656.04	0.3801
1664.07	0.3472
1672.11	0.2011
1680.14	0.1721
1688.17	0.1727
1696.21	0.2574
1704.24	0.3135
1712.27	0.3625
1720.31	0.4062
1728.34	0.4427
1736.37	0.5021
1744.41	0.5446
1752.44	0.5901
1760.47	0.6249
1768.51	0.6475
1776.54	0.6564
1784.57	0.6681
1792.61	0.6675
1800.64	0.667
1808.67	0.6682
1816.71	0.6727
1824.74	0.6743
1832.77	0.6736
1840.81	0.6705
1848.84	0.6645
1856.87	0.6557
1864.91	0.6477
1872.94	0.6396
1880.97	0.6292
1889.01	0.6208
1897.04	0.6143
1905.07	0.6095
1913.11	0.6057
1921.14	0.602
1929.17	0.5979
1937.21	0.5956
1945.24	0.5968
1953.27	0.5984
1961.31	0.6004
1969.34	0.6037
1977.37	0.6088
1985.41	0.6143
1993.44	0.6222
2001.47	0.6331
2009.51	0.6389
2017.54	0.6436
2025.57	0.6494
2033.61	0.6559
2041.64	0.661
2049.67	0.6653
2057.71	0.6686
2065.74	0.6746
2073.77	0.6848
2081.81	0.6897
2089.84	0.6941
2097.87	0.6966
2105.91	0.6984
2113.94	0.6997
2121.97	0.6989
2130.01	0.698
2138.04	0.697
2146.07	0.6961
2154.11	0.6952
2162.14	0.6945
2170.17	0.694
2178.21	0.6929
2186.24	0.6909
2194.27	0.6871
2202.31	0.6828
2210.34	0.6778
2218.37	0.6726
2226.41	0.6665
2234.44	0.663
2242.47	0.6603
2250.51	0.6594
2258.54	0.6575
2266.57	0.6537
2274.61	0.6476
2282.64	0.6403
2290.67	0.6322
2298.71	0.6215
2306.74	0.6096
2314.77	0.5972
2322.81	0.5857
2330.84	0.5754
2338.87	0.5665
2346.91	0.5588
2354.94	0.5541
2362.97	0.5513
2371.01	0.5475
2379.04	0.5398
2387.07	0.5279
2395.11	0.5256
2403.14	0.5177
2411.17	0.5065
2419.21	0.4972
2427.24	0.4879
2435.27	0.4786
2443.31	0.47
2451.34	0.4639
2459.37	0.4595
2467.41	0.4553
2475.44	0.4473
2483.47	0.4419
2491.51	0.4396
2499.54	0.4392
2507.57	0.4396
2515.61	0.441
2523.64	0.4405
2531.67	0.4379
2539.71	0.4343
2547.74	0.4284
2555.77	0.4239
2563.81	0.4224
2571.84	0.4237
2579.87	0.4276
2587.91	0.4316
2595.94	0.4331
2603.97	0.433
2612.01	0.4325
2620.04	0.4333
2628.07	0.4422
2636.11	0.4444
2644.14	0.4442
2652.17	0.4432
2660.21	0.4389
2668.24	0.4342
2676.27	0.4283
2684.31	0.4222
2692.34	0.4195
2700.37	0.4195
2708.41	0.4205
2716.44	0.4222
2724.47	0.4242
2732.51	0.4256
2740.54	0.4267
2748.57	0.4247
2756.61	0.4153
2764.64	0.404
2772.67	0.3904
2780.71	0.3765
2788.74	0.3629
2796.77	0.3512
2804.81	0.3408
2812.84	0.3314
2820.87	0.3227
2828.91	0.3159
2836.94	0.3094
2844.97	0.3001
2853.01	0.2886
2861.04	0.2787
2869.07	0.27
2877.11	0.2635
2885.14	0.2569
2893.17	0.2372
2901.21	0.2215
2909.24	0.2098
2917.27	0.2007
2925.31	0.1947
2933.34	0.1921
2941.37	0.1914
2949.41	0.191
2957.44	0.1908
2965.47	0.1907
2973.51	0.1894
2981.54	0.1826
2989.57	0.1786
2997.61	0.1762
3005.64	0.1741
3013.67	0.1724
3021.71	0.1714
3029.74	0.1715
3037.77	0.1721
3045.81	0.1743
3053.84	0.1773
3061.87	0.1813
3069.91	0.1871
3077.94	0.1926
3085.97	0.1992
3094.01	0.2061
3102.04	0.2132
3110.07	0.2234
3118.11	0.2324
3126.14	0.2409
3134.17	0.2473
3142.21	0.2514
3150.24	0.2569
3158.27	0.267
3166.31	0.2764
3174.34	0.2935
3182.37	0.3099
3190.41	0.3181
3198.44	0.3322
3206.47	0.3484
3214.51	0.3564
3222.54	0.3593
3230.57	0.359
3238.61	0.3582
3246.64	0.3575
3254.67	0.3558
3262.71	0.3546
3270.74	0.3544
3278.77	0.3547
3286.81	0.3565
3294.84	0.3637
3302.87	0.3736
3310.91	0.3858
3318.94	0.4072
3326.97	0.4314
3335.01	0.4656
3343.04	0.4882
3351.07	0.504
3359.11	0.5192
3367.14	0.5294
3375.17	0.5421
3383.21	0.5559
3391.24	0.5621
3399.27	0.5653
3407.31	0.5674
3415.34	0.568
3423.37	0.5684
3431.41	0.5689
3439.44	0.5712
3447.47	0.5791
3455.51	0.5854
3463.54	0.5905
3471.57	0.5962
3479.61	0.6014
3487.64	0.6066
3495.67	0.6128
3503.71	0.6189
3511.74	0.6259
3519.77	0.6332
3527.81	0.6412
3535.84	0.6486
3543.87	0.656
3551.91	0.664
3559.94	0.6728
3567.97	0.6812
3576.01	0.6899
3584.04	0.6995
3592.07	0.7134
3600.11	0.7275
3608.14	0.7389
3616.17	0.7481
3624.21	0.7564
3632.24	0.7646
3640.27	0.7725
3648.31	0.7795
3656.34	0.7848
3664.37	0.789
3672.41	0.7976
3680.44	0.8044
3688.47	0.8095
3696.51	0.8137
3704.54	0.8169
3712.57	0.8195
3720.61	0.8215
3728.64	0.8232
3736.67	0.8248
3744.71	0.8313
3752.74	0.8319
3760.77	0.8319
3768.81	0.832
3776.84	0.832
3784.87	0.8313
3792.91	0.832
3800.94	0.8314
3808.97	0.8307
