Infrared Spectrum: POTASSIUM BISULFATE
Formula: K H S O4
State: SOLID (NUJOL AND FLUOROLUBE MULLS)
Class: COBLENTZ
Instrument: Not specified, most likely a prism, grating, or hybrid spectrometer.
Sampling: TRANSMISSION
Resolution: 4
Origin: MELLON INSTITUTE
MICROMETERS	TRANSMITTANCE
2.028	0.609
2.06795	0.621
2.1079	0.634
2.14785	0.648
2.1878	0.658
2.22775	0.675
2.2677	0.691
2.30765	0.705
2.3476	0.725
2.38755	0.743
2.4275	0.763
2.46745	0.782
2.5074	0.804
2.54735	0.815
2.5873	0.83
2.62725	0.847
2.6672	0.855
2.70715	0.869
2.7471	0.871
2.78705	0.857
2.827	0.84
2.86695	0.822
2.9069	0.805
2.94685	0.793
2.98681	0.775
3.02676	0.735
3.06671	0.681
3.10666	0.618
3.14661	0.566
3.18656	0.505
3.22651	0.445
3.26646	0.407
3.30641	0.381
3.34636	0.363
3.38631	0.35
3.42626	0.336
3.46621	0.333
3.50616	0.335
3.54611	0.35
3.58606	0.37
3.62601	0.391
3.66596	0.422
3.70591	0.45
3.74586	0.465
3.78581	0.465
3.82576	0.447
3.86571	0.445
3.90566	0.458
3.94561	0.457
3.98556	0.445
4.02551	0.427
4.06546	0.415
4.10541	0.41
4.14536	0.408
4.18531	0.408
4.22526	0.403
4.26521	0.398
4.30516	0.396
4.34511	0.405
4.38506	0.42
4.42501	0.44
4.46496	0.457
4.50491	0.479
4.54486	0.494
4.58481	0.507
4.62476	0.524
4.66471	0.536
4.70466	0.551
4.74461	0.566
4.78456	0.586
4.82452	0.616
4.86447	0.649
4.90442	0.675
4.94437	0.693
4.98432	0.715
5.02427	0.738
5.06422	0.755
5.10417	0.773
5.14412	0.787
5.18407	0.802
5.22402	0.814
5.26397	0.825
5.30392	0.837
5.34387	0.849
5.38382	0.864
5.42377	0.879
5.46372	0.892
5.50367	0.909
5.54362	0.917
5.58357	0.922
5.62352	0.927
5.66347	0.931
5.70342	0.932
5.74337	0.931
5.78332	0.932
5.82327	0.929
5.86322	0.922
5.90317	0.904
5.94312	0.902
5.98307	0.901
6.02302	0.896
6.06297	0.884
6.10292	0.886
6.14287	0.894
6.18282	0.911
6.22277	0.924
6.26272	0.926
6.30267	0.921
6.34262	0.922
6.38257	0.922
6.42252	0.924
6.46247	0.929
6.50242	0.927
6.54237	0.926
6.58232	0.927
6.62227	0.932
6.66222	0.936
6.70218	0.934
6.74213	0.899
6.78208	0.815
6.82203	0.748
6.86198	0.75
6.90193	0.79
6.94188	0.83
6.98183	0.852
7.02178	0.864
7.06173	0.864
7.10168	0.855
7.14163	0.832
7.18158	0.745
7.22153	0.693
7.26148	0.649
7.30143	0.609
7.34138	0.534
7.38133	0.484
7.42128	0.425
7.46123	0.376
7.50118	0.326
7.54113	0.304
7.58108	0.298
7.62103	0.284
7.66098	0.259
7.70093	0.214
7.74088	0.199
7.78083	0.194
7.82078	0.242
7.86073	0.298
7.90068	0.313
7.94063	0.301
7.98058	0.288
8.02053	0.269
8.06048	0.251
8.10043	0.227
8.14038	0.222
8.18033	0.216
8.22028	0.204
8.26023	0.19
8.30018	0.17
8.34013	0.152
8.38008	0.139
8.42003	0.112
8.45998	0.102
8.49993	0.09
8.53988	0.087
8.57984	0.082
8.61979	0.083
8.65974	0.102
8.69969	0.139
8.73964	0.185
8.77959	0.247
8.81954	0.309
8.85949	0.386
8.89944	0.44
8.93939	0.48
8.97934	0.519
9.01929	0.556
9.05924	0.581
9.09919	0.592
9.13914	0.569
9.17909	0.541
9.21904	0.515
9.25899	0.463
9.29894	0.358
9.33889	0.303
9.37884	0.329
9.41879	0.433
9.45874	0.556
9.49869	0.629
9.53864	0.676
9.57859	0.693
9.61854	0.691
9.65849	0.664
9.69844	0.616
9.73839	0.566
9.77834	0.477
9.81829	0.42
9.85824	0.4
9.89819	0.386
9.93814	0.385
9.97809	0.412
10.018	0.442
10.058	0.477
10.0979	0.519
10.1379	0.579
10.1778	0.621
10.2178	0.67
10.2577	0.708
10.2977	0.748
10.3376	0.775
10.3776	0.802
10.4175	0.825
10.4575	0.845
10.4974	0.867
10.5374	0.882
10.5773	0.901
10.6173	0.907
10.6572	0.921
10.6972	0.931
10.7371	0.938
10.7771	0.946
10.817	0.949
10.857	0.949
10.8969	0.946
10.9369	0.936
10.9768	0.921
11.0168	0.876
11.0567	0.809
11.0967	0.706
11.1366	0.562
11.1766	0.495
11.2165	0.378
11.2565	0.316
11.2964	0.283
11.3364	0.271
11.3764	0.268
11.4163	0.268
11.4563	0.273
11.4962	0.284
11.5362	0.323
11.5761	0.363
11.6161	0.376
11.656	0.351
11.696	0.313
11.7359	0.286
11.7759	0.279
11.8158	0.324
11.8558	0.425
11.8957	0.512
11.9357	0.589
11.9756	0.646
12.0156	0.701
12.0555	0.725
12.0955	0.745
12.1354	0.76
12.1754	0.765
12.2153	0.77
12.2553	0.777
12.2952	0.79
12.3352	0.805
12.3751	0.825
12.4151	0.845
12.455	0.864
12.495	0.882
12.5349	0.897
12.5749	0.902
12.6148	0.916
12.6548	0.924
12.6947	0.932
12.7347	0.939
12.7746	0.944
12.8146	0.948
12.8545	0.951
12.8945	0.954
12.9344	0.959
12.9744	0.963
13.0143	0.963
13.0543	0.966
13.0942	0.966
13.1342	0.964
13.1741	0.964
13.2141	0.963
13.254	0.961
13.294	0.963
13.3339	0.961
13.3739	0.959
13.4138	0.956
13.4538	0.954
13.4937	0.951
13.5337	0.948
13.5736	0.944
13.6136	0.941
13.6535	0.936
13.6935	0.932
13.7334	0.926
13.7734	0.922
13.8133	0.916
13.8533	0.912
13.8932	0.906
13.9332	0.902
13.9731	0.899
14.0131	0.891
14.053	0.887
14.093	0.881
14.1329	0.876
14.1729	0.869
14.2128	0.859
14.2528	0.852
14.2927	0.842
14.3327	0.832
14.3726	0.825
14.4126	0.815
14.4525	0.809
14.4925	0.797
14.5324	0.785
14.5724	0.773
14.6123	0.763
14.6523	0.755
14.6922	0.743
14.7322	0.733
14.7721	0.723
14.8121	0.716
14.852	0.706
14.892	0.7
14.9319	0.696
14.9719	0.691
15.0118	0.688
15.0518	0.683
15.0917	0.68
15.1317	0.68
15.1716	0.673
15.2116	0.675
15.2515	0.673
15.2915	0.673
15.3314	0.673
15.3714	0.673
15.4113	0.673
15.4513	0.673
15.4912	0.675
15.5312	0.675
15.5711	0.675
15.6111	0.675
15.651	0.675
15.691	0.676
15.7309	0.675
15.7709	0.68
15.8108	0.68
15.8508	0.683
15.8907	0.686
15.9307	0.691
15.9706	0.696
