Infrared Spectrum: MONO-2-ETHYL HEXYL SEBACATE
Formula: C18 H34 O4
Class: COBLENTZ
Instrument: Not specified, most likely a prism, grating, or hybrid spectrometer.
Sampling: TRANSMISSION
Path length: 0.0025 CM
Resolution: 4
MICROMETERS	TRANSMITTANCE
2.033	1
2.0728	1
2.11259	0.998
2.15239	0.995
2.19219	0.993
2.23199	0.981
2.27178	0.936
2.31158	0.918
2.35138	0.918
2.39117	0.925
2.43097	0.935
2.47077	0.938
2.51056	0.961
2.55036	0.965
2.59016	0.976
2.62996	0.986
2.66975	0.986
2.70955	0.986
2.74935	0.986
2.78914	0.958
2.82894	0.893
2.86874	0.838
2.90854	0.752
2.94833	0.67
2.98813	0.59
3.02793	0.545
3.06772	0.519
3.10752	0.495
3.14732	0.48
3.18711	0.47
3.22691	0.425
3.26671	0.41
3.30651	0.349
3.3463	0.136
3.3861	0.026
3.4259	0.024
3.46569	0.031
3.50549	0.079
3.54529	0.465
3.58509	0.562
3.62488	0.58
3.66468	0.59
3.70448	0.577
3.74427	0.603
3.78407	0.623
3.82387	0.648
3.86366	0.66
3.90346	0.675
3.94326	0.705
3.98306	0.762
4.02285	0.798
4.06265	0.82
4.10245	0.831
4.14224	0.855
4.18204	0.863
4.22184	0.868
4.26164	0.901
4.30143	0.93
4.34123	0.913
4.38103	0.911
4.42082	0.911
4.46062	0.915
4.50042	0.923
4.54021	0.923
4.58001	0.926
4.61981	0.923
4.65961	0.928
4.6994	0.926
4.7392	0.923
4.779	0.928
4.81879	0.921
4.85859	0.905
4.89839	0.908
4.93819	0.918
4.97798	0.92
5.01778	0.916
5.05758	0.903
5.09737	0.91
5.13717	0.905
5.17697	0.905
5.21676	0.901
5.25656	0.893
5.29636	0.88
5.33616	0.868
5.37595	0.856
5.41575	0.836
5.45555	0.79
5.49534	0.745
5.53514	0.68
5.57494	0.574
5.61474	0.43
5.65453	0.114
5.69433	0.023
5.73413	0.024
5.77392	0.023
5.81372	0.026
5.85352	0.058
5.89331	0.216
5.93311	0.432
5.97291	0.567
6.01271	0.637
6.0525	0.727
6.0923	0.792
6.1321	0.811
6.17189	0.836
6.21169	0.843
6.25149	0.851
6.29129	0.858
6.33108	0.861
6.37088	0.873
6.41068	0.868
6.45047	0.875
6.49027	0.863
6.53007	0.853
6.56986	0.83
6.60966	0.795
6.64946	0.747
6.68926	0.577
6.72905	0.376
6.76885	0.039
6.80865	0.093
6.84844	0.178
6.88824	0.222
6.92804	0.269
6.96784	0.256
7.00763	0.221
7.04743	0.242
7.08723	0.334
7.12702	0.246
7.16682	0.196
7.20662	0.193
7.24641	0.282
7.28621	0.256
7.32601	0.224
7.36581	0.221
7.4056	0.236
7.4454	0.274
7.4852	0.252
7.52499	0.207
7.56479	0.189
7.60459	0.153
7.64439	0.129
7.68418	0.128
7.72398	0.111
7.76378	0.094
7.80357	0.078
7.84337	0.068
7.88317	0.064
7.92296	0.061
7.96276	0.046
8.00256	0.041
8.04236	0.039
8.08215	0.044
8.12195	0.048
8.16175	0.049
8.20154	0.051
8.24134	0.051
8.28114	0.046
8.32094	0.034
8.36073	0.023
8.40053	0.014
8.44033	0.014
8.48012	0.014
8.51992	0.018
8.55972	0.028
8.59951	0.044
8.63931	0.078
8.67911	0.128
8.71891	0.156
8.7587	0.154
8.7985	0.153
8.8383	0.191
8.87809	0.262
8.91789	0.312
8.95769	0.262
8.99749	0.239
9.03728	0.221
9.07708	0.232
9.11688	0.272
9.15667	0.357
9.19647	0.429
9.23627	0.454
9.27606	0.452
9.31586	0.44
9.35566	0.442
9.39546	0.494
9.43525	0.52
9.47505	0.499
9.51485	0.484
9.55464	0.429
9.59444	0.391
9.63424	0.377
9.67404	0.377
9.71383	0.376
9.75363	0.389
9.79343	0.392
9.83322	0.402
9.87302	0.417
9.91282	0.442
9.95261	0.46
9.99241	0.489
10.0322	0.5
10.072	0.495
10.1118	0.489
10.1516	0.49
10.1914	0.494
10.2312	0.467
10.271	0.435
10.3108	0.42
10.3506	0.409
10.3904	0.404
10.4302	0.404
10.47	0.404
10.5098	0.402
10.5496	0.404
10.5894	0.405
10.6292	0.405
10.669	0.425
10.7088	0.444
10.7486	0.455
10.7884	0.484
10.8281	0.492
10.8679	0.517
10.9077	0.52
10.9475	0.534
10.9873	0.539
11.0271	0.555
11.0669	0.564
11.1067	0.58
11.1465	0.589
11.1863	0.599
11.2261	0.608
11.2659	0.62
11.3057	0.622
11.3455	0.623
11.3853	0.637
11.4251	0.633
11.4649	0.633
11.5047	0.637
11.5445	0.648
11.5843	0.655
11.6241	0.663
11.6639	0.675
11.7037	0.675
11.7435	0.675
11.7833	0.668
11.8231	0.668
11.8629	0.668
11.9027	0.672
11.9425	0.672
11.9823	0.67
12.0221	0.672
12.0619	0.668
12.1017	0.67
12.1415	0.675
12.1812	0.683
12.221	0.673
12.2608	0.672
12.3006	0.672
12.3404	0.672
12.3802	0.67
12.42	0.673
12.4598	0.675
12.4996	0.672
12.5394	0.653
12.5792	0.648
12.619	0.64
12.6588	0.628
12.6986	0.618
12.7384	0.612
12.7782	0.612
12.818	0.597
12.8578	0.584
12.8976	0.585
12.9374	0.597
12.9772	0.608
13.017	0.638
13.0568	0.658
13.0966	0.665
13.1364	0.673
13.1762	0.678
13.216	0.677
13.2558	0.673
13.2956	0.67
13.3354	0.663
13.3752	0.652
13.415	0.642
13.4548	0.625
13.4946	0.622
13.5343	0.602
13.5741	0.582
13.6139	0.549
13.6537	0.515
13.6935	0.5
13.7333	0.512
13.7731	0.547
13.8129	0.597
13.8527	0.658
13.8925	0.675
13.9323	0.695
13.9721	0.713
14.0119	0.722
14.0517	0.725
14.0915	0.738
14.1313	0.742
14.1711	0.745
14.2109	0.75
14.2507	0.753
14.2905	0.752
14.3303	0.753
14.3701	0.75
14.4099	0.752
14.4497	0.753
14.4895	0.762
14.5293	0.76
14.5691	0.757
14.6089	0.75
14.6487	0.748
14.6885	0.748
14.7283	0.747
14.7681	0.733
14.8079	0.723
14.8477	0.728
14.8874	0.722
14.9272	0.727
14.967	0.73
15.0068	0.72
15.0466	0.708
15.0864	0.71
15.1262	0.71
15.166	0.703
15.2058	0.7
15.2456	0.692
15.2854	0.688
15.3252	0.687
15.365	0.687
15.4048	0.685
15.4446	0.683
15.4844	0.678
15.5242	0.67
15.564	0.672
15.6038	0.67
15.6436	0.672
15.6834	0.67
15.7232	0.662
15.763	0.663
15.8028	0.662
15.8426	0.662
15.8824	0.662
15.9222	0.658
15.962	0.658
16.0018	0.66
