Infrared Spectrum: ZINC OXIDE (LEAD FREE )
Formula: Zn O
State: SOLID (0.5 mg / 300 mg CsI PELLET)
Class: COBLENTZ
Instrument: Not specified, most likely a grating spectrometer.
Sampling: TRANSMISSION
Resolution: 4
Origin: DESOTO CHEMICAL COATINGS, INC.
1/CM	TRANSMITTANCE
200	0.695
210.635	0.698
221.27	0.704
231.905	0.715
242.541	0.735
253.176	0.753
263.811	0.757
274.446	0.759
285.081	0.762
295.716	0.748
306.352	0.75
316.987	0.734
327.622	0.726
338.257	0.712
348.892	0.708
359.527	0.698
370.163	0.666
380.798	0.5502
391.433	0.2491
402.068	0.206
412.703	0.216
423.338	0.232
433.974	0.253
444.609	0.279
455.244	0.304
465.879	0.291
476.514	0.241
487.149	0.18
497.785	0.161
508.42	0.181
519.055	0.22
529.69	0.242
540.325	0.4169
550.96	0.608
561.596	0.732
572.231	0.798
582.866	0.841
593.501	0.869
604.136	0.889
614.771	0.897
625.407	0.905
636.042	0.917
646.677	0.922
657.312	0.922
667.947	0.926
678.582	0.93
689.218	0.939
699.853	0.942
710.488	0.953
721.123	0.962
731.758	0.967
742.393	0.974
753.029	0.978
763.664	0.985
774.299	0.986
784.934	0.983
795.569	0.986
806.204	0.983
816.84	0.986
827.475	0.986
838.11	0.985
848.745	0.982
859.38	0.974
870.015	0.971
880.651	0.97
891.286	0.967
901.921	0.969
912.556	0.971
923.191	0.974
933.826	0.979
944.462	0.982
955.097	0.982
965.732	0.986
976.367	0.985
987.002	0.982
997.637	0.978
1008.27	0.973
1018.91	0.963
1029.54	0.955
1040.18	0.946
1050.81	0.943
1061.45	0.943
1072.08	0.938
1082.72	0.935
1093.35	0.937
1103.99	0.939
1114.62	0.938
1125.26	0.941
1135.89	0.943
1146.53	0.957
1157.16	0.965
1167.8	0.973
1178.44	0.978
1189.07	0.982
1199.71	0.985
1210.34	0.985
1220.98	0.989
1231.61	0.989
1242.25	0.987
1252.88	0.989
1263.52	0.987
1274.15	0.989
1284.79	0.989
1295.42	0.989
1306.06	0.986
1316.69	0.986
1327.33	0.985
1337.96	0.982
1348.6	0.983
1359.23	0.982
1369.87	0.982
1380.5	0.979
1391.14	0.979
1401.77	0.982
1412.41	0.979
1423.04	0.981
1433.68	0.982
1444.31	0.982
1454.95	0.979
1465.58	0.979
1476.22	0.983
1486.85	0.987
1497.49	0.989
1508.13	0.986
1518.76	0.983
1529.4	0.982
1540.03	0.979
1550.67	0.977
1561.3	0.975
1571.94	0.969
1582.57	0.959
1593.21	0.937
1603.84	0.913
1614.48	0.89
1625.11	0.89
1635.75	0.913
1646.38	0.929
1657.02	0.938
1667.65	0.95
1678.29	0.955
1688.92	0.965
1699.56	0.973
1710.19	0.969
1720.83	0.973
1731.46	0.977
1742.1	0.982
1752.73	0.983
1763.37	0.985
1774	0.985
1784.64	0.987
1795.27	0.986
1805.91	0.985
1816.55	0.986
1827.18	0.986
1837.82	0.986
1848.45	0.986
1859.09	0.986
1869.72	0.985
1880.36	0.986
1890.99	0.986
1901.63	0.985
1912.26	0.986
1922.9	0.982
1933.53	0.985
1944.17	0.983
1954.8	0.982
1965.44	0.985
1976.07	0.983
1986.71	0.983
1997.34	0.983
2007.98	0.982
2018.61	0.981
2029.25	0.982
2039.88	0.979
2050.52	0.977
2061.15	0.977
2071.79	0.975
2082.42	0.973
2093.06	0.973
2103.69	0.975
2114.33	0.971
2124.96	0.97
2135.6	0.973
2146.24	0.974
2156.87	0.9711
2167.51	0.971
2178.14	0.971
2188.78	0.971
2199.41	0.969
2210.05	0.97
2220.68	0.97
2231.32	0.969
2241.95	0.967
2252.59	0.969
2263.22	0.967
2273.86	0.966
2284.49	0.97
2295.13	0.969
2305.76	0.967
2316.4	0.966
2327.03	0.9631
2337.67	0.958
2348.3	0.954
2358.94	0.951
2369.57	0.9451
2380.21	0.941
2390.84	0.9507
2401.48	0.958
2412.11	0.961
2422.75	0.961
2433.38	0.959
2444.02	0.961
2454.66	0.961
2465.29	0.961
2475.93	0.961
2486.56	0.961
2497.2	0.961
2507.83	0.961
2518.47	0.961
2529.1	0.959
2539.74	0.959
2550.37	0.958
2561.01	0.957
2571.64	0.955
2582.28	0.9541
2592.91	0.953
2603.55	0.9501
2614.18	0.9491
2624.82	0.9499
2635.45	0.951
2646.09	0.9491
2656.72	0.949
2667.36	0.9509
2677.99	0.9491
2688.63	0.946
2699.26	0.9432
2709.9	0.945
2720.53	0.945
2731.17	0.9432
2741.8	0.9411
2752.44	0.941
2763.07	0.9429
2773.71	0.942
2784.35	0.941
2794.98	0.9392
2805.62	0.938
2816.25	0.937
2826.89	0.937
2837.52	0.934
2848.16	0.9273
2858.79	0.9154
2869.43	0.9139
2880.06	0.9168
2890.7	0.9189
2901.33	0.9181
2911.97	0.9141
2922.6	0.9054
2933.24	0.8971
2943.87	0.8989
2954.51	0.9068
2965.14	0.913
2975.78	0.915
2986.41	0.9189
2997.05	0.9229
3007.68	0.923
3018.32	0.925
3028.95	0.9232
3039.59	0.923
3050.22	0.923
3060.86	0.922
3071.49	0.921
3082.13	0.921
3092.76	0.925
3103.4	0.9211
3114.04	0.918
3124.67	0.918
3135.31	0.915
3145.94	0.915
3156.58	0.9131
3167.21	0.91
3177.85	0.907
3188.48	0.9033
3199.12	0.901
3209.75	0.8971
3220.39	0.89
3231.02	0.891
3241.66	0.89
3252.29	0.8873
3262.93	0.8824
3273.56	0.8753
3284.2	0.871
3294.83	0.867
3305.47	0.8611
3316.1	0.8513
3326.74	0.8412
3337.37	0.8333
3348.01	0.8186
3358.64	0.8053
3369.28	0.7893
3379.91	0.7732
3390.55	0.7616
3401.18	0.7467
3411.82	0.7323
3422.46	0.7211
3433.09	0.7112
3443.73	0.7043
3454.36	0.702
3465	0.7
3475.63	0.703
3486.27	0.7078
3496.9	0.715
3507.54	0.719
3518.17	0.7273
3528.81	0.7358
3539.44	0.7469
3550.08	0.7563
3560.71	0.7693
3571.35	0.7861
3581.98	0.7966
3592.62	0.8083
3603.25	0.8226
3613.89	0.8399
3624.52	0.8533
3635.16	0.8628
3645.79	0.8786
3656.43	0.8818
3667.06	0.8926
3677.7	0.891
3688.33	0.893
3698.97	0.894
3709.6	0.894
3720.24	0.8938
3730.87	0.897
3741.51	0.894
3752.15	0.8966
3762.78	0.897
3773.42	0.895
3784.05	0.8948
3794.69	0.897
3805.32	0.8942
3815.96	0.893
3826.59	0.893
3837.23	0.893
3847.86	0.893
3858.5	0.893
3869.13	0.8902
3879.77	0.89
3890.4	0.89
3901.04	0.89
3911.67	0.889
3922.31	0.889
3932.94	0.889
3943.58	0.887
3954.21	0.887
3964.85	0.886
3975.48	0.886
