Infrared Spectrum: METHANE,BIS-(4-DIETHYLAMINOPHENYL)-,DIHYDROCHLORIDE
Formula: C21 H32 Cl2 N2
State: SOLID (KBr DISC, 0.8% WT.)
Class: COBLENTZ III
Instrument: PERKIN-ELMER 157
Sampling: TRANSMISSION
Resolution: 2
Origin: BRITISH PETROLEUM CO. LTD., ENGLAND
1/CM	TRANSMITTANCE
667	0.5823
676	0.5112
685	0.2994
694	0.4526
703	0.5533
712	0.5404
721	0.4656
730	0.5283
739	0.5702
748	0.5444
757	0.5124
766	0.5312
775	0.5073
784	0.4431
793	0.1607
802	0.1693
811	0.3431
820	0.2028
829	0.1625
838	0.2588
847	0.1594
856	0.3638
865	0.4432
874	0.2788
883	0.3774
892	0.5323
901	0.5128
910	0.4129
919	0.2595
928	0.4343
937	0.5424
946	0.5558
955	0.544
964	0.5219
973	0.5037
982	0.4663
991	0.4073
1000	0.3227
1009	0.1754
1018	0.0332
1027	0.107
1036	0.2091
1045	0.3628
1054	0.4376
1063	0.2827
1072	0.4835
1081	0.5134
1090	0.4772
1099	0.3196
1108	0.3485
1117	0.2159
1126	0.2377
1135	0.414
1144	0.3643
1153	0.1181
1162	0.2812
1171	0.3833
1180	0.2819
1189	0.3246
1198	0.2759
1207	0.4686
1216	0.5248
1225	0.5305
1234	0.5131
1243	0.488
1252	0.4541
1261	0.3543
1270	0.1834
1279	0.2391
1288	0.3047
1297	0.2891
1306	0.3953
1315	0.3172
1324	0.3263
1333	0.3357
1342	0.3788
1351	0.3768
1360	0.3484
1369	0.1874
1378	0.1345
1387	0.1311
1396	0.1571
1405	0.1384
1414	0.1229
1423	0.183
1432	0.1653
1441	0.0768
1450	0.0365
1459	0.0363
1468	0.0361
1477	0.0723
1486	0.1865
1495	0.2146
1504	0.1208
1513	0.0723
1522	0.3053
1531	0.4064
1540	0.4883
1549	0.4987
1558	0.5094
1567	0.5059
1576	0.4828
1585	0.4575
1594	0.3686
1603	0.3084
1612	0.387
1621	0.4455
1630	0.4511
1639	0.4567
1648	0.4678
1657	0.4734
1666	0.505
1675	0.5285
1684	0.5495
1693	0.5569
1702	0.5616
1711	0.5617
1720	0.5618
1729	0.5679
1738	0.578
1747	0.5791
1756	0.5783
1765	0.5769
1774	0.5746
1783	0.5709
1792	0.5665
1801	0.5621
1810	0.5584
1819	0.5563
1828	0.5566
1837	0.56
1846	0.5628
1855	0.5635
1864	0.5634
1873	0.5629
1882	0.5607
1891	0.5544
1900	0.5453
1909	0.5288
1918	0.516
1927	0.5134
1936	0.4992
1945	0.4937
1954	0.4942
1963	0.4988
1972	0.5069
1981	0.5136
1990	0.517
1999	0.5184
2008	0.5175
2017	0.5158
2026	0.5126
2035	0.508
2044	0.5025
2053	0.4949
2062	0.4866
2071	0.4819
2080	0.4776
2089	0.4741
2098	0.4704
2107	0.4631
2116	0.4534
2125	0.4398
2134	0.4291
2143	0.4193
2152	0.4085
2161	0.3964
2170	0.3843
2179	0.3666
2188	0.3541
2197	0.333
2206	0.3168
2215	0.3119
2224	0.3024
2233	0.2882
2242	0.2746
2251	0.2561
2260	0.2367
2269	0.2238
2278	0.2132
2287	0.1981
2296	0.1642
2305	0.1272
2314	0.1023
2323	0.0822
2332	0.0627
2341	0.0583
2350	0.0471
2359	0.0401
2368	0.0382
2377	0.0375
2386	0.0366
2395	0.0335
2404	0.0254
2413	0.0177
2422	0.0152
2431	0.0147
2440	0.0145
2449	0.0145
2458	0.0146
2467	0.0147
2476	0.0147
2485	0.0148
2494	0.0149
2503	0.015
2512	0.0151
2521	0.0152
2530	0.0154
2539	0.0158
2548	0.0162
2557	0.0171
2566	0.0187
2575	0.0207
2584	0.0214
2593	0.0214
2602	0.0239
2611	0.0294
2620	0.0332
2629	0.0342
2638	0.0407
2647	0.0525
2656	0.0616
2665	0.068
2674	0.0695
2683	0.0705
2692	0.0781
2701	0.0916
2710	0.1051
2719	0.1163
2728	0.1191
2737	0.1207
2746	0.1362
2755	0.1574
2764	0.1733
2773	0.1751
2782	0.1749
2791	0.1722
2800	0.1642
2809	0.1469
2818	0.1151
2827	0.0893
2836	0.0907
2845	0.0944
2854	0.0951
2863	0.093
2872	0.0891
2881	0.0915
2890	0.0966
2899	0.0978
2908	0.0973
2917	0.0953
2926	0.09
2935	0.0829
2944	0.0796
2953	0.0775
2962	0.0758
2971	0.075
2980	0.0807
2989	0.0958
2998	0.1106
3007	0.1152
3016	0.1188
3025	0.1221
3034	0.1566
3043	0.2186
3052	0.2671
3061	0.2796
3070	0.2985
3079	0.3083
3088	0.3118
3097	0.3141
3106	0.3155
3115	0.3162
3124	0.3165
3133	0.3161
3142	0.3138
3151	0.3086
3160	0.3018
3169	0.2931
3178	0.2815
3187	0.2766
3196	0.2755
3205	0.2742
3214	0.2719
3223	0.2687
3232	0.2645
3241	0.2599
3250	0.2546
3259	0.2485
3268	0.2425
3277	0.2367
3286	0.2304
3295	0.2193
3304	0.2098
3313	0.2013
3322	0.1933
3331	0.1854
3340	0.176
3349	0.164
3358	0.1449
3367	0.1341
3376	0.1258
3385	0.1231
3394	0.122
3403	0.1219
3412	0.1219
3421	0.122
3430	0.1224
3439	0.1233
3448	0.1253
3457	0.1275
3466	0.1298
3475	0.1319
3484	0.1348
3493	0.1381
3502	0.1438
3511	0.1671
3520	0.1852
3529	0.202
3538	0.2124
3547	0.231
3556	0.2566
3565	0.2816
3574	0.3065
3583	0.3314
3592	0.357
3601	0.3661
3610	0.3756
3619	0.3853
3628	0.393
3637	0.398
3646	0.4146
3655	0.4542
3664	0.4602
3673	0.4639
3682	0.4666
3691	0.4683
3700	0.4689
3709	0.4691
3718	0.4694
3727	0.4692
3736	0.4688
3745	0.4682
3754	0.4671
3763	0.4647
3772	0.4619
3781	0.4601
3790	0.4596
3799	0.4598
3808	0.4599
3817	0.4593
3826	0.4585
3835	0.457
3844	0.4542
3853	0.4503
3862	0.4468
3871	0.4443
3880	0.4426
3889	0.442
3898	0.4416
3907	0.4411
3916	0.4407
3925	0.4402
3934	0.4398
3943	0.4394
3952	0.4389
3961	0.4384
3970	0.438
3979	0.4375
3988	0.437
3997	0.4367
