Infrared Spectrum: LEAD SULFATE
Formula: 2 Pb S O4  * Pb O
State: SOLID (0.5 mg / 300 mg CsI PELLET)
Class: COBLENTZ
Instrument: Not specified, most likely a grating spectrometer.
Sampling: TRANSMISSION
Resolution: 4
Origin: DESOTO CHEMICAL COATINGS, INC.
1/CM	TRANSMITTANCE
196.012	0.8
206.647	0.783
217.282	0.791
227.918	0.799
238.553	0.81
249.188	0.819
259.823	0.83
270.458	0.836
281.094	0.84
291.729	0.838
302.364	0.827
312.999	0.816
323.634	0.788
334.27	0.76
344.905	0.741
355.54	0.739
366.175	0.739
376.81	0.739
387.446	0.743
398.081	0.758
408.716	0.764
419.351	0.762
429.986	0.76
440.622	0.771
451.257	0.812
461.892	0.831
472.527	0.851
483.162	0.868
493.797	0.879
504.433	0.889
515.068	0.897
525.703	0.905
536.338	0.906
546.973	0.909
557.609	0.91
568.244	0.907
578.879	0.894
589.514	0.7033
600.149	0.4139
610.785	0.624
621.42	0.736
632.055	0.5839
642.69	0.866
653.325	0.929
663.961	0.938
674.596	0.942
685.231	0.919
695.866	0.942
706.501	0.962
717.137	0.966
727.772	0.971
738.407	0.977
749.042	0.978
759.677	0.978
770.313	0.978
780.948	0.978
791.583	0.981
802.218	0.985
812.853	0.987
823.489	0.987
834.124	0.986
844.759	0.978
855.394	0.981
866.029	0.985
876.665	0.983
887.3	0.983
897.935	0.977
908.57	0.974
919.205	0.971
929.841	0.963
940.476	0.953
951.111	0.937
961.746	0.891
972.381	0.782
983.017	0.872
993.652	0.827
1004.29	0.7211
1014.92	0.643
1025.56	0.52
1036.19	0.355
1046.83	0.231
1057.46	0.168
1068.1	0.133
1078.73	0.118
1089.37	0.137
1100	0.164
1110.64	0.22
1121.27	0.298
1131.91	0.39
1142.54	0.461
1153.18	0.462
1163.81	0.389
1174.45	0.359
1185.09	0.47
1195.72	0.601
1206.36	0.701
1216.99	0.762
1227.63	0.846
1238.26	0.901
1248.9	0.923
1259.53	0.941
1270.17	0.95
1280.8	0.955
1291.44	0.961
1302.07	0.959
1312.71	0.953
1323.34	0.951
1333.98	0.946
1344.61	0.937
1355.25	0.922
1365.88	0.906
1376.52	0.879
1387.15	0.84
1397.79	0.786
1408.42	0.752
1419.06	0.759
1429.69	0.783
1440.33	0.812
1450.97	0.842
1461.6	0.871
1472.24	0.902
1482.87	0.919
1493.51	0.933
1504.14	0.946
1514.78	0.951
1525.41	0.953
1536.05	0.954
1546.68	0.955
1557.32	0.957
1567.95	0.955
1578.59	0.954
1589.22	0.942
1599.86	0.91
1610.49	0.889
1621.13	0.886
1631.76	0.903
1642.4	0.926
1653.03	0.939
1663.67	0.951
1674.3	0.962
1684.94	0.959
1695.57	0.975
1706.21	0.974
1716.85	0.977
1727.48	0.981
1738.12	0.978
1748.75	0.981
1759.39	0.981
1770.02	0.985
1780.66	0.982
1791.29	0.983
1801.93	0.986
1812.56	0.983
1823.2	0.986
1833.83	0.985
1844.47	0.985
1855.1	0.985
1865.74	0.983
1876.37	0.983
1887.01	0.983
1897.64	0.983
1908.28	0.983
1918.91	0.981
1929.55	0.979
1940.18	0.979
1950.82	0.979
1961.45	0.978
1972.09	0.977
1982.72	0.974
1993.36	0.974
2004	0.973
2014.63	0.973
2025.27	0.973
2035.9	0.971
2046.54	0.971
2057.17	0.9719
2067.81	0.975
2078.44	0.975
2089.08	0.974
2099.71	0.9744
2110.35	0.977
2120.98	0.975
2131.62	0.975
2142.25	0.974
2152.89	0.9746
2163.52	0.974
2174.16	0.9758
2184.79	0.979
2195.43	0.978
2206.06	0.979
2216.7	0.979
2227.33	0.979
2237.97	0.979
2248.6	0.979
2259.24	0.979
2269.88	0.978
2280.51	0.981
2291.15	0.978
2301.78	0.9813
2312.42	0.9801
2323.05	0.977
2333.69	0.9747
2344.32	0.971
2354.96	0.971
2365.59	0.973
2376.23	0.975
2386.86	0.9783
2397.5	0.979
2408.13	0.977
2418.77	0.977
2429.4	0.978
2440.04	0.979
2450.67	0.979
2461.31	0.979
2471.94	0.979
2482.58	0.979
2493.21	0.979
2503.85	0.979
2514.48	0.979
2525.12	0.979
2535.76	0.979
2546.39	0.979
2557.03	0.979
2567.66	0.979
2578.3	0.979
2588.93	0.979
2599.57	0.979
2610.2	0.978
2620.84	0.978
2631.47	0.977
2642.11	0.975
2652.74	0.977
2663.38	0.977
2674.01	0.978
2684.65	0.978
2695.28	0.978
2705.92	0.978
2716.55	0.977
2727.19	0.977
2737.82	0.975
2748.46	0.974
2759.09	0.974
2769.73	0.975
2780.36	0.974
2791	0.973
2801.64	0.973
2812.27	0.974
2822.91	0.973
2833.54	0.971
2844.18	0.967
2854.81	0.962
2865.45	0.959
2876.08	0.962
2886.72	0.962
2897.35	0.9611
2907.99	0.9552
2918.62	0.9491
2929.26	0.9392
2939.89	0.9429
2950.53	0.9509
2961.16	0.9549
2971.8	0.9589
2982.43	0.9619
2993.07	0.962
3003.7	0.965
3014.34	0.963
3024.97	0.962
3035.61	0.961
3046.24	0.961
3056.88	0.961
3067.51	0.962
3078.15	0.961
3088.79	0.961
3099.42	0.9582
3110.06	0.957
3120.69	0.955
3131.33	0.953
3141.96	0.953
3152.6	0.9514
3163.23	0.9492
3173.87	0.947
3184.5	0.9422
3195.14	0.9372
3205.77	0.9332
3216.41	0.9292
3227.04	0.926
3237.68	0.9223
3248.31	0.919
3258.95	0.915
3269.58	0.9116
3280.22	0.9063
3290.85	0.902
3301.49	0.8936
3312.12	0.8836
3322.76	0.8713
3333.39	0.8586
3344.03	0.8419
3354.67	0.8253
3365.3	0.8083
3375.94	0.786
3386.57	0.7667
3397.21	0.7435
3407.84	0.7237
3418.48	0.7128
3429.11	0.6971
3439.75	0.6878
3450.38	0.681
3461.02	0.681
3471.65	0.684
3482.29	0.6916
3492.92	0.6982
3503.56	0.7122
3514.19	0.7217
3524.83	0.7326
3535.46	0.7432
3546.1	0.7578
3556.73	0.7767
3567.37	0.8011
3578	0.8198
3588.64	0.8425
3599.27	0.8653
3609.91	0.8915
3620.55	0.908
3631.18	0.917
3641.82	0.933
3652.45	0.9425
3663.09	0.948
3673.72	0.9519
3684.36	0.954
3694.99	0.9545
3705.63	0.955
3716.26	0.955
3726.9	0.955
3737.53	0.955
3748.17	0.955
3758.8	0.955
3769.44	0.954
3780.07	0.954
3790.71	0.954
3801.34	0.954
3811.98	0.954
3822.61	0.954
3833.25	0.955
3843.88	0.957
3854.52	0.954
3865.15	0.954
3875.79	0.954
3886.43	0.954
3897.06	0.954
3907.7	0.955
3918.33	0.957
3928.97	0.955
3939.6	0.954
3950.24	0.954
3960.87	0.9537
3971.51	0.953
3982.14	0.953
