Infrared Spectrum: Acetanilide, N-tert-butyl-3-chloro-
Formula: C12 H16 Cl N O
State: LIQUID (NEAT)
Class: COBLENTZ III
Instrument: BECKMAN IR-4 (HYBRID PRISM-GRATING)
Instrument parameters: NaCl PRISM
Sampling: TRANSMISSION
Path length: CAPILLARY
Resolution: 2
Origin: MONSANTO (J. FREEMAN)
1/CM	TRANSMITTANCE
656	0.9898
665	0.9489
674	0.9872
683	0.9565
692	0.8365
701	0.3505
710	0.8985
719	0.973
728	0.976
737	0.9246
746	0.485
755	0.8936
764	0.9346
773	0.9314
782	0.6981
791	0.6596
800	0.8684
809	0.8458
818	0.9575
827	0.9734
836	0.9713
845	0.9737
854	0.9692
863	0.9651
872	0.9091
881	0.8784
890	0.9408
899	0.9102
908	0.9213
917	0.908
926	0.8529
935	0.874
944	0.9524
953	0.9535
962	0.9286
971	0.7738
980	0.7983
989	0.8784
998	0.8297
1007	0.9485
1016	0.9387
1025	0.8473
1034	0.7384
1043	0.7828
1052	0.9028
1061	0.9188
1070	0.635
1079	0.8843
1088	0.7868
1097	0.8998
1106	0.9519
1115	0.9629
1124	0.9641
1133	0.9589
1142	0.9457
1151	0.9137
1160	0.8526
1169	0.8377
1178	0.6952
1187	0.5178
1196	0.3999
1205	0.6437
1214	0.6801
1223	0.6064
1232	0.8122
1241	0.8156
1250	0.801
1259	0.801
1268	0.6633
1277	0.4366
1286	0.6547
1295	0.6077
1304	0.7504
1313	0.6168
1322	0.3972
1331	0.1984
1340	0.3381
1349	0.6012
1358	0.4707
1367	0.206
1376	0.316
1385	0.5684
1394	0.5287
1403	0.7218
1412	0.6393
1421	0.6096
1430	0.6689
1439	0.6988
1448	0.664
1457	0.5612
1466	0.36
1475	0.4073
1484	0.477
1493	0.7717
1502	0.834
1511	0.8625
1520	0.8714
1529	0.8692
1538	0.8673
1547	0.8619
1556	0.831
1565	0.6259
1574	0.4769
1583	0.3403
1592	0.5129
1601	0.7916
1610	0.8079
1619	0.8013
1628	0.754
1637	0.6306
1646	0.4342
1655	0.1271
1664	0.1039
1673	0.2813
1682	0.513
1691	0.7459
1700	0.8535
1709	0.8936
1718	0.9092
1727	0.9197
1736	0.923
1745	0.9217
1754	0.921
1763	0.9225
1772	0.9248
1781	0.9247
1790	0.9251
1799	0.9273
1808	0.9288
1817	0.9287
1826	0.9282
1835	0.9267
1844	0.9254
1853	0.9242
1862	0.9229
1871	0.9238
1880	0.9257
1889	0.9281
1898	0.9295
1907	0.9308
1916	0.9316
1925	0.9307
1934	0.9293
1943	0.9282
1952	0.928
1961	0.9294
1970	0.9308
1979	0.9325
1988	0.9342
1997	0.9367
2006	0.938
2015	0.9378
2024	0.9375
2033	0.937
2042	0.9364
2051	0.9358
2060	0.9352
2069	0.9346
2078	0.9341
2087	0.9336
2096	0.9332
2105	0.9328
2114	0.9325
2123	0.9322
2132	0.932
2141	0.9317
2150	0.9314
2159	0.9312
2168	0.931
2177	0.9309
2186	0.9307
2195	0.9305
2204	0.9304
2213	0.9302
2222	0.93
2231	0.9298
2240	0.9297
2249	0.9295
2258	0.9293
2267	0.9291
2276	0.9289
2285	0.9287
2294	0.9288
2303	0.9289
2312	0.9289
2321	0.929
2330	0.9292
2339	0.9295
2348	0.9299
2357	0.9304
2366	0.9302
2375	0.9285
2384	0.9261
2393	0.9227
2402	0.9216
2411	0.9222
2420	0.9233
2429	0.9245
2438	0.9246
2447	0.9245
2456	0.9241
2465	0.9239
2474	0.9235
2483	0.9232
2492	0.9229
2501	0.9225
2510	0.9222
2519	0.9218
2528	0.9213
2537	0.9209
2546	0.9204
2555	0.9198
2564	0.9188
2573	0.9177
2582	0.9167
2591	0.9156
2600	0.9145
2609	0.9135
2618	0.9127
2627	0.912
2636	0.9113
2645	0.9108
2654	0.9107
2663	0.9106
2672	0.9104
2681	0.9103
2690	0.9102
2699	0.9099
2708	0.9097
2717	0.9094
2726	0.9091
2735	0.9089
2744	0.9086
2753	0.9083
2762	0.908
2771	0.9077
2780	0.9075
2789	0.9065
2798	0.9051
2807	0.9035
2816	0.8997
2825	0.8947
2834	0.8836
2843	0.8719
2852	0.8542
2861	0.8347
2870	0.8215
2879	0.8048
2888	0.7804
2897	0.7625
2906	0.7421
2915	0.712
2924	0.6801
2933	0.6671
2942	0.655
2951	0.6439
2960	0.5987
2969	0.5508
2978	0.5228
2987	0.522
2996	0.5693
3005	0.6183
3014	0.6671
3023	0.7157
3032	0.7639
3041	0.8004
3050	0.8017
3059	0.8019
3068	0.8026
3077	0.8036
3086	0.807
3095	0.8225
3104	0.8374
3113	0.8503
3122	0.8618
3131	0.8768
3140	0.884
3149	0.8867
3158	0.8882
3167	0.8895
3176	0.8909
3185	0.8918
3194	0.8925
3203	0.8932
3212	0.8936
3221	0.8933
3230	0.8928
3239	0.8925
3248	0.892
3257	0.891
3266	0.8898
3275	0.8886
3284	0.8869
3293	0.8847
3302	0.8821
3311	0.8787
3320	0.8762
3329	0.8746
3338	0.874
3347	0.8741
3356	0.8741
3365	0.8741
3374	0.8744
3383	0.8748
3392	0.8751
3401	0.8755
3410	0.8765
3419	0.8781
3428	0.8798
3437	0.8819
3446	0.8841
3455	0.8851
3464	0.8855
3473	0.8859
3482	0.886
3491	0.886
3500	0.886
3509	0.8859
3518	0.8859
3527	0.8859
3536	0.886
3545	0.8861
3554	0.8862
3563	0.8863
3572	0.8864
3581	0.8867
3590	0.8871
3599	0.8875
3608	0.8879
3617	0.8883
3626	0.8888
3635	0.8894
3644	0.8902
3653	0.8909
3662	0.8917
3671	0.8923
3680	0.893
3689	0.8936
3698	0.8942
3707	0.8948
3716	0.8954
3725	0.8959
3734	0.8961
3743	0.8962
3752	0.8963
3761	0.8965
3770	0.8966
3779	0.8967
3788	0.8966
3797	0.8963
3806	0.896
3815	0.8957
3824	0.8954
3833	0.8951
3842	0.8948
3851	0.8946
3860	0.8943
3869	0.894
3878	0.8937
3887	0.8934
3896	0.8931
3905	0.8928
3914	0.8925
3923	0.8922
3932	0.8919
3941	0.8916
3950	0.8914
3959	0.8911
3968	0.8909
3977	0.8906
3986	0.8903
3995	0.89
