Infrared Spectrum: BENZOIC ACID, p-[N-(3-CHLORO-2-HYDROXYPROPYL)ACETAMIDO]-, ETHYL ESTER
Formula: C14 H18 Cl N O4
State: LIQUID (NEAT)
Class: COBLENTZ III
Instrument: PERKIN-ELMER 521 (GRATING)
Instrument parameters: FILTER CHANGES AT 3130, 2475, 2000, 1150, 700, 410 CM^-^1, GRATING CHANGES AT 2000, 620 CM^-^1
Sampling: TRANSMISSION
Path length: CAPILLARY
Resolution: 4
Origin: SOUTHERN RESEARCH INST.
1/CM	TRANSMITTANCE
241.399	0.63
251.036	0.658
260.674	0.689
270.311	0.708
279.948	0.724
289.586	0.731
299.223	0.729
308.86	0.718
318.498	0.689
328.135	0.673
337.772	0.705
347.409	0.72
357.047	0.712
366.684	0.666
376.321	0.649
385.959	0.667
395.596	0.67
405.233	0.655
414.871	0.636
424.508	0.643
434.145	0.651
443.783	0.641
453.42	0.63
463.057	0.62
472.695	0.639
482.332	0.625
491.969	0.6
501.606	0.564
511.244	0.585
520.881	0.668
530.518	0.678
540.156	0.676
549.793	0.67
559.43	0.651
569.068	0.648
578.705	0.643
588.342	0.604
597.98	0.48
607.617	0.581
617.254	0.598
626.892	0.586
636.529	0.656
646.166	0.676
655.803	0.676
665.441	0.687
675.078	0.693
684.715	0.503
694.353	0.365
703.99	0.476
713.627	0.712
723.265	0.726
732.902	0.657
742.539	0.602
752.177	0.587
761.814	0.271
771.451	0.309
781.089	0.686
790.726	0.67
800.363	0.668
810.001	0.675
819.638	0.639
829.275	0.468
838.912	0.418
848.55	0.523
858.187	0.522
867.824	0.581
877.462	0.698
887.099	0.759
896.736	0.783
906.374	0.782
916.011	0.743
925.648	0.61
935.286	0.555
944.923	0.654
954.56	0.666
964.198	0.631
973.835	0.593
983.472	0.582
993.109	0.504
1002.75	0.371
1012.38	0.236
1022.02	0.286
1031.66	0.241
1041.3	0.216
1050.93	0.296
1060.57	0.392
1070.21	0.42
1079.85	0.27
1089.48	0.194
1099.12	0.145
1108.76	0.174
1118.39	0.22
1128.03	0.383
1137.67	0.498
1147.31	0.461
1156.94	0.327
1166.58	0.124
1176.22	0.182
1185.86	0.247
1195.49	0.298
1205.13	0.244
1214.77	0.129
1224.41	0.125
1234.04	0.137
1243.68	0.147
1253.32	0.124
1262.95	0.098
1272.59	0.094
1282.23	0.119
1291.87	0.184
1301.5	0.213
1311.14	0.232
1320.78	0.321
1330.42	0.306
1340.05	0.267
1349.69	0.295
1359.33	0.162
1368.96	0.16
1378.6	0.244
1388.24	0.251
1397.88	0.3
1407.51	0.322
1417.15	0.325
1426.79	0.327
1436.43	0.325
1446.06	0.36
1455.7	0.376
1465.34	0.42
1474.98	0.475
1484.61	0.505
1494.25	0.477
1503.89	0.387
1513.52	0.325
1523.16	0.183
1532.8	0.203
1542.44	0.368
1552.07	0.574
1561.71	0.585
1571.35	0.503
1580.99	0.41
1590.62	0.182
1600.26	0.089
1609.9	0.151
1619.53	0.308
1629.17	0.401
1638.81	0.329
1648.45	0.265
1658.08	0.222
1667.72	0.196
1677.36	0.17
1687	0.14
1696.63	0.118
1706.27	0.124
1715.91	0.143
1725.55	0.163
1735.18	0.13
1744.82	0.112
1754.46	0.195
1764.09	0.534
1773.73	0.666
1783.37	0.728
1793.01	0.755
1802.64	0.777
1812.28	0.798
1821.92	0.821
1831.56	0.835
1841.19	0.844
1850.83	0.844
1860.47	0.841
1870.11	0.839
1879.74	0.84
1889.38	0.839
1899.02	0.835
1908.65	0.838
1918.29	0.841
1927.93	0.844
1937.57	0.848
1947.2	0.851
1956.84	0.854
1966.48	0.857
1976.12	0.866
1985.75	0.879
1995.39	0.865
2005.03	0.864
2014.66	0.87
2024.3	0.873
2033.94	0.876
2043.58	0.878
2053.21	0.879
2062.85	0.882
2072.49	0.885
2082.13	0.886
2091.76	0.883
2101.4	0.876
2111.04	0.872
2120.68	0.875
2130.31	0.879
2139.95	0.884
2149.59	0.89
2159.22	0.892
2168.86	0.895
2178.5	0.895
2188.14	0.895
2197.77	0.894
2207.41	0.893
2217.05	0.891
2226.69	0.891
2236.32	0.889
2245.96	0.888
2255.6	0.887
2265.23	0.887
2274.87	0.887
2284.51	0.886
2294.15	0.885
2303.78	0.883
2313.42	0.883
2323.06	0.883
2332.7	0.882
2342.33	0.879
2351.97	0.875
2361.61	0.874
2371.25	0.872
2380.88	0.868
2390.52	0.868
2400.16	0.872
2409.79	0.875
2419.43	0.877
2429.07	0.876
2438.71	0.875
2448.34	0.874
2457.98	0.876
2467.62	0.875
2477.26	0.875
2486.89	0.876
2496.53	0.874
2506.17	0.869
2515.81	0.864
2525.44	0.856
2535.08	0.852
2544.72	0.849
2554.35	0.848
2563.99	0.846
2573.63	0.842
2583.27	0.837
2592.9	0.834
2602.54	0.835
2612.18	0.841
2621.82	0.845
2631.45	0.848
2641.09	0.851
2650.73	0.854
2660.36	0.856
2670	0.858
2679.64	0.859
2689.28	0.859
2698.91	0.857
2708.55	0.856
2718.19	0.852
2727.83	0.849
2737.46	0.848
2747.1	0.841
2756.74	0.83
2766.38	0.823
2776.01	0.822
2785.65	0.822
2795.29	0.819
2804.92	0.812
2814.56	0.802
2824.2	0.794
2833.84	0.77
2843.47	0.735
2853.11	0.695
2862.75	0.661
2872.39	0.644
2882.02	0.641
2891.66	0.607
2901.3	0.57
2910.93	0.6
2920.57	0.557
2930.21	0.487
2939.85	0.486
2949.48	0.468
2959.12	0.442
2968.76	0.398
2978.4	0.353
2988.03	0.418
2997.67	0.529
3007.31	0.593
3016.95	0.634
3026.58	0.658
3036.22	0.666
3045.86	0.666
3055.49	0.658
3065.13	0.678
3074.77	0.701
3084.41	0.717
3094.04	0.72
3103.68	0.719
3113.32	0.719
3122.96	0.745
3132.59	0.762
3142.23	0.761
3151.87	0.751
3161.51	0.745
3171.14	0.748
3180.78	0.744
3190.42	0.737
3200.05	0.734
3209.69	0.739
3219.33	0.744
3228.97	0.742
3238.6	0.735
3248.24	0.72
3257.88	0.699
3267.52	0.672
3277.15	0.644
3286.79	0.62
3296.43	0.586
3306.06	0.55
3315.7	0.513
3325.34	0.476
3334.98	0.448
3344.61	0.415
3354.25	0.387
3363.89	0.359
3373.53	0.355
3383.16	0.361
3392.8	0.383
3402.44	0.419
3412.08	0.472
3421.71	0.523
3431.35	0.576
3440.99	0.627
3450.62	0.665
3460.26	0.67
3469.9	0.671
3479.54	0.673
3489.17	0.674
3498.81	0.676
3508.45	0.677
3518.09	0.678
3527.72	0.681
3537.36	0.686
3547	0.69
3556.63	0.694
3566.27	0.701
3575.91	0.707
3585.55	0.713
3595.18	0.718
3604.82	0.725
3614.46	0.731
3624.1	0.737
3633.73	0.744
3643.37	0.755
3653.01	0.77
3662.65	0.782
3672.28	0.798
3681.92	0.815
3691.56	0.839
3701.19	0.848
3710.83	0.85
3720.47	0.849
3730.11	0.848
3739.74	0.848
3749.38	0.848
3759.02	0.852
3768.66	0.855
3778.29	0.857
3787.93	0.857
3797.57	0.856
3807.21	0.855
