Infrared Spectrum: 2,5-DICHLOROSTYRENE POLYMER
Formula: ( C8 H6 Cl2)n
Class: COBLENTZ
Instrument: Not specified, most likely a prism, grating, or hybrid spectrometer.
Sampling: TRANSMISSION
Path length: FILM
Resolution: 4
Origin: DOW CHEMICAL COMPANY
MICROMETERS	TRANSMITTANCE
2.047	0.878
2.0871	0.863
2.1272	0.855
2.1673	0.863
2.20741	0.865
2.24751	0.855
2.28761	0.846
2.32771	0.84
2.36781	0.843
2.40791	0.818
2.44801	0.838
2.48812	0.861
2.52822	0.865
2.56832	0.861
2.60842	0.868
2.64852	0.865
2.68862	0.863
2.72872	0.866
2.76883	0.875
2.80893	0.873
2.84903	0.871
2.88913	0.878
2.92923	0.878
2.96933	0.878
3.00943	0.878
3.04954	0.876
3.08964	0.87
3.12974	0.85
3.16984	0.825
3.20994	0.75
3.25004	0.581
3.29014	0.546
3.33025	0.675
3.37035	0.413
3.41045	0.18
3.45055	0.46
3.49065	0.525
3.53075	0.828
3.57085	0.835
3.61096	0.853
3.65106	0.851
3.69116	0.845
3.73126	0.846
3.77136	0.856
3.81146	0.851
3.85157	0.846
3.89167	0.85
3.93177	0.855
3.97187	0.863
4.01197	0.87
4.05207	0.876
4.09217	0.878
4.13228	0.878
4.17238	0.871
4.21248	0.87
4.25258	0.871
4.29268	0.873
4.33278	0.87
4.37288	0.866
4.41299	0.88
4.45309	0.888
4.49319	0.888
4.53329	0.891
4.57339	0.893
4.61349	0.893
4.65359	0.896
4.6937	0.898
4.7338	0.898
4.7739	0.898
4.814	0.898
4.8541	0.9
4.8942	0.9
4.9343	0.9
4.97441	0.898
5.01451	0.898
5.05461	0.888
5.09471	0.833
5.13481	0.828
5.17491	0.811
5.21501	0.76
5.25512	0.745
5.29522	0.776
5.33532	0.856
5.37542	0.883
5.41552	0.866
5.45562	0.856
5.49572	0.861
5.53583	0.801
5.57593	0.81
5.61603	0.828
5.65613	0.856
5.69623	0.863
5.73633	0.865
5.77643	0.858
5.81654	0.845
5.85664	0.836
5.89674	0.831
5.93684	0.84
5.97694	0.858
6.01704	0.813
6.05714	0.8
6.09725	0.821
6.13735	0.816
6.17745	0.78
6.21755	0.676
6.25765	0.578
6.29775	0.743
6.33785	0.586
6.37796	0.67
6.41806	0.83
6.45816	0.833
6.49826	0.835
6.53836	0.818
6.57846	0.781
6.61856	0.641
6.65867	0.358
6.69877	0.08
6.73887	0.078
6.77897	0.115
6.81907	0.18
6.85917	0.145
6.89927	0.1
6.93938	0.105
6.97948	0.365
7.01958	0.433
7.05968	0.28
7.09978	0.493
7.13988	0.72
7.17998	0.763
7.22009	0.748
7.26019	0.673
7.30029	0.605
7.34039	0.601
7.38049	0.623
7.42059	0.645
7.4607	0.661
7.5008	0.666
7.5409	0.666
7.581	0.676
7.6211	0.678
7.6612	0.681
7.7013	0.691
7.74141	0.686
7.78151	0.676
7.82161	0.675
7.86171	0.685
7.90181	0.696
7.94191	0.7
7.98201	0.695
8.02212	0.745
8.06222	0.75
8.10232	0.741
8.14242	0.755
8.18252	0.76
8.22262	0.74
8.26272	0.686
8.30283	0.606
8.34293	0.543
8.38303	0.515
8.42313	0.521
8.46323	0.56
8.50333	0.641
8.54343	0.656
8.58354	0.65
8.62364	0.651
8.66374	0.703
8.70384	0.708
8.74394	0.653
8.78404	0.531
8.82414	0.343
8.86425	0.2
8.90435	0.286
8.94445	0.506
8.98455	0.503
9.02465	0.408
9.06475	0.305
9.10485	0.188
9.14496	0.055
9.18506	0.055
9.22516	0.183
9.26526	0.395
9.30536	0.525
9.34546	0.57
9.38556	0.605
9.42567	0.601
9.46577	0.528
9.50587	0.403
9.54597	0.318
9.58607	0.233
9.62617	0.11
9.66627	0.05
9.70638	0.14
9.74648	0.303
9.78658	0.376
9.82668	0.256
9.86678	0.085
9.90688	0.318
9.94698	0.563
9.98709	0.66
10.0272	0.701
10.0673	0.728
10.1074	0.741
10.1475	0.741
10.1876	0.735
10.2277	0.72
10.2678	0.718
10.3079	0.73
10.348	0.735
10.3881	0.716
10.4282	0.691
10.4683	0.698
10.5084	0.69
10.5485	0.6
10.5886	0.52
10.6287	0.496
10.6688	0.576
10.7089	0.701
10.749	0.76
10.7891	0.78
10.8292	0.79
10.8693	0.791
10.9094	0.791
10.9495	0.791
10.9896	0.791
11.0297	0.791
11.0698	0.791
11.1099	0.791
11.15	0.791
11.1901	0.793
11.2302	0.791
11.2703	0.79
11.3104	0.788
11.3505	0.78
11.3906	0.773
11.4307	0.763
11.4708	0.758
11.5109	0.741
11.551	0.711
11.5911	0.685
11.6312	0.668
11.6713	0.666
11.7114	0.666
11.7515	0.67
11.7917	0.653
11.8318	0.61
11.8719	0.556
11.912	0.458
11.9521	0.313
11.9922	0.18
12.0323	0.051
12.0724	0.03
12.1125	0.018
12.1526	0.028
12.1927	0.063
12.2328	0.146
12.2729	0.298
12.313	0.498
12.3531	0.593
12.3932	0.646
12.4333	0.661
12.4734	0.668
12.5135	0.666
12.5536	0.658
12.5937	0.646
12.6338	0.626
12.6739	0.601
12.714	0.588
12.7541	0.568
12.7942	0.54
12.8343	0.505
12.8744	0.465
12.9145	0.42
12.9546	0.38
12.9947	0.288
13.0348	0.205
13.0749	0.143
13.115	0.065
13.1551	0.026
13.1952	0.003
13.2353	0
13.2754	0
13.3155	0
13.3556	0
13.3957	0.005
13.4358	0.048
13.4759	0.118
13.516	0.163
13.5561	0.175
13.5962	0.148
13.6363	0.12
13.6764	0.125
13.7165	0.186
13.7566	0.253
13.7967	0.283
13.8368	0.29
13.8769	0.31
13.917	0.413
13.9571	0.551
13.9972	0.645
14.0373	0.675
14.0774	0.683
14.1175	0.683
14.1576	0.67
14.1977	0.648
14.2378	0.615
14.2779	0.59
14.318	0.556
14.3581	0.516
14.3982	0.456
14.4383	0.408
14.4784	0.375
14.5185	0.33
14.5587	0.316
14.5988	0.321
14.6389	0.338
14.679	0.348
14.7191	0.351
14.7592	0.346
14.7993	0.34
14.8394	0.34
14.8795	0.346
14.9196	0.36
14.9597	0.371
14.9998	0.378
15.0399	0.371
15.08	0.345
15.1201	0.311
15.1602	0.295
15.2003	0.296
15.2404	0.328
15.2805	0.37
15.3206	0.418
15.3607	0.45
15.4008	0.47
15.4409	0.481
15.481	0.49
15.5211	0.491
15.5612	0.49
15.6013	0.486
15.6414	0.483
15.6815	0.478
15.7216	0.478
15.7617	0.473
15.8018	0.466
15.8419	0.46
15.882	0.46
15.9221	0.46
