Infrared Spectrum: 1,3-PROPANEDIOL, 2,2-DIMETHYL-, CYCLIC CHLOROMETHYL PHOSPHONATE
Formula: C10 H19 N O2
State: SOLID (KBr PELLET)
Melting point: 115-116 C
Class: COBLENTZ
Instrument: Not specified, most likely a prism, grating, or hybrid spectrometer.
Sampling: TRANSMISSION
Resolution: 4
Origin: TENNESSEE EASTMAN COMPANY, RESEARCH LABORATORIES
MICROMETERS	TRANSMITTANCE
2.027	0.739
2.06688	0.747
2.10675	0.754
2.14663	0.762
2.18651	0.772
2.22639	0.774
2.26626	0.777
2.30614	0.785
2.34602	0.79
2.38589	0.794
2.42577	0.797
2.46565	0.802
2.50552	0.805
2.5454	0.807
2.58528	0.81
2.62516	0.808
2.66503	0.808
2.70491	0.81
2.74479	0.755
2.78466	0.691
2.82454	0.651
2.86442	0.589
2.90429	0.588
2.94417	0.649
2.98405	0.704
3.02393	0.74
3.0638	0.764
3.10368	0.789
3.14356	0.81
3.18343	0.832
3.22331	0.837
3.26319	0.842
3.30306	0.838
3.34294	0.551
3.38282	0.682
3.4227	0.702
3.46257	0.797
3.50245	0.86
3.54233	0.875
3.5822	0.885
3.62208	0.897
3.66196	0.901
3.70183	0.906
3.74171	0.908
3.78159	0.911
3.82147	0.915
3.86134	0.918
3.90122	0.92
3.9411	0.92
3.98097	0.92
4.02085	0.921
4.06073	0.918
4.1006	0.923
4.14048	0.928
4.18036	0.93
4.22024	0.923
4.26011	0.89
4.29999	0.885
4.33987	0.92
4.37974	0.933
4.41962	0.935
4.4595	0.938
4.49937	0.93
4.53925	0.936
4.57913	0.94
4.61901	0.94
4.65888	0.941
4.69876	0.943
4.73864	0.943
4.77851	0.945
4.81839	0.945
4.85827	0.946
4.89814	0.946
4.93802	0.946
4.9779	0.951
5.01778	0.955
5.05765	0.951
5.09753	0.953
5.13741	0.953
5.17728	0.951
5.21716	0.951
5.25704	0.953
5.29691	0.953
5.33679	0.951
5.37667	0.953
5.41655	0.935
5.45642	0.933
5.4963	0.941
5.53618	0.936
5.57605	0.936
5.61593	0.933
5.65581	0.933
5.69569	0.928
5.73556	0.91
5.77544	0.92
5.81532	0.91
5.85519	0.903
5.89507	0.9
5.93495	0.892
5.97482	0.888
6.0147	0.883
6.05458	0.867
6.09446	0.855
6.13433	0.843
6.17421	0.822
6.21409	0.897
6.25396	0.923
6.29384	0.938
6.33372	0.925
6.37359	0.92
6.41347	0.915
6.45335	0.892
6.49323	0.91
6.5331	0.893
6.57298	0.895
6.61286	0.898
6.65273	0.835
6.69261	0.737
6.73249	0.529
6.77236	0.659
6.81224	0.833
6.85212	0.883
6.892	0.887
6.93187	0.9
6.97175	0.911
7.01163	0.868
7.0515	0.656
7.09138	0.71
7.13126	0.852
7.17113	0.898
7.21101	0.901
7.25089	0.833
7.29077	0.676
7.33064	0.837
7.37052	0.897
7.4104	0.925
7.45027	0.921
7.49015	0.915
7.53003	0.852
7.5699	0.694
7.60978	0.84
7.64966	0.828
7.68954	0.752
7.72941	0.622
7.76929	0.441
7.80917	0.046
7.84904	0.024
7.88892	0.181
7.9288	0.581
7.96867	0.702
8.00855	0.637
8.04843	0.686
8.08831	0.707
8.12818	0.671
8.16806	0.657
8.20794	0.745
8.24781	0.784
8.28769	0.81
8.32757	0.832
8.36744	0.837
8.40732	0.828
8.4472	0.848
8.48708	0.85
8.52695	0.852
8.56683	0.862
8.60671	0.868
8.64658	0.87
8.68646	0.867
8.72634	0.845
8.76621	0.792
8.80609	0.833
8.84597	0.85
8.88585	0.85
8.92572	0.842
8.9656	0.837
9.00548	0.832
9.04535	0.822
9.08523	0.808
9.12511	0.782
9.16498	0.744
9.20486	0.657
9.24474	0.593
9.28462	0.568
9.32449	0.533
9.36437	0.355
9.40425	0.099
9.44412	0.029
9.484	0.121
9.52388	0.448
9.56376	0.646
9.60363	0.697
9.64351	0.709
9.68339	0.689
9.72326	0.604
9.76314	0.488
9.80302	0.157
9.84289	0.033
9.88277	0.043
9.92265	0.2
9.96253	0.486
10.0024	0.679
10.0423	0.727
10.0822	0.672
10.122	0.473
10.1619	0.229
10.2018	0.239
10.2417	0.563
10.2815	0.74
10.3214	0.808
10.3613	0.832
10.4012	0.81
10.441	0.754
10.4809	0.732
10.5208	0.799
10.5607	0.872
10.6006	0.915
10.6404	0.925
10.6803	0.92
10.7202	0.863
10.7601	0.749
10.7999	0.5
10.8398	0.431
10.8797	0.835
10.9196	0.906
10.9595	0.948
10.9993	0.96
11.0392	0.96
11.0791	0.963
11.119	0.965
11.1588	0.965
11.1987	0.965
11.2386	0.965
11.2785	0.963
11.3183	0.96
11.3582	0.943
11.3981	0.915
11.438	0.845
11.4779	0.705
11.5177	0.458
11.5576	0.225
11.5975	0.254
11.6374	0.546
11.6772	0.747
11.7171	0.84
11.757	0.872
11.7969	0.875
11.8367	0.853
11.8766	0.802
11.9165	0.719
11.9564	0.553
11.9963	0.365
12.0361	0.289
12.076	0.312
12.1159	0.541
12.1558	0.722
12.1956	0.769
12.2355	0.754
12.2754	0.76
12.3153	0.837
12.3551	0.9
12.395	0.946
12.4349	0.956
12.4748	0.961
12.5147	0.965
12.5545	0.968
12.5944	0.968
12.6343	0.968
12.6742	0.961
12.714	0.961
12.7539	0.961
12.7938	0.961
12.8337	0.953
12.8735	0.941
12.9134	0.906
12.9533	0.833
12.9932	0.7
13.0331	0.556
13.0729	0.488
13.1128	0.558
13.1527	0.712
13.1926	0.838
13.2324	0.903
13.2723	0.941
13.3122	0.955
13.3521	0.966
13.3919	0.975
13.4318	0.978
13.4717	0.978
13.5116	0.981
13.5515	0.98
13.5913	0.981
13.6312	0.98
13.6711	0.98
13.711	0.98
13.7508	0.978
13.7907	0.973
13.8306	0.971
13.8705	0.971
13.9103	0.971
13.9502	0.968
13.9901	0.966
14.03	0.963
14.0699	0.961
14.1097	0.96
14.1496	0.953
14.1895	0.953
14.2294	0.946
14.2692	0.943
14.3091	0.935
14.349	0.923
14.3889	0.897
14.4288	0.845
14.4686	0.779
14.5085	0.7
14.5484	0.651
14.5883	0.661
14.6281	0.719
14.668	0.782
14.7079	0.82
14.7478	0.852
14.7876	0.862
14.8275	0.868
14.8674	0.868
14.9073	0.857
14.9472	0.843
14.987	0.837
15.0269	0.835
15.0668	0.837
15.1067	0.833
15.1465	0.823
15.1864	0.812
15.2263	0.802
15.2662	0.789
15.306	0.78
15.3459	0.772
15.3858	0.764
15.4257	0.754
15.4656	0.749
15.5054	0.745
15.5453	0.734
15.5852	0.727
15.6251	0.72
15.6649	0.709
15.7048	0.702
15.7447	0.694
15.7846	0.691
15.8244	0.682
15.8643	0.679
15.9042	0.671
15.9441	0.667
15.984	0.662
