Infrared Spectrum: Diethyl ethyl phosphonate
Formula: C16 H15 O3 P
State: SOLUTION, SALTED (10% CCl4 FOR 2.7-7.5, 10% CS2 FOR 7.5-26 MICRON) VS SOLVENT
Class: COBLENTZ
Instrument: DOW KBr FOREPRISM-GRATING
Instrument parameters: BLAZED AT 3.5, 12.0, 20.0 MICRON AND CHANGED AT 5.0, 7.5, 14.9 MICRON
Sampling: TRANSMISSION
Path length: 0.011 CM, 0.011 CM
Resolution: 2
Origin: DOW CHEMICAL COMPANY
1/CM	TRANSMITTANCE
3796	0.8695
3787	0.8696
3778	0.8692
3769	0.8685
3760	0.8677
3751	0.8668
3742	0.8659
3733	0.8614
3724	0.8566
3715	0.8573
3706	0.8588
3697	0.8581
3688	0.8531
3679	0.8386
3670	0.6946
3661	0.6801
3652	0.7525
3643	0.8175
3634	0.8312
3625	0.8321
3616	0.8307
3607	0.828
3598	0.825
3589	0.8209
3580	0.8165
3571	0.8112
3562	0.8037
3553	0.7907
3544	0.7761
3535	0.7638
3526	0.7533
3517	0.7465
3508	0.7394
3499	0.7299
3490	0.7174
3481	0.7042
3472	0.6881
3463	0.6695
3454	0.6511
3445	0.6318
3436	0.6202
3427	0.6159
3418	0.6153
3409	0.6206
3400	0.6334
3391	0.6501
3382	0.6715
3373	0.6939
3364	0.7164
3355	0.7371
3346	0.7553
3337	0.7694
3328	0.7822
3319	0.7946
3310	0.8058
3301	0.8144
3292	0.8218
3283	0.8283
3274	0.8339
3265	0.8378
3256	0.8407
3247	0.8409
3238	0.8394
3229	0.837
3220	0.8342
3211	0.8325
3202	0.8325
3193	0.8354
3184	0.8398
3175	0.8436
3166	0.847
3157	0.8502
3148	0.8528
3139	0.855
3130	0.8561
3121	0.8566
3112	0.8568
3103	0.8562
3094	0.8546
3085	0.852
3076	0.8475
3067	0.8421
3058	0.8355
3049	0.8264
3040	0.813
3031	0.7956
3022	0.7686
3013	0.7253
3004	0.6505
2995	0.3327
2986	0.0762
2977	0.0889
2968	0.247
2959	0.3787
2950	0.4058
2941	0.2873
2932	0.3384
2923	0.3764
2914	0.4091
2905	0.3377
2896	0.3942
2887	0.4832
2878	0.4524
2869	0.6219
2860	0.6386
2851	0.7171
2842	0.7515
2833	0.7637
2824	0.7739
2815	0.7833
2806	0.7945
2797	0.8049
2788	0.8158
2779	0.8225
2770	0.825
2761	0.8221
2752	0.8237
2743	0.8271
2734	0.8189
2725	0.8165
2716	0.8266
2707	0.8392
2698	0.8485
2689	0.8512
2680	0.8504
2671	0.8513
2662	0.853
2653	0.8539
2644	0.8552
2635	0.8564
2626	0.8581
2617	0.8597
2608	0.8613
2599	0.8628
2590	0.8644
2581	0.8658
2572	0.8673
2563	0.8685
2554	0.8698
2545	0.8704
2536	0.8706
2527	0.8706
2518	0.8706
2509	0.8707
2500	0.8711
2491	0.8713
2482	0.8711
2473	0.8691
2464	0.8638
2455	0.8631
2446	0.8636
2437	0.8639
2428	0.8649
2419	0.866
2410	0.867
2401	0.8678
2392	0.8688
2383	0.8703
2374	0.872
2365	0.8737
2356	0.8742
2347	0.871
2338	0.87
2329	0.8713
2320	0.8707
2311	0.8696
2302	0.8686
2293	0.8678
2284	0.867
2275	0.867
2266	0.8671
2257	0.8689
2248	0.8715
2239	0.8736
2230	0.8748
2221	0.8758
2212	0.8768
2203	0.8771
2194	0.8771
2185	0.8794
2176	0.8858
2167	0.8787
2158	0.8774
2149	0.8774
2140	0.8775
2131	0.878
2122	0.8785
2113	0.8786
2104	0.8788
2095	0.879
2086	0.879
2077	0.879
2068	0.8794
2059	0.8801
2050	0.8806
2041	0.88
2032	0.8793
2023	0.8789
2014	0.8789
2005	0.8801
1996	0.8813
1987	0.8725
1978	0.8704
1969	0.8701
1960	0.8708
1951	0.8723
1942	0.8731
1933	0.8732
1924	0.873
1915	0.8732
1906	0.8732
1897	0.8728
1888	0.8713
1879	0.8665
1870	0.8564
1861	0.8501
1852	0.8456
1843	0.8428
1834	0.841
1825	0.8414
1816	0.8449
1807	0.8501
1798	0.8527
1789	0.8556
1780	0.8581
1771	0.8571
1762	0.8473
1753	0.8392
1744	0.8328
1735	0.8289
1726	0.8275
1717	0.8208
1708	0.8246
1699	0.8359
1690	0.8444
1681	0.8436
1672	0.8353
1663	0.8235
1654	0.81
1645	0.7958
1636	0.7769
1627	0.7565
1618	0.7558
1609	0.7939
1600	0.8169
1591	0.833
1582	0.8441
1573	0.8492
1564	0.8503
1555	0.8566
1546	0.8631
1537	0.86
1528	0.8458
1519	0.835
1510	0.8228
1501	0.7978
1492	0.7656
1483	0.5994
1474	0.5984
1465	0.4012
1456	0.4823
1447	0.4614
1438	0.6249
1429	0.7061
1420	0.7092
1411	0.5049
1402	0.5434
1393	0.2941
1384	0.5494
1375	0.6487
1366	0.6285
1357	0.745
1348	0.7749
1339	0.7804
1330	0.78
1321	0.7674
1312	0.7288
1303	0.5552
1294	0.2777
1285	0.2364
1276	0.2305
1267	0.3339
1258	0.1867
1249	0.0234
1240	0.0928
1231	0.0544
1222	0.031
1213	0.14
1204	0.4084
1195	0.5376
1186	0.5892
1177	0.5949
1168	0.4251
1159	0.3578
1150	0.5425
1141	0.5818
1132	0.5952
1123	0.5916
1114	0.5536
1105	0.3579
1096	0.1754
1087	0.2957
1078	0.2326
1069	0.0609
1060	0.0054
1051	0.0066
1042	0.0072
1033	0.0035
1024	0.003
1015	0.0212
1006	0.0206
997	0.3021
988	0.3593
979	0.2554
970	0.1392
961	0.017
952	0.013
943	0.0383
934	0.101
925	0.419
916	0.6345
907	0.7101
898	0.7646
889	0.7894
880	0.8068
871	0.8184
862	0.8236
853	0.825
844	0.8132
835	0.7664
826	0.6168
817	0.3559
808	0.2281
799	0.1012
790	0.0828
781	0.1781
772	0.2994
763	0.5921
754	0.6614
745	0.489
736	0.6614
727	0.7226
718	0.6996
709	0.5191
700	0.4774
691	0.5201
682	0.6528
673	0.7401
664	0.754
655	0.7304
646	0.7262
637	0.7299
628	0.7284
619	0.7245
610	0.7226
601	0.718
592	0.7147
583	0.7108
574	0.7041
565	0.6943
556	0.6776
547	0.6072
538	0.463
529	0.3947
520	0.3944
511	0.4177
502	0.4297
493	0.4185
484	0.443
475	0.5054
466	0.5355
457	0.5467
448	0.5555
439	0.5622
430	0.5696
421	0.5753
412	0.578
403	0.5808
