Infrared Spectrum: Acetanilide, 2-methyl-3-nitro-6-tert-butyl-
Formula: C13 H18 N2 O3
State: SOLID (NUJOL MULL)
Class: COBLENTZ III
Instrument: BECKMAN IR-4 (HYBRID PRISM-GRATING)
Instrument parameters: NaCl PRISM
Sampling: TRANSMISSION
Resolution: 2
Origin: MONSANTO (J. FREEMAN)
1/CM	TRANSMITTANCE
628	0.9934
637	0.9894
646	0.9912
655	1.019
664	1.0198
673	0.9864
682	0.879
691	0.7696
700	0.7079
709	0.6672
718	0.7906
727	0.8412
736	0.8625
745	0.6122
754	0.9179
763	0.9245
772	0.9352
781	0.9547
790	0.9688
799	0.9309
808	0.9527
817	0.9665
826	0.9003
835	0.6211
844	0.8168
853	0.9519
862	0.9659
871	0.975
880	0.961
889	0.9433
898	0.9789
907	0.9776
916	0.9733
925	0.9518
934	0.8994
943	0.7978
952	0.9302
961	0.9624
970	0.9431
979	0.8869
988	0.9594
997	0.9454
1006	0.9017
1015	0.9023
1024	0.9556
1033	0.9106
1042	0.8776
1051	0.8296
1060	0.9425
1069	0.9712
1078	0.9801
1087	0.9839
1096	0.9846
1105	0.9844
1114	0.9837
1123	0.9828
1132	0.9774
1141	0.9308
1150	0.8417
1159	0.9462
1168	0.9206
1177	0.8742
1186	0.6156
1195	0.8908
1204	0.8434
1213	0.767
1222	0.7615
1231	0.8548
1240	0.8673
1249	0.8522
1258	0.7919
1267	0.6155
1276	0.4961
1285	0.4833
1294	0.6269
1303	0.74
1312	0.7642
1321	0.7643
1330	0.7192
1339	0.6173
1348	0.4431
1357	0.1791
1366	0.2273
1375	0.2149
1384	0.393
1393	0.614
1402	0.6284
1411	0.5485
1420	0.667
1429	0.6753
1438	0.5759
1447	0.4693
1456	0.3768
1465	0.3676
1474	0.3392
1483	0.3974
1492	0.4323
1501	0.5197
1510	0.5271
1519	0.3572
1528	0.0941
1537	0.0793
1546	0.2949
1555	0.5922
1564	0.7049
1573	0.773
1582	0.7495
1591	0.6557
1600	0.7214
1609	0.8056
1618	0.8079
1627	0.7351
1636	0.5985
1645	0.4591
1654	0.2299
1663	0.0814
1672	0.1723
1681	0.4162
1690	0.4764
1699	0.6889
1708	0.8335
1717	0.9037
1726	0.926
1735	0.9387
1744	0.9458
1753	0.9517
1762	0.955
1771	0.9554
1780	0.9546
1789	0.9533
1798	0.9522
1807	0.9527
1816	0.9544
1825	0.9575
1834	0.9619
1843	0.9682
1852	0.9689
1861	0.9693
1870	0.9693
1879	0.9691
1888	0.9688
1897	0.9681
1906	0.9677
1915	0.9671
1924	0.9657
1933	0.9604
1942	0.9607
1951	0.9664
1960	0.971
1969	0.9712
1978	0.9711
1987	0.9711
1996	0.9713
2005	0.971
2014	0.9708
2023	0.9704
2032	0.9701
2041	0.9699
2050	0.9697
2059	0.9695
2068	0.9692
2077	0.969
2086	0.9686
2095	0.9682
2104	0.9678
2113	0.9674
2122	0.967
2131	0.9666
2140	0.9663
2149	0.9659
2158	0.9655
2167	0.9649
2176	0.9642
2185	0.9636
2194	0.9632
2203	0.9625
2212	0.9615
2221	0.9599
2230	0.9588
2239	0.9576
2248	0.9569
2257	0.9564
2266	0.956
2275	0.9556
2284	0.9554
2293	0.9551
2302	0.9549
2311	0.9547
2320	0.9548
2329	0.9553
2338	0.9566
2347	0.958
2356	0.9607
2365	0.9637
2374	0.9664
2383	0.9656
2392	0.9599
2401	0.9505
2410	0.9414
2419	0.9404
2428	0.941
2437	0.942
2446	0.9444
2455	0.9461
2464	0.946
2473	0.9443
2482	0.9399
2491	0.9378
2500	0.937
2509	0.9369
2518	0.9366
2527	0.9364
2536	0.9361
2545	0.9359
2554	0.9354
2563	0.9331
2572	0.9302
2581	0.9272
2590	0.9246
2599	0.922
2608	0.9197
2617	0.9175
2626	0.9154
2635	0.9133
2644	0.9111
2653	0.909
2662	0.9069
2671	0.9051
2680	0.9035
2689	0.9013
2698	0.8988
2707	0.8959
2716	0.8931
2725	0.8901
2734	0.887
2743	0.8835
2752	0.8798
2761	0.8761
2770	0.8719
2779	0.8669
2788	0.8578
2797	0.8447
2806	0.8309
2815	0.8181
2824	0.8043
2833	0.7896
2842	0.7758
2851	0.7541
2860	0.7127
2869	0.6878
2878	0.507
2887	0.3322
2896	0.2031
2905	0.1698
2914	0.1412
2923	0.1108
2932	0.0871
2941	0.0725
2950	0.0618
2959	0.0505
2968	0.0442
2977	0.0432
2986	0.0451
2995	0.0493
3004	0.0604
3013	0.1942
3022	0.4248
3031	0.5345
3040	0.5654
3049	0.6012
3058	0.638
3067	0.6745
3076	0.7109
3085	0.747
3094	0.769
3103	0.77
3112	0.7712
3121	0.7736
3130	0.7776
3139	0.7799
3148	0.7798
3157	0.758
3166	0.73
3175	0.702
3184	0.6742
3193	0.6465
3202	0.6191
3211	0.5925
3220	0.5777
3229	0.5637
3238	0.5325
3247	0.4703
3256	0.4079
3265	0.3456
3274	0.2838
3283	0.2223
3292	0.1917
3301	0.1921
3310	0.207
3319	0.3164
3328	0.4362
3337	0.5552
3346	0.6736
3355	0.731
3364	0.7606
3373	0.7842
3382	0.7997
3391	0.8093
3400	0.8151
3409	0.8203
3418	0.8237
3427	0.8266
3436	0.8294
3445	0.831
3454	0.8324
3463	0.8337
3472	0.8349
3481	0.8358
3490	0.8365
3499	0.8374
3508	0.8381
3517	0.8386
3526	0.8392
3535	0.8398
3544	0.8404
3553	0.8408
3562	0.8413
3571	0.8417
3580	0.8422
3589	0.8425
3598	0.8427
3607	0.8428
3616	0.8428
3625	0.8429
3634	0.8429
3643	0.8428
3652	0.8425
3661	0.8423
3670	0.8421
3679	0.8419
3688	0.8417
3697	0.8417
3706	0.842
3715	0.8424
3724	0.8427
3733	0.8431
3742	0.8443
3751	0.8455
3760	0.8471
3769	0.8458
3778	0.8455
3787	0.8446
3796	0.8433
3805	0.842
3814	0.8405
3823	0.8388
3832	0.837
3841	0.8353
3850	0.8335
3859	0.8319
3868	0.8301
3877	0.8291
3886	0.8287
3895	0.8282
3904	0.8282
3913	0.8283
3922	0.8284
3931	0.8286
3940	0.8286
3949	0.8285
3958	0.8284
3967	0.8282
3976	0.8277
3985	0.8272
3994	0.8266
