Infrared Spectrum: Aniline, 2-tert-butyl-N-(o-chlorobenzyl)-
Formula: C17 H20 Cl N
State: SOLID (NUJOL MULL)
Class: COBLENTZ III
Instrument: BECKMAN IR-4 (HYBRID PRISM-GRATING)
Instrument parameters: NaCl PRISM
Sampling: TRANSMISSION
Resolution: 2
Origin: MONSANTO (J. FREEMAN)
1/CM	TRANSMITTANCE
626	0.8685
635	0.8759
644	0.8731
653	0.8699
662	0.8651
671	0.867
680	0.8576
689	0.8156
698	0.6517
707	0.8172
716	0.8069
725	0.7827
734	0.7578
743	0.2299
752	0.2254
761	0.1135
770	0.8315
779	0.846
788	0.7026
797	0.8184
806	0.8534
815	0.7251
824	0.9019
833	0.897
842	0.8664
851	0.8974
860	0.9015
869	0.8808
878	0.9149
887	0.9115
896	0.9098
905	0.911
914	0.9049
923	0.889
932	0.7921
941	0.8709
950	0.8647
959	0.7756
968	0.8641
977	0.8761
986	0.8322
995	0.8751
1004	0.8469
1013	0.8253
1022	0.8044
1031	0.5394
1040	0.4191
1049	0.7721
1058	0.7571
1067	0.8258
1076	0.8892
1085	0.8942
1094	0.85
1103	0.85
1112	0.8511
1121	0.8418
1130	0.8693
1139	0.7173
1148	0.84
1157	0.8632
1166	0.8331
1175	0.8708
1184	0.7459
1193	0.7194
1202	0.7517
1211	0.8375
1220	0.815
1229	0.6245
1238	0.538
1247	0.5064
1256	0.2694
1265	0.338
1274	0.6146
1283	0.7585
1292	0.6629
1301	0.7086
1310	0.4095
1319	0.6149
1328	0.7814
1337	0.7649
1346	0.6769
1355	0.4114
1364	0.4699
1373	0.4751
1382	0.6491
1391	0.6841
1400	0.7801
1409	0.7637
1418	0.5315
1427	0.4693
1436	0.183
1445	0.1518
1454	0.184
1463	0.2044
1472	0.5408
1481	0.6217
1490	0.5817
1499	0.3114
1508	0.2801
1517	0.3775
1526	0.6501
1535	0.7774
1544	0.8294
1553	0.8339
1562	0.6391
1571	0.5416
1580	0.7222
1589	0.5922
1598	0.5178
1607	0.6836
1616	0.8299
1625	0.8826
1634	0.9006
1643	0.9067
1652	0.9109
1661	0.914
1670	0.9114
1679	0.9159
1688	0.9215
1697	0.9267
1706	0.9322
1715	0.9391
1724	0.9393
1733	0.9379
1742	0.9352
1751	0.9317
1760	0.926
1769	0.9205
1778	0.9209
1787	0.9109
1796	0.9028
1805	0.9053
1814	0.9128
1823	0.9127
1832	0.912
1841	0.9065
1850	0.9044
1859	0.9048
1868	0.9011
1877	0.8939
1886	0.8984
1895	0.9019
1904	0.8978
1913	0.8902
1922	0.8955
1931	0.9042
1940	0.9096
1949	0.9076
1958	0.905
1967	0.9075
1976	0.913
1985	0.9166
1994	0.9163
2003	0.9152
2012	0.9144
2021	0.9137
2030	0.9131
2039	0.9127
2048	0.9121
2057	0.9117
2066	0.9113
2075	0.9107
2084	0.9105
2093	0.9103
2102	0.9099
2111	0.9092
2120	0.9084
2129	0.9077
2138	0.9069
2147	0.9064
2156	0.906
2165	0.9056
2174	0.9052
2183	0.9048
2192	0.9045
2201	0.9042
2210	0.904
2219	0.9037
2228	0.9034
2237	0.903
2246	0.9027
2255	0.9022
2264	0.9018
2273	0.9014
2282	0.901
2291	0.9006
2300	0.9002
2309	0.8998
2318	0.8994
2327	0.899
2336	0.898
2345	0.8945
2354	0.8919
2363	0.8905
2372	0.8899
2381	0.89
2390	0.8905
2399	0.8909
2408	0.8911
2417	0.8911
2426	0.89
2435	0.8888
2444	0.8873
2453	0.8857
2462	0.8838
2471	0.8816
2480	0.8794
2489	0.8772
2498	0.8749
2507	0.8728
2516	0.8705
2525	0.8684
2534	0.8662
2543	0.8641
2552	0.8619
2561	0.8597
2570	0.8575
2579	0.8554
2588	0.8532
2597	0.8515
2606	0.8497
2615	0.848
2624	0.8462
2633	0.8444
2642	0.8426
2651	0.8409
2660	0.8389
2669	0.8366
2678	0.8343
2687	0.8321
2696	0.8301
2705	0.8285
2714	0.8278
2723	0.8276
2732	0.8276
2741	0.8276
2750	0.8086
2759	0.7927
2768	0.7734
2777	0.7549
2786	0.7297
2795	0.6936
2804	0.6407
2813	0.5138
2822	0.3846
2831	0.2563
2840	0.2025
2849	0.1647
2858	0.1283
2867	0.1025
2876	0.0759
2885	0.0605
2894	0.0443
2903	0.035
2912	0.0292
2921	0.0261
2930	0.0249
2939	0.026
2948	0.0767
2957	0.3468
2966	0.4987
2975	0.5523
2984	0.6054
2993	0.6491
3002	0.6741
3011	0.6975
3020	0.7082
3029	0.7199
3038	0.7314
3047	0.7424
3056	0.7554
3065	0.768
3074	0.7795
3083	0.7899
3092	0.7974
3101	0.8039
3110	0.8093
3119	0.8134
3128	0.8166
3137	0.8187
3146	0.82
3155	0.8212
3164	0.8219
3173	0.8225
3182	0.823
3191	0.8231
3200	0.8233
3209	0.8234
3218	0.823
3227	0.8227
3236	0.8222
3245	0.8216
3254	0.821
3263	0.8202
3272	0.819
3281	0.8177
3290	0.8164
3299	0.8149
3308	0.8135
3317	0.8119
3326	0.8104
3335	0.8088
3344	0.807
3353	0.8052
3362	0.803
3371	0.7999
3380	0.7968
3389	0.7935
3398	0.7893
3407	0.7825
3416	0.7734
3425	0.7476
3434	0.7152
3443	0.6829
3452	0.6509
3461	0.6235
3470	0.6303
3479	0.664
3488	0.6976
3497	0.731
3506	0.7642
3515	0.7839
3524	0.7889
3533	0.7923
3542	0.7951
3551	0.7973
3560	0.7987
3569	0.7997
3578	0.8006
3587	0.8013
3596	0.802
3605	0.8025
3614	0.8028
3623	0.8029
3632	0.8028
3641	0.8026
3650	0.8025
3659	0.8024
3668	0.802
3677	0.8013
3686	0.8007
3695	0.8001
3704	0.7993
3713	0.7986
3722	0.7978
3731	0.797
3740	0.7963
3749	0.7957
3758	0.7951
3767	0.7945
3776	0.7939
3785	0.7933
3794	0.7926
3803	0.7918
3812	0.7911
3821	0.7903
3830	0.7895
3839	0.7888
3848	0.788
3857	0.7872
3866	0.7865
3875	0.7857
3884	0.785
3893	0.7842
3902	0.7832
3911	0.7822
3920	0.7812
3929	0.7802
3938	0.7791
3947	0.7781
3956	0.7771
3965	0.7761
3974	0.7751
3983	0.7737
3992	0.7723
