Infrared Spectrum: AMMONIUM CARBONATE
Formula: C H8 N2 O3
State: SOLID (MINERAL OIL MULL)
Class: COBLENTZ
Instrument: Not specified, most likely a prism, grating, or hybrid spectrometer.
Sampling: TRANSMISSION
Resolution: 4
Origin: WYANDOTTE CHEMICALS CORP., WYANDOTTE, MICHIGAN, USA
MICROMETERS	TRANSMITTANCE
2.066	0.951
2.10579	0.936
2.14558	0.953
2.18537	0.953
2.22517	0.925
2.26496	0.93
2.30475	0.936
2.34454	0.928
2.38433	0.936
2.42412	0.94
2.46392	0.943
2.50371	0.931
2.5435	0.925
2.58329	0.918
2.62308	0.905
2.66287	0.89
2.70266	0.878
2.74246	0.853
2.78225	0.828
2.82204	0.777
2.86183	0.696
2.90162	0.647
2.94141	0.627
2.98121	0.549
3.021	0.458
3.06079	0.282
3.10058	0.157
3.14037	0.132
3.18016	0.132
3.21995	0.112
3.25975	0.096
3.29954	0.107
3.33933	0.059
3.37912	0.029
3.41891	0.028
3.4587	0.038
3.4985	0.038
3.53829	0.111
3.57808	0.2
3.61787	0.255
3.65766	0.307
3.69745	0.338
3.73724	0.348
3.77704	0.34
3.81683	0.313
3.85662	0.297
3.89641	0.294
3.9362	0.297
3.97599	0.315
4.01579	0.352
4.05558	0.388
4.09537	0.42
4.13516	0.456
4.17495	0.471
4.21474	0.493
4.25453	0.534
4.29433	0.551
4.33412	0.573
4.37391	0.614
4.4137	0.657
4.45349	0.677
4.49328	0.692
4.53307	0.704
4.57287	0.725
4.61266	0.739
4.65245	0.73
4.69224	0.72
4.73203	0.707
4.77182	0.72
4.81162	0.749
4.85141	0.76
4.8912	0.772
4.93099	0.777
4.97078	0.785
5.01057	0.782
5.05036	0.767
5.09016	0.755
5.12995	0.735
5.16974	0.697
5.20953	0.652
5.24932	0.639
5.28911	0.617
5.32891	0.598
5.3687	0.593
5.40849	0.571
5.44828	0.561
5.48807	0.568
5.52786	0.606
5.56765	0.656
5.60745	0.697
5.64724	0.732
5.68703	0.735
5.72682	0.724
5.76661	0.667
5.8064	0.614
5.8462	0.566
5.88599	0.501
5.92578	0.448
5.96557	0.44
6.00536	0.403
6.04515	0.317
6.08494	0.204
6.12474	0.134
6.16453	0.083
6.20432	0.054
6.24411	0.054
6.2839	0.107
6.32369	0.172
6.36349	0.222
6.40328	0.26
6.44307	0.294
6.48286	0.308
6.52265	0.332
6.56244	0.338
6.60223	0.274
6.64203	0.142
6.68182	0.161
6.72161	0.147
6.7614	0.137
6.80119	0.083
6.84098	0.068
6.88078	0.048
6.92057	0.054
6.96036	0.139
7.00015	0.255
7.03994	0.335
7.07973	0.348
7.11952	0.29
7.15932	0.242
7.19911	0.186
7.2389	0.076
7.27869	0.054
7.31848	0.063
7.35827	0.101
7.39807	0.107
7.43786	0.107
7.47765	0.106
7.51744	0.101
7.55723	0.091
7.59702	0.079
7.63681	0.066
7.67661	0.061
7.7164	0.058
7.75619	0.059
7.79598	0.059
7.83577	0.063
7.87556	0.071
7.91536	0.083
7.95515	0.093
7.99494	0.116
8.03473	0.142
8.07452	0.162
8.11431	0.194
8.1541	0.215
8.1939	0.235
8.23369	0.26
8.27348	0.28
8.31327	0.3
8.35306	0.327
8.39285	0.342
8.43265	0.368
8.47244	0.385
8.51223	0.401
8.55202	0.415
8.59181	0.425
8.6316	0.443
8.67139	0.451
8.71119	0.47
8.75098	0.485
8.79077	0.493
8.83056	0.498
8.87035	0.506
8.91014	0.511
8.94994	0.519
8.98973	0.539
9.02952	0.558
9.06931	0.564
9.1091	0.561
9.14889	0.576
9.18868	0.571
9.22848	0.576
9.26827	0.579
9.30806	0.576
9.34785	0.591
9.38764	0.591
9.42743	0.594
9.46722	0.596
9.50702	0.583
9.54681	0.521
9.5866	0.48
9.62639	0.534
9.66618	0.576
9.70597	0.551
9.74577	0.46
9.78556	0.445
9.82535	0.533
9.86514	0.571
9.90493	0.584
9.94472	0.602
9.98451	0.611
10.0243	0.617
10.0641	0.609
10.1039	0.601
10.1437	0.591
10.1835	0.576
10.2233	0.558
10.2631	0.534
10.3028	0.508
10.3426	0.496
10.3824	0.473
10.4222	0.446
10.462	0.425
10.5018	0.388
10.5416	0.385
10.5814	0.392
10.6212	0.408
10.661	0.435
10.7008	0.458
10.7406	0.483
10.7803	0.526
10.8201	0.546
10.8599	0.578
10.8997	0.606
10.9395	0.627
10.9793	0.651
11.0191	0.666
11.0589	0.679
11.0987	0.696
11.1385	0.71
11.1783	0.719
11.2181	0.722
11.2578	0.73
11.2976	0.739
11.3374	0.752
11.3772	0.75
11.417	0.76
11.4568	0.762
11.4966	0.764
11.5364	0.767
11.5762	0.775
11.616	0.774
11.6558	0.775
11.6956	0.77
11.7353	0.765
11.7751	0.759
11.8149	0.739
11.8547	0.697
11.8945	0.652
11.9343	0.586
11.9741	0.478
12.0139	0.307
12.0537	0.247
12.0935	0.313
12.1333	0.431
12.173	0.559
12.2128	0.629
12.2526	0.692
12.2924	0.739
12.3322	0.762
12.372	0.78
12.4118	0.795
12.4516	0.82
12.4914	0.842
12.5312	0.857
12.571	0.868
12.6108	0.875
12.6505	0.89
12.6903	0.897
12.7301	0.9
12.7699	0.901
12.8097	0.903
12.8495	0.908
12.8893	0.908
12.9291	0.911
12.9689	0.911
13.0087	0.913
13.0485	0.916
13.0883	0.918
13.128	0.925
13.1678	0.928
13.2076	0.926
13.2474	0.928
13.2872	0.933
13.327	0.928
13.3668	0.928
13.4066	0.931
13.4464	0.923
13.4862	0.918
13.526	0.913
13.5658	0.895
13.6055	0.888
13.6453	0.88
13.6851	0.868
13.7249	0.86
13.7647	0.842
13.8045	0.817
13.8443	0.79
13.8841	0.757
13.9239	0.722
13.9637	0.679
14.0035	0.626
14.0433	0.561
14.083	0.485
14.1228	0.385
14.1626	0.305
14.2024	0.255
14.2422	0.237
14.282	0.245
14.3218	0.29
14.3616	0.337
14.4014	0.401
14.4412	0.458
14.481	0.498
14.5207	0.528
14.5605	0.541
14.6003	0.531
14.6401	0.518
14.6799	0.538
14.7197	0.578
14.7595	0.602
14.7993	0.632
14.8391	0.661
14.8789	0.677
14.9187	0.705
14.9585	0.707
14.9982	0.717
15.038	0.696
15.0778	0.669
15.1176	0.684
15.1574	0.714
15.1972	0.739
15.237	0.745
15.2768	0.739
15.3166	0.724
15.3564	0.676
15.3962	0.629
15.436	0.579
15.4757	0.573
15.5155	0.601
15.5553	0.631
15.5951	0.647
15.6349	0.646
15.6747	0.646
15.7145	0.639
15.7543	0.646
15.7941	0.656
15.8339	0.656
15.8737	0.641
15.9135	0.644
15.9532	0.639
15.993	0.627
