Infrared Spectrum: POTASSIUM DICHLOROISOCYANURATE
Formula: C3 Cl2 N3 O3 K
State: SOLID (MINERAL OIL MULL)
Melting point: 240-250 C DECOMPOSES
Class: COBLENTZ
Instrument: Not specified, most likely a prism, grating, or hybrid spectrometer.
Sampling: TRANSMISSION
Resolution: 4
Origin: WYANDOTTE CHEMICALS CORP., WYANDOTTE, MICHIGAN, USA
MICROMETERS	TRANSMITTANCE
2.04	0.692
2.07981	0.703
2.11962	0.707
2.15943	0.713
2.19923	0.713
2.23904	0.723
2.27885	0.732
2.31866	0.738
2.35847	0.745
2.39828	0.752
2.43808	0.755
2.47789	0.753
2.5177	0.768
2.55751	0.788
2.59732	0.765
2.63713	0.793
2.67694	0.795
2.71674	0.79
2.75655	0.788
2.79636	0.772
2.83617	0.77
2.87598	0.767
2.91579	0.762
2.95559	0.758
2.9954	0.76
3.03521	0.768
3.07502	0.772
3.11483	0.777
3.15464	0.78
3.19445	0.783
3.23425	0.78
3.27406	0.768
3.31387	0.662
3.35368	0.226
3.39349	0.138
3.4333	0.302
3.4731	0.307
3.51291	0.584
3.55272	0.782
3.59253	0.811
3.63234	0.828
3.67215	0.823
3.71196	0.828
3.75176	0.845
3.79157	0.861
3.83138	0.87
3.87119	0.876
3.911	0.878
3.95081	0.881
3.99061	0.878
4.03042	0.881
4.07023	0.873
4.11004	0.878
4.14985	0.89
4.18966	0.893
4.22947	0.881
4.26927	0.875
4.30908	0.898
4.34889	0.92
4.3887	0.925
4.42851	0.903
4.46832	0.901
4.50812	0.935
4.54793	0.933
4.58774	0.926
4.62755	0.941
4.66736	0.94
4.70717	0.943
4.74698	0.946
4.78678	0.936
4.82659	0.943
4.8664	0.95
4.90621	0.96
4.94602	0.965
4.98583	0.96
5.02563	0.951
5.06544	0.951
5.10525	0.965
5.14506	0.971
5.18487	0.973
5.22468	0.973
5.26449	0.971
5.30429	0.966
5.3441	0.966
5.38391	0.963
5.42372	0.95
5.46353	0.951
5.50334	0.946
5.54314	0.93
5.58295	0.898
5.62276	0.856
5.66257	0.797
5.70238	0.713
5.74219	0.394
5.782	0.361
5.8218	0.384
5.86161	0.281
5.90142	0.079
5.94123	0.078
5.98104	0.109
6.02085	0.128
6.06065	0.066
6.10046	0.139
6.14027	0.086
6.18008	0.056
6.21989	0.189
6.2597	0.331
6.29951	0.44
6.33931	0.572
6.37912	0.632
6.41893	0.677
6.45874	0.693
6.49855	0.703
6.53836	0.693
6.57816	0.648
6.61797	0.665
6.65778	0.742
6.69759	0.77
6.7374	0.737
6.77721	0.6
6.81702	0.53
6.85682	0.564
6.89663	0.6
6.93644	0.527
6.97625	0.194
7.01606	0.239
7.05587	0.201
7.09567	0.404
7.13548	0.589
7.17529	0.692
7.2151	0.66
7.25491	0.627
7.29472	0.733
7.33453	0.777
7.37433	0.79
7.41414	0.76
7.45395	0.748
7.49376	0.762
7.53357	0.76
7.57338	0.732
7.61318	0.61
7.65299	0.455
7.6928	0.134
7.73261	0.058
7.77242	0.051
7.81223	0.071
7.85204	0.161
7.89184	0.299
7.93165	0.459
7.97146	0.585
8.01127	0.642
8.05108	0.672
8.09089	0.51
8.13069	0.603
8.1705	0.655
8.21031	0.708
8.25012	0.743
8.28993	0.757
8.32974	0.767
8.36955	0.772
8.40935	0.783
8.44916	0.8
8.48897	0.808
8.52878	0.801
8.56859	0.778
8.6084	0.8
8.6482	0.805
8.68801	0.838
8.72782	0.848
8.76763	0.846
8.80744	0.851
8.84725	0.87
8.88706	0.873
8.92686	0.87
8.96667	0.863
9.00648	0.865
9.04629	0.865
9.0861	0.856
9.12591	0.861
9.16571	0.853
9.20552	0.851
9.24533	0.851
9.28514	0.848
9.32495	0.846
9.36476	0.83
9.40457	0.788
9.44437	0.75
9.48418	0.718
9.52399	0.707
9.5638	0.745
9.60361	0.798
9.64342	0.821
9.68322	0.833
9.72303	0.846
9.76284	0.851
9.80265	0.856
9.84246	0.865
9.88227	0.868
9.92208	0.866
9.96188	0.87
10.0017	0.87
10.0415	0.868
10.0813	0.871
10.1211	0.863
10.1609	0.86
10.2007	0.858
10.2405	0.86
10.2804	0.86
10.3202	0.861
10.36	0.86
10.3998	0.866
10.4396	0.863
10.4794	0.865
10.5192	0.865
10.559	0.865
10.5988	0.866
10.6386	0.866
10.6784	0.863
10.7182	0.86
10.7581	0.861
10.7979	0.855
10.8377	0.858
10.8775	0.86
10.9173	0.863
10.9571	0.86
10.9969	0.865
11.0367	0.87
11.0765	0.871
11.1163	0.871
11.1561	0.875
11.1959	0.875
11.2358	0.876
11.2756	0.876
11.3154	0.878
11.3552	0.88
11.395	0.881
11.4348	0.883
11.4746	0.883
11.5144	0.883
11.5542	0.881
11.594	0.881
11.6338	0.881
11.6736	0.886
11.7135	0.886
11.7533	0.881
11.7931	0.878
11.8329	0.886
11.8727	0.886
11.9125	0.881
11.9523	0.886
11.9921	0.883
12.0319	0.883
12.0717	0.883
12.1115	0.881
12.1513	0.878
12.1912	0.88
12.231	0.88
12.2708	0.873
12.3106	0.871
12.3504	0.868
12.3902	0.881
12.43	0.876
12.4698	0.875
12.5096	0.876
12.5494	0.876
12.5892	0.87
12.6291	0.846
12.6689	0.74
12.7087	0.584
12.7485	0.597
12.7883	0.743
12.8281	0.787
12.8679	0.798
12.9077	0.818
12.9475	0.836
12.9873	0.843
13.0271	0.84
13.0669	0.778
13.1068	0.695
13.1466	0.78
13.1864	0.811
13.2262	0.808
13.266	0.8
13.3058	0.762
13.3456	0.695
13.3854	0.492
13.4252	0.369
13.465	0.602
13.5048	0.554
13.5446	0.489
13.5845	0.662
13.6243	0.788
13.6641	0.818
13.7039	0.82
13.7437	0.803
13.7835	0.723
13.8233	0.515
13.8631	0.402
13.9029	0.341
13.9427	0.372
13.9825	0.589
14.0223	0.733
14.0622	0.798
14.102	0.826
14.1418	0.84
14.1816	0.843
14.2214	0.843
14.2612	0.821
14.301	0.78
14.3408	0.745
14.3806	0.747
14.4204	0.785
14.4602	0.816
14.5	0.831
14.5399	0.838
14.5797	0.845
14.6195	0.84
14.6593	0.838
14.6991	0.838
14.7389	0.84
14.7787	0.833
14.8185	0.833
14.8583	0.83
14.8981	0.826
14.9379	0.825
14.9777	0.818
15.0176	0.79
15.0574	0.753
15.0972	0.752
15.137	0.775
15.1768	0.795
15.2166	0.788
15.2564	0.787
15.2962	0.782
15.336	0.772
15.3758	0.765
15.4156	0.757
15.4555	0.748
15.4953	0.74
15.5351	0.732
15.5749	0.728
15.6147	0.728
15.6545	0.72
15.6943	0.708
15.7341	0.7
15.7739	0.693
15.8137	0.692
15.8535	0.687
15.8933	0.672
15.9332	0.668
15.973	0.665
