Infrared Spectrum: Indole, 1,2-dimethyl-, hydrochloride
Formula: C10 H12 Cl N
State: SOLID (KBr DISC, 0.9% WT.)
Class: COBLENTZ III
Instrument: PERKIN-ELMER 157
Sampling: TRANSMISSION
Resolution: 2
Origin: BRITISH PETROLEUM CO. LTD., ENGLAND
1/CM	TRANSMITTANCE
670	0.5216
679	0.5727
688	0.5733
697	0.5562
706	0.4852
715	0.44
724	0.3063
733	0.0322
742	0.011
751	0.0113
760	0.0246
769	0.0792
778	0.3046
787	0.4042
796	0.427
805	0.3817
814	0.404
823	0.4148
832	0.4424
841	0.404
850	0.424
859	0.4792
868	0.4521
877	0.4018
886	0.4039
895	0.2718
904	0.3852
913	0.4553
922	0.451
931	0.5125
940	0.5422
949	0.5582
958	0.5368
967	0.5161
976	0.5368
985	0.5372
994	0.4884
1003	0.3699
1012	0.2693
1021	0.247
1030	0.3711
1039	0.283
1048	0.3275
1057	0.4041
1066	0.3053
1075	0.1834
1084	0.2565
1093	0.328
1102	0.3112
1111	0.2557
1120	0.1798
1129	0.1921
1138	0.2809
1147	0.2497
1156	0.2328
1165	0.2754
1174	0.2837
1183	0.2462
1192	0.2658
1201	0.2258
1210	0.1593
1219	0.1514
1228	0.1956
1237	0.1718
1246	0.146
1255	0.124
1264	0.1598
1273	0.292
1282	0.2894
1291	0.235
1300	0.1742
1309	0.1334
1318	0.1098
1327	0.1071
1336	0.1324
1345	0.1347
1354	0.0546
1363	0.0317
1372	0.0545
1381	0.1133
1390	0.1266
1399	0.0979
1408	0.1055
1417	0.1223
1426	0.098
1435	0.0645
1444	0.0485
1453	0.0337
1462	0.029
1471	0.0285
1480	0.0316
1489	0.0691
1498	0.1677
1507	0.2933
1516	0.3182
1525	0.3261
1534	0.3169
1543	0.3008
1552	0.3005
1561	0.3047
1570	0.3084
1579	0.3096
1588	0.3007
1597	0.2164
1606	0.1464
1615	0.1777
1624	0.3199
1633	0.3184
1642	0.2962
1651	0.284
1660	0.2946
1669	0.3365
1678	0.3718
1687	0.3636
1696	0.353
1705	0.3491
1714	0.4019
1723	0.4868
1732	0.5426
1741	0.5479
1750	0.5514
1759	0.5587
1768	0.596
1777	0.6035
1786	0.6087
1795	0.6127
1804	0.6198
1813	0.6215
1822	0.6138
1831	0.6029
1840	0.6026
1849	0.6018
1858	0.5883
1867	0.5798
1876	0.5821
1885	0.5834
1894	0.5817
1903	0.5798
1912	0.5825
1921	0.5891
1930	0.5981
1939	0.5975
1948	0.5955
1957	0.593
1966	0.5898
1975	0.5855
1984	0.5822
1993	0.581
2002	0.5801
2011	0.5781
2020	0.5644
2029	0.5613
2038	0.5587
2047	0.5538
2056	0.5496
2065	0.546
2074	0.5429
2083	0.5401
2092	0.534
2101	0.5254
2110	0.5226
2119	0.5174
2128	0.5141
2137	0.5123
2146	0.508
2155	0.5
2164	0.4969
2173	0.4941
2182	0.4909
2191	0.4861
2200	0.4801
2209	0.4739
2218	0.4695
2227	0.4654
2236	0.4623
2245	0.4598
2254	0.4578
2263	0.4503
2272	0.4414
2281	0.437
2290	0.4355
2299	0.4292
2308	0.4159
2317	0.4122
2326	0.4093
2335	0.4084
2344	0.4067
2353	0.3991
2362	0.3973
2371	0.3971
2380	0.396
2389	0.3907
2398	0.3895
2407	0.3903
2416	0.392
2425	0.393
2434	0.3931
2443	0.3936
2452	0.3981
2461	0.4069
2470	0.4187
2479	0.4311
2488	0.4343
2497	0.4352
2506	0.4357
2515	0.436
2524	0.4365
2533	0.437
2542	0.4378
2551	0.4405
2560	0.4484
2569	0.456
2578	0.463
2587	0.4676
2596	0.4711
2605	0.4736
2614	0.4745
2623	0.4753
2632	0.4759
2641	0.4761
2650	0.476
2659	0.4758
2668	0.4752
2677	0.4745
2686	0.4737
2695	0.4724
2704	0.4709
2713	0.4685
2722	0.4641
2731	0.454
2740	0.437
2749	0.4105
2758	0.3841
2767	0.358
2776	0.332
2785	0.3061
2794	0.2777
2803	0.2421
2812	0.2296
2821	0.2122
2830	0.1144
2839	0.0911
2848	0.08
2857	0.0721
2866	0.0658
2875	0.0608
2884	0.0571
2893	0.0559
2902	0.0554
2911	0.0558
2920	0.0576
2929	0.0651
2938	0.0985
2947	0.1359
2956	0.1731
2965	0.2205
2974	0.2363
2983	0.2436
2992	0.249
3001	0.2525
3010	0.2549
3019	0.2859
3028	0.342
3037	0.3977
3046	0.4531
3055	0.5081
3064	0.5408
3073	0.5628
3082	0.5717
3091	0.5751
3100	0.5779
3109	0.5799
3118	0.5818
3127	0.5845
3136	0.588
3145	0.5916
3154	0.5956
3163	0.5994
3172	0.6033
3181	0.6084
3190	0.6135
3199	0.6184
3208	0.6221
3217	0.6252
3226	0.6283
3235	0.6316
3244	0.6348
3253	0.6381
3262	0.6413
3271	0.6442
3280	0.6471
3289	0.6499
3298	0.6527
3307	0.6556
3316	0.6593
3325	0.6634
3334	0.6675
3343	0.6716
3352	0.6758
3361	0.68
3370	0.6842
3379	0.6883
3388	0.6927
3397	0.6974
3406	0.7021
3415	0.7067
3424	0.7104
3433	0.7141
3442	0.7177
3451	0.7213
3460	0.7251
3469	0.7288
3478	0.7326
3487	0.7363
3496	0.7392
3505	0.742
3514	0.7449
3523	0.7482
3532	0.7507
3541	0.7516
3550	0.7526
3559	0.7535
3568	0.7539
3577	0.7541
3586	0.7542
3595	0.7545
3604	0.7547
3613	0.755
3622	0.7552
3631	0.7554
3640	0.7568
3649	0.7585
3658	0.76
3667	0.7606
3676	0.7601
3685	0.7592
3694	0.7582
3703	0.7573
3712	0.7564
3721	0.7554
3730	0.7543
3739	0.7533
3748	0.7522
3757	0.7509
3766	0.7496
3775	0.7484
3784	0.7473
3793	0.7463
3802	0.7452
3811	0.7442
3820	0.7435
3829	0.7429
3838	0.7424
3847	0.7419
3856	0.7415
3865	0.7413
3874	0.7411
3883	0.7409
3892	0.7407
3901	0.7406
3910	0.7405
3919	0.7402
3928	0.7399
3937	0.7397
3946	0.7394
3955	0.7391
3964	0.7388
3973	0.7386
3982	0.7383
3991	0.738
4000	0.7378
