Infrared Spectrum: CyclohexaneHexanoic acid, E,2-dioxo-, methyl ester
Formula: C13 H20 O4
State: LIQUID (NEAT)
Class: COBLENTZ III
Instrument: PERKIN-ELMER 21 (GRATING)
Instrument parameters: FILTER CHANGE ABOUT 1090 CM^-^1
Sampling: TRANSMISSION
Path length: CAPILLARY
Resolution: 2
Origin: SOUTHERN RESEARCH INSTITUTE
1/CM	TRANSMITTANCE
598.709	0.7331
607.736	0.7378
616.763	0.7435
625.791	0.748
634.818	0.7496
643.845	0.7476
652.872	0.7527
661.9	0.7753
670.927	0.7958
679.954	0.8139
688.981	0.8117
698.009	0.8048
707.036	0.8147
716.063	0.8053
725.09	0.7741
734.117	0.7356
743.145	0.6709
752.172	0.5575
761.199	0.5659
770.226	0.6807
779.254	0.7264
788.281	0.7316
797.308	0.7506
806.335	0.7518
815.363	0.6824
824.39	0.5068
833.417	0.5831
842.444	0.677
851.472	0.6365
860.499	0.6227
869.526	0.5879
878.553	0.4452
887.58	0.5219
896.608	0.567
905.635	0.5073
914.662	0.4805
923.689	0.4405
932.717	0.3855
941.744	0.3835
950.771	0.3879
959.798	0.3594
968.826	0.3422
977.853	0.4382
986.88	0.4103
995.907	0.3594
1004.93	0.4097
1013.96	0.4684
1022.99	0.5024
1032.02	0.5766
1041.04	0.5728
1050.07	0.535
1059.1	0.4516
1068.13	0.4191
1077.15	0.4736
1086.18	0.5746
1095.21	0.5955
1104.23	0.6046
1113.26	0.5326
1122.29	0.3958
1131.32	0.2306
1140.34	0.1721
1149.37	0.1678
1158.4	0.1531
1167.42	0.0785
1176.45	0.0696
1185.48	0.1388
1194.51	0.0781
1203.53	0.0691
1212.56	0.0728
1221.59	0.0915
1230.62	0.111
1239.64	0.0933
1248.67	0.0753
1257.7	0.0778
1266.72	0.1173
1275.75	0.1517
1284.78	0.1535
1293.81	0.1508
1302.83	0.1446
1311.86	0.1539
1320.89	0.1611
1329.91	0.2012
1338.94	0.197
1347.97	0.1971
1357	0.1823
1366.02	0.154
1375.05	0.1599
1384.08	0.2528
1393.11	0.3158
1402.13	0.2422
1411.16	0.1314
1420.19	0.0807
1429.21	0.1167
1438.24	0.1171
1447.27	0.1226
1456.3	0.1415
1465.32	0.1639
1474.35	0.2527
1483.38	0.3955
1492.41	0.4082
1501.43	0.4076
1510.46	0.3985
1519.49	0.375
1528.51	0.3479
1537.54	0.3106
1546.57	0.2519
1555.6	0.2155
1564.62	0.1494
1573.65	0.0735
1582.68	0.0491
1591.7	0.0401
1600.73	0.0385
1609.76	0.0404
1618.79	0.0457
1627.81	0.0612
1636.84	0.1234
1645.87	0.1602
1654.9	0.2863
1663.92	0.3265
1672.95	0.3824
1681.98	0.4227
1691	0.3949
1700.03	0.3005
1709.06	0.2815
1718.09	0.183
1727.11	0.0637
1736.14	0.0349
1745.17	0.0532
1754.19	0.1661
1763.22	0.2728
1772.25	0.4882
1781.28	0.5609
1790.3	0.6071
1799.33	0.6458
1808.36	0.6674
1817.39	0.6852
1826.41	0.7014
1835.44	0.7138
1844.47	0.7199
1853.49	0.7265
1862.52	0.7312
1871.55	0.7351
1880.58	0.7374
1889.6	0.7401
1898.63	0.7401
1907.66	0.7405
1916.68	0.7432
1925.71	0.7466
1934.74	0.7475
1943.77	0.7478
1952.79	0.747
1961.82	0.7467
1970.85	0.75
1979.88	0.7493
1988.9	0.7447
1997.93	0.7462
2006.96	0.7527
2015.98	0.7519
2025.01	0.75
2034.04	0.7489
2043.07	0.7491
2052.09	0.7483
2061.12	0.7474
2070.15	0.7466
2079.18	0.7463
2088.2	0.7484
2097.23	0.7508
2106.26	0.7532
2115.28	0.7555
2124.31	0.7578
2133.34	0.7598
2142.37	0.7617
2151.39	0.7622
2160.42	0.7617
2169.45	0.761
2178.47	0.7639
2187.5	0.7689
2196.53	0.7689
2205.56	0.7658
2214.58	0.7626
2223.61	0.762
2232.64	0.7626
2241.67	0.7634
2250.69	0.7642
2259.72	0.7641
2268.75	0.762
2277.77	0.7596
2286.8	0.7571
2295.83	0.7574
2304.86	0.7627
2313.88	0.7613
2322.91	0.7689
2331.94	0.7673
2340.96	0.7666
2349.99	0.7622
2359.02	0.7567
2368.05	0.7489
2377.07	0.7458
2386.1	0.7537
2395.13	0.7487
2404.16	0.7431
2413.18	0.739
2422.21	0.7405
2431.24	0.7437
2440.26	0.7446
2449.29	0.7395
2458.32	0.7292
2467.35	0.7249
2476.37	0.7218
2485.4	0.72
2494.43	0.7191
2503.46	0.7184
2512.48	0.7185
2521.51	0.7188
2530.54	0.7187
2539.56	0.7165
2548.59	0.7129
2557.62	0.7085
2566.65	0.7042
2575.67	0.7011
2584.7	0.6932
2593.73	0.6883
2602.75	0.6855
2611.78	0.683
2620.81	0.6766
2629.84	0.6741
2638.86	0.6733
2647.89	0.665
2656.92	0.6629
2665.95	0.6671
2674.97	0.6737
2684	0.6757
2693.03	0.6794
2702.05	0.6786
2711.08	0.6793
2720.11	0.6822
2729.14	0.6865
2738.16	0.6848
2747.19	0.6791
2756.22	0.6766
2765.24	0.6746
2774.27	0.6711
2783.3	0.6593
2792.33	0.6473
2801.35	0.6198
2810.38	0.5762
2819.41	0.5144
2828.44	0.4339
2837.46	0.3077
2846.49	0.2448
2855.52	0.2407
2864.54	0.2559
2873.57	0.2827
2882.6	0.2829
2891.63	0.2746
2900.65	0.2473
2909.68	0.2015
2918.71	0.1148
2927.74	0.0984
2936.76	0.1019
2945.79	0.1121
2954.82	0.1631
2963.84	0.262
2972.87	0.3895
2981.9	0.487
2990.93	0.5408
2999.95	0.5699
3008.98	0.5941
3018.01	0.6141
3027.03	0.6352
3036.06	0.6678
3045.09	0.6833
3054.12	0.7092
3063.14	0.7218
3072.17	0.7386
3081.2	0.7572
3090.23	0.7613
3099.25	0.7634
3108.28	0.7662
3117.31	0.7793
3126.33	0.784
3135.36	0.783
3144.39	0.7812
3153.42	0.7803
3162.44	0.7798
3171.47	0.7763
3180.5	0.7749
3189.52	0.7773
3198.55	0.78
3207.58	0.7862
3216.61	0.7944
3225.63	0.8002
3234.66	0.8007
3243.69	0.8008
3252.72	0.8063
3261.74	0.8122
3270.77	0.8157
3279.8	0.8175
3288.82	0.8174
3297.85	0.8183
3306.88	0.8196
3315.91	0.8199
3324.93	0.8226
3333.96	0.8257
3342.99	0.823
3352.02	0.8291
3361.04	0.8286
3370.07	0.8258
3379.1	0.8271
3388.12	0.8281
3397.15	0.8272
3406.18	0.8265
3415.21	0.8251
3424.23	0.823
3433.26	0.8182
3442.29	0.8127
3451.31	0.8093
3460.34	0.8102
3469.37	0.8139
3478.4	0.8186
3487.42	0.8225
3496.45	0.823
3505.48	0.8232
3514.51	0.8227
3523.53	0.8216
3532.56	0.8222
3541.59	0.8277
3550.61	0.8319
3559.64	0.8318
3568.67	0.8314
3577.7	0.8308
3586.72	0.8299
3595.75	0.829
3604.78	0.8277
3613.8	0.8262
3622.83	0.826
3631.86	0.8258
3640.89	0.8255
3649.91	0.8252
3658.94	0.8272
3667.97	0.8308
3677	0.8341
3686.02	0.8353
3695.05	0.8363
3704.08	0.8378
3713.1	0.8432
3722.13	0.846
3731.16	0.8481
3740.19	0.8425
3749.21	0.8445
3758.24	0.8467
3767.27	0.8467
3776.29	0.8474
3785.32	0.8481
3794.35	0.8484
3803.38	0.8464
3812.4	0.841
3821.43	0.8397
3830.46	0.8438
3839.49	0.8467
3848.51	0.8508
3857.54	0.8543
3866.57	0.8528
3875.59	0.8488
3884.62	0.8485
3893.65	0.8502
3902.68	0.8453
3911.7	0.8443
3920.73	0.846
3929.76	0.8375
3938.79	0.8365
3947.81	0.8387
3956.84	0.8415
3965.87	0.8465
3974.89	0.8395
3983.92	0.8385
3992.95	0.8337
4001.98	0.8361
