Infrared Spectrum: HYPOXANTHINE-7-ETHANOL, Alpha-ACETATE
Formula: C9 H10 N4 O3
State: SOLID (1 mg / 650 mg KBr DISC)
Class: COBLENTZ III
Instrument: PERKIN-ELMER 221 (GRATING)
Instrument parameters: FILTER AT 980 CM^-^1. GRATING 4000-1428 CM^-^1, NaCl PRISM 1428-650 CM^-^1
Sampling: TRANSMISSION
Resolution: 2
Origin: SOUTHERN RESEARCH INSTITUTE
1/CM	TRANSMITTANCE
606.494	0.776
615.507	0.7209
624.52	0.7484
633.533	0.7894
642.545	0.8608
651.558	0.864
660.571	0.863
669.584	0.8286
678.597	0.7649
687.61	0.8735
696.623	0.8668
705.636	0.869
714.648	0.8813
723.661	0.8806
732.674	0.8169
741.687	0.852
750.7	0.873
759.713	0.872
768.726	0.867
777.739	0.85
786.751	0.5933
795.764	0.8426
804.777	0.846
813.79	0.8424
822.803	0.8352
831.816	0.8295
840.829	0.8366
849.842	0.8265
858.854	0.8117
867.867	0.796
876.88	0.7752
885.893	0.758
894.906	0.7415
903.919	0.7691
912.932	0.823
921.945	0.8144
930.957	0.7408
939.97	0.8506
948.983	0.861
957.996	0.861
967.009	0.8476
976.022	0.8299
985.035	0.7881
994.048	0.8091
1003.06	0.8404
1012.07	0.8324
1021.09	0.8111
1030.1	0.7426
1039.11	0.5939
1048.12	0.7033
1057.14	0.7948
1066.15	0.7823
1075.16	0.6631
1084.18	0.6908
1093.19	0.7853
1102.2	0.8237
1111.21	0.828
1120.23	0.8197
1129.24	0.8
1138.25	0.7945
1147.27	0.7414
1156.28	0.6027
1165.29	0.8238
1174.3	0.8282
1183.32	0.8167
1192.33	0.7946
1201.34	0.7268
1210.36	0.5989
1219.37	0.463
1228.38	0.3863
1237.4	0.508
1246.41	0.3542
1255.42	0.395
1264.43	0.5076
1273.45	0.6986
1282.46	0.6585
1291.47	0.8134
1300.49	0.826
1309.5	0.8177
1318.51	0.7938
1327.52	0.6828
1336.54	0.581
1345.55	0.7042
1354.56	0.6488
1363.58	0.4798
1372.59	0.6468
1381.6	0.6152
1390.61	0.5926
1399.63	0.5164
1408.64	0.7407
1417.65	0.7198
1426.67	0.6868
1435.68	0.5445
1444.69	0.6552
1453.7	0.6412
1462.72	0.6417
1471.73	0.7888
1480.74	0.8103
1489.76	0.8098
1498.77	0.7627
1507.78	0.7599
1516.79	0.64
1525.81	0.7234
1534.82	0.7728
1543.83	0.7705
1552.85	0.8223
1561.86	0.8094
1570.87	0.7876
1579.88	0.7214
1588.9	0.5509
1597.91	0.5339
1606.92	0.746
1615.94	0.7534
1624.95	0.7328
1633.96	0.7039
1642.97	0.6907
1651.99	0.6338
1661	0.5971
1670.01	0.4987
1679.03	0.236
1688.04	0.091
1697.05	0.0567
1706.06	0.3763
1715.08	0.5959
1724.09	0.6687
1733.1	0.5122
1742.12	0.3397
1751.13	0.6092
1760.14	0.7184
1769.15	0.7625
1778.17	0.7826
1787.18	0.792
1796.19	0.789
1805.21	0.794
1814.22	0.8029
1823.23	0.817
1832.24	0.826
1841.26	0.8328
1850.27	0.8407
1859.28	0.843
1868.3	0.843
1877.31	0.845
1886.32	0.847
1895.33	0.847
1904.35	0.847
1913.36	0.846
1922.37	0.846
1931.39	0.8447
1940.4	0.841
1949.41	0.8381
1958.42	0.846
1967.44	0.854
1976.45	0.8559
1985.46	0.855
1994.48	0.856
2003.49	0.856
2012.5	0.856
2021.51	0.856
2030.53	0.855
2039.54	0.856
2048.55	0.856
2057.57	0.856
2066.58	0.855
2075.59	0.855
2084.61	0.856
2093.62	0.856
2102.63	0.856
2111.64	0.858
2120.66	0.858
2129.67	0.858
2138.68	0.858
2147.7	0.859
2156.71	0.859
2165.72	0.859
2174.73	0.859
2183.75	0.859
2192.76	0.859
2201.77	0.859
2210.79	0.859
2219.8	0.859
2228.81	0.8583
2237.82	0.858
2246.84	0.859
2255.85	0.858
2264.86	0.856
2273.88	0.855
2282.89	0.854
2291.9	0.852
2300.91	0.851
2309.93	0.85
2318.94	0.8476
2327.95	0.846
2336.97	0.845
2345.98	0.8436
2354.99	0.8423
2364	0.841
2373.02	0.84
2382.03	0.838
2391.04	0.838
2400.06	0.838
2409.07	0.837
2418.08	0.836
2427.09	0.8336
2436.11	0.832
2445.12	0.831
2454.13	0.8296
2463.15	0.828
2472.16	0.828
2481.17	0.828
2490.18	0.826
2499.2	0.82
2508.21	0.8183
2517.22	0.817
2526.24	0.8143
2535.25	0.812
2544.26	0.8036
2553.27	0.7976
2562.29	0.787
2571.3	0.786
2580.31	0.785
2589.33	0.782
2598.34	0.7656
2607.35	0.758
2616.36	0.754
2625.38	0.759
2634.39	0.763
2643.4	0.76
2652.42	0.758
2661.43	0.7496
2670.44	0.7443
2679.45	0.745
2688.47	0.746
2697.48	0.735
2706.49	0.7286
2715.51	0.726
2724.52	0.7189
2733.53	0.7073
2742.54	0.703
2751.56	0.6983
2760.57	0.696
2769.58	0.6893
2778.6	0.6776
2787.61	0.6646
2796.62	0.6509
2805.63	0.6416
2814.65	0.6212
2823.66	0.5989
2832.67	0.5893
2841.69	0.584
2850.7	0.583
2859.71	0.583
2868.72	0.586
2877.74	0.5978
2886.75	0.6339
2895.76	0.6437
2904.78	0.6554
2913.79	0.663
2922.8	0.65
2931.82	0.6329
2940.83	0.6124
2949.84	0.5933
2958.85	0.5768
2967.87	0.6302
2976.88	0.6532
2985.89	0.6353
2994.91	0.6477
3003.92	0.6433
3012.93	0.638
3021.94	0.6319
3030.96	0.6166
3039.97	0.5682
3048.98	0.5216
3058	0.5665
3067.01	0.5983
3076.02	0.5506
3085.03	0.5173
3094.05	0.4619
3103.06	0.5714
3112.07	0.5769
3121.09	0.5976
3130.1	0.6425
3139.11	0.6617
3148.12	0.6627
3157.14	0.666
3166.15	0.6848
3175.16	0.6947
3184.18	0.7028
3193.19	0.7154
3202.2	0.722
3211.21	0.728
3220.23	0.7334
3229.24	0.7457
3238.25	0.7493
3247.27	0.749
3256.28	0.749
3265.29	0.7483
3274.3	0.748
3283.32	0.753
3292.33	0.7594
3301.34	0.7664
3310.36	0.768
3319.37	0.7673
3328.38	0.7633
3337.39	0.76
3346.41	0.7556
3355.42	0.751
3364.43	0.7343
3373.45	0.7286
3382.46	0.7253
3391.47	0.718
3400.48	0.71
3409.5	0.707
3418.51	0.703
3427.52	0.703
3436.54	0.702
3445.55	0.702
3454.56	0.703
3463.57	0.7064
3472.59	0.71
3481.6	0.7167
3490.61	0.7227
3499.63	0.732
3508.64	0.7384
3517.65	0.7457
3526.66	0.7507
3535.68	0.7577
3544.69	0.7664
3553.7	0.7727
3562.72	0.7827
3571.73	0.79
3580.74	0.7954
3589.75	0.803
3598.77	0.8074
3607.78	0.8164
3616.79	0.8287
3625.81	0.8367
3634.82	0.8444
3643.83	0.851
3652.84	0.8517
3661.86	0.854
3670.87	0.854
3679.88	0.855
3688.9	0.859
3697.91	0.864
3706.92	0.865
3715.93	0.8664
3724.95	0.864
3733.96	0.864
3742.97	0.867
3751.99	0.867
3761	0.865
3770.01	0.865
3779.03	0.865
3788.04	0.865
3797.05	0.8673
3806.06	0.864
3815.08	0.867
3824.09	0.865
3833.1	0.865
3842.12	0.8643
3851.13	0.864
3860.14	0.863
3869.15	0.863
3878.17	0.861
3887.18	0.861
3896.19	0.861
3905.21	0.863
3914.22	0.863
3923.23	0.865
3932.24	0.861
3941.26	0.859
3950.27	0.858
3959.28	0.858
3968.3	0.859
3977.31	0.859
3986.32	0.859
3995.33	0.859
4004.35	0.859
4013.36	0.859
