Infrared Spectrum: Indoline, 6-amino-, dihydrochloride
Formula: C8 H12 Cl2 N2
State: SOLID (SPLIT MULL), FLUOROLUBE FOR 3800-1330 CM^-^1, NUJOL FOR 1330-400 CM^-^1
Class: COBLENTZ III
Instrument: BECKMAN IR-9 (GRATING)
Instrument parameters: ORDER CHANGES: 670, 1200, 2000 CM^-^1
Sampling: TRANSMISSION
Resolution: 2
Origin: DOW CHEMICAL COMPANY
1/CM	TRANSMITTANCE
384	0.8092
393	0.8025
402	0.7852
411	0.7317
420	0.4012
429	0.6408
438	0.6709
447	0.85
456	0.8887
465	0.8916
474	0.8432
483	0.902
492	0.899
501	0.8931
510	0.887
519	0.8812
528	0.8753
537	0.8677
546	0.7788
555	0.8801
564	0.8818
573	0.833
582	0.8658
591	0.8903
600	0.8932
609	0.8958
618	0.9008
627	0.9044
636	0.8891
645	0.8466
654	0.9101
663	0.9084
672	0.9032
681	0.8688
690	0.5015
699	0.8786
708	0.8571
717	0.7952
726	0.779
735	0.8011
744	0.7695
753	0.8435
762	0.836
771	0.7996
780	0.8249
789	0.8464
798	0.8407
807	0.8045
816	0.4691
825	0.7585
834	0.8129
843	0.7689
852	0.7561
861	0.7834
870	0.7776
879	0.8181
888	0.803
897	0.7875
906	0.7149
915	0.6079
924	0.6736
933	0.7648
942	0.7751
951	0.7554
960	0.6966
969	0.7764
978	0.7843
987	0.7704
996	0.6021
1005	0.7991
1014	0.804
1023	0.8006
1032	0.7968
1041	0.7917
1050	0.7806
1059	0.7073
1068	0.705
1077	0.7514
1086	0.7366
1095	0.6763
1104	0.5997
1113	0.6261
1122	0.6592
1131	0.5742
1140	0.5401
1149	0.6899
1158	0.7294
1167	0.7357
1176	0.7221
1185	0.712
1194	0.6758
1203	0.7174
1212	0.6568
1221	0.7419
1230	0.7355
1239	0.7162
1248	0.6601
1257	0.5613
1266	0.6824
1275	0.6796
1284	0.6144
1293	0.6212
1302	0.6432
1311	0.632
1320	0.6597
1329	0.6346
1338	0.5787
1347	0.5971
1356	0.7408
1365	0.7017
1374	0.5146
1383	0.4935
1392	0.7743
1401	0.8016
1410	0.7976
1419	0.7876
1428	0.7784
1437	0.6398
1446	0.6676
1455	0.5522
1464	0.7613
1473	0.751
1482	0.7114
1491	0.5712
1500	0.354
1509	0.3755
1518	0.5855
1527	0.5092
1536	0.3054
1545	0.4038
1554	0.4922
1563	0.5713
1572	0.5893
1581	0.6262
1590	0.7302
1599	0.7881
1608	0.8024
1617	0.7747
1626	0.7845
1635	0.7567
1644	0.8397
1653	0.8446
1662	0.8629
1671	0.8622
1680	0.8599
1689	0.8651
1698	0.8579
1707	0.8553
1716	0.8439
1725	0.8398
1734	0.8372
1743	0.8366
1752	0.8342
1761	0.831
1770	0.8289
1779	0.8271
1788	0.8236
1797	0.8197
1806	0.8156
1815	0.8113
1824	0.8081
1833	0.8066
1842	0.8055
1851	0.8047
1860	0.8021
1869	0.7989
1878	0.7954
1887	0.7922
1896	0.7912
1905	0.7989
1914	0.7978
1923	0.7968
1932	0.7965
1941	0.7956
1950	0.7943
1959	0.7951
1968	0.7832
1977	0.7831
1986	0.7807
1995	0.7791
2004	0.7858
2013	0.7803
2022	0.7734
2031	0.7657
2040	0.7578
2049	0.7502
2058	0.7423
2067	0.7338
2076	0.7258
2085	0.7181
2094	0.713
2103	0.7107
2112	0.7058
2121	0.6949
2130	0.684
2139	0.6729
2148	0.6619
2157	0.6513
2166	0.6407
2175	0.6318
2184	0.6238
2193	0.6157
2202	0.6077
2211	0.5994
2220	0.591
2229	0.5826
2238	0.5741
2247	0.5652
2256	0.5564
2265	0.5477
2274	0.539
2283	0.5287
2292	0.5165
2301	0.5022
2310	0.4893
2319	0.479
2328	0.4686
2337	0.4578
2346	0.4477
2355	0.4365
2364	0.4215
2373	0.4051
2382	0.3916
2391	0.381
2400	0.365
2409	0.349
2418	0.3411
2427	0.3314
2436	0.3178
2445	0.2965
2454	0.2779
2463	0.2685
2472	0.2632
2481	0.261
2490	0.2652
2499	0.273
2508	0.2678
2517	0.259
2526	0.2455
2535	0.231
2544	0.2162
2553	0.2038
2562	0.2017
2571	0.1948
2580	0.1822
2589	0.172
2598	0.1712
2607	0.1795
2616	0.1898
2625	0.1993
2634	0.2087
2643	0.2097
2652	0.2009
2661	0.2028
2670	0.2122
2679	0.2134
2688	0.2117
2697	0.2078
2706	0.2023
2715	0.1957
2724	0.1929
2733	0.1937
2742	0.1963
2751	0.197
2760	0.1856
2769	0.1684
2778	0.1531
2787	0.1369
2796	0.1282
2805	0.1216
2814	0.1166
2823	0.1135
2832	0.1111
2841	0.1103
2850	0.1112
2859	0.1127
2868	0.115
2877	0.1175
2886	0.1207
2895	0.1239
2904	0.1273
2913	0.131
2922	0.1348
2931	0.1398
2940	0.1452
2949	0.1539
2958	0.1644
2967	0.1788
2976	0.1994
2985	0.2227
2994	0.2458
3003	0.2644
3012	0.2824
3021	0.2919
3030	0.2997
3039	0.3088
3048	0.3346
3057	0.345
3066	0.3527
3075	0.358
3084	0.3971
3093	0.4243
3102	0.4434
3111	0.46
3120	0.4791
3129	0.5009
3138	0.5209
3147	0.5395
3156	0.5611
3165	0.5852
3174	0.6116
3183	0.6315
3192	0.6461
3201	0.6578
3210	0.6717
3219	0.681
3228	0.6887
3237	0.6931
3246	0.6957
3255	0.6974
3264	0.6984
3273	0.6983
3282	0.6974
3291	0.6956
3300	0.6938
3309	0.6912
3318	0.6886
3327	0.6857
3336	0.6828
3345	0.6795
3354	0.6757
3363	0.6719
3372	0.6681
3381	0.664
3390	0.6598
3399	0.6556
3408	0.6517
3417	0.649
3426	0.6462
3435	0.6435
3444	0.6419
3453	0.6404
3462	0.6389
3471	0.6374
3480	0.6358
3489	0.634
3498	0.6323
3507	0.6305
3516	0.6287
3525	0.627
3534	0.6253
3543	0.6236
3552	0.6219
3561	0.6202
3570	0.6185
3579	0.6165
3588	0.6143
3597	0.612
3606	0.6097
3615	0.6074
3624	0.6052
3633	0.6029
3642	0.6006
3651	0.5983
3660	0.5961
3669	0.5938
3678	0.5918
3687	0.5897
3696	0.5877
3705	0.5856
3714	0.5835
3723	0.5811
3732	0.5788
3741	0.5764
3750	0.5741
3759	0.5725
3768	0.5709
3777	0.5692
3786	0.5667
3795	0.564
