Infrared Spectrum: Silsesquioxane, ethyl-,
Formula: ( C4 H10 O3 Si2)n
State: SOLID (OIL MULL)
Class: COBLENTZ
Instrument: PERKIN-ELMER 521 (GRATING)
Instrument parameters: FILTERS AT 3150, 2500, 2000, 1150, 700, 410. GRATING CHANGES: 2000, 630
Resolution: 2
Origin: DOW CORNING CORP.
1/CM	TRANSMITTANCE
241	0.8542
250	0.864
259	0.8843
268	0.9149
277	0.9321
286	0.9463
295	0.9543
304	0.9539
313	0.9542
322	0.949
331	0.9377
340	0.9208
349	0.8971
358	0.8667
367	0.8201
376	0.777
385	0.7384
394	0.7007
403	0.6685
412	0.6328
421	0.5976
430	0.5687
439	0.5613
448	0.5796
457	0.631
466	0.7271
475	0.8052
484	0.8689
493	0.8891
502	0.8846
511	0.8657
520	0.8406
529	0.8147
538	0.7884
547	0.7685
556	0.7648
565	0.7754
574	0.7899
583	0.8114
592	0.8256
601	0.8468
610	0.8659
619	0.8632
628	0.8565
637	0.8439
646	0.8222
655	0.7798
664	0.7355
673	0.7119
682	0.6763
691	0.5143
700	0.3408
709	0.598
718	0.7227
727	0.7087
736	0.6239
745	0.5342
754	0.4971
763	0.5395
772	0.5932
781	0.6141
790	0.6632
799	0.7501
808	0.843
817	0.8684
826	0.8664
835	0.8634
844	0.8709
853	0.8715
862	0.8705
871	0.8665
880	0.8491
889	0.8364
898	0.8378
907	0.8477
916	0.8574
925	0.8584
934	0.8413
943	0.8313
952	0.7134
961	0.5791
970	0.6742
979	0.673
988	0.5501
997	0.3498
1006	0.1881
1015	0.1914
1024	0.201
1033	0.1425
1042	0.1401
1051	0.1578
1060	0.1953
1069	0.2334
1078	0.2369
1087	0.2108
1096	0.1678
1105	0.12
1114	0.0973
1123	0.0971
1132	0.1019
1141	0.1193
1150	0.1516
1159	0.198
1168	0.2821
1177	0.4269
1186	0.5391
1195	0.6147
1204	0.6645
1213	0.6827
1222	0.6675
1231	0.642
1240	0.6219
1249	0.4029
1258	0.5147
1267	0.6926
1276	0.7737
1285	0.8117
1294	0.8245
1303	0.8275
1312	0.8406
1321	0.8405
1330	0.8369
1339	0.8304
1348	0.8212
1357	0.7883
1366	0.7354
1375	0.5944
1384	0.7588
1393	0.8318
1402	0.8136
1411	0.7146
1420	0.7833
1429	0.7515
1438	0.6288
1447	0.5061
1456	0.381
1465	0.3692
1474	0.6838
1483	0.8384
1492	0.8642
1501	0.8832
1510	0.8969
1519	0.9039
1528	0.9056
1537	0.9039
1546	0.9115
1555	0.913
1564	0.9145
1573	0.9143
1582	0.9134
1591	0.9103
1600	0.9106
1609	0.9126
1618	0.9154
1627	0.9176
1636	0.9194
1645	0.9201
1654	0.9206
1663	0.9215
1672	0.9227
1681	0.9223
1690	0.9242
1699	0.9264
1708	0.928
1717	0.9295
1726	0.9299
1735	0.9295
1744	0.9286
1753	0.9278
1762	0.9273
1771	0.9268
1780	0.9272
1789	0.9286
1798	0.9303
1807	0.9326
1816	0.933
1825	0.9331
1834	0.9339
1843	0.9345
1852	0.9348
1861	0.9351
1870	0.9351
1879	0.9351
1888	0.9355
1897	0.936
1906	0.9372
1915	0.9386
1924	0.9403
1933	0.942
1942	0.9437
1951	0.9456
1960	0.9464
1969	0.947
1978	0.9461
1987	0.945
1996	0.9424
2005	0.9408
2014	0.9405
2023	0.9401
2032	0.9402
2041	0.9403
2050	0.9401
2059	0.9397
2068	0.9394
2077	0.9397
2086	0.9401
2095	0.9405
2104	0.9412
2113	0.9418
2122	0.9425
2131	0.9427
2140	0.9426
2149	0.9424
2158	0.9423
2167	0.9415
2176	0.9406
2185	0.9397
2194	0.9388
2203	0.9382
2212	0.9378
2221	0.9372
2230	0.9367
2239	0.9362
2248	0.9358
2257	0.9354
2266	0.935
2275	0.9344
2284	0.9338
2293	0.9332
2302	0.9326
2311	0.9324
2320	0.9324
2329	0.9325
2338	0.9326
2347	0.9326
2356	0.9329
2365	0.9332
2374	0.9334
2383	0.9337
2392	0.9339
2401	0.934
2410	0.9342
2419	0.9343
2428	0.9342
2437	0.9342
2446	0.9341
2455	0.9332
2464	0.9325
2473	0.9305
2482	0.9284
2491	0.9264
2500	0.9244
2509	0.9223
2518	0.9204
2527	0.9187
2536	0.9174
2545	0.9159
2554	0.9145
2563	0.913
2572	0.9114
2581	0.9086
2590	0.9057
2599	0.9028
2608	0.9001
2617	0.8968
2626	0.8933
2635	0.8891
2644	0.8849
2653	0.8806
2662	0.8764
2671	0.8751
2680	0.8753
2689	0.8761
2698	0.8751
2707	0.8729
2716	0.8696
2725	0.8656
2734	0.862
2743	0.8634
2752	0.8697
2761	0.8681
2770	0.8648
2779	0.8581
2788	0.8367
2797	0.8151
2806	0.7892
2815	0.7579
2824	0.7247
2833	0.6752
2842	0.5429
2851	0.3248
2860	0.1201
2869	0.1279
2878	0.1592
2887	0.1592
2896	0.1577
2905	0.128
2914	0.0706
2923	0.0291
2932	0.0089
2941	0.027
2950	0.0604
2959	0.0545
2968	0.0426
2977	0.1027
2986	0.4051
2995	0.5605
3004	0.6725
3013	0.757
3022	0.7839
3031	0.804
3040	0.815
3049	0.8209
3058	0.8253
3067	0.8293
3076	0.8332
3085	0.8384
3094	0.841
3103	0.8419
3112	0.8427
3121	0.8451
3130	0.8575
3139	0.8543
3148	0.8515
3157	0.8495
3166	0.8481
3175	0.8469
3184	0.8469
3193	0.8478
3202	0.8496
3211	0.8515
3220	0.8535
3229	0.8557
3238	0.8583
3247	0.8608
3256	0.8629
3265	0.8639
3274	0.8648
3283	0.8656
3292	0.8662
3301	0.8667
3310	0.8674
3319	0.8677
3328	0.8678
3337	0.8659
3346	0.863
3355	0.8626
3364	0.8627
3373	0.8634
3382	0.8622
3391	0.8607
3400	0.8604
3409	0.8601
3418	0.8609
3427	0.8625
3436	0.8641
3445	0.8657
3454	0.867
3463	0.8682
3472	0.8694
3481	0.8705
3490	0.8721
3499	0.8739
3508	0.8756
3517	0.8768
3526	0.8777
3535	0.8786
3544	0.8794
3553	0.88
3562	0.8806
3571	0.8811
3580	0.8815
3589	0.8818
3598	0.8823
3607	0.8826
3616	0.883
3625	0.8832
3634	0.8834
3643	0.8834
3652	0.8826
3661	0.8822
3670	0.8818
3679	0.8816
3688	0.882
3697	0.8823
3706	0.8841
3715	0.8879
3724	0.8926
3733	0.8949
3742	0.8924
3751	0.8926
3760	0.8937
3769	0.8946
3778	0.8949
3787	0.8943
3796	0.8926
3805	0.8892
3814	0.8858
