Infrared Spectrum: CYCLIZINE HYDROCHLORIDE
Formula: C18 H23 Cl N2
State: SOLID (1 mg / 200 mg KCl DISC) VS KCl
Class: COBLENTZ III
Instrument: PERKIN-ELMER 21 (GRATING)
Instrument parameters: FILTER AT ABOUT 10 MICRONS
Sampling: TRANSMISSION
Path length: 0.055 CM (THICKNESS)
Resolution: 2
1/CM	TRANSMITTANCE
4000	0.6173
3991	0.6181
3982	0.6196
3973	0.621
3964	0.6226
3955	0.6247
3946	0.6277
3937	0.6307
3928	0.6337
3919	0.6368
3910	0.6395
3901	0.6415
3892	0.6434
3883	0.6451
3874	0.6471
3865	0.649
3856	0.651
3847	0.6528
3838	0.6544
3829	0.656
3820	0.6575
3811	0.6591
3802	0.6608
3793	0.6625
3784	0.664
3775	0.6654
3766	0.6665
3757	0.6678
3748	0.6691
3739	0.6704
3730	0.6715
3721	0.6728
3712	0.6741
3703	0.6755
3694	0.6768
3685	0.6782
3676	0.6794
3667	0.6801
3658	0.681
3649	0.6818
3640	0.6832
3631	0.6846
3622	0.6861
3613	0.6875
3604	0.689
3595	0.6905
3586	0.6919
3577	0.6933
3568	0.694
3559	0.6948
3550	0.6955
3541	0.6958
3532	0.6958
3523	0.6958
3514	0.6958
3505	0.696
3496	0.6961
3487	0.6961
3478	0.6962
3469	0.6964
3460	0.6965
3451	0.6967
3442	0.6968
3433	0.6968
3424	0.6968
3415	0.6967
3406	0.6968
3397	0.6968
3388	0.6978
3379	0.6997
3370	0.7018
3361	0.7038
3352	0.7058
3343	0.7078
3334	0.7105
3325	0.7134
3316	0.7162
3307	0.7192
3298	0.7219
3289	0.7247
3280	0.7274
3271	0.7301
3262	0.7328
3253	0.7355
3244	0.738
3235	0.7405
3226	0.7431
3217	0.7456
3208	0.7482
3199	0.7508
3190	0.753
3181	0.755
3172	0.7571
3163	0.7589
3154	0.76
3145	0.7601
3136	0.7603
3127	0.7596
3118	0.7575
3109	0.7548
3100	0.7501
3091	0.7435
3082	0.7336
3073	0.7064
3064	0.6714
3055	0.6586
3046	0.6615
3037	0.6747
3028	0.6884
3019	0.7021
3010	0.7115
3001	0.7118
2992	0.6855
2983	0.654
2974	0.6321
2965	0.6403
2956	0.6538
2947	0.6584
2938	0.6601
2929	0.6606
2920	0.6618
2911	0.6667
2902	0.674
2893	0.6834
2884	0.6958
2875	0.7031
2866	0.7033
2857	0.6594
2848	0.6052
2839	0.5505
2830	0.511
2821	0.5392
2812	0.5901
2803	0.6194
2794	0.6273
2785	0.6408
2776	0.6585
2767	0.6744
2758	0.69
2749	0.7075
2740	0.7215
2731	0.7256
2722	0.73
2713	0.7386
2704	0.7478
2695	0.7495
2686	0.7487
2677	0.7408
2668	0.7367
2659	0.7355
2650	0.7391
2641	0.7442
2632	0.7483
2623	0.7515
2614	0.748
2605	0.7385
2596	0.7253
2587	0.7043
2578	0.6444
2569	0.6157
2560	0.5918
2551	0.5748
2542	0.5747
2533	0.5874
2524	0.6079
2515	0.6109
2506	0.615
2497	0.6395
2488	0.6543
2479	0.6645
2470	0.6614
2461	0.6526
2452	0.6392
2443	0.6192
2434	0.6002
2425	0.5729
2416	0.5441
2407	0.4899
2398	0.4412
2389	0.3922
2380	0.3598
2371	0.348
2362	0.3181
2353	0.2643
2344	0.2424
2335	0.2206
2326	0.1592
2317	0.1587
2308	0.1604
2299	0.1661
2290	0.1863
2281	0.2284
2272	0.2725
2263	0.2999
2254	0.3482
2245	0.4004
2236	0.4419
2227	0.4705
2218	0.4949
2209	0.5195
2200	0.5436
2191	0.5623
2182	0.5777
2173	0.5927
2164	0.6082
2155	0.6227
2146	0.6349
2137	0.6472
2128	0.6597
2119	0.6721
2110	0.685
2101	0.6978
2092	0.7108
2083	0.7244
2074	0.736
2065	0.7468
2056	0.756
2047	0.7643
2038	0.7728
2029	0.7805
2020	0.7887
2011	0.794
2002	0.7935
1993	0.7893
1984	0.7825
1975	0.786
1966	0.8007
1957	0.8111
1948	0.8168
1939	0.8108
1930	0.8022
1921	0.8031
1912	0.81
1903	0.8213
1894	0.8309
1885	0.8374
1876	0.8387
1867	0.8377
1858	0.8301
1849	0.8217
1840	0.8216
1831	0.8388
1822	0.8475
1813	0.8471
1804	0.8423
1795	0.8461
1786	0.8494
1777	0.8557
1768	0.8598
1759	0.8612
1750	0.8602
1741	0.8613
1732	0.8621
1723	0.8615
1714	0.8591
1705	0.8582
1696	0.8597
1687	0.8678
1678	0.864
1669	0.8689
1660	0.8675
1651	0.8638
1642	0.8595
1633	0.8537
1624	0.8471
1615	0.8332
1606	0.7389
1597	0.8301
1588	0.845
1579	0.8545
1570	0.8668
1561	0.8598
1552	0.8561
1543	0.8462
1534	0.8436
1525	0.8486
1516	0.8418
1507	0.5798
1498	0.5278
1489	0.7446
1480	0.572
1471	0.6341
1462	0.443
1453	0.2947
1444	0.5814
1435	0.7358
1426	0.7956
1417	0.7021
1408	0.7435
1399	0.7318
1390	0.7837
1381	0.7785
1372	0.8196
1363	0.793
1354	0.7245
1345	0.7972
1336	0.8428
1327	0.829
1318	0.6981
1309	0.7551
1300	0.8266
1291	0.7339
1282	0.7153
1273	0.7119
1264	0.8366
1255	0.866
1246	0.8704
1237	0.8836
1228	0.8925
1219	0.8974
1210	0.8932
1201	0.8905
1192	0.7538
1183	0.5709
1174	0.7378
1165	0.8392
1156	0.8587
1147	0.8408
1138	0.6835
1129	0.5249
1120	0.7228
1111	0.7561
1102	0.8385
1093	0.8596
1084	0.5632
1075	0.7981
1066	0.8753
1057	0.7875
1048	0.8717
1039	0.7867
1030	0.6434
1021	0.852
1012	0.8785
1003	0.8835
994	0.8258
985	0.3242
976	0.7761
967	0.8835
958	0.9078
949	0.8981
940	0.7356
931	0.8445
922	0.7507
913	0.8875
904	0.9187
895	0.9305
886	0.93
877	0.9254
868	0.9221
859	0.8639
850	0.7358
841	0.9052
832	0.8981
823	0.9298
814	0.94
805	0.9455
796	0.9402
787	0.9204
778	0.9554
769	0.9325
760	0.2972
751	0.4697
742	0.8768
733	0.9168
724	0.8878
715	0.0739
706	0.6549
697	0.7262
688	0.8836
679	0.9075
670	0.9086
661	0.8999
652	0.893
