Infrared Spectrum: 1,1'-BIS (Beta-HYDROXYETHYL) FERROCENE
Formula: C14 H18 Fe O2
State: SOLID (MINERAL OIL MULL)
Melting point: 43-45 C
Class: COBLENTZ
Instrument: Not specified, most likely a prism, grating, or hybrid spectrometer.
Sampling: TRANSMISSION
Resolution: 4
Origin: WYANDOTTE CHEMICALS CORP., WYANDOTTE, MICHIGAN, USA
MICROMETERS	TRANSMITTANCE
2.007	0.699
2.04781	0.697
2.08863	0.715
2.12944	0.72
2.17026	0.72
2.21107	0.721
2.25189	0.728
2.2927	0.73
2.33352	0.735
2.37433	0.757
2.41515	0.755
2.45596	0.755
2.49678	0.757
2.53759	0.773
2.5784	0.764
2.61922	0.79
2.66003	0.807
2.70085	0.812
2.74166	0.808
2.78248	0.781
2.82329	0.709
2.86411	0.641
2.90492	0.547
2.94574	0.435
2.98655	0.32
3.02736	0.235
3.06818	0.211
3.10899	0.215
3.14981	0.255
3.19062	0.298
3.23144	0.331
3.27225	0.436
3.31307	0.401
3.35388	0.184
3.3947	0.136
3.43551	0.175
3.47633	0.201
3.51714	0.382
3.55795	0.566
3.59877	0.633
3.63958	0.658
3.6804	0.675
3.72121	0.699
3.76203	0.708
3.80284	0.73
3.84366	0.747
3.88447	0.771
3.92529	0.786
3.9661	0.802
4.00691	0.8
4.04773	0.849
4.08854	0.808
4.12936	0.807
4.17017	0.843
4.21099	0.836
4.2518	0.831
4.29262	0.841
4.33343	0.846
4.37425	0.873
4.41506	0.87
4.45588	0.889
4.49669	0.861
4.5375	0.875
4.57832	0.872
4.61913	0.899
4.65995	0.892
4.70076	0.89
4.74158	0.911
4.78239	0.899
4.82321	0.902
4.86402	0.89
4.90484	0.899
4.94565	0.897
4.98647	0.904
5.02728	0.918
5.06809	0.916
5.10891	0.919
5.14972	0.93
5.19054	0.933
5.23135	0.936
5.27217	0.941
5.31298	0.938
5.3538	0.941
5.39461	0.948
5.43543	0.938
5.47624	0.941
5.51705	0.94
5.55787	0.935
5.59868	0.926
5.6395	0.899
5.68031	0.88
5.72113	0.854
5.76194	0.849
5.80276	0.841
5.84357	0.839
5.88439	0.822
5.9252	0.803
5.96602	0.803
6.00683	0.796
6.04764	0.788
6.08846	0.82
6.12927	0.81
6.17009	0.849
6.2109	0.89
6.25172	0.885
6.29253	0.861
6.33335	0.865
6.37416	0.865
6.41498	0.839
6.45579	0.824
6.49661	0.831
6.53742	0.819
6.57823	0.796
6.61905	0.752
6.65986	0.67
6.70068	0.566
6.74149	0.452
6.78231	0.358
6.82312	0.337
6.86394	0.407
6.90475	0.426
6.94557	0.484
6.98638	0.546
7.02719	0.563
7.06801	0.592
7.10882	0.609
7.14964	0.598
7.19045	0.595
7.23127	0.535
7.27208	0.534
7.3129	0.59
7.35371	0.626
7.39453	0.629
7.43534	0.629
7.47616	0.67
7.51697	0.689
7.55778	0.726
7.5986	0.752
7.63941	0.747
7.68023	0.715
7.72104	0.653
7.76186	0.638
7.80267	0.656
7.84349	0.655
7.8843	0.694
7.92512	0.735
7.96593	0.779
8.00674	0.798
8.04756	0.754
8.08837	0.672
8.12919	0.65
8.17	0.677
8.21082	0.759
8.25163	0.757
8.29245	0.747
8.33326	0.744
8.37408	0.761
8.41489	0.744
8.45571	0.703
8.49652	0.699
8.53733	0.708
8.57815	0.73
8.61896	0.75
8.65978	0.779
8.70059	0.82
8.74141	0.849
8.78222	0.875
8.82304	0.88
8.86385	0.882
8.90467	0.882
8.94548	0.878
8.9863	0.878
9.02711	0.872
9.06792	0.858
9.10874	0.844
9.14955	0.831
9.19037	0.81
9.23118	0.762
9.272	0.716
9.31281	0.626
9.35363	0.477
9.39444	0.329
9.43526	0.259
9.47607	0.242
9.51688	0.249
9.5577	0.261
9.59851	0.247
9.63933	0.204
9.68014	0.23
9.72096	0.252
9.76177	0.226
9.80259	0.218
9.8434	0.22
9.88422	0.225
9.92503	0.249
9.96585	0.331
10.0067	0.465
10.0475	0.554
10.0883	0.617
10.1291	0.682
10.1699	0.725
10.2107	0.755
10.2515	0.766
10.2924	0.791
10.3332	0.8
10.374	0.808
10.4148	0.812
10.4556	0.817
10.4964	0.82
10.5372	0.841
10.5781	0.846
10.6189	0.844
10.6597	0.843
10.7005	0.848
10.7413	0.831
10.7821	0.774
10.823	0.675
10.8638	0.655
10.9046	0.665
10.9454	0.721
10.9862	0.767
11.027	0.791
11.0678	0.802
11.1087	0.781
11.1495	0.79
11.1903	0.812
11.2311	0.808
11.2719	0.807
11.3127	0.791
11.3535	0.778
11.3944	0.764
11.4352	0.759
11.476	0.754
11.5168	0.703
11.5576	0.631
11.5984	0.581
11.6392	0.583
11.6801	0.588
11.7209	0.595
11.7617	0.61
11.8025	0.616
11.8433	0.633
11.8841	0.65
11.9249	0.622
11.9658	0.566
12.0066	0.52
12.0474	0.525
12.0882	0.537
12.129	0.569
12.1698	0.595
12.2106	0.616
12.2515	0.614
12.2923	0.558
12.3331	0.462
12.3739	0.348
12.4147	0.312
12.4555	0.295
12.4963	0.348
12.5372	0.464
12.578	0.568
12.6188	0.627
12.6596	0.653
12.7004	0.675
12.7412	0.684
12.7821	0.667
12.8229	0.668
12.8637	0.686
12.9045	0.689
12.9453	0.699
12.9861	0.703
13.0269	0.706
13.0678	0.709
13.1086	0.706
13.1494	0.708
13.1902	0.709
13.231	0.704
13.2718	0.704
13.3126	0.703
13.3535	0.708
13.3943	0.704
13.4351	0.701
13.4759	0.697
13.5167	0.694
13.5575	0.686
13.5983	0.684
13.6392	0.677
13.68	0.674
13.7208	0.667
13.7616	0.653
13.8024	0.651
13.8432	0.651
13.884	0.66
13.9249	0.66
13.9657	0.662
14.0065	0.665
14.0473	0.674
14.0881	0.668
14.1289	0.665
14.1697	0.662
14.2106	0.67
14.2514	0.66
14.2922	0.662
14.333	0.653
14.3738	0.658
14.4146	0.656
14.4555	0.651
14.4963	0.65
14.5371	0.651
14.5779	0.65
14.6187	0.65
14.6595	0.646
14.7003	0.636
14.7412	0.634
14.782	0.627
14.8228	0.631
14.8636	0.627
14.9044	0.624
14.9452	0.626
14.986	0.624
15.0269	0.609
15.0677	0.602
15.1085	0.588
15.1493	0.587
15.1901	0.592
15.2309	0.6
15.2717	0.616
15.3126	0.614
15.3534	0.609
15.3942	0.607
15.435	0.612
15.4758	0.605
15.5166	0.604
15.5574	0.602
15.5983	0.602
15.6391	0.605
15.6799	0.6
15.7207	0.604
15.7615	0.597
15.8023	0.6
15.8431	0.593
15.884	0.598
15.9248	0.6
15.9656	0.597
