Infrared Spectrum: Penicillin, 4-pyridylmethyl-, potassium salt
Formula: C15 H16 K N3 O4 S
State: SOLID (OIL MULL)
Class: COBLENTZ III
Instrument: PERKIN-ELMER 21 (GRATING)
Instrument parameters: NaCl PRISM
Sampling: TRANSMISSION
Resolution: 2
Origin: SMITH, KLINE & FRENCH LABS.
1/CM	TRANSMITTANCE
668	0.7242
677	0.7514
686	0.7581
695	0.7507
704	0.7247
713	0.6584
722	0.6619
731	0.6319
740	0.6842
749	0.7104
758	0.5952
767	0.6132
776	0.6391
785	0.7235
794	0.7776
803	0.6535
812	0.7317
821	0.8023
830	0.8237
839	0.8189
848	0.8253
857	0.8028
866	0.7958
875	0.8004
884	0.797
893	0.7642
902	0.8205
911	0.7981
920	0.7936
929	0.788
938	0.7791
947	0.7564
956	0.7607
965	0.7723
974	0.7718
983	0.7743
992	0.7367
1001	0.7643
1010	0.7392
1019	0.7301
1028	0.6848
1037	0.7802
1046	0.7856
1055	0.7756
1064	0.746
1073	0.7398
1082	0.6881
1091	0.6433
1100	0.7236
1109	0.7
1118	0.653
1127	0.6393
1136	0.6804
1145	0.6741
1154	0.6535
1163	0.6357
1172	0.6159
1181	0.7081
1190	0.6939
1199	0.6792
1208	0.6629
1217	0.6536
1226	0.6402
1235	0.5797
1244	0.5689
1253	0.6441
1262	0.6461
1271	0.5676
1280	0.557
1289	0.5418
1298	0.4658
1307	0.3505
1316	0.2537
1325	0.2276
1334	0.2305
1343	0.353
1352	0.4209
1361	0.3429
1370	0.243
1379	0.2315
1388	0.3144
1397	0.3739
1406	0.495
1415	0.4809
1424	0.5355
1433	0.3425
1442	0.2292
1451	0.1283
1460	0.1277
1469	0.2456
1478	0.4992
1487	0.5589
1496	0.5625
1505	0.5666
1514	0.5691
1523	0.5468
1532	0.4709
1541	0.4135
1550	0.3806
1559	0.3934
1568	0.4229
1577	0.4072
1586	0.325
1595	0.2437
1604	0.1521
1613	0.1758
1622	0.257
1631	0.4632
1640	0.5375
1649	0.5299
1658	0.3437
1667	0.2844
1676	0.5138
1685	0.7081
1694	0.7151
1703	0.7264
1712	0.7015
1721	0.6547
1730	0.5578
1739	0.3919
1748	0.2278
1757	0.1645
1766	0.2077
1775	0.3934
1784	0.5799
1793	0.7051
1802	0.7818
1811	0.8533
1820	0.8683
1829	0.8757
1838	0.8854
1847	0.8953
1856	0.9015
1865	0.8962
1874	0.8985
1883	0.9017
1892	0.9004
1901	0.896
1910	0.8899
1919	0.8963
1928	0.901
1937	0.896
1946	0.8944
1955	0.9052
1964	0.9064
1973	0.8977
1982	0.894
1991	0.8908
2000	0.8875
2009	0.8843
2018	0.8814
2027	0.8785
2036	0.8756
2045	0.8728
2054	0.87
2063	0.8666
2072	0.8632
2081	0.8599
2090	0.8582
2099	0.8589
2108	0.8596
2117	0.857
2126	0.8541
2135	0.8509
2144	0.8475
2153	0.8469
2162	0.8466
2171	0.8451
2180	0.8421
2189	0.8366
2198	0.8329
2207	0.832
2216	0.8376
2225	0.8342
2234	0.8251
2243	0.8148
2252	0.8047
2261	0.7982
2270	0.7977
2279	0.8025
2288	0.8098
2297	0.8132
2306	0.8085
2315	0.7997
2324	0.7888
2333	0.7857
2342	0.7882
2351	0.788
2360	0.784
2369	0.7787
2378	0.7769
2387	0.7764
2396	0.7752
2405	0.7735
2414	0.77
2423	0.7654
2432	0.7596
2441	0.7555
2450	0.7519
2459	0.7454
2468	0.7378
2477	0.7296
2486	0.7232
2495	0.7165
2504	0.7099
2513	0.7055
2522	0.7019
2531	0.7007
2540	0.6992
2549	0.6895
2558	0.6732
2567	0.6683
2576	0.6678
2585	0.6607
2594	0.65
2603	0.6449
2612	0.6422
2621	0.6418
2630	0.6413
2639	0.6363
2648	0.6182
2657	0.5962
2666	0.5707
2675	0.5476
2684	0.5241
2693	0.4947
2702	0.4715
2711	0.4543
2720	0.4323
2729	0.3882
2738	0.3456
2747	0.3187
2756	0.2951
2765	0.2714
2774	0.2462
2783	0.2202
2792	0.1916
2801	0.162
2810	0.139
2819	0.122
2828	0.1186
2837	0.1184
2846	0.1204
2855	0.1268
2864	0.1357
2873	0.1458
2882	0.1566
2891	0.1726
2900	0.191
2909	0.2156
2918	0.2432
2927	0.2639
2936	0.2907
2945	0.3087
2954	0.3831
2963	0.4166
2972	0.4532
2981	0.4954
2990	0.518
2999	0.5245
3008	0.5274
3017	0.5295
3026	0.5314
3035	0.5332
3044	0.5355
3053	0.5375
3062	0.5356
3071	0.5333
3080	0.531
3089	0.5312
3098	0.5334
3107	0.5357
3116	0.5401
3125	0.5453
3134	0.5504
3143	0.557
3152	0.5655
3161	0.5748
3170	0.5873
3179	0.5963
3188	0.6045
3197	0.6119
3206	0.6181
3215	0.624
3224	0.6278
3233	0.6312
3242	0.634
3251	0.6359
3260	0.6377
3269	0.6394
3278	0.6413
3287	0.643
3296	0.6449
3305	0.6465
3314	0.6477
3323	0.6487
3332	0.6497
3341	0.6507
3350	0.6514
3359	0.6513
3368	0.6512
3377	0.6505
3386	0.6489
3395	0.6472
3404	0.6457
3413	0.6455
3422	0.6455
3431	0.6457
3440	0.646
3449	0.6463
3458	0.6468
3467	0.6472
3476	0.6477
3485	0.6482
3494	0.6487
3503	0.6491
3512	0.6496
3521	0.6493
3530	0.6489
3539	0.6485
3548	0.6483
3557	0.6482
3566	0.6481
3575	0.648
3584	0.6478
3593	0.6475
3602	0.6472
3611	0.6443
3620	0.641
3629	0.6377
3638	0.6344
3647	0.6311
3656	0.6271
3665	0.623
3674	0.6204
3683	0.6194
3692	0.6188
3701	0.6184
3710	0.6174
3719	0.6083
3728	0.6013
3737	0.5993
3746	0.5985
3755	0.5983
3764	0.5973
3773	0.5953
3782	0.5933
3791	0.5918
3800	0.5907
3809	0.5896
3818	0.5892
3827	0.5892
3836	0.5891
3845	0.589
3854	0.589
3863	0.5889
3872	0.5888
3881	0.5881
3890	0.587
3899	0.586
3908	0.5851
3917	0.5842
3926	0.5834
3935	0.5826
3944	0.5826
3953	0.5828
3962	0.5831
3971	0.5832
3980	0.5836
3989	0.5842
3998	0.5848
