Infrared Spectrum: Phenol, 4-(2-aminopropyl), N-methyl-, hydrogen sulfate
Formula: C20 H32 N2 O6 S
State: SOLID (SPLIT MULL), FLUOROLUBE FOR 3800-1330 CM^-^1, NUJOL FOR 1330-400 CM^-^1
Class: COBLENTZ III
Instrument: DOW KBr FOREPRISM-GRATING
Instrument parameters: BLAZED AT 3.5, 12.0, 20.0 MICRON AND CHANGED AT 5.0, 7.5, 14.9 MICRON
Sampling: TRANSMISSION
Resolution: 2
Origin: DOW CHEMICAL COMPANY
1/CM	TRANSMITTANCE
3800	0.6875
3791	0.6901
3782	0.6935
3773	0.696
3764	0.6984
3755	0.7003
3746	0.7022
3737	0.704
3728	0.7054
3719	0.7067
3710	0.7082
3701	0.7096
3692	0.711
3683	0.7124
3674	0.714
3665	0.7155
3656	0.7171
3647	0.7197
3638	0.7222
3629	0.7251
3620	0.7278
3611	0.7301
3602	0.7321
3593	0.7334
3584	0.7337
3575	0.7315
3566	0.7333
3557	0.7354
3548	0.7375
3539	0.7395
3530	0.7411
3521	0.7425
3512	0.7443
3503	0.7455
3494	0.7465
3485	0.7476
3476	0.7488
3467	0.7495
3458	0.7501
3449	0.7506
3440	0.7508
3431	0.7508
3422	0.7508
3413	0.7501
3404	0.7485
3395	0.7458
3386	0.7426
3377	0.7385
3368	0.7336
3359	0.7278
3350	0.7201
3341	0.7112
3332	0.7032
3323	0.6951
3314	0.6821
3305	0.6665
3296	0.6494
3287	0.6281
3278	0.6115
3269	0.595
3260	0.5799
3251	0.5648
3242	0.5486
3233	0.5254
3224	0.507
3215	0.4883
3206	0.4696
3197	0.4501
3188	0.4292
3179	0.4032
3170	0.3779
3161	0.3507
3152	0.3225
3143	0.3034
3134	0.2843
3125	0.2642
3116	0.248
3107	0.2318
3098	0.2125
3089	0.1932
3080	0.1767
3071	0.1604
3062	0.15
3053	0.1408
3044	0.1292
3035	0.1224
3026	0.1111
3017	0.1006
3008	0.1024
2999	0.1173
2990	0.1404
2981	0.161
2972	0.1703
2963	0.1869
2954	0.1934
2945	0.1953
2936	0.2026
2927	0.2147
2918	0.2296
2909	0.2364
2900	0.2361
2891	0.2131
2882	0.2084
2873	0.2076
2864	0.2068
2855	0.2082
2846	0.2183
2837	0.22
2828	0.2112
2819	0.1894
2810	0.1721
2801	0.1554
2792	0.1449
2783	0.1405
2774	0.138
2765	0.1256
2756	0.1246
2747	0.1283
2738	0.1374
2729	0.1517
2720	0.1775
2711	0.2036
2702	0.2148
2693	0.2233
2684	0.2361
2675	0.2597
2666	0.2925
2657	0.3184
2648	0.3353
2639	0.3495
2630	0.3632
2621	0.3782
2612	0.3898
2603	0.3947
2594	0.3966
2585	0.3994
2576	0.4093
2567	0.4237
2558	0.4385
2549	0.4457
2540	0.4397
2531	0.4127
2522	0.3888
2513	0.36
2504	0.3328
2495	0.3344
2486	0.3564
2477	0.3908
2468	0.434
2459	0.4704
2450	0.5039
2441	0.5439
2432	0.574
2423	0.5976
2414	0.6187
2405	0.638
2396	0.6541
2387	0.6668
2378	0.6737
2369	0.6775
2360	0.6811
2351	0.6848
2342	0.6882
2333	0.6937
2324	0.7011
2315	0.7205
2306	0.7355
2297	0.741
2288	0.7451
2279	0.7501
2270	0.7567
2261	0.7622
2252	0.7681
2243	0.7735
2234	0.7795
2225	0.7871
2216	0.7941
2207	0.7994
2198	0.8037
2189	0.8085
2180	0.8284
2171	0.8217
2162	0.8218
2153	0.8225
2144	0.8234
2135	0.819
2126	0.8176
2117	0.8175
2108	0.8131
2099	0.8112
2090	0.8125
2081	0.8197
2072	0.8267
2063	0.8312
2054	0.8351
2045	0.838
2036	0.8414
2027	0.8456
2018	0.8507
2009	0.8566
2000	0.8581
1991	0.8596
1982	0.8612
1973	0.8632
1964	0.8656
1955	0.8682
1946	0.8693
1937	0.8701
1928	0.8708
1919	0.8718
1910	0.8718
1901	0.8702
1892	0.8557
1883	0.8266
1874	0.8386
1865	0.8541
1856	0.8631
1847	0.8653
1838	0.8654
1829	0.8647
1820	0.8643
1811	0.8653
1802	0.8674
1793	0.8694
1784	0.8707
1775	0.8721
1766	0.8725
1757	0.8723
1748	0.8748
1739	0.8798
1730	0.8811
1721	0.8809
1712	0.8798
1703	0.8734
1694	0.8644
1685	0.8575
1676	0.85
1667	0.8394
1658	0.8246
1649	0.8045
1640	0.764
1631	0.6107
1622	0.4588
1613	0.2727
1604	0.4708
1595	0.3752
1586	0.6024
1577	0.7151
1568	0.7664
1559	0.7861
1550	0.7981
1541	0.8041
1532	0.7234
1523	0.2708
1514	0.219
1505	0.4073
1496	0.3107
1487	0.338
1478	0.3853
1469	0.3709
1460	0.3449
1451	0.3437
1442	0.4262
1433	0.6058
1424	0.6323
1415	0.7015
1406	0.7372
1397	0.739
1388	0.4066
1379	0.4599
1370	0.4415
1361	0.5389
1352	0.6247
1343	0.6421
1334	0.6608
1325	0.7342
1316	0.725
1307	0.7121
1298	0.745
1289	0.6933
1280	0.389
1271	0.2547
1262	0.4787
1253	0.3471
1244	0.1512
1235	0.3076
1226	0.309
1217	0.38
1208	0.4224
1199	0.5686
1190	0.5367
1181	0.6188
1172	0.5962
1163	0.5789
1154	0.4493
1145	0.4112
1136	0.2252
1127	0.0791
1118	0.1245
1109	0.1512
1100	0.1974
1091	0.1138
1082	0.0822
1073	0.0802
1064	0.0976
1055	0.0683
1046	0.0335
1037	0.0588
1028	0.246
1019	0.438
1010	0.3976
1001	0.6355
992	0.7172
983	0.733
974	0.6075
965	0.7549
956	0.7751
947	0.7758
938	0.7818
929	0.7618
920	0.7828
911	0.8032
902	0.796
893	0.7841
884	0.7896
875	0.7918
866	0.7765
857	0.4998
848	0.6551
839	0.5601
830	0.6947
821	0.6093
812	0.3446
803	0.6008
794	0.6567
785	0.6858
776	0.6455
767	0.7211
758	0.7647
749	0.7806
740	0.7888
731	0.7939
722	0.7965
713	0.8017
704	0.8357
695	0.8499
686	0.8586
677	0.8595
668	0.8638
659	0.8648
650	0.8618
641	0.8344
632	0.7585
623	0.4477
614	0.4981
605	0.4344
596	0.7481
587	0.7958
578	0.8118
569	0.8203
560	0.5348
551	0.7049
542	0.8131
533	0.8207
524	0.8232
515	0.7901
506	0.7275
497	0.8228
488	0.8197
479	0.654
470	0.7021
461	0.6301
452	0.7206
443	0.7412
434	0.7628
425	0.7769
416	0.7842
407	0.7871
398	0.7901
389	0.7897
