Infrared Spectrum: N-STEAROYL P-AMINO PHENOL
Formula: C24 H41 O2
State: SOLID (KBr PELLET)
Class: COBLENTZ
Instrument: PERKIN-ELMER
Sampling: TRANSMISSION
Resolution: 4
Origin: US INDUSTRIAL CHEMICALS COMPANY, 1275 SECTION ROAD, CINCINNATI 37, OHIO
1/CM	TRANSMITTANCE
599.871	0.662
607.444	0.665
615.017	0.672
622.589	0.672
630.162	0.668
637.735	0.668
645.308	0.663
652.881	0.66
660.454	0.626
668.026	0.597
675.599	0.547
683.172	0.488
690.745	0.459
698.318	0.481
705.891	0.403
713.463	0.479
721.036	0.625
728.609	0.707
736.182	0.748
743.755	0.768
751.328	0.771
758.9	0.771
766.473	0.76
774.046	0.743
781.619	0.673
789.192	0.69
796.764	0.716
804.337	0.685
811.91	0.555
819.483	0.209
827.056	0.309
834.629	0.6989
842.201	0.782
849.774	0.785
857.347	0.819
864.92	0.832
872.493	0.832
880.066	0.834
887.638	0.834
895.211	0.832
902.784	0.827
910.357	0.822
917.93	0.814
925.503	0.824
933.075	0.815
940.648	0.761
948.221	0.675
955.794	0.712
963.367	0.788
970.939	0.81
978.512	0.812
986.085	0.81
993.658	0.798
1001.23	0.768
1008.8	0.792
1016.38	0.809
1023.95	0.809
1031.52	0.804
1039.09	0.802
1046.67	0.802
1054.24	0.8
1061.81	0.8
1069.39	0.792
1076.96	0.775
1084.53	0.712
1092.1	0.5481
1099.68	0.5839
1107.25	0.768
1114.82	0.777
1122.4	0.78
1129.97	0.78
1137.54	0.771
1145.11	0.76
1152.69	0.717
1160.26	0.648
1167.83	0.641
1175.41	0.606
1182.98	0.646
1190.55	0.623
1198.12	0.631
1205.7	0.569
1213.27	0.474
1220.84	0.403
1228.42	0.32
1235.99	0.185
1243.56	0.192
1251.13	0.31
1258.71	0.535
1266.28	0.603
1273.85	0.65
1281.43	0.648
1289	0.582
1296.57	0.564
1304.14	0.567
1311.72	0.621
1319.29	0.592
1326.86	0.589
1334.44	0.586
1342.01	0.574
1349.58	0.564
1357.15	0.527
1364.73	0.4121
1372.3	0.339
1379.87	0.469
1387.44	0.569
1395.02	0.564
1402.59	0.508
1410.16	0.368
1417.74	0.364
1425.31	0.358
1432.88	0.373
1440.45	0.32
1448.03	0.304
1455.6	0.2311
1463.17	0.2459
1470.75	0.589
1478.32	0.609
1485.89	0.581
1493.46	0.525
1501.04	0.185
1508.61	0.16
1516.18	0.209
1523.76	0.1481
1531.33	0.076
1538.9	0.084
1546.47	0.244
1554.05	0.385
1561.62	0.619
1569.19	0.663
1576.77	0.663
1584.34	0.645
1591.91	0.5401
1599.48	0.356
1607.06	0.427
1614.63	0.466
1622.2	0.44
1629.78	0.305
1637.35	0.081
1644.92	0.076
1652.49	0.179
1660.07	0.572
1667.64	0.7189
1675.21	0.792
1682.79	0.815
1690.36	0.842
1697.93	0.841
1705.5	0.847
1713.08	0.847
1720.65	0.851
1728.22	0.851
1735.79	0.856
1743.37	0.859
1750.94	0.863
1758.51	0.869
1766.09	0.876
1773.66	0.88
1781.23	0.881
1788.8	0.881
1796.38	0.881
1803.95	0.881
1811.52	0.881
1819.1	0.881
1826.67	0.883
1834.24	0.883
1841.81	0.88
1849.39	0.868
1856.96	0.856
1864.53	0.847
1872.11	0.836
1879.68	0.868
1887.25	0.891
1894.82	0.893
1902.4	0.893
1909.97	0.893
1917.54	0.893
1925.12	0.893
1932.69	0.895
1940.26	0.895
1947.83	0.895
1955.41	0.895
1962.98	0.893
1970.55	0.89
1978.13	0.888
1985.7	0.885
1993.27	0.875
2000.84	0.875
2008.42	0.876
2015.99	0.878
2023.56	0.88
2031.14	0.88
2038.71	0.88
2046.28	0.88
2053.85	0.88
2061.43	0.88
2069	0.8805
2076.57	0.8825
2084.14	0.883
2091.72	0.883
2099.29	0.883
2106.86	0.883
2114.44	0.883
2122.01	0.8836
2129.58	0.885
2137.15	0.885
2144.73	0.885
2152.3	0.885
2159.87	0.8839
2167.45	0.883
2175.02	0.883
2182.59	0.883
2190.16	0.883
2197.74	0.883
2205.31	0.883
2212.88	0.883
2220.46	0.883
2228.03	0.883
2235.6	0.883
2243.17	0.883
2250.75	0.883
2258.32	0.883
2265.89	0.881
2273.47	0.881
2281.04	0.881
2288.61	0.881
2296.18	0.88
2303.76	0.88
2311.33	0.88
2318.9	0.88
2326.48	0.88
2334.05	0.88
2341.62	0.88
2349.19	0.88
2356.77	0.878
2364.34	0.878
2371.91	0.876
2379.49	0.876
2387.06	0.875
2394.63	0.875
2402.2	0.8737
2409.78	0.873
2417.35	0.8705
2424.92	0.8672
2432.49	0.864
2440.07	0.863
2447.64	0.8605
2455.21	0.858
2462.79	0.8656
2470.36	0.869
2477.93	0.868
2485.5	0.8671
2493.08	0.866
2500.65	0.8631
2508.22	0.861
2515.8	0.8568
2523.37	0.8516
2530.94	0.851
2538.51	0.8486
2546.09	0.8451
2553.66	0.8426
2561.23	0.8391
2568.81	0.8352
2576.38	0.8301
2583.95	0.8263
2591.52	0.8241
2599.1	0.824
2606.67	0.824
2614.24	0.824
2621.82	0.824
2629.39	0.824
2636.96	0.824
2644.53	0.824
2652.11	0.824
2659.68	0.8215
2667.25	0.8155
2674.83	0.8092
2682.4	0.805
2689.97	0.804
2697.54	0.804
2705.12	0.804
2712.69	0.802
2720.26	0.8
2727.84	0.7975
2735.41	0.7892
2742.98	0.7765
2750.55	0.7566
2758.13	0.7382
2765.7	0.7101
2773.27	0.6815
2780.84	0.6534
2788.42	0.6086
2795.99	0.5716
2803.56	0.46
2811.14	0.0716
2818.71	0.0121
2826.28	0.0515
2833.85	0.1751
2841.43	0.255
2849	0.28
2856.57	0.2007
2864.15	0.1205
2871.72	0.0544
2879.29	0.0054
2886.86	0.0058
2894.44	0.0137
2902.01	0.0319
2909.58	0.1747
2917.16	0.206
2924.73	0.1897
2932.3	0.2024
2939.87	0.4493
2947.45	0.6121
2955.02	0.6807
2962.59	0.7096
2970.17	0.7272
2977.74	0.729
2985.31	0.7273
2992.88	0.7123
3000.46	0.6908
3008.03	0.671
3015.6	0.6597
3023.18	0.6481
3030.75	0.643
3038.32	0.643
3045.89	0.6615
3053.47	0.6822
3061.04	0.6965
3068.61	0.7058
3076.19	0.7053
3083.76	0.6849
3091.33	0.669
3098.9	0.647
3106.48	0.6164
3114.05	0.5765
3121.62	0.567
3129.19	0.565
3136.77	0.5633
3144.34	0.5456
3151.91	0.505
3159.49	0.47
3167.06	0.443
3174.63	0.4186
3182.2	0.396
3189.78	0.3755
3197.35	0.3542
3204.92	0.3315
3212.5	0.304
3220.07	0.2558
3227.64	0.2158
3235.21	0.1849
3242.79	0.1608
3250.36	0.1382
3257.93	0.0751
3265.51	0.0353
3273.08	0.0256
3280.65	0.03
3288.22	0.0739
3295.8	0.1158
3303.37	0.1726
3310.94	0.2441
3318.52	0.2633
3326.09	0.285
3333.66	0.2965
3341.23	0.322
3348.81	0.3527
3356.38	0.3857
3363.95	0.4142
3371.53	0.4254
3379.1	0.4659
3386.67	0.5028
3394.24	0.523
3401.82	0.5421
3409.39	0.5834
3416.96	0.5967
3424.53	0.6169
3432.11	0.6383
3439.68	0.6573
3447.25	0.675
3454.83	0.6926
3462.4	0.7094
3469.97	0.7255
3477.54	0.7388
3485.12	0.7517
3492.69	0.7611
3500.26	0.7682
3507.84	0.7854
3515.41	0.7988
3522.98	0.8104
3530.55	0.822
3538.13	0.829
3545.7	0.8444
3553.27	0.8512
3560.85	0.8597
3568.42	0.8731
3575.99	0.8844
3583.56	0.8905
3591.14	0.8987
