Infrared Spectrum: 3-Azulenesulfonic acid, 1,4-dimethyl-7-isopropyl-, sodium salt, hydrate
Formula: C15 H17 Na O3 S  * H2 O
State: SOLID (KBr DISC)
Class: COBLENTZ III
Instrument: PERKIN-ELMER 21 (GRATING)
Instrument parameters: NaCl PRISM
Sampling: TRANSMISSION
Resolution: 2
Origin: SMITH, KLINE & FRENCH LABS.
1/CM	TRANSMITTANCE
663	0.7167
672	0.7216
681	0.6691
690	0.7354
699	0.7378
708	0.7208
717	0.7282
726	0.7199
735	0.6622
744	0.7063
753	0.6928
762	0.6939
771	0.7048
780	0.7127
789	0.7208
798	0.7081
807	0.6149
816	0.7212
825	0.7505
834	0.7086
843	0.7304
852	0.7512
861	0.7429
870	0.7461
879	0.7274
888	0.6224
897	0.716
906	0.5771
915	0.6916
924	0.7025
933	0.6008
942	0.7209
951	0.7419
960	0.7392
969	0.7262
978	0.7379
987	0.7294
996	0.6941
1005	0.6218
1014	0.599
1023	0.6228
1032	0.5691
1041	0.4787
1050	0.2831
1059	0.2572
1068	0.6076
1077	0.634
1086	0.6865
1095	0.6636
1104	0.6289
1113	0.5409
1122	0.5622
1131	0.5432
1140	0.3787
1149	0.3536
1158	0.3445
1167	0.2459
1176	0.1628
1185	0.0809
1194	0.05
1203	0.1504
1212	0.2385
1221	0.4256
1230	0.5878
1239	0.6908
1248	0.7384
1257	0.7581
1266	0.771
1275	0.7763
1284	0.7602
1293	0.7366
1302	0.7168
1311	0.7318
1320	0.7019
1329	0.6764
1338	0.7017
1347	0.7167
1356	0.5842
1365	0.4445
1374	0.3513
1383	0.402
1392	0.5786
1401	0.6709
1410	0.7092
1419	0.6931
1428	0.6481
1437	0.5981
1446	0.5599
1455	0.5314
1464	0.5073
1473	0.4911
1482	0.6003
1491	0.7265
1500	0.7364
1509	0.6945
1518	0.6307
1527	0.5607
1536	0.5566
1545	0.5342
1554	0.6696
1563	0.7099
1572	0.7271
1581	0.7597
1590	0.7492
1599	0.7374
1608	0.7265
1617	0.7215
1626	0.7227
1635	0.7252
1644	0.7176
1653	0.7233
1662	0.7274
1671	0.7123
1680	0.6906
1689	0.6783
1698	0.7033
1707	0.7371
1716	0.7696
1725	0.7821
1734	0.7868
1743	0.7874
1752	0.7847
1761	0.7824
1770	0.7818
1779	0.7835
1788	0.7911
1797	0.7973
1806	0.7971
1815	0.7943
1824	0.792
1833	0.7903
1842	0.791
1851	0.7921
1860	0.7893
1869	0.7859
1878	0.7841
1887	0.7825
1896	0.7805
1905	0.7757
1914	0.7692
1923	0.766
1932	0.7681
1941	0.7731
1950	0.7781
1959	0.7766
1968	0.773
1977	0.7703
1986	0.7679
1995	0.7661
2004	0.7643
2013	0.7625
2022	0.7612
2031	0.7598
2040	0.7584
2049	0.7575
2058	0.7564
2067	0.7554
2076	0.754
2085	0.7516
2094	0.7492
2103	0.7483
2112	0.7503
2121	0.7515
2130	0.7521
2139	0.7527
2148	0.7525
2157	0.7511
2166	0.7497
2175	0.7488
2184	0.7464
2193	0.7433
2202	0.7405
2211	0.7379
2220	0.7363
2229	0.7352
2238	0.736
2247	0.7375
2256	0.7389
2265	0.7403
2274	0.7415
2283	0.7429
2292	0.7443
2301	0.7413
2310	0.7277
2319	0.7242
2328	0.7257
2337	0.7288
2346	0.7311
2355	0.7332
2364	0.7345
2373	0.7354
2382	0.7356
2391	0.7358
2400	0.7356
2409	0.7344
2418	0.7331
2427	0.7319
2436	0.7305
2445	0.7292
2454	0.728
2463	0.728
2472	0.7284
2481	0.7289
2490	0.7296
2499	0.7294
2508	0.729
2517	0.7275
2526	0.7261
2535	0.7247
2544	0.7233
2553	0.7221
2562	0.7211
2571	0.7201
2580	0.719
2589	0.718
2598	0.717
2607	0.716
2616	0.7149
2625	0.7134
2634	0.7118
2643	0.7103
2652	0.7084
2661	0.7058
2670	0.7032
2679	0.7006
2688	0.6987
2697	0.697
2706	0.6965
2715	0.6961
2724	0.6949
2733	0.6924
2742	0.6889
2751	0.6847
2760	0.6797
2769	0.6746
2778	0.6674
2787	0.6595
2796	0.6497
2805	0.6381
2814	0.6213
2823	0.5908
2832	0.5473
2841	0.5254
2850	0.5256
2859	0.5282
2868	0.5276
2877	0.5161
2886	0.5026
2895	0.4842
2904	0.466
2913	0.448
2922	0.4301
2931	0.4245
2940	0.457
2949	0.5246
2958	0.5919
2967	0.6436
2976	0.6492
2985	0.6509
2994	0.652
3003	0.6552
3012	0.6597
3021	0.6648
3030	0.6668
3039	0.6676
3048	0.6671
3057	0.6665
3066	0.6656
3075	0.6639
3084	0.6612
3093	0.6577
3102	0.6533
3111	0.6483
3120	0.643
3129	0.637
3138	0.6311
3147	0.6253
3156	0.6193
3165	0.6133
3174	0.6072
3183	0.6011
3192	0.595
3201	0.5889
3210	0.5828
3219	0.576
3228	0.5672
3237	0.5585
3246	0.55
3255	0.5414
3264	0.5327
3273	0.5175
3282	0.5026
3291	0.4881
3300	0.4719
3309	0.4528
3318	0.429
3327	0.4018
3336	0.3877
3345	0.3791
3354	0.3721
3363	0.3673
3372	0.3654
3381	0.3655
3390	0.3669
3399	0.3701
3408	0.3762
3417	0.3884
3426	0.4033
3435	0.418
3444	0.4326
3453	0.4472
3462	0.4617
3471	0.4761
3480	0.4905
3489	0.5048
3498	0.519
3507	0.5331
3516	0.5526
3525	0.5707
3534	0.5802
3543	0.5871
3552	0.5941
3561	0.6045
3570	0.6175
3579	0.6266
3588	0.6334
3597	0.6358
3606	0.6382
3615	0.6402
3624	0.641
3633	0.6417
3642	0.6424
3651	0.643
3660	0.6434
3669	0.6438
3678	0.644
3687	0.6443
3696	0.6447
3705	0.6449
3714	0.645
3723	0.6452
3732	0.6453
3741	0.6454
3750	0.6456
3759	0.6454
3768	0.6449
3777	0.6443
3786	0.6438
3795	0.6428
3804	0.6418
3813	0.6408
3822	0.6395
3831	0.6383
3840	0.6371
3849	0.6363
3858	0.6364
3867	0.6364
3876	0.6365
3885	0.6373
3894	0.6381
3903	0.6389
3912	0.6395
3921	0.6399
3930	0.6402
3939	0.6401
3948	0.6387
3957	0.6374
3966	0.6363
3975	0.6354
3984	0.6345
3993	0.6336
