Infrared Spectrum: ETHANETHIOL, 2-(PURIN-8-YL)-
Formula: C7 H8 N4 S
State: SOLID (0.8 mg / 650 mg KBr DISC)
Class: COBLENTZ III
Instrument: PERKIN-ELMER 221 (GRATING)
Instrument parameters: FILTER AT 2490, 980 CM^-^1. GRATING 4000-1428 CM^-^1, NaCl PRISM 1428-650 CM^-^1
Sampling: TRANSMISSION
Resolution: 2
Origin: SOUTHERN RESEARCH INSTITUTE
1/CM	TRANSMITTANCE
652	0.98
659.977	0.9731
667.954	0.9571
675.932	0.9402
683.909	0.9114
691.886	0.8586
699.863	0.9013
707.841	0.8845
715.818	0.8219
723.795	0.7148
731.772	0.7697
739.749	0.7682
747.727	0.7113
755.704	0.2206
763.681	0.2762
771.658	0.4095
779.636	0.6652
787.613	0.8334
795.59	0.8326
803.567	0.82
811.544	0.8004
819.522	0.7765
827.499	0.7338
835.476	0.7118
843.453	0.7174
851.431	0.6663
859.408	0.7002
867.385	0.717
875.362	0.7175
883.339	0.7225
891.317	0.7666
899.294	0.7914
907.271	0.6914
915.248	0.7559
923.226	0.7871
931.203	0.7968
939.18	0.7623
947.157	0.7758
955.134	0.859
963.112	0.849
971.089	0.8387
979.066	0.8317
987.043	0.8212
995.021	0.8005
1003	0.4945
1010.97	0.793
1018.95	0.6741
1026.93	0.297
1034.91	0.5435
1042.88	0.7133
1050.86	0.7881
1058.84	0.8487
1066.82	0.868
1074.79	0.868
1082.77	0.867
1090.75	0.866
1098.72	0.863
1106.7	0.862
1114.68	0.858
1122.66	0.852
1130.63	0.848
1138.61	0.842
1146.59	0.8341
1154.56	0.823
1162.54	0.8153
1170.52	0.783
1178.5	0.812
1186.47	0.8053
1194.45	0.7459
1202.43	0.676
1210.41	0.6826
1218.38	0.717
1226.36	0.3486
1234.34	0.6691
1242.31	0.7453
1250.29	0.6668
1258.27	0.629
1266.25	0.4737
1274.22	0.1909
1282.2	0.5486
1290.18	0.7586
1298.15	0.7786
1306.13	0.795
1314.11	0.7627
1322.09	0.5335
1330.06	0.3907
1338.04	0.7106
1346.02	0.795
1354	0.795
1361.97	0.7881
1369.95	0.7369
1377.93	0.7136
1385.9	0.6819
1393.88	0.5389
1401.86	0.2267
1409.84	0.0626
1417.81	0.3477
1425.79	0.3176
1433.77	0.417
1441.74	0.213
1449.72	0.385
1457.7	0.1805
1465.68	0.522
1473.65	0.7893
1481.63	0.7652
1489.61	0.8244
1497.59	0.8293
1505.56	0.7853
1513.54	0.744
1521.52	0.6226
1529.49	0.5723
1537.47	0.4435
1545.45	0.4826
1553.43	0.7341
1561.4	0.828
1569.38	0.828
1577.36	0.824
1585.33	0.816
1593.31	0.71
1601.29	0.8134
1609.27	0.7722
1617.24	0.6255
1625.22	0.6352
1633.2	0.7587
1641.18	0.7968
1649.15	0.798
1657.13	0.798
1665.11	0.798
1673.08	0.798
1681.06	0.7982
1689.04	0.798
1697.02	0.8018
1704.99	0.8067
1712.97	0.809
1720.95	0.81
1728.92	0.812
1736.9	0.815
1744.88	0.816
1752.86	0.818
1760.83	0.818
1768.81	0.816
1776.79	0.8128
1784.77	0.8019
1792.74	0.791
1800.72	0.7921
1808.7	0.8151
1816.67	0.83
1824.65	0.83
1832.63	0.8329
1840.61	0.8435
1848.58	0.8451
1856.56	0.836
1864.54	0.836
1872.51	0.8316
1880.49	0.831
1888.47	0.8307
1896.45	0.825
1904.42	0.8005
1912.4	0.7995
1920.38	0.8326
1928.36	0.8347
1936.33	0.8228
1944.31	0.8222
1952.29	0.8424
1960.26	0.851
1968.24	0.851
1976.22	0.851
1984.2	0.852
1992.17	0.852
2000.15	0.8479
2008.13	0.8429
2016.1	0.842
2024.08	0.843
2032.06	0.842
2040.04	0.842
2048.01	0.839
2055.99	0.8378
2063.97	0.8349
2071.95	0.832
2079.92	0.83
2087.9	0.8269
2095.88	0.824
2103.85	0.822
2111.83	0.822
2119.81	0.82
2127.79	0.82
2135.76	0.82
2143.74	0.82
2151.72	0.8199
2159.69	0.819
2167.67	0.818
2175.65	0.818
2183.63	0.8178
2191.6	0.816
2199.58	0.815
2207.56	0.814
2215.54	0.812
2223.51	0.811
2231.49	0.809
2239.47	0.807
2247.44	0.806
2255.42	0.8048
2263.4	0.7989
2271.38	0.795
2279.35	0.791
2287.33	0.7899
2295.31	0.7847
2303.28	0.7768
2311.26	0.7709
2319.24	0.7617
2327.22	0.7527
2335.19	0.7489
2343.17	0.746
2351.15	0.7449
2359.13	0.744
2367.1	0.744
2375.08	0.744
2383.06	0.7441
2391.03	0.7418
2399.01	0.7369
2406.99	0.7317
2414.97	0.7237
2422.94	0.7129
2430.92	0.7019
2438.9	0.696
2446.87	0.689
2454.85	0.687
2462.83	0.6871
2470.81	0.688
2478.78	0.688
2486.76	0.6826
2494.74	0.6357
2502.72	0.6229
2510.69	0.614
2518.67	0.615
2526.65	0.611
2534.62	0.6058
2542.6	0.5956
2550.58	0.5826
2558.56	0.5423
2566.53	0.481
2574.51	0.5141
2582.49	0.5229
2590.46	0.513
2598.44	0.503
2606.42	0.5
2614.4	0.4899
2622.37	0.4716
2630.35	0.4517
2638.33	0.4363
2646.31	0.428
2654.28	0.427
2662.26	0.4208
2670.24	0.4148
2678.21	0.4108
2686.19	0.404
2694.17	0.3988
2702.15	0.3879
2710.12	0.3767
2718.1	0.3516
2726.08	0.3316
2734.05	0.323
2742.03	0.322
2750.01	0.3177
2757.99	0.3029
2765.96	0.299
2773.94	0.301
2781.92	0.3093
2789.9	0.3302
2797.87	0.335
2805.85	0.3307
2813.83	0.3117
2821.8	0.2909
2829.78	0.282
2837.76	0.2808
2845.74	0.279
2853.71	0.279
2861.69	0.2819
2869.67	0.2829
2877.64	0.2768
2885.62	0.2688
2893.6	0.2579
2901.58	0.2512
2909.55	0.2632
2917.53	0.2741
2925.51	0.282
2933.49	0.279
2941.46	0.275
2949.44	0.2792
2957.42	0.278
2965.39	0.277
2973.37	0.274
2981.35	0.274
2989.33	0.2741
2997.3	0.2821
3005.28	0.2943
3013.26	0.299
3021.23	0.297
3029.21	0.299
3037.19	0.305
3045.17	0.3048
3053.14	0.303
3061.12	0.3111
3069.1	0.3189
3077.08	0.319
3085.05	0.3199
3093.03	0.3271
3101.01	0.3553
3108.98	0.3752
3116.96	0.4018
3124.94	0.4414
3132.92	0.4624
3140.89	0.4802
3148.87	0.498
3156.85	0.5052
3164.82	0.511
3172.8	0.5177
3180.78	0.5534
3188.76	0.5795
3196.73	0.6064
3204.71	0.6271
3212.69	0.6321
3220.67	0.6456
3228.64	0.6612
3236.62	0.6692
3244.6	0.6772
3252.57	0.6921
3260.55	0.6961
3268.53	0.6998
3276.51	0.702
3284.48	0.704
3292.46	0.704
3300.44	0.704
3308.41	0.702
3316.39	0.7009
3324.37	0.6969
3332.35	0.6899
3340.32	0.6828
3348.3	0.6759
3356.28	0.6708
3364.26	0.661
3372.23	0.6559
3380.21	0.649
3388.19	0.6449
3396.16	0.64
3404.14	0.636
3412.12	0.636
3420.1	0.6372
3428.07	0.6431
3436.05	0.647
3444.03	0.647
3452	0.6481
3459.98	0.651
3467.96	0.652
3475.94	0.653
3483.91	0.653
3491.89	0.653
3499.87	0.6601
3507.85	0.667
3515.82	0.671
3523.8	0.675
3531.78	0.679
3539.75	0.683
3547.73	0.687
3555.71	0.69
3563.69	0.694
3571.66	0.698
3579.64	0.702
3587.62	0.7062
3595.59	0.709
3603.57	0.71
3611.55	0.71
3619.53	0.712
3627.5	0.712
3635.48	0.713
3643.46	0.713
3651.44	0.714
3659.41	0.714
3667.39	0.714
3675.37	0.714
3683.34	0.713
3691.32	0.713
3699.3	0.713
3707.28	0.713
3715.25	0.713
3723.23	0.712
3731.21	0.71
3739.18	0.708
3747.16	0.708
3755.14	0.708
3763.12	0.708
3771.09	0.706
3779.07	0.705
3787.05	0.704
3795.03	0.7019
3803	0.701
