Infrared Spectrum: 4-METHOXYBENZENE DIAZONIUM FLUOROBORATE
Formula: C7 H7 B F4 N2 O
State: SOLID (MINERAL OIL MULL)
Class: COBLENTZ
Instrument: Not specified, most likely a prism, grating, or hybrid spectrometer.
Sampling: TRANSMISSION
Resolution: 4
Origin: DOW CHEMICAL COMPANY
MICROMETERS	TRANSMITTANCE
2.021	0.766
2.06018	0.766
2.09935	0.768
2.13853	0.77
2.1777	0.771
2.21688	0.768
2.25605	0.762
2.29523	0.763
2.3344	0.766
2.37358	0.768
2.41275	0.768
2.45193	0.775
2.49111	0.781
2.53028	0.783
2.56946	0.783
2.60863	0.786
2.64781	0.788
2.68698	0.786
2.72616	0.791
2.76533	0.789
2.80451	0.789
2.84368	0.792
2.88286	0.792
2.92204	0.788
2.96121	0.779
3.00039	0.783
3.03956	0.788
3.07874	0.779
3.11791	0.766
3.15709	0.741
3.19626	0.689
3.23544	0.737
3.27461	0.742
3.31379	0.684
3.35297	0.318
3.39214	0.131
3.43132	0.216
3.47049	0.284
3.50967	0.53
3.54884	0.752
3.58802	0.783
3.62719	0.794
3.66637	0.791
3.70554	0.776
3.74472	0.788
3.7839	0.789
3.82307	0.804
3.86225	0.813
3.90142	0.823
3.9406	0.826
3.97977	0.83
4.01895	0.833
4.05812	0.833
4.0973	0.833
4.13647	0.83
4.17565	0.826
4.21483	0.826
4.254	0.822
4.29318	0.799
4.33235	0.747
4.37153	0.629
4.4107	0.423
4.44988	0.6
4.48905	0.783
4.52823	0.817
4.5674	0.825
4.60658	0.839
4.64576	0.844
4.68493	0.847
4.72411	0.846
4.76328	0.843
4.80246	0.852
4.84163	0.857
4.88081	0.86
4.91998	0.859
4.95916	0.855
4.99833	0.847
5.03751	0.857
5.07669	0.862
5.11586	0.862
5.15504	0.855
5.19421	0.854
5.23339	0.862
5.27256	0.867
5.31174	0.867
5.35091	0.867
5.39009	0.864
5.42926	0.859
5.46844	0.86
5.50762	0.86
5.54679	0.864
5.58597	0.868
5.62514	0.865
5.66432	0.868
5.70349	0.865
5.74267	0.865
5.78184	0.865
5.82102	0.857
5.86019	0.855
5.89937	0.849
5.93855	0.844
5.97772	0.843
6.0169	0.839
6.05607	0.833
6.09525	0.822
6.13442	0.8
6.1736	0.755
6.21277	0.705
6.25195	0.47
6.29112	0.19
6.3303	0.381
6.36948	0.512
6.40865	0.758
6.44783	0.82
6.487	0.836
6.52618	0.849
6.56535	0.83
6.60453	0.807
6.6437	0.699
6.68288	0.587
6.72206	0.666
6.76123	0.619
6.80041	0.512
6.83958	0.498
6.87876	0.508
6.91793	0.555
6.95711	0.789
6.99628	0.823
7.03546	0.838
7.07463	0.843
7.11381	0.838
7.15299	0.815
7.19216	0.733
7.23134	0.647
7.27051	0.684
7.30969	0.739
7.34886	0.757
7.38804	0.648
7.42721	0.587
7.46639	0.768
7.50556	0.765
7.54474	0.744
7.58392	0.642
7.62309	0.566
7.66227	0.443
7.70144	0.257
7.74062	0.349
7.77979	0.64
7.81897	0.75
7.85814	0.802
7.89732	0.836
7.93649	0.855
7.97567	0.862
8.01485	0.865
8.05402	0.865
8.0932	0.865
8.13237	0.864
8.17155	0.86
8.21072	0.857
8.2499	0.834
8.28907	0.779
8.32825	0.741
8.36742	0.768
8.4066	0.775
8.44578	0.789
8.48495	0.809
8.52413	0.818
8.5633	0.805
8.60248	0.792
8.64165	0.778
8.68083	0.76
8.72	0.734
8.75918	0.674
8.79835	0.619
8.83753	0.58
8.87671	0.545
8.91588	0.482
8.95506	0.427
8.99423	0.354
9.03341	0.263
9.07258	0.218
9.11176	0.254
9.15093	0.281
9.19011	0.279
9.22928	0.265
9.26846	0.241
9.30764	0.215
9.34681	0.199
9.38599	0.182
9.42516	0.169
9.46434	0.163
9.50351	0.169
9.54269	0.208
9.58186	0.224
9.62104	0.242
9.66021	0.317
9.69939	0.415
9.73857	0.508
9.77774	0.567
9.81692	0.597
9.85609	0.593
9.89527	0.559
9.93444	0.432
9.97362	0.372
10.0128	0.516
10.052	0.645
10.0911	0.707
10.1303	0.75
10.1695	0.77
10.2087	0.784
10.2478	0.789
10.287	0.775
10.3262	0.76
10.3654	0.779
10.4045	0.771
10.4437	0.768
10.4829	0.81
10.5221	0.83
10.5612	0.836
10.6004	0.841
10.6396	0.843
10.6788	0.843
10.718	0.844
10.7571	0.844
10.7963	0.846
10.8355	0.847
10.8747	0.847
10.9138	0.849
10.953	0.852
10.9922	0.855
11.0314	0.857
11.0705	0.859
11.1097	0.859
11.1489	0.859
11.1881	0.859
11.2272	0.862
11.2664	0.864
11.3056	0.864
11.3448	0.864
11.3839	0.864
11.4231	0.864
11.4623	0.864
11.5015	0.864
11.5406	0.86
11.5798	0.859
11.619	0.852
11.6582	0.839
11.6973	0.809
11.7365	0.739
11.7757	0.608
11.8149	0.436
11.854	0.38
11.8932	0.477
11.9324	0.647
11.9716	0.741
12.0107	0.779
12.0499	0.789
12.0891	0.792
12.1283	0.799
12.1674	0.81
12.2066	0.822
12.2458	0.825
12.285	0.818
12.3241	0.797
12.3633	0.788
12.4025	0.788
12.4417	0.789
12.4808	0.799
12.52	0.812
12.5592	0.82
12.5984	0.826
12.6375	0.828
12.6767	0.83
12.7159	0.833
12.7551	0.836
12.7943	0.838
12.8334	0.838
12.8726	0.839
12.9118	0.839
12.951	0.838
12.9901	0.834
13.0293	0.833
13.0685	0.834
13.1077	0.838
13.1468	0.834
13.186	0.83
13.2252	0.826
13.2644	0.825
13.3035	0.825
13.3427	0.823
13.3819	0.82
13.4211	0.815
13.4602	0.81
13.4994	0.804
13.5386	0.8
13.5778	0.796
13.6169	0.791
13.6561	0.786
13.6953	0.778
13.7345	0.773
13.7736	0.765
13.8128	0.758
13.852	0.754
13.8912	0.757
13.9303	0.758
13.9695	0.762
14.0087	0.76
14.0479	0.757
14.087	0.75
14.1262	0.741
14.1654	0.734
14.2046	0.731
14.2437	0.726
14.2829	0.724
14.3221	0.72
14.3613	0.711
14.4004	0.7
14.4396	0.682
14.4788	0.66
14.518	0.635
14.5571	0.618
14.5963	0.613
14.6355	0.613
14.6747	0.619
14.7138	0.622
14.753	0.622
14.7922	0.621
14.8314	0.614
14.8706	0.605
14.9097	0.597
14.9489	0.593
14.9881	0.592
15.0273	0.585
15.0664	0.576
15.1056	0.567
15.1448	0.563
15.184	0.556
15.2231	0.55
15.2623	0.542
15.3015	0.535
15.3407	0.529
15.3798	0.521
15.419	0.512
15.4582	0.503
15.4974	0.495
15.5365	0.48
15.5757	0.47
15.6149	0.459
15.6541	0.451
15.6932	0.446
15.7324	0.441
15.7716	0.433
15.8108	0.428
15.8499	0.425
15.8891	0.43
