Infrared Spectrum: LEADED ZINC OXIDE
Formula: Zn O
State: SOLID (0.8 mg / 300 mg CsI PELLET)
Class: COBLENTZ
Instrument: Not specified, most likely a grating spectrometer.
Sampling: TRANSMISSION
Resolution: 4
Origin: DESOTO CHEMICAL COATINGS, INC.
1/CM	TRANSMITTANCE
200	0.792
210.635	0.798
221.27	0.796
231.906	0.789
242.541	0.789
253.176	0.781
263.811	0.78
274.446	0.777
285.081	0.773
295.717	0.77
306.352	0.757
316.987	0.745
327.622	0.728
338.257	0.717
348.892	0.708
359.528	0.702
370.163	0.694
380.798	0.678
391.433	0.646
402.068	0.581
412.703	0.486
423.339	0.3721
433.974	0.274
444.609	0.244
455.244	0.226
465.879	0.164
476.514	0.129
487.15	0.141
497.785	0.149
508.42	0.244
519.055	0.381
529.69	0.5799
540.325	0.6939
550.961	0.768
561.596	0.812
572.231	0.84
582.866	0.865
593.501	0.876
604.136	0.857
614.772	0.857
625.407	0.882
636.042	0.91
646.677	0.924
657.312	0.926
667.947	0.928
678.583	0.926
689.218	0.933
699.853	0.944
710.488	0.946
721.123	0.958
731.758	0.962
742.394	0.964
753.029	0.965
763.664	0.968
774.299	0.961
784.934	0.957
795.569	0.952
806.205	0.95
816.84	0.957
827.475	0.958
838.11	0.962
848.745	0.97
859.38	0.969
870.016	0.972
880.651	0.972
891.286	0.97
901.921	0.973
912.556	0.973
923.191	0.974
933.827	0.977
944.462	0.976
955.097	0.976
965.732	0.972
976.367	0.966
987.002	0.962
997.638	0.954
1008.27	0.942
1018.91	0.926
1029.54	0.913
1040.18	0.901
1050.81	0.884
1061.45	0.852
1072.08	0.792
1082.72	0.768
1093.35	0.765
1103.99	0.77
1114.62	0.785
1125.26	0.802
1135.89	0.837
1146.53	0.876
1157.17	0.905
1167.8	0.928
1178.44	0.94
1189.07	0.952
1199.71	0.961
1210.34	0.962
1220.98	0.965
1231.61	0.966
1242.25	0.972
1252.88	0.972
1263.52	0.962
1274.15	0.968
1284.79	0.969
1295.42	0.973
1306.06	0.97
1316.69	0.965
1327.33	0.966
1337.96	0.966
1348.6	0.966
1359.23	0.966
1369.87	0.96
1380.5	0.956
1391.14	0.96
1401.77	0.95
1412.41	0.941
1423.04	0.949
1433.68	0.949
1444.31	0.956
1454.95	0.954
1465.59	0.952
1476.22	0.96
1486.86	0.964
1497.49	0.964
1508.13	0.961
1518.76	0.958
1529.4	0.952
1540.03	0.954
1550.67	0.949
1561.3	0.945
1571.94	0.941
1582.57	0.933
1593.21	0.918
1603.84	0.888
1614.48	0.873
1625.11	0.874
1635.75	0.901
1646.38	0.918
1657.02	0.929
1667.65	0.937
1678.29	0.941
1688.92	0.952
1699.56	0.954
1710.19	0.96
1720.83	0.96
1731.46	0.962
1742.1	0.966
1752.73	0.972
1763.37	0.97
1774	0.97
1784.64	0.97
1795.28	0.973
1805.91	0.973
1816.55	0.973
1827.18	0.97
1837.82	0.974
1848.45	0.972
1859.09	0.974
1869.72	0.976
1880.36	0.969
1890.99	0.974
1901.63	0.97
1912.26	0.968
1922.9	0.97
1933.53	0.972
1944.17	0.969
1954.8	0.966
1965.44	0.964
1976.07	0.968
1986.71	0.969
1997.34	0.968
2007.98	0.965
2018.61	0.962
2029.25	0.961
2039.88	0.962
2050.52	0.962
2061.15	0.962
2071.79	0.962
2082.42	0.961
2093.06	0.964
2103.7	0.9609
2114.33	0.9622
2124.97	0.96
2135.6	0.96
2146.24	0.958
2156.87	0.958
2167.51	0.96
2178.14	0.96
2188.78	0.96
2199.41	0.962
2210.05	0.9595
2220.68	0.9602
2231.32	0.9624
2241.95	0.9608
2252.59	0.961
2263.22	0.9593
2273.86	0.961
2284.49	0.962
2295.13	0.9607
2305.76	0.96
2316.4	0.958
2327.03	0.957
2337.67	0.958
2348.3	0.957
2358.94	0.956
2369.57	0.954
2380.21	0.954
2390.84	0.957
2401.48	0.958
2412.12	0.958
2422.75	0.9593
2433.39	0.9592
2444.02	0.9552
2454.66	0.957
2465.29	0.9576
2475.93	0.9552
2486.56	0.956
2497.2	0.954
2507.83	0.954
2518.47	0.953
2529.1	0.954
2539.74	0.952
2550.37	0.954
2561.01	0.951
2571.64	0.9525
2582.28	0.954
2592.91	0.953
2603.55	0.953
2614.18	0.9485
2624.82	0.9471
2635.45	0.9496
2646.09	0.9509
2656.72	0.95
2667.36	0.948
2677.99	0.949
2688.63	0.95
2699.26	0.9494
2709.9	0.946
2720.53	0.946
2731.17	0.948
2741.81	0.9453
2752.44	0.945
2763.08	0.9457
2773.71	0.9487
2784.35	0.9459
2794.98	0.944
2805.62	0.94
2816.25	0.9417
2826.89	0.941
2837.52	0.9365
2848.16	0.9297
2858.79	0.9185
2869.43	0.92
2880.06	0.922
2890.7	0.9202
2901.33	0.921
2911.97	0.9148
2922.6	0.9064
2933.24	0.9012
2943.87	0.9045
2954.51	0.9103
2965.14	0.9099
2975.78	0.9139
2986.41	0.9218
2997.05	0.926
3007.68	0.929
3018.32	0.926
3028.95	0.9262
3039.59	0.9278
3050.23	0.9281
3060.86	0.9261
3071.5	0.926
3082.13	0.925
3092.77	0.924
3103.4	0.924
3114.04	0.922
3124.67	0.921
3135.31	0.918
3145.94	0.918
3156.58	0.918
3167.21	0.914
3177.85	0.9119
3188.48	0.909
3199.12	0.9079
3209.75	0.902
3220.39	0.9
3231.02	0.897
3241.66	0.893
3252.29	0.889
3262.93	0.889
3273.56	0.8877
3284.2	0.8779
3294.83	0.872
3305.47	0.8654
3316.1	0.8553
3326.74	0.8413
3337.37	0.8298
3348.01	0.8189
3358.65	0.7988
3369.28	0.7812
3379.92	0.7679
3390.55	0.7513
3401.19	0.7368
3411.82	0.723
3422.46	0.7042
3433.09	0.6962
3443.73	0.6887
3454.36	0.686
3465	0.685
3475.63	0.688
3486.27	0.6923
3496.9	0.698
3507.54	0.7067
3518.17	0.7154
3528.81	0.7271
3539.44	0.7379
3550.08	0.7515
3560.71	0.7709
3571.35	0.791
3581.98	0.8036
3592.62	0.8197
3603.25	0.8427
3613.89	0.8593
3624.52	0.8748
3635.16	0.8863
3645.79	0.8954
3656.43	0.9005
3667.06	0.9049
3677.7	0.9095
3688.34	0.912
3698.97	0.912
3709.61	0.913
3720.24	0.912
3730.88	0.914
3741.51	0.913
3752.15	0.913
3762.78	0.914
3773.42	0.9149
3784.05	0.913
3794.69	0.9132
3805.32	0.913
3815.96	0.912
3826.59	0.9108
3837.23	0.91
3847.86	0.91
3858.5	0.913
3869.13	0.9107
3879.77	0.91
3890.4	0.9114
3901.04	0.912
3911.67	0.908
3922.31	0.909
3932.94	0.909
3943.58	0.9065
3954.21	0.9112
3964.85	0.91
3975.48	0.91
3986.12	0.909
