Infrared Spectrum: DESOSAMINE
Formula: C8 H17 O3
State: SOLID (NUJOL MULL)
Class: COBLENTZ
Instrument: Not specified, most likely a grating spectrometer.
Sampling: TRANSMISSION
Resolution: 4
Origin: ABBOTT LABORATORIES
MICROMETERS	TRANSMITTANCE
1.964	0.818
1.99997	0.825
2.03594	0.83
2.07191	0.837
2.10788	0.844
2.14385	0.85
2.17982	0.855
2.2158	0.867
2.25177	0.85
2.28774	0.834
2.32371	0.835
2.35968	0.839
2.39565	0.846
2.43162	0.853
2.46759	0.867
2.50356	0.876
2.53953	0.888
2.5755	0.895
2.61147	0.902
2.64744	0.91
2.68341	0.915
2.71939	0.924
2.75536	0.922
2.79133	0.851
2.8273	0.597
2.86327	0.301
2.89924	0.142
2.93521	0.105
2.97118	0.105
3.00715	0.1
3.04312	0.084
3.07909	0.065
3.11506	0.058
3.15103	0.061
3.18701	0.095
3.22298	0.16
3.25895	0.225
3.29492	0.211
3.33089	0.123
3.36686	0.054
3.40283	0.019
3.4388	0.04
3.47477	0.033
3.51074	0.082
3.54671	0.329
3.58268	0.37
3.61865	0.361
3.65463	0.315
3.6906	0.269
3.72657	0.229
3.76254	0.204
3.79851	0.239
3.83448	0.317
3.87045	0.372
3.90642	0.432
3.94239	0.423
3.97836	0.432
4.01433	0.476
4.0503	0.518
4.08627	0.548
4.12224	0.611
4.15822	0.661
4.19419	0.708
4.23016	0.746
4.26613	0.754
4.3021	0.76
4.33807	0.776
4.37404	0.804
4.41001	0.841
4.44598	0.858
4.48195	0.865
4.51792	0.874
4.55389	0.874
4.58986	0.869
4.62584	0.864
4.66181	0.862
4.69778	0.867
4.73375	0.881
4.76972	0.895
4.80569	0.901
4.84166	0.902
4.87763	0.906
4.9136	0.91
4.94957	0.911
4.98554	0.913
5.02151	0.915
5.05748	0.917
5.09345	0.92
5.12943	0.922
5.1654	0.92
5.20137	0.92
5.23734	0.92
5.27331	0.922
5.30928	0.924
5.34525	0.924
5.38122	0.924
5.41719	0.924
5.45316	0.924
5.48913	0.925
5.5251	0.929
5.56107	0.931
5.59705	0.932
5.63302	0.931
5.66899	0.931
5.70496	0.929
5.74093	0.929
5.7769	0.929
5.81287	0.925
5.84884	0.913
5.88481	0.895
5.92078	0.89
5.95675	0.883
5.99272	0.853
6.02869	0.811
6.06466	0.788
6.10064	0.809
6.13661	0.825
6.17258	0.843
6.20855	0.858
6.24452	0.853
6.28049	0.855
6.31646	0.86
6.35243	0.864
6.3884	0.867
6.42437	0.864
6.46034	0.851
6.49631	0.841
6.53228	0.834
6.56826	0.823
6.60423	0.811
6.6402	0.795
6.67617	0.754
6.71214	0.64
6.74811	0.232
6.78408	0.167
6.82005	0.151
6.85602	0.155
6.89199	0.165
6.92796	0.209
6.96393	0.292
6.9999	0.37
7.03587	0.4
7.07185	0.409
7.10782	0.248
7.14379	0.186
7.17976	0.223
7.21573	0.239
7.2517	0.107
7.28767	0.102
7.32364	0.202
7.35961	0.37
7.39558	0.416
7.43155	0.409
7.46752	0.405
7.50349	0.446
7.53947	0.511
7.57544	0.477
7.61141	0.546
7.64738	0.599
7.68335	0.634
7.71932	0.583
7.75529	0.555
7.79126	0.442
7.82723	0.465
7.8632	0.55
7.89917	0.613
7.93514	0.597
7.97111	0.5
8.00709	0.449
8.04306	0.485
8.07903	0.544
8.115	0.62
8.15097	0.65
8.18694	0.654
8.22291	0.626
8.25888	0.604
8.29485	0.638
8.33082	0.624
8.36679	0.527
8.40276	0.395
8.43873	0.328
8.4747	0.463
8.51068	0.52
8.54665	0.271
8.58262	0.305
8.61859	0.349
8.65456	0.35
8.69053	0.345
8.7265	0.366
8.76247	0.389
8.79844	0.349
8.83441	0.347
8.87038	0.241
8.90635	0.25
8.94232	0.216
8.9783	0.172
9.01427	0.275
9.05024	0.238
9.08621	0.197
9.12218	0.134
9.15815	0.075
9.19412	0.07
9.23009	0.179
9.26606	0.275
9.30203	0.264
9.338	0.178
9.37397	0.132
9.40994	0.112
9.44591	0.088
9.48189	0.058
9.51786	0.022
9.55383	0.014
9.5898	0.024
9.62577	0.024
9.66174	0.026
9.69771	0.068
9.73368	0.148
9.76965	0.128
9.80562	0.098
9.84159	0.114
9.87756	0.126
9.91353	0.142
9.94951	0.225
9.98548	0.255
10.0214	0.137
10.0574	0.186
10.0934	0.292
10.1294	0.435
10.1653	0.507
10.2013	0.539
10.2373	0.553
10.2732	0.513
10.3092	0.465
10.3452	0.509
10.3812	0.601
10.4171	0.622
10.4531	0.624
10.4891	0.511
10.525	0.433
10.561	0.527
10.597	0.599
10.6329	0.571
10.6689	0.446
10.7049	0.405
10.7409	0.559
10.7768	0.654
10.8128	0.701
10.8488	0.73
10.8847	0.738
10.9207	0.726
10.9567	0.717
10.9927	0.737
11.0286	0.761
11.0646	0.774
11.1006	0.777
11.1365	0.776
11.1725	0.758
11.2085	0.719
11.2445	0.599
11.2804	0.578
11.3164	0.647
11.3524	0.703
11.3883	0.753
11.4243	0.756
11.4603	0.747
11.4962	0.693
11.5322	0.562
11.5682	0.389
11.6042	0.389
11.6401	0.386
11.6761	0.298
11.7121	0.439
11.748	0.58
11.784	0.661
11.82	0.705
11.856	0.73
11.8919	0.742
11.9279	0.738
11.9639	0.73
11.9998	0.726
12.0358	0.747
12.0718	0.756
12.1077	0.753
12.1437	0.753
12.1797	0.76
12.2157	0.765
12.2516	0.753
12.2876	0.737
12.3236	0.712
12.3595	0.649
12.3955	0.514
12.4315	0.403
12.4675	0.497
12.5034	0.589
12.5394	0.631
12.5754	0.656
12.6113	0.67
12.6473	0.67
12.6833	0.663
12.7193	0.654
12.7552	0.65
12.7912	0.645
12.8272	0.629
12.8631	0.615
12.8991	0.599
12.9351	0.587
12.971	0.573
13.007	0.555
13.043	0.543
13.079	0.537
13.1149	0.53
13.1509	0.53
13.1869	0.529
13.2228	0.523
13.2588	0.52
13.2948	0.513
13.3308	0.507
13.3667	0.502
13.4027	0.493
13.4387	0.485
13.4746	0.47
13.5106	0.46
13.5466	0.446
13.5826	0.437
13.6185	0.419
13.6545	0.414
13.6905	0.412
13.7264	0.409
13.7624	0.403
13.7984	0.409
13.8343	0.416
13.8703	0.435
13.9063	0.469
13.9423	0.492
13.9782	0.511
14.0142	0.53
14.0502	0.548
14.0861	0.555
14.1221	0.555
14.1581	0.555
14.1941	0.552
14.23	0.544
14.266	0.536
14.302	0.527
14.3379	0.516
14.3739	0.504
14.4099	0.493
14.4458	0.486
14.4818	0.472
14.5178	0.467
14.5538	0.458
14.5897	0.451
14.6257	0.444
14.6617	0.44
14.6976	0.439
14.7336	0.437
14.7696	0.437
14.8056	0.437
14.8415	0.44
14.8775	0.447
14.9135	0.458
14.9494	0.465
14.9854	0.472
15.0214	0.485
15.0574	0.49
15.0933	0.493
15.1293	0.499
15.1653	0.502
15.2012	0.507
15.2372	0.509
15.2732	0.514
15.3091	0.518
15.3451	0.511
15.3811	0.493
15.4171	0.465
15.453	0.426
15.489	0.405
