Infrared Spectrum: BIS(DISALICYLAL)ETHYLENEDIAMINE, ZINC SALT
Formula: C16 H16 N2 O4 Zn
State: SOLID (MINERAL OIL MULL)
Class: COBLENTZ
Instrument: Not specified, most likely a prism, grating, or hybrid spectrometer.
Sampling: TRANSMISSION
Resolution: 4
Origin: WYANDOTTE CHEMICALS CORP., WYANDOTTE, MICHIGAN, USA
MICROMETERS	TRANSMITTANCE
2.012	0.359
2.04929	0.376
2.08657	0.398
2.12386	0.416
2.16114	0.438
2.19843	0.454
2.23571	0.461
2.273	0.474
2.31028	0.488
2.34757	0.505
2.38485	0.524
2.42214	0.53
2.45942	0.536
2.49671	0.545
2.53399	0.556
2.57128	0.583
2.60857	0.6
2.64585	0.612
2.68314	0.628
2.72042	0.629
2.75771	0.636
2.79499	0.629
2.83228	0.608
2.86956	0.59
2.90685	0.573
2.94413	0.55
2.98142	0.524
3.0187	0.483
3.05599	0.424
3.09327	0.354
3.13056	0.306
3.16785	0.245
3.20513	0.195
3.24242	0.157
3.2797	0.115
3.31699	0.083
3.35427	0.049
3.39156	0.031
3.42884	0.026
3.46613	0.027
3.50341	0.029
3.5407	0.076
3.57798	0.152
3.61527	0.195
3.65255	0.234
3.68984	0.261
3.72713	0.304
3.76441	0.348
3.8017	0.354
3.83898	0.415
3.87627	0.452
3.91355	0.483
3.95084	0.511
3.98812	0.531
4.02541	0.561
4.06269	0.581
4.09998	0.609
4.13726	0.611
4.17455	0.632
4.21183	0.651
4.24912	0.657
4.28641	0.65
4.32369	0.679
4.36098	0.715
4.39826	0.755
4.43555	0.78
4.47283	0.785
4.51012	0.799
4.5474	0.804
4.58469	0.821
4.62197	0.83
4.65926	0.847
4.69654	0.869
4.73383	0.892
4.77111	0.903
4.8084	0.912
4.84569	0.923
4.88297	0.931
4.92026	0.937
4.95754	0.948
4.99483	0.95
5.03211	0.953
5.0694	0.958
5.10668	0.968
5.14397	0.968
5.18125	0.964
5.21854	0.917
5.25582	0.948
5.29311	0.934
5.33039	0.97
5.36768	0.967
5.40497	0.965
5.44225	0.97
5.47954	0.968
5.51682	0.93
5.55411	0.912
5.59139	0.905
5.62868	0.85
5.66596	0.864
5.70325	0.852
5.74053	0.802
5.77782	0.74
5.8151	0.696
5.85239	0.626
5.88967	0.575
5.92696	0.421
5.96425	0.315
6.00153	0.129
6.03882	0.031
6.0761	0.027
6.11339	0.034
6.15067	0.169
6.18796	0.22
6.22524	0.062
6.26253	0.298
6.29981	0.396
6.3371	0.433
6.37438	0.454
6.41167	0.379
6.44895	0.138
6.48624	0.155
6.52353	0.337
6.56081	0.427
6.5981	0.595
6.63538	0.657
6.67267	0.608
6.70995	0.494
6.74724	0.149
6.78452	0.026
6.82181	0.065
6.85909	0.027
6.89638	0.024
6.93366	0.049
6.97095	0.231
7.00823	0.457
7.04552	0.538
7.08281	0.505
7.12009	0.3
7.15738	0.097
7.19466	0.111
7.23195	0.289
7.26923	0.337
7.30652	0.508
7.3438	0.598
7.38109	0.541
7.41837	0.191
7.45566	0.032
7.49294	0.085
7.53023	0.295
7.56751	0.279
7.6048	0.113
7.64209	0.046
7.67937	0.041
7.71666	0.136
7.75394	0.267
7.79123	0.447
7.82851	0.584
7.8658	0.65
7.90308	0.67
7.94037	0.604
7.97765	0.572
8.01494	0.503
8.05222	0.586
8.08951	0.662
8.12679	0.642
8.16408	0.617
8.20137	0.597
8.23865	0.628
8.27594	0.53
8.31322	0.479
8.35051	0.245
8.38779	0.051
8.42508	0.197
8.46236	0.474
8.49965	0.646
8.53693	0.729
8.57422	0.76
8.6115	0.682
8.64879	0.206
8.68607	0.167
8.72336	0.548
8.76065	0.665
8.79793	0.653
8.83522	0.273
8.8725	0.189
8.90979	0.553
8.94707	0.679
8.98436	0.707
9.02164	0.687
9.05893	0.629
9.09621	0.469
9.1335	0.486
9.17078	0.639
9.20807	0.674
9.24535	0.656
9.28264	0.622
9.31993	0.66
9.35721	0.681
9.3945	0.681
9.43178	0.6
9.46907	0.331
9.50635	0.346
9.54364	0.567
9.58092	0.654
9.61821	0.584
9.65549	0.23
9.69278	0.376
9.73006	0.622
9.76735	0.687
9.80463	0.71
9.84192	0.721
9.87921	0.729
9.91649	0.737
9.95378	0.738
9.99106	0.741
10.0283	0.744
10.0656	0.715
10.1029	0.465
10.1402	0.475
10.1775	0.623
10.2148	0.578
10.2521	0.59
10.2893	0.609
10.3266	0.612
10.3639	0.639
10.4012	0.639
10.4385	0.604
10.4758	0.57
10.5131	0.51
10.5503	0.401
10.5876	0.242
10.6249	0.248
10.6622	0.312
10.6995	0.326
10.7368	0.349
10.7741	0.393
10.8113	0.446
10.8486	0.489
10.8859	0.525
10.9232	0.545
10.9605	0.57
10.9978	0.553
11.0351	0.435
11.0723	0.153
11.1096	0.066
11.1469	0.195
11.1842	0.398
11.2215	0.496
11.2588	0.567
11.296	0.604
11.3333	0.618
11.3706	0.64
11.4079	0.667
11.4452	0.695
11.4825	0.723
11.5198	0.741
11.557	0.746
11.5943	0.744
11.6316	0.741
11.6689	0.735
11.7062	0.65
11.7435	0.524
11.7808	0.558
11.818	0.709
11.8553	0.737
11.8926	0.707
11.9299	0.724
11.9672	0.757
12.0045	0.768
12.0418	0.774
12.079	0.786
12.1163	0.8
12.1536	0.818
12.1909	0.824
12.2282	0.832
12.2655	0.83
12.3028	0.833
12.34	0.841
12.3773	0.842
12.4146	0.841
12.4519	0.838
12.4892	0.83
12.5265	0.814
12.5637	0.8
12.601	0.757
12.6383	0.678
12.6756	0.548
12.7129	0.446
12.7502	0.455
12.7875	0.477
12.8247	0.524
12.862	0.636
12.8993	0.704
12.9366	0.734
12.9739	0.737
13.0112	0.698
13.0485	0.604
13.0857	0.398
13.123	0.136
13.1603	0.104
13.1976	0.276
13.2349	0.359
13.2722	0.23
13.3095	0.079
13.3467	0.074
13.384	0.239
13.4213	0.461
13.4586	0.503
13.4959	0.393
13.5332	0.181
13.5705	0.099
13.6077	0.262
13.645	0.514
13.6823	0.662
13.7196	0.734
13.7569	0.762
13.7942	0.777
13.8315	0.79
13.8687	0.796
13.906	0.802
13.9433	0.832
13.9806	0.852
14.0179	0.869
14.0552	0.891
14.0924	0.902
14.1297	0.908
14.167	0.908
14.2043	0.908
14.2416	0.909
14.2789	0.917
14.3162	0.92
14.3534	0.928
14.3907	0.925
14.428	0.928
14.4653	0.926
14.5026	0.919
14.5399	0.914
14.5772	0.908
14.6144	0.903
14.6517	0.9
14.689	0.897
14.7263	0.889
14.7636	0.87
14.8009	0.858
14.8382	0.853
14.8754	0.847
14.9127	0.847
14.95	0.849
14.9873	0.825
15.0246	0.754
15.0619	0.712
15.0992	0.707
15.1364	0.734
15.1737	0.751
15.211	0.758
15.2483	0.746
15.2856	0.732
15.3229	0.713
15.3601	0.69
15.3974	0.651
15.4347	0.606
15.472	0.547
15.5093	0.491
15.5466	0.471
15.5839	0.488
15.6211	0.536
15.6584	0.567
15.6957	0.578
15.733	0.578
15.7703	0.578
15.8076	0.578
15.8449	0.573
15.8821	0.573
15.9194	0.57
15.9567	0.558
15.994	0.538
