Infrared Spectrum: 2,4,6-TOLUENETRIAMINE TRIHYDROCHLORIDE
Formula: C7 H11 N3  * 3 H Cl
State: SOLID (MINERAL OIL MULL)
Class: COBLENTZ
Instrument: Not specified, most likely a prism, grating, or hybrid spectrometer.
Sampling: TRANSMISSION
Resolution: 4
Origin: WYANDOTTE CHEMICALS CORP., WYANDOTTE, MICHIGAN, USA
MICROMETERS	TRANSMITTANCE
2.025	0.361
2.06213	0.366
2.09927	0.372
2.1364	0.374
2.17353	0.372
2.21067	0.358
2.2478	0.361
2.28493	0.366
2.32207	0.388
2.3592	0.4
2.39633	0.42
2.43347	0.437
2.4706	0.442
2.50773	0.458
2.54487	0.481
2.582	0.51
2.61913	0.527
2.65627	0.559
2.6934	0.565
2.73053	0.475
2.76767	0.245
2.8048	0.327
2.84193	0.295
2.87907	0.198
2.9162	0.315
2.95333	0.4
2.99047	0.509
3.0276	0.585
3.06473	0.627
3.10186	0.534
3.139	0.34
3.17613	0.181
3.21326	0.183
3.2504	0.125
3.28753	0.079
3.32466	0.027
3.3618	0.013
3.39893	0.009
3.43606	0.012
3.4732	0.015
3.51033	0.018
3.54746	0.02
3.5846	0.026
3.62173	0.031
3.65886	0.032
3.696	0.035
3.73313	0.035
3.77026	0.037
3.8074	0.034
3.84453	0.034
3.88166	0.029
3.9188	0.029
3.95593	0.034
3.99306	0.041
4.0302	0.062
4.06733	0.071
4.10446	0.09
4.1416	0.099
4.17873	0.104
4.21586	0.124
4.253	0.135
4.29013	0.153
4.32726	0.173
4.3644	0.2
4.40153	0.226
4.43866	0.231
4.4758	0.245
4.51293	0.254
4.55006	0.26
4.5872	0.257
4.62433	0.262
4.66146	0.273
4.6986	0.27
4.73573	0.312
4.77286	0.319
4.81	0.316
4.84713	0.318
4.88426	0.322
4.9214	0.274
4.95853	0.17
4.99566	0.124
5.0328	0.173
5.06993	0.226
5.10706	0.268
5.1442	0.268
5.18133	0.282
5.21846	0.301
5.25559	0.338
5.29273	0.352
5.32986	0.372
5.36699	0.385
5.40413	0.395
5.44126	0.392
5.47839	0.411
5.51553	0.422
5.55266	0.431
5.58979	0.437
5.62693	0.445
5.66406	0.453
5.70119	0.428
5.73833	0.478
5.77546	0.489
5.81259	0.509
5.84973	0.501
5.88686	0.531
5.92399	0.521
5.96113	0.515
5.99826	0.527
6.03539	0.489
6.07253	0.422
6.10966	0.198
6.14679	0.265
6.18393	0.364
6.22106	0.173
6.25819	0.088
6.29533	0.09
6.33246	0.15
6.36959	0.18
6.40673	0.204
6.44386	0.254
6.48099	0.347
6.51813	0.324
6.55526	0.153
6.59239	0.108
6.62953	0.051
6.66666	0.031
6.70379	0.048
6.74093	0.046
6.77806	0.023
6.81519	0.02
6.85233	0.029
6.88946	0.048
6.92659	0.114
6.96373	0.201
7.00086	0.281
7.03799	0.326
7.07513	0.34
7.11226	0.341
7.14939	0.274
7.18653	0.186
7.22366	0.079
7.26079	0.086
7.29792	0.178
7.33506	0.299
7.37219	0.338
7.40932	0.352
7.44646	0.371
7.48359	0.394
7.52072	0.413
7.55786	0.42
7.59499	0.425
7.63212	0.4
7.66926	0.434
7.70639	0.453
7.74352	0.468
7.78066	0.482
7.81779	0.498
7.85492	0.489
7.89206	0.492
7.92919	0.521
7.96632	0.526
8.00346	0.534
8.04059	0.537
8.07772	0.509
8.11486	0.534
8.15199	0.551
8.18912	0.546
8.22626	0.562
8.26339	0.566
8.30052	0.577
8.33766	0.586
8.37479	0.58
8.41192	0.591
8.44906	0.586
8.48619	0.583
8.52332	0.568
8.56046	0.572
8.59759	0.563
8.63472	0.548
8.67186	0.548
8.70899	0.538
8.74612	0.555
8.78326	0.577
8.82039	0.568
8.85752	0.498
8.89466	0.329
8.93179	0.291
8.96892	0.307
9.00606	0.211
9.04319	0.105
9.08032	0.145
9.11746	0.268
9.15459	0.26
9.19172	0.288
9.22886	0.368
9.26599	0.439
9.30312	0.468
9.34026	0.458
9.37739	0.444
9.41452	0.478
9.45165	0.503
9.48879	0.507
9.52592	0.487
9.56305	0.425
9.60019	0.364
9.63732	0.369
9.67445	0.425
9.71159	0.481
9.74872	0.523
9.78585	0.548
9.82299	0.577
9.86012	0.586
9.89725	0.59
9.93439	0.604
9.97152	0.607
10.0087	0.613
10.0458	0.613
10.0829	0.621
10.1201	0.619
10.1572	0.611
10.1943	0.59
10.2315	0.571
10.2686	0.59
10.3057	0.597
10.3429	0.608
10.38	0.608
10.4171	0.611
10.4543	0.618
10.4914	0.627
10.5285	0.639
10.5657	0.652
10.6028	0.649
10.6399	0.655
10.6771	0.631
10.7142	0.582
10.7513	0.554
10.7885	0.6
10.8256	0.638
10.8627	0.655
10.8999	0.661
10.937	0.68
10.9741	0.69
11.0113	0.714
11.0484	0.718
11.0855	0.723
11.1227	0.72
11.1598	0.725
11.1969	0.663
11.2341	0.63
11.2712	0.697
11.3083	0.711
11.3455	0.704
11.3826	0.642
11.4197	0.43
11.4569	0.169
11.494	0.423
11.5311	0.562
11.5683	0.624
11.6054	0.663
11.6425	0.687
11.6797	0.701
11.7168	0.701
11.7539	0.728
11.7911	0.723
11.8282	0.729
11.8653	0.739
11.9025	0.743
11.9396	0.756
11.9767	0.763
12.0139	0.768
12.051	0.777
12.0881	0.791
12.1253	0.791
12.1624	0.798
12.1995	0.809
12.2367	0.812
12.2738	0.815
12.3109	0.818
12.3481	0.818
12.3852	0.819
12.4223	0.824
12.4595	0.829
12.4966	0.833
12.5337	0.836
12.5708	0.841
12.608	0.854
12.6451	0.86
12.6822	0.866
12.7194	0.88
12.7565	0.868
12.7936	0.871
12.8308	0.868
12.8679	0.869
12.905	0.849
12.9422	0.854
12.9793	0.854
13.0164	0.852
13.0536	0.84
13.0907	0.79
13.1278	0.748
13.165	0.813
13.2021	0.833
13.2392	0.844
13.2764	0.849
13.3135	0.849
13.3506	0.852
13.3878	0.846
13.4249	0.83
13.462	0.824
13.4992	0.809
13.5363	0.798
13.5734	0.79
13.6106	0.782
13.6477	0.779
13.6848	0.779
13.722	0.779
13.7591	0.777
13.7962	0.768
13.8334	0.756
13.8705	0.754
13.9076	0.771
13.9448	0.816
13.9819	0.84
14.019	0.871
14.0562	0.891
14.0933	0.908
14.1304	0.928
14.1676	0.936
14.2047	0.939
14.2418	0.94
14.279	0.93
14.3161	0.894
14.3532	0.801
14.3904	0.622
14.4275	0.431
14.4646	0.33
14.5018	0.425
14.5389	0.583
14.576	0.684
14.6132	0.754
14.6503	0.801
14.6874	0.815
14.7246	0.832
14.7617	0.838
14.7988	0.833
14.836	0.838
14.8731	0.838
14.9102	0.833
14.9474	0.829
14.9845	0.798
15.0216	0.728
15.0588	0.686
15.0959	0.7
15.133	0.728
15.1702	0.753
15.2073	0.757
15.2444	0.76
15.2816	0.75
15.3187	0.745
15.3558	0.729
15.393	0.723
15.4301	0.694
15.4672	0.689
15.5044	0.684
15.5415	0.669
15.5786	0.661
15.6158	0.649
15.6529	0.635
15.69	0.614
15.7272	0.608
15.7643	0.583
15.8014	0.576
15.8386	0.559
15.8757	0.541
15.9128	0.524
15.95	0.512
15.9871	0.49
