Infrared Spectrum: ASPARTIC ACID, DIPHENYL ESTER, HYDROCHLORIDE
Formula: C16 H16 Cl N O4
State: SOLID (0.8 mg / 650 KBr DISC)
Class: COBLENTZ III
Instrument: PERKIN-ELMER 21 (GRATING)
Instrument parameters: FILTER CHANGE AT ABOUT 1020 CM^-^1.
Sampling: TRANSMISSION
Resolution: 2
Origin: SOUTHERN RESEARCH INSTITUTE
1/CM	TRANSMITTANCE
606.102	0.864
615.474	0.864
624.847	0.861
634.219	0.8573
643.592	0.854
652.964	0.8444
662.336	0.8116
671.709	0.7976
681.081	0.7618
690.454	0.5864
699.826	0.3643
709.198	0.7331
718.571	0.6955
727.943	0.4965
737.316	0.4641
746.688	0.4572
756.06	0.4461
765.433	0.8055
774.805	0.834
784.178	0.8353
793.55	0.8208
802.922	0.7954
812.295	0.7931
821.667	0.81
831.04	0.8198
840.412	0.8298
849.784	0.832
859.157	0.8284
868.529	0.8219
877.901	0.7866
887.274	0.7419
896.646	0.6946
906.019	0.6519
915.391	0.6972
924.763	0.701
934.136	0.6317
943.508	0.6168
952.881	0.6759
962.253	0.7163
971.625	0.72
980.998	0.72
990.37	0.7178
999.743	0.6571
1009.12	0.5812
1018.49	0.533
1027.86	0.5892
1037.23	0.7833
1046.6	0.797
1055.98	0.7864
1065.35	0.7533
1074.72	0.7086
1084.09	0.6154
1093.47	0.4651
1102.84	0.6724
1112.21	0.679
1121.58	0.5673
1130.96	0.4888
1140.33	0.7
1149.7	0.6585
1159.07	0.5348
1168.45	0.5477
1177.82	0.4957
1187.19	0.2938
1196.56	0.2279
1205.94	0.4373
1215.31	0.3753
1224.68	0.2654
1234.05	0.2256
1243.42	0.1408
1252.8	0.1031
1262.17	0.2403
1271.54	0.435
1280.91	0.5803
1290.29	0.6802
1299.66	0.705
1309.03	0.705
1318.4	0.705
1327.78	0.6895
1337.15	0.7437
1346.52	0.7194
1355.89	0.5875
1365.27	0.4226
1374.64	0.6266
1384.01	0.572
1393.38	0.4268
1402.76	0.5718
1412.13	0.6699
1421.5	0.6617
1430.87	0.7194
1440.25	0.7265
1449.62	0.6125
1458.99	0.523
1468.36	0.6572
1477.73	0.5979
1487.11	0.3503
1496.48	0.3033
1505.85	0.6505
1515.22	0.7427
1524.6	0.7803
1533.97	0.7834
1543.34	0.7768
1552.71	0.7466
1562.09	0.7249
1571.46	0.709
1580.83	0.719
1590.2	0.7175
1599.58	0.6609
1608.95	0.7086
1618.32	0.7725
1627.69	0.7774
1637.07	0.784
1646.44	0.785
1655.81	0.782
1665.18	0.7718
1674.56	0.7441
1683.93	0.7253
1693.3	0.6302
1702.67	0.5823
1712.04	0.2994
1721.42	0.118
1730.79	0.1379
1740.16	0.1443
1749.53	0.1076
1758.91	0.4201
1768.28	0.7272
1777.65	0.7932
1787.02	0.8179
1796.4	0.8248
1805.77	0.826
1815.14	0.828
1824.51	0.8376
1833.89	0.842
1843.26	0.844
1852.63	0.845
1862	0.844
1871.38	0.844
1880.75	0.844
1890.12	0.844
1899.49	0.844
1908.87	0.842
1918.24	0.84
1927.61	0.8334
1936.98	0.825
1946.35	0.816
1955.73	0.809
1965.1	0.8
1974.47	0.7898
1983.84	0.7819
1993.22	0.772
2002.59	0.77
2011.96	0.7769
2021.33	0.7916
2030.71	0.8177
2040.08	0.8437
2049.45	0.8519
2058.82	0.8569
2068.2	0.861
2077.57	0.861
2086.94	0.862
2096.31	0.862
2105.69	0.862
2115.06	0.862
2124.43	0.862
2133.8	0.862
2143.18	0.861
2152.55	0.861
2161.92	0.861
2171.29	0.86
2180.66	0.86
2190.04	0.86
2199.41	0.86
2208.78	0.861
2218.15	0.861
2227.53	0.861
2236.9	0.853
2246.27	0.8521
2255.64	0.852
2265.02	0.852
2274.39	0.852
2283.76	0.849
2293.13	0.848
2302.51	0.8421
2311.88	0.838
2321.25	0.837
2330.62	0.836
2340	0.836
2349.37	0.836
2358.74	0.836
2368.11	0.836
2377.48	0.8341
2386.86	0.833
2396.23	0.8291
2405.6	0.8221
2414.97	0.808
2424.35	0.794
2433.72	0.7881
2443.09	0.784
2452.46	0.777
2461.84	0.772
2471.21	0.7582
2480.58	0.7431
2489.95	0.7391
2499.33	0.737
2508.7	0.7311
2518.07	0.725
2527.44	0.7131
2536.82	0.6973
2546.19	0.6604
2555.56	0.6354
2564.93	0.6202
2574.31	0.6151
2583.68	0.612
2593.05	0.611
2602.42	0.6239
2611.79	0.625
2621.17	0.6161
2630.54	0.6014
2639.91	0.5831
2649.28	0.5711
2658.66	0.5641
2668.03	0.5571
2677.4	0.5511
2686.77	0.5431
2696.15	0.5311
2705.52	0.5211
2714.89	0.52
2724.26	0.5151
2733.64	0.5031
2743.01	0.492
2752.38	0.4752
2761.75	0.4621
2771.13	0.4421
2780.5	0.4162
2789.87	0.3882
2799.24	0.3701
2808.62	0.3485
2817.99	0.3152
2827.36	0.2954
2836.73	0.2712
2846.1	0.2433
2855.48	0.2342
2864.85	0.229
2874.22	0.229
2883.59	0.229
2892.97	0.229
2902.34	0.229
2911.71	0.2291
2921.08	0.229
2930.46	0.229
2939.83	0.229
2949.2	0.2309
2958.57	0.2339
2967.95	0.2379
2977.32	0.2469
2986.69	0.2549
2996.06	0.2657
3005.44	0.2839
3014.81	0.2978
3024.18	0.312
3033.55	0.3347
3042.93	0.3547
3052.3	0.3948
3061.67	0.4267
3071.04	0.4639
3080.41	0.4789
3089.79	0.5108
3099.16	0.5477
3108.53	0.5687
3117.9	0.5878
3127.28	0.6009
3136.65	0.6305
3146.02	0.6586
3155.39	0.6719
3164.77	0.683
3174.14	0.695
3183.51	0.705
3192.88	0.715
3202.26	0.719
3211.63	0.725
3221	0.732
3230.37	0.7369
3239.75	0.7389
3249.12	0.74
3258.49	0.74
3267.86	0.74
3277.24	0.74
3286.61	0.74
3295.98	0.74
3305.35	0.74
3314.72	0.7371
3324.1	0.7321
3333.47	0.7251
3342.84	0.7201
3352.21	0.716
3361.59	0.7111
3370.96	0.7001
3380.33	0.6911
3389.7	0.6811
3399.08	0.6722
3408.45	0.6681
3417.82	0.665
3427.19	0.664
3436.57	0.665
3445.94	0.6689
3455.31	0.673
3464.68	0.673
3474.06	0.6799
3483.43	0.6879
3492.8	0.6969
3502.17	0.7009
3511.54	0.7069
3520.92	0.709
3530.29	0.715
3539.66	0.7228
3549.03	0.7318
3558.41	0.7399
3567.78	0.7439
3577.15	0.7579
3586.52	0.7719
3595.9	0.7849
3605.27	0.8037
3614.64	0.813
3624.01	0.8179
3633.39	0.824
3642.76	0.828
3652.13	0.829
3661.5	0.83
3670.88	0.832
3680.25	0.833
3689.62	0.834
3698.99	0.834
3708.37	0.834
3717.74	0.834
3727.11	0.834
3736.48	0.834
3745.85	0.834
3755.23	0.834
3764.6	0.834
3773.97	0.834
3783.34	0.834
3792.72	0.833
3802.09	0.833
3811.46	0.833
3820.83	0.833
3830.21	0.833
3839.58	0.833
3848.95	0.832
3858.32	0.83
3867.7	0.83
3877.07	0.8319
3886.44	0.832
3895.81	0.832
3905.19	0.832
3914.56	0.832
3923.93	0.832
3933.3	0.83
3942.68	0.832
3952.05	0.83
3961.42	0.83
3970.79	0.83
3980.16	0.828
3989.54	0.825
3998.91	0.8201
4008.28	0.8121
4017.65	0.8088
