Infrared Spectrum: 9H-IMIDAZO[2,1-i]PURINE, 9-ETHYL-7,8-DIHYDRO-, HYDROCHLORIDE
Formula: C9 H12 Cl N5
State: SOLID (1.0 mg / 650 mg KBr DISC)
Class: COBLENTZ III
Instrument: PERKIN-ELMER 21 (GRATING)
Instrument parameters: FILTER CHANGE ABOUT 980 CM^-^1
Sampling: TRANSMISSION
Resolution: 4
Origin: SOUTHERN RESEARCH INSTITUTE
1/CM	TRANSMITTANCE
647.121	0.915
655.718	0.915
664.314	0.917
672.911	0.9008
681.507	0.8014
690.104	0.8904
698.7	0.9316
707.297	0.928
715.893	0.923
724.49	0.9182
733.086	0.9064
741.683	0.892
750.279	0.8734
758.876	0.8159
767.472	0.5482
776.069	0.8219
784.665	0.7443
793.262	0.6282
801.858	0.7481
810.455	0.8124
819.051	0.8127
827.648	0.8024
836.244	0.7823
844.841	0.7581
853.437	0.7122
862.034	0.6058
870.63	0.3907
879.227	0.623
887.823	0.716
896.42	0.7551
905.016	0.6189
913.613	0.373
922.209	0.6365
930.806	0.7248
939.402	0.6232
947.999	0.7528
956.595	0.8254
965.192	0.7117
973.788	0.8043
982.385	0.84
990.981	0.8493
999.578	0.919
1008.17	0.9137
1016.77	0.905
1025.37	0.901
1033.96	0.8902
1042.56	0.8655
1051.16	0.8706
1059.75	0.8682
1068.35	0.8476
1076.95	0.7636
1085.54	0.8058
1094.14	0.7662
1102.74	0.5536
1111.33	0.5156
1119.93	0.7635
1128.53	0.8396
1137.12	0.8088
1145.72	0.6689
1154.31	0.7152
1162.91	0.8404
1171.51	0.845
1180.1	0.8356
1188.7	0.8233
1197.3	0.8006
1205.89	0.7696
1214.49	0.7685
1223.09	0.7221
1231.68	0.5339
1240.28	0.4009
1248.88	0.7499
1257.47	0.7798
1266.07	0.6753
1274.67	0.5428
1283.26	0.56
1291.86	0.4178
1300.46	0.4183
1309.05	0.5607
1317.65	0.6125
1326.24	0.6622
1334.84	0.5979
1343.44	0.3736
1352.03	0.6463
1360.63	0.6241
1369.23	0.5003
1377.82	0.694
1386.42	0.7061
1395.02	0.7329
1403.61	0.4542
1412.21	0.5864
1420.81	0.4631
1429.4	0.6327
1438	0.7284
1446.6	0.6413
1455.19	0.5771
1463.79	0.6334
1472.39	0.7776
1480.98	0.7697
1489.58	0.573
1498.17	0.6859
1506.77	0.8365
1515.37	0.8376
1523.96	0.8259
1532.56	0.8149
1541.16	0.7842
1549.75	0.7573
1558.35	0.6623
1566.95	0.4715
1575.54	0.1176
1584.14	0.632
1592.74	0.7696
1601.33	0.7595
1609.93	0.743
1618.53	0.706
1627.12	0.6637
1635.72	0.6212
1644.32	0.5752
1652.91	0.4748
1661.51	0.3653
1670.1	0.1835
1678.7	0.0089
1687.3	0
1695.89	0.0173
1704.49	0.2067
1713.09	0.4358
1721.68	0.5129
1730.28	0.5095
1738.88	0.5486
1747.47	0.6762
1756.07	0.747
1764.67	0.7572
1773.26	0.7764
1781.86	0.782
1790.46	0.7931
1799.05	0.8359
1807.65	0.8708
1816.25	0.8924
1824.84	0.9025
1833.44	0.9047
1842.03	0.9054
1850.63	0.906
1859.23	0.905
1867.82	0.9046
1876.42	0.904
1885.02	0.9025
1893.61	0.8948
1902.21	0.888
1910.81	0.8819
1919.4	0.873
1928	0.863
1936.6	0.861
1945.19	0.8618
1953.79	0.8778
1962.39	0.8987
1970.98	0.903
1979.58	0.905
1988.18	0.9045
1996.77	0.905
2005.37	0.905
2013.97	0.9053
2022.56	0.904
2031.16	0.903
2039.75	0.904
2048.35	0.9044
2056.95	0.9006
2065.54	0.896
2074.14	0.8936
2082.74	0.8936
2091.33	0.892
2099.93	0.8886
2108.53	0.887
2117.12	0.88
2125.72	0.8764
2134.32	0.8716
2142.91	0.869
2151.51	0.869
2160.11	0.8703
2168.7	0.872
2177.3	0.8686
2185.9	0.858
2194.49	0.8526
2203.09	0.846
2211.68	0.844
2220.28	0.844
2228.88	0.846
2237.47	0.847
2246.07	0.8456
2254.67	0.842
2263.26	0.842
2271.86	0.8369
2280.46	0.8336
2289.05	0.829
2297.65	0.8273
2306.25	0.8126
2314.84	0.8006
2323.44	0.7835
2332.04	0.7606
2340.63	0.7493
2349.23	0.7403
2357.83	0.7266
2366.42	0.721
2375.02	0.7183
2383.61	0.711
2392.21	0.7053
2400.81	0.6996
2409.4	0.693
2418	0.6736
2426.6	0.66
2435.19	0.652
2443.79	0.6323
2452.39	0.5926
2460.98	0.5746
2469.58	0.5572
2478.18	0.5299
2486.77	0.5139
2495.37	0.4718
2503.97	0.4206
2512.56	0.3606
2521.16	0.3637
2529.76	0.4343
2538.35	0.473
2546.95	0.4726
2555.54	0.4463
2564.14	0.4186
2572.74	0.3716
2581.33	0.3436
2589.93	0.3172
2598.53	0.2668
2607.12	0.2243
2615.72	0.1906
2624.32	0.1742
2632.91	0.166
2641.51	0.1808
2650.11	0.2191
2658.7	0.2805
2667.3	0.2846
2675.9	0.276
2684.49	0.2824
2693.09	0.293
2701.69	0.2766
2710.28	0.276
2718.88	0.2827
2727.47	0.3081
2736.07	0.3181
2744.67	0.3555
2753.26	0.4177
2761.86	0.428
2770.46	0.425
2779.05	0.4384
2787.65	0.442
2796.25	0.4444
2804.84	0.4537
2813.44	0.4989
2822.04	0.5687
2830.63	0.5889
2839.23	0.5542
2847.83	0.4335
2856.42	0.3402
2865.02	0.3213
2873.62	0.3224
2882.21	0.3419
2890.81	0.3751
2899.4	0.4177
2908	0.4664
2916.6	0.467
2925.19	0.465
2933.79	0.4667
2942.39	0.5131
2950.98	0.522
2959.58	0.4612
2968.18	0.3466
2976.77	0.377
2985.37	0.426
2993.97	0.44
3002.56	0.5199
3011.16	0.534
3019.76	0.5408
3028.35	0.586
3036.95	0.6424
3045.55	0.6664
3054.14	0.6751
3062.74	0.7107
3071.33	0.738
3079.93	0.739
3088.53	0.7376
3097.12	0.7145
3105.72	0.637
3114.32	0.5572
3122.91	0.7364
3131.51	0.7734
3140.11	0.7937
3148.7	0.8151
3157.3	0.8337
3165.9	0.8427
3174.49	0.845
3183.09	0.846
3191.69	0.846
3200.28	0.845
3208.88	0.846
3217.48	0.8406
3226.07	0.8373
3234.67	0.835
3243.26	0.835
3251.86	0.835
3260.46	0.836
3269.05	0.836
3277.65	0.836
3286.25	0.836
3294.84	0.8336
3303.44	0.8286
3312.04	0.8286
3320.63	0.8196
3329.23	0.8109
3337.83	0.808
3346.42	0.7976
3355.02	0.7839
3363.62	0.7735
3372.21	0.7656
3380.81	0.753
3389.41	0.749
3398	0.7423
3406.6	0.741
3415.2	0.739
3423.79	0.738
3432.39	0.7397
3440.98	0.742
3449.58	0.744
3458.18	0.7484
3466.77	0.753
3475.37	0.7534
3483.97	0.7598
3492.56	0.771
3501.16	0.774
3509.76	0.7794
3518.35	0.784
3526.95	0.786
3535.55	0.7887
3544.14	0.795
3552.74	0.8014
3561.34	0.8114
3569.93	0.8134
3578.53	0.8254
3587.13	0.829
3595.72	0.8404
3604.32	0.846
3612.91	0.855
3621.51	0.862
3630.11	0.869
3638.7	0.871
3647.3	0.873
3655.9	0.8734
3664.49	0.874
3673.09	0.874
3681.69	0.874
3690.28	0.874
3698.88	0.876
3707.48	0.8764
3716.07	0.8753
3724.67	0.874
3733.27	0.873
3741.86	0.872
3750.46	0.873
3759.06	0.874
3767.65	0.874
3776.25	0.8726
3784.84	0.871
3793.44	0.869
3802.04	0.867
