Infrared Spectrum: ISOBUTYRIC ACID, Alpha-CHLORO-2,4-DICHLORO PHENYL ESTER
Formula: C10 H9 Cl3 O2
State: SOLUTION (10% CCl4 FOR 5000-1330, 10% CS2 FOR 1330-625 CM^-^1)
Class: COBLENTZ
Instrument: Not specified, most likely a prism, grating, or hybrid spectrometer.
Sampling: TRANSMISSION
Path length: 0.0120 CM, 0.0115 CM
Resolution: 4
Origin: DOW CHEMICAL COMPANY
MICROMETERS	TRANSMITTANCE
2.062	0.902
2.1031	0.902
2.14419	0.899
2.18529	0.902
2.22638	0.897
2.26748	0.895
2.30857	0.897
2.34967	0.9
2.39076	0.899
2.43186	0.897
2.47296	0.9
2.51405	0.902
2.55515	0.905
2.59624	0.911
2.63734	0.911
2.67843	0.909
2.71953	0.904
2.76062	0.9
2.80172	0.866
2.84281	0.851
2.88391	0.873
2.92501	0.87
2.9661	0.868
3.0072	0.875
3.04829	0.88
3.08939	0.88
3.13048	0.88
3.17158	0.88
3.21267	0.863
3.25377	0.861
3.29487	0.866
3.33596	0.729
3.37706	0.822
3.41815	0.817
3.45925	0.882
3.50034	0.883
3.54144	0.902
3.58253	0.907
3.62363	0.912
3.66473	0.909
3.70582	0.909
3.74692	0.912
3.78801	0.914
3.82911	0.917
3.8702	0.917
3.9113	0.912
3.95239	0.912
3.99349	0.914
4.03459	0.917
4.07568	0.905
4.11678	0.911
4.15787	0.911
4.19897	0.892
4.24006	0.9
4.28116	0.9
4.32225	0.895
4.36335	0.897
4.40444	0.904
4.44554	0.905
4.48664	0.909
4.52773	0.912
4.56883	0.914
4.60992	0.917
4.65102	0.919
4.69211	0.912
4.73321	0.912
4.7743	0.911
4.8154	0.907
4.8565	0.904
4.89759	0.912
4.93869	0.911
4.97978	0.902
5.02088	0.899
5.06197	0.897
5.10307	0.899
5.14416	0.904
5.18526	0.905
5.22636	0.905
5.26745	0.897
5.30855	0.878
5.34964	0.882
5.39074	0.928
5.43183	0.88
5.47293	0.863
5.51402	0.8
5.55512	0.682
5.59621	0.37
5.63731	0.211
5.67841	0.167
5.7195	0.499
5.7606	0.717
5.80169	0.791
5.84279	0.823
5.88388	0.847
5.92498	0.873
5.96607	0.876
6.00717	0.878
6.04827	0.868
6.08936	0.822
6.13046	0.817
6.17155	0.818
6.21265	0.758
6.25374	0.661
6.29484	0.476
6.33593	0.463
6.37703	0.55
6.41813	0.526
6.45922	0.488
6.50032	0.523
6.54141	0.6
6.58251	0.63
6.6236	0.647
6.6647	0.63
6.70579	0.581
6.74689	0.312
6.78799	0.145
6.82908	0.256
6.87018	0.4
6.91127	0.6
6.95237	0.659
6.99346	0.668
7.03456	0.716
7.07565	0.767
7.11675	0.767
7.15784	0.671
7.19894	0.437
7.24004	0.625
7.28113	0.646
7.32223	0.791
7.36332	0.858
7.40442	0.864
7.44551	0.868
7.48661	0.863
7.5277	0.856
7.5688	0.834
7.6099	0.844
7.65099	0.842
7.69209	0.798
7.73318	0.76
7.77428	0.707
7.81537	0.641
7.85647	0.57
7.89756	0.394
7.93866	0.305
7.97976	0.264
8.02085	0.165
8.06195	0.401
8.10304	0.406
8.14414	0.254
8.18523	0.112
8.22633	0.186
8.26742	0.461
8.30852	0.564
8.34961	0.581
8.39071	0.613
8.43181	0.659
8.4729	0.726
8.514	0.767
8.55509	0.767
8.59619	0.724
8.63728	0.663
8.67838	0.54
8.71947	0.329
8.76057	0.135
8.80167	0.094
8.84276	0.107
8.88386	0.249
8.92495	0.347
8.96605	0.295
9.00714	0.119
9.04824	0.059
9.08933	0.066
9.13043	0.046
9.17153	0.03
9.21262	0.099
9.25372	0.191
9.29481	0.23
9.33591	0.263
9.377	0.442
9.4181	0.54
9.45919	0.437
9.50029	0.569
9.54139	0.753
9.58248	0.798
9.62358	0.835
9.66467	0.854
9.70577	0.868
9.74686	0.875
9.78796	0.882
9.82905	0.878
9.87015	0.758
9.91124	0.699
9.95234	0.829
9.99344	0.88
10.0345	0.9
10.0756	0.907
10.1167	0.911
10.1578	0.912
10.1989	0.914
10.24	0.914
10.2811	0.919
10.3222	0.917
10.3633	0.916
10.4044	0.904
10.4455	0.894
10.4866	0.87
10.5277	0.822
10.5688	0.736
10.6099	0.692
10.651	0.745
10.6921	0.729
10.7332	0.68
10.7743	0.743
10.8153	0.829
10.8564	0.856
10.8975	0.87
10.9386	0.882
10.9797	0.883
11.0208	0.883
11.0619	0.883
11.103	0.88
11.1441	0.87
11.1852	0.858
11.2263	0.841
11.2674	0.805
11.3085	0.762
11.3496	0.687
11.3907	0.577
11.4318	0.393
11.4729	0.295
11.514	0.273
11.5551	0.278
11.5962	0.384
11.6373	0.482
11.6784	0.459
11.7194	0.439
11.7605	0.529
11.8016	0.637
11.8427	0.731
11.8838	0.779
11.9249	0.811
11.966	0.823
12.0071	0.83
12.0482	0.834
12.0893	0.834
12.1304	0.832
12.1715	0.822
12.2126	0.796
12.2537	0.755
12.2948	0.707
12.3359	0.656
12.377	0.531
12.4181	0.379
12.4592	0.394
12.5003	0.579
12.5414	0.709
12.5825	0.752
12.6235	0.777
12.6646	0.789
12.7057	0.798
12.7468	0.806
12.7879	0.813
12.829	0.813
12.8701	0.801
12.9112	0.755
12.9523	0.707
12.9934	0.7
13.0345	0.683
13.0756	0.635
13.1167	0.569
13.1578	0.502
13.1989	0.468
13.24	0.476
13.2811	0.526
13.3222	0.541
13.3633	0.505
13.4044	0.459
13.4455	0.464
13.4866	0.5
13.5277	0.567
13.5687	0.625
13.6098	0.683
13.6509	0.709
13.692	0.719
13.7331	0.721
13.7742	0.707
13.8153	0.695
13.8564	0.697
13.8975	0.711
13.9386	0.719
13.9797	0.719
14.0208	0.711
14.0619	0.699
14.103	0.687
14.1441	0.671
14.1852	0.656
14.2263	0.629
14.2674	0.605
14.3085	0.593
14.3496	0.593
14.3907	0.603
14.4318	0.62
14.4728	0.627
14.5139	0.622
14.555	0.608
14.5961	0.589
14.6372	0.562
14.6783	0.536
14.7194	0.509
14.7605	0.482
14.8016	0.458
14.8427	0.442
14.8838	0.437
14.9249	0.444
14.966	0.461
15.0071	0.49
15.0482	0.497
15.0893	0.497
15.1304	0.497
15.1715	0.492
15.2126	0.485
15.2537	0.47
15.2948	0.459
15.3359	0.446
15.3769	0.437
15.418	0.434
15.4591	0.43
15.5002	0.429
15.5413	0.427
15.5824	0.425
15.6235	0.425
15.6646	0.425
15.7057	0.429
15.7468	0.434
15.7879	0.439
15.829	0.442
