Infrared Spectrum: ETHANOL, 2-[(6-AMINO-9H-PURIN-2-YL)THIO]-
Formula: C7 H9 N5 O S
State: SOLID (0.9 mg / 650 mg KBr DISC)
Class: COBLENTZ III
Instrument: PERKIN-ELMER 21 (GRATING)
Instrument parameters: FILTER CHANGE ABOUT 1020 CM^-^1
Sampling: TRANSMISSION
Resolution: 2
Origin: SOUTHERN RESEARCH INSTITUTE
1/CM	TRANSMITTANCE
603.54	0.5208
612.594	0.5275
621.648	0.5343
630.703	0.5393
639.757	0.5485
648.811	0.5617
657.865	0.5581
666.919	0.542
675.974	0.4896
685.028	0.5475
694.082	0.5956
703.136	0.6068
712.19	0.6113
721.245	0.615
730.299	0.6186
739.353	0.6288
748.407	0.636
757.461	0.6294
766.516	0.6012
775.57	0.5278
784.624	0.5595
793.678	0.7013
802.732	0.6917
811.787	0.6752
820.841	0.6528
829.895	0.6277
838.949	0.5685
848.003	0.5192
857.057	0.5457
866.112	0.576
875.166	0.6104
884.22	0.6342
893.274	0.6391
902.328	0.6327
911.383	0.6102
920.437	0.5115
929.491	0.3745
938.545	0.4059
947.599	0.5062
956.654	0.543
965.708	0.7178
974.762	0.7177
983.816	0.7084
992.87	0.6746
1001.92	0.609
1010.98	0.5225
1020.03	0.5075
1029.09	0.6004
1038.14	0.5959
1047.2	0.5452
1056.25	0.512
1065.3	0.4545
1074.36	0.4501
1083.41	0.5673
1092.47	0.6379
1101.52	0.6239
1110.57	0.6066
1119.63	0.615
1128.68	0.6402
1137.74	0.6219
1146.79	0.5649
1155.85	0.5457
1164.9	0.6277
1173.95	0.6574
1183.01	0.658
1192.06	0.6405
1201.12	0.6153
1210.17	0.5744
1219.23	0.5041
1228.28	0.4387
1237.33	0.3764
1246.39	0.342
1255.44	0.4019
1264.5	0.4543
1273.55	0.5916
1282.6	0.5568
1291.66	0.5067
1300.71	0.4326
1309.77	0.2948
1318.82	0.16
1327.88	0.2065
1336.93	0.4748
1345.98	0.5861
1355.04	0.6024
1364.09	0.6159
1373.15	0.623
1382.2	0.6681
1391.26	0.6518
1400.31	0.6249
1409.36	0.5971
1418.42	0.5051
1427.47	0.3887
1436.53	0.4052
1445.58	0.5229
1454.63	0.5624
1463.69	0.5135
1472.74	0.4795
1481.8	0.5011
1490.85	0.6162
1499.91	0.6264
1508.96	0.6213
1518.01	0.6049
1527.07	0.5718
1536.12	0.5315
1545.18	0.4872
1554.23	0.3544
1563.28	0.287
1572.34	0.1396
1581.39	0.1075
1590.45	0.1596
1599.5	0.1308
1608.56	0.2173
1617.61	0.2691
1626.66	0.3325
1635.72	0.2553
1644.77	0.1165
1653.83	0.1187
1662.88	0.188
1671.94	0.3922
1680.99	0.6091
1690.04	0.6717
1699.1	0.6976
1708.15	0.7159
1717.21	0.7481
1726.26	0.7777
1735.31	0.7937
1744.37	0.8004
1753.42	0.806
1762.48	0.8092
1771.53	0.8111
1780.59	0.8122
1789.64	0.8131
1798.69	0.8135
1807.75	0.8131
1816.8	0.8118
1825.86	0.8106
1834.91	0.8094
1843.96	0.8082
1853.02	0.8072
1862.07	0.808
1871.13	0.8024
1880.18	0.7972
1889.24	0.7953
1898.29	0.7936
1907.34	0.7919
1916.4	0.7898
1925.45	0.7875
1934.51	0.7853
1943.56	0.7842
1952.62	0.7802
1961.67	0.7742
1970.72	0.77
1979.78	0.7674
1988.83	0.7653
1997.89	0.7634
2006.94	0.7591
2015.99	0.7543
2025.05	0.7494
2034.1	0.7445
2043.16	0.7397
2052.21	0.7354
2061.27	0.7312
2070.32	0.7262
2079.37	0.7213
2088.43	0.7165
2097.48	0.7115
2106.54	0.7062
2115.59	0.701
2124.64	0.697
2133.7	0.693
2142.75	0.6879
2151.81	0.6823
2160.86	0.6753
2169.92	0.666
2178.97	0.6591
2188.02	0.6531
2197.08	0.647
2206.13	0.6405
2215.19	0.6334
2224.24	0.6262
2233.3	0.6193
2242.35	0.6123
2251.4	0.6053
2260.46	0.5988
2269.51	0.5917
2278.57	0.5853
2287.62	0.5851
2296.67	0.5715
2305.73	0.5579
2314.78	0.5469
2323.84	0.5385
2332.89	0.5311
2341.95	0.5242
2351	0.5174
2360.05	0.511
2369.11	0.5049
2378.16	0.5012
2387.22	0.4971
2396.27	0.4895
2405.33	0.4856
2414.38	0.4844
2423.43	0.483
2432.49	0.4815
2441.54	0.4743
2450.6	0.4627
2459.65	0.4493
2468.7	0.4331
2477.76	0.4167
2486.81	0.4012
2495.87	0.387
2504.92	0.3784
2513.98	0.3741
2523.03	0.3717
2532.08	0.3694
2541.14	0.3676
2550.19	0.3663
2559.25	0.3656
2568.3	0.3661
2577.35	0.3666
2586.41	0.3686
2595.46	0.3647
2604.52	0.3612
2613.57	0.3578
2622.63	0.356
2631.68	0.3509
2640.73	0.3468
2649.79	0.3433
2658.84	0.3397
2667.9	0.3366
2676.95	0.3336
2686.01	0.3309
2695.06	0.3304
2704.11	0.3309
2713.17	0.3322
2722.22	0.3332
2731.28	0.3336
2740.33	0.3335
2749.38	0.3335
2758.44	0.3337
2767.49	0.3347
2776.55	0.3376
2785.6	0.3445
2794.66	0.3522
2803.71	0.3599
2812.76	0.3627
2821.82	0.3625
2830.87	0.3611
2839.93	0.359
2848.98	0.3574
2858.03	0.3591
2867.09	0.3631
2876.14	0.3655
2885.2	0.3641
2894.25	0.3607
2903.31	0.357
2912.36	0.3571
2921.41	0.358
2930.47	0.3592
2939.52	0.3602
2948.58	0.3605
2957.63	0.3607
2966.69	0.3617
2975.74	0.364
2984.79	0.3704
2993.85	0.3748
3002.9	0.3685
3011.96	0.3603
3021.01	0.3513
3030.06	0.3433
3039.12	0.3393
3048.17	0.3364
3057.23	0.3322
3066.28	0.3197
3075.34	0.3074
3084.39	0.2974
3093.44	0.2889
3102.5	0.2809
3111.55	0.2724
3120.61	0.2616
3129.66	0.2501
3138.71	0.2385
3147.77	0.2264
3156.82	0.2143
3165.88	0.2027
3174.93	0.1924
3183.99	0.1855
3193.04	0.1911
3202.09	0.2045
3211.15	0.2195
3220.2	0.2356
3229.26	0.2593
3238.31	0.2782
3247.37	0.2868
3256.42	0.2934
3265.47	0.2993
3274.53	0.2987
3283.58	0.2926
3292.64	0.2753
3301.69	0.2557
3310.74	0.2474
3319.8	0.2448
3328.85	0.2451
3337.91	0.2547
3346.96	0.2752
3356.02	0.2983
3365.07	0.3131
3374.12	0.3213
3383.18	0.3246
3392.23	0.326
3401.29	0.3281
3410.34	0.3345
3419.39	0.3427
3428.45	0.3513
3437.5	0.3592
3446.56	0.3689
3455.61	0.3788
3464.67	0.3973
3473.72	0.4301
3482.77	0.4525
3491.83	0.473
3500.88	0.4918
3509.94	0.509
3518.99	0.5266
3528.05	0.5448
3537.1	0.5605
3546.15	0.5728
3555.21	0.5818
3564.26	0.5927
3573.32	0.6035
3582.37	0.6116
3591.42	0.6197
3600.48	0.6304
3609.53	0.6428
3618.59	0.6535
3627.64	0.66
3636.7	0.6634
3645.75	0.6652
3654.8	0.665
3663.86	0.6645
3672.91	0.6636
3681.97	0.6627
3691.02	0.6621
3700.08	0.6616
3709.13	0.6609
3718.18	0.6602
3727.24	0.6581
3736.29	0.6553
3745.35	0.6531
3754.4	0.6533
3763.45	0.6541
3772.51	0.6553
3781.56	0.6536
3790.62	0.6517
3799.67	0.6491
3808.73	0.6466
3817.78	0.6439
3826.83	0.6408
3835.89	0.6373
3844.94	0.6344
3854	0.6312
3863.05	0.6277
3872.1	0.6238
3881.16	0.621
3890.21	0.6207
3899.27	0.6207
3908.32	0.6205
3917.38	0.6193
3926.43	0.6181
3935.48	0.6158
3944.54	0.6134
3953.59	0.6108
3962.65	0.6081
3971.7	0.6056
3980.76	0.6031
3989.81	0.6003
3998.86	0.5975
4007.92	0.5923
4016.97	0.5868
