Infrared Spectrum: Indole, 5-methyl-, hydrochloride
Formula: C9 H10 Cl N
State: SOLID (KBr DISC, 0.9% WT.)
Class: COBLENTZ III
Instrument: PERKIN-ELMER 157
Sampling: TRANSMISSION
Resolution: 2
Origin: BRITISH PETROLEUM CO. LTD., ENGLAND
1/CM	TRANSMITTANCE
668	0.584
677	0.5854
686	0.5804
695	0.561
704	0.5525
713	0.5406
722	0.5441
731	0.5541
740	0.5562
749	0.5559
758	0.5541
767	0.5569
776	0.5553
785	0.5327
794	0.3988
803	0.2621
812	0.1496
821	0.1726
830	0.3351
839	0.4721
848	0.5364
857	0.5076
866	0.4786
875	0.4733
884	0.4755
893	0.4802
902	0.5164
911	0.5434
920	0.5537
929	0.5416
938	0.5281
947	0.5179
956	0.5121
965	0.5351
974	0.5534
983	0.5401
992	0.5098
1001	0.5003
1010	0.4785
1019	0.4731
1028	0.4072
1037	0.3636
1046	0.3963
1055	0.4326
1064	0.4508
1073	0.4412
1082	0.4208
1091	0.4064
1100	0.3766
1109	0.3354
1118	0.3118
1127	0.3016
1136	0.3166
1145	0.3161
1154	0.329
1163	0.3611
1172	0.3678
1181	0.3948
1190	0.3826
1199	0.3285
1208	0.3115
1217	0.3444
1226	0.3225
1235	0.3232
1244	0.3625
1253	0.3644
1262	0.3476
1271	0.3746
1280	0.3658
1289	0.2888
1298	0.2818
1307	0.3313
1316	0.3646
1325	0.3744
1334	0.3562
1343	0.2915
1352	0.217
1361	0.2566
1370	0.2644
1379	0.2662
1388	0.2701
1397	0.2501
1406	0.2321
1415	0.2278
1424	0.2233
1433	0.1838
1442	0.1544
1451	0.1406
1460	0.1319
1469	0.0898
1478	0.0426
1487	0.0305
1496	0.0284
1505	0.0755
1514	0.1263
1523	0.1438
1532	0.1442
1541	0.1427
1550	0.1282
1559	0.1184
1568	0.1098
1577	0.1125
1586	0.1194
1595	0.1028
1604	0.0849
1613	0.0841
1622	0.0969
1631	0.1571
1640	0.1822
1649	0.2189
1658	0.2696
1667	0.4424
1676	0.5333
1685	0.5522
1694	0.5549
1703	0.5618
1712	0.5785
1721	0.5808
1730	0.5795
1739	0.5742
1748	0.5629
1757	0.5568
1766	0.5491
1775	0.5416
1784	0.5354
1793	0.5289
1802	0.5209
1811	0.5101
1820	0.4908
1829	0.481
1838	0.4581
1847	0.4549
1856	0.4369
1865	0.4273
1874	0.422
1883	0.4048
1892	0.3854
1901	0.3752
1910	0.3721
1919	0.3642
1928	0.3581
1937	0.3492
1946	0.344
1955	0.3418
1964	0.3419
1973	0.343
1982	0.3449
1991	0.3475
2000	0.3509
2009	0.3544
2018	0.3589
2027	0.3634
2036	0.3683
2045	0.3704
2054	0.3708
2063	0.3709
2072	0.3707
2081	0.3704
2090	0.37
2099	0.3684
2108	0.3655
2117	0.3618
2126	0.3577
2135	0.3528
2144	0.3478
2153	0.3416
2162	0.33
2171	0.3203
2180	0.3132
2189	0.3063
2198	0.2985
2207	0.2898
2216	0.2792
2225	0.2705
2234	0.262
2243	0.2543
2252	0.2468
2261	0.2388
2270	0.2308
2279	0.2187
2288	0.2066
2297	0.1953
2306	0.1852
2315	0.1747
2324	0.1578
2333	0.1501
2342	0.144
2351	0.1383
2360	0.133
2369	0.1269
2378	0.1199
2387	0.1106
2396	0.0992
2405	0.0878
2414	0.0767
2423	0.0674
2432	0.0604
2441	0.0542
2450	0.0482
2459	0.0427
2468	0.038
2477	0.0345
2486	0.0319
2495	0.03
2504	0.0285
2513	0.0278
2522	0.0273
2531	0.0272
2540	0.0271
2549	0.0271
2558	0.0272
2567	0.0276
2576	0.0279
2585	0.0287
2594	0.0296
2603	0.0308
2612	0.0322
2621	0.0315
2630	0.0297
2639	0.0283
2648	0.027
2657	0.0263
2666	0.026
2675	0.0257
2684	0.0256
2693	0.0254
2702	0.0252
2711	0.0251
2720	0.0251
2729	0.0251
2738	0.025
2747	0.0251
2756	0.0252
2765	0.0254
2774	0.0255
2783	0.0258
2792	0.0261
2801	0.0264
2810	0.0268
2819	0.0271
2828	0.0274
2837	0.0278
2846	0.0281
2855	0.0284
2864	0.0287
2873	0.0288
2882	0.0291
2891	0.0294
2900	0.0297
2909	0.0301
2918	0.0308
2927	0.0322
2936	0.0343
2945	0.0368
2954	0.0399
2963	0.0431
2972	0.0464
2981	0.049
2990	0.0515
2999	0.0625
3008	0.0726
3017	0.0804
3026	0.0882
3035	0.0942
3044	0.0972
3053	0.0992
3062	0.1003
3071	0.1006
3080	0.1011
3089	0.101
3098	0.1006
3107	0.0999
3116	0.0986
3125	0.0962
3134	0.0923
3143	0.089
3152	0.0863
3161	0.0855
3170	0.0849
3179	0.0846
3188	0.0845
3197	0.0803
3206	0.0766
3215	0.0744
3224	0.0738
3233	0.0704
3242	0.0659
3251	0.0613
3260	0.0578
3269	0.055
3278	0.0531
3287	0.0514
3296	0.0502
3305	0.049
3314	0.0478
3323	0.0464
3332	0.0452
3341	0.044
3350	0.0436
3359	0.0438
3368	0.0441
3377	0.0452
3386	0.0472
3395	0.0498
3404	0.053
3413	0.057
3422	0.062
3431	0.0681
3440	0.0759
3449	0.082
3458	0.0902
3467	0.1013
3476	0.1102
3485	0.1191
3494	0.1281
3503	0.1377
3512	0.1483
3521	0.1615
3530	0.2448
3539	0.2643
3548	0.283
3557	0.3057
3566	0.3319
3575	0.3762
3584	0.4208
3593	0.4652
3602	0.5093
3611	0.5532
3620	0.6092
3629	0.6213
3638	0.6227
3647	0.623
3656	0.6223
3665	0.6202
3674	0.6157
3683	0.6111
3692	0.6076
3701	0.606
3710	0.6057
3719	0.6053
3728	0.6048
3737	0.6027
3746	0.599
3755	0.5944
3764	0.5895
3773	0.5848
3782	0.5798
3791	0.5739
3800	0.5683
3809	0.5633
3818	0.5587
3827	0.5547
3836	0.5508
3845	0.5473
3854	0.5443
3863	0.5415
3872	0.5388
3881	0.5362
3890	0.5344
3899	0.5329
3908	0.5311
3917	0.5262
3926	0.519
3935	0.5136
3944	0.5107
3953	0.5088
3962	0.508
3971	0.5073
3980	0.5066
3989	0.506
3998	0.5054
