Infrared Spectrum: IMIDAZOLE-4-CARBOXAMIDE, 5-AMINO-N-CYCLOHEXYL-, PICRATE, COMPOUND WITH ETHANOL
Formula: C18 H25 N7 O9
State: SOLID (1 mg / 650 mg KBr DISC)
Class: COBLENTZ III
Instrument: PERKIN-ELMER 221 (GRATING)
Instrument parameters: FILTER AT 980 CM^-^1. GRATING 4000-1428 CM^-^1, NaCl PRISM 1428-650 CM^-^1
Sampling: TRANSMISSION
Resolution: 2
Origin: SOUTHERN RESEARCH INSTITUTE
1/CM	TRANSMITTANCE
633.901	0.858
642.651	0.858
651.401	0.859
660.151	0.8591
668.901	0.8531
677.651	0.8281
686.401	0.7982
695.151	0.7746
703.901	0.6492
712.651	0.6683
721.401	0.889
730.151	0.8937
738.901	0.7559
747.651	0.89
756.401	0.8818
765.151	0.8789
773.901	0.872
782.651	0.7493
791.401	0.8339
800.151	0.806
808.901	0.8148
817.651	0.8744
826.401	0.8668
835.151	0.85
843.901	0.894
852.651	0.891
861.401	0.8767
870.151	0.8406
878.901	0.8544
887.651	0.7978
896.401	0.7802
905.151	0.6886
913.901	0.752
922.651	0.7409
931.401	0.7957
940.151	0.8122
948.901	0.8794
957.651	0.8877
966.401	0.89
975.151	0.8882
983.901	0.8815
992.651	0.8783
1001.4	0.8636
1010.15	0.849
1018.9	0.8097
1027.65	0.7565
1036.4	0.705
1045.15	0.7756
1053.9	0.809
1062.65	0.767
1071.4	0.6398
1080.15	0.738
1088.9	0.8252
1097.65	0.8326
1106.4	0.81
1115.15	0.7896
1123.9	0.7483
1132.65	0.721
1141.4	0.7071
1150.15	0.6211
1158.9	0.7119
1167.65	0.7892
1176.4	0.7876
1185.15	0.745
1193.9	0.73
1202.65	0.6664
1211.4	0.6162
1220.15	0.6081
1228.9	0.5084
1237.65	0.4143
1246.4	0.405
1255.15	0.302
1263.9	0.3212
1272.65	0.4175
1281.4	0.5128
1290.15	0.4823
1298.9	0.452
1307.65	0.4067
1316.4	0.4279
1325.15	0.312
1333.9	0.3539
1342.65	0.4734
1351.4	0.6001
1360.15	0.4921
1368.9	0.7144
1377.65	0.7843
1386.4	0.8393
1395.15	0.842
1403.9	0.826
1412.65	0.7085
1421.4	0.609
1430.15	0.5485
1438.9	0.7154
1447.65	0.672
1456.4	0.7279
1465.15	0.7517
1473.9	0.6642
1482.65	0.614
1491.4	0.6231
1500.15	0.5729
1508.9	0.5056
1517.65	0.6176
1526.4	0.5859
1535.15	0.4952
1543.9	0.505
1552.65	0.4159
1561.4	0.2418
1570.15	0.3563
1578.9	0.4694
1587.65	0.4595
1596.4	0.5032
1605.15	0.4436
1613.9	0.3575
1622.65	0.3431
1631.4	0.2653
1640.15	0.2249
1648.9	0.3401
1657.65	0.4584
1666.4	0.4341
1675.15	0.4171
1683.9	0.6626
1692.65	0.7675
1701.4	0.8582
1710.15	0.8866
1718.9	0.9175
1727.65	0.9373
1736.4	0.9562
1745.15	0.96
1753.9	0.965
1762.65	0.967
1771.4	0.972
1780.15	0.98
1788.9	0.981
1797.65	0.9818
1806.4	0.985
1815.15	0.986
1823.9	0.986
1832.65	0.987
1841.4	0.9813
1850.15	0.981
1858.9	0.9892
1867.65	0.995
1876.4	0.995
1885.15	0.996
1893.9	0.993
1902.65	0.992
1911.4	0.993
1920.15	0.993
1928.9	0.9926
1937.65	0.992
1946.4	0.991
1955.15	0.9867
1963.9	0.9818
1972.65	0.98
1981.4	0.98
1990.15	0.981
1998.9	0.982
2007.65	0.9798
2016.4	0.9729
2025.15	0.968
2033.9	0.9669
2042.65	0.965
2051.4	0.962
2060.15	0.96
2068.9	0.958
2077.65	0.9579
2086.4	0.957
2095.15	0.956
2103.9	0.957
2112.65	0.955
2121.4	0.951
2130.15	0.95
2138.9	0.949
2147.65	0.947
2156.4	0.946
2165.15	0.9449
2173.9	0.94
2182.65	0.937
2191.4	0.935
2200.15	0.934
2208.9	0.929
2217.65	0.929
2226.4	0.927
2235.15	0.927
2243.9	0.926
2252.65	0.9251
2261.4	0.924
2270.15	0.92
2278.9	0.919
2287.65	0.916
2296.4	0.912
2305.15	0.909
2313.9	0.907
2322.65	0.905
2331.4	0.902
2340.15	0.9
2348.9	0.898
2357.65	0.8959
2366.4	0.894
2375.15	0.891
2383.9	0.889
2392.65	0.8839
2401.4	0.874
2410.15	0.873
2418.9	0.871
2427.65	0.8709
2436.4	0.869
2445.15	0.8609
2453.9	0.8539
2462.65	0.848
2471.4	0.8439
2480.15	0.8376
2488.9	0.827
2497.65	0.825
2506.4	0.8229
2515.15	0.82
2523.9	0.8179
2532.65	0.814
2541.4	0.809
2550.15	0.8068
2558.9	0.804
2567.65	0.796
2576.4	0.7919
2585.15	0.7819
2593.9	0.7739
2602.65	0.7689
2611.4	0.7569
2620.15	0.7539
2628.9	0.7498
2637.65	0.7419
2646.4	0.7318
2655.15	0.721
2663.9	0.7159
2672.65	0.7098
2681.4	0.7059
2690.15	0.702
2698.9	0.702
2707.65	0.7
2716.4	0.6988
2725.15	0.6919
2733.9	0.6768
2742.65	0.6709
2751.4	0.6638
2760.15	0.6559
2768.9	0.6428
2777.65	0.639
2786.4	0.639
2795.15	0.636
2803.9	0.635
2812.65	0.635
2821.4	0.635
2830.15	0.634
2838.9	0.6245
2847.65	0.591
2856.4	0.5436
2865.15	0.6068
2873.9	0.618
2882.65	0.613
2891.4	0.5985
2900.15	0.5679
2908.9	0.559
2917.65	0.5381
2926.4	0.5079
2935.15	0.5161
2943.9	0.5221
2952.65	0.5601
2961.4	0.6342
2970.15	0.64
2978.9	0.6514
2987.65	0.6661
2996.4	0.6801
3005.15	0.692
3013.9	0.697
3022.65	0.699
3031.4	0.699
3040.15	0.697
3048.9	0.696
3057.65	0.6949
3066.4	0.692
3075.15	0.6858
3083.9	0.6809
3092.65	0.6736
3101.4	0.66
3110.15	0.6672
3118.9	0.672
3127.65	0.6719
3136.4	0.6638
3145.15	0.6499
3153.9	0.6199
3162.65	0.6242
3171.4	0.6729
3180.15	0.7224
3188.9	0.7321
3197.65	0.7361
3206.4	0.736
3215.15	0.728
3223.9	0.725
3232.65	0.716
3241.4	0.7009
3250.15	0.6858
3258.9	0.6685
3267.65	0.6439
3276.4	0.6224
3285.15	0.5958
3293.9	0.5299
3302.65	0.4892
3311.4	0.4711
3320.15	0.5149
3328.9	0.5602
3337.65	0.5668
3346.4	0.558
3355.15	0.5529
3363.9	0.5479
3372.65	0.547
3381.4	0.5578
3390.15	0.5766
3398.9	0.6081
3407.65	0.608
3416.4	0.604
3425.15	0.5985
3433.9	0.5777
3442.65	0.5518
3451.4	0.5172
3460.15	0.5077
3468.9	0.5782
3477.65	0.6485
3486.4	0.7053
3495.15	0.7275
3503.9	0.7501
3512.65	0.7621
3521.4	0.7731
3530.15	0.7821
3538.9	0.7912
3547.65	0.7971
3556.4	0.805
3565.15	0.8131
3573.9	0.8231
3582.65	0.8321
3591.4	0.8391
3600.15	0.8481
3608.9	0.8562
3617.65	0.8641
3626.4	0.8691
3635.15	0.8731
3643.9	0.876
3652.65	0.878
3661.4	0.879
3670.15	0.879
3678.9	0.88
3687.65	0.88
3696.4	0.88
3705.15	0.88
3713.9	0.88
3722.65	0.881
3731.4	0.881
3740.15	0.881
3748.9	0.88
3757.65	0.879
3766.4	0.879
3775.15	0.879
3783.9	0.876
3792.65	0.8759
3801.4	0.874
3810.15	0.873
3818.9	0.87
3827.65	0.87
3836.4	0.869
3845.15	0.868
3853.9	0.866
3862.65	0.866
3871.4	0.866
3880.15	0.868
3888.9	0.866
3897.65	0.864
3906.4	0.864
3915.15	0.864
3923.9	0.863
3932.65	0.863
3941.4	0.863
3950.15	0.863
3958.9	0.863
3967.65	0.863
3976.4	0.863
3985.15	0.863
3993.9	0.863
4002.65	0.863
4011.4	0.863
4020.15	0.863
4028.9	0.863
