Infrared Spectrum: Thymine, 1-Alpha-L-rhamnopyranosyl-
Formula: C11 H16 N2 O6
State: SOLID (0.8 mg / 650 mg KBr DISC)
Class: COBLENTZ III
Instrument: PERKIN-ELMER 21 (GRATING)
Instrument parameters: FILTER CHANGE ABOUT 1070 CM^-^1
Sampling: TRANSMISSION
Resolution: 2
Origin: SOUTHERN RESEARCH INSTITUTE
1/CM	TRANSMITTANCE
623	0.9288
632	0.9233
641	0.9203
650	0.9171
659	0.9134
668	0.91
677	0.9083
686	0.9064
695	0.9007
704	0.8912
713	0.8712
722	0.8607
731	0.8836
740	0.8761
749	0.8446
758	0.8036
767	0.7899
776	0.7492
785	0.7526
794	0.759
803	0.773
812	0.7853
821	0.7905
830	0.8144
839	0.8295
848	0.832
857	0.8254
866	0.7946
875	0.749
884	0.7189
893	0.7453
902	0.7981
911	0.81
920	0.8134
929	0.8118
938	0.7941
947	0.778
956	0.8376
965	0.8332
974	0.7977
983	0.7744
992	0.714
1001	0.6719
1010	0.6666
1019	0.6279
1028	0.565
1037	0.4792
1046	0.4153
1055	0.4262
1064	0.4667
1073	0.5346
1082	0.5194
1091	0.5218
1100	0.5441
1109	0.5461
1118	0.5398
1127	0.5182
1136	0.5261
1145	0.6435
1154	0.7077
1163	0.7749
1172	0.7921
1181	0.7933
1190	0.7913
1199	0.7789
1208	0.7458
1217	0.7072
1226	0.6646
1235	0.6271
1244	0.5901
1253	0.5532
1262	0.5585
1271	0.5731
1280	0.5879
1289	0.6047
1298	0.6449
1307	0.7433
1316	0.76
1325	0.762
1334	0.7588
1343	0.7475
1352	0.7229
1361	0.6775
1370	0.6357
1379	0.6012
1388	0.6168
1397	0.6457
1406	0.6576
1415	0.6673
1424	0.6803
1433	0.6787
1442	0.6642
1451	0.6298
1460	0.6087
1469	0.6075
1478	0.6618
1487	0.745
1496	0.8452
1505	0.8615
1514	0.8665
1523	0.8659
1532	0.8607
1541	0.8522
1550	0.8455
1559	0.8414
1568	0.8236
1577	0.8021
1586	0.7676
1595	0.7321
1604	0.6838
1613	0.6179
1622	0.5597
1631	0.4778
1640	0.3834
1649	0.2567
1658	0.2098
1667	0.1799
1676	0.174
1685	0.2045
1694	0.2481
1703	0.3242
1712	0.3906
1721	0.4906
1730	0.5689
1739	0.6549
1748	0.7183
1757	0.7524
1766	0.7778
1775	0.7997
1784	0.8205
1793	0.8378
1802	0.8493
1811	0.8615
1820	0.874
1829	0.884
1838	0.8939
1847	0.9024
1856	0.9097
1865	0.9161
1874	0.9222
1883	0.9278
1892	0.9329
1901	0.9381
1910	0.9433
1919	0.9487
1928	0.9527
1937	0.956
1946	0.9581
1955	0.9584
1964	0.9586
1973	0.9592
1982	0.9609
1991	0.9634
2000	0.9644
2009	0.9618
2018	0.9566
2027	0.9548
2036	0.9563
2045	0.9598
2054	0.9649
2063	0.9649
2072	0.9561
2081	0.9525
2090	0.9609
2099	0.9636
2108	0.9637
2117	0.9637
2126	0.9633
2135	0.9628
2144	0.9664
2153	0.9633
2162	0.9664
2171	0.9704
2180	0.9743
2189	0.9699
2198	0.9682
2207	0.9706
2216	0.9737
2225	0.9756
2234	0.9719
2243	0.9677
2252	0.9652
2261	0.9643
2270	0.9643
2279	0.9643
2288	0.9613
2297	0.9579
2306	0.9549
2315	0.952
2324	0.9505
2333	0.9493
2342	0.9495
2351	0.9519
2360	0.9529
2369	0.9538
2378	0.9538
2387	0.9536
2396	0.9534
2405	0.9532
2414	0.9525
2423	0.9512
2432	0.9498
2441	0.9484
2450	0.947
2459	0.9461
2468	0.9462
2477	0.9464
2486	0.9463
2495	0.9463
2504	0.9442
2513	0.9421
2522	0.9407
2531	0.939
2540	0.9368
2549	0.9346
2558	0.9318
2567	0.9291
2576	0.9268
2585	0.9248
2594	0.9231
2603	0.9215
2612	0.9199
2621	0.9185
2630	0.917
2639	0.9152
2648	0.9133
2657	0.9115
2666	0.9101
2675	0.9087
2684	0.9072
2693	0.9057
2702	0.9041
2711	0.9013
2720	0.8985
2729	0.8952
2738	0.8917
2747	0.8844
2756	0.8759
2765	0.8667
2774	0.8582
2783	0.8482
2792	0.8382
2801	0.831
2810	0.825
2819	0.8199
2828	0.8146
2837	0.8086
2846	0.7992
2855	0.7898
2864	0.7811
2873	0.772
2882	0.7628
2891	0.7535
2900	0.7447
2909	0.7426
2918	0.7462
2927	0.7552
2936	0.7616
2945	0.764
2954	0.7615
2963	0.7606
2972	0.7603
2981	0.7597
2990	0.7583
2999	0.7551
3008	0.7488
3017	0.7408
3026	0.7338
3035	0.7268
3044	0.7206
3053	0.7147
3062	0.7104
3071	0.7077
3080	0.7073
3089	0.7085
3098	0.7084
3107	0.7044
3116	0.692
3125	0.6769
3134	0.6628
3143	0.6486
3152	0.6369
3161	0.6265
3170	0.6173
3179	0.6085
3188	0.5997
3197	0.5909
3206	0.582
3215	0.5735
3224	0.5651
3233	0.557
3242	0.5497
3251	0.5424
3260	0.5349
3269	0.5271
3278	0.5193
3287	0.5115
3296	0.5036
3305	0.4949
3314	0.4853
3323	0.473
3332	0.4595
3341	0.4444
3350	0.429
3359	0.4148
3368	0.4023
3377	0.3939
3386	0.3887
3395	0.3845
3404	0.3845
3413	0.3879
3422	0.393
3431	0.4017
3440	0.4097
3449	0.4205
3458	0.4346
3467	0.449
3476	0.4645
3485	0.4814
3494	0.4996
3503	0.5186
3512	0.5381
3521	0.5585
3530	0.5816
3539	0.6083
3548	0.6352
3557	0.6668
3566	0.6914
3575	0.718
3584	0.7393
3593	0.7598
3602	0.78
3611	0.8037
3620	0.8333
3629	0.8526
3638	0.8822
3647	0.893
3656	0.9012
3665	0.9085
3674	0.9132
3683	0.9173
3692	0.9199
3701	0.9241
3710	0.9293
3719	0.9364
3728	0.9433
3737	0.9472
3746	0.9485
3755	0.9482
3764	0.9467
3773	0.9453
3782	0.9438
3791	0.9422
3800	0.9407
3809	0.9393
3818	0.939
3827	0.9392
3836	0.9409
3845	0.9435
3854	0.9461
3863	0.95
3872	0.954
3881	0.9567
3890	0.9573
3899	0.9577
3908	0.9579
3917	0.9578
3926	0.9579
3935	0.9581
3944	0.9582
3953	0.9579
3962	0.957
3971	0.9563
3980	0.9556
3989	0.9545
3998	0.9535
