Infrared Spectrum: 3Alpha,5Alpha-Cycloandrostane, 6Beta-acetamido-17Beta-acetoxy-
Formula: C23 H35 N O3
State: SOLUTION 7% (CHCl3 FOR 2.5-12.5 microns)
Class: COBLENTZ
Instrument: PERKIN-ELMER 21 (GRATING)
Instrument parameters: FILTER AT ABOUT 10 MICRONS
Path length: 0.01 CM
Resolution: 2
Origin: ABBOTT LABORATORIES
1/CM	TRANSMITTANCE
801	0.9658
809	0.9323
817	0.9213
825	0.8977
833	0.847
841	0.8889
849	0.8981
857	0.8832
865	0.8682
873	0.8496
881	0.8738
889	0.8503
897	0.8029
905	0.7811
913	0.8127
921	0.8714
929	0.8218
937	0.8332
945	0.8385
953	0.7829
961	0.7082
969	0.7569
977	0.7197
985	0.7315
993	0.7822
1001	0.7361
1009	0.6511
1017	0.4945
1025	0.4499
1033	0.3995
1041	0.4361
1049	0.58
1057	0.6856
1065	0.6707
1073	0.7342
1081	0.7166
1089	0.6942
1097	0.7401
1105	0.7267
1113	0.7628
1121	0.7666
1129	0.7945
1137	0.7744
1145	0.7862
1153	0.7298
1161	0.7854
1169	0.8288
1177	0.8121
1185	0.7877
1193	0.7221
1201	0.5746
1209	0.4901
1217	0.4068
1225	0.3246
1233	0.2435
1241	0.1641
1249	0.1133
1257	0.1747
1265	0.3507
1273	0.5905
1281	0.5997
1289	0.7008
1297	0.7365
1305	0.7439
1313	0.7401
1321	0.7447
1329	0.7643
1337	0.7637
1345	0.6727
1353	0.5428
1361	0.4305
1369	0.4626
1377	0.528
1385	0.6568
1393	0.7323
1401	0.7335
1409	0.7097
1417	0.6651
1425	0.569
1433	0.5195
1441	0.5066
1449	0.5205
1457	0.5243
1465	0.5151
1473	0.5384
1481	0.4179
1489	0.2554
1497	0.2067
1505	0.2729
1513	0.5734
1521	0.6633
1529	0.7674
1537	0.8031
1545	0.8229
1553	0.8303
1561	0.834
1569	0.8345
1577	0.8314
1585	0.8246
1593	0.814
1601	0.7989
1609	0.7733
1617	0.7286
1625	0.6808
1633	0.6048
1641	0.3847
1649	0.1536
1657	0.1312
1665	0.2921
1673	0.5238
1681	0.6759
1689	0.6956
1697	0.6189
1705	0.3952
1713	0.1856
1721	0.1905
1729	0.448
1737	0.6355
1745	0.7432
1753	0.8189
1761	0.8457
1769	0.8608
1777	0.8743
1785	0.8873
1793	0.8899
1801	0.8925
1809	0.8953
1817	0.898
1825	0.9007
1833	0.9042
1841	0.9093
1849	0.9116
1857	0.9128
1865	0.9138
1873	0.9141
1881	0.9144
1889	0.9147
1897	0.9147
1905	0.9146
1913	0.9145
1921	0.9144
1929	0.9145
1937	0.9152
1945	0.916
1953	0.9166
1961	0.9173
1969	0.9174
1977	0.9176
1985	0.9177
1993	0.9179
2001	0.9175
2009	0.9166
2017	0.9158
2025	0.915
2033	0.9143
2041	0.9157
2049	0.9171
2057	0.9181
2065	0.9177
2073	0.9173
2081	0.917
2089	0.9166
2097	0.9165
2105	0.9171
2113	0.9175
2121	0.918
2129	0.9184
2137	0.9188
2145	0.9183
2153	0.9178
2161	0.9172
2169	0.9168
2177	0.9163
2185	0.9158
2193	0.9158
2201	0.916
2209	0.9163
2217	0.9165
2225	0.9168
2233	0.917
2241	0.9169
2249	0.9168
2257	0.9167
2265	0.9168
2273	0.9178
2281	0.9213
2289	0.9226
2297	0.9229
2305	0.9228
2313	0.9229
2321	0.9249
2329	0.928
2337	0.932
2345	0.9367
2353	0.941
2361	0.943
2369	0.9394
2377	0.928
2385	0.9176
2393	0.9035
2401	0.894
2409	0.8922
2417	0.892
2425	0.8923
2433	0.8927
2441	0.8937
2449	0.8951
2457	0.8971
2465	0.9001
2473	0.9029
2481	0.9062
2489	0.9096
2497	0.912
2505	0.9134
2513	0.9138
2521	0.9136
2529	0.9134
2537	0.9133
2545	0.913
2553	0.9128
2561	0.9126
2569	0.9124
2577	0.9121
2585	0.9121
2593	0.912
2601	0.9119
2609	0.9119
2617	0.9118
2625	0.9113
2633	0.9104
2641	0.9094
2649	0.9086
2657	0.9074
2665	0.904
2673	0.9016
2681	0.9003
2689	0.8991
2697	0.8981
2705	0.8972
2713	0.8946
2721	0.891
2729	0.8898
2737	0.8889
2745	0.8886
2753	0.8868
2761	0.8796
2769	0.8623
2777	0.8389
2785	0.8151
2793	0.7908
2801	0.7488
2809	0.706
2817	0.6635
2825	0.6213
2833	0.5793
2841	0.5377
2849	0.5229
2857	0.5207
2865	0.5188
2873	0.4873
2881	0.4482
2889	0.4092
2897	0.3706
2905	0.3486
2913	0.3428
2921	0.3434
2929	0.3552
2937	0.3835
2945	0.4097
2953	0.4313
2961	0.45
2969	0.5419
2977	0.7403
2985	0.786
2993	0.8076
3001	0.8244
3009	0.8379
3017	0.8513
3025	0.8636
3033	0.8756
3041	0.8835
3049	0.8894
3057	0.8944
3065	0.8973
3073	0.899
3081	0.8992
3089	0.8994
3097	0.8996
3105	0.8998
3113	0.8998
3121	0.8993
3129	0.8986
3137	0.8981
3145	0.8975
3153	0.897
3161	0.8965
3169	0.8961
3177	0.8956
3185	0.8951
3193	0.8947
3201	0.8943
3209	0.8937
3217	0.8931
3225	0.8926
3233	0.8906
3241	0.8874
3249	0.8843
3257	0.8814
3265	0.8792
3273	0.8769
3281	0.8752
3289	0.8744
3297	0.8735
3305	0.8726
3313	0.8718
3321	0.8708
3329	0.8692
3337	0.8678
3345	0.8664
3353	0.8629
3361	0.8583
3369	0.8509
3377	0.8414
3385	0.8213
3393	0.7999
3401	0.7786
3409	0.7575
3417	0.7364
3425	0.717
3433	0.7274
3441	0.8089
3449	0.8853
3457	0.8901
3465	0.8935
3473	0.8966
3481	0.8996
3489	0.9024
3497	0.905
3505	0.9058
3513	0.9061
3521	0.9063
3529	0.9066
3537	0.9068
3545	0.907
3553	0.9073
3561	0.9077
3569	0.9084
3577	0.9091
3585	0.9097
3593	0.9104
3601	0.9111
3609	0.9121
3617	0.9131
3625	0.9142
3633	0.9153
3641	0.9163
3649	0.9172
3657	0.9179
3665	0.9185
3673	0.9184
3681	0.9183
3689	0.9181
3697	0.918
3705	0.9178
3713	0.9174
3721	0.917
3729	0.9166
3737	0.9161
3745	0.9157
3753	0.9153
3761	0.9149
3769	0.9145
3777	0.9143
3785	0.9142
3793	0.914
3801	0.9137
3809	0.9135
3817	0.9133
3825	0.9132
3833	0.913
3841	0.9127
3849	0.9123
3857	0.9117
3865	0.9112
3873	0.9106
3881	0.9101
3889	0.9096
3897	0.9091
3905	0.9086
3913	0.908
3921	0.9075
3929	0.9069
3937	0.9064
3945	0.9058
3953	0.9052
3961	0.9046
3969	0.9041
3977	0.9036
3985	0.903
3993	0.9025
