Infrared Spectrum: POTASSIUM NITRATE
Formula: K N O3
State: SOLID (NUJOL MULL)
Class: COBLENTZ
Instrument: Not specified, most likely a prism, grating, or hybrid spectrometer.
Sampling: TRANSMISSION
Resolution: 4
Origin: MELLON INSTITUTE
MICROMETERS	TRANSMITTANCE
2.067	0.884
2.10698	0.882
2.14695	0.879
2.18693	0.881
2.2269	0.881
2.26688	0.881
2.30686	0.879
2.34683	0.879
2.38681	0.879
2.42678	0.877
2.46676	0.876
2.50674	0.874
2.54671	0.874
2.58669	0.874
2.62666	0.874
2.66664	0.874
2.70662	0.874
2.74659	0.874
2.78657	0.874
2.82654	0.874
2.86652	0.872
2.9065	0.872
2.94647	0.874
2.98645	0.876
3.02642	0.874
3.0664	0.874
3.10638	0.874
3.14635	0.874
3.18633	0.872
3.22631	0.872
3.26628	0.869
3.30626	0.824
3.34623	0.508
3.38621	0.354
3.42619	0.479
3.46616	0.466
3.50614	0.752
3.54611	0.826
3.58609	0.851
3.62607	0.862
3.66604	0.872
3.70602	0.882
3.74599	0.884
3.78597	0.887
3.82595	0.889
3.86592	0.891
3.9059	0.892
3.94587	0.894
3.98585	0.896
4.02583	0.891
4.0658	0.886
4.10578	0.877
4.14575	0.861
4.18573	0.851
4.22571	0.846
4.26568	0.847
4.30566	0.849
4.34563	0.852
4.38561	0.859
4.42559	0.871
4.46556	0.881
4.50554	0.886
4.54551	0.886
4.58549	0.886
4.62547	0.889
4.66544	0.889
4.70542	0.891
4.74539	0.891
4.78537	0.892
4.82535	0.892
4.86532	0.894
4.9053	0.894
4.94527	0.896
4.98525	0.899
5.02523	0.903
5.0652	0.903
5.10518	0.904
5.14515	0.906
5.18513	0.906
5.22511	0.908
5.26508	0.911
5.30506	0.911
5.34504	0.911
5.38501	0.911
5.42499	0.914
5.46496	0.916
5.50494	0.916
5.54492	0.921
5.58489	0.923
5.62487	0.928
5.66484	0.919
5.70482	0.891
5.7448	0.911
5.78477	0.924
5.82475	0.934
5.86472	0.941
5.9047	0.944
5.94468	0.946
5.98465	0.948
6.02463	0.944
6.0646	0.944
6.10458	0.944
6.14456	0.946
6.18453	0.948
6.22451	0.946
6.26448	0.941
6.30446	0.934
6.34444	0.928
6.38441	0.916
6.42439	0.913
6.46436	0.908
6.50434	0.906
6.54432	0.903
6.58429	0.897
6.62427	0.879
6.66424	0.862
6.70422	0.844
6.7442	0.799
6.78417	0.705
6.82415	0.627
6.86412	0.555
6.9041	0.476
6.94408	0.396
6.98405	0.306
7.02403	0.25
7.064	0.125
7.10398	0.055
7.14396	0.038
7.18393	0.016
7.22391	0.003
7.26388	0.033
7.30386	0.163
7.34384	0.304
7.38381	0.478
7.42379	0.57
7.46377	0.64
7.50374	0.687
7.54372	0.734
7.58369	0.76
7.62367	0.787
7.66365	0.804
7.70362	0.822
7.7436	0.841
7.78357	0.856
7.82355	0.871
7.86353	0.882
7.9035	0.894
7.94348	0.901
7.98345	0.909
8.02343	0.914
8.06341	0.919
8.10338	0.924
8.14336	0.926
8.18333	0.931
8.22331	0.936
8.26329	0.936
8.30326	0.941
8.34324	0.943
8.38321	0.946
8.42319	0.949
8.46317	0.951
8.50314	0.951
8.54312	0.953
8.58309	0.954
8.62307	0.956
8.66305	0.958
8.70302	0.958
8.743	0.959
8.78297	0.961
8.82295	0.963
8.86293	0.964
8.9029	0.966
8.94288	0.968
8.98285	0.971
9.02283	0.971
9.06281	0.973
9.10278	0.974
9.14276	0.974
9.18273	0.976
9.22271	0.978
9.26269	0.979
9.30266	0.981
9.34264	0.983
9.38261	0.984
9.42259	0.984
9.46257	0.986
9.50254	0.988
9.54252	0.988
9.5825	0.988
9.62247	0.988
9.66245	0.988
9.70242	0.989
9.7424	0.989
9.78238	0.989
9.82235	0.991
9.86233	0.991
9.9023	0.991
9.94228	0.994
9.98226	0.998
10.0222	0.998
10.0622	0.998
10.1022	0.998
10.1422	0.998
10.1821	0.998
10.2221	1
10.2621	1
10.3021	1
10.342	1
10.382	1
10.422	1
10.462	1
10.5019	1.001
10.5419	1.001
10.5819	1.001
10.6219	1.001
10.6618	1.001
10.7018	1.001
10.7418	1.001
10.7818	1.001
10.8218	1.001
10.8617	1.001
10.9017	1.001
10.9417	1.001
10.9817	1.003
11.0216	1.003
11.0616	1.003
11.1016	1.001
11.1416	1.001
11.1815	1.003
11.2215	1.003
11.2615	1.003
11.3015	1.003
11.3414	1.003
11.3814	1.003
11.4214	1.003
11.4614	1.003
11.5013	1.001
11.5413	1.001
11.5813	1.001
11.6213	1
11.6612	1
11.7012	1
11.7412	0.998
11.7812	0.998
11.8212	0.998
11.8611	1
11.9011	1
11.9411	0.996
11.9811	0.989
12.021	0.884
12.061	0.665
12.101	0.757
12.141	0.896
12.1809	0.944
12.2209	0.973
12.2609	0.986
12.3009	0.994
12.3408	0.998
12.3808	1
12.4208	1
12.4608	1
12.5007	0.998
12.5407	0.998
12.5807	0.998
12.6207	0.998
12.6607	1
12.7006	1
12.7406	1
12.7806	1
12.8206	1
12.8605	1
12.9005	1
12.9405	1
12.9805	1.001
13.0204	1
13.0604	0.998
13.1004	0.996
13.1404	0.994
13.1803	0.993
13.2203	0.991
13.2603	0.988
13.3003	0.984
13.3402	0.981
13.3802	0.978
13.4202	0.974
13.4602	0.969
13.5001	0.964
13.5401	0.959
13.5801	0.953
13.6201	0.949
13.6601	0.944
13.7	0.934
13.74	0.931
13.78	0.926
13.82	0.919
13.8599	0.916
13.8999	0.913
13.9399	0.909
13.9799	0.909
14.0198	0.906
14.0598	0.901
14.0998	0.896
14.1398	0.892
14.1797	0.887
14.2197	0.882
14.2597	0.877
14.2997	0.872
14.3396	0.867
14.3796	0.864
14.4196	0.857
14.4596	0.854
14.4995	0.847
14.5395	0.841
14.5795	0.836
14.6195	0.831
14.6595	0.826
14.6994	0.819
14.7394	0.811
14.7794	0.804
14.8194	0.799
14.8593	0.794
14.8993	0.787
14.9393	0.782
14.9793	0.777
15.0192	0.774
15.0592	0.767
15.0992	0.762
15.1392	0.757
15.1791	0.754
15.2191	0.754
15.2591	0.752
15.2991	0.749
15.339	0.745
15.379	0.744
15.419	0.744
15.459	0.744
15.4989	0.744
15.5389	0.742
15.5789	0.742
15.6189	0.74
15.6589	0.742
15.6988	0.745
15.7388	0.747
15.7788	0.749
15.8188	0.754
15.8587	0.757
15.8987	0.76
15.9387	0.765
15.9787	0.772
16.0186	0.772
