Infrared Spectrum: Phenothiazine, 2-chloro-10-(3-dimethylaminopropyl)-, cmpd with o-(p-hydroxybenzoyl)benzoic acid (1 to 1)
Formula: C31 H29 Cl N2 O4 S
State: SOLID (OIL MULL)
Class: COBLENTZ III
Instrument: PERKIN-ELMER 21 (GRATING)
Instrument parameters: NaCl PRISM
Sampling: TRANSMISSION
Resolution: 2
Origin: SMITH KLINE & FRENCH LABS.
1/CM	TRANSMITTANCE
664	0.7001
673	0.7614
682	0.75
691	0.7363
700	0.7232
709	0.6897
718	0.635
727	0.7951
736	0.7608
745	0.7222
754	0.2757
763	0.8327
772	0.776
781	0.7197
790	0.9275
799	0.832
808	0.7986
817	0.8352
826	0.7767
835	0.7954
844	0.7281
853	0.7875
862	0.7974
871	0.8806
880	0.773
889	0.9085
898	0.9145
907	0.9049
916	0.8557
925	0.6732
934	0.4956
943	0.9032
952	0.8995
961	0.861
970	0.8379
979	0.8107
988	0.7655
997	0.8926
1006	0.8853
1015	0.813
1024	0.8683
1033	0.8628
1042	0.7819
1051	0.8532
1060	0.8356
1069	0.7989
1078	0.7521
1087	0.7593
1096	0.7756
1105	0.6977
1114	0.7018
1123	0.7722
1132	0.6074
1141	0.5509
1150	0.4776
1159	0.6661
1168	0.6263
1177	0.6693
1186	0.785
1195	0.764
1204	0.7255
1213	0.6648
1222	0.5661
1231	0.4932
1240	0.3408
1249	0.2905
1258	0.3241
1267	0.3292
1276	0.2365
1285	0.3002
1294	0.4688
1303	0.5053
1312	0.2941
1321	0.633
1330	0.6806
1339	0.6982
1348	0.6501
1357	0.533
1366	0.3871
1375	0.2212
1384	0.1808
1393	0.3495
1402	0.5975
1411	0.591
1420	0.59
1429	0.6431
1438	0.5744
1447	0.2642
1456	0.1989
1465	0.18
1474	0.184
1483	0.3898
1492	0.4557
1501	0.4475
1510	0.4121
1519	0.5104
1528	0.641
1537	0.5213
1546	0.4247
1555	0.3641
1564	0.4067
1573	0.4183
1582	0.3612
1591	0.3364
1600	0.4197
1609	0.5657
1618	0.5534
1627	0.7024
1636	0.8134
1645	0.8054
1654	0.659
1663	0.3627
1672	0.8146
1681	0.9375
1690	0.9388
1699	0.9382
1708	0.9366
1717	0.9345
1726	0.931
1735	0.9254
1744	0.9159
1753	0.9067
1762	0.9018
1771	0.8999
1780	0.8861
1789	0.8782
1798	0.8735
1807	0.871
1816	0.8687
1825	0.8666
1834	0.8622
1843	0.8547
1852	0.8466
1861	0.8403
1870	0.8348
1879	0.8316
1888	0.8302
1897	0.8236
1906	0.8118
1915	0.8045
1924	0.8008
1933	0.7997
1942	0.7986
1951	0.7958
1960	0.789
1969	0.7804
1978	0.7772
1987	0.7747
1996	0.7723
2005	0.7702
2014	0.7683
2023	0.7664
2032	0.7662
2041	0.7661
2050	0.7658
2059	0.7655
2068	0.7616
2077	0.7548
2086	0.7512
2095	0.7499
2104	0.75
2113	0.75
2122	0.7503
2131	0.7488
2140	0.7469
2149	0.7439
2158	0.7401
2167	0.7356
2176	0.7313
2185	0.727
2194	0.7237
2203	0.7209
2212	0.7192
2221	0.7173
2230	0.7137
2239	0.7079
2248	0.7029
2257	0.6979
2266	0.6928
2275	0.6875
2284	0.6822
2293	0.6777
2302	0.6736
2311	0.6694
2320	0.6649
2329	0.6601
2338	0.6546
2347	0.6495
2356	0.6447
2365	0.6387
2374	0.6331
2383	0.628
2392	0.6244
2401	0.6212
2410	0.6184
2419	0.6156
2428	0.613
2437	0.6105
2446	0.608
2455	0.6056
2464	0.6015
2473	0.5969
2482	0.5937
2491	0.5928
2500	0.5935
2509	0.5941
2518	0.5947
2527	0.5952
2536	0.5949
2545	0.5937
2554	0.5918
2563	0.5862
2572	0.5773
2581	0.5737
2590	0.5736
2599	0.5748
2608	0.5765
2617	0.5796
2626	0.5828
2635	0.5898
2644	0.5948
2653	0.5921
2662	0.5803
2671	0.5689
2680	0.5705
2689	0.5841
2698	0.6015
2707	0.6132
2716	0.6171
2725	0.619
2734	0.6198
2743	0.6202
2752	0.6203
2761	0.6199
2770	0.6192
2779	0.6123
2788	0.6
2797	0.5869
2806	0.5733
2815	0.5582
2824	0.5205
2833	0.4451
2842	0.3441
2851	0.2437
2860	0.1439
2869	0.1274
2878	0.1253
2887	0.1202
2896	0.1091
2905	0.0973
2914	0.0886
2923	0.0825
2932	0.0791
2941	0.0797
2950	0.082
2959	0.0955
2968	0.1251
2977	0.1692
2986	0.2314
2995	0.2998
3004	0.353
3013	0.4051
3022	0.4345
3031	0.4516
3040	0.4632
3049	0.4738
3058	0.4859
3067	0.4982
3076	0.509
3085	0.519
3094	0.5296
3103	0.5407
3112	0.5506
3121	0.5587
3130	0.5667
3139	0.5748
3148	0.5822
3157	0.5892
3166	0.5947
3175	0.5997
3184	0.6041
3193	0.6082
3202	0.6123
3211	0.6161
3220	0.6188
3229	0.6216
3238	0.6235
3247	0.6245
3256	0.6255
3265	0.6255
3274	0.6253
3283	0.6245
3292	0.6237
3301	0.623
3310	0.6221
3319	0.621
3328	0.6199
3337	0.6188
3346	0.6175
3355	0.6163
3364	0.6149
3373	0.6136
3382	0.6122
3391	0.6107
3400	0.6094
3409	0.608
3418	0.6069
3427	0.6063
3436	0.606
3445	0.6062
3454	0.6065
3463	0.6067
3472	0.6046
3481	0.6021
3490	0.599
3499	0.5958
3508	0.593
3517	0.5904
3526	0.5878
3535	0.5851
3544	0.5826
3553	0.5806
3562	0.5796
3571	0.5786
3580	0.5777
3589	0.5768
3598	0.5761
3607	0.575
3616	0.5738
3625	0.5723
3634	0.5694
3643	0.5641
3652	0.5599
3661	0.5592
3670	0.5586
3679	0.5585
3688	0.5584
3697	0.5582
3706	0.5574
3715	0.556
3724	0.5535
3733	0.5504
3742	0.5465
3751	0.5435
3760	0.5414
3769	0.5396
3778	0.5383
3787	0.5371
3796	0.5358
3805	0.5345
3814	0.5331
3823	0.5317
3832	0.5304
3841	0.529
3850	0.5277
3859	0.5263
3868	0.5248
3877	0.5234
3886	0.5221
3895	0.5206
3904	0.5193
3913	0.5181
3922	0.5169
3931	0.5158
3940	0.5155
3949	0.5152
3958	0.5148
3967	0.5147
3976	0.5143
3985	0.5128
3994	0.5095
