Infrared Spectrum: N,N'-BIS(S-ACETYLMERCAPTOSUCCINIC ACID) HYDRAZINE
Formula: C12 H16 N2 O8 S2
State: SOLID(MINERAL OIL MULL)
Melting point: 200 C (DECOMPOSE)
Class: COBLENTZ
Instrument: Not specified, most likely a prism, grating, or hybrid spectrometer.
Sampling: TRANSMISSION
Resolution: 4
Origin: ARTHUR D. LITTLE, INC.
1/CM	TRANSMITTANCE
598.438	0.419
606.901	0.415
615.365	0.425
623.828	0.426
632.292	0.425
640.755	0.466
649.219	0.574
657.682	0.662
666.146	0.673
674.609	0.638
683.073	0.729
691.536	0.731
700	0.734
708.463	0.795
716.927	0.79
725.39	0.818
733.854	0.836
742.317	0.853
750.781	0.818
759.244	0.761
767.708	0.865
776.171	0.872
784.634	0.876
793.098	0.872
801.561	0.87
810.025	0.865
818.488	0.853
826.952	0.839
835.415	0.832
843.879	0.825
852.342	0.809
860.806	0.792
869.269	0.731
877.733	0.692
886.196	0.721
894.66	0.673
903.123	0.625
911.587	0.556
920.05	0.533
928.514	0.527
936.977	0.513
945.441	0.463
953.904	0.521
962.367	0.632
970.831	0.706
979.294	0.73
987.758	0.713
996.221	0.598
1004.68	0.72
1013.15	0.784
1021.61	0.794
1030.08	0.804
1038.54	0.805
1047	0.798
1055.47	0.781
1063.93	0.753
1072.39	0.713
1080.86	0.672
1089.32	0.564
1097.78	0.497
1106.25	0.517
1114.71	0.462
1123.17	0.299
1131.64	0.341
1140.1	0.516
1148.56	0.502
1157.03	0.397
1165.49	0.531
1173.95	0.51
1182.42	0.502
1190.88	0.665
1199.34	0.645
1207.81	0.598
1216.27	0.539
1224.74	0.418
1233.2	0.39
1241.66	0.573
1250.13	0.485
1258.59	0.388
1267.05	0.513
1275.52	0.663
1283.98	0.68
1292.44	0.651
1300.91	0.638
1309.37	0.621
1317.83	0.533
1326.3	0.375
1334.76	0.4
1343.22	0.466
1351.69	0.496
1360.15	0.482
1368.61	0.418
1377.08	0.446
1385.54	0.469
1394	0.395
1402.47	0.557
1410.93	0.547
1419.4	0.485
1427.86	0.299
1436.32	0.185
1444.79	0.168
1453.25	0.177
1461.71	0.201
1470.18	0.255
1478.64	0.234
1487.1	0.236
1495.57	0.35
1504.03	0.534
1512.49	0.619
1520.96	0.651
1529.42	0.645
1537.88	0.619
1546.35	0.611
1554.81	0.519
1563.27	0.47
1571.74	0.367
1580.2	0.255
1588.66	0.161
1597.13	0.09
1605.59	0.073
1614.06	0.116
1622.52	0.266
1630.98	0.367
1639.45	0.473
1647.91	0.5
1656.37	0.482
1664.84	0.407
1673.3	0.26
1681.76	0.099
1690.23	0.069
1698.69	0.072
1707.15	0.107
1715.62	0.208
1724.08	0.299
1732.54	0.422
1741.01	0.465
1749.47	0.54
1757.93	0.617
1766.4	0.686
1774.86	0.746
1783.32	0.77
1791.79	0.794
1800.25	0.811
1808.72	0.822
1817.18	0.835
1825.64	0.841
1834.11	0.843
1842.57	0.855
1851.03	0.866
1859.5	0.87
1867.96	0.872
1876.42	0.873
1884.89	0.876
1893.35	0.878
1901.81	0.879
1910.28	0.882
1918.74	0.886
1927.2	0.89
1935.67	0.896
1944.13	0.899
1952.59	0.902
1961.06	0.903
1969.52	0.903
1977.98	0.9
1986.45	0.895
1994.91	0.896
2003.38	0.899
2011.84	0.902
2020.3	0.903
2028.77	0.903
2037.23	0.899
2045.69	0.896
2054.16	0.89
2062.62	0.886
2071.08	0.883
2079.55	0.879
2088.01	0.878
2096.47	0.879
2104.94	0.882
2113.4	0.879
2121.86	0.878
2130.33	0.875
2138.79	0.868
2147.25	0.862
2155.72	0.858
2164.18	0.853
2172.64	0.851
2181.11	0.852
2189.57	0.855
2198.03	0.852
2206.5	0.849
2214.96	0.846
2223.43	0.842
2231.89	0.839
2240.35	0.832
2248.82	0.824
2257.28	0.821
2265.74	0.818
2274.21	0.818
2282.67	0.817
2291.13	0.812
2299.6	0.811
2308.06	0.808
2316.52	0.802
2324.99	0.787
2333.45	0.78
2341.91	0.78
2350.38	0.778
2358.84	0.774
2367.3	0.775
2375.77	0.773
2384.23	0.765
2392.69	0.758
2401.16	0.75
2409.62	0.743
2418.09	0.734
2426.55	0.726
2435.01	0.717
2443.48	0.709
2451.94	0.699
2460.4	0.687
2468.87	0.678
2477.33	0.666
2485.79	0.651
2494.26	0.638
2502.72	0.631
2511.18	0.624
2519.65	0.614
2528.11	0.602
2536.57	0.588
2545.04	0.57
2553.5	0.547
2561.96	0.534
2570.43	0.54
2578.89	0.536
2587.35	0.526
2595.82	0.527
2604.28	0.524
2612.75	0.519
2621.21	0.513
2629.67	0.509
2638.14	0.487
2646.6	0.466
2655.06	0.458
2663.53	0.482
2671.99	0.506
2680.45	0.513
2688.92	0.513
2697.38	0.516
2705.84	0.514
2714.31	0.502
2722.77	0.495
2731.23	0.485
2739.7	0.479
2748.16	0.463
2756.62	0.456
2765.09	0.469
2773.55	0.485
2782.01	0.478
2790.48	0.468
2798.94	0.443
2807.41	0.417
2815.87	0.387
2824.33	0.32
2832.8	0.221
2841.26	0.086
2849.72	0.029
2858.19	0.028
2866.65	0.043
2875.11	0.056
2883.58	0.052
2892.04	0.031
2900.5	0.017
2908.97	0.008
2917.43	0.005
2925.89	0.007
2934.36	0.012
2942.82	0.017
2951.28	0.017
2959.75	0.022
2968.21	0.06
2976.67	0.127
2985.14	0.198
2993.6	0.228
3002.07	0.259
3010.53	0.272
3018.99	0.275
3027.46	0.269
3035.92	0.262
3044.38	0.246
3052.85	0.253
3061.31	0.273
3069.77	0.309
3078.24	0.329
3086.7	0.337
3095.16	0.334
3103.63	0.33
3112.09	0.324
3120.55	0.317
3129.02	0.304
3137.48	0.287
3145.94	0.265
3154.41	0.248
3162.87	0.211
3171.33	0.175
3179.8	0.156
3188.26	0.15
3196.73	0.151
3205.19	0.16
3213.65	0.174
3222.12	0.205
3230.58	0.251
3239.04	0.297
3247.51	0.346
3255.97	0.388
3264.43	0.428
3272.9	0.469
3281.36	0.504
3289.82	0.533
3298.29	0.561
3306.75	0.587
3315.21	0.612
3323.68	0.622
3332.14	0.638
3340.6	0.658
3349.07	0.67
3357.53	0.675
3365.99	0.686
3374.46	0.685
3382.92	0.686
3391.39	0.686
3399.85	0.707
3408.31	0.72
3416.78	0.726
3425.24	0.736
3433.7	0.739
3442.17	0.74
3450.63	0.747
3459.09	0.753
3467.56	0.76
3476.02	0.765
3484.48	0.767
3492.95	0.77
3501.41	0.77
3509.87	0.771
3518.34	0.771
3526.8	0.773
3535.26	0.773
3543.73	0.773
