Infrared Spectrum: Aniline, 2-tert-butyl-N-(o-chlorobenzyl)
Formula: C17 H20 Cl N
State: SOLUTION (CS2)
Class: COBLENTZ III
Instrument: BECKMAN IR-4 (HYBRID PRISM-GRATING)
Instrument parameters: NaCl PRISM
Sampling: TRANSMISSION
Resolution: 2
Origin: MONSANTO (J. FREEMAN)
1/CM	TRANSMITTANCE
626	0.8157
635	0.8243
644	0.8256
653	0.8205
662	0.8378
671	0.8488
680	0.7893
689	0.8296
698	0.7942
707	0.8332
716	0.8334
725	0.7975
734	0.6157
743	0.1021
752	0.2737
761	0.7925
770	0.8489
779	0.8532
788	0.835
797	0.8421
806	0.8435
815	0.8549
824	0.8895
833	0.8654
842	0.8313
851	0.8248
860	0.8342
869	0.8537
878	0.8665
887	0.9083
896	0.9245
905	0.9299
914	0.9246
923	0.8767
932	0.8885
941	0.8904
950	0.906
959	0.8813
968	0.9051
977	0.9076
986	0.8966
995	0.916
1004	0.8984
1013	0.8705
1022	0.863
1031	0.7392
1040	0.6124
1049	0.6203
1058	0.6922
1067	0.8328
1076	0.8983
1085	0.9047
1094	0.8508
1103	0.808
1112	0.8708
1121	0.8045
1130	0.8328
1139	0.7666
1148	0.8289
1157	0.8525
1166	0.8406
1175	0.8754
1184	0.8608
1193	0.7404
1202	0.8055
1211	0.8396
1220	0.8337
1229	0.7238
1238	0.6457
1247	0.6642
1256	0.4535
1265	0.4635
1274	0.7308
1283	0.7737
1292	0.734
1301	0.7258
1310	0.547
1319	0.5931
1328	0.8434
1337	0.8683
1346	0.8588
1355	0.8035
1364	0.6871
1373	0.7416
1382	0.8265
1391	0.7559
1400	0.6827
1409	0.6961
1418	0.6189
1427	0.4221
1436	0.2491
1445	0.06
1454	0.0333
1463	0.0001
1472	0.0001
1481	0.0001
1490	0.0001
1499	0.0001
1508	0.0001
1517	0.0001
1526	0.0001
1535	0.0001
1544	0.0001
1553	0.0001
1562	0.013
1571	0.1001
1580	0.248
1589	0.371
1598	0.3637
1607	0.5288
1616	0.7226
1625	0.8262
1634	0.8695
1643	0.891
1652	0.9034
1661	0.9168
1670	0.9203
1679	0.9244
1688	0.9286
1697	0.9349
1706	0.9418
1715	0.9484
1724	0.9506
1733	0.9514
1742	0.9511
1751	0.95
1760	0.9485
1769	0.9481
1778	0.9475
1787	0.9447
1796	0.9437
1805	0.9498
1814	0.9508
1823	0.9501
1832	0.9489
1841	0.9491
1850	0.9492
1859	0.9488
1868	0.9446
1877	0.9387
1886	0.9406
1895	0.9436
1904	0.9376
1913	0.9305
1922	0.9387
1931	0.9506
1940	0.9488
1949	0.9465
1958	0.9501
1967	0.9546
1976	0.9566
1985	0.9576
1994	0.9585
2003	0.9593
2012	0.9596
2021	0.9596
2030	0.9591
2039	0.9582
2048	0.9568
2057	0.9546
2066	0.9491
2075	0.9406
2084	0.924
2093	0.8982
2102	0.8661
2111	0.8071
2120	0.6726
2129	0.48
2138	0.2863
2147	0.1236
2156	0.1129
2165	0.1603
2174	0.2997
2183	0.4379
2192	0.575
2201	0.711
2210	0.8512
2219	0.8895
2228	0.9203
2237	0.9295
2246	0.931
2255	0.9284
2264	0.9225
2273	0.9103
2282	0.8612
2291	0.7872
2300	0.7139
2309	0.6845
2318	0.703
2327	0.7134
2336	0.7208
2345	0.7269
2354	0.7316
2363	0.7363
2372	0.7718
2381	0.8675
2390	0.9377
2399	0.9505
2408	0.9516
2417	0.952
2426	0.9521
2435	0.9519
2444	0.9517
2453	0.9515
2462	0.9514
2471	0.9513
2480	0.951
2489	0.9506
2498	0.9502
2507	0.9499
2516	0.9494
2525	0.9491
2534	0.9491
2543	0.9491
2552	0.9491
2561	0.9491
2570	0.9489
2579	0.9485
2588	0.9479
2597	0.9475
2606	0.947
2615	0.9465
2624	0.946
2633	0.9454
2642	0.9448
2651	0.9443
2660	0.9437
2669	0.9431
2678	0.9423
2687	0.9415
2696	0.9407
2705	0.94
2714	0.9389
2723	0.9378
2732	0.9368
2741	0.9352
2750	0.9331
2759	0.9289
2768	0.9235
2777	0.9157
2786	0.9067
2795	0.8974
2804	0.8931
2813	0.8912
2822	0.8861
2831	0.8733
2840	0.8478
2849	0.8026
2858	0.7389
2867	0.7013
2876	0.6897
2885	0.6809
2894	0.6678
2903	0.6472
2912	0.6374
2921	0.6304
2930	0.5892
2939	0.5295
2948	0.47
2957	0.4209
2966	0.4649
2975	0.5669
2984	0.6682
2993	0.7689
3002	0.8298
3011	0.8285
3020	0.8263
3029	0.8218
3038	0.8059
3047	0.7887
3056	0.7716
3065	0.7687
3074	0.8044
3083	0.8692
3092	0.8875
3101	0.9026
3110	0.912
3119	0.9188
3128	0.9241
3137	0.9282
3146	0.9303
3155	0.9323
3164	0.9339
3173	0.9352
3182	0.9365
3191	0.9378
3200	0.9382
3209	0.9386
3218	0.939
3227	0.9394
3236	0.9395
3245	0.9396
3254	0.9396
3263	0.9397
3272	0.9397
3281	0.9396
3290	0.9395
3299	0.9395
3308	0.9394
3317	0.9393
3326	0.939
3335	0.9382
3344	0.9374
3353	0.9366
3362	0.9354
3371	0.9335
3380	0.9315
3389	0.9279
3398	0.9235
3407	0.9179
3416	0.9102
3425	0.8977
3434	0.8799
3443	0.8622
3452	0.8446
3461	0.8271
3470	0.8096
3479	0.8005
3488	0.8026
3497	0.8267
3506	0.8596
3515	0.8923
3524	0.9133
3533	0.9201
3542	0.924
3551	0.9275
3560	0.9297
3569	0.9319
3578	0.934
3587	0.9359
3596	0.9377
3605	0.9393
3614	0.9406
3623	0.9419
3632	0.9432
3641	0.9439
3650	0.9444
3659	0.945
3668	0.9455
3677	0.9461
3686	0.9465
3695	0.9467
3704	0.9469
3713	0.9471
3722	0.9473
3731	0.9474
3740	0.9477
3749	0.9478
3758	0.9479
3767	0.9479
3776	0.948
3785	0.9481
3794	0.9482
3803	0.9482
3812	0.9483
3821	0.9484
3830	0.9484
3839	0.9484
3848	0.9484
3857	0.9484
3866	0.9483
3875	0.9483
3884	0.9483
3893	0.9483
3902	0.9482
3911	0.9481
3920	0.9479
3929	0.9478
3938	0.9476
3947	0.9475
3956	0.9473
3965	0.9471
3974	0.9469
3983	0.9465
3992	0.946
