Infrared Spectrum: AMMONIUM SELENATE
Formula: ( N H4)2 Se O4
State: SOLID (NUJOL MULL)
Class: COBLENTZ
Instrument: Not specified, most likely a prism, grating, or hybrid spectrometer.
Sampling: TRANSMISSION
Resolution: 4
Origin: MELLON INSTITUTE
MICROMETERS	TRANSMITTANCE
2.049	0.9
2.08976	0.897
2.13053	0.897
2.17129	0.891
2.21206	0.888
2.25282	0.89
2.29359	0.893
2.33435	0.893
2.37512	0.891
2.41588	0.888
2.45665	0.891
2.49741	0.893
2.53818	0.89
2.57894	0.886
2.61971	0.888
2.66047	0.878
2.70124	0.857
2.742	0.835
2.78277	0.735
2.82353	0.593
2.8643	0.493
2.90506	0.432
2.94583	0.397
2.98659	0.372
3.02736	0.337
3.06812	0.267
3.10889	0.228
3.14965	0.205
3.19042	0.197
3.23118	0.212
3.27195	0.186
3.31271	0.178
3.35348	0.161
3.39424	0.161
3.43501	0.224
3.47577	0.216
3.51654	0.243
3.5573	0.272
3.59807	0.305
3.63883	0.37
3.6796	0.421
3.72036	0.468
3.76113	0.511
3.80189	0.554
3.84266	0.598
3.88342	0.627
3.92419	0.65
3.96495	0.667
4.00572	0.668
4.04648	0.665
4.08725	0.651
4.12801	0.634
4.16878	0.615
4.20954	0.603
4.25031	0.584
4.29107	0.598
4.33184	0.591
4.3726	0.615
4.41337	0.651
4.45413	0.672
4.4949	0.692
4.53566	0.706
4.57643	0.713
4.61719	0.722
4.65796	0.722
4.69872	0.727
4.73949	0.734
4.78025	0.739
4.82102	0.749
4.86178	0.756
4.90255	0.761
4.94331	0.768
4.98407	0.777
5.02484	0.783
5.0656	0.783
5.10637	0.799
5.14713	0.799
5.1879	0.801
5.22866	0.799
5.26943	0.797
5.31019	0.79
5.35096	0.787
5.39172	0.789
5.43249	0.782
5.47325	0.785
5.51402	0.783
5.55478	0.777
5.59555	0.766
5.63631	0.759
5.67708	0.775
5.71784	0.77
5.75861	0.768
5.79937	0.771
5.84014	0.787
5.8809	0.761
5.92167	0.727
5.96243	0.708
6.0032	0.687
6.04396	0.691
6.08473	0.682
6.12549	0.699
6.16626	0.73
6.20702	0.77
6.24779	0.795
6.28855	0.818
6.32932	0.825
6.37008	0.811
6.41085	0.828
6.45161	0.826
6.49238	0.845
6.53314	0.842
6.57391	0.826
6.61467	0.828
6.65544	0.821
6.6962	0.79
6.73697	0.713
6.77773	0.653
6.8185	0.559
6.85926	0.48
6.90003	0.404
6.94079	0.399
6.98156	0.391
7.02232	0.346
7.06309	0.346
7.10385	0.353
7.14462	0.389
7.18538	0.504
7.22615	0.624
7.26691	0.706
7.30768	0.761
7.34844	0.804
7.38921	0.831
7.42997	0.842
7.47074	0.849
7.5115	0.859
7.55227	0.867
7.59303	0.878
7.6338	0.883
7.67456	0.888
7.71533	0.895
7.75609	0.898
7.79686	0.898
7.83762	0.897
7.87838	0.891
7.91915	0.883
7.95991	0.861
8.00068	0.849
8.04144	0.847
8.08221	0.845
8.12297	0.847
8.16374	0.855
8.2045	0.861
8.24527	0.862
8.28603	0.879
8.3268	0.878
8.36756	0.885
8.40833	0.891
8.44909	0.893
8.48986	0.891
8.53062	0.89
8.57139	0.89
8.61215	0.898
8.65292	0.895
8.69368	0.895
8.73445	0.903
8.77521	0.909
8.81598	0.909
8.85674	0.907
8.89751	0.905
8.93827	0.907
8.97904	0.912
9.0198	0.91
9.06057	0.912
9.10133	0.914
9.1421	0.917
9.18286	0.917
9.22363	0.921
9.26439	0.926
9.30516	0.933
9.34592	0.933
9.38669	0.931
9.42745	0.929
9.46822	0.934
9.50898	0.929
9.54975	0.936
9.59051	0.939
9.63128	0.943
9.67204	0.948
9.71281	0.943
9.75357	0.953
9.79434	0.953
9.8351	0.955
9.87587	0.958
9.91663	0.958
9.9574	0.962
9.99816	0.965
10.0389	0.965
10.0797	0.969
10.1205	0.969
10.1612	0.967
10.202	0.967
10.2428	0.969
10.2835	0.965
10.3243	0.958
10.365	0.953
10.4058	0.958
10.4466	0.955
10.4873	0.946
10.5281	0.948
10.5689	0.936
10.6096	0.941
10.6504	0.939
10.6912	0.936
10.7319	0.941
10.7727	0.939
10.8135	0.938
10.8542	0.934
10.895	0.915
10.9358	0.907
10.9765	0.902
11.0173	0.89
11.058	0.874
11.0988	0.85
11.1396	0.821
11.1803	0.792
11.2211	0.739
11.2619	0.706
11.3026	0.667
11.3434	0.619
11.3842	0.579
11.4249	0.524
11.4657	0.488
11.5065	0.442
11.5472	0.397
11.588	0.384
11.6288	0.37
11.6695	0.37
11.7103	0.368
11.7511	0.358
11.7918	0.351
11.8326	0.341
11.8733	0.336
11.9141	0.331
11.9549	0.331
11.9956	0.332
12.0364	0.332
12.0772	0.336
12.1179	0.337
12.1587	0.337
12.1995	0.337
12.2402	0.334
12.281	0.329
12.3218	0.325
12.3625	0.322
12.4033	0.315
12.4441	0.313
12.4848	0.313
12.5256	0.322
12.5664	0.331
12.6071	0.348
12.6479	0.361
12.6886	0.38
12.7294	0.399
12.7702	0.408
12.8109	0.415
12.8517	0.415
12.8925	0.411
12.9332	0.404
12.974	0.399
13.0148	0.401
13.0555	0.423
13.0963	0.456
13.1371	0.48
13.1778	0.524
13.2186	0.572
13.2594	0.596
13.3001	0.632
13.3409	0.66
13.3817	0.689
13.4224	0.701
13.4632	0.722
13.5039	0.734
13.5447	0.737
13.5855	0.742
13.6262	0.747
13.667	0.753
13.7078	0.759
13.7485	0.761
13.7893	0.759
13.8301	0.763
13.8708	0.759
13.9116	0.766
13.9524	0.771
13.9931	0.773
14.0339	0.77
14.0747	0.771
14.1154	0.766
14.1562	0.761
14.1969	0.749
14.2377	0.756
14.2785	0.749
14.3192	0.749
14.36	0.746
14.4008	0.74
14.4415	0.734
14.4823	0.723
14.5231	0.715
14.5638	0.71
14.6046	0.706
14.6454	0.698
14.6861	0.691
14.7269	0.684
14.7677	0.679
14.8084	0.67
14.8492	0.648
14.89	0.644
14.9307	0.641
14.9715	0.636
15.0122	0.631
15.053	0.622
15.0938	0.614
15.1345	0.595
15.1753	0.586
15.2161	0.578
15.2568	0.566
15.2976	0.559
15.3384	0.545
15.3791	0.536
15.4199	0.531
15.4607	0.528
15.5014	0.519
15.5422	0.511
15.583	0.506
15.6237	0.504
15.6645	0.502
15.7053	0.499
15.746	0.497
15.7868	0.492
15.8275	0.492
15.8683	0.493
15.9091	0.495
15.9498	0.499
15.9906	0.5
