Infrared Spectrum: CYSTEINEHYDRAZIDE HYDROCHLORIDE
Formula: C3 H9 N3 O S  * H Cl
State: SOLID (NUJOL MULL)
Melting point: 189-190 C
Class: COBLENTZ
Instrument: Not specified, most likely a prism, grating, or hybrid spectrometer.
Sampling: TRANSMISSION
Resolution: 4
Origin: ARTHUR D. LITTLE, INC.
MICROMETERS	TRANSMITTANCE
2.496	0.828
2.52888	0.83
2.56175	0.831
2.59463	0.834
2.62751	0.846
2.66038	0.856
2.69326	0.859
2.72613	0.87
2.75901	0.88
2.79189	0.873
2.82476	0.863
2.85764	0.854
2.89052	0.844
2.92339	0.822
2.95627	0.751
2.98915	0.655
3.02202	0.515
3.0549	0.45
3.08777	0.308
3.12065	0.293
3.15353	0.347
3.1864	0.415
3.21928	0.372
3.25216	0.345
3.28503	0.257
3.31791	0.184
3.35079	0.128
3.38366	0.09
3.41654	0.073
3.44941	0.07
3.48229	0.085
3.51517	0.105
3.54804	0.176
3.58092	0.268
3.6138	0.335
3.64667	0.385
3.67955	0.392
3.71243	0.385
3.7453	0.411
3.77818	0.469
3.81106	0.472
3.84393	0.454
3.87681	0.506
3.90968	0.544
3.94256	0.542
3.97544	0.592
4.00831	0.623
4.04119	0.644
4.07407	0.691
4.10694	0.742
4.13982	0.763
4.1727	0.782
4.20557	0.801
4.23845	0.806
4.27132	0.816
4.3042	0.839
4.33708	0.847
4.36995	0.85
4.40283	0.855
4.43571	0.864
4.46858	0.867
4.50146	0.87
4.53434	0.875
4.56721	0.881
4.60009	0.892
4.63296	0.904
4.66584	0.907
4.69872	0.905
4.73159	0.893
4.76447	0.892
4.79735	0.897
4.83022	0.896
4.8631	0.888
4.89598	0.859
4.92885	0.839
4.96173	0.797
4.9946	0.777
5.02748	0.763
5.06036	0.78
5.09323	0.813
5.12611	0.839
5.15899	0.855
5.19186	0.88
5.22474	0.898
5.25762	0.908
5.29049	0.917
5.32337	0.923
5.35624	0.93
5.38912	0.935
5.422	0.938
5.45487	0.94
5.48775	0.941
5.52063	0.943
5.5535	0.941
5.58638	0.935
5.61926	0.939
5.65213	0.939
5.68501	0.936
5.71789	0.917
5.75076	0.89
5.78364	0.848
5.81651	0.776
5.84939	0.556
5.88227	0.296
5.91514	0.15
5.94802	0.122
5.9809	0.205
6.01377	0.265
6.04665	0.234
6.07953	0.366
6.1124	0.567
6.14528	0.601
6.17815	0.519
6.21103	0.31
6.24391	0.248
6.27678	0.292
6.30966	0.386
6.34254	0.402
6.37541	0.355
6.40829	0.541
6.44117	0.601
6.47404	0.575
6.50692	0.397
6.53979	0.354
6.57267	0.348
6.60555	0.408
6.63842	0.51
6.6713	0.461
6.70418	0.438
6.73705	0.557
6.76993	0.644
6.80281	0.645
6.83568	0.471
6.86856	0.369
6.90143	0.383
6.93431	0.5
6.96719	0.55
7.00006	0.604
7.03294	0.758
7.06582	0.743
7.09869	0.555
7.13157	0.628
7.16445	0.678
7.19732	0.63
7.2302	0.601
7.26307	0.555
7.29595	0.517
7.32883	0.611
7.3617	0.67
7.39458	0.736
7.42746	0.752
7.46033	0.754
7.49321	0.754
7.52609	0.622
7.55896	0.558
7.59184	0.556
7.62471	0.682
7.65759	0.732
7.69047	0.736
7.72334	0.678
7.75622	0.623
7.7891	0.631
7.82197	0.672
7.85485	0.741
7.88773	0.753
7.9206	0.756
7.95348	0.775
7.98636	0.792
8.01923	0.797
8.05211	0.776
8.08498	0.721
8.11786	0.653
8.15074	0.613
8.18361	0.776
8.21649	0.822
8.24937	0.844
8.28224	0.85
8.31512	0.86
8.348	0.864
8.38087	0.865
8.41375	0.867
8.44662	0.869
8.4795	0.871
8.51238	0.878
8.54525	0.882
8.57813	0.865
8.61101	0.836
8.64388	0.806
8.67676	0.75
8.70964	0.705
8.74251	0.697
8.77539	0.664
8.80826	0.629
8.84114	0.654
8.87402	0.691
8.90689	0.716
8.93977	0.765
8.97265	0.75
9.00552	0.715
9.0384	0.653
9.07128	0.577
9.10415	0.54
9.13703	0.571
9.1699	0.709
9.20278	0.775
9.23566	0.834
9.26853	0.857
9.30141	0.858
9.33429	0.839
9.36716	0.805
9.40004	0.781
9.43292	0.732
9.46579	0.629
9.49867	0.565
9.53154	0.706
9.56442	0.777
9.5973	0.803
9.63017	0.822
9.66305	0.839
9.69593	0.844
9.7288	0.844
9.76168	0.843
9.79456	0.839
9.82743	0.819
9.86031	0.809
9.89319	0.81
9.92606	0.798
9.95894	0.79
9.99181	0.759
10.0247	0.731
10.0576	0.692
10.0904	0.629
10.1233	0.571
10.1562	0.534
10.1891	0.507
10.2219	0.485
10.2548	0.471
10.2877	0.46
10.3206	0.475
10.3535	0.503
10.3863	0.566
10.4192	0.613
10.4521	0.721
10.485	0.779
10.5178	0.803
10.5507	0.828
10.5836	0.833
10.6165	0.827
10.6493	0.801
10.6822	0.784
10.7151	0.761
10.748	0.735
10.7808	0.746
10.8137	0.744
10.8466	0.741
10.8795	0.763
10.9124	0.782
10.9452	0.795
10.9781	0.822
11.011	0.825
11.0439	0.816
11.0767	0.788
11.1096	0.758
11.1425	0.743
11.1754	0.721
11.2082	0.715
11.2411	0.706
11.274	0.704
11.3069	0.704
11.3397	0.714
11.3726	0.736
11.4055	0.75
11.4384	0.77
11.4713	0.782
11.5041	0.806
11.537	0.828
11.5699	0.847
11.6028	0.866
11.6356	0.882
11.6685	0.886
11.7014	0.895
11.7343	0.914
11.7671	0.915
11.8	0.917
11.8329	0.923
11.8658	0.931
11.8986	0.935
11.9315	0.941
11.9644	0.946
11.9973	0.951
12.0301	0.951
12.063	0.947
12.0959	0.944
12.1288	0.936
12.1617	0.909
12.1945	0.895
12.2274	0.886
12.2603	0.884
12.2932	0.904
12.326	0.914
12.3589	0.921
12.3918	0.942
12.4247	0.951
12.4575	0.954
12.4904	0.958
12.5233	0.963
12.5562	0.966
12.589	0.969
12.6219	0.97
12.6548	0.971
12.6877	0.972
12.7206	0.972
12.7534	0.965
12.7863	0.955
12.8192	0.95
12.8521	0.942
12.8849	0.941
12.9178	0.93
12.9507	0.914
12.9836	0.898
13.0164	0.894
13.0493	0.893
13.0822	0.893
13.1151	0.893
13.1479	0.894
13.1808	0.9
13.2137	0.908
13.2466	0.919
13.2795	0.926
13.3123	0.93
13.3452	0.933
13.3781	0.929
13.411	0.923
13.4438	0.922
13.4767	0.919
13.5096	0.904
13.5425	0.884
13.5753	0.872
13.6082	0.865
13.6411	0.851
13.674	0.842
13.7068	0.838
13.7397	0.83
13.7726	0.818
13.8055	0.817
13.8384	0.811
13.8712	0.813
13.9041	0.816
13.937	0.829
13.9699	0.851
14.0027	0.869
14.0356	0.882
14.0685	0.889
14.1014	0.894
14.1342	0.896
14.1671	0.897
14.2	0.895
14.2329	0.892
14.2657	0.888
14.2986	0.881
14.3315	0.865
14.3644	0.848
14.3972	0.828
14.4301	0.809
14.463	0.795
14.4959	0.788
14.5288	0.777
14.5616	0.763
14.5945	0.761
14.6274	0.76
14.6603	0.769
14.6931	0.779
14.726	0.795
14.7589	0.81
14.7918	0.825
14.8246	0.835
14.8575	0.836
14.8904	0.836
14.9233	0.836
14.9561	0.839
14.989	0.833
15.0219	0.81
