Infrared Spectrum: 1,3,5-CYCLOHEXANETRIOL, 2,2,4,4,6,6-HEXAMETHYL-, TRIPELARGONATE
Formula: C39 H70 O6
Boiling point: 167 C AT 2 mmHg
Class: COBLENTZ
Instrument: Not specified, most likely a prism, grating, or hybrid spectrometer.
Sampling: TRANSMISSION
Path length: SMEAR
Resolution: 4
Origin: TENNESSEE EASTMAN COMPANY, RESEARCH LABORATORIES
MICROMETERS	TRANSMITTANCE
2.007	0.998
2.0482	0.998
2.08941	0.998
2.13061	0.998
2.17182	0.998
2.21302	0.998
2.25423	0.984
2.29543	0.972
2.33664	0.976
2.37784	0.976
2.41905	0.977
2.46025	0.981
2.50146	0.988
2.54266	0.991
2.58387	0.994
2.62507	0.994
2.66628	0.994
2.70748	0.998
2.74869	0.998
2.78989	0.998
2.8311	0.994
2.8723	0.979
2.91351	0.97
2.95471	0.979
2.99592	0.984
3.03712	0.982
3.07833	0.981
3.11953	0.979
3.16074	0.972
3.20194	0.969
3.24315	0.947
3.28435	0.765
3.32556	0.622
3.36676	0.066
3.40797	0.082
3.44917	0.264
3.49038	0.364
3.53158	0.8
3.57279	0.871
3.61399	0.904
3.6552	0.905
3.6964	0.909
3.73761	0.909
3.77881	0.914
3.82002	0.935
3.86122	0.947
3.90243	0.955
3.94363	0.964
3.98484	0.969
4.02604	0.97
4.06725	0.97
4.10845	0.972
4.14966	0.972
4.19086	0.97
4.23207	0.974
4.27327	0.97
4.31448	0.96
4.35568	0.953
4.39688	0.957
4.43809	0.96
4.47929	0.964
4.5205	0.964
4.5617	0.964
4.60291	0.96
4.64411	0.962
4.68532	0.962
4.72652	0.962
4.76773	0.957
4.80893	0.955
4.85014	0.953
4.89134	0.953
4.93255	0.953
4.97375	0.955
5.01496	0.962
5.05616	0.962
5.09737	0.962
5.13857	0.962
5.17978	0.96
5.22098	0.955
5.26219	0.952
5.30339	0.952
5.3446	0.952
5.3858	0.947
5.42701	0.919
5.46821	0.9
5.50942	0.876
5.55062	0.851
5.59183	0.801
5.63303	0.671
5.67424	0.297
5.71544	0.039
5.75665	0.17
5.79785	0.507
5.83906	0.7
5.88026	0.733
5.92147	0.803
5.96267	0.829
6.00388	0.856
6.04508	0.875
6.08629	0.873
6.12749	0.887
6.1687	0.899
6.2099	0.904
6.25111	0.909
6.29231	0.912
6.33352	0.916
6.37472	0.911
6.41593	0.897
6.45713	0.902
6.49834	0.888
6.53954	0.887
6.58075	0.871
6.62195	0.844
6.66316	0.806
6.70436	0.634
6.74556	0.512
6.78677	0.292
6.82797	0.328
6.86918	0.444
6.91038	0.497
6.95159	0.6
6.99279	0.605
7.034	0.564
7.0752	0.574
7.11641	0.473
7.15761	0.613
7.19882	0.529
7.24002	0.345
7.28123	0.206
7.32243	0.335
7.36364	0.418
7.40484	0.483
7.44605	0.55
7.48725	0.596
7.52846	0.611
7.56966	0.589
7.61087	0.555
7.65207	0.531
7.69328	0.514
7.73448	0.517
7.77569	0.48
7.81689	0.483
7.8581	0.468
7.8993	0.454
7.94051	0.352
7.98171	0.288
8.02292	0.254
8.06412	0.232
8.10533	0.249
8.14653	0.252
8.18774	0.237
8.22894	0.237
8.27015	0.244
8.31135	0.247
8.35256	0.246
8.39376	0.235
8.43497	0.215
8.47617	0.193
8.51738	0.152
8.55858	0.095
8.59979	0.054
8.64099	0.051
8.6822	0.116
8.7234	0.3
8.76461	0.482
8.80581	0.56
8.84702	0.499
8.88822	0.389
8.92943	0.295
8.97063	0.247
9.01183	0.244
9.05304	0.275
9.09424	0.357
9.13545	0.535
9.17665	0.615
9.21786	0.654
9.25906	0.664
9.30027	0.664
9.34147	0.652
9.38268	0.629
9.42388	0.611
9.46509	0.593
9.50629	0.57
9.5475	0.502
9.5887	0.3
9.62991	0.222
9.67111	0.372
9.71232	0.482
9.75352	0.492
9.79473	0.442
9.83593	0.379
9.87714	0.374
9.91834	0.4
9.95955	0.377
10.0008	0.328
10.042	0.266
10.0832	0.225
10.1244	0.218
10.1656	0.227
10.2068	0.241
10.248	0.264
10.2892	0.317
10.3304	0.403
10.3716	0.483
10.4128	0.557
10.454	0.62
10.4952	0.668
10.5364	0.699
10.5776	0.711
10.6188	0.724
10.66	0.724
10.7012	0.733
10.7424	0.772
10.7836	0.793
10.8249	0.793
10.8661	0.791
10.9073	0.782
10.9485	0.765
10.9897	0.757
11.0309	0.745
11.0721	0.724
11.1133	0.712
11.1545	0.714
11.1957	0.702
11.2369	0.69
11.2781	0.705
11.3193	0.741
11.3605	0.794
11.4017	0.83
11.4429	0.852
11.4841	0.858
11.5253	0.866
11.5665	0.87
11.6077	0.887
11.6489	0.9
11.6902	0.907
11.7314	0.911
11.7726	0.912
11.8138	0.916
11.855	0.917
11.8962	0.917
11.9374	0.917
11.9786	0.917
12.0198	0.917
12.061	0.917
12.1022	0.917
12.1434	0.917
12.1846	0.917
12.2258	0.917
12.267	0.917
12.3082	0.917
12.3494	0.916
12.3906	0.916
12.4318	0.914
12.473	0.912
12.5143	0.914
12.5555	0.914
12.5967	0.914
12.6379	0.914
12.6791	0.912
12.7203	0.905
12.7615	0.895
12.8027	0.883
12.8439	0.873
12.8851	0.863
12.9263	0.858
12.9675	0.858
13.0087	0.858
13.0499	0.859
13.0911	0.863
13.1323	0.863
13.1735	0.864
13.2147	0.858
13.2559	0.851
13.2971	0.847
13.3384	0.842
13.3796	0.835
13.4208	0.829
13.462	0.822
13.5032	0.817
13.5444	0.811
13.5856	0.803
13.6268	0.793
13.668	0.77
13.7092	0.736
13.7504	0.714
13.7916	0.707
13.8328	0.724
13.874	0.75
13.9152	0.769
13.9564	0.781
13.9976	0.791
14.0388	0.798
14.08	0.803
14.1212	0.805
14.1624	0.805
14.2037	0.806
14.2449	0.808
14.2861	0.808
14.3273	0.808
14.3685	0.808
14.4097	0.805
14.4509	0.803
14.4921	0.8
14.5333	0.798
14.5745	0.793
14.6157	0.789
14.6569	0.786
14.6981	0.781
14.7393	0.781
14.7805	0.776
14.8217	0.772
14.8629	0.77
14.9041	0.769
14.9453	0.767
14.9865	0.76
15.0278	0.745
15.069	0.731
15.1102	0.724
15.1514	0.723
15.1926	0.721
15.2338	0.716
15.275	0.712
15.3162	0.709
15.3574	0.707
15.3986	0.707
15.4398	0.705
15.481	0.705
15.5222	0.707
15.5634	0.707
15.6046	0.707
15.6458	0.707
15.687	0.711
15.7282	0.716
15.7694	0.717
15.8106	0.719
15.8519	0.721
15.8931	0.721
15.9343	0.724
15.9755	0.726
