Infrared Spectrum: FERRIC NITRATE
Formula: Fe ( N O3)3  * 9 H2 O
State: SOLID (DRY POWDER)
Class: COBLENTZ
Instrument: Not specified, most likely a prism, grating, or hybrid spectrometer.
Sampling: TRANSMISSION
Resolution: 4
Origin: MELLON INSTITUTE
MICROMETERS	TRANSMITTANCE
2.047	0.769
2.08698	0.774
2.12695	0.775
2.16693	0.772
2.2069	0.774
2.24688	0.774
2.28686	0.774
2.32683	0.775
2.36681	0.774
2.40678	0.775
2.44676	0.782
2.48674	0.779
2.52671	0.772
2.56669	0.769
2.60666	0.765
2.64664	0.769
2.68662	0.76
2.72659	0.732
2.76657	0.563
2.80654	0.461
2.84652	0.399
2.8865	0.372
2.92647	0.359
2.96645	0.352
3.00642	0.352
3.0464	0.351
3.08638	0.349
3.12635	0.349
3.16633	0.349
3.20631	0.351
3.24628	0.366
3.28626	0.392
3.32623	0.424
3.36621	0.459
3.40619	0.491
3.44616	0.528
3.48614	0.543
3.52611	0.571
3.56609	0.603
3.60607	0.63
3.64604	0.657
3.68602	0.673
3.72599	0.693
3.76597	0.704
3.80595	0.71
3.84592	0.724
3.8859	0.732
3.92587	0.737
3.96585	0.735
4.00583	0.73
4.0458	0.73
4.08578	0.722
4.12575	0.72
4.16573	0.732
4.20571	0.735
4.24568	0.735
4.28566	0.734
4.32563	0.735
4.36561	0.735
4.40559	0.749
4.44556	0.75
4.48554	0.757
4.52551	0.76
4.56549	0.765
4.60547	0.767
4.64544	0.77
4.68542	0.772
4.72539	0.774
4.76537	0.777
4.80535	0.78
4.84532	0.785
4.8853	0.792
4.92527	0.797
4.96525	0.801
5.00523	0.804
5.0452	0.807
5.08518	0.812
5.12515	0.814
5.16513	0.819
5.20511	0.822
5.24508	0.824
5.28506	0.826
5.32504	0.829
5.36501	0.836
5.40499	0.841
5.44496	0.844
5.48494	0.844
5.52492	0.846
5.56489	0.854
5.60487	0.847
5.64484	0.846
5.68482	0.856
5.7248	0.866
5.76477	0.867
5.80475	0.867
5.84472	0.859
5.8847	0.849
5.92468	0.829
5.96465	0.799
6.00463	0.752
6.0446	0.705
6.08458	0.65
6.12456	0.613
6.16453	0.607
6.20451	0.638
6.24448	0.704
6.28446	0.727
6.32444	0.742
6.36441	0.755
6.40439	0.762
6.44436	0.764
6.48434	0.765
6.52432	0.769
6.56429	0.764
6.60427	0.755
6.64424	0.752
6.68422	0.74
6.7242	0.722
6.76417	0.69
6.80415	0.662
6.84412	0.62
6.8841	0.565
6.92408	0.511
6.96405	0.483
7.00403	0.416
7.044	0.361
7.08398	0.302
7.12396	0.267
7.16393	0.24
7.20391	0.22
7.24388	0.202
7.28386	0.19
7.32384	0.187
7.36381	0.187
7.40379	0.2
7.44377	0.214
7.48374	0.237
7.52372	0.28
7.56369	0.329
7.60367	0.371
7.64365	0.414
7.68362	0.443
7.7236	0.474
7.76357	0.521
7.80355	0.543
7.84353	0.561
7.8835	0.598
7.92348	0.625
7.96345	0.647
8.00343	0.668
8.04341	0.683
8.08338	0.698
8.12336	0.71
8.16333	0.724
8.20331	0.735
8.24329	0.744
8.28326	0.752
8.32324	0.754
8.36321	0.762
8.40319	0.767
8.44317	0.772
8.48314	0.779
8.52312	0.784
8.56309	0.787
8.60307	0.79
8.64305	0.792
8.68302	0.797
8.723	0.801
8.76297	0.804
8.80295	0.806
8.84293	0.807
8.8829	0.807
8.92288	0.811
8.96285	0.812
9.00283	0.814
9.04281	0.817
9.08278	0.821
9.12276	0.822
9.16273	0.831
9.20271	0.837
9.24269	0.846
9.28266	0.851
9.32264	0.852
9.36261	0.854
9.40259	0.856
9.44257	0.859
9.48254	0.866
9.52252	0.869
9.5625	0.872
9.60247	0.872
9.64245	0.872
9.68242	0.874
9.7224	0.876
9.76238	0.877
9.80235	0.876
9.84233	0.881
9.8823	0.884
9.92228	0.884
9.96226	0.882
10.0022	0.879
10.0422	0.884
10.0822	0.889
10.1222	0.889
10.1621	0.889
10.2021	0.889
10.2421	0.891
10.2821	0.894
10.322	0.897
10.362	0.899
10.402	0.901
10.442	0.903
10.4819	0.903
10.5219	0.903
10.5619	0.903
10.6019	0.904
10.6418	0.904
10.6818	0.904
10.7218	0.897
10.7618	0.894
10.8018	0.891
10.8417	0.886
10.8817	0.884
10.9217	0.882
10.9617	0.881
11.0016	0.879
11.0416	0.881
11.0816	0.882
11.1216	0.881
11.1615	0.877
11.2015	0.876
11.2415	0.877
11.2815	0.879
11.3214	0.877
11.3614	0.879
11.4014	0.877
11.4414	0.874
11.4813	0.874
11.5213	0.872
11.5613	0.869
11.6013	0.871
11.6412	0.867
11.6812	0.866
11.7212	0.861
11.7612	0.857
11.8012	0.851
11.8411	0.842
11.8811	0.822
11.9211	0.73
11.9611	0.705
12.001	0.762
12.041	0.785
12.081	0.799
12.121	0.806
12.1609	0.812
12.2009	0.816
12.2409	0.822
12.2809	0.824
12.3208	0.827
12.3608	0.827
12.4008	0.826
12.4408	0.824
12.4807	0.827
12.5207	0.827
12.5607	0.824
12.6007	0.824
12.6407	0.821
12.6806	0.817
12.7206	0.817
12.7606	0.812
12.8006	0.804
12.8405	0.801
12.8805	0.799
12.9205	0.795
12.9605	0.792
13.0004	0.787
13.0404	0.784
13.0804	0.784
13.1204	0.784
13.1603	0.784
13.2003	0.784
13.2403	0.779
13.2803	0.774
13.3202	0.77
13.3602	0.77
13.4002	0.764
13.4402	0.76
13.4801	0.754
13.5201	0.752
13.5601	0.75
13.6001	0.747
13.6401	0.747
13.68	0.744
13.72	0.739
13.76	0.734
13.8	0.73
13.8399	0.729
13.8799	0.727
13.9199	0.724
13.9599	0.715
13.9998	0.714
14.0398	0.707
14.0798	0.7
14.1198	0.695
14.1597	0.69
14.1997	0.685
14.2397	0.68
14.2797	0.675
14.3196	0.67
14.3596	0.663
14.3996	0.658
14.4396	0.657
14.4795	0.653
14.5195	0.647
14.5595	0.643
14.5995	0.642
14.6395	0.638
14.6794	0.632
14.7194	0.623
14.7594	0.622
14.7994	0.618
14.8393	0.622
14.8793	0.613
14.9193	0.61
14.9593	0.605
14.9992	0.603
15.0392	0.602
15.0792	0.6
15.1192	0.598
15.1591	0.596
15.1991	0.591
15.2391	0.596
15.2791	0.596
15.319	0.593
15.359	0.59
15.399	0.586
15.439	0.586
15.4789	0.586
15.5189	0.583
15.5589	0.583
15.5989	0.583
15.6389	0.585
15.6788	0.585
15.7188	0.581
15.7588	0.581
15.7988	0.586
15.8387	0.588
15.8787	0.588
15.9187	0.586
15.9587	0.59
15.9986	0.593
