Infrared Spectrum: DI-ISODECYLAZELATE
Formula: C29 H56 O4
State: LIQUID
Class: COBLENTZ
Instrument: Not specified, most likely a prism, grating, or hybrid spectrometer.
Sampling: TRANSMISSION
Path length: 0.003 CM
Resolution: 4
Origin: WYANDOTTE CHEMICALS CORP., WYANDOTTE, MICHIGAN, USA
MICROMETERS	TRANSMITTANCE
2.025	0.953
2.06212	0.958
2.09924	0.967
2.13635	0.959
2.17347	0.927
2.21059	0.906
2.24771	0.905
2.28482	0.916
2.32194	0.919
2.35906	0.919
2.39618	0.923
2.43329	0.942
2.47041	0.948
2.50753	0.951
2.54465	0.961
2.58177	0.968
2.61888	0.968
2.656	0.97
2.69312	0.973
2.73024	0.972
2.76735	0.972
2.80447	0.956
2.84159	0.954
2.87871	0.928
2.91582	0.911
2.95294	0.944
2.99006	0.944
3.02718	0.942
3.0643	0.933
3.10141	0.92
3.13853	0.883
3.17565	0.864
3.21277	0.846
3.24988	0.81
3.287	0.692
3.32412	0.201
3.36124	0.027
3.39835	0.034
3.43547	0.049
3.47259	0.052
3.50971	0.232
3.54683	0.6
3.58394	0.734
3.62106	0.799
3.65818	0.791
3.6953	0.801
3.73241	0.827
3.76953	0.852
3.80665	0.864
3.84377	0.868
3.88088	0.878
3.918	0.903
3.95512	0.922
3.99224	0.923
4.02936	0.923
4.06647	0.93
4.10359	0.928
4.14071	0.928
4.17783	0.927
4.21494	0.928
4.25206	0.927
4.28918	0.933
4.3263	0.939
4.36342	0.944
4.40053	0.937
4.43765	0.937
4.47477	0.94
4.51189	0.942
4.549	0.947
4.58612	0.947
4.62324	0.948
4.66036	0.948
4.69747	0.948
4.73459	0.948
4.77171	0.95
4.80883	0.942
4.84595	0.936
4.88306	0.936
4.92018	0.934
4.9573	0.937
4.99442	0.937
5.03153	0.94
5.06865	0.934
5.10577	0.94
5.14289	0.939
5.18	0.937
5.21712	0.934
5.25424	0.937
5.29136	0.937
5.32848	0.936
5.36559	0.933
5.40271	0.933
5.43983	0.931
5.47695	0.914
5.51406	0.9
5.55118	0.863
5.5883	0.816
5.62542	0.74
5.66253	0.621
5.69965	0.281
5.73677	0.029
5.77389	0.06
5.81101	0.383
5.84812	0.574
5.88524	0.627
5.92236	0.723
5.95948	0.784
5.99659	0.822
6.03371	0.829
6.07083	0.849
6.10795	0.858
6.14506	0.857
6.18218	0.869
6.2193	0.871
6.25642	0.874
6.29354	0.877
6.33065	0.878
6.36777	0.878
6.40489	0.872
6.44201	0.864
6.47912	0.847
6.51624	0.846
6.55336	0.838
6.59048	0.818
6.62759	0.788
6.66471	0.732
6.70183	0.588
6.73895	0.329
6.77607	0.09
6.81318	0.096
6.8503	0.2
6.88742	0.313
6.92454	0.389
6.96165	0.453
6.99877	0.458
7.03589	0.489
7.07301	0.599
7.11012	0.551
7.14724	0.372
7.18436	0.276
7.22148	0.177
7.2586	0.223
7.29571	0.24
7.33283	0.263
7.36995	0.277
7.40707	0.312
7.44418	0.354
7.4813	0.391
7.51842	0.378
7.55554	0.343
7.59265	0.33
7.62977	0.319
7.66689	0.312
7.70401	0.304
7.74113	0.301
7.77824	0.263
7.81536	0.248
7.85248	0.208
7.8896	0.181
7.92671	0.142
7.96383	0.113
8.00095	0.1
8.03807	0.1
8.07518	0.104
8.1123	0.13
8.14942	0.133
8.18654	0.133
8.22366	0.133
8.26077	0.122
8.29789	0.107
8.33501	0.091
8.37213	0.069
8.40924	0.059
8.44636	0.049
8.48348	0.04
8.5206	0.04
8.55772	0.041
8.59483	0.059
8.63195	0.082
8.66907	0.119
8.70619	0.166
8.7433	0.201
8.78042	0.211
8.81754	0.212
8.85466	0.242
8.89177	0.304
8.92889	0.402
8.96601	0.462
9.00313	0.428
9.04025	0.332
9.07736	0.279
9.11448	0.27
9.1516	0.273
9.18872	0.291
9.22583	0.319
9.26295	0.344
9.30007	0.374
9.33719	0.402
9.3743	0.416
9.41142	0.423
9.44854	0.444
9.48566	0.448
9.52278	0.453
9.55989	0.461
9.59701	0.464
9.63413	0.472
9.67125	0.481
9.70836	0.492
9.74548	0.49
9.7826	0.476
9.81972	0.473
9.85683	0.468
9.89395	0.453
9.93107	0.448
9.96819	0.439
10.0053	0.447
10.0424	0.444
10.0795	0.451
10.1167	0.453
10.1538	0.473
10.1909	0.481
10.228	0.503
10.2651	0.512
10.3022	0.537
10.3394	0.549
10.3765	0.572
10.4136	0.599
10.4507	0.613
10.4878	0.624
10.525	0.641
10.5621	0.652
10.5992	0.67
10.6363	0.683
10.6734	0.701
10.7105	0.706
10.7477	0.714
10.7848	0.72
10.8219	0.718
10.859	0.718
10.8961	0.703
10.9332	0.709
10.9704	0.722
11.0075	0.729
11.0446	0.734
11.0817	0.739
11.1188	0.748
11.156	0.748
11.1931	0.746
11.2302	0.757
11.2673	0.753
11.3044	0.757
11.3415	0.757
11.3787	0.759
11.4158	0.762
11.4529	0.76
11.49	0.763
11.5271	0.763
11.5642	0.767
11.6014	0.77
11.6385	0.774
11.6756	0.784
11.7127	0.785
11.7498	0.79
11.787	0.79
11.8241	0.79
11.8612	0.793
11.8983	0.798
11.9354	0.793
11.9725	0.798
12.0097	0.801
12.0468	0.799
12.0839	0.801
12.121	0.793
12.1581	0.795
12.1952	0.798
12.2324	0.801
12.2695	0.799
12.3066	0.796
12.3437	0.802
12.3808	0.805
12.418	0.805
12.4551	0.809
12.4922	0.802
12.5293	0.809
12.5664	0.81
12.6035	0.802
12.6407	0.799
12.6778	0.793
12.7149	0.787
12.752	0.776
12.7891	0.767
12.8263	0.763
12.8634	0.757
12.9005	0.751
12.9376	0.75
12.9747	0.743
13.0118	0.75
13.049	0.76
13.0861	0.76
13.1232	0.763
13.1603	0.77
13.1974	0.77
13.2345	0.768
13.2717	0.768
13.3088	0.768
13.3459	0.763
13.383	0.76
13.4201	0.76
13.4573	0.746
13.4944	0.742
13.5315	0.732
13.5686	0.728
13.6057	0.718
13.6428	0.715
13.68	0.712
13.7171	0.708
13.7542	0.7
13.7913	0.701
13.8284	0.712
13.8655	0.737
13.9027	0.753
13.9398	0.782
13.9769	0.793
14.014	0.802
14.0511	0.812
14.0883	0.821
14.1254	0.824
14.1625	0.829
14.1996	0.83
14.2367	0.832
14.2738	0.833
14.311	0.833
14.3481	0.843
14.3852	0.843
14.4223	0.846
14.4594	0.85
14.4965	0.847
14.5337	0.847
14.5708	0.847
14.6079	0.847
14.645	0.844
14.6821	0.843
14.7193	0.846
14.7564	0.849
14.7935	0.846
14.8306	0.84
14.8677	0.84
14.9048	0.838
14.942	0.832
14.9791	0.821
15.0162	0.804
15.0533	0.798
15.0904	0.793
15.1275	0.812
15.1647	0.813
15.2018	0.812
15.2389	0.801
15.276	0.79
15.3131	0.798
15.3503	0.79
15.3874	0.785
15.4245	0.773
15.4616	0.767
15.4987	0.767
15.5358	0.762
15.573	0.759
15.6101	0.748
15.6472	0.746
15.6843	0.742
15.7214	0.739
15.7585	0.729
15.7957	0.726
15.8328	0.722
15.8699	0.712
15.907	0.711
15.9441	0.7
15.9813	0.701
