Infrared Spectrum: 2-METHYL PYRAZINYL OXY BUTANE
Formula: C9 H14 N2 O
State: LIQUID
Class: COBLENTZ
Instrument: Not specified, most likely a prism, grating, or hybrid spectrometer.
Sampling: TRANSMISSION
Path length: 0.003 CM
Resolution: 4
Origin: WYANDOTTE CHEMICALS CORP., WYANDOTTE, MICHIGAN, USA
MICROMETERS	TRANSMITTANCE
1.993	0.986
2.03268	0.985
2.07236	0.97
2.11204	0.96
2.15172	0.945
2.1914	0.921
2.23108	0.916
2.27076	0.913
2.31044	0.913
2.35012	0.915
2.3898	0.916
2.42948	0.921
2.46916	0.925
2.50884	0.928
2.54851	0.926
2.58819	0.925
2.62787	0.928
2.66755	0.931
2.70723	0.935
2.74691	0.926
2.78659	0.921
2.82627	0.897
2.86595	0.898
2.90563	0.887
2.94531	0.867
2.98499	0.872
3.02467	0.882
3.06435	0.888
3.10403	0.867
3.14371	0.845
3.18339	0.817
3.22307	0.744
3.26275	0.455
3.30243	0.556
3.34211	0.121
3.38179	0.059
3.42147	0.174
3.46115	0.212
3.50083	0.461
3.54051	0.71
3.58019	0.769
3.61987	0.802
3.65954	0.784
3.69922	0.815
3.7389	0.825
3.77858	0.833
3.81826	0.83
3.85794	0.823
3.89762	0.822
3.9373	0.832
3.97698	0.835
4.01666	0.815
4.05634	0.812
4.09602	0.813
4.1357	0.82
4.17538	0.817
4.21506	0.813
4.25474	0.817
4.29442	0.822
4.3341	0.822
4.37378	0.823
4.41346	0.827
4.45314	0.822
4.49282	0.827
4.5325	0.828
4.57218	0.823
4.61186	0.817
4.65154	0.823
4.69122	0.817
4.7309	0.817
4.77057	0.827
4.81025	0.823
4.84993	0.822
4.88961	0.837
4.92929	0.828
4.96897	0.817
5.00865	0.828
5.04833	0.827
5.08801	0.813
5.12769	0.812
5.16737	0.815
5.20705	0.813
5.24673	0.805
5.28641	0.784
5.32609	0.779
5.36577	0.81
5.40545	0.817
5.44513	0.818
5.48481	0.817
5.52449	0.808
5.56417	0.784
5.60385	0.767
5.64353	0.774
5.68321	0.787
5.72289	0.799
5.76257	0.799
5.80225	0.785
5.84193	0.794
5.8816	0.77
5.92128	0.76
5.96096	0.767
6.00064	0.782
6.04032	0.78
6.08	0.774
6.11968	0.765
6.15936	0.737
6.19904	0.712
6.23872	0.554
6.2784	0.4
6.31808	0.558
6.35776	0.486
6.39744	0.156
6.43712	0.049
6.4768	0.164
6.51648	0.413
6.55616	0.566
6.59584	0.599
6.63552	0.584
6.6752	0.546
6.71488	0.44
6.75456	0.23
6.79424	0.094
6.83392	0.101
6.8736	0.086
6.91328	0.039
6.95296	0.023
6.99263	0.018
7.03231	0.023
7.07199	0.066
7.11167	0.257
7.15135	0.318
7.19103	0.187
7.23071	0.029
7.27039	0.024
7.31007	0.031
7.34975	0.033
7.38943	0.041
7.42911	0.078
7.46879	0.089
7.50847	0.144
7.54815	0.106
7.58783	0.026
7.62751	0.039
7.66719	0.079
7.70687	0.059
7.74655	0.101
7.78623	0.313
7.82591	0.438
7.86559	0.405
7.90527	0.252
7.94495	0.194
7.98463	0.169
8.02431	0.471
8.06399	0.549
8.10366	0.451
8.14334	0.436
8.18302	0.568
8.2227	0.601
8.26238	0.549
8.30206	0.392
8.34174	0.098
8.38142	0.028
8.4211	0.202
8.46078	0.222
8.50046	0.069
8.54014	0.021
8.57982	0.021
8.6195	0.094
8.65918	0.205
8.69886	0.229
8.73854	0.259
8.77822	0.426
8.8179	0.501
8.85758	0.518
8.89726	0.503
8.93694	0.538
8.97662	0.612
9.0163	0.652
9.05598	0.652
9.09566	0.641
9.13534	0.609
9.17502	0.571
9.21469	0.416
9.25437	0.363
9.29405	0.362
9.33373	0.269
9.37341	0.214
9.41309	0.257
9.45277	0.37
9.49245	0.441
9.53213	0.397
9.57181	0.365
9.61149	0.35
9.65117	0.275
9.69085	0.27
9.73053	0.269
9.77021	0.249
9.80989	0.264
9.84957	0.247
9.88925	0.23
9.92893	0.292
9.96861	0.279
10.0083	0.269
10.048	0.272
10.0876	0.285
10.1273	0.272
10.167	0.225
10.2067	0.157
10.2464	0.142
10.286	0.194
10.3257	0.225
10.3654	0.24
10.4051	0.264
10.4448	0.307
10.4844	0.355
10.5241	0.403
10.5638	0.476
10.6035	0.548
10.6432	0.604
10.6828	0.651
10.7225	0.667
10.7622	0.692
10.8019	0.7
10.8416	0.707
10.8812	0.707
10.9209	0.699
10.9606	0.667
11.0003	0.647
11.04	0.631
11.0796	0.583
11.1193	0.596
11.159	0.661
11.1987	0.679
11.2384	0.682
11.278	0.662
11.3177	0.644
11.3574	0.651
11.3971	0.626
11.4368	0.616
11.4764	0.629
11.5161	0.619
11.5558	0.588
11.5955	0.531
11.6352	0.463
11.6748	0.397
11.7145	0.378
11.7542	0.357
11.7939	0.289
11.8336	0.209
11.8732	0.146
11.9129	0.111
11.9526	0.098
11.9923	0.167
12.0319	0.323
12.0716	0.485
12.1113	0.606
12.151	0.642
12.1907	0.669
12.2303	0.687
12.27	0.7
12.3097	0.709
12.3494	0.71
12.3891	0.704
12.4287	0.687
12.4684	0.652
12.5081	0.573
12.5478	0.466
12.5875	0.335
12.6271	0.317
12.6668	0.438
12.7065	0.616
12.7462	0.664
12.7859	0.631
12.8255	0.621
12.8652	0.629
12.9049	0.629
12.9446	0.621
12.9843	0.604
13.0239	0.616
13.0636	0.659
13.1033	0.667
13.143	0.669
13.1827	0.667
13.2223	0.659
13.262	0.652
13.3017	0.644
13.3414	0.642
13.3811	0.659
13.4207	0.671
13.4604	0.674
13.5001	0.667
13.5398	0.642
13.5795	0.636
13.6191	0.639
13.6588	0.654
13.6985	0.682
13.7382	0.699
13.7779	0.72
13.8175	0.737
13.8572	0.747
13.8969	0.754
13.9366	0.762
13.9763	0.764
14.0159	0.769
14.0556	0.77
14.0953	0.774
14.135	0.77
14.1746	0.767
14.2143	0.772
14.254	0.77
14.2937	0.772
14.3334	0.772
14.373	0.774
14.4127	0.772
14.4524	0.775
14.4921	0.779
14.5318	0.772
14.5714	0.775
14.6111	0.77
14.6508	0.772
14.6905	0.774
14.7302	0.764
14.7698	0.765
14.8095	0.76
14.8492	0.762
14.8889	0.762
14.9286	0.757
14.9682	0.752
15.0079	0.744
15.0476	0.732
15.0873	0.729
15.127	0.739
15.1666	0.744
15.2063	0.744
15.246	0.732
15.2857	0.732
15.3254	0.737
15.365	0.73
15.4047	0.729
15.4444	0.722
15.4841	0.717
15.5238	0.709
15.5634	0.7
15.6031	0.696
15.6428	0.674
15.6825	0.677
15.7222	0.672
15.7618	0.657
15.8015	0.672
15.8412	0.674
15.8809	0.669
15.9206	0.654
15.9602	0.659
