Infrared Spectrum: Acetic acid, (ethylenedinitrilo)tetra-, indium complex
Formula: C10 H13 N2 O8 In
State: SOLID (SPLIT MULL), FLUOROLUBE FOR 3800-1330 CM^-^1, NUJOL FOR 1330-460 CM^-^1
Class: COBLENTZ III
Instrument: DOW KBr FOREPRISM-GRATING
Instrument parameters: BLAZED AT 3.5, 12.0, 20.0 MICRON AND CHANGED AT 5.0, 7.5, 14.9 MICRON
Sampling: TRANSMISSION
Resolution: 2
Origin: DOW CHEMICAL COMPANY
1/CM	TRANSMITTANCE
3792	0.8103
3783	0.8099
3774	0.8094
3765	0.8096
3756	0.8108
3747	0.8131
3738	0.8227
3729	0.8227
3720	0.8221
3711	0.8211
3702	0.8203
3693	0.8193
3684	0.8161
3675	0.823
3666	0.8238
3657	0.8183
3648	0.816
3639	0.8114
3630	0.8044
3621	0.7967
3612	0.7874
3603	0.78
3594	0.7737
3585	0.7675
3576	0.7493
3567	0.7487
3558	0.7467
3549	0.7421
3540	0.7375
3531	0.7325
3522	0.7278
3513	0.7235
3504	0.7191
3495	0.7138
3486	0.7085
3477	0.7032
3468	0.6983
3459	0.6931
3450	0.6893
3441	0.6853
3432	0.6832
3423	0.6819
3414	0.6806
3405	0.679
3396	0.6775
3387	0.6775
3378	0.6769
3369	0.6765
3360	0.6771
3351	0.6771
3342	0.6769
3333	0.6768
3324	0.6768
3315	0.6769
3306	0.679
3297	0.6804
3288	0.6801
3279	0.6797
3270	0.6796
3261	0.6795
3252	0.6792
3243	0.6786
3234	0.6782
3225	0.6775
3216	0.6772
3207	0.6769
3198	0.6767
3189	0.6761
3180	0.6758
3171	0.6749
3162	0.6736
3153	0.6718
3144	0.6694
3135	0.6669
3126	0.6644
3117	0.6617
3108	0.659
3099	0.6568
3090	0.6547
3081	0.6518
3072	0.6476
3063	0.6421
3054	0.6374
3045	0.6339
3036	0.6308
3027	0.6279
3018	0.626
3009	0.6244
3000	0.6214
2991	0.6166
2982	0.6094
2973	0.5805
2964	0.5762
2955	0.5801
2946	0.5932
2937	0.5994
2928	0.6055
2919	0.6139
2910	0.6232
2901	0.6303
2892	0.6375
2883	0.6417
2874	0.6458
2865	0.6492
2856	0.6519
2847	0.6548
2838	0.658
2829	0.6611
2820	0.6644
2811	0.6681
2802	0.6722
2793	0.6765
2784	0.6822
2775	0.6882
2766	0.6939
2757	0.6988
2748	0.7031
2739	0.7072
2730	0.7117
2721	0.7161
2712	0.7207
2703	0.7254
2694	0.73
2685	0.7341
2676	0.7383
2667	0.7417
2658	0.7451
2649	0.748
2640	0.751
2631	0.7539
2622	0.7568
2613	0.759
2604	0.7612
2595	0.7631
2586	0.7648
2577	0.7662
2568	0.7684
2559	0.7699
2550	0.7711
2541	0.7725
2532	0.7737
2523	0.7745
2514	0.7741
2505	0.7739
2496	0.7741
2487	0.7725
2478	0.769
2469	0.7669
2460	0.7661
2451	0.7596
2442	0.7556
2433	0.7512
2424	0.7494
2415	0.7537
2406	0.7634
2397	0.7675
2388	0.7701
2379	0.7717
2370	0.7742
2361	0.7771
2352	0.7798
2343	0.7832
2334	0.7864
2325	0.7887
2316	0.7893
2307	0.7897
2298	0.7925
2289	0.7961
2280	0.7995
2271	0.8028
2262	0.8061
2253	0.8114
2244	0.8175
2235	0.8238
2226	0.831
2217	0.8381
2208	0.8423
2199	0.845
2190	0.8465
2181	0.8492
2172	0.8533
2163	0.8571
2154	0.8612
2145	0.8649
2136	0.8673
2127	0.8688
2118	0.8701
2109	0.8709
2100	0.8723
2091	0.8725
2082	0.874
2073	0.8759
2064	0.8753
2055	0.8777
2046	0.8809
2037	0.8825
2028	0.886
2019	0.8852
2010	0.8803
2001	0.8813
1992	0.8825
1983	0.8832
1974	0.8846
1965	0.8864
1956	0.8866
1947	0.8878
1938	0.8866
1929	0.8866
1920	0.8858
1911	0.8841
1902	0.8833
1893	0.8841
1884	0.8849
1875	0.8844
1866	0.8838
1857	0.887
1848	0.8891
1839	0.8925
1830	0.8939
1821	0.893
1812	0.8978
1803	0.8968
1794	0.8909
1785	0.8748
1776	0.8861
1767	0.8753
1758	0.8444
1749	0.813
1740	0.7935
1731	0.7951
1722	0.8015
1713	0.8047
1704	0.7995
1695	0.7753
1686	0.7371
1677	0.6436
1668	0.5714
1659	0.5069
1650	0.4462
1641	0.3941
1632	0.2898
1623	0.159
1614	0.0668
1605	0.0421
1596	0.0469
1587	0.1
1578	0.1339
1569	0.1514
1560	0.2718
1551	0.4154
1542	0.5253
1533	0.5776
1524	0.6221
1515	0.6501
1506	0.6621
1497	0.6654
1488	0.6558
1479	0.5581
1470	0.5641
1461	0.458
1452	0.3593
1443	0.3857
1434	0.3538
1425	0.2302
1416	0.1849
1407	0.1682
1398	0.1412
1389	0.112
1380	0.0957
1371	0.0989
1362	0.1362
1353	0.1783
1344	0.2202
1335	0.1989
1326	0.2144
1317	0.2253
1308	0.2449
1299	0.3412
1290	0.4455
1281	0.5001
1272	0.4858
1263	0.5001
1254	0.496
1245	0.6411
1236	0.6782
1227	0.6302
1218	0.7328
1209	0.7687
1200	0.7895
1191	0.81
1182	0.8268
1173	0.8227
1164	0.8571
1155	0.8536
1146	0.861
1137	0.8648
1128	0.8832
1119	0.8153
1110	0.8128
1101	0.7422
1092	0.6002
1083	0.8169
1074	0.8498
1065	0.8745
1056	0.8549
1047	0.8053
1038	0.6831
1029	0.7931
1020	0.828
1011	0.7601
1002	0.7826
993	0.8
984	0.8007
975	0.728
966	0.7561
957	0.8194
948	0.7861
939	0.5772
930	0.6198
921	0.6618
912	0.7732
903	0.7941
894	0.7971
885	0.695
876	0.7838
867	0.8058
858	0.8364
849	0.8521
840	0.8409
831	0.7236
822	0.8238
813	0.8594
804	0.8691
795	0.8721
786	0.8716
777	0.8617
768	0.8453
759	0.8171
750	0.704
741	0.5123
732	0.577
723	0.6265
714	0.7301
705	0.8121
696	0.8359
687	0.8421
678	0.8396
669	0.7818
660	0.7471
651	0.7855
642	0.8095
633	0.7925
624	0.7441
615	0.8104
606	0.8075
597	0.7518
588	0.7765
579	0.7138
570	0.676
561	0.6394
552	0.7358
543	0.7619
534	0.7592
525	0.721
516	0.7397
507	0.764
498	0.7465
489	0.7092
480	0.6968
471	0.6906
462	0.6993
