Infrared Spectrum: Propionamidine, 3,3'-dithiodi-,dihydrochloride
Formula: C6 H16 Cl2 N4 S2
State: SOLID (1 mg / 650 mg KBr DISC)
Class: COBLENTZ III
Instrument: PERKIN-ELMER 221 (GRATING)
Instrument parameters: FILTER AT 980 CM^-^1. GRATING 4000-1428 CM^-^1, NaCl PRISM 1428-650 CM^-^1
Sampling: TRANSMISSION
Resolution: 2
Origin: SOUTHERN RESEARCH INSTITUTE
1/CM	TRANSMITTANCE
632	0.3704
641	0.3461
650	0.3076
659	0.265
668	0.2594
677	0.2291
686	0.231
695	0.2303
704	0.2217
713	0.2188
722	0.2404
731	0.2778
740	0.2874
749	0.4185
758	0.5364
767	0.6138
776	0.6864
785	0.7121
794	0.7437
803	0.7605
812	0.7882
821	0.8282
830	0.8637
839	0.8794
848	0.8875
857	0.8891
866	0.8883
875	0.8861
884	0.8817
893	0.8747
902	0.8624
911	0.865
920	0.8507
929	0.8737
938	0.8412
947	0.8296
956	0.8544
965	0.8389
974	0.7773
983	0.8346
992	0.8229
1001	0.8031
1010	0.7672
1019	0.7764
1028	0.7784
1037	0.7743
1046	0.7702
1055	0.7653
1064	0.7547
1073	0.7334
1082	0.7083
1091	0.6634
1100	0.7029
1109	0.7101
1118	0.6942
1127	0.6549
1136	0.5402
1145	0.4691
1154	0.577
1163	0.7262
1172	0.7237
1181	0.7094
1190	0.6611
1199	0.6542
1208	0.6786
1217	0.6598
1226	0.5793
1235	0.6312
1244	0.6188
1253	0.5857
1262	0.5213
1271	0.4659
1280	0.5441
1289	0.5327
1298	0.4773
1307	0.4545
1316	0.4878
1325	0.4914
1334	0.4839
1343	0.4752
1352	0.464
1361	0.4564
1370	0.4506
1379	0.4463
1388	0.4295
1397	0.4037
1406	0.452
1415	0.4139
1424	0.4391
1433	0.4206
1442	0.5027
1451	0.5059
1460	0.4947
1469	0.4728
1478	0.4466
1487	0.4065
1496	0.3979
1505	0.3999
1514	0.4216
1523	0.5478
1532	0.5923
1541	0.5883
1550	0.5564
1559	0.508
1568	0.5063
1577	0.5647
1586	0.5713
1595	0.5424
1604	0.4948
1613	0.4468
1622	0.3972
1631	0.3386
1640	0.2997
1649	0.2565
1658	0.1982
1667	0.0642
1676	0.0254
1685	0.0808
1694	0.0696
1703	0.3107
1712	0.513
1721	0.6766
1730	0.7362
1739	0.7771
1748	0.8214
1757	0.8431
1766	0.8487
1775	0.8504
1784	0.8524
1793	0.8557
1802	0.8681
1811	0.8702
1820	0.8736
1829	0.8791
1838	0.879
1847	0.8756
1856	0.8719
1865	0.8675
1874	0.8625
1883	0.8582
1892	0.8543
1901	0.8509
1910	0.8464
1919	0.8404
1928	0.8373
1937	0.8344
1946	0.8313
1955	0.8273
1964	0.8219
1973	0.8142
1982	0.8079
1991	0.8022
2000	0.7977
2009	0.7928
2018	0.7878
2027	0.7831
2036	0.7786
2045	0.774
2054	0.7691
2063	0.7638
2072	0.7614
2081	0.761
2090	0.7551
2099	0.7503
2108	0.7454
2117	0.7417
2126	0.7407
2135	0.7415
2144	0.7437
2153	0.7375
2162	0.7281
2171	0.72
2180	0.7117
2189	0.7038
2198	0.6965
2207	0.6918
2216	0.6886
2225	0.6866
2234	0.6883
2243	0.6921
2252	0.7
2261	0.7052
2270	0.7044
2279	0.6994
2288	0.6953
2297	0.6931
2306	0.6909
2315	0.6885
2324	0.6839
2333	0.6787
2342	0.6749
2351	0.6731
2360	0.6721
2369	0.6713
2378	0.6693
2387	0.6666
2396	0.6621
2405	0.6564
2414	0.6504
2423	0.6451
2432	0.6394
2441	0.6328
2450	0.6281
2459	0.6256
2468	0.6223
2477	0.6003
2486	0.6184
2495	0.6147
2504	0.6083
2513	0.602
2522	0.595
2531	0.5877
2540	0.5812
2549	0.5729
2558	0.5652
2567	0.5586
2576	0.5529
2585	0.5476
2594	0.5401
2603	0.5326
2612	0.5251
2621	0.5153
2630	0.5044
2639	0.4905
2648	0.4779
2657	0.4737
2666	0.4689
2675	0.4603
2684	0.4462
2693	0.4366
2702	0.4286
2711	0.4173
2720	0.4004
2729	0.3825
2738	0.373
2747	0.3664
2756	0.3602
2765	0.3592
2774	0.3672
2783	0.3709
2792	0.3665
2801	0.3633
2810	0.3616
2819	0.3635
2828	0.3643
2837	0.3599
2846	0.352
2855	0.3393
2864	0.3245
2873	0.3043
2882	0.2806
2891	0.2633
2900	0.2424
2909	0.223
2918	0.2076
2927	0.1931
2936	0.1796
2945	0.1658
2954	0.1539
2963	0.1411
2972	0.1273
2981	0.1127
2990	0.0927
2999	0.0798
3008	0.0736
3017	0.0688
3026	0.0647
3035	0.0614
3044	0.062
3053	0.0644
3062	0.0663
3071	0.068
3080	0.0708
3089	0.0744
3098	0.0788
3107	0.0838
3116	0.0892
3125	0.0949
3134	0.1037
3143	0.1102
3152	0.1172
3161	0.1249
3170	0.1281
3179	0.1252
3188	0.1169
3197	0.1072
3206	0.096
3215	0.0885
3224	0.0836
3233	0.0813
3242	0.0803
3251	0.0797
3260	0.0791
3269	0.0786
3278	0.0797
3287	0.0811
3296	0.0855
3305	0.0966
3314	0.1153
3323	0.1376
3332	0.1624
3341	0.1818
3350	0.1992
3359	0.2122
3368	0.2592
3377	0.2782
3386	0.3023
3395	0.3347
3404	0.3702
3413	0.4088
3422	0.4419
3431	0.471
3440	0.4965
3449	0.5203
3458	0.5389
3467	0.5546
3476	0.5728
3485	0.592
3494	0.6111
3503	0.6294
3512	0.6461
3521	0.6621
3530	0.6831
3539	0.6979
3548	0.721
3557	0.7307
3566	0.7437
3575	0.7653
3584	0.7695
3593	0.7867
3602	0.8038
3611	0.8163
3620	0.8308
3629	0.8459
3638	0.8584
3647	0.8647
3656	0.8654
3665	0.8646
3674	0.8632
3683	0.8639
3692	0.8689
3701	0.8708
3710	0.8697
3719	0.8664
3728	0.862
3737	0.8581
3746	0.8566
3755	0.8571
3764	0.8564
3773	0.8547
3782	0.8492
3791	0.8418
3800	0.8372
3809	0.8366
3818	0.8296
3827	0.826
3836	0.8245
3845	0.8246
3854	0.8206
3863	0.8108
3872	0.8088
3881	0.8068
3890	0.8049
3899	0.8022
3908	0.7995
3917	0.7968
3926	0.7928
3935	0.7894
3944	0.7892
