Infrared Spectrum: p-TOLUENESULFINIC ACID, SODIUM SALT
Formula: C7 H7 Na O2 S
State: SOLID (SPLIT MULL), FLUOROLUBE FOR 3800-1330 CM^-^1, NUJOL FOR 1330-400 CM^-^1
Class: COBLENTZ II
Instrument: DOW KBr FOREPRISM-GRATING
Instrument parameters: BLAZED AT 3.5, 12.0, 20.0 MICRON AND CHANGED AT 5.0, 7.5, 14.9 MICRON
Sampling: TRANSMISSION
Resolution: 2
Origin: DOW CHEMICAL COMPANY
1/CM	TRANSMITTANCE
385	0.774
394	0.7757
403	0.7792
412	0.7833
421	0.7819
430	0.7738
439	0.7133
448	0.7481
457	0.8378
466	0.8493
475	0.8499
484	0.8306
493	0.8463
502	0.8568
511	0.8565
520	0.8557
529	0.8549
538	0.8531
547	0.8411
556	0.8231
565	0.7845
574	0.4662
583	0.7407
592	0.8314
601	0.8018
610	0.7521
619	0.5512
628	0.8444
637	0.8718
646	0.8807
655	0.8793
664	0.8766
673	0.8657
682	0.8003
691	0.8631
700	0.8536
709	0.7914
718	0.771
727	0.8101
736	0.8281
745	0.8313
754	0.8156
763	0.8423
772	0.8457
781	0.8451
790	0.8114
799	0.8099
808	0.7564
817	0.3748
826	0.8136
835	0.8293
844	0.8122
853	0.8318
862	0.8298
871	0.8274
880	0.8218
889	0.8145
898	0.8144
907	0.8128
916	0.805
925	0.7954
934	0.7857
943	0.7707
952	0.7251
961	0.5972
970	0.559
979	0.5354
988	0.4357
997	0.425
1006	0.6258
1015	0.5915
1024	0.532
1033	0.3705
1042	0.0922
1051	0.1383
1060	0.4493
1069	0.6461
1078	0.5049
1087	0.7568
1096	0.7631
1105	0.7651
1114	0.7626
1123	0.7318
1132	0.786
1141	0.7851
1150	0.7868
1159	0.7854
1168	0.7734
1177	0.7698
1186	0.7339
1195	0.7235
1204	0.72
1213	0.6993
1222	0.6885
1231	0.6864
1240	0.7231
1249	0.7515
1258	0.7601
1267	0.7606
1276	0.7624
1285	0.7571
1294	0.754
1303	0.7657
1312	0.7695
1321	0.7632
1330	0.7441
1339	0.6526
1348	0.7045
1357	0.7418
1366	0.726
1375	0.7312
1384	0.6744
1393	0.6665
1402	0.7398
1411	0.7581
1420	0.7591
1429	0.755
1438	0.7422
1447	0.7354
1456	0.7543
1465	0.781
1474	0.7912
1483	0.756
1492	0.8106
1501	0.8332
1510	0.8368
1519	0.8402
1528	0.8451
1537	0.8533
1546	0.8563
1555	0.8575
1564	0.8581
1573	0.8566
1582	0.8366
1591	0.7725
1600	0.8506
1609	0.847
1618	0.8339
1627	0.8344
1636	0.8328
1645	0.8244
1654	0.8065
1663	0.8317
1672	0.8486
1681	0.855
1690	0.8586
1699	0.8608
1708	0.8621
1717	0.8621
1726	0.862
1735	0.8615
1744	0.861
1753	0.8604
1762	0.8602
1771	0.8593
1780	0.8521
1789	0.8535
1798	0.8478
1807	0.8528
1816	0.8586
1825	0.8568
1834	0.8539
1843	0.8525
1852	0.851
1861	0.8494
1870	0.8468
1879	0.8442
1888	0.8367
1897	0.8216
1906	0.8001
1915	0.7895
1924	0.8398
1933	0.839
1942	0.8343
1951	0.8308
1960	0.8303
1969	0.8328
1978	0.8321
1987	0.8271
1996	0.8164
2005	0.8104
2014	0.8108
2023	0.8142
2032	0.8231
2041	0.8266
2050	0.8257
2059	0.8239
2068	0.8221
2077	0.8207
2086	0.8182
2095	0.8164
2104	0.8158
2113	0.815
2122	0.813
2131	0.8105
2140	0.8075
2149	0.8051
2158	0.8033
2167	0.8015
2176	0.8005
2185	0.7997
2194	0.7993
2203	0.7996
2212	0.7985
2221	0.796
2230	0.7912
2239	0.7865
2248	0.7821
2257	0.7792
2266	0.7762
2275	0.7737
2284	0.7721
2293	0.7745
2302	0.7718
2311	0.7748
2320	0.7778
2329	0.7798
2338	0.7811
2347	0.7819
2356	0.7837
2365	0.7851
2374	0.7849
2383	0.7851
2392	0.7855
2401	0.7861
2410	0.7871
2419	0.7881
2428	0.789
2437	0.7898
2446	0.7905
2455	0.7911
2464	0.7919
2473	0.7918
2482	0.7915
2491	0.7911
2500	0.7912
2509	0.7917
2518	0.7921
2527	0.7924
2536	0.7925
2545	0.7918
2554	0.7911
2563	0.7911
2572	0.7908
2581	0.7896
2590	0.7886
2599	0.7875
2608	0.7865
2617	0.7855
2626	0.7847
2635	0.784
2644	0.7833
2653	0.7821
2662	0.7811
2671	0.7799
2680	0.7782
2689	0.7765
2698	0.7748
2707	0.7721
2716	0.7651
2725	0.7722
2734	0.7728
2743	0.7718
2752	0.7699
2761	0.7675
2770	0.7651
2779	0.7636
2788	0.7624
2797	0.7599
2806	0.7543
2815	0.7483
2824	0.7401
2833	0.7283
2842	0.7146
2851	0.6878
2860	0.6718
2869	0.685
2878	0.691
2887	0.6842
2896	0.6751
2905	0.6458
2914	0.586
2923	0.6381
2932	0.6326
2941	0.6266
2950	0.6539
2959	0.6536
2968	0.6475
2977	0.6741
2986	0.6915
2995	0.6908
3004	0.6826
3013	0.6471
3022	0.644
3031	0.6212
3040	0.6737
3049	0.6649
3058	0.7276
3067	0.7233
3076	0.7395
3085	0.745
3094	0.7467
3103	0.7468
3112	0.7461
3121	0.7458
3130	0.745
3139	0.7438
3148	0.7426
3157	0.7415
3166	0.7406
3175	0.7391
3184	0.7378
3193	0.7364
3202	0.7351
3211	0.734
3220	0.7336
3229	0.7332
3238	0.7324
3247	0.7311
3256	0.7299
3265	0.7287
3274	0.7276
3283	0.7267
3292	0.7257
3301	0.7244
3310	0.7232
3319	0.7218
3328	0.7204
3337	0.7186
3346	0.7168
3355	0.715
3364	0.7131
3373	0.7111
3382	0.7093
3391	0.7074
3400	0.7056
3409	0.7038
3418	0.704
3427	0.7043
3436	0.7053
3445	0.7072
3454	0.708
3463	0.7083
3472	0.7087
3481	0.709
3490	0.7093
3499	0.7096
3508	0.7101
3517	0.7107
3526	0.7117
3535	0.7131
3544	0.7146
3553	0.7153
3562	0.7155
3571	0.7135
3580	0.695
3589	0.7108
3598	0.7122
3607	0.7061
3616	0.7142
3625	0.7147
3634	0.7146
3643	0.714
3652	0.7097
3661	0.7114
3670	0.7122
3679	0.7101
3688	0.7097
3697	0.7081
3706	0.7064
3715	0.7051
3724	0.7047
3733	0.7042
3742	0.7037
3751	0.7031
3760	0.7026
3769	0.7022
3778	0.7022
3787	0.7025
3796	0.7028
