Infrared Spectrum: NEOMYCIN PALMITATE
Formula: C28 H57 N4 O8
State: SOLID (ARNEEL C MULL); COMPENSATED
Class: COBLENTZ
Instrument: PERKIN-ELMER
Sampling: TRANSMISSION
Resolution: 4
MICROMETERS	TRANSMITTANCE
2.031	0.978
2.0677	0.983
2.10441	0.987
2.14111	0.989
2.17782	0.995
2.21452	1.001
2.25123	1.001
2.28793	1
2.32464	0.986
2.36134	0.984
2.39805	0.989
2.43475	0.992
2.47146	1.001
2.50816	1.03
2.54487	1.035
2.58157	1.035
2.61828	1.035
2.65498	1.035
2.69169	1.035
2.72839	1.033
2.7651	1.003
2.8018	0.912
2.8385	0.798
2.87521	0.677
2.91191	0.593
2.94862	0.547
2.98532	0.501
3.02203	0.454
3.05873	0.417
3.09544	0.389
3.13214	0.353
3.16885	0.336
3.20555	0.321
3.24226	0.313
3.27896	0.31
3.31567	0.302
3.35237	0.288
3.38908	0.267
3.42578	0.255
3.46249	0.224
3.49919	0.214
3.53589	0.212
3.5726	0.27
3.6093	0.318
3.64601	0.366
3.68271	0.385
3.71942	0.402
3.75612	0.415
3.79283	0.423
3.82953	0.435
3.86624	0.444
3.90294	0.46
3.93965	0.475
3.97635	0.492
4.01306	0.516
4.04976	0.541
4.08647	0.587
4.12317	0.614
4.15988	0.634
4.19658	0.662
4.23329	0.666
4.26999	0.685
4.30669	0.706
4.3434	0.741
4.3801	0.773
4.41681	0.792
4.45351	0.804
4.49022	0.828
4.52692	0.842
4.56363	0.842
4.60033	0.845
4.63704	0.844
4.67374	0.837
4.71045	0.833
4.74715	0.83
4.78386	0.83
4.82056	0.831
4.85727	0.834
4.89397	0.836
4.93068	0.837
4.96738	0.842
5.00409	0.848
5.04079	0.85
5.07749	0.857
5.1142	0.862
5.1509	0.865
5.18761	0.871
5.22431	0.877
5.26102	0.882
5.29772	0.886
5.33443	0.899
5.37113	0.905
5.40784	0.911
5.44454	0.911
5.48125	0.911
5.51795	0.908
5.55466	0.899
5.59136	0.889
5.62807	0.876
5.66477	0.824
5.70148	0.77
5.73818	0.675
5.77488	0.513
5.81159	0.506
5.84829	0.498
5.885	0.5
5.9217	0.512
5.95841	0.516
5.99511	0.512
6.03182	0.501
6.06852	0.451
6.10523	0.423
6.14193	0.403
6.17864	0.392
6.21534	0.38
6.25205	0.354
6.28875	0.302
6.32546	0.253
6.36216	0.189
6.39887	0.169
6.43557	0.143
6.47228	0.146
6.50898	0.142
6.54568	0.14
6.58239	0.157
6.61909	0.175
6.6558	0.237
6.6925	0.285
6.72921	0.328
6.76591	0.322
6.80262	0.212
6.83932	0.203
6.87603	0.256
6.91273	0.314
6.94944	0.322
6.98614	0.314
7.02285	0.295
7.05955	0.246
7.09626	0.207
7.13296	0.217
7.16967	0.24
7.20637	0.278
7.24307	0.298
7.27978	0.339
7.31648	0.389
7.35319	0.412
7.38989	0.428
7.4266	0.425
7.4633	0.446
7.50001	0.452
7.53671	0.457
7.57342	0.455
7.61012	0.422
7.64683	0.418
7.68353	0.425
7.72024	0.418
7.75694	0.409
7.79365	0.418
7.83035	0.423
7.86706	0.415
7.90376	0.422
7.94047	0.443
7.97717	0.444
8.01387	0.443
8.05058	0.467
8.08728	0.484
8.12399	0.481
8.16069	0.489
8.1974	0.516
8.2341	0.53
8.27081	0.521
8.30751	0.522
8.34422	0.524
8.38092	0.521
8.41763	0.501
8.45433	0.49
8.49104	0.486
8.52774	0.48
8.56445	0.466
8.60115	0.457
8.63786	0.454
8.67456	0.457
8.71127	0.448
8.74797	0.441
8.78467	0.438
8.82138	0.434
8.85808	0.425
8.89479	0.418
8.93149	0.417
8.9682	0.4
9.0049	0.383
9.04161	0.376
9.07831	0.356
9.11502	0.35
9.15172	0.353
9.18843	0.363
9.22513	0.363
9.26184	0.36
9.29854	0.356
9.33525	0.331
9.37195	0.347
9.40866	0.351
9.44536	0.345
9.48206	0.334
9.51877	0.327
9.55547	0.318
9.59218	0.314
9.62888	0.308
9.66559	0.308
9.70229	0.302
9.739	0.305
9.7757	0.319
9.81241	0.337
9.84911	0.348
9.88582	0.359
9.92252	0.37
9.95923	0.411
9.99593	0.444
10.0326	0.487
10.0693	0.509
10.106	0.547
10.1428	0.562
10.1795	0.573
10.2162	0.581
10.2529	0.594
10.2896	0.616
10.3263	0.636
10.363	0.652
10.3997	0.678
10.4364	0.685
10.4731	0.688
10.5098	0.691
10.5465	0.695
10.5832	0.701
10.6199	0.697
10.6566	0.694
10.6933	0.694
10.73	0.692
10.7667	0.698
10.8034	0.724
10.8401	0.749
10.8768	0.784
10.9136	0.793
10.9503	0.795
10.987	0.796
11.0237	0.788
11.0604	0.773
11.0971	0.759
11.1338	0.749
11.1705	0.74
11.2072	0.727
11.2439	0.723
11.2806	0.726
11.3173	0.73
11.354	0.732
11.3907	0.735
11.4274	0.741
11.4641	0.744
11.5008	0.747
11.5375	0.749
11.5742	0.752
11.6109	0.755
11.6476	0.753
11.6844	0.75
11.7211	0.753
11.7578	0.755
11.7945	0.755
11.8312	0.762
11.8679	0.776
11.9046	0.795
11.9413	0.801
11.978	0.804
12.0147	0.808
12.0514	0.81
12.0881	0.808
12.1248	0.81
12.1615	0.807
12.1982	0.81
12.2349	0.813
12.2716	0.813
12.3083	0.814
12.345	0.814
12.3817	0.821
12.4184	0.822
12.4551	0.824
12.4919	0.825
12.5286	0.824
12.5653	0.819
12.602	0.818
12.6387	0.808
12.6754	0.802
12.7121	0.793
12.7488	0.784
12.7855	0.772
12.8222	0.766
12.8589	0.766
12.8956	0.772
12.9323	0.776
12.969	0.775
13.0057	0.773
13.0424	0.772
13.0791	0.764
13.1158	0.77
13.1525	0.772
13.1892	0.778
13.2259	0.776
13.2627	0.775
13.2994	0.775
13.3361	0.772
13.3728	0.766
13.4095	0.759
13.4462	0.753
13.4829	0.75
13.5196	0.746
13.5563	0.735
13.593	0.726
13.6297	0.723
13.6664	0.7
13.7031	0.672
13.7398	0.646
13.7765	0.599
13.8132	0.544
13.8499	0.467
13.8866	0.434
13.9233	0.435
13.96	0.46
13.9967	0.513
14.0335	0.581
14.0702	0.633
14.1069	0.657
14.1436	0.668
14.1803	0.678
14.217	0.689
14.2537	0.695
14.2904	0.695
14.3271	0.701
14.3638	0.709
14.4005	0.712
14.4372	0.715
14.4739	0.715
14.5106	0.714
14.5473	0.718
14.584	0.721
14.6207	0.717
14.6574	0.715
14.6941	0.718
14.7308	0.726
14.7675	0.727
14.8043	0.729
14.841	0.732
14.8777	0.733
14.9144	0.737
14.9511	0.743
14.9878	0.753
15.0245	0.75
15.0612	0.732
15.0979	0.733
15.1346	0.737
15.1713	0.74
15.208	0.74
15.2447	0.741
15.2814	0.744
15.3181	0.747
15.3548	0.75
15.3915	0.75
