Infrared Spectrum: SILVER NITRATE
Formula: Ag N O3
State: SOLID (NUJOL MULL)
Class: COBLENTZ
Instrument: Not specified, most likely a prism, grating, or hybrid spectrometer.
Sampling: TRANSMISSION
Resolution: 4
Origin: MELLON INSTITUTE
MICROMETERS	TRANSMITTANCE
2.029	0.64
2.0689	0.647
2.10881	0.652
2.14871	0.653
2.18861	0.655
2.22851	0.652
2.26842	0.652
2.30832	0.653
2.34822	0.66
2.38813	0.663
2.42803	0.662
2.46793	0.665
2.50783	0.67
2.54774	0.678
2.58764	0.683
2.62754	0.693
2.66745	0.69
2.70735	0.698
2.74725	0.7
2.78715	0.702
2.82706	0.702
2.86696	0.702
2.90686	0.705
2.94677	0.704
2.98667	0.707
3.02657	0.709
3.06647	0.709
3.10638	0.709
3.14628	0.71
3.18618	0.715
3.22609	0.719
3.26599	0.717
3.30589	0.65
3.34579	0.448
3.3857	0.332
3.4256	0.458
3.4655	0.453
3.50541	0.72
3.54531	0.755
3.58521	0.769
3.62511	0.777
3.66502	0.78
3.70492	0.782
3.74482	0.782
3.78473	0.787
3.82463	0.79
3.86453	0.792
3.90443	0.794
3.94434	0.795
3.98424	0.799
4.02414	0.799
4.06405	0.797
4.10395	0.797
4.14385	0.792
4.18375	0.789
4.22366	0.784
4.26356	0.777
4.30346	0.774
4.34337	0.775
4.38327	0.785
4.42317	0.79
4.46307	0.794
4.50298	0.797
4.54288	0.799
4.58278	0.799
4.62269	0.801
4.66259	0.802
4.70249	0.802
4.74239	0.801
4.7823	0.801
4.8222	0.802
4.8621	0.804
4.90201	0.806
4.94191	0.809
4.98181	0.812
5.02171	0.814
5.06162	0.817
5.10152	0.822
5.14142	0.826
5.18133	0.829
5.22123	0.831
5.26113	0.832
5.30103	0.836
5.34094	0.841
5.38084	0.842
5.42074	0.847
5.46065	0.852
5.50055	0.854
5.54045	0.859
5.58035	0.861
5.62026	0.864
5.66016	0.872
5.70006	0.877
5.73997	0.882
5.77987	0.889
5.81977	0.899
5.85967	0.904
5.89958	0.906
5.93948	0.909
5.97938	0.914
6.01929	0.916
6.05919	0.918
6.09909	0.919
6.13899	0.921
6.1789	0.923
6.2188	0.923
6.2587	0.923
6.29861	0.919
6.33851	0.916
6.37841	0.913
6.41831	0.909
6.45822	0.911
6.49812	0.911
6.53802	0.904
6.57793	0.903
6.61783	0.899
6.65773	0.899
6.69763	0.882
6.73754	0.846
6.77744	0.759
6.81734	0.693
6.85725	0.678
6.89715	0.673
6.93705	0.667
6.97695	0.64
7.01686	0.578
7.05676	0.493
7.09666	0.399
7.13657	0.306
7.17647	0.225
7.21637	0.175
7.25627	0.152
7.29618	0.133
7.33608	0.122
7.37598	0.117
7.41589	0.115
7.45579	0.118
7.49569	0.12
7.53559	0.137
7.5755	0.158
7.6154	0.192
7.6553	0.269
7.69521	0.327
7.73511	0.389
7.77501	0.444
7.81491	0.486
7.85482	0.558
7.89472	0.607
7.93462	0.645
7.97453	0.678
8.01443	0.704
8.05433	0.724
8.09423	0.739
8.13414	0.752
8.17404	0.764
8.21394	0.779
8.25385	0.784
8.29375	0.792
8.33365	0.802
8.37355	0.809
8.41346	0.816
8.45336	0.819
8.49326	0.822
8.53317	0.829
8.57307	0.834
8.61297	0.839
8.65287	0.846
8.69278	0.851
8.73268	0.854
8.77258	0.856
8.81249	0.857
8.85239	0.861
8.89229	0.861
8.93219	0.859
8.9721	0.861
9.012	0.864
9.0519	0.869
9.09181	0.872
9.13171	0.877
9.17161	0.879
9.21151	0.884
9.25142	0.886
9.29132	0.887
9.33122	0.891
9.37113	0.894
9.41103	0.896
9.45093	0.897
9.49083	0.897
9.53074	0.903
9.57064	0.904
9.61054	0.909
9.65045	0.911
9.69035	0.911
9.73025	0.904
9.77015	0.911
9.81006	0.913
9.84996	0.913
9.88986	0.913
9.92977	0.913
9.96967	0.914
10.0096	0.916
10.0495	0.919
10.0894	0.919
10.1293	0.911
10.1692	0.914
10.2091	0.916
10.249	0.916
10.2889	0.919
10.3288	0.921
10.3687	0.919
10.4086	0.919
10.4485	0.919
10.4884	0.919
10.5283	0.918
10.5682	0.919
10.6081	0.921
10.648	0.921
10.6879	0.924
10.7278	0.924
10.7677	0.926
10.8076	0.926
10.8475	0.924
10.8874	0.926
10.9273	0.929
10.9672	0.931
11.0071	0.931
11.047	0.929
11.0869	0.928
11.1269	0.931
11.1668	0.934
11.2067	0.939
11.2466	0.939
11.2865	0.938
11.3264	0.939
11.3663	0.941
11.4062	0.943
11.4461	0.938
11.486	0.941
11.5259	0.943
11.5658	0.941
11.6057	0.941
11.6456	0.948
11.6855	0.946
11.7254	0.944
11.7653	0.951
11.8052	0.953
11.8451	0.954
11.885	0.951
11.9249	0.924
11.9648	0.921
12.0047	0.926
12.0446	0.929
12.0845	0.931
12.1244	0.938
12.1643	0.939
12.2042	0.944
12.2441	0.951
12.284	0.956
12.3239	0.949
12.3638	0.913
12.4037	0.832
12.4436	0.801
12.4835	0.904
12.5235	0.931
12.5634	0.939
12.6033	0.944
12.6432	0.951
12.6831	0.953
12.723	0.953
12.7629	0.953
12.8028	0.953
12.8427	0.953
12.8826	0.951
12.9225	0.948
12.9624	0.943
13.0023	0.941
13.0422	0.938
13.0821	0.936
13.122	0.934
13.1619	0.933
13.2018	0.933
13.2417	0.929
13.2816	0.928
13.3215	0.928
13.3614	0.924
13.4013	0.916
13.4412	0.916
13.4811	0.914
13.521	0.904
13.5609	0.897
13.6008	0.889
13.6407	0.892
13.6806	0.892
13.7205	0.886
13.7604	0.882
13.8003	0.876
13.8402	0.871
13.8801	0.871
13.9201	0.874
13.96	0.872
13.9999	0.871
14.0398	0.866
14.0797	0.857
14.1196	0.851
14.1595	0.846
14.1994	0.841
14.2393	0.834
14.2792	0.819
14.3191	0.814
14.359	0.806
14.3989	0.801
14.4388	0.797
14.4787	0.794
14.5186	0.789
14.5585	0.782
14.5984	0.772
14.6383	0.765
14.6782	0.757
14.7181	0.754
14.758	0.745
14.7979	0.734
14.8378	0.729
14.8777	0.73
14.9176	0.724
14.9575	0.712
14.9974	0.704
15.0373	0.695
15.0772	0.692
15.1171	0.688
15.157	0.685
15.1969	0.682
15.2368	0.678
15.2767	0.675
15.3167	0.672
15.3566	0.667
15.3965	0.665
15.4364	0.663
15.4763	0.662
15.5162	0.662
15.5561	0.663
15.596	0.66
15.6359	0.66
15.6758	0.66
15.7157	0.66
15.7556	0.658
15.7955	0.657
15.8354	0.657
15.8753	0.655
15.9152	0.653
15.9551	0.652
15.995	0.648
