Infrared Spectrum: TANTALATE(V), METHYL
Formula: C5 H15 O5 Ta
State: SOLID (SPLIT MULL, DRY BOX), FLUOROLUBE FOR 3800-1330 CM^-^1, NUJOL FOR 1330-400 CM^-^1
Class: COBLENTZ III
Instrument: BECKMAN IR-9 (GRATING)
Instrument parameters: ORDER CHANGES: 670, 1200, 2000 CM^-^1
Sampling: TRANSMISSION
Resolution: 2
Origin: DOW CHEMICAL COMPANY
1/CM	TRANSMITTANCE
402	0.5591
411	0.573
420	0.6069
429	0.6454
438	0.6687
447	0.6642
456	0.6392
465	0.5876
474	0.5007
483	0.4078
492	0.3171
501	0.2627
510	0.2411
519	0.2733
528	0.3218
537	0.412
546	0.564
555	0.6683
564	0.7047
573	0.7258
582	0.7632
591	0.7818
600	0.7912
609	0.7925
618	0.79
627	0.7896
636	0.7872
645	0.7824
654	0.7761
663	0.7692
672	0.7631
681	0.7667
690	0.7645
699	0.7591
708	0.7451
717	0.7222
726	0.6815
735	0.7111
744	0.7375
753	0.7541
762	0.758
771	0.7583
780	0.7564
789	0.7561
798	0.7469
807	0.7183
816	0.7046
825	0.7367
834	0.756
843	0.7668
852	0.7787
861	0.7907
870	0.8008
879	0.8108
888	0.8199
897	0.8278
906	0.8381
915	0.8496
924	0.8583
933	0.8643
942	0.8668
951	0.8677
960	0.8651
969	0.8548
978	0.8363
987	0.8057
996	0.7543
1005	0.6331
1014	0.5045
1023	0.4959
1032	0.5789
1041	0.6353
1050	0.646
1059	0.6375
1068	0.5628
1077	0.4452
1086	0.2855
1095	0.1645
1104	0.1175
1113	0.0907
1122	0.0983
1131	0.2269
1140	0.3123
1149	0.3644
1158	0.3534
1167	0.3504
1176	0.439
1185	0.5627
1194	0.6593
1203	0.7614
1212	0.8075
1221	0.8253
1230	0.8411
1239	0.8541
1248	0.8628
1257	0.872
1266	0.8782
1275	0.8815
1284	0.8833
1293	0.8832
1302	0.8805
1311	0.8771
1320	0.8832
1329	0.8837
1338	0.7599
1347	0.6894
1356	0.7611
1365	0.7939
1374	0.8025
1383	0.8001
1392	0.7939
1401	0.7794
1410	0.7599
1419	0.708
1428	0.6125
1437	0.4329
1446	0.4888
1455	0.4749
1464	0.4829
1473	0.6688
1482	0.7517
1491	0.7807
1500	0.7992
1509	0.8137
1518	0.8237
1527	0.8295
1536	0.8386
1545	0.8344
1554	0.8338
1563	0.8325
1572	0.8309
1581	0.8287
1590	0.8286
1599	0.8282
1608	0.8262
1617	0.8195
1626	0.8128
1635	0.8101
1644	0.8064
1653	0.8064
1662	0.8122
1671	0.8202
1680	0.8297
1689	0.8389
1698	0.848
1707	0.8568
1716	0.8658
1725	0.8744
1734	0.8814
1743	0.886
1752	0.8888
1761	0.8891
1770	0.8894
1779	0.8891
1788	0.8885
1797	0.8882
1806	0.8884
1815	0.8875
1824	0.8861
1833	0.8839
1842	0.8811
1851	0.8784
1860	0.8756
1869	0.8713
1878	0.8692
1887	0.8664
1896	0.8637
1905	0.8615
1914	0.8597
1923	0.8583
1932	0.8568
1941	0.8563
1950	0.8559
1959	0.8551
1968	0.8517
1977	0.8452
1986	0.8399
1995	0.8245
2004	0.835
2013	0.8301
2022	0.8248
2031	0.8193
2040	0.8128
2049	0.8074
2058	0.8075
2067	0.8094
2076	0.8111
2085	0.8104
2094	0.8081
2103	0.8051
2112	0.8011
2121	0.7965
2130	0.7911
2139	0.7854
2148	0.7794
2157	0.7721
2166	0.7661
2175	0.7598
2184	0.7544
2193	0.7554
2202	0.7565
2211	0.7587
2220	0.7607
2229	0.7558
2238	0.7512
2247	0.7468
2256	0.7422
2265	0.7375
2274	0.7331
2283	0.7286
2292	0.7244
2301	0.7208
2310	0.7184
2319	0.7253
2328	0.7325
2337	0.7394
2346	0.7444
2355	0.7497
2364	0.7541
2373	0.7565
2382	0.7512
2391	0.7436
2400	0.7428
2409	0.743
2418	0.7435
2427	0.7432
2436	0.7428
2445	0.7422
2454	0.7418
2463	0.7411
2472	0.7407
2481	0.74
2490	0.7388
2499	0.7374
2508	0.7361
2517	0.7349
2526	0.7338
2535	0.7312
2544	0.7289
2553	0.7246
2562	0.7171
2571	0.7074
2580	0.6986
2589	0.6899
2598	0.6818
2607	0.6745
2616	0.6728
2625	0.68
2634	0.6893
2643	0.6942
2652	0.6944
2661	0.6926
2670	0.69
2679	0.6849
2688	0.6778
2697	0.6704
2706	0.6628
2715	0.6548
2724	0.6454
2733	0.6317
2742	0.613
2751	0.5982
2760	0.5844
2769	0.5659
2778	0.5481
2787	0.5104
2796	0.4233
2805	0.2395
2814	0.1013
2823	0.0256
2832	0.0759
2841	0.2628
2850	0.378
2859	0.3732
2868	0.2951
2877	0.2169
2886	0.146
2895	0.0874
2904	0.0775
2913	0.0703
2922	0.0374
2931	0.0307
2940	0.0337
2949	0.0532
2958	0.1113
2967	0.2041
2976	0.2989
2985	0.3655
2994	0.4162
3003	0.4793
3012	0.5262
3021	0.561
3030	0.598
3039	0.6307
3048	0.6571
3057	0.6782
3066	0.6924
3075	0.7041
3084	0.7131
3093	0.7187
3102	0.7228
3111	0.7254
3120	0.7256
3129	0.725
3138	0.7238
3147	0.7224
3156	0.7208
3165	0.7193
3174	0.7181
3183	0.7168
3192	0.7151
3201	0.7125
3210	0.71
3219	0.7071
3228	0.704
3237	0.7015
3246	0.6994
3255	0.6971
3264	0.6945
3273	0.6917
3282	0.6889
3291	0.6861
3300	0.6838
3309	0.6812
3318	0.6792
3327	0.6775
3336	0.6758
3345	0.6741
3354	0.6731
3363	0.6719
3372	0.671
3381	0.67
3390	0.6689
3399	0.6676
3408	0.6665
3417	0.6653
3426	0.6642
3435	0.6633
3444	0.6626
3453	0.6621
3462	0.6615
3471	0.6608
3480	0.6604
3489	0.6599
3498	0.6595
3507	0.6591
3516	0.6589
3525	0.6586
3534	0.6584
3543	0.6582
3552	0.6581
3561	0.6578
3570	0.6578
3579	0.6575
3588	0.6575
3597	0.6574
3606	0.6572
3615	0.6571
3624	0.6571
3633	0.6568
3642	0.6565
3651	0.6564
3660	0.6561
3669	0.6562
3678	0.6565
3687	0.6568
3696	0.6571
3705	0.6572
3714	0.6575
3723	0.6575
3732	0.6574
3741	0.6568
3750	0.6565
3759	0.6558
3768	0.6551
3777	0.6551
3786	0.6558
3795	0.6567
