Infrared Spectrum: 4,7,13,16-TETRAOXA-1,10-DITHIACYCLOOCTADECANE-1,10-METHO-P-TOSYLATE
Formula: C28 H44 O10 S4
State: SOLID (KBr PRESSING)
Melting point: 147 C
Class: COBLENTZ
Instrument: Not specified, most likely a prism, grating, or hybrid spectrometer.
Sampling: TRANSMISSION
Resolution: 4
Origin: EASTMAN KODAK COMPANY, RESEARCH LABORATORIES, ROCHESTER, N.Y.
MICROMETERS	TRANSMITTANCE
2.041	0.687
2.07627	0.692
2.11154	0.707
2.1468	0.722
2.18207	0.721
2.21734	0.714
2.25261	0.705
2.28787	0.729
2.32314	0.738
2.35841	0.731
2.39368	0.742
2.42894	0.738
2.46421	0.74
2.49948	0.735
2.53475	0.754
2.57002	0.782
2.60528	0.805
2.64055	0.819
2.67582	0.828
2.71109	0.826
2.74635	0.822
2.78162	0.784
2.81689	0.71
2.85216	0.671
2.88742	0.636
2.92269	0.626
2.95796	0.661
2.99323	0.707
3.02849	0.74
3.06376	0.761
3.09903	0.77
3.1343	0.782
3.16957	0.801
3.20483	0.796
3.2401	0.785
3.27537	0.707
3.31064	0.454
3.3459	0.485
3.38117	0.628
3.41644	0.45
3.45171	0.34
3.48697	0.352
3.52224	0.58
3.55751	0.664
3.59278	0.714
3.62805	0.773
3.66331	0.796
3.69858	0.843
3.73385	0.85
3.76912	0.88
3.80438	0.891
3.83965	0.901
3.87492	0.907
3.91019	0.919
3.94545	0.929
3.98072	0.929
4.01599	0.945
4.05126	0.95
4.08653	0.949
4.12179	0.942
4.15706	0.938
4.19233	0.94
4.2276	0.956
4.26286	0.968
4.29813	0.971
4.3334	0.984
4.36867	0.978
4.40393	0.989
4.4392	0.97
4.47447	0.952
4.50974	0.929
4.54501	0.95
4.58027	0.98
4.61554	1.007
4.65081	1.017
4.68608	1.024
4.72134	1.028
4.75661	1.028
4.79188	1.035
4.82715	1.035
4.86241	1.021
4.89768	1.001
4.93295	1.01
4.96822	1.001
5.00348	1.019
5.03875	1.019
5.07402	1.015
5.10929	1.005
5.14456	0.982
5.17982	0.919
5.21509	0.963
5.25036	1.012
5.28563	1.026
5.32089	1.014
5.35616	1.028
5.39143	1.035
5.4267	1.043
5.46196	1.042
5.49723	1.028
5.5325	1.026
5.56777	1.038
5.60304	1.035
5.6383	1.04
5.67357	1.045
5.70884	1.031
5.74411	1.022
5.77937	1.008
5.81464	1.007
5.84991	1.008
5.88518	1.012
5.92044	1.012
5.95571	1
5.99098	0.938
6.02625	0.912
6.06152	0.952
6.09678	0.936
6.13205	0.933
6.16732	0.931
6.20259	0.831
6.23785	0.759
6.27312	0.857
6.30839	0.922
6.34366	0.942
6.37892	0.961
6.41419	0.977
6.44946	0.961
6.48473	0.966
6.51999	0.949
6.55526	0.947
6.59053	0.95
6.6258	0.929
6.66107	0.77
6.69633	0.505
6.7316	0.492
6.76687	0.7
6.80214	0.603
6.8374	0.549
6.87267	0.522
6.90794	0.535
6.94321	0.443
6.97847	0.414
7.01374	0.277
7.04901	0.442
7.08428	0.454
7.11955	0.584
7.15481	0.577
7.19008	0.666
7.22535	0.705
7.26062	0.705
7.29588	0.478
7.33115	0.496
7.36642	0.549
7.40169	0.38
7.43695	0.726
7.47222	0.77
7.50749	0.763
7.54276	0.77
7.57803	0.778
7.61329	0.787
7.64856	0.738
7.68383	0.592
7.7191	0.426
7.75436	0.324
7.78963	0.292
7.8249	0.491
7.86017	0.549
7.89543	0.528
7.9307	0.48
7.96597	0.387
8.00124	0.294
8.03651	0.164
8.07177	0.189
8.10704	0.229
8.14231	0.159
8.17758	0.11
8.21284	0.061
8.24811	0.022
8.28338	0.015
8.31865	0.017
8.35391	0.024
8.38918	0.028
8.42445	0.026
8.45972	0.029
8.49498	0.031
8.53025	0.038
8.56552	0.112
8.60079	0.203
8.63606	0.284
8.67132	0.338
8.70659	0.363
8.74186	0.3
8.77713	0.194
8.81239	0.089
8.84766	0.047
8.88293	0.042
8.9182	0.033
8.95346	0.026
8.98873	0.022
9.024	0.028
9.05927	0.056
9.09454	0.114
9.1298	0.187
9.16507	0.254
9.20034	0.282
9.23561	0.231
9.27087	0.217
9.30614	0.205
9.34141	0.071
9.37668	0.063
9.41194	0.14
9.44721	0.145
9.48248	0.147
9.51775	0.217
9.55302	0.291
9.58828	0.291
9.62355	0.178
9.65882	0.059
9.69409	0.114
9.72935	0.24
9.76462	0.394
9.79989	0.452
9.83516	0.391
9.87042	0.124
9.90569	0.063
9.94096	0.233
9.97623	0.34
10.0115	0.364
10.0468	0.389
10.082	0.419
10.1173	0.38
10.1526	0.371
10.1878	0.41
10.2231	0.428
10.2584	0.45
10.2936	0.498
10.3289	0.538
10.3642	0.563
10.3994	0.575
10.4347	0.563
10.47	0.542
10.5052	0.582
10.5405	0.621
10.5758	0.636
10.611	0.65
10.6463	0.67
10.6816	0.668
10.7168	0.684
10.7521	0.692
10.7874	0.685
10.8227	0.698
10.8579	0.687
10.8932	0.678
10.9285	0.619
10.9637	0.473
10.999	0.249
11.0343	0.161
11.0695	0.171
11.1048	0.389
11.1401	0.5
11.1753	0.566
11.2106	0.612
11.2459	0.633
11.2811	0.659
11.3164	0.668
11.3517	0.668
11.3869	0.685
11.4222	0.692
11.4575	0.692
11.4927	0.7
11.528	0.692
11.5633	0.698
11.5985	0.703
11.6338	0.698
11.6691	0.7
11.7043	0.698
11.7396	0.701
11.7749	0.698
11.8101	0.687
11.8454	0.682
11.8807	0.666
11.9159	0.664
11.9512	0.649
11.9865	0.566
12.0218	0.512
12.057	0.403
12.0923	0.282
12.1276	0.101
12.1628	0.071
12.1981	0.14
12.2334	0.257
12.2686	0.396
12.3039	0.482
12.3392	0.531
12.3744	0.531
12.4097	0.459
12.445	0.322
12.4802	0.291
12.5155	0.391
12.5508	0.485
12.586	0.529
12.6213	0.566
12.6566	0.603
12.6918	0.633
12.7271	0.626
12.7624	0.647
12.7976	0.649
12.8329	0.65
12.8682	0.657
12.9034	0.656
12.9387	0.67
12.974	0.67
13.0092	0.666
13.0445	0.668
13.0798	0.668
13.1151	0.671
13.1503	0.671
13.1856	0.673
13.2209	0.671
13.2561	0.673
13.2914	0.673
13.3267	0.673
13.3619	0.673
13.3972	0.675
13.4325	0.675
13.4677	0.682
13.503	0.685
13.5383	0.682
13.5735	0.68
13.6088	0.677
13.6441	0.68
13.6793	0.68
13.7146	0.68
13.7499	0.673
13.7851	0.67
13.8204	0.657
13.8557	0.633
13.8909	0.603
13.9262	0.51
13.9615	0.345
13.9967	0.37
14.032	0.475
14.0673	0.549
14.1025	0.582
14.1378	0.592
14.1731	0.591
14.2083	0.582
14.2436	0.568
14.2789	0.552
14.3142	0.535
14.3494	0.503
14.3847	0.48
14.42	0.466
14.4552	0.45
14.4905	0.429
14.5258	0.37
14.561	0.317
14.5963	0.278
14.6316	0.208
14.6668	0.15
14.7021	0.096
14.7374	0.073
14.7726	0.071
14.8079	0.07
14.8432	0.091
14.8784	0.133
14.9137	0.17
14.949	0.217
14.9842	0.235
15.0195	0.249
15.0548	0.298
15.09	0.349
15.1253	0.373
15.1606	0.385
15.1958	0.392
15.2311	0.421
15.2664	0.422
15.3016	0.424
15.3369	0.431
15.3722	0.442
15.4074	0.45
15.4427	0.452
15.478	0.452
15.5133	0.468
15.5485	0.468
15.5838	0.461
15.6191	0.461
15.6543	0.463
15.6896	0.466
15.7249	0.461
15.7601	0.464
15.7954	0.464
15.8307	0.464
15.8659	0.463
15.9012	0.464
15.9365	0.47
15.9717	0.475
16.007	0.463
