Infrared Spectrum: Formic acid, (phenylazo)thio-, 2-phenyl hydrazide, copper derivative
Formula: C26 H22 Cu N8 S2
State: SOLID (SPLIT MULL), FLUOROLUBE FOR 3800-1330 CM^-^1, NUJOL FOR 1330-460 CM^-^1
Class: COBLENTZ III
Instrument: DOW KBr FOREPRISM-GRATING
Instrument parameters: BLAZED AT 3.5, 12.0, 20.0 MICRON AND CHANGED AT 5.0, 7.5, 14.9 MICRON
Sampling: TRANSMISSION
Resolution: 2
Origin: DOW CHEMICAL COMPANY
1/CM	TRANSMITTANCE
460	0.7442
469	0.7615
478	0.7548
487	0.7276
496	0.6385
505	0.6592
514	0.6903
523	0.6517
532	0.6895
541	0.7331
550	0.7441
559	0.7258
568	0.7531
577	0.7418
586	0.7954
595	0.7305
604	0.6593
613	0.711
622	0.7081
631	0.8205
640	0.827
649	0.8271
658	0.8062
667	0.7708
676	0.6905
685	0.3674
694	0.6329
703	0.7969
712	0.6799
721	0.7558
730	0.7433
739	0.6746
748	0.4237
757	0.4962
766	0.5062
775	0.6464
784	0.7053
793	0.8703
802	0.8773
811	0.8778
820	0.8691
829	0.8425
838	0.8652
847	0.8795
856	0.859
865	0.8944
874	0.8713
883	0.8598
892	0.8584
901	0.8377
910	0.8508
919	0.8187
928	0.7617
937	0.8865
946	0.8875
955	0.8678
964	0.8748
973	0.8701
982	0.867
991	0.8133
1000	0.7989
1009	0.8487
1018	0.803
1027	0.7561
1036	0.7838
1045	0.765
1054	0.7311
1063	0.6547
1072	0.4755
1081	0.5876
1090	0.5253
1099	0.4631
1108	0.4562
1117	0.4041
1126	0.3312
1135	0.299
1144	0.2508
1153	0.2727
1162	0.4127
1171	0.3183
1180	0.3459
1189	0.3264
1198	0.2587
1207	0.1985
1216	0.134
1225	0.1474
1234	0.2798
1243	0.4627
1252	0.4935
1261	0.5012
1270	0.52
1279	0.5316
1288	0.5233
1297	0.5339
1306	0.4484
1315	0.377
1324	0.353
1333	0.3514
1342	0.2661
1351	0.3473
1360	0.4562
1369	0.6525
1378	0.6914
1387	0.7582
1396	0.7738
1405	0.7668
1414	0.7475
1423	0.7203
1432	0.6621
1441	0.5842
1450	0.7017
1459	0.5038
1468	0.6583
1477	0.5334
1486	0.5239
1495	0.4949
1504	0.5352
1513	0.4889
1522	0.4006
1531	0.4101
1540	0.6273
1549	0.8125
1558	0.8524
1567	0.8367
1576	0.8011
1585	0.6551
1594	0.4767
1603	0.6134
1612	0.8313
1621	0.863
1630	0.8692
1639	0.87
1648	0.8616
1657	0.8588
1666	0.8625
1675	0.8682
1684	0.869
1693	0.8668
1702	0.8624
1711	0.8615
1720	0.8654
1729	0.865
1738	0.8656
1747	0.8633
1756	0.8611
1765	0.859
1774	0.8561
1783	0.8535
1792	0.8512
1801	0.8489
1810	0.8478
1819	0.8471
1828	0.846
1837	0.8438
1846	0.841
1855	0.8375
1864	0.8342
1873	0.8316
1882	0.829
1891	0.8262
1900	0.8234
1909	0.8195
1918	0.8192
1927	0.8133
1936	0.8078
1945	0.8036
1954	0.8042
1963	0.8094
1972	0.7978
1981	0.8021
1990	0.8032
1999	0.8075
2008	0.8051
2017	0.8028
2026	0.8001
2035	0.7964
2044	0.7908
2053	0.7871
2062	0.7838
2071	0.7803
2080	0.7769
2089	0.7746
2098	0.7721
2107	0.7697
2116	0.7669
2125	0.7642
2134	0.7614
2143	0.7585
2152	0.7547
2161	0.7508
2170	0.7469
2179	0.7432
2188	0.7395
2197	0.7358
2206	0.7322
2215	0.7287
2224	0.7249
2233	0.7211
2242	0.7175
2251	0.7139
2260	0.7104
2269	0.7068
2278	0.7037
2287	0.7006
2296	0.6957
2305	0.688
2314	0.6805
2323	0.6732
2332	0.6711
2341	0.6704
2350	0.6697
2359	0.6691
2368	0.6686
2377	0.6682
2386	0.6678
2395	0.6667
2404	0.6649
2413	0.6628
2422	0.6588
2431	0.6546
2440	0.6518
2449	0.6493
2458	0.6481
2467	0.6483
2476	0.6489
2485	0.6494
2494	0.6482
2503	0.6468
2512	0.6455
2521	0.6428
2530	0.6401
2539	0.6373
2548	0.6343
2557	0.631
2566	0.6281
2575	0.625
2584	0.6224
2593	0.6198
2602	0.6173
2611	0.6147
2620	0.6121
2629	0.6094
2638	0.6067
2647	0.604
2656	0.601
2665	0.598
2674	0.595
2683	0.5919
2692	0.5889
2701	0.5858
2710	0.5828
2719	0.5801
2728	0.5774
2737	0.5747
2746	0.5719
2755	0.5686
2764	0.5648
2773	0.561
2782	0.5573
2791	0.5536
2800	0.55
2809	0.5466
2818	0.5434
2827	0.54
2836	0.5368
2845	0.5334
2854	0.5301
2863	0.5267
2872	0.5233
2881	0.5199
2890	0.5166
2899	0.5132
2908	0.5098
2917	0.5065
2926	0.5035
2935	0.5004
2944	0.4941
2953	0.4851
2962	0.4828
2971	0.4833
2980	0.4845
2989	0.4827
2998	0.4735
3007	0.4635
3016	0.4545
3025	0.4469
3034	0.4403
3043	0.4351
3052	0.413
3061	0.4057
3070	0.4254
3079	0.436
3088	0.4428
3097	0.4473
3106	0.4507
3115	0.4527
3124	0.4516
3133	0.4479
3142	0.4433
3151	0.4379
3160	0.4315
3169	0.4249
3178	0.4192
3187	0.4136
3196	0.4079
3205	0.4018
3214	0.3955
3223	0.3802
3232	0.3666
3241	0.3979
3250	0.4136
3259	0.4124
3268	0.4108
3277	0.41
3286	0.4092
3295	0.4103
3304	0.4114
3313	0.4128
3322	0.4142
3331	0.4143
3340	0.4138
3349	0.412
3358	0.4102
3367	0.408
3376	0.4057
3385	0.403
3394	0.4005
3403	0.3979
3412	0.3952
3421	0.3925
3430	0.3898
3439	0.3871
3448	0.3848
3457	0.3825
3466	0.3804
3475	0.378
3484	0.3759
3493	0.3736
3502	0.3714
3511	0.3696
3520	0.3677
3529	0.3658
3538	0.3639
3547	0.3618
3556	0.36
3565	0.358
3574	0.3562
3583	0.3543
3592	0.3524
3601	0.3504
3610	0.3484
3619	0.3464
3628	0.3441
3637	0.3416
3646	0.3392
3655	0.3366
3664	0.3343
3673	0.3318
3682	0.3294
3691	0.3268
3700	0.3246
3709	0.3222
3718	0.3198
3727	0.3174
3736	0.3155
3745	0.3135
3754	0.3117
3763	0.3098
3772	0.3077
3781	0.3055
3790	0.3034
3799	0.3012
