Infrared Spectrum: 5-Dehydroquinic acid
Formula: C7 H10 O6
State: SOLID (NUJOL MULL)
Class: COBLENTZ III
Instrument: CARY 90 (GRATING)
Instrument parameters: GRATING CHANGES: 3000, 2000, 1200 CM^-^1
Sampling: TRANSMISSION
Resolution: 2
Origin: WESTERN REGIONAL RES. USDA
1/CM	TRANSMITTANCE
449	0.4988
458	0.5433
467	0.5352
476	0.4662
485	0.5306
494	0.5545
503	0.5633
512	0.5695
521	0.5633
530	0.5426
539	0.5648
548	0.5591
557	0.5348
566	0.5383
575	0.5264
584	0.5436
593	0.5498
602	0.5269
611	0.469
620	0.4227
629	0.2483
638	0.4474
647	0.5904
656	0.6467
665	0.6903
674	0.715
683	0.7368
692	0.7498
701	0.7376
710	0.6814
719	0.2744
728	0.5003
737	0.7034
746	0.7575
755	0.7552
764	0.7314
773	0.7041
782	0.7594
791	0.7671
800	0.7665
809	0.6862
818	0.7337
827	0.7721
836	0.7602
845	0.5922
854	0.732
863	0.7382
872	0.6374
881	0.6808
890	0.6419
899	0.5792
908	0.5048
917	0.4814
926	0.5548
935	0.5587
944	0.6575
953	0.7151
962	0.7171
971	0.6337
980	0.3691
989	0.4617
998	0.4658
1007	0.4771
1016	0.6717
1025	0.6358
1034	0.432
1043	0.1798
1052	0.4414
1061	0.6391
1070	0.5177
1079	0.1767
1088	0.1219
1097	0.0412
1106	0.1961
1115	0.2276
1124	0.3554
1133	0.6392
1142	0.7088
1151	0.7176
1160	0.638
1169	0.6575
1178	0.6942
1187	0.6533
1196	0.5734
1205	0.2695
1214	0.2222
1223	0.1407
1232	0.0726
1241	0.0499
1250	0.2201
1259	0.3718
1268	0.2729
1277	0.183
1286	0.4604
1295	0.3592
1304	0.3187
1313	0.4398
1322	0.629
1331	0.668
1340	0.6198
1349	0.5114
1358	0.4831
1367	0.4792
1376	0.2658
1385	0.3497
1394	0.4157
1403	0.3809
1412	0.4575
1421	0.5798
1430	0.3617
1439	0.3874
1448	0.3011
1457	0.2987
1466	0.3807
1475	0.6573
1484	0.738
1493	0.7534
1502	0.7826
1511	0.8118
1520	0.8351
1529	0.8368
1538	0.8383
1547	0.8117
1556	0.8562
1565	0.8667
1574	0.8648
1583	0.8625
1592	0.858
1601	0.8436
1610	0.8363
1619	0.8201
1628	0.764
1637	0.7126
1646	0.7344
1655	0.7484
1664	0.7243
1673	0.6732
1682	0.607
1691	0.5322
1700	0.3636
1709	0.1878
1718	0.0316
1727	0.0095
1736	0.0135
1745	0.1491
1754	0.4032
1763	0.5164
1772	0.6098
1781	0.6436
1790	0.6671
1799	0.6875
1808	0.7095
1817	0.7345
1826	0.7561
1835	0.7735
1844	0.7909
1853	0.8047
1862	0.8188
1871	0.8309
1880	0.8395
1889	0.8455
1898	0.8492
1907	0.8514
1916	0.8545
1925	0.856
1934	0.8532
1943	0.8485
1952	0.8433
1961	0.8422
1970	0.8477
1979	0.849
1988	0.8481
1997	0.8583
2006	0.9211
2015	0.9197
2024	0.9172
2033	0.9143
2042	0.9123
2051	0.9093
2060	0.9062
2069	0.903
2078	0.8995
2087	0.8946
2096	0.8893
2105	0.8829
2114	0.8766
2123	0.8678
2132	0.8567
2141	0.8441
2150	0.831
2159	0.8252
2168	0.8296
2177	0.8331
2186	0.8312
2195	0.8227
2204	0.8133
2213	0.8045
2222	0.7962
2231	0.7887
2240	0.7812
2249	0.7747
2258	0.7687
2267	0.7644
2276	0.76
2285	0.7543
2294	0.7464
2303	0.7375
2312	0.7272
2321	0.716
2330	0.7052
2339	0.6943
2348	0.6817
2357	0.6691
2366	0.6575
2375	0.6445
2384	0.6321
2393	0.6217
2402	0.6108
2411	0.5938
2420	0.5721
2429	0.552
2438	0.5327
2447	0.5124
2456	0.4914
2465	0.4676
2474	0.4477
2483	0.4344
2492	0.4227
2501	0.3901
2510	0.3709
2519	0.3664
2528	0.3654
2537	0.3666
2546	0.3682
2555	0.3517
2564	0.3276
2573	0.3056
2582	0.2838
2591	0.2714
2600	0.2655
2609	0.2483
2618	0.2353
2627	0.2312
2636	0.2442
2645	0.286
2654	0.3278
2663	0.3696
2672	0.395
2681	0.3935
2690	0.3827
2699	0.3741
2708	0.3701
2717	0.3676
2726	0.3667
2735	0.3667
2744	0.3611
2753	0.3405
2762	0.307
2771	0.274
2780	0.2538
2789	0.2415
2798	0.2293
2807	0.2196
2816	0.2128
2825	0.2017
2834	0.1519
2843	0.0806
2852	0.0498
2861	0.0444
2870	0.0462
2879	0.0664
2888	0.074
2897	0.0602
2906	0.0386
2915	0.0239
2924	0.0132
2933	0.0103
2942	0.0128
2951	0.0155
2960	0.0239
2969	0.0838
2978	0.1613
2987	0.2275
2996	0.2831
3005	0.3418
3014	0.3842
3023	0.4057
3032	0.4188
3041	0.4269
3050	0.434
3059	0.4391
3068	0.4436
3077	0.4459
3086	0.4482
3095	0.4502
3104	0.4521
3113	0.453
3122	0.4535
3131	0.4527
3140	0.4506
3149	0.4455
3158	0.438
3167	0.4301
3176	0.4223
3185	0.4162
3194	0.4116
3203	0.4075
3212	0.4048
3221	0.4023
3230	0.3995
3239	0.3925
3248	0.3749
3257	0.3473
3266	0.3197
3275	0.2921
3284	0.2645
3293	0.2369
3302	0.2093
3311	0.1817
3320	0.1541
3329	0.1231
3338	0.095
3347	0.0966
3356	0.1038
3365	0.1105
3374	0.1175
3383	0.128
3392	0.1585
3401	0.1914
3410	0.2252
3419	0.263
3428	0.294
3437	0.3204
3446	0.3471
3455	0.366
3464	0.3552
3473	0.288
3482	0.2205
3491	0.2603
3500	0.3898
3509	0.4748
3518	0.5288
3527	0.5566
3536	0.6002
3545	0.6477
3554	0.6984
3563	0.726
3572	0.7526
3581	0.7783
3590	0.8006
3599	0.8169
3608	0.8309
3617	0.8442
3626	0.8575
3635	0.8693
3644	0.879
3653	0.8885
3662	0.8956
3671	0.9019
3680	0.9053
3689	0.9086
3698	0.911
3707	0.9131
3716	0.9149
3725	0.9163
3734	0.9149
3743	0.9121
3752	0.9079
3761	0.9016
3770	0.8944
3779	0.8945
3788	0.8961
3797	0.8977
3806	0.8994
3815	0.9014
3824	0.9041
3833	0.9068
3842	0.91
3851	0.913
3860	0.9157
3869	0.9184
3878	0.9209
3887	0.9233
3896	0.9258
3905	0.9286
3914	0.9313
3923	0.9342
3932	0.9376
3941	0.9409
3950	0.9447
3959	0.9484
3968	0.9523
3977	0.9569
3986	0.9612
3995	0.9653
