Infrared Spectrum: Deuterophosphonic acid, dimethyl ester
Formula: C2 H6 O3 P D
State: SOLUTION (10% CCl4 FOR 3800-1330, SATURATED SOLUTION OF CS2 FOR 1330-670 CM^-^1) VS SOLVENT
Class: COBLENTZ III
Instrument: DOW KBr FOREPRISM-GRATING
Instrument parameters: BLAZED AT 3.5, 12.0, 20.0 MICRON AND CHANGED AT 5.0, 7.5, 14.9 MICRON
Sampling: TRANSMISSION
Path length: 0.011 CM, 0.011 CM
Resolution: 2
Origin: DOW CHEMICAL COMPANY
1/CM	TRANSMITTANCE
386	0.8383
395	0.8421
404	0.8454
413	0.8537
422	0.8671
431	0.8697
440	0.8547
449	0.8188
458	0.8089
467	0.8367
476	0.8384
485	0.8171
494	0.738
503	0.6669
512	0.664
521	0.637
530	0.551
539	0.3424
548	0.2341
557	0.513
566	0.7869
575	0.855
584	0.8893
593	0.9082
602	0.9165
611	0.923
620	0.9263
629	0.9295
638	0.9303
647	0.918
656	0.9063
665	0.9278
674	0.9101
683	0.9045
692	0.879
701	0.8101
710	0.6682
719	0.7346
728	0.7264
737	0.6947
746	0.6441
755	0.7032
764	0.6171
773	0.4744
782	0.2662
791	0.0703
800	0.2538
809	0.4218
818	0.4454
827	0.414
836	0.2524
845	0.0062
854	0.0182
863	0.3794
872	0.6746
881	0.754
890	0.7851
899	0.8015
908	0.8015
917	0.7974
926	0.7905
935	0.7835
944	0.7768
953	0.7445
962	0.6461
971	0.3223
980	0.2058
989	0.3494
998	0.4
1007	0.3504
1016	0.1721
1025	0.008
1034	0.006
1043	0.0069
1052	0.0071
1061	0.0073
1070	0.0095
1079	0.09
1088	0.2032
1097	0.303
1106	0.4251
1115	0.4885
1124	0.5323
1133	0.5607
1142	0.572
1151	0.5633
1160	0.5287
1169	0.4562
1178	0.2979
1187	0.1914
1196	0.32
1205	0.472
1214	0.5181
1223	0.4943
1232	0.4096
1241	0.1894
1250	0.0307
1259	0.0046
1268	0.0058
1277	0.007
1286	0.0747
1295	0.3905
1304	0.5302
1313	0.6647
1322	0.7098
1331	0.7378
1340	0.7481
1349	0.7458
1358	0.7319
1367	0.7271
1376	0.7287
1385	0.7308
1394	0.7378
1403	0.7334
1412	0.7274
1421	0.7115
1430	0.6736
1439	0.5946
1448	0.3839
1457	0.3184
1466	0.3102
1475	0.4485
1484	0.5938
1493	0.6645
1502	0.7155
1511	0.7461
1520	0.761
1529	0.7721
1538	0.7925
1547	0.8021
1556	0.7993
1565	0.7958
1574	0.7988
1583	0.8057
1592	0.8092
1601	0.8119
1610	0.8147
1619	0.8175
1628	0.8188
1637	0.8237
1646	0.8317
1655	0.8392
1664	0.8408
1673	0.8387
1682	0.8311
1691	0.8117
1700	0.8045
1709	0.7995
1718	0.7669
1727	0.7017
1736	0.6123
1745	0.556
1754	0.5147
1763	0.454
1772	0.3924
1781	0.4212
1790	0.5674
1799	0.6931
1808	0.7621
1817	0.7704
1826	0.7725
1835	0.7958
1844	0.8233
1853	0.8306
1862	0.8333
1871	0.83
1880	0.8178
1889	0.8072
1898	0.8051
1907	0.7967
1916	0.7962
1925	0.8165
1934	0.8535
1943	0.8561
1952	0.8581
1961	0.8595
1970	0.8597
1979	0.8593
1988	0.8587
1997	0.8539
2006	0.8543
2015	0.8495
2024	0.8452
2033	0.8452
2042	0.8467
2051	0.8481
2060	0.8492
2069	0.85
2078	0.851
2087	0.8525
2096	0.8545
2105	0.8571
2114	0.8593
2123	0.8611
2132	0.8628
2141	0.864
2150	0.8643
2159	0.8653
2168	0.8663
2177	0.8665
2186	0.8662
2195	0.8654
2204	0.8647
2213	0.8641
2222	0.8636
2231	0.8636
2240	0.8637
2249	0.8655
2258	0.8653
2267	0.8653
2276	0.8654
2285	0.866
2294	0.8661
2303	0.8644
2312	0.8609
2321	0.8573
2330	0.8565
2339	0.8562
2348	0.8525
2357	0.8516
2366	0.8515
2375	0.8492
2384	0.8395
2393	0.8299
2402	0.8198
2411	0.8095
2420	0.7999
2429	0.7936
2438	0.7962
2447	0.8096
2456	0.83
2465	0.8397
2474	0.839
2483	0.8368
2492	0.8336
2501	0.8268
2510	0.8182
2519	0.8083
2528	0.7947
2537	0.7799
2546	0.7698
2555	0.7646
2564	0.7681
2573	0.7789
2582	0.7968
2591	0.8143
2600	0.8271
2609	0.8318
2618	0.8347
2627	0.8367
2636	0.8386
2645	0.8445
2654	0.8528
2663	0.8562
2672	0.8559
2681	0.8552
2690	0.8547
2699	0.8536
2708	0.8514
2717	0.8494
2726	0.8628
2735	0.869
2744	0.8678
2753	0.8659
2762	0.8639
2771	0.8604
2780	0.8568
2789	0.8506
2798	0.8405
2807	0.8244
2816	0.8042
2825	0.7738
2834	0.7351
2843	0.506
2852	0.3582
2861	0.7148
2870	0.7606
2879	0.7547
2888	0.7295
2897	0.6574
2906	0.6382
2915	0.6589
2924	0.6511
2933	0.5712
2942	0.398
2951	0.1594
2960	0.2422
2969	0.491
2978	0.506
2987	0.4746
2996	0.4718
3005	0.4859
3014	0.5083
3023	0.5475
3032	0.6492
3041	0.7368
3050	0.765
3059	0.7778
3068	0.791
3077	0.8015
3086	0.8119
3095	0.8228
3104	0.8344
3113	0.8404
3122	0.8443
3131	0.8487
3140	0.8524
3149	0.8557
3158	0.859
3167	0.8621
3176	0.8654
3185	0.8671
3194	0.8687
3203	0.8699
3212	0.8708
3221	0.871
3230	0.8711
3239	0.8714
3248	0.8718
3257	0.8721
3266	0.8725
3275	0.8727
3284	0.8731
3293	0.8734
3302	0.8738
3311	0.874
3320	0.8741
3329	0.8741
3338	0.8742
3347	0.8738
3356	0.8735
3365	0.8731
3374	0.8713
3383	0.8693
3392	0.8668
3401	0.8632
3410	0.8597
3419	0.858
3428	0.857
3437	0.8517
3446	0.8515
3455	0.8516
3464	0.8518
3473	0.8538
3482	0.8561
3491	0.8587
3500	0.8618
3509	0.8658
3518	0.8692
3527	0.8725
3536	0.8758
3545	0.8792
3554	0.8835
3563	0.8859
3572	0.888
3581	0.8895
3590	0.8895
3599	0.8894
3608	0.8892
3617	0.889
3626	0.889
3635	0.889
3644	0.8889
3653	0.8887
3662	0.8885
3671	0.8892
3680	0.89
3689	0.89
3698	0.89
3707	0.8897
3716	0.8895
3725	0.8895
3734	0.8895
