Infrared Spectrum: 1-Adamantanamine, hydrochloride
Formula: C10 H18 Cl N
State: SOLID (SPLIT MULL), FLUOROLUBE FOR 3800-1330 CM^-^1, NUJOL FOR 1330-460 CM^-^1
Class: COBLENTZ III
Instrument: DOW KBr FOREPRISM-GRATING
Instrument parameters: BLAZED AT 3.5, 12.0, 20.0 MICRON AND CHANGED AT 5.0, 7.5, 14.9 MICRON
Sampling: TRANSMISSION
Resolution: 2
Origin: DOW CHEMICAL COMPANY
1/CM	TRANSMITTANCE
3786	0.6856
3777	0.6878
3768	0.6905
3759	0.6928
3750	0.6947
3741	0.6976
3732	0.6968
3723	0.7007
3714	0.7028
3705	0.7039
3696	0.7028
3687	0.7024
3678	0.708
3669	0.7118
3660	0.7118
3651	0.7149
3642	0.7175
3633	0.716
3624	0.7197
3615	0.7214
3606	0.7237
3597	0.7251
3588	0.723
3579	0.719
3570	0.725
3561	0.7278
3552	0.7308
3543	0.7328
3534	0.7347
3525	0.7365
3516	0.7382
3507	0.7395
3498	0.7408
3489	0.7415
3480	0.7424
3471	0.7431
3462	0.7432
3453	0.7418
3444	0.7386
3435	0.7353
3426	0.7324
3417	0.7392
3408	0.7461
3399	0.7521
3390	0.7562
3381	0.7598
3372	0.7658
3363	0.7712
3354	0.7741
3345	0.771
3336	0.7665
3327	0.7687
3318	0.7734
3309	0.7786
3300	0.7839
3291	0.7901
3282	0.7964
3273	0.8008
3264	0.8047
3255	0.8061
3246	0.8042
3237	0.8007
3228	0.7978
3219	0.7965
3210	0.7978
3201	0.8011
3192	0.7985
3183	0.8003
3174	0.808
3165	0.81
3156	0.8039
3147	0.7935
3138	0.7864
3129	0.7858
3120	0.7743
3111	0.7556
3102	0.7322
3093	0.7305
3084	0.7128
3075	0.6661
3066	0.6178
3057	0.5779
3048	0.5239
3039	0.4532
3030	0.3732
3021	0.363
3012	0.3372
3003	0.3205
2994	0.2968
2985	0.2749
2976	0.2764
2967	0.2342
2958	0.239
2949	0.192
2940	0.1556
2931	0.112
2922	0.0887
2913	0.0893
2904	0.1261
2895	0.1522
2886	0.1513
2877	0.1508
2868	0.162
2859	0.1153
2850	0.1322
2841	0.1882
2832	0.2215
2823	0.2411
2814	0.2565
2805	0.2899
2796	0.321
2787	0.3612
2778	0.4018
2769	0.4304
2760	0.444
2751	0.4705
2742	0.4975
2733	0.4999
2724	0.4831
2715	0.4664
2706	0.4684
2697	0.5035
2688	0.4909
2679	0.4997
2670	0.5422
2661	0.5698
2652	0.5928
2643	0.5979
2634	0.5839
2625	0.548
2616	0.577
2607	0.5876
2598	0.5472
2589	0.4822
2580	0.5791
2571	0.5862
2562	0.6012
2553	0.6262
2544	0.5968
2535	0.5986
2526	0.5857
2517	0.6453
2508	0.6583
2499	0.6694
2490	0.6595
2481	0.6521
2472	0.6721
2463	0.6853
2454	0.6939
2445	0.6798
2436	0.6754
2427	0.6898
2418	0.7055
2409	0.7086
2400	0.7085
2391	0.7161
2382	0.7228
2373	0.7283
2364	0.7333
2355	0.7378
2346	0.7431
2337	0.7468
2328	0.7462
2319	0.7406
2310	0.741
2301	0.744
2292	0.7482
2283	0.7522
2274	0.7584
2265	0.7634
2256	0.7676
2247	0.7696
2238	0.7774
2229	0.7844
2220	0.7864
2211	0.7889
2202	0.7982
2193	0.8055
2184	0.8038
2175	0.8044
2166	0.8158
2157	0.8198
2148	0.8188
2139	0.8157
2130	0.8072
2121	0.7978
2112	0.7947
2103	0.7915
2094	0.783
2085	0.7724
2076	0.7564
2067	0.7436
2058	0.7492
2049	0.7705
2040	0.794
2031	0.8187
2022	0.8249
2013	0.8311
2004	0.835
1995	0.8321
1986	0.842
1977	0.8547
1968	0.8577
1959	0.8562
1950	0.8611
1941	0.864
1932	0.8655
1923	0.8678
1914	0.8615
1905	0.8523
1896	0.8545
1887	0.8635
1878	0.8651
1869	0.8661
1860	0.868
1851	0.8678
1842	0.87
1833	0.8725
1824	0.8756
1815	0.8789
1806	0.8746
1797	0.8714
1788	0.87
1779	0.8709
1770	0.8728
1761	0.8751
1752	0.8771
1743	0.8778
1734	0.881
1725	0.8783
1716	0.8846
1707	0.8838
1698	0.8853
1689	0.8782
1680	0.8715
1671	0.8646
1662	0.8608
1653	0.8481
1644	0.8334
1635	0.8494
1626	0.8253
1617	0.8452
1608	0.6171
1599	0.6737
1590	0.7569
1581	0.8081
1572	0.8234
1563	0.8314
1554	0.8065
1545	0.8031
1536	0.8312
1527	0.8038
1518	0.6014
1509	0.6991
1500	0.6542
1491	0.7774
1482	0.8121
1473	0.8175
1464	0.8313
1455	0.6248
1446	0.7728
1437	0.7615
1428	0.7901
1419	0.8055
1410	0.8158
1401	0.8224
1392	0.8308
1383	0.8416
1374	0.7371
1365	0.4581
1356	0.7092
1347	0.6519
1338	0.6991
1329	0.6774
1320	0.641
1311	0.5472
1302	0.7031
1293	0.73
1284	0.7284
1275	0.7465
1266	0.7519
1257	0.7591
1248	0.7665
1239	0.7745
1230	0.7799
1221	0.7808
1212	0.7733
1203	0.7343
1194	0.769
1185	0.7787
1176	0.7736
1167	0.7697
1158	0.7668
1149	0.7645
1140	0.7668
1131	0.7101
1122	0.7012
1113	0.6385
1104	0.7621
1095	0.6314
1086	0.5562
1077	0.7597
1068	0.7765
1059	0.7798
1050	0.7821
1041	0.783
1032	0.7833
1023	0.7834
1014	0.7883
1005	0.789
996	0.7848
987	0.7855
978	0.7141
969	0.7543
960	0.751
951	0.7642
942	0.7697
933	0.7687
924	0.7628
915	0.7465
906	0.7661
897	0.7745
888	0.7717
879	0.7748
870	0.7838
861	0.7886
852	0.7881
843	0.7858
834	0.7907
825	0.7962
816	0.7768
807	0.7901
798	0.7983
789	0.7924
780	0.7964
771	0.7807
762	0.7831
753	0.7793
744	0.7669
735	0.7451
726	0.7098
717	0.6997
708	0.7611
699	0.7784
690	0.7774
681	0.7724
672	0.7707
663	0.7724
654	0.766
645	0.7384
636	0.7489
627	0.7428
618	0.7374
609	0.7339
600	0.7296
591	0.7246
582	0.7199
573	0.7174
564	0.7157
555	0.7071
546	0.6582
537	0.7049
528	0.7054
519	0.6969
510	0.6919
501	0.6842
492	0.6785
483	0.6824
474	0.6931
465	0.6822
