Infrared Spectrum: 5,5'-BIS-BENZYLMERCAPTO-[2,2'-AZO-1,3,4-THIADIAZOL]
Formula: C18 H14 N6 S4
State: SOLID (KBr PELLET)
Class: COBLENTZ
Instrument: Not specified, most likely a prism, grating, or hybrid spectrometer.
Sampling: TRANSMISSION
Resolution: 4
Origin: NORBERT PETRI
MICROMETERS	TRANSMITTANCE
2.03	0.254
2.06608	0.263
2.10216	0.272
2.13824	0.28
2.17431	0.283
2.21039	0.288
2.24647	0.294
2.28255	0.3
2.31863	0.305
2.35471	0.316
2.39079	0.322
2.42686	0.328
2.46294	0.333
2.49902	0.337
2.5351	0.341
2.57118	0.35
2.60726	0.359
2.64333	0.36
2.67941	0.36
2.71549	0.343
2.75157	0.315
2.78765	0.291
2.82373	0.274
2.85981	0.271
2.89588	0.276
2.93196	0.314
2.96804	0.334
3.00412	0.354
3.0402	0.367
3.07628	0.381
3.11236	0.392
3.14843	0.404
3.18451	0.411
3.22059	0.408
3.25667	0.414
3.29275	0.42
3.32883	0.425
3.3649	0.421
3.40098	0.427
3.43706	0.44
3.47314	0.448
3.50922	0.467
3.5453	0.47
3.58138	0.475
3.61745	0.481
3.65353	0.483
3.68961	0.49
3.72569	0.482
3.76177	0.488
3.79785	0.485
3.83393	0.496
3.87	0.504
3.90608	0.512
3.94216	0.509
3.97824	0.516
4.01432	0.523
4.0504	0.526
4.08647	0.524
4.12255	0.523
4.15863	0.526
4.19471	0.531
4.23079	0.533
4.26687	0.54
4.30295	0.548
4.33902	0.549
4.3751	0.552
4.41118	0.562
4.44726	0.565
4.48334	0.567
4.51942	0.567
4.5555	0.566
4.59157	0.576
4.62765	0.573
4.66373	0.578
4.69981	0.573
4.73589	0.58
4.77197	0.59
4.80805	0.595
4.84412	0.601
4.8802	0.606
4.91628	0.609
4.95236	0.615
4.98844	0.617
5.02452	0.613
5.06059	0.617
5.09667	0.618
5.13275	0.626
5.16883	0.634
5.20491	0.633
5.24099	0.634
5.27707	0.634
5.31314	0.65
5.34922	0.654
5.3853	0.657
5.42138	0.654
5.45746	0.647
5.49354	0.651
5.52962	0.661
5.56569	0.662
5.60177	0.66
5.63785	0.656
5.67393	0.662
5.71001	0.663
5.74609	0.662
5.78216	0.666
5.81824	0.666
5.85432	0.669
5.8904	0.676
5.92648	0.663
5.96256	0.655
5.99864	0.646
6.03471	0.628
6.07079	0.622
6.10687	0.626
6.14295	0.649
6.17903	0.651
6.21511	0.656
6.25119	0.677
6.28726	0.691
6.32334	0.708
6.35942	0.707
6.3955	0.714
6.43158	0.712
6.46766	0.722
6.50373	0.727
6.53981	0.734
6.57589	0.742
6.61197	0.738
6.64805	0.563
6.68413	0.707
6.72021	0.732
6.75628	0.745
6.79236	0.746
6.82844	0.58
6.86452	0.695
6.9006	0.589
6.93668	0.372
6.97276	0.607
7.00883	0.68
7.04491	0.704
7.08099	0.721
7.11707	0.727
7.15315	0.736
7.18923	0.74
7.22531	0.767
7.26138	0.786
7.29746	0.809
7.33354	0.825
7.36962	0.834
7.4057	0.838
7.44178	0.829
7.47785	0.85
7.51393	0.799
7.55001	0.651
7.58609	0.316
7.62217	0.051
7.65825	0.053
7.69433	0.166
7.7304	0.294
7.76648	0.39
7.80256	0.464
7.83864	0.543
7.87472	0.59
7.9108	0.595
7.94688	0.542
7.98295	0.454
8.01903	0.394
8.05511	0.475
8.09119	0.403
8.12727	0.542
8.16335	0.611
8.19942	0.64
8.2355	0.652
8.27158	0.651
8.30766	0.587
8.34374	0.467
8.37982	0.596
8.4159	0.644
8.45197	0.658
8.48805	0.672
8.52413	0.69
8.56021	0.69
8.59629	0.707
8.63237	0.712
8.66845	0.724
8.70452	0.74
8.7406	0.76
8.77668	0.738
8.81276	0.699
8.84884	0.733
8.88492	0.73
8.92099	0.742
8.95707	0.672
8.99315	0.447
9.02923	0.159
9.06531	0.07
9.10139	0.079
9.13747	0.194
9.17354	0.304
9.20962	0.39
9.2457	0.454
9.28178	0.504
9.31786	0.451
9.35394	0.489
9.39002	0.561
9.42609	0.563
9.46217	0.551
9.49825	0.589
9.53433	0.616
9.57041	0.619
9.60649	0.632
9.64257	0.628
9.67864	0.57
9.71472	0.611
9.7508	0.637
9.78688	0.66
9.82296	0.667
9.85904	0.672
9.89511	0.682
9.93119	0.671
9.96727	0.663
10.0034	0.688
10.0394	0.697
10.0755	0.701
10.1116	0.705
10.1477	0.707
10.1837	0.712
10.2198	0.719
10.2559	0.722
10.292	0.723
10.3281	0.728
10.3641	0.729
10.4002	0.73
10.4363	0.735
10.4724	0.74
10.5084	0.745
10.5445	0.751
10.5806	0.751
10.6167	0.756
10.6528	0.761
10.6888	0.763
10.7249	0.762
10.761	0.763
10.7971	0.762
10.8332	0.756
10.8692	0.75
10.9053	0.718
10.9414	0.728
10.9775	0.751
11.0135	0.751
11.0496	0.745
11.0857	0.756
11.1218	0.767
11.1579	0.773
11.1939	0.773
11.23	0.774
11.2661	0.777
11.3022	0.781
11.3383	0.784
11.3743	0.788
11.4104	0.79
11.4465	0.794
11.4826	0.792
11.5186	0.795
11.5547	0.801
11.5908	0.802
11.6269	0.802
11.663	0.795
11.699	0.774
11.7351	0.783
11.7712	0.79
11.8073	0.802
11.8434	0.802
11.8794	0.807
11.9155	0.807
11.9516	0.806
11.9877	0.809
12.0237	0.812
12.0598	0.795
12.0959	0.789
12.132	0.767
12.1681	0.762
12.2041	0.763
12.2402	0.766
12.2763	0.772
12.3124	0.778
12.3485	0.781
12.3845	0.785
12.4206	0.789
12.4567	0.792
12.4928	0.801
12.5288	0.801
12.5649	0.806
12.601	0.808
12.6371	0.807
12.6732	0.809
12.7092	0.807
12.7453	0.806
12.7814	0.79
12.8175	0.741
12.8536	0.638
12.8896	0.622
12.9257	0.695
12.9618	0.736
12.9979	0.732
13.0339	0.723
13.07	0.766
13.1061	0.788
13.1422	0.802
13.1783	0.807
13.2143	0.807
13.2504	0.813
13.2865	0.83
13.3226	0.823
13.3587	0.819
13.3947	0.822
13.4308	0.767
13.4669	0.655
13.503	0.503
13.539	0.496
13.5751	0.568
13.6112	0.632
13.6473	0.671
13.6834	0.7
13.7194	0.719
13.7555	0.738
13.7916	0.749
13.8277	0.758
13.8638	0.76
13.8998	0.762
13.9359	0.753
13.972	0.734
14.0081	0.691
14.0441	0.61
14.0802	0.505
14.1163	0.389
14.1524	0.297
14.1885	0.253
14.2245	0.26
14.2606	0.345
14.2967	0.42
14.3328	0.479
14.3688	0.51
14.4049	0.51
14.441	0.531
14.4771	0.572
14.5132	0.629
14.5492	0.667
14.5853	0.69
14.6214	0.706
14.6575	0.718
14.6936	0.723
14.7296	0.729
14.7657	0.736
14.8018	0.741
14.8379	0.745
14.8739	0.749
14.91	0.738
14.9461	0.733
14.9822	0.741
15.0183	0.75
15.0543	0.751
15.0904	0.755
15.1265	0.755
15.1626	0.756
15.1987	0.761
15.2347	0.762
15.2708	0.762
15.3069	0.763
15.343	0.761
15.379	0.762
