Infrared Spectrum: HEXOCYCLIUM (TRAL)
Formula: C21 H36 N2 O5 S
State: SOLID (KBr DISC)
Melting point: 200-210 C
Class: COBLENTZ III
Instrument: PERKIN-ELMER 21 (GRATING)
Instrument parameters: FILTER AT ABOUT 10 MICRONS
Sampling: TRANSMISSION
Resolution: 2
1/CM	TRANSMITTANCE
4000	0.972
3991	0.972
3982	0.972
3973	0.9721
3964	0.9721
3955	0.9721
3946	0.9725
3937	0.973
3928	0.9733
3919	0.9737
3910	0.9741
3901	0.9749
3892	0.9759
3883	0.977
3874	0.9781
3865	0.9797
3856	0.9815
3847	0.9833
3838	0.9855
3829	0.9874
3820	0.9877
3811	0.988
3802	0.9884
3793	0.9888
3784	0.9893
3775	0.9898
3766	0.9903
3757	0.9908
3748	0.9913
3739	0.9914
3730	0.9916
3721	0.9917
3712	0.9918
3703	0.9918
3694	0.9918
3685	0.9918
3676	0.9917
3667	0.9915
3658	0.9912
3649	0.9908
3640	0.9897
3631	0.9875
3622	0.9844
3613	0.9809
3604	0.9746
3595	0.9675
3586	0.9593
3577	0.9506
3568	0.9418
3559	0.933
3550	0.924
3541	0.9132
3532	0.9018
3523	0.891
3514	0.8802
3505	0.8699
3496	0.8624
3487	0.8551
3478	0.8467
3469	0.8347
3460	0.816
3451	0.7865
3442	0.7411
3433	0.6953
3424	0.6587
3415	0.6556
3406	0.6547
3397	0.6547
3388	0.6562
3379	0.6701
3370	0.6898
3361	0.7096
3352	0.7295
3343	0.7495
3334	0.7697
3325	0.7898
3316	0.8154
3307	0.8275
3298	0.8392
3289	0.8509
3280	0.8616
3271	0.8704
3262	0.8784
3253	0.8838
3244	0.8892
3235	0.8952
3226	0.9013
3217	0.9068
3208	0.9107
3199	0.9146
3190	0.9175
3181	0.9203
3172	0.9231
3163	0.9257
3154	0.9273
3145	0.9287
3136	0.9295
3127	0.9298
3118	0.9296
3109	0.9281
3100	0.9249
3091	0.9208
3082	0.9137
3073	0.9004
3064	0.8837
3055	0.8716
3046	0.8585
3037	0.8375
3028	0.8141
3019	0.7911
3010	0.7878
3001	0.7871
2992	0.7887
2983	0.7885
2974	0.7789
2965	0.7575
2956	0.7233
2947	0.6765
2938	0.5686
2929	0.4553
2920	0.4112
2911	0.4068
2902	0.4266
2893	0.4964
2884	0.5665
2875	0.6372
2866	0.6641
2857	0.6248
2848	0.5846
2839	0.6039
2830	0.6558
2821	0.7084
2812	0.7611
2803	0.8168
2794	0.8566
2785	0.8825
2776	0.8966
2767	0.9086
2758	0.9178
2749	0.9268
2740	0.9349
2731	0.9428
2722	0.9502
2713	0.9555
2704	0.9585
2695	0.9592
2686	0.9601
2677	0.9611
2668	0.9623
2659	0.9634
2650	0.9648
2641	0.9668
2632	0.9694
2623	0.9741
2614	0.9804
2605	0.9862
2596	0.9899
2587	0.9918
2578	0.9923
2569	0.9921
2560	0.9921
2551	0.9925
2542	0.9942
2533	0.9968
2524	0.9988
2515	0.9999
2506	1.0005
2497	1.0005
2488	0.9995
2479	0.9971
2470	0.9944
2461	0.994
2452	0.9954
2443	0.9974
2434	0.9994
2425	1.001
2416	1.0027
2407	1.0042
2398	1.0054
2389	1.0063
2380	1.0078
2371	1.0088
2362	1.0088
2353	1.0068
2344	1.0055
2335	1.0044
2326	1.0041
2317	1.004
2308	1.0042
2299	1.0043
2290	1.0004
2281	0.9951
2272	0.9945
2263	0.9962
2254	0.9984
2245	1.0006
2236	1.0021
2227	1.0036
2218	1.005
2209	1.0064
2200	1.0078
2191	1.0086
2182	1.0092
2173	1.0098
2164	1.0103
2155	1.0103
2146	1.0102
2137	1.0102
2128	1.0104
2119	1.0106
2110	1.0108
2101	1.0107
2092	1.0105
2083	1.0104
2074	1.0104
2065	1.0104
2056	1.0105
2047	1.0106
2038	1.0106
2029	1.0103
2020	1.0096
2011	1.008
2002	1.006
1993	1.0047
1984	1.003
1975	1.0014
1966	1.0009
1957	1.0005
1948	1.0004
1939	1.0005
1930	1.0015
1921	1.0032
1912	1.004
1903	1.0036
1894	1.0021
1885	1.0001
1876	0.9997
1867	1.0003
1858	1.0016
1849	1.0024
1840	1.0021
1831	1.0023
1822	1.0016
1813	1.0001
1804	0.9998
1795	1.0001
1786	1
1777	0.9959
1768	0.9945
1759	0.9894
1750	0.9834
1741	0.9828
1732	0.9831
1723	0.9775
1714	0.9747
1705	0.9732
1696	0.9715
1687	0.9686
1678	0.9637
1669	0.9577
1660	0.951
1651	0.9398
1642	0.9271
1633	0.9208
1624	0.9227
1615	0.9283
1606	0.9318
1597	0.9252
1588	0.9387
1579	0.9554
1570	0.9598
1561	0.9568
1552	0.9546
1543	0.9546
1534	0.9484
1525	0.9438
1516	0.9368
1507	0.9165
1498	0.7749
1489	0.5857
1480	0.5648
1471	0.609
1462	0.6538
1453	0.625
1444	0.5517
1435	0.8
1426	0.8664
1417	0.8625
1408	0.8697
1399	0.8328
1390	0.8283
1381	0.7769
1372	0.7534
1363	0.7758
1354	0.7462
1345	0.7267
1336	0.7051
1327	0.7039
1318	0.6212
1309	0.703
1300	0.7686
1291	0.7851
1282	0.7501
1273	0.5769
1264	0.4686
1255	0.3752
1246	0.1728
1237	0.0939
1228	0.0483
1219	0.0576
1210	0.2195
1201	0.4626
1192	0.5875
1183	0.6868
1174	0.7092
1165	0.7651
1156	0.7272
1147	0.7211
1138	0.7419
1129	0.6343
1120	0.6238
1111	0.6458
1102	0.7546
1093	0.8228
1084	0.8033
1075	0.7585
1066	0.6468
1057	0.3321
1048	0.6881
1039	0.7272
1030	0.6126
1021	0.464
1012	0.2735
1003	0.2284
994	0.4559
985	0.654
976	0.7578
967	0.6462
958	0.8253
949	0.9186
940	0.9168
931	0.8003
922	0.6365
913	0.7918
904	0.7975
895	0.7806
886	0.8789
877	0.9442
868	0.9151
859	0.9595
850	0.9221
841	0.962
832	0.9631
823	0.9086
814	0.9337
805	0.9464
796	0.9216
787	0.7965
778	0.7303
769	0.5458
760	0.5803
751	0.2849
742	0.386
733	0.6273
724	0.7844
715	0.6598
706	0.6116
697	0.8345
688	0.8955
679	0.7725
