Infrared Spectrum: Thorium sulfate hydrate
Formula: O8 S2 Th  * 8 H2 O
State: SOLID (SPLIT MULL), FLUOROLUBE FOR 3800-1330 CM^-^1, NUJOL FOR 1330-400 CM^-^1
Class: COBLENTZ III
Instrument: BECKMAN IR-9 (GRATING)
Instrument parameters: ORDER CHANGES: 670, 1200, 2000 CM^-^1
Sampling: TRANSMISSION
Resolution: 2
Origin: DOW CHEMICAL COMPANY
1/CM	TRANSMITTANCE
402	0.4149
411	0.4115
420	0.4162
429	0.428
438	0.4408
447	0.4546
456	0.4685
465	0.4817
474	0.4879
483	0.5028
492	0.5093
501	0.511
510	0.5035
519	0.4921
528	0.4825
537	0.4696
546	0.4504
555	0.4216
564	0.37
573	0.2972
582	0.2014
591	0.1743
600	0.2344
609	0.2108
618	0.1936
627	0.2496
636	0.2296
645	0.2034
654	0.3662
663	0.4225
672	0.438
681	0.4454
690	0.4488
699	0.4493
708	0.4441
717	0.4218
726	0.3899
735	0.4314
744	0.487
753	0.5292
762	0.561
771	0.587
780	0.61
789	0.6308
798	0.6447
807	0.6568
816	0.6707
825	0.6775
834	0.6801
843	0.6775
852	0.6696
861	0.6562
870	0.6426
879	0.6369
888	0.6376
897	0.6411
906	0.6651
915	0.6854
924	0.6862
933	0.6789
942	0.6643
951	0.6495
960	0.6312
969	0.6041
978	0.5616
987	0.5045
996	0.4201
1005	0.2881
1014	0.2317
1023	0.1682
1032	0.1226
1041	0.1071
1050	0.0559
1059	0.026
1068	0.0138
1077	0.01
1086	0.0127
1095	0.0079
1104	0
1113	0
1122	0
1131	0
1140	0
1149	0
1158	0
1167	0.0001
1176	0.0001
1185	0.0026
1194	0.0123
1203	0.0188
1212	0.0271
1221	0.0314
1230	0.0266
1239	0.0156
1248	0.0085
1257	0.0076
1266	0.008
1275	0.0198
1284	0.1314
1293	0.2275
1302	0.323
1311	0.421
1320	0.4892
1329	0.5368
1338	0.3497
1347	0.3646
1356	0.4468
1365	0.4812
1374	0.5019
1383	0.5149
1392	0.525
1401	0.5312
1410	0.5379
1419	0.5459
1428	0.557
1437	0.5652
1446	0.5703
1455	0.575
1464	0.5783
1473	0.5805
1482	0.5824
1491	0.5839
1500	0.5848
1509	0.5848
1518	0.5846
1527	0.5825
1536	0.577
1545	0.5695
1554	0.561
1563	0.551
1572	0.5357
1581	0.5134
1590	0.4876
1599	0.4567
1608	0.4096
1617	0.3103
1626	0.2838
1635	0.2732
1644	0.2787
1653	0.2897
1662	0.2972
1671	0.3049
1680	0.3328
1689	0.3738
1698	0.4241
1707	0.4504
1716	0.4728
1725	0.4866
1734	0.4953
1743	0.5028
1752	0.5103
1761	0.5178
1770	0.525
1779	0.532
1788	0.5389
1797	0.5466
1806	0.5547
1815	0.5626
1824	0.5703
1833	0.5776
1842	0.5849
1851	0.5922
1860	0.6006
1869	0.6087
1878	0.6145
1887	0.6203
1896	0.6256
1905	0.6322
1914	0.6396
1923	0.6467
1932	0.6508
1941	0.6541
1950	0.6568
1959	0.6597
1968	0.6624
1977	0.6648
1986	0.6651
1995	0.6634
2004	0.664
2013	0.6647
2022	0.6649
2031	0.6634
2040	0.6604
2049	0.6568
2058	0.6533
2067	0.6489
2076	0.6443
2085	0.6399
2094	0.6356
2103	0.6312
2112	0.626
2121	0.6208
2130	0.6155
2139	0.61
2148	0.6046
2157	0.5978
2166	0.5895
2175	0.5845
2184	0.5815
2193	0.5814
2202	0.5822
2211	0.5836
2220	0.5852
2229	0.582
2238	0.5781
2247	0.5739
2256	0.5695
2265	0.5644
2274	0.5596
2283	0.5557
2292	0.554
2301	0.5539
2310	0.5546
2319	0.5562
2328	0.5585
2337	0.5614
2346	0.5649
2355	0.5686
2364	0.5729
2373	0.5818
2382	0.5772
2391	0.5693
2400	0.5687
2409	0.5704
2418	0.5719
2427	0.5729
2436	0.5736
2445	0.5737
2454	0.5737
2463	0.574
2472	0.5743
2481	0.5747
2490	0.5751
2499	0.5753
2508	0.5753
2517	0.5751
2526	0.5749
2535	0.5745
2544	0.5741
2553	0.5732
2562	0.5718
2571	0.5701
2580	0.5685
2589	0.5664
2598	0.5638
2607	0.5612
2616	0.5586
2625	0.5558
2634	0.5522
2643	0.5487
2652	0.5449
2661	0.5399
2670	0.5349
2679	0.5298
2688	0.5242
2697	0.5184
2706	0.5127
2715	0.507
2724	0.5012
2733	0.4954
2742	0.4891
2751	0.4826
2760	0.4762
2769	0.4689
2778	0.4616
2787	0.4543
2796	0.4473
2805	0.4402
2814	0.4329
2823	0.4247
2832	0.4165
2841	0.4082
2850	0.4
2859	0.3912
2868	0.3823
2877	0.3732
2886	0.3643
2895	0.3548
2904	0.3454
2913	0.3359
2922	0.3264
2931	0.317
2940	0.3076
2949	0.2981
2958	0.2887
2967	0.279
2976	0.2693
2985	0.2595
2994	0.2498
3003	0.2393
3012	0.2285
3021	0.2179
3030	0.207
3039	0.1959
3048	0.185
3057	0.1753
3066	0.1654
3075	0.1558
3084	0.1463
3093	0.1368
3102	0.1273
3111	0.1178
3120	0.1086
3129	0.1007
3138	0.0928
3147	0.0858
3156	0.079
3165	0.0751
3174	0.0714
3183	0.0676
3192	0.065
3201	0.0625
3210	0.0612
3219	0.0603
3228	0.0594
3237	0.0583
3246	0.0572
3255	0.0563
3264	0.0558
3273	0.0552
3282	0.0545
3291	0.0536
3300	0.0526
3309	0.0509
3318	0.0492
3327	0.0479
3336	0.0469
3345	0.046
3354	0.0459
3363	0.0461
3372	0.048
3381	0.05
3390	0.0519
3399	0.054
3408	0.0561
3417	0.0582
3426	0.0619
3435	0.0658
3444	0.07
3453	0.0749
3462	0.081
3471	0.0889
3480	0.1003
3489	0.1126
3498	0.1251
3507	0.1388
3516	0.1471
3525	0.1512
3534	0.1539
3543	0.1557
3552	0.1573
3561	0.167
3570	0.2046
3579	0.2551
3588	0.2857
3597	0.3176
3606	0.3557
3615	0.4021
3624	0.446
3633	0.4823
3642	0.5732
3651	0.6522
3660	0.715
3669	0.7628
3678	0.8024
3687	0.825
3696	0.8417
3705	0.8518
3714	0.8594
3723	0.8631
3732	0.8639
3741	0.8638
3750	0.8636
3759	0.8628
3768	0.8621
3777	0.8613
3786	0.8609
3795	0.8603
3804	0.8598
