Infrared Spectrum: Acetanilide, 2-tert-butyl-5-methyl
Formula: C13 H19 N O
State: SOLID (NUJOL MULL)
Class: COBLENTZ III
Instrument: BECKMAN IR-4 (HYBRID PRISM-GRATING)
Instrument parameters: NaCl PRISM
Sampling: TRANSMISSION
Resolution: 2
Origin: MONSANTO (J. FREEMAN)
1/CM	TRANSMITTANCE
627	0.8963
636	0.9087
645	0.9131
654	0.8752
663	0.8168
672	0.8341
681	0.8552
690	0.8925
699	0.8792
708	0.8053
717	0.803
726	0.8775
735	0.85
744	0.9443
753	0.9695
762	0.9783
771	0.9711
780	0.904
789	0.9748
798	0.977
807	0.9209
816	0.4587
825	0.9451
834	0.9517
843	0.981
852	0.9826
861	0.9803
870	0.9475
879	0.7725
888	0.9727
897	0.967
906	0.9713
915	0.9662
924	0.9442
933	0.9505
942	0.947
951	0.9005
960	0.9513
969	0.8588
978	0.9104
987	0.9316
996	0.8965
1005	0.9014
1014	0.9191
1023	0.8037
1032	0.8508
1041	0.8999
1050	0.9429
1059	0.95
1068	0.9407
1077	0.8308
1086	0.8747
1095	0.9509
1104	0.9575
1113	0.9561
1122	0.9485
1131	0.9419
1140	0.8622
1149	0.9258
1158	0.9215
1167	0.9142
1176	0.9078
1185	0.9045
1194	0.8994
1203	0.8609
1212	0.8808
1221	0.8917
1230	0.882
1239	0.8394
1248	0.7739
1257	0.7199
1266	0.7332
1275	0.5389
1284	0.389
1293	0.5259
1302	0.5857
1311	0.7599
1320	0.792
1329	0.7984
1338	0.7968
1347	0.7756
1356	0.7264
1365	0.5013
1374	0.3503
1383	0.4402
1392	0.619
1401	0.6606
1410	0.6365
1419	0.7007
1428	0.6608
1437	0.5487
1446	0.438
1455	0.3409
1464	0.3133
1473	0.4058
1482	0.5068
1491	0.4692
1500	0.477
1509	0.4851
1518	0.3643
1527	0.2106
1536	0.1431
1545	0.2533
1554	0.549
1563	0.6423
1572	0.7907
1581	0.8394
1590	0.8425
1599	0.8331
1608	0.7657
1617	0.6627
1626	0.6234
1635	0.4856
1644	0.3245
1653	0.2212
1662	0.0719
1671	0.0334
1680	0.3866
1689	0.8086
1698	0.882
1707	0.9124
1716	0.928
1725	0.9351
1734	0.9343
1743	0.9297
1752	0.9219
1761	0.9194
1770	0.9289
1779	0.9332
1788	0.9354
1797	0.9371
1806	0.9373
1815	0.9372
1824	0.937
1833	0.9368
1842	0.9367
1851	0.9368
1860	0.9376
1869	0.9381
1878	0.938
1887	0.9349
1896	0.9288
1905	0.9283
1914	0.9342
1923	0.9399
1932	0.9419
1941	0.9426
1950	0.9431
1959	0.9436
1968	0.9433
1977	0.9425
1986	0.9417
1995	0.941
2004	0.9402
2013	0.9394
2022	0.9386
2031	0.9378
2040	0.9372
2049	0.9367
2058	0.936
2067	0.9355
2076	0.9349
2085	0.934
2094	0.933
2103	0.9322
2112	0.9313
2121	0.9304
2130	0.9295
2139	0.9286
2148	0.9278
2157	0.9271
2166	0.9263
2175	0.9255
2184	0.9248
2193	0.9239
2202	0.9231
2211	0.9223
2220	0.9215
2229	0.9207
2238	0.9199
2247	0.9191
2256	0.9184
2265	0.9176
2274	0.917
2283	0.9163
2292	0.9156
2301	0.9149
2310	0.9143
2319	0.9134
2328	0.9125
2337	0.9116
2346	0.9107
2355	0.9099
2364	0.909
2373	0.9081
2382	0.9073
2391	0.9064
2400	0.9056
2409	0.9048
2418	0.9039
2427	0.9032
2436	0.9023
2445	0.9015
2454	0.9007
2463	0.8998
2472	0.8987
2481	0.8978
2490	0.897
2499	0.896
2508	0.8951
2517	0.894
2526	0.8925
2535	0.8911
2544	0.8896
2553	0.8882
2562	0.8864
2571	0.8841
2580	0.8817
2589	0.8794
2598	0.877
2607	0.8746
2616	0.8723
2625	0.8701
2634	0.8679
2643	0.8658
2652	0.8637
2661	0.8616
2670	0.8596
2679	0.8577
2688	0.8557
2697	0.8537
2706	0.8512
2715	0.8488
2724	0.8463
2733	0.8438
2742	0.8405
2751	0.8342
2760	0.8236
2769	0.8126
2778	0.8023
2787	0.7905
2796	0.777
2805	0.762
2814	0.7471
2823	0.7287
2832	0.7108
2841	0.6926
2850	0.6588
2859	0.4973
2868	0.3654
2877	0.2343
2886	0.1398
2895	0.1493
2904	0.1652
2913	0.1553
2922	0.1253
2931	0.0955
2940	0.0658
2949	0.0378
2958	0.0346
2967	0.0393
2976	0.0553
2985	0.1773
2994	0.3242
3003	0.4701
3012	0.5279
3021	0.5446
3030	0.5588
3039	0.5823
3048	0.6856
3057	0.7313
3066	0.7485
3075	0.7604
3084	0.7661
3093	0.7686
3102	0.7673
3111	0.764
3120	0.758
3129	0.7457
3138	0.736
3147	0.7264
3156	0.712
3165	0.6926
3174	0.6599
3183	0.637
3192	0.6188
3201	0.598
3210	0.5696
3219	0.5407
3228	0.5089
3237	0.4345
3246	0.3595
3255	0.285
3264	0.2621
3273	0.2493
3282	0.445
3291	0.4196
3300	0.3943
3309	0.3705
3318	0.5642
3327	0.7533
3336	0.7804
3345	0.7979
3354	0.811
3363	0.8191
3372	0.826
3381	0.8313
3390	0.8361
3399	0.8393
3408	0.8421
3417	0.8436
3426	0.8451
3435	0.8465
3444	0.8475
3453	0.8482
3462	0.8489
3471	0.8496
3480	0.8503
3489	0.8505
3498	0.8508
3507	0.8511
3516	0.8515
3525	0.8522
3534	0.8528
3543	0.854
3552	0.8554
3561	0.8559
3570	0.856
3579	0.856
3588	0.8561
3597	0.8562
3606	0.8563
3615	0.8565
3624	0.8566
3633	0.8565
3642	0.8562
3651	0.8559
3660	0.8557
3669	0.8554
3678	0.8552
3687	0.855
3696	0.8547
3705	0.8544
3714	0.8541
3723	0.8536
3732	0.8531
3741	0.8526
3750	0.8521
3759	0.8516
3768	0.8511
3777	0.8503
3786	0.8493
3795	0.8483
3804	0.8474
3813	0.8463
3822	0.8454
3831	0.8444
3840	0.8433
3849	0.8422
3858	0.8412
3867	0.8401
3876	0.8391
3885	0.8381
3894	0.8371
3903	0.8361
3912	0.8352
3921	0.8342
3930	0.8333
3939	0.8324
3948	0.8315
3957	0.8306
3966	0.8297
3975	0.8288
3984	0.828
3993	0.827
