Infrared Spectrum: BENTONE 34
Formula: O11 Al2 Si4  * 2 H2 O
State: SOLID (0.3 mg / 300 mg CsI DISC) PLUS OIL
Class: COBLENTZ
Instrument: Not specified, most likely a grating spectrometer.
Sampling: TRANSMISSION
Resolution: 4
Origin: DESOTO CHEMICAL COATINGS, INC.
1/CM	TRANSMITTANCE
198.672	0.775
209.299	0.775
219.927	0.776
230.554	0.787
241.181	0.799
251.809	0.805
262.436	0.807
273.063	0.803
283.691	0.796
294.318	0.788
304.945	0.785
315.573	0.776
326.2	0.765
336.827	0.747
347.455	0.727
358.082	0.722
368.709	0.73
379.337	0.73
389.964	0.734
400.591	0.72
411.219	0.704
421.846	0.656
432.473	0.64
443.101	0.587
453.728	0.454
464.355	0.337
474.983	0.5098
485.61	0.68
496.237	0.738
506.865	0.703
517.492	0.549
528.119	0.5689
538.747	0.674
549.374	0.74
560.001	0.779
570.629	0.804
581.256	0.835
591.883	0.852
602.511	0.852
613.138	0.849
623.765	0.825
634.393	0.824
645.02	0.877
655.647	0.9
666.275	0.918
676.902	0.93
687.529	0.938
698.157	0.94
708.784	0.942
719.411	0.945
730.039	0.938
740.666	0.952
751.293	0.965
761.921	0.969
772.548	0.973
783.175	0.972
793.802	0.964
804.43	0.958
815.057	0.962
825.684	0.966
836.312	0.957
846.939	0.933
857.566	0.929
868.194	0.929
878.821	0.91
889.448	0.88
900.076	0.873
910.703	0.849
921.33	0.823
931.958	0.844
942.585	0.871
953.212	0.88
963.84	0.861
974.467	0.821
985.094	0.731
995.722	0.597
1006.35	0.4252
1016.98	0.304
1027.6	0.242
1038.23	0.211
1048.86	0.206
1059.49	0.2789
1070.11	0.359
1080.74	0.363
1091.37	0.42
1102	0.493
1112.62	0.553
1123.25	0.626
1133.88	0.735
1144.5	0.789
1155.13	0.831
1165.76	0.863
1176.39	0.889
1187.01	0.908
1197.64	0.926
1208.27	0.937
1218.9	0.953
1229.52	0.96
1240.15	0.964
1250.78	0.966
1261.41	0.968
1272.03	0.972
1282.66	0.969
1293.29	0.97
1303.91	0.972
1314.54	0.97
1325.17	0.972
1335.8	0.973
1346.42	0.97
1357.05	0.972
1367.68	0.968
1378.31	0.965
1388.93	0.964
1399.56	0.965
1410.19	0.969
1420.81	0.965
1431.44	0.965
1442.07	0.953
1452.7	0.938
1463.32	0.913
1473.95	0.898
1484.58	0.929
1495.21	0.944
1505.83	0.965
1516.46	0.966
1527.09	0.966
1537.72	0.966
1548.34	0.965
1558.97	0.964
1569.6	0.964
1580.22	0.957
1590.85	0.949
1601.48	0.929
1612.11	0.909
1622.73	0.908
1633.36	0.918
1643.99	0.926
1654.62	0.932
1665.24	0.941
1675.87	0.944
1686.5	0.95
1697.13	0.952
1707.75	0.957
1718.38	0.957
1729.01	0.96
1739.63	0.956
1750.26	0.96
1760.89	0.961
1771.52	0.961
1782.14	0.957
1792.77	0.957
1803.4	0.957
1814.03	0.957
1824.65	0.956
1835.28	0.953
1845.91	0.956
1856.54	0.953
1867.16	0.954
1877.79	0.954
1888.42	0.953
1899.04	0.952
1909.67	0.952
1920.3	0.953
1930.93	0.95
1941.55	0.948
1952.18	0.95
1962.81	0.95
1973.44	0.948
1984.06	0.946
1994.69	0.95
2005.32	0.946
2015.95	0.945
2026.57	0.946
2037.2	0.946
2047.83	0.945
2058.45	0.944
2069.08	0.9421
2079.71	0.942
2090.34	0.942
2100.96	0.942
2111.59	0.9439
2122.22	0.9411
2132.85	0.942
2143.47	0.9401
2154.1	0.94
2164.73	0.9401
2175.36	0.9381
2185.98	0.938
2196.61	0.938
2207.24	0.937
2217.86	0.938
2228.49	0.9401
2239.12	0.938
2249.75	0.9371
2260.37	0.9379
2271	0.9342
2281.63	0.9331
2292.26	0.933
2302.88	0.934
2313.51	0.936
2324.14	0.9331
2334.77	0.9291
2345.39	0.9251
2356.02	0.922
2366.65	0.9202
2377.27	0.921
2387.9	0.9258
2398.53	0.9288
2409.16	0.928
2419.78	0.926
2430.41	0.926
2441.04	0.928
2451.67	0.928
2462.29	0.928
2472.92	0.9252
2483.55	0.924
2494.18	0.922
2504.8	0.922
2515.43	0.924
2526.06	0.922
2536.68	0.921
2547.31	0.921
2557.94	0.921
2568.57	0.921
2579.19	0.921
2589.82	0.918
2600.45	0.918
2611.08	0.92
2621.7	0.9185
2632.33	0.9163
2642.96	0.916
2653.59	0.916
2664.21	0.914
2674.84	0.913
2685.47	0.9123
2696.09	0.9123
2706.72	0.912
2717.35	0.91
2727.98	0.91
2738.6	0.909
2749.23	0.909
2759.86	0.9083
2770.49	0.906
2781.11	0.9053
2791.74	0.9026
2802.37	0.9003
2813	0.8946
2823.62	0.8853
2834.25	0.7974
2844.88	0.647
2855.5	0.726
2866.13	0.7993
2876.76	0.8123
2887.39	0.8011
2898.01	0.7307
2908.64	0.5593
2919.27	0.529
2929.9	0.6743
2940.52	0.7526
2951.15	0.772
2961.78	0.7999
2972.41	0.8415
2983.03	0.8596
2993.66	0.8646
3004.29	0.868
3014.91	0.871
3025.54	0.872
3036.17	0.873
3046.8	0.873
3057.42	0.873
3068.05	0.873
3078.68	0.873
3089.31	0.872
3099.93	0.871
3110.56	0.8699
3121.19	0.869
3131.82	0.868
3142.44	0.867
3153.07	0.864
3163.7	0.8619
3174.32	0.8595
3184.95	0.8565
3195.58	0.8539
3206.21	0.8515
3216.83	0.8475
3227.46	0.8435
3238.09	0.841
3248.72	0.839
3259.34	0.834
3269.97	0.8315
3280.6	0.8265
3291.23	0.8205
3301.85	0.814
3312.48	0.8085
3323.11	0.8016
3333.73	0.794
3344.36	0.7851
3354.99	0.7795
3365.62	0.7696
3376.24	0.7592
3386.87	0.7486
3397.5	0.7411
3408.13	0.7327
3418.75	0.7236
3429.38	0.719
3440.01	0.716
3450.64	0.715
3461.26	0.715
3471.89	0.7169
3482.52	0.72
3493.14	0.7248
3503.77	0.73
3514.4	0.7332
3525.03	0.74
3535.65	0.7488
3546.28	0.7518
3556.91	0.759
3567.54	0.7658
3578.16	0.7714
3588.79	0.7716
3599.42	0.7676
3610.05	0.7596
3620.67	0.7543
3631.3	0.752
3641.93	0.7608
3652.55	0.7745
3663.18	0.7977
3673.81	0.8113
3684.44	0.8217
3695.06	0.8313
3705.69	0.8393
3716.32	0.8473
3726.95	0.849
3737.57	0.851
3748.2	0.851
3758.83	0.852
3769.45	0.852
3780.08	0.851
3790.71	0.8496
3801.34	0.8504
3811.96	0.848
3822.59	0.848
3833.22	0.848
3843.85	0.847
3854.47	0.8473
3865.1	0.8477
3875.73	0.845
3886.36	0.847
3896.98	0.847
3907.61	0.8465
3918.24	0.845
3928.86	0.845
3939.49	0.843
3950.12	0.843
3960.75	0.843
3971.37	0.843
3982	0.843
