Infrared Spectrum: COPPER DICHROMATE
Formula: Cu Cr2 O7  * 2 H2 O
State: SOLID (NUJOL MULL)
Class: COBLENTZ
Instrument: Not specified, most likely a prism, grating, or hybrid spectrometer.
Sampling: TRANSMISSION
Resolution: 4
Origin: MELLON INSTITUTE
MICROMETERS	TRANSMITTANCE
2.016	0.878
2.05699	0.89
2.09799	0.898
2.13898	0.905
2.17998	0.909
2.22097	0.912
2.26197	0.919
2.30296	0.921
2.34395	0.924
2.38495	0.927
2.42594	0.927
2.46694	0.927
2.50793	0.927
2.54893	0.933
2.58992	0.939
2.63091	0.939
2.67191	0.933
2.7129	0.871
2.7539	0.576
2.79489	0.387
2.83588	0.324
2.87688	0.308
2.91787	0.31
2.95887	0.331
2.99986	0.382
3.04086	0.416
3.08185	0.447
3.12284	0.478
3.16384	0.521
3.20483	0.555
3.24583	0.581
3.28682	0.583
3.32782	0.487
3.36881	0.495
3.4098	0.61
3.4508	0.631
3.49179	0.795
3.53279	0.833
3.57378	0.854
3.61478	0.869
3.65577	0.885
3.69676	0.897
3.73776	0.903
3.77875	0.91
3.81975	0.917
3.86074	0.921
3.90173	0.924
3.94273	0.927
3.98372	0.929
4.02472	0.931
4.06571	0.933
4.10671	0.931
4.1477	0.933
4.18869	0.933
4.22969	0.933
4.27068	0.931
4.31168	0.931
4.35267	0.931
4.39367	0.931
4.43466	0.931
4.47565	0.929
4.51665	0.929
4.55764	0.929
4.59864	0.927
4.63963	0.927
4.68063	0.929
4.72162	0.931
4.76261	0.931
4.80361	0.933
4.8446	0.934
4.8856	0.933
4.92659	0.936
4.96759	0.936
5.00858	0.938
5.04957	0.939
5.09057	0.941
5.13156	0.945
5.17256	0.946
5.21355	0.948
5.25454	0.95
5.29554	0.95
5.33653	0.95
5.37753	0.95
5.41852	0.951
5.45952	0.951
5.50051	0.951
5.5415	0.953
5.5825	0.955
5.62349	0.955
5.66449	0.957
5.70548	0.96
5.74648	0.96
5.78747	0.96
5.82846	0.955
5.86946	0.943
5.91045	0.931
5.95145	0.914
5.99244	0.847
6.03344	0.777
6.07443	0.706
6.11542	0.624
6.15642	0.626
6.19741	0.675
6.23841	0.744
6.2794	0.804
6.3204	0.833
6.36139	0.843
6.40238	0.859
6.44338	0.876
6.48437	0.895
6.52537	0.9
6.56636	0.909
6.60735	0.917
6.64835	0.924
6.68934	0.931
6.73034	0.934
6.77133	0.917
6.81233	0.893
6.85332	0.886
6.89431	0.895
6.93531	0.909
6.9763	0.924
7.0173	0.933
7.05829	0.934
7.09929	0.941
7.14028	0.946
7.18127	0.95
7.22227	0.943
7.26326	0.933
7.30426	0.936
7.34525	0.948
7.38625	0.953
7.42724	0.958
7.46823	0.96
7.50923	0.958
7.55022	0.962
7.59122	0.963
7.63221	0.963
7.6732	0.963
7.7142	0.965
7.75519	0.965
7.79619	0.969
7.83718	0.972
7.87818	0.974
7.91917	0.975
7.96016	0.977
8.00116	0.979
8.04215	0.979
8.08315	0.977
8.12414	0.977
8.16514	0.977
8.20613	0.975
8.24712	0.977
8.28812	0.977
8.32911	0.979
8.37011	0.977
8.4111	0.977
8.4521	0.977
8.49309	0.975
8.53408	0.974
8.57508	0.969
8.61607	0.965
8.65707	0.963
8.69806	0.962
8.73906	0.958
8.78005	0.955
8.82104	0.955
8.86204	0.953
8.90303	0.951
8.94403	0.951
8.98502	0.95
9.02601	0.951
9.06701	0.953
9.108	0.953
9.149	0.955
9.18999	0.957
9.23099	0.957
9.27198	0.958
9.31297	0.957
9.35397	0.957
9.39496	0.957
9.43596	0.957
9.47695	0.958
9.51795	0.955
9.55894	0.953
9.59993	0.953
9.64093	0.951
9.68192	0.951
9.72292	0.951
9.76391	0.95
9.80491	0.946
9.8459	0.943
9.88689	0.936
9.92789	0.934
9.96888	0.922
10.0099	0.903
10.0509	0.862
10.0919	0.804
10.1329	0.734
10.1739	0.672
10.2148	0.598
10.2558	0.535
10.2968	0.475
10.3378	0.42
10.3788	0.387
10.4198	0.351
10.4608	0.331
10.5018	0.313
10.5428	0.303
10.5838	0.301
10.6248	0.301
10.6658	0.3
10.7068	0.301
10.7478	0.303
10.7888	0.313
10.8298	0.346
10.8708	0.404
10.9117	0.473
10.9527	0.511
10.9937	0.533
11.0347	0.545
11.0757	0.554
11.1167	0.562
11.1577	0.569
11.1987	0.572
11.2397	0.578
11.2807	0.581
11.3217	0.583
11.3627	0.586
11.4037	0.588
11.4447	0.595
11.4857	0.6
11.5267	0.603
11.5677	0.61
11.6087	0.617
11.6496	0.626
11.6906	0.629
11.7316	0.636
11.7726	0.641
11.8136	0.644
11.8546	0.646
11.8956	0.648
11.9366	0.65
11.9776	0.651
12.0186	0.648
12.0596	0.644
12.1006	0.641
12.1416	0.639
12.1826	0.632
12.2236	0.624
12.2646	0.615
12.3056	0.603
12.3465	0.591
12.3875	0.579
12.4285	0.566
12.4695	0.545
12.5105	0.528
12.5515	0.509
12.5925	0.499
12.6335	0.485
12.6745	0.478
12.7155	0.469
12.7565	0.463
12.7975	0.454
12.8385	0.449
12.8795	0.445
12.9205	0.44
12.9615	0.437
13.0025	0.433
13.0435	0.428
13.0844	0.425
13.1254	0.42
13.1664	0.418
13.2074	0.416
13.2484	0.415
13.2894	0.415
13.3304	0.413
13.3714	0.415
13.4124	0.413
13.4534	0.415
13.4944	0.415
13.5354	0.42
13.5764	0.423
13.6174	0.43
13.6584	0.435
13.6994	0.445
13.7404	0.454
13.7813	0.464
13.8223	0.478
13.8633	0.49
13.9043	0.502
13.9453	0.518
13.9863	0.531
14.0273	0.545
14.0683	0.552
14.1093	0.566
14.1503	0.576
14.1913	0.586
14.2323	0.596
14.2733	0.603
14.3143	0.61
14.3553	0.617
14.3963	0.622
14.4373	0.629
14.4782	0.636
14.5192	0.639
14.5602	0.641
14.6012	0.644
14.6422	0.644
14.6832	0.646
14.7242	0.648
14.7652	0.648
14.8062	0.65
14.8472	0.648
14.8882	0.646
14.9292	0.648
14.9702	0.648
15.0112	0.65
15.0522	0.646
15.0932	0.646
15.1342	0.648
15.1752	0.646
15.2161	0.643
15.2571	0.643
15.2981	0.641
15.3391	0.639
15.3801	0.638
15.4211	0.634
15.4621	0.632
15.5031	0.631
15.5441	0.631
15.5851	0.631
15.6261	0.631
15.6671	0.631
15.7081	0.629
15.7491	0.627
15.7901	0.627
15.8311	0.626
15.8721	0.622
15.913	0.624
15.954	0.624
15.995	0.622
