Infrared Spectrum: p-Hydrazinobenzoic acid hydrochloride
Formula: C7 H9 Cl N2 O2
State: SOLID (SPLIT MULL), FLUOROLUBE FOR 3800-1330 CM^-^1, NUJOL FOR 1330-400 CM^-^1
Melting point: 247 C (DECOMPOSES)
Class: COBLENTZ III
Instrument: BECKMAN IR-9 (GRATING)
Instrument parameters: ORDER CHANGES: 670, 1200, 2000 CM^-^1
Sampling: TRANSMISSION
Resolution: 2
Origin: DOW CHEMICAL COMPANY
1/CM	TRANSMITTANCE
401	0.486
410	0.4898
419	0.5236
428	0.5812
437	0.6412
446	0.6738
455	0.6876
464	0.6758
473	0.5741
482	0.4303
491	0.6415
500	0.7612
509	0.6919
518	0.604
527	0.6742
536	0.3364
545	0.6711
554	0.7618
563	0.7781
572	0.7974
581	0.784
590	0.7425
599	0.6196
608	0.2519
617	0.141
626	0.7367
635	0.2811
644	0.8125
653	0.8462
662	0.8441
671	0.8271
680	0.7862
689	0.5762
698	0.5657
707	0.6389
716	0.4617
725	0.3954
734	0.5245
743	0.6949
752	0.7114
761	0.5439
770	0.328
779	0.3139
788	0.0926
797	0.1618
806	0.3509
815	0.4014
824	0.3387
833	0.4419
842	0.5667
851	0.5266
860	0.2457
869	0.1448
878	0.4343
887	0.6044
896	0.6764
905	0.7028
914	0.7106
923	0.7225
932	0.731
941	0.7369
950	0.751
959	0.6194
968	0.7719
977	0.7306
986	0.7932
995	0.7944
1004	0.7878
1013	0.7611
1022	0.7534
1031	0.7785
1040	0.6561
1049	0.6898
1058	0.7465
1067	0.7498
1076	0.7444
1085	0.7319
1094	0.7019
1103	0.6282
1112	0.5739
1121	0.29
1130	0.4683
1139	0.6254
1148	0.5667
1157	0.4297
1166	0.297
1175	0.2942
1184	0.3632
1193	0.2204
1202	0.1067
1211	0.1594
1220	0.0296
1229	0.1654
1238	0.1049
1247	0.0732
1256	0.2658
1265	0.5155
1274	0.6362
1283	0.6403
1292	0.5877
1301	0.5585
1310	0.6186
1319	0.6391
1328	0.2985
1337	0.5365
1346	0.5383
1355	0.5725
1364	0.5573
1373	0.4888
1382	0.3494
1391	0.0918
1400	0.1754
1409	0.5907
1418	0.365
1427	0.1704
1436	0.517
1445	0.6217
1454	0.6419
1463	0.606
1472	0.5504
1481	0.3491
1490	0.2644
1499	0.4122
1508	0.4696
1517	0.2264
1526	0.4433
1535	0.5266
1544	0.5493
1553	0.4953
1562	0.4944
1571	0.5212
1580	0.4551
1589	0.3376
1598	0.257
1607	0.0794
1616	0.029
1625	0.5025
1634	0.5882
1643	0.5164
1652	0.4184
1661	0.3099
1670	0.1742
1679	0.011
1688	0.0145
1697	0.235
1706	0.5346
1715	0.6775
1724	0.7994
1733	0.845
1742	0.8448
1751	0.8387
1760	0.8504
1769	0.8523
1778	0.8512
1787	0.8453
1796	0.8348
1805	0.8283
1814	0.8221
1823	0.8147
1832	0.8058
1841	0.7967
1850	0.7878
1859	0.7808
1868	0.774
1877	0.7667
1886	0.7607
1895	0.7535
1904	0.7434
1913	0.7311
1922	0.7118
1931	0.6817
1940	0.695
1949	0.7024
1958	0.6917
1967	0.6851
1976	0.684
1985	0.6845
1994	0.684
2003	0.6768
2012	0.6768
2021	0.6743
2030	0.6657
2039	0.6603
2048	0.6554
2057	0.648
2066	0.6735
2075	0.6756
2084	0.6737
2093	0.6708
2102	0.6678
2111	0.6615
2120	0.6562
2129	0.6514
2138	0.6465
2147	0.6411
2156	0.6356
2165	0.6297
2174	0.6227
2183	0.616
2192	0.6096
2201	0.6031
2210	0.5958
2219	0.5879
2228	0.58
2237	0.5729
2246	0.566
2255	0.5587
2264	0.551
2273	0.5433
2282	0.5373
2291	0.5314
2300	0.5255
2309	0.5196
2318	0.5137
2327	0.507
2336	0.501
2345	0.4972
2354	0.4948
2363	0.4912
2372	0.4873
2381	0.4734
2390	0.4579
2399	0.4443
2408	0.4318
2417	0.4203
2426	0.412
2435	0.403
2444	0.3942
2453	0.3827
2462	0.3782
2471	0.3776
2480	0.3828
2489	0.3894
2498	0.3914
2507	0.3859
2516	0.3782
2525	0.3741
2534	0.3645
2543	0.3504
2552	0.3388
2561	0.3264
2570	0.313
2579	0.3055
2588	0.2998
2597	0.2898
2606	0.2696
2615	0.2563
2624	0.2513
2633	0.2488
2642	0.2327
2651	0.2214
2660	0.22
2669	0.2182
2678	0.2059
2687	0.1936
2696	0.1827
2705	0.1722
2714	0.1626
2723	0.1568
2732	0.1542
2741	0.1537
2750	0.1528
2759	0.1506
2768	0.1463
2777	0.1453
2786	0.1448
2795	0.1402
2804	0.1292
2813	0.118
2822	0.1064
2831	0.0943
2840	0.0826
2849	0.0715
2858	0.0629
2867	0.0542
2876	0.0483
2885	0.0427
2894	0.0389
2903	0.0357
2912	0.0325
2921	0.0293
2930	0.0271
2939	0.025
2948	0.0229
2957	0.0222
2966	0.0225
2975	0.0227
2984	0.0231
2993	0.0232
3002	0.0233
3011	0.0236
3020	0.0247
3029	0.0264
3038	0.029
3047	0.033
3056	0.0372
3065	0.0434
3074	0.0501
3083	0.0586
3092	0.0694
3101	0.0817
3110	0.0952
3119	0.1101
3128	0.1378
3137	0.1607
3146	0.1833
3155	0.206
3164	0.2292
3173	0.2539
3182	0.2643
3191	0.264
3200	0.2465
3209	0.1853
3218	0.1694
3227	0.1835
3236	0.3743
3245	0.4504
3254	0.5109
3263	0.5575
3272	0.5706
3281	0.566
3290	0.5823
3299	0.6096
3308	0.6259
3317	0.632
3326	0.6312
3335	0.6286
3344	0.6257
3353	0.6232
3362	0.6192
3371	0.6145
3380	0.609
3389	0.6031
3398	0.5973
3407	0.5914
3416	0.586
3425	0.581
3434	0.576
3443	0.5701
3452	0.5642
3461	0.5596
3470	0.5551
3479	0.5506
3488	0.5467
3497	0.5428
3506	0.5389
3515	0.5349
3524	0.5309
3533	0.5278
3542	0.5256
3551	0.5222
3560	0.5181
3569	0.5139
3578	0.5098
3587	0.499
3596	0.4945
3605	0.498
3614	0.4933
3623	0.4928
3632	0.4922
3641	0.4899
3650	0.4872
3659	0.4844
3668	0.4816
3677	0.4789
3686	0.4762
3695	0.4737
3704	0.4709
3713	0.4673
3722	0.4636
3731	0.4599
3740	0.4564
3749	0.4528
3758	0.4492
3767	0.4455
3776	0.4418
3785	0.4381
3794	0.4342
