Infrared Spectrum: ETHER, 2-[(2-METHYLALLYL)THIO]ETHYL 2,6-XYLYL
Formula: C14 H20 O S
State: LIQUID (NEAT)
Class: COBLENTZ III
Instrument: PERKIN-ELMER 21 (GRATING)
Instrument parameters: NaCl PRISM
Sampling: TRANSMISSION
Path length: CAPILLARY
Resolution: 2
Origin: SMITH KLINE & FRENCH LABS.
MICROMETERS	TRANSMITTANCE
1.996	0.803
2.03012	0.803
2.06423	0.806
2.09835	0.807
2.13247	0.814
2.16659	0.819
2.2007	0.808
2.23482	0.803
2.26894	0.789
2.30306	0.778
2.33717	0.774
2.37129	0.782
2.40541	0.792
2.43952	0.795
2.47364	0.796
2.50776	0.804
2.54188	0.804
2.57599	0.802
2.61011	0.81
2.64423	0.815
2.67834	0.809
2.71246	0.808
2.74658	0.806
2.7807	0.809
2.81481	0.817
2.84893	0.812
2.88305	0.808
2.91717	0.813
2.95128	0.814
2.9854	0.807
3.01952	0.809
3.05363	0.8
3.08775	0.795
3.12187	0.809
3.15599	0.82
3.1901	0.82
3.22422	0.776
3.25834	0.685
3.29245	0.652
3.32657	0.637
3.36069	0.545
3.39481	0.45
3.42892	0.364
3.46304	0.409
3.49716	0.476
3.53128	0.603
3.56539	0.665
3.59951	0.725
3.63363	0.759
3.66774	0.751
3.70186	0.773
3.73598	0.802
3.7701	0.81
3.80421	0.812
3.83833	0.812
3.87245	0.813
3.90657	0.81
3.94068	0.82
3.9748	0.821
4.00892	0.82
4.04303	0.82
4.07715	0.818
4.11127	0.818
4.14539	0.815
4.1795	0.82
4.21362	0.829
4.24774	0.824
4.28185	0.829
4.31597	0.824
4.35009	0.82
4.38421	0.818
4.41832	0.826
4.45244	0.831
4.48656	0.83
4.52068	0.826
4.55479	0.825
4.58891	0.824
4.62303	0.824
4.65714	0.825
4.69126	0.825
4.72538	0.826
4.7595	0.83
4.79361	0.826
4.82773	0.826
4.86185	0.824
4.89596	0.823
4.93008	0.82
4.9642	0.821
4.99832	0.82
5.03243	0.819
5.06655	0.824
5.10067	0.828
5.13479	0.819
5.1689	0.806
5.20302	0.807
5.23714	0.823
5.27125	0.829
5.30537	0.826
5.33949	0.818
5.37361	0.812
5.40772	0.813
5.44184	0.824
5.47596	0.812
5.51007	0.804
5.54419	0.791
5.57831	0.8
5.61243	0.806
5.64654	0.818
5.68066	0.823
5.71478	0.826
5.7489	0.828
5.78301	0.826
5.81713	0.824
5.85125	0.824
5.88536	0.812
5.91948	0.818
5.9536	0.81
5.98772	0.784
6.02183	0.674
6.05595	0.618
6.09007	0.709
6.12419	0.746
6.1583	0.769
6.19242	0.775
6.22654	0.736
6.26065	0.686
6.29477	0.763
6.32889	0.782
6.36301	0.789
6.39712	0.78
6.43124	0.768
6.46536	0.757
6.49947	0.742
6.53359	0.747
6.56771	0.71
6.60183	0.7
6.63594	0.673
6.67006	0.592
6.70418	0.401
6.7383	0.23
6.77241	0.232
6.80653	0.287
6.84065	0.317
6.87476	0.359
6.90888	0.363
6.943	0.374
6.97712	0.402
7.01123	0.454
7.04535	0.543
7.07947	0.613
7.11358	0.614
7.1477	0.646
7.18182	0.665
7.21594	0.595
7.25005	0.407
7.28417	0.391
7.31829	0.601
7.35241	0.714
7.38652	0.75
7.42064	0.763
7.45476	0.769
7.48887	0.769
7.52299	0.764
7.55711	0.752
7.59123	0.754
7.62534	0.74
7.65946	0.723
7.69358	0.708
7.7277	0.665
7.76181	0.61
7.79593	0.619
7.83005	0.658
7.86416	0.604
7.89828	0.318
7.9324	0.343
7.96652	0.62
8.00063	0.686
8.03475	0.656
8.06887	0.626
8.10298	0.62
8.1371	0.53
8.17122	0.517
8.20534	0.5
8.23945	0.35
8.27357	0.185
8.30769	0.113
8.34181	0.119
8.37592	0.223
8.41004	0.315
8.44416	0.347
8.47827	0.485
8.51239	0.592
8.54651	0.663
8.58063	0.664
8.61474	0.667
8.64886	0.703
8.68298	0.728
8.71709	0.759
8.75121	0.765
8.78533	0.776
8.81945	0.789
8.85356	0.789
8.88768	0.787
8.9218	0.784
8.95592	0.776
8.99003	0.769
9.02415	0.745
9.05827	0.66
9.09238	0.581
9.1265	0.369
9.16062	0.309
9.19474	0.381
9.22885	0.546
9.26297	0.634
9.29709	0.664
9.3312	0.654
9.36532	0.582
9.39944	0.531
9.43356	0.53
9.46767	0.593
9.50179	0.635
9.53591	0.663
9.57003	0.656
9.60414	0.629
9.63826	0.606
9.67238	0.6
9.70649	0.578
9.74061	0.54
9.77473	0.464
9.80885	0.364
9.84296	0.331
9.87708	0.312
9.9112	0.285
9.94532	0.243
9.97943	0.241
10.0135	0.285
10.0477	0.352
10.0818	0.415
10.1159	0.482
10.15	0.525
10.1841	0.576
10.2183	0.609
10.2524	0.637
10.2865	0.647
10.3206	0.671
10.3547	0.681
10.3888	0.702
10.423	0.717
10.4571	0.745
10.4912	0.751
10.5253	0.773
10.5594	0.778
10.5935	0.791
10.6277	0.797
10.6618	0.797
10.6959	0.791
10.73	0.795
10.7641	0.787
10.7982	0.769
10.8324	0.758
10.8665	0.729
10.9006	0.685
10.9347	0.671
10.9688	0.653
11.0029	0.59
11.0371	0.514
11.0712	0.42
11.1053	0.365
11.1394	0.343
11.1735	0.342
11.2077	0.354
11.2418	0.39
11.2759	0.48
11.31	0.526
11.3441	0.604
11.3782	0.651
11.4124	0.695
11.4465	0.713
11.4806	0.714
11.5147	0.718
11.5488	0.729
11.5829	0.732
11.6171	0.712
11.6512	0.687
11.6853	0.691
11.7194	0.712
11.7535	0.739
11.7876	0.737
11.8218	0.703
11.8559	0.676
11.89	0.678
11.9241	0.701
11.9582	0.74
11.9923	0.75
12.0265	0.779
12.0606	0.792
12.0947	0.793
12.1288	0.793
12.1629	0.79
12.1971	0.781
12.2312	0.767
12.2653	0.762
12.2994	0.767
12.3335	0.776
12.3676	0.781
12.4018	0.781
12.4359	0.778
12.47	0.77
12.5041	0.748
12.5382	0.746
12.5723	0.743
12.6065	0.739
12.6406	0.73
12.6747	0.7
12.7088	0.686
12.7429	0.659
12.777	0.626
12.8112	0.587
12.8453	0.54
12.8794	0.453
12.9135	0.369
12.9476	0.3
12.9817	0.259
13.0159	0.214
13.05	0.219
13.0841	0.25
13.1182	0.35
13.1523	0.452
13.1865	0.51
13.2206	0.564
13.2547	0.602
13.2888	0.634
13.3229	0.651
13.357	0.671
13.3912	0.686
13.4253	0.696
13.4594	0.702
13.4935	0.709
13.5276	0.715
13.5617	0.729
13.5959	0.739
13.63	0.743
13.6641	0.748
13.6982	0.75
13.7323	0.756
13.7664	0.759
13.8006	0.763
13.8347	0.765
13.8688	0.767
13.9029	0.767
13.937	0.768
13.9711	0.767
14.0053	0.767
14.0394	0.768
14.0735	0.759
14.1076	0.758
14.1417	0.759
14.1759	0.748
14.21	0.756
14.2441	0.758
14.2782	0.752
14.3123	0.748
14.3464	0.747
14.3806	0.742
14.4147	0.743
14.4488	0.739
14.4829	0.737
14.517	0.736
14.5511	0.723
14.5853	0.719
14.6194	0.714
14.6535	0.712
14.6876	0.706
14.7217	0.704
14.7558	0.698
14.79	0.696
14.8241	0.686
14.8582	0.682
14.8923	0.682
14.9264	0.682
14.9605	0.682
14.9947	0.68
15.0288	0.679
15.0629	0.676
