Infrared Spectrum: ERYTHROMYCIN, ETHYL CARBONATE
Formula: C40 H70 N O15
State: SOLID (1 mg / 200 mg KBr DISC)
Class: COBLENTZ III
Instrument: PERKIN-ELMER 21 (GRATING)
Instrument parameters: FILTER AT ABOUT 10 MICRONS
Sampling: TRANSMISSION
Resolution: 2
1/CM	TRANSMITTANCE
4000	0.7788
3991	0.778
3982	0.7775
3973	0.7771
3964	0.7765
3955	0.7761
3946	0.7758
3937	0.776
3928	0.7762
3919	0.7767
3910	0.7771
3901	0.7776
3892	0.7784
3883	0.7792
3874	0.78
3865	0.7808
3856	0.7817
3847	0.7825
3838	0.7835
3829	0.7844
3820	0.7853
3811	0.7858
3802	0.7865
3793	0.7872
3784	0.7874
3775	0.7871
3766	0.7865
3757	0.7857
3748	0.7845
3739	0.7834
3730	0.7819
3721	0.7804
3712	0.7792
3703	0.7786
3694	0.7781
3685	0.778
3676	0.7782
3667	0.7783
3658	0.7786
3649	0.7788
3640	0.778
3631	0.7761
3622	0.7744
3613	0.7726
3604	0.7696
3595	0.765
3586	0.7583
3577	0.7485
3568	0.734
3559	0.7096
3550	0.6781
3541	0.6518
3532	0.6256
3523	0.5991
3514	0.5724
3505	0.5457
3496	0.5188
3487	0.4928
3478	0.4852
3469	0.4797
3460	0.4762
3451	0.4742
3442	0.4735
3433	0.473
3424	0.4728
3415	0.4753
3406	0.481
3397	0.4904
3388	0.5026
3379	0.5157
3370	0.5301
3361	0.5462
3352	0.5617
3343	0.5779
3334	0.5954
3325	0.6136
3316	0.6323
3307	0.6561
3298	0.6667
3289	0.6758
3280	0.6838
3271	0.6915
3262	0.6981
3253	0.7044
3244	0.7105
3235	0.7151
3226	0.7198
3217	0.7243
3208	0.7289
3199	0.7334
3190	0.7378
3181	0.7421
3172	0.7462
3163	0.7504
3154	0.7545
3145	0.7589
3136	0.7634
3127	0.7678
3118	0.7711
3109	0.774
3100	0.776
3091	0.7768
3082	0.7775
3073	0.7772
3064	0.7771
3055	0.7761
3046	0.7742
3037	0.7717
3028	0.7667
3019	0.7549
3010	0.7032
3001	0.631
2992	0.5753
2983	0.5193
2974	0.4628
2965	0.4089
2956	0.4039
2947	0.4066
2938	0.4181
2929	0.4271
2920	0.4365
2911	0.4762
2902	0.5025
2893	0.5342
2884	0.5622
2875	0.575
2866	0.5787
2857	0.5916
2848	0.641
2839	0.6694
2830	0.6758
2821	0.6815
2812	0.6937
2803	0.7165
2794	0.7335
2785	0.7381
2776	0.7406
2767	0.7461
2758	0.7569
2749	0.7686
2740	0.7789
2731	0.7884
2722	0.7971
2713	0.805
2704	0.8111
2695	0.8155
2686	0.8195
2677	0.8204
2668	0.8211
2659	0.8211
2650	0.821
2641	0.8208
2632	0.8207
2623	0.8211
2614	0.8216
2605	0.8221
2596	0.8227
2587	0.8237
2578	0.825
2569	0.8264
2560	0.8278
2551	0.8293
2542	0.8307
2533	0.8321
2524	0.8333
2515	0.8347
2506	0.8359
2497	0.8371
2488	0.838
2479	0.8388
2470	0.8396
2461	0.8404
2452	0.8413
2443	0.842
2434	0.8428
2425	0.8436
2416	0.8445
2407	0.8453
2398	0.8445
2389	0.8431
2380	0.8417
2371	0.8404
2362	0.839
2353	0.8377
2344	0.8363
2335	0.8351
2326	0.8346
2317	0.8356
2308	0.8367
2299	0.8386
2290	0.8406
2281	0.8421
2272	0.8435
2263	0.8449
2254	0.8462
2245	0.8471
2236	0.848
2227	0.8482
2218	0.8484
2209	0.8483
2200	0.848
2191	0.8477
2182	0.8475
2173	0.8474
2164	0.8473
2155	0.8471
2146	0.8468
2137	0.8466
2128	0.8463
2119	0.8463
2110	0.8463
2101	0.8462
2092	0.846
2083	0.8455
2074	0.845
2065	0.8446
2056	0.8441
2047	0.8436
2038	0.8432
2029	0.8425
2020	0.8421
2011	0.842
2002	0.842
1993	0.8421
1984	0.8421
1975	0.8421
1966	0.8424
1957	0.8427
1948	0.843
1939	0.8433
1930	0.8437
1921	0.8436
1912	0.8435
1903	0.8433
1894	0.8432
1885	0.8428
1876	0.842
1867	0.8412
1858	0.8402
1849	0.8392
1840	0.8382
1831	0.8364
1822	0.8344
1813	0.8325
1804	0.8288
1795	0.8245
1786	0.8175
1777	0.774
1768	0.6999
1759	0.4566
1750	0.3468
1741	0.3672
1732	0.4432
1723	0.5306
1714	0.5579
1705	0.566
1696	0.5922
1687	0.6861
1678	0.7441
1669	0.7771
1660	0.7943
1651	0.7941
1642	0.7822
1633	0.7742
1624	0.7741
1615	0.7818
1606	0.7941
1597	0.8045
1588	0.8133
1579	0.8175
1570	0.819
1561	0.8202
1552	0.8208
1543	0.8202
1534	0.8221
1525	0.8164
1516	0.8121
1507	0.8039
1498	0.7896
1489	0.7591
1480	0.675
1471	0.5512
1462	0.4803
1453	0.4951
1444	0.5701
1435	0.6601
1426	0.693
1417	0.6539
1408	0.5839
1399	0.5516
1390	0.5137
1381	0.413
1372	0.3822
1363	0.4824
1354	0.529
1345	0.4858
1336	0.5203
1327	0.5646
1318	0.5712
1309	0.583
1300	0.5437
1291	0.4802
1282	0.4796
1273	0.3706
1264	0.2215
1255	0.1743
1246	0.3164
1237	0.522
1228	0.6601
1219	0.6997
1210	0.6921
1201	0.6225
1192	0.4884
1183	0.4264
1174	0.3384
1165	0.277
1156	0.3816
1147	0.5065
1138	0.5189
1129	0.4269
1120	0.4006
1111	0.3657
1102	0.3841
1093	0.3755
1084	0.3647
1075	0.3959
1066	0.3343
1057	0.2382
1048	0.2725
1039	0.3409
1030	0.3884
1021	0.4362
1012	0.289
1003	0.3264
994	0.4124
985	0.4901
976	0.5434
967	0.5654
958	0.5544
949	0.6343
940	0.6804
931	0.7228
922	0.7615
913	0.7278
904	0.7
895	0.6621
886	0.7015
877	0.7751
868	0.7869
859	0.7772
850	0.8161
841	0.7855
832	0.7865
823	0.8208
814	0.829
805	0.8108
796	0.8248
787	0.746
778	0.7632
769	0.8134
760	0.8262
751	0.8132
742	0.8223
733	0.8012
724	0.8075
715	0.8196
706	0.8165
697	0.7971
688	0.8108
679	0.814
670	0.8024
