Infrared Spectrum: 5-NITRO-O-TOLUENE SULFONIC ACID
Formula: C7 H7 N O5 S
State: SOLID (MULL)
Melting point: 140-142 C
Class: COBLENTZ
Instrument: Not specified, most likely a prism, grating, or hybrid spectrometer.
Sampling: TRANSMISSION
Resolution: 4
Origin: WYANDOTTE CHEMICALS CORP., WYANDOTTE, MICHIGAN, USA
MICROMETERS	TRANSMITTANCE
2.037	0.794
2.07687	0.803
2.11673	0.819
2.1566	0.833
2.19646	0.843
2.23633	0.838
2.27619	0.838
2.31606	0.844
2.35592	0.853
2.39579	0.874
2.43566	0.879
2.47552	0.896
2.51539	0.888
2.55525	0.903
2.59512	0.933
2.63498	0.913
2.67485	0.948
2.71472	0.941
2.75458	0.908
2.79445	0.829
2.83431	0.671
2.87418	0.552
2.91404	0.469
2.95391	0.383
2.99377	0.33
3.03364	0.278
3.07351	0.228
3.11337	0.191
3.15324	0.18
3.1931	0.176
3.23297	0.151
3.27283	0.148
3.3127	0.131
3.35257	0.065
3.39243	0.016
3.4323	0.02
3.47216	0.03
3.51203	0.028
3.55189	0.128
3.59176	0.23
3.63162	0.26
3.67149	0.277
3.71136	0.297
3.75122	0.328
3.79109	0.372
3.83095	0.402
3.87082	0.424
3.91068	0.445
3.95055	0.482
3.99042	0.502
4.03028	0.52
4.07015	0.532
4.11001	0.554
4.14988	0.565
4.18974	0.565
4.22961	0.564
4.26947	0.55
4.30934	0.55
4.34921	0.565
4.38907	0.582
4.42894	0.574
4.4688	0.565
4.50867	0.565
4.54853	0.575
4.5884	0.585
4.62827	0.595
4.66813	0.621
4.708	0.632
4.74786	0.652
4.78773	0.659
4.82759	0.662
4.86746	0.659
4.90732	0.661
4.94719	0.662
4.98706	0.664
5.02692	0.659
5.06679	0.644
5.10665	0.651
5.14652	0.644
5.18638	0.639
5.22625	0.609
5.26612	0.619
5.30598	0.601
5.34585	0.584
5.38571	0.559
5.42558	0.547
5.46544	0.529
5.50531	0.507
5.54517	0.465
5.58504	0.432
5.62491	0.442
5.66477	0.415
5.70464	0.402
5.7445	0.377
5.78437	0.357
5.82423	0.332
5.8641	0.312
5.90397	0.315
5.94383	0.297
5.9837	0.307
6.02356	0.34
6.06343	0.407
6.10329	0.464
6.14316	0.47
6.18302	0.385
6.22289	0.303
6.26276	0.27
6.30262	0.363
6.34249	0.42
6.38235	0.397
6.42222	0.363
6.46208	0.337
6.50195	0.21
6.54182	0.115
6.58168	0.091
6.62155	0.148
6.66141	0.203
6.70128	0.242
6.74114	0.202
6.78101	0.13
6.82087	0.103
6.86074	0.15
6.90061	0.2
6.94047	0.237
6.98034	0.305
7.0202	0.33
7.06007	0.34
7.09993	0.323
7.1398	0.322
7.17967	0.312
7.21953	0.202
7.2594	0.123
7.29926	0.136
7.33913	0.081
7.37899	0.026
7.41886	0.051
7.45872	0.093
7.49859	0.123
7.53846	0.143
7.57832	0.178
7.61819	0.207
7.65805	0.185
7.69792	0.181
7.73778	0.22
7.77765	0.238
7.81751	0.262
7.85738	0.275
7.89725	0.151
7.93711	0.22
7.97698	0.26
8.01684	0.257
8.05671	0.245
8.09657	0.225
8.13644	0.176
8.17631	0.131
8.21617	0.078
8.25604	0.055
8.2959	0.041
8.33577	0.051
8.37563	0.056
8.4155	0.063
8.45536	0.076
8.49523	0.09
8.5351	0.095
8.57496	0.105
8.61483	0.09
8.65469	0.051
8.69456	0.048
8.73442	0.085
8.77429	0.106
8.81416	0.1
8.85402	0.115
8.89389	0.126
8.93375	0.13
8.97362	0.116
9.01348	0.125
9.05335	0.103
9.09321	0.09
9.13308	0.066
9.17295	0.036
9.21281	0.023
9.25268	0.026
9.29254	0.045
9.33241	0.058
9.37227	0.085
9.41214	0.103
9.45201	0.13
9.49187	0.133
9.53174	0.126
9.5716	0.135
9.61147	0.098
9.65133	0.056
9.6912	0.041
9.73106	0.021
9.77093	0.023
9.8108	0.031
9.85066	0.05
9.89053	0.071
9.93039	0.098
9.97026	0.11
10.0101	0.125
10.05	0.151
10.0899	0.163
10.1297	0.19
10.1696	0.188
10.2095	0.207
10.2493	0.217
10.2892	0.228
10.329	0.228
10.3689	0.233
10.4088	0.247
10.4486	0.26
10.4885	0.268
10.5284	0.278
10.5682	0.298
10.6081	0.3
10.648	0.305
10.6878	0.312
10.7277	0.315
10.7676	0.327
10.8074	0.332
10.8473	0.34
10.8872	0.347
10.927	0.352
10.9669	0.348
11.0068	0.333
11.0466	0.248
11.0865	0.263
11.1264	0.322
11.1662	0.267
11.2061	0.278
11.246	0.313
11.2858	0.337
11.3257	0.35
11.3656	0.372
11.4054	0.392
11.4453	0.4
11.4852	0.415
11.525	0.425
11.5649	0.439
11.6047	0.442
11.6446	0.454
11.6845	0.457
11.7243	0.455
11.7642	0.459
11.8041	0.462
11.8439	0.437
11.8838	0.343
11.9237	0.208
11.9635	0.268
12.0034	0.398
12.0433	0.447
12.0831	0.472
12.123	0.492
12.1629	0.505
12.2027	0.519
12.2426	0.515
12.2825	0.53
12.3223	0.532
12.3622	0.537
12.4021	0.54
12.4419	0.54
12.4818	0.5
12.5217	0.345
12.5615	0.402
12.6014	0.485
12.6413	0.512
12.6811	0.527
12.721	0.544
12.7609	0.559
12.8007	0.559
12.8406	0.56
12.8804	0.567
12.9203	0.579
12.9602	0.577
13	0.585
13.0399	0.59
13.0798	0.599
13.1196	0.606
13.1595	0.607
13.1994	0.612
13.2392	0.611
13.2791	0.606
13.319	0.602
13.3588	0.57
13.3987	0.51
13.4386	0.317
13.4784	0.207
13.5183	0.308
13.5582	0.47
13.598	0.549
13.6379	0.595
13.6778	0.612
13.7176	0.606
13.7575	0.592
13.7974	0.535
13.8372	0.444
13.8771	0.382
13.917	0.402
13.9568	0.459
13.9967	0.529
14.0366	0.584
14.0764	0.616
14.1163	0.639
14.1561	0.646
14.196	0.611
14.2359	0.532
14.2757	0.497
14.3156	0.544
14.3555	0.627
14.3953	0.659
14.4352	0.679
14.4751	0.692
14.5149	0.682
14.5548	0.674
14.5947	0.669
14.6345	0.664
14.6744	0.666
14.7143	0.649
14.7541	0.641
14.794	0.631
14.8339	0.621
14.8737	0.606
14.9136	0.609
14.9535	0.604
14.9933	0.584
15.0332	0.555
15.0731	0.54
15.1129	0.547
15.1528	0.552
15.1927	0.554
15.2325	0.55
15.2724	0.545
15.3123	0.537
15.3521	0.539
15.392	0.527
15.4318	0.524
15.4717	0.512
15.5116	0.497
15.5514	0.485
15.5913	0.477
15.6312	0.46
15.671	0.442
15.7109	0.419
15.7508	0.412
15.7906	0.407
15.8305	0.414
15.8704	0.425
15.9102	0.422
15.9501	0.419
15.99	0.417
