Infrared Spectrum: ASPARTIC ACID, DIBENZYL ESTER, HYDROCHLORIDE
Formula: C18 H20 Cl N O4
State: SOLID (0.7 mg / 650 mg KBr DISC)
Class: COBLENTZ III
Instrument: PERKIN-ELMER 21 (GRATING)
Instrument parameters: FILTER CHANGE AT ABOUT 1025 CM^-^1
Sampling: TRANSMISSION
Resolution: 2
Origin: SOUTHERN RESEARCH INSTITUTE
1/CM	TRANSMITTANCE
605.204	0.779
614.265	0.773
623.327	0.7651
632.388	0.7551
641.45	0.7445
650.511	0.7382
659.573	0.7306
668.634	0.717
677.696	0.7203
686.757	0.6983
695.819	0.4824
704.88	0.5177
713.942	0.7171
723.003	0.6973
732.065	0.5565
741.126	0.5417
750.188	0.5474
759.249	0.5643
768.311	0.8036
777.372	0.8523
786.434	0.857
795.495	0.8525
804.557	0.8466
813.618	0.8298
822.68	0.836
831.741	0.841
840.803	0.8581
849.864	0.862
858.926	0.858
867.987	0.856
877.049	0.8492
886.11	0.8391
895.172	0.8004
904.233	0.7134
913.295	0.7333
922.356	0.7765
931.418	0.7701
940.479	0.714
949.541	0.7216
958.602	0.7665
967.664	0.809
976.725	0.8109
985.787	0.8095
994.848	0.7993
1003.91	0.7539
1012.97	0.6949
1022.03	0.6947
1031.09	0.747
1040.16	0.8324
1049.22	0.858
1058.28	0.8528
1067.34	0.8385
1076.4	0.8014
1085.46	0.7261
1094.52	0.582
1103.59	0.7079
1112.65	0.7769
1121.71	0.7127
1130.77	0.5753
1139.83	0.7851
1148.89	0.776
1157.96	0.7108
1167.02	0.629
1176.08	0.6583
1185.14	0.4748
1194.2	0.2997
1203.26	0.5141
1212.32	0.5501
1221.39	0.4362
1230.45	0.3615
1239.51	0.298
1248.57	0.2021
1257.63	0.2324
1266.69	0.4228
1275.75	0.6119
1284.82	0.7163
1293.88	0.8012
1302.94	0.8133
1312	0.816
1321.06	0.816
1330.12	0.8041
1339.19	0.8408
1348.25	0.8408
1357.31	0.7336
1366.37	0.5721
1375.43	0.7326
1384.49	0.7143
1393.55	0.5752
1402.62	0.7091
1411.68	0.7723
1420.74	0.79
1429.8	0.8018
1438.86	0.836
1447.92	0.7908
1456.98	0.6336
1466.05	0.7162
1475.11	0.7764
1484.17	0.6455
1493.23	0.415
1502.29	0.5618
1511.35	0.8118
1520.42	0.8428
1529.48	0.879
1538.54	0.882
1547.6	0.8797
1556.66	0.8554
1565.72	0.8373
1574.78	0.8262
1583.85	0.83
1592.91	0.8286
1601.97	0.766
1611.03	0.8044
1620.09	0.844
1629.15	0.838
1638.21	0.847
1647.28	0.8489
1656.34	0.8619
1665.4	0.866
1674.46	0.8614
1683.52	0.8435
1692.58	0.7811
1701.65	0.7386
1710.71	0.4639
1719.77	0.2118
1728.83	0.2509
1737.89	0.2691
1746.95	0.1865
1756.01	0.4379
1765.08	0.671
1774.14	0.845
1783.2	0.8905
1792.26	0.9157
1801.32	0.9246
1810.38	0.93
1819.44	0.9302
1828.51	0.94
1837.57	0.943
1846.63	0.948
1855.69	0.946
1864.75	0.944
1873.81	0.944
1882.88	0.946
1891.94	0.948
1901	0.946
1910.06	0.946
1919.12	0.9452
1928.18	0.941
1937.24	0.9312
1946.31	0.9223
1955.37	0.9133
1964.43	0.909
1973.49	0.9035
1982.55	0.8884
1991.61	0.8795
2000.67	0.8735
2009.74	0.872
2018.8	0.8776
2027.86	0.9036
2036.92	0.9325
2045.98	0.9481
2055.04	0.9606
2064.11	0.964
2073.17	0.963
2082.23	0.963
2091.29	0.963
2100.35	0.963
2109.41	0.963
2118.47	0.963
2127.54	0.963
2136.6	0.963
2145.66	0.963
2154.72	0.963
2163.78	0.963
2172.84	0.963
2181.9	0.963
2190.97	0.963
2200.03	0.965
2209.09	0.965
2218.15	0.962
2227.21	0.962
2236.27	0.959
2245.34	0.958
2254.4	0.959
2263.46	0.959
2272.52	0.9575
2281.58	0.9525
2290.64	0.949
2299.7	0.949
2308.77	0.948
2317.83	0.9485
2326.89	0.9495
2335.95	0.952
2345.01	0.952
2354.07	0.952
2363.13	0.952
2372.2	0.951
2381.26	0.944
2390.32	0.938
2399.38	0.9275
2408.44	0.9195
2417.5	0.9055
2426.56	0.8955
2435.63	0.8915
2444.69	0.889
2453.75	0.887
2462.81	0.882
2471.87	0.8745
2480.93	0.864
2490	0.856
2499.06	0.849
2508.12	0.847
2517.18	0.844
2526.24	0.8385
2535.3	0.83
2544.36	0.82
2553.43	0.805
2562.49	0.7834
2571.55	0.7534
2580.61	0.741
2589.67	0.7425
2598.73	0.7561
2607.79	0.767
2616.86	0.758
2625.92	0.7385
2634.98	0.723
2644.04	0.715
2653.1	0.712
2662.16	0.709
2671.23	0.709
2680.29	0.7045
2689.35	0.6969
2698.41	0.693
2707.47	0.691
2716.53	0.688
2725.59	0.677
2734.66	0.6529
2743.72	0.632
2752.78	0.626
2761.84	0.6165
2770.9	0.6044
2779.96	0.5945
2789.02	0.5689
2798.09	0.5374
2807.15	0.5134
2816.21	0.4839
2825.27	0.4514
2834.33	0.4094
2843.39	0.387
2852.46	0.364
2861.52	0.357
2870.58	0.358
2879.64	0.361
2888.7	0.361
2897.76	0.359
2906.82	0.356
2915.89	0.3515
2924.95	0.3445
2934.01	0.341
2943.07	0.346
2952.13	0.354
2961.19	0.364
2970.25	0.3755
2979.32	0.3875
2988.38	0.4121
2997.44	0.4386
3006.5	0.453
3015.56	0.4615
3024.62	0.476
3033.69	0.5121
3042.75	0.5436
3051.81	0.5725
3060.87	0.5855
3069.93	0.6222
3078.99	0.6545
3088.05	0.6771
3097.12	0.6961
3106.18	0.712
3115.24	0.7276
3124.3	0.7496
3133.36	0.7701
3142.42	0.7875
3151.48	0.802
3160.55	0.807
3169.61	0.8185
3178.67	0.823
3187.73	0.827
3196.79	0.8315
3205.85	0.8355
3214.92	0.839
3223.98	0.843
3233.04	0.844
3242.1	0.844
3251.16	0.844
3260.22	0.844
3269.28	0.844
3278.35	0.843
3287.41	0.843
3296.47	0.841
3305.53	0.837
3314.59	0.831
3323.65	0.825
3332.71	0.8154
3341.78	0.8005
3350.84	0.7905
3359.9	0.7735
3368.96	0.7569
3378.02	0.7475
3387.08	0.743
3396.15	0.738
3405.21	0.73
3414.27	0.7295
3423.33	0.729
3432.39	0.7305
3441.45	0.732
3450.51	0.733
3459.58	0.733
3468.64	0.735
3477.7	0.7406
3486.76	0.7525
3495.82	0.7675
3504.88	0.7891
3513.94	0.8005
3523.01	0.8095
3532.07	0.818
3541.13	0.8255
3550.19	0.829
3559.25	0.8315
3568.31	0.839
3577.38	0.8455
3586.44	0.855
3595.5	0.8695
3604.56	0.8925
3613.62	0.9135
3622.68	0.924
3631.74	0.934
3640.81	0.934
3649.87	0.938
3658.93	0.938
3667.99	0.939
3677.05	0.941
3686.11	0.945
3695.17	0.948
3704.24	0.948
3713.3	0.948
3722.36	0.948
3731.42	0.948
3740.48	0.948
3749.54	0.9506
3758.61	0.9545
3767.67	0.955
3776.73	0.955
3785.79	0.953
3794.85	0.947
3803.91	0.948
3812.97	0.948
3822.04	0.948
3831.1	0.948
3840.16	0.948
3849.22	0.948
3858.28	0.948
3867.34	0.948
3876.4	0.948
3885.47	0.948
3894.53	0.948
3903.59	0.948
3912.65	0.948
3921.71	0.946
3930.77	0.944
3939.84	0.943
3948.9	0.943
3957.96	0.943
3967.02	0.943
3976.08	0.9405
3985.14	0.939
3994.2	0.936
4003.27	0.9325
