Infrared Spectrum: 2-CARBOPHENYL-5-CYANO-6-PHENYL-2,3-DIHYDRO-1,4-PYRAN
Formula: C19 H15 N O2
State: SOLID (1.0% IN KBr PELLET)
Class: COBLENTZ
Instrument: Not specified, most likely a prism, grating, or hybrid spectrometer.
Sampling: TRANSMISSION
Path length: 0.0355 CM
Resolution: 4
Origin: ANDERSON PHYSICAL LABORATORY
1/CM	TRANSMITTANCE
668.12	0.275
676.526	0.3889
684.932	0.2562
693.338	0.122
701.744	0.221
710.15	0.1639
718.556	0.7009
726.962	0.871
735.368	0.896
743.774	0.881
752.18	0.805
760.586	0.5182
768.992	0.3678
777.398	0.3639
785.804	0.911
794.21	0.916
802.616	0.91
811.022	0.902
819.428	0.859
827.834	0.731
836.24	0.545
844.646	0.4868
853.052	0.823
861.458	0.805
869.864	0.6311
878.27	0.314
886.676	0.8538
895.082	0.905
903.488	0.899
911.894	0.847
920.3	0.697
928.706	0.5617
937.112	0.802
945.518	0.778
953.924	0.6561
962.33	0.3311
970.736	0.4278
979.142	0.82
987.548	0.785
995.954	0.677
1004.36	0.463
1012.77	0.6069
1021.17	0.736
1029.58	0.5361
1037.98	0.515
1046.39	0.5299
1054.8	0.704
1063.2	0.647
1071.61	0.478
1080.01	0.334
1088.42	0.601
1096.83	0.4662
1105.23	0.526
1113.64	0.508
1122.04	0.508
1130.45	0.35
1138.86	0.155
1147.26	0.038
1155.67	0.097
1164.07	0.383
1172.48	0.4479
1180.89	0.187
1189.29	0.298
1197.7	0.4639
1206.1	0.56
1214.51	0.329
1222.92	0.625
1231.32	0.523
1239.73	0.158
1248.13	0.4841
1256.54	0.61
1264.95	0.622
1273.35	0.3672
1281.76	0.158
1290.16	0.445
1298.57	0.544
1306.98	0.529
1315.38	0.355
1323.79	0.385
1332.19	0.4941
1340.6	0.74
1349.01	0.6281
1357.41	0.2322
1365.82	0.232
1374.22	0.674
1382.63	0.4871
1391.04	0.614
1399.44	0.826
1407.85	0.874
1416.25	0.863
1424.66	0.838
1433.07	0.7221
1441.47	0.538
1449.88	0.247
1458.28	0.5919
1466.69	0.851
1475.1	0.814
1483.5	0.767
1491.91	0.523
1500.32	0.7961
1508.72	0.839
1517.13	0.821
1525.53	0.8
1533.94	0.778
1542.35	0.734
1550.75	0.712
1559.16	0.622
1567.56	0.548
1575.97	0.391
1584.38	0.4281
1592.78	0.3339
1601.19	0.3109
1609.59	0.3711
1618	0.11
1626.41	0.196
1634.81	0.635
1643.22	0.718
1651.62	0.718
1660.03	0.683
1668.44	0.545
1676.84	0.4029
1685.25	0.295
1693.65	0.317
1702.06	0.4929
1710.47	0.746
1718.87	0.824
1727.28	0.931
1735.68	0.952
1744.09	0.952
1752.5	0.952
1760.9	0.949
1769.31	0.95
1777.71	0.956
1786.12	0.949
1794.53	0.947
1802.93	0.935
1811.34	0.902
1819.74	0.902
1828.15	0.908
1836.56	0.935
1844.96	0.944
1853.37	0.947
1861.77	0.946
1870.18	0.931
1878.59	0.91
1886.99	0.884
1895.4	0.881
1903.8	0.871
1912.21	0.841
1920.62	0.844
1929.02	0.853
1937.43	0.877
1945.83	0.881
1954.24	0.878
1962.65	0.854
1971.05	0.824
1979.46	0.803
1987.86	0.827
1996.27	0.866
2004.68	0.868
2013.08	0.867
2021.49	0.8623
2029.89	0.859
2038.3	0.8568
2046.71	0.8547
2055.11	0.848
2063.52	0.8443
2071.92	0.8418
2080.33	0.836
2088.74	0.8288
2097.14	0.8157
2105.55	0.8041
2113.95	0.789
2122.36	0.7766
2130.77	0.7485
2139.17	0.7416
2147.58	0.7275
2155.98	0.6626
2164.39	0.5707
2172.8	0.4043
2181.2	0.1907
2189.61	0.2222
2198.01	0.3162
2206.42	0.7331
2214.83	0.841
2223.23	0.838
2231.64	0.8335
2240.04	0.8183
2248.45	0.8114
2256.86	0.8034
2265.26	0.7963
2273.67	0.7931
2282.07	0.7943
2290.48	0.7952
2298.89	0.7921
2307.29	0.7817
2315.7	0.7748
2324.1	0.773
2332.51	0.7742
2340.92	0.775
2349.32	0.7729
2357.73	0.772
2366.13	0.77
2374.54	0.7692
2382.95	0.7689
2391.35	0.7631
2399.76	0.7575
2408.16	0.7542
2416.57	0.752
2424.98	0.7518
2433.38	0.749
2441.79	0.7466
2450.19	0.745
2458.6	0.743
2467.01	0.7417
2475.41	0.739
2483.82	0.737
2492.22	0.7338
2500.63	0.7306
2509.04	0.73
2517.44	0.73
2525.85	0.7266
2534.25	0.722
2542.66	0.721
2551.07	0.719
2559.47	0.7178
2567.88	0.7143
2576.28	0.7124
2584.69	0.712
2593.1	0.71
2601.5	0.7084
2609.91	0.704
2618.31	0.7032
2626.72	0.701
2635.13	0.6995
2643.53	0.695
2651.94	0.6883
2660.34	0.685
2668.75	0.682
2677.16	0.6811
2685.56	0.6776
2693.97	0.6761
2702.37	0.667
2710.78	0.6544
2719.19	0.647
2727.59	0.6413
2736	0.6337
2744.4	0.6316
2752.81	0.631
2761.22	0.6281
2769.62	0.6129
2778.03	0.5943
2786.43	0.5831
2794.84	0.557
2803.25	0.5317
2811.65	0.526
2820.06	0.5265
2828.46	0.5316
2836.87	0.5289
2845.28	0.5124
2853.68	0.4846
2862.09	0.4551
2870.49	0.451
2878.9	0.452
2887.31	0.4655
2895.71	0.517
2904.12	0.5622
2912.52	0.571
2920.93	0.5728
2929.34	0.574
2937.74	0.575
2946.15	0.5737
2954.55	0.5716
2962.96	0.5668
2971.37	0.5633
2979.77	0.552
2988.18	0.54
2996.58	0.5278
3004.99	0.5077
3013.4	0.4904
3021.8	0.4723
3030.21	0.4559
3038.61	0.454
3047.02	0.4581
3055.43	0.4845
3063.83	0.5281
3072.24	0.5627
3080.64	0.5719
3089.05	0.5772
3097.46	0.5789
3105.86	0.58
3114.27	0.5771
3122.67	0.574
3131.08	0.572
3139.49	0.5733
3147.89	0.574
3156.3	0.569
3164.71	0.5668
3173.11	0.5624
3181.52	0.5594
3189.92	0.5539
3198.33	0.5507
3206.74	0.5474
3215.14	0.5442
3223.55	0.5408
3231.95	0.5335
3240.36	0.527
3248.77	0.526
3257.17	0.524
3265.58	0.517
3273.98	0.5085
3282.39	0.5042
3290.8	0.502
3299.2	0.496
3307.61	0.4896
3316.01	0.4826
3324.42	0.4722
3332.83	0.4634
3341.23	0.4562
3349.64	0.455
3358.04	0.4579
3366.45	0.46
3374.86	0.4592
3383.26	0.4574
3391.67	0.455
3400.07	0.4538
3408.48	0.4517
3416.89	0.4498
3425.29	0.449
3433.7	0.448
3442.1	0.448
3450.51	0.449
3458.92	0.451
3467.32	0.454
3475.73	0.457
3484.13	0.459
3492.54	0.461
3500.95	0.463
3509.35	0.4632
3517.76	0.4649
3526.16	0.466
3534.57	0.4669
3542.98	0.4692
3551.38	0.4756
3559.79	0.4817
3568.19	0.4838
3576.6	0.487
3585.01	0.4874
3593.41	0.488
3601.82	0.488
3610.22	0.488
3618.63	0.4887
3627.04	0.49
3635.44	0.49
3643.85	0.49
3652.25	0.49
3660.66	0.49
3669.07	0.49
3677.47	0.488
3685.88	0.487
3694.28	0.486
3702.69	0.4842
3711.1	0.481
3719.5	0.4805
3727.91	0.4785
3736.31	0.476
3744.72	0.475
3753.13	0.472
3761.53	0.4696
3769.94	0.4646
3778.34	0.4631
3786.75	0.461
3795.16	0.461
3803.56	0.4604
3811.97	0.4582
3820.37	0.4538
3828.78	0.4516
3837.19	0.451
3845.59	0.451
3854	0.451
3862.4	0.4504
3870.81	0.449
3879.22	0.449
3887.62	0.449
3896.03	0.449
3904.43	0.447
3912.84	0.4427
3921.25	0.439
3929.65	0.4363
3938.06	0.434
3946.46	0.434
3954.87	0.433
3963.28	0.4326
3971.68	0.431
3980.09	0.431
3988.49	0.431
