Infrared Spectrum: CALCIUM PHOSPHATE, MONOBASIC
Formula: Ca ( H2 P O4 )2  * H2 O
State: SOLID (NUJOL MULL)
Class: COBLENTZ
Instrument: Not specified, most likely a prism, grating, or hybrid spectrometer.
Sampling: TRANSMISSION
Resolution: 4
Origin: MELLON INSTITUTE
MICROMETERS	TRANSMITTANCE
2.027	0.979
2.06698	0.974
2.10695	0.974
2.14693	0.984
2.18691	0.986
2.22688	0.984
2.26686	0.974
2.30683	0.976
2.34681	0.973
2.38679	0.973
2.42676	0.963
2.46674	0.961
2.50672	0.949
2.54669	0.944
2.58667	0.951
2.62664	0.938
2.66662	0.943
2.7066	0.928
2.74657	0.891
2.78655	0.849
2.82653	0.725
2.8665	0.63
2.90648	0.593
2.94645	0.578
2.98643	0.555
3.02641	0.53
3.06638	0.501
3.10636	0.486
3.14634	0.473
3.18631	0.468
3.22629	0.453
3.26626	0.441
3.30624	0.406
3.34622	0.262
3.38619	0.21
3.42617	0.227
3.46615	0.259
3.50612	0.389
3.5461	0.459
3.58607	0.491
3.62605	0.508
3.66603	0.53
3.706	0.54
3.74598	0.553
3.78596	0.561
3.82593	0.578
3.86591	0.59
3.90588	0.602
3.94586	0.605
3.98584	0.613
4.02581	0.61
4.06579	0.593
4.10577	0.59
4.14574	0.586
4.18572	0.575
4.22569	0.58
4.26567	0.576
4.30565	0.581
4.34562	0.583
4.3856	0.581
4.42558	0.585
4.46555	0.588
4.50553	0.602
4.5455	0.615
4.58548	0.62
4.62546	0.63
4.66543	0.642
4.70541	0.652
4.74539	0.657
4.78536	0.668
4.82534	0.678
4.86531	0.687
4.90529	0.698
4.94527	0.707
4.98524	0.712
5.02522	0.715
5.0652	0.727
5.10517	0.744
5.14515	0.752
5.18512	0.752
5.2251	0.75
5.26508	0.754
5.30505	0.755
5.34503	0.757
5.38501	0.757
5.42498	0.757
5.46496	0.759
5.50493	0.762
5.54491	0.767
5.58489	0.769
5.62486	0.77
5.66484	0.774
5.70482	0.775
5.74479	0.777
5.78477	0.777
5.82474	0.77
5.86472	0.762
5.9047	0.75
5.94467	0.737
5.98465	0.735
6.02463	0.715
6.0646	0.724
6.10458	0.739
6.14455	0.772
6.18453	0.787
6.22451	0.809
6.26448	0.821
6.30446	0.817
6.34444	0.834
6.38441	0.829
6.42439	0.837
6.46436	0.846
6.50434	0.844
6.54432	0.861
6.58429	0.852
6.62427	0.874
6.66425	0.881
6.70422	0.876
6.7442	0.837
6.78417	0.777
6.82415	0.734
6.86413	0.745
6.9041	0.775
6.94408	0.802
6.98406	0.829
7.02403	0.849
7.06401	0.869
7.10398	0.874
7.14396	0.872
7.18394	0.821
7.22391	0.777
7.26389	0.785
7.30387	0.799
7.34384	0.799
7.38382	0.79
7.42379	0.79
7.46377	0.78
7.50375	0.762
7.54372	0.745
7.5837	0.727
7.62368	0.702
7.66365	0.672
7.70363	0.65
7.7436	0.612
7.78358	0.57
7.82356	0.535
7.86353	0.508
7.90351	0.494
7.94349	0.464
7.98346	0.426
8.02344	0.406
8.06341	0.399
8.10339	0.396
8.14337	0.396
8.18334	0.401
8.22332	0.409
8.2633	0.421
8.30327	0.433
8.34325	0.461
8.38322	0.469
8.4232	0.479
8.46318	0.481
8.50315	0.479
8.54313	0.464
8.58311	0.456
8.62308	0.451
8.66306	0.456
8.70303	0.466
8.74301	0.478
8.78299	0.478
8.82296	0.471
8.86294	0.458
8.90292	0.449
8.94289	0.441
8.98287	0.429
9.02284	0.423
9.06282	0.411
9.1028	0.397
9.14277	0.382
9.18275	0.371
9.22273	0.367
9.2627	0.377
9.30268	0.394
9.34265	0.409
9.38263	0.444
9.42261	0.478
9.46258	0.505
9.50256	0.53
9.54254	0.561
9.58251	0.576
9.62249	0.6
9.66246	0.608
9.70244	0.618
9.74242	0.625
9.78239	0.623
9.82237	0.612
9.86235	0.6
9.90232	0.573
9.9423	0.558
9.98227	0.535
10.0223	0.5
10.0622	0.468
10.1022	0.426
10.1422	0.401
10.1822	0.386
10.2221	0.374
10.2621	0.362
10.3021	0.347
10.3421	0.334
10.382	0.324
10.422	0.316
10.462	0.312
10.502	0.314
10.5419	0.339
10.5819	0.356
10.6219	0.401
10.6619	0.439
10.7018	0.483
10.7418	0.53
10.7818	0.551
10.8218	0.575
10.8618	0.583
10.9017	0.596
10.9417	0.6
10.9817	0.61
11.0217	0.63
11.0616	0.652
11.1016	0.672
11.1416	0.665
11.1816	0.645
11.2215	0.633
11.2615	0.63
11.3015	0.625
11.3415	0.633
11.3814	0.635
11.4214	0.637
11.4614	0.638
11.5014	0.635
11.5413	0.637
11.5813	0.633
11.6213	0.625
11.6613	0.638
11.7013	0.633
11.7412	0.632
11.7812	0.638
11.8212	0.642
11.8612	0.65
11.9011	0.663
11.9411	0.677
11.9811	0.692
12.0211	0.702
12.061	0.707
12.101	0.719
12.141	0.725
12.181	0.734
12.2209	0.74
12.2609	0.75
12.3009	0.754
12.3409	0.752
12.3808	0.754
12.4208	0.754
12.4608	0.754
12.5008	0.752
12.5408	0.757
12.5807	0.755
12.6207	0.76
12.6607	0.754
12.7007	0.754
12.7406	0.752
12.7806	0.752
12.8206	0.754
12.8606	0.754
12.9005	0.745
12.9405	0.744
12.9805	0.747
13.0205	0.737
13.0604	0.739
13.1004	0.735
13.1404	0.739
13.1804	0.739
13.2204	0.735
13.2603	0.74
13.3003	0.737
13.3403	0.73
13.3803	0.729
13.4202	0.725
13.4602	0.72
13.5002	0.712
13.5402	0.704
13.5801	0.704
13.6201	0.704
13.6601	0.692
13.7001	0.69
13.74	0.682
13.78	0.672
13.82	0.665
13.86	0.663
13.8999	0.662
13.9399	0.657
13.9799	0.652
14.0199	0.645
14.0599	0.637
14.0998	0.63
14.1398	0.623
14.1798	0.615
14.2198	0.61
14.2597	0.603
14.2997	0.595
14.3397	0.591
14.3797	0.583
14.4196	0.578
14.4596	0.57
14.4996	0.558
14.5396	0.55
14.5795	0.543
14.6195	0.536
14.6595	0.533
14.6995	0.528
14.7394	0.526
14.7794	0.521
14.8194	0.528
14.8594	0.538
14.8994	0.53
14.9393	0.523
14.9793	0.528
15.0193	0.53
15.0593	0.536
15.0992	0.541
15.1392	0.54
15.1792	0.548
15.2192	0.55
15.2591	0.55
15.2991	0.548
15.3391	0.555
15.3791	0.555
15.419	0.563
15.459	0.565
15.499	0.571
15.539	0.571
15.5789	0.573
15.6189	0.58
15.6589	0.581
15.6989	0.585
15.7389	0.59
15.7788	0.596
15.8188	0.6
15.8588	0.603
15.8988	0.61
15.9387	0.623
15.9787	0.632
