Infrared Spectrum: LICHENIN MOSS STARCH
Formula: ( C8 H10 O5)n
State: SOLID (SPLIT MULL), FLUOROLUBE FOR 3800-1330 CM^-^1, NUJOL FOR 1330-450 CM^-^1
Class: COBLENTZ
Instrument: DOW KBr FOREPRISM-GRATING
Instrument parameters: BLAZED AT 3.5, 12.0, 20.0 MICRON AND CHANGED AT 5.0, 7.5, 14.9 MICRON
Sampling: TRANSMISSION
Resolution: 2
Origin: DOW CHEMICAL COMPANY
1/CM	TRANSMITTANCE
458	0.5771
467	0.5771
476	0.5753
485	0.5751
494	0.5715
503	0.5623
512	0.5553
521	0.5484
530	0.5396
539	0.5407
548	0.5371
557	0.5269
566	0.5179
575	0.5166
584	0.5214
593	0.5164
602	0.5143
611	0.5153
620	0.5202
629	0.5265
638	0.5324
647	0.5376
656	0.5399
665	0.5422
674	0.554
683	0.5654
692	0.5709
701	0.5724
710	0.5457
719	0.4702
728	0.5224
737	0.5738
746	0.6059
755	0.6286
764	0.6437
773	0.6533
782	0.6738
791	0.6945
800	0.7128
809	0.7287
818	0.7421
827	0.7561
836	0.7671
845	0.7785
854	0.7886
863	0.7804
872	0.7601
881	0.7375
890	0.7012
899	0.7141
908	0.758
917	0.7672
926	0.7626
935	0.7506
944	0.7347
953	0.6785
962	0.616
971	0.5299
980	0.4515
989	0.3418
998	0.3021
1007	0.2718
1016	0.2307
1025	0.2106
1034	0.2133
1043	0.2175
1052	0.2174
1061	0.2109
1070	0.2074
1079	0.2212
1088	0.2523
1097	0.2831
1106	0.3054
1115	0.3279
1124	0.3595
1133	0.4171
1142	0.4291
1151	0.3876
1160	0.393
1169	0.5222
1178	0.6441
1187	0.7515
1196	0.7465
1205	0.7204
1214	0.7586
1223	0.7608
1232	0.7288
1241	0.7004
1250	0.6767
1259	0.6438
1268	0.6201
1277	0.6032
1286	0.5799
1295	0.5362
1304	0.4935
1313	0.4698
1322	0.4651
1331	0.4522
1340	0.1811
1349	0.1724
1358	0.1869
1367	0.1824
1376	0.181
1385	0.1998
1394	0.2097
1403	0.2079
1412	0.1987
1421	0.212
1430	0.2313
1439	0.2493
1448	0.2696
1457	0.2943
1466	0.3342
1475	0.3877
1484	0.4398
1493	0.4762
1502	0.5204
1511	0.5578
1520	0.582
1529	0.5985
1538	0.6009
1547	0.5942
1556	0.5778
1565	0.5465
1574	0.5053
1583	0.4664
1592	0.4245
1601	0.4104
1610	0.404
1619	0.3956
1628	0.3899
1637	0.3866
1646	0.3907
1655	0.409
1664	0.4409
1673	0.4928
1682	0.5619
1691	0.6187
1700	0.6753
1709	0.7184
1718	0.7571
1727	0.7814
1736	0.7986
1745	0.8067
1754	0.8126
1763	0.8175
1772	0.8174
1781	0.8167
1790	0.8171
1799	0.8186
1808	0.8183
1817	0.8165
1826	0.8125
1835	0.8111
1844	0.8097
1853	0.8083
1862	0.8051
1871	0.8058
1880	0.8043
1889	0.8025
1898	0.8008
1907	0.7989
1916	0.7958
1925	0.7928
1934	0.7901
1943	0.7871
1952	0.7832
1961	0.7789
1970	0.7746
1979	0.7701
1988	0.7665
1997	0.7617
2006	0.7561
2015	0.7524
2024	0.7472
2033	0.7421
2042	0.7369
2051	0.7318
2060	0.7275
2069	0.7225
2078	0.7178
2087	0.7128
2096	0.708
2105	0.7028
2114	0.698
2123	0.6922
2132	0.6867
2141	0.6811
2150	0.6757
2159	0.6715
2168	0.6685
2177	0.6656
2186	0.6628
2195	0.6599
2204	0.6569
2213	0.6539
2222	0.6481
2231	0.6421
2240	0.6362
2249	0.6306
2258	0.6259
2267	0.6212
2276	0.6162
2285	0.611
2294	0.606
2303	0.601
2312	0.596
2321	0.5912
2330	0.5874
2339	0.5849
2348	0.5822
2357	0.5794
2366	0.5767
2375	0.5742
2384	0.5717
2393	0.5691
2402	0.565
2411	0.5601
2420	0.5554
2429	0.5503
2438	0.5451
2447	0.5396
2456	0.5338
2465	0.5279
2474	0.5219
2483	0.5157
2492	0.5098
2501	0.5038
2510	0.4977
2519	0.4928
2528	0.4879
2537	0.4828
2546	0.4777
2555	0.4724
2564	0.4671
2573	0.4612
2582	0.4553
2591	0.4484
2600	0.4415
2609	0.4334
2618	0.4218
2627	0.4131
2636	0.4049
2645	0.3971
2654	0.3893
2663	0.3814
2672	0.3737
2681	0.3658
2690	0.3587
2699	0.3532
2708	0.348
2717	0.343
2726	0.338
2735	0.3325
2744	0.3271
2753	0.3208
2762	0.3133
2771	0.304
2780	0.2942
2789	0.2835
2798	0.2732
2807	0.2631
2816	0.2528
2825	0.2418
2834	0.2307
2843	0.2163
2852	0.2001
2861	0.1851
2870	0.1749
2879	0.1699
2888	0.1694
2897	0.1714
2906	0.174
2915	0.1772
2924	0.1828
2933	0.1895
2942	0.2017
2951	0.2141
2960	0.2182
2969	0.2198
2978	0.2192
2987	0.2151
2996	0.2095
3005	0.1986
3014	0.1869
3023	0.1767
3032	0.1637
3041	0.1526
3050	0.1444
3059	0.1364
3068	0.1295
3077	0.1212
3086	0.1129
3095	0.1058
3104	0.1001
3113	0.0943
3122	0.0895
3131	0.0847
3140	0.0801
3149	0.0752
3158	0.0703
3167	0.0653
3176	0.0619
3185	0.059
3194	0.056
3203	0.0532
3212	0.0512
3221	0.0492
3230	0.0471
3239	0.0452
3248	0.0434
3257	0.0417
3266	0.04
3275	0.0383
3284	0.0367
3293	0.0353
3302	0.034
3311	0.0326
3320	0.0324
3329	0.0324
3338	0.0323
3347	0.0325
3356	0.0332
3365	0.0338
3374	0.0346
3383	0.036
3392	0.0375
3401	0.039
3410	0.0411
3419	0.0434
3428	0.048
3437	0.0525
3446	0.0582
3455	0.0641
3464	0.0701
3473	0.0772
3482	0.0854
3491	0.0953
3500	0.1111
3509	0.1286
3518	0.1462
3527	0.1699
3536	0.1929
3545	0.2109
3554	0.2359
3563	0.2665
3572	0.3007
3581	0.343
3590	0.3756
3599	0.4198
3608	0.4966
3617	0.5675
3626	0.6296
3635	0.6993
3644	0.7331
3653	0.7667
3662	0.7886
3671	0.8018
3680	0.8078
3689	0.811
3698	0.8125
3707	0.8138
3716	0.8143
3725	0.814
3734	0.8114
3743	0.8018
3752	0.7893
3761	0.7824
3770	0.7764
3779	0.7718
3788	0.7688
