Infrared Spectrum: BENZOIC ACID AMMONIUM SALT
Formula: C7 H9 N O2
State: SOLID (MINERAL OIL MULL)
Melting point: 200 C DECOMPOSES
Class: COBLENTZ
Instrument: Not specified, most likely a prism, grating, or hybrid spectrometer.
Sampling: TRANSMISSION
Resolution: 4
Origin: WYANDOTTE CHEMICALS CORP., WYANDOTTE, MICHIGAN, USA
MICROMETERS	TRANSMITTANCE
2.073	0.806
2.11268	0.824
2.15235	0.829
2.19203	0.831
2.23171	0.834
2.27139	0.842
2.31106	0.852
2.35074	0.86
2.39042	0.872
2.43009	0.884
2.46977	0.884
2.50945	0.887
2.54913	0.91
2.5888	0.899
2.62848	0.92
2.66816	0.923
2.70784	0.932
2.74751	0.937
2.78719	0.935
2.82687	0.932
2.86654	0.923
2.90622	0.917
2.9459	0.902
2.98558	0.849
3.02525	0.673
3.06493	0.504
3.10461	0.382
3.14428	0.331
3.18396	0.311
3.22364	0.296
3.26332	0.216
3.30299	0.187
3.34267	0.066
3.38235	0.034
3.42203	0.059
3.4617	0.082
3.50138	0.124
3.54106	0.241
3.58073	0.317
3.62041	0.375
3.66009	0.413
3.69977	0.456
3.73944	0.509
3.77912	0.554
3.8188	0.599
3.85847	0.632
3.89815	0.66
3.93783	0.69
3.97751	0.708
4.01718	0.731
4.05686	0.753
4.09654	0.764
4.13621	0.778
4.17589	0.788
4.21557	0.804
4.25525	0.779
4.29492	0.794
4.3346	0.814
4.37428	0.86
4.41396	0.869
4.45363	0.865
4.49331	0.869
4.53299	0.87
4.57266	0.869
4.61234	0.855
4.65202	0.847
4.6917	0.841
4.73137	0.836
4.77105	0.829
4.81073	0.842
4.8504	0.852
4.89008	0.865
4.92976	0.867
4.96944	0.87
5.00911	0.872
5.04879	0.872
5.08847	0.864
5.12815	0.839
5.16782	0.855
5.2075	0.847
5.24718	0.802
5.28685	0.807
5.32653	0.817
5.36621	0.819
5.40589	0.826
5.44556	0.829
5.48524	0.836
5.52492	0.849
5.56459	0.854
5.60427	0.852
5.64395	0.874
5.68363	0.88
5.7233	0.884
5.76298	0.884
5.80266	0.879
5.84233	0.87
5.88201	0.864
5.92169	0.849
5.96137	0.834
6.00104	0.802
6.04072	0.766
6.0804	0.735
6.12008	0.655
6.15975	0.541
6.19943	0.268
6.23911	0.137
6.27878	0.531
6.31846	0.453
6.35814	0.195
6.39782	0.11
6.43749	0.092
6.47717	0.1
6.51685	0.124
6.55652	0.211
6.5962	0.304
6.63588	0.403
6.67556	0.413
6.71523	0.377
6.75491	0.306
6.79459	0.168
6.83426	0.125
6.87394	0.117
6.91362	0.127
6.9533	0.135
6.99297	0.142
7.03265	0.163
7.07233	0.205
7.11201	0.235
7.15168	0.206
7.19136	0.17
7.23104	0.17
7.27071	0.195
7.31039	0.289
7.35007	0.405
7.38975	0.451
7.42942	0.493
7.4691	0.554
7.50878	0.607
7.54845	0.637
7.58813	0.62
7.62781	0.615
7.66749	0.657
7.70716	0.663
7.74684	0.688
7.78652	0.662
7.8262	0.688
7.86587	0.726
7.90555	0.754
7.94523	0.771
7.9849	0.794
8.02458	0.804
8.06426	0.806
8.10394	0.798
8.14361	0.819
8.18329	0.829
8.22297	0.836
8.26264	0.846
8.30232	0.854
8.342	0.862
8.38168	0.867
8.42135	0.87
8.46103	0.875
8.50071	0.864
8.54038	0.854
8.58006	0.867
8.61974	0.884
8.65942	0.892
8.69909	0.902
8.73877	0.922
8.77845	0.928
8.81813	0.928
8.8578	0.935
8.89748	0.938
8.93716	0.938
8.97683	0.937
9.01651	0.925
9.05619	0.875
9.09587	0.912
9.13554	0.932
9.17522	0.935
9.2149	0.933
9.25457	0.925
9.29425	0.903
9.33393	0.622
9.37361	0.45
9.41328	0.784
9.45296	0.869
9.49264	0.902
9.53232	0.913
9.57199	0.918
9.61167	0.922
9.65135	0.923
9.69102	0.925
9.7307	0.923
9.77038	0.796
9.81006	0.653
9.84973	0.839
9.88941	0.877
9.92909	0.892
9.96876	0.899
10.0084	0.852
10.0481	0.897
10.0878	0.903
10.1275	0.905
10.1672	0.9
10.2068	0.892
10.2465	0.892
10.2862	0.897
10.3259	0.9
10.3655	0.903
10.4052	0.907
10.4449	0.905
10.4846	0.907
10.5242	0.908
10.5639	0.913
10.6036	0.915
10.6433	0.913
10.683	0.9
10.7226	0.908
10.7623	0.92
10.802	0.923
10.8417	0.927
10.8813	0.93
10.921	0.93
10.9607	0.93
11.0004	0.933
11.04	0.935
11.0797	0.938
11.1194	0.94
11.1591	0.94
11.1988	0.94
11.2384	0.942
11.2781	0.942
11.3178	0.942
11.3575	0.947
11.3971	0.948
11.4368	0.948
11.4765	0.948
11.5162	0.951
11.5559	0.951
11.5955	0.955
11.6352	0.951
11.6749	0.948
11.7146	0.95
11.7542	0.953
11.7939	0.947
11.8336	0.938
11.8733	0.938
11.9129	0.938
11.9526	0.918
11.9923	0.708
12.032	0.539
12.0717	0.529
12.1113	0.701
12.151	0.811
12.1907	0.857
12.2304	0.887
12.27	0.897
12.3097	0.897
12.3494	0.894
12.3891	0.889
12.4288	0.899
12.4684	0.913
12.5081	0.922
12.5478	0.928
12.5875	0.932
12.6271	0.933
12.6668	0.935
12.7065	0.937
12.7462	0.938
12.7858	0.94
12.8255	0.942
12.8652	0.942
12.9049	0.938
12.9446	0.937
12.9842	0.935
13.0239	0.932
13.0636	0.93
13.1033	0.93
13.1429	0.927
13.1826	0.925
13.2223	0.923
13.262	0.918
13.3016	0.915
13.3413	0.908
13.381	0.902
13.4207	0.894
13.4604	0.885
13.5	0.874
13.5397	0.855
13.5794	0.834
13.6191	0.799
13.6587	0.73
13.6984	0.657
13.7381	0.591
13.7778	0.523
13.8175	0.36
13.8571	0.22
13.8968	0.117
13.9365	0.094
13.9762	0.117
14.0158	0.197
14.0555	0.367
14.0952	0.518
14.1349	0.632
14.1745	0.697
14.2142	0.746
14.2539	0.784
14.2936	0.817
14.3333	0.841
14.3729	0.846
14.4126	0.849
14.4523	0.831
14.492	0.754
14.5316	0.675
14.5713	0.665
14.611	0.726
14.6507	0.784
14.6904	0.804
14.73	0.809
14.7697	0.783
14.8094	0.695
14.8491	0.612
14.8887	0.546
14.9284	0.543
14.9681	0.617
15.0078	0.678
15.0474	0.7
15.0871	0.72
15.1268	0.769
15.1665	0.806
15.2062	0.821
15.2458	0.819
15.2855	0.814
15.3252	0.807
15.3649	0.804
15.4045	0.798
15.4442	0.794
15.4839	0.784
15.5236	0.776
15.5633	0.773
15.6029	0.769
15.6426	0.764
15.6823	0.758
15.722	0.75
15.7616	0.743
15.8013	0.736
15.841	0.726
15.8807	0.72
15.9203	0.706
15.96	0.701
15.9997	0.7
