Infrared Spectrum: BONE BLACK
Formula: Ca3 ( P O4)2
State: SOLID (0.3 mg / 300 mg CsI DISC)
Class: COBLENTZ
Instrument: Not specified, most likely a grating spectrometer.
Sampling: TRANSMISSION
Resolution: 4
Origin: DESOTO CHEMICAL COATINGS, INC.
1/CM	TRANSMITTANCE
198.67	0.811
209.313	0.805
219.956	0.781
230.599	0.747
241.242	0.704
251.885	0.694
262.528	0.672
273.171	0.622
283.814	0.578
294.457	0.527
305.1	0.515
315.743	0.526
326.386	0.547
337.029	0.57
347.672	0.582
358.315	0.597
368.959	0.636
379.602	0.7439
390.245	0.804
400.888	0.837
411.531	0.86
422.174	0.871
432.817	0.884
443.46	0.894
454.103	0.901
464.746	0.902
475.389	0.905
486.032	0.918
496.675	0.928
507.318	0.938
517.961	0.938
528.604	0.93
539.247	0.909
549.89	0.849
560.533	0.601
571.176	0.511
581.819	0.6599
592.462	0.732
603.105	0.522
613.748	0.666
624.391	0.803
635.034	0.839
645.677	0.878
656.32	0.9
666.963	0.912
677.606	0.921
688.25	0.934
698.893	0.944
709.536	0.944
720.179	0.957
730.822	0.965
741.465	0.966
752.108	0.968
762.751	0.972
773.394	0.972
784.037	0.968
794.68	0.972
805.323	0.972
815.966	0.972
826.609	0.974
837.252	0.972
847.895	0.97
858.538	0.965
869.181	0.952
879.824	0.912
890.467	0.949
901.11	0.952
911.753	0.954
922.396	0.949
933.039	0.938
943.682	0.92
954.325	0.881
964.968	0.801
975.611	0.845
986.254	0.813
996.897	0.735
1007.54	0.5931
1018.18	0.3631
1028.83	0.166
1039.47	0.094
1050.11	0.089
1060.76	0.119
1071.4	0.18
1082.04	0.253
1092.68	0.243
1103.33	0.283
1113.97	0.4489
1124.61	0.6059
1135.26	0.719
1145.9	0.771
1156.54	0.801
1167.19	0.823
1177.83	0.836
1188.47	0.849
1199.12	0.853
1209.76	0.86
1220.4	0.865
1231.04	0.864
1241.69	0.865
1252.33	0.868
1262.97	0.867
1273.62	0.871
1284.26	0.871
1294.9	0.871
1305.55	0.873
1316.19	0.875
1326.83	0.875
1337.47	0.875
1348.12	0.871
1358.76	0.864
1369.4	0.852
1380.05	0.832
1390.69	0.804
1401.33	0.765
1411.98	0.726
1422.62	0.716
1433.26	0.734
1443.9	0.728
1454.55	0.703
1465.19	0.702
1475.83	0.708
1486.48	0.73
1497.12	0.74
1507.76	0.757
1518.41	0.776
1529.05	0.791
1539.69	0.803
1550.34	0.805
1560.98	0.804
1571.62	0.799
1582.26	0.789
1592.91	0.777
1603.55	0.764
1614.19	0.752
1624.84	0.761
1635.48	0.78
1646.12	0.8
1656.77	0.815
1667.41	0.833
1678.05	0.852
1688.69	0.873
1699.34	0.88
1709.98	0.89
1720.62	0.893
1731.27	0.902
1741.91	0.905
1752.55	0.909
1763.2	0.91
1773.84	0.912
1784.48	0.913
1795.12	0.912
1805.77	0.913
1816.41	0.912
1827.05	0.913
1837.7	0.913
1848.34	0.912
1858.98	0.912
1869.63	0.91
1880.27	0.909
1890.91	0.906
1901.56	0.906
1912.2	0.905
1922.84	0.904
1933.48	0.902
1944.13	0.901
1954.77	0.901
1965.41	0.897
1976.06	0.894
1986.7	0.892
1997.34	0.886
2007.99	0.876
2018.63	0.776
2029.27	0.857
2039.91	0.882
2050.56	0.886
2061.2	0.882
2071.84	0.88
2082.49	0.877
2093.13	0.877
2103.77	0.881
2114.42	0.882
2125.06	0.885
2135.7	0.884
2146.34	0.881
2156.99	0.882
2167.63	0.882
2178.27	0.882
2188.92	0.88
2199.56	0.878
2210.2	0.875
2220.85	0.877
2231.49	0.88
2242.13	0.88
2252.78	0.877
2263.42	0.876
2274.06	0.876
2284.7	0.875
2295.35	0.875
2305.99	0.872
2316.63	0.872
2327.28	0.872
2337.92	0.871
2348.56	0.872
2359.21	0.871
2369.85	0.871
2380.49	0.8679
2391.13	0.8649
2401.78	0.863
2412.42	0.861
2423.06	0.8589
2433.71	0.8529
2444.35	0.852
2454.99	0.852
2465.64	0.851
2476.28	0.849
2486.92	0.8481
2497.57	0.8479
2508.21	0.841
2518.85	0.8401
2529.49	0.8428
2540.14	0.8399
2550.78	0.839
2561.42	0.836
2572.07	0.8329
2582.71	0.832
2593.35	0.832
2604	0.832
2614.64	0.832
2625.28	0.8308
2635.92	0.8289
2646.57	0.8268
2657.21	0.824
2667.85	0.8227
2678.5	0.8199
2689.14	0.817
2699.78	0.8172
2710.43	0.8169
2721.07	0.8119
2731.71	0.809
2742.35	0.805
2753	0.8039
2763.64	0.8
2774.28	0.799
2784.93	0.797
2795.57	0.796
2806.21	0.795
2816.86	0.792
2827.5	0.789
2838.14	0.7867
2848.79	0.7799
2859.43	0.7769
2870.07	0.775
2880.71	0.7719
2891.36	0.769
2902	0.769
2912.64	0.7667
2923.29	0.757
2933.93	0.755
2944.57	0.7552
2955.22	0.756
2965.86	0.756
2976.5	0.756
2987.14	0.7558
2997.79	0.7547
3008.43	0.751
3019.07	0.75
3029.72	0.7477
3040.36	0.7438
3051	0.742
3061.65	0.739
3072.29	0.736
3082.93	0.735
3093.57	0.7336
3104.22	0.731
3114.86	0.73
3125.5	0.7278
3136.15	0.722
3146.79	0.719
3157.43	0.7158
3168.08	0.7118
3178.72	0.71
3189.36	0.7096
3200.01	0.7068
3210.65	0.7
3221.29	0.695
3231.93	0.6896
3242.58	0.687
3253.22	0.684
3263.86	0.6828
3274.51	0.6798
3285.15	0.676
3295.79	0.671
3306.44	0.664
3317.08	0.6598
3327.72	0.6508
3338.36	0.6453
3349.01	0.6373
3359.65	0.6273
3370.29	0.6188
3380.94	0.6093
3391.58	0.5938
3402.22	0.5865
3412.87	0.5778
3423.51	0.5698
3434.15	0.5645
3444.79	0.561
3455.44	0.561
3466.08	0.561
3476.72	0.563
3487.37	0.566
3498.01	0.5692
3508.65	0.5755
3519.3	0.5828
3529.94	0.5903
3540.58	0.5983
3551.23	0.6068
3561.87	0.6133
3572.51	0.6188
3583.15	0.6313
3593.8	0.6433
3604.44	0.6598
3615.08	0.6688
3625.73	0.6805
3636.37	0.6885
3647.01	0.6953
3657.66	0.6993
3668.3	0.7033
3678.94	0.706
3689.58	0.707
3700.23	0.708
3710.87	0.7073
3721.51	0.7077
3732.16	0.706
3742.8	0.704
3753.44	0.704
3764.09	0.704
3774.73	0.703
3785.37	0.7014
3796.02	0.7
3806.66	0.699
3817.3	0.698
3827.94	0.6974
3838.59	0.695
3849.23	0.694
3859.87	0.692
3870.52	0.69
3881.16	0.69
3891.8	0.688
3902.45	0.6894
3913.09	0.687
3923.73	0.687
3934.37	0.687
3945.02	0.6867
3955.66	0.6797
3966.3	0.682
3976.95	0.6793
3987.59	0.679
