Infrared Spectrum: CARBOXYMETHYL CELLULOSE, SODIUM SALT
Formula: C99 H99 O99 Na99
State: SOLUTION (IN H2O)
Class: COBLENTZ III
Instrument: DOW KBr FOREPRISM-GRATING
Instrument parameters: BLAZED AT 3.5, 12.0, 20.0 MICRON; GRATING CHANGES AT 5.0, 7.5, 14.9 MICRON
Sampling: TRANSMISSION
Path length: AgCl PLATES
Resolution: 4
Origin: DOW CHEMICAL COMPANY
1/CM	TRANSMITTANCE
408.29	0.603
417.764	0.603
427.239	0.603
436.713	0.605
446.188	0.605
455.662	0.605
465.137	0.603
474.611	0.597
484.086	0.581
493.56	0.571
503.035	0.564
512.509	0.56
521.984	0.555
531.458	0.547
540.933	0.544
550.407	0.533
559.882	0.516
569.356	0.496
578.831	0.481
588.305	0.47
597.78	0.464
607.254	0.468
616.729	0.485
626.203	0.505
635.678	0.518
645.152	0.52
654.627	0.518
664.101	0.525
673.576	0.533
683.05	0.54
692.525	0.546
701.999	0.547
711.474	0.549
720.948	0.557
730.423	0.581
739.897	0.618
749.371	0.66
758.846	0.693
768.32	0.708
777.795	0.725
787.269	0.739
796.744	0.754
806.218	0.765
815.693	0.78
825.167	0.795
834.642	0.808
844.116	0.819
853.591	0.832
863.065	0.841
872.54	0.833
882.014	0.8
891.489	0.743
900.963	0.739
910.438	0.739
919.912	0.747
929.387	0.734
938.861	0.725
948.336	0.712
957.81	0.68
967.285	0.66
976.759	0.592
986.234	0.4681
995.708	0.3151
1005.18	0.238
1014.66	0.16
1024.13	0.105
1033.61	0.095
1043.08	0.084
1052.56	0.057
1062.03	0.055
1071.5	0.06
1080.98	0.083
1090.45	0.105
1099.93	0.105
1109.4	0.105
1118.88	0.121
1128.35	0.166
1137.83	0.234
1147.3	0.267
1156.77	0.278
1166.25	0.381
1175.72	0.5659
1185.2	0.714
1194.67	0.739
1204.15	0.743
1213.62	0.782
1223.1	0.778
1232.57	0.749
1242.04	0.719
1251.52	0.699
1260.99	0.649
1270.47	0.643
1279.94	0.643
1289.42	0.618
1298.89	0.575
1308.37	0.5
1317.84	0.385
1327.32	0.35
1336.79	0.407
1346.26	0.492
1355.74	0.54
1365.21	0.514
1374.69	0.496
1384.16	0.483
1393.64	0.44
1403.11	0.341
1412.59	0.241
1422.06	0.239
1431.53	0.293
1441.01	0.402
1450.48	0.481
1459.96	0.54
1469.43	0.599
1478.91	0.667
1488.38	0.712
1497.86	0.728
1507.33	0.741
1516.8	0.73
1526.28	0.715
1535.75	0.68
1545.23	0.607
1554.7	0.5381
1564.18	0.428
1573.65	0.258
1583.13	0.103
1592.6	0.06
1602.08	0.057
1611.55	0.062
1621.02	0.11
1630.5	0.184
1639.97	0.2981
1649.45	0.42
1658.92	0.516
1668.4	0.595
1677.87	0.697
1687.35	0.756
1696.82	0.8129
1706.29	0.852
1715.77	0.878
1725.24	0.913
1734.72	0.92
1744.19	0.931
1753.67	0.942
1763.14	0.952
1772.62	0.955
1782.09	0.955
1791.56	0.957
1801.04	0.961
1810.51	0.963
1819.99	0.961
1829.46	0.957
1838.94	0.964
1848.41	0.964
1857.89	0.966
1867.36	0.97
1876.84	0.97
1886.31	0.972
1895.78	0.97
1905.26	0.968
1914.73	0.966
1924.21	0.97
1933.68	0.966
1943.16	0.961
1952.63	0.961
1962.11	0.959
1971.58	0.955
1981.05	0.955
1990.53	0.955
2000	0.942
2009.48	0.94
2018.95	0.939
2028.43	0.935
2037.9	0.931
2047.38	0.929
2056.85	0.926
2066.32	0.924
2075.8	0.922
2085.27	0.92
2094.75	0.9179
2104.22	0.915
2113.7	0.913
2123.17	0.911
2132.65	0.911
2142.12	0.9109
2151.6	0.907
2161.07	0.907
2170.54	0.907
2180.02	0.9071
2189.49	0.911
2198.97	0.911
2208.44	0.911
2217.92	0.911
2227.39	0.911
2236.87	0.915
2246.34	0.915
2255.81	0.9151
2265.29	0.916
2274.76	0.918
2284.24	0.915
2293.71	0.9162
2303.19	0.918
2312.66	0.9178
2322.14	0.9159
2331.61	0.9128
2341.09	0.909
2350.56	0.909
2360.03	0.909
2369.51	0.911
2378.98	0.913
2388.46	0.915
2397.93	0.913
2407.41	0.913
2416.88	0.9108
2426.36	0.9067
2435.83	0.904
2445.3	0.902
2454.78	0.898
2464.25	0.8937
2473.73	0.8887
2483.2	0.881
2492.68	0.8777
2502.15	0.8737
2511.63	0.87
2521.1	0.8687
2530.57	0.865
2540.05	0.863
2549.52	0.8585
2559	0.852
2568.47	0.8496
2577.95	0.843
2587.42	0.8387
2596.9	0.833
2606.37	0.828
2615.85	0.8218
2625.32	0.8166
2634.79	0.8088
2644.27	0.8016
2653.74	0.7946
2663.22	0.785
2672.69	0.773
2682.17	0.7624
2691.64	0.7551
2701.12	0.745
2710.59	0.739
2720.06	0.734
2729.54	0.7253
2739.01	0.7163
2748.49	0.7095
2757.96	0.7
2767.44	0.6903
2776.91	0.6778
2786.39	0.6645
2795.86	0.648
2805.33	0.633
2814.81	0.6187
2824.28	0.6
2833.76	0.569
2843.23	0.5472
2852.71	0.5204
2862.18	0.4872
2871.66	0.4689
2881.13	0.455
2890.61	0.4545
2900.08	0.448
2909.55	0.439
2919.03	0.4406
2928.5	0.4542
2937.98	0.472
2947.45	0.4947
2956.93	0.5195
2966.4	0.5412
2975.88	0.551
2985.35	0.555
2994.82	0.5467
3004.3	0.5344
3013.77	0.518
3023.25	0.5064
3032.72	0.487
3042.2	0.4667
3051.67	0.4507
3061.15	0.4304
3070.62	0.4137
3080.09	0.3957
3089.57	0.3773
3099.04	0.3623
3108.52	0.3423
3117.99	0.3292
3127.47	0.3129
3136.94	0.297
3146.42	0.2806
3155.89	0.2636
3165.37	0.2513
3174.84	0.2386
3184.31	0.2243
3193.79	0.2139
3203.26	0.2003
3212.74	0.191
3222.21	0.1872
3231.69	0.1768
3241.16	0.1702
3250.64	0.1625
3260.11	0.154
3269.58	0.151
3279.06	0.1442
3288.53	0.14
3298.01	0.1332
3307.48	0.1282
3316.96	0.1222
3326.43	0.1172
3335.91	0.1132
3345.38	0.1112
3354.86	0.1092
3364.33	0.108
3373.8	0.1109
3383.28	0.112
3392.75	0.114
3402.23	0.1149
3411.7	0.1184
3421.18	0.1219
3430.65	0.1279
3440.13	0.1369
3449.6	0.1468
3459.07	0.158
3468.55	0.1688
3478.02	0.1889
3487.5	0.2038
3496.97	0.2244
3506.45	0.2503
3515.92	0.2754
3525.4	0.298
3534.87	0.3259
3544.34	0.3434
3553.82	0.3863
3563.29	0.4275
3572.77	0.4634
3582.24	0.4992
3591.72	0.5435
3601.19	0.5979
3610.67	0.6591
3620.14	0.6986
3629.62	0.746
3639.09	0.7877
3648.56	0.8326
3658.04	0.8647
3667.51	0.891
3676.99	0.9055
3686.46	0.9187
3695.94	0.93
3705.41	0.935
3714.89	0.937
3724.36	0.937
3733.83	0.937
3743.31	0.9411
3752.78	0.942
3762.26	0.9451
3771.73	0.946
3781.21	0.946
3790.68	0.948
