Infrared Spectrum: ISOSEMICARBAZIDE, 3-(9H-PURIN-6-YL)-3-THIO-
Formula: C6 H7 N7 S
State: SOLID (1 mg / 650 mg KBr DISC)
Class: COBLENTZ III
Instrument: PERKIN-ELMER 21 (GRATING)
Instrument parameters: FILTER CHANGE AT 1090 CM^-^1
Sampling: TRANSMISSION
Resolution: 2
Origin: SOUTHERN RESEARCH INSTITUTE
1/CM	TRANSMITTANCE
609.419	0.663
618.51	0.6571
627.601	0.6452
636.692	0.6203
645.783	0.586
654.874	0.668
663.964	0.717
673.055	0.68
682.146	0.6873
691.237	0.763
700.328	0.758
709.419	0.7429
718.51	0.71
727.601	0.7032
736.692	0.6732
745.783	0.6218
754.874	0.4717
763.965	0.4613
773.055	0.5768
782.146	0.633
791.237	0.6237
800.328	0.572
809.419	0.628
818.51	0.6364
827.601	0.654
836.692	0.652
845.783	0.6672
854.874	0.6945
863.965	0.705
873.055	0.7066
882.146	0.708
891.237	0.7128
900.328	0.7203
909.419	0.7397
918.51	0.7932
927.601	0.7758
936.692	0.6812
945.783	0.5582
954.874	0.678
963.965	0.818
973.055	0.8323
982.146	0.833
991.237	0.825
1000.33	0.8134
1009.42	0.7944
1018.51	0.7688
1027.6	0.759
1036.69	0.76
1045.78	0.769
1054.87	0.7641
1063.96	0.7402
1073.06	0.6691
1082.15	0.575
1091.24	0.6038
1100.33	0.6295
1109.42	0.655
1118.51	0.6487
1127.6	0.638
1136.69	0.694
1145.78	0.705
1154.87	0.703
1163.96	0.6843
1173.06	0.6425
1182.15	0.5948
1191.24	0.4597
1200.33	0.5507
1209.42	0.6415
1218.51	0.6496
1227.6	0.624
1236.69	0.5598
1245.78	0.3755
1254.87	0.4665
1263.96	0.485
1273.06	0.4115
1282.15	0.3817
1291.24	0.3962
1300.33	0.3747
1309.42	0.3814
1318.51	0.4335
1327.6	0.2728
1336.69	0.4766
1345.78	0.6022
1354.87	0.6045
1363.96	0.5952
1373.06	0.618
1382.15	0.6057
1391.24	0.5372
1400.33	0.4398
1409.42	0.327
1418.51	0.4367
1427.6	0.5585
1436.69	0.5522
1445.78	0.5267
1454.87	0.497
1463.96	0.4074
1473.06	0.3183
1482.15	0.34
1491.24	0.4252
1500.33	0.4723
1509.42	0.4925
1518.51	0.4853
1527.6	0.4856
1536.69	0.509
1545.78	0.5242
1554.87	0.5263
1563.96	0.4606
1573.06	0.4026
1582.15	0.2528
1591.24	0.108
1600.33	0.1401
1609.42	0.1093
1618.51	0.069
1627.6	0.0956
1636.69	0.1802
1645.78	0.4028
1654.87	0.5427
1663.96	0.6013
1673.06	0.6664
1682.15	0.7272
1691.24	0.8134
1700.33	0.835
1709.42	0.847
1718.51	0.8488
1727.6	0.853
1736.69	0.8463
1745.78	0.8587
1754.87	0.8695
1763.96	0.879
1773.06	0.875
1782.15	0.884
1791.24	0.888
1800.33	0.891
1809.42	0.891
1818.51	0.891
1827.6	0.891
1836.69	0.888
1845.78	0.887
1854.87	0.886
1863.96	0.886
1873.06	0.884
1882.15	0.882
1891.24	0.879
1900.33	0.877
1909.42	0.8771
1918.51	0.88
1927.6	0.8829
1936.69	0.884
1945.78	0.886
1954.87	0.886
1963.96	0.884
1973.06	0.884
1982.15	0.883
1991.24	0.883
2000.33	0.879
2009.42	0.878
2018.51	0.874
2027.6	0.873
2036.69	0.873
2045.78	0.871
2054.87	0.8675
2063.96	0.865
2073.06	0.864
2082.15	0.862
2091.24	0.858
2100.33	0.8572
2109.42	0.86
2118.51	0.853
2127.6	0.861
2136.69	0.858
2145.78	0.8567
2154.87	0.853
2163.96	0.851
2173.06	0.848
2182.15	0.847
2191.24	0.844
2200.33	0.8428
2209.42	0.839
2218.51	0.836
2227.6	0.834
2236.69	0.833
2245.78	0.8258
2254.87	0.825
2263.96	0.825
2273.06	0.824
2282.15	0.8208
2291.24	0.8127
2300.33	0.8022
2309.42	0.7825
2318.51	0.771
2327.6	0.769
2336.69	0.769
2345.78	0.771
2354.87	0.771
2363.96	0.771
2373.06	0.771
2382.15	0.771
2391.24	0.768
2400.33	0.765
2409.42	0.7608
2418.51	0.7557
2427.6	0.7498
2436.69	0.743
2445.78	0.737
2454.87	0.7237
2463.97	0.719
2473.06	0.715
2482.15	0.7067
2491.24	0.7018
2500.33	0.6888
2509.42	0.6752
2518.51	0.6708
2527.6	0.668
2536.69	0.667
2545.78	0.671
2554.87	0.663
2563.97	0.6563
2573.06	0.641
2582.15	0.637
2591.24	0.6193
2600.33	0.6082
2609.42	0.5928
2618.51	0.5838
2627.6	0.571
2636.69	0.5512
2645.78	0.538
2654.87	0.5348
2663.97	0.531
2673.06	0.5078
2682.15	0.4865
2691.24	0.4775
2700.33	0.4663
2709.42	0.4585
2718.51	0.452
2727.6	0.4327
2736.69	0.4153
2745.78	0.3978
2754.87	0.3652
2763.97	0.3493
2773.06	0.3345
2782.15	0.3175
2791.24	0.3262
2800.33	0.3405
2809.42	0.344
2818.51	0.3392
2827.6	0.3303
2836.69	0.3175
2845.78	0.3082
2854.87	0.296
2863.97	0.288
2873.06	0.287
2882.15	0.2848
2891.24	0.2815
2900.33	0.2712
2909.42	0.2522
2918.51	0.245
2927.6	0.245
2936.69	0.2455
2945.78	0.249
2954.87	0.253
2963.97	0.2585
2973.06	0.265
2982.15	0.2712
2991.24	0.275
3000.33	0.275
3009.42	0.2718
3018.51	0.262
3027.6	0.2555
3036.69	0.249
3045.78	0.2478
3054.87	0.243
3063.97	0.236
3073.06	0.234
3082.15	0.2308
3091.24	0.217
3100.33	0.2172
3109.42	0.214
3118.51	0.2167
3127.6	0.213
3136.69	0.2145
3145.78	0.2223
3154.87	0.2342
3163.97	0.2475
3173.06	0.2668
3182.15	0.28
3191.24	0.2855
3200.33	0.289
3209.42	0.2973
3218.51	0.305
3227.6	0.3102
3236.69	0.3165
3245.78	0.3275
3254.87	0.3455
3263.97	0.3605
3273.06	0.3778
3282.15	0.4032
3291.24	0.4167
3300.33	0.4268
3309.42	0.4382
3318.51	0.4525
3327.6	0.46
3336.69	0.464
3345.78	0.464
3354.87	0.4625
3363.97	0.46
3373.06	0.4602
3382.15	0.464
3391.24	0.467
3400.33	0.4722
3409.42	0.4835
3418.51	0.4953
3427.6	0.5075
3436.69	0.5215
3445.78	0.5393
3454.87	0.548
3463.97	0.5465
3473.06	0.5438
3482.15	0.543
3491.24	0.5597
3500.33	0.6077
3509.42	0.6528
3518.51	0.6712
3527.6	0.6892
3536.69	0.698
3545.78	0.7125
3554.87	0.7285
3563.97	0.7412
3573.06	0.7505
3582.15	0.7602
3591.24	0.7785
3600.33	0.7943
3609.42	0.802
3618.51	0.8055
3627.6	0.8135
3636.69	0.8213
3645.78	0.827
3654.87	0.834
3663.97	0.834
3673.06	0.8338
3682.15	0.83
3691.24	0.8293
3700.33	0.835
3709.42	0.8358
3718.51	0.839
3727.6	0.8387
3736.69	0.8348
3745.78	0.8298
3754.87	0.83
3763.97	0.8342
3773.06	0.835
3782.15	0.835
3791.24	0.8325
3800.33	0.83
3809.42	0.834
3818.51	0.8322
3827.6	0.8218
3836.69	0.82
3845.78	0.82
3854.87	0.815
3863.97	0.815
3873.06	0.82
3882.15	0.8208
3891.24	0.8168
3900.33	0.816
3909.42	0.8177
3918.51	0.816
3927.6	0.813
3936.69	0.813
3945.78	0.815
3954.87	0.816
3963.97	0.815
3973.06	0.816
3982.15	0.815
3991.24	0.815
4000.33	0.8228
4009.42	0.8292
