Infrared Spectrum: Polyglycol P-750 (Dow)
Formula: C3 H8 O2
State: SOLUTION (10% CCl4 FOR 2.7-7.5, 10% CS2 FOR 7.5-26 MICRON) VS SOLVENT
Class: COBLENTZ
Instrument: DOW KBr FOREPRISM-GRATING
Instrument parameters: BLAZED AT 3.5, 12.0, 20.0 MICRON AND CHANGED AT 5.0, 7.5, 14.9 MICRON
Sampling: TRANSMISSION
Path length: 0.011 CM, 0.011 CM
Resolution: 2
Origin: DOW CHEMICAL COMPANY
1/CM	TRANSMITTANCE
3792	0.8566
3783	0.8563
3774	0.8561
3765	0.8558
3756	0.8562
3747	0.8571
3738	0.8585
3729	0.8596
3720	0.8599
3711	0.8602
3702	0.8603
3693	0.8604
3684	0.8604
3675	0.8599
3666	0.8543
3657	0.8518
3648	0.8533
3639	0.8552
3630	0.8543
3621	0.8508
3612	0.8441
3603	0.8343
3594	0.8197
3585	0.7756
3576	0.7128
3567	0.7078
3558	0.7325
3549	0.7528
3540	0.7595
3531	0.7557
3522	0.7361
3513	0.7141
3504	0.6826
3495	0.6511
3486	0.6198
3477	0.596
3468	0.5838
3459	0.5778
3450	0.5756
3441	0.579
3432	0.5899
3423	0.6116
3414	0.64
3405	0.6668
3396	0.6951
3387	0.7221
3378	0.7451
3369	0.7665
3360	0.7874
3351	0.8043
3342	0.82
3333	0.8315
3324	0.8411
3315	0.8484
3306	0.8553
3297	0.861
3288	0.8657
3279	0.8695
3270	0.8732
3261	0.8764
3252	0.8794
3243	0.882
3234	0.8837
3225	0.885
3216	0.8856
3207	0.8845
3198	0.8825
3189	0.8805
3180	0.8784
3171	0.8768
3162	0.8763
3153	0.8771
3144	0.8788
3135	0.8804
3126	0.8816
3117	0.8824
3108	0.8831
3099	0.8823
3090	0.8814
3081	0.8797
3072	0.878
3063	0.8758
3054	0.8728
3045	0.869
3036	0.8636
3027	0.8555
3018	0.8388
3009	0.8071
3000	0.7415
2991	0.4935
2982	0.1367
2973	0.0713
2964	0.0729
2955	0.3059
2946	0.346
2937	0.1968
2928	0.1139
2919	0.136
2910	0.1459
2901	0.1167
2892	0.0918
2883	0.0951
2874	0.103
2865	0.0892
2856	0.0886
2847	0.1598
2838	0.3344
2829	0.4726
2820	0.5717
2811	0.6009
2802	0.6162
2793	0.6214
2784	0.6309
2775	0.6471
2766	0.6684
2757	0.6921
2748	0.7122
2739	0.7312
2730	0.7501
2721	0.7619
2712	0.7711
2703	0.7805
2694	0.7897
2685	0.7975
2676	0.8019
2667	0.8035
2658	0.805
2649	0.8075
2640	0.8111
2631	0.8161
2622	0.8243
2613	0.8328
2604	0.8396
2595	0.8414
2586	0.843
2577	0.8453
2568	0.8491
2559	0.8542
2550	0.8599
2541	0.8645
2532	0.8671
2523	0.8681
2514	0.8691
2505	0.87
2496	0.8709
2487	0.8718
2478	0.8725
2469	0.8733
2460	0.8741
2451	0.8749
2442	0.8753
2433	0.8755
2424	0.8759
2415	0.8753
2406	0.8745
2397	0.8735
2388	0.8725
2379	0.8728
2370	0.8743
2361	0.8768
2352	0.8785
2343	0.8775
2334	0.8778
2325	0.8784
2316	0.8778
2307	0.8718
2298	0.8671
2289	0.8663
2280	0.8657
2271	0.8657
2262	0.8656
2253	0.8656
2244	0.8657
2235	0.8658
2226	0.8661
2217	0.8665
2208	0.867
2199	0.8675
2190	0.8682
2181	0.8702
2172	0.8777
2163	0.8759
2154	0.874
2145	0.8738
2136	0.874
2127	0.8742
2118	0.8743
2109	0.8742
2100	0.8742
2091	0.8737
2082	0.8733
2073	0.8723
2064	0.8705
2055	0.868
2046	0.8653
2037	0.8633
2028	0.8614
2019	0.8595
2010	0.8586
2001	0.8602
1992	0.8606
1983	0.8609
1974	0.8631
1965	0.8642
1956	0.8656
1947	0.8673
1938	0.869
1929	0.8705
1920	0.8721
1911	0.8735
1902	0.8749
1893	0.8762
1884	0.8775
1875	0.8787
1866	0.8799
1857	0.881
1848	0.882
1839	0.883
1830	0.8835
1821	0.884
1812	0.8839
1803	0.8833
1794	0.8825
1785	0.8825
1776	0.8825
1767	0.8821
1758	0.8807
1749	0.8775
1740	0.8733
1731	0.8647
1722	0.8494
1713	0.8537
1704	0.8664
1695	0.8732
1686	0.8718
1677	0.8667
1668	0.8632
1659	0.86
1650	0.8568
1641	0.8544
1632	0.8534
1623	0.8533
1614	0.8541
1605	0.8557
1596	0.858
1587	0.8601
1578	0.8621
1569	0.8635
1560	0.8646
1551	0.8671
1542	0.8691
1533	0.8673
1524	0.864
1515	0.8583
1506	0.846
1497	0.827
1488	0.7945
1479	0.541
1470	0.484
1461	0.3634
1452	0.3432
1443	0.4849
1434	0.6658
1425	0.6942
1416	0.5788
1407	0.5246
1398	0.4992
1389	0.4186
1380	0.1789
1371	0.1418
1362	0.4442
1353	0.4084
1344	0.3629
1335	0.4638
1326	0.4744
1317	0.456
1308	0.4735
1299	0.4158
1290	0.475
1281	0.4898
1272	0.4693
1263	0.4299
1254	0.393
1245	0.4551
1236	0.5435
1227	0.6441
1218	0.6889
1209	0.7028
1200	0.6961
1191	0.6329
1182	0.4517
1173	0.3011
1164	0.1684
1155	0.1129
1146	0.0837
1137	0.061
1128	0.0393
1119	0.0205
1110	0.009
1101	0.006
1092	0.0061
1083	0.016
1074	0.0751
1065	0.1478
1056	0.1811
1047	0.25
1038	0.4615
1029	0.5307
1020	0.4593
1011	0.4018
1002	0.4803
993	0.6197
984	0.691
975	0.7069
966	0.6946
957	0.6678
948	0.5898
939	0.4386
930	0.4423
921	0.4636
912	0.5266
903	0.5473
894	0.7058
885	0.768
876	0.7442
867	0.6435
858	0.6202
849	0.6524
840	0.6467
831	0.6359
822	0.6888
813	0.7347
804	0.7838
795	0.8182
786	0.8427
777	0.8542
768	0.8581
759	0.8588
750	0.8594
741	0.8598
732	0.8595
723	0.8584
714	0.8542
705	0.849
696	0.8461
687	0.8425
678	0.8306
669	0.8137
660	0.813
651	0.8004
642	0.8001
633	0.7996
624	0.7965
615	0.7867
606	0.775
597	0.7642
588	0.7486
579	0.7339
570	0.7253
561	0.7185
552	0.711
543	0.7046
534	0.6915
525	0.6736
516	0.6628
507	0.6625
498	0.6664
489	0.6704
480	0.6698
471	0.6665
462	0.6644
453	0.6634
444	0.6638
435	0.6643
426	0.6648
417	0.6661
408	0.6685
399	0.6701
