Infrared Spectrum: N-(3-HYDROXYPROPYL) TRIMETHYL-AMMONIUM TETRAPHENYL-BORIDE
Formula: C30 H36 B N O
State: SOLID (KBr PELLET)
Melting point: 229 C
Class: COBLENTZ
Instrument: Not specified, most likely a prism, grating, or hybrid spectrometer.
Sampling: TRANSMISSION
Resolution: 4
Origin: EASTMAN KODAK COMPANY, RESEARCH LABORATORIES, ROCHESTER, N.Y.
MICROMETERS	TRANSMITTANCE
2	0.44
2.0401	0.445
2.08019	0.445
2.12029	0.449
2.16039	0.455
2.20048	0.457
2.24058	0.462
2.28068	0.467
2.32077	0.47
2.36087	0.476
2.40097	0.48
2.44106	0.48
2.48116	0.476
2.52126	0.495
2.56135	0.508
2.60145	0.516
2.64155	0.523
2.68164	0.537
2.72174	0.532
2.76184	0.524
2.80193	0.449
2.84203	0.207
2.88213	0.286
2.92222	0.325
2.96232	0.375
3.00242	0.425
3.04251	0.472
3.08261	0.491
3.12271	0.511
3.1628	0.531
3.2029	0.539
3.243	0.541
3.28309	0.223
3.32319	0.302
3.36329	0.36
3.40338	0.412
3.44348	0.463
3.48358	0.463
3.52367	0.531
3.56377	0.559
3.60387	0.572
3.64397	0.577
3.68406	0.583
3.72416	0.59
3.76426	0.61
3.80435	0.613
3.84445	0.613
3.88455	0.62
3.92464	0.625
3.96474	0.631
4.00484	0.634
4.04493	0.636
4.08503	0.644
4.12513	0.649
4.16522	0.651
4.20532	0.654
4.24542	0.652
4.28551	0.651
4.32561	0.661
4.36571	0.685
4.4058	0.692
4.4459	0.697
4.486	0.7
4.52609	0.702
4.56619	0.705
4.60629	0.708
4.64638	0.71
4.68648	0.71
4.72658	0.715
4.76667	0.717
4.80677	0.72
4.84687	0.725
4.88696	0.728
4.92706	0.73
4.96716	0.733
5.00725	0.738
5.04735	0.723
5.08745	0.675
5.12754	0.702
5.16764	0.733
5.20774	0.745
5.24783	0.733
5.28793	0.718
5.32803	0.741
5.36812	0.751
5.40822	0.745
5.44832	0.72
5.48841	0.733
5.52851	0.763
5.56861	0.773
5.6087	0.763
5.6488	0.754
5.6889	0.761
5.72899	0.764
5.76909	0.759
5.80919	0.763
5.84928	0.764
5.88938	0.761
5.92948	0.763
5.96957	0.761
6.00967	0.756
6.04977	0.751
6.08986	0.741
6.12996	0.726
6.17006	0.723
6.21015	0.718
6.25025	0.726
6.29035	0.746
6.33044	0.643
6.37054	0.578
6.41064	0.674
6.45073	0.723
6.49083	0.75
6.53093	0.773
6.57102	0.781
6.61112	0.784
6.65122	0.779
6.69132	0.726
6.73141	0.152
6.77151	0.189
6.81161	0.376
6.8517	0.495
6.8918	0.575
6.9319	0.59
6.97199	0.621
7.01209	0.391
7.05219	0.449
7.09228	0.578
7.13238	0.667
7.17248	0.677
7.21257	0.646
7.25267	0.634
7.29277	0.575
7.33286	0.666
7.37296	0.692
7.41306	0.72
7.45315	0.745
7.49325	0.735
7.53335	0.695
7.57344	0.75
7.61354	0.773
7.65364	0.769
7.69373	0.764
7.73383	0.794
7.77393	0.814
7.81402	0.81
7.85412	0.766
7.89422	0.659
7.93431	0.585
7.97441	0.631
8.01451	0.629
8.0546	0.671
8.0947	0.756
8.1348	0.784
8.17489	0.789
8.21499	0.759
8.25509	0.763
8.29518	0.815
8.33528	0.819
8.37538	0.809
8.41547	0.748
8.45557	0.639
8.49567	0.656
8.53576	0.73
8.57586	0.794
8.61596	0.771
8.65605	0.722
8.69615	0.639
8.73625	0.6
8.77634	0.503
8.81644	0.595
8.85654	0.618
8.89663	0.615
8.93673	0.603
8.97683	0.684
9.01692	0.75
9.05702	0.784
9.09712	0.796
9.13721	0.812
9.17731	0.817
9.21741	0.82
9.2575	0.805
9.2976	0.751
9.3377	0.597
9.37779	0.45
9.41789	0.284
9.45799	0.245
9.49808	0.314
9.53818	0.48
9.57828	0.605
9.61837	0.677
9.65847	0.634
9.69857	0.513
9.73866	0.654
9.77876	0.743
9.81886	0.769
9.85896	0.786
9.89905	0.805
9.93915	0.817
9.97925	0.827
10.0193	0.832
10.0594	0.828
10.0995	0.827
10.1396	0.83
10.1797	0.835
10.2198	0.838
10.2599	0.835
10.3	0.819
10.3401	0.774
10.3802	0.748
10.4203	0.763
10.4604	0.718
10.5005	0.715
10.5406	0.796
10.5807	0.837
10.6208	0.856
10.6609	0.855
10.701	0.814
10.7411	0.702
10.7812	0.664
10.8213	0.74
10.8614	0.782
10.9015	0.759
10.9416	0.593
10.9817	0.498
11.0218	0.631
11.0619	0.741
11.102	0.82
11.142	0.865
11.1821	0.884
11.2222	0.901
11.2623	0.904
11.3024	0.902
11.3425	0.858
11.3826	0.745
11.4227	0.712
11.4628	0.799
11.5029	0.835
11.543	0.824
11.5831	0.797
11.6232	0.796
11.6633	0.8
11.7034	0.802
11.7435	0.784
11.7836	0.756
11.8237	0.718
11.8638	0.692
11.9039	0.703
11.944	0.726
11.9841	0.8
12.0242	0.863
12.0643	0.894
12.1044	0.899
12.1445	0.906
12.1846	0.916
12.2247	0.921
12.2648	0.927
12.3049	0.935
12.345	0.935
12.385	0.935
12.4251	0.937
12.4652	0.944
12.5053	0.944
12.5454	0.945
12.5855	0.945
12.6256	0.944
12.6657	0.942
12.7058	0.942
12.7459	0.939
12.786	0.939
12.8261	0.937
12.8662	0.932
12.9063	0.914
12.9464	0.876
12.9865	0.827
13.0266	0.792
13.0667	0.791
13.1068	0.786
13.1469	0.74
13.187	0.662
13.2271	0.544
13.2672	0.302
13.3073	0.074
13.3474	0.054
13.3875	0.049
13.4276	0.041
13.4677	0.072
13.5078	0.157
13.5479	0.279
13.5879	0.396
13.628	0.501
13.6681	0.587
13.7082	0.652
13.7483	0.703
13.7884	0.713
13.8285	0.7
13.8686	0.662
13.9087	0.572
13.9488	0.343
13.9889	0.108
14.029	0.067
14.0691	0.069
14.1092	0.095
14.1493	0.167
14.1894	0.286
14.2295	0.398
14.2696	0.473
14.3097	0.521
14.3498	0.562
14.3899	0.606
14.43	0.662
14.4701	0.707
14.5102	0.741
14.5503	0.754
14.5904	0.777
14.6305	0.787
14.6706	0.802
14.7107	0.81
14.7508	0.815
14.7909	0.819
14.8309	0.822
14.871	0.83
14.9111	0.833
14.9512	0.83
14.9913	0.822
15.0314	0.827
15.0715	0.835
15.1116	0.838
15.1517	0.842
15.1918	0.842
15.2319	0.843
15.272	0.842
15.3121	0.842
15.3522	0.84
15.3923	0.838
15.4324	0.835
15.4725	0.833
15.5126	0.832
15.5527	0.83
15.5928	0.828
15.6329	0.824
15.673	0.822
15.7131	0.819
15.7532	0.815
15.7933	0.81
15.8334	0.805
15.8735	0.802
15.9136	0.799
15.9537	0.794
15.9938	0.781
