Infrared Spectrum: Ethanol,2-[3-[4-(o-methoxyphenyl)piperazino]propoxy]-, dihydrochloride
Formula: C16 H28 Cl2 N2 O3
State: SOLID (NUJOL MULL)
Class: COBLENTZ III
Instrument: PERKIN-ELMER 21 (GRATING)
Instrument parameters: FILTER AT ABOUT 10 MICRONS
Resolution: 2
Origin: ABBOTT LABORATORIES
1/CM	TRANSMITTANCE
653	0.6124
662	0.6406
671	0.6712
680	0.6968
689	0.7158
698	0.7219
707	0.7077
716	0.6526
725	0.6302
734	0.6346
743	0.6196
752	0.4409
761	0.2697
770	0.6132
779	0.7276
788	0.732
797	0.6766
806	0.7326
815	0.726
824	0.7451
833	0.712
842	0.6744
851	0.6812
860	0.6576
869	0.6105
878	0.5294
887	0.5051
896	0.6441
905	0.6762
914	0.6028
923	0.5732
932	0.6534
941	0.6323
950	0.5666
959	0.5141
968	0.3697
977	0.6237
986	0.6166
995	0.5585
1004	0.4418
1013	0.2394
1022	0.2932
1031	0.4834
1040	0.3373
1049	0.3457
1058	0.3358
1067	0.3213
1076	0.5076
1085	0.4454
1094	0.3131
1103	0.4928
1112	0.2936
1121	0.4389
1130	0.6038
1139	0.5995
1148	0.4655
1157	0.4727
1166	0.5911
1175	0.6088
1184	0.5967
1193	0.5957
1202	0.5562
1211	0.4039
1220	0.4764
1229	0.5023
1238	0.4777
1247	0.3641
1256	0.0923
1265	0.2997
1274	0.3503
1283	0.4409
1292	0.4057
1301	0.5571
1310	0.5577
1319	0.544
1328	0.5309
1337	0.5237
1346	0.4417
1355	0.4636
1364	0.3028
1373	0.241
1382	0.3456
1391	0.4761
1400	0.4518
1409	0.4468
1418	0.2834
1427	0.1688
1436	0.1268
1445	0.064
1454	0.0605
1463	0.2082
1472	0.3453
1481	0.3005
1490	0.5221
1499	0.4829
1508	0.388
1517	0.5907
1526	0.6615
1535	0.6613
1544	0.6605
1553	0.6597
1562	0.6467
1571	0.6387
1580	0.598
1589	0.5194
1598	0.396
1607	0.4682
1616	0.6558
1625	0.6537
1634	0.6451
1643	0.6445
1652	0.6451
1661	0.6459
1670	0.647
1679	0.6483
1688	0.6502
1697	0.6525
1706	0.6546
1715	0.6562
1724	0.6577
1733	0.6591
1742	0.6597
1751	0.6593
1760	0.6569
1769	0.6538
1778	0.6493
1787	0.6448
1796	0.6393
1805	0.6337
1814	0.6276
1823	0.6217
1832	0.6155
1841	0.6091
1850	0.6028
1859	0.5956
1868	0.5885
1877	0.5814
1886	0.572
1895	0.5628
1904	0.5538
1913	0.5449
1922	0.5361
1931	0.5266
1940	0.5165
1949	0.5065
1958	0.4963
1967	0.4863
1976	0.476
1985	0.4655
1994	0.4536
2003	0.4414
2012	0.43
2021	0.4193
2030	0.4094
2039	0.4014
2048	0.3933
2057	0.3846
2066	0.3755
2075	0.3665
2084	0.355
2093	0.341
2102	0.3276
2111	0.3156
2120	0.3037
2129	0.2869
2138	0.2698
2147	0.2601
2156	0.2541
2165	0.2503
2174	0.2509
2183	0.2536
2192	0.2589
2201	0.2644
2210	0.2705
2219	0.2772
2228	0.2829
2237	0.2892
2246	0.2953
2255	0.3014
2264	0.3063
2273	0.3078
2282	0.3062
2291	0.3029
2300	0.2999
2309	0.2977
2318	0.2963
2327	0.2963
2336	0.2965
2345	0.2945
2354	0.2892
2363	0.284
2372	0.2782
2381	0.2723
2390	0.2665
2399	0.2622
2408	0.262
2417	0.2638
2426	0.2715
2435	0.2796
2444	0.2794
2453	0.2755
2462	0.271
2471	0.2697
2480	0.273
2489	0.2803
2498	0.2905
2507	0.3082
2516	0.3219
2525	0.3306
2534	0.3368
2543	0.3429
2552	0.3548
2561	0.37
2570	0.3773
2579	0.3786
2588	0.3813
2597	0.3956
2606	0.4054
2615	0.4109
2624	0.4211
2633	0.4413
2642	0.4565
2651	0.4623
2660	0.4672
2669	0.4712
2678	0.4759
2687	0.4883
2696	0.5065
2705	0.5084
2714	0.5077
2723	0.5054
2732	0.498
2741	0.4865
2750	0.4755
2759	0.4676
2768	0.4319
2777	0.353
2786	0.2744
2795	0.1965
2804	0.1191
2813	0.0524
2822	0.0332
2831	0.0286
2840	0.027
2849	0.0257
2858	0.0249
2867	0.025
2876	0.0266
2885	0.0288
2894	0.0324
2903	0.0359
2912	0.0394
2921	0.048
2930	0.0858
2939	0.132
2948	0.178
2957	0.2237
2966	0.2692
2975	0.3143
2984	0.3702
2993	0.3933
3002	0.4132
3011	0.4282
3020	0.4412
3029	0.45
3038	0.4569
3047	0.4603
3056	0.4624
3065	0.4626
3074	0.4625
3083	0.462
3092	0.4602
3101	0.4582
3110	0.4563
3119	0.454
3128	0.4518
3137	0.4495
3146	0.4467
3155	0.4438
3164	0.4409
3173	0.438
3182	0.4346
3191	0.4309
3200	0.4273
3209	0.4236
3218	0.4195
3227	0.4145
3236	0.4094
3245	0.4018
3254	0.3926
3263	0.3737
3272	0.3534
3281	0.3333
3290	0.3132
3299	0.2932
3308	0.2734
3317	0.2536
3326	0.234
3335	0.2217
3344	0.2365
3353	0.2773
3362	0.3179
3371	0.3582
3380	0.3983
3389	0.4377
3398	0.4557
3407	0.4638
3416	0.4719
3425	0.4776
3434	0.4805
3443	0.4823
3452	0.4826
3461	0.4829
3470	0.4822
3479	0.4813
3488	0.4803
3497	0.4784
3506	0.4765
3515	0.4744
3524	0.472
3533	0.4696
3542	0.4676
3551	0.4658
3560	0.464
3569	0.4629
3578	0.4624
3587	0.4618
3596	0.4612
3605	0.4606
3614	0.4596
3623	0.4587
3632	0.4577
3641	0.4569
3650	0.4559
3659	0.4548
3668	0.4526
3677	0.4504
3686	0.4482
3695	0.446
3704	0.4439
3713	0.4418
3722	0.4397
3731	0.4376
3740	0.4358
3749	0.4344
3758	0.433
3767	0.4316
3776	0.4302
3785	0.4289
3794	0.4275
3803	0.4262
3812	0.4248
3821	0.4235
3830	0.422
3839	0.4204
3848	0.4188
3857	0.4172
3866	0.4156
3875	0.414
3884	0.4125
3893	0.4109
3902	0.4097
3911	0.4084
3920	0.4072
3929	0.4059
3938	0.4047
3947	0.4034
3956	0.4022
3965	0.401
3974	0.3997
3983	0.3986
3992	0.3974
