Infrared Spectrum: POTASSIUM ORTHOARSENATE, MONOBASIC
Formula: K H2 As O4
State: SOLID (NUJOL MULL)
Class: COBLENTZ
Instrument: Not specified, most likely a prism, grating, or hybrid spectrometer.
Sampling: TRANSMISSION
Resolution: 4
Origin: MELLON INSTITUTE
MICROMETERS	TRANSMITTANCE
2.05	0.897
2.09102	0.898
2.13204	0.898
2.17305	0.9
2.21407	0.9
2.25509	0.9
2.29611	0.9
2.33712	0.9
2.37814	0.9
2.41916	0.9
2.46018	0.9
2.5012	0.898
2.54221	0.898
2.58323	0.898
2.62425	0.898
2.66527	0.897
2.70628	0.897
2.7473	0.895
2.78832	0.891
2.82934	0.89
2.87035	0.885
2.91137	0.881
2.95239	0.878
2.99341	0.876
3.03443	0.873
3.07544	0.869
3.11646	0.864
3.15748	0.859
3.1985	0.854
3.23951	0.845
3.28053	0.825
3.32155	0.739
3.36257	0.42
3.40359	0.283
3.4446	0.284
3.48562	0.349
3.52664	0.588
3.56766	0.636
3.60867	0.646
3.64969	0.648
3.69071	0.646
3.73173	0.651
3.77274	0.662
3.81376	0.67
3.85478	0.674
3.8958	0.677
3.93682	0.672
3.97783	0.655
4.01885	0.636
4.05987	0.62
4.10089	0.603
4.1419	0.584
4.18292	0.574
4.22394	0.571
4.26496	0.571
4.30598	0.572
4.34699	0.572
4.38801	0.572
4.42903	0.571
4.47005	0.571
4.51106	0.579
4.55208	0.588
4.5931	0.593
4.63412	0.6
4.67513	0.605
4.71615	0.615
4.75717	0.622
4.79819	0.626
4.83921	0.629
4.88022	0.636
4.92124	0.639
4.96226	0.644
5.00328	0.644
5.04429	0.644
5.08531	0.641
5.12633	0.638
5.16735	0.632
5.20837	0.624
5.24938	0.612
5.2904	0.607
5.33142	0.602
5.37244	0.596
5.41345	0.588
5.45447	0.581
5.49549	0.572
5.53651	0.564
5.57752	0.555
5.61854	0.545
5.65956	0.535
5.70058	0.526
5.7416	0.521
5.78261	0.511
5.82363	0.499
5.86465	0.488
5.90567	0.48
5.94668	0.473
5.9877	0.471
6.02872	0.468
6.06974	0.464
6.11076	0.459
6.15177	0.456
6.19279	0.454
6.23381	0.454
6.27483	0.454
6.31584	0.456
6.35686	0.456
6.39788	0.457
6.4389	0.461
6.47991	0.464
6.52093	0.468
6.56195	0.471
6.60297	0.473
6.64399	0.471
6.685	0.468
6.72602	0.454
6.76704	0.43
6.80806	0.387
6.84907	0.367
6.89009	0.37
6.93111	0.394
6.97213	0.432
7.01315	0.445
7.05416	0.452
7.09518	0.459
7.1362	0.464
7.17722	0.435
7.21823	0.421
7.25925	0.425
7.30027	0.437
7.34129	0.452
7.3823	0.457
7.42332	0.461
7.46434	0.454
7.50536	0.449
7.54638	0.432
7.58739	0.42
7.62841	0.403
7.66943	0.394
7.71045	0.384
7.75146	0.377
7.79248	0.373
7.8335	0.37
7.87452	0.37
7.91554	0.373
7.95655	0.38
7.99757	0.387
8.03859	0.394
8.07961	0.401
8.12062	0.406
8.16164	0.413
8.20266	0.418
8.24368	0.423
8.28469	0.428
8.32571	0.433
8.36673	0.439
8.40775	0.445
8.44877	0.451
8.48978	0.456
8.5308	0.463
8.57182	0.466
8.61284	0.473
8.65385	0.48
8.69487	0.483
8.73589	0.488
8.77691	0.493
8.81793	0.5
8.85894	0.506
8.89996	0.511
8.94098	0.519
8.982	0.524
9.02301	0.531
9.06403	0.535
9.10505	0.54
9.14607	0.543
9.18708	0.55
9.2281	0.554
9.26912	0.559
9.31014	0.562
9.35116	0.566
9.39217	0.567
9.43319	0.571
9.47421	0.572
9.51523	0.574
9.55624	0.574
9.59726	0.576
9.63828	0.576
9.6793	0.576
9.72032	0.579
9.76133	0.583
9.80235	0.586
9.84337	0.595
9.88439	0.602
9.9254	0.61
9.96642	0.619
10.0074	0.627
10.0485	0.636
10.0895	0.644
10.1305	0.653
10.1715	0.658
10.2125	0.663
10.2535	0.668
10.2946	0.675
10.3356	0.684
10.3766	0.694
10.4176	0.704
10.4586	0.708
10.4997	0.718
10.5407	0.725
10.5817	0.734
10.6227	0.739
10.6637	0.742
10.7047	0.744
10.7458	0.747
10.7868	0.751
10.8278	0.754
10.8688	0.756
10.9098	0.754
10.9508	0.754
10.9919	0.749
11.0329	0.737
11.0739	0.725
11.1149	0.706
11.1559	0.684
11.197	0.665
11.238	0.65
11.279	0.632
11.32	0.619
11.361	0.603
11.402	0.59
11.4431	0.579
11.4841	0.569
11.5251	0.555
11.5661	0.548
11.6071	0.54
11.6481	0.535
11.6892	0.528
11.7302	0.523
11.7712	0.526
11.8122	0.533
11.8532	0.535
11.8943	0.542
11.9353	0.545
11.9763	0.547
12.0173	0.548
12.0583	0.548
12.0993	0.548
12.1404	0.548
12.1814	0.548
12.2224	0.548
12.2634	0.547
12.3044	0.543
12.3454	0.543
12.3865	0.542
12.4275	0.543
12.4685	0.542
12.5095	0.54
12.5505	0.535
12.5916	0.531
12.6326	0.53
12.6736	0.526
12.7146	0.523
12.7556	0.518
12.7966	0.512
12.8377	0.506
12.8787	0.502
12.9197	0.497
12.9607	0.488
13.0017	0.48
13.0428	0.471
13.0838	0.466
13.1248	0.463
13.1658	0.459
13.2068	0.456
13.2478	0.454
13.2889	0.452
13.3299	0.451
13.3709	0.451
13.4119	0.451
13.4529	0.451
13.4939	0.452
13.535	0.452
13.576	0.456
13.617	0.461
13.658	0.468
13.699	0.475
13.7401	0.481
13.7811	0.487
13.8221	0.497
13.8631	0.502
13.9041	0.511
13.9451	0.521
13.9862	0.531
14.0272	0.538
14.0682	0.545
14.1092	0.552
14.1502	0.555
14.1912	0.559
14.2323	0.567
14.2733	0.574
14.3143	0.581
14.3553	0.586
14.3963	0.595
14.4374	0.598
14.4784	0.602
14.5194	0.605
14.5604	0.612
14.6014	0.615
14.6424	0.62
14.6835	0.624
14.7245	0.629
14.7655	0.634
14.8065	0.639
14.8475	0.643
14.8885	0.646
14.9296	0.648
14.9706	0.65
15.0116	0.651
15.0526	0.653
15.0936	0.655
15.1347	0.656
15.1757	0.658
15.2167	0.662
15.2577	0.662
15.2987	0.663
15.3397	0.663
15.3808	0.665
15.4218	0.665
15.4628	0.667
15.5038	0.668
15.5448	0.672
15.5859	0.675
15.6269	0.675
15.6679	0.679
15.7089	0.68
15.7499	0.682
15.7909	0.684
15.832	0.684
15.873	0.684
15.914	0.686
15.955	0.689
15.996	0.687
