Infrared Spectrum: AMMONIUM DICHROMATE
Formula: ( N H4)2 Cr2 O7
State: SOLID (NUJOL AND FLUOROLUBE MULLS)
Class: COBLENTZ
Instrument: Not specified, most likely a prism, grating, or hybrid spectrometer.
Sampling: TRANSMISSION
Resolution: 4
Origin: MELLON INSTITUTE
MICROMETERS	TRANSMITTANCE
2.022	0.503
2.06274	0.511
2.10348	0.518
2.14422	0.529
2.18497	0.535
2.22571	0.546
2.26645	0.553
2.30719	0.565
2.34793	0.578
2.38867	0.594
2.42941	0.609
2.47016	0.626
2.5109	0.64
2.55164	0.655
2.59238	0.676
2.63312	0.695
2.67386	0.703
2.7146	0.714
2.75535	0.724
2.79609	0.729
2.83683	0.741
2.87757	0.748
2.91831	0.748
2.95905	0.717
2.99979	0.619
3.04053	0.527
3.08128	0.409
3.12202	0.363
3.16276	0.351
3.2035	0.351
3.24424	0.342
3.28498	0.344
3.32572	0.383
3.36647	0.44
3.40721	0.515
3.44795	0.553
3.48869	0.563
3.52943	0.573
3.57017	0.621
3.61091	0.672
3.65166	0.712
3.6924	0.746
3.73314	0.758
3.77388	0.77
3.81462	0.782
3.85536	0.792
3.8961	0.804
3.93685	0.815
3.97759	0.823
4.01833	0.832
4.05907	0.835
4.09981	0.84
4.14055	0.845
4.18129	0.844
4.22204	0.84
4.26278	0.835
4.30352	0.833
4.34426	0.844
4.385	0.852
4.42574	0.857
4.46648	0.859
4.50723	0.864
4.54797	0.868
4.58871	0.873
4.62945	0.876
4.67019	0.886
4.71093	0.89
4.75167	0.89
4.79242	0.892
4.83316	0.892
4.8739	0.897
4.91464	0.902
4.95538	0.902
4.99612	0.905
5.03686	0.909
5.0776	0.91
5.11835	0.912
5.15909	0.914
5.19983	0.916
5.24057	0.912
5.28131	0.91
5.32205	0.91
5.36279	0.909
5.40354	0.912
5.44428	0.914
5.48502	0.917
5.52576	0.921
5.5665	0.922
5.60724	0.924
5.64798	0.928
5.68873	0.929
5.72947	0.931
5.77021	0.929
5.81095	0.924
5.85169	0.921
5.89243	0.916
5.93317	0.914
5.97392	0.91
6.01466	0.907
6.0554	0.905
6.09614	0.917
6.13688	0.926
6.17762	0.936
6.21836	0.945
6.25911	0.941
6.29985	0.941
6.34059	0.941
6.38133	0.936
6.42207	0.94
6.46281	0.943
6.50355	0.94
6.5443	0.94
6.58504	0.946
6.62578	0.946
6.66652	0.936
6.70726	0.921
6.748	0.904
6.78874	0.881
6.82949	0.837
6.87023	0.768
6.91097	0.669
6.95171	0.53
6.99245	0.414
7.03319	0.268
7.07393	0.203
7.11467	0.224
7.15542	0.354
7.19616	0.515
7.2369	0.657
7.27764	0.714
7.31838	0.767
7.35912	0.777
7.39986	0.784
7.44061	0.797
7.48135	0.82
7.52209	0.839
7.56283	0.849
7.60357	0.854
7.64431	0.854
7.68505	0.857
7.7258	0.863
7.76654	0.873
7.80728	0.892
7.84802	0.898
7.88876	0.902
7.9295	0.904
7.97024	0.905
8.01099	0.91
8.05173	0.914
8.09247	0.917
8.13321	0.922
8.17395	0.924
8.21469	0.926
8.25543	0.928
8.29618	0.928
8.33692	0.929
8.37766	0.929
8.4184	0.931
8.45914	0.931
8.49988	0.934
8.54062	0.933
8.58137	0.931
8.62211	0.929
8.66285	0.928
8.70359	0.928
8.74433	0.929
8.78507	0.931
8.82581	0.934
8.86656	0.933
8.9073	0.931
8.94804	0.926
8.98878	0.928
9.02952	0.929
9.07026	0.933
9.111	0.934
9.15174	0.934
9.19249	0.934
9.23323	0.936
9.27397	0.938
9.31471	0.94
9.35545	0.94
9.39619	0.94
9.43693	0.938
9.47768	0.94
9.51842	0.941
9.55916	0.941
9.5999	0.94
9.64064	0.938
9.68138	0.938
9.72212	0.936
9.76287	0.938
9.80361	0.94
9.84435	0.938
9.88509	0.934
9.92583	0.931
9.96657	0.928
10.0073	0.917
10.0481	0.914
10.0888	0.905
10.1295	0.9
10.1703	0.875
10.211	0.833
10.2518	0.78
10.2925	0.671
10.3332	0.575
10.374	0.441
10.4147	0.351
10.4555	0.261
10.4962	0.202
10.537	0.169
10.5777	0.159
10.6184	0.174
10.6592	0.196
10.6999	0.205
10.7407	0.207
10.7814	0.203
10.8221	0.214
10.8629	0.217
10.9036	0.229
10.9444	0.26
10.9851	0.309
11.0258	0.368
11.0666	0.385
11.1073	0.375
11.1481	0.371
11.1888	0.412
11.2296	0.486
11.2703	0.532
11.311	0.544
11.3518	0.517
11.3925	0.496
11.4333	0.513
11.474	0.601
11.5147	0.679
11.5555	0.739
11.5962	0.775
11.637	0.806
11.6777	0.823
11.7185	0.837
11.7592	0.845
11.7999	0.854
11.8407	0.863
11.8814	0.876
11.9222	0.883
11.9629	0.89
12.0036	0.895
12.0444	0.893
12.0851	0.895
12.1259	0.895
12.1666	0.897
12.2073	0.898
12.2481	0.897
12.2888	0.895
12.3296	0.893
12.3703	0.886
12.4111	0.883
12.4518	0.881
12.4925	0.876
12.5333	0.871
12.574	0.864
12.6148	0.856
12.6555	0.842
12.6962	0.828
12.737	0.803
12.7777	0.779
12.8185	0.744
12.8592	0.72
12.9	0.669
12.9407	0.623
12.9814	0.582
13.0222	0.541
13.0629	0.503
13.1037	0.462
13.1444	0.44
13.1851	0.41
13.2259	0.388
13.2666	0.366
13.3074	0.354
13.3481	0.339
13.3889	0.325
13.4296	0.315
13.4703	0.304
13.5111	0.299
13.5518	0.291
13.5926	0.284
13.6333	0.28
13.674	0.28
13.7148	0.279
13.7555	0.279
13.7963	0.291
13.837	0.301
13.8777	0.323
13.9185	0.356
13.9592	0.4
14	0.448
14.0407	0.505
14.0815	0.546
14.1222	0.582
14.1629	0.602
14.2037	0.625
14.2444	0.647
14.2852	0.655
14.3259	0.666
14.3666	0.678
14.4074	0.684
14.4481	0.686
14.4889	0.69
14.5296	0.691
14.5704	0.693
14.6111	0.695
14.6518	0.695
14.6926	0.695
14.7333	0.698
14.7741	0.696
14.8148	0.686
14.8555	0.69
14.8963	0.688
14.937	0.683
14.9778	0.681
15.0185	0.676
15.0592	0.672
15.1	0.666
15.1407	0.662
15.1815	0.66
15.2222	0.655
15.263	0.654
15.3037	0.65
15.3444	0.648
15.3852	0.647
15.4259	0.645
15.4667	0.645
15.5074	0.642
15.5481	0.638
15.5889	0.635
15.6296	0.631
15.6704	0.63
15.7111	0.626
15.7519	0.626
15.7926	0.625
15.8333	0.625
15.8741	0.626
15.9148	0.625
15.9556	0.628
15.9963	0.626
