Infrared Spectrum: BARIUM DIPHENYLAMINE P-SULFONATE
Formula: C24 H20 N2 O6 S2 Ba
State: SOLID (MINERAL OIL MULL)
Class: COBLENTZ
Instrument: Not specified, most likely a prism, grating, or hybrid spectrometer.
Sampling: TRANSMISSION
Resolution: 4
Origin: WYANDOTTE CHEMICALS CORP., WYANDOTTE, MICHIGAN, USA
MICROMETERS	TRANSMITTANCE
2.061	0.651
2.10184	0.652
2.14268	0.644
2.18352	0.635
2.22435	0.634
2.26519	0.639
2.30603	0.649
2.34687	0.652
2.38771	0.656
2.42855	0.673
2.46938	0.685
2.51022	0.683
2.55106	0.695
2.5919	0.702
2.63274	0.716
2.67358	0.717
2.71441	0.717
2.75525	0.723
2.79609	0.726
2.83693	0.723
2.87777	0.723
2.91861	0.704
2.95944	0.463
3.00028	0.483
3.04112	0.659
3.08196	0.678
3.1228	0.668
3.16364	0.658
3.20447	0.646
3.24531	0.555
3.28615	0.516
3.32699	0.348
3.36783	0.03
3.40867	0.042
3.4495	0.083
3.49034	0.087
3.53118	0.4
3.57202	0.719
3.61286	0.788
3.6537	0.784
3.69453	0.784
3.73537	0.794
3.77621	0.8
3.81705	0.818
3.85789	0.823
3.89873	0.832
3.93956	0.832
3.9804	0.844
4.02124	0.863
4.06208	0.859
4.10292	0.87
4.14376	0.87
4.18459	0.87
4.22543	0.87
4.26627	0.864
4.30711	0.88
4.34795	0.888
4.38879	0.89
4.42962	0.882
4.47046	0.887
4.5113	0.887
4.55214	0.887
4.59298	0.895
4.63382	0.9
4.67466	0.912
4.71549	0.919
4.75633	0.923
4.79717	0.926
4.83801	0.926
4.87885	0.931
4.91969	0.936
4.96052	0.936
5.00136	0.936
5.0422	0.936
5.08304	0.94
5.12388	0.936
5.16472	0.919
5.20555	0.914
5.24639	0.868
5.28723	0.909
5.32807	0.94
5.36891	0.947
5.40975	0.947
5.45058	0.941
5.49142	0.947
5.53226	0.952
5.5731	0.95
5.61394	0.947
5.65478	0.947
5.69561	0.953
5.73645	0.941
5.77729	0.95
5.81813	0.935
5.85897	0.935
5.89981	0.938
5.94064	0.926
5.98148	0.916
6.02232	0.919
6.06316	0.914
6.104	0.899
6.14484	0.829
6.18567	0.456
6.22651	0.241
6.26735	0.437
6.30819	0.6
6.34903	0.788
6.38987	0.842
6.4307	0.859
6.47154	0.823
6.51238	0.6
6.55322	0.295
6.59406	0.355
6.6349	0.372
6.67573	0.427
6.71657	0.557
6.75741	0.48
6.79825	0.239
6.83909	0.271
6.87993	0.34
6.92076	0.394
6.9616	0.685
7.00244	0.781
7.04328	0.822
7.08412	0.808
7.12496	0.601
7.1658	0.459
7.20663	0.504
7.24747	0.398
7.28831	0.558
7.32915	0.639
7.36999	0.711
7.41083	0.712
7.45166	0.668
7.4925	0.557
7.53334	0.288
7.57418	0.482
7.61502	0.63
7.65586	0.576
7.69669	0.637
7.73753	0.673
7.77837	0.726
7.81921	0.711
7.86005	0.634
7.90089	0.579
7.94172	0.485
7.98256	0.323
8.0234	0.205
8.06424	0.112
8.10508	0.058
8.14592	0.049
8.18675	0.064
8.22759	0.063
8.26843	0.047
8.30927	0.07
8.35011	0.071
8.39095	0.061
8.43178	0.092
8.47262	0.107
8.51346	0.063
8.5543	0.047
8.59514	0.083
8.63598	0.165
8.67681	0.276
8.71765	0.288
8.75849	0.126
8.79933	0.141
8.84017	0.242
8.88101	0.302
8.92184	0.348
8.96268	0.341
9.00352	0.396
9.04436	0.446
9.0852	0.564
9.12604	0.606
9.16687	0.637
9.20771	0.646
9.24855	0.606
9.28939	0.652
9.33023	0.685
9.37107	0.695
9.4119	0.675
9.45274	0.487
9.49358	0.264
9.53442	0.55
9.57526	0.615
9.6161	0.548
9.65693	0.661
9.69777	0.642
9.73861	0.682
9.77945	0.728
9.82029	0.75
9.86113	0.757
9.90197	0.635
9.9428	0.733
9.98364	0.765
10.0245	0.755
10.0653	0.685
10.1062	0.743
10.147	0.76
10.1878	0.719
10.2287	0.694
10.2695	0.716
10.3103	0.748
10.3512	0.762
10.392	0.765
10.4329	0.762
10.4737	0.774
10.5145	0.77
10.5554	0.774
10.5962	0.794
10.6371	0.808
10.6779	0.81
10.7187	0.813
10.7596	0.813
10.8004	0.815
10.8412	0.815
10.8821	0.818
10.9229	0.818
10.9638	0.818
11.0046	0.827
11.0454	0.827
11.0863	0.834
11.1271	0.835
11.168	0.835
11.2088	0.827
11.2496	0.808
11.2905	0.743
11.3313	0.699
11.3721	0.729
11.413	0.723
11.4538	0.736
11.4947	0.793
11.5355	0.823
11.5763	0.829
11.6172	0.829
11.658	0.829
11.6989	0.805
11.7397	0.68
11.7805	0.521
11.8214	0.502
11.8622	0.461
11.903	0.446
11.9439	0.478
11.9847	0.545
12.0256	0.577
12.0664	0.596
12.1072	0.649
12.1481	0.685
12.1889	0.709
12.2298	0.707
12.2706	0.687
12.3114	0.69
12.3523	0.707
12.3931	0.714
12.4339	0.711
12.4748	0.666
12.5156	0.639
12.5565	0.664
12.5973	0.719
12.6381	0.762
12.679	0.793
12.7198	0.81
12.7607	0.822
12.8015	0.829
12.8423	0.832
12.8832	0.835
12.924	0.835
12.9648	0.835
13.0057	0.837
13.0465	0.837
13.0874	0.834
13.1282	0.823
13.169	0.8
13.2099	0.74
13.2507	0.632
13.2915	0.466
13.3324	0.223
13.3732	0.133
13.4141	0.138
13.4549	0.109
13.4957	0.153
13.5366	0.311
13.5774	0.444
13.6183	0.487
13.6591	0.463
13.6999	0.447
13.7408	0.468
13.7816	0.538
13.8224	0.618
13.8633	0.661
13.9041	0.68
13.945	0.7
13.9858	0.724
14.0266	0.729
14.0675	0.694
14.1083	0.617
14.1492	0.529
14.19	0.528
14.2308	0.577
14.2717	0.617
14.3125	0.632
14.3533	0.623
14.3942	0.588
14.435	0.504
14.4759	0.365
14.5167	0.268
14.5575	0.264
14.5984	0.35
14.6392	0.475
14.6801	0.601
14.7209	0.663
14.7617	0.7
14.8026	0.717
14.8434	0.731
14.8842	0.736
14.9251	0.741
14.9659	0.741
15.0068	0.716
15.0476	0.683
15.0884	0.678
15.1293	0.704
15.1701	0.728
15.211	0.721
15.2518	0.711
15.2926	0.695
15.3335	0.682
15.3743	0.649
15.4151	0.613
15.456	0.574
15.4968	0.558
15.5377	0.567
15.5785	0.579
15.6193	0.589
15.6602	0.6
15.701	0.61
15.7419	0.611
15.7827	0.61
15.8235	0.601
15.8644	0.588
15.9052	0.562
15.946	0.552
15.9869	0.535
