Infrared Spectrum: FORMIC ACID, THALLOUS SALT
Formula: C H O2 Tl
State: SOLID (MINERAL OIL MULL)
Class: COBLENTZ
Instrument: Not specified, most likely a prism, grating, or hybrid spectrometer.
Sampling: TRANSMISSION
Resolution: 4
Origin: WYANDOTTE CHEMICALS CORP., WYANDOTTE, MICHIGAN, USA
MICROMETERS	TRANSMITTANCE
2.027	0.686
2.06683	0.689
2.10666	0.691
2.14649	0.692
2.18631	0.691
2.22614	0.667
2.26597	0.654
2.3058	0.657
2.34563	0.659
2.38546	0.657
2.42529	0.662
2.46511	0.669
2.50494	0.677
2.54477	0.677
2.5846	0.682
2.62443	0.684
2.66426	0.689
2.70409	0.694
2.74391	0.694
2.78374	0.692
2.82357	0.689
2.8634	0.686
2.90323	0.686
2.94306	0.682
2.98289	0.676
3.02271	0.676
3.06254	0.676
3.10237	0.676
3.1422	0.676
3.18203	0.674
3.22186	0.669
3.26169	0.661
3.30152	0.637
3.34134	0.491
3.38117	0.023
3.421	0.033
3.46083	0.043
3.50066	0.043
3.54049	0.162
3.58032	0.378
3.62014	0.355
3.65997	0.383
3.6998	0.395
3.73963	0.405
3.77946	0.405
3.81929	0.428
3.85912	0.438
3.89894	0.453
3.93877	0.465
3.9786	0.47
4.01843	0.483
4.05826	0.488
4.09809	0.495
4.13792	0.5
4.17774	0.503
4.21757	0.508
4.2574	0.513
4.29723	0.519
4.33706	0.528
4.37689	0.531
4.41672	0.539
4.45654	0.543
4.49637	0.549
4.5362	0.561
4.57603	0.566
4.61586	0.573
4.65569	0.578
4.69552	0.589
4.73534	0.601
4.77517	0.607
4.815	0.619
4.85483	0.629
4.89466	0.632
4.93449	0.642
4.97432	0.647
5.01414	0.656
5.05397	0.667
5.0938	0.672
5.13363	0.696
5.17346	0.702
5.21329	0.719
5.25312	0.729
5.29295	0.747
5.33277	0.755
5.3726	0.774
5.41243	0.79
5.45226	0.802
5.49209	0.82
5.53192	0.84
5.57175	0.858
5.61157	0.868
5.6514	0.89
5.69123	0.911
5.73106	0.918
5.77089	0.925
5.81072	0.93
5.85055	0.92
5.89037	0.911
5.9302	0.895
5.97003	0.86
6.00986	0.794
6.04969	0.696
6.08952	0.616
6.12935	0.529
6.16917	0.448
6.209	0.368
6.24883	0.317
6.28866	0.3
6.32849	0.29
6.36832	0.28
6.40815	0.257
6.44797	0.257
6.4878	0.244
6.52763	0.24
6.56746	0.235
6.60729	0.23
6.64712	0.227
6.68695	0.22
6.72677	0.204
6.7666	0.144
6.80643	0.079
6.84626	0.093
6.88609	0.127
6.92592	0.194
6.96575	0.27
7.00557	0.332
7.0454	0.357
7.08523	0.387
7.12506	0.416
7.16489	0.441
7.20472	0.406
7.24455	0.29
7.28438	0.34
7.3242	0.367
7.36403	0.264
7.40386	0.215
7.44369	0.22
7.48352	0.204
7.52335	0.194
7.56318	0.212
7.603	0.225
7.64283	0.237
7.68266	0.249
7.72249	0.269
7.76232	0.285
7.80215	0.295
7.84198	0.308
7.8818	0.322
7.92163	0.333
7.96146	0.347
8.00129	0.355
8.04112	0.363
8.08095	0.373
8.12078	0.383
8.1606	0.39
8.20043	0.397
8.24026	0.405
8.28009	0.411
8.31992	0.421
8.35975	0.43
8.39958	0.433
8.4394	0.441
8.47923	0.448
8.51906	0.45
8.55889	0.455
8.59872	0.458
8.63855	0.466
8.67838	0.476
8.7182	0.493
8.75803	0.503
8.79786	0.513
8.83769	0.518
8.87752	0.523
8.91735	0.528
8.95718	0.529
8.997	0.536
9.03683	0.546
9.07666	0.548
9.11649	0.546
9.15632	0.551
9.19615	0.553
9.23598	0.553
9.2758	0.554
9.31563	0.556
9.35546	0.559
9.39529	0.563
9.43512	0.566
9.47495	0.551
9.51478	0.571
9.55461	0.574
9.59443	0.578
9.63426	0.581
9.67409	0.584
9.71392	0.589
9.75375	0.596
9.79358	0.598
9.83341	0.601
9.87323	0.606
9.91306	0.612
9.95289	0.619
9.99272	0.626
10.0325	0.631
10.0724	0.632
10.1122	0.636
10.152	0.636
10.1919	0.636
10.2317	0.636
10.2715	0.634
10.3113	0.637
10.3512	0.641
10.391	0.646
10.4308	0.651
10.4707	0.654
10.5105	0.656
10.5503	0.664
10.5901	0.662
10.63	0.667
10.6698	0.671
10.7096	0.672
10.7495	0.674
10.7893	0.679
10.8291	0.689
10.8689	0.692
10.9088	0.694
10.9486	0.697
10.9884	0.702
11.0283	0.709
11.0681	0.714
11.1079	0.72
11.1477	0.722
11.1876	0.724
11.2274	0.727
11.2672	0.729
11.3071	0.734
11.3469	0.737
11.3867	0.742
11.4265	0.745
11.4664	0.75
11.5062	0.752
11.546	0.757
11.5859	0.76
11.6257	0.765
11.6655	0.765
11.7053	0.769
11.7452	0.77
11.785	0.774
11.8248	0.775
11.8647	0.775
11.9045	0.78
11.9443	0.787
11.9841	0.794
12.024	0.799
12.0638	0.803
12.1036	0.807
12.1435	0.81
12.1833	0.813
12.2231	0.815
12.2629	0.82
12.3028	0.822
12.3426	0.823
12.3824	0.828
12.4223	0.833
12.4621	0.837
12.5019	0.843
12.5418	0.848
12.5816	0.857
12.6214	0.858
12.6612	0.862
12.7011	0.87
12.7409	0.872
12.7807	0.872
12.8206	0.87
12.8604	0.848
12.9002	0.799
12.94	0.737
12.9799	0.734
13.0197	0.742
13.0595	0.661
13.0994	0.506
13.1392	0.367
13.179	0.303
13.2188	0.303
13.2587	0.378
13.2985	0.443
13.3383	0.5
13.3782	0.548
13.418	0.584
13.4578	0.601
13.4976	0.616
13.5375	0.629
13.5773	0.642
13.6171	0.654
13.657	0.666
13.6968	0.681
13.7366	0.689
13.7764	0.697
13.8163	0.702
13.8561	0.709
13.8959	0.715
13.9358	0.724
13.9756	0.742
14.0154	0.757
14.0552	0.769
14.0951	0.782
14.1349	0.784
14.1747	0.792
14.2146	0.8
14.2544	0.803
14.2942	0.805
14.334	0.808
14.3739	0.815
14.4137	0.81
14.4535	0.813
14.4934	0.812
14.5332	0.81
14.573	0.812
14.6128	0.813
14.6527	0.813
14.6925	0.812
14.7323	0.808
14.7722	0.803
14.812	0.802
14.8518	0.8
14.8916	0.799
14.9315	0.797
14.9713	0.794
15.0111	0.774
15.051	0.732
15.0908	0.719
15.1306	0.745
15.1704	0.774
15.2103	0.775
15.2501	0.765
15.2899	0.755
15.3298	0.74
15.3696	0.732
15.4094	0.722
15.4492	0.715
15.4891	0.705
15.5289	0.697
15.5687	0.686
15.6086	0.682
15.6484	0.681
15.6882	0.674
15.728	0.662
15.7679	0.651
15.8077	0.639
15.8475	0.624
15.8874	0.617
15.9272	0.606
15.967	0.596
