Infrared Spectrum: AMMONIUM ACETATE
Formula: C2 H7 N O2
State: SOLID ( MULL;KEL-F FOR 5000-1350 AND MINERAL OIL FOR 1350-625 CM^-^1))
Melting point: 114 C
Class: COBLENTZ
Instrument: Not specified, most likely a prism, grating, or hybrid spectrometer.
Sampling: TRANSMISSION
Resolution: 4
Origin: WYANDOTTE CHEMICALS CORP., WYANDOTTE, MICHIGAN, USA
MICROMETERS	TRANSMITTANCE
2.02	0.837
2.06088	0.84
2.10175	0.835
2.14263	0.842
2.1835	0.854
2.22438	0.859
2.26526	0.88
2.30613	0.897
2.34701	0.912
2.38788	0.921
2.42876	0.933
2.46964	0.934
2.51051	0.94
2.55139	0.94
2.59227	0.945
2.63314	0.945
2.67402	0.938
2.71489	0.917
2.75577	0.898
2.79665	0.864
2.83752	0.837
2.8784	0.811
2.91927	0.787
2.96015	0.767
3.00103	0.719
3.0419	0.595
3.08278	0.419
3.12365	0.306
3.16453	0.289
3.20541	0.238
3.24628	0.203
3.28716	0.193
3.32804	0.196
3.36891	0.191
3.40979	0.183
3.45066	0.181
3.49154	0.171
3.53242	0.166
3.57329	0.157
3.61417	0.157
3.65504	0.16
3.69592	0.164
3.7368	0.179
3.77767	0.195
3.81855	0.21
3.85942	0.232
3.9003	0.246
3.94118	0.27
3.98205	0.308
4.02293	0.347
4.0638	0.373
4.10468	0.402
4.14556	0.434
4.18643	0.45
4.22731	0.484
4.26819	0.506
4.30906	0.547
4.34994	0.582
4.39081	0.625
4.43169	0.636
4.47257	0.601
4.51344	0.52
4.55432	0.441
4.59519	0.386
4.63607	0.445
4.67695	0.508
4.71782	0.589
4.7587	0.681
4.79957	0.72
4.84045	0.729
4.88133	0.726
4.9222	0.684
4.96308	0.618
5.00396	0.559
5.04483	0.505
5.08571	0.479
5.12658	0.452
5.16746	0.44
5.20834	0.472
5.24921	0.529
5.29009	0.611
5.33096	0.696
5.37184	0.758
5.41272	0.809
5.45359	0.813
5.49447	0.825
5.53534	0.823
5.57622	0.804
5.6171	0.779
5.65797	0.751
5.69885	0.739
5.73972	0.686
5.7806	0.619
5.82148	0.583
5.86235	0.541
5.90323	0.498
5.94411	0.458
5.98498	0.412
6.02586	0.363
6.06673	0.333
6.10761	0.304
6.14849	0.268
6.18936	0.25
6.23024	0.243
6.27111	0.212
6.31199	0.21
6.35287	0.203
6.39374	0.205
6.43462	0.196
6.47549	0.198
6.51637	0.196
6.55725	0.188
6.59812	0.181
6.639	0.167
6.67988	0.162
6.72075	0.152
6.76163	0.155
6.8025	0.154
6.84338	0.164
6.88426	0.159
6.92513	0.152
6.96601	0.135
7.00688	0.119
7.04776	0.107
7.08864	0.099
7.12951	0.094
7.17039	0.095
7.21126	0.099
7.25214	0.101
7.29302	0.123
7.33389	0.133
7.37477	0.136
7.41564	0.15
7.45652	0.13
7.4974	0.131
7.53827	0.19
7.57915	0.214
7.62003	0.251
7.6609	0.299
7.70178	0.328
7.74265	0.356
7.78353	0.383
7.82441	0.402
7.86528	0.429
7.90616	0.453
7.94703	0.464
7.98791	0.469
8.02879	0.453
8.06966	0.453
8.11054	0.5
8.15141	0.532
8.19229	0.544
8.23317	0.554
8.27404	0.558
8.31492	0.563
8.3558	0.571
8.39667	0.589
8.43755	0.602
8.47842	0.618
8.5193	0.621
8.56018	0.636
8.60105	0.65
8.64193	0.655
8.6828	0.681
8.72368	0.684
8.76456	0.703
8.80543	0.72
8.84631	0.731
8.88718	0.732
8.92806	0.743
8.96894	0.748
9.00981	0.755
9.05069	0.756
9.09156	0.751
9.13244	0.744
9.17332	0.744
9.21419	0.741
9.25507	0.729
9.29595	0.722
9.33682	0.702
9.3777	0.679
9.41857	0.647
9.45945	0.585
9.50033	0.542
9.5412	0.549
9.58208	0.592
9.62295	0.633
9.66383	0.642
9.70471	0.64
9.74558	0.602
9.78646	0.53
9.82733	0.429
9.86821	0.337
9.90909	0.291
9.94996	0.309
9.99084	0.359
10.0317	0.419
10.0726	0.465
10.1135	0.505
10.1543	0.529
10.1952	0.556
10.2361	0.568
10.277	0.58
10.3178	0.599
10.3587	0.616
10.3996	0.623
10.4405	0.64
10.4814	0.645
10.5222	0.659
10.5631	0.662
10.604	0.672
10.6449	0.672
10.6857	0.679
10.7266	0.674
10.7675	0.645
10.8084	0.546
10.8492	0.294
10.8901	0.172
10.931	0.477
10.9719	0.626
11.0127	0.719
11.0536	0.753
11.0945	0.779
11.1354	0.796
11.1762	0.801
11.2171	0.809
11.258	0.818
11.2989	0.827
11.3398	0.84
11.3806	0.847
11.4215	0.852
11.4624	0.861
11.5033	0.861
11.5441	0.864
11.585	0.869
11.6259	0.873
11.6668	0.88
11.7076	0.88
11.7485	0.881
11.7894	0.878
11.8303	0.892
11.8711	0.89
11.912	0.895
11.9529	0.898
11.9938	0.9
12.0346	0.907
12.0755	0.912
12.1164	0.916
12.1573	0.917
12.1981	0.921
12.239	0.917
12.2799	0.926
12.3208	0.922
12.3617	0.928
12.4025	0.934
12.4434	0.929
12.4843	0.936
12.5252	0.943
12.566	0.936
12.6069	0.938
12.6478	0.936
12.6887	0.94
12.7295	0.94
12.7704	0.936
12.8113	0.929
12.8522	0.924
12.893	0.926
12.9339	0.919
12.9748	0.916
13.0157	0.91
13.0565	0.91
13.0974	0.909
13.1383	0.9
13.1792	0.9
13.2201	0.902
13.2609	0.9
13.3018	0.892
13.3427	0.895
13.3836	0.883
13.4244	0.875
13.4653	0.871
13.5062	0.873
13.5471	0.859
13.5879	0.847
13.6288	0.844
13.6697	0.844
13.7106	0.837
13.7514	0.827
13.7923	0.825
13.8332	0.82
13.8741	0.813
13.9149	0.797
13.9558	0.806
13.9967	0.823
14.0376	0.83
14.0784	0.839
14.1193	0.84
14.1602	0.839
14.2011	0.845
14.242	0.837
14.2828	0.837
14.3237	0.828
14.3646	0.818
14.4055	0.813
14.4463	0.803
14.4872	0.787
14.5281	0.777
14.569	0.756
14.6098	0.739
14.6507	0.724
14.6916	0.703
14.7325	0.684
14.7733	0.645
14.8142	0.614
14.8551	0.571
14.896	0.523
14.9368	0.481
14.9777	0.429
15.0186	0.373
15.0595	0.34
15.1004	0.296
15.1412	0.226
15.1821	0.19
15.223	0.179
15.2639	0.188
15.3047	0.208
15.3456	0.25
15.3865	0.297
15.4274	0.352
15.4682	0.421
15.5091	0.482
15.55	0.535
15.5909	0.571
15.6317	0.604
15.6726	0.625
15.7135	0.633
15.7544	0.638
15.7952	0.645
15.8361	0.643
15.877	0.633
15.9179	0.618
15.9587	0.601
