Infrared Spectrum: Aniline, 2-tert-butyl-4-chloro-
Formula: C10 H14 Cl N
State: LIQUID (NEAT)
Class: COBLENTZ III
Instrument: BECKMAN IR-4 (HYBRID PRISM-GRATING)
Instrument parameters: NaCl PRISM
Sampling: TRANSMISSION
Path length: CAPILLARY
Resolution: 2
Origin: MONSANTO (J. FREEMAN)
1/CM	TRANSMITTANCE
625.863	0.7442
641.8	0.699
657.737	0.5993
673.673	0.799
689.61	0.784
705.547	0.732
721.484	0.8328
737.42	0.895
753.357	0.9014
769.294	0.9195
785.231	0.9131
801.168	0.6917
817.104	0.4056
833.041	0.749
848.978	0.8932
864.915	0.8965
880.851	0.4518
896.788	0.8694
912.725	0.9261
928.662	0.883
944.598	0.9543
960.535	0.9683
976.472	0.9833
992.409	0.9789
1008.35	0.9581
1024.28	0.9145
1040.22	0.9056
1056.16	0.8672
1072.09	0.9091
1088.03	0.8508
1103.97	0.7831
1119.9	0.5803
1135.84	0.9204
1151.78	0.6548
1167.71	0.9574
1183.65	0.9594
1199.59	0.811
1215.52	0.898
1231.46	0.8052
1247.4	0.4172
1263.33	0.6492
1279.27	0.5507
1295.21	0.6465
1311.14	0.8838
1327.08	0.9795
1343.02	0.9842
1358.95	0.8831
1374.89	0.6586
1390.83	0.6251
1406.76	0.37
1422.7	0.8318
1438.64	0.7674
1454.58	0.5305
1470.51	0.452
1486.45	0.2431
1502.39	0.4162
1518.32	0.6856
1534.26	0.8161
1550.2	0.874
1566.13	0.8439
1582.07	0.7886
1598.01	0.6757
1613.94	0.3878
1629.88	0.4526
1645.82	0.7461
1661.75	0.8311
1677.69	0.9068
1693.63	0.9797
1709.56	0.9894
1725.5	1.0081
1741.44	0.9953
1757.37	0.9573
1773.31	0.9798
1789.25	0.9977
1805.18	0.9925
1821.12	0.9854
1837.06	0.982
1852.99	0.9529
1868.93	0.9534
1884.87	0.9671
1900.8	0.974
1916.74	0.9737
1932.68	0.9731
1948.62	0.9716
1964.55	0.9697
1980.49	0.9711
1996.43	0.9731
2012.36	0.9753
2028.3	0.9774
2044.24	0.9791
2060.17	0.9799
2076.11	0.9802
2092.05	0.9806
2107.98	0.9817
2123.92	0.9806
2139.86	0.9792
2155.79	0.976
2171.73	0.9736
2187.67	0.9728
2203.6	0.9736
2219.54	0.9739
2235.48	0.9731
2251.41	0.9716
2267.35	0.9688
2283.29	0.966
2299.22	0.9631
2315.16	0.9628
2331.1	0.9643
2347.03	0.9666
2362.97	0.9667
2378.91	0.9424
2394.84	0.9355
2410.78	0.9311
2426.72	0.9242
2442.66	0.9154
2458.59	0.9055
2474.53	0.8932
2490.47	0.8784
2506.4	0.8637
2522.34	0.8495
2538.28	0.8339
2554.21	0.8193
2570.15	0.8107
2586.09	0.8097
2602.02	0.8146
2617.96	0.8202
2633.9	0.8256
2649.83	0.8231
2665.77	0.8172
2681.71	0.8106
2697.64	0.803
2713.58	0.7917
2729.52	0.7802
2745.45	0.7688
2761.39	0.7548
2777.33	0.7397
2793.26	0.722
2809.2	0.7046
2825.14	0.6852
2841.07	0.6551
2857.01	0.5719
2872.95	0.4558
2888.88	0.4601
2904.82	0.4575
2920.76	0.4361
2936.7	0.4065
2952.63	0.3252
2968.57	0.2706
2984.51	0.3965
3000.44	0.5598
3016.38	0.6595
3032.32	0.6894
3048.25	0.7403
3064.19	0.7785
3080.13	0.7967
3096.06	0.8135
3112	0.8297
3127.94	0.8433
3143.87	0.8507
3159.81	0.8507
3175.75	0.8484
3191.68	0.8425
3207.62	0.8369
3223.56	0.8372
3239.49	0.8591
3255.43	0.8695
3271.37	0.8702
3287.3	0.8412
3303.24	0.7948
3319.18	0.749
3335.11	0.7035
3351.05	0.6585
3366.99	0.6139
3382.92	0.5802
3398.86	0.6304
3414.8	0.7179
3430.74	0.7976
3446.67	0.7714
3462.61	0.7192
3478.55	0.6675
3494.48	0.6529
3510.42	0.7279
3526.36	0.8131
3542.29	0.8742
3558.23	0.8913
3574.17	0.9032
3590.1	0.9108
3606.04	0.9162
3621.98	0.9189
3637.91	0.9214
3653.85	0.9224
3669.79	0.9231
3685.72	0.9235
3701.66	0.9234
3717.6	0.9233
3733.53	0.923
3749.47	0.9226
3765.41	0.9223
3781.34	0.9218
3797.28	0.9211
3813.22	0.9203
3829.15	0.9197
3845.09	0.9189
3861.03	0.918
3876.96	0.9172
3892.9	0.9162
3908.84	0.9151
3924.78	0.9139
3940.71	0.9128
3956.65	0.9118
3972.59	0.911
3988.52	0.9102
4004.46	0.9094
4020.4	0.9085
4036.33	0.9077
4052.27	0.9069
4068.21	0.9061
4084.14	0.9053
4100.08	0.9045
4116.02	0.9037
4131.95	0.903
4147.89	0.9028
4163.83	0.9024
4179.76	0.9022
4195.7	0.9018
4211.64	0.9017
4227.57	0.9024
4243.51	0.9031
4259.45	0.9038
4275.38	0.9044
4291.32	0.9049
4307.26	0.9054
4323.19	0.9055
4339.13	0.9045
4355.07	0.9033
4371	0.9001
4386.94	0.8984
4402.88	0.8971
4418.81	0.8959
4434.75	0.896
4450.69	0.8963
4466.63	0.8965
4482.56	0.8968
4498.5	0.8974
4514.44	0.898
4530.37	0.8986
4546.31	0.8993
4562.25	0.8998
4578.18	0.9002
4594.12	0.9007
4610.06	0.9012
4625.99	0.9014
4641.93	0.9012
4657.87	0.9011
4673.8	0.9009
4689.74	0.9007
4705.68	0.9006
4721.61	0.9003
4737.55	0.9
4753.49	0.8996
4769.42	0.8994
4785.36	0.899
4801.3	0.8987
4817.23	0.8983
4833.17	0.898
4849.11	0.8977
4865.04	0.8974
4880.98	0.8971
4896.92	0.8968
4912.85	0.8964
4928.79	0.896
4944.73	0.8956
4960.67	0.8951
4976.6	0.8947
4992.54	0.8943
5008.48	0.8938
5024.41	0.8934
5040.35	0.893
5056.29	0.8921
5072.22	0.8911
5088.16	0.8902
5104.1	0.8892
5120.03	0.8882
5135.97	0.8873
5151.91	0.8863
5167.84	0.8851
5183.78	0.8839
5199.72	0.8827
5215.65	0.8815
5231.59	0.8803
5247.53	0.8797
5263.46	0.8797
5279.4	0.8797
5295.34	0.8798
5311.27	0.8798
5327.21	0.8798
5343.15	0.8799
5359.08	0.8804
5375.02	0.8808
5390.96	0.8813
5406.89	0.8818
5422.83	0.8822
5438.77	0.8823
5454.71	0.8821
5470.64	0.8819
5486.58	0.8816
5502.52	0.8814
5518.45	0.8809
5534.39	0.8802
5550.33	0.8797
5566.26	0.879
5582.2	0.8784
5598.14	0.8777
5614.07	0.8771
5630.01	0.8766
5645.95	0.8759
5661.88	0.8753
5677.82	0.8747
5693.76	0.8741
5709.69	0.8734
5725.63	0.8729
5741.57	0.8724
5757.5	0.8717
5773.44	0.8712
5789.38	0.8705
5805.31	0.87
5821.25	0.8694
5837.19	0.8688
5853.12	0.8682
5869.06	0.8677
5885	0.867
5900.93	0.8665
5916.87	0.8659
5932.81	0.8653
5948.75	0.8648
5964.68	0.8642
5980.62	0.8637
5996.56	0.8632
6012.49	0.8627
6028.43	0.8622
6044.37	0.8618
6060.3	0.8613
6076.24	0.8608
6092.18	0.8603
6108.11	0.8599
6124.05	0.8594
6139.99	0.859
6155.92	0.8585
6171.86	0.8581
6187.8	0.8575
6203.73	0.8571
6219.67	0.8567
6235.61	0.8562
6251.54	0.8558
6267.48	0.8553
6283.42	0.8549
6299.35	0.8545
6315.29	0.854
6331.23	0.8536
6347.16	0.8532
6363.1	0.8527
6379.04	0.8523
6394.97	0.8519
6410.91	0.8515
6426.85	0.8511
6442.79	0.8506
6458.72	0.8502
6474.66	0.8498
6490.6	0.8493
6506.53	0.8488
6522.47	0.8483
6538.41	0.8478
6554.34	0.8472
6570.28	0.8467
6586.22	0.8462
6602.15	0.8456
6618.09	0.8452
6634.03	0.8447
6649.96	0.8441
6665.9	0.8436
