Infrared Spectrum: Butyric acid, 2-amino-, L-(+)-
Formula: C4 H9 N O2
State: SOLID (SPLIT MULL), FLUOROLUBE FOR 3800-1330 CM^-^1, NUJOL FOR 1330-400 CM^-^1
Class: COBLENTZ III
Instrument: DOW KBr FOREPRISM-GRATING
Instrument parameters: BLAZED AT 3.5, 12.0, 20.0 MICRON AND CHANGED AT 5.0, 7.5, 14.9 MICRON
Sampling: TRANSMISSION
Resolution: 2
Origin: DOW CHEMICAL COMPANY
1/CM	TRANSMITTANCE
385	0.4778
394	0.4549
403	0.4274
412	0.4275
421	0.5459
430	0.695
439	0.7153
448	0.6841
457	0.6088
466	0.6167
475	0.6985
484	0.7584
493	0.7773
502	0.7744
511	0.7537
520	0.6623
529	0.2796
538	0.3316
547	0.6678
556	0.8414
565	0.8797
574	0.8942
583	0.8988
592	0.9054
601	0.9452
610	0.9496
619	0.9338
628	0.8491
637	0.7574
646	0.7951
655	0.7019
664	0.6744
673	0.8825
682	0.9005
691	0.8724
700	0.9094
709	0.8964
718	0.8093
727	0.8515
736	0.8829
745	0.8893
754	0.787
763	0.6536
772	0.8757
781	0.8475
790	0.8583
799	0.7057
808	0.3399
817	0.7972
826	0.8743
835	0.818
844	0.8042
853	0.8725
862	0.803
871	0.872
880	0.8862
889	0.8499
898	0.7764
907	0.5612
916	0.7393
925	0.8618
934	0.8726
943	0.87
952	0.8575
961	0.836
970	0.7833
979	0.7807
988	0.8007
997	0.7625
1006	0.6926
1015	0.7059
1024	0.6422
1033	0.5049
1042	0.4572
1051	0.5468
1060	0.6103
1069	0.6005
1078	0.5827
1087	0.5603
1096	0.5299
1105	0.4665
1114	0.4297
1123	0.5099
1132	0.5254
1141	0.5626
1150	0.5839
1159	0.5918
1168	0.5535
1177	0.3637
1186	0.5277
1195	0.5895
1204	0.5185
1213	0.5975
1222	0.6487
1231	0.6458
1240	0.6342
1249	0.5744
1258	0.4505
1267	0.5535
1276	0.5991
1285	0.5573
1294	0.4685
1303	0.2342
1312	0.3598
1321	0.1141
1330	0.2663
1339	0.4578
1348	0.4226
1357	0.3013
1366	0.5131
1375	0.506
1384	0.4205
1393	0.3146
1402	0.1426
1411	0.0733
1420	0.2846
1429	0.5213
1438	0.4514
1447	0.3559
1456	0.36
1465	0.2926
1474	0.4478
1483	0.3696
1492	0.2685
1501	0.1737
1510	0.1022
1519	0.064
1528	0.0914
1537	0.2428
1546	0.316
1555	0.2647
1564	0.1779
1573	0.0793
1582	0.0343
1591	0.0393
1600	0.0785
1609	0.0847
1618	0.1341
1627	0.1945
1636	0.2849
1645	0.435
1654	0.5434
1663	0.6389
1672	0.6974
1681	0.7446
1690	0.7793
1699	0.8029
1708	0.8192
1717	0.8299
1726	0.8402
1735	0.8467
1744	0.8505
1753	0.8519
1762	0.8525
1771	0.8523
1780	0.8509
1789	0.8494
1798	0.8479
1807	0.8464
1816	0.8456
1825	0.8448
1834	0.8439
1843	0.843
1852	0.8422
1861	0.8417
1870	0.8412
1879	0.8438
1888	0.8466
1897	0.8465
1906	0.8449
1915	0.8431
1924	0.8407
1933	0.838
1942	0.8352
1951	0.8327
1960	0.83
1969	0.8265
1978	0.8224
1987	0.8189
1996	0.8208
2005	0.813
2014	0.7991
2023	0.7915
2032	0.7827
2041	0.7743
2050	0.7665
2059	0.7579
2068	0.7484
2077	0.7388
2086	0.729
2095	0.7177
2104	0.7059
2113	0.6952
2122	0.6919
2131	0.6988
2140	0.7072
2149	0.7169
2158	0.7262
2167	0.735
2176	0.7434
2185	0.75
2194	0.753
2203	0.7538
2212	0.7533
2221	0.7522
2230	0.7503
2239	0.7478
2248	0.7453
2257	0.7433
2266	0.7408
2275	0.7382
2284	0.7352
2293	0.7309
2302	0.7267
2311	0.7229
2320	0.7197
2329	0.7147
2338	0.7089
2347	0.7031
2356	0.6961
2365	0.689
2374	0.6819
2383	0.6724
2392	0.6617
2401	0.6494
2410	0.636
2419	0.628
2428	0.6211
2437	0.6159
2446	0.6103
2455	0.6015
2464	0.5911
2473	0.5777
2482	0.5587
2491	0.5417
2500	0.5242
2509	0.5056
2518	0.4865
2527	0.4674
2536	0.4525
2545	0.4458
2554	0.444
2563	0.4419
2572	0.4387
2581	0.4239
2590	0.4056
2599	0.3934
2608	0.3837
2617	0.3822
2626	0.3852
2635	0.3917
2644	0.3994
2653	0.3999
2662	0.393
2671	0.3853
2680	0.3778
2689	0.372
2698	0.3698
2707	0.3681
2716	0.359
2725	0.3485
2734	0.3402
2743	0.3392
2752	0.3386
2761	0.3305
2770	0.3193
2779	0.3093
2788	0.2992
2797	0.289
2806	0.278
2815	0.2754
2824	0.2734
2833	0.2706
2842	0.2595
2851	0.2445
2860	0.23
2869	0.217
2878	0.2089
2887	0.2091
2896	0.204
2905	0.194
2914	0.1802
2923	0.1666
2932	0.1626
2941	0.1735
2950	0.178
2959	0.1571
2968	0.1431
2977	0.1839
2986	0.2027
2995	0.2144
3004	0.2233
3013	0.2327
3022	0.2413
3031	0.2497
3040	0.2585
3049	0.2674
3058	0.2775
3067	0.289
3076	0.3015
3085	0.3147
3094	0.3373
3103	0.365
3112	0.3965
3121	0.4204
3130	0.4523
3139	0.5005
3148	0.5336
3157	0.5623
3166	0.5951
3175	0.6242
3184	0.6483
3193	0.6757
3202	0.7066
3211	0.7349
3220	0.7592
3229	0.7794
3238	0.7927
3247	0.8048
3256	0.8152
3265	0.8257
3274	0.8355
3283	0.8443
3292	0.8525
3301	0.8598
3310	0.8657
3319	0.8705
3328	0.8742
3337	0.876
3346	0.8775
3355	0.8784
3364	0.879
3373	0.8795
3382	0.8801
3391	0.8802
3400	0.8803
3409	0.8802
3418	0.88
3427	0.8799
3436	0.8796
3445	0.8791
3454	0.8786
3463	0.8781
3472	0.8776
3481	0.8772
3490	0.8768
3499	0.8766
3508	0.8768
3517	0.877
3526	0.8771
3535	0.8769
3544	0.8767
3553	0.8764
3562	0.8758
3571	0.8751
3580	0.8746
3589	0.8748
3598	0.875
3607	0.8752
3616	0.8752
3625	0.8743
3634	0.8714
3643	0.8692
3652	0.8691
3661	0.8699
3670	0.8709
3679	0.8718
3688	0.8724
3697	0.8725
3706	0.8713
3715	0.8703
3724	0.8694
3733	0.8689
3742	0.8684
3751	0.8676
3760	0.8665
3769	0.8647
3778	0.8625
3787	0.8615
3796	0.8602
