Infrared Spectrum: Ethomeen T/12 hydrochloride
Formula: C20-22 H44-48 Cl N O2
State: SEMI-SOLID (NEAT)
Class: COBLENTZ III
Instrument: PERKIN-ELMER 157
Sampling: TRANSMISSION
Resolution: 2
Origin: BRITISH PETROLEUM CO. LTD., ENGLAND
1/CM	TRANSMITTANCE
668	0.4937
677	0.5171
686	0.5355
695	0.5436
704	0.5193
713	0.454
722	0.3508
731	0.4507
740	0.5068
749	0.5358
758	0.5601
767	0.5738
776	0.5898
785	0.6056
794	0.6216
803	0.6314
812	0.6316
821	0.6304
830	0.626
839	0.6153
848	0.5967
857	0.5818
866	0.568
875	0.5369
884	0.5108
893	0.4826
902	0.4787
911	0.5037
920	0.5354
929	0.5329
938	0.5166
947	0.4938
956	0.4638
965	0.4403
974	0.4445
983	0.4226
992	0.392
1001	0.3563
1010	0.339
1019	0.3167
1028	0.3004
1037	0.2664
1046	0.2232
1055	0.1778
1064	0.1485
1073	0.1371
1082	0.1474
1091	0.2247
1100	0.2828
1109	0.3507
1118	0.4241
1127	0.4614
1136	0.4959
1145	0.5251
1154	0.5298
1163	0.5302
1172	0.5271
1181	0.5149
1190	0.4938
1199	0.4612
1208	0.4439
1217	0.4353
1226	0.4299
1235	0.4268
1244	0.4177
1253	0.4161
1262	0.4155
1271	0.4143
1280	0.4026
1289	0.394
1298	0.3684
1307	0.3608
1316	0.359
1325	0.3586
1334	0.3496
1343	0.3409
1352	0.3157
1361	0.3084
1370	0.2853
1379	0.2675
1388	0.2679
1397	0.267
1406	0.2564
1415	0.2455
1424	0.2398
1433	0.199
1442	0.17
1451	0.1364
1460	0.1165
1469	0.1208
1478	0.2716
1487	0.3896
1496	0.4917
1505	0.5998
1514	0.6325
1523	0.6442
1532	0.6515
1541	0.6566
1550	0.6583
1559	0.6584
1568	0.6561
1577	0.6517
1586	0.6476
1595	0.6466
1604	0.6412
1613	0.6363
1622	0.6346
1631	0.6355
1640	0.6398
1649	0.6482
1658	0.6543
1667	0.6742
1676	0.6821
1685	0.6784
1694	0.6741
1703	0.6691
1712	0.6671
1721	0.6705
1730	0.6991
1739	0.7193
1748	0.7336
1757	0.74
1766	0.7409
1775	0.7412
1784	0.7414
1793	0.7415
1802	0.7416
1811	0.7416
1820	0.7415
1829	0.7415
1838	0.7414
1847	0.7413
1856	0.741
1865	0.7408
1874	0.7406
1883	0.7403
1892	0.7401
1901	0.7383
1910	0.7306
1919	0.726
1928	0.7231
1937	0.7212
1946	0.7201
1955	0.7192
1964	0.7187
1973	0.7181
1982	0.7174
1991	0.7147
2000	0.7098
2009	0.7062
2018	0.7045
2027	0.7033
2036	0.7022
2045	0.6983
2054	0.6957
2063	0.6949
2072	0.6942
2081	0.6935
2090	0.6928
2099	0.6893
2108	0.6858
2117	0.6833
2126	0.6803
2135	0.6764
2144	0.674
2153	0.6721
2162	0.6712
2171	0.6704
2180	0.6702
2189	0.6672
2198	0.6609
2207	0.6543
2216	0.6499
2225	0.6455
2234	0.6398
2243	0.6311
2252	0.6199
2261	0.6103
2270	0.5999
2279	0.5867
2288	0.5724
2297	0.5576
2306	0.5411
2315	0.5248
2324	0.51
2333	0.4886
2342	0.4687
2351	0.4591
2360	0.4526
2369	0.4483
2378	0.4392
2387	0.4244
2396	0.4099
2405	0.3954
2414	0.3811
2423	0.367
2432	0.3542
2441	0.3308
2450	0.312
2459	0.297
2468	0.2856
2477	0.2758
2486	0.2718
2495	0.2696
2504	0.2667
2513	0.2609
2522	0.2546
2531	0.2471
2540	0.2405
2549	0.2329
2558	0.2229
2567	0.2108
2576	0.201
2585	0.1928
2594	0.1904
2603	0.1902
2612	0.19
2621	0.1897
2630	0.1895
2639	0.1895
2648	0.1899
2657	0.1903
2666	0.1906
2675	0.1912
2684	0.192
2693	0.1929
2702	0.1936
2711	0.1954
2720	0.198
2729	0.201
2738	0.2036
2747	0.2041
2756	0.2045
2765	0.2032
2774	0.1983
2783	0.1888
2792	0.161
2801	0.1308
2810	0.1007
2819	0.0709
2828	0.0499
2837	0.0489
2846	0.0508
2855	0.05
2864	0.0417
2873	0.0378
2882	0.0365
2891	0.0366
2900	0.0372
2909	0.0471
2918	0.0686
2927	0.0846
2936	0.0874
2945	0.1018
2954	0.136
2963	0.1709
2972	0.1915
2981	0.2067
2990	0.2216
2999	0.2306
3008	0.236
3017	0.2389
3026	0.2404
3035	0.2408
3044	0.2403
3053	0.2392
3062	0.237
3071	0.2339
3080	0.2308
3089	0.2262
3098	0.2192
3107	0.2067
3116	0.1931
3125	0.1796
3134	0.1661
3143	0.1527
3152	0.1393
3161	0.1324
3170	0.1299
3179	0.1135
3188	0.0997
3197	0.0919
3206	0.089
3215	0.0878
3224	0.0872
3233	0.087
3242	0.0868
3251	0.0868
3260	0.087
3269	0.0871
3278	0.0873
3287	0.0875
3296	0.088
3305	0.0884
3314	0.0887
3323	0.0889
3332	0.0917
3341	0.0965
3350	0.1105
3359	0.1195
3368	0.1267
3377	0.134
3386	0.1462
3395	0.162
3404	0.1733
3413	0.1857
3422	0.2077
3431	0.2208
3440	0.2425
3449	0.2532
3458	0.2804
3467	0.308
3476	0.3354
3485	0.3628
3494	0.3899
3503	0.4169
3512	0.4428
3521	0.4744
3530	0.5049
3539	0.5354
3548	0.5657
3557	0.5959
3566	0.6258
3575	0.6513
3584	0.6604
3593	0.6687
3602	0.6877
3611	0.7106
3620	0.7362
3629	0.7389
3638	0.74
3647	0.7408
3656	0.7413
3665	0.7414
3674	0.7417
3683	0.7419
3692	0.742
3701	0.7421
3710	0.7422
3719	0.7423
3728	0.7424
3737	0.7424
3746	0.7423
3755	0.7422
3764	0.7421
3773	0.742
3782	0.7409
3791	0.7377
3800	0.7344
3809	0.7313
3818	0.7283
3827	0.7253
3836	0.7231
3845	0.7217
3854	0.7205
3863	0.7196
3872	0.7189
3881	0.7166
3890	0.7124
3899	0.7088
3908	0.7065
3917	0.7052
3926	0.7045
3935	0.7044
3944	0.7045
3953	0.7045
3962	0.7045
3971	0.7045
3980	0.7045
3989	0.7045
3998	0.7045
