Infrared Spectrum: 17,18-DIMETHOXY-15,16,17,18,19,20-HEXADEHYDROYOHIMBANE HYDROCHLORIDE
Formula: C21 H22 N2 O2  * H Cl
State: SOLID (NUJOL MULL)
Class: COBLENTZ
Instrument: PERKIN-ELMER
Sampling: TRANSMISSION
Resolution: 4
Origin: ABBOTT LABORATORIES - WASHBURN
MICROMETERS	TRANSMITTANCE
2.04	0.623
2.08	0.63
2.12	0.638
2.16001	0.6429
2.20001	0.6551
2.24001	0.662
2.28001	0.667
2.32001	0.6551
2.36002	0.6431
2.40002	0.6551
2.44002	0.662
2.48002	0.67
2.52002	0.6778
2.56002	0.6899
2.60003	0.7021
2.64003	0.707
2.68003	0.714
2.72003	0.7219
2.76003	0.7201
2.80004	0.715
2.84004	0.714
2.88004	0.709
2.92004	0.7071
2.96004	0.7116
3.00005	0.707
3.04005	0.697
3.08005	0.7
3.12005	0.6208
3.16005	0.3712
3.20005	0.4047
3.24006	0.5411
3.28006	0.565
3.32006	0.5511
3.36006	0.4631
3.40006	0.2151
3.44007	0.083
3.48007	0.05
3.52007	0.1094
3.56007	0.1722
3.60007	0.5466
3.64008	0.6221
3.68008	0.6
3.72008	0.5631
3.76008	0.516
3.80008	0.4966
3.84009	0.5379
3.88009	0.503
3.92009	0.3023
3.96009	0.1558
4.00009	0.1457
4.04009	0.1959
4.0801	0.379
4.1201	0.4328
4.1601	0.4538
4.2001	0.5011
4.2401	0.4882
4.28011	0.5481
4.32011	0.6218
4.36011	0.6745
4.40011	0.7092
4.44011	0.722
4.48012	0.732
4.52012	0.735
4.56012	0.7436
4.60012	0.7471
4.64012	0.752
4.68012	0.762
4.72013	0.7689
4.76013	0.769
4.80013	0.7721
4.84013	0.777
4.88013	0.777
4.92014	0.777
4.96014	0.7769
5.00014	0.7841
5.04014	0.7841
5.08014	0.787
5.12015	0.7906
5.16015	0.792
5.20015	0.7961
5.24015	0.7863
5.28015	0.7994
5.32015	0.78
5.36016	0.795
5.40016	0.799
5.44016	0.7985
5.48016	0.802
5.52016	0.8016
5.56017	0.804
5.60017	0.807
5.64017	0.7961
5.68017	0.79
5.72017	0.7819
5.76018	0.7621
5.80018	0.7795
5.84018	0.7884
5.88018	0.784
5.92018	0.779
5.96019	0.7685
6.00019	0.757
6.04019	0.7615
6.08019	0.7658
6.12019	0.7621
6.16019	0.7458
6.2002	0.5959
6.2402	0.6629
6.2802	0.726
6.3202	0.7503
6.3602	0.765
6.40021	0.762
6.44021	0.765
6.48021	0.76
6.52021	0.7206
6.56021	0.4847
6.60022	0.4474
6.64022	0.5625
6.68022	0.616
6.72022	0.6538
6.76022	0.6166
6.80022	0.4071
6.84023	0.1917
6.88023	0.1828
6.92023	0.2115
6.96023	0.3156
7.00023	0.383
7.04024	0.432
7.08024	0.5036
7.12024	0.6379
7.16024	0.675
7.20024	0.609
7.24025	0.4747
7.28025	0.3377
7.32025	0.4146
7.36025	0.4849
7.40025	0.5299
7.44026	0.586
7.48026	0.5706
7.52026	0.5036
7.56026	0.4562
7.60026	0.5857
7.64026	0.6185
7.68027	0.5062
7.72027	0.4425
7.76027	0.5976
7.80027	0.6159
7.84027	0.5667
7.88028	0.4858
7.92028	0.2982
7.96028	0.3116
8.00028	0.4125
8.04028	0.5207
8.08029	0.5408
8.12029	0.3609
8.16029	0.2568
8.20029	0.3908
8.24029	0.5336
8.28029	0.5787
8.3203	0.6331
8.3603	0.6041
8.4003	0.5056
8.4403	0.5433
8.4803	0.6143
8.52031	0.6412
8.56031	0.65
8.60031	0.6333
8.64031	0.6105
8.68031	0.6297
8.72032	0.591
8.76032	0.5554
8.80032	0.58
8.84032	0.5405
8.88032	0.3814
8.92033	0.224
8.96033	0.3589
9.00033	0.28
9.04033	0.4971
9.08033	0.5912
9.12033	0.638
9.16034	0.6717
9.20034	0.6827
9.24034	0.687
9.28034	0.679
9.32034	0.6089
9.36035	0.5814
9.40035	0.6197
9.44035	0.555
9.48035	0.5871
9.52035	0.6902
9.56036	0.6903
9.60036	0.6218
9.64036	0.5771
9.68036	0.5754
9.72036	0.5961
9.76036	0.6543
9.80037	0.6871
9.84037	0.697
9.88037	0.6742
9.92037	0.5656
9.96037	0.5292
10.0004	0.4433
10.0404	0.4548
10.0804	0.6081
10.1204	0.6839
10.1604	0.717
10.2004	0.7318
10.2404	0.74
10.2804	0.7291
10.3204	0.6954
10.3604	0.6408
10.4004	0.6686
10.4404	0.7102
10.4804	0.7015
10.5204	0.6218
10.5604	0.6373
10.6004	0.7141
10.6404	0.7466
10.6804	0.755
10.7204	0.754
10.7604	0.7436
10.8004	0.721
10.8404	0.738
10.8804	0.7655
10.9204	0.7774
10.9604	0.784
11.0004	0.7849
11.0404	0.7915
11.0804	0.792
11.1204	0.7859
11.1604	0.7833
11.2004	0.7741
11.2404	0.7401
11.2804	0.709
11.3204	0.7299
11.3604	0.6774
11.4004	0.5622
11.4404	0.4469
11.4804	0.5663
11.5204	0.6926
11.5604	0.744
11.6005	0.7606
11.6405	0.7675
11.6805	0.7719
11.7205	0.7639
11.7605	0.7496
11.8005	0.7172
11.8405	0.6593
11.8805	0.6293
11.9205	0.5933
11.9605	0.6727
12.0005	0.7478
12.0405	0.774
12.0805	0.797
12.1205	0.7988
12.1605	0.8068
12.2005	0.8037
12.2405	0.8107
12.2805	0.8157
12.3205	0.809
12.3605	0.801
12.4005	0.802
12.4405	0.7951
12.4805	0.7699
12.5205	0.7597
12.5605	0.7888
12.6005	0.809
12.6405	0.801
12.6805	0.8102
12.7205	0.799
12.7605	0.7895
12.8005	0.78
12.8405	0.7641
12.8805	0.7376
12.9205	0.7291
12.9605	0.7507
13.0005	0.762
13.0405	0.7644
13.0805	0.7593
13.1205	0.7516
13.1605	0.717
13.2005	0.6176
13.2405	0.6433
13.2805	0.6137
13.3205	0.4697
13.3605	0.3064
13.4005	0.2612
13.4405	0.3129
13.4805	0.4251
13.5205	0.5439
13.5605	0.593
13.6005	0.5867
13.6405	0.5054
13.6805	0.3834
13.7206	0.3736
13.7606	0.4917
13.8006	0.5497
13.8406	0.5969
13.8806	0.6231
13.9206	0.6472
13.9606	0.665
14.0006	0.6725
14.0406	0.6794
14.0806	0.675
14.1206	0.668
14.1606	0.6506
14.2006	0.6472
14.2406	0.6624
14.2806	0.667
14.3206	0.6586
14.3606	0.638
14.4006	0.6011
14.4406	0.553
14.4806	0.5038
14.5206	0.4508
14.5606	0.4223
14.6006	0.4194
14.6406	0.4416
14.6806	0.471
14.7206	0.5149
14.7606	0.553
14.8006	0.5854
14.8406	0.6065
14.8806	0.629
14.9206	0.633
14.9606	0.635
15.0006	0.6551
15.0406	0.6521
15.0806	0.6454
15.1206	0.6383
15.1606	0.635
15.2006	0.6258
15.2406	0.6175
15.2806	0.6043
15.3206	0.5953
15.3606	0.5709
15.4006	0.5399
15.4406	0.5053
