Infrared Spectrum: SODIUM BISULFATE
Formula: Na H S O4
State: SOLID (ARNEEL C MULL)
Class: COBLENTZ
Instrument: PERKIN-ELMER
Sampling: TRANSMISSION
Resolution: 4
MICROMETERS	TRANSMITTANCE
2.024	0.9
2.06074	0.902
2.09749	0.9
2.13423	0.899
2.17097	0.9
2.20772	0.905
2.24446	0.906
2.2812	0.906
2.31795	0.909
2.35469	0.911
2.39143	0.912
2.42817	0.918
2.46492	0.915
2.50166	0.915
2.5384	0.915
2.57515	0.915
2.61189	0.918
2.64863	0.915
2.68538	0.915
2.72212	0.914
2.75886	0.896
2.79561	0.807
2.83235	0.55
2.86909	0.415
2.90584	0.652
2.94258	0.735
2.97932	0.776
3.01606	0.795
3.05281	0.799
3.08955	0.801
3.12629	0.796
3.16304	0.773
3.19978	0.747
3.23652	0.727
3.27327	0.697
3.31001	0.681
3.34675	0.657
3.3835	0.619
3.42024	0.533
3.45698	0.475
3.49373	0.477
3.53047	0.466
3.56721	0.577
3.60396	0.655
3.6407	0.692
3.67744	0.72
3.71418	0.747
3.75093	0.758
3.78767	0.772
3.82441	0.778
3.86116	0.779
3.8979	0.773
3.93464	0.761
3.97139	0.762
4.00813	0.764
4.04487	0.767
4.08162	0.767
4.11836	0.773
4.1551	0.787
4.19185	0.799
4.22859	0.811
4.26533	0.814
4.30207	0.822
4.33882	0.83
4.37556	0.845
4.4123	0.857
4.44905	0.866
4.48579	0.868
4.52253	0.882
4.55928	0.892
4.59602	0.902
4.63276	0.903
4.66951	0.903
4.70625	0.903
4.74299	0.905
4.77974	0.906
4.81648	0.909
4.85322	0.914
4.88997	0.917
4.92671	0.917
4.96345	0.92
5.00019	0.918
5.03694	0.922
5.07368	0.928
5.11042	0.928
5.14717	0.928
5.18391	0.925
5.22065	0.925
5.2574	0.926
5.29414	0.923
5.33088	0.923
5.36763	0.92
5.40437	0.917
5.44111	0.912
5.47786	0.911
5.5146	0.914
5.55134	0.912
5.58809	0.912
5.62483	0.912
5.66157	0.908
5.69831	0.9
5.73506	0.891
5.7718	0.888
5.80854	0.885
5.84529	0.88
5.88203	0.879
5.91877	0.859
5.95552	0.822
5.99226	0.711
6.029	0.605
6.06575	0.677
6.10249	0.766
6.13923	0.802
6.17598	0.818
6.21272	0.828
6.24946	0.83
6.2862	0.833
6.32295	0.837
6.35969	0.836
6.39643	0.837
6.43318	0.833
6.46992	0.847
6.50666	0.845
6.54341	0.847
6.58015	0.848
6.61689	0.85
6.65364	0.85
6.69038	0.85
6.72712	0.848
6.76387	0.848
6.80061	0.824
6.83735	0.785
6.8741	0.784
6.91084	0.793
6.94758	0.795
6.98432	0.79
7.02107	0.787
7.05781	0.788
7.09455	0.795
7.1313	0.795
7.16804	0.792
7.20478	0.781
7.24153	0.775
7.27827	0.761
7.31501	0.758
7.35176	0.753
7.3885	0.741
7.42524	0.723
7.46199	0.714
7.49873	0.672
7.53547	0.631
7.57221	0.559
7.60896	0.516
7.6457	0.474
7.68244	0.448
7.71919	0.452
7.75593	0.457
7.79267	0.457
7.82942	0.438
7.86616	0.402
7.9029	0.316
7.93965	0.23
7.97639	0.18
8.01313	0.166
8.04988	0.162
8.08662	0.177
8.12336	0.25
8.16011	0.314
8.19685	0.356
8.23359	0.371
8.27033	0.353
8.30708	0.336
8.34382	0.336
8.38056	0.328
8.41731	0.285
8.45405	0.247
8.49079	0.227
8.52754	0.223
8.56428	0.249
8.60102	0.302
8.63777	0.362
8.67451	0.426
8.71125	0.498
8.748	0.576
8.78474	0.631
8.82148	0.674
8.85822	0.695
8.89497	0.724
8.93171	0.737
8.96845	0.752
9.0052	0.759
9.04194	0.767
9.07868	0.773
9.11543	0.775
9.15217	0.761
9.18891	0.738
9.22566	0.666
9.2624	0.541
9.29914	0.576
9.33589	0.608
9.37263	0.637
9.40937	0.62
9.44612	0.558
9.48286	0.444
9.5196	0.293
9.55634	0.237
9.59309	0.237
9.62983	0.321
9.66657	0.435
9.70332	0.522
9.74006	0.579
9.7768	0.607
9.81355	0.625
9.85029	0.637
9.88703	0.652
9.92378	0.663
9.96052	0.675
9.99726	0.686
10.034	0.695
10.0707	0.697
10.1075	0.698
10.1442	0.704
10.181	0.711
10.2177	0.721
10.2545	0.73
10.2912	0.74
10.328	0.749
10.3647	0.756
10.4014	0.753
10.4382	0.74
10.4749	0.718
10.5117	0.706
10.5484	0.703
10.5852	0.701
10.6219	0.701
10.6586	0.7
10.6954	0.698
10.7321	0.7
10.7689	0.7
10.8056	0.698
10.8424	0.697
10.8791	0.697
10.9158	0.695
10.9526	0.701
10.9893	0.707
11.0261	0.707
11.0628	0.701
11.0996	0.703
11.1363	0.701
11.173	0.701
11.2098	0.698
11.2465	0.689
11.2833	0.677
11.32	0.645
11.3568	0.587
11.3935	0.513
11.4302	0.403
11.467	0.359
11.5037	0.316
11.5405	0.288
11.5772	0.269
11.614	0.27
11.6507	0.316
11.6874	0.385
11.7242	0.46
11.7609	0.536
11.7977	0.594
11.8344	0.634
11.8712	0.672
11.9079	0.688
11.9446	0.707
11.9814	0.723
12.0181	0.732
12.0549	0.74
12.0916	0.746
12.1284	0.753
12.1651	0.762
12.2019	0.769
12.2386	0.769
12.2753	0.776
12.3121	0.779
12.3488	0.778
12.3856	0.773
12.4223	0.775
12.4591	0.772
12.4958	0.778
12.5325	0.775
12.5693	0.772
12.606	0.766
12.6428	0.764
12.6795	0.758
12.7163	0.756
12.753	0.752
12.7897	0.747
12.8265	0.743
12.8632	0.74
12.9	0.735
12.9367	0.73
12.9735	0.729
13.0102	0.726
13.0469	0.726
13.0837	0.73
13.1204	0.74
13.1572	0.749
13.1939	0.75
13.2307	0.752
13.2674	0.759
13.3041	0.761
13.3409	0.766
13.3776	0.77
13.4144	0.772
13.4511	0.776
13.4879	0.781
13.5246	0.781
13.5613	0.778
13.5981	0.778
13.6348	0.776
13.6716	0.775
13.7083	0.775
13.7451	0.773
13.7818	0.77
13.8185	0.769
13.8553	0.766
13.892	0.764
13.9288	0.759
13.9655	0.759
14.0023	0.764
14.039	0.767
14.0758	0.775
14.1125	0.778
14.1492	0.778
14.186	0.782
14.2227	0.787
14.2595	0.793
14.2962	0.795
14.333	0.793
14.3697	0.787
14.4064	0.785
14.4432	0.785
14.4799	0.778
14.5167	0.776
14.5534	0.775
14.5902	0.773
14.6269	0.769
14.6636	0.767
14.7004	0.761
14.7371	0.761
14.7739	0.758
14.8106	0.755
14.8474	0.75
14.8841	0.743
14.9208	0.733
14.9576	0.724
14.9943	0.718
15.0311	0.706
15.0678	0.694
15.1046	0.688
15.1413	0.678
15.178	0.662
15.2148	0.659
15.2515	0.642
15.2883	0.631
15.325	0.625
15.3618	0.617
15.3985	0.603
