Infrared Spectrum: LEAD CARBONATE
Formula: C2 H2 O8 Pb3
State: SOLID (0.5 mg / 300 mg CsI DISC)
Class: COBLENTZ
Instrument: BECKMAN IR-12 (GRATING)
Instrument parameters: GRATING BLAZED AT 3330, 1330, 445, 220 CM^-^1
Sampling: TRANSMISSION
Resolution: 4
Origin: DESOTO CHEMICAL COATINGS, INC.
1/CM	TRANSMITTANCE
201.331	0.697
211.982	0.695
222.633	0.699
233.284	0.71
243.935	0.734
254.585	0.749
265.236	0.762
275.887	0.77
286.538	0.772
297.189	0.776
307.84	0.778
318.491	0.774
329.142	0.774
339.793	0.778
350.443	0.773
361.094	0.76
371.745	0.741
382.396	0.718
393.047	0.698
403.698	0.691
414.349	0.693
425	0.709
435.651	0.735
446.301	0.766
456.952	0.788
467.603	0.8
478.254	0.808
488.905	0.821
499.556	0.836
510.207	0.851
520.858	0.861
531.508	0.869
542.159	0.872
552.81	0.879
563.461	0.88
574.112	0.884
584.763	0.886
595.414	0.891
606.065	0.892
616.716	0.894
627.366	0.899
638.017	0.902
648.668	0.904
659.319	0.903
669.97	0.9
680.621	0.865
691.272	0.7698
701.923	0.8129
712.574	0.883
723.224	0.908
733.875	0.911
744.526	0.914
755.177	0.91
765.828	0.904
776.479	0.91
787.13	0.911
797.781	0.915
808.432	0.92
819.082	0.927
829.733	0.932
840.384	0.931
851.035	0.919
861.686	0.926
872.337	0.936
882.988	0.954
893.639	0.955
904.29	0.958
914.94	0.958
925.591	0.958
936.242	0.958
946.893	0.959
957.544	0.959
968.195	0.958
978.846	0.957
989.497	0.955
1000.15	0.955
1010.8	0.95
1021.45	0.942
1032.1	0.934
1042.75	0.936
1053.4	0.919
1064.05	0.932
1074.7	0.936
1085.35	0.932
1096.01	0.932
1106.66	0.931
1117.31	0.932
1127.96	0.938
1138.61	0.939
1149.26	0.942
1159.91	0.943
1170.56	0.947
1181.21	0.946
1191.86	0.947
1202.51	0.947
1213.17	0.947
1223.82	0.939
1234.47	0.939
1245.12	0.935
1255.77	0.927
1266.42	0.919
1277.07	0.908
1287.72	0.899
1298.37	0.882
1309.02	0.868
1319.67	0.833
1330.33	0.82
1340.98	0.773
1351.63	0.725
1362.28	0.672
1372.93	0.592
1383.58	0.4971
1394.23	0.3311
1404.88	0.197
1415.53	0.199
1426.18	0.242
1436.83	0.3189
1447.48	0.41
1458.14	0.51
1468.79	0.6
1479.44	0.682
1490.09	0.738
1500.74	0.778
1511.39	0.8
1522.04	0.82
1532.69	0.832
1543.34	0.841
1553.99	0.851
1564.64	0.871
1575.3	0.883
1585.95	0.886
1596.6	0.876
1607.25	0.856
1617.9	0.851
1628.55	0.86
1639.2	0.879
1649.85	0.895
1660.5	0.902
1671.15	0.907
1681.8	0.902
1692.46	0.914
1703.11	0.922
1713.76	0.932
1724.41	0.932
1735.06	0.923
1745.71	0.919
1756.36	0.924
1767.01	0.936
1777.66	0.941
1788.31	0.945
1798.96	0.943
1809.61	0.943
1820.27	0.946
1830.92	0.945
1841.57	0.946
1852.22	0.945
1862.87	0.945
1873.52	0.943
1884.17	0.941
1894.82	0.941
1905.47	0.941
1916.12	0.941
1926.77	0.941
1937.43	0.939
1948.08	0.939
1958.73	0.938
1969.38	0.938
1980.03	0.936
1990.68	0.936
2001.33	0.9355
2011.98	0.934
2022.63	0.933
2033.28	0.931
2043.93	0.9315
2054.59	0.93
2065.24	0.931
2075.89	0.93
2086.54	0.9305
2097.19	0.9305
2107.84	0.931
2118.49	0.931
2129.14	0.931
2139.79	0.93
2150.44	0.927
2161.09	0.926
2171.75	0.928
2182.4	0.927
2193.05	0.927
2203.7	0.9265
2214.35	0.9275
2225	0.927
2235.65	0.9265
2246.3	0.926
2256.95	0.927
2267.6	0.924
2278.25	0.9265
2288.9	0.927
2299.56	0.927
2310.21	0.926
2320.86	0.926
2331.51	0.927
2342.16	0.9251
2352.81	0.9225
2363.46	0.92
2374.11	0.919
2384.76	0.9185
2395.41	0.9169
2406.06	0.916
2416.72	0.915
2427.37	0.914
2438.02	0.911
2448.67	0.912
2459.32	0.914
2469.97	0.912
2480.62	0.912
2491.27	0.914
2501.92	0.9145
2512.57	0.915
2523.22	0.915
2533.88	0.915
2544.53	0.916
2555.18	0.915
2565.83	0.915
2576.48	0.914
2587.13	0.9145
2597.78	0.914
2608.43	0.914
2619.08	0.914
2629.73	0.9105
2640.38	0.912
2651.04	0.91
2661.69	0.9105
2672.34	0.91
2682.99	0.908
2693.64	0.9075
2704.29	0.908
2714.94	0.908
2725.59	0.907
2736.24	0.907
2746.89	0.9065
2757.54	0.906
2768.19	0.904
2778.85	0.902
2789.5	0.9011
2800.15	0.9
2810.8	0.9
2821.45	0.9
2832.1	0.8985
2842.75	0.898
2853.4	0.8945
2864.05	0.891
2874.7	0.891
2885.35	0.891
2896.01	0.892
2906.66	0.8911
2917.31	0.8836
2927.96	0.879
2938.61	0.879
2949.26	0.8824
2959.91	0.882
2970.56	0.8824
2981.21	0.886
2991.86	0.887
3002.51	0.888
3013.17	0.888
3023.82	0.888
3034.47	0.887
3045.12	0.886
3055.77	0.884
3066.42	0.884
3077.07	0.884
3087.72	0.883
3098.37	0.883
3109.02	0.882
3119.67	0.882
3130.32	0.879
3140.98	0.878
3151.63	0.8756
3162.28	0.8726
3172.93	0.871
3183.58	0.869
3194.23	0.8676
3204.88	0.8606
3215.53	0.859
3226.18	0.855
3236.83	0.8516
3247.48	0.845
3258.14	0.841
3268.79	0.8382
3279.44	0.836
3290.09	0.831
3300.74	0.8276
3311.39	0.8222
3322.04	0.8143
3332.69	0.798
3343.34	0.7839
3353.99	0.7726
3364.64	0.7627
3375.3	0.7508
3385.95	0.7333
3396.6	0.7253
3407.25	0.7065
3417.9	0.6917
3428.55	0.6852
3439.2	0.6812
3449.85	0.6786
3460.5	0.675
3471.15	0.676
3481.8	0.6768
3492.46	0.678
3503.11	0.6802
3513.76	0.683
3524.41	0.6852
3535.06	0.682
3545.71	0.68
3556.36	0.6904
3567.01	0.7154
3577.66	0.7576
3588.31	0.7796
3598.96	0.7988
3609.61	0.8078
3620.27	0.8302
3630.92	0.8412
3641.57	0.8514
3652.22	0.8582
3662.87	0.863
3673.52	0.864
3684.17	0.864
3694.82	0.8644
3705.47	0.865
3716.12	0.865
3726.77	0.867
3737.43	0.867
3748.08	0.867
3758.73	0.868
3769.38	0.868
3780.03	0.868
3790.68	0.868
3801.33	0.868
3811.98	0.868
3822.63	0.867
3833.28	0.8662
3843.93	0.865
3854.59	0.864
3865.24	0.864
3875.89	0.864
3886.54	0.863
3897.19	0.8606
3907.84	0.861
3918.49	0.864
3929.14	0.863
3939.79	0.863
3950.44	0.861
3961.09	0.861
3971.75	0.861
3982.4	0.8606
