Infrared Spectrum: Cyclohexanamine, 3-aminoethyl-3,5,5-trimethyl-, dihydrochloride
Formula: C11 H26 Cl2 N2
State: SOLID (KBr DISC, 0.8% WT.)
Class: COBLENTZ III
Instrument: PERKIN-ELMER 157
Sampling: TRANSMISSION
Resolution: 2
Origin: BRITISH PETROLEUM CO. LTD., ENGLAND
1/CM	TRANSMITTANCE
668	0.7834
677	0.7753
686	0.7727
695	0.7699
704	0.7667
713	0.7651
722	0.7662
731	0.7751
740	0.7777
749	0.7744
758	0.777
767	0.7737
776	0.7682
785	0.7875
794	0.812
803	0.8132
812	0.8115
821	0.8077
830	0.7999
839	0.7743
848	0.7325
857	0.6731
866	0.6659
875	0.6505
884	0.6394
893	0.7363
902	0.7349
911	0.6987
920	0.7611
929	0.6194
938	0.6517
947	0.6129
956	0.72
965	0.6558
974	0.6962
983	0.6072
992	0.5744
1001	0.5142
1010	0.5259
1019	0.5727
1028	0.5402
1037	0.6767
1046	0.6701
1055	0.5531
1064	0.5929
1073	0.5604
1082	0.6069
1091	0.5155
1100	0.3989
1109	0.4978
1118	0.6566
1127	0.6563
1136	0.5579
1145	0.5814
1154	0.6423
1163	0.711
1172	0.7067
1181	0.6303
1190	0.5219
1199	0.5321
1208	0.6725
1217	0.6463
1226	0.5146
1235	0.4616
1244	0.5308
1253	0.598
1262	0.6441
1271	0.7188
1280	0.7043
1289	0.6447
1298	0.5965
1307	0.618
1316	0.6128
1325	0.5151
1334	0.3977
1343	0.5383
1352	0.4906
1361	0.4035
1370	0.4393
1379	0.3982
1388	0.3068
1397	0.2734
1406	0.5097
1415	0.5669
1424	0.5431
1433	0.4328
1442	0.3535
1451	0.2776
1460	0.1763
1469	0.138
1478	0.1352
1487	0.1285
1496	0.1141
1505	0.106
1514	0.1229
1523	0.1915
1532	0.2768
1541	0.329
1550	0.3311
1559	0.2588
1568	0.2116
1577	0.1595
1586	0.1309
1595	0.125
1604	0.1298
1613	0.1717
1622	0.2163
1631	0.2471
1640	0.38
1649	0.4549
1658	0.5106
1667	0.5821
1676	0.6456
1685	0.6664
1694	0.697
1703	0.7081
1712	0.7186
1721	0.7253
1730	0.7346
1739	0.7354
1748	0.7344
1757	0.733
1766	0.7316
1775	0.7302
1784	0.7289
1793	0.7232
1802	0.7223
1811	0.7211
1820	0.7135
1829	0.71
1838	0.703
1847	0.6895
1856	0.6865
1865	0.6739
1874	0.6595
1883	0.6469
1892	0.633
1901	0.6196
1910	0.6071
1919	0.595
1928	0.581
1937	0.563
1946	0.5487
1955	0.5409
1964	0.5382
1973	0.5374
1982	0.5391
1991	0.5431
2000	0.5507
2009	0.5712
2018	0.5901
2027	0.6088
2036	0.6279
2045	0.6431
2054	0.6534
2063	0.6658
2072	0.6692
2081	0.6714
2090	0.6802
2099	0.6851
2108	0.6886
2117	0.6903
2126	0.6912
2135	0.6918
2144	0.6922
2153	0.6924
2162	0.6938
2171	0.6973
2180	0.7003
2189	0.7021
2198	0.7033
2207	0.7038
2216	0.7041
2225	0.7042
2234	0.7033
2243	0.7029
2252	0.7001
2261	0.6977
2270	0.6944
2279	0.6901
2288	0.684
2297	0.6757
2306	0.6649
2315	0.6494
2324	0.6378
2333	0.6239
2342	0.6059
2351	0.5821
2360	0.5734
2369	0.5719
2378	0.5716
2387	0.5712
2396	0.5706
2405	0.5688
2414	0.5557
2423	0.5348
2432	0.5193
2441	0.5068
2450	0.495
2459	0.4838
2468	0.4735
2477	0.4629
2486	0.4506
2495	0.43
2504	0.3796
2513	0.3424
2522	0.3204
2531	0.3057
2540	0.2936
2549	0.2789
2558	0.2629
2567	0.2489
2576	0.246
2585	0.2456
2594	0.2451
2603	0.2445
2612	0.2438
2621	0.241
2630	0.2362
2639	0.228
2648	0.2147
2657	0.2022
2666	0.1953
2675	0.191
2684	0.1862
2693	0.1773
2702	0.167
2711	0.1589
2720	0.1511
2729	0.1437
2738	0.13
2747	0.1103
2756	0.0988
2765	0.0893
2774	0.0803
2783	0.0715
2792	0.0626
2801	0.0537
2810	0.0451
2819	0.0414
2828	0.0381
2837	0.0366
2846	0.0354
2855	0.035
2864	0.0346
2873	0.0342
2882	0.0338
2891	0.0335
2900	0.0333
2909	0.033
2918	0.0328
2927	0.0326
2936	0.0325
2945	0.0327
2954	0.0328
2963	0.0331
2972	0.0332
2981	0.0334
2990	0.0337
2999	0.0343
3008	0.0348
3017	0.0354
3026	0.036
3035	0.0366
3044	0.0374
3053	0.0386
3062	0.0398
3071	0.0427
3080	0.0474
3089	0.0527
3098	0.0584
3107	0.0641
3116	0.0697
3125	0.0754
3134	0.0809
3143	0.0871
3152	0.095
3161	0.1021
3170	0.1093
3179	0.1171
3188	0.1264
3197	0.142
3206	0.1622
3215	0.1755
3224	0.1818
3233	0.1865
3242	0.1885
3251	0.1885
3260	0.1873
3269	0.1839
3278	0.1794
3287	0.1753
3296	0.1714
3305	0.1672
3314	0.1614
3323	0.1554
3332	0.1494
3341	0.1417
3350	0.131
3359	0.1224
3368	0.1188
3377	0.1174
3386	0.1172
3395	0.1172
3404	0.1175
3413	0.118
3422	0.1187
3431	0.1207
3440	0.1249
3449	0.1313
3458	0.1374
3467	0.1449
3476	0.1526
3485	0.1605
3494	0.1683
3503	0.1759
3512	0.1848
3521	0.1955
3530	0.2248
3539	0.2474
3548	0.2719
3557	0.2879
3566	0.3094
3575	0.3465
3584	0.3836
3593	0.4082
3602	0.4319
3611	0.4405
3620	0.449
3629	0.4857
3638	0.5136
3647	0.5307
3656	0.5461
3665	0.5605
3674	0.5643
3683	0.5662
3692	0.5669
3701	0.5674
3710	0.5678
3719	0.568
3728	0.5682
3737	0.5682
3746	0.5683
3755	0.5685
3764	0.5686
3773	0.5688
3782	0.569
3791	0.5691
3800	0.5697
3809	0.5693
3818	0.5693
3827	0.5693
3836	0.5693
3845	0.5693
3854	0.5693
3863	0.5693
3872	0.5693
3881	0.5693
3890	0.5693
3899	0.5694
3908	0.5694
3917	0.5694
3926	0.5694
3935	0.5695
3944	0.5695
3953	0.5695
3962	0.5695
3971	0.5696
3980	0.5696
3989	0.5696
3998	0.5696
