Infrared Spectrum: (2,4-DICHLOROPHENOXY)ACETIC ACID, SODIUM SALT HYDRATE
Formula: C8 H5 Cl2 O3 Na  * ( H2 O) X
State: SOLID (MINERAL OIL MULL OF CS2 INSOLUBLES)
Class: COBLENTZ
Instrument: Not specified, most likely a prism, grating, or hybrid spectrometer.
Sampling: TRANSMISSION
Resolution: 4
Origin: DOW CHEMICAL COMPANY
1/CM	TRANSMITTANCE
424.35	0.916
433.806	0.914
443.263	0.918
452.719	0.922
462.175	0.922
471.631	0.866
481.088	0.8717
490.544	0.988
500	1
509.457	1.007
518.913	1.007
528.369	1.003
537.825	0.988
547.282	0.972
556.738	0.9008
566.194	0.827
575.65	0.894
585.107	0.877
594.563	0.787
604.019	0.551
613.476	0.564
622.932	0.4769
632.388	0.6309
641.844	0.703
651.301	0.772
660.757	0.838
670.213	0.868
679.67	0.853
689.126	0.764
698.582	0.827
708.038	0.883
717.495	0.8221
726.951	0.785
736.407	0.807
745.864	0.825
755.32	0.809
764.776	0.5252
774.232	0.5616
783.689	0.914
793.145	0.905
802.601	0.4243
812.057	0.9329
821.514	0.977
830.97	0.985
840.426	0.983
849.883	0.983
859.339	0.959
868.795	0.6488
878.251	0.962
887.708	0.975
897.164	0.987
906.62	0.987
916.077	0.983
925.533	0.942
934.989	0.962
944.445	0.861
953.902	0.9289
963.358	0.977
972.814	0.977
982.271	0.988
991.727	0.99
1001.18	0.985
1010.64	0.972
1020.1	0.942
1029.55	0.89
1039.01	0.322
1048.46	0.8999
1057.92	0.879
1067.38	0.281
1076.83	0.905
1086.29	0.946
1095.75	0.948
1105.2	0.7871
1114.66	0.788
1124.11	0.905
1133.57	0.931
1143.03	0.922
1152.48	0.922
1161.94	0.877
1171.4	0.931
1180.85	0.924
1190.31	0.933
1199.76	0.925
1209.22	0.912
1218.68	0.898
1228.13	0.868
1237.59	0.825
1247.05	0.5981
1256.5	0.381
1265.96	0.307
1275.42	0.716
1284.87	0.4852
1294.33	0.6496
1303.78	0.868
1313.24	0.866
1322.7	0.848
1332.15	0.7382
1341.61	0.1981
1351.07	0.818
1360.52	0.835
1369.98	0.759
1379.43	0.598
1388.89	0.742
1398.35	0.7737
1407.8	0.679
1417.26	0.39
1426.72	0.2961
1436.17	0.1938
1445.63	0.133
1455.08	0.374
1464.54	0.331
1474	0.34
1483.45	0.2001
1492.91	0.3479
1502.37	0.651
1511.82	0.766
1521.28	0.855
1530.73	0.892
1540.19	0.9
1549.65	0.9
1559.1	0.879
1568.56	0.857
1578.02	0.796
1587.47	0.724
1596.93	0.579
1606.39	0.3749
1615.84	0.05
1625.3	0.051
1634.75	0.316
1644.21	0.377
1653.67	0.718
1663.12	0.762
1672.58	0.751
1682.04	0.751
1691.49	0.851
1700.95	0.905
1710.4	0.905
1719.86	0.925
1729.32	0.942
1738.77	0.942
1748.23	0.968
1757.69	0.987
1767.14	0.994
1776.6	0.994
1786.05	0.994
1795.51	0.994
1804.97	1
1814.42	1.003
1823.88	1.005
1833.34	1.003
1842.79	1.001
1852.25	0.988
1861.7	0.983
1871.16	0.998
1880.62	1.003
1890.07	1.003
1899.53	1.005
1908.99	1.003
1918.44	1.003
1927.9	1.005
1937.35	1.001
1946.81	1.005
1956.27	1.003
1965.72	1.003
1975.18	1.003
1984.64	1.003
1994.09	1.001
2003.55	0.999
2013.01	0.996
2022.46	0.994
2031.92	0.998
2041.37	1
2050.83	1
2060.29	0.9964
2069.74	0.9947
2079.2	1
2088.66	0.9987
2098.11	0.9893
2107.57	0.988
2117.02	0.99
2126.48	0.9894
2135.94	0.988
2145.39	0.987
2154.85	0.987
2164.31	0.987
2173.76	0.987
2183.22	0.987
2192.67	0.9844
2202.13	0.9787
2211.59	0.9746
2221.04	0.9698
2230.5	0.964
2239.96	0.9567
2249.41	0.9479
2258.87	0.946
2268.32	0.9481
2277.78	0.959
2287.24	0.966
2296.69	0.966
2306.15	0.968
2315.61	0.97
2325.06	0.972
2334.52	0.974
2343.97	0.975
2353.43	0.975
2362.89	0.975
2372.34	0.975
2381.8	0.9767
2391.26	0.9806
2400.71	0.979
2410.17	0.979
2419.63	0.979
2429.08	0.979
2438.54	0.979
2447.99	0.979
2457.45	0.979
2466.91	0.979
2476.36	0.9757
2485.82	0.975
2495.28	0.974
2504.73	0.974
2514.19	0.9688
2523.64	0.9628
2533.1	0.959
2542.56	0.957
2552.01	0.959
2561.47	0.961
2570.93	0.958
2580.38	0.957
2589.84	0.957
2599.29	0.955
2608.75	0.9561
2618.21	0.951
2627.66	0.951
2637.12	0.95
2646.58	0.9453
2656.03	0.938
2665.49	0.933
2674.94	0.9336
2684.4	0.938
2693.86	0.938
2703.31	0.938
2712.77	0.935
2722.23	0.9265
2731.68	0.9254
2741.14	0.9314
2750.59	0.933
2760.05	0.931
2769.51	0.9284
2778.96	0.9157
2788.42	0.9042
2797.88	0.8866
2807.33	0.8562
2816.79	0.8109
2826.25	0.7501
2835.7	0.6007
2845.16	0.2781
2854.61	0.055
2864.07	0.1364
2873.53	0.1529
2882.98	0.244
2892.44	0.1527
2901.9	0.08
2911.35	0.0245
2920.81	0.007
2930.26	0.0087
2939.72	0.0211
2949.18	0.048
2958.63	0.044
2968.09	0.1173
2977.55	0.3748
2987	0.6083
2996.46	0.7053
3005.91	0.7512
3015.37	0.7736
3024.83	0.7864
3034.28	0.7894
3043.74	0.79
3053.2	0.7857
3062.65	0.7876
3072.11	0.7632
3081.56	0.779
3091.02	0.7758
3100.48	0.7489
3109.93	0.774
3119.39	0.7649
3128.85	0.758
3138.3	0.745
3147.76	0.726
3157.21	0.7117
3166.67	0.6897
3176.13	0.6593
3185.58	0.6198
3195.04	0.5797
3204.5	0.5288
3213.95	0.4821
3223.41	0.4334
3232.87	0.3903
3242.32	0.381
3251.78	0.3865
3261.23	0.41
3270.69	0.46
3280.15	0.5063
3289.6	0.5477
3299.06	0.583
3308.52	0.6124
3317.97	0.6354
3327.43	0.6463
3336.88	0.651
3346.34	0.65
3355.8	0.6287
3365.25	0.6084
3374.71	0.5841
3384.17	0.5526
3393.62	0.5267
3403.08	0.4955
3412.53	0.4417
3421.99	0.368
3431.45	0.2502
3440.9	0.181
3450.36	0.1826
3459.82	0.2556
3469.27	0.3598
3478.73	0.4655
3488.18	0.5653
3497.64	0.6477
3507.1	0.7225
3516.55	0.7809
3526.01	0.8165
3535.47	0.8513
3544.92	0.8736
3554.38	0.8889
3563.84	0.8998
3573.29	0.9132
3582.75	0.9189
3592.2	0.9279
3601.66	0.933
3611.12	0.937
3620.57	0.94
3630.03	0.942
3639.49	0.9506
3648.94	0.953
3658.4	0.955
3667.85	0.953
3677.31	0.953
3686.77	0.953
3696.22	0.9541
3705.68	0.958
3715.14	0.957
3724.59	0.957
3734.05	0.957
3743.5	0.957
3752.96	0.957
3762.42	0.957
3771.87	0.9562
3781.33	0.953
3790.79	0.951
