Infrared Spectrum: Diisopropylamine hydroiodide
Formula: C6 H16 I N
State: SOLID (NUJOL MULL)
Class: COBLENTZ III
Instrument: DOW KBr FOREPRISM-GRATING
Instrument parameters: BLAZED AT 3.5, 12.0, 20.0 MICRON AND CHANGED AT 5.0, 7.5, 14.9 MICRON
Sampling: TRANSMISSION
Resolution: 2
Origin: DOW CHEMICAL COMPANY
1/CM	TRANSMITTANCE
451	0.6771
460	0.6703
469	0.6839
478	0.7121
487	0.6822
496	0.4791
505	0.785
514	0.8011
523	0.8065
532	0.8085
541	0.8085
550	0.808
559	0.8075
568	0.8093
577	0.8137
586	0.8195
595	0.8257
604	0.8288
613	0.8289
622	0.8278
631	0.8288
640	0.8302
649	0.8298
658	0.8268
667	0.8215
676	0.8188
685	0.8111
694	0.8033
703	0.7893
712	0.7446
721	0.6903
730	0.7325
739	0.7634
748	0.7824
757	0.7905
766	0.7904
775	0.8017
784	0.8095
793	0.7922
802	0.8112
811	0.8083
820	0.7891
829	0.6907
838	0.822
847	0.825
856	0.8262
865	0.827
874	0.8278
883	0.8161
892	0.7815
901	0.8132
910	0.8015
919	0.8022
928	0.7798
937	0.7108
946	0.574
955	0.7536
964	0.7462
973	0.6858
982	0.8028
991	0.8099
1000	0.8078
1009	0.8031
1018	0.7957
1027	0.7797
1036	0.7615
1045	0.7601
1054	0.7514
1063	0.7296
1072	0.693
1081	0.5998
1090	0.6348
1099	0.4382
1108	0.7668
1117	0.7643
1126	0.7407
1135	0.6795
1144	0.4749
1153	0.4848
1162	0.5044
1171	0.4516
1180	0.433
1189	0.6357
1198	0.5618
1207	0.7839
1216	0.8006
1225	0.8019
1234	0.7901
1243	0.7768
1252	0.7628
1261	0.746
1270	0.73
1279	0.7228
1288	0.7078
1297	0.6458
1306	0.6603
1315	0.6824
1324	0.6354
1333	0.6526
1342	0.6088
1351	0.5464
1360	0.4715
1369	0.4203
1378	0.1303
1387	0.2922
1396	0.1716
1405	0.5246
1414	0.5156
1423	0.6185
1432	0.406
1441	0.3804
1450	0.2102
1459	0.0763
1468	0.0633
1477	0.3584
1486	0.6147
1495	0.6533
1504	0.6654
1513	0.6717
1522	0.6839
1531	0.6953
1540	0.6988
1549	0.7028
1558	0.6851
1567	0.6505
1576	0.551
1585	0.7026
1594	0.6836
1603	0.6514
1612	0.6153
1621	0.5794
1630	0.57
1639	0.5907
1648	0.6165
1657	0.6303
1666	0.6535
1675	0.6697
1684	0.689
1693	0.6946
1702	0.6945
1711	0.6871
1720	0.6778
1729	0.6707
1738	0.6725
1747	0.7017
1756	0.7141
1765	0.7183
1774	0.7078
1783	0.6912
1792	0.7071
1801	0.7147
1810	0.7148
1819	0.7098
1828	0.7026
1837	0.6976
1846	0.6996
1855	0.7007
1864	0.6949
1873	0.694
1882	0.6933
1891	0.6911
1900	0.6867
1909	0.6815
1918	0.6761
1927	0.6674
1936	0.6489
1945	0.6135
1954	0.6285
1963	0.6711
1972	0.67
1981	0.6674
1990	0.6644
1999	0.6537
2008	0.6419
2017	0.6378
2026	0.6275
2035	0.6197
2044	0.6125
2053	0.5873
2062	0.528
2071	0.531
2080	0.6262
2089	0.6353
2098	0.6346
2107	0.632
2116	0.6286
2125	0.6236
2134	0.6187
2143	0.6149
2152	0.6112
2161	0.6001
2170	0.5947
2179	0.5922
2188	0.5921
2197	0.5927
2206	0.5924
2215	0.5896
2224	0.5851
2233	0.5799
2242	0.5739
2251	0.5685
2260	0.5643
2269	0.5601
2278	0.5553
2287	0.5488
2296	0.5425
2305	0.5362
2314	0.5291
2323	0.5206
2332	0.5104
2341	0.4997
2350	0.4893
2359	0.4784
2368	0.4639
2377	0.4412
2386	0.4075
2395	0.3238
2404	0.3618
2413	0.4684
2422	0.4592
2431	0.4282
2440	0.3825
2449	0.2526
2458	0.2276
2467	0.4423
2476	0.497
2485	0.4852
2494	0.4543
2503	0.437
2512	0.421
2521	0.426
2530	0.4391
2539	0.4452
2548	0.4432
2557	0.44
2566	0.435
2575	0.4269
2584	0.408
2593	0.3849
2602	0.3749
2611	0.3528
2620	0.3437
2629	0.349
2638	0.329
2647	0.3055
2656	0.2791
2665	0.2502
2674	0.2157
2683	0.1663
2692	0.1292
2701	0.0903
2710	0.0868
2719	0.1302
2728	0.1633
2737	0.1542
2746	0.1446
2755	0.1441
2764	0.1516
2773	0.1941
2782	0.1603
2791	0.0971
2800	0.0615
2809	0.0522
2818	0.0464
2827	0.0253
2836	0.0112
2845	0.0012
2854	0.0005
2863	0.0005
2872	0.0005
2881	0.0005
2890	0.0005
2899	0.0005
2908	0.0005
2917	0.0005
2926	0.0005
2935	0.0005
2944	0.0005
2953	0.0005
2962	0.0005
2971	0.0031
2980	0.0107
2989	0.0249
2998	0.0419
3007	0.0731
3016	0.1321
3025	0.1873
3034	0.2425
3043	0.2977
3052	0.3629
3061	0.405
3070	0.4352
3079	0.4673
3088	0.5291
3097	0.542
3106	0.5426
3115	0.5365
3124	0.5207
3133	0.464
3142	0.3946
3151	0.5004
3160	0.5101
3169	0.5075
3178	0.501
3187	0.4931
3196	0.4834
3205	0.4732
3214	0.4632
3223	0.4538
3232	0.4456
3241	0.4385
3250	0.431
3259	0.4232
3268	0.4152
3277	0.4062
3286	0.3971
3295	0.3879
3304	0.3774
3313	0.3662
3322	0.3542
3331	0.3418
3340	0.328
3349	0.3138
3358	0.301
3367	0.2887
3376	0.2784
3385	0.2688
3394	0.2597
3403	0.2517
3412	0.2443
3421	0.2381
3430	0.2322
3439	0.2296
3448	0.2271
3457	0.2262
3466	0.2279
3475	0.232
3484	0.2362
3493	0.2409
3502	0.2462
3511	0.2523
3520	0.2594
3529	0.2661
3538	0.2724
3547	0.279
3556	0.2864
3565	0.2944
3574	0.3043
3583	0.3146
3592	0.325
3601	0.3366
3610	0.3489
3619	0.363
3628	0.3776
3637	0.3932
3646	0.4093
3655	0.4248
3664	0.4379
3673	0.4465
3682	0.4499
3691	0.4505
3700	0.4509
3709	0.4509
3718	0.4509
3727	0.4503
3736	0.4494
3745	0.4488
3754	0.4484
3763	0.4481
3772	0.448
3781	0.4472
3790	0.446
