Infrared Spectrum: Beta-DIETHYLAMINOETHYL-9-XANTHENE-CARBOXYLATE DI-CYCLOHEXYLSULFAMATE
Formula: C32 H49 N3 O9 S2
State: SOLID (NUJOL MULL)
Class: COBLENTZ
Instrument: PERKIN-ELMER
Sampling: TRANSMISSION
Resolution: 4
Origin: ABBOTT LABORATORIES - WASHBURN
MICROMETERS	TRANSMITTANCE
2.061	0.702
2.09638	0.707
2.13176	0.7119
2.16713	0.7209
2.20251	0.7279
2.23789	0.7338
2.27327	0.7319
2.30864	0.7188
2.34402	0.696
2.3794	0.691
2.41478	0.698
2.45016	0.7069
2.48553	0.7208
2.52091	0.7407
2.55629	0.7456
2.59167	0.7528
2.62704	0.757
2.66242	0.76
2.6978	0.7639
2.73318	0.773
2.76856	0.774
2.80393	0.7739
2.83931	0.774
2.87469	0.771
2.91007	0.7603
2.94544	0.76
2.98082	0.758
3.0162	0.7191
3.05158	0.5798
3.08696	0.5174
3.12233	0.6527
3.15771	0.707
3.19309	0.709
3.22847	0.7053
3.26384	0.6728
3.29922	0.5659
3.3346	0.4121
3.36998	0.1076
3.40536	0.0312
3.44073	0.019
3.47611	0.0207
3.51149	0.0294
3.54687	0.3053
3.58224	0.4353
3.61762	0.4614
3.653	0.4722
3.68838	0.478
3.72376	0.49
3.75913	0.4955
3.79451	0.501
3.82989	0.5247
3.86527	0.563
3.90064	0.6023
3.93602	0.642
3.9714	0.6568
4.00678	0.6397
4.04216	0.619
4.07753	0.6596
4.11291	0.6252
4.14829	0.6116
4.18367	0.6831
4.21904	0.7243
4.25442	0.7275
4.2898	0.738
4.32518	0.751
4.36056	0.7796
4.39593	0.7934
4.43131	0.8074
4.46669	0.813
4.50207	0.8183
4.53744	0.826
4.57282	0.8286
4.6082	0.829
4.64358	0.8345
4.67896	0.84
4.71433	0.8423
4.74971	0.8444
4.78509	0.849
4.82047	0.851
4.85584	0.851
4.89122	0.8478
4.9266	0.847
4.96198	0.852
4.99736	0.856
5.03273	0.852
5.06811	0.8514
5.10349	0.849
5.13887	0.849
5.17424	0.852
5.20962	0.856
5.245	0.8547
5.28038	0.856
5.31576	0.861
5.35113	0.868
5.38651	0.872
5.42189	0.8729
5.45727	0.87
5.49264	0.8725
5.52802	0.8677
5.5634	0.8617
5.59878	0.8571
5.63415	0.8498
5.66953	0.8085
5.70491	0.5632
5.74029	0.2802
5.77567	0.5276
5.81104	0.7213
5.84642	0.7728
5.8818	0.7848
5.91718	0.8154
5.95255	0.8236
5.98793	0.8302
6.02331	0.831
6.05869	0.831
6.09407	0.829
6.12944	0.8208
6.16482	0.8113
6.2002	0.8071
6.23558	0.754
6.27095	0.785
6.30633	0.705
6.34171	0.5667
6.37709	0.7361
6.41247	0.771
6.44784	0.8073
6.48322	0.813
6.5186	0.8108
6.55398	0.799
6.58935	0.7979
6.62473	0.7759
6.66011	0.6849
6.69549	0.4681
6.73087	0.1688
6.76624	0.3027
6.80162	0.1465
6.837	0.1031
6.87238	0.0839
6.90775	0.1112
6.94313	0.2638
6.97851	0.3748
7.01389	0.4833
7.04927	0.4992
7.08464	0.491
7.12002	0.5059
7.1554	0.5353
7.19078	0.5739
7.22615	0.4613
7.26153	0.3141
7.29691	0.3495
7.33229	0.451
7.36767	0.494
7.40304	0.4972
7.43842	0.5352
7.4738	0.5517
7.50918	0.4753
7.54455	0.4786
7.57993	0.4158
7.61531	0.2618
7.65069	0.2119
7.68607	0.179
7.72144	0.1843
7.75682	0.1369
7.7922	0.153
7.82758	0.115
7.86295	0.1981
7.89833	0.2168
7.93371	0.1312
7.96909	0.1461
8.00447	0.3193
8.03984	0.3616
8.07522	0.4519
8.1106	0.5377
8.14598	0.5203
8.18135	0.3714
8.21673	0.2052
8.25211	0.1048
8.28749	0.1671
8.32287	0.2568
8.35824	0.3262
8.39362	0.335
8.429	0.3413
8.46438	0.3847
8.49975	0.3765
8.53513	0.2263
8.57051	0.1129
8.60589	0.094
8.64127	0.117
8.67664	0.108
8.71202	0.1492
8.7474	0.2818
8.78278	0.3661
8.81815	0.4545
8.85353	0.5403
8.88891	0.593
8.92429	0.5449
8.95967	0.5753
8.99504	0.6317
9.03042	0.6353
9.0658	0.634
9.10118	0.615
9.13655	0.628
9.17193	0.6742
9.20731	0.6627
9.24269	0.5676
9.27807	0.56
9.31344	0.6285
9.34882	0.5779
9.3842	0.5421
9.41958	0.5828
9.45495	0.6409
9.49033	0.679
9.52571	0.6777
9.56109	0.6202
9.59647	0.3451
9.63184	0.292
9.66722	0.2512
9.7026	0.1758
9.73798	0.2501
9.77335	0.4082
9.80873	0.5048
9.84411	0.5253
9.87949	0.5376
9.91487	0.5591
9.95024	0.6041
9.98562	0.6497
10.021	0.659
10.0564	0.6286
10.0918	0.597
10.1271	0.6337
10.1625	0.6803
10.1979	0.7083
10.2333	0.7165
10.2686	0.719
10.304	0.7102
10.3394	0.6707
10.3748	0.6507
10.4102	0.645
10.4455	0.663
10.4809	0.6909
10.5163	0.707
10.5517	0.703
10.587	0.71
10.6224	0.718
10.6578	0.7326
10.6932	0.7376
10.7286	0.737
10.7639	0.735
10.7993	0.732
10.8347	0.732
10.8701	0.7308
10.9054	0.7168
10.9408	0.6955
10.9762	0.6616
11.0116	0.6663
11.047	0.711
11.0823	0.732
11.1177	0.734
11.1531	0.734
11.1885	0.735
11.2238	0.7347
11.2592	0.7528
11.2946	0.7703
11.33	0.773
11.3654	0.771
11.4007	0.7249
11.4361	0.679
11.4715	0.6458
11.5069	0.6334
11.5422	0.6173
11.5776	0.6207
11.613	0.6725
11.6484	0.693
11.6838	0.7172
11.7191	0.7234
11.7545	0.735
11.7899	0.7287
11.8253	0.7308
11.8606	0.755
11.896	0.769
11.9314	0.774
11.9668	0.7793
12.0022	0.7788
12.0375	0.7718
12.0729	0.7717
12.1083	0.7751
12.1437	0.787
12.179	0.789
12.2144	0.792
12.2498	0.7877
12.2852	0.7679
12.3206	0.736
12.3559	0.725
12.3913	0.723
12.4267	0.7314
12.4621	0.743
12.4974	0.751
12.5328	0.7576
12.5682	0.758
12.6036	0.7512
12.639	0.728
12.6743	0.7059
12.7097	0.705
12.7451	0.7187
12.7805	0.7256
12.8158	0.725
12.8512	0.7199
12.8866	0.7032
12.922	0.6738
12.9574	0.5809
12.9927	0.4967
13.0281	0.4907
13.0635	0.5422
13.0989	0.6077
13.1342	0.6228
13.1696	0.5479
13.205	0.4107
13.2404	0.4192
13.2758	0.5063
13.3111	0.4628
13.3465	0.3764
13.3819	0.4595
13.4173	0.5765
13.4526	0.588
13.488	0.5625
13.5234	0.544
13.5588	0.5656
13.5942	0.6061
13.6295	0.6193
13.6649	0.632
13.7003	0.6352
13.7357	0.636
13.771	0.636
13.8064	0.632
13.8418	0.6297
13.8772	0.622
13.9126	0.622
13.9479	0.6213
13.9833	0.624
14.0187	0.624
14.0541	0.6228
14.0894	0.622
14.1248	0.6161
14.1602	0.6026
14.1956	0.5834
14.231	0.5623
14.2663	0.5426
14.3017	0.5072
14.3371	0.4558
14.3725	0.3983
14.4078	0.3551
14.4432	0.331
14.4786	0.3303
14.514	0.3453
14.5494	0.3724
14.5847	0.4196
14.6201	0.451
14.6555	0.4739
14.6909	0.4959
14.7262	0.5128
14.7616	0.5287
14.797	0.5426
14.8324	0.5536
14.8678	0.5612
14.9031	0.5662
14.9385	0.576
14.9739	0.581
15.0093	0.5746
15.0446	0.5637
15.08	0.563
15.1154	0.563
15.1508	0.5607
15.1862	0.5518
15.2215	0.5338
15.2569	0.495
15.2923	0.4516
15.3277	0.429
15.363	0.4327
15.3984	0.4588
15.4338	0.4839
