Infrared Spectrum: DIAZINE GREEN (CERT.)
Formula: C28 H29 Cl N6
State: SOLID (MINERAL OIL MULL, AFTER ETHANOL PPTN.)
Class: COBLENTZ
Instrument: Not specified, most likely a prism, grating, or hybrid spectrometer.
Sampling: TRANSMISSION
Resolution: 4
Origin: WYANDOTTE CHEMICALS CORP., WYANDOTTE, MICHIGAN, USA
MICROMETERS	TRANSMITTANCE
2.033	0.205
2.073	0.212
2.113	0.213
2.15301	0.218
2.19301	0.233
2.23301	0.238
2.27301	0.242
2.31301	0.25
2.35302	0.252
2.39302	0.262
2.43302	0.273
2.47302	0.288
2.51302	0.298
2.55302	0.317
2.59303	0.335
2.63303	0.343
2.67303	0.35
2.71303	0.338
2.75303	0.308
2.79304	0.262
2.83304	0.212
2.87304	0.176
2.91304	0.143
2.95304	0.128
2.99305	0.116
3.03305	0.108
3.07305	0.103
3.11305	0.11
3.15305	0.131
3.19306	0.14
3.23306	0.15
3.27306	0.138
3.31306	0.083
3.35306	0.031
3.39306	0.033
3.43307	0.028
3.47307	0.025
3.51307	0.04
3.55307	0.181
3.59307	0.31
3.63308	0.353
3.67308	0.35
3.71308	0.352
3.75308	0.378
3.79308	0.404
3.83309	0.422
3.87309	0.442
3.91309	0.47
3.95309	0.487
3.99309	0.509
4.0331	0.519
4.0731	0.527
4.1131	0.532
4.1531	0.545
4.1931	0.565
4.23311	0.565
4.27311	0.57
4.31311	0.584
4.35311	0.611
4.39311	0.654
4.43311	0.659
4.47312	0.662
4.51312	0.664
4.55312	0.679
4.59312	0.691
4.63312	0.704
4.67313	0.707
4.71313	0.722
4.75313	0.742
4.79313	0.749
4.83313	0.767
4.87314	0.782
4.91314	0.789
4.95314	0.796
4.99314	0.803
5.03314	0.818
5.07315	0.821
5.11315	0.828
5.15315	0.834
5.19315	0.848
5.23315	0.849
5.27315	0.853
5.31316	0.883
5.35316	0.901
5.39316	0.921
5.43316	0.929
5.47316	0.941
5.51317	0.944
5.55317	0.949
5.59317	0.958
5.63317	0.958
5.67317	0.956
5.71318	0.958
5.75318	0.946
5.79318	0.928
5.83318	0.869
5.87318	0.849
5.91319	0.776
5.95319	0.701
5.99319	0.589
6.03319	0.49
6.07319	0.248
6.11319	0.205
6.1532	0.186
6.1932	0.031
6.2332	0.045
6.2732	0.141
6.3132	0.247
6.35321	0.268
6.39321	0.2
6.43321	0.156
6.47321	0.111
6.51321	0.046
6.55322	0.03
6.59322	0.048
6.63322	0.071
6.67322	0.078
6.71322	0.056
6.75323	0.028
6.79323	0.02
6.83323	0.025
6.87323	0.035
6.91323	0.078
6.95324	0.17
6.99324	0.227
7.03324	0.2
7.07324	0.185
7.11324	0.193
7.15324	0.181
7.19325	0.086
7.23325	0.038
7.27325	0.073
7.31325	0.075
7.35325	0.055
7.39326	0.051
7.43326	0.08
7.47326	0.083
7.51326	0.1
7.55326	0.135
7.59327	0.141
7.63327	0.121
7.67327	0.136
7.71327	0.168
7.75327	0.191
7.79328	0.191
7.83328	0.16
7.87328	0.126
7.91328	0.125
7.95328	0.13
7.99328	0.098
8.03329	0.1
8.07329	0.128
8.11329	0.17
8.15329	0.227
8.19329	0.28
8.2333	0.253
8.2733	0.171
8.3133	0.108
8.3533	0.105
8.3933	0.13
8.43331	0.086
8.47331	0.08
8.51331	0.126
8.55331	0.166
8.59331	0.202
8.63332	0.202
8.67332	0.176
8.71332	0.118
8.75332	0.11
8.79332	0.115
8.83332	0.133
8.87333	0.183
8.91333	0.285
8.95333	0.353
8.99333	0.303
9.03333	0.195
9.07334	0.121
9.11334	0.11
9.15334	0.12
9.19334	0.136
9.23334	0.136
9.27335	0.118
9.31335	0.141
9.35335	0.22
9.39335	0.275
9.43335	0.253
9.47336	0.193
9.51336	0.158
9.55336	0.171
9.59336	0.238
9.63336	0.347
9.67337	0.409
9.71337	0.45
9.75337	0.472
9.79337	0.507
9.83337	0.492
9.87337	0.46
9.91338	0.445
9.95338	0.445
9.99338	0.477
10.0334	0.53
10.0734	0.579
10.1134	0.604
10.1534	0.626
10.1934	0.624
10.2334	0.624
10.2734	0.627
10.3134	0.644
10.3534	0.644
10.3934	0.659
10.4334	0.662
10.4734	0.654
10.5134	0.656
10.5534	0.667
10.5934	0.642
10.6334	0.602
10.6734	0.59
10.7134	0.617
10.7534	0.646
10.7934	0.654
10.8334	0.666
10.8734	0.682
10.9134	0.682
10.9534	0.689
10.9934	0.699
11.0334	0.719
11.0734	0.731
11.1134	0.731
11.1534	0.721
11.1934	0.697
11.2334	0.652
11.2734	0.579
11.3134	0.5
11.3534	0.454
11.3934	0.435
11.4334	0.454
11.4735	0.452
11.5135	0.465
11.5535	0.509
11.5935	0.56
11.6335	0.606
11.6735	0.632
11.7135	0.641
11.7535	0.611
11.7935	0.537
11.8335	0.469
11.8735	0.437
11.9135	0.427
11.9535	0.4
11.9935	0.368
12.0335	0.338
12.0735	0.313
12.1135	0.307
12.1535	0.323
12.1935	0.352
12.2335	0.387
12.2735	0.419
12.3135	0.434
12.3535	0.47
12.3935	0.517
12.4335	0.542
12.4735	0.555
12.5135	0.565
12.5535	0.582
12.5935	0.604
12.6335	0.631
12.6735	0.659
12.7135	0.676
12.7535	0.676
12.7935	0.666
12.8335	0.637
12.8735	0.597
12.9135	0.555
12.9535	0.512
12.9935	0.519
13.0335	0.534
13.0735	0.569
13.1135	0.601
13.1535	0.621
13.1935	0.642
13.2335	0.654
13.2735	0.661
13.3135	0.659
13.3535	0.656
13.3935	0.649
13.4335	0.641
13.4735	0.636
13.5135	0.629
13.5536	0.621
13.5936	0.611
13.6336	0.604
13.6736	0.604
13.7136	0.601
13.7536	0.599
13.7936	0.595
13.8336	0.59
13.8736	0.587
13.9136	0.587
13.9536	0.601
13.9936	0.589
14.0336	0.59
14.0736	0.599
14.1136	0.599
14.1536	0.569
14.1936	0.535
14.2336	0.49
14.2736	0.44
14.3136	0.42
14.3536	0.43
14.3936	0.455
14.4336	0.507
14.4736	0.547
14.5136	0.584
14.5536	0.599
14.5936	0.614
14.6336	0.612
14.6736	0.601
14.7136	0.572
14.7536	0.559
14.7936	0.552
14.8336	0.574
14.8736	0.582
14.9136	0.582
14.9536	0.574
14.9936	0.554
15.0336	0.514
15.0736	0.49
15.1136	0.484
15.1536	0.487
15.1936	0.505
15.2336	0.519
15.2736	0.52
15.3136	0.51
15.3536	0.514
15.3936	0.509
15.4336	0.505
15.4736	0.51
15.5136	0.51
15.5536	0.505
15.5936	0.5
15.6336	0.49
15.6737	0.482
15.7137	0.475
15.7537	0.464
15.7937	0.45
15.8337	0.434
15.8737	0.43
15.9137	0.424
15.9537	0.417
