Infrared Spectrum: 1,2-DIPHENYL-3,5-DIOXO-4-n-BUTYLPYRAZOLIDINE, SODIUM SALT
Formula: C19 H19 N2 O2 Na
State: SOLID (OIL MULL)
Class: COBLENTZ III
Instrument: Not specified, most likely a prism spectrometer.
Instrument parameters: NaCl PRISM
Sampling: TRANSMISSION
Resolution: 2
Origin: SMITH KLINE & FRENCH LABS.
MICROMETERS	TRANSMITTANCE
2.007	0.703
2.04124	0.697
2.07549	0.697
2.10973	0.703
2.14397	0.714
2.17821	0.716
2.21246	0.71
2.2467	0.708
2.28094	0.704
2.31518	0.705
2.34943	0.71
2.38367	0.722
2.41791	0.73
2.45215	0.732
2.4864	0.746
2.52064	0.755
2.55488	0.766
2.58912	0.769
2.62337	0.769
2.65761	0.772
2.69185	0.778
2.72609	0.777
2.76034	0.758
2.79458	0.735
2.82882	0.728
2.86306	0.724
2.89731	0.717
2.93155	0.71
2.96579	0.698
3.00003	0.677
3.03428	0.673
3.06852	0.66
3.10276	0.65
3.137	0.645
3.17125	0.653
3.20549	0.665
3.23973	0.669
3.27397	0.669
3.30822	0.65
3.34246	0.601
3.3767	0.29
3.41094	0.109
3.44519	0.091
3.47943	0.076
3.51367	0.08
3.54792	0.393
3.58216	0.579
3.6164	0.721
3.65064	0.75
3.68489	0.772
3.71913	0.8
3.75337	0.8
3.78761	0.799
3.82186	0.814
3.8561	0.835
3.89034	0.843
3.92458	0.852
3.95883	0.859
3.99307	0.869
4.02731	0.873
4.06155	0.873
4.0958	0.875
4.13004	0.875
4.16428	0.877
4.19852	0.888
4.23277	0.907
4.26701	0.925
4.30125	0.926
4.33549	0.902
4.36974	0.894
4.40398	0.894
4.43822	0.894
4.47246	0.901
4.50671	0.903
4.54095	0.908
4.57519	0.908
4.60943	0.902
4.64368	0.894
4.67792	0.896
4.71216	0.899
4.7464	0.902
4.78065	0.901
4.81489	0.904
4.84913	0.91
4.88337	0.914
4.91762	0.912
4.95186	0.909
4.9861	0.909
5.02035	0.909
5.05459	0.908
5.08883	0.907
5.12307	0.907
5.15732	0.91
5.19156	0.914
5.2258	0.919
5.26004	0.919
5.29429	0.916
5.32853	0.918
5.36277	0.92
5.39701	0.924
5.43126	0.929
5.4655	0.93
5.49974	0.93
5.53398	0.927
5.56823	0.924
5.60247	0.921
5.63671	0.918
5.67095	0.913
5.7052	0.909
5.73944	0.905
5.77368	0.892
5.80792	0.884
5.84217	0.863
5.87641	0.813
5.91065	0.778
5.94489	0.747
5.97914	0.704
6.01338	0.741
6.04762	0.739
6.08186	0.683
6.11611	0.589
6.15035	0.474
6.18459	0.328
6.21883	0.153
6.25308	0.141
6.28732	0.128
6.32156	0.109
6.3558	0.113
6.39005	0.122
6.42429	0.195
6.45853	0.267
6.49278	0.385
6.52702	0.492
6.56126	0.551
6.5955	0.586
6.62975	0.55
6.66399	0.426
6.69823	0.396
6.73247	0.407
6.76672	0.306
6.80096	0.139
6.8352	0.109
6.86944	0.14
6.90369	0.173
6.93793	0.279
6.97217	0.313
7.00641	0.338
7.04066	0.448
7.0749	0.543
7.10914	0.6
7.14338	0.627
7.17763	0.586
7.21187	0.463
7.24611	0.308
7.28035	0.437
7.3146	0.528
7.34884	0.603
7.38308	0.638
7.41732	0.641
7.45157	0.626
7.48581	0.551
7.52005	0.528
7.55429	0.559
7.58854	0.579
7.62278	0.567
7.65702	0.545
7.69126	0.51
7.72551	0.421
7.75975	0.376
7.79399	0.387
7.82823	0.418
7.86248	0.498
7.89672	0.559
7.93096	0.576
7.96521	0.601
7.99945	0.633
8.03369	0.66
8.06793	0.688
8.10218	0.722
8.13642	0.737
8.17066	0.753
8.2049	0.774
8.23915	0.78
8.27339	0.778
8.30763	0.778
8.34187	0.775
8.37612	0.772
8.41036	0.771
8.4446	0.776
8.47884	0.739
8.51309	0.692
8.54733	0.658
8.58157	0.634
8.61581	0.586
8.65006	0.549
8.6843	0.545
8.71854	0.543
8.75278	0.597
8.78703	0.65
8.82127	0.695
8.85551	0.732
8.88975	0.733
8.924	0.726
8.95824	0.739
8.99248	0.739
9.02672	0.724
9.06097	0.719
9.09521	0.622
9.12945	0.582
9.16369	0.623
9.19794	0.686
9.23218	0.716
9.26642	0.71
9.30067	0.669
9.33491	0.695
9.36915	0.711
9.40339	0.741
9.43764	0.746
9.47188	0.742
9.50612	0.733
9.54036	0.726
9.57461	0.72
9.60885	0.722
9.64309	0.743
9.67733	0.746
9.71158	0.742
9.74582	0.752
9.78006	0.778
9.8143	0.783
9.84855	0.798
9.88279	0.805
9.91703	0.805
9.95127	0.793
9.98552	0.792
10.0198	0.797
10.054	0.805
10.0882	0.804
10.1225	0.797
10.1567	0.792
10.191	0.797
10.2252	0.798
10.2595	0.793
10.2937	0.792
10.3279	0.798
10.3622	0.799
10.3964	0.798
10.4307	0.807
10.4649	0.816
10.4992	0.822
10.5334	0.824
10.5676	0.829
10.6019	0.833
10.6361	0.832
10.6704	0.813
10.7046	0.799
10.7389	0.794
10.7731	0.799
10.8073	0.8
10.8416	0.799
10.8758	0.825
10.9101	0.832
10.9443	0.836
10.9786	0.826
11.0128	0.818
11.047	0.791
11.0813	0.785
11.1155	0.776
11.1498	0.787
11.184	0.815
11.2182	0.83
11.2525	0.833
11.2867	0.835
11.321	0.844
11.3552	0.849
11.3895	0.849
11.4237	0.835
11.4579	0.792
11.4922	0.738
11.5264	0.687
11.5607	0.643
11.5949	0.639
11.6292	0.748
11.6634	0.777
11.6976	0.794
11.7319	0.813
11.7661	0.831
11.8004	0.841
11.8346	0.84
11.8689	0.835
11.9031	0.824
11.9373	0.822
11.9716	0.821
12.0058	0.818
12.0401	0.815
12.0743	0.832
12.1086	0.835
12.1428	0.831
12.177	0.832
12.2113	0.83
12.2455	0.829
12.2798	0.819
12.314	0.814
12.3483	0.807
12.3825	0.809
12.4167	0.826
12.451	0.827
12.4852	0.826
12.5195	0.824
12.5537	0.82
12.588	0.819
12.6222	0.811
12.6564	0.804
12.6907	0.796
12.7249	0.782
12.7592	0.768
12.7934	0.757
12.8276	0.742
12.8619	0.731
12.8961	0.726
12.9304	0.721
12.9646	0.719
12.9989	0.732
13.0331	0.741
13.0673	0.725
13.1016	0.697
13.1358	0.653
13.1701	0.575
13.2043	0.507
13.2386	0.487
13.2728	0.466
13.307	0.477
13.3413	0.571
13.3755	0.63
13.4098	0.669
13.444	0.675
13.4783	0.677
13.5125	0.675
13.5467	0.673
13.581	0.665
13.6152	0.656
13.6495	0.658
13.6837	0.672
13.718	0.686
13.7522	0.692
13.7864	0.686
13.8207	0.655
13.8549	0.625
13.8892	0.616
13.9234	0.603
13.9577	0.614
13.9919	0.633
14.0261	0.645
14.0604	0.648
14.0946	0.653
14.1289	0.663
14.1631	0.683
14.1974	0.711
14.2316	0.719
14.2658	0.717
14.3001	0.708
14.3343	0.665
14.3686	0.631
14.4028	0.598
14.437	0.587
14.4713	0.57
14.5055	0.565
14.5398	0.581
14.574	0.649
14.6083	0.684
14.6425	0.708
14.6767	0.719
14.711	0.722
14.7452	0.725
14.7795	0.727
14.8137	0.731
14.848	0.733
14.8822	0.732
14.9164	0.727
14.9507	0.719
14.9849	0.717
15.0192	0.719
15.0534	0.714
15.0877	0.703
15.1219	0.699
