Infrared Spectrum: 2,6-PyridinediCarbamic acid, 4-chloro-, dibenzyl ester
Formula: C21 H18 Cl N3 O4
State: SOLID (0.7 mg / 650 mg KBr DISC)
Class: COBLENTZ III
Instrument: PERKIN-ELMER 221 (GRATING)
Instrument parameters: FILTER AT 2490, 980 CM^-^1. GRATING 4000-1428 CM^-^1, NaCl PRISM 1428-650 CM^-^1
Sampling: TRANSMISSION
Resolution: 2
Origin: SOUTHERN RESEARCH INSTITUTE
1/CM	TRANSMITTANCE
621	0.8237
630.043	0.8314
639.085	0.8587
648.128	0.8303
657.17	0.7264
666.213	0.7549
675.256	0.8353
684.298	0.6926
693.341	0.5119
702.384	0.6846
711.426	0.607
720.469	0.6794
729.511	0.6399
738.554	0.6817
747.597	0.5882
756.639	0.59
765.682	0.7294
774.724	0.8859
783.767	0.9159
792.81	0.9369
801.852	0.9414
810.895	0.9399
819.938	0.9013
828.98	0.6646
838.023	0.8371
847.065	0.7445
856.108	0.9495
865.151	0.9601
874.193	0.9578
883.236	0.9448
892.278	0.8882
901.321	0.8989
910.364	0.9415
919.406	0.9556
928.449	0.9534
937.492	0.944
946.534	0.9287
955.577	0.9083
964.619	0.9027
973.662	0.8846
982.705	0.8094
991.747	0.6567
1000.79	0.665
1009.83	0.9022
1018.88	0.9138
1027.92	0.8986
1036.96	0.8949
1046	0.863
1055.05	0.6911
1064.09	0.8465
1073.13	0.8881
1082.17	0.8638
1091.22	0.8131
1100.26	0.5707
1109.3	0.4583
1118.34	0.596
1127.39	0.8791
1136.43	0.9053
1145.47	0.8998
1154.51	0.8765
1163.56	0.8826
1172.6	0.8622
1181.64	0.8061
1190.68	0.7262
1199.73	0.6694
1208.77	0.3475
1217.81	0.218
1226.86	0.0953
1235.9	0.262
1244.94	0.5522
1253.98	0.6991
1263.03	0.3584
1272.07	0.6998
1281.11	0.8184
1290.15	0.8237
1299.2	0.7826
1308.24	0.6075
1317.28	0.4627
1326.32	0.4015
1335.37	0.3916
1344.41	0.696
1353.45	0.844
1362.49	0.8205
1371.54	0.683
1380.58	0.7169
1389.62	0.6838
1398.66	0.3727
1407.71	0.4935
1416.75	0.6165
1425.79	0.6077
1434.84	0.5819
1443.88	0.3688
1452.92	0.5043
1461.96	0.7092
1471.01	0.6098
1480.05	0.3785
1489.09	0.6745
1498.13	0.6398
1507.18	0.7735
1516.22	0.7847
1525.26	0.7578
1534.3	0.6952
1543.35	0.5642
1552.39	0.4321
1561.43	0.3744
1570.47	0.4502
1579.52	0.2088
1588.56	0.1993
1597.6	0.4257
1606.65	0.6397
1615.69	0.7327
1624.73	0.8254
1633.77	0.8292
1642.82	0.8328
1651.86	0.8309
1660.9	0.8212
1669.94	0.7897
1678.99	0.7373
1688.03	0.6974
1697.07	0.5088
1706.11	0.2288
1715.16	0.045
1724.2	0.2717
1733.24	0.5751
1742.28	0.2907
1751.33	0.5367
1760.37	0.7573
1769.41	0.8567
1778.45	0.9007
1787.5	0.9194
1796.54	0.9252
1805.58	0.9234
1814.63	0.9218
1823.67	0.9274
1832.71	0.9393
1841.75	0.95
1850.8	0.953
1859.84	0.9496
1868.88	0.9463
1877.92	0.9464
1886.97	0.9498
1896.01	0.9533
1905.05	0.9546
1914.09	0.9531
1923.14	0.9501
1932.18	0.9453
1941.22	0.9393
1950.26	0.9369
1959.31	0.9385
1968.35	0.9408
1977.39	0.9421
1986.44	0.9423
1995.48	0.9425
2004.52	0.9427
2013.56	0.9427
2022.61	0.9427
2031.65	0.9427
2040.69	0.9426
2049.73	0.9425
2058.78	0.9416
2067.82	0.9404
2076.86	0.9392
2085.9	0.9386
2094.95	0.9374
2103.99	0.9371
2113.03	0.9369
2122.07	0.9367
2131.12	0.9365
2140.16	0.9361
2149.2	0.9357
2158.24	0.9353
2167.29	0.9349
2176.33	0.9345
2185.37	0.934
2194.42	0.9335
2203.46	0.9331
2212.5	0.9326
2221.54	0.9321
2230.59	0.9315
2239.63	0.9305
2248.67	0.9294
2257.71	0.9284
2266.76	0.9274
2275.8	0.9266
2284.84	0.9261
2293.88	0.9255
2302.93	0.925
2311.97	0.9244
2321.01	0.9241
2330.05	0.9239
2339.1	0.9244
2348.14	0.9246
2357.18	0.9247
2366.22	0.9247
2375.27	0.9247
2384.31	0.9257
2393.35	0.9267
2402.4	0.9273
2411.44	0.9278
2420.48	0.9283
2429.52	0.9282
2438.57	0.927
2447.61	0.9263
2456.65	0.9269
2465.69	0.9275
2474.74	0.9281
2483.78	0.9234
2492.82	0.9133
2501.86	0.9123
2510.91	0.9117
2519.95	0.9113
2528.99	0.911
2538.03	0.91
2547.08	0.9089
2556.12	0.9079
2565.16	0.9077
2574.21	0.9076
2583.25	0.9069
2592.29	0.9061
2601.33	0.9054
2610.38	0.9046
2619.42	0.9042
2628.46	0.9039
2637.5	0.9032
2646.55	0.9018
2655.59	0.9003
2664.63	0.8988
2673.67	0.8974
2682.72	0.896
2691.76	0.8947
2700.8	0.8934
2709.84	0.8922
2718.89	0.8912
2727.93	0.8901
2736.97	0.8872
2746.01	0.885
2755.06	0.8854
2764.1	0.8859
2773.14	0.8871
2782.19	0.8883
2791.23	0.8881
2800.27	0.8879
2809.31	0.8868
2818.36	0.8838
2827.4	0.8793
2836.44	0.8746
2845.48	0.8689
2854.53	0.8625
2863.57	0.858
2872.61	0.8548
2881.65	0.851
2890.7	0.8465
2899.74	0.8417
2908.78	0.8374
2917.82	0.8334
2926.87	0.8319
2935.91	0.8303
2944.95	0.8285
2953.99	0.8266
2963.04	0.8266
2972.08	0.8276
2981.12	0.827
2990.17	0.8236
2999.21	0.8159
3008.25	0.8013
3017.29	0.7838
3026.34	0.7655
3035.38	0.7452
3044.42	0.7415
3053.46	0.7405
3062.51	0.7268
3071.55	0.7114
3080.59	0.7349
3089.63	0.7443
3098.68	0.7386
3107.72	0.73
3116.76	0.707
3125.8	0.6956
3134.85	0.7274
3143.89	0.7254
3152.93	0.7212
3161.98	0.7248
3171.02	0.7176
3180.06	0.7016
3189.1	0.6924
3198.15	0.6882
3207.19	0.6678
3216.23	0.6058
3225.27	0.5106
3234.32	0.479
3243.36	0.486
3252.4	0.5582
3261.44	0.6142
3270.49	0.6646
3279.53	0.6968
3288.57	0.705
3297.61	0.7082
3306.66	0.7092
3315.7	0.7073
3324.74	0.6829
3333.78	0.6288
3342.83	0.4457
3351.87	0.4394
3360.91	0.6251
3369.96	0.7167
3379	0.7184
3388.04	0.7134
3397.08	0.7044
3406.13	0.6941
3415.17	0.6947
3424.21	0.7117
3433.25	0.7165
3442.3	0.7183
3451.34	0.7204
3460.38	0.7219
3469.42	0.7227
3478.47	0.724
3487.51	0.7256
3496.55	0.7286
3505.59	0.7323
3514.64	0.7381
3523.68	0.7448
3532.72	0.7539
3541.77	0.7616
3550.81	0.7679
3559.85	0.7739
3568.89	0.7796
3577.94	0.7855
3586.98	0.7925
3596.02	0.7995
3605.06	0.8074
3614.11	0.818
3623.15	0.8282
3632.19	0.8373
3641.23	0.8458
3650.28	0.8521
3659.32	0.8562
3668.36	0.8584
3677.4	0.859
3686.45	0.8593
3695.49	0.8592
3704.53	0.8591
3713.57	0.8589
3722.62	0.859
3731.66	0.8591
3740.7	0.8592
3749.75	0.8594
3758.79	0.8597
3767.83	0.8599
3776.87	0.8602
3785.92	0.8604
3794.96	0.8608
3804	0.8611
3813.04	0.8614
3822.09	0.8617
3831.13	0.8618
3840.17	0.8617
3849.21	0.8617
3858.26	0.8617
3867.3	0.8616
3876.34	0.8616
3885.38	0.8615
3894.43	0.8615
3903.47	0.8613
3912.51	0.8607
3921.55	0.8602
3930.6	0.8595
3939.64	0.8585
3948.68	0.8576
3957.73	0.8569
3966.77	0.8566
3975.81	0.857
3984.85	0.8555
3993.9	0.8545
4002.94	0.8543
4011.98	0.8543
