Infrared Spectrum: RUTIN
Formula: C27 H30 O16  * 3 H2 O
State: SOLID (KBr DISC)
Melting point: 214-215 C DECOMP.
Class: COBLENTZ III
Instrument: PERKIN-ELMER 21 (GRATING)
Instrument parameters: FILTER AT ABOUT 10 MICRONS
Sampling: TRANSMISSION
Resolution: 2
1/CM	TRANSMITTANCE
4000	0.8563
3991	0.855
3982	0.8538
3973	0.8527
3964	0.8516
3955	0.8505
3946	0.8499
3937	0.8495
3928	0.8492
3919	0.8488
3910	0.8487
3901	0.8487
3892	0.8487
3883	0.8487
3874	0.8488
3865	0.8488
3856	0.849
3847	0.849
3838	0.8492
3829	0.8493
3820	0.8494
3811	0.8494
3802	0.8493
3793	0.8493
3784	0.8493
3775	0.8492
3766	0.849
3757	0.849
3748	0.8488
3739	0.8486
3730	0.8484
3721	0.8482
3712	0.8473
3703	0.846
3694	0.8432
3685	0.8412
3676	0.8401
3667	0.8392
3658	0.8378
3649	0.8349
3640	0.8296
3631	0.8215
3622	0.8092
3613	0.7946
3604	0.7771
3595	0.7553
3586	0.7378
3577	0.7097
3568	0.6628
3559	0.6264
3550	0.5854
3541	0.5441
3532	0.5026
3523	0.4609
3514	0.419
3505	0.3768
3496	0.3346
3487	0.295
3478	0.283
3469	0.2648
3460	0.2499
3451	0.235
3442	0.2196
3433	0.1808
3424	0.1645
3415	0.1512
3406	0.1431
3397	0.1385
3388	0.1346
3379	0.13
3370	0.1252
3361	0.122
3352	0.119
3343	0.117
3334	0.1159
3325	0.1157
3316	0.1155
3307	0.1155
3298	0.1166
3289	0.1215
3280	0.1307
3271	0.1401
3262	0.1471
3253	0.1505
3244	0.1528
3235	0.1549
3226	0.1571
3217	0.161
3208	0.1656
3199	0.1715
3190	0.1779
3181	0.1848
3172	0.1918
3163	0.2001
3154	0.2092
3145	0.2198
3136	0.2314
3127	0.2455
3118	0.2592
3109	0.2707
3100	0.2828
3091	0.2985
3082	0.3145
3073	0.3284
3064	0.3437
3055	0.3609
3046	0.3766
3037	0.3918
3028	0.4095
3019	0.4232
3010	0.4358
3001	0.4481
2992	0.4621
2983	0.4729
2974	0.4823
2965	0.4864
2956	0.4885
2947	0.4902
2938	0.4916
2929	0.4906
2920	0.4853
2911	0.477
2902	0.4681
2893	0.4639
2884	0.4662
2875	0.475
2866	0.483
2857	0.4926
2848	0.5047
2839	0.5201
2830	0.5353
2821	0.5496
2812	0.5636
2803	0.581
2794	0.5948
2785	0.6046
2776	0.6136
2767	0.6214
2758	0.6264
2749	0.6284
2740	0.6305
2731	0.6326
2722	0.6349
2713	0.6382
2704	0.6424
2695	0.6468
2686	0.6518
2677	0.6565
2668	0.6614
2659	0.6664
2650	0.6717
2641	0.6771
2632	0.6825
2623	0.6881
2614	0.6935
2605	0.6987
2596	0.7039
2587	0.7091
2578	0.715
2569	0.7211
2560	0.7269
2551	0.7322
2542	0.7375
2533	0.7428
2524	0.7478
2515	0.7528
2506	0.7578
2497	0.7628
2488	0.7675
2479	0.7721
2470	0.7768
2461	0.7812
2452	0.7857
2443	0.7901
2434	0.7946
2425	0.7991
2416	0.8036
2407	0.8081
2398	0.8125
2389	0.8169
2380	0.8209
2371	0.8241
2362	0.8266
2353	0.8266
2344	0.8253
2335	0.8228
2326	0.8232
2317	0.8262
2308	0.8296
2299	0.8332
2290	0.8361
2281	0.8387
2272	0.8409
2263	0.8423
2254	0.8428
2245	0.8428
2236	0.8425
2227	0.8425
2218	0.8425
2209	0.8425
2200	0.8431
2191	0.8431
2182	0.8421
2173	0.8408
2164	0.8392
2155	0.8378
2146	0.8364
2137	0.8347
2128	0.8337
2119	0.8328
2110	0.832
2101	0.8312
2092	0.8305
2083	0.8299
2074	0.831
2065	0.8324
2056	0.8337
2047	0.8348
2038	0.8358
2029	0.8368
2020	0.8375
2011	0.8382
2002	0.8387
1993	0.8393
1984	0.84
1975	0.8406
1966	0.8414
1957	0.842
1948	0.8423
1939	0.8427
1930	0.8432
1921	0.8438
1912	0.8449
1903	0.8462
1894	0.8459
1885	0.8451
1876	0.844
1867	0.8427
1858	0.8421
1849	0.8418
1840	0.8418
1831	0.842
1822	0.8415
1813	0.841
1804	0.8386
1795	0.8354
1786	0.8314
1777	0.8273
1768	0.8228
1759	0.8184
1750	0.8128
1741	0.8065
1732	0.7998
1723	0.7907
1714	0.7792
1705	0.7592
1696	0.7306
1687	0.6801
1678	0.6165
1669	0.4887
1660	0.2051
1651	0.2126
1642	0.3099
1633	0.4059
1624	0.3764
1615	0.2626
1606	0.197
1597	0.2543
1588	0.3546
1579	0.3968
1570	0.3944
1561	0.4014
1552	0.4948
1543	0.5557
1534	0.5638
1525	0.5067
1516	0.348
1507	0.2828
1498	0.2984
1489	0.3596
1480	0.4273
1471	0.4376
1462	0.4064
1453	0.3696
1444	0.3514
1435	0.391
1426	0.4512
1417	0.4592
1408	0.4506
1399	0.4335
1390	0.4072
1381	0.3776
1372	0.3153
1363	0.2501
1354	0.2351
1345	0.2866
1336	0.3407
1327	0.3947
1318	0.3949
1309	0.2918
1300	0.2259
1291	0.2556
1282	0.3134
1273	0.3169
1264	0.314
1255	0.3412
1246	0.3606
1237	0.359
1228	0.3764
1219	0.3934
1210	0.3125
1201	0.2165
1192	0.2458
1183	0.349
1174	0.3894
1165	0.3252
1156	0.4199
1147	0.4234
1138	0.3895
1129	0.3794
1120	0.3438
1111	0.3129
1102	0.3328
1093	0.2187
1084	0.1926
1075	0.1983
1066	0.1671
1057	0.1664
1048	0.2138
1039	0.2667
1030	0.2856
1021	0.3329
1012	0.3114
1003	0.3988
994	0.4023
985	0.4359
976	0.4712
967	0.6108
958	0.6872
949	0.7058
940	0.6774
931	0.6118
922	0.6704
913	0.6626
904	0.6721
895	0.685
886	0.6615
877	0.6294
868	0.6571
859	0.6712
850	0.5967
841	0.5575
832	0.5226
823	0.5147
814	0.4668
805	0.4525
796	0.5181
787	0.5474
778	0.5869
769	0.5906
760	0.588
751	0.5801
742	0.5657
733	0.5401
724	0.5459
715	0.5376
706	0.5369
697	0.5499
688	0.5296
679	0.529
670	0.5038
661	0.505
