Infrared Spectrum: SODIUM IODATE
Formula: Na I O3
State: SOLID (NUJOL MULL)
Class: COBLENTZ
Instrument: Not specified, most likely a prism, grating, or hybrid spectrometer.
Sampling: TRANSMISSION
Resolution: 4
Origin: MELLON INSTITUTE
MICROMETERS	TRANSMITTANCE
2.07	0.71
2.11102	0.712
2.15204	0.714
2.19306	0.714
2.23408	0.714
2.2751	0.714
2.31612	0.717
2.35714	0.719
2.39816	0.724
2.43918	0.726
2.4802	0.731
2.52123	0.734
2.56225	0.739
2.60327	0.743
2.64429	0.75
2.68531	0.751
2.72633	0.753
2.76735	0.755
2.80837	0.758
2.84939	0.76
2.89041	0.761
2.93143	0.761
2.97245	0.763
3.01347	0.765
3.05449	0.763
3.09551	0.765
3.13653	0.765
3.17755	0.767
3.21857	0.768
3.25959	0.77
3.30061	0.75
3.34163	0.621
3.38266	0.369
3.42368	0.44
3.4647	0.438
3.50572	0.551
3.54674	0.738
3.58776	0.796
3.62878	0.818
3.6698	0.827
3.71082	0.833
3.75184	0.833
3.79286	0.833
3.83388	0.835
3.8749	0.842
3.91592	0.844
3.95694	0.849
3.99796	0.849
4.03898	0.852
4.08	0.852
4.12102	0.857
4.16204	0.859
4.20306	0.859
4.24409	0.859
4.28511	0.857
4.32613	0.857
4.36715	0.856
4.40817	0.856
4.44919	0.856
4.49021	0.856
4.53123	0.854
4.57225	0.851
4.61327	0.851
4.65429	0.851
4.69531	0.851
4.73633	0.852
4.77735	0.852
4.81837	0.851
4.85939	0.852
4.90041	0.854
4.94143	0.856
4.98245	0.859
5.02347	0.861
5.0645	0.863
5.10552	0.868
5.14654	0.873
5.18756	0.875
5.22858	0.875
5.2696	0.88
5.31062	0.881
5.35164	0.883
5.39266	0.881
5.43368	0.883
5.4747	0.883
5.51572	0.888
5.55674	0.893
5.59776	0.898
5.63878	0.9
5.6798	0.902
5.72082	0.904
5.76184	0.907
5.80286	0.91
5.84388	0.916
5.8849	0.917
5.92593	0.921
5.96695	0.922
6.00797	0.921
6.04899	0.922
6.09001	0.922
6.13103	0.922
6.17205	0.924
6.21307	0.924
6.25409	0.921
6.29511	0.921
6.33613	0.921
6.37715	0.919
6.41817	0.921
6.45919	0.921
6.50021	0.919
6.54123	0.917
6.58225	0.917
6.62327	0.917
6.66429	0.914
6.70531	0.912
6.74633	0.886
6.78736	0.804
6.82838	0.753
6.8694	0.758
6.91042	0.811
6.95144	0.861
6.99246	0.89
7.03348	0.904
7.0745	0.916
7.11552	0.921
7.15654	0.91
7.19756	0.857
7.23858	0.849
7.2796	0.878
7.32062	0.898
7.36164	0.909
7.40266	0.91
7.44368	0.912
7.4847	0.921
7.52572	0.922
7.56674	0.922
7.60776	0.921
7.64879	0.924
7.68981	0.929
7.73083	0.929
7.77185	0.929
7.81287	0.931
7.85389	0.929
7.89491	0.929
7.93593	0.929
7.97695	0.929
8.01797	0.928
8.05899	0.929
8.10001	0.929
8.14103	0.929
8.18205	0.929
8.22307	0.929
8.26409	0.931
8.30511	0.931
8.34613	0.931
8.38715	0.929
8.42817	0.931
8.46919	0.929
8.51022	0.929
8.55124	0.928
8.59226	0.929
8.63328	0.929
8.6743	0.928
8.71532	0.928
8.75634	0.929
8.79736	0.929
8.83838	0.929
8.8794	0.929
8.92042	0.929
8.96144	0.928
9.00246	0.928
9.04348	0.928
9.0845	0.929
9.12552	0.929
9.16654	0.933
9.20756	0.933
9.24858	0.933
9.2896	0.933
9.33062	0.938
9.37165	0.938
9.41267	0.94
9.45369	0.941
9.49471	0.941
9.53573	0.945
9.57675	0.945
9.61777	0.945
9.65879	0.945
9.69981	0.945
9.74083	0.946
9.78185	0.948
9.82287	0.95
9.86389	0.95
9.90491	0.952
9.94593	0.953
9.98695	0.953
10.028	0.953
10.069	0.953
10.11	0.952
10.151	0.952
10.1921	0.95
10.2331	0.952
10.2741	0.95
10.3151	0.948
10.3561	0.95
10.3972	0.946
10.4382	0.946
10.4792	0.945
10.5202	0.945
10.5612	0.945
10.6023	0.945
10.6433	0.943
10.6843	0.943
10.7253	0.943
10.7663	0.94
10.8074	0.94
10.8484	0.94
10.8894	0.941
10.9304	0.943
10.9714	0.945
11.0125	0.945
11.0535	0.943
11.0945	0.943
11.1355	0.943
11.1765	0.943
11.2176	0.943
11.2586	0.943
11.2996	0.943
11.3406	0.943
11.3816	0.943
11.4227	0.943
11.4637	0.941
11.5047	0.943
11.5457	0.943
11.5868	0.945
11.6278	0.948
11.6688	0.943
11.7098	0.941
11.7508	0.934
11.7919	0.933
11.8329	0.933
11.8739	0.931
11.9149	0.931
11.9559	0.929
11.997	0.928
12.038	0.924
12.079	0.914
12.12	0.898
12.161	0.871
12.2021	0.835
12.2431	0.796
12.2841	0.695
12.3251	0.611
12.3661	0.51
12.4072	0.458
12.4482	0.405
12.4892	0.392
12.5302	0.397
12.5712	0.428
12.6123	0.441
12.6533	0.407
12.6943	0.345
12.7353	0.297
12.7763	0.236
12.8174	0.2
12.8584	0.2
12.8994	0.2
12.9404	0.2
12.9814	0.196
13.0225	0.188
13.0635	0.188
13.1045	0.196
13.1455	0.219
13.1866	0.255
13.2276	0.289
13.2686	0.354
13.3096	0.433
13.3506	0.515
13.3917	0.563
13.4327	0.621
13.4737	0.66
13.5147	0.678
13.5557	0.696
13.5968	0.71
13.6378	0.72
13.6788	0.727
13.7198	0.726
13.7608	0.727
13.8019	0.729
13.8429	0.731
13.8839	0.734
13.9249	0.732
13.9659	0.734
14.007	0.734
14.048	0.734
14.089	0.729
14.13	0.724
14.171	0.719
14.2121	0.708
14.2531	0.702
14.2941	0.7
14.3351	0.695
14.3761	0.688
14.4172	0.684
14.4582	0.679
14.4992	0.672
14.5402	0.671
14.5812	0.664
14.6223	0.657
14.6633	0.652
14.7043	0.647
14.7453	0.643
14.7863	0.642
14.8274	0.638
14.8684	0.633
14.9094	0.63
14.9504	0.626
14.9915	0.621
15.0325	0.621
15.0735	0.616
15.1145	0.614
15.1555	0.613
15.1966	0.611
15.2376	0.611
15.2786	0.609
15.3196	0.611
15.3606	0.611
15.4017	0.609
15.4427	0.611
15.4837	0.613
15.5247	0.614
15.5657	0.614
15.6068	0.618
15.6478	0.619
15.6888	0.625
15.7298	0.63
15.7708	0.631
15.8119	0.635
15.8529	0.64
15.8939	0.645
15.9349	0.648
15.9759	0.652
16.017	0.652
