Infrared Spectrum: SODIUM CYANATE
Formula: C N O Na
State: SOLID (MINERAL OIL MULL)
Class: COBLENTZ
Instrument: Not specified, most likely a prism, grating, or hybrid spectrometer.
Sampling: TRANSMISSION
Resolution: 4
Origin: WYANDOTTE CHEMICALS CORP., WYANDOTTE, MICHIGAN, USA
MICROMETERS	TRANSMITTANCE
2.013	0.581
2.05275	0.588
2.09251	0.591
2.13226	0.595
2.17201	0.595
2.21177	0.595
2.25152	0.598
2.29127	0.603
2.33103	0.614
2.37078	0.619
2.41054	0.633
2.45029	0.642
2.49004	0.649
2.5298	0.656
2.56955	0.672
2.6093	0.679
2.64906	0.697
2.68881	0.699
2.72856	0.705
2.76832	0.717
2.80807	0.712
2.84782	0.692
2.88758	0.613
2.92733	0.593
2.96709	0.654
3.00684	0.558
3.04659	0.695
3.08635	0.725
3.1261	0.732
3.16585	0.74
3.20561	0.758
3.24536	0.773
3.28511	0.771
3.32487	0.651
3.36462	0.051
3.40437	0
3.44413	0.008
3.48388	0.019
3.52364	0.085
3.56339	0.499
3.60314	0.651
3.6429	0.733
3.68265	0.752
3.7224	0.785
3.76216	0.804
3.80191	0.814
3.84166	0.786
3.88142	0.869
3.92117	0.889
3.96092	0.904
4.00068	0.795
4.04043	0.732
4.08018	0.902
4.11994	0.851
4.15969	0.808
4.19945	0.672
4.2392	0.604
4.27895	0.533
4.31871	0.52
4.35846	0.476
4.39821	0.285
4.43797	0.166
4.47772	0.095
4.51747	0.029
4.55723	0.011
4.59698	0.009
4.63673	0.036
4.67649	0.099
4.71624	0.163
4.756	0.204
4.79575	0.259
4.8355	0.299
4.87526	0.33
4.91501	0.348
4.95476	0.368
4.99452	0.404
5.03427	0.439
5.07402	0.464
5.11378	0.49
5.15353	0.51
5.19328	0.537
5.23304	0.561
5.27279	0.575
5.31255	0.591
5.3523	0.601
5.39205	0.614
5.43181	0.628
5.47156	0.633
5.51131	0.644
5.55107	0.657
5.59082	0.662
5.63057	0.669
5.67033	0.679
5.71008	0.687
5.74983	0.692
5.78959	0.697
5.82934	0.699
5.86909	0.702
5.90885	0.705
5.9486	0.707
5.98836	0.707
6.02811	0.71
6.06786	0.719
6.10762	0.723
6.14737	0.73
6.18712	0.75
6.22688	0.755
6.26663	0.776
6.30638	0.77
6.34614	0.79
6.38589	0.765
6.42564	0.791
6.4654	0.766
6.50515	0.771
6.54491	0.765
6.58466	0.775
6.62441	0.781
6.66417	0.766
6.70392	0.728
6.74367	0.588
6.78343	0.287
6.82318	0.163
6.86293	0.213
6.90269	0.333
6.94244	0.477
6.98219	0.654
7.02195	0.74
7.0617	0.788
7.10145	0.801
7.14121	0.809
7.18096	0.79
7.22072	0.523
7.26047	0.36
7.30022	0.552
7.33998	0.679
7.37973	0.796
7.41948	0.838
7.45924	0.867
7.49899	0.894
7.53874	0.757
7.5785	0.576
7.61825	0.358
7.658	0.079
7.69776	0.145
7.73751	0.33
7.77727	0.462
7.81702	0.527
7.85677	0.57
7.89653	0.606
7.93628	0.631
7.97603	0.657
8.01579	0.68
8.05554	0.76
8.09529	0.831
8.13505	0.904
8.1748	0.8
8.21455	0.299
8.25431	0.175
8.29406	0.358
8.33382	0.466
8.37357	0.504
8.41332	0.573
8.45308	0.608
8.49283	0.639
8.53258	0.657
8.57234	0.679
8.61209	0.695
8.65184	0.705
8.6916	0.727
8.73135	0.742
8.7711	0.76
8.81086	0.77
8.85061	0.785
8.89036	0.788
8.93012	0.793
8.96987	0.795
9.00963	0.803
9.04938	0.806
9.08913	0.809
9.12889	0.808
9.16864	0.803
9.20839	0.8
9.24815	0.801
9.2879	0.804
9.32765	0.806
9.36741	0.809
9.40716	0.814
9.44691	0.819
9.48667	0.821
9.52642	0.826
9.56618	0.829
9.60593	0.836
9.64568	0.841
9.68544	0.847
9.72519	0.851
9.76494	0.854
9.8047	0.856
9.84445	0.867
9.8842	0.876
9.92396	0.879
9.96371	0.88
10.0035	0.884
10.0432	0.885
10.083	0.885
10.1227	0.887
10.1625	0.884
10.2022	0.88
10.242	0.871
10.2817	0.861
10.3215	0.857
10.3612	0.867
10.401	0.871
10.4408	0.871
10.4805	0.874
10.5203	0.877
10.56	0.887
10.5998	0.887
10.6395	0.887
10.6793	0.89
10.719	0.892
10.7588	0.894
10.7985	0.897
10.8383	0.904
10.878	0.91
10.9178	0.907
10.9575	0.907
10.9973	0.923
11.0371	0.93
11.0768	0.933
11.1166	0.945
11.1563	0.948
11.1961	0.948
11.2358	0.95
11.2756	0.95
11.3153	0.95
11.3551	0.955
11.3948	0.96
11.4346	0.961
11.4743	0.963
11.5141	0.966
11.5539	0.966
11.5936	0.963
11.6334	0.966
11.6731	0.968
11.7129	0.968
11.7526	0.968
11.7924	0.966
11.8321	0.965
11.8719	0.963
11.9116	0.966
11.9514	0.968
11.9911	0.97
12.0309	0.97
12.0706	0.97
12.1104	0.971
12.1502	0.971
12.1899	0.973
12.2297	0.973
12.2694	0.973
12.3092	0.973
12.3489	0.975
12.3887	0.975
12.4284	0.976
12.4682	0.976
12.5079	0.975
12.5477	0.975
12.5874	0.973
12.6272	0.973
12.667	0.973
12.7067	0.971
12.7465	0.97
12.7862	0.97
12.826	0.968
12.8657	0.966
12.9055	0.965
12.9452	0.965
12.985	0.963
13.0247	0.963
13.0645	0.961
13.1042	0.96
13.144	0.958
13.1837	0.958
13.2235	0.955
13.2633	0.953
13.303	0.95
13.3428	0.948
13.3825	0.947
13.4223	0.938
13.462	0.932
13.5018	0.923
13.5415	0.907
13.5813	0.904
13.621	0.897
13.6608	0.894
13.7005	0.887
13.7403	0.88
13.7801	0.877
13.8198	0.872
13.8596	0.866
13.8993	0.861
13.9391	0.861
13.9788	0.876
14.0186	0.892
14.0583	0.899
14.0981	0.902
14.1378	0.905
14.1776	0.909
14.2173	0.91
14.2571	0.904
14.2968	0.895
14.3366	0.899
14.3764	0.894
14.4161	0.88
14.4559	0.866
14.4956	0.859
14.5354	0.852
14.5751	0.838
14.6149	0.823
14.6546	0.821
14.6944	0.8
14.7341	0.773
14.7739	0.758
14.8136	0.74
14.8534	0.719
14.8932	0.705
14.9329	0.7
14.9727	0.692
15.0124	0.661
15.0522	0.621
15.0919	0.613
15.1317	0.628
15.1714	0.641
15.2112	0.642
15.2509	0.633
15.2907	0.629
15.3304	0.614
15.3702	0.6
15.4099	0.586
15.4497	0.575
15.4895	0.557
15.5292	0.53
15.569	0.52
15.6087	0.494
15.6485	0.477
15.6882	0.457
15.728	0.442
15.7677	0.423
15.8075	0.411
15.8472	0.4
15.887	0.39
15.9267	0.386
15.9665	0.39
