Infrared Spectrum: Aniline, 2-methyl-4-(1',1',3',3'-tetramethylbutyl)-
Formula: C15 H25 N
State: LIQUID (NEAT)
Boiling point: 158 C
Class: COBLENTZ III
Instrument: BECKMAN IR-4 (HYBRID PRISM-GRATING)
Instrument parameters: NaCl PRISM
Sampling: TRANSMISSION
Path length: CAPILLARY
Resolution: 2
Origin: MONSANTO (J. FREEMAN)
1/CM	TRANSMITTANCE
627	0.4794
636	0.4482
645	0.4116
654	0.3968
663	0.3816
672	0.4214
681	0.4657
690	0.4445
699	0.4561
708	0.4686
717	0.5016
726	0.5311
735	0.3964
744	0.4182
753	0.4634
762	0.5678
771	0.641
780	0.646
789	0.6596
798	0.6579
807	0.463
816	0.119
825	0.2335
834	0.4633
843	0.6248
852	0.6946
861	0.7254
870	0.6881
879	0.4345
888	0.5855
897	0.6889
906	0.748
915	0.738
924	0.6279
933	0.7137
942	0.7152
951	0.78
960	0.8197
969	0.786
978	0.6532
987	0.7252
996	0.5371
1005	0.7535
1014	0.8309
1023	0.84
1032	0.7426
1041	0.7869
1050	0.8299
1059	0.8106
1068	0.7736
1077	0.7613
1086	0.7833
1095	0.8096
1104	0.7595
1113	0.8304
1122	0.7563
1131	0.7398
1140	0.7868
1149	0.6666
1158	0.4281
1167	0.3314
1176	0.5885
1185	0.756
1194	0.7396
1203	0.6029
1212	0.3441
1221	0.6121
1230	0.7555
1239	0.6651
1248	0.4995
1257	0.4467
1266	0.3832
1275	0.2236
1284	0.148
1293	0.1992
1302	0.2861
1311	0.5815
1320	0.5617
1329	0.4945
1338	0.5171
1347	0.678
1356	0.5743
1365	0.5696
1374	0.1639
1383	0.4497
1392	0.4539
1401	0.4355
1410	0.4887
1419	0.517
1428	0.5915
1437	0.5698
1446	0.3388
1455	0.2675
1464	0.2311
1473	0.1719
1482	0.1418
1491	0.207
1500	0.2407
1509	0.201
1518	0.1161
1527	0.0739
1536	0.237
1545	0.5128
1554	0.6766
1563	0.7221
1572	0.7404
1581	0.7212
1590	0.5889
1599	0.5384
1608	0.5118
1617	0.4021
1626	0.2964
1635	0.1486
1644	0.1389
1653	0.2857
1662	0.4045
1671	0.6862
1680	0.7423
1689	0.7886
1698	0.8442
1707	0.8744
1716	0.8981
1725	0.916
1734	0.9291
1743	0.9337
1752	0.9291
1761	0.9188
1770	0.9024
1779	0.8955
1788	0.9032
1797	0.9123
1806	0.9225
1815	0.9316
1824	0.9313
1833	0.9293
1842	0.928
1851	0.9333
1860	0.9352
1869	0.9259
1878	0.9023
1887	0.8962
1896	0.8948
1905	0.9096
1914	0.9266
1923	0.9295
1932	0.9301
1941	0.9334
1950	0.9378
1959	0.9412
1968	0.9436
1977	0.9452
1986	0.9468
1995	0.948
2004	0.9491
2013	0.95
2022	0.9506
2031	0.9513
2040	0.9519
2049	0.9525
2058	0.9526
2067	0.9526
2076	0.953
2085	0.9534
2094	0.9539
2103	0.9544
2112	0.954
2121	0.9525
2130	0.9517
2139	0.9513
2148	0.9514
2157	0.9519
2166	0.9526
2175	0.9533
2184	0.9539
2193	0.9543
2202	0.9546
2211	0.955
2220	0.9551
2229	0.9553
2238	0.9554
2247	0.9556
2256	0.9556
2265	0.9557
2274	0.9557
2283	0.9549
2292	0.9538
2301	0.9527
2310	0.9522
2319	0.9521
2328	0.9523
2337	0.9527
2346	0.953
2355	0.9531
2364	0.9533
2373	0.9531
2382	0.9527
2391	0.9517
2400	0.9486
2409	0.9458
2418	0.9448
2427	0.9467
2436	0.9492
2445	0.9522
2454	0.9533
2463	0.9539
2472	0.9543
2481	0.9546
2490	0.9545
2499	0.9544
2508	0.954
2517	0.9536
2526	0.9532
2535	0.9524
2544	0.9514
2553	0.9502
2562	0.9476
2571	0.945
2580	0.9423
2589	0.9398
2598	0.9381
2607	0.9363
2616	0.9349
2625	0.9339
2634	0.9321
2643	0.9286
2652	0.9257
2661	0.9218
2670	0.9167
2679	0.9116
2688	0.9066
2697	0.9014
2706	0.8959
2715	0.8904
2724	0.8842
2733	0.8781
2742	0.8713
2751	0.8644
2760	0.8573
2769	0.8535
2778	0.856
2787	0.8609
2796	0.8638
2805	0.8628
2814	0.8582
2823	0.8361
2832	0.8119
2841	0.7964
2850	0.7532
2859	0.6892
2868	0.6226
2877	0.5742
2886	0.4756
2895	0.3242
2904	0.1782
2913	0.1258
2922	0.0972
2931	0.0858
2940	0.0797
2949	0.0785
2958	0.0736
2967	0.0501
2976	0.0391
2985	0.0381
2994	0.0389
3003	0.0942
3012	0.1507
3021	0.207
3030	0.263
3039	0.3186
3048	0.3739
3057	0.4288
3066	0.4761
3075	0.52
3084	0.5727
3093	0.6252
3102	0.6807
3111	0.7651
3120	0.7872
3129	0.8112
3138	0.8283
3147	0.8387
3156	0.8467
3165	0.8496
3174	0.8513
3183	0.851
3192	0.8359
3201	0.8176
3210	0.7995
3219	0.7815
3228	0.7636
3237	0.7458
3246	0.728
3255	0.7105
3264	0.6956
3273	0.6994
3282	0.7128
3291	0.7262
3300	0.739
3309	0.7399
3318	0.72
3327	0.6965
3336	0.6731
3345	0.6498
3354	0.6266
3363	0.605
3372	0.5627
3381	0.4806
3390	0.4133
3399	0.4062
3408	0.4076
3417	0.4317
3426	0.4629
3435	0.4939
3444	0.5246
3453	0.5552
3462	0.5751
3471	0.5719
3480	0.5655
3489	0.5591
3498	0.5527
3507	0.552
3516	0.5929
3525	0.6385
3534	0.684
3543	0.7292
3552	0.7742
3561	0.839
3570	0.8693
3579	0.8773
3588	0.8828
3597	0.8873
3606	0.8918
3615	0.8948
3624	0.8967
3633	0.8988
3642	0.9006
3651	0.9017
3660	0.9026
3669	0.9036
3678	0.9044
3687	0.905
3696	0.9056
3705	0.9062
3714	0.9067
3723	0.9072
3732	0.9077
3741	0.9081
3750	0.9085
3759	0.9089
3768	0.9092
3777	0.9094
3786	0.9096
3795	0.9098
3804	0.91
3813	0.9101
3822	0.9101
3831	0.9101
3840	0.9101
3849	0.91
3858	0.91
3867	0.9099
3876	0.9097
3885	0.9095
3894	0.9092
3903	0.9089
3912	0.9087
3921	0.9078
3930	0.9067
3939	0.9056
3948	0.9044
3957	0.9032
3966	0.9019
3975	0.9007
3984	0.8994
3993	0.898
