Infrared Spectrum: COBALTOUS NITRATE
Formula: Co ( N O3)2  * 6 H2 O
State: SOLID (NUJOL MULL)
Class: COBLENTZ
Instrument: Not specified, most likely a prism, grating, or hybrid spectrometer.
Sampling: TRANSMISSION
Resolution: 4
Origin: MELLON INSTITUTE
MICROMETERS	TRANSMITTANCE
2.03	0.841
2.06988	0.844
2.10975	0.847
2.14963	0.852
2.18951	0.852
2.22939	0.854
2.26926	0.854
2.30914	0.854
2.34902	0.851
2.38889	0.851
2.42877	0.846
2.46865	0.842
2.50852	0.842
2.5484	0.846
2.58828	0.847
2.62816	0.847
2.66803	0.842
2.70791	0.836
2.74779	0.799
2.78766	0.732
2.82754	0.578
2.86742	0.516
2.90729	0.399
2.94717	0.357
2.98705	0.399
3.02693	0.443
3.0668	0.451
3.10668	0.451
3.14656	0.483
3.18643	0.565
3.22631	0.642
3.26619	0.673
3.30607	0.6
3.34594	0.399
3.38582	0.309
3.4257	0.481
3.46557	0.458
3.50545	0.715
3.54533	0.821
3.5852	0.856
3.62508	0.869
3.66496	0.874
3.70484	0.879
3.74471	0.886
3.78459	0.886
3.82447	0.889
3.86434	0.892
3.90422	0.894
3.9441	0.886
3.98397	0.887
4.02385	0.886
4.06373	0.882
4.10361	0.881
4.14348	0.884
4.18336	0.886
4.22324	0.889
4.26311	0.887
4.30299	0.884
4.34287	0.882
4.38274	0.886
4.42262	0.886
4.4625	0.886
4.50238	0.886
4.54225	0.886
4.58213	0.886
4.62201	0.884
4.66188	0.882
4.70176	0.884
4.74164	0.887
4.78152	0.889
4.82139	0.887
4.86127	0.889
4.90115	0.894
4.94102	0.894
4.9809	0.896
5.02078	0.899
5.06065	0.899
5.10053	0.903
5.14041	0.904
5.18029	0.904
5.22016	0.904
5.26004	0.904
5.29992	0.906
5.33979	0.908
5.37967	0.906
5.41955	0.903
5.45942	0.904
5.4993	0.909
5.53918	0.906
5.57906	0.906
5.61893	0.904
5.65881	0.904
5.69869	0.909
5.73856	0.909
5.77844	0.906
5.81832	0.903
5.8582	0.889
5.89807	0.874
5.93795	0.844
5.97783	0.789
6.0177	0.724
6.05758	0.7
6.09746	0.695
6.13733	0.704
6.17721	0.744
6.21709	0.802
6.25697	0.832
6.29684	0.839
6.33672	0.854
6.3766	0.856
6.41647	0.861
6.45635	0.867
6.49623	0.866
6.5361	0.869
6.57598	0.869
6.61586	0.862
6.65574	0.861
6.69561	0.847
6.73549	0.816
6.77537	0.732
6.81524	0.643
6.85512	0.63
6.895	0.625
6.93488	0.632
6.97475	0.603
7.01463	0.513
7.05451	0.453
7.09438	0.389
7.13426	0.341
7.17414	0.277
7.21401	0.225
7.25389	0.234
7.29377	0.257
7.33365	0.285
7.37352	0.376
7.4134	0.551
7.45328	0.602
7.49315	0.653
7.53303	0.697
7.57291	0.727
7.61278	0.755
7.65266	0.774
7.69254	0.785
7.73242	0.802
7.77229	0.816
7.81217	0.826
7.85205	0.836
7.89192	0.844
7.9318	0.852
7.97168	0.856
8.01155	0.864
8.05143	0.864
8.09131	0.874
8.13119	0.877
8.17106	0.881
8.21094	0.882
8.25082	0.882
8.29069	0.882
8.33057	0.886
8.37045	0.889
8.41033	0.891
8.4502	0.886
8.49008	0.892
8.52996	0.891
8.56983	0.886
8.60971	0.889
8.64959	0.891
8.68946	0.889
8.72934	0.887
8.76922	0.889
8.8091	0.886
8.84897	0.881
8.88885	0.882
8.92873	0.887
8.9686	0.891
9.00848	0.896
9.04836	0.891
9.08823	0.891
9.12811	0.892
9.16799	0.894
9.20787	0.892
9.24774	0.892
9.28762	0.891
9.3275	0.896
9.36737	0.896
9.40725	0.896
9.44713	0.894
9.48701	0.892
9.52688	0.901
9.56676	0.901
9.60664	0.897
9.64651	0.904
9.68639	0.904
9.72627	0.906
9.76614	0.906
9.80602	0.908
9.8459	0.904
9.88578	0.911
9.92565	0.909
9.96553	0.913
10.0054	0.914
10.0453	0.913
10.0852	0.918
10.125	0.914
10.1649	0.918
10.2048	0.918
10.2447	0.919
10.2845	0.918
10.3244	0.918
10.3643	0.918
10.4042	0.914
10.4441	0.913
10.4839	0.913
10.5238	0.914
10.5637	0.914
10.6036	0.916
10.6434	0.916
10.6833	0.918
10.7232	0.913
10.7631	0.914
10.8029	0.914
10.8428	0.918
10.8827	0.916
10.9226	0.914
10.9625	0.919
11.0023	0.914
11.0422	0.913
11.0821	0.919
11.122	0.918
11.1618	0.914
11.2017	0.913
11.2416	0.906
11.2815	0.906
11.3213	0.904
11.3612	0.904
11.4011	0.909
11.441	0.908
11.4809	0.906
11.5207	0.901
11.5606	0.901
11.6005	0.897
11.6404	0.897
11.6802	0.896
11.7201	0.894
11.76	0.889
11.7999	0.881
11.8398	0.876
11.8796	0.866
11.9195	0.816
11.9594	0.752
11.9993	0.782
12.0391	0.799
12.079	0.804
12.1189	0.802
12.1588	0.801
12.1986	0.799
12.2385	0.795
12.2784	0.789
12.3183	0.78
12.3582	0.775
12.398	0.775
12.4379	0.775
12.4778	0.775
12.5177	0.779
12.5575	0.782
12.5974	0.782
12.6373	0.784
12.6772	0.789
12.717	0.794
12.7569	0.799
12.7968	0.802
12.8367	0.801
12.8766	0.801
12.9164	0.802
12.9563	0.804
12.9962	0.806
13.0361	0.807
13.0759	0.807
13.1158	0.807
13.1557	0.807
13.1956	0.807
13.2354	0.809
13.2753	0.812
13.3152	0.809
13.3551	0.816
13.395	0.812
13.4348	0.806
13.4747	0.804
13.5146	0.801
13.5545	0.794
13.5943	0.787
13.6342	0.779
13.6741	0.775
13.714	0.769
13.7538	0.76
13.7937	0.755
13.8336	0.749
13.8735	0.75
13.9134	0.749
13.9532	0.745
13.9931	0.745
14.033	0.74
14.0729	0.734
14.1127	0.729
14.1526	0.72
14.1925	0.712
14.2324	0.702
14.2722	0.692
14.3121	0.687
14.352	0.682
14.3919	0.672
14.4318	0.67
14.4716	0.663
14.5115	0.658
14.5514	0.655
14.5913	0.65
14.6311	0.647
14.671	0.642
14.7109	0.635
14.7508	0.633
14.7907	0.632
14.8305	0.635
14.8704	0.648
14.9103	0.635
14.9502	0.628
14.99	0.622
15.0299	0.618
15.0698	0.618
15.1097	0.62
15.1495	0.622
15.1894	0.622
15.2293	0.625
15.2692	0.625
15.3091	0.628
15.3489	0.627
15.3888	0.628
15.4287	0.633
15.4686	0.638
15.5084	0.638
15.5483	0.642
15.5882	0.645
15.6281	0.645
15.6679	0.645
15.7078	0.65
15.7477	0.648
15.7876	0.647
15.8275	0.657
15.8673	0.672
15.9072	0.673
15.9471	0.682
15.987	0.687
