Infrared Spectrum: 4-Dibenzofuransulfonic acid, sodium salt, hydrate
Formula: C12 H7 Na O4 S  * H2 O
State: SOLID (SPLIT MULL), FLUOROLUBE FOR 3800-1330 CM^-^1, NUJOL FOR 1330-400 CM^-^1
Class: COBLENTZ III
Instrument: DOW KBr FOREPRISM-GRATING
Instrument parameters: BLAZED AT 3.5, 12.0, 20.0 MICRON AND CHANGED AT 5.0, 7.5, 14.9 MICRON
Sampling: TRANSMISSION
Resolution: 2
Origin: DOW CHEMICAL COMPANY
1/CM	TRANSMITTANCE
3798	0.6364
3789	0.6377
3780	0.6392
3771	0.6405
3762	0.6418
3753	0.6438
3744	0.6455
3735	0.6467
3726	0.6478
3717	0.6488
3708	0.6498
3699	0.6503
3690	0.6506
3681	0.6497
3672	0.6475
3663	0.6425
3654	0.6324
3645	0.619
3636	0.5959
3627	0.5586
3618	0.5068
3609	0.3706
3600	0.1898
3591	0.1886
3582	0.2616
3573	0.3346
3564	0.383
3555	0.4162
3546	0.4328
3537	0.4134
3528	0.2582
3519	0.2668
3510	0.3677
3501	0.4456
3492	0.4866
3483	0.5114
3474	0.5289
3465	0.5399
3456	0.5491
3447	0.5581
3438	0.5662
3429	0.574
3420	0.5817
3411	0.589
3402	0.5962
3393	0.6029
3384	0.6092
3375	0.6155
3366	0.6219
3357	0.6286
3348	0.635
3339	0.6398
3330	0.6446
3321	0.649
3312	0.6521
3303	0.6554
3294	0.6585
3285	0.6612
3276	0.6642
3267	0.6665
3258	0.6687
3249	0.6708
3240	0.6732
3231	0.6755
3222	0.6781
3213	0.681
3204	0.6839
3195	0.6868
3186	0.6901
3177	0.6932
3168	0.6965
3159	0.6998
3150	0.7022
3141	0.7042
3132	0.7058
3123	0.7074
3114	0.7083
3105	0.7087
3096	0.7075
3087	0.6965
3078	0.6768
3069	0.6595
3060	0.6517
3051	0.6575
3042	0.6734
3033	0.6934
3024	0.6908
3015	0.6985
3006	0.7085
2997	0.7175
2988	0.7233
2979	0.7268
2970	0.7296
2961	0.7318
2952	0.733
2943	0.734
2934	0.7349
2925	0.7355
2916	0.7361
2907	0.7365
2898	0.7369
2889	0.7375
2880	0.7383
2871	0.7392
2862	0.7408
2853	0.7431
2844	0.7455
2835	0.7475
2826	0.7494
2817	0.7492
2808	0.7489
2799	0.7494
2790	0.75
2781	0.7506
2772	0.7514
2763	0.7522
2754	0.7532
2745	0.7541
2736	0.7555
2727	0.7568
2718	0.7582
2709	0.7595
2700	0.7606
2691	0.7615
2682	0.7625
2673	0.7635
2664	0.764
2655	0.7645
2646	0.7651
2637	0.7658
2628	0.7674
2619	0.7687
2610	0.7701
2601	0.7714
2592	0.7728
2583	0.7741
2574	0.7755
2565	0.7765
2556	0.7768
2547	0.7771
2538	0.7772
2529	0.7771
2520	0.7769
2511	0.7768
2502	0.7765
2493	0.7761
2484	0.7757
2475	0.7751
2466	0.7751
2457	0.775
2448	0.7749
2439	0.7748
2430	0.7748
2421	0.7748
2412	0.7756
2403	0.7768
2394	0.7783
2385	0.7799
2376	0.7815
2367	0.783
2358	0.7845
2349	0.7861
2340	0.7875
2331	0.7881
2322	0.7869
2313	0.7825
2304	0.7808
2295	0.7808
2286	0.781
2277	0.7811
2268	0.7811
2259	0.7811
2250	0.7815
2241	0.7825
2232	0.7869
2223	0.7919
2214	0.7946
2205	0.7972
2196	0.8001
2187	0.8042
2178	0.8083
2169	0.8115
2160	0.8145
2151	0.8174
2142	0.82
2133	0.8221
2124	0.8244
2115	0.8265
2106	0.8286
2097	0.8306
2088	0.8325
2079	0.8344
2070	0.8353
2061	0.8354
2052	0.8366
2043	0.839
2034	0.8418
2025	0.8451
2016	0.8491
2007	0.8509
1998	0.8505
1989	0.8346
1980	0.8439
1971	0.844
1962	0.8442
1953	0.8392
1944	0.8416
1935	0.8505
1926	0.8585
1917	0.8588
1908	0.8545
1899	0.8549
1890	0.8554
1881	0.8441
1872	0.8531
1863	0.8625
1854	0.8682
1845	0.8695
1836	0.87
1827	0.8706
1818	0.8728
1809	0.871
1800	0.8673
1791	0.8675
1782	0.871
1773	0.8745
1764	0.8767
1755	0.8775
1746	0.8799
1737	0.8858
1728	0.8897
1719	0.8927
1710	0.8875
1701	0.8789
1692	0.8809
1683	0.8816
1674	0.8798
1665	0.8718
1656	0.8493
1647	0.8
1638	0.6991
1629	0.4908
1620	0.4532
1611	0.6012
1602	0.7686
1593	0.6778
1584	0.7484
1575	0.8249
1566	0.8593
1557	0.8711
1548	0.8796
1539	0.8851
1530	0.8828
1521	0.8863
1512	0.8902
1503	0.8897
1494	0.8881
1485	0.8475
1476	0.8202
1467	0.3939
1458	0.784
1449	0.3232
1440	0.7386
1431	0.8144
1422	0.5208
1413	0.7637
1404	0.834
1395	0.8405
1386	0.8409
1377	0.8415
1368	0.8485
1359	0.8487
1350	0.8448
1341	0.7578
1332	0.7722
1323	0.6795
1314	0.7556
1305	0.7871
1296	0.739
1287	0.7596
1278	0.7304
1269	0.7011
1260	0.7661
1251	0.75
1242	0.5249
1233	0.5319
1224	0.2761
1215	0.0367
1206	0.0146
1197	0.0749
1188	0.0491
1179	0.1196
1170	0.0266
1161	0.1669
1152	0.3166
1143	0.5115
1134	0.5445
1125	0.2492
1116	0.2851
1107	0.5585
1098	0.1305
1089	0.6048
1080	0.6848
1071	0.7114
1062	0.7338
1053	0.7411
1044	0.4801
1035	0.2316
1026	0.5854
1017	0.3649
1008	0.6932
999	0.7569
990	0.8218
981	0.8347
972	0.8371
963	0.8466
954	0.855
945	0.7858
936	0.818
927	0.8749
918	0.8806
909	0.7225
900	0.8623
891	0.8158
882	0.8765
873	0.8184
864	0.7626
855	0.8471
846	0.7045
837	0.7501
828	0.661
819	0.5935
810	0.8728
801	0.9057
792	0.9115
783	0.8909
774	0.7315
765	0.7825
756	0.158
747	0.7041
738	0.8399
729	0.7096
720	0.158
711	0.7219
702	0.8483
693	0.8774
684	0.8723
675	0.8275
666	0.738
657	0.3559
648	0.1079
639	0.5542
630	0.7928
621	0.6352
612	0.3157
603	0.7326
594	0.6671
585	0.292
576	0.6271
567	0.5762
558	0.6524
549	0.6884
540	0.6757
531	0.7178
522	0.7333
513	0.7875
504	0.8134
495	0.8266
486	0.8336
477	0.8345
468	0.8245
459	0.8148
450	0.6851
441	0.7464
432	0.7525
423	0.6954
414	0.6654
405	0.6635
396	0.6621
387	0.6619
