Infrared Spectrum: SODIUM BICARBONATE
Formula: Na H C O3
State: SOLID (NUJOL AND FLUOROLUBE MULLS)
Class: COBLENTZ
Instrument: Not specified, most likely a prism, grating, or hybrid spectrometer.
Sampling: TRANSMISSION
Resolution: 4
Origin: MELLON INSTITUTE
MICROMETERS	TRANSMITTANCE
2.035	0.96
2.07579	0.962
2.11658	0.965
2.15737	0.969
2.19816	0.972
2.23896	0.975
2.27975	0.981
2.32054	0.982
2.36133	0.986
2.40212	0.987
2.44291	0.989
2.4837	0.989
2.52449	0.991
2.56529	0.994
2.60608	0.993
2.64687	0.991
2.68766	0.991
2.72845	0.991
2.76924	0.991
2.81003	0.991
2.85082	0.989
2.89162	0.987
2.93241	0.984
2.9732	0.979
3.01399	0.972
3.05478	0.967
3.09557	0.96
3.13636	0.939
3.17715	0.886
3.21795	0.852
3.25874	0.826
3.29953	0.789
3.34032	0.711
3.38111	0.655
3.4219	0.632
3.46269	0.639
3.50348	0.655
3.54428	0.662
3.58507	0.655
3.62586	0.62
3.66665	0.564
3.70744	0.506
3.74823	0.459
3.78902	0.421
3.82981	0.384
3.87061	0.358
3.9114	0.343
3.95219	0.337
3.99298	0.336
4.03377	0.337
4.07456	0.343
4.11535	0.361
4.15614	0.382
4.19694	0.385
4.23773	0.389
4.27852	0.391
4.31931	0.409
4.3601	0.442
4.40089	0.49
4.44168	0.536
4.48247	0.571
4.52326	0.598
4.56406	0.624
4.60485	0.651
4.64564	0.675
4.68643	0.691
4.72722	0.696
4.76801	0.699
4.8088	0.701
4.84959	0.698
4.89039	0.691
4.93118	0.689
4.97197	0.694
5.01276	0.703
5.05355	0.713
5.09434	0.715
5.13513	0.682
5.17592	0.624
5.21672	0.564
5.25751	0.547
5.2983	0.55
5.33909	0.598
5.37988	0.648
5.42067	0.696
5.46146	0.71
5.50225	0.72
5.54305	0.759
5.58384	0.806
5.62463	0.847
5.66542	0.879
5.70621	0.891
5.747	0.883
5.78779	0.847
5.82858	0.79
5.86938	0.646
5.91017	0.468
5.95096	0.336
5.99175	0.205
6.03254	0.168
6.07333	0.156
6.11412	0.12
6.15491	0.137
6.19571	0.461
6.2365	0.646
6.27729	0.768
6.31808	0.806
6.35887	0.861
6.39966	0.874
6.44045	0.915
6.48124	0.917
6.52204	0.929
6.56283	0.931
6.60362	0.939
6.64441	0.948
6.6852	0.931
6.72599	0.903
6.76678	0.847
6.80757	0.713
6.84836	0.492
6.88916	0.542
6.92995	0.586
6.97074	0.55
7.01153	0.488
7.05232	0.36
7.09311	0.233
7.1339	0.231
7.17469	0.243
7.21549	0.234
7.25628	0.21
7.29707	0.181
7.33786	0.152
7.37865	0.135
7.41944	0.116
7.46023	0.099
7.50102	0.09
7.54182	0.08
7.58261	0.072
7.6234	0.068
7.66419	0.065
7.70498	0.063
7.74577	0.065
7.78656	0.072
7.82735	0.085
7.86815	0.113
7.90894	0.168
7.94973	0.214
7.99052	0.267
8.03131	0.312
8.0721	0.372
8.11289	0.416
8.15368	0.451
8.19448	0.478
8.23527	0.512
8.27606	0.536
8.31685	0.557
8.35764	0.579
8.39843	0.598
8.43922	0.619
8.48001	0.638
8.52081	0.651
8.5616	0.668
8.60239	0.682
8.64318	0.692
8.68397	0.701
8.72476	0.711
8.76555	0.716
8.80634	0.722
8.84714	0.725
8.88793	0.73
8.92872	0.734
8.96951	0.739
9.0103	0.746
9.05109	0.749
9.09188	0.753
9.13267	0.758
9.17346	0.759
9.21426	0.763
9.25505	0.766
9.29584	0.77
9.33663	0.775
9.37742	0.782
9.41821	0.782
9.459	0.77
9.49979	0.696
9.54059	0.622
9.58138	0.638
9.62217	0.644
9.66296	0.627
9.70375	0.648
9.74454	0.648
9.78533	0.627
9.82612	0.579
9.86692	0.545
9.90771	0.509
9.9485	0.466
9.98929	0.456
10.0301	0.457
10.0709	0.473
10.1117	0.514
10.1525	0.557
10.1932	0.598
10.234	0.631
10.2748	0.658
10.3156	0.698
10.3564	0.723
10.3972	0.744
10.438	0.753
10.4788	0.765
10.5196	0.773
10.5604	0.778
10.6012	0.787
10.6419	0.794
10.6827	0.801
10.7235	0.807
10.7643	0.816
10.8051	0.825
10.8459	0.833
10.8867	0.84
10.9275	0.85
10.9683	0.857
11.0091	0.866
11.0499	0.873
11.0907	0.881
11.1314	0.886
11.1722	0.893
11.213	0.898
11.2538	0.9
11.2946	0.903
11.3354	0.909
11.3762	0.91
11.417	0.915
11.4578	0.919
11.4986	0.922
11.5394	0.922
11.5801	0.922
11.6209	0.924
11.6617	0.922
11.7025	0.914
11.7433	0.893
11.7841	0.861
11.8249	0.711
11.8657	0.538
11.9065	0.397
11.9473	0.372
11.9881	0.433
12.0289	0.638
12.0696	0.758
12.1104	0.819
12.1512	0.859
12.192	0.878
12.2328	0.893
12.2736	0.903
12.3144	0.914
12.3552	0.924
12.396	0.933
12.4368	0.939
12.4776	0.946
12.5183	0.953
12.5591	0.955
12.5999	0.96
12.6407	0.96
12.6815	0.962
12.7223	0.962
12.7631	0.962
12.8039	0.96
12.8447	0.962
12.8855	0.962
12.9263	0.96
12.967	0.96
13.0078	0.96
13.0486	0.957
13.0894	0.955
13.1302	0.953
13.171	0.953
13.2118	0.951
13.2526	0.948
13.2934	0.945
13.3342	0.939
13.375	0.938
13.4158	0.933
13.4565	0.924
13.4973	0.919
13.5381	0.91
13.5789	0.9
13.6197	0.891
13.6605	0.876
13.7013	0.855
13.7421	0.828
13.7829	0.795
13.8237	0.751
13.8645	0.708
13.9052	0.665
13.946	0.598
13.9868	0.524
14.0276	0.445
14.0684	0.387
14.1092	0.334
14.15	0.3
14.1908	0.269
14.2316	0.25
14.2724	0.24
14.3132	0.238
14.354	0.238
14.3947	0.25
14.4355	0.295
14.4763	0.353
14.5171	0.42
14.5579	0.471
14.5987	0.502
14.6395	0.533
14.6803	0.559
14.7211	0.576
14.7619	0.581
14.8027	0.588
14.8434	0.602
14.8842	0.626
14.925	0.619
14.9658	0.593
15.0066	0.567
15.0474	0.552
15.0882	0.557
15.129	0.571
15.1698	0.584
15.2106	0.591
15.2514	0.598
15.2921	0.6
15.3329	0.602
15.3737	0.607
15.4145	0.61
15.4553	0.614
15.4961	0.614
15.5369	0.615
15.5777	0.617
15.6185	0.619
15.6593	0.62
15.7001	0.624
15.7409	0.626
15.7816	0.629
15.8224	0.631
15.8632	0.632
15.904	0.632
15.9448	0.636
15.9856	0.638
