Infrared Spectrum: DITHIOLOXALIC ACID, DIPOTASSIUM SALT
Formula: C2 O2 S2 K2
State: SOLID (MINERAL OIL MULL)
Class: COBLENTZ
Instrument: Not specified, most likely a prism, grating, or hybrid spectrometer.
Sampling: TRANSMISSION
Resolution: 4
Origin: WYANDOTTE CHEMICALS CORP., WYANDOTTE, MICHIGAN, USA
MICROMETERS	TRANSMITTANCE
2.013	0.704
2.05281	0.709
2.09262	0.716
2.13243	0.723
2.17225	0.726
2.21206	0.721
2.25187	0.713
2.29168	0.709
2.33149	0.711
2.3713	0.716
2.41111	0.724
2.45092	0.734
2.49074	0.739
2.53055	0.749
2.57036	0.756
2.61017	0.769
2.64998	0.769
2.68979	0.789
2.7296	0.794
2.76941	0.797
2.80923	0.787
2.84904	0.762
2.88885	0.741
2.92866	0.719
2.96847	0.701
3.00828	0.688
3.04809	0.674
3.08791	0.671
3.12772	0.674
3.16753	0.681
3.20734	0.693
3.24715	0.708
3.28696	0.708
3.32677	0.65
3.36658	0.48
3.4064	0.021
3.44621	0.036
3.48602	0.053
3.52583	0.079
3.56564	0.223
3.60545	0.553
3.64526	0.6
3.68508	0.6
3.72489	0.59
3.7647	0.598
3.80451	0.603
3.84432	0.608
3.88413	0.621
3.92394	0.631
3.96375	0.641
4.00357	0.651
4.04338	0.656
4.08319	0.661
4.123	0.666
4.16281	0.669
4.20262	0.673
4.24243	0.676
4.28224	0.676
4.32206	0.668
4.36187	0.671
4.40168	0.689
4.44149	0.713
4.4813	0.714
4.52111	0.718
4.56092	0.729
4.60074	0.734
4.64055	0.728
4.68036	0.741
4.72017	0.751
4.75998	0.761
4.79979	0.769
4.8396	0.779
4.87941	0.784
4.91923	0.796
4.95904	0.799
4.99885	0.804
5.03866	0.809
5.07847	0.825
5.11828	0.817
5.15809	0.794
5.1979	0.83
5.23772	0.844
5.27753	0.852
5.31734	0.867
5.35715	0.87
5.39696	0.878
5.43677	0.887
5.47658	0.893
5.5164	0.9
5.55621	0.912
5.59602	0.915
5.63583	0.913
5.67564	0.907
5.71545	0.928
5.75526	0.907
5.79507	0.885
5.83489	0.9
5.8747	0.903
5.91451	0.877
5.95432	0.849
5.99413	0.815
6.03394	0.772
6.07375	0.704
6.11357	0.625
6.15338	0.542
6.19319	0.485
6.233	0.419
6.27281	0.389
6.31262	0.391
6.35243	0.354
6.39224	0.326
6.43206	0.281
6.47187	0.27
6.51168	0.225
6.55149	0.187
6.5913	0.175
6.63111	0.162
6.67092	0.155
6.71073	0.164
6.75055	0.167
6.79036	0.139
6.83017	0.091
6.86998	0.102
6.90979	0.149
6.9496	0.23
6.98941	0.33
7.02923	0.404
7.06904	0.439
7.10885	0.454
7.14866	0.462
7.18847	0.461
7.22828	0.383
7.26809	0.275
7.3079	0.32
7.34772	0.417
7.38753	0.507
7.42734	0.517
7.46715	0.543
7.50696	0.562
7.54677	0.562
7.58658	0.512
7.62639	0.477
7.66621	0.457
7.70602	0.499
7.74583	0.565
7.78564	0.608
7.82545	0.643
7.86526	0.666
7.90507	0.688
7.94489	0.694
7.9847	0.696
8.02451	0.709
8.06432	0.728
8.10413	0.737
8.14394	0.749
8.18375	0.762
8.22356	0.769
8.26338	0.781
8.30319	0.796
8.343	0.807
8.38281	0.81
8.42262	0.807
8.46243	0.827
8.50224	0.837
8.54206	0.842
8.58187	0.832
8.62168	0.814
8.66149	0.797
8.7013	0.802
8.74111	0.819
8.78092	0.82
8.82073	0.832
8.86055	0.817
8.90036	0.706
8.94017	0.524
8.97998	0.271
9.01979	0.321
9.0596	0.439
9.09941	0.517
9.13922	0.557
9.17904	0.611
9.21885	0.668
9.25866	0.701
9.29847	0.723
9.33828	0.739
9.37809	0.746
9.4179	0.757
9.45772	0.762
9.49753	0.741
9.53734	0.734
9.57715	0.771
9.61696	0.796
9.65677	0.817
9.69658	0.812
9.73639	0.8
9.77621	0.832
9.81602	0.85
9.85583	0.854
9.89564	0.847
9.93545	0.844
9.97526	0.839
10.0151	0.825
10.0549	0.819
10.0947	0.829
10.1345	0.849
10.1743	0.87
10.2141	0.88
10.2539	0.883
10.2938	0.887
10.3336	0.892
10.3734	0.898
10.4132	0.903
10.453	0.905
10.4928	0.907
10.5326	0.908
10.5724	0.907
10.6122	0.902
10.6521	0.895
10.6919	0.88
10.7317	0.873
10.7715	0.873
10.8113	0.875
10.8511	0.868
10.8909	0.859
10.9307	0.837
10.9705	0.817
11.0104	0.797
11.0502	0.764
11.09	0.734
11.1298	0.694
11.1696	0.665
11.2094	0.615
11.2492	0.553
11.289	0.492
11.3288	0.442
11.3687	0.386
11.4085	0.316
11.4483	0.245
11.4881	0.212
11.5279	0.208
11.5677	0.233
11.6075	0.268
11.6473	0.301
11.6871	0.351
11.727	0.368
11.7668	0.404
11.8066	0.446
11.8464	0.475
11.8862	0.51
11.926	0.537
11.9658	0.562
12.0056	0.59
12.0455	0.608
12.0853	0.628
12.1251	0.646
12.1649	0.661
12.2047	0.671
12.2445	0.689
12.2843	0.704
12.3241	0.711
12.3639	0.723
12.4038	0.736
12.4436	0.742
12.4834	0.754
12.5232	0.759
12.563	0.769
12.6028	0.774
12.6426	0.781
12.6824	0.786
12.7222	0.787
12.7621	0.776
12.8019	0.749
12.8417	0.734
12.8815	0.721
12.9213	0.714
12.9611	0.714
13.0009	0.734
13.0407	0.747
13.0805	0.776
13.1204	0.791
13.1602	0.802
13.2	0.809
13.2398	0.812
13.2796	0.812
13.3194	0.824
13.3592	0.825
13.399	0.829
13.4388	0.825
13.4787	0.82
13.5185	0.82
13.5583	0.82
13.5981	0.819
13.6379	0.819
13.6777	0.817
13.7175	0.815
13.7573	0.81
13.7971	0.812
13.837	0.815
13.8768	0.817
13.9166	0.815
13.9564	0.834
13.9962	0.849
14.036	0.862
14.0758	0.868
14.1156	0.882
14.1555	0.888
14.1953	0.893
14.2351	0.895
14.2749	0.892
14.3147	0.87
14.3545	0.824
14.3943	0.756
14.4341	0.736
14.4739	0.767
14.5138	0.807
14.5536	0.824
14.5934	0.827
14.6332	0.805
14.673	0.766
14.7128	0.708
14.7526	0.643
14.7924	0.555
14.8322	0.456
14.8721	0.394
14.9119	0.364
14.9517	0.376
14.9915	0.401
15.0313	0.419
15.0711	0.464
15.1109	0.532
15.1507	0.552
15.1905	0.56
15.2304	0.57
15.2702	0.582
15.31	0.59
15.3498	0.598
15.3896	0.601
15.4294	0.603
15.4692	0.606
15.509	0.608
15.5488	0.611
15.5887	0.615
15.6285	0.61
15.6683	0.605
15.7081	0.603
15.7479	0.6
15.7877	0.593
15.8275	0.59
15.8673	0.587
15.9071	0.58
15.947	0.568
