Infrared Spectrum: ANISONITRILE
Formula: C8 H7 N O
State: SOLID (OIL MULL)
Melting point: 58.5-60.5 C
Class: COBLENTZ
Instrument: Not specified, most likely a prism, grating, or hybrid spectrometer.
Sampling: TRANSMISSION
Resolution: 4
Origin: WYANDOTTE CHEMICALS CORP., WYANDOTTE, MICHIGAN, USA
MICROMETERS	TRANSMITTANCE
2.032	0.408
2.07179	0.406
2.11158	0.408
2.15137	0.398
2.19117	0.388
2.23096	0.38
2.27075	0.383
2.31054	0.388
2.35033	0.39
2.39012	0.395
2.42991	0.395
2.46971	0.393
2.5095	0.398
2.54929	0.405
2.58908	0.408
2.62887	0.416
2.66866	0.418
2.70845	0.421
2.74825	0.42
2.78804	0.418
2.82783	0.413
2.86762	0.41
2.90741	0.411
2.9472	0.4
2.987	0.401
3.02679	0.401
3.06658	0.395
3.10637	0.38
3.14616	0.368
3.18595	0.335
3.22574	0.311
3.26554	0.263
3.30533	0.103
3.34512	0.03
3.38491	0.03
3.4247	0.031
3.46449	0.033
3.50428	0.1
3.54408	0.285
3.58387	0.381
3.62366	0.405
3.66345	0.4
3.70324	0.411
3.74303	0.418
3.78282	0.426
3.82262	0.416
3.86241	0.436
3.9022	0.421
3.94199	0.458
3.98178	0.463
4.02157	0.483
4.06136	0.5
4.10116	0.508
4.14095	0.498
4.18074	0.495
4.22053	0.495
4.26032	0.503
4.30011	0.511
4.3399	0.538
4.3797	0.57
4.41949	0.576
4.45928	0.618
4.49907	0.715
4.53886	0.66
4.57865	0.27
4.61845	0.398
4.65824	0.438
4.69803	0.485
4.73782	0.516
4.77761	0.53
4.8174	0.531
4.85719	0.535
4.89699	0.548
4.93678	0.521
4.97657	0.536
5.01636	0.558
5.05615	0.558
5.09594	0.571
5.13573	0.583
5.17553	0.581
5.21532	0.578
5.25511	0.523
5.2949	0.563
5.33469	0.576
5.37448	0.608
5.41427	0.621
5.45407	0.641
5.49386	0.66
5.53365	0.658
5.57344	0.665
5.61323	0.663
5.65302	0.645
5.69281	0.675
5.73261	0.728
5.7724	0.741
5.81219	0.748
5.85198	0.76
5.89177	0.778
5.93156	0.815
5.97136	0.855
6.01115	0.905
6.05094	0.895
6.09073	0.763
6.13052	0.218
6.17031	0.14
6.2101	0.29
6.2499	0.331
6.28969	0.281
6.32948	0.373
6.36927	0.565
6.40906	0.618
6.44885	0.871
6.48864	0.763
6.52844	0.28
6.56823	0.131
6.60802	0.156
6.64781	0.206
6.6876	0.195
6.72739	0.101
6.76718	0.035
6.80698	0.043
6.84677	0.043
6.88656	0.086
6.92635	0.295
6.96614	0.311
7.00593	0.323
7.04572	0.436
7.08552	0.473
7.12531	0.476
7.1651	0.301
7.20489	0.156
7.24468	0.243
7.28447	0.318
7.32426	0.528
7.36406	0.62
7.40385	0.693
7.44364	0.771
7.48343	0.798
7.52322	0.676
7.56301	0.323
7.60281	0.173
7.6426	0.205
7.68239	0.295
7.72218	0.381
7.76197	0.6
7.80176	0.415
7.84155	0.166
7.88135	0.098
7.92114	0.061
7.96093	0.123
8.00072	0.165
8.04051	0.205
8.0803	0.236
8.12009	0.271
8.15989	0.3
8.19968	0.333
8.23947	0.368
8.27926	0.421
8.31905	0.48
8.35884	0.6
8.39863	0.46
8.43843	0.135
8.47822	0.106
8.51801	0.165
8.5578	0.213
8.59759	0.248
8.63738	0.266
8.67717	0.305
8.71697	0.341
8.75676	0.355
8.79655	0.336
8.83634	0.341
8.87613	0.338
8.91592	0.29
8.95571	0.37
8.99551	0.411
9.0353	0.428
9.07509	0.445
9.11488	0.451
9.15467	0.458
9.19446	0.466
9.23426	0.485
9.27405	0.5
9.31384	0.513
9.35363	0.528
9.39342	0.553
9.43321	0.57
9.473	0.601
9.5128	0.628
9.55259	0.636
9.59238	0.52
9.63217	0.245
9.67196	0.113
9.71175	0.071
9.75154	0.061
9.79134	0.095
9.83113	0.121
9.87092	0.185
9.91071	0.23
9.9505	0.276
9.99029	0.305
10.0301	0.323
10.0699	0.34
10.1097	0.345
10.1495	0.353
10.1893	0.355
10.229	0.361
10.2688	0.366
10.3086	0.375
10.3484	0.365
10.3882	0.335
10.428	0.33
10.4678	0.366
10.5076	0.38
10.5474	0.38
10.5872	0.388
10.627	0.401
10.6667	0.405
10.7065	0.416
10.7463	0.426
10.7861	0.433
10.8259	0.44
10.8657	0.445
10.9055	0.441
10.9453	0.448
10.9851	0.455
11.0249	0.46
11.0647	0.463
11.1045	0.46
11.1442	0.453
11.184	0.455
11.2238	0.456
11.2636	0.445
11.3034	0.445
11.3432	0.441
11.383	0.431
11.4228	0.43
11.4626	0.415
11.5024	0.401
11.5422	0.391
11.582	0.378
11.6217	0.368
11.6615	0.343
11.7013	0.325
11.7411	0.303
11.7809	0.271
11.8207	0.236
11.8605	0.196
11.9003	0.145
11.9401	0.12
11.9799	0.071
12.0197	0.053
12.0594	0.053
12.0992	0.063
12.139	0.105
12.1788	0.195
12.2186	0.276
12.2584	0.33
12.2982	0.336
12.338	0.273
12.3778	0.26
12.4176	0.375
12.4574	0.471
12.4972	0.546
12.5369	0.578
12.5767	0.605
12.6165	0.625
12.6563	0.648
12.6961	0.665
12.7359	0.681
12.7757	0.686
12.8155	0.691
12.8553	0.698
12.8951	0.7
12.9349	0.703
12.9747	0.703
13.0144	0.716
13.0542	0.723
13.094	0.73
13.1338	0.733
13.1736	0.736
13.2134	0.731
13.2532	0.738
13.293	0.738
13.3328	0.741
13.3726	0.745
13.4124	0.736
13.4522	0.74
13.4919	0.726
13.5317	0.723
13.5715	0.723
13.6113	0.726
13.6511	0.726
13.6909	0.736
13.7307	0.74
13.7705	0.733
13.8103	0.74
13.8501	0.743
13.8899	0.753
13.9296	0.761
13.9694	0.755
14.0092	0.773
14.049	0.81
14.0888	0.848
14.1286	0.87
14.1684	0.891
14.2082	0.905
14.248	0.918
14.2878	0.933
14.3276	0.94
14.3674	0.951
14.4071	0.96
14.4469	0.948
14.4867	0.923
14.5265	0.835
14.5663	0.661
14.6061	0.49
14.6459	0.333
14.6857	0.25
14.7255	0.236
14.7653	0.283
14.8051	0.333
14.8449	0.395
14.8846	0.44
14.9244	0.478
14.9642	0.498
15.004	0.5
15.0438	0.5
15.0836	0.508
15.1234	0.538
15.1632	0.561
15.203	0.575
15.2428	0.588
15.2826	0.591
15.3223	0.59
15.3621	0.586
15.4019	0.586
15.4417	0.593
15.4815	0.581
15.5213	0.565
15.5611	0.556
15.6009	0.558
15.6407	0.568
15.6805	0.566
15.7203	0.571
15.7601	0.563
15.7998	0.566
15.8396	0.561
15.8794	0.556
15.9192	0.546
15.959	0.526
15.9988	0.515
