Infrared Spectrum: STRONTIUM CHROMATE
Formula: Sr Cr O4
State: SOLID (0.4 mg / 300 mg CsI DISC)
Class: COBLENTZ III
Instrument: BECKMAN IR-12 (GRATING)
Instrument parameters: GRATING BLAZED AT 3330, 1330. 445, 220 CM^-^1
Sampling: TRANSMISSION
Resolution: 4
Origin: DESOTO CHEMICAL COATINGS, INC.
1/CM	TRANSMITTANCE
201.33	0.741
211.973	0.741
222.616	0.756
233.259	0.787
243.902	0.836
254.545	0.854
265.188	0.868
275.831	0.882
286.474	0.887
297.117	0.894
307.76	0.892
318.403	0.887
329.046	0.886
339.689	0.88
350.333	0.874
360.976	0.872
371.619	0.876
382.262	0.87
392.905	0.866
403.548	0.866
414.191	0.847
424.834	0.884
435.477	0.875
446.12	0.907
456.763	0.919
467.406	0.926
478.049	0.933
488.692	0.937
499.335	0.938
509.978	0.938
520.621	0.939
531.264	0.943
541.907	0.942
552.55	0.946
563.193	0.946
573.836	0.945
584.479	0.947
595.122	0.951
605.765	0.951
616.408	0.953
627.051	0.955
637.695	0.958
648.338	0.959
658.981	0.951
669.624	0.953
680.267	0.953
690.91	0.958
701.553	0.961
712.196	0.963
722.839	0.963
733.482	0.966
744.125	0.967
754.768	0.965
765.411	0.965
776.054	0.962
786.697	0.961
797.34	0.957
807.983	0.953
818.626	0.946
829.269	0.921
839.912	0.734
850.555	0.5018
861.198	0.7008
871.841	0.6621
882.484	0.3971
893.127	0.453
903.77	0.2391
914.413	0.202
925.057	0.266
935.7	0.376
946.343	0.651
956.986	0.8599
967.629	0.918
978.272	0.941
988.915	0.951
999.558	0.953
1010.2	0.957
1020.84	0.957
1031.49	0.951
1042.13	0.953
1052.77	0.954
1063.42	0.953
1074.06	0.953
1084.7	0.95
1095.35	0.934
1105.99	0.941
1116.63	0.949
1127.27	0.935
1137.92	0.947
1148.56	0.941
1159.2	0.951
1169.85	0.958
1180.49	0.963
1191.13	0.962
1201.78	0.963
1212.42	0.963
1223.06	0.965
1233.7	0.965
1244.35	0.963
1254.99	0.962
1265.63	0.959
1276.28	0.962
1286.92	0.962
1297.56	0.963
1308.21	0.961
1318.85	0.961
1329.49	0.961
1340.13	0.957
1350.78	0.949
1361.42	0.935
1372.06	0.927
1382.71	0.93
1393.35	0.938
1403.99	0.939
1414.64	0.935
1425.28	0.941
1435.92	0.941
1446.57	0.942
1457.21	0.945
1467.85	0.938
1478.49	0.939
1489.14	0.945
1499.78	0.949
1510.42	0.953
1521.07	0.955
1531.71	0.955
1542.35	0.951
1553	0.951
1563.64	0.949
1574.28	0.945
1584.92	0.939
1595.57	0.93
1606.21	0.915
1616.85	0.907
1627.5	0.91
1638.14	0.918
1648.78	0.929
1659.43	0.933
1670.07	0.939
1680.71	0.941
1691.36	0.943
1702	0.945
1712.64	0.946
1723.28	0.95
1733.93	0.95
1744.57	0.951
1755.21	0.947
1765.86	0.949
1776.5	0.947
1787.14	0.95
1797.79	0.95
1808.43	0.949
1819.07	0.949
1829.71	0.951
1840.36	0.951
1851	0.95
1861.64	0.953
1872.29	0.95
1882.93	0.954
1893.57	0.951
1904.22	0.951
1914.86	0.95
1925.5	0.95
1936.15	0.95
1946.79	0.95
1957.43	0.95
1968.07	0.95
1978.72	0.95
1989.36	0.95
2000	0.946
2010.65	0.945
2021.29	0.946
2031.93	0.945
2042.58	0.945
2053.22	0.945
2063.86	0.946
2074.5	0.946
2085.15	0.943
2095.79	0.945
2106.43	0.942
2117.08	0.945
2127.72	0.945
2138.36	0.943
2149.01	0.942
2159.65	0.9431
2170.29	0.945
2180.93	0.945
2191.58	0.943
2202.22	0.943
2212.86	0.942
2223.51	0.9431
2234.15	0.943
2244.79	0.942
2255.44	0.942
2266.08	0.942
2276.72	0.942
2287.37	0.9409
2298.01	0.9391
2308.65	0.9409
2319.29	0.939
2329.94	0.942
2340.58	0.938
2351.22	0.935
2361.87	0.933
2372.51	0.9299
2383.15	0.9291
2393.8	0.9341
2404.44	0.937
2415.08	0.934
2425.72	0.9349
2436.37	0.931
2447.01	0.933
2457.65	0.933
2468.3	0.9329
2478.94	0.9312
2489.58	0.933
2500.23	0.933
2510.87	0.9309
2521.51	0.9291
2532.16	0.9312
2542.8	0.933
2553.44	0.9309
2564.08	0.9291
2574.73	0.93
2585.37	0.93
2596.01	0.927
2606.66	0.926
2617.3	0.927
2627.94	0.9259
2638.59	0.9248
2649.23	0.923
2659.87	0.925
2670.51	0.923
2681.16	0.922
2691.8	0.922
2702.44	0.922
2713.09	0.921
2723.73	0.921
2734.37	0.921
2745.02	0.921
2755.66	0.9189
2766.3	0.918
2776.94	0.918
2787.59	0.917
2798.23	0.915
2808.87	0.915
2819.52	0.9153
2830.16	0.9167
2840.8	0.9117
2851.45	0.9057
2862.09	0.902
2872.73	0.9031
2883.38	0.906
2894.02	0.9057
2904.66	0.9017
2915.3	0.8957
2925.95	0.8799
2936.59	0.8803
2947.23	0.891
2957.88	0.892
2968.52	0.895
2979.16	0.8982
2989.81	0.902
3000.45	0.902
3011.09	0.903
3021.73	0.903
3032.38	0.903
3043.02	0.903
3053.66	0.903
3064.31	0.903
3074.95	0.902
3085.59	0.9
3096.24	0.899
3106.88	0.898
3117.52	0.896
3128.17	0.895
3138.81	0.895
3149.45	0.894
3160.09	0.8918
3170.74	0.8908
3181.38	0.887
3192.02	0.884
3202.67	0.8828
3213.31	0.882
3223.95	0.88
3234.6	0.878
3245.24	0.876
3255.88	0.875
3266.52	0.871
3277.17	0.868
3287.81	0.866
3298.45	0.8628
3309.1	0.858
3319.74	0.8536
3330.38	0.844
3341.03	0.8416
3351.67	0.8344
3362.31	0.8238
3372.95	0.8118
3383.6	0.8038
3394.24	0.7985
3404.88	0.7846
3415.53	0.7768
3426.17	0.772
3436.81	0.7688
3447.46	0.7665
3458.1	0.765
3468.74	0.767
3479.39	0.7682
3490.03	0.772
3500.67	0.775
3511.31	0.78
3521.96	0.7843
3532.6	0.7882
3543.24	0.7938
3553.89	0.8033
3564.53	0.814
3575.17	0.8215
3585.82	0.831
3596.46	0.8371
3607.1	0.8488
3617.74	0.8553
3628.39	0.8623
3639.03	0.8713
3649.67	0.875
3660.32	0.876
3670.96	0.876
3681.6	0.876
3692.25	0.876
3702.89	0.876
3713.53	0.875
3724.18	0.876
3734.82	0.876
3745.46	0.876
3756.1	0.876
3766.75	0.875
3777.39	0.874
3788.03	0.875
3798.68	0.876
3809.32	0.874
3819.96	0.874
3830.61	0.874
3841.25	0.872
3851.89	0.874
3862.53	0.8757
3873.18	0.872
3883.82	0.868
3894.46	0.87
3905.11	0.87
3915.75	0.868
3926.39	0.866
3937.04	0.8674
3947.68	0.8663
3958.32	0.867
3968.97	0.8653
3979.61	0.8637
