Infrared Spectrum: 2,2-DIMETHYL-1-(2'-METHYL-Delta^2-PENTENYL)-3-PIPERAZINONE
Formula: C12 H22 N2 O
State: SOLUTION (7% IN CHCl3)
Class: COBLENTZ
Instrument: PERKIN-ELMER
Sampling: TRANSMISSION
Path length: 0.010 CM
Resolution: 4
Origin: ABBOTT LABORATORIES - WASHBURN
MICROMETERS	TRANSMITTANCE
2.022	0.892
2.05616	0.892
2.09031	0.896
2.12447	0.896
2.15862	0.8992
2.19278	0.9082
2.22693	0.916
2.26109	0.919
2.29524	0.9211
2.3294	0.921
2.36355	0.916
2.39771	0.9193
2.43186	0.933
2.46602	0.928
2.50017	0.926
2.53433	0.928
2.56848	0.931
2.60264	0.9362
2.63679	0.9449
2.67095	0.9401
2.7051	0.94
2.73926	0.938
2.77341	0.9349
2.80757	0.9451
2.84172	0.9403
2.87588	0.9113
2.91003	0.86
2.94419	0.8041
2.97834	0.641
3.0125	0.7714
3.04665	0.7751
3.08081	0.747
3.11496	0.739
3.14912	0.6981
3.18327	0.7492
3.21743	0.792
3.25158	0.8022
3.28574	0.8
3.31989	0.792
3.35405	0.56
3.3882	0.3127
3.42236	0.2813
3.45651	0.3389
3.49067	0.4686
3.52482	0.5107
3.55898	0.5751
3.59313	0.5807
3.62729	0.7972
3.66144	0.8672
3.6956	0.8822
3.72976	0.887
3.76391	0.9037
3.79807	0.935
3.83222	0.957
3.86638	0.957
3.90053	0.9481
3.93469	0.955
3.96884	0.9518
4.003	0.95
4.03715	0.94
4.07131	0.9249
4.10546	0.9179
4.13962	0.914
4.17377	0.9312
4.20793	0.945
4.24208	0.954
4.27624	0.947
4.31039	0.9479
4.34455	0.9348
4.3787	0.9208
4.41286	0.9111
4.44701	0.908
4.48117	0.908
4.51532	0.901
4.54948	0.899
4.58363	0.8969
4.61779	0.894
4.65194	0.894
4.6861	0.89
4.72025	0.88
4.75441	0.877
4.78856	0.879
4.82272	0.873
4.85687	0.8718
4.89103	0.87
4.92518	0.87
4.95934	0.865
4.99349	0.8649
5.02765	0.865
5.0618	0.865
5.09596	0.865
5.13011	0.862
5.16427	0.8619
5.19842	0.86
5.23258	0.86
5.26673	0.86
5.30089	0.86
5.33504	0.86
5.3692	0.86
5.40336	0.853
5.43751	0.856
5.47167	0.853
5.50582	0.85
5.53998	0.851
5.57413	0.85
5.60829	0.851
5.64244	0.839
5.6766	0.834
5.71075	0.8291
5.74491	0.834
5.77906	0.821
5.81322	0.8041
5.84737	0.788
5.88153	0.766
5.91568	0.67
5.94984	0.4719
5.98399	0.1803
6.01815	0.0346
6.0523	0.0299
6.08646	0.1135
6.12061	0.3809
6.15477	0.5387
6.18892	0.6394
6.22308	0.7047
6.25723	0.7419
6.29139	0.761
6.32554	0.78
6.3597	0.788
6.39385	0.793
6.42801	0.795
6.46216	0.8039
6.49632	0.8089
6.53047	0.812
6.56463	0.807
6.59878	0.7971
6.63294	0.7531
6.66709	0.6874
6.70125	0.5494
6.7354	0.3489
6.76956	0.429
6.80371	0.5405
6.83787	0.46
6.87202	0.4119
6.90618	0.4764
6.94033	0.5459
6.97449	0.6029
7.00864	0.646
7.0428	0.66
7.07696	0.6543
7.11111	0.6301
7.14527	0.6041
7.17942	0.5412
7.21358	0.5122
7.24773	0.4935
7.28189	0.4491
7.31604	0.477
7.3502	0.4531
7.38435	0.3252
7.41851	0.4205
7.45266	0.4345
7.48682	0.35
7.52097	0.342
7.55513	0.4836
7.58928	0.6196
7.62344	0.6882
7.65759	0.6951
7.69175	0.664
7.7259	0.7052
7.76006	0.7052
7.79421	0.6845
7.82837	0.6626
7.86252	0.664
7.89668	0.6118
7.93083	0.4396
7.96499	0.4611
7.99914	0.5796
8.0333	0.6194
8.06745	0.623
8.10161	0.6092
8.13576	0.6178
8.16992	0.6316
8.20407	0.6378
8.23823	0.645
8.27238	0.654
8.30654	0.662
8.34069	0.662
8.37485	0.5723
8.409	0.4332
8.44316	0.3971
8.47731	0.4612
8.51147	0.5376
8.54562	0.6125
8.57978	0.6458
8.61393	0.657
8.64809	0.6479
8.68224	0.6066
8.7164	0.5957
8.75056	0.615
8.78471	0.628
8.81887	0.6057
8.85302	0.614
8.88718	0.653
8.92133	0.6757
8.95549	0.6788
8.98964	0.676
9.0238	0.6428
9.05795	0.5705
9.09211	0.5332
9.12626	0.5602
9.16042	0.5717
9.19457	0.507
9.22873	0.4246
9.26288	0.3316
9.29704	0.4523
9.33119	0.5599
9.36535	0.595
9.3995	0.6479
9.43366	0.7102
9.46781	0.7429
9.50197	0.751
9.53612	0.7374
9.57028	0.6913
9.60443	0.6476
9.63859	0.6775
9.67274	0.7416
9.7069	0.7926
9.74105	0.8156
9.77521	0.8224
9.80936	0.8176
9.84352	0.814
9.87767	0.8105
9.91183	0.7973
9.94598	0.7778
9.98014	0.7636
10.0143	0.7432
10.0484	0.7454
10.0826	0.7582
10.1168	0.7725
10.1509	0.776
10.1851	0.7621
10.2192	0.7138
10.2534	0.6298
10.2875	0.5811
10.3217	0.6197
10.3558	0.6783
10.39	0.6995
10.4242	0.6843
10.4583	0.658
10.4925	0.6735
10.5266	0.7121
10.5608	0.7433
10.5949	0.7447
10.6291	0.7263
10.6632	0.7226
10.6974	0.7445
10.7316	0.7815
10.7657	0.805
10.7999	0.8077
10.834	0.797
10.8682	0.795
10.9023	0.7964
10.9365	0.807
10.9706	0.809
11.0048	0.807
11.0389	0.804
11.0731	0.804
11.1073	0.8078
11.1414	0.8134
11.1756	0.812
11.2097	0.816
11.2439	0.816
11.278	0.814
11.3122	0.8043
11.3463	0.802
11.3805	0.8047
11.4147	0.805
11.4488	0.7889
11.483	0.7524
11.5171	0.7026
11.5513	0.6677
11.5854	0.6731
11.6196	0.6837
11.6537	0.686
11.6879	0.679
11.722	0.6916
11.7562	0.7086
11.7904	0.7325
11.8245	0.7454
11.8587	0.749
11.8928	0.751
11.927	0.754
11.9611	0.759
11.9953	0.761
12.0294	0.763
12.0636	0.763
12.0978	0.7652
12.1319	0.771
12.1661	0.7806
12.2002	0.7894
12.2344	0.7994
12.2685	0.805
12.3027	0.807
12.3368	0.809
12.371	0.81
12.4052	0.805
12.4393	0.8057
12.4735	0.8131
12.5076	0.816
12.5418	0.819
12.5759	0.827
12.6101	0.829
12.6442	0.827
12.6784	0.827
12.7125	0.8281
12.7467	0.831
12.7809	0.831
12.815	0.831
12.8492	0.831
12.8833	0.831
12.9175	0.831
12.9516	0.831
12.9858	0.831
13.0199	0.831
13.0541	0.831
13.0883	0.831
13.1224	0.831
13.1566	0.831
13.1907	0.831
13.2249	0.831
13.259	0.831
13.2932	0.831
13.3273	0.831
13.3615	0.831
13.3956	0.831
13.4298	0.831
13.464	0.831
13.4981	0.831
13.5323	0.831
13.5664	0.831
13.6006	0.833
13.6347	0.833
13.6689	0.833
13.703	0.832
13.7372	0.831
13.7714	0.831
13.8055	0.8321
13.8397	0.833
13.8738	0.833
13.908	0.8335
13.9421	0.833
13.9763	0.834
14.0104	0.833
14.0446	0.833
14.0788	0.833
14.1129	0.833
14.1471	0.831
14.1812	0.831
14.2154	0.8319
14.2495	0.831
14.2837	0.831
14.3178	0.831
14.352	0.83
14.3861	0.826
14.4203	0.822
14.4545	0.8143
14.4886	0.8046
14.5228	0.7961
14.5569	0.792
14.5911	0.793
14.6252	0.794
14.6594	0.797
14.6935	0.798
14.7277	0.798
14.7619	0.798
14.796	0.797
14.8302	0.795
14.8643	0.797
14.8985	0.802
14.9326	0.804
14.9668	0.804
15.0009	0.8045
15.0351	0.805
15.0692	0.7992
15.1034	0.7865
15.1376	0.7496
15.1717	0.729
15.2059	0.722
15.24	0.7284
15.2742	0.7344
15.3083	0.7451
15.3425	0.7523
15.3766	0.7584
15.4108	0.761
