Infrared Spectrum: 3-oxa-9-aza-bicyclo[3.3.1]nonan-7-ol, 9-methyl-, benzillic acid ester, maleate (1 to 1)
Formula: C26 H29 N O8
State: SOLID (KBr DISC)
Class: COBLENTZ III
Instrument: PERKIN-ELMER 21 (GRATING)
Instrument parameters: NaCl PRISM
Sampling: TRANSMISSION
Resolution: 2
Origin: SMITH KLINE & FRENCH LABS.
1/CM	TRANSMITTANCE
670	0.5866
679	0.5997
688	0.5973
697	0.3547
706	0.483
715	0.7054
724	0.5407
733	0.5656
742	0.5534
751	0.5041
760	0.4115
769	0.4791
778	0.7474
787	0.8532
796	0.7607
805	0.8598
814	0.8462
823	0.7892
832	0.741
841	0.7334
850	0.7024
859	0.5246
868	0.26
877	0.4907
886	0.5491
895	0.7069
904	0.6825
913	0.5747
922	0.5626
931	0.5831
940	0.4107
949	0.4468
958	0.5274
967	0.4933
976	0.4592
985	0.4054
994	0.3238
1003	0.2718
1012	0.2628
1021	0.3801
1030	0.3328
1039	0.3146
1048	0.2673
1057	0.1945
1066	0.3027
1075	0.2745
1084	0.2551
1093	0.3213
1102	0.3228
1111	0.3068
1120	0.4032
1129	0.3593
1138	0.4589
1147	0.4386
1156	0.3953
1165	0.3815
1174	0.2994
1183	0.2989
1192	0.3968
1201	0.3518
1210	0.3623
1219	0.2399
1228	0.1649
1237	0.271
1246	0.4257
1255	0.5657
1264	0.6422
1273	0.6313
1282	0.6037
1291	0.6458
1300	0.7051
1309	0.6427
1318	0.5531
1327	0.4477
1336	0.3299
1345	0.2095
1354	0.1906
1363	0.3532
1372	0.3331
1381	0.2924
1390	0.3734
1399	0.5097
1408	0.5248
1417	0.4559
1426	0.2982
1435	0.203
1444	0.1537
1453	0.1747
1462	0.1724
1471	0.1671
1480	0.184
1489	0.2047
1498	0.2275
1507	0.3
1516	0.3115
1525	0.312
1534	0.3111
1543	0.3604
1552	0.3666
1561	0.3308
1570	0.2758
1579	0.2082
1588	0.233
1597	0.3147
1606	0.3667
1615	0.3468
1624	0.3437
1633	0.4614
1642	0.563
1651	0.6301
1660	0.705
1669	0.7349
1678	0.7078
1687	0.6574
1696	0.61
1705	0.5706
1714	0.5903
1723	0.5964
1732	0.5647
1741	0.5015
1750	0.2358
1759	0.4069
1768	0.6958
1777	0.7459
1786	0.7774
1795	0.7823
1804	0.7807
1813	0.7793
1822	0.7827
1831	0.7914
1840	0.7995
1849	0.8048
1858	0.8062
1867	0.805
1876	0.8021
1885	0.7993
1894	0.7964
1903	0.7962
1912	0.8003
1921	0.8048
1930	0.7958
1939	0.7821
1948	0.7731
1957	0.773
1966	0.7759
1975	0.7825
1984	0.7876
1993	0.7897
2002	0.7895
2011	0.7878
2020	0.7856
2029	0.7826
2038	0.7792
2047	0.7757
2056	0.7723
2065	0.7689
2074	0.7651
2083	0.7607
2092	0.7563
2101	0.7532
2110	0.7503
2119	0.7473
2128	0.7444
2137	0.7416
2146	0.7387
2155	0.7359
2164	0.7328
2173	0.7295
2182	0.724
2191	0.7177
2200	0.7147
2209	0.7092
2218	0.7023
2227	0.6965
2236	0.6968
2245	0.6919
2254	0.6822
2263	0.6718
2272	0.666
2281	0.6618
2290	0.6557
2299	0.6494
2308	0.6438
2317	0.6383
2326	0.634
2335	0.6306
2344	0.6297
2353	0.6318
2362	0.641
2371	0.6419
2380	0.6391
2389	0.634
2398	0.6335
2407	0.6361
2416	0.6362
2425	0.6336
2434	0.634
2443	0.6353
2452	0.6372
2461	0.6401
2470	0.644
2479	0.6492
2488	0.6536
2497	0.6556
2506	0.6567
2515	0.6585
2524	0.6611
2533	0.6658
2542	0.6712
2551	0.679
2560	0.6874
2569	0.6966
2578	0.7066
2587	0.7154
2596	0.7201
2605	0.7243
2614	0.7276
2623	0.731
2632	0.7348
2641	0.7386
2650	0.741
2659	0.7428
2668	0.7445
2677	0.7457
2686	0.7468
2695	0.748
2704	0.7493
2713	0.7507
2722	0.7525
2731	0.7569
2740	0.7657
2749	0.7733
2758	0.7787
2767	0.7819
2776	0.7827
2785	0.7818
2794	0.7802
2803	0.778
2812	0.7743
2821	0.7695
2830	0.7641
2839	0.7586
2848	0.7531
2857	0.7478
2866	0.7453
2875	0.7469
2884	0.7476
2893	0.7393
2902	0.7254
2911	0.7142
2920	0.7135
2929	0.7162
2938	0.7247
2947	0.7336
2956	0.7405
2965	0.748
2974	0.757
2983	0.7557
2992	0.7536
3001	0.7508
3010	0.7481
3019	0.7458
3028	0.7442
3037	0.7449
3046	0.7476
3055	0.7547
3064	0.7727
3073	0.7982
3082	0.822
3091	0.8268
3100	0.8358
3109	0.8472
3118	0.8509
3127	0.8514
3136	0.8519
3145	0.8512
3154	0.8502
3163	0.8476
3172	0.8445
3181	0.8393
3190	0.8338
3199	0.8275
3208	0.8213
3217	0.8134
3226	0.8052
3235	0.797
3244	0.7885
3253	0.7798
3262	0.7711
3271	0.7607
3280	0.746
3289	0.7249
3298	0.7018
3307	0.6782
3316	0.6543
3325	0.6306
3334	0.6069
3343	0.5835
3352	0.5601
3361	0.5368
3370	0.514
3379	0.4969
3388	0.4861
3397	0.4878
3406	0.4944
3415	0.516
3424	0.5375
3433	0.5588
3442	0.5801
3451	0.6013
3460	0.6223
3469	0.6433
3478	0.664
3487	0.6848
3496	0.7054
3505	0.7269
3514	0.7389
3523	0.7497
3532	0.7597
3541	0.7681
3550	0.7764
3559	0.7848
3568	0.798
3577	0.8147
3586	0.8343
3595	0.8572
3604	0.8742
3613	0.885
3622	0.8923
3631	0.8962
3640	0.9
3649	0.9033
3658	0.9055
3667	0.9076
3676	0.9085
3685	0.9082
3694	0.908
3703	0.9078
3712	0.9073
3721	0.9069
3730	0.9065
3739	0.906
3748	0.9056
3757	0.9048
3766	0.904
3775	0.9033
3784	0.9025
3793	0.9017
3802	0.9004
3811	0.8983
3820	0.8963
3829	0.8944
3838	0.8936
3847	0.8932
3856	0.8929
3865	0.8926
3874	0.8918
3883	0.89
3892	0.8883
3901	0.8867
3910	0.8851
3919	0.8836
3928	0.8822
3937	0.8815
3946	0.8807
3955	0.88
3964	0.8793
3973	0.8786
3982	0.8779
3991	0.8772
4000	0.8766
