Infrared Spectrum: 3-PHENYL-5-[2-DIETHYLAMINO]ETHYL-1,2,4-OXADIAZOLE, CITRATE
Formula: C20 H27 N3 O8
State: SOLID (KBr DISC)
Class: COBLENTZ III
Instrument: Not specified, most likely a prism spectrometer.
Instrument parameters: NaCl PRISM
Sampling: TRANSMISSION
Resolution: 2
Origin: SMITH KLINE & FRENCH LABS.
MICROMETERS	TRANSMITTANCE
1.98	0.59
2.01887	0.59
2.05773	0.59
2.0966	0.601
2.13546	0.608
2.17433	0.609
2.21319	0.612
2.25206	0.62
2.29092	0.617
2.32979	0.62
2.36865	0.631
2.40752	0.637
2.44638	0.642
2.48525	0.65
2.52411	0.652
2.56298	0.66
2.60185	0.662
2.64071	0.668
2.67958	0.668
2.71844	0.669
2.75731	0.669
2.79617	0.657
2.83504	0.628
2.8739	0.568
2.91277	0.532
2.95163	0.5
2.9905	0.494
3.02936	0.505
3.06823	0.523
3.1071	0.513
3.14596	0.47
3.18483	0.431
3.22369	0.379
3.26256	0.318
3.30142	0.278
3.34029	0.24
3.37915	0.205
3.41802	0.194
3.45688	0.218
3.49575	0.227
3.53461	0.229
3.57348	0.227
3.61234	0.232
3.65121	0.233
3.69008	0.235
3.72894	0.239
3.76781	0.249
3.80667	0.264
3.84554	0.285
3.8844	0.326
3.92327	0.346
3.96213	0.368
4.001	0.383
4.03986	0.41
4.07873	0.448
4.11759	0.499
4.15646	0.521
4.19532	0.535
4.23419	0.561
4.27306	0.582
4.31192	0.586
4.35079	0.623
4.38965	0.675
4.42852	0.702
4.46738	0.715
4.50625	0.737
4.54511	0.749
4.58398	0.761
4.62284	0.771
4.66171	0.781
4.70057	0.789
4.73944	0.791
4.7783	0.792
4.81717	0.789
4.85604	0.787
4.8949	0.791
4.93377	0.791
4.97263	0.788
5.0115	0.783
5.05036	0.76
5.08923	0.76
5.12809	0.756
5.16696	0.753
5.20582	0.75
5.24469	0.753
5.28355	0.764
5.32242	0.77
5.36129	0.775
5.40015	0.777
5.43902	0.777
5.47788	0.769
5.51675	0.764
5.55561	0.743
5.59448	0.707
5.63334	0.678
5.67221	0.561
5.71107	0.441
5.74994	0.298
5.7888	0.105
5.82767	0.131
5.86653	0.365
5.9054	0.554
5.94427	0.618
5.98313	0.612
6.022	0.617
6.06086	0.606
6.09973	0.56
6.13859	0.493
6.17746	0.419
6.21632	0.26
6.25519	0.2
6.29405	0.106
6.33292	0.123
6.37178	0.117
6.41065	0.189
6.44951	0.255
6.48838	0.403
6.52725	0.471
6.56611	0.498
6.60498	0.546
6.64384	0.574
6.68271	0.538
6.72157	0.408
6.76044	0.245
6.7993	0.24
6.83817	0.313
6.87703	0.371
6.9159	0.339
6.95476	0.283
6.99363	0.36
7.0325	0.312
7.07136	0.292
7.11023	0.32
7.14909	0.266
7.18796	0.249
7.22682	0.279
7.26569	0.268
7.30455	0.24
7.34342	0.206
7.38228	0.223
7.42115	0.208
7.46001	0.205
7.49888	0.239
7.53774	0.274
7.57661	0.283
7.61548	0.234
7.65434	0.278
7.69321	0.43
7.73207	0.504
7.77094	0.558
7.8098	0.477
7.84867	0.529
7.88753	0.477
7.9264	0.32
7.96526	0.369
8.00413	0.396
8.04299	0.277
8.08186	0.411
8.12072	0.484
8.15959	0.443
8.19846	0.311
8.23732	0.188
8.27619	0.149
8.31505	0.147
8.35392	0.191
8.39278	0.255
8.43165	0.404
8.47051	0.494
8.50938	0.397
8.54824	0.257
8.58711	0.294
8.62597	0.538
8.66484	0.588
8.7037	0.614
8.74257	0.684
8.78144	0.669
8.8203	0.631
8.85917	0.659
8.89803	0.716
8.9369	0.725
8.97576	0.722
9.01463	0.766
9.05349	0.783
9.09236	0.8
9.13122	0.815
9.17009	0.828
9.20895	0.811
9.24782	0.658
9.28669	0.659
9.32555	0.699
9.36442	0.697
9.40328	0.732
9.44215	0.693
9.48101	0.631
9.51988	0.599
9.55874	0.697
9.59761	0.746
9.63647	0.696
9.67534	0.68
9.7142	0.746
9.75307	0.708
9.79193	0.704
9.8308	0.697
9.86967	0.724
9.90853	0.753
9.9474	0.691
9.98626	0.605
10.0251	0.699
10.064	0.748
10.1029	0.769
10.1417	0.78
10.1806	0.775
10.2195	0.772
10.2583	0.759
10.2972	0.743
10.336	0.747
10.3749	0.756
10.4138	0.773
10.4526	0.782
10.4915	0.795
10.5304	0.793
10.5692	0.791
10.6081	0.766
10.647	0.758
10.6858	0.756
10.7247	0.727
10.7636	0.722
10.8024	0.691
10.8413	0.662
10.8802	0.633
10.919	0.599
10.9579	0.549
10.9968	0.539
11.0356	0.516
11.0745	0.472
11.1134	0.55
11.1522	0.625
11.1911	0.674
11.23	0.707
11.2688	0.724
11.3077	0.736
11.3465	0.727
11.3854	0.733
11.4243	0.781
11.4631	0.801
11.502	0.808
11.5409	0.818
11.5797	0.832
11.6186	0.84
11.6575	0.872
11.6963	0.884
11.7352	0.879
11.7741	0.888
11.8129	0.919
11.8518	0.923
11.8907	0.921
11.9295	0.899
11.9684	0.921
12.0073	0.935
12.0461	0.925
12.085	0.885
12.1239	0.851
12.1627	0.865
12.2016	0.861
12.2405	0.849
12.2793	0.859
12.3182	0.849
12.357	0.829
12.3959	0.812
12.4348	0.792
12.4736	0.761
12.5125	0.744
12.5514	0.729
12.5902	0.729
12.6291	0.719
12.668	0.648
12.7068	0.567
12.7457	0.516
12.7846	0.578
12.8234	0.692
12.8623	0.758
12.9012	0.805
12.94	0.84
12.9789	0.871
13.0178	0.901
13.0566	0.913
13.0955	0.933
13.1344	0.947
13.1732	0.951
13.2121	0.963
13.251	0.961
13.2898	0.959
13.3287	0.93
13.3675	0.84
13.4064	0.828
13.4453	0.861
13.4841	0.907
13.523	0.912
13.5619	0.877
13.6007	0.851
13.6396	0.851
13.6785	0.82
13.7173	0.783
13.7562	0.759
13.7951	0.673
13.8339	0.527
13.8728	0.452
13.9117	0.517
13.9505	0.678
13.9894	0.803
14.0283	0.866
14.0671	0.912
14.106	0.93
14.1449	0.952
14.1837	0.957
14.2226	0.958
14.2614	0.948
14.3003	0.894
14.3392	0.815
14.378	0.684
14.4169	0.579
14.4558	0.513
14.4946	0.578
14.5335	0.702
14.5724	0.791
14.6112	0.817
14.6501	0.851
14.689	0.86
14.7278	0.873
14.7667	0.883
14.8056	0.885
14.8444	0.882
14.8833	0.865
14.9222	0.84
14.961	0.786
14.9999	0.704
15.0388	0.652
15.0776	0.566
15.1165	0.573
15.1554	0.595
15.1942	0.642
15.2331	0.724
15.2719	0.758
15.3108	0.798
15.3497	0.803
15.3885	0.815
15.4274	0.823
15.4663	0.828
15.5051	0.842
15.544	0.84
15.5829	0.838
15.6217	0.831
15.6606	0.829
15.6995	0.822
