Infrared Spectrum: POTASSIUM IODATE
Formula: K I O3
State: SOLID (NUJOL MULL)
Class: COBLENTZ
Instrument: Not specified, most likely a prism, grating, or hybrid spectrometer.
Sampling: TRANSMISSION
Resolution: 4
Origin: MELLON INSTITUTE
MICROMETERS	TRANSMITTANCE
2.024	0.682
2.06497	0.682
2.10594	0.682
2.1469	0.682
2.18787	0.68
2.22884	0.68
2.26981	0.682
2.31077	0.68
2.35174	0.68
2.39271	0.68
2.43368	0.682
2.47465	0.686
2.51561	0.689
2.55658	0.689
2.59755	0.689
2.63852	0.692
2.67948	0.696
2.72045	0.699
2.76142	0.699
2.80239	0.698
2.84335	0.698
2.88432	0.696
2.92529	0.696
2.96626	0.696
3.00723	0.694
3.04819	0.694
3.08916	0.698
3.13013	0.698
3.1711	0.699
3.21206	0.701
3.25303	0.706
3.294	0.708
3.33497	0.672
3.37594	0.475
3.4169	0.49
3.45787	0.506
3.49884	0.624
3.53981	0.715
3.58077	0.739
3.62174	0.749
3.66271	0.756
3.70368	0.763
3.74465	0.768
3.78561	0.771
3.82658	0.775
3.86755	0.778
3.90852	0.78
3.94948	0.783
3.99045	0.783
4.03142	0.783
4.07239	0.783
4.11335	0.782
4.15432	0.78
4.19529	0.778
4.23626	0.778
4.27723	0.778
4.31819	0.778
4.35916	0.778
4.40013	0.778
4.4411	0.778
4.48206	0.778
4.52303	0.78
4.564	0.783
4.60497	0.783
4.64594	0.783
4.6869	0.783
4.72787	0.783
4.76884	0.783
4.80981	0.783
4.85077	0.789
4.89174	0.789
4.93271	0.79
4.97368	0.79
5.01465	0.795
5.05561	0.797
5.09658	0.799
5.13755	0.802
5.17852	0.809
5.21948	0.813
5.26045	0.819
5.30142	0.823
5.34239	0.826
5.38335	0.83
5.42432	0.831
5.46529	0.835
5.50626	0.838
5.54723	0.842
5.58819	0.845
5.62916	0.852
5.67013	0.857
5.7111	0.862
5.75206	0.867
5.79303	0.873
5.834	0.876
5.87497	0.881
5.91594	0.883
5.9569	0.885
5.99787	0.888
6.03884	0.888
6.07981	0.886
6.12077	0.885
6.16174	0.885
6.20271	0.885
6.24368	0.885
6.28465	0.885
6.32561	0.886
6.36658	0.886
6.40755	0.886
6.44852	0.888
6.48948	0.888
6.53045	0.89
6.57142	0.891
6.61239	0.893
6.65335	0.897
6.69432	0.898
6.73529	0.893
6.77626	0.878
6.81723	0.806
6.85819	0.799
6.89916	0.804
6.94013	0.835
6.9811	0.866
7.02206	0.883
7.06303	0.89
7.104	0.895
7.14497	0.9
7.18594	0.883
7.2269	0.861
7.26787	0.866
7.30884	0.879
7.34981	0.891
7.39077	0.902
7.43174	0.905
7.47271	0.909
7.51368	0.912
7.55465	0.912
7.59561	0.914
7.63658	0.915
7.67755	0.915
7.71852	0.915
7.75948	0.915
7.80045	0.917
7.84142	0.915
7.88239	0.915
7.92335	0.917
7.96432	0.917
8.00529	0.917
8.04626	0.917
8.08723	0.917
8.12819	0.919
8.16916	0.919
8.21013	0.919
8.2511	0.921
8.29206	0.922
8.33303	0.922
8.374	0.924
8.41497	0.924
8.45594	0.924
8.4969	0.922
8.53787	0.921
8.57884	0.921
8.61981	0.922
8.66077	0.922
8.70174	0.924
8.74271	0.926
8.78368	0.924
8.82465	0.922
8.86561	0.922
8.90658	0.921
8.94755	0.919
8.98852	0.919
9.02948	0.919
9.07045	0.919
9.11142	0.919
9.15239	0.921
9.19335	0.922
9.23432	0.922
9.27529	0.924
9.31626	0.922
9.35723	0.922
9.39819	0.922
9.43916	0.922
9.48013	0.924
9.5211	0.924
9.56206	0.926
9.60303	0.926
9.644	0.929
9.68497	0.929
9.72594	0.929
9.7669	0.931
9.80787	0.931
9.84884	0.931
9.88981	0.933
9.93077	0.933
9.97174	0.934
10.0127	0.934
10.0537	0.934
10.0946	0.936
10.1356	0.936
10.1766	0.936
10.2175	0.938
10.2585	0.939
10.2995	0.938
10.3405	0.938
10.3814	0.938
10.4224	0.938
10.4634	0.938
10.5043	0.938
10.5453	0.938
10.5863	0.934
10.6272	0.934
10.6682	0.933
10.7092	0.933
10.7501	0.929
10.7911	0.931
10.8321	0.927
10.873	0.929
10.914	0.931
10.955	0.931
10.9959	0.934
11.0369	0.934
11.0779	0.936
11.1188	0.934
11.1598	0.934
11.2008	0.934
11.2417	0.933
11.2827	0.933
11.3237	0.933
11.3646	0.934
11.4056	0.934
11.4466	0.936
11.4875	0.936
11.5285	0.938
11.5695	0.938
11.6105	0.936
11.6514	0.934
11.6924	0.933
11.7334	0.931
11.7743	0.931
11.8153	0.929
11.8563	0.927
11.8972	0.926
11.9382	0.926
11.9792	0.924
12.0201	0.919
12.0611	0.914
12.1021	0.91
12.143	0.902
12.184	0.885
12.225	0.854
12.2659	0.823
12.3069	0.777
12.3479	0.722
12.3888	0.691
12.4298	0.646
12.4708	0.595
12.5117	0.579
12.5527	0.586
12.5937	0.588
12.6346	0.559
12.6756	0.516
12.7166	0.475
12.7575	0.437
12.7985	0.399
12.8395	0.36
12.8805	0.319
12.9214	0.291
12.9624	0.257
13.0034	0.231
13.0443	0.192
13.0853	0.159
13.1263	0.142
13.1672	0.123
13.2082	0.106
13.2492	0.102
13.2901	0.101
13.3311	0.102
13.3721	0.101
13.413	0.099
13.454	0.094
13.495	0.089
13.5359	0.087
13.5769	0.094
13.6179	0.137
13.6588	0.202
13.6998	0.31
13.7408	0.394
13.7817	0.439
13.8227	0.483
13.8637	0.514
13.9046	0.545
13.9456	0.566
13.9866	0.59
14.0275	0.605
14.0685	0.619
14.1095	0.626
14.1505	0.632
14.1914	0.638
14.2324	0.639
14.2734	0.641
14.3143	0.643
14.3553	0.641
14.3963	0.639
14.4372	0.638
14.4782	0.636
14.5192	0.636
14.5601	0.632
14.6011	0.631
14.6421	0.629
14.683	0.627
14.724	0.622
14.765	0.62
14.8059	0.619
14.8469	0.617
14.8879	0.615
14.9288	0.614
14.9698	0.61
15.0108	0.607
15.0517	0.605
15.0927	0.603
15.1337	0.6
15.1746	0.6
15.2156	0.598
15.2566	0.598
15.2975	0.596
15.3385	0.598
15.3795	0.596
15.4205	0.598
15.4614	0.596
15.5024	0.598
15.5434	0.596
15.5843	0.598
15.6253	0.6
15.6663	0.6
15.7072	0.602
15.7482	0.605
15.7892	0.608
15.8301	0.612
15.8711	0.617
15.9121	0.622
15.953	0.626
15.994	0.631
