Infrared Spectrum: MOLYBDENUM OXALATE
Formula: Mo C2 O4  * 3 H2 O
State: SOLID (KBr DISC)
Class: COBLENTZ
Instrument: Not specified, most likely a prism, grating, or hybrid spectrometer.
Sampling: TRANSMISSION
Resolution: 4
MICROMETERS	TRANSMITTANCE
2.069	0.88
2.10717	0.886
2.14533	0.891
2.1835	0.894
2.22166	0.897
2.25983	0.9
2.298	0.901
2.33616	0.904
2.37433	0.907
2.41249	0.909
2.45066	0.909
2.48882	0.91
2.52699	0.91
2.56516	0.912
2.60332	0.912
2.64149	0.918
2.67965	0.919
2.71782	0.921
2.75599	0.894
2.79415	0.757
2.83232	0.645
2.87048	0.554
2.90865	0.457
2.94682	0.399
2.98498	0.391
3.02315	0.484
3.06131	0.539
3.09948	0.59
3.13764	0.637
3.17581	0.673
3.21398	0.7
3.25214	0.739
3.29031	0.757
3.32847	0.766
3.36664	0.766
3.40481	0.767
3.44297	0.767
3.48114	0.769
3.5193	0.769
3.55747	0.769
3.59564	0.769
3.6338	0.774
3.67197	0.786
3.71013	0.806
3.7483	0.827
3.78646	0.84
3.82463	0.845
3.8628	0.843
3.90096	0.837
3.93913	0.836
3.97729	0.845
4.01546	0.849
4.05363	0.858
4.09179	0.858
4.12996	0.862
4.16812	0.871
4.20629	0.88
4.24446	0.882
4.28262	0.883
4.32079	0.886
4.35895	0.898
4.39712	0.91
4.43528	0.912
4.47345	0.915
4.51162	0.919
4.54978	0.919
4.58795	0.921
4.62611	0.921
4.66428	0.923
4.70245	0.925
4.74061	0.923
4.77878	0.923
4.81694	0.925
4.85511	0.925
4.89328	0.926
4.93144	0.926
4.96961	0.925
5.00777	0.925
5.04594	0.925
5.0841	0.923
5.12227	0.921
5.16044	0.921
5.1986	0.921
5.23677	0.922
5.27493	0.922
5.3131	0.923
5.35127	0.925
5.38943	0.925
5.4276	0.925
5.46576	0.919
5.50393	0.907
5.5421	0.889
5.58026	0.856
5.61843	0.77
5.65659	0.716
5.69476	0.64
5.73292	0.582
5.77109	0.511
5.80926	0.432
5.84742	0.432
5.88559	0.423
5.92375	0.362
5.96192	0.341
6.00009	0.362
6.03825	0.388
6.07642	0.451
6.11458	0.497
6.15275	0.527
6.19092	0.549
6.22908	0.597
6.26725	0.667
6.30541	0.739
6.34358	0.774
6.38174	0.798
6.41991	0.812
6.45808	0.836
6.49624	0.847
6.53441	0.865
6.57257	0.867
6.61074	0.874
6.64891	0.882
6.68707	0.88
6.72524	0.882
6.7634	0.882
6.80157	0.877
6.83974	0.87
6.8779	0.867
6.91607	0.862
6.95423	0.856
6.9924	0.853
7.03056	0.843
7.06873	0.827
7.1069	0.783
7.14506	0.76
7.18323	0.758
7.22139	0.76
7.25956	0.774
7.29773	0.797
7.33589	0.782
7.37406	0.758
7.41222	0.78
7.45039	0.819
7.48856	0.845
7.52672	0.847
7.56489	0.846
7.60305	0.839
7.64122	0.824
7.67938	0.819
7.71755	0.822
7.75572	0.824
7.79388	0.824
7.83205	0.822
7.87021	0.816
7.90838	0.804
7.94655	0.795
7.98471	0.782
8.02288	0.776
8.06104	0.767
8.09921	0.763
8.13738	0.758
8.17554	0.748
8.21371	0.734
8.25187	0.716
8.29004	0.703
8.3282	0.7
8.36637	0.706
8.40454	0.746
8.4427	0.783
8.48087	0.806
8.51903	0.833
8.5572	0.855
8.59537	0.871
8.63353	0.88
8.6717	0.883
8.70986	0.889
8.74803	0.894
8.7862	0.897
8.82436	0.9
8.86253	0.901
8.90069	0.906
8.93886	0.907
8.97702	0.909
9.01519	0.912
9.05336	0.918
9.09152	0.921
9.12969	0.923
9.16785	0.923
9.20602	0.923
9.24419	0.925
9.28235	0.926
9.32052	0.925
9.35868	0.925
9.39685	0.925
9.43502	0.923
9.47318	0.922
9.51135	0.922
9.54951	0.921
9.58768	0.921
9.62584	0.918
9.66401	0.918
9.70218	0.916
9.74034	0.913
9.77851	0.91
9.81667	0.907
9.85484	0.906
9.89301	0.903
9.93117	0.901
9.96934	0.898
10.0075	0.895
10.0457	0.894
10.0838	0.889
10.122	0.879
10.1602	0.865
10.1983	0.847
10.2365	0.797
10.2747	0.675
10.3128	0.566
10.351	0.56
10.3892	0.646
10.4273	0.664
10.4655	0.631
10.5037	0.578
10.5418	0.555
10.58	0.566
10.6182	0.614
10.6563	0.63
10.6945	0.615
10.7327	0.59
10.7708	0.585
10.809	0.585
10.8472	0.591
10.8853	0.597
10.9235	0.6
10.9617	0.603
10.9998	0.608
11.038	0.614
11.0761	0.622
11.1143	0.651
11.1525	0.67
11.1906	0.694
11.2288	0.727
11.267	0.746
11.3051	0.763
11.3433	0.77
11.3815	0.773
11.4196	0.777
11.4578	0.779
11.496	0.78
11.5341	0.782
11.5723	0.782
11.6105	0.782
11.6486	0.777
11.6868	0.773
11.725	0.766
11.7631	0.758
11.8013	0.749
11.8395	0.736
11.8776	0.721
11.9158	0.706
11.954	0.679
11.9921	0.661
12.0303	0.633
12.0685	0.609
12.1066	0.587
12.1448	0.567
12.183	0.548
12.2211	0.548
12.2593	0.548
12.2975	0.555
12.3356	0.557
12.3738	0.536
12.412	0.505
12.4501	0.482
12.4883	0.46
12.5265	0.444
12.5646	0.441
12.6028	0.441
12.6409	0.451
12.6791	0.478
12.7173	0.499
12.7554	0.52
12.7936	0.535
12.8318	0.546
12.8699	0.56
12.9081	0.572
12.9463	0.581
12.9844	0.591
13.0226	0.594
13.0608	0.596
13.0989	0.6
13.1371	0.602
13.1753	0.602
13.2134	0.605
13.2516	0.606
13.2898	0.608
13.3279	0.614
13.3661	0.618
13.4043	0.619
13.4424	0.627
13.4806	0.628
13.5188	0.631
13.5569	0.636
13.5951	0.64
13.6333	0.642
13.6714	0.646
13.7096	0.648
13.7478	0.649
13.7859	0.652
13.8241	0.654
13.8623	0.654
13.9004	0.657
13.9386	0.66
13.9768	0.661
14.0149	0.661
14.0531	0.661
14.0913	0.663
14.1294	0.663
14.1676	0.663
14.2058	0.664
14.2439	0.663
14.2821	0.66
14.3202	0.657
14.3584	0.655
14.3966	0.655
14.4347	0.652
14.4729	0.648
14.5111	0.648
14.5492	0.646
14.5874	0.646
14.6256	0.646
14.6637	0.646
14.7019	0.649
14.7401	0.654
14.7782	0.658
14.8164	0.661
14.8546	0.666
14.8927	0.673
14.9309	0.679
14.9691	0.691
15.0072	0.691
