Infrared Spectrum: Oxamide, N'-[4-(2'-mercaptoethylamino)butyl]-N-(3-pyridyl)-, dihydrochloride
Formula: C13 H22 Cl2 N4 O2 S
State: SOLID (1 mg / 650 mg KBr DISC)
Class: COBLENTZ III
Instrument: PERKIN-ELMER 521 (GRATING)
Instrument parameters: FILTERS AT 3130, 2475, 2000, 1150, 700, 410. GRATING CHANGES: 2000, 630 CM^-^1
Sampling: TRANSMISSION
Resolution: 2
Origin: SOUTHERN RESEARCH INSTITUTE
1/CM	TRANSMITTANCE
256.903	0.246
266.946	0.2703
276.989	0.3061
287.032	0.4079
297.075	0.4924
307.118	0.5315
317.161	0.5707
327.204	0.5876
337.247	0.6106
347.29	0.6545
357.333	0.751
367.376	0.7854
377.419	0.7968
387.462	0.8022
397.505	0.8051
407.548	0.8024
417.591	0.7852
427.634	0.824
437.677	0.8229
447.72	0.8065
457.763	0.8122
467.806	0.7734
477.849	0.6975
487.892	0.7738
497.935	0.8198
507.978	0.8207
518.021	0.7275
528.064	0.7315
538.107	0.8256
548.15	0.8055
558.194	0.7036
568.237	0.7549
578.28	0.8288
588.323	0.8225
598.366	0.8087
608.409	0.797
618.452	0.641
628.495	0.8441
638.538	0.8447
648.581	0.8362
658.624	0.7705
668.667	0.5871
678.71	0.7434
688.753	0.8365
698.796	0.8203
708.839	0.7905
718.882	0.759
728.925	0.717
738.968	0.6913
749.011	0.5966
759.054	0.5627
769.097	0.7064
779.14	0.7989
789.183	0.7968
799.226	0.6552
809.269	0.4844
819.312	0.8583
829.355	0.8531
839.398	0.7346
849.441	0.7801
859.484	0.8834
869.527	0.881
879.57	0.8527
889.613	0.8606
899.656	0.8513
909.699	0.8895
919.742	0.8743
929.785	0.8593
939.828	0.8606
949.871	0.8416
959.914	0.8417
969.957	0.8163
980	0.7544
990.043	0.7742
1000.09	0.7539
1010.13	0.6836
1020.17	0.62
1030.22	0.7368
1040.26	0.6739
1050.3	0.6394
1060.34	0.7452
1070.39	0.786
1080.43	0.7891
1090.47	0.7824
1100.52	0.7626
1110.56	0.7402
1120.6	0.7285
1130.65	0.7239
1140.69	0.74
1150.73	0.6959
1160.77	0.5911
1170.82	0.5436
1180.86	0.5833
1190.9	0.4692
1200.95	0.7226
1210.99	0.7582
1221.03	0.6678
1231.08	0.7287
1241.12	0.6678
1251.16	0.6303
1261.2	0.4853
1271.25	0.7588
1281.29	0.7469
1291.33	0.7484
1301.38	0.7098
1311.42	0.6969
1321.46	0.6586
1331.51	0.6099
1341.55	0.6174
1351.59	0.5155
1361.63	0.3242
1371.68	0.4024
1381.72	0.6564
1391.76	0.6747
1401.81	0.6286
1411.85	0.6199
1421.89	0.5034
1431.94	0.3366
1441.98	0.2938
1452.02	0.3109
1462.07	0.5103
1472.11	0.5311
1482.15	0.5213
1492.19	0.3934
1502.24	0.2655
1512.28	0.1291
1522.32	0.234
1532.37	0.3577
1542.41	0.2668
1552.45	0.1695
1562.5	0.4005
1572.54	0.5837
1582.58	0.6851
1592.62	0.6967
1602.67	0.5867
1612.71	0.6576
1622.75	0.6205
1632.8	0.5974
1642.84	0.509
1652.88	0.1588
1662.93	0.0798
1672.97	0.2718
1683.01	0.4912
1693.05	0.6395
1703.1	0.5883
1713.14	0.6017
1723.18	0.8406
1733.23	0.9292
1743.27	0.941
1753.31	0.9553
1763.36	0.9681
1773.4	0.9642
1783.44	0.9565
1793.48	0.9482
1803.53	0.9457
1813.57	0.9523
1823.61	0.9517
1833.66	0.9393
1843.7	0.9206
1853.74	0.9049
1863.79	0.9008
1873.83	0.9163
1883.87	0.9166
1893.91	0.9135
1903.96	0.9043
1914	0.8907
1924.04	0.8684
1934.09	0.8359
1944.13	0.7878
1954.17	0.7972
1964.22	0.8522
1974.26	0.8476
1984.3	0.8168
1994.34	0.8248
2004.39	0.8442
2014.43	0.8426
2024.47	0.8195
2034.52	0.7933
2044.56	0.7565
2054.6	0.7115
2064.65	0.6486
2074.69	0.5746
2084.73	0.5093
2094.78	0.6272
2104.82	0.7295
2114.86	0.8029
2124.9	0.8292
2134.95	0.8304
2144.99	0.8247
2155.03	0.8151
2165.08	0.8048
2175.12	0.796
2185.16	0.7838
2195.21	0.7682
2205.25	0.7545
2215.29	0.74
2225.33	0.7243
2235.38	0.7137
2245.42	0.7058
2255.46	0.6851
2265.51	0.6668
2275.55	0.6469
2285.59	0.6239
2295.64	0.5982
2305.68	0.5743
2315.72	0.5497
2325.76	0.524
2335.81	0.4981
2345.85	0.4653
2355.89	0.436
2365.94	0.4195
2375.98	0.4024
2386.02	0.3807
2396.07	0.3457
2406.11	0.3128
2416.15	0.3074
2426.19	0.3159
2436.24	0.3042
2446.28	0.2857
2456.32	0.284
2466.37	0.3033
2476.41	0.3054
2486.45	0.2976
2496.5	0.3034
2506.54	0.3208
2516.58	0.3438
2526.62	0.3563
2536.67	0.363
2546.71	0.3785
2556.75	0.3784
2566.8	0.3787
2576.84	0.3855
2586.88	0.3932
2596.93	0.3944
2606.97	0.3889
2617.01	0.3892
2627.06	0.3874
2637.1	0.3766
2647.14	0.3617
2657.18	0.3364
2667.23	0.3328
2677.27	0.3424
2687.31	0.3526
2697.36	0.3535
2707.4	0.3527
2717.44	0.3536
2727.49	0.3572
2737.53	0.3633
2747.57	0.3705
2757.61	0.3797
2767.66	0.3868
2777.7	0.379
2787.74	0.3758
2797.79	0.3878
2807.83	0.3909
2817.87	0.4198
2827.92	0.4608
2837.96	0.4902
2848	0.5164
2858.04	0.5025
2868.09	0.5067
2878.13	0.5295
2888.17	0.5056
2898.22	0.4642
2908.26	0.4242
2918.3	0.3993
2928.35	0.346
2938.39	0.3459
2948.43	0.3582
2958.47	0.3706
2968.52	0.3988
2978.56	0.436
2988.6	0.4684
2998.65	0.5411
3008.69	0.5831
3018.73	0.5931
3028.78	0.5755
3038.82	0.5654
3048.86	0.5506
3058.9	0.6023
3068.95	0.5871
3078.99	0.5574
3089.03	0.5473
3099.08	0.5205
3109.12	0.5879
3119.16	0.6444
3129.21	0.6685
3139.25	0.6703
3149.29	0.6468
3159.33	0.6234
3169.38	0.5998
3179.42	0.5789
3189.46	0.5576
3199.51	0.5229
3209.55	0.4735
3219.59	0.4181
3229.64	0.3623
3239.68	0.2804
3249.72	0.2501
3259.77	0.2885
3269.81	0.3545
3279.85	0.4054
3289.89	0.4462
3299.94	0.4746
3309.98	0.4998
3320.02	0.5234
3330.07	0.5456
3340.11	0.5617
3350.15	0.5679
3360.2	0.5696
3370.24	0.5654
3380.28	0.5584
3390.32	0.5502
3400.37	0.5421
3410.41	0.536
3420.45	0.5331
3430.5	0.5326
3440.54	0.5347
3450.58	0.5395
3460.63	0.547
3470.67	0.5552
3480.71	0.5674
3490.75	0.5794
3500.8	0.5913
3510.84	0.6055
3520.88	0.6234
3530.93	0.6424
3540.97	0.6607
3551.01	0.6806
3561.06	0.7045
3571.1	0.7258
3581.14	0.7443
3591.18	0.7647
3601.23	0.7834
3611.27	0.8021
3621.31	0.8228
3631.36	0.8417
3641.4	0.8603
3651.44	0.8729
3661.49	0.8798
3671.53	0.8825
3681.57	0.8822
3691.61	0.8868
3701.66	0.897
3711.7	0.904
3721.74	0.9049
3731.79	0.9047
3741.83	0.9045
3751.87	0.9043
3761.92	0.9033
3771.96	0.9024
3782	0.9009
3792.05	0.8991
3802.09	0.8972
3812.13	0.8952
3822.17	0.8932
3832.22	0.8912
3842.26	0.8887
3852.3	0.8862
3862.35	0.884
3872.39	0.8819
3882.43	0.8808
3892.48	0.8797
3902.52	0.8784
3912.56	0.8769
3922.6	0.8756
3932.65	0.8746
3942.69	0.8732
3952.73	0.8717
3962.78	0.8706
3972.82	0.8703
3982.86	0.8702
3992.91	0.8692
4002.95	0.8681
4012.99	0.867
