Infrared Spectrum: LEAD SILICATE
Formula: 2 Pb Si O3  * Pb ( O H)2
State: SOLID (0.8 mg / 300 mg CsI PELLET)
Class: COBLENTZ
Instrument: Not specified, most likely a grating spectrometer.
Sampling: TRANSMISSION
Resolution: 4
Origin: DESOTO CHEMICAL COATINGS, INC.
1/CM	TRANSMITTANCE
196.009	0.76
206.652	0.75
217.295	0.754
227.938	0.762
238.581	0.768
249.224	0.772
259.867	0.771
270.51	0.758
281.154	0.756
291.797	0.755
302.44	0.75
313.083	0.743
323.726	0.727
334.369	0.708
345.012	0.696
355.655	0.684
366.298	0.6131
376.941	0.513
387.584	0.59
398.227	0.467
408.87	0.648
419.513	0.663
430.156	0.66
440.799	0.628
451.443	0.5
462.086	0.43
472.729	0.485
483.372	0.557
494.015	0.617
504.658	0.616
515.301	0.616
525.944	0.727
536.587	0.812
547.23	0.879
557.873	0.909
568.516	0.926
579.159	0.931
589.802	0.945
600.445	0.8261
611.088	0.872
621.732	0.93
632.375	0.959
643.018	0.966
653.661	0.969
664.304	0.969
674.947	0.966
685.59	0.958
696.233	0.89
706.876	0.941
717.519	0.965
728.162	0.958
738.805	0.961
749.448	0.959
760.091	0.941
770.734	0.864
781.377	0.703
792.021	0.7091
802.664	0.6929
813.307	0.874
823.95	0.934
834.593	0.943
845.236	0.927
855.879	0.914
866.522	0.902
877.165	0.881
887.808	0.799
898.451	0.767
909.094	0.779
919.737	0.76
930.38	0.744
941.023	0.721
951.667	0.712
962.31	0.68
972.953	0.632
983.596	0.628
994.239	0.641
1004.88	0.629
1015.52	0.569
1026.17	0.513
1036.81	0.445
1047.45	0.383
1058.1	0.306
1068.74	0.25
1079.38	0.204
1090.03	0.215
1100.67	0.252
1111.31	0.303
1121.96	0.352
1132.6	0.407
1143.24	0.443
1153.88	0.479
1164.53	0.51
1175.17	0.513
1185.81	0.562
1196.46	0.609
1207.1	0.652
1217.74	0.683
1228.39	0.704
1239.03	0.724
1249.67	0.74
1260.32	0.745
1270.96	0.756
1281.6	0.764
1292.24	0.767
1302.89	0.778
1313.53	0.784
1324.17	0.788
1334.82	0.796
1345.46	0.802
1356.1	0.804
1366.75	0.808
1377.39	0.81
1388.03	0.812
1398.68	0.815
1409.32	0.82
1419.96	0.823
1430.6	0.824
1441.25	0.826
1451.89	0.831
1462.53	0.834
1473.18	0.836
1483.82	0.842
1494.46	0.844
1505.11	0.842
1515.75	0.844
1526.39	0.843
1537.04	0.843
1547.68	0.839
1558.32	0.842
1568.96	0.842
1579.61	0.842
1590.25	0.832
1600.89	0.818
1611.54	0.802
1622.18	0.803
1632.82	0.812
1643.47	0.827
1654.11	0.836
1664.75	0.84
1675.39	0.846
1686.04	0.847
1696.68	0.85
1707.32	0.854
1717.97	0.852
1728.61	0.854
1739.25	0.858
1749.9	0.862
1760.54	0.863
1771.18	0.864
1781.83	0.864
1792.47	0.862
1803.11	0.86
1813.75	0.862
1824.4	0.863
1835.04	0.866
1845.68	0.867
1856.33	0.864
1866.97	0.862
1877.61	0.855
1888.26	0.852
1898.9	0.855
1909.54	0.856
1920.19	0.859
1930.83	0.855
1941.47	0.86
1952.11	0.859
1962.76	0.859
1973.4	0.859
1984.04	0.858
1994.69	0.856
2005.33	0.855
2015.97	0.86
2026.62	0.863
2037.26	0.864
2047.9	0.866
2058.55	0.8681
2069.19	0.87
2079.83	0.87
2090.47	0.868
2101.12	0.868
2111.76	0.868
2122.4	0.8698
2133.05	0.868
2143.69	0.8682
2154.33	0.871
2164.98	0.8719
2175.62	0.8698
2186.26	0.87
2196.9	0.87
2207.55	0.87
2218.19	0.87
2228.83	0.8697
2239.48	0.867
2250.12	0.867
2260.76	0.866
2271.41	0.866
2282.05	0.867
2292.69	0.866
2303.34	0.864
2313.98	0.864
2324.62	0.8638
2335.26	0.8616
2345.91	0.859
2356.55	0.859
2367.19	0.8535
2377.84	0.852
2388.48	0.858
2399.12	0.86
2409.77	0.86
2420.41	0.86
2431.05	0.86
2441.7	0.86
2452.34	0.8587
2462.98	0.8553
2473.62	0.859
2484.27	0.8557
2494.91	0.856
2505.55	0.854
2516.2	0.8543
2526.84	0.855
2537.48	0.8546
2548.13	0.854
2558.77	0.855
2569.41	0.8556
2580.06	0.852
2590.7	0.848
2601.34	0.848
2611.98	0.8488
2622.63	0.8506
2633.27	0.85
2643.91	0.848
2654.56	0.848
2665.2	0.848
2675.84	0.847
2686.49	0.847
2697.13	0.846
2707.77	0.844
2718.42	0.8465
2729.06	0.846
2739.7	0.844
2750.34	0.844
2760.99	0.843
2771.63	0.843
2782.27	0.842
2792.92	0.842
2803.56	0.84
2814.2	0.84
2824.85	0.839
2835.49	0.8354
2846.13	0.8293
2856.77	0.8224
2867.42	0.82
2878.06	0.823
2888.7	0.824
2899.35	0.8224
2909.99	0.8154
2920.63	0.8042
2931.28	0.8012
2941.92	0.8053
2952.56	0.811
2963.21	0.8173
2973.85	0.8186
2984.49	0.8213
2995.13	0.822
3005.78	0.82
3016.42	0.82
3027.06	0.8237
3037.71	0.823
3048.35	0.82
3058.99	0.819
3069.64	0.819
3080.28	0.819
3090.92	0.819
3101.57	0.818
3112.21	0.815
3122.85	0.814
3133.49	0.812
3144.14	0.8102
3154.78	0.8072
3165.42	0.8045
3176.07	0.803
3186.71	0.802
3197.35	0.8
3208	0.7992
3218.64	0.796
3229.28	0.795
3239.93	0.794
3250.57	0.791
3261.21	0.79
3271.85	0.7872
3282.5	0.784
3293.14	0.7803
3303.78	0.7764
3314.43	0.772
3325.07	0.77
3335.71	0.7633
3346.36	0.7551
3357	0.7482
3367.64	0.7441
3378.28	0.7363
3388.93	0.7231
3399.57	0.7162
3410.21	0.7071
3420.86	0.7011
3431.5	0.699
3442.14	0.695
3452.79	0.692
3463.43	0.693
3474.07	0.695
3484.72	0.697
3495.36	0.7
3506	0.703
3516.64	0.708
3527.29	0.716
3537.93	0.719
3548.57	0.728
3559.22	0.732
3569.86	0.7391
3580.5	0.7481
3591.15	0.7511
3601.79	0.7591
3612.43	0.7641
3623.08	0.771
3633.72	0.7722
3644.36	0.7802
3655	0.783
3665.65	0.783
3676.29	0.7831
3686.93	0.7871
3697.58	0.788
3708.22	0.787
3718.86	0.786
3729.51	0.787
3740.15	0.7868
3750.79	0.787
3761.44	0.784
3772.08	0.7832
3782.72	0.7868
3793.36	0.783
3804.01	0.786
3814.65	0.786
3825.29	0.7838
3835.94	0.782
3846.58	0.7822
3857.22	0.7815
3867.87	0.782
3878.51	0.7807
3889.15	0.782
3899.8	0.782
3910.44	0.7787
3921.08	0.782
3931.72	0.7797
3942.37	0.778
3953.01	0.778
3963.65	0.779
3974.3	0.778
3984.94	0.776
