Infrared Spectrum: BENZOPHENONE, 2-HYDROXY-4,4'-BIS(TETRADECYLOXY)-
Formula: C41 H66 O4
State: SOLID (KBr PELLET)
Class: COBLENTZ
Instrument: Not specified, most likely a prism, grating, or hybrid spectrometer.
Sampling: TRANSMISSION
Resolution: 4
Origin: TENNESSEE EASTMAN COMPANY, RESEARCH LABORATORIES
MICROMETERS	TRANSMITTANCE
2.034	0.689
2.07505	0.687
2.11611	0.689
2.15716	0.687
2.19821	0.69
2.23926	0.692
2.28032	0.692
2.32137	0.694
2.36242	0.699
2.40348	0.702
2.44453	0.714
2.48558	0.725
2.52663	0.726
2.56769	0.728
2.60874	0.733
2.64979	0.737
2.69085	0.74
2.7319	0.713
2.77295	0.658
2.814	0.603
2.85506	0.572
2.89611	0.563
2.93716	0.596
2.97821	0.651
3.01927	0.707
3.06032	0.735
3.10137	0.759
3.14243	0.783
3.18348	0.798
3.22453	0.802
3.26558	0.798
3.30664	0.778
3.34769	0.432
3.38874	0.07
3.4298	0.321
3.47085	0.219
3.5119	0.759
3.55295	0.802
3.59401	0.84
3.63506	0.853
3.67611	0.876
3.71717	0.883
3.75822	0.888
3.79927	0.898
3.84032	0.903
3.88138	0.92
3.92243	0.929
3.96348	0.939
4.00454	0.95
4.04559	0.951
4.08664	0.951
4.12769	0.95
4.16875	0.951
4.2098	0.948
4.25085	0.946
4.2919	0.948
4.33296	0.95
4.37401	0.95
4.41506	0.951
4.45612	0.953
4.49717	0.958
4.53822	0.962
4.57927	0.962
4.62033	0.962
4.66138	0.955
4.70243	0.953
4.74349	0.951
4.78454	0.946
4.82559	0.945
4.86664	0.939
4.9077	0.934
4.94875	0.939
4.9898	0.95
5.03086	0.953
5.07191	0.953
5.11296	0.953
5.15401	0.951
5.19507	0.948
5.23612	0.951
5.27717	0.953
5.31823	0.96
5.35928	0.963
5.40033	0.967
5.44138	0.969
5.48244	0.969
5.52349	0.977
5.56454	0.975
5.6056	0.972
5.64665	0.972
5.6877	0.963
5.72875	0.95
5.76981	0.946
5.81086	0.948
5.85191	0.943
5.89296	0.922
5.93402	0.91
5.97507	0.884
6.01612	0.819
6.05718	0.646
6.09823	0.283
6.13928	0.25
6.18033	0.424
6.22139	0.28
6.26244	0.305
6.30349	0.348
6.34455	0.331
6.3856	0.527
6.42665	0.754
6.4677	0.769
6.50876	0.785
6.54981	0.642
6.59086	0.458
6.63192	0.546
6.67297	0.601
6.71402	0.551
6.75507	0.496
6.79613	0.489
6.83718	0.764
6.87823	0.831
6.91929	0.838
6.96034	0.735
7.00139	0.671
7.04244	0.788
7.0835	0.776
7.12455	0.745
7.1656	0.807
7.20665	0.821
7.24771	0.81
7.28876	0.797
7.32981	0.743
7.37087	0.649
7.41192	0.379
7.45297	0.498
7.49402	0.766
7.53508	0.81
7.57613	0.718
7.61718	0.465
7.65824	0.424
7.69929	0.345
7.74034	0.139
7.78139	0.202
7.82245	0.451
7.8635	0.558
7.90455	0.563
7.94561	0.221
7.98666	0.323
8.02771	0.649
8.06876	0.793
8.10982	0.819
8.15087	0.769
8.19192	0.841
8.23298	0.896
8.27403	0.9
8.31508	0.809
8.35613	0.637
8.39719	0.542
8.43824	0.426
8.47929	0.199
8.52035	0.347
8.5614	0.3
8.60245	0.532
8.6435	0.778
8.68456	0.841
8.72561	0.855
8.76666	0.821
8.80771	0.572
8.84877	0.481
8.88982	0.62
8.93087	0.762
8.97193	0.831
9.01298	0.859
9.05403	0.874
9.09508	0.908
9.13614	0.929
9.17719	0.939
9.21824	0.946
9.2593	0.948
9.30035	0.948
9.3414	0.943
9.38245	0.948
9.42351	0.939
9.46456	0.915
9.50561	0.912
9.54667	0.876
9.58772	0.759
9.62877	0.726
9.66982	0.728
9.71088	0.634
9.75193	0.549
9.79298	0.565
9.83404	0.567
9.87509	0.642
9.91614	0.73
9.95719	0.766
9.99825	0.835
10.0393	0.871
10.0804	0.881
10.1214	0.883
10.1625	0.872
10.2035	0.879
10.2446	0.9
10.2856	0.903
10.3267	0.896
10.3677	0.838
10.4088	0.843
10.4498	0.895
10.4909	0.92
10.5319	0.931
10.573	0.932
10.614	0.941
10.6551	0.946
10.6961	0.948
10.7372	0.948
10.7783	0.948
10.8193	0.941
10.8604	0.926
10.9014	0.821
10.9425	0.786
10.9835	0.852
11.0246	0.917
11.0656	0.95
11.1067	0.958
11.1477	0.962
11.1888	0.963
11.2298	0.962
11.2709	0.962
11.3119	0.962
11.353	0.965
11.394	0.969
11.4351	0.972
11.4761	0.972
11.5172	0.972
11.5583	0.972
11.5993	0.958
11.6404	0.884
11.6814	0.68
11.7225	0.518
11.7635	0.491
11.8046	0.599
11.8456	0.735
11.8867	0.771
11.9277	0.795
11.9688	0.826
12.0098	0.848
12.0509	0.853
12.0919	0.853
12.133	0.853
12.174	0.853
12.2151	0.84
12.2562	0.831
12.2972	0.833
12.3383	0.843
12.3793	0.852
12.4204	0.845
12.4614	0.828
12.5025	0.802
12.5435	0.769
12.5846	0.73
12.6256	0.702
12.6667	0.676
12.7077	0.663
12.7488	0.661
12.7898	0.664
12.8309	0.689
12.8719	0.711
12.913	0.719
12.954	0.718
12.9951	0.711
13.0362	0.768
13.0772	0.848
13.1183	0.872
13.1593	0.874
13.2004	0.9
13.2414	0.92
13.2825	0.922
13.3235	0.927
13.3646	0.95
13.4056	0.965
13.4467	0.967
13.4877	0.967
13.5288	0.962
13.5698	0.92
13.6109	0.838
13.6519	0.785
13.693	0.781
13.7341	0.816
13.7751	0.841
13.8162	0.84
13.8572	0.835
13.8983	0.853
13.9393	0.915
13.9804	0.95
14.0214	0.982
14.0625	0.991
14.1035	0.974
14.1446	0.972
14.1856	0.972
14.2267	0.972
14.2677	0.967
14.3088	0.957
14.3498	0.917
14.3909	0.86
14.432	0.81
14.473	0.8
14.5141	0.816
14.5551	0.847
14.5962	0.859
14.6372	0.867
14.6783	0.879
14.7193	0.905
14.7604	0.924
14.8014	0.941
14.8425	0.951
14.8835	0.953
14.9246	0.951
14.9656	0.945
15.0067	0.922
15.0477	0.922
15.0888	0.922
15.1298	0.922
15.1709	0.922
15.212	0.919
15.253	0.91
15.2941	0.896
15.3351	0.872
15.3762	0.847
15.4172	0.814
15.4583	0.797
15.4993	0.776
15.5404	0.761
15.5814	0.735
15.6225	0.716
15.6635	0.685
15.7046	0.661
15.7456	0.649
15.7867	0.646
15.8277	0.647
15.8688	0.649
15.9099	0.652
15.9509	0.656
15.992	0.656
