Infrared Spectrum: 10-(3-DIMETHYLAMINOPROPYL)-2-METHYLTHIOPHENOTHIAZINE, HYDROCHLORIDE
Formula: C18 H23 Cl N2 S2
State: SOLID (KBr DISC)
Class: COBLENTZ III
Instrument: Not specified, most likely a prism spectrometer.
Instrument parameters: NaCl PRISM
Sampling: TRANSMISSION
Resolution: 2
Origin: SMITH KLINE & FRENCH LABS.
MICROMETERS	TRANSMITTANCE
1.998	0.317
2.03223	0.317
2.06646	0.318
2.10068	0.315
2.13491	0.323
2.16914	0.336
2.20337	0.34
2.2376	0.356
2.27183	0.357
2.30605	0.361
2.34028	0.361
2.37451	0.379
2.40874	0.382
2.44297	0.393
2.47719	0.387
2.51142	0.401
2.54565	0.406
2.57988	0.411
2.61411	0.417
2.64834	0.428
2.68256	0.432
2.71679	0.434
2.75102	0.437
2.78525	0.437
2.81948	0.418
2.8537	0.402
2.88793	0.389
2.92216	0.384
2.95639	0.384
2.99062	0.396
3.02484	0.426
3.05907	0.446
3.0933	0.456
3.12753	0.473
3.16176	0.494
3.19599	0.504
3.23021	0.506
3.26444	0.503
3.29867	0.493
3.3329	0.485
3.36713	0.442
3.40135	0.394
3.43558	0.351
3.46981	0.374
3.50404	0.395
3.53827	0.41
3.5725	0.466
3.60672	0.485
3.64095	0.494
3.67518	0.493
3.70941	0.462
3.74364	0.423
3.77786	0.339
3.81209	0.299
3.84632	0.269
3.88055	0.24
3.91478	0.23
3.94901	0.256
3.98323	0.264
4.01746	0.255
4.05169	0.233
4.08592	0.221
4.12015	0.245
4.15437	0.266
4.1886	0.278
4.22283	0.305
4.25706	0.322
4.29129	0.36
4.32552	0.393
4.35974	0.417
4.39397	0.456
4.4282	0.461
4.46243	0.492
4.49666	0.499
4.53088	0.507
4.56511	0.522
4.59934	0.539
4.63357	0.544
4.6678	0.56
4.70202	0.556
4.73625	0.567
4.77048	0.565
4.80471	0.583
4.83894	0.584
4.87317	0.59
4.90739	0.597
4.94162	0.603
4.97585	0.606
5.01008	0.606
5.04431	0.621
5.07853	0.625
5.11276	0.627
5.14699	0.63
5.18122	0.625
5.21545	0.626
5.24968	0.636
5.2839	0.631
5.31813	0.632
5.35236	0.642
5.38659	0.631
5.42082	0.654
5.45504	0.66
5.48927	0.659
5.5235	0.669
5.55773	0.675
5.59196	0.672
5.62619	0.663
5.66041	0.675
5.69464	0.683
5.72887	0.684
5.7631	0.68
5.79733	0.682
5.83155	0.68
5.86578	0.677
5.90001	0.677
5.93424	0.68
5.96847	0.681
6.0027	0.678
6.03692	0.677
6.07115	0.673
6.10538	0.669
6.13961	0.664
6.17384	0.663
6.20806	0.65
6.24229	0.658
6.27652	0.605
6.31075	0.483
6.34498	0.427
6.37921	0.306
6.41343	0.319
6.44766	0.383
6.48189	0.4
6.51612	0.557
6.55035	0.636
6.58457	0.655
6.6188	0.667
6.65303	0.665
6.68726	0.6
6.72149	0.4
6.75571	0.296
6.78994	0.333
6.82417	0.25
6.8584	0.107
6.89263	0.134
6.92686	0.241
6.96108	0.231
6.99531	0.291
7.02954	0.349
7.06377	0.361
7.098	0.297
7.13222	0.318
7.16645	0.383
7.20068	0.338
7.23491	0.352
7.26914	0.41
7.30337	0.499
7.33759	0.551
7.37182	0.571
7.40605	0.586
7.44028	0.598
7.47451	0.588
7.50873	0.531
7.54296	0.421
7.57719	0.383
7.61142	0.343
7.64565	0.34
7.67988	0.382
7.7141	0.489
7.74833	0.428
7.78256	0.354
7.81679	0.311
7.85102	0.368
7.88524	0.429
7.91947	0.433
7.9537	0.437
7.98793	0.34
8.02216	0.319
8.05639	0.367
8.09061	0.352
8.12484	0.365
8.15907	0.31
8.1933	0.296
8.22753	0.376
8.26175	0.481
8.29598	0.545
8.33021	0.578
8.36444	0.598
8.39867	0.609
8.43289	0.608
8.46712	0.597
8.50135	0.588
8.53558	0.59
8.56981	0.595
8.60404	0.559
8.63826	0.528
8.67249	0.526
8.70672	0.564
8.74095	0.455
8.77518	0.484
8.8094	0.56
8.84363	0.466
8.87786	0.387
8.91209	0.451
8.94632	0.509
8.98055	0.446
9.01477	0.362
9.049	0.461
9.08323	0.485
9.11746	0.476
9.15169	0.501
9.18591	0.536
9.22014	0.571
9.25437	0.611
9.2886	0.631
9.32283	0.652
9.35706	0.644
9.39128	0.616
9.42551	0.605
9.45974	0.597
9.49397	0.581
9.5282	0.576
9.56242	0.56
9.59665	0.553
9.63088	0.54
9.66511	0.503
9.69934	0.525
9.73357	0.589
9.76779	0.614
9.80202	0.623
9.83625	0.628
9.87048	0.627
9.90471	0.556
9.93893	0.559
9.97316	0.614
10.0074	0.63
10.0416	0.655
10.0758	0.664
10.1101	0.666
10.1443	0.669
10.1785	0.669
10.2128	0.667
10.247	0.652
10.2812	0.62
10.3154	0.506
10.3497	0.449
10.3839	0.444
10.4181	0.511
10.4524	0.586
10.4866	0.62
10.5208	0.648
10.555	0.659
10.5893	0.667
10.6235	0.653
10.6577	0.588
10.692	0.445
10.7262	0.357
10.7604	0.373
10.7946	0.437
10.8289	0.526
10.8631	0.595
10.8973	0.626
10.9316	0.649
10.9658	0.672
11	0.681
11.0342	0.689
11.0685	0.704
11.1027	0.708
11.1369	0.715
11.1711	0.717
11.2054	0.72
11.2396	0.709
11.2738	0.693
11.3081	0.666
11.3423	0.586
11.3765	0.566
11.4107	0.576
11.445	0.62
11.4792	0.665
11.5134	0.688
11.5477	0.699
11.5819	0.706
11.6161	0.714
11.6503	0.7
11.6846	0.656
11.7188	0.623
11.753	0.634
11.7873	0.637
11.8215	0.632
11.8557	0.633
11.8899	0.658
11.9242	0.664
11.9584	0.643
11.9926	0.595
12.0269	0.614
12.0611	0.666
12.0953	0.71
12.1295	0.725
12.1638	0.727
12.198	0.728
12.2322	0.717
12.2664	0.675
12.3007	0.633
12.3349	0.567
12.3691	0.465
12.4034	0.341
12.4376	0.255
12.4718	0.334
12.506	0.427
12.5403	0.525
12.5745	0.609
12.6087	0.626
12.643	0.665
12.6772	0.684
12.7114	0.705
12.7456	0.715
12.7799	0.713
12.8141	0.72
12.8483	0.719
12.8826	0.709
12.9168	0.694
12.951	0.676
12.9852	0.672
13.0195	0.694
13.0537	0.703
13.0879	0.705
13.1222	0.699
13.1564	0.693
13.1906	0.669
13.2248	0.626
13.2591	0.543
13.2933	0.429
13.3275	0.383
13.3618	0.319
13.396	0.284
13.4302	0.294
13.4644	0.277
13.4987	0.299
13.5329	0.417
13.5671	0.492
13.6013	0.493
13.6356	0.493
13.6698	0.506
13.704	0.532
13.7383	0.561
13.7725	0.589
13.8067	0.609
13.8409	0.637
13.8752	0.649
13.9094	0.666
13.9436	0.691
13.9779	0.705
14.0121	0.716
14.0463	0.73
14.0805	0.73
14.1148	0.731
14.149	0.733
14.1832	0.735
14.2175	0.739
14.2517	0.737
14.2859	0.727
14.3201	0.733
14.3544	0.737
14.3886	0.752
14.4228	0.757
14.4571	0.768
14.4913	0.766
14.5255	0.768
14.5597	0.769
14.594	0.768
14.6282	0.766
14.6624	0.763
14.6966	0.754
14.7309	0.727
14.7651	0.713
14.7993	0.704
14.8336	0.732
