Infrared Spectrum: SULFONYL-O,M'-DIBENZOIC ACID, DIPHENACYL ESTER
Formula: C30 H22 O8 S
State: SOLID (NUJOL MULL)
Class: COBLENTZ
Instrument: Not specified, most likely a prism, grating, or hybrid spectrometer.
Sampling: TRANSMISSION
Resolution: 4
Origin: TENNESSEE EASTMAN COMPANY, RESEARCH LABORATORIES
MICROMETERS	TRANSMITTANCE
2.023	0.564
2.06181	0.565
2.10062	0.565
2.13943	0.567
2.17824	0.57
2.21706	0.575
2.25587	0.575
2.29468	0.575
2.33349	0.575
2.3723	0.578
2.41111	0.591
2.44992	0.6
2.48873	0.608
2.52754	0.619
2.56636	0.629
2.60517	0.635
2.64398	0.642
2.68279	0.652
2.7216	0.658
2.76041	0.663
2.79922	0.668
2.83803	0.671
2.87684	0.673
2.91566	0.673
2.95447	0.679
2.99328	0.679
3.03209	0.682
3.0709	0.684
3.10971	0.687
3.14852	0.687
3.18733	0.684
3.22614	0.678
3.26496	0.648
3.30377	0.613
3.34258	0.406
3.38139	0.13
3.4202	0.073
3.45901	0.068
3.49782	0.087
3.53663	0.515
3.57544	0.736
3.61426	0.773
3.65307	0.78
3.69188	0.778
3.73069	0.778
3.7695	0.782
3.80831	0.783
3.84712	0.79
3.88593	0.798
3.92474	0.813
3.96356	0.834
4.00237	0.84
4.04118	0.842
4.07999	0.845
4.1188	0.848
4.15761	0.852
4.19642	0.852
4.23523	0.863
4.27404	0.869
4.31286	0.876
4.35167	0.878
4.39048	0.879
4.42929	0.881
4.4681	0.887
4.50691	0.899
4.54572	0.9
4.58453	0.902
4.62334	0.91
4.66216	0.913
4.70097	0.918
4.73978	0.921
4.77859	0.93
4.8174	0.936
4.85621	0.939
4.89502	0.941
4.93383	0.943
4.97264	0.944
5.01146	0.944
5.05027	0.944
5.08908	0.943
5.12789	0.947
5.1667	0.951
5.20551	0.956
5.24432	0.959
5.28313	0.96
5.32194	0.964
5.36076	0.975
5.39957	0.978
5.43838	0.978
5.47719	0.978
5.516	0.982
5.55481	0.985
5.59362	0.986
5.63243	0.986
5.67124	0.954
5.71006	0.83
5.74887	0.463
5.78768	0.382
5.82649	0.728
5.8653	0.58
5.90411	0.271
5.94292	0.518
5.98173	0.686
6.02054	0.798
6.05936	0.832
6.09817	0.865
6.13698	0.899
6.17579	0.913
6.2146	0.917
6.25341	0.692
6.29222	0.726
6.33103	0.801
6.36984	0.856
6.40866	0.913
6.44747	0.943
6.48628	0.946
6.52509	0.949
6.5639	0.951
6.60271	0.951
6.64152	0.943
6.68033	0.912
6.71914	0.822
6.75796	0.653
6.79677	0.338
6.83558	0.276
6.87439	0.297
6.9132	0.482
6.95201	0.632
6.99082	0.624
7.02963	0.621
7.06844	0.786
7.10726	0.848
7.14607	0.861
7.18488	0.801
7.22369	0.534
7.2625	0.341
7.30131	0.442
7.34012	0.5
7.37893	0.736
7.41774	0.8
7.45656	0.811
7.49537	0.798
7.53418	0.728
7.57299	0.526
7.6118	0.281
7.65061	0.349
7.68942	0.326
7.72823	0.456
7.76704	0.408
7.80586	0.26
7.84467	0.351
7.88348	0.411
7.92229	0.413
7.9611	0.546
7.99991	0.577
8.03872	0.586
8.07753	0.401
8.11634	0.269
8.15516	0.367
8.19397	0.557
8.23278	0.66
8.27159	0.734
8.3104	0.798
8.34921	0.819
8.38802	0.824
8.42683	0.806
8.46564	0.785
8.50446	0.788
8.54327	0.785
8.58208	0.718
8.62089	0.505
8.6597	0.359
8.69851	0.417
8.73732	0.333
8.77613	0.346
8.81494	0.341
8.85376	0.4
8.89257	0.473
8.93138	0.437
8.97019	0.492
9.009	0.562
9.04781	0.6
9.08662	0.647
9.12543	0.684
9.16424	0.692
9.20306	0.673
9.24187	0.596
9.28068	0.656
9.31949	0.736
9.3583	0.786
9.39711	0.79
9.43592	0.804
9.47473	0.843
9.51354	0.861
9.55236	0.869
9.59117	0.868
9.62998	0.843
9.66879	0.845
9.7076	0.834
9.74641	0.827
9.78522	0.801
9.82403	0.804
9.86284	0.845
9.90166	0.834
9.94047	0.73
9.97928	0.759
10.0181	0.814
10.0569	0.843
10.0957	0.86
10.1345	0.868
10.1733	0.868
10.2121	0.868
10.251	0.855
10.2898	0.832
10.3286	0.749
10.3674	0.668
10.4062	0.547
10.445	0.517
10.4838	0.593
10.5226	0.699
10.5614	0.765
10.6003	0.813
10.6391	0.835
10.6779	0.85
10.7167	0.853
10.7555	0.861
10.7943	0.887
10.8331	0.904
10.8719	0.917
10.9107	0.92
10.9496	0.92
10.9884	0.939
11.0272	0.952
11.066	0.959
11.1048	0.964
11.1436	0.969
11.1824	0.97
11.2212	0.969
11.26	0.969
11.2989	0.97
11.3377	0.977
11.3765	0.98
11.4153	0.98
11.4541	0.98
11.4929	0.98
11.5317	0.982
11.5705	0.982
11.6093	0.977
11.6482	0.941
11.687	0.855
11.7258	0.842
11.7646	0.86
11.8034	0.907
11.8422	0.943
11.881	0.954
11.9198	0.957
11.9586	0.962
11.9975	0.965
12.0363	0.965
12.0751	0.965
12.1139	0.967
12.1527	0.965
12.1915	0.915
12.2303	0.845
12.2691	0.843
12.3079	0.843
12.3468	0.845
12.3856	0.861
12.4244	0.908
12.4632	0.944
12.502	0.952
12.5408	0.954
12.5796	0.954
12.6184	0.931
12.6572	0.808
12.6961	0.78
12.7349	0.865
12.7737	0.913
12.8125	0.936
12.8513	0.931
12.8901	0.855
12.9289	0.752
12.9677	0.705
13.0065	0.666
13.0454	0.564
13.0842	0.541
13.123	0.619
13.1618	0.6
13.2006	0.52
13.2394	0.513
13.2782	0.512
13.317	0.601
13.3558	0.65
13.3947	0.648
13.4335	0.65
13.4723	0.712
13.5111	0.77
13.5499	0.803
13.5887	0.814
13.6275	0.817
13.6663	0.817
13.7051	0.806
13.744	0.734
13.7828	0.634
13.8216	0.582
13.8604	0.609
13.8992	0.704
13.938	0.76
13.9768	0.788
14.0156	0.793
14.0544	0.765
14.0933	0.7
14.1321	0.673
14.1709	0.679
14.2097	0.734
14.2485	0.77
14.2873	0.796
14.3261	0.803
14.3649	0.803
14.4037	0.769
14.4426	0.699
14.4814	0.63
14.5202	0.614
14.559	0.621
14.5978	0.629
14.6366	0.611
14.6754	0.551
14.7142	0.504
14.753	0.492
14.7919	0.497
14.8307	0.525
14.8695	0.559
14.9083	0.569
14.9471	0.591
14.9859	0.616
15.0247	0.674
15.0635	0.705
15.1023	0.72
15.1412	0.72
15.18	0.718
15.2188	0.718
15.2576	0.718
15.2964	0.718
15.3352	0.723
15.374	0.726
15.4128	0.726
15.4516	0.726
15.4905	0.725
15.5293	0.725
15.5681	0.726
15.6069	0.726
15.6457	0.73
15.6845	0.73
15.7233	0.733
15.7621	0.734
15.8009	0.738
15.8398	0.738
15.8786	0.739
15.9174	0.741
15.9562	0.743
15.995	0.744
