Infrared Spectrum: Butyramide, 2,2,3,3,4,4,4-heptafluoro-,
Formula: C3 H2 F7 N O
State: SOLID (OIL MULL)
Class: COBLENTZ III
Instrument: BAIRD (GRATING)
Instrument parameters: NaCl PRISM
Path length: CAPILLARY
Resolution: 2
Origin: WYANDOTTE CHEMICALS CORP.
1/CM	TRANSMITTANCE
626	0.5773
635	0.5406
644	0.5237
653	0.5694
662	0.6332
671	0.6195
680	0.7002
689	0.8128
698	0.8487
707	0.8454
716	0.8041
725	0.7789
734	0.7185
743	0.5142
752	0.5067
761	0.6612
770	0.8035
779	0.6918
788	0.5017
797	0.572
806	0.6952
815	0.7443
824	0.8134
833	0.8865
842	0.9118
851	0.9185
860	0.9208
869	0.9244
878	0.9251
887	0.9251
896	0.9111
905	0.8663
914	0.7329
923	0.2127
932	0.3901
941	0.7207
950	0.7584
959	0.7192
968	0.76
977	0.8163
986	0.8369
995	0.8307
1004	0.8238
1013	0.794
1022	0.7608
1031	0.7444
1040	0.7553
1049	0.7486
1058	0.7386
1067	0.7068
1076	0.6493
1085	0.572
1094	0.4318
1103	0.2812
1112	0.2307
1121	0.1207
1130	0.0591
1139	0.1505
1148	0.1645
1157	0.0917
1166	0.1287
1175	0.0864
1184	0.069
1193	0.1857
1202	0.2726
1211	0.1185
1220	0.0452
1229	0.0374
1238	0.0485
1247	0.0811
1256	0.1804
1265	0.2864
1274	0.3356
1283	0.2366
1292	0.1426
1301	0.3218
1310	0.4037
1319	0.4426
1328	0.4365
1337	0.3526
1346	0.1495
1355	0.1728
1364	0.4653
1373	0.4932
1382	0.4463
1391	0.5984
1400	0.6762
1409	0.6661
1418	0.6465
1427	0.5726
1436	0.4275
1445	0.4145
1454	0.4113
1463	0.3559
1472	0.346
1481	0.5076
1490	0.6477
1499	0.7214
1508	0.7517
1517	0.7701
1526	0.7945
1535	0.8093
1544	0.8039
1553	0.7887
1562	0.7865
1571	0.7709
1580	0.7643
1589	0.7483
1598	0.7355
1607	0.7033
1616	0.6344
1625	0.4327
1634	0.2654
1643	0.4321
1652	0.5348
1661	0.4616
1670	0.4103
1679	0.2539
1688	0.1498
1697	0.0925
1706	0.0736
1715	0.0759
1724	0.0994
1733	0.1718
1742	0.2605
1751	0.3388
1760	0.479
1769	0.5687
1778	0.6232
1787	0.6661
1796	0.6921
1805	0.7115
1814	0.7265
1823	0.7387
1832	0.7477
1841	0.7576
1850	0.7731
1859	0.7912
1868	0.8006
1877	0.808
1886	0.8125
1895	0.8163
1904	0.8185
1913	0.8208
1922	0.8229
1931	0.825
1940	0.8273
1949	0.8296
1958	0.8314
1967	0.8333
1976	0.8351
1985	0.8371
1994	0.84
2003	0.8419
2012	0.8427
2021	0.8425
2030	0.8422
2039	0.8415
2048	0.8408
2057	0.8403
2066	0.8399
2075	0.8394
2084	0.8385
2093	0.8374
2102	0.8363
2111	0.8352
2120	0.834
2129	0.8325
2138	0.8311
2147	0.8297
2156	0.8288
2165	0.8284
2174	0.8279
2183	0.8268
2192	0.8251
2201	0.8233
2210	0.8215
2219	0.8198
2228	0.8178
2237	0.8157
2246	0.8136
2255	0.8114
2264	0.8086
2273	0.8058
2282	0.803
2291	0.7989
2300	0.7938
2309	0.7888
2318	0.7843
2327	0.7822
2336	0.7816
2345	0.783
2354	0.7851
2363	0.7844
2372	0.7813
2381	0.7779
2390	0.7744
2399	0.771
2408	0.7685
2417	0.7661
2426	0.7657
2435	0.7658
2444	0.7658
2453	0.7668
2462	0.7679
2471	0.7681
2480	0.7682
2489	0.7678
2498	0.7664
2507	0.7636
2516	0.7596
2525	0.755
2534	0.7531
2543	0.7516
2552	0.7509
2561	0.7503
2570	0.7496
2579	0.7481
2588	0.7464
2597	0.7441
2606	0.741
2615	0.7367
2624	0.7323
2633	0.7277
2642	0.7231
2651	0.7175
2660	0.7118
2669	0.7057
2678	0.6963
2687	0.6867
2696	0.6764
2705	0.6742
2714	0.6737
2723	0.6728
2732	0.6717
2741	0.6646
2750	0.6504
2759	0.6323
2768	0.611
2777	0.5848
2786	0.5365
2795	0.4656
2804	0.3336
2813	0.2131
2822	0.1283
2831	0.1364
2840	0.1465
2849	0.1335
2858	0.1139
2867	0.0945
2876	0.0751
2885	0.0579
2894	0.0528
2903	0.0529
2912	0.0553
2921	0.0643
2930	0.0846
2939	0.1529
2948	0.2257
2957	0.2981
2966	0.37
2975	0.4415
2984	0.5126
2993	0.5832
3002	0.6146
3011	0.6168
3020	0.6159
3029	0.6127
3038	0.6086
3047	0.6041
3056	0.5995
3065	0.5919
3074	0.5811
3083	0.5687
3092	0.5533
3101	0.5287
3110	0.4971
3119	0.4391
3128	0.3729
3137	0.3072
3146	0.2418
3155	0.2028
3164	0.2049
3173	0.2213
3182	0.2382
3191	0.2536
3200	0.2631
3209	0.2734
3218	0.2845
3227	0.2958
3236	0.314
3245	0.3341
3254	0.3454
3263	0.3401
3272	0.3058
3281	0.2698
3290	0.234
3299	0.1983
3308	0.1628
3317	0.1376
3326	0.1552
3335	0.1987
3344	0.2419
3353	0.2849
3362	0.3277
3371	0.367
3380	0.3864
3389	0.4217
3398	0.485
3407	0.5277
3416	0.549
3425	0.577
3434	0.5903
3443	0.6009
3452	0.6095
3461	0.6178
3470	0.626
3479	0.6332
3488	0.6394
3497	0.6456
3506	0.6517
3515	0.6575
3524	0.6623
3533	0.667
3542	0.6716
3551	0.6763
3560	0.6794
3569	0.6816
3578	0.6838
3587	0.686
3596	0.6873
3605	0.6882
3614	0.689
3623	0.6897
3632	0.6905
3641	0.6909
3650	0.6914
3659	0.6918
3668	0.6922
3677	0.6927
3686	0.6931
3695	0.6933
3704	0.6932
3713	0.6932
3722	0.6931
3731	0.6931
3740	0.6931
3749	0.693
3758	0.693
3767	0.6929
3776	0.6929
3785	0.6928
3794	0.6924
3803	0.692
3812	0.6915
3821	0.691
3830	0.6905
3839	0.69
3848	0.6895
3857	0.689
3866	0.6885
3875	0.6881
3884	0.6874
3893	0.6867
3902	0.6861
3911	0.6854
3920	0.6847
3929	0.6841
3938	0.6834
3947	0.6827
3956	0.6821
3965	0.6815
3974	0.6808
3983	0.6802
3992	0.6795
