Infrared Spectrum: PHENANTHRENE, 2-METHYL-D3-
Formula: C15 H9 D3
State: SOLUTION (146 g/L IN HEPTANE)
Class: COBLENTZ
Instrument: Not specified, most likely a prism, grating, or hybrid spectrometer.
Sampling: TRANSMISSION
Path length: 0.05 CM
Resolution: 4
Origin: CENTRE D'ETUDES NUCLEAIRES DE GRENOBLE
MICROMETERS	TRANSMITTANCE
14.841	0.649
14.8967	0.503
14.9524	0.417
15.0082	0.496
15.0639	0.595
15.1196	0.716
15.1753	0.793
15.231	0.839
15.2867	0.863
15.3425	0.879
15.3982	0.89
15.4539	0.9
15.5096	0.913
15.5653	0.917
15.6211	0.917
15.6768	0.913
15.7325	0.923
15.7882	0.929
15.8439	0.929
15.8996	0.927
15.9554	0.923
16.0111	0.923
16.0668	0.919
16.1225	0.904
16.1782	0.886
16.234	0.877
16.2897	0.875
16.3454	0.879
16.4011	0.881
16.4568	0.885
16.5125	0.885
16.5683	0.888
16.624	0.888
16.6797	0.881
16.7354	0.85
16.7911	0.787
16.8469	0.66
16.9026	0.551
16.9583	0.511
17.014	0.524
17.0697	0.628
17.1254	0.737
17.1812	0.806
17.2369	0.871
17.2926	0.892
17.3483	0.906
17.404	0.921
17.4598	0.929
17.5155	0.927
17.5712	0.921
17.6269	0.902
17.6826	0.844
17.7383	0.779
17.7941	0.71
17.8498	0.695
17.9055	0.737
17.9612	0.775
18.0169	0.798
18.0727	0.808
18.1284	0.818
18.1841	0.835
18.2398	0.873
18.2955	0.911
18.3513	0.944
18.407	0.952
18.4627	0.952
18.5184	0.95
18.5741	0.948
18.6298	0.946
18.6856	0.942
18.7413	0.942
18.797	0.942
18.8527	0.944
18.9084	0.944
18.9642	0.946
19.0199	0.95
19.0756	0.952
19.1313	0.957
19.187	0.961
19.2427	0.965
19.2985	0.959
19.3542	0.944
19.4099	0.932
19.4656	0.909
19.5213	0.858
19.5771	0.787
19.6328	0.718
19.6885	0.674
19.7442	0.668
19.7999	0.699
19.8556	0.754
19.9114	0.775
19.9671	0.773
20.0228	0.741
20.0785	0.71
20.1342	0.731
20.19	0.779
20.2457	0.839
20.3014	0.894
20.3571	0.919
20.4128	0.946
20.4685	0.957
20.5243	0.965
20.58	0.969
20.6357	0.971
20.6914	0.973
20.7471	0.973
20.8029	0.973
20.8586	0.971
20.9143	0.969
20.97	0.965
21.0257	0.961
21.0814	0.955
21.1372	0.952
21.1929	0.946
21.2486	0.942
21.3043	0.938
21.36	0.932
21.4158	0.929
21.4715	0.923
21.5272	0.913
21.5829	0.894
21.6386	0.863
21.6943	0.821
21.7501	0.758
21.8058	0.659
21.8615	0.557
21.9172	0.478
21.9729	0.45
22.0287	0.461
22.0844	0.513
22.1401	0.595
22.1958	0.664
22.2515	0.722
22.3072	0.77
22.363	0.789
22.4187	0.796
22.4744	0.783
22.5301	0.76
22.5858	0.729
22.6416	0.697
22.6973	0.649
22.753	0.57
22.8087	0.505
22.8644	0.408
22.9201	0.279
22.9759	0.226
23.0316	0.116
23.0873	0.057
23.143	0.022
23.1987	0
23.2545	0.001
23.3102	0.03
23.3659	0.084
23.4216	0.155
23.4773	0.235
23.533	0.323
23.5888	0.406
23.6445	0.494
23.7002	0.58
23.7559	0.659
23.8116	0.689
23.8674	0.731
23.9231	0.758
23.9788	0.785
24.0345	0.829
24.0902	0.85
24.146	0.869
24.2017	0.89
24.2574	0.906
24.3131	0.915
24.3688	0.923
24.4245	0.931
24.4803	0.938
24.536	0.948
24.5917	0.95
24.6474	0.954
24.7031	0.957
24.7589	0.961
24.8146	0.967
24.8703	0.969
24.926	0.967
24.9817	0.965
25.0374	0.961
25.0932	0.965
25.1489	0.967
25.2046	0.971
25.2603	0.971
25.316	0.971
25.3718	0.971
25.4275	0.969
25.4832	0.969
25.5389	0.977
25.5946	0.988
25.6503	0.996
25.7061	0.992
25.7618	0.986
25.8175	0.988
25.8732	0.992
25.9289	0.992
25.9847	0.99
26.0404	0.975
26.0961	0.957
26.1518	0.954
26.2075	0.95
26.2632	0.946
26.319	0.944
26.3747	0.948
26.4304	0.95
26.4861	0.955
26.5418	0.969
26.5976	0.975
26.6533	0.98
26.709	0.996
26.7647	1.003
26.8204	1.005
26.8761	1.007
26.9319	1.009
26.9876	1.017
27.0433	1.019
27.099	1.021
27.1547	1.021
27.2105	1.022
27.2662	1.026
27.3219	1.03
27.3776	1.03
27.4333	1.03
27.489	1.028
27.5448	1.026
27.6005	1.032
27.6562	1.034
27.7119	1.032
27.7676	1.032
27.8234	1.036
27.8791	1.03
27.9348	1.034
27.9905	1.036
28.0462	1.036
28.1019	1.036
28.1577	1.049
28.2134	1.051
28.2691	1.036
28.3248	1.036
28.3805	1.044
28.4363	1.042
28.492	1.042
28.5477	1.045
28.6034	1.042
28.6591	1.049
28.7148	1.053
28.7706	1.045
28.8263	1.042
28.882	1.04
28.9377	1.038
28.9934	1.042
29.0492	1.044
29.1049	1.045
29.1606	1.045
29.2163	1.047
29.272	1.044
29.3277	1.044
29.3835	1.042
29.4392	1.044
29.4949	1.044
29.5506	1.044
29.6063	1.045
29.6621	1.049
29.7178	1.047
29.7735	1.044
29.8292	1.051
29.8849	1.051
29.9407	1.047
29.9964	1.047
30.0521	1.045
30.1078	1.045
30.1635	1.045
30.2192	1.047
30.275	1.051
30.3307	1.053
30.3864	1.053
30.4421	1.049
30.4978	1.049
30.5536	1.051
30.6093	1.053
30.665	1.053
30.7207	1.053
30.7764	1.053
30.8321	1.053
30.8879	1.053
30.9436	1.055
30.9993	1.055
31.055	1.055
31.1107	1.051
31.1665	1.044
31.2222	1.042
31.2779	1.044
31.3336	1.044
31.3893	1.042
31.445	1.04
31.5008	1.04
31.5565	1.036
31.6122	1.036
31.6679	1.036
31.7236	1.034
31.7794	1.036
31.8351	1.03
31.8908	1.022
31.9465	1.026
32.0022	1.024
32.0579	1.017
32.1137	1.003
32.1694	0.998
32.2251	0.99
32.2808	0.982
32.3365	0.975
32.3923	0.969
32.448	0.954
32.5037	0.936
32.5594	0.925
32.6151	0.909
32.6708	0.888
32.7266	0.871
32.7823	0.854
32.838	0.846
32.8937	0.84
32.9494	0.837
33.0052	0.837
33.0609	0.842
33.1166	0.844
33.1723	0.848
33.228	0.863
33.2837	0.89
33.3395	0.898
33.3952	0.902
33.4509	0.913
33.5066	0.927
33.5623	0.957
33.6181	0.954
33.6738	0.955
33.7295	0.965
33.7852	0.969
33.8409	0.977
33.8966	0.98
33.9524	0.984
34.0081	0.986
34.0638	0.992
34.1195	1
34.1752	1.001
34.231	1.003
34.2867	1.003
34.3424	1.003
34.3981	1.005
34.4538	1.005
34.5095	1.007
34.5653	1.009
34.621	1.011
34.6767	1.015
34.7324	1.009
34.7881	1.005
34.8439	1.001
34.8996	1.001
34.9553	0.996
35.011	0.99
