Infrared Spectrum: BENTONE 27
Formula: O11 Al2 Si4  * 2 H2 O
State: SOLID (0.3 mg / 300 mg CsI DISC) PLUS OIL
Class: COBLENTZ III
Instrument: BECKMAN IR-12 (GRATING)
Instrument parameters: GRATING BLAZED AT 3330, 1330, 445, 220 CM^-^1
Sampling: TRANSMISSION
Resolution: 4
Origin: DESOTO CHEMICAL COATINGS, INC.
1/CM	TRANSMITTANCE
200	0.763
210.659	0.763
221.318	0.764
231.976	0.763
242.635	0.761
253.294	0.76
263.953	0.755
274.611	0.748
285.27	0.738
295.929	0.73
306.588	0.728
317.247	0.71
327.905	0.692
338.564	0.684
349.223	0.672
359.882	0.643
370.54	0.614
381.199	0.568
391.858	0.536
402.517	0.576
413.176	0.61
423.834	0.58
434.493	0.499
445.152	0.357
455.811	0.194
466.469	0.157
477.128	0.2968
487.787	0.489
498.446	0.56
509.105	0.629
519.763	0.65
530.422	0.638
541.081	0.7199
551.74	0.808
562.398	0.843
573.057	0.863
583.716	0.888
594.375	0.899
605.034	0.902
615.692	0.904
626.351	0.903
637.01	0.899
647.669	0.882
658.327	0.847
668.986	0.856
679.645	0.864
690.304	0.876
700.963	0.879
711.621	0.862
722.28	0.896
732.939	0.891
743.598	0.902
754.256	0.927
764.915	0.939
775.574	0.943
786.233	0.937
796.892	0.935
807.55	0.942
818.209	0.953
828.868	0.957
839.527	0.955
850.185	0.955
860.844	0.942
871.503	0.925
882.162	0.899
892.821	0.902
903.479	0.911
914.138	0.904
924.797	0.896
935.456	0.879
946.114	0.84
956.773	0.7511
967.432	0.5901
978.091	0.396
988.75	0.219
999.408	0.124
1010.07	0.089
1020.73	0.108
1031.38	0.2229
1042.04	0.369
1052.7	0.409
1063.36	0.3721
1074.02	0.327
1084.68	0.349
1095.34	0.464
1106	0.546
1116.65	0.6339
1127.31	0.701
1137.97	0.744
1148.63	0.775
1159.29	0.791
1169.95	0.805
1180.61	0.82
1191.27	0.832
1201.93	0.84
1212.58	0.851
1223.24	0.85
1233.9	0.862
1244.56	0.864
1255.22	0.867
1265.88	0.87
1276.54	0.875
1287.2	0.872
1297.85	0.88
1308.51	0.878
1319.17	0.879
1329.83	0.878
1340.49	0.879
1351.15	0.872
1361.81	0.874
1372.47	0.868
1383.12	0.867
1393.78	0.867
1404.44	0.862
1415.1	0.835
1425.76	0.807
1436.42	0.771
1447.08	0.752
1457.74	0.737
1468.39	0.738
1479.05	0.751
1489.71	0.771
1500.37	0.801
1511.03	0.831
1521.69	0.848
1532.35	0.856
1543.01	0.86
1553.66	0.862
1564.32	0.863
1574.98	0.863
1585.64	0.86
1596.3	0.856
1606.96	0.846
1617.62	0.838
1628.28	0.838
1638.93	0.842
1649.59	0.848
1660.25	0.851
1670.91	0.854
1681.57	0.856
1692.23	0.854
1702.89	0.858
1713.55	0.858
1724.21	0.863
1734.86	0.862
1745.52	0.862
1756.18	0.862
1766.84	0.863
1777.5	0.862
1788.16	0.86
1798.82	0.858
1809.48	0.858
1820.13	0.86
1830.79	0.86
1841.45	0.858
1852.11	0.86
1862.77	0.859
1873.43	0.856
1884.09	0.858
1894.75	0.852
1905.4	0.851
1916.06	0.851
1926.72	0.851
1937.38	0.851
1948.04	0.851
1958.7	0.848
1969.36	0.85
1980.02	0.85
1990.67	0.848
2001.33	0.8465
2011.99	0.843
2022.65	0.842
2033.31	0.8395
2043.97	0.838
2054.63	0.838
2065.29	0.836
2075.94	0.834
2086.6	0.834
2097.26	0.834
2107.92	0.832
2118.58	0.8332
2129.24	0.8314
2139.9	0.8302
2150.56	0.831
2161.22	0.8298
2171.87	0.828
2182.53	0.828
2193.19	0.825
2203.85	0.8244
2214.51	0.8233
2225.17	0.823
2235.83	0.823
2246.49	0.822
2257.14	0.8193
2267.8	0.816
2278.46	0.815
2289.12	0.813
2299.78	0.813
2310.44	0.812
2321.1	0.811
2331.76	0.811
2342.41	0.8073
2353.07	0.803
2363.73	0.801
2374.39	0.801
2385.05	0.8
2395.71	0.803
2406.37	0.801
2417.03	0.8
2427.68	0.8
2438.34	0.799
2449	0.796
2459.66	0.7952
2470.32	0.793
2480.98	0.793
2491.64	0.793
2502.3	0.7911
2512.95	0.7889
2523.61	0.791
2534.27	0.788
2544.93	0.783
2555.59	0.785
2566.25	0.7841
2576.91	0.783
2587.57	0.7772
2598.22	0.776
2608.88	0.78
2619.54	0.777
2630.2	0.776
2640.86	0.772
2651.52	0.772
2662.18	0.7749
2672.84	0.771
2683.5	0.768
2694.15	0.768
2704.81	0.764
2715.47	0.764
2726.13	0.764
2736.79	0.763
2747.45	0.761
2758.11	0.76
2768.77	0.757
2779.42	0.7548
2790.08	0.752
2800.74	0.753
2811.4	0.7519
2822.06	0.7459
2832.72	0.7409
2843.38	0.683
2854.04	0.6221
2864.69	0.6502
2875.35	0.6894
2886.01	0.6939
2896.67	0.6877
2907.33	0.6768
2917.99	0.5828
2928.65	0.5451
2939.31	0.5818
2949.96	0.6412
2960.62	0.6506
2971.28	0.6698
2981.94	0.6856
2992.6	0.6924
3003.26	0.696
3013.92	0.697
3024.58	0.698
3035.23	0.7
3045.89	0.7
3056.55	0.7
3067.21	0.7
3077.87	0.7
3088.53	0.698
3099.19	0.698
3109.85	0.697
3120.5	0.696
3131.16	0.694
3141.82	0.694
3152.48	0.693
3163.14	0.69
3173.8	0.686
3184.46	0.684
3195.12	0.682
3205.78	0.682
3216.43	0.681
3227.09	0.6776
3237.75	0.674
3248.41	0.673
3259.07	0.6712
3269.73	0.668
3280.39	0.665
3291.05	0.6607
3301.7	0.6576
3312.36	0.6541
3323.02	0.65
3333.68	0.6455
3344.34	0.642
3355	0.639
3365.66	0.6335
3376.32	0.6265
3386.97	0.6225
3397.63	0.621
3408.29	0.616
3418.95	0.612
3429.61	0.61
3440.27	0.607
3450.93	0.6065
3461.59	0.606
3472.24	0.605
3482.9	0.605
3493.56	0.6038
3504.22	0.605
3514.88	0.606
3525.54	0.607
3536.2	0.609
3546.86	0.613
3557.51	0.614
3568.17	0.615
3578.83	0.615
3589.49	0.617
3600.15	0.619
3610.81	0.6197
3621.47	0.621
3632.13	0.621
3642.79	0.6217
3653.44	0.622
3664.1	0.6244
3674.76	0.623
3685.42	0.6116
3696.08	0.6124
3706.74	0.617
3717.4	0.618
3728.06	0.618
3738.71	0.619
3749.37	0.622
3760.03	0.621
3770.69	0.619
3781.35	0.6182
3792.01	0.618
3802.67	0.618
3813.33	0.617
3823.98	0.614
3834.64	0.613
3845.3	0.613
3855.96	0.613
3866.62	0.611
3877.28	0.61
3887.94	0.607
3898.6	0.606
3909.25	0.605
3919.91	0.6021
3930.57	0.6011
3941.23	0.601
3951.89	0.599
3962.55	0.598
3973.21	0.5952
3983.87	0.595
