Infrared Spectrum: TOLYLHYDROQUINONE
Formula: C13 H12 O2
State: SOLID (0.7% IN KBr PELLET)
Class: COBLENTZ
Instrument: Not specified, most likely a prism, grating, or hybrid spectrometer.
Sampling: TRANSMISSION
Path length: 0.0355 CM THICK
Resolution: 4
Origin: ANDERSON PHYSICAL LABORATORY
1/CM	TRANSMITTANCE
671.135	0.559
679.551	0.542
687.968	0.536
696.384	0.532
704.801	0.53
713.217	0.515
721.634	0.479
730.05	0.476
738.467	0.565
746.883	0.59
755.3	0.557
763.716	0.4911
772.133	0.454
780.549	0.4909
788.966	0.688
797.382	0.686
805.798	0.634
814.215	0.529
822.631	0.445
831.048	0.626
839.464	0.73
847.881	0.739
856.297	0.724
864.714	0.692
873.13	0.652
881.547	0.599
889.963	0.6889
898.38	0.728
906.796	0.718
915.213	0.704
923.629	0.688
932.046	0.664
940.462	0.655
948.878	0.652
957.295	0.637
965.711	0.652
974.128	0.64
982.544	0.629
990.961	0.608
999.377	0.595
1007.79	0.596
1016.21	0.616
1024.63	0.631
1033.04	0.626
1041.46	0.619
1049.88	0.62
1058.29	0.62
1066.71	0.626
1075.13	0.635
1083.54	0.641
1091.96	0.56
1100.37	0.511
1108.79	0.479
1117.21	0.461
1125.62	0.491
1134.04	0.472
1142.46	0.436
1150.87	0.386
1159.29	0.335
1167.71	0.335
1176.12	0.334
1184.54	0.2861
1192.96	0.218
1201.37	0.166
1209.79	0.173
1218.21	0.2809
1226.62	0.439
1235.04	0.478
1243.45	0.488
1251.87	0.563
1260.29	0.631
1268.7	0.64
1277.12	0.619
1285.54	0.593
1293.95	0.572
1302.37	0.58
1310.79	0.539
1319.2	0.464
1327.62	0.397
1336.04	0.389
1344.45	0.467
1352.87	0.496
1361.29	0.46
1369.7	0.3701
1378.12	0.302
1386.53	0.289
1394.95	0.29
1403.37	0.35
1411.78	0.419
1420.2	0.473
1428.62	0.544
1437.03	0.571
1445.45	0.587
1453.87	0.592
1462.28	0.572
1470.7	0.512
1479.12	0.464
1487.53	0.431
1495.95	0.398
1504.37	0.319
1512.78	0.323
1521.2	0.4449
1529.61	0.535
1538.03	0.644
1546.45	0.71
1554.86	0.767
1563.28	0.775
1571.7	0.796
1580.11	0.799
1588.53	0.799
1596.95	0.794
1605.36	0.758
1613.78	0.7
1622.2	0.709
1630.61	0.727
1639.03	0.761
1647.45	0.823
1655.86	0.835
1664.28	0.835
1672.69	0.835
1681.11	0.832
1689.53	0.832
1697.94	0.832
1706.36	0.829
1714.78	0.827
1723.19	0.824
1731.61	0.823
1740.03	0.817
1748.44	0.817
1756.86	0.824
1765.28	0.826
1773.69	0.827
1782.11	0.824
1790.53	0.824
1798.94	0.824
1807.36	0.82
1815.77	0.817
1824.19	0.808
1832.61	0.803
1841.02	0.796
1849.44	0.785
1857.86	0.778
1866.27	0.796
1874.69	0.806
1883.11	0.805
1891.52	0.803
1899.94	0.803
1908.36	0.802
1916.77	0.799
1925.19	0.794
1933.61	0.791
1942.02	0.788
1950.44	0.787
1958.85	0.785
1967.27	0.782
1975.69	0.781
1984.1	0.782
1992.52	0.781
2000.94	0.7745
2009.35	0.773
2017.77	0.772
2026.19	0.769
2034.6	0.769
2043.02	0.768
2051.44	0.767
2059.85	0.764
2068.27	0.764
2076.69	0.764
2085.1	0.764
2093.52	0.763
2101.93	0.7602
2110.35	0.7545
2118.77	0.752
2127.18	0.749
2135.6	0.748
2144.02	0.7445
2152.43	0.743
2160.85	0.74
2169.27	0.739
2177.68	0.738
2186.1	0.737
2194.52	0.7359
2202.93	0.7324
2211.35	0.729
2219.77	0.7255
2228.18	0.722
2236.6	0.7204
2245.01	0.7169
2253.43	0.716
2261.85	0.7149
2270.26	0.7114
2278.68	0.709
2287.1	0.7036
2295.51	0.6979
2303.93	0.6863
2312.35	0.6765
2320.76	0.6732
2329.18	0.673
2337.6	0.6724
2346.01	0.671
2354.43	0.671
2362.85	0.671
2371.26	0.671
2379.68	0.6704
2388.09	0.6684
2396.51	0.6649
2404.93	0.6617
2413.34	0.6563
2421.76	0.6492
2430.18	0.6468
2438.59	0.6377
2447.01	0.6314
2455.43	0.6255
2463.84	0.623
2472.26	0.622
2480.68	0.622
2489.09	0.62
2497.51	0.6169
2505.93	0.6114
2514.34	0.6016
2522.76	0.596
2531.17	0.5927
2539.59	0.5867
2548.01	0.5853
2556.42	0.5832
2564.84	0.581
2573.26	0.581
2581.67	0.581
2590.09	0.581
2598.51	0.5779
2606.92	0.577
2615.34	0.577
2623.76	0.577
2632.17	0.575
2640.59	0.5729
2649.01	0.5662
2657.42	0.5633
2665.84	0.5588
2674.25	0.5553
2682.67	0.5492
2691.09	0.5441
2699.5	0.5377
2707.92	0.5326
2716.34	0.532
2724.75	0.53
2733.17	0.529
2741.59	0.529
2750	0.529
2758.42	0.527
2766.84	0.5258
2775.25	0.5236
2783.67	0.523
2792.09	0.5201
2800.5	0.5167
2808.92	0.5099
2817.33	0.5041
2825.75	0.502
2834.17	0.4987
2842.58	0.4941
2851	0.488
2859.42	0.488
2867.83	0.4849
2876.25	0.4778
2884.67	0.475
2893.08	0.4721
2901.5	0.4686
2909.92	0.461
2918.33	0.454
2926.75	0.4511
2935.16	0.449
2943.58	0.448
2952	0.4454
2960.41	0.4394
2968.83	0.4326
2977.25	0.4258
2985.66	0.4213
2994.08	0.4151
3002.5	0.4087
3010.91	0.4066
3019.33	0.404
3027.75	0.4031
3036.16	0.3997
3044.58	0.3932
3053	0.386
3061.41	0.3733
3069.83	0.3625
3078.24	0.3488
3086.66	0.3366
3095.08	0.3283
3103.49	0.3103
3111.91	0.2997
3120.33	0.2862
3128.74	0.2665
3137.16	0.2503
3145.58	0.236
3153.99	0.2206
3162.41	0.2054
3170.83	0.1957
3179.24	0.1794
3187.66	0.1699
3196.08	0.1632
3204.49	0.1548
3212.91	0.1516
3221.32	0.1496
3229.74	0.148
3238.16	0.148
3246.57	0.148
3254.99	0.148
3263.41	0.149
3271.82	0.1512
3280.24	0.154
3288.66	0.154
3297.07	0.155
3305.49	0.1572
3313.91	0.1605
3322.32	0.1681
3330.74	0.176
3339.16	0.1859
3347.57	0.1994
3355.99	0.2088
3364.4	0.2227
3372.82	0.2373
3381.24	0.2548
3389.65	0.2756
3398.07	0.2977
3406.49	0.3215
3414.9	0.3493
3423.32	0.3686
3431.74	0.3908
3440.15	0.4158
3448.57	0.4427
3456.99	0.4691
3465.4	0.4959
3473.82	0.5184
3482.24	0.5378
3490.65	0.5648
3499.07	0.587
3507.48	0.6092
3515.9	0.6294
3524.32	0.643
3532.73	0.652
3541.15	0.6565
3549.57	0.6715
3557.98	0.6767
3566.4	0.683
3574.82	0.6888
3583.23	0.694
3591.65	0.6965
3600.07	0.698
3608.48	0.7
3616.9	0.701
3625.32	0.701
3633.73	0.701
3642.15	0.7007
3650.56	0.7
3658.98	0.6985
3667.4	0.698
3675.81	0.6977
3684.23	0.697
3692.65	0.697
3701.06	0.695
3709.48	0.6935
3717.9	0.692
3726.31	0.692
3734.73	0.692
3743.15	0.691
3751.56	0.6885
3759.98	0.6834
3768.4	0.676
3776.81	0.6737
3785.23	0.673
3793.64	0.673
3802.06	0.671
3810.48	0.6694
3818.89	0.6675
3827.31	0.667
3835.73	0.667
3844.14	0.667
3852.56	0.667
3860.98	0.667
3869.39	0.667
3877.81	0.667
3886.23	0.6659
3894.64	0.6642
3903.06	0.6609
3911.48	0.6574
3919.89	0.6524
3928.31	0.6504
3936.72	0.649
3945.14	0.6484
3953.56	0.647
3961.97	0.647
3970.39	0.647
3978.81	0.647
3987.22	0.647
3995.64	0.647
