Infrared Spectrum: CD3-3-PHENANTHRENE
Formula: C15 H9 D3
State: SOLID (1% IN KBr)
Class: COBLENTZ
Instrument: Not specified, most likely a prism, grating, or hybrid spectrometer.
Sampling: TRANSMISSION
Resolution: 4
Origin: CENTRE D'ETUDES NUCLEAIRES DE GRENOBLE
MICROMETERS	TRANSMITTANCE
1.978	0.058
2.01806	0.058
2.05812	0.06
2.09819	0.061
2.13825	0.065
2.17831	0.068
2.21837	0.071
2.25843	0.075
2.29849	0.076
2.33856	0.08
2.37862	0.081
2.41868	0.085
2.45874	0.088
2.4988	0.09
2.53886	0.095
2.57893	0.098
2.61899	0.103
2.65905	0.108
2.69911	0.113
2.73917	0.12
2.77923	0.128
2.8193	0.133
2.85936	0.14
2.89942	0.146
2.93948	0.153
2.97954	0.158
3.0196	0.163
3.05967	0.173
3.09973	0.181
3.13979	0.191
3.17985	0.206
3.21991	0.225
3.25997	0.213
3.30004	0.158
3.3401	0.145
3.38016	0.193
3.42022	0.215
3.46028	0.225
3.50035	0.25
3.54041	0.26
3.58047	0.281
3.62053	0.296
3.66059	0.306
3.70065	0.318
3.74072	0.331
3.78078	0.34
3.82084	0.346
3.8609	0.353
3.90096	0.361
3.94102	0.37
3.98109	0.378
4.02115	0.385
4.06121	0.393
4.10127	0.405
4.14133	0.408
4.18139	0.415
4.22146	0.426
4.26152	0.416
4.30158	0.431
4.34164	0.431
4.3817	0.441
4.42176	0.448
4.46183	0.448
4.50189	0.423
4.54195	0.44
4.58201	0.425
4.62207	0.465
4.66213	0.478
4.7022	0.453
4.74226	0.468
4.78232	0.485
4.82238	0.496
4.86244	0.485
4.90251	0.476
4.94257	0.511
4.98263	0.526
5.02269	0.54
5.06275	0.548
5.10281	0.558
5.14288	0.535
5.18294	0.535
5.223	0.521
5.26306	0.508
5.30312	0.541
5.34318	0.566
5.38325	0.576
5.42331	0.59
5.46337	0.566
5.50343	0.556
5.54349	0.56
5.58355	0.578
5.62362	0.583
5.66368	0.588
5.70374	0.576
5.7438	0.606
5.78386	0.583
5.82392	0.593
5.86399	0.605
5.90405	0.613
5.94411	0.581
5.98417	0.613
6.02423	0.611
6.06429	0.625
6.10436	0.598
6.14442	0.578
6.18448	0.496
6.22454	0.463
6.2646	0.375
6.30467	0.53
6.34473	0.591
6.38479	0.591
6.42485	0.626
6.46491	0.628
6.50497	0.65
6.54504	0.636
6.5851	0.661
6.62516	0.538
6.66522	0.493
6.70528	0.591
6.74534	0.66
6.78541	0.683
6.82547	0.69
6.86553	0.676
6.90559	0.315
6.94565	0.581
6.98571	0.621
7.02578	0.423
7.06584	0.516
7.1059	0.635
7.14596	0.595
7.18602	0.633
7.22608	0.676
7.26615	0.673
7.30621	0.685
7.34627	0.671
7.38633	0.66
7.42639	0.643
7.46646	0.716
7.50652	0.711
7.54658	0.73
7.58664	0.748
7.6267	0.765
7.66676	0.776
7.70683	0.673
7.74689	0.551
7.78695	0.686
7.82701	0.738
7.86707	0.75
7.90713	0.745
7.9472	0.725
7.98726	0.715
8.02732	0.63
8.06738	0.62
8.10744	0.71
8.1475	0.756
8.18757	0.703
8.22763	0.628
8.26769	0.648
8.30775	0.571
8.34781	0.671
8.38787	0.711
8.42794	0.763
8.468	0.793
8.50806	0.798
8.54812	0.801
8.58818	0.748
8.62824	0.716
8.66831	0.778
8.70837	0.635
8.74843	0.4
8.78849	0.61
8.82855	0.721
8.86862	0.746
8.90868	0.756
8.94874	0.756
8.9888	0.741
9.02886	0.758
9.06892	0.761
9.10899	0.698
9.14905	0.705
9.18911	0.755
9.22917	0.765
9.26923	0.775
9.30929	0.788
9.34936	0.79
9.38942	0.786
9.42948	0.783
9.46954	0.748
9.5096	0.691
9.54966	0.641
9.58973	0.586
9.62979	0.551
9.66985	0.688
9.70991	0.75
9.74997	0.765
9.79003	0.745
9.8301	0.73
9.87016	0.766
9.91022	0.791
9.95028	0.808
9.99034	0.816
10.0304	0.83
10.0705	0.835
10.1105	0.838
10.1506	0.851
10.1907	0.851
10.2307	0.846
10.2708	0.841
10.3108	0.851
10.3509	0.845
10.391	0.856
10.431	0.868
10.4711	0.846
10.5111	0.773
10.5512	0.55
10.5913	0.72
10.6313	0.841
10.6714	0.868
10.7115	0.878
10.7515	0.875
10.7916	0.876
10.8316	0.871
10.8717	0.85
10.9118	0.728
10.9518	0.286
10.9919	0.356
11.0319	0.63
11.072	0.765
11.1121	0.84
11.1521	0.866
11.1922	0.88
11.2323	0.886
11.2723	0.886
11.3124	0.868
11.3524	0.856
11.3925	0.666
11.4326	0.333
11.4726	0.213
11.5127	0.461
11.5527	0.543
11.5928	0.485
11.6329	0.228
11.6729	0.396
11.713	0.566
11.7531	0.69
11.7931	0.736
11.8332	0.776
11.8732	0.783
11.9133	0.773
11.9534	0.733
11.9934	0.691
12.0335	0.536
12.0736	0.346
12.1136	0.101
12.1537	0.04
12.1937	0.065
12.2338	0.225
12.2739	0.413
12.3139	0.526
12.354	0.603
12.394	0.696
12.4341	0.728
12.4742	0.758
12.5142	0.778
12.5543	0.798
12.5944	0.81
12.6344	0.835
12.6745	0.846
12.7145	0.846
12.7546	0.846
12.7947	0.841
12.8347	0.816
12.8748	0.788
12.9148	0.82
12.9549	0.835
12.995	0.853
13.035	0.871
13.0751	0.873
13.1152	0.866
13.1552	0.853
13.1953	0.808
13.2353	0.756
13.2754	0.52
13.3155	0.208
13.3555	0.076
13.3956	0.05
13.4357	0.095
13.4757	0.196
13.5158	0.313
13.5558	0.431
13.5959	0.563
13.636	0.681
13.676	0.761
13.7161	0.8
13.7561	0.831
13.7962	0.855
13.8363	0.865
13.8763	0.88
13.9164	0.883
13.9565	0.871
13.9965	0.855
14.0366	0.861
14.0766	0.84
14.1167	0.575
14.1568	0.308
14.1968	0.333
14.2369	0.561
14.2769	0.72
14.317	0.8
14.3571	0.85
14.3971	0.876
14.4372	0.883
14.4773	0.898
14.5173	0.901
14.5574	0.901
14.5974	0.905
14.6375	0.913
14.6776	0.91
14.7176	0.908
14.7577	0.906
14.7977	0.89
14.8378	0.845
14.8779	0.786
14.9179	0.806
14.958	0.84
14.9981	0.853
15.0381	0.891
15.0782	0.908
15.1182	0.928
15.1583	0.931
15.1984	0.926
15.2384	0.933
15.2785	0.935
15.3186	0.931
15.3586	0.93
15.3987	0.935
15.4387	0.943
15.4788	0.945
15.5189	0.94
15.5589	0.935
15.599	0.941
15.639	0.946
15.6791	0.951
15.7192	0.946
15.7592	0.95
15.7993	0.948
15.8394	0.945
15.8794	0.945
