Infrared Spectrum: 5-AMINO-7-OXO-1,2,3,4,6-PENTAZAINDENE
Formula: C4 H2 N6 O
State: SOLID (KBr PRESSING)
Melting point: ABOVE 300 C
Class: COBLENTZ
Instrument: Not specified, most likely a prism, grating, or hybrid spectrometer.
Sampling: TRANSMISSION
Resolution: 4
Origin: EASTMAN KODAK COMPANY, RESEARCH LABORATORIES, ROCHESTER, N.Y.
MICROMETERS	TRANSMITTANCE
2.033	0.804
2.06805	0.8
2.10311	0.8
2.13816	0.802
2.17321	0.807
2.20827	0.811
2.24332	0.811
2.27837	0.812
2.31342	0.814
2.34848	0.818
2.38353	0.819
2.41858	0.819
2.45364	0.819
2.48869	0.819
2.52374	0.826
2.5588	0.832
2.59385	0.833
2.6289	0.842
2.66396	0.847
2.69901	0.839
2.73406	0.797
2.76911	0.701
2.80417	0.613
2.83922	0.534
2.87427	0.48
2.90933	0.43
2.94438	0.368
2.97943	0.365
3.01449	0.431
3.04954	0.48
3.08459	0.463
3.11965	0.423
3.1547	0.419
3.18975	0.433
3.22481	0.452
3.25986	0.461
3.29491	0.494
3.32996	0.531
3.36502	0.517
3.40007	0.484
3.43512	0.473
3.47018	0.475
3.50523	0.498
3.54028	0.526
3.57534	0.527
3.61039	0.529
3.64544	0.555
3.6805	0.585
3.71555	0.604
3.7506	0.634
3.78565	0.655
3.82071	0.695
3.85576	0.723
3.89081	0.746
3.92587	0.76
3.96092	0.769
3.99597	0.781
4.03103	0.791
4.06608	0.8
4.10113	0.814
4.13619	0.823
4.17124	0.826
4.20629	0.835
4.24134	0.847
4.2764	0.863
4.31145	0.858
4.3465	0.849
4.38156	0.853
4.41661	0.861
4.45166	0.863
4.48672	0.865
4.52177	0.867
4.55682	0.868
4.59188	0.868
4.62693	0.87
4.66198	0.87
4.69704	0.872
4.73209	0.874
4.76714	0.874
4.80219	0.877
4.83725	0.879
4.8723	0.879
4.90735	0.879
4.94241	0.882
4.97746	0.889
5.01251	0.891
5.04757	0.882
5.08262	0.884
5.11767	0.881
5.15273	0.881
5.18778	0.882
5.22283	0.879
5.25788	0.874
5.29294	0.87
5.32799	0.877
5.36304	0.879
5.3981	0.877
5.43315	0.874
5.4682	0.87
5.50326	0.863
5.53831	0.849
5.57336	0.854
5.60842	0.847
5.64347	0.835
5.67852	0.809
5.71357	0.781
5.74863	0.695
5.78368	0.538
5.81873	0.381
5.85379	0.328
5.88884	0.293
5.92389	0.286
5.95895	0.3
5.994	0.255
6.02905	0.183
6.06411	0.201
6.09916	0.272
6.13421	0.339
6.16927	0.36
6.20432	0.302
6.23937	0.288
6.27442	0.339
6.30948	0.468
6.34453	0.543
6.37958	0.571
6.41464	0.575
6.44969	0.601
6.48474	0.617
6.5198	0.617
6.55485	0.653
6.5899	0.711
6.62496	0.748
6.66001	0.758
6.69506	0.688
6.73011	0.748
6.76517	0.767
6.80022	0.774
6.83527	0.763
6.87033	0.73
6.90538	0.641
6.94043	0.701
6.97549	0.73
7.01054	0.755
7.04559	0.762
7.08065	0.744
7.1157	0.699
7.15075	0.657
7.1858	0.632
7.22086	0.594
7.25591	0.58
7.29096	0.606
7.32602	0.632
7.36107	0.666
7.39612	0.699
7.43118	0.75
7.46623	0.769
7.50128	0.795
7.53634	0.798
7.57139	0.802
7.60644	0.805
7.6415	0.8
7.67655	0.765
7.7116	0.664
7.74665	0.659
7.78171	0.72
7.81676	0.744
7.85181	0.741
7.88687	0.729
7.92192	0.729
7.95697	0.737
7.99203	0.748
8.02708	0.75
8.06213	0.744
8.09719	0.743
8.13224	0.76
8.16729	0.781
8.20234	0.793
8.2374	0.781
8.27245	0.732
8.3075	0.694
8.34256	0.678
8.37761	0.69
8.41266	0.704
8.44772	0.727
8.48277	0.727
8.51782	0.715
8.55288	0.695
8.58793	0.695
8.62298	0.697
8.65803	0.711
8.69309	0.713
8.72814	0.681
8.76319	0.68
8.79825	0.706
8.8333	0.727
8.86835	0.732
8.90341	0.727
8.93846	0.73
8.97351	0.727
9.00857	0.732
9.04362	0.737
9.07867	0.746
9.11373	0.748
9.14878	0.75
9.18383	0.76
9.21888	0.767
9.25394	0.774
9.28899	0.777
9.32404	0.786
9.3591	0.788
9.39415	0.795
9.4292	0.797
9.46426	0.791
9.49931	0.79
9.53436	0.784
9.56942	0.786
9.60447	0.784
9.63952	0.772
9.67457	0.762
9.70963	0.762
9.74468	0.774
9.77973	0.781
9.81479	0.786
9.84984	0.8
9.88489	0.805
9.91995	0.811
9.955	0.804
9.99005	0.798
10.0251	0.795
10.0602	0.791
10.0952	0.783
10.1303	0.73
10.1653	0.662
10.2004	0.669
10.2354	0.762
10.2705	0.8
10.3055	0.818
10.3406	0.823
10.3756	0.83
10.4107	0.84
10.4457	0.842
10.4808	0.84
10.5158	0.842
10.5509	0.844
10.586	0.846
10.621	0.846
10.6561	0.842
10.6911	0.842
10.7262	0.842
10.7612	0.842
10.7963	0.84
10.8313	0.832
10.8664	0.819
10.9014	0.805
10.9365	0.798
10.9715	0.79
11.0066	0.774
11.0416	0.765
11.0767	0.76
11.1118	0.751
11.1468	0.75
11.1819	0.746
11.2169	0.743
11.252	0.748
11.287	0.75
11.3221	0.744
11.3571	0.739
11.3922	0.743
11.4272	0.751
11.4623	0.756
11.4973	0.753
11.5324	0.734
11.5674	0.702
11.6025	0.685
11.6375	0.699
11.6726	0.692
11.7077	0.681
11.7427	0.678
11.7778	0.692
11.8128	0.702
11.8479	0.711
11.8829	0.73
11.918	0.737
11.953	0.753
11.9881	0.763
12.0231	0.777
12.0582	0.788
12.0932	0.793
12.1283	0.791
12.1633	0.793
12.1984	0.793
12.2335	0.797
12.2685	0.8
12.3036	0.8
12.3386	0.798
12.3737	0.797
12.4087	0.791
12.4438	0.791
12.4788	0.791
12.5139	0.786
12.5489	0.769
12.584	0.739
12.619	0.713
12.6541	0.722
12.6891	0.722
12.7242	0.734
12.7592	0.756
12.7943	0.776
12.8294	0.774
12.8644	0.772
12.8995	0.772
12.9345	0.767
12.9696	0.765
13.0046	0.76
13.0397	0.751
13.0747	0.737
13.1098	0.732
13.1448	0.727
13.1799	0.727
13.2149	0.73
13.25	0.734
13.285	0.736
13.3201	0.741
13.3551	0.75
13.3902	0.753
13.4253	0.763
13.4603	0.772
13.4954	0.772
13.5304	0.767
13.5655	0.77
13.6005	0.777
13.6356	0.783
13.6706	0.788
13.7057	0.798
13.7407	0.802
13.7758	0.8
13.8108	0.8
13.8459	0.804
13.8809	0.8
13.916	0.793
13.9511	0.783
13.9861	0.784
14.0212	0.776
14.0562	0.753
14.0913	0.716
14.1263	0.685
14.1614	0.671
14.1964	0.655
14.2315	0.622
14.2665	0.589
14.3016	0.555
14.3366	0.527
14.3717	0.517
14.4067	0.536
14.4418	0.603
14.4768	0.667
14.5119	0.699
14.547	0.708
14.582	0.715
14.6171	0.716
14.6521	0.722
14.6872	0.722
14.7222	0.723
14.7573	0.729
14.7923	0.732
14.8274	0.737
14.8624	0.743
14.8975	0.746
14.9325	0.76
14.9676	0.765
15.0026	0.756
15.0377	0.75
15.0728	0.755
15.1078	0.755
15.1429	0.755
15.1779	0.755
15.213	0.755
15.248	0.756
15.2831	0.758
15.3181	0.762
15.3532	0.769
15.3882	0.77
15.4233	0.772
15.4583	0.772
15.4934	0.77
15.5284	0.772
15.5635	0.774
15.5985	0.772
15.6336	0.772
15.6687	0.772
15.7037	0.774
15.7388	0.776
15.7738	0.779
15.8089	0.784
15.8439	0.784
15.879	0.786
15.914	0.783
15.9491	0.783
