Infrared Spectrum: ACETIC ACID, SULFO (BUTYLAMINE SALT)
Formula: C6 H15 N O5 S
State: SOLID (PELLET)
Class: COBLENTZ
Instrument: Not specified, most likely a prism, grating, or hybrid spectrometer.
Sampling: TRANSMISSION
Resolution: 4
Origin: TENNESSEE EASTMAN COMPANY, RESEARCH LABORATORIES
MICROMETERS	TRANSMITTANCE
2.013	0.72
2.05298	0.72
2.09296	0.722
2.13295	0.723
2.17293	0.725
2.21291	0.732
2.25289	0.733
2.29287	0.738
2.33285	0.742
2.37284	0.75
2.41282	0.755
2.4528	0.76
2.49278	0.768
2.53276	0.772
2.57275	0.773
2.61273	0.775
2.65271	0.782
2.69269	0.783
2.73267	0.78
2.77265	0.735
2.81264	0.692
2.85262	0.647
2.8926	0.602
2.93258	0.579
2.97256	0.59
3.01254	0.615
3.05253	0.612
3.09251	0.544
3.13249	0.414
3.17247	0.307
3.21245	0.244
3.25244	0.193
3.29242	0.141
3.3324	0.123
3.37238	0.111
3.41236	0.151
3.45234	0.241
3.49233	0.354
3.53231	0.467
3.57229	0.549
3.61227	0.592
3.65225	0.62
3.69224	0.653
3.73222	0.675
3.7722	0.675
3.81218	0.66
3.85216	0.647
3.89214	0.695
3.93213	0.708
3.97211	0.735
4.01209	0.768
4.05207	0.788
4.09205	0.816
4.13203	0.841
4.17202	0.855
4.212	0.858
4.25198	0.863
4.29196	0.863
4.33194	0.866
4.37193	0.886
4.41191	0.898
4.45189	0.903
4.49187	0.911
4.53185	0.913
4.57183	0.92
4.61182	0.923
4.6518	0.923
4.69178	0.926
4.73176	0.926
4.77174	0.925
4.81173	0.925
4.85171	0.925
4.89169	0.925
4.93167	0.92
4.97165	0.911
5.01163	0.918
5.05162	0.911
5.0916	0.91
5.13158	0.913
5.17156	0.911
5.21154	0.911
5.25153	0.915
5.29151	0.915
5.33149	0.915
5.37147	0.913
5.41145	0.91
5.45143	0.895
5.49142	0.89
5.5314	0.881
5.57138	0.886
5.61136	0.885
5.65134	0.84
5.69132	0.457
5.73131	0.098
5.77129	0.437
5.81127	0.692
5.85125	0.77
5.89123	0.783
5.93122	0.831
5.9712	0.843
6.01118	0.845
6.05116	0.836
6.09114	0.805
6.13112	0.79
6.17111	0.772
6.21109	0.727
6.25107	0.71
6.29105	0.697
6.33103	0.7
6.37102	0.718
6.411	0.783
6.45098	0.805
6.49096	0.816
6.53094	0.815
6.57092	0.778
6.61091	0.722
6.65089	0.618
6.69087	0.504
6.73085	0.594
6.77083	0.613
6.81082	0.625
6.8508	0.695
6.89078	0.742
6.93076	0.762
6.97074	0.743
7.01072	0.652
7.05071	0.673
7.09069	0.69
7.13067	0.612
7.17065	0.44
7.21063	0.247
7.25061	0.148
7.2906	0.116
7.33058	0.149
7.37056	0.181
7.41054	0.179
7.45052	0.292
7.49051	0.475
7.53049	0.594
7.57047	0.703
7.61045	0.753
7.65043	0.77
7.69041	0.745
7.7304	0.675
7.77038	0.6
7.81036	0.55
7.85034	0.49
7.89032	0.264
7.93031	0.169
7.97029	0.264
8.01027	0.256
8.05025	0.329
8.09023	0.264
8.13021	0.267
8.1702	0.487
8.21018	0.56
8.25016	0.522
8.29014	0.301
8.33012	0.111
8.3701	0.059
8.41009	0.104
8.45007	0.294
8.49005	0.442
8.53003	0.547
8.57001	0.599
8.61	0.672
8.64998	0.74
8.68996	0.805
8.72994	0.848
8.76992	0.865
8.8099	0.891
8.84989	0.903
8.88987	0.903
8.92985	0.876
8.96983	0.803
9.00981	0.806
9.0498	0.848
9.08978	0.885
9.12976	0.92
9.16974	0.92
9.20972	0.915
9.2497	0.881
9.28969	0.861
9.32967	0.861
9.36965	0.863
9.40963	0.797
9.44961	0.529
9.4896	0.141
9.52958	0.151
9.56956	0.269
9.60954	0.123
9.64952	0.326
9.6895	0.645
9.72949	0.742
9.76947	0.797
9.80945	0.818
9.84943	0.826
9.88941	0.823
9.92939	0.826
9.96938	0.87
10.0094	0.916
10.0493	0.936
10.0893	0.94
10.1293	0.943
10.1693	0.953
10.2093	0.965
10.2492	0.968
10.2892	0.966
10.3292	0.965
10.3692	0.968
10.4092	0.973
10.4492	0.976
10.4891	0.976
10.5291	0.973
10.5691	0.968
10.6091	0.958
10.6491	0.946
10.689	0.93
10.729	0.893
10.769	0.831
10.809	0.788
10.849	0.825
10.889	0.85
10.9289	0.84
10.9689	0.772
11.0089	0.75
11.0489	0.793
11.0889	0.84
11.1288	0.871
11.1688	0.883
11.2088	0.883
11.2488	0.886
11.2888	0.911
11.3288	0.923
11.3687	0.925
11.4087	0.925
11.4487	0.923
11.4887	0.913
11.5287	0.905
11.5686	0.896
11.6086	0.888
11.6486	0.878
11.6886	0.866
11.7286	0.86
11.7686	0.858
11.8085	0.855
11.8485	0.855
11.8885	0.858
11.9285	0.87
11.9685	0.89
12.0084	0.896
12.0484	0.893
12.0884	0.753
12.1284	0.608
12.1684	0.549
12.2084	0.584
12.2483	0.668
12.2883	0.72
12.3283	0.728
12.3683	0.727
12.4083	0.708
12.4482	0.683
12.4882	0.668
12.5282	0.663
12.5682	0.663
12.6082	0.683
12.6482	0.702
12.6881	0.728
12.7281	0.745
12.7681	0.775
12.8081	0.793
12.8481	0.815
12.888	0.833
12.928	0.85
12.968	0.861
13.008	0.881
13.048	0.89
13.088	0.898
13.1279	0.901
13.1679	0.903
13.2079	0.903
13.2479	0.905
13.2879	0.905
13.3278	0.905
13.3678	0.905
13.4078	0.903
13.4478	0.901
13.4878	0.888
13.5278	0.876
13.5677	0.871
13.6077	0.87
13.6477	0.9
13.6877	0.933
13.7277	0.94
13.7676	0.94
13.8076	0.933
13.8476	0.921
13.8876	0.925
13.9276	0.94
13.9676	0.973
14.0075	1
14.0475	1.013
14.0875	1.013
14.1275	1.014
14.1675	1.014
14.2074	1.014
14.2474	1.014
14.2874	1.013
14.3274	1.008
14.3674	1.006
14.4074	1.008
14.4473	1.006
14.4873	1.003
14.5273	1.001
14.5673	1.001
14.6073	1
14.6472	0.998
14.6872	1
14.7272	0.998
14.7672	1
14.8072	1
14.8472	1.001
14.8871	1.001
14.9271	1.001
14.9671	0.996
15.0071	0.985
15.0471	0.976
15.087	0.98
15.127	0.981
15.167	0.978
15.207	0.97
15.247	0.96
15.287	0.95
15.3269	0.935
15.3669	0.916
15.4069	0.9
15.4469	0.883
15.4869	0.858
15.5268	0.833
15.5668	0.803
15.6068	0.76
15.6468	0.703
15.6868	0.642
15.7268	0.599
15.7667	0.579
15.8067	0.572
15.8467	0.572
15.8867	0.574
15.9267	0.579
15.9666	0.585
