Infrared Spectrum: 3-Indazolinone, 6-amino-, dihydrochloride
Formula: C7 H9 Cl2 N3 O
State: SOLID (SPLIT MULL), FLUOROLUBE FOR 3800-1330 CM^-^1, NUJOL FOR 1330-400 CM^-^1
Melting point: 283 C (SLOWLY DECOMPOSES)
Class: COBLENTZ III
Instrument: BECKMAN IR-9 (GRATING)
Instrument parameters: ORDER CHANGES: 670, 1200, 2000 CM^-^1
Sampling: TRANSMISSION
Resolution: 2
Origin: DOW CHEMICAL COMPANY
1/CM	TRANSMITTANCE
3808	0.3991
3799	0.4023
3790	0.4058
3781	0.4096
3772	0.4139
3763	0.4167
3754	0.4192
3745	0.4216
3736	0.4242
3727	0.4268
3718	0.4293
3709	0.4316
3700	0.434
3691	0.4362
3682	0.4387
3673	0.4412
3664	0.4445
3655	0.4476
3646	0.4509
3637	0.454
3628	0.4573
3619	0.4607
3610	0.4642
3601	0.4676
3592	0.471
3583	0.4744
3574	0.4778
3565	0.4812
3556	0.4846
3547	0.488
3538	0.4914
3529	0.4949
3520	0.4989
3511	0.5027
3502	0.5066
3493	0.5105
3484	0.5148
3475	0.5195
3466	0.5243
3457	0.5291
3448	0.5356
3439	0.5435
3430	0.5512
3421	0.5584
3412	0.5655
3403	0.5718
3394	0.5779
3385	0.5842
3376	0.5908
3367	0.5969
3358	0.6021
3349	0.6066
3340	0.6107
3331	0.6141
3322	0.6158
3313	0.6159
3304	0.6146
3295	0.61
3286	0.604
3277	0.5952
3268	0.5829
3259	0.5686
3250	0.5472
3241	0.518
3232	0.4944
3223	0.4664
3214	0.4118
3205	0.3708
3196	0.3033
3187	0.2349
3178	0.1743
3169	0.1739
3160	0.1832
3151	0.1909
3142	0.1908
3133	0.1854
3124	0.1794
3115	0.1719
3106	0.164
3097	0.1557
3088	0.1384
3079	0.1115
3070	0.097
3061	0.0943
3052	0.0897
3043	0.0799
3034	0.0706
3025	0.0659
3016	0.0651
3007	0.0633
2998	0.0563
2989	0.0466
2980	0.045
2971	0.0471
2962	0.0484
2953	0.0493
2944	0.0487
2935	0.0431
2926	0.036
2917	0.0289
2908	0.0242
2899	0.0199
2890	0.0175
2881	0.0168
2872	0.0167
2863	0.0181
2854	0.0191
2845	0.0205
2836	0.022
2827	0.0234
2818	0.025
2809	0.0265
2800	0.0285
2791	0.0309
2782	0.0365
2773	0.041
2764	0.044
2755	0.0445
2746	0.0447
2737	0.0442
2728	0.0433
2719	0.0423
2710	0.0413
2701	0.0417
2692	0.0431
2683	0.0448
2674	0.0464
2665	0.0475
2656	0.0486
2647	0.0491
2638	0.0493
2629	0.0491
2620	0.0458
2611	0.0364
2602	0.0331
2593	0.0327
2584	0.0325
2575	0.0345
2566	0.0367
2557	0.0396
2548	0.0425
2539	0.0454
2530	0.0482
2521	0.051
2512	0.0536
2503	0.0551
2494	0.0528
2485	0.0444
2476	0.0421
2467	0.0449
2458	0.0502
2449	0.049
2440	0.0463
2431	0.0448
2422	0.045
2413	0.0471
2404	0.0511
2395	0.0555
2386	0.0652
2377	0.1104
2368	0.121
2359	0.122
2350	0.1338
2341	0.143
2332	0.1472
2323	0.1534
2314	0.1606
2305	0.1682
2296	0.1777
2287	0.1892
2278	0.2007
2269	0.2163
2260	0.2315
2251	0.2465
2242	0.2604
2233	0.2743
2224	0.2881
2215	0.301
2206	0.3132
2197	0.3234
2188	0.3289
2179	0.3378
2170	0.3532
2161	0.3694
2152	0.3862
2143	0.3994
2134	0.4124
2125	0.4252
2116	0.4356
2107	0.4459
2098	0.456
2089	0.4662
2080	0.4764
2071	0.4881
2062	0.4984
2053	0.508
2044	0.5177
2035	0.5289
2026	0.5379
2017	0.5423
2008	0.5362
1999	0.533
1990	0.5412
1981	0.5556
1972	0.5639
1963	0.5636
1954	0.5698
1945	0.5655
1936	0.5629
1927	0.565
1918	0.5718
1909	0.582
1900	0.5906
1891	0.6004
1882	0.6103
1873	0.6187
1864	0.6287
1855	0.6396
1846	0.6449
1837	0.6555
1828	0.6674
1819	0.6755
1810	0.6867
1801	0.6956
1792	0.6996
1783	0.7018
1774	0.7139
1765	0.7245
1756	0.7343
1747	0.7481
1738	0.7592
1729	0.7601
1720	0.7575
1711	0.7721
1702	0.7796
1693	0.7945
1684	0.7961
1675	0.8061
1666	0.7578
1657	0.631
1648	0.1137
1639	0.2271
1630	0.0791
1621	0.0693
1612	0.3414
1603	0.2818
1594	0.1361
1585	0.3051
1576	0.3899
1567	0.3621
1558	0.3818
1549	0.3959
1540	0.3775
1531	0.2967
1522	0.3973
1513	0.47
1504	0.4628
1495	0.3547
1486	0.3493
1477	0.3552
1468	0.0399
1459	0.0453
1450	0.1399
1441	0.3058
1432	0.392
1423	0.4325
1414	0.4578
1405	0.4668
1396	0.446
1387	0.3391
1378	0.4332
1369	0.5069
1360	0.4888
1351	0.3039
1342	0.1366
1333	0.3584
1324	0.5662
1315	0.535
1306	0.1815
1297	0.2871
1288	0.4893
1279	0.2474
1270	0.3752
1261	0.568
1252	0.6046
1243	0.5873
1234	0.5648
1225	0.595
1216	0.6438
1207	0.648
1198	0.6162
1189	0.5531
1180	0.5452
1171	0.2174
1162	0.518
1153	0.5352
1144	0.5484
1135	0.2541
1126	0.2626
1117	0.556
1108	0.6465
1099	0.3169
1090	0.4135
1081	0.6625
1072	0.7138
1063	0.7376
1054	0.7547
1045	0.7671
1036	0.7775
1027	0.7915
1018	0.7896
1009	0.7856
1000	0.7735
991	0.7755
982	0.7875
973	0.7937
964	0.7961
955	0.7865
946	0.5748
937	0.7988
928	0.8213
919	0.8343
910	0.8398
901	0.8278
892	0.8275
883	0.8411
874	0.824
865	0.7646
856	0.7671
847	0.7381
838	0.5929
829	0.4779
820	0.408
811	0.1723
802	0.5164
793	0.5259
784	0.4356
775	0.4916
766	0.6905
757	0.6368
748	0.7211
739	0.7247
730	0.6711
721	0.6519
712	0.6921
703	0.7771
694	0.7821
685	0.8341
676	0.829
667	0.7647
658	0.2951
649	0.8978
640	0.9058
631	0.8737
622	0.8875
613	0.8958
604	0.8525
595	0.8684
586	0.7132
577	0.5622
568	0.6384
559	0.758
550	0.7995
541	0.7244
532	0.6206
523	0.7553
514	0.6891
505	0.5847
496	0.6767
487	0.8085
478	0.6875
469	0.6801
460	0.7768
451	0.764
442	0.6801
433	0.4406
424	0.6293
415	0.5844
406	0.5728
