Infrared Spectrum: P-(4-AMINO-1-NAPHTHYLAZO)BENZENE SULFONIC ACID, SODIUM SALT
Formula: C16 H12 N3 O3 S Na
State: SOLID (MINERAL OIL MULL)
Class: COBLENTZ
Instrument: Not specified, most likely a prism, grating, or hybrid spectrometer.
Sampling: TRANSMISSION
Resolution: 4
Origin: WYANDOTTE CHEMICALS CORP., WYANDOTTE, MICHIGAN, USA
MICROMETERS	TRANSMITTANCE
2.02	0.363
2.06078	0.366
2.10155	0.368
2.14233	0.372
2.18311	0.377
2.22388	0.378
2.26466	0.382
2.30544	0.385
2.34621	0.392
2.38699	0.404
2.42777	0.412
2.46854	0.419
2.50932	0.424
2.5501	0.435
2.59087	0.459
2.63165	0.469
2.67243	0.488
2.7132	0.493
2.75398	0.465
2.79476	0.394
2.83553	0.322
2.87631	0.284
2.91709	0.254
2.95786	0.24
2.99864	0.218
3.03942	0.226
3.08019	0.25
3.12097	0.25
3.16175	0.24
3.20252	0.24
3.2433	0.254
3.28408	0.245
3.32485	0.186
3.36563	0.044
3.40641	0.018
3.44718	0.032
3.48796	0.037
3.52874	0.114
3.56951	0.424
3.61029	0.505
3.65107	0.517
3.69184	0.515
3.73262	0.53
3.7734	0.554
3.81417	0.569
3.85495	0.578
3.89573	0.6
3.9365	0.614
3.97728	0.633
4.01806	0.641
4.05883	0.651
4.09961	0.656
4.14039	0.662
4.18116	0.663
4.22194	0.668
4.26272	0.622
4.30349	0.663
4.34427	0.703
4.38505	0.737
4.42582	0.721
4.4666	0.718
4.50738	0.721
4.54815	0.726
4.58893	0.735
4.62971	0.745
4.67048	0.755
4.71126	0.767
4.75204	0.778
4.79281	0.791
4.83359	0.802
4.87437	0.803
4.91514	0.819
4.95592	0.825
4.9967	0.831
5.03747	0.841
5.07825	0.863
5.11903	0.866
5.1598	0.87
5.20058	0.877
5.24136	0.872
5.28213	0.887
5.32291	0.902
5.36369	0.911
5.40446	0.935
5.44524	0.928
5.48602	0.93
5.52679	0.957
5.56757	0.945
5.60835	0.982
5.64912	0.952
5.6899	0.962
5.73068	0.952
5.77145	0.955
5.81223	0.918
5.85301	0.868
5.89378	0.837
5.93456	0.735
5.97534	0.621
6.01611	0.583
6.05689	0.609
6.09767	0.559
6.13844	0.522
6.17922	0.563
6.22	0.501
6.26077	0.476
6.30155	0.39
6.34233	0.571
6.3831	0.704
6.42388	0.752
6.46466	0.791
6.50543	0.745
6.54621	0.59
6.58699	0.438
6.62776	0.694
6.66854	0.713
6.70932	0.6
6.75009	0.411
6.79087	0.104
6.83165	0.133
6.87242	0.218
6.9132	0.32
6.95398	0.501
6.99475	0.646
7.03553	0.715
7.07631	0.696
7.11708	0.515
7.15786	0.472
7.19864	0.452
7.23941	0.247
7.28019	0.421
7.32096	0.563
7.36174	0.595
7.40252	0.44
7.44329	0.378
7.48407	0.554
7.52485	0.662
7.56562	0.689
7.6064	0.752
7.64718	0.788
7.68795	0.822
7.72873	0.798
7.76951	0.781
7.81028	0.817
7.85106	0.817
7.89184	0.737
7.93261	0.648
7.97339	0.592
8.01417	0.559
8.05494	0.469
8.09572	0.375
8.1365	0.255
8.17727	0.189
8.21805	0.172
8.25883	0.175
8.2996	0.18
8.34038	0.162
8.38116	0.141
8.42193	0.127
8.46271	0.141
8.50349	0.184
8.54426	0.261
8.58504	0.334
8.62582	0.436
8.66659	0.558
8.70737	0.58
8.74815	0.569
8.78892	0.477
8.8297	0.348
8.87048	0.187
8.91125	0.211
8.95203	0.363
8.99281	0.506
9.03358	0.435
9.07436	0.529
9.11514	0.648
9.15591	0.694
9.19669	0.726
9.23747	0.749
9.27824	0.778
9.31902	0.8
9.3598	0.831
9.40057	0.819
9.44135	0.808
9.48213	0.726
9.5229	0.605
9.56368	0.406
9.60446	0.211
9.64523	0.189
9.68601	0.322
9.72679	0.522
9.76756	0.646
9.80834	0.68
9.84912	0.605
9.88989	0.387
9.93067	0.392
9.97145	0.559
10.0122	0.684
10.053	0.744
10.0938	0.788
10.1346	0.815
10.1753	0.831
10.2161	0.851
10.2569	0.854
10.2977	0.865
10.3384	0.873
10.3792	0.877
10.42	0.865
10.4608	0.858
10.5015	0.863
10.5423	0.866
10.5831	0.872
10.6239	0.872
10.6647	0.877
10.7054	0.873
10.7462	0.873
10.787	0.866
10.8278	0.843
10.8685	0.82
10.9093	0.795
10.9501	0.766
10.9909	0.776
11.0316	0.755
11.0724	0.74
11.1132	0.716
11.154	0.689
11.1947	0.674
11.2355	0.655
11.2763	0.648
11.3171	0.638
11.3579	0.643
11.3986	0.634
11.4394	0.627
11.4802	0.621
11.521	0.609
11.5617	0.587
11.6025	0.581
11.6433	0.54
11.6841	0.51
11.7248	0.443
11.7656	0.354
11.8064	0.242
11.8472	0.238
11.888	0.322
11.9287	0.385
11.9695	0.421
12.0103	0.467
12.0511	0.515
12.0918	0.547
12.1326	0.563
12.1734	0.563
12.2142	0.575
12.2549	0.578
12.2957	0.595
12.3365	0.6
12.3773	0.58
12.418	0.561
12.4588	0.573
12.4996	0.609
12.5404	0.636
12.5812	0.667
12.6219	0.701
12.6627	0.738
12.7035	0.752
12.7443	0.699
12.785	0.539
12.8258	0.457
12.8666	0.435
12.9074	0.457
12.9481	0.453
12.9889	0.412
13.0297	0.334
13.0705	0.221
13.1112	0.167
13.152	0.167
13.1928	0.23
13.2336	0.327
13.2744	0.395
13.3151	0.474
13.3559	0.518
13.3967	0.534
13.4375	0.546
13.4782	0.547
13.519	0.534
13.5598	0.532
13.6006	0.527
13.6413	0.53
13.6821	0.535
13.7229	0.539
13.7637	0.535
13.8045	0.529
13.8452	0.537
13.886	0.564
13.9268	0.583
13.9676	0.592
14.0083	0.619
14.0491	0.631
14.0899	0.65
14.1307	0.638
14.1714	0.605
14.2122	0.549
14.253	0.457
14.2938	0.372
14.3345	0.302
14.3753	0.291
14.4161	0.332
14.4569	0.38
14.4977	0.45
14.5384	0.488
14.5792	0.539
14.62	0.554
14.6608	0.573
14.7015	0.588
14.7423	0.597
14.7831	0.604
14.8239	0.612
14.8646	0.616
14.9054	0.622
14.9462	0.614
14.987	0.595
15.0278	0.559
15.0685	0.532
15.1093	0.522
15.1501	0.549
15.1909	0.581
15.2316	0.598
15.2724	0.597
15.3132	0.592
15.354	0.58
15.3947	0.566
15.4355	0.546
15.4763	0.529
15.5171	0.501
15.5578	0.486
15.5986	0.455
15.6394	0.423
15.6802	0.401
15.721	0.385
15.7617	0.37
15.8025	0.363
15.8433	0.372
15.8841	0.38
15.9248	0.404
15.9656	0.404
