Infrared Spectrum: 1,2-Decanediamine, dihydrochloride
Formula: C10 H26 Cl2 N2
State: SOLID (KBr DISC, 0.8% WT.)
Class: COBLENTZ III
Instrument: PERKIN-ELMER 157
Sampling: TRANSMISSION
Resolution: 2
Origin: BRITISH PETROLEUM CO. LTD., ENGLAND
1/CM	TRANSMITTANCE
667	0.8851
676	0.8833
685	0.8638
694	0.8432
703	0.8083
712	0.7427
721	0.3692
730	0.5503
739	0.6005
748	0.6295
757	0.665
766	0.7347
775	0.6785
784	0.4698
793	0.4372
802	0.7522
811	0.7725
820	0.7686
829	0.762
838	0.7486
847	0.744
856	0.7309
865	0.6937
874	0.6056
883	0.3286
892	0.3766
901	0.3746
910	0.5943
919	0.3543
928	0.2627
937	0.6083
946	0.6636
955	0.6497
964	0.6163
973	0.4542
982	0.1186
991	0.2085
1000	0.2445
1009	0.3687
1018	0.5924
1027	0.58
1036	0.5368
1045	0.3482
1054	0.3916
1063	0.5191
1072	0.5779
1081	0.5805
1090	0.6446
1099	0.6369
1108	0.5739
1117	0.4012
1126	0.1426
1135	0.0932
1144	0.3221
1153	0.4863
1162	0.6032
1171	0.6288
1180	0.6274
1189	0.5846
1198	0.5361
1207	0.4361
1216	0.2704
1225	0.5382
1234	0.6295
1243	0.6318
1252	0.6285
1261	0.5888
1270	0.3816
1279	0.3846
1288	0.5084
1297	0.5039
1306	0.3982
1315	0.5453
1324	0.5345
1333	0.5207
1342	0.4611
1351	0.5739
1360	0.5768
1369	0.5332
1378	0.5243
1387	0.3629
1396	0.3633
1405	0.5168
1414	0.5317
1423	0.5213
1432	0.4659
1441	0.3858
1450	0.276
1459	0.1184
1468	0.0356
1477	0.0492
1486	0.089
1495	0.0701
1504	0.0334
1513	0.034
1522	0.0747
1531	0.1933
1540	0.2843
1549	0.2908
1558	0.2198
1567	0.1163
1576	0.0667
1585	0.0629
1594	0.0664
1603	0.0917
1612	0.201
1621	0.2897
1630	0.3801
1639	0.4294
1648	0.4709
1657	0.5321
1666	0.567
1675	0.5956
1684	0.6124
1693	0.6268
1702	0.6343
1711	0.6357
1720	0.6362
1729	0.6503
1738	0.6676
1747	0.6753
1756	0.6768
1765	0.6773
1774	0.6776
1783	0.6747
1792	0.6692
1801	0.6632
1810	0.6561
1819	0.6486
1828	0.6406
1837	0.6352
1846	0.6236
1855	0.6132
1864	0.6059
1873	0.5994
1882	0.5852
1891	0.5709
1900	0.5579
1909	0.5574
1918	0.5615
1927	0.5647
1936	0.5738
1945	0.588
1954	0.6017
1963	0.6162
1972	0.6231
1981	0.6233
1990	0.6196
1999	0.6031
2008	0.5858
2017	0.572
2026	0.5581
2035	0.5611
2044	0.5776
2053	0.5907
2062	0.5986
2071	0.6074
2080	0.6397
2089	0.6801
2098	0.6979
2107	0.7118
2116	0.7268
2125	0.743
2134	0.7558
2143	0.7589
2152	0.7596
2161	0.7639
2170	0.7691
2179	0.7703
2188	0.77
2197	0.7659
2206	0.7597
2215	0.7514
2224	0.7441
2233	0.7392
2242	0.7427
2251	0.7408
2260	0.7382
2269	0.7344
2278	0.7302
2287	0.7289
2296	0.7267
2305	0.7149
2314	0.6969
2323	0.6774
2332	0.6579
2341	0.6388
2350	0.6198
2359	0.6067
2368	0.5948
2377	0.5897
2386	0.5875
2395	0.5716
2404	0.5449
2413	0.5185
2422	0.4922
2431	0.473
2440	0.4713
2449	0.4699
2458	0.4654
2467	0.4216
2476	0.3829
2485	0.3656
2494	0.3562
2503	0.3518
2512	0.3508
2521	0.3526
2530	0.3562
2539	0.3621
2548	0.3643
2557	0.3607
2566	0.3411
2575	0.3211
2584	0.2994
2593	0.2692
2602	0.2538
2611	0.2427
2620	0.237
2629	0.2348
2638	0.2333
2647	0.2317
2656	0.2293
2665	0.2117
2674	0.1852
2683	0.1723
2692	0.1608
2701	0.1489
2710	0.1349
2719	0.1213
2728	0.107
2737	0.0905
2746	0.076
2755	0.0638
2764	0.0546
2773	0.0448
2782	0.035
2791	0.0254
2800	0.0178
2809	0.0159
2818	0.0155
2827	0.0152
2836	0.015
2845	0.0148
2854	0.0147
2863	0.0147
2872	0.0146
2881	0.0145
2890	0.0144
2899	0.0143
2908	0.0143
2917	0.0143
2926	0.0143
2935	0.0143
2944	0.0143
2953	0.0144
2962	0.0145
2971	0.0146
2980	0.0147
2989	0.0148
2998	0.0149
3007	0.0149
3016	0.015
3025	0.0151
3034	0.0152
3043	0.0153
3052	0.0154
3061	0.0155
3070	0.0155
3079	0.0159
3088	0.0161
3097	0.0164
3106	0.0168
3115	0.0173
3124	0.018
3133	0.0187
3142	0.0211
3151	0.0225
3160	0.0228
3169	0.023
3178	0.0229
3187	0.0231
3196	0.0243
3205	0.0283
3214	0.0424
3223	0.0629
3232	0.0835
3241	0.1038
3250	0.1241
3259	0.1442
3268	0.165
3277	0.1873
3286	0.2045
3295	0.2125
3304	0.2192
3313	0.2249
3322	0.2289
3331	0.2305
3340	0.2311
3349	0.2317
3358	0.2319
3367	0.2321
3376	0.2323
3385	0.2321
3394	0.2317
3403	0.2329
3412	0.2363
3421	0.2407
3430	0.2452
3439	0.2508
3448	0.2739
3457	0.2859
3466	0.2965
3475	0.3072
3484	0.3191
3493	0.3386
3502	0.3599
3511	0.3809
3520	0.4019
3529	0.4228
3538	0.4436
3547	0.4642
3556	0.4821
3565	0.4961
3574	0.507
3583	0.5177
3592	0.5286
3601	0.5403
3610	0.5524
3619	0.5636
3628	0.5807
3637	0.593
3646	0.5997
3655	0.6055
3664	0.6107
3673	0.6205
3682	0.6326
3691	0.6359
3700	0.6366
3709	0.6369
3718	0.6381
3727	0.6423
3736	0.6446
3745	0.6453
3754	0.6456
3763	0.6458
3772	0.646
3781	0.6461
3790	0.6463
3799	0.6463
3808	0.6465
3817	0.6467
3826	0.6468
3835	0.647
3844	0.6472
3853	0.6474
3862	0.6475
3871	0.6476
3880	0.6476
3889	0.6475
3898	0.6475
3907	0.6474
3916	0.6474
3925	0.6474
3934	0.6473
3943	0.6473
3952	0.6473
3961	0.6472
3970	0.6472
3979	0.6471
3988	0.6471
3997	0.6471
