Infrared Spectrum: LITHOPONE
Formula: Zn S  * Ba S O4
State: SOLID (0.3 mg / 300 mg CsI PELLET)
Class: COBLENTZ
Instrument: Not specified, most likely a grating spectrometer.
Sampling: TRANSMISSION
Resolution: 4
Origin: DESOTO CHEMICAL COATINGS, INC.
1/CM	TRANSMITTANCE
200	0.733
210.635	0.733
221.27	0.766
231.906	0.81
242.541	0.894
253.176	0.913
263.811	0.918
274.446	0.917
285.081	0.898
295.717	0.7911
306.352	0.717
316.987	0.661
327.622	0.648
338.257	0.788
348.892	0.854
359.528	0.881
370.163	0.89
380.798	0.891
391.433	0.898
402.068	0.899
412.703	0.899
423.339	0.901
433.974	0.91
444.609	0.918
455.244	0.925
465.879	0.929
476.514	0.941
487.15	0.943
497.785	0.951
508.42	0.958
519.055	0.961
529.69	0.963
540.325	0.965
550.961	0.967
561.596	0.966
572.231	0.97
582.866	0.97
593.501	0.965
604.136	0.9031
614.772	0.557
625.407	0.836
636.042	0.7352
646.677	0.791
657.312	0.911
667.947	0.95
678.583	0.969
689.218	0.97
699.853	0.978
710.488	0.977
721.123	0.978
731.758	0.979
742.394	0.982
753.029	0.982
763.664	0.982
774.299	0.982
784.934	0.981
795.569	0.983
806.205	0.983
816.84	0.989
827.475	0.987
838.11	0.989
848.745	0.987
859.38	0.991
870.016	0.99
880.651	0.989
891.286	0.985
901.921	0.985
912.556	0.983
923.191	0.982
933.827	0.981
944.462	0.977
955.097	0.975
965.732	0.974
976.367	0.971
987.002	0.839
997.638	0.959
1008.27	0.959
1018.91	0.953
1029.54	0.945
1040.18	0.93
1050.81	0.901
1061.45	0.7331
1072.08	0.2922
1082.72	0.196
1093.35	0.439
1103.99	0.49
1114.62	0.2871
1125.26	0.3188
1135.89	0.59
1146.53	0.715
1157.17	0.736
1167.8	0.5741
1178.44	0.3631
1189.07	0.36
1199.71	0.585
1210.34	0.745
1220.98	0.8219
1231.61	0.862
1242.25	0.911
1252.88	0.931
1263.52	0.941
1274.15	0.947
1284.79	0.955
1295.42	0.959
1306.06	0.959
1316.69	0.961
1327.33	0.963
1337.96	0.961
1348.6	0.962
1359.23	0.961
1369.87	0.961
1380.5	0.961
1391.14	0.961
1401.77	0.963
1412.41	0.959
1423.04	0.959
1433.68	0.959
1444.31	0.961
1454.95	0.961
1465.59	0.959
1476.22	0.961
1486.86	0.962
1497.49	0.961
1508.13	0.961
1518.76	0.961
1529.4	0.959
1540.03	0.958
1550.67	0.957
1561.3	0.955
1571.94	0.955
1582.57	0.951
1593.21	0.941
1603.84	0.93
1614.48	0.911
1625.11	0.911
1635.75	0.921
1646.38	0.931
1657.02	0.937
1667.65	0.939
1678.29	0.946
1688.92	0.949
1699.56	0.949
1710.19	0.95
1720.83	0.95
1731.46	0.95
1742.1	0.951
1752.73	0.953
1763.37	0.953
1774	0.955
1784.64	0.957
1795.28	0.954
1805.91	0.953
1816.55	0.955
1827.18	0.954
1837.82	0.954
1848.45	0.953
1859.09	0.954
1869.72	0.95
1880.36	0.951
1890.99	0.949
1901.63	0.949
1912.26	0.95
1922.9	0.95
1933.53	0.949
1944.17	0.949
1954.8	0.95
1965.44	0.947
1976.07	0.947
1986.71	0.947
1997.34	0.946
2007.98	0.949
2018.61	0.9541
2029.25	0.959
2039.88	0.955
2050.52	0.9569
2061.15	0.9528
2071.79	0.95
2082.42	0.949
2093.06	0.9472
2103.7	0.95
2114.33	0.951
2124.97	0.951
2135.6	0.953
2146.24	0.95
2156.87	0.953
2167.51	0.9525
2178.14	0.951
2188.78	0.953
2199.41	0.951
2210.05	0.953
2220.68	0.953
2231.32	0.951
2241.95	0.9507
2252.59	0.9507
2263.22	0.95
2273.86	0.951
2284.49	0.95
2295.13	0.9496
2305.76	0.951
2316.4	0.95
2327.03	0.9521
2337.67	0.9495
2348.3	0.951
2358.94	0.9505
2369.57	0.9495
2380.21	0.95
2390.84	0.949
2401.48	0.949
2412.12	0.949
2422.75	0.9478
2433.39	0.947
2444.02	0.947
2454.66	0.947
2465.29	0.9464
2475.93	0.945
2486.56	0.942
2497.2	0.943
2507.83	0.945
2518.47	0.943
2529.1	0.942
2539.74	0.941
2550.37	0.941
2561.01	0.941
2571.64	0.941
2582.28	0.9428
2592.91	0.942
2603.55	0.942
2614.18	0.941
2624.82	0.9393
2635.45	0.939
2646.09	0.939
2656.72	0.941
2667.36	0.9391
2677.99	0.939
2688.63	0.939
2699.26	0.939
2709.9	0.938
2720.53	0.939
2731.17	0.938
2741.81	0.938
2752.44	0.934
2763.08	0.938
2773.71	0.934
2784.35	0.934
2794.98	0.9328
2805.62	0.9309
2816.25	0.93
2826.89	0.93
2837.52	0.9298
2848.16	0.9266
2858.79	0.921
2869.43	0.9194
2880.06	0.923
2890.7	0.923
2901.33	0.921
2911.97	0.919
2922.6	0.9165
2933.24	0.9084
2943.87	0.909
2954.51	0.914
2965.14	0.9157
2975.78	0.918
2986.41	0.919
2997.05	0.919
3007.68	0.921
3018.32	0.921
3028.95	0.921
3039.59	0.921
3050.23	0.921
3060.86	0.919
3071.5	0.919
3082.13	0.918
3092.77	0.918
3103.4	0.917
3114.04	0.915
3124.67	0.9144
3135.31	0.913
3145.94	0.913
3156.58	0.911
3167.21	0.911
3177.85	0.911
3188.48	0.91
3199.12	0.909
3209.75	0.906
3220.39	0.903
3231.02	0.9023
3241.66	0.902
3252.29	0.901
3262.93	0.901
3273.56	0.899
3284.2	0.897
3294.83	0.8914
3305.47	0.889
3316.1	0.8834
3326.74	0.8793
3337.37	0.8771
3348.01	0.8703
3358.65	0.8661
3369.28	0.8554
3379.92	0.8473
3390.55	0.8352
3401.19	0.8301
3411.82	0.8201
3422.46	0.8121
3433.09	0.806
3443.73	0.799
3454.36	0.798
3465	0.8
3475.63	0.8
3486.27	0.8
3496.9	0.8031
3507.54	0.8073
3518.17	0.8141
3528.81	0.8191
3539.44	0.8231
3550.08	0.8311
3560.71	0.8395
3571.35	0.8464
3581.98	0.8528
3592.62	0.8622
3603.25	0.8669
3613.89	0.8747
3624.52	0.8813
3635.16	0.8863
3645.79	0.8903
3656.43	0.8933
3667.06	0.895
3677.7	0.897
3688.34	0.894
3698.97	0.893
3709.61	0.893
3720.24	0.893
3730.88	0.893
3741.51	0.8944
3752.15	0.897
3762.78	0.894
3773.42	0.8921
3784.05	0.893
3794.69	0.893
3805.32	0.893
3815.96	0.893
3826.59	0.8905
3837.23	0.889
3847.86	0.89
3858.5	0.889
3869.13	0.887
3879.77	0.8864
3890.4	0.885
3901.04	0.8843
3911.67	0.8867
3922.31	0.889
3932.94	0.8876
3943.58	0.885
3954.21	0.883
3964.85	0.883
3975.48	0.882
3986.12	0.8812
