Infrared Spectrum: 5-HYDROXY-[2,2'-AZO-1,3,4-THIADIAZOLE]-5'-SULFONIC ACID, DIPOTASSIUM SALT
Formula: C4 N6 O4 S3 K2
State: SOLID (KBr PELLET)
Class: COBLENTZ
Instrument: Not specified, most likely a prism, grating, or hybrid spectrometer.
Sampling: TRANSMISSION
Resolution: 4
Origin: NORBERT PETRI
MICROMETERS	TRANSMITTANCE
2.012	0.196
2.04808	0.194
2.08416	0.201
2.12024	0.211
2.15631	0.224
2.19239	0.233
2.22847	0.243
2.26455	0.252
2.30063	0.257
2.33671	0.268
2.37278	0.27
2.40886	0.28
2.44494	0.284
2.48102	0.296
2.5171	0.302
2.55318	0.307
2.58925	0.32
2.62533	0.321
2.66141	0.323
2.69749	0.314
2.73357	0.291
2.76965	0.267
2.80572	0.252
2.8418	0.253
2.87788	0.258
2.91396	0.277
2.95004	0.306
2.98612	0.32
3.02219	0.328
3.05827	0.341
3.09435	0.365
3.13043	0.377
3.16651	0.388
3.20259	0.397
3.23866	0.413
3.27474	0.419
3.31082	0.421
3.3469	0.425
3.38298	0.431
3.41906	0.442
3.45513	0.449
3.49121	0.47
3.52729	0.469
3.56337	0.473
3.59945	0.481
3.63553	0.487
3.6716	0.488
3.70768	0.495
3.74376	0.501
3.77984	0.503
3.81592	0.506
3.852	0.512
3.88808	0.52
3.92415	0.522
3.96023	0.528
3.99631	0.53
4.03239	0.537
4.06847	0.54
4.10455	0.543
4.14062	0.551
4.1767	0.549
4.21278	0.556
4.24886	0.562
4.28494	0.567
4.32102	0.569
4.35709	0.578
4.39317	0.58
4.42925	0.58
4.46533	0.588
4.50141	0.586
4.53749	0.594
4.57356	0.597
4.60964	0.601
4.64572	0.609
4.6818	0.614
4.71788	0.618
4.75396	0.625
4.79003	0.626
4.82611	0.63
4.86219	0.636
4.89827	0.639
4.93435	0.639
4.97043	0.633
5.0065	0.645
5.04258	0.653
5.07866	0.66
5.11474	0.668
5.15082	0.675
5.1869	0.68
5.22297	0.681
5.25905	0.686
5.29513	0.691
5.33121	0.693
5.36729	0.699
5.40337	0.701
5.43944	0.709
5.47552	0.709
5.5116	0.712
5.54768	0.72
5.58376	0.732
5.61984	0.738
5.65591	0.738
5.69199	0.731
5.72807	0.727
5.76415	0.739
5.80023	0.749
5.83631	0.749
5.87239	0.726
5.90846	0.678
5.94454	0.612
5.98062	0.516
6.0167	0.407
6.05278	0.339
6.08886	0.3
6.12493	0.258
6.16101	0.324
6.19709	0.444
6.23317	0.511
6.26925	0.535
6.30533	0.575
6.3414	0.594
6.37748	0.625
6.41356	0.626
6.44964	0.647
6.48572	0.662
6.5218	0.663
6.55787	0.678
6.59395	0.691
6.63003	0.695
6.66611	0.699
6.70219	0.703
6.73827	0.707
6.77434	0.708
6.81042	0.71
6.8465	0.72
6.88258	0.725
6.91866	0.719
6.95474	0.719
6.99081	0.727
7.02689	0.701
7.06297	0.695
7.09905	0.712
7.13513	0.726
7.17121	0.72
7.20728	0.732
7.24336	0.738
7.27944	0.724
7.31552	0.685
7.3516	0.662
7.38768	0.51
7.42375	0.516
7.45983	0.659
7.49591	0.721
7.53199	0.729
7.56807	0.703
7.60415	0.646
7.64023	0.489
7.6763	0.369
7.71238	0.431
7.74846	0.496
7.78454	0.449
7.82062	0.376
7.8567	0.407
7.89277	0.29
7.92885	0.184
7.96493	0.164
8.00101	0.171
8.03709	0.14
8.07317	0.114
8.10924	0.11
8.14532	0.156
8.1814	0.25
8.21748	0.294
8.25356	0.273
8.28964	0.353
8.32571	0.407
8.36179	0.452
8.39787	0.478
8.43395	0.503
8.47003	0.528
8.50611	0.544
8.54218	0.555
8.57826	0.574
8.61434	0.591
8.65042	0.606
8.6865	0.618
8.72258	0.629
8.75865	0.64
8.79473	0.647
8.83081	0.657
8.86689	0.681
8.90297	0.688
8.93905	0.656
8.97512	0.453
9.0112	0.365
9.04728	0.492
9.08336	0.571
9.11944	0.591
9.15552	0.611
9.19159	0.629
9.22767	0.671
9.26375	0.688
9.29983	0.675
9.33591	0.667
9.37199	0.657
9.40807	0.643
9.44414	0.657
9.48022	0.68
9.5163	0.671
9.55238	0.643
9.58846	0.567
9.62454	0.409
9.66061	0.296
9.69669	0.185
9.73277	0.17
9.76885	0.27
9.80493	0.362
9.84101	0.41
9.87708	0.441
9.91316	0.462
9.94924	0.476
9.98532	0.5
10.0214	0.526
10.0575	0.549
10.0936	0.566
10.1296	0.58
10.1657	0.6
10.2018	0.607
10.2379	0.617
10.2739	0.626
10.31	0.629
10.3461	0.64
10.3822	0.651
10.4183	0.652
10.4543	0.656
10.4904	0.67
10.5265	0.673
10.5626	0.674
10.5987	0.679
10.6347	0.684
10.6708	0.686
10.7069	0.686
10.743	0.691
10.779	0.693
10.8151	0.692
10.8512	0.702
10.8873	0.703
10.9234	0.701
10.9594	0.704
10.9955	0.707
11.0316	0.708
11.0677	0.71
11.1037	0.716
11.1398	0.719
11.1759	0.716
11.212	0.718
11.2481	0.719
11.2841	0.722
11.3202	0.731
11.3563	0.735
11.3924	0.737
11.4285	0.746
11.4645	0.749
11.5006	0.749
11.5367	0.749
11.5728	0.731
11.6088	0.721
11.6449	0.719
11.681	0.72
11.7171	0.716
11.7532	0.724
11.7892	0.73
11.8253	0.744
11.8614	0.748
11.8975	0.752
11.9336	0.753
11.9696	0.759
12.0057	0.76
12.0418	0.764
12.0779	0.765
12.1139	0.763
12.15	0.766
12.1861	0.766
12.2222	0.766
12.2583	0.766
12.2943	0.765
12.3304	0.764
12.3665	0.764
12.4026	0.764
12.4386	0.761
12.4747	0.761
12.5108	0.744
12.5469	0.743
12.583	0.759
12.619	0.765
12.6551	0.77
12.6912	0.769
12.7273	0.767
12.7634	0.773
12.7994	0.772
12.8355	0.772
12.8716	0.776
12.9077	0.776
12.9437	0.776
12.9798	0.776
13.0159	0.778
13.052	0.778
13.0881	0.78
13.1241	0.78
13.1602	0.777
13.1963	0.782
13.2324	0.777
13.2685	0.778
13.3045	0.782
13.3406	0.781
13.3767	0.78
13.4128	0.782
13.4488	0.784
13.4849	0.789
13.521	0.789
13.5571	0.784
13.5932	0.792
13.6292	0.789
13.6653	0.792
13.7014	0.789
13.7375	0.792
13.7735	0.794
13.8096	0.798
13.8457	0.798
13.8818	0.801
13.9179	0.806
13.9539	0.809
13.99	0.811
14.0261	0.817
14.0622	0.82
14.0983	0.821
14.1343	0.816
14.1704	0.817
14.2065	0.823
14.2426	0.825
14.2786	0.823
14.3147	0.823
14.3508	0.826
14.3869	0.828
14.423	0.822
14.459	0.82
14.4951	0.82
14.5312	0.809
14.5673	0.805
14.6033	0.777
14.6394	0.743
14.6755	0.67
14.7116	0.601
14.7477	0.605
14.7837	0.611
14.8198	0.556
14.8559	0.466
14.892	0.388
14.9281	0.359
14.9641	0.399
15.0002	0.445
15.0363	0.501
15.0724	0.568
15.1084	0.607
15.1445	0.65
15.1806	0.69
15.2167	0.71
15.2528	0.732
15.2888	0.756
15.3249	0.771
15.361	0.778
15.3971	0.781
