Infrared Spectrum: 2-AMINOETHANE SODIUM SULFONATE, N-METHYL-N-PALMITOYL-
Formula: C19 H38 N O4 S Na
State: SOLID (KBr PELLET)
Class: COBLENTZ
Instrument: Not specified, most likely a prism, grating, or hybrid spectrometer.
Sampling: TRANSMISSION
Resolution: 4
Origin: TENNESSEE EASTMAN COMPANY, RESEARCH LABORATORIES
MICROMETERS	TRANSMITTANCE
2.013	0.473
2.05289	0.47
2.09277	0.468
2.13266	0.47
2.17254	0.475
2.21243	0.481
2.25232	0.486
2.2922	0.49
2.33209	0.493
2.37197	0.498
2.41186	0.504
2.45174	0.509
2.49163	0.514
2.53152	0.524
2.5714	0.531
2.61129	0.536
2.65117	0.538
2.69106	0.534
2.73095	0.45
2.77083	0.287
2.81072	0.205
2.8506	0.162
2.89049	0.126
2.93038	0.137
2.97026	0.196
3.01015	0.254
3.05003	0.29
3.08992	0.33
3.1298	0.367
3.16969	0.398
3.20958	0.416
3.24946	0.435
3.28935	0.46
3.32923	0.438
3.36912	0.249
3.40901	0.129
3.44889	0.342
3.48878	0.222
3.52866	0.503
3.56855	0.593
3.60844	0.622
3.64832	0.634
3.68821	0.646
3.72809	0.656
3.76798	0.662
3.80787	0.674
3.84775	0.684
3.88764	0.691
3.92752	0.696
3.96741	0.704
4.00729	0.707
4.04718	0.709
4.08707	0.71
4.12695	0.714
4.16684	0.717
4.20672	0.717
4.24661	0.715
4.2865	0.709
4.32638	0.709
4.36627	0.724
4.40615	0.73
4.44604	0.734
4.48593	0.737
4.52581	0.749
4.5657	0.745
4.60558	0.75
4.64547	0.755
4.68535	0.754
4.72524	0.752
4.76513	0.764
4.80501	0.78
4.8449	0.785
4.88478	0.787
4.92467	0.789
4.96456	0.795
5.00444	0.799
5.04433	0.799
5.08421	0.8
5.1241	0.803
5.16399	0.807
5.20387	0.812
5.24376	0.812
5.28364	0.812
5.32353	0.812
5.36341	0.812
5.4033	0.815
5.44319	0.817
5.48307	0.817
5.52296	0.817
5.56284	0.815
5.60273	0.81
5.64262	0.805
5.6825	0.799
5.72239	0.779
5.76227	0.76
5.80216	0.754
5.84205	0.749
5.88193	0.73
5.92182	0.71
5.9617	0.667
6.00159	0.609
6.04147	0.493
6.08136	0.245
6.12125	0.194
6.16113	0.186
6.20102	0.355
6.2409	0.593
6.28079	0.654
6.32068	0.661
6.36056	0.652
6.40045	0.626
6.44033	0.686
6.48022	0.707
6.52011	0.722
6.55999	0.704
6.59988	0.657
6.63976	0.584
6.67965	0.558
6.71954	0.606
6.75942	0.523
6.79931	0.445
6.83919	0.514
6.87908	0.551
6.91896	0.566
6.95885	0.578
6.99874	0.526
7.03862	0.486
7.07851	0.578
7.11839	0.647
7.15828	0.681
7.19817	0.671
7.23805	0.639
7.27794	0.634
7.31782	0.629
7.35771	0.644
7.3976	0.676
7.43748	0.694
7.47737	0.697
7.51725	0.692
7.55714	0.677
7.59702	0.659
7.63691	0.647
7.6768	0.646
7.71668	0.642
7.75657	0.636
7.79645	0.614
7.83634	0.563
7.87623	0.465
7.91611	0.468
7.956	0.45
7.99588	0.443
8.03577	0.438
8.07566	0.42
8.11554	0.363
8.15543	0.294
8.19531	0.191
8.2352	0.088
8.27508	0.061
8.31497	0.058
8.35486	0.048
8.39474	0.041
8.43463	0.074
8.47451	0.127
8.5144	0.129
8.55429	0.109
8.59417	0.098
8.63406	0.089
8.67394	0.076
8.71383	0.061
8.75372	0.049
8.7936	0.039
8.83349	0.039
8.87337	0.041
8.91326	0.043
8.95314	0.056
8.99303	0.083
9.03292	0.119
9.0728	0.157
9.11269	0.194
9.15257	0.242
9.19246	0.284
9.23235	0.312
9.27223	0.32
9.31212	0.29
9.352	0.149
9.39189	0.104
9.43178	0.23
9.47166	0.287
9.51155	0.342
9.55143	0.378
9.59132	0.372
9.63121	0.451
9.67109	0.516
9.71098	0.573
9.75086	0.614
9.79075	0.644
9.83063	0.662
9.87052	0.674
9.91041	0.687
9.95029	0.7
9.99018	0.715
10.0301	0.727
10.0699	0.737
10.1098	0.742
10.1497	0.747
10.1896	0.752
10.2295	0.76
10.2694	0.767
10.3093	0.779
10.3492	0.78
10.389	0.78
10.4289	0.779
10.4688	0.779
10.5087	0.779
10.5486	0.787
10.5885	0.805
10.6284	0.828
10.6682	0.84
10.7081	0.853
10.748	0.862
10.7879	0.878
10.8278	0.888
10.8677	0.898
10.9076	0.905
10.9474	0.913
10.9873	0.92
11.0272	0.925
11.0671	0.926
11.107	0.93
11.1469	0.93
11.1868	0.93
11.2266	0.93
11.2665	0.931
11.3064	0.935
11.3463	0.936
11.3862	0.933
11.4261	0.93
11.466	0.93
11.5058	0.928
11.5457	0.926
11.5856	0.928
11.6255	0.93
11.6654	0.931
11.7053	0.931
11.7452	0.931
11.785	0.931
11.8249	0.931
11.8648	0.93
11.9047	0.928
11.9446	0.93
11.9845	0.926
12.0244	0.913
12.0642	0.897
12.1041	0.863
12.144	0.853
12.1839	0.86
12.2238	0.873
12.2637	0.885
12.3036	0.893
12.3434	0.898
12.3833	0.898
12.4232	0.888
12.4631	0.863
12.503	0.835
12.5429	0.822
12.5828	0.817
12.6226	0.812
12.6625	0.815
12.7024	0.833
12.7423	0.84
12.7822	0.848
12.8221	0.855
12.862	0.86
12.9018	0.86
12.9417	0.86
12.9816	0.857
13.0215	0.85
13.0614	0.842
13.1013	0.842
13.1412	0.85
13.181	0.857
13.2209	0.86
13.2608	0.857
13.3007	0.852
13.3406	0.848
13.3805	0.847
13.4204	0.847
13.4603	0.848
13.5001	0.85
13.54	0.855
13.5799	0.858
13.6198	0.857
13.6597	0.857
13.6996	0.84
13.7395	0.817
13.7793	0.799
13.8192	0.78
13.8591	0.784
13.899	0.813
13.9389	0.835
13.9788	0.848
14.0187	0.858
14.0585	0.86
14.0984	0.862
14.1383	0.862
14.1782	0.86
14.2181	0.857
14.258	0.857
14.2979	0.857
14.3377	0.857
14.3776	0.855
14.4175	0.852
14.4574	0.848
14.4973	0.845
14.5372	0.84
14.5771	0.835
14.6169	0.828
14.6568	0.825
14.6967	0.817
14.7366	0.812
14.7765	0.808
14.8164	0.802
14.8563	0.795
14.8961	0.787
14.936	0.777
14.9759	0.759
15.0158	0.744
15.0557	0.74
15.0956	0.734
15.1355	0.724
15.1753	0.707
15.2152	0.689
15.2551	0.674
15.295	0.659
15.3349	0.637
15.3748	0.616
15.4147	0.591
15.4545	0.568
15.4944	0.534
15.5343	0.503
15.5742	0.481
15.6141	0.456
15.654	0.43
15.6939	0.423
15.7337	0.421
15.7736	0.425
15.8135	0.435
15.8534	0.448
15.8933	0.458
15.9332	0.463
15.9731	0.47
