Infrared Spectrum: Acetic acid, cobaltous salt hydrate
Formula: C4 H6 Co O4  * H2 O
State: SOLID (SPLIT MULL), FLUOROLUBE FOR 3800-1330 CM^-^1, NUJOL FOR 1330-450 CM^-^1
Class: COBLENTZ III
Instrument: DOW KBr FOREPRISM-GRATING
Instrument parameters: BLAZED AT 3.5, 12.0, 20.0 MICRON AND CHANGED AT 5.0, 7.5, 14.9 MICRON
Sampling: TRANSMISSION
Resolution: 2
Origin: DOW CHEMICAL COMPANY
1/CM	TRANSMITTANCE
3800	0.8909
3791	0.8911
3782	0.8911
3773	0.8918
3764	0.8925
3755	0.8978
3746	0.9054
3737	0.8964
3728	0.9004
3719	0.8975
3710	0.895
3701	0.8925
3692	0.8918
3683	0.8924
3674	0.8944
3665	0.8794
3656	0.8766
3647	0.8713
3638	0.866
3629	0.858
3620	0.8498
3611	0.8394
3602	0.8278
3593	0.8148
3584	0.8021
3575	0.7893
3566	0.7774
3557	0.7653
3548	0.7528
3539	0.7431
3530	0.7274
3521	0.7112
3512	0.6987
3503	0.6858
3494	0.6728
3485	0.6601
3476	0.6465
3467	0.6308
3458	0.6104
3449	0.5865
3440	0.5512
3431	0.5191
3422	0.4925
3413	0.4666
3404	0.4399
3395	0.4039
3386	0.3695
3377	0.3239
3368	0.285
3359	0.2369
3350	0.1803
3341	0.1729
3332	0.1829
3323	0.2185
3314	0.2534
3305	0.2891
3296	0.3237
3287	0.37
3278	0.4037
3269	0.4336
3260	0.4588
3251	0.4798
3242	0.4964
3233	0.5091
3224	0.5203
3215	0.5303
3206	0.5398
3197	0.5477
3188	0.5555
3179	0.5618
3170	0.5666
3161	0.5691
3152	0.5704
3143	0.5708
3134	0.5712
3125	0.5705
3116	0.569
3107	0.5673
3098	0.5647
3089	0.5615
3080	0.558
3071	0.5536
3062	0.5489
3053	0.5429
3044	0.5353
3035	0.5306
3026	0.5259
3017	0.521
3008	0.5159
2999	0.5117
2990	0.5076
2981	0.503
2972	0.4987
2963	0.4953
2954	0.4912
2945	0.484
2936	0.4709
2927	0.4673
2918	0.4685
2909	0.4678
2900	0.4678
2891	0.4674
2882	0.4651
2873	0.4606
2864	0.455
2855	0.4516
2846	0.4509
2837	0.4515
2828	0.4529
2819	0.4542
2810	0.4556
2801	0.4568
2792	0.4592
2783	0.4615
2774	0.4652
2765	0.4701
2756	0.4751
2747	0.482
2738	0.4905
2729	0.499
2720	0.5098
2711	0.5208
2702	0.5344
2693	0.5482
2684	0.5599
2675	0.571
2666	0.5818
2657	0.5922
2648	0.6023
2639	0.6121
2630	0.622
2621	0.6298
2612	0.6376
2603	0.6454
2594	0.6512
2585	0.6568
2576	0.6625
2567	0.6675
2558	0.6725
2549	0.6771
2540	0.6815
2531	0.6849
2522	0.6883
2513	0.6917
2504	0.6951
2495	0.6989
2486	0.7028
2477	0.7071
2468	0.7112
2459	0.7142
2450	0.7171
2441	0.7175
2432	0.7164
2423	0.7151
2414	0.7089
2405	0.6965
2396	0.6864
2387	0.6782
2378	0.6747
2369	0.6715
2360	0.6597
2351	0.6522
2342	0.6457
2333	0.6455
2324	0.6474
2315	0.6471
2306	0.6488
2297	0.6511
2288	0.6557
2279	0.6612
2270	0.6688
2261	0.6792
2252	0.69
2243	0.7011
2234	0.7137
2225	0.7261
2216	0.7371
2207	0.7432
2198	0.7474
2189	0.7499
2180	0.7541
2171	0.7615
2162	0.7685
2153	0.7742
2144	0.7796
2135	0.7825
2126	0.7854
2117	0.788
2108	0.7899
2099	0.7911
2090	0.7921
2081	0.7928
2072	0.7949
2063	0.8004
2054	0.8014
2045	0.8008
2036	0.8025
2027	0.8088
2018	0.8088
2009	0.8105
2000	0.8071
1991	0.8121
1982	0.8117
1973	0.8132
1964	0.8253
1955	0.8218
1946	0.8216
1937	0.8254
1928	0.8291
1919	0.83
1910	0.8314
1901	0.8334
1892	0.8367
1883	0.8397
1874	0.8431
1865	0.8467
1856	0.8513
1847	0.8566
1838	0.8554
1829	0.8607
1820	0.8636
1811	0.8648
1802	0.8644
1793	0.866
1784	0.8644
1775	0.8643
1766	0.8605
1757	0.8552
1748	0.8437
1739	0.8206
1730	0.7972
1721	0.7588
1712	0.7068
1703	0.6658
1694	0.7086
1685	0.7298
1676	0.7339
1667	0.7151
1658	0.688
1649	0.6522
1640	0.5757
1631	0.4532
1622	0.2875
1613	0.1965
1604	0.1016
1595	0.0646
1586	0.0627
1577	0.0637
1568	0.0462
1559	0.0351
1550	0.0349
1541	0.0779
1532	0.1482
1523	0.2366
1514	0.3114
1505	0.3641
1496	0.4199
1487	0.4441
1478	0.4324
1469	0.3624
1460	0.2463
1451	0.1691
1442	0.1689
1433	0.1811
1424	0.1874
1415	0.2143
1406	0.2302
1397	0.1432
1388	0.1561
1379	0.3123
1370	0.4594
1361	0.5016
1352	0.4766
1343	0.4217
1334	0.1796
1325	0.1479
1316	0.4194
1307	0.502
1298	0.5499
1289	0.5949
1280	0.6141
1271	0.63
1262	0.6478
1253	0.6661
1244	0.6841
1235	0.6992
1226	0.7128
1217	0.7246
1208	0.7299
1199	0.7372
1190	0.7408
1181	0.7228
1172	0.725
1163	0.7214
1154	0.7201
1145	0.719
1136	0.7194
1127	0.7201
1118	0.7025
1109	0.7036
1100	0.6935
1091	0.6728
1082	0.6468
1073	0.6125
1064	0.5338
1055	0.4496
1046	0.39
1037	0.3422
1028	0.3037
1019	0.3192
1010	0.4954
1001	0.5786
992	0.6205
983	0.6388
974	0.6519
965	0.6758
956	0.6955
947	0.7017
938	0.6928
929	0.6887
920	0.654
911	0.5874
902	0.5084
893	0.4474
884	0.4292
875	0.4804
866	0.5675
857	0.6231
848	0.6568
839	0.669
830	0.6642
821	0.6399
812	0.6127
803	0.6202
794	0.6446
785	0.668
776	0.6892
767	0.7019
758	0.7076
749	0.7053
740	0.6968
731	0.6815
722	0.6493
713	0.6561
704	0.6286
695	0.3984
686	0.127
677	0.0946
668	0.3434
659	0.4429
650	0.466
641	0.4578
632	0.4656
623	0.383
614	0.4221
605	0.4528
596	0.5342
587	0.5919
578	0.6336
569	0.6564
560	0.673
551	0.6861
542	0.6884
533	0.6825
524	0.6733
515	0.6634
506	0.6581
497	0.6697
488	0.6822
479	0.6941
470	0.6968
461	0.7003
452	0.7015
