Infrared Spectrum: LEAD PHOSPHATE, TRIBASIC
Formula: Pb3 ( P O4)2
State: SOLID (NUJOL MULL)
Class: COBLENTZ
Instrument: Not specified, most likely a prism, grating, or hybrid spectrometer.
Sampling: TRANSMISSION
Resolution: 4
Origin: MELLON INSTITUTE
MICROMETERS	TRANSMITTANCE
2.042	0.855
2.0819	0.864
2.12181	0.865
2.16171	0.87
2.20161	0.875
2.24151	0.88
2.28142	0.879
2.32132	0.875
2.36122	0.879
2.40113	0.882
2.44103	0.887
2.48093	0.89
2.52084	0.899
2.56074	0.899
2.60064	0.901
2.64054	0.911
2.68045	0.901
2.72035	0.904
2.76025	0.899
2.80016	0.882
2.84006	0.862
2.87996	0.85
2.91987	0.838
2.95977	0.835
2.99967	0.838
3.03957	0.843
3.07948	0.847
3.11938	0.85
3.15928	0.857
3.19919	0.86
3.23909	0.864
3.27899	0.859
3.3189	0.775
3.3588	0.327
3.3987	0.187
3.4386	0.416
3.47851	0.379
3.51841	0.791
3.55831	0.89
3.59822	0.909
3.63812	0.914
3.67802	0.914
3.71793	0.916
3.75783	0.917
3.79773	0.924
3.83763	0.924
3.87754	0.924
3.91744	0.929
3.95734	0.931
3.99725	0.934
4.03715	0.934
4.07705	0.936
4.11696	0.936
4.15686	0.934
4.19676	0.932
4.23666	0.914
4.27657	0.906
4.31647	0.901
4.35637	0.902
4.39628	0.912
4.43618	0.917
4.47608	0.917
4.51599	0.914
4.55589	0.914
4.59579	0.914
4.63569	0.912
4.6756	0.912
4.7155	0.912
4.7554	0.914
4.79531	0.914
4.83521	0.912
4.87511	0.912
4.91502	0.911
4.95492	0.912
4.99482	0.914
5.03472	0.912
5.07463	0.912
5.11453	0.912
5.15443	0.911
5.19434	0.912
5.23424	0.916
5.27414	0.911
5.31405	0.911
5.35395	0.911
5.39385	0.914
5.43375	0.912
5.47366	0.911
5.51356	0.914
5.55346	0.919
5.59337	0.924
5.63327	0.927
5.67317	0.927
5.71308	0.927
5.75298	0.931
5.79288	0.932
5.83278	0.944
5.87269	0.942
5.91259	0.939
5.95249	0.939
5.9924	0.937
6.0323	0.937
6.0722	0.931
6.11211	0.931
6.15201	0.932
6.19191	0.939
6.23181	0.944
6.27172	0.951
6.31162	0.947
6.35152	0.931
6.39143	0.937
6.43133	0.932
6.47123	0.937
6.51114	0.934
6.55104	0.927
6.59094	0.931
6.63084	0.927
6.67075	0.926
6.71065	0.914
6.75055	0.895
6.79046	0.802
6.83036	0.697
6.87026	0.677
6.91017	0.696
6.95007	0.753
6.98997	0.81
7.02987	0.833
7.06978	0.837
7.10968	0.845
7.14958	0.842
7.18949	0.82
7.22939	0.751
7.26929	0.733
7.3092	0.751
7.3491	0.785
7.389	0.802
7.4289	0.807
7.46881	0.825
7.50871	0.842
7.54861	0.854
7.58852	0.86
7.62842	0.87
7.66832	0.879
7.70823	0.892
7.74813	0.904
7.78803	0.912
7.82793	0.919
7.86784	0.924
7.90774	0.927
7.94764	0.931
7.98755	0.936
8.02745	0.937
8.06735	0.941
8.10726	0.942
8.14716	0.944
8.18706	0.944
8.22696	0.944
8.26687	0.947
8.30677	0.949
8.34667	0.947
8.38658	0.947
8.42648	0.947
8.46638	0.947
8.50629	0.942
8.54619	0.939
8.58609	0.932
8.62599	0.924
8.6659	0.924
8.7058	0.917
8.7457	0.912
8.78561	0.906
8.82551	0.899
8.86541	0.89
8.90532	0.88
8.94522	0.867
8.98512	0.845
9.02502	0.813
9.06493	0.781
9.10483	0.731
9.14473	0.682
9.18464	0.62
9.22454	0.555
9.26444	0.501
9.30435	0.451
9.34425	0.399
9.38415	0.347
9.42405	0.303
9.46396	0.271
9.50386	0.251
9.54376	0.239
9.58367	0.229
9.62357	0.226
9.66347	0.219
9.70338	0.216
9.74328	0.209
9.78318	0.204
9.82308	0.199
9.86299	0.194
9.90289	0.189
9.94279	0.182
9.9827	0.179
10.0226	0.176
10.0625	0.172
10.1024	0.169
10.1423	0.166
10.1822	0.164
10.2221	0.162
10.262	0.162
10.3019	0.162
10.3418	0.162
10.3817	0.166
10.4216	0.174
10.4615	0.191
10.5014	0.214
10.5413	0.248
10.5812	0.285
10.6211	0.325
10.661	0.37
10.701	0.402
10.7409	0.436
10.7808	0.459
10.8207	0.484
10.8606	0.526
10.9005	0.568
10.9404	0.602
10.9803	0.644
11.0202	0.676
11.0601	0.699
11.1	0.719
11.1399	0.736
11.1798	0.753
11.2197	0.763
11.2596	0.775
11.2995	0.786
11.3394	0.796
11.3793	0.805
11.4192	0.812
11.4591	0.82
11.499	0.825
11.5389	0.828
11.5788	0.832
11.6187	0.832
11.6586	0.835
11.6985	0.84
11.7384	0.845
11.7783	0.852
11.8182	0.855
11.8581	0.862
11.898	0.865
11.9379	0.874
11.9778	0.877
12.0177	0.884
12.0577	0.887
12.0976	0.889
12.1375	0.892
12.1774	0.895
12.2173	0.899
12.2572	0.902
12.2971	0.902
12.337	0.904
12.3769	0.911
12.4168	0.909
12.4567	0.911
12.4966	0.911
12.5365	0.914
12.5764	0.914
12.6163	0.917
12.6562	0.917
12.6961	0.917
12.736	0.919
12.7759	0.921
12.8158	0.921
12.8557	0.922
12.8956	0.924
12.9355	0.921
12.9754	0.921
13.0153	0.921
13.0552	0.917
13.0951	0.917
13.135	0.919
13.1749	0.921
13.2148	0.921
13.2547	0.922
13.2946	0.922
13.3345	0.922
13.3745	0.921
13.4144	0.921
13.4543	0.921
13.4942	0.919
13.5341	0.914
13.574	0.912
13.6139	0.909
13.6538	0.909
13.6937	0.906
13.7336	0.902
13.7735	0.901
13.8134	0.901
13.8533	0.897
13.8932	0.892
13.9331	0.889
13.973	0.89
14.0129	0.892
14.0528	0.89
14.0927	0.889
14.1326	0.887
14.1725	0.887
14.2124	0.884
14.2523	0.88
14.2922	0.877
14.3321	0.875
14.372	0.874
14.4119	0.87
14.4518	0.864
14.4917	0.859
14.5316	0.852
14.5715	0.847
14.6114	0.842
14.6513	0.835
14.6913	0.83
14.7312	0.825
14.7711	0.823
14.811	0.817
14.8509	0.807
14.8908	0.803
14.9307	0.803
14.9706	0.795
15.0105	0.791
15.0504	0.786
15.0903	0.778
15.1302	0.773
15.1701	0.77
15.21	0.766
15.2499	0.76
15.2898	0.756
15.3297	0.751
15.3696	0.743
15.4095	0.741
15.4494	0.738
15.4893	0.731
15.5292	0.729
15.5691	0.726
15.609	0.724
15.6489	0.719
15.6888	0.718
15.7287	0.716
15.7686	0.713
15.8085	0.709
15.8484	0.706
15.8883	0.704
15.9282	0.703
15.9681	0.704
16.008	0.701
