Infrared Spectrum: BARIUM TRIDECANOATE
Formula: C26 H50 O4 Ba
State: SOLID (KBr PELLET)
Class: COBLENTZ
Instrument: Not specified, most likely a prism, grating, or hybrid spectrometer.
Sampling: TRANSMISSION
Resolution: 4
MICROMETERS	TRANSMITTANCE
2.02	0.302
2.05987	0.303
2.09973	0.302
2.1396	0.313
2.17946	0.323
2.21933	0.332
2.25919	0.338
2.29906	0.35
2.33893	0.36
2.37879	0.373
2.41866	0.385
2.45852	0.402
2.49839	0.415
2.53825	0.425
2.57812	0.435
2.61798	0.449
2.65785	0.465
2.69772	0.475
2.73758	0.475
2.77745	0.465
2.81731	0.45
2.85718	0.442
2.89704	0.442
2.93691	0.45
2.97678	0.472
3.01664	0.499
3.05651	0.51
3.09637	0.522
3.13624	0.532
3.1761	0.54
3.21597	0.549
3.25584	0.545
3.2957	0.524
3.33557	0.472
3.37543	0.228
3.4153	0.056
3.45516	0.08
3.49503	0.116
3.53489	0.222
3.57476	0.515
3.61463	0.604
3.65449	0.637
3.69436	0.656
3.73422	0.671
3.77409	0.677
3.81395	0.684
3.85382	0.696
3.89369	0.714
3.93355	0.726
3.97342	0.741
4.01328	0.746
4.05315	0.752
4.09301	0.757
4.13288	0.771
4.17275	0.781
4.21261	0.782
4.25248	0.782
4.29234	0.791
4.33221	0.809
4.37207	0.818
4.41194	0.818
4.4518	0.821
4.49167	0.836
4.53154	0.844
4.5714	0.848
4.61127	0.849
4.65113	0.854
4.691	0.861
4.73086	0.869
4.77073	0.871
4.8106	0.878
4.85046	0.881
4.89033	0.883
4.93019	0.884
4.97006	0.889
5.00992	0.893
5.04979	0.901
5.08966	0.911
5.12952	0.911
5.16939	0.921
5.20925	0.921
5.24912	0.924
5.28898	0.921
5.32885	0.934
5.36871	0.929
5.40858	0.943
5.44845	0.949
5.48831	0.951
5.52818	0.959
5.56804	0.946
5.60791	0.944
5.64777	0.933
5.68764	0.929
5.72751	0.909
5.76737	0.899
5.80724	0.903
5.8471	0.881
5.88697	0.904
5.92683	0.921
5.9667	0.901
6.00657	0.903
6.04643	0.888
6.0863	0.866
6.12616	0.833
6.16603	0.819
6.20589	0.824
6.24576	0.809
6.28562	0.786
6.32549	0.736
6.36536	0.667
6.40522	0.562
6.44509	0.435
6.48495	0.312
6.52482	0.111
6.56468	0.048
6.60455	0.031
6.64442	0.026
6.68428	0.046
6.72415	0.19
6.76401	0.315
6.80388	0.138
6.84374	0.138
6.88361	0.105
6.92348	0.046
6.96334	0.041
7.00321	0.173
7.04307	0.265
7.08294	0.076
7.1228	0.095
7.16267	0.355
7.20253	0.612
7.2424	0.692
7.28227	0.704
7.32213	0.736
7.362	0.751
7.40186	0.764
7.44173	0.696
7.48159	0.804
7.52146	0.739
7.56133	0.734
7.60119	0.834
7.64106	0.831
7.68092	0.659
7.72079	0.707
7.76065	0.762
7.80052	0.774
7.84039	0.749
7.88025	0.797
7.92012	0.864
7.95998	0.833
7.99985	0.833
8.03971	0.757
8.07958	0.866
8.11944	0.884
8.15931	0.856
8.19918	0.838
8.23904	0.848
8.27891	0.903
8.31877	0.913
8.35864	0.896
8.3985	0.841
8.43837	0.879
8.47824	0.918
8.5181	0.924
8.55797	0.928
8.59783	0.929
8.6377	0.941
8.67756	0.941
8.71743	0.943
8.7573	0.949
8.79716	0.946
8.83703	0.928
8.87689	0.904
8.91676	0.896
8.95662	0.781
8.99649	0.757
9.03635	0.816
9.07622	0.876
9.11609	0.891
9.15595	0.868
9.19582	0.829
9.23568	0.864
9.27555	0.889
9.31541	0.909
9.35528	0.923
9.39515	0.926
9.43501	0.916
9.47488	0.901
9.51474	0.903
9.55461	0.909
9.59447	0.913
9.63434	0.898
9.67421	0.889
9.71407	0.876
9.75394	0.884
9.7938	0.899
9.83367	0.908
9.87353	0.911
9.9134	0.916
9.95326	0.928
9.99313	0.943
10.033	0.958
10.0729	0.961
10.1127	0.943
10.1526	0.934
10.1925	0.936
10.2323	0.934
10.2722	0.954
10.3121	0.974
10.3519	0.976
10.3918	0.973
10.4317	0.971
10.4715	0.974
10.5114	0.976
10.5512	0.978
10.5911	0.978
10.631	0.953
10.6708	0.899
10.7107	0.849
10.7506	0.752
10.7904	0.691
10.8303	0.804
10.8702	0.879
10.91	0.926
10.9499	0.953
10.9898	0.963
11.0296	0.971
11.0695	0.974
11.1094	0.976
11.1492	0.976
11.1891	0.973
11.229	0.954
11.2688	0.933
11.3087	0.961
11.3486	0.978
11.3884	0.981
11.4283	0.988
11.4682	0.989
11.508	0.993
11.5479	0.998
11.5878	0.989
11.6276	0.978
11.6675	0.969
11.7074	0.959
11.7472	0.964
11.7871	0.971
11.827	0.973
11.8668	0.966
11.9067	0.939
11.9465	0.899
11.9864	0.913
12.0263	0.949
12.0661	0.973
12.106	0.971
12.1459	0.979
12.1857	0.976
12.2256	0.966
12.2655	0.969
12.3053	0.971
12.3452	0.968
12.3851	0.961
12.4249	0.959
12.4648	0.959
12.5047	0.958
12.5445	0.948
12.5844	0.939
12.6243	0.936
12.6641	0.938
12.704	0.946
12.7439	0.951
12.7837	0.956
12.8236	0.959
12.8635	0.959
12.9033	0.959
12.9432	0.953
12.9831	0.944
13.0229	0.929
13.0628	0.906
13.1027	0.824
13.1425	0.792
13.1824	0.841
13.2222	0.876
13.2621	0.898
13.302	0.903
13.3418	0.903
13.3817	0.904
13.4216	0.901
13.4614	0.893
13.5013	0.884
13.5412	0.863
13.581	0.856
13.6209	0.841
13.6608	0.813
13.7006	0.762
13.7405	0.692
13.7804	0.629
13.8202	0.524
13.8601	0.395
13.9	0.325
13.9398	0.352
13.9797	0.42
14.0196	0.479
14.0594	0.52
14.0993	0.539
14.1392	0.56
14.179	0.585
14.2189	0.604
14.2588	0.619
14.2986	0.629
14.3385	0.641
14.3784	0.656
14.4182	0.669
14.4581	0.686
14.4979	0.716
14.5378	0.749
14.5777	0.754
14.6175	0.759
14.6574	0.762
14.6973	0.769
14.7371	0.771
14.777	0.771
14.8169	0.771
14.8567	0.769
14.8966	0.761
14.9365	0.772
14.9763	0.771
15.0162	0.764
15.0561	0.746
15.0959	0.741
15.1358	0.741
15.1757	0.739
15.2155	0.737
15.2554	0.731
15.2953	0.727
15.3351	0.722
15.375	0.716
15.4149	0.714
15.4547	0.711
15.4946	0.707
15.5345	0.706
15.5743	0.701
15.6142	0.701
15.6541	0.694
15.6939	0.684
15.7338	0.679
15.7737	0.671
15.8135	0.661
15.8534	0.656
15.8932	0.651
15.9331	0.649
15.973	0.649
