Infrared Spectrum: URACIL, 5-AMINO-1,3-DIMETHYL-, HYDROCHLORIDE
Formula: C6 H10 Cl N3 O2
State: SOLID (0.7 mg / 500 mg KBr DISC)
Class: COBLENTZ III
Instrument: PERKIN-ELMER 221 (GRATING)
Instrument parameters: FILTER AT 980 CM ^-^1, GRATING FOR 4000-1428 CM^-^1, NaCl PRISM FOR 1428-650 CM^-^1
Sampling: TRANSMISSION
Resolution: 4
Origin: SOUTHERN RES. INSTITUTE
1/CM	TRANSMITTANCE
631.604	0.873
640.724	0.873
649.843	0.874
658.963	0.875
668.082	0.876
677.202	0.876
686.321	0.87
695.441	0.817
704.56	0.882
713.68	0.881
722.799	0.877
731.919	0.861
741.038	0.838
750.158	0.796
759.277	0.336
768.397	0.425
777.516	0.642
786.636	0.77
795.755	0.859
804.875	0.9
813.994	0.913
823.114	0.914
832.233	0.913
841.353	0.908
850.472	0.902
859.592	0.898
868.711	0.892
877.831	0.885
886.95	0.875
896.07	0.87
905.189	0.854
914.309	0.793
923.428	0.603
932.548	0.605
941.667	0.722
950.787	0.867
959.906	0.863
969.026	0.855
978.145	0.802
987.265	0.719
996.384	0.66
1005.5	0.826
1014.62	0.821
1023.74	0.814
1032.86	0.796
1041.98	0.781
1051.1	0.756
1060.22	0.721
1069.34	0.706
1078.46	0.618
1087.58	0.525
1096.7	0.55
1105.82	0.639
1114.94	0.713
1124.06	0.624
1133.18	0.523
1142.3	0.551
1151.42	0.696
1160.54	0.771
1169.65	0.771
1178.77	0.738
1187.89	0.675
1197.01	0.632
1206.13	0.728
1215.25	0.81
1224.37	0.799
1233.49	0.789
1242.61	0.778
1251.73	0.768
1260.85	0.75
1269.97	0.715
1279.09	0.604
1288.21	0.598
1297.33	0.731
1306.45	0.705
1315.57	0.66
1324.69	0.615
1333.81	0.521
1342.93	0.382
1352.04	0.393
1361.16	0.497
1370.28	0.53
1379.4	0.604
1388.52	0.677
1397.64	0.716
1406.76	0.697
1415.88	0.66
1425	0.605
1434.12	0.549
1443.24	0.533
1452.36	0.59
1461.48	0.542
1470.6	0.498
1479.72	0.438
1488.84	0.367
1497.96	0.362
1507.08	0.409
1516.2	0.48
1525.32	0.513
1534.43	0.531
1543.55	0.481
1552.67	0.396
1561.79	0.45
1570.91	0.531
1580.03	0.655
1589.15	0.715
1598.27	0.662
1607.39	0.604
1616.51	0.555
1625.63	0.491
1634.75	0.434
1643.87	0.364
1652.99	0.262
1662.11	0.176
1671.23	0.21
1680.35	0.274
1689.47	0.327
1698.59	0.376
1707.71	0.271
1716.82	0.248
1725.94	0.289
1735.06	0.341
1744.18	0.413
1753.3	0.518
1762.42	0.553
1771.54	0.592
1780.66	0.631
1789.78	0.669
1798.9	0.702
1808.02	0.734
1817.14	0.75
1826.26	0.762
1835.38	0.762
1844.5	0.757
1853.62	0.759
1862.74	0.764
1871.86	0.769
1880.98	0.785
1890.1	0.794
1899.21	0.802
1908.33	0.807
1917.45	0.8
1926.57	0.791
1935.69	0.79
1944.81	0.808
1953.93	0.817
1963.05	0.819
1972.17	0.815
1981.29	0.826
1990.41	0.844
1999.53	0.856
2008.65	0.868
2017.77	0.872
2026.89	0.875
2036.01	0.879
2045.13	0.882
2054.25	0.885
2063.37	0.887
2072.49	0.888
2081.6	0.887
2090.72	0.885
2099.84	0.881
2108.96	0.878
2118.08	0.876
2127.2	0.874
2136.32	0.873
2145.44	0.869
2154.56	0.866
2163.68	0.863
2172.8	0.86
2181.92	0.858
2191.04	0.857
2200.16	0.854
2209.28	0.849
2218.4	0.844
2227.52	0.838
2236.64	0.832
2245.76	0.827
2254.88	0.824
2263.99	0.824
2273.11	0.827
2282.23	0.829
2291.35	0.83
2300.47	0.825
2309.59	0.82
2318.71	0.811
2327.83	0.805
2336.95	0.796
2346.07	0.788
2355.19	0.783
2364.31	0.777
2373.43	0.771
2382.55	0.766
2391.67	0.757
2400.79	0.75
2409.91	0.742
2419.03	0.734
2428.15	0.722
2437.27	0.712
2446.38	0.697
2455.5	0.685
2464.62	0.67
2473.74	0.657
2482.86	0.644
2491.98	0.631
2501.1	0.612
2510.22	0.593
2519.34	0.573
2528.46	0.548
2537.58	0.522
2546.7	0.504
2555.82	0.483
2564.94	0.47
2574.06	0.469
2583.18	0.473
2592.3	0.484
2601.42	0.498
2610.54	0.541
2619.66	0.561
2628.77	0.561
2637.89	0.561
2647.01	0.555
2656.13	0.549
2665.25	0.529
2674.37	0.519
2683.49	0.509
2692.61	0.503
2701.73	0.5
2710.85	0.494
2719.97	0.487
2729.09	0.481
2738.21	0.469
2747.33	0.456
2756.45	0.443
2765.57	0.428
2774.69	0.412
2783.81	0.398
2792.93	0.392
2802.05	0.388
2811.16	0.384
2820.28	0.381
2829.4	0.379
2838.52	0.378
2847.64	0.377
2856.76	0.376
2865.88	0.376
2875	0.376
2884.12	0.377
2893.24	0.378
2902.36	0.378
2911.48	0.38
2920.6	0.384
2929.72	0.388
2938.84	0.395
2947.96	0.402
2957.08	0.41
2966.2	0.421
2975.32	0.432
2984.44	0.442
2993.55	0.451
3002.67	0.459
3011.79	0.468
3020.91	0.475
3030.03	0.481
3039.15	0.488
3048.27	0.493
3057.39	0.499
3066.51	0.504
3075.63	0.51
3084.75	0.524
3093.87	0.548
3102.99	0.582
3112.11	0.596
3121.23	0.614
3130.35	0.622
3139.47	0.63
3148.59	0.644
3157.71	0.651
3166.83	0.658
3175.94	0.666
3185.06	0.676
3194.18	0.686
3203.3	0.699
3212.42	0.708
3221.54	0.719
3230.66	0.73
3239.78	0.738
3248.9	0.744
3258.02	0.747
3267.14	0.748
3276.26	0.748
3285.38	0.746
3294.5	0.743
3303.62	0.741
3312.74	0.74
3321.86	0.736
3330.98	0.731
3340.1	0.719
3349.22	0.712
3358.33	0.706
3367.45	0.703
3376.57	0.699
3385.69	0.696
3394.81	0.693
3403.93	0.691
3413.05	0.69
3422.17	0.691
3431.29	0.691
3440.41	0.693
3449.53	0.694
3458.65	0.697
3467.77	0.7
3476.89	0.701
3486.01	0.704
3495.13	0.707
3504.25	0.712
3513.37	0.716
3522.49	0.725
3531.61	0.734
3540.73	0.743
3549.84	0.749
3558.96	0.755
3568.08	0.761
3577.2	0.767
3586.32	0.774
3595.44	0.78
3604.56	0.791
3613.68	0.801
3622.8	0.807
3631.92	0.811
3641.04	0.814
3650.16	0.816
3659.28	0.817
3668.4	0.818
3677.52	0.82
3686.64	0.821
3695.76	0.822
3704.88	0.823
3714	0.822
3723.12	0.82
3732.23	0.82
3741.35	0.819
3750.47	0.817
3759.59	0.819
3768.71	0.82
3777.83	0.82
3786.95	0.819
3796.07	0.818
3805.19	0.817
3814.31	0.816
3823.43	0.814
3832.55	0.814
3841.67	0.812
3850.79	0.812
3859.91	0.811
3869.03	0.811
3878.15	0.81
3887.27	0.809
3896.39	0.808
3905.51	0.805
3914.62	0.804
3923.74	0.802
3932.86	0.802
3941.98	0.801
3951.1	0.801
3960.22	0.8
3969.34	0.8
3978.46	0.799
3987.58	0.797
3996.7	0.795
