Infrared Spectrum: N-(3-HYDROXY-1-PROPENYL) TRIMETHYLAMMONIUM PERCHLORATE
Formula: C6 H14 Cl N O5
State: SOLID (KBr PELLET)
Melting point: 181.5-183.5 C
Class: COBLENTZ
Instrument: Not specified, most likely a prism, grating, or hybrid spectrometer.
Sampling: TRANSMISSION
Resolution: 4
Origin: EASTMAN KODAK COMPANY, RESEARCH LABORATORIES, ROCHESTER, N.Y.
MICROMETERS	TRANSMITTANCE
2.007	0.666
2.04687	0.661
2.08673	0.659
2.1266	0.656
2.16646	0.639
2.20633	0.605
2.24619	0.601
2.28606	0.625
2.32593	0.628
2.36579	0.641
2.40566	0.643
2.44552	0.649
2.48539	0.649
2.52525	0.649
2.56512	0.659
2.60498	0.664
2.64485	0.666
2.68472	0.667
2.72458	0.661
2.76445	0.618
2.80431	0.453
2.84418	0.253
2.88404	0.248
2.92391	0.259
2.96378	0.129
3.00364	0.042
3.04351	0.197
3.08337	0.366
3.12324	0.496
3.1631	0.529
3.20297	0.557
3.24284	0.531
3.2827	0.439
3.32257	0.404
3.36243	0.531
3.4023	0.495
3.44216	0.509
3.48203	0.501
3.52189	0.6
3.56176	0.549
3.60163	0.662
3.64149	0.68
3.68136	0.69
3.72122	0.671
3.76109	0.694
3.80095	0.72
3.84082	0.735
3.88069	0.733
3.92055	0.733
3.96042	0.726
4.00028	0.738
4.04015	0.759
4.08001	0.773
4.11988	0.789
4.15975	0.802
4.19961	0.802
4.23948	0.809
4.27934	0.81
4.31921	0.81
4.35907	0.814
4.39894	0.812
4.4388	0.805
4.47867	0.8
4.51854	0.796
4.5584	0.784
4.59827	0.81
4.63813	0.812
4.678	0.814
4.71786	0.812
4.75773	0.8
4.7976	0.771
4.83746	0.745
4.87733	0.73
4.91719	0.712
4.95706	0.7
4.99692	0.756
5.03679	0.799
5.07666	0.82
5.11652	0.83
5.15639	0.832
5.19625	0.825
5.23612	0.824
5.27598	0.824
5.31585	0.824
5.35571	0.814
5.39558	0.824
5.43545	0.819
5.47531	0.809
5.51518	0.804
5.55504	0.81
5.59491	0.814
5.63477	0.804
5.67464	0.776
5.71451	0.769
5.75437	0.769
5.79424	0.805
5.8341	0.804
5.87397	0.802
5.91383	0.782
5.9537	0.741
5.99357	0.781
6.03343	0.792
6.0733	0.773
6.11316	0.758
6.15303	0.761
6.19289	0.773
6.23276	0.791
6.27262	0.8
6.31249	0.804
6.35236	0.796
6.39222	0.796
6.43209	0.792
6.47195	0.782
6.51182	0.771
6.55168	0.756
6.59155	0.725
6.63142	0.666
6.67128	0.452
6.71115	0.243
6.75101	0.205
6.79088	0.141
6.83074	0.401
6.87061	0.493
6.91048	0.375
6.95034	0.287
6.99021	0.491
7.03007	0.603
7.06994	0.672
7.1098	0.643
7.14967	0.531
7.18953	0.654
7.2294	0.766
7.26927	0.782
7.30913	0.789
7.349	0.779
7.38886	0.768
7.42873	0.753
7.46859	0.715
7.50846	0.572
7.54833	0.684
7.58819	0.71
7.62806	0.641
7.66792	0.56
7.70779	0.603
7.74765	0.434
7.78752	0.458
7.82739	0.491
7.86725	0.386
7.90712	0.402
7.94698	0.519
7.98685	0.511
8.02671	0.542
8.06658	0.565
8.10644	0.587
8.14631	0.564
8.18618	0.513
8.22604	0.504
8.26591	0.5
8.30577	0.47
8.34564	0.424
8.3855	0.375
8.42537	0.291
8.46524	0.2
8.5051	0.151
8.54497	0.116
8.58483	0.06
8.6247	0.031
8.66456	0.018
8.70443	0.014
8.7443	0.014
8.78416	0.018
8.82403	0.018
8.86389	0.018
8.90376	0.018
8.94362	0.018
8.98349	0.016
9.02335	0.014
9.06322	0.014
9.10309	0.014
9.14295	0.013
9.18282	0.013
9.22268	0.014
9.26255	0.014
9.30241	0.018
9.34228	0.019
9.38215	0.024
9.42201	0.072
9.46188	0.131
9.50174	0.19
9.54161	0.233
9.58147	0.279
9.62134	0.322
9.66121	0.361
9.70107	0.368
9.74094	0.358
9.7808	0.419
9.82067	0.472
9.86053	0.511
9.9004	0.531
9.94026	0.513
9.98013	0.356
10.02	0.092
10.0599	0.152
10.0997	0.309
10.1396	0.432
10.1795	0.508
10.2193	0.552
10.2592	0.552
10.2991	0.498
10.3389	0.355
10.3788	0.129
10.4187	0.031
10.4585	0.029
10.4984	0.036
10.5382	0.082
10.5781	0.208
10.618	0.365
10.6578	0.371
10.6977	0.503
10.7376	0.593
10.7774	0.643
10.8173	0.646
10.8572	0.611
10.897	0.544
10.9369	0.333
10.9768	0.185
11.0166	0.324
11.0565	0.523
11.0964	0.656
11.1362	0.731
11.1761	0.773
11.216	0.802
11.2558	0.827
11.2957	0.843
11.3356	0.861
11.3754	0.871
11.4153	0.879
11.4552	0.883
11.495	0.893
11.5349	0.901
11.5748	0.902
11.6146	0.909
11.6545	0.911
11.6944	0.919
11.7342	0.922
11.7741	0.93
11.814	0.934
11.8538	0.939
11.8937	0.935
11.9335	0.94
11.9734	0.934
12.0133	0.94
12.0531	0.937
12.093	0.934
12.1329	0.934
12.1727	0.932
12.2126	0.93
12.2525	0.924
12.2923	0.921
12.3322	0.906
12.3721	0.889
12.4119	0.835
12.4518	0.748
12.4917	0.59
12.5315	0.524
12.5714	0.481
12.6113	0.399
12.6511	0.529
12.691	0.69
12.7309	0.784
12.7707	0.84
12.8106	0.865
12.8505	0.879
12.8903	0.884
12.9302	0.891
12.9701	0.911
13.0099	0.924
13.0498	0.93
13.0897	0.934
13.1295	0.934
13.1694	0.934
13.2092	0.94
13.2491	0.942
13.289	0.944
13.3288	0.94
13.3687	0.944
13.4086	0.944
13.4484	0.942
13.4883	0.945
13.5282	0.944
13.568	0.935
13.6079	0.939
13.6478	0.939
13.6876	0.932
13.7275	0.934
13.7674	0.932
13.8072	0.93
13.8471	0.932
13.887	0.932
13.9268	0.934
13.9667	0.934
14.0066	0.929
14.0464	0.922
14.0863	0.921
14.1262	0.921
14.166	0.904
14.2059	0.901
14.2458	0.898
14.2856	0.884
14.3255	0.884
14.3654	0.891
14.4052	0.891
14.4451	0.891
14.4849	0.893
14.5248	0.889
14.5647	0.884
14.6045	0.884
14.6444	0.876
14.6843	0.873
14.7241	0.871
14.764	0.863
14.8039	0.828
14.8437	0.825
14.8836	0.812
14.9235	0.777
14.9633	0.776
15.0032	0.802
15.0431	0.804
15.0829	0.796
15.1228	0.782
15.1627	0.771
15.2025	0.756
15.2424	0.74
15.2823	0.735
15.3221	0.725
15.362	0.712
15.4019	0.702
15.4417	0.685
15.4816	0.675
15.5215	0.661
15.5613	0.631
15.6012	0.605
15.6411	0.565
15.6809	0.542
15.7208	0.519
15.7607	0.506
15.8005	0.508
15.8404	0.514
15.8802	0.521
15.9201	0.521
15.96	0.519
