Infrared Spectrum: Pentachlorooctadecanoic acid, methyl ester
Formula: C19 H33 Cl5 O2
State: SOLUTION (10% CCl4 FOR 2.7-7.5, 10% CS2 FOR 7.5-26 MICRON) VS SOLVENT
Class: COBLENTZ
Instrument: DOW KBr FOREPRISM-GRATING
Instrument parameters: BLAZED AT 3.5, 12.0, 20.0 MICRON AND CHANGED AT 5.0, 7.5, 14.9 MICRON
Sampling: TRANSMISSION
Path length: 0.011 CM, 0.011 CM
Resolution: 2
Origin: DOW CHEMICAL COMPANY
1/CM	TRANSMITTANCE
3798	0.8584
3789	0.8587
3780	0.8593
3771	0.8597
3762	0.8602
3753	0.8607
3744	0.8613
3735	0.8615
3726	0.8618
3717	0.8621
3708	0.8621
3699	0.8621
3690	0.8621
3681	0.8621
3672	0.8618
3663	0.8617
3654	0.8617
3645	0.8617
3636	0.8617
3627	0.8618
3618	0.8618
3609	0.8618
3600	0.8618
3591	0.8618
3582	0.8621
3573	0.8623
3564	0.8625
3555	0.8635
3546	0.8644
3537	0.8653
3528	0.8663
3519	0.8673
3510	0.8683
3501	0.869
3492	0.8698
3483	0.8702
3474	0.8704
3465	0.8706
3456	0.8667
3447	0.8662
3438	0.8704
3429	0.8752
3420	0.8797
3411	0.8813
3402	0.8818
3393	0.8825
3384	0.8833
3375	0.8841
3366	0.8849
3357	0.8853
3348	0.8856
3339	0.8859
3330	0.8862
3321	0.8864
3312	0.8867
3303	0.8868
3294	0.8873
3285	0.8877
3276	0.8882
3267	0.8886
3258	0.8891
3249	0.8896
3240	0.8897
3231	0.8898
3222	0.8899
3213	0.8899
3204	0.89
3195	0.8899
3186	0.8897
3177	0.8896
3168	0.8894
3159	0.8892
3150	0.889
3141	0.8877
3132	0.8859
3123	0.8843
3114	0.8827
3105	0.8811
3096	0.8797
3087	0.8768
3078	0.8743
3069	0.8717
3060	0.8688
3051	0.8639
3042	0.8588
3033	0.849
3024	0.8245
3015	0.8057
3006	0.7958
2997	0.7624
2988	0.7026
2979	0.6119
2970	0.4328
2961	0.3345
2952	0.2362
2943	0.2144
2934	0.2274
2925	0.2388
2916	0.2808
2907	0.3673
2898	0.4625
2889	0.5577
2880	0.6254
2871	0.596
2862	0.4846
2853	0.4619
2844	0.5353
2835	0.6708
2826	0.7775
2817	0.8011
2808	0.8174
2799	0.8292
2790	0.8387
2781	0.8464
2772	0.8517
2763	0.8532
2754	0.8525
2745	0.8517
2736	0.8509
2727	0.8509
2718	0.8511
2709	0.8513
2700	0.8514
2691	0.8516
2682	0.8517
2673	0.8521
2664	0.8528
2655	0.8533
2646	0.8538
2637	0.8543
2628	0.8548
2619	0.855
2610	0.8554
2601	0.8556
2592	0.856
2583	0.8563
2574	0.8568
2565	0.8573
2556	0.8578
2547	0.8583
2538	0.8589
2529	0.8595
2520	0.8603
2511	0.8616
2502	0.863
2493	0.8642
2484	0.8653
2475	0.8666
2466	0.8681
2457	0.8691
2448	0.8694
2439	0.8695
2430	0.8693
2421	0.8687
2412	0.8677
2403	0.8671
2394	0.8668
2385	0.8667
2376	0.8668
2367	0.8668
2358	0.8673
2349	0.8678
2340	0.8682
2331	0.8684
2322	0.8665
2313	0.8627
2304	0.8625
2295	0.8637
2286	0.8654
2277	0.867
2268	0.8686
2259	0.8702
2250	0.8711
2241	0.8721
2232	0.8728
2223	0.8734
2214	0.8743
2205	0.8751
2196	0.8753
2187	0.8773
2178	0.8845
2169	0.8777
2160	0.8744
2151	0.8745
2142	0.8745
2133	0.8748
2124	0.8752
2115	0.8748
2106	0.8731
2097	0.8717
2088	0.8712
2079	0.8696
2070	0.8675
2061	0.8663
2052	0.8654
2043	0.8648
2034	0.8657
2025	0.8666
2016	0.8675
2007	0.8684
1998	0.8695
1989	0.8707
1980	0.8718
1971	0.8728
1962	0.8737
1953	0.8742
1944	0.8746
1935	0.8749
1926	0.8751
1917	0.8752
1908	0.8752
1899	0.8753
1890	0.8753
1881	0.8753
1872	0.8749
1863	0.8744
1854	0.8738
1845	0.8721
1836	0.8707
1827	0.8675
1818	0.8618
1809	0.855
1800	0.8449
1791	0.8323
1782	0.8137
1773	0.769
1764	0.6719
1755	0.4945
1746	0.2204
1737	0.0895
1728	0.2531
1719	0.5435
1710	0.6769
1701	0.7398
1692	0.7807
1683	0.8094
1674	0.8239
1665	0.832
1656	0.8363
1647	0.8386
1638	0.8408
1629	0.842
1620	0.8425
1611	0.8431
1602	0.8431
1593	0.8418
1584	0.8371
1575	0.8346
1566	0.8349
1557	0.8365
1548	0.8384
1539	0.8401
1530	0.8423
1521	0.845
1512	0.8421
1503	0.8371
1494	0.83
1485	0.8205
1476	0.8045
1467	0.5345
1458	0.4655
1449	0.4914
1440	0.3349
1431	0.6069
1422	0.6337
1413	0.7078
1404	0.7548
1395	0.7545
1386	0.6246
1377	0.5792
1368	0.5549
1359	0.5754
1350	0.6056
1341	0.621
1332	0.626
1323	0.5936
1314	0.5594
1305	0.5488
1296	0.5368
1287	0.5027
1278	0.4668
1269	0.4373
1260	0.4115
1251	0.4
1242	0.4046
1233	0.4221
1224	0.4324
1215	0.4219
1206	0.4062
1197	0.3918
1188	0.4288
1179	0.4342
1170	0.355
1161	0.3588
1152	0.4341
1143	0.5247
1134	0.5819
1125	0.6067
1116	0.6305
1107	0.6422
1098	0.6414
1089	0.6469
1080	0.6565
1071	0.6678
1062	0.6792
1053	0.689
1044	0.6945
1035	0.6948
1026	0.6878
1017	0.6798
1008	0.6786
999	0.6842
990	0.6878
981	0.7001
972	0.734
963	0.7507
954	0.7572
945	0.7583
936	0.7561
927	0.7501
918	0.746
909	0.7451
900	0.7491
891	0.7557
882	0.7525
873	0.7515
864	0.7578
855	0.7665
846	0.7722
837	0.7686
828	0.7696
819	0.7714
810	0.7615
801	0.7495
792	0.7425
783	0.7454
774	0.7555
765	0.7578
756	0.7449
747	0.7389
738	0.736
729	0.7282
720	0.7422
711	0.7735
702	0.7738
693	0.7549
684	0.7315
675	0.7082
666	0.6919
657	0.676
648	0.6391
639	0.6701
630	0.7064
621	0.6974
612	0.6499
603	0.6453
594	0.7111
585	0.7532
576	0.7799
567	0.7968
558	0.8107
549	0.8201
540	0.8262
531	0.8245
522	0.8205
513	0.8235
504	0.8274
495	0.8296
486	0.8308
477	0.831
468	0.8302
459	0.8285
450	0.8271
441	0.8249
432	0.8206
423	0.8168
414	0.8188
405	0.8214
396	0.8227
