Infrared Spectrum: 2-NORBORNANOL, 3-[(4-METHYL-1-PIPERAZINYL)METHYL]-, DIHYDROCHLORIDE
Formula: C13 H26 Cl2 N2 O
State: SOLID (SPLIT MULL), FLUOROLUBE FOR 3800-1330 CM^-^1, NUJOL FOR 1330-460 CM^-^1
Melting point: 228-229 C
Class: COBLENTZ III
Instrument: DOW KBr FOREPRISM-GRATING
Instrument parameters: BLAZED AT 3.5, 12.0, 20.0 MICRON AND CHANGED AT 5.0, 7.5, 14.9 MICRON
Sampling: TRANSMISSION
Resolution: 2
Origin: DOW CHEMICAL COMPANY
1/CM	TRANSMITTANCE
458	0.5012
467	0.4989
476	0.4923
485	0.4749
494	0.4752
503	0.4891
512	0.5465
521	0.5818
530	0.5855
539	0.5965
548	0.5959
557	0.5764
566	0.6508
575	0.5391
584	0.7075
593	0.7436
602	0.7646
611	0.78
620	0.7915
629	0.8014
638	0.81
647	0.8174
656	0.8225
665	0.8247
674	0.8478
683	0.8587
692	0.8575
701	0.8471
710	0.813
719	0.7564
728	0.7761
737	0.7807
746	0.7621
755	0.819
764	0.7586
773	0.7912
782	0.8112
791	0.8278
800	0.8183
809	0.7508
818	0.7092
827	0.753
836	0.8221
845	0.8288
854	0.8281
863	0.8015
872	0.8239
881	0.8078
890	0.7992
899	0.8031
908	0.6958
917	0.7842
926	0.783
935	0.7558
944	0.654
953	0.7642
962	0.6639
971	0.7026
980	0.2508
989	0.7058
998	0.7471
1007	0.7292
1016	0.6837
1025	0.4998
1034	0.5735
1043	0.5358
1052	0.1207
1061	0.4
1070	0.3776
1079	0.5705
1088	0.5269
1097	0.5209
1106	0.6598
1115	0.6411
1124	0.5365
1133	0.4386
1142	0.5137
1151	0.6062
1160	0.4788
1169	0.632
1178	0.3446
1187	0.4125
1196	0.5344
1205	0.6796
1214	0.6415
1223	0.7195
1232	0.6885
1241	0.6033
1250	0.6488
1259	0.5232
1268	0.5624
1277	0.4333
1286	0.5168
1295	0.4971
1304	0.4766
1313	0.3977
1322	0.5102
1331	0.5968
1340	0.4168
1349	0.4547
1358	0.6167
1367	0.5934
1376	0.6343
1385	0.6342
1394	0.6421
1403	0.648
1412	0.6446
1421	0.5772
1430	0.5082
1439	0.5004
1448	0.3336
1457	0.3152
1466	0.223
1475	0.4279
1484	0.7136
1493	0.8403
1502	0.8485
1511	0.8461
1520	0.8417
1529	0.8387
1538	0.8412
1547	0.8437
1556	0.8461
1565	0.8478
1574	0.8497
1583	0.8517
1592	0.8457
1601	0.8441
1610	0.8478
1619	0.8528
1628	0.8508
1637	0.8468
1646	0.8449
1655	0.8435
1664	0.8421
1673	0.8414
1682	0.8405
1691	0.8392
1700	0.838
1709	0.8394
1718	0.8416
1727	0.8416
1736	0.8423
1745	0.8433
1754	0.8424
1763	0.8414
1772	0.8402
1781	0.8388
1790	0.8374
1799	0.8363
1808	0.8351
1817	0.8335
1826	0.8318
1835	0.8301
1844	0.8282
1853	0.8257
1862	0.8232
1871	0.8241
1880	0.8251
1889	0.8257
1898	0.826
1907	0.8263
1916	0.8255
1925	0.8245
1934	0.8221
1943	0.8188
1952	0.8154
1961	0.8118
1970	0.808
1979	0.8018
1988	0.796
1997	0.8233
2006	0.8349
2015	0.8351
2024	0.8337
2033	0.8298
2042	0.8242
2051	0.8188
2060	0.8126
2069	0.8065
2078	0.7997
2087	0.793
2096	0.7875
2105	0.7821
2114	0.7781
2123	0.7745
2132	0.7744
2141	0.7742
2150	0.7726
2159	0.7682
2168	0.7635
2177	0.7585
2186	0.7539
2195	0.7485
2204	0.7428
2213	0.7364
2222	0.7298
2231	0.7203
2240	0.71
2249	0.6996
2258	0.6893
2267	0.6789
2276	0.6687
2285	0.659
2294	0.6497
2303	0.6391
2312	0.6189
2321	0.5992
2330	0.5858
2339	0.5757
2348	0.5672
2357	0.5609
2366	0.5578
2375	0.556
2384	0.5475
2393	0.5228
2402	0.4981
2411	0.4734
2420	0.4419
2429	0.4107
2438	0.3762
2447	0.3246
2456	0.2552
2465	0.22
2474	0.1716
2483	0.2291
2492	0.2654
2501	0.271
2510	0.2743
2519	0.3047
2528	0.3099
2537	0.2933
2546	0.2477
2555	0.2108
2564	0.1825
2573	0.1406
2582	0.0911
2591	0.0841
2600	0.0961
2609	0.1154
2618	0.1434
2627	0.2135
2636	0.2419
2645	0.2461
2654	0.2231
2663	0.2015
2672	0.2029
2681	0.2093
2690	0.2271
2699	0.2595
2708	0.3626
2717	0.4059
2726	0.4102
2735	0.4095
2744	0.4191
2753	0.3953
2762	0.3738
2771	0.3939
2780	0.3648
2789	0.3714
2798	0.3814
2807	0.3053
2816	0.2363
2825	0.3017
2834	0.3804
2843	0.4422
2852	0.4433
2861	0.3832
2870	0.2635
2879	0.2742
2888	0.2861
2897	0.2651
2906	0.1718
2915	0.2152
2924	0.1959
2933	0.1586
2942	0.0606
2951	0.0487
2960	0.0953
2969	0.2215
2978	0.4702
2987	0.6376
2996	0.6651
3005	0.6792
3014	0.6895
3023	0.6982
3032	0.7018
3041	0.703
3050	0.7034
3059	0.7034
3068	0.7022
3077	0.7003
3086	0.6978
3095	0.6944
3104	0.6907
3113	0.6868
3122	0.683
3131	0.6778
3140	0.6721
3149	0.6661
3158	0.6599
3167	0.6536
3176	0.646
3185	0.6374
3194	0.6289
3203	0.6188
3212	0.6079
3221	0.5964
3230	0.5828
3239	0.5694
3248	0.5562
3257	0.5429
3266	0.5297
3275	0.5164
3284	0.4975
3293	0.4779
3302	0.4582
3311	0.4378
3320	0.4131
3329	0.379
3338	0.3541
3347	0.3242
3356	0.27
3365	0.2339
3374	0.2311
3383	0.2373
3392	0.2596
3401	0.2804
3410	0.2951
3419	0.3071
3428	0.3173
3437	0.3262
3446	0.3355
3455	0.3448
3464	0.3536
3473	0.3625
3482	0.3742
3491	0.4028
3500	0.4474
3509	0.4926
3518	0.526
3527	0.5578
3536	0.5762
3545	0.5862
3554	0.5925
3563	0.596
3572	0.5992
3581	0.6016
3590	0.6032
3599	0.6042
3608	0.6049
3617	0.6044
3626	0.6037
3635	0.6027
3644	0.6005
3653	0.5981
3662	0.5953
3671	0.5922
3680	0.5895
3689	0.5869
3698	0.5843
3707	0.5817
3716	0.5793
3725	0.5768
3734	0.5744
3743	0.5721
3752	0.5698
3761	0.5672
3770	0.5645
3779	0.5622
3788	0.5604
3797	0.5586
