Infrared Spectrum: SODIUM FERROCYANIDE
Formula: Na4 Fe ( C N)6  * 10 H2 O
State: SOLID (NUJOL MULL)
Class: COBLENTZ
Instrument: Not specified, most likely a prism, grating, or hybrid spectrometer.
Sampling: TRANSMISSION
Resolution: 4
Origin: MELLON INSTITUTE
MICROMETERS	TRANSMITTANCE
2.054	0.968
2.09395	0.974
2.13391	0.981
2.17386	0.986
2.21381	0.988
2.25377	0.986
2.29372	0.974
2.33367	0.964
2.37363	0.963
2.41358	0.964
2.45353	0.963
2.49348	0.964
2.53344	0.963
2.57339	0.961
2.61334	0.951
2.6533	0.929
2.69325	0.829
2.7332	0.684
2.77316	0.255
2.81311	0.098
2.85306	0.08
2.89302	0.096
2.93297	0.1
2.97292	0.153
3.01288	0.27
3.05283	0.352
3.09278	0.42
3.13273	0.537
3.17269	0.627
3.21264	0.686
3.25259	0.699
3.29255	0.667
3.3325	0.477
3.37245	0.096
3.41241	0.153
3.45236	0.173
3.49231	0.313
3.53227	0.716
3.57222	0.874
3.61217	0.913
3.65213	0.916
3.69208	0.918
3.73203	0.919
3.77198	0.921
3.81194	0.928
3.85189	0.938
3.89184	0.948
3.9318	0.951
3.97175	0.949
4.0117	0.946
4.05166	0.941
4.09161	0.941
4.13156	0.948
4.17152	0.949
4.21147	0.944
4.25142	0.928
4.29138	0.921
4.33133	0.918
4.37128	0.921
4.41123	0.929
4.45119	0.931
4.49114	0.928
4.53109	0.923
4.57105	0.913
4.611	0.906
4.65095	0.899
4.69091	0.886
4.73086	0.869
4.77081	0.841
4.81077	0.762
4.85072	0.525
4.89067	0.223
4.93063	0.126
4.97058	0.11
5.01053	0.098
5.05048	0.205
5.09044	0.358
5.13039	0.492
5.17034	0.614
5.2103	0.696
5.25025	0.732
5.2902	0.774
5.33016	0.803
5.37011	0.823
5.41006	0.841
5.45002	0.854
5.48997	0.861
5.52992	0.866
5.56988	0.878
5.60983	0.889
5.64978	0.896
5.68973	0.901
5.72969	0.903
5.76964	0.901
5.80959	0.906
5.84955	0.903
5.8895	0.903
5.92945	0.903
5.96941	0.886
6.00936	0.808
6.04931	0.686
6.08927	0.512
6.12922	0.367
6.16917	0.449
6.20913	0.696
6.24908	0.791
6.28903	0.824
6.32898	0.831
6.36894	0.833
6.40889	0.831
6.44884	0.833
6.4888	0.838
6.52875	0.841
6.5687	0.839
6.60866	0.838
6.64861	0.839
6.68856	0.839
6.72852	0.839
6.76847	0.821
6.80842	0.684
6.84838	0.539
6.88833	0.522
6.92828	0.55
6.96823	0.609
7.00819	0.694
7.04814	0.759
7.08809	0.806
7.12805	0.824
7.168	0.823
7.20795	0.766
7.24791	0.666
7.28786	0.654
7.32781	0.677
7.36777	0.722
7.40772	0.754
7.44767	0.762
7.48763	0.771
7.52758	0.777
7.56753	0.784
7.60748	0.787
7.64744	0.791
7.68739	0.794
7.72734	0.797
7.7673	0.799
7.80725	0.803
7.8472	0.804
7.88716	0.808
7.92711	0.809
7.96706	0.809
8.00702	0.811
8.04697	0.813
8.08692	0.813
8.12688	0.814
8.16683	0.814
8.20678	0.813
8.24673	0.813
8.28669	0.813
8.32664	0.813
8.36659	0.814
8.40655	0.814
8.4465	0.814
8.48645	0.814
8.52641	0.814
8.56636	0.813
8.60631	0.813
8.64627	0.811
8.68622	0.811
8.72617	0.809
8.76613	0.808
8.80608	0.808
8.84603	0.808
8.88598	0.806
8.92594	0.803
8.96589	0.803
9.00584	0.801
9.0458	0.799
9.08575	0.801
9.1257	0.801
9.16566	0.799
9.20561	0.797
9.24556	0.797
9.28552	0.796
9.32547	0.796
9.36542	0.796
9.40538	0.794
9.44533	0.791
9.48528	0.791
9.52523	0.791
9.56519	0.789
9.60514	0.787
9.64509	0.786
9.68505	0.786
9.725	0.784
9.76495	0.782
9.80491	0.781
9.84486	0.779
9.88481	0.777
9.92477	0.777
9.96472	0.777
10.0047	0.776
10.0446	0.774
10.0846	0.774
10.1245	0.774
10.1645	0.772
10.2044	0.772
10.2444	0.772
10.2843	0.772
10.3243	0.772
10.3643	0.772
10.4042	0.772
10.4442	0.771
10.4841	0.771
10.5241	0.769
10.564	0.766
10.604	0.762
10.6439	0.762
10.6839	0.762
10.7238	0.761
10.7638	0.761
10.8037	0.761
10.8437	0.761
10.8836	0.761
10.9236	0.761
10.9635	0.761
11.0035	0.761
11.0435	0.761
11.0834	0.759
11.1234	0.759
11.1633	0.759
11.2033	0.757
11.2432	0.757
11.2832	0.757
11.3231	0.761
11.3631	0.764
11.403	0.767
11.443	0.769
11.4829	0.771
11.5229	0.772
11.5628	0.774
11.6028	0.774
11.6428	0.772
11.6827	0.771
11.7227	0.771
11.7626	0.771
11.8026	0.771
11.8425	0.771
11.8825	0.771
11.9224	0.771
11.9624	0.771
12.0023	0.771
12.0423	0.769
12.0822	0.767
12.1222	0.766
12.1621	0.764
12.2021	0.762
12.242	0.761
12.282	0.759
12.322	0.759
12.3619	0.757
12.4019	0.756
12.4418	0.757
12.4818	0.756
12.5217	0.756
12.5617	0.756
12.6016	0.754
12.6416	0.752
12.6815	0.751
12.7215	0.751
12.7614	0.752
12.8014	0.752
12.8413	0.751
12.8813	0.746
12.9213	0.741
12.9612	0.737
13.0012	0.729
13.0411	0.722
13.0811	0.717
13.121	0.711
13.161	0.707
13.2009	0.702
13.2409	0.697
13.2808	0.691
13.3208	0.684
13.3607	0.679
13.4007	0.671
13.4406	0.664
13.4806	0.657
13.5205	0.651
13.5605	0.647
13.6005	0.641
13.6404	0.634
13.6804	0.627
13.7203	0.621
13.7603	0.612
13.8002	0.606
13.8402	0.604
13.8801	0.599
13.9201	0.595
13.96	0.59
14	0.587
14.0399	0.58
14.0799	0.58
14.1198	0.579
14.1598	0.579
14.1998	0.579
14.2397	0.575
14.2797	0.575
14.3196	0.575
14.3596	0.569
14.3995	0.569
14.4395	0.565
14.4794	0.562
14.5194	0.56
14.5593	0.559
14.5993	0.557
14.6392	0.555
14.6792	0.555
14.7191	0.549
14.7591	0.547
14.799	0.544
14.839	0.542
14.879	0.539
14.9189	0.532
14.9589	0.527
14.9988	0.522
15.0388	0.519
15.0787	0.515
15.1187	0.512
15.1586	0.512
15.1986	0.512
15.2385	0.51
15.2785	0.51
15.3184	0.509
15.3584	0.509
15.3983	0.509
15.4383	0.507
15.4783	0.507
15.5182	0.504
15.5582	0.502
15.5981	0.502
15.6381	0.5
15.678	0.499
15.718	0.499
15.7579	0.504
15.7979	0.502
15.8378	0.502
15.8778	0.502
15.9177	0.502
15.9577	0.504
15.9976	0.666
