Infrared Spectrum: DIMENHYDRINATE
Formula: C24 H28 Cl N5 O3
State: SOLID (MULL)
Melting point: 102-127 C
Class: COBLENTZ III
Instrument: PERKIN-ELMER 21 (GRATING)
Instrument parameters: NaCl PRISM
Sampling: TRANSMISSION
Resolution: 2
Origin: SMITH KLINE & FRENCH
1/CM	TRANSMITTANCE
4000	0.5832
3991	0.5854
3982	0.5878
3973	0.5901
3964	0.5924
3955	0.5946
3946	0.5968
3937	0.599
3928	0.601
3919	0.6033
3910	0.6055
3901	0.6077
3892	0.6093
3883	0.611
3874	0.6126
3865	0.6143
3856	0.6158
3847	0.6175
3838	0.6192
3829	0.6209
3820	0.6224
3811	0.6235
3802	0.6244
3793	0.6253
3784	0.6262
3775	0.6271
3766	0.628
3757	0.6292
3748	0.6304
3739	0.6317
3730	0.6329
3721	0.6342
3712	0.6356
3703	0.6372
3694	0.6388
3685	0.6405
3676	0.6421
3667	0.6439
3658	0.6453
3649	0.6464
3640	0.6474
3631	0.6486
3622	0.6497
3613	0.6506
3604	0.6515
3595	0.6525
3586	0.6533
3577	0.6543
3568	0.6553
3559	0.6561
3550	0.6571
3541	0.6582
3532	0.6592
3523	0.6601
3514	0.6612
3505	0.6624
3496	0.663
3487	0.6635
3478	0.6641
3469	0.6646
3460	0.6649
3451	0.6651
3442	0.6653
3433	0.6656
3424	0.6658
3415	0.666
3406	0.6661
3397	0.6662
3388	0.6665
3379	0.6667
3370	0.6668
3361	0.6669
3352	0.6671
3343	0.6672
3334	0.6675
3325	0.6678
3316	0.668
3307	0.6683
3298	0.6686
3289	0.6689
3280	0.6688
3271	0.6685
3262	0.6683
3253	0.668
3244	0.6675
3235	0.6669
3226	0.6665
3217	0.6664
3208	0.6662
3199	0.6661
3190	0.6661
3181	0.6662
3172	0.6669
3163	0.6675
3154	0.6682
3145	0.6683
3136	0.6681
3127	0.668
3118	0.6678
3109	0.6675
3100	0.6672
3091	0.6668
3082	0.6661
3073	0.6644
3064	0.6618
3055	0.6578
3046	0.6525
3037	0.6438
3028	0.634
3019	0.624
3010	0.6151
3001	0.6062
2992	0.5973
2983	0.5885
2974	0.5794
2965	0.5628
2956	0.5331
2947	0.456
2938	0.4173
2929	0.3199
2920	0.2254
2911	0.1949
2902	0.1803
2893	0.1669
2884	0.1538
2875	0.1396
2866	0.1262
2857	0.1213
2848	0.1187
2839	0.1164
2830	0.1129
2821	0.1115
2812	0.1131
2803	0.1812
2794	0.229
2785	0.3229
2776	0.4651
2767	0.5539
2758	0.5924
2749	0.6148
2740	0.6335
2731	0.6515
2722	0.6689
2713	0.6778
2704	0.6815
2695	0.6835
2686	0.6851
2677	0.6858
2668	0.6862
2659	0.6861
2650	0.686
2641	0.6845
2632	0.6828
2623	0.6808
2614	0.6785
2605	0.6761
2596	0.6739
2587	0.6717
2578	0.6701
2569	0.6693
2560	0.6686
2551	0.6685
2542	0.6684
2533	0.6684
2524	0.6686
2515	0.6688
2506	0.669
2497	0.6693
2488	0.6695
2479	0.6698
2470	0.6682
2461	0.6662
2452	0.6639
2443	0.6606
2434	0.6571
2425	0.6535
2416	0.6498
2407	0.6462
2398	0.6431
2389	0.6398
2380	0.636
2371	0.6323
2362	0.6303
2353	0.629
2344	0.6288
2335	0.6285
2326	0.6283
2317	0.6281
2308	0.6277
2299	0.6268
2290	0.6255
2281	0.6241
2272	0.6226
2263	0.621
2254	0.6195
2245	0.618
2236	0.6162
2227	0.6141
2218	0.6119
2209	0.6102
2200	0.6112
2191	0.6138
2182	0.6138
2173	0.6132
2164	0.6132
2155	0.6132
2146	0.6145
2137	0.6169
2128	0.6197
2119	0.6226
2110	0.6275
2101	0.6351
2092	0.6366
2083	0.6419
2074	0.6486
2065	0.6543
2056	0.659
2047	0.6617
2038	0.6646
2029	0.6682
2020	0.6721
2011	0.6762
2002	0.6806
1993	0.6846
1984	0.6891
1975	0.6939
1966	0.6987
1957	0.7038
1948	0.7114
1939	0.7187
1930	0.7261
1921	0.7325
1912	0.7408
1903	0.7511
1894	0.7511
1885	0.7518
1876	0.7593
1867	0.7703
1858	0.7778
1849	0.7791
1840	0.7797
1831	0.7795
1822	0.779
1813	0.781
1804	0.7921
1795	0.7953
1786	0.7935
1777	0.7921
1768	0.791
1759	0.79
1750	0.7893
1741	0.783
1732	0.7774
1723	0.7718
1714	0.7483
1705	0.7128
1696	0.5686
1687	0.3702
1678	0.0942
1669	0.1475
1660	0.3071
1651	0.3836
1642	0.211
1633	0.0906
1624	0.1962
1615	0.2875
1606	0.4021
1597	0.5179
1588	0.6333
1579	0.6424
1570	0.555
1561	0.5633
1552	0.6347
1543	0.6396
1534	0.6507
1525	0.4277
1516	0.3118
1507	0.289
1498	0.4509
1489	0.4597
1480	0.3848
1471	0.3414
1462	0.1971
1453	0.1644
1444	0.1202
1435	0.3249
1426	0.4451
1417	0.5292
1408	0.5635
1399	0.5827
1390	0.6364
1381	0.5429
1372	0.3262
1363	0.375
1354	0.3273
1345	0.363
1336	0.3629
1327	0.4207
1318	0.4834
1309	0.4137
1300	0.5586
1291	0.448
1282	0.3134
1273	0.2182
1264	0.5301
1255	0.4652
1246	0.2043
1237	0.3318
1228	0.4699
1219	0.5724
1210	0.4715
1201	0.4049
1192	0.6245
1183	0.626
1174	0.5076
1165	0.4424
1156	0.4316
1147	0.4528
1138	0.511
1129	0.5389
1120	0.4562
1111	0.2004
1102	0.3198
1093	0.6001
1084	0.6588
1075	0.6303
1066	0.5772
1057	0.6001
1048	0.3682
1039	0.3732
1030	0.5893
1021	0.4793
1012	0.6786
1003	0.713
994	0.618
985	0.6528
976	0.43
967	0.5162
958	0.7004
949	0.7137
940	0.7261
931	0.5766
922	0.7083
913	0.7599
904	0.7886
895	0.7801
886	0.7318
877	0.7778
868	0.7962
859	0.8025
850	0.7871
841	0.8069
832	0.8025
823	0.8317
814	0.8418
805	0.8453
796	0.8462
787	0.7643
778	0.8203
769	0.8022
760	0.51
751	0.281
742	0.573
733	0.7476
724	0.7574
715	0.748
706	0.2477
697	0.3671
688	0.7384
679	0.7508
670	0.6393
661	0.6981
