Infrared Spectrum: SODIUM SELENITE
Formula: Na2 Se O3
State: SOLID (NUJOL MULL)
Class: COBLENTZ
Instrument: Not specified, most likely a prism, grating, or hybrid spectrometer.
Sampling: TRANSMISSION
Resolution: 4
Origin: MELLON INSTITUTE
MICROMETERS	TRANSMITTANCE
2.021	0.768
2.06179	0.773
2.10258	0.781
2.14337	0.786
2.18416	0.792
2.22496	0.798
2.26575	0.802
2.30654	0.798
2.34733	0.802
2.38812	0.812
2.42891	0.816
2.4697	0.821
2.51049	0.829
2.55129	0.833
2.59208	0.833
2.63287	0.845
2.67366	0.843
2.71445	0.847
2.75524	0.84
2.79603	0.835
2.83682	0.821
2.87762	0.802
2.91841	0.797
2.9592	0.788
2.99999	0.788
3.04078	0.788
3.08157	0.79
3.12236	0.792
3.16315	0.795
3.20395	0.798
3.24474	0.797
3.28553	0.768
3.32632	0.637
3.36711	0.209
3.4079	0.166
3.44869	0.381
3.48948	0.341
3.53028	0.823
3.57107	0.881
3.61186	0.896
3.65265	0.898
3.69344	0.902
3.73423	0.907
3.77502	0.908
3.81581	0.91
3.85661	0.915
3.8974	0.919
3.93819	0.924
3.97898	0.924
4.01977	0.927
4.06056	0.927
4.10135	0.929
4.14214	0.931
4.18294	0.932
4.22373	0.927
4.26452	0.917
4.30531	0.91
4.3461	0.907
4.38689	0.915
4.42768	0.924
4.46847	0.926
4.50926	0.929
4.55006	0.927
4.59085	0.929
4.63164	0.927
4.67243	0.929
4.71322	0.931
4.75401	0.932
4.7948	0.932
4.83559	0.932
4.87639	0.934
4.91718	0.934
4.95797	0.934
4.99876	0.936
5.03955	0.936
5.08034	0.938
5.12113	0.943
5.16192	0.945
5.20272	0.945
5.24351	0.948
5.2843	0.948
5.32509	0.95
5.36588	0.95
5.40667	0.95
5.44746	0.95
5.48825	0.95
5.52905	0.95
5.56984	0.95
5.61063	0.95
5.65142	0.951
5.69221	0.95
5.733	0.953
5.77379	0.95
5.81458	0.951
5.85538	0.953
5.89617	0.955
5.93696	0.955
5.97775	0.953
6.01854	0.953
6.05933	0.953
6.10012	0.951
6.14091	0.955
6.18171	0.958
6.2225	0.962
6.26329	0.963
6.30408	0.962
6.34487	0.951
6.38566	0.95
6.42645	0.939
6.46724	0.934
6.50804	0.927
6.54883	0.924
6.58962	0.919
6.63041	0.905
6.6712	0.878
6.71199	0.817
6.75278	0.747
6.79357	0.659
6.83436	0.548
6.87516	0.525
6.91595	0.532
6.95674	0.599
6.99753	0.709
7.03832	0.759
7.07911	0.816
7.1199	0.845
7.16069	0.85
7.20149	0.836
7.24228	0.788
7.28307	0.812
7.32386	0.845
7.36465	0.888
7.40544	0.903
7.44623	0.912
7.48702	0.926
7.52782	0.936
7.56861	0.941
7.6094	0.943
7.65019	0.945
7.69098	0.945
7.73177	0.951
7.77256	0.953
7.81335	0.955
7.85415	0.957
7.89494	0.96
7.93573	0.96
7.97652	0.962
8.01731	0.962
8.0581	0.96
8.09889	0.963
8.13968	0.965
8.18048	0.963
8.22127	0.963
8.26206	0.963
8.30285	0.963
8.34364	0.963
8.38443	0.96
8.42522	0.945
8.46601	0.938
8.50681	0.927
8.5476	0.917
8.58839	0.91
8.62918	0.902
8.66997	0.9
8.71076	0.9
8.75155	0.896
8.79234	0.895
8.83314	0.89
8.87393	0.886
8.91472	0.886
8.95551	0.886
8.9963	0.888
9.03709	0.89
9.07788	0.902
9.11867	0.907
9.15946	0.912
9.20026	0.914
9.24105	0.915
9.28184	0.915
9.32263	0.917
9.36342	0.919
9.40421	0.924
9.445	0.927
9.48579	0.929
9.52659	0.929
9.56738	0.929
9.60817	0.929
9.64896	0.929
9.68975	0.931
9.73054	0.931
9.77133	0.931
9.81212	0.931
9.85292	0.932
9.89371	0.932
9.9345	0.929
9.97529	0.927
10.0161	0.927
10.0569	0.931
10.0977	0.932
10.1385	0.929
10.1792	0.927
10.22	0.927
10.2608	0.927
10.3016	0.929
10.3424	0.927
10.3832	0.927
10.424	0.927
10.4648	0.927
10.5056	0.929
10.5464	0.931
10.5872	0.932
10.6279	0.931
10.6687	0.929
10.7095	0.929
10.7503	0.927
10.7911	0.929
10.8319	0.927
10.8727	0.929
10.9135	0.931
10.9543	0.931
10.9951	0.929
11.0359	0.929
11.0767	0.927
11.1174	0.927
11.1582	0.929
11.199	0.929
11.2398	0.927
11.2806	0.926
11.3214	0.927
11.3622	0.926
11.403	0.926
11.4438	0.922
11.4846	0.915
11.5254	0.91
11.5661	0.903
11.6069	0.903
11.6477	0.903
11.6885	0.902
11.7293	0.903
11.7701	0.903
11.8109	0.903
11.8517	0.903
11.8925	0.903
11.9333	0.903
11.9741	0.903
12.0149	0.903
12.0556	0.902
12.0964	0.898
12.1372	0.891
12.178	0.884
12.2188	0.872
12.2596	0.855
12.3004	0.833
12.3412	0.8
12.382	0.764
12.4228	0.702
12.4636	0.628
12.5043	0.524
12.5451	0.439
12.5859	0.357
12.6267	0.29
12.6675	0.243
12.7083	0.221
12.7491	0.219
12.7899	0.231
12.8307	0.283
12.8715	0.319
12.9123	0.324
12.953	0.321
12.9938	0.3
13.0346	0.269
13.0754	0.231
13.1162	0.204
13.157	0.197
13.1978	0.189
13.2386	0.18
13.2794	0.168
13.3202	0.158
13.361	0.152
13.4018	0.144
13.4425	0.142
13.4833	0.14
13.5241	0.135
13.5649	0.134
13.6057	0.132
13.6465	0.13
13.6873	0.13
13.7281	0.13
13.7689	0.132
13.8097	0.134
13.8505	0.142
13.8912	0.176
13.932	0.219
13.9728	0.274
14.0136	0.328
14.0544	0.367
14.0952	0.415
14.136	0.458
14.1768	0.493
14.2176	0.522
14.2584	0.542
14.2992	0.563
14.34	0.58
14.3807	0.599
14.4215	0.611
14.4623	0.62
14.5031	0.632
14.5439	0.637
14.5847	0.642
14.6255	0.647
14.6663	0.652
14.7071	0.656
14.7479	0.659
14.7887	0.661
14.8294	0.663
14.8702	0.664
14.911	0.666
14.9518	0.668
14.9926	0.67
15.0334	0.67
15.0742	0.668
15.115	0.67
15.1558	0.668
15.1966	0.668
15.2374	0.668
15.2781	0.668
15.3189	0.668
15.3597	0.666
15.4005	0.668
15.4413	0.668
15.4821	0.666
15.5229	0.668
15.5637	0.664
15.6045	0.666
15.6453	0.664
15.6861	0.661
15.7269	0.661
15.7676	0.659
15.8084	0.658
15.8492	0.656
15.89	0.654
15.9308	0.654
15.9716	0.654
