Infrared Spectrum: Ethomeen 18/25 hydrochloride
Formula: C28 H60 Cl N O5
State: SEMI-SOLID (NEAT)
Class: COBLENTZ III
Instrument: PERKIN-ELMER 157
Sampling: TRANSMISSION
Resolution: 2
Origin: BRITISH PETROLEUM CO. LTD., ENGLAND
1/CM	TRANSMITTANCE
668	0.3471
677	0.3878
686	0.4058
695	0.4081
704	0.3989
713	0.3367
722	0.2534
731	0.3536
740	0.4027
749	0.4311
758	0.4644
767	0.4871
776	0.4934
785	0.487
794	0.4781
803	0.4486
812	0.4255
821	0.4056
830	0.3924
839	0.3953
848	0.407
857	0.4067
866	0.3701
875	0.3275
884	0.2757
893	0.2558
902	0.3076
911	0.304
920	0.2695
929	0.2455
938	0.2371
947	0.2483
956	0.2593
965	0.2758
974	0.2889
983	0.2838
992	0.2564
1001	0.2265
1010	0.2012
1019	0.1611
1028	0.1212
1037	0.0853
1046	0.0649
1055	0.0479
1064	0.0376
1073	0.0328
1082	0.036
1091	0.0369
1100	0.0333
1109	0.0302
1118	0.0286
1127	0.0303
1136	0.0326
1145	0.0399
1154	0.0906
1163	0.1895
1172	0.2826
1181	0.3423
1190	0.3598
1199	0.3542
1208	0.334
1217	0.2992
1226	0.2666
1235	0.2444
1244	0.2086
1253	0.2011
1262	0.2194
1271	0.231
1280	0.2163
1289	0.1962
1298	0.185
1307	0.2059
1316	0.2268
1325	0.2387
1334	0.2445
1343	0.2055
1352	0.1395
1361	0.1534
1370	0.1633
1379	0.1649
1388	0.1842
1397	0.1733
1406	0.1673
1415	0.1581
1424	0.1554
1433	0.1289
1442	0.0757
1451	0.0575
1460	0.0512
1469	0.054
1478	0.1294
1487	0.2108
1496	0.352
1505	0.479
1514	0.563
1523	0.5946
1532	0.62
1541	0.6307
1550	0.6337
1559	0.6354
1568	0.6359
1577	0.6358
1586	0.6353
1595	0.6335
1604	0.6184
1613	0.5978
1622	0.5768
1631	0.5502
1640	0.5471
1649	0.5611
1658	0.5828
1667	0.5942
1676	0.6451
1685	0.662
1694	0.6665
1703	0.6555
1712	0.6447
1721	0.6258
1730	0.6365
1739	0.6534
1748	0.665
1757	0.6778
1766	0.7027
1775	0.7245
1784	0.728
1793	0.729
1802	0.7299
1811	0.7304
1820	0.7308
1829	0.7311
1838	0.7304
1847	0.729
1856	0.7263
1865	0.7224
1874	0.7177
1883	0.7127
1892	0.7073
1901	0.7014
1910	0.6944
1919	0.6875
1928	0.6788
1937	0.6618
1946	0.6594
1955	0.6584
1964	0.6583
1973	0.6605
1982	0.668
1991	0.6699
2000	0.6699
2009	0.6697
2018	0.6673
2027	0.6629
2036	0.6594
2045	0.6575
2054	0.6555
2063	0.6508
2072	0.6471
2081	0.644
2090	0.636
2099	0.6236
2108	0.6156
2117	0.608
2126	0.602
2135	0.5952
2144	0.5866
2153	0.5806
2162	0.5745
2171	0.5675
2180	0.5603
2189	0.5541
2198	0.5481
2207	0.5417
2216	0.5348
2225	0.5258
2234	0.5063
2243	0.4955
2252	0.4827
2261	0.4717
2270	0.4539
2279	0.4363
2288	0.422
2297	0.4007
2306	0.3777
2315	0.3568
2324	0.3408
2333	0.3283
2342	0.3152
2351	0.3035
2360	0.2972
2369	0.2919
2378	0.2869
2387	0.2768
2396	0.2666
2405	0.2523
2414	0.2341
2423	0.2182
2432	0.2015
2441	0.1895
2450	0.1782
2459	0.1673
2468	0.1612
2477	0.159
2486	0.1585
2495	0.1582
2504	0.1578
2513	0.1576
2522	0.1575
2531	0.1543
2540	0.147
2549	0.1422
2558	0.1409
2567	0.1403
2576	0.1401
2585	0.14
2594	0.1401
2603	0.1405
2612	0.1413
2621	0.1432
2630	0.1458
2639	0.1499
2648	0.1531
2657	0.1549
2666	0.1555
2675	0.156
2684	0.1561
2693	0.1562
2702	0.1562
2711	0.1562
2720	0.1562
2729	0.1562
2738	0.1561
2747	0.1559
2756	0.1542
2765	0.1479
2774	0.1413
2783	0.1323
2792	0.1218
2801	0.1091
2810	0.0936
2819	0.0737
2828	0.0537
2837	0.0419
2846	0.0337
2855	0.0319
2864	0.0318
2873	0.0318
2882	0.0319
2891	0.032
2900	0.032
2909	0.0323
2918	0.0325
2927	0.0331
2936	0.0354
2945	0.0408
2954	0.0524
2963	0.0841
2972	0.117
2981	0.1497
2990	0.1822
2999	0.2146
3008	0.2467
3017	0.2598
3026	0.2657
3035	0.2692
3044	0.271
3053	0.2714
3062	0.2712
3071	0.2687
3080	0.2582
3089	0.2474
3098	0.2367
3107	0.2261
3116	0.2155
3125	0.2051
3134	0.1946
3143	0.1842
3152	0.1738
3161	0.1636
3170	0.1533
3179	0.1427
3188	0.1318
3197	0.1231
3206	0.1144
3215	0.1044
3224	0.0954
3233	0.0878
3242	0.0805
3251	0.0734
3260	0.0677
3269	0.0664
3278	0.066
3287	0.0662
3296	0.0668
3305	0.0676
3314	0.0685
3323	0.0695
3332	0.0709
3341	0.0725
3350	0.074
3359	0.0756
3368	0.077
3377	0.0782
3386	0.0794
3395	0.0828
3404	0.0961
3413	0.1006
3422	0.1032
3431	0.106
3440	0.1132
3449	0.1252
3458	0.1622
3467	0.1865
3476	0.2088
3485	0.231
3494	0.253
3503	0.275
3512	0.2968
3521	0.3185
3530	0.3402
3539	0.3616
3548	0.3873
3557	0.4519
3566	0.5022
3575	0.5521
3584	0.5934
3593	0.6123
3602	0.638
3611	0.6619
3620	0.6726
3629	0.6809
3638	0.689
3647	0.698
3656	0.7073
3665	0.7192
3674	0.7309
3683	0.7392
3692	0.743
3701	0.746
3710	0.7474
3719	0.7485
3728	0.7489
3737	0.7492
3746	0.7494
3755	0.7497
3764	0.7496
3773	0.7494
3782	0.7492
3791	0.7488
3800	0.7484
3809	0.748
3818	0.7475
3827	0.7471
3836	0.7462
3845	0.7452
3854	0.743
3863	0.7405
3872	0.7369
3881	0.7325
3890	0.7271
3899	0.723
3908	0.7196
3917	0.7155
3926	0.7133
3935	0.7117
3944	0.7106
3953	0.7096
3962	0.7086
3971	0.7076
3980	0.7067
3989	0.7058
3998	0.7052
