Infrared Spectrum: 3-Chloroisatoic anhydride
Formula: C8 H4 C I N O3
State: SOLID (SPLIT MULL), FLUOROLUBE FOR 3800-1330 CM^-^1, NUJOL FOR 1330-450 CM^-^1
Class: COBLENTZ III
Instrument: DOW KBr FOREPRISM-GRATING
Instrument parameters: BLAZED AT 3.5, 12.0, 20.0 MICRON AND CHANGED AT 5.0, 7.5, 14.9 MICRON
Sampling: TRANSMISSION
Resolution: 2
Origin: DOW CHEMICAL COMPANY
1/CM	TRANSMITTANCE
3808	0.6009
3799	0.6025
3790	0.6045
3781	0.6071
3772	0.6095
3763	0.6115
3754	0.6134
3745	0.6144
3736	0.6153
3727	0.616
3718	0.6169
3709	0.6176
3700	0.6184
3691	0.6202
3682	0.622
3673	0.6238
3664	0.625
3655	0.6262
3646	0.6274
3637	0.6285
3628	0.6294
3619	0.6301
3610	0.631
3601	0.6319
3592	0.6327
3583	0.6304
3574	0.6272
3565	0.6298
3556	0.631
3547	0.6322
3538	0.6329
3529	0.6332
3520	0.6312
3511	0.626
3502	0.62
3493	0.6147
3484	0.61
3475	0.6112
3466	0.618
3457	0.6229
3448	0.6265
3439	0.6299
3430	0.6324
3421	0.6343
3412	0.6341
3403	0.6333
3394	0.6312
3385	0.6232
3376	0.6159
3367	0.6105
3358	0.6173
3349	0.621
3340	0.623
3331	0.6227
3322	0.6212
3313	0.6183
3304	0.613
3295	0.6065
3286	0.5943
3277	0.5769
3268	0.5586
3259	0.5391
3250	0.5179
3241	0.5072
3232	0.513
3223	0.5188
3214	0.5076
3205	0.493
3196	0.4889
3187	0.505
3178	0.5262
3169	0.5441
3160	0.5571
3151	0.563
3142	0.5575
3133	0.545
3124	0.54
3115	0.5601
3106	0.5657
3097	0.5695
3088	0.5681
3079	0.5575
3070	0.568
3061	0.5795
3052	0.5912
3043	0.601
3034	0.6089
3025	0.6098
3016	0.6099
3007	0.6125
2998	0.6157
2989	0.6184
2980	0.6209
2971	0.6234
2962	0.6257
2953	0.6264
2944	0.6255
2935	0.6242
2926	0.6239
2917	0.6256
2908	0.6308
2899	0.6401
2890	0.6488
2881	0.6537
2872	0.6555
2863	0.6556
2854	0.6562
2845	0.6618
2836	0.6725
2827	0.6758
2818	0.6776
2809	0.6805
2800	0.6835
2791	0.6865
2782	0.6897
2773	0.6928
2764	0.6958
2755	0.6989
2746	0.7018
2737	0.7048
2728	0.7078
2719	0.7107
2710	0.7138
2701	0.7165
2692	0.7195
2683	0.7218
2674	0.7241
2665	0.7262
2656	0.7285
2647	0.7307
2638	0.7333
2629	0.7358
2620	0.7385
2611	0.7411
2602	0.7439
2593	0.7465
2584	0.7488
2575	0.7486
2566	0.7475
2557	0.7481
2548	0.7501
2539	0.7521
2530	0.7538
2521	0.7555
2512	0.7571
2503	0.7589
2494	0.7605
2485	0.7621
2476	0.7639
2467	0.7655
2458	0.7671
2449	0.7689
2440	0.7706
2431	0.7724
2422	0.7742
2413	0.7761
2404	0.778
2395	0.7797
2386	0.7811
2377	0.7824
2368	0.7824
2359	0.7826
2350	0.7834
2341	0.7841
2332	0.785
2323	0.7871
2314	0.7892
2305	0.7911
2296	0.7941
2287	0.7969
2278	0.8
2269	0.8028
2260	0.806
2251	0.8091
2242	0.8121
2233	0.8154
2224	0.8188
2215	0.8221
2206	0.8255
2197	0.829
2188	0.8325
2179	0.8359
2170	0.8389
2161	0.8418
2152	0.8448
2143	0.847
2134	0.8492
2125	0.8513
2116	0.8536
2107	0.8559
2098	0.8581
2089	0.8601
2080	0.862
2071	0.8636
2062	0.8648
2053	0.8657
2044	0.8667
2035	0.8675
2026	0.8684
2017	0.8691
2008	0.8671
1999	0.85
1990	0.8365
1981	0.8336
1972	0.8332
1963	0.8389
1954	0.8445
1945	0.8458
1936	0.8455
1927	0.8408
1918	0.8438
1909	0.8475
1900	0.8512
1891	0.854
1882	0.8561
1873	0.8539
1864	0.8584
1855	0.8477
1846	0.8368
1837	0.7968
1828	0.7315
1819	0.6835
1810	0.5677
1801	0.2408
1792	0.238
1783	0.4479
1774	0.5852
1765	0.5992
1756	0.5751
1747	0.4323
1738	0.2978
1729	0.0479
1720	0.0471
1711	0.1239
1702	0.363
1693	0.3612
1684	0.4241
1675	0.5286
1666	0.5786
1657	0.6264
1648	0.6687
1639	0.6937
1630	0.6997
1621	0.6897
1612	0.4435
1603	0.52
1594	0.6512
1585	0.6324
1576	0.6581
1567	0.7134
1558	0.7511
1549	0.7325
1540	0.7385
1531	0.7408
1522	0.7239
1513	0.6733
1504	0.563
1495	0.3305
1486	0.5297
1477	0.6084
1468	0.5722
1459	0.6019
1450	0.6312
1441	0.6788
1432	0.7211
1423	0.7325
1414	0.7201
1405	0.7228
1396	0.7278
1387	0.7358
1378	0.741
1369	0.7351
1360	0.527
1351	0.3889
1342	0.4633
1333	0.5723
1324	0.6556
1315	0.4982
1306	0.5418
1297	0.6514
1288	0.7071
1279	0.7324
1270	0.7215
1261	0.673
1252	0.4948
1243	0.6065
1234	0.606
1225	0.6501
1216	0.4468
1207	0.6465
1198	0.45
1189	0.7361
1180	0.7541
1171	0.7825
1162	0.7992
1153	0.7746
1144	0.601
1135	0.7838
1126	0.8187
1117	0.8378
1108	0.8501
1099	0.8518
1090	0.8398
1081	0.8186
1072	0.7668
1063	0.8182
1054	0.8176
1045	0.7201
1036	0.6095
1027	0.4248
1018	0.175
1009	0.1951
1000	0.2935
991	0.4817
982	0.6578
973	0.7503
964	0.7849
955	0.8158
946	0.8388
937	0.8142
928	0.8438
919	0.8504
910	0.8564
901	0.7317
892	0.8248
883	0.8541
874	0.8711
865	0.882
856	0.8809
847	0.8675
838	0.8752
829	0.8746
820	0.546
811	0.6668
802	0.7987
793	0.8693
784	0.8773
775	0.854
766	0.8265
757	0.6221
748	0.1281
739	0.4018
730	0.5064
721	0.5762
712	0.6919
703	0.7738
694	0.7411
685	0.8108
676	0.8358
667	0.8174
658	0.8421
649	0.6761
640	0.8483
631	0.8597
622	0.8659
613	0.8654
604	0.8562
595	0.8587
586	0.8613
577	0.8432
568	0.8396
559	0.8477
550	0.8487
541	0.8436
532	0.8489
523	0.8499
514	0.8495
505	0.8278
496	0.6525
487	0.8439
478	0.5583
469	0.691
460	0.7069
