Infrared Spectrum: 4-Aza-5Alpha-cholestane chloride, 3Beta-benzyl-4,4-dimethyl-, monohydrate
Formula: C35 H58 Cl N  * H2 O
State: SOLID (KBr DISC)
Class: COBLENTZ III
Instrument: PERKIN-ELMER 21 (GRATING)
Instrument parameters: NaCl PRISM
Sampling: TRANSMISSION
Resolution: 2
Origin: SMITH KLINE & FRENCH LABS.
1/CM	TRANSMITTANCE
650	0.8022
659	0.8304
668	0.8457
677	0.858
686	0.8612
695	0.7172
704	0.5044
713	0.8514
722	0.7155
731	0.5487
740	0.4418
749	0.8227
758	0.7369
767	0.8974
776	0.9457
785	0.9426
794	0.8662
803	0.884
812	0.8553
821	0.8468
830	0.8687
839	0.9154
848	0.8863
857	0.9081
866	0.8706
875	0.6885
884	0.8216
893	0.894
902	0.8004
911	0.6645
920	0.7051
929	0.5641
938	0.6305
947	0.6557
956	0.7375
965	0.7396
974	0.6907
983	0.816
992	0.6571
1001	0.6997
1010	0.672
1019	0.714
1028	0.7055
1037	0.7901
1046	0.7554
1055	0.8129
1064	0.8019
1073	0.7685
1082	0.8022
1091	0.8329
1100	0.8092
1109	0.7752
1118	0.7945
1127	0.7783
1136	0.8036
1145	0.7939
1154	0.7911
1163	0.7719
1172	0.7304
1181	0.7911
1190	0.7677
1199	0.7604
1208	0.7715
1217	0.7625
1226	0.7681
1235	0.7431
1244	0.6872
1253	0.7561
1262	0.747
1271	0.7678
1280	0.7746
1289	0.7692
1298	0.7181
1307	0.7244
1316	0.7333
1325	0.7085
1334	0.6506
1343	0.6837
1352	0.6924
1361	0.5329
1370	0.4651
1379	0.4563
1388	0.6147
1397	0.7024
1406	0.7014
1415	0.674
1424	0.6423
1433	0.3955
1442	0.2864
1451	0.2923
1460	0.223
1469	0.2213
1478	0.467
1487	0.4864
1496	0.5577
1505	0.7383
1514	0.7564
1523	0.7774
1532	0.7813
1541	0.7878
1550	0.787
1559	0.7746
1568	0.7686
1577	0.7506
1586	0.7318
1595	0.6732
1604	0.6792
1613	0.6466
1622	0.6932
1631	0.7187
1640	0.7349
1649	0.7544
1658	0.7541
1667	0.7549
1676	0.7726
1685	0.7766
1694	0.7774
1703	0.7852
1712	0.7858
1721	0.7831
1730	0.7837
1739	0.7874
1748	0.7891
1757	0.7873
1766	0.7831
1775	0.7849
1784	0.7854
1793	0.7896
1802	0.7894
1811	0.7855
1820	0.7781
1829	0.7739
1838	0.7768
1847	0.7877
1856	0.7868
1865	0.785
1874	0.7786
1883	0.7704
1892	0.7648
1901	0.7624
1910	0.7626
1919	0.7654
1928	0.7659
1937	0.7592
1946	0.7477
1955	0.7319
1964	0.7352
1973	0.7419
1982	0.7388
1991	0.7294
2000	0.7281
2009	0.7478
2018	0.7667
2027	0.7726
2036	0.7779
2045	0.782
2054	0.7833
2063	0.7825
2072	0.7803
2081	0.7776
2090	0.7778
2099	0.7813
2108	0.7827
2117	0.7816
2126	0.7796
2135	0.7768
2144	0.7742
2153	0.7722
2162	0.7713
2171	0.7719
2180	0.7742
2189	0.7763
2198	0.7767
2207	0.7759
2216	0.774
2225	0.7711
2234	0.7678
2243	0.7644
2252	0.7619
2261	0.7603
2270	0.7593
2279	0.7585
2288	0.7565
2297	0.7508
2306	0.743
2315	0.7459
2324	0.7501
2333	0.7526
2342	0.7542
2351	0.7535
2360	0.7553
2369	0.7595
2378	0.7582
2387	0.7528
2396	0.7448
2405	0.7432
2414	0.7437
2423	0.7438
2432	0.7436
2441	0.7433
2450	0.7425
2459	0.7415
2468	0.7381
2477	0.7328
2486	0.7281
2495	0.7276
2504	0.728
2513	0.7285
2522	0.7266
2531	0.7242
2540	0.7198
2549	0.7126
2558	0.7058
2567	0.6995
2576	0.6969
2585	0.6963
2594	0.6951
2603	0.6927
2612	0.6904
2621	0.6887
2630	0.687
2639	0.6852
2648	0.6828
2657	0.6783
2666	0.6738
2675	0.6696
2684	0.6676
2693	0.6665
2702	0.6668
2711	0.6669
2720	0.6626
2729	0.6553
2738	0.647
2747	0.633
2756	0.6172
2765	0.5925
2774	0.5598
2783	0.5296
2792	0.5016
2801	0.4178
2810	0.2968
2819	0.1781
2828	0.1389
2837	0.1281
2846	0.1283
2855	0.1321
2864	0.1327
2873	0.1299
2882	0.1066
2891	0.0485
2900	0.014
2909	0.0263
2918	0.0627
2927	0.0987
2936	0.1507
2945	0.2177
2954	0.2842
2963	0.3503
2972	0.416
2981	0.4813
2990	0.5248
2999	0.5192
3008	0.5107
3017	0.5161
3026	0.5413
3035	0.5663
3044	0.5911
3053	0.6157
3062	0.6236
3071	0.6247
3080	0.6234
3089	0.6208
3098	0.617
3107	0.6123
3116	0.6037
3125	0.5907
3134	0.5582
3143	0.5246
3152	0.4912
3161	0.4836
3170	0.4958
3179	0.5078
3188	0.5198
3197	0.5196
3206	0.5141
3215	0.4864
3224	0.45
3233	0.4136
3242	0.3775
3251	0.3417
3260	0.3059
3269	0.2901
3278	0.2986
3287	0.328
3296	0.3572
3305	0.3862
3314	0.4151
3323	0.4438
3332	0.4714
3341	0.4892
3350	0.5018
3359	0.5147
3368	0.5271
3377	0.536
3386	0.5438
3395	0.5499
3404	0.5555
3413	0.5602
3422	0.5649
3431	0.5696
3440	0.5745
3449	0.5798
3458	0.585
3467	0.5904
3476	0.596
3485	0.6029
3494	0.6115
3503	0.6236
3512	0.6308
3521	0.6384
3530	0.6445
3539	0.6472
3548	0.6484
3557	0.6443
3566	0.5898
3575	0.5355
3584	0.4815
3593	0.4278
3602	0.4024
3611	0.4124
3620	0.4677
3629	0.5299
3638	0.5917
3647	0.6521
3656	0.6789
3665	0.6866
3674	0.6899
3683	0.6917
3692	0.691
3701	0.6897
3710	0.688
3719	0.6863
3728	0.6867
3737	0.6874
3746	0.688
3755	0.6886
3764	0.6891
3773	0.6895
3782	0.6898
3791	0.6895
3800	0.6893
3809	0.689
3818	0.6886
3827	0.6881
3836	0.6875
3845	0.687
3854	0.6864
3863	0.6857
3872	0.6851
3881	0.6844
3890	0.6838
3899	0.6831
3908	0.6823
3917	0.6813
3926	0.6803
3935	0.6793
3944	0.6783
3953	0.6773
3962	0.6762
3971	0.6752
3980	0.6741
3989	0.6731
3998	0.672
