Infrared Spectrum: SODIUM TUNGSTATE
Formula: Na2 W O4  * 2 H2 O
State: SOLID (NUJOL MULL)
Class: COBLENTZ
Instrument: Not specified, most likely a prism, grating, or hybrid spectrometer.
Sampling: TRANSMISSION
Resolution: 4
Origin: MELLON INSTITUTE
MICROMETERS	TRANSMITTANCE
2.059	0.816
2.09989	0.818
2.14079	0.818
2.18168	0.819
2.22258	0.818
2.26347	0.816
2.30436	0.816
2.34526	0.814
2.38615	0.814
2.42705	0.813
2.46794	0.813
2.50884	0.809
2.54973	0.807
2.59062	0.809
2.63152	0.811
2.67241	0.813
2.71331	0.813
2.7542	0.807
2.79509	0.794
2.83599	0.759
2.87688	0.674
2.91778	0.598
2.95867	0.473
2.99957	0.341
3.04046	0.32
3.08135	0.413
3.12225	0.55
3.16314	0.641
3.20404	0.701
3.24493	0.734
3.28582	0.758
3.32672	0.722
3.36761	0.423
3.40851	0.361
3.4494	0.531
3.49029	0.523
3.53119	0.759
3.57208	0.813
3.61298	0.837
3.65387	0.845
3.69477	0.849
3.73566	0.852
3.77655	0.855
3.81745	0.859
3.85834	0.861
3.89924	0.862
3.94013	0.864
3.98102	0.866
4.02192	0.869
4.06281	0.873
4.10371	0.874
4.1446	0.874
4.1855	0.874
4.22639	0.867
4.26728	0.857
4.30818	0.85
4.34907	0.847
4.38997	0.845
4.43086	0.85
4.47175	0.854
4.51265	0.852
4.55354	0.852
4.59444	0.852
4.63533	0.855
4.67622	0.862
4.71712	0.869
4.75801	0.873
4.79891	0.879
4.8398	0.885
4.8807	0.888
4.92159	0.891
4.96248	0.893
5.00338	0.897
5.04427	0.898
5.08517	0.9
5.12606	0.9
5.16695	0.902
5.20785	0.902
5.24874	0.905
5.28964	0.905
5.33053	0.905
5.37142	0.907
5.41232	0.907
5.45321	0.907
5.49411	0.909
5.535	0.91
5.5759	0.912
5.61679	0.914
5.65768	0.914
5.69858	0.915
5.73947	0.915
5.78037	0.915
5.82126	0.912
5.86215	0.907
5.90305	0.886
5.94394	0.843
5.98484	0.826
6.02573	0.823
6.06663	0.861
6.10752	0.883
6.14841	0.902
6.18931	0.914
6.2302	0.926
6.2711	0.936
6.31199	0.934
6.35288	0.931
6.39378	0.927
6.43467	0.926
6.47557	0.924
6.51646	0.924
6.55735	0.924
6.59825	0.924
6.63914	0.924
6.68004	0.924
6.72093	0.927
6.76183	0.922
6.80272	0.888
6.84361	0.831
6.88451	0.816
6.9254	0.823
6.9663	0.852
7.00719	0.878
7.04808	0.895
7.08898	0.905
7.12987	0.91
7.17077	0.915
7.21166	0.903
7.25256	0.878
7.29345	0.876
7.33434	0.89
7.37524	0.907
7.41613	0.915
7.45703	0.922
7.49792	0.927
7.53881	0.931
7.57971	0.938
7.6206	0.941
7.6615	0.941
7.70239	0.943
7.74328	0.943
7.78418	0.946
7.82507	0.946
7.86597	0.95
7.90686	0.953
7.94776	0.953
7.98865	0.953
8.02954	0.955
8.07044	0.955
8.11133	0.957
8.15223	0.958
8.19312	0.958
8.23401	0.958
8.27491	0.958
8.3158	0.96
8.3567	0.962
8.39759	0.962
8.43849	0.963
8.47938	0.965
8.52027	0.965
8.56117	0.965
8.60206	0.965
8.64296	0.963
8.68385	0.963
8.72474	0.962
8.76564	0.96
8.80653	0.96
8.84743	0.958
8.88832	0.957
8.92921	0.957
8.97011	0.957
9.011	0.957
9.0519	0.957
9.09279	0.957
9.13369	0.957
9.17458	0.957
9.21547	0.957
9.25637	0.958
9.29726	0.958
9.33816	0.958
9.37905	0.958
9.41994	0.958
9.46084	0.96
9.50173	0.96
9.54263	0.96
9.58352	0.963
9.62441	0.963
9.66531	0.963
9.7062	0.963
9.7471	0.967
9.78799	0.967
9.82889	0.967
9.86978	0.969
9.91067	0.969
9.95157	0.969
9.99246	0.969
10.0334	0.97
10.0743	0.972
10.1151	0.974
10.156	0.974
10.1969	0.974
10.2378	0.975
10.2787	0.975
10.3196	0.975
10.3605	0.975
10.4014	0.975
10.4423	0.975
10.4832	0.975
10.5241	0.975
10.565	0.975
10.6059	0.975
10.6468	0.974
10.6877	0.975
10.7286	0.965
10.7695	0.924
10.8103	0.919
10.8512	0.926
10.8921	0.934
10.933	0.941
10.9739	0.946
11.0148	0.948
11.0557	0.946
11.0966	0.945
11.1375	0.939
11.1784	0.934
11.2193	0.912
11.2602	0.891
11.3011	0.835
11.342	0.771
11.3829	0.716
11.4238	0.658
11.4647	0.588
11.5055	0.507
11.5464	0.452
11.5873	0.406
11.6282	0.36
11.6691	0.325
11.71	0.313
11.7509	0.313
11.7918	0.317
11.8327	0.317
11.8736	0.319
11.9145	0.315
11.9554	0.303
11.9963	0.289
12.0372	0.271
12.0781	0.262
12.119	0.255
12.1599	0.253
12.2007	0.257
12.2416	0.295
12.2825	0.37
12.3234	0.401
12.3643	0.415
12.4052	0.444
12.4461	0.518
12.487	0.598
12.5279	0.655
12.5688	0.703
12.6097	0.737
12.6506	0.758
12.6915	0.783
12.7324	0.799
12.7733	0.809
12.8142	0.823
12.8551	0.831
12.8959	0.842
12.9368	0.845
12.9777	0.849
13.0186	0.852
13.0595	0.857
13.1004	0.859
13.1413	0.859
13.1822	0.862
13.2231	0.866
13.264	0.867
13.3049	0.869
13.3458	0.873
13.3867	0.874
13.4276	0.876
13.4685	0.874
13.5094	0.874
13.5503	0.876
13.5911	0.874
13.632	0.874
13.6729	0.874
13.7138	0.874
13.7547	0.874
13.7956	0.876
13.8365	0.874
13.8774	0.871
13.9183	0.867
13.9592	0.869
14.0001	0.866
14.041	0.861
14.0819	0.854
14.1228	0.852
14.1637	0.842
14.2046	0.833
14.2455	0.83
14.2863	0.821
14.3272	0.818
14.3681	0.813
14.409	0.807
14.4499	0.801
14.4908	0.795
14.5317	0.79
14.5726	0.785
14.6135	0.778
14.6544	0.773
14.6953	0.77
14.7362	0.765
14.7771	0.761
14.818	0.756
14.8589	0.753
14.8998	0.749
14.9407	0.746
14.9815	0.742
15.0224	0.739
15.0633	0.737
15.1042	0.734
15.1451	0.728
15.186	0.725
15.2269	0.723
15.2678	0.722
15.3087	0.722
15.3496	0.718
15.3905	0.718
15.4314	0.715
15.4723	0.711
15.5132	0.711
15.5541	0.71
15.595	0.71
15.6359	0.708
15.6767	0.708
15.7176	0.708
15.7585	0.706
15.7994	0.706
15.8403	0.704
15.8812	0.704
15.9221	0.704
15.963	0.703
16.0039	0.703
