Infrared Spectrum: Alpha-Hydroxy-3-pyridinemethanesulfonic acid
Formula: C6 H7 N O4 S
State: SOLID (NUJOL MULL)
Class: COBLENTZ III
Instrument: BAIRD (PRISM)
Instrument parameters: NaCl PRISM
Sampling: TRANSMISSION
Resolution: 2
Origin: DOW CHEMICAL COMPANY
1/CM	TRANSMITTANCE
630	0.4575
639	0.4828
648	0.4782
657	0.4869
666	0.498
675	0.5578
684	0.3628
693	0.4765
702	0.6625
711	0.6924
720	0.675
729	0.7217
738	0.7605
747	0.7841
756	0.7681
765	0.7342
774	0.7918
783	0.8268
792	0.8278
801	0.8253
810	0.8184
819	0.7775
828	0.6124
837	0.7728
846	0.8244
855	0.8615
864	0.8642
873	0.8574
882	0.8464
891	0.8424
900	0.8341
909	0.8096
918	0.7961
927	0.809
936	0.8535
945	0.8664
954	0.8721
963	0.8721
972	0.8667
981	0.8678
990	0.8401
999	0.8389
1008	0.7661
1017	0.6321
1026	0.2877
1035	0.4275
1044	0.6288
1053	0.7768
1062	0.8176
1071	0.8304
1080	0.7833
1089	0.6892
1098	0.6826
1107	0.5734
1116	0.6818
1125	0.6421
1134	0.6889
1143	0.6268
1152	0.4223
1161	0.2579
1170	0.2151
1179	0.293
1188	0.4716
1197	0.5583
1206	0.402
1215	0.3568
1224	0.383
1233	0.447
1242	0.3884
1251	0.3393
1260	0.4307
1269	0.6239
1278	0.66
1287	0.7415
1296	0.7883
1305	0.8178
1314	0.8225
1323	0.816
1332	0.8209
1341	0.8304
1350	0.8005
1359	0.738
1368	0.7292
1377	0.6949
1386	0.5932
1395	0.739
1404	0.8359
1413	0.8341
1422	0.8149
1431	0.7772
1440	0.7696
1449	0.635
1458	0.4833
1467	0.3721
1476	0.3946
1485	0.6155
1494	0.7446
1503	0.8234
1512	0.8325
1521	0.834
1530	0.8125
1539	0.7775
1548	0.6212
1557	0.634
1566	0.7517
1575	0.8591
1584	0.8892
1593	0.9004
1602	0.8897
1611	0.8468
1620	0.7407
1629	0.8133
1638	0.7775
1647	0.77
1656	0.8433
1665	0.8887
1674	0.9064
1683	0.9104
1692	0.9135
1701	0.9199
1710	0.9217
1719	0.9223
1728	0.9225
1737	0.9228
1746	0.9231
1755	0.9232
1764	0.9239
1773	0.925
1782	0.9254
1791	0.9249
1800	0.9239
1809	0.9236
1818	0.9251
1827	0.9256
1836	0.9245
1845	0.9228
1854	0.921
1863	0.9197
1872	0.9189
1881	0.9183
1890	0.9185
1899	0.9187
1908	0.9198
1917	0.9178
1926	0.9142
1935	0.9109
1944	0.9085
1953	0.9071
1962	0.9058
1971	0.9028
1980	0.9017
1989	0.9021
1998	0.9037
2007	0.9057
2016	0.9041
2025	0.9025
2034	0.9013
2043	0.9001
2052	0.898
2061	0.8955
2070	0.8923
2079	0.89
2088	0.8896
2097	0.8911
2106	0.8925
2115	0.8941
2124	0.8949
2133	0.8954
2142	0.8949
2151	0.8945
2160	0.8938
2169	0.8931
2178	0.8921
2187	0.8914
2196	0.8903
2205	0.8892
2214	0.8884
2223	0.889
2232	0.8896
2241	0.8906
2250	0.8909
2259	0.8867
2268	0.8849
2277	0.8842
2286	0.8846
2295	0.8843
2304	0.8838
2313	0.8831
2322	0.8823
2331	0.8815
2340	0.8807
2349	0.8802
2358	0.8789
2367	0.8766
2376	0.8743
2385	0.873
2394	0.8721
2403	0.8712
2412	0.8717
2421	0.8723
2430	0.8728
2439	0.8725
2448	0.8718
2457	0.8712
2466	0.8697
2475	0.868
2484	0.8663
2493	0.8646
2502	0.8624
2511	0.8601
2520	0.8578
2529	0.8544
2538	0.8505
2547	0.8467
2556	0.8428
2565	0.8378
2574	0.8327
2583	0.8274
2592	0.8221
2601	0.8169
2610	0.8118
2619	0.8068
2628	0.8018
2637	0.7958
2646	0.7906
2655	0.7858
2664	0.7808
2673	0.776
2682	0.7731
2691	0.7706
2700	0.768
2709	0.7674
2718	0.7668
2727	0.7661
2736	0.7645
2745	0.7591
2754	0.7564
2763	0.7557
2772	0.7558
2781	0.7556
2790	0.7532
2799	0.7439
2808	0.7301
2817	0.7151
2826	0.6914
2835	0.6603
2844	0.6168
2853	0.4797
2862	0.3789
2871	0.2826
2880	0.1883
2889	0.1367
2898	0.1185
2907	0.092
2916	0.0731
2925	0.0546
2934	0.0473
2943	0.0459
2952	0.048
2961	0.054
2970	0.0964
2979	0.1729
2988	0.2491
2997	0.3247
3006	0.3999
3015	0.479
3024	0.498
3033	0.5055
3042	0.5067
3051	0.5041
3060	0.4872
3069	0.4683
3078	0.4496
3087	0.431
3096	0.4136
3105	0.4032
3114	0.4041
3123	0.4124
3132	0.4217
3141	0.4326
3150	0.4422
3159	0.4485
3168	0.4494
3177	0.4482
3186	0.445
3195	0.4407
3204	0.4362
3213	0.432
3222	0.4273
3231	0.4224
3240	0.4175
3249	0.4144
3258	0.415
3267	0.4198
3276	0.4339
3285	0.4491
3294	0.4642
3303	0.4792
3312	0.4941
3321	0.509
3330	0.5312
3339	0.5505
3348	0.5662
3357	0.5898
3366	0.6049
3375	0.6173
3384	0.6243
3393	0.6272
3402	0.6255
3411	0.6227
3420	0.62
3429	0.6174
3438	0.6152
3447	0.614
3456	0.6146
3465	0.6179
3474	0.6256
3483	0.6362
3492	0.6489
3501	0.6631
3510	0.6758
3519	0.6867
3528	0.695
3537	0.7033
3546	0.7117
3555	0.7203
3564	0.7288
3573	0.7368
3582	0.7438
3591	0.7506
3600	0.7574
3609	0.7646
3618	0.7718
3627	0.7792
3636	0.7861
3645	0.7924
3654	0.7982
3663	0.804
3672	0.8108
3681	0.8178
3690	0.8249
3699	0.8312
3708	0.8341
3717	0.8351
3726	0.8357
3735	0.836
3744	0.8362
3753	0.836
3762	0.8356
3771	0.8352
3780	0.8348
3789	0.8342
3798	0.8334
3807	0.8327
3816	0.8318
3825	0.8309
3834	0.83
3843	0.8289
3852	0.8278
3861	0.8267
3870	0.8256
3879	0.8245
3888	0.8235
3897	0.8223
3906	0.821
3915	0.8198
3924	0.8184
3933	0.8171
3942	0.816
3951	0.8147
3960	0.8134
3969	0.8119
3978	0.8107
3987	0.8094
3996	0.808
