Infrared Spectrum: AMMONIUM TETRATHIOCYANATOMERCURATE (II)
Formula: C4 H8 Hg N6 S4
State: SOLID (SPLIT MULL)
Class: COBLENTZ III
Instrument: DOW KBr FOREPRISM-GRATING
Instrument parameters: GRATING BLAZED AT 3.5, 12.0, 20.0 MICRONS AND CHANGED AT 5.0, 7.5, 14.9 MICRONS
Sampling: TRANSMISSION
Resolution: 4
Origin: DOW CHEMICAL COMPANY
1/CM	TRANSMITTANCE
459.551	0.815
468.309	0.838
477.066	0.862
485.824	0.888
494.581	0.888
503.339	0.888
512.096	0.892
520.854	0.892
529.611	0.896
538.369	0.9
547.127	0.904
555.884	0.908
564.642	0.914
573.399	0.918
582.157	0.922
590.914	0.928
599.672	0.933
608.429	0.936
617.187	0.939
625.945	0.939
634.702	0.939
643.46	0.946
652.217	0.946
660.975	0.944
669.732	0.94
678.49	0.936
687.247	0.931
696.005	0.918
704.763	0.889
713.52	0.873
722.278	0.841
731.035	0.874
739.793	0.88
748.55	0.915
757.308	0.917
766.065	0.917
774.823	0.917
783.581	0.92
792.338	0.92
801.096	0.918
809.853	0.915
818.611	0.913
827.368	0.908
836.126	0.904
844.883	0.899
853.641	0.896
862.399	0.892
871.156	0.885
879.914	0.873
888.671	0.846
897.429	0.855
906.186	0.853
914.944	0.851
923.701	0.873
932.459	0.859
941.217	0.864
949.974	0.849
958.732	0.862
967.489	0.862
976.247	0.863
985.004	0.866
993.762	0.866
1002.52	0.863
1011.28	0.86
1020.03	0.855
1028.79	0.848
1037.55	0.845
1046.31	0.838
1055.06	0.834
1063.82	0.833
1072.58	0.817
1081.34	0.822
1090.1	0.823
1098.85	0.823
1107.61	0.82
1116.37	0.816
1125.13	0.811
1133.88	0.806
1142.64	0.787
1151.4	0.786
1160.16	0.78
1168.91	0.777
1177.67	0.762
1186.43	0.769
1195.19	0.762
1203.94	0.761
1212.7	0.754
1221.46	0.747
1230.22	0.742
1238.97	0.729
1247.73	0.714
1256.49	0.702
1265.25	0.691
1274	0.678
1282.76	0.664
1291.52	0.649
1300.28	0.631
1309.03	0.617
1317.79	0.6
1326.55	0.579
1335.31	0.55
1344.06	0.514
1352.82	0.488
1361.58	0.449
1370.34	0.388
1379.09	0.3079
1387.85	0.216
1396.61	0.139
1405.37	0.115
1414.12	0.151
1422.88	0.198
1431.64	0.273
1440.4	0.4201
1449.15	0.561
1457.91	0.664
1466.67	0.724
1475.43	0.758
1484.19	0.777
1492.94	0.787
1501.7	0.794
1510.46	0.797
1519.22	0.798
1527.97	0.797
1536.73	0.795
1545.49	0.793
1554.25	0.786
1563	0.779
1571.76	0.772
1580.52	0.764
1589.28	0.758
1598.03	0.75
1606.79	0.742
1615.55	0.735
1624.31	0.729
1633.06	0.724
1641.82	0.718
1650.58	0.713
1659.34	0.706
1668.09	0.708
1676.85	0.714
1685.61	0.724
1694.37	0.728
1703.12	0.732
1711.88	0.732
1720.64	0.735
1729.4	0.735
1738.15	0.735
1746.91	0.737
1755.67	0.735
1764.43	0.733
1773.18	0.732
1781.94	0.728
1790.7	0.725
1799.46	0.72
1808.21	0.715
1816.97	0.711
1825.73	0.708
1834.49	0.704
1843.24	0.7
1852	0.693
1860.76	0.688
1869.52	0.682
1878.28	0.677
1887.03	0.673
1895.79	0.667
1904.55	0.662
1913.31	0.656
1922.06	0.651
1930.82	0.645
1939.58	0.64
1948.34	0.634
1957.09	0.63
1965.85	0.62
1974.61	0.609
1983.37	0.6
1992.12	0.588
2000.88	0.595
2009.64	0.588
2018.4	0.5655
2027.15	0.541
2035.91	0.505
2044.67	0.4711
2053.43	0.4196
2062.18	0.3553
2070.94	0.236
2079.7	0.1069
2088.46	0.2373
2097.21	0.2479
2105.97	0.077
2114.73	0.1399
2123.49	0.2181
2132.24	0.5006
2141	0.693
2149.76	0.876
2158.52	0.9196
2167.27	0.8921
2176.03	0.8717
2184.79	0.8414
2193.55	0.8258
2202.3	0.8038
2211.06	0.7921
2219.82	0.777
2228.58	0.7631
2237.33	0.7472
2246.09	0.7361
2254.85	0.726
2263.61	0.7187
2272.37	0.7092
2281.12	0.7026
2289.88	0.695
2298.64	0.6868
2307.4	0.6768
2316.15	0.6588
2324.91	0.6406
2333.67	0.6346
2342.43	0.633
2351.18	0.631
2359.94	0.63
2368.7	0.63
2377.46	0.63
2386.21	0.6266
2394.97	0.6226
2403.73	0.617
2412.49	0.612
2421.24	0.6073
2430	0.601
2438.76	0.597
2447.52	0.5919
2456.27	0.5866
2465.03	0.583
2473.79	0.5756
2482.55	0.5703
2491.3	0.565
2500.06	0.5607
2508.82	0.5537
2517.58	0.55
2526.33	0.542
2535.09	0.5367
2543.85	0.5317
2552.61	0.5257
2561.36	0.5207
2570.12	0.518
2578.88	0.5147
2587.64	0.5094
2596.39	0.503
2605.15	0.497
2613.91	0.4917
2622.67	0.4847
2631.42	0.4777
2640.18	0.4707
2648.94	0.4637
2657.7	0.4584
2666.46	0.4517
2675.21	0.4447
2683.97	0.4371
2692.73	0.4307
2701.49	0.4237
2710.24	0.4152
2719	0.4057
2727.76	0.3995
2736.52	0.3907
2745.27	0.3812
2754.03	0.3682
2762.79	0.3562
2771.55	0.3462
2780.3	0.3302
2789.06	0.3127
2797.82	0.297
2806.58	0.3073
2815.33	0.3157
2824.09	0.326
2832.85	0.3218
2841.61	0.3165
2850.36	0.3148
2859.12	0.3125
2867.88	0.3063
2876.64	0.2965
2885.39	0.2876
2894.15	0.2796
2902.91	0.2664
2911.67	0.2543
2920.42	0.2418
2929.18	0.2348
2937.94	0.2296
2946.7	0.2228
2955.45	0.2168
2964.21	0.2128
2972.97	0.2088
2981.73	0.2058
2990.48	0.204
2999.24	0.202
3008	0.202
3016.76	0.2024
3025.52	0.205
3034.27	0.206
3043.03	0.211
3051.79	0.213
3060.55	0.213
3069.3	0.2128
3078.06	0.211
3086.82	0.2077
3095.58	0.202
3104.33	0.1935
3113.09	0.1868
3121.85	0.1828
3130.61	0.179
3139.36	0.1769
3148.12	0.175
3156.88	0.1747
3165.64	0.173
3174.39	0.1719
3183.15	0.1689
3191.91	0.168
3200.67	0.1692
3209.42	0.172
3218.18	0.1751
3226.94	0.1821
3235.7	0.1943
3244.45	0.2062
3253.21	0.2175
3261.97	0.2414
3270.73	0.2594
3279.48	0.2786
3288.24	0.3047
3297	0.3398
3305.76	0.3662
3314.51	0.3791
3323.27	0.4002
3332.03	0.4083
3340.79	0.413
3349.54	0.4172
3358.3	0.4231
3367.06	0.424
3375.82	0.4229
3384.57	0.419
3393.33	0.416
3402.09	0.415
3410.85	0.4119
3419.61	0.408
3428.36	0.4059
3437.12	0.4009
3445.88	0.395
3454.64	0.391
3463.39	0.387
3472.15	0.383
3480.91	0.379
3489.67	0.376
3498.42	0.373
3507.18	0.3709
3515.94	0.368
3524.7	0.365
3533.45	0.362
3542.21	0.36
3550.97	0.358
3559.73	0.354
3568.48	0.351
3577.24	0.347
3586	0.344
3594.76	0.34
3603.51	0.34
3612.27	0.337
3621.03	0.335
3629.79	0.332
3638.54	0.331
3647.3	0.328
3656.06	0.325
3664.82	0.321
3673.57	0.317
3682.33	0.313
3691.09	0.3081
3699.85	0.3041
3708.6	0.302
3717.36	0.299
3726.12	0.296
3734.88	0.2931
3743.63	0.292
3752.39	0.289
3761.15	0.288
3769.91	0.285
3778.66	0.284
3787.42	0.282
3796.18	0.281
