Infrared Spectrum: MAGNESIUM PHOSPHATE, MONOBASIC
Formula: Mg ( H2 P O4)2
State: SOLID (NUJOL MULL)
Class: COBLENTZ
Instrument: Not specified, most likely a prism, grating, or hybrid spectrometer.
Sampling: TRANSMISSION
Resolution: 4
Origin: MELLON INSTITUTE
MICROMETERS	TRANSMITTANCE
2.028	0.988
2.06793	0.993
2.10786	0.998
2.14779	0.998
2.18771	1.001
2.22764	0.996
2.26757	0.988
2.3075	0.963
2.34743	0.953
2.38736	0.951
2.42729	0.932
2.46722	0.921
2.50714	0.912
2.54707	0.894
2.587	0.879
2.62693	0.862
2.66686	0.825
2.70679	0.783
2.74672	0.661
2.78665	0.592
2.82657	0.491
2.8665	0.461
2.90643	0.422
2.94636	0.387
2.98629	0.367
3.02622	0.379
3.06615	0.377
3.10607	0.369
3.146	0.369
3.18593	0.369
3.22586	0.375
3.26579	0.375
3.30572	0.35
3.34565	0.159
3.38558	0.129
3.4255	0.156
3.46543	0.159
3.50536	0.322
3.54529	0.414
3.58522	0.453
3.62515	0.474
3.66508	0.503
3.70501	0.521
3.74493	0.541
3.78486	0.56
3.82479	0.58
3.86472	0.595
3.90465	0.614
3.94458	0.622
3.98451	0.63
4.02444	0.635
4.06436	0.64
4.10429	0.645
4.14422	0.649
4.18415	0.651
4.22408	0.64
4.26401	0.639
4.30394	0.634
4.34386	0.64
4.38379	0.671
4.42372	0.699
4.46365	0.716
4.50358	0.724
4.54351	0.738
4.58344	0.746
4.62337	0.76
4.66329	0.771
4.70322	0.778
4.74315	0.79
4.78308	0.8
4.82301	0.803
4.86294	0.818
4.90287	0.83
4.9428	0.837
4.98272	0.843
5.02265	0.848
5.06258	0.852
5.10251	0.86
5.14244	0.864
5.18237	0.867
5.2223	0.87
5.26222	0.872
5.30215	0.872
5.34208	0.872
5.38201	0.87
5.42194	0.867
5.46187	0.86
5.5018	0.854
5.54173	0.847
5.58165	0.843
5.62158	0.835
5.66151	0.832
5.70144	0.823
5.74137	0.815
5.7813	0.805
5.82123	0.8
5.86116	0.785
5.90108	0.768
5.94101	0.75
5.98094	0.716
6.02087	0.679
6.0608	0.656
6.10073	0.656
6.14066	0.664
6.18058	0.677
6.22051	0.689
6.26044	0.701
6.30037	0.704
6.3403	0.704
6.38023	0.711
6.42016	0.708
6.46009	0.714
6.50001	0.721
6.53994	0.719
6.57987	0.723
6.6198	0.726
6.65973	0.731
6.69966	0.731
6.73959	0.723
6.77952	0.679
6.81944	0.538
6.85937	0.498
6.8993	0.498
6.93923	0.541
6.97916	0.605
7.01909	0.664
7.05902	0.687
7.09894	0.701
7.13887	0.704
7.1788	0.692
7.21873	0.614
7.25866	0.565
7.29859	0.563
7.33852	0.58
7.37845	0.585
7.41837	0.582
7.4583	0.578
7.49823	0.572
7.53816	0.562
7.57809	0.55
7.61802	0.533
7.65795	0.516
7.69788	0.503
7.7378	0.481
7.77773	0.464
7.81766	0.451
7.85759	0.437
7.89752	0.426
7.93745	0.416
7.97738	0.409
8.01731	0.402
8.05723	0.402
8.09716	0.402
8.13709	0.402
8.17702	0.402
8.21695	0.402
8.25688	0.399
8.29681	0.39
8.33673	0.384
8.37666	0.374
8.41659	0.365
8.45652	0.359
8.49645	0.352
8.53638	0.347
8.57631	0.347
8.61624	0.345
8.65616	0.343
8.69609	0.342
8.73602	0.34
8.77595	0.342
8.81588	0.343
8.85581	0.347
8.89574	0.35
8.93567	0.355
8.97559	0.359
9.01552	0.36
9.05545	0.36
9.09538	0.36
9.13531	0.36
9.17524	0.362
9.21517	0.37
9.25509	0.369
9.29502	0.369
9.33495	0.365
9.37488	0.36
9.41481	0.355
9.45474	0.352
9.49467	0.347
9.5346	0.345
9.57452	0.345
9.61445	0.343
9.65438	0.343
9.69431	0.348
9.73424	0.354
9.77417	0.365
9.8141	0.374
9.85403	0.379
9.89395	0.384
9.93388	0.385
9.97381	0.385
10.0137	0.387
10.0537	0.387
10.0936	0.38
10.1335	0.377
10.1735	0.375
10.2134	0.372
10.2533	0.364
10.2932	0.36
10.3332	0.354
10.3731	0.352
10.413	0.345
10.453	0.333
10.4929	0.328
10.5328	0.322
10.5727	0.318
10.6127	0.318
10.6526	0.32
10.6925	0.328
10.7325	0.335
10.7724	0.342
10.8123	0.355
10.8522	0.364
10.8922	0.37
10.9321	0.374
10.972	0.374
11.012	0.357
11.0519	0.36
11.0918	0.367
11.1317	0.372
11.1717	0.375
11.2116	0.375
11.2515	0.382
11.2915	0.387
11.3314	0.397
11.3713	0.411
11.4112	0.422
11.4512	0.432
11.4911	0.442
11.531	0.453
11.571	0.463
11.6109	0.469
11.6508	0.469
11.6907	0.463
11.7307	0.469
11.7706	0.481
11.8105	0.488
11.8505	0.494
11.8904	0.498
11.9303	0.501
11.9702	0.501
12.0102	0.503
12.0501	0.505
12.09	0.506
12.13	0.513
12.1699	0.513
12.2098	0.518
12.2497	0.518
12.2897	0.521
12.3296	0.521
12.3695	0.523
12.4095	0.526
12.4494	0.526
12.4893	0.526
12.5292	0.526
12.5692	0.526
12.6091	0.526
12.649	0.526
12.689	0.525
12.7289	0.526
12.7688	0.526
12.8087	0.526
12.8487	0.528
12.8886	0.525
12.9285	0.526
12.9685	0.525
13.0084	0.523
13.0483	0.521
13.0883	0.523
13.1282	0.521
13.1681	0.521
13.208	0.515
13.248	0.516
13.2879	0.516
13.3278	0.518
13.3678	0.521
13.4077	0.525
13.4476	0.526
13.4875	0.528
13.5275	0.528
13.5674	0.531
13.6073	0.535
13.6473	0.538
13.6872	0.541
13.7271	0.543
13.767	0.548
13.807	0.552
13.8469	0.553
13.8868	0.562
13.9268	0.567
13.9667	0.575
14.0066	0.578
14.0465	0.587
14.0865	0.595
14.1264	0.602
14.1663	0.604
14.2063	0.604
14.2462	0.614
14.2861	0.615
14.326	0.62
14.366	0.622
14.4059	0.627
14.4458	0.627
14.4858	0.629
14.5257	0.629
14.5656	0.632
14.6055	0.632
14.6455	0.63
14.6854	0.632
14.7253	0.632
14.7653	0.63
14.8052	0.63
14.8451	0.629
14.885	0.629
14.925	0.627
14.9649	0.627
15.0048	0.629
15.0448	0.627
15.0847	0.629
15.1246	0.629
15.1645	0.627
15.2045	0.63
15.2444	0.63
15.2843	0.629
15.3243	0.625
15.3642	0.624
15.4041	0.619
15.444	0.615
15.484	0.615
15.5239	0.614
15.5638	0.604
15.6038	0.604
15.6437	0.602
15.6836	0.602
15.7235	0.602
15.7635	0.602
15.8034	0.602
15.8433	0.6
15.8833	0.598
15.9232	0.597
15.9631	0.597
16.003	0.595
