Infrared Spectrum: o-HYDROXYBENZOYL RUTHENOCENE
Formula: C17 H14 O2 Ru
State: SOLID (MINERAL OIL MULL)
Class: COBLENTZ
Instrument: Not specified, most likely a prism, grating, or hybrid spectrometer.
Sampling: TRANSMISSION
Resolution: 4
Origin: WYANDOTTE CHEMICALS CORP., WYANDOTTE, MICHIGAN, USA
MICROMETERS	TRANSMITTANCE
2.014	0.349
2.05476	0.358
2.09551	0.368
2.13627	0.377
2.17703	0.383
2.21778	0.394
2.25854	0.402
2.29929	0.418
2.34005	0.433
2.38081	0.438
2.42156	0.448
2.46232	0.453
2.50308	0.447
2.54383	0.462
2.58459	0.494
2.62534	0.486
2.6661	0.505
2.70686	0.511
2.74761	0.518
2.78837	0.527
2.82913	0.53
2.86988	0.534
2.91064	0.535
2.95139	0.539
2.99215	0.539
3.03291	0.535
3.07366	0.529
3.11442	0.51
3.15518	0.491
3.19593	0.476
3.23669	0.426
3.27744	0.37
3.3182	0.443
3.35896	0.291
3.39971	0.068
3.44047	0.066
3.48123	0.208
3.52198	0.211
3.56274	0.569
3.60349	0.663
3.64425	0.672
3.68501	0.674
3.72576	0.674
3.76652	0.691
3.80728	0.699
3.84803	0.706
3.88879	0.72
3.92954	0.737
3.9703	0.733
4.01106	0.747
4.05181	0.754
4.09257	0.761
4.13333	0.766
4.17408	0.774
4.21484	0.779
4.25559	0.773
4.29635	0.769
4.33711	0.771
4.37786	0.783
4.41862	0.813
4.45938	0.822
4.50013	0.819
4.54089	0.817
4.58164	0.834
4.6224	0.844
4.66316	0.853
4.70391	0.86
4.74467	0.863
4.78543	0.866
4.82618	0.872
4.86694	0.875
4.9077	0.889
4.94845	0.89
4.98921	0.895
5.02996	0.906
5.07072	0.902
5.11148	0.911
5.15223	0.902
5.19299	0.902
5.23375	0.894
5.2745	0.914
5.31526	0.93
5.35601	0.936
5.39677	0.94
5.43753	0.94
5.47828	0.941
5.51904	0.926
5.5598	0.901
5.60055	0.902
5.64131	0.911
5.68206	0.904
5.72282	0.911
5.76358	0.909
5.80433	0.901
5.84509	0.89
5.88585	0.889
5.9266	0.906
5.96736	0.901
6.00811	0.885
6.04887	0.856
6.08963	0.766
6.13038	0.511
6.17114	0.11
6.2119	0.29
6.25265	0.114
6.29341	0.042
6.33416	0.206
6.37492	0.383
6.41568	0.581
6.45643	0.66
6.49719	0.721
6.53795	0.75
6.5787	0.742
6.61946	0.749
6.66021	0.694
6.70097	0.465
6.74173	0.136
6.78248	0.322
6.82324	0.353
6.864	0.279
6.90475	0.107
6.94551	0.225
6.98626	0.479
7.02702	0.617
7.06778	0.656
7.10853	0.5
7.14929	0.626
7.19005	0.566
7.2308	0.568
7.27156	0.271
7.31231	0.416
7.35307	0.573
7.39383	0.556
7.43458	0.431
7.47534	0.43
7.5161	0.353
7.55685	0.271
7.59761	0.45
7.63837	0.489
7.67912	0.361
7.71988	0.221
7.76063	0.348
7.80139	0.639
7.84215	0.72
7.8829	0.725
7.92366	0.645
7.96442	0.343
8.00517	0.131
8.04593	0.156
8.08668	0.319
8.12744	0.47
8.1682	0.341
8.20895	0.119
8.24971	0.189
8.29047	0.262
8.33122	0.346
8.37198	0.433
8.41273	0.559
8.45349	0.619
8.49425	0.655
8.535	0.682
8.57576	0.72
8.61652	0.744
8.65727	0.709
8.69803	0.481
8.73878	0.17
8.77954	0.358
8.8203	0.677
8.86105	0.74
8.90181	0.759
8.94257	0.764
8.98332	0.665
9.02408	0.701
9.06483	0.757
9.10559	0.508
9.14635	0.723
9.1871	0.755
9.22786	0.774
9.26862	0.779
9.30937	0.783
9.35013	0.79
9.39088	0.793
9.43164	0.781
9.4724	0.769
9.51315	0.648
9.55391	0.508
9.59467	0.436
9.63542	0.72
9.67618	0.696
9.71693	0.622
9.75769	0.377
9.79845	0.668
9.8392	0.788
9.87996	0.824
9.92072	0.839
9.96147	0.836
10.0022	0.617
10.043	0.551
10.0837	0.67
10.1245	0.74
10.1653	0.767
10.206	0.866
10.2468	0.899
10.2875	0.902
10.3283	0.904
10.369	0.906
10.4098	0.883
10.4505	0.773
10.4913	0.832
10.5321	0.766
10.5728	0.464
10.6136	0.686
10.6543	0.827
10.6951	0.877
10.7358	0.897
10.7766	0.904
10.8174	0.907
10.8581	0.911
10.8989	0.907
10.9396	0.906
10.9804	0.866
11.0211	0.837
11.0619	0.877
11.1026	0.883
11.1434	0.866
11.1842	0.865
11.2249	0.877
11.2657	0.88
11.3064	0.86
11.3472	0.802
11.3879	0.738
11.4287	0.786
11.4695	0.807
11.5102	0.767
11.551	0.573
11.5917	0.426
11.6325	0.58
11.6732	0.619
11.714	0.658
11.7547	0.715
11.7955	0.771
11.8363	0.747
11.877	0.708
11.9178	0.692
11.9585	0.691
11.9993	0.793
12.04	0.796
12.0808	0.721
12.1216	0.58
12.1623	0.45
12.2031	0.286
12.2438	0.146
12.2846	0.143
12.3253	0.346
12.3661	0.503
12.4068	0.465
12.4476	0.426
12.4884	0.581
12.5291	0.682
12.5699	0.713
12.6106	0.699
12.6514	0.646
12.6921	0.598
12.7329	0.696
12.7737	0.788
12.8144	0.822
12.8552	0.822
12.8959	0.781
12.9367	0.662
12.9774	0.445
13.0182	0.305
13.0589	0.348
13.0997	0.441
13.1405	0.498
13.1812	0.522
13.222	0.522
13.2627	0.52
13.3035	0.515
13.3442	0.511
13.385	0.506
13.4258	0.494
13.4665	0.474
13.5073	0.433
13.548	0.385
13.5888	0.354
13.6295	0.329
13.6703	0.331
13.711	0.349
13.7518	0.399
13.7926	0.47
13.8333	0.559
13.8741	0.605
13.9148	0.653
13.9556	0.703
13.9963	0.742
14.0371	0.774
14.0779	0.723
14.1186	0.539
14.1594	0.399
14.2001	0.469
14.2409	0.592
14.2816	0.674
14.3224	0.728
14.3631	0.759
14.4039	0.781
14.4447	0.791
14.4854	0.81
14.5262	0.825
14.5669	0.834
14.6077	0.837
14.6484	0.829
14.6892	0.82
14.73	0.819
14.7707	0.812
14.8115	0.8
14.8522	0.774
14.893	0.721
14.9337	0.655
14.9745	0.595
15.0152	0.578
15.056	0.576
15.0968	0.576
15.1375	0.595
15.1783	0.639
15.219	0.696
15.2598	0.709
15.3005	0.72
15.3413	0.715
15.3821	0.699
15.4228	0.686
15.4636	0.675
15.5043	0.662
15.5451	0.662
15.5858	0.651
15.6266	0.645
15.6673	0.641
15.7081	0.631
15.7489	0.621
15.7896	0.607
15.8304	0.592
15.8711	0.573
15.9119	0.561
15.9526	0.551
15.9934	0.535
