Infrared Spectrum: Bis[5-tetrazolylazo]acetic acid, ethyl ester, disodium deriv. trihydrate
Formula: C3 H6 Na2 N12 O2  * 3 H2 O
State: SOLID (SPLIT MULL)
Class: COBLENTZ III
Instrument: DOW KBr FOREPRISM-GRATING
Instrument parameters: BLAZED AT 3.5, 12.0, 20.0 MICRON AND CHANGED AT 5.0, 7.5, 14.9 MICRON
Sampling: TRANSMISSION
Resolution: 2
Origin: DOW CHEMICAL COMPANY
1/CM	TRANSMITTANCE
3800	0.8487
3791	0.8493
3782	0.8501
3773	0.8511
3764	0.8518
3755	0.8534
3746	0.8555
3737	0.8567
3728	0.8565
3719	0.856
3710	0.8547
3701	0.8528
3692	0.8502
3683	0.8452
3674	0.8381
3665	0.8266
3656	0.8078
3647	0.7814
3638	0.7454
3629	0.708
3620	0.6691
3611	0.6322
3602	0.5795
3593	0.5295
3584	0.5015
3575	0.4651
3566	0.4467
3557	0.4389
3548	0.4388
3539	0.4374
3530	0.436
3521	0.4339
3512	0.4215
3503	0.4044
3494	0.3823
3485	0.3571
3476	0.3345
3467	0.3181
3458	0.2985
3449	0.272
3440	0.2478
3431	0.2287
3422	0.2132
3413	0.2007
3404	0.1912
3395	0.182
3386	0.1748
3377	0.1685
3368	0.1644
3359	0.1606
3350	0.1575
3341	0.1548
3332	0.1518
3323	0.1486
3314	0.1453
3305	0.1446
3296	0.1444
3287	0.1442
3278	0.1427
3269	0.139
3260	0.1339
3251	0.1283
3242	0.1256
3233	0.13
3224	0.1392
3215	0.1528
3206	0.1704
3197	0.1941
3188	0.2232
3179	0.2537
3170	0.2881
3161	0.3113
3152	0.3337
3143	0.3516
3134	0.3698
3125	0.3916
3116	0.4137
3107	0.4334
3098	0.4507
3089	0.466
3080	0.4809
3071	0.4951
3062	0.5075
3053	0.5197
3044	0.531
3035	0.5422
3026	0.5559
3017	0.5691
3008	0.5807
2999	0.5757
2990	0.5677
2981	0.5919
2972	0.6197
2963	0.6366
2954	0.6468
2945	0.6462
2936	0.6584
2927	0.6701
2918	0.6728
2909	0.6785
2900	0.6904
2891	0.7021
2882	0.7136
2873	0.7241
2864	0.7338
2855	0.7428
2846	0.7522
2837	0.7617
2828	0.7718
2819	0.7794
2810	0.7843
2801	0.7869
2792	0.7919
2783	0.7981
2774	0.8061
2765	0.813
2756	0.8182
2747	0.8234
2738	0.8291
2729	0.8342
2720	0.8388
2711	0.8425
2702	0.8458
2693	0.8491
2684	0.8524
2675	0.8543
2666	0.8551
2657	0.8557
2648	0.8559
2639	0.8555
2630	0.8568
2621	0.8585
2612	0.8603
2603	0.8625
2594	0.8652
2585	0.8678
2576	0.8702
2567	0.8718
2558	0.8734
2549	0.8747
2540	0.8748
2531	0.8746
2522	0.8747
2513	0.8758
2504	0.8771
2495	0.8762
2486	0.8752
2477	0.8758
2468	0.8767
2459	0.8771
2450	0.8774
2441	0.8777
2432	0.8778
2423	0.8774
2414	0.8768
2405	0.8762
2396	0.8752
2387	0.874
2378	0.8728
2369	0.8708
2360	0.8686
2351	0.8654
2342	0.8608
2333	0.8532
2324	0.846
2315	0.8398
2306	0.8356
2297	0.8366
2288	0.838
2279	0.8389
2270	0.8394
2261	0.8393
2252	0.8387
2243	0.8409
2234	0.8481
2225	0.8491
2216	0.8508
2207	0.8577
2198	0.8645
2189	0.8695
2180	0.8734
2171	0.876
2162	0.8782
2153	0.8806
2144	0.8844
2135	0.8873
2126	0.8884
2117	0.8877
2108	0.8853
2099	0.8852
2090	0.8912
2081	0.8997
2072	0.9082
2063	0.9108
2054	0.9191
2045	0.9282
2036	0.936
2027	0.9409
2018	0.9438
2009	0.9444
2000	0.9394
1991	0.9336
1982	0.9387
1973	0.943
1964	0.9463
1955	0.9486
1946	0.9505
1937	0.952
1928	0.9536
1919	0.955
1910	0.9561
1901	0.9568
1892	0.9575
1883	0.9577
1874	0.9571
1865	0.9568
1856	0.9568
1847	0.9571
1838	0.9574
1829	0.9567
1820	0.9554
1811	0.9525
1802	0.9517
1793	0.9504
1784	0.9464
1775	0.9417
1766	0.9371
1757	0.9321
1748	0.921
1739	0.8803
1730	0.7825
1721	0.6428
1712	0.3888
1703	0.1961
1694	0.2914
1685	0.5474
1676	0.6384
1667	0.6167
1658	0.6134
1649	0.6301
1640	0.6721
1631	0.7288
1622	0.7651
1613	0.7883
1604	0.8
1595	0.7999
1586	0.7844
1577	0.7451
1568	0.6571
1559	0.3471
1550	0.1632
1541	0.1673
1532	0.3414
1523	0.4014
1514	0.4683
1505	0.5916
1496	0.6784
1487	0.709
1478	0.4937
1469	0.6234
1460	0.5991
1451	0.4914
1442	0.6253
1433	0.6421
1424	0.6003
1415	0.3562
1406	0.3471
1397	0.4962
1388	0.2827
1379	0.2985
1370	0.566
1361	0.5852
1352	0.3777
1343	0.1713
1334	0.216
1325	0.4433
1316	0.3666
1307	0.2606
1298	0.4157
1289	0.422
1280	0.3857
1271	0.3397
1262	0.4338
1253	0.5834
1244	0.6314
1235	0.6648
1226	0.6858
1217	0.701
1208	0.6444
1199	0.5703
1190	0.5584
1181	0.6628
1172	0.5598
1163	0.388
1154	0.2454
1145	0.1985
1136	0.4452
1127	0.5664
1118	0.3653
1109	0.4125
1100	0.6191
1091	0.679
1082	0.636
1073	0.6967
1064	0.6482
1055	0.6597
1046	0.604
1037	0.6604
1028	0.6294
1019	0.3741
1010	0.4388
1001	0.6465
992	0.7747
983	0.791
974	0.8026
965	0.8118
956	0.8187
947	0.8252
938	0.8278
929	0.8313
920	0.8354
911	0.8385
902	0.8402
893	0.8375
884	0.8275
875	0.7578
866	0.6325
857	0.7465
848	0.7625
839	0.7441
830	0.4586
821	0.4624
812	0.6322
803	0.6406
794	0.6182
785	0.5162
776	0.4943
767	0.4614
758	0.39
749	0.3139
740	0.3873
731	0.3678
722	0.2728
713	0.4738
704	0.5141
695	0.5225
686	0.5076
677	0.4512
668	0.4253
659	0.4547
650	0.4843
641	0.5103
632	0.5332
623	0.5475
614	0.5258
605	0.5587
596	0.5822
587	0.6018
578	0.6197
569	0.501
560	0.4062
551	0.6243
542	0.6767
533	0.6903
524	0.6783
515	0.6576
506	0.6904
497	0.6958
488	0.7019
479	0.6931
470	0.6776
461	0.6525
452	0.6635
443	0.6941
434	0.7105
425	0.7141
416	0.7138
407	0.7088
398	0.7011
389	0.694
