Infrared Spectrum: 9Alpha-FLUORO-16Alpha-METHYLPREDNISOLONE-21-PHOSPHATE DISODIUM SALT
Formula: C22 H28 F Na2 O8 P
State: SOLID (NUJOL MULL)
Class: COBLENTZ III
Instrument: PERKIN-ELMER 521 (GRATING)
Instrument parameters: GRATING CHANGE AT 1996 CM^-^1
Sampling: TRANSMISSION
Resolution: 4
Origin: MERCK SHARPE & DOHME RESEARCH LABORATORIES, Nelson Trenner
1/CM	TRANSMITTANCE
601.511	0.308
610.577	0.329
619.644	0.342
628.71	0.344
637.777	0.345
646.843	0.344
655.909	0.343
664.976	0.338
674.042	0.338
683.108	0.333
692.175	0.317
701.241	0.313
710.308	0.294
719.374	0.314
728.44	0.364
737.507	0.408
746.573	0.417
755.639	0.421
764.706	0.43
773.772	0.433
782.839	0.437
791.905	0.437
800.971	0.41
810.038	0.411
819.104	0.399
828.17	0.385
837.237	0.382
846.303	0.363
855.37	0.363
864.436	0.385
873.502	0.404
882.569	0.212
891.635	0.479
900.702	0.406
909.768	0.397
918.834	0.423
927.901	0.523
936.967	0.551
946.033	0.456
955.1	0.524
964.166	0.336
973.233	0.225
982.299	0.199
991.365	0.344
1000.43	0.488
1009.5	0.449
1018.56	0.415
1027.63	0.369
1036.7	0.365
1045.76	0.342
1054.83	0.192
1063.9	0.179
1072.96	0.147
1082.03	0.146
1091.1	0.148
1100.16	0.157
1109.23	0.192
1118.29	0.19
1127.36	0.139
1136.43	0.16
1145.49	0.22
1154.56	0.282
1163.63	0.38
1172.69	0.49
1181.76	0.506
1190.83	0.553
1199.89	0.566
1208.96	0.64
1218.02	0.642
1227.09	0.625
1236.16	0.463
1245.22	0.547
1254.29	0.627
1263.36	0.59
1272.42	0.552
1281.49	0.494
1290.56	0.432
1299.62	0.446
1308.69	0.487
1317.76	0.511
1326.82	0.495
1335.89	0.47
1344.95	0.448
1354.02	0.422
1363.09	0.288
1372.15	0.198
1381.22	0.397
1390.29	0.416
1399.35	0.455
1408.42	0.463
1417.49	0.416
1426.55	0.319
1435.62	0.234
1444.68	0.124
1453.75	0.114
1462.82	0.194
1471.88	0.433
1480.95	0.566
1490.02	0.62
1499.08	0.639
1508.15	0.639
1517.22	0.634
1526.28	0.628
1535.35	0.6
1544.41	0.583
1553.48	0.573
1562.55	0.557
1571.61	0.521
1580.68	0.481
1589.75	0.425
1598.81	0.289
1607.88	0.314
1616.95	0.246
1626.01	0.3069
1635.08	0.382
1644.14	0.31
1653.21	0.181
1662.28	0.16
1671.34	0.2859
1680.41	0.462
1689.48	0.472
1698.54	0.354
1707.61	0.339
1716.68	0.39
1725.74	0.4799
1734.81	0.648
1743.87	0.74
1752.94	0.797
1762.01	0.839
1771.07	0.842
1780.14	0.853
1789.21	0.878
1798.27	0.884
1807.34	0.887
1816.41	0.9
1825.47	0.904
1834.54	0.905
1843.61	0.907
1852.67	0.91
1861.74	0.91
1870.8	0.91
1879.87	0.907
1888.94	0.908
1898	0.909
1907.07	0.907
1916.14	0.907
1925.2	0.904
1934.27	0.899
1943.34	0.898
1952.4	0.895
1961.47	0.895
1970.53	0.889
1979.6	0.89
1988.67	0.884
1997.73	0.884
2006.8	0.885
2015.87	0.8837
2024.93	0.8778
2034	0.8713
2043.07	0.8614
2052.13	0.8566
2061.2	0.855
2070.26	0.8521
2079.33	0.8437
2088.4	0.8396
2097.46	0.838
2106.53	0.8351
2115.6	0.83
2124.66	0.829
2133.73	0.8248
2142.8	0.8191
2151.86	0.809
2160.93	0.806
2169.99	0.803
2179.06	0.792
2188.13	0.787
2197.19	0.7835
2206.26	0.781
2215.33	0.782
2224.39	0.78
2233.46	0.78
2242.53	0.78
2251.59	0.78
2260.66	0.78
2269.72	0.7826
2278.79	0.784
2287.86	0.783
2296.92	0.783
2305.99	0.784
2315.06	0.7832
2324.12	0.783
2333.19	0.782
2342.26	0.783
2351.32	0.784
2360.39	0.784
2369.46	0.784
2378.52	0.784
2387.59	0.784
2396.65	0.784
2405.72	0.783
2414.79	0.7812
2423.85	0.778
2432.92	0.778
2441.99	0.777
2451.05	0.7732
2460.12	0.7704
2469.19	0.7664
2478.25	0.762
2487.32	0.761
2496.38	0.7584
2505.45	0.7482
2514.52	0.7399
2523.58	0.7282
2532.65	0.7194
2541.72	0.7096
2550.78	0.7045
2559.85	0.6874
2568.92	0.6763
2577.98	0.6641
2587.05	0.6463
2596.11	0.6033
2605.18	0.597
2614.25	0.5936
2623.31	0.5848
2632.38	0.571
2641.45	0.5615
2650.51	0.5379
2659.58	0.5246
2668.65	0.5119
2677.71	0.5004
2686.78	0.492
2695.84	0.488
2704.91	0.4775
2713.98	0.4537
2723.04	0.4388
2732.11	0.4316
2741.18	0.4291
2750.24	0.428
2759.31	0.4164
2768.38	0.411
2777.44	0.3748
2786.51	0.3492
2795.57	0.3186
2804.64	0.3063
2813.71	0.2722
2822.77	0.2554
2831.84	0.1748
2840.91	0.0804
2849.97	0.0438
2859.04	0.044
2868.11	0.047
2877.17	0.0475
2886.24	0.0457
2895.31	0.038
2904.37	0.034
2913.44	0.0346
2922.5	0.036
2931.57	0.035
2940.64	0.035
2949.7	0.0376
2958.77	0.0534
2967.84	0.0682
2976.9	0.0959
2985.97	0.1339
2995.04	0.1555
3004.1	0.1971
3013.17	0.2009
3022.23	0.205
3031.3	0.205
3040.37	0.205
3049.43	0.209
3058.5	0.209
3067.57	0.209
3076.63	0.2038
3085.7	0.201
3094.77	0.1993
3103.83	0.1965
3112.9	0.1927
3121.96	0.191
3131.03	0.1902
3140.1	0.19
3149.16	0.1807
3158.23	0.1759
3167.3	0.172
3176.36	0.171
3185.43	0.1687
3194.5	0.167
3203.56	0.167
3212.63	0.167
3221.69	0.167
3230.76	0.167
3239.83	0.167
3248.89	0.167
3257.96	0.168
3267.03	0.167
3276.09	0.167
3285.16	0.165
3294.23	0.163
3303.29	0.1618
3312.36	0.161
3321.42	0.1603
3330.49	0.16
3339.56	0.158
3348.62	0.157
3357.69	0.156
3366.76	0.156
3375.82	0.156
3384.89	0.156
3393.96	0.157
3403.02	0.158
3412.09	0.16
3421.16	0.1611
3430.22	0.1659
3439.29	0.1799
3448.35	0.1972
3457.42	0.2031
3466.49	0.2089
3475.55	0.2157
3484.62	0.219
3493.69	0.2245
3502.75	0.2389
3511.82	0.2477
3520.89	0.2584
3529.95	0.2752
3539.02	0.2889
3548.08	0.3109
3557.15	0.3535
3566.22	0.3765
3575.28	0.4021
3584.35	0.4108
3593.42	0.413
3602.48	0.4376
3611.55	0.5049
3620.62	0.5763
3629.68	0.6265
3638.75	0.6791
3647.81	0.7138
3656.88	0.7538
3665.95	0.7929
3675.01	0.8273
3684.08	0.8514
3693.15	0.8629
3702.21	0.8697
3711.28	0.872
3720.35	0.873
3729.41	0.873
3738.48	0.871
3747.54	0.8685
3756.61	0.8656
3765.68	0.858
3774.74	0.8563
3783.81	0.856
3792.88	0.855
3801.94	0.853
3811.01	0.848
3820.08	0.847
3829.14	0.847
3838.21	0.8469
3847.27	0.845
3856.34	0.841
3865.41	0.8377
3874.47	0.835
3883.54	0.834
3892.61	0.8294
3901.67	0.8276
3910.74	0.8227
3919.81	0.819
3928.87	0.818
3937.94	0.8142
3947.01	0.811
3956.07	0.809
3965.14	0.802
3974.2	0.8
3983.27	0.8
3992.34	0.8
4001.4	0.8
