Infrared Spectrum: p,p'-DI-ISO-OCTYLDIPHENYLAMINE HYDROCHLORIDE
Formula: C28 H44 Cl N
State: SOLID (KBr DISC, 0.9% WT.)
Class: COBLENTZ III
Instrument: PERKIN-ELMER 157
Sampling: TRANSMISSION
Resolution: 2
Origin: BRITISH PETROLEUM CO. LTD., ENGLAND
1/CM	TRANSMITTANCE
668	0.3667
677	0.4957
686	0.6307
695	0.6892
704	0.7288
713	0.7408
722	0.6563
731	0.6327
740	0.634
749	0.5929
758	0.7032
767	0.7405
776	0.7115
785	0.6569
794	0.2808
803	0.4302
812	0.3115
821	0.0829
830	0.1097
839	0.2778
848	0.4533
857	0.4797
866	0.5144
875	0.6292
884	0.6545
893	0.6889
902	0.6909
911	0.6173
920	0.5436
929	0.608
938	0.5837
947	0.6106
956	0.6384
965	0.6019
974	0.4989
983	0.5157
992	0.6403
1001	0.6373
1010	0.514
1019	0.1306
1028	0.5283
1037	0.6503
1046	0.6819
1055	0.6728
1064	0.6709
1073	0.6564
1082	0.6258
1091	0.4678
1100	0.4645
1109	0.5264
1118	0.578
1127	0.529
1136	0.4658
1145	0.5753
1154	0.5738
1163	0.437
1172	0.3298
1181	0.374
1190	0.2518
1199	0.2894
1208	0.2444
1217	0.4117
1226	0.3929
1235	0.2912
1244	0.1241
1253	0.1059
1262	0.3625
1271	0.4608
1280	0.4354
1289	0.3253
1298	0.244
1307	0.1767
1316	0.1218
1325	0.1048
1334	0.1746
1343	0.2197
1352	0.2963
1361	0.0986
1370	0.1541
1379	0.2646
1388	0.1056
1397	0.1404
1406	0.2396
1415	0.2302
1424	0.1658
1433	0.1431
1442	0.1302
1451	0.0902
1460	0.055
1469	0.0518
1478	0.0587
1487	0.1115
1496	0.1066
1505	0.0456
1514	0.0432
1523	0.0844
1532	0.1374
1541	0.2801
1550	0.3264
1559	0.411
1568	0.4253
1577	0.4221
1586	0.4017
1595	0.2585
1604	0.1183
1613	0.1002
1622	0.3461
1631	0.4627
1640	0.5052
1649	0.5417
1658	0.5607
1667	0.583
1676	0.5994
1685	0.6117
1694	0.6179
1703	0.6208
1712	0.6185
1721	0.6149
1730	0.6141
1739	0.6068
1748	0.6029
1757	0.6023
1766	0.6019
1775	0.5975
1784	0.6021
1793	0.619
1802	0.6194
1811	0.6197
1820	0.6201
1829	0.6205
1838	0.6208
1847	0.6192
1856	0.6066
1865	0.5934
1874	0.5802
1883	0.5619
1892	0.543
1901	0.5328
1910	0.5312
1919	0.5304
1928	0.5173
1937	0.5044
1946	0.4917
1955	0.479
1964	0.4636
1973	0.4494
1982	0.429
1991	0.4166
2000	0.4101
2009	0.4109
2018	0.4329
2027	0.4612
2036	0.4713
2045	0.4739
2054	0.4824
2063	0.4909
2072	0.4969
2081	0.4959
2090	0.4867
2099	0.4771
2108	0.4647
2117	0.454
2126	0.4415
2135	0.4268
2144	0.409
2153	0.3883
2162	0.3704
2171	0.3546
2180	0.3414
2189	0.3306
2198	0.3028
2207	0.2789
2216	0.2596
2225	0.2433
2234	0.2306
2243	0.217
2252	0.2042
2261	0.1884
2270	0.1713
2279	0.159
2288	0.1469
2297	0.1376
2306	0.1282
2315	0.1177
2324	0.1043
2333	0.0785
2342	0.0643
2351	0.0594
2360	0.057
2369	0.0526
2378	0.0462
2387	0.0407
2396	0.0367
2405	0.036
2414	0.0361
2423	0.0361
2432	0.0362
2441	0.0363
2450	0.0366
2459	0.0371
2468	0.0377
2477	0.0385
2486	0.0404
2495	0.044
2504	0.049
2513	0.0509
2522	0.0497
2531	0.0473
2540	0.0436
2549	0.041
2558	0.0392
2567	0.0381
2576	0.0377
2585	0.0375
2594	0.0375
2603	0.0377
2612	0.038
2621	0.0401
2630	0.0432
2639	0.0474
2648	0.0526
2657	0.059
2666	0.0647
2675	0.0693
2684	0.0711
2693	0.0713
2702	0.0713
2711	0.0715
2720	0.0785
2729	0.0896
2738	0.0971
2747	0.1008
2756	0.1021
2765	0.1027
2774	0.1031
2783	0.1023
2792	0.0942
2801	0.0838
2810	0.0728
2819	0.0627
2828	0.053
2837	0.0447
2846	0.0381
2855	0.0352
2864	0.0342
2873	0.0335
2882	0.0331
2891	0.0328
2900	0.0328
2909	0.0326
2918	0.0326
2927	0.0327
2936	0.0333
2945	0.0345
2954	0.0457
2963	0.0737
2972	0.1014
2981	0.1291
2990	0.1565
2999	0.1727
3008	0.1831
3017	0.198
3026	0.215
3035	0.2301
3044	0.2815
3053	0.3099
3062	0.3218
3071	0.3335
3080	0.341
3089	0.3451
3098	0.347
3107	0.3479
3116	0.3484
3125	0.3485
3134	0.3482
3143	0.3467
3152	0.3414
3161	0.3335
3170	0.3314
3179	0.3303
3188	0.3291
3197	0.3277
3206	0.321
3215	0.3112
3224	0.3017
3233	0.2832
3242	0.27
3251	0.2514
3260	0.2368
3269	0.2225
3278	0.2148
3287	0.2122
3296	0.2124
3305	0.2133
3314	0.2155
3323	0.2212
3332	0.2359
3341	0.2495
3350	0.2547
3359	0.2579
3368	0.26
3377	0.2614
3386	0.2624
3395	0.2633
3404	0.2643
3413	0.2673
3422	0.2714
3431	0.277
3440	0.2843
3449	0.2927
3458	0.3019
3467	0.3202
3476	0.3283
3485	0.3363
3494	0.344
3503	0.3513
3512	0.359
3521	0.377
3530	0.3873
3539	0.3948
3548	0.4059
3557	0.4217
3566	0.4366
3575	0.4465
3584	0.4545
3593	0.4618
3602	0.4684
3611	0.4732
3620	0.4763
3629	0.4785
3638	0.4797
3647	0.4808
3656	0.4814
3665	0.4819
3674	0.4824
3683	0.4827
3692	0.4827
3701	0.4826
3710	0.4827
3719	0.4827
3728	0.4821
3737	0.4813
3746	0.4806
3755	0.4801
3764	0.4801
3773	0.4809
3782	0.4818
3791	0.4824
3800	0.482
3809	0.4801
3818	0.477
3827	0.4742
3836	0.4713
3845	0.4704
3854	0.4702
3863	0.4701
3872	0.4701
3881	0.4701
3890	0.4703
3899	0.4703
3908	0.4704
3917	0.4704
3926	0.4704
3935	0.4704
3944	0.4705
3953	0.4705
3962	0.4705
3971	0.4705
3980	0.4705
3989	0.4704
3998	0.4704
