Infrared Spectrum: 3,3',3'',3''',3'''',3'''''-[(CYCLOHEXANE-1,2,3,4,5,6-HEXAYL)HEXAOXY]HEXAPROPIONITRILE
Formula: C24 H30 N6 O6
State: SOLID (SPLIT MULL), FLUOROLUBE FOR 3800-1330 CM^-^1, NUJOL FOR 1330-400 CM^-^1
Melting point: 125 C
Class: COBLENTZ III
Instrument: BECKMAN IR-9 (GRATING)
Instrument parameters: ORDER CHANGES: 670, 1200, 2000 CM^-^1
Sampling: TRANSMISSION
Resolution: 2
Origin: DOW CHEMICAL COMPANY
1/CM	TRANSMITTANCE
402.077	0.523
410.979	0.524
419.881	0.59
428.783	0.659
437.685	0.704
446.587	0.752
455.489	0.79
464.392	0.821
473.294	0.836
482.196	0.825
491.098	0.807
500	0.833
508.902	0.847
517.804	0.801
526.706	0.878
535.608	0.9
544.51	0.897
553.412	0.903
562.314	0.909
571.217	0.86
580.119	0.9
589.021	0.903
597.923	0.868
606.825	0.9
615.727	0.914
624.629	0.911
633.531	0.932
642.433	0.963
651.335	0.975
660.237	0.976
669.139	0.977
678.041	0.977
686.944	0.979
695.846	0.972
704.748	0.904
713.65	0.74
722.552	0.829
731.454	0.681
740.356	0.795
749.258	0.886
758.16	0.903
767.062	0.903
775.964	0.922
784.866	0.929
793.769	0.926
802.671	0.934
811.573	0.939
820.475	0.923
829.377	0.914
838.279	0.886
847.181	0.817
856.083	0.861
864.985	0.875
873.887	0.889
882.789	0.919
891.691	0.914
900.593	0.908
909.496	0.9
918.398	0.889
927.3	0.861
936.202	0.807
945.104	0.843
954.006	0.793
962.908	0.837
971.81	0.851
980.712	0.847
989.614	0.829
998.516	0.749
1007.42	0.653
1016.32	0.662
1025.22	0.682
1034.12	0.728
1043.03	0.656
1051.93	0.436
1060.83	0.164
1069.73	0.052
1078.64	0.211
1087.54	0.31
1096.44	0.116
1105.34	0.031
1114.24	0.069
1123.15	0.131
1132.05	0.13
1140.95	0.265
1149.85	0.501
1158.75	0.569
1167.66	0.513
1176.56	0.457
1185.46	0.734
1194.36	0.795
1203.26	0.819
1212.17	0.808
1221.07	0.555
1229.97	0.695
1238.87	0.804
1247.77	0.819
1256.68	0.696
1265.58	0.738
1274.48	0.756
1283.38	0.8
1292.28	0.819
1301.19	0.813
1310.09	0.81
1318.99	0.792
1327.89	0.7489
1336.8	0.642
1345.7	0.62
1354.6	0.45
1363.5	0.325
1372.4	0.592
1381.31	0.786
1390.21	0.81
1399.11	0.736
1408.01	0.524
1416.91	0.497
1425.82	0.6601
1434.72	0.868
1443.62	0.912
1452.52	0.933
1461.42	0.933
1470.33	0.8639
1479.23	0.691
1488.13	0.853
1497.03	0.968
1505.93	0.987
1514.84	0.991
1523.74	0.993
1532.64	0.993
1541.54	0.993
1550.45	0.991
1559.35	0.991
1568.25	0.99
1577.15	0.99
1586.05	0.988
1594.96	0.987
1603.86	0.986
1612.76	0.984
1621.66	0.984
1630.56	0.983
1639.47	0.981
1648.37	0.981
1657.27	0.981
1666.17	0.977
1675.07	0.968
1683.98	0.958
1692.88	0.959
1701.78	0.977
1710.68	0.984
1719.58	0.988
1728.49	0.991
1737.39	0.99
1746.29	0.991
1755.19	0.991
1764.1	0.991
1773	0.991
1781.9	0.988
1790.8	0.986
1799.7	0.983
1808.61	0.984
1817.51	0.984
1826.41	0.984
1835.31	0.984
1844.21	0.983
1853.12	0.983
1862.02	0.98
1870.92	0.979
1879.82	0.979
1888.72	0.979
1897.63	0.979
1906.53	0.976
1915.43	0.976
1924.33	0.976
1933.23	0.973
1942.14	0.97
1951.04	0.968
1959.94	0.968
1968.84	0.968
1977.75	0.969
1986.65	0.969
1995.55	0.968
2004.45	0.956
2013.35	0.9805
2022.26	0.981
2031.16	0.981
2040.06	0.981
2048.96	0.9794
2057.86	0.9737
2066.77	0.97
2075.67	0.9639
2084.57	0.9556
2093.47	0.9513
2102.37	0.9407
2111.28	0.9332
2120.18	0.933
2129.08	0.933
2137.98	0.933
2146.88	0.933
2155.79	0.933
2164.69	0.932
2173.59	0.923
2182.49	0.921
2191.4	0.921
2200.3	0.916
2209.2	0.909
2218.1	0.9089
2227	0.8978
2235.91	0.8689
2244.81	0.6927
2253.71	0.3981
2262.61	0.6512
2271.51	0.8544
2280.42	0.8962
2289.32	0.9043
2298.22	0.908
2307.12	0.908
2316.02	0.9047
2324.93	0.901
2333.83	0.9
2342.73	0.897
2351.63	0.897
2360.53	0.897
2369.44	0.8989
2378.34	0.9035
2387.24	0.905
2396.14	0.903
2405.04	0.9
2413.95	0.898
2422.85	0.896
2431.75	0.891
2440.65	0.893
2449.56	0.9
2458.46	0.901
2467.36	0.8973
2476.26	0.894
2485.16	0.893
2494.07	0.893
2502.97	0.894
2511.87	0.894
2520.77	0.894
2529.67	0.894
2538.58	0.894
2547.48	0.893
2556.38	0.891
2565.28	0.89
2574.18	0.889
2583.09	0.889
2591.99	0.889
2600.89	0.8889
2609.79	0.885
2618.69	0.882
2627.6	0.879
2636.5	0.8758
2645.4	0.872
2654.3	0.873
2663.21	0.873
2672.11	0.873
2681.01	0.873
2689.91	0.872
2698.81	0.8703
2707.72	0.8663
2716.62	0.862
2725.52	0.857
2734.42	0.8536
2743.32	0.851
2752.23	0.8481
2761.13	0.84
2770.03	0.842
2778.93	0.836
2787.83	0.8299
2796.74	0.8214
2805.64	0.81
2814.54	0.8041
2823.44	0.7977
2832.34	0.795
2841.25	0.7883
2850.15	0.7666
2859.05	0.7295
2867.95	0.6704
2876.86	0.5589
2885.76	0.4534
2894.66	0.4142
2903.56	0.5245
2912.46	0.6015
2921.37	0.5611
2930.27	0.4957
2939.17	0.4789
2948.07	0.5505
2956.97	0.598
2965.88	0.6099
2974.78	0.652
2983.68	0.7617
2992.58	0.8071
3001.48	0.8292
3010.39	0.8313
3019.29	0.8328
3028.19	0.8352
3037.09	0.836
3045.99	0.835
3054.9	0.835
3063.8	0.833
3072.7	0.832
3081.6	0.8273
3090.51	0.828
3099.41	0.829
3108.31	0.831
3117.21	0.831
3126.11	0.831
3135.02	0.831
3143.92	0.831
3152.82	0.83
3161.72	0.829
3170.62	0.826
3179.53	0.8228
3188.43	0.8184
3197.33	0.815
3206.23	0.815
3215.13	0.815
3224.04	0.8143
3232.94	0.811
3241.84	0.8072
3250.74	0.799
3259.64	0.795
3268.55	0.796
3277.45	0.796
3286.35	0.796
3295.25	0.7951
3304.15	0.793
3313.06	0.792
3321.96	0.789
3330.86	0.786
3339.76	0.782
3348.67	0.779
3357.57	0.7769
3366.47	0.7719
3375.37	0.771
3384.27	0.77
3393.18	0.768
3402.08	0.7678
3410.98	0.765
3419.88	0.763
3428.78	0.7598
3437.69	0.756
3446.59	0.756
3455.49	0.756
3464.39	0.756
3473.29	0.756
3482.2	0.756
3491.1	0.756
3500	0.7551
3508.9	0.754
3517.8	0.753
3526.71	0.753
3535.61	0.754
3544.51	0.754
3553.41	0.753
3562.32	0.752
3571.22	0.7494
3580.12	0.747
3589.02	0.7493
3597.92	0.7523
3606.83	0.753
3615.73	0.7555
3624.63	0.756
3633.53	0.756
3642.43	0.756
3651.34	0.757
3660.24	0.757
3669.14	0.7609
3678.04	0.763
3686.94	0.761
3695.85	0.761
3704.75	0.761
3713.65	0.761
3722.55	0.761
3731.45	0.759
3740.36	0.757
3749.26	0.7558
3758.16	0.753
3767.06	0.7518
3775.97	0.749
3784.87	0.7468
3793.77	0.746
