Infrared Spectrum: 1,2-CYCLOBUTANE DICARBONYL CHLORIDE, TRANS-
Formula: C6 H6 Cl2 O2
State: SOLUTION (10% CCl4 FOR 3800-1330, 10% CS2 FOR 1330-400 CM^-^1))
Boiling point: 67 C AT 0.25 mmHg
Class: COBLENTZ III
Instrument: BECKMAN IR-9 (GRATING)
Instrument parameters: ORDER CHANGES: 670, 1200, 2000 CM^-^1
Sampling: TRANSMISSION
Path length: 0.012 CM, 0.011 CM
Resolution: 2
Origin: DOW CHEMICAL COMPANY
1/CM	TRANSMITTANCE
403	0.112
412	0.108
421	0.354
430	0.4275
439	0.2584
448	0.3143
457	0.6501
466	0.7751
475	0.8318
484	0.8337
493	0.8502
502	0.8567
511	0.847
520	0.9064
529	0.9114
538	0.9015
547	0.8777
556	0.864
565	0.9049
574	0.9418
583	0.9558
592	0.9489
601	0.924
610	0.8984
619	0.8762
628	0.8657
637	0.7951
646	0.7241
655	0.6911
664	0.7078
673	0.7022
682	0.7082
691	0.7305
700	0.6564
709	0.4964
718	0.1201
727	0.0357
736	0.0865
745	0.1737
754	0.4253
763	0.7015
772	0.8121
781	0.8307
790	0.7898
799	0.6708
808	0.5175
817	0.4334
826	0.5252
835	0.6706
844	0.6112
853	0.3924
862	0.1982
871	0.2149
880	0.3776
889	0.5404
898	0.6646
907	0.6984
916	0.7105
925	0.5906
934	0.5165
943	0.3921
952	0.7208
961	0.8637
970	0.8618
979	0.8216
988	0.7499
997	0.6851
1006	0.6195
1015	0.4947
1024	0.2506
1033	0.0888
1042	0.0938
1051	0.2148
1060	0.3406
1069	0.4116
1078	0.5426
1087	0.5624
1096	0.4553
1105	0.467
1114	0.5753
1123	0.7908
1132	0.9021
1141	0.9241
1150	0.9304
1159	0.9215
1168	0.867
1177	0.7101
1186	0.7036
1195	0.6578
1204	0.668
1213	0.7412
1222	0.8631
1231	0.8035
1240	0.524
1249	0.8303
1258	0.9196
1267	0.8928
1276	0.8421
1285	0.7171
1294	0.7781
1303	0.8931
1312	0.955
1321	0.9739
1330	0.9593
1339	0.8636
1348	0.8048
1357	0.804
1366	0.854
1375	0.8956
1384	0.9168
1393	0.9263
1402	0.9299
1411	0.9343
1420	0.9275
1429	0.9197
1438	0.8856
1447	0.5848
1456	0.8591
1465	0.8828
1474	0.9018
1483	0.9045
1492	0.8881
1501	0.8457
1510	0.7962
1519	0.7303
1528	0.6608
1537	0.5979
1546	0.5118
1555	0.4826
1564	0.5388
1573	0.6212
1582	0.65
1591	0.6807
1600	0.7944
1609	0.8636
1618	0.899
1627	0.9199
1636	0.9299
1645	0.9331
1654	0.9334
1663	0.9303
1672	0.9241
1681	0.9164
1690	0.9071
1699	0.8959
1708	0.8802
1717	0.855
1726	0.8015
1735	0.6746
1744	0.5623
1753	0.4605
1762	0.2947
1771	0.1138
1780	0.022
1789	0.0001
1798	0.0001
1807	0
1816	0.023
1825	0.2823
1834	0.5134
1843	0.6084
1852	0.6881
1861	0.7294
1870	0.7548
1879	0.7797
1888	0.798
1897	0.8158
1906	0.8417
1915	0.8813
1924	0.9
1933	0.9123
1942	0.92
1951	0.9258
1960	0.9294
1969	0.9338
1978	0.9381
1987	0.9432
1996	0.9287
2005	0.9475
2014	0.948
2023	0.9478
2032	0.9482
2041	0.9493
2050	0.9498
2059	0.9499
2068	0.9498
2077	0.95
2086	0.9506
2095	0.9518
2104	0.9535
2113	0.9556
2122	0.9578
2131	0.961
2140	0.9639
2149	0.966
2158	0.9668
2167	0.9675
2176	0.9683
2185	0.9689
2194	0.9691
2203	0.9677
2212	0.9651
2221	0.9605
2230	0.9547
2239	0.9477
2248	0.9441
2257	0.9492
2266	0.9504
2275	0.9475
2284	0.9421
2293	0.9371
2302	0.9383
2311	0.941
2320	0.9416
2329	0.9404
2338	0.9383
2347	0.9357
2356	0.9334
2365	0.9313
2374	0.9306
2383	0.9359
2392	0.9458
2401	0.9521
2410	0.9567
2419	0.9621
2428	0.9666
2437	0.9698
2446	0.9725
2455	0.9742
2464	0.9744
2473	0.9737
2482	0.973
2491	0.9718
2500	0.9707
2509	0.9698
2518	0.9693
2527	0.9687
2536	0.9688
2545	0.9696
2554	0.9707
2563	0.9725
2572	0.9748
2581	0.9761
2590	0.9771
2599	0.9775
2608	0.9777
2617	0.9778
2626	0.9768
2635	0.976
2644	0.975
2653	0.9742
2662	0.9736
2671	0.9728
2680	0.9727
2689	0.9724
2698	0.9723
2707	0.973
2716	0.9737
2725	0.9745
2734	0.9754
2743	0.9763
2752	0.9767
2761	0.977
2770	0.9767
2779	0.9759
2788	0.9745
2797	0.9724
2806	0.9693
2815	0.9661
2824	0.9625
2833	0.9575
2842	0.9513
2851	0.9421
2860	0.9312
2869	0.8871
2878	0.8328
2887	0.8943
2896	0.9131
2905	0.9094
2914	0.9005
2923	0.8827
2932	0.8564
2941	0.8293
2950	0.7576
2959	0.5787
2968	0.5951
2977	0.7481
2986	0.7804
2995	0.7396
3004	0.6462
3013	0.6403
3022	0.8568
3031	0.9057
3040	0.9325
3049	0.9428
3058	0.9489
3067	0.9532
3076	0.9563
3085	0.9577
3094	0.9594
3103	0.9611
3112	0.9625
3121	0.9638
3130	0.9646
3139	0.9647
3148	0.9648
3157	0.9647
3166	0.9646
3175	0.9646
3184	0.965
3193	0.9654
3202	0.9658
3211	0.9657
3220	0.9656
3229	0.9655
3238	0.9654
3247	0.9653
3256	0.9652
3265	0.965
3274	0.9648
3283	0.9646
3292	0.9641
3301	0.9634
3310	0.9627
3319	0.962
3328	0.9613
3337	0.9606
3346	0.9599
3355	0.9588
3364	0.9577
3373	0.9561
3382	0.9545
3391	0.9528
3400	0.9516
3409	0.9502
3418	0.9497
3427	0.9496
3436	0.9506
3445	0.952
3454	0.954
3463	0.9557
3472	0.9573
3481	0.9586
3490	0.9594
3499	0.959
3508	0.9571
3517	0.9532
3526	0.944
3535	0.9273
3544	0.9082
3553	0.8875
3562	0.8721
3571	0.8685
3580	0.8721
3589	0.8828
3598	0.9177
3607	0.9323
3616	0.9445
3625	0.9555
3634	0.9616
3643	0.9648
3652	0.9668
3661	0.9682
3670	0.9681
3679	0.9678
3688	0.9675
3697	0.9675
3706	0.968
3715	0.9687
3724	0.9697
3733	0.9709
3742	0.972
3751	0.9727
3760	0.9728
3769	0.973
3778	0.9734
3787	0.9738
3796	0.9743
