Infrared Spectrum: 9H-Purine-6(1H)-thione, 1-[3-(p-tolylthio)propyl]-
Formula: C15 H16 N4 S2
State: SOLID (1 mg / 650 mg KBr DISC)
Class: COBLENTZ III
Instrument: PERKIN-ELMER 221 (GRATING)
Instrument parameters: FILTER AT 2490, 980 CM^-^1. GRATING 4000-1428 CM^-^1, NaCl PRISM 1428-650 CM^-^1
Sampling: TRANSMISSION
Resolution: 2
Origin: SOUTHERN RESEARCH INSTITUTE
1/CM	TRANSMITTANCE
632	0.9459
641	0.942
650	0.8248
659	0.9485
668	0.9641
677	0.8847
686	0.8692
695	0.9809
704	0.9643
713	0.976
722	0.975
731	0.9497
740	0.9317
749	0.8592
758	0.8423
767	0.9434
776	0.9249
785	0.8065
794	0.8543
803	0.7249
812	0.5609
821	0.8299
830	0.9005
839	0.8509
848	0.8521
857	0.8463
866	0.818
875	0.7468
884	0.7925
893	0.8779
902	0.7535
911	0.705
920	0.8019
929	0.902
938	0.9008
947	0.894
956	0.8799
965	0.8121
974	0.8179
983	0.597
992	0.85
1001	0.8979
1010	0.8917
1019	0.8469
1028	0.7599
1037	0.6571
1046	0.4684
1055	0.6431
1064	0.8861
1073	0.8876
1082	0.8724
1091	0.8387
1100	0.7936
1109	0.7623
1118	0.535
1127	0.5413
1136	0.7848
1145	0.7407
1154	0.7644
1163	0.5379
1172	0.3769
1181	0.6363
1190	0.8763
1199	0.8885
1208	0.8319
1217	0.7485
1226	0.7391
1235	0.663
1244	0.7971
1253	0.8141
1262	0.7028
1271	0.6119
1280	0.5541
1289	0.8462
1298	0.8338
1307	0.8101
1316	0.7995
1325	0.8122
1334	0.7339
1343	0.7474
1352	0.4922
1361	0.5985
1370	0.7229
1379	0.6998
1388	0.4493
1397	0.5176
1406	0.6945
1415	0.6556
1424	0.5865
1433	0.5789
1442	0.4087
1451	0.3288
1460	0.5364
1469	0.6962
1478	0.6828
1487	0.4882
1496	0.4445
1505	0.2811
1514	0.4506
1523	0.6739
1532	0.8056
1541	0.8285
1550	0.8139
1559	0.7728
1568	0.7604
1577	0.6757
1586	0.5308
1595	0.2488
1604	0.0815
1613	0.2332
1622	0.5771
1631	0.8373
1640	0.8377
1649	0.839
1658	0.848
1667	0.8518
1676	0.8518
1685	0.85
1694	0.8455
1703	0.8401
1712	0.8341
1721	0.8272
1730	0.8204
1739	0.8145
1748	0.8103
1757	0.8069
1766	0.8071
1775	0.8105
1784	0.8135
1793	0.8143
1802	0.8173
1811	0.7956
1820	0.8028
1829	0.8312
1838	0.8361
1847	0.8381
1856	0.8387
1865	0.8387
1874	0.8379
1883	0.8358
1892	0.831
1901	0.8284
1910	0.8437
1919	0.8451
1928	0.8441
1937	0.8431
1946	0.8422
1955	0.8423
1964	0.842
1973	0.8412
1982	0.8393
1991	0.8373
2000	0.835
2009	0.8326
2018	0.8301
2027	0.8276
2036	0.8251
2045	0.8226
2054	0.8202
2063	0.8177
2072	0.8151
2081	0.8126
2090	0.8098
2099	0.8063
2108	0.8028
2117	0.7992
2126	0.7954
2135	0.7916
2144	0.7878
2153	0.784
2162	0.7801
2171	0.7761
2180	0.7722
2189	0.7688
2198	0.7654
2207	0.762
2216	0.7571
2225	0.7522
2234	0.7473
2243	0.7428
2252	0.7383
2261	0.7338
2270	0.7295
2279	0.7252
2288	0.721
2297	0.7158
2306	0.7102
2315	0.7041
2324	0.6953
2333	0.6868
2342	0.6798
2351	0.6753
2360	0.6709
2369	0.6662
2378	0.6611
2387	0.6554
2396	0.649
2405	0.6423
2414	0.6357
2423	0.6288
2432	0.6218
2441	0.6158
2450	0.611
2459	0.6072
2468	0.6055
2477	0.6057
2486	0.5764
2495	0.569
2504	0.5642
2513	0.5563
2522	0.5425
2531	0.526
2540	0.5075
2549	0.5047
2558	0.5034
2567	0.5021
2576	0.5009
2585	0.5
2594	0.4983
2603	0.4966
2612	0.4939
2621	0.4909
2630	0.4898
2639	0.4928
2648	0.4975
2657	0.5015
2666	0.5016
2675	0.4996
2684	0.495
2693	0.4861
2702	0.4736
2711	0.4616
2720	0.4523
2729	0.4451
2738	0.4393
2747	0.4337
2756	0.4261
2765	0.4115
2774	0.3977
2783	0.3986
2792	0.3992
2801	0.4055
2810	0.425
2819	0.4478
2828	0.4767
2837	0.4947
2846	0.4975
2855	0.4998
2864	0.5005
2873	0.4995
2882	0.4958
2891	0.4801
2900	0.4447
2909	0.4299
2918	0.428
2927	0.4316
2936	0.4556
2945	0.461
2954	0.4596
2963	0.4569
2972	0.4541
2981	0.4532
2990	0.4529
2999	0.4515
3008	0.4484
3017	0.4468
3026	0.4743
3035	0.5093
3044	0.5284
3053	0.541
3062	0.5434
3071	0.5456
3080	0.5756
3089	0.5826
3098	0.5861
3107	0.5877
3116	0.59
3125	0.5979
3134	0.6125
3143	0.6266
3152	0.6336
3161	0.6377
3170	0.6401
3179	0.6426
3188	0.6438
3197	0.6449
3206	0.6445
3215	0.6437
3224	0.6425
3233	0.6413
3242	0.639
3251	0.6353
3260	0.6316
3269	0.6281
3278	0.6247
3287	0.6212
3296	0.6176
3305	0.6132
3314	0.6087
3323	0.604
3332	0.5985
3341	0.5927
3350	0.5863
3359	0.5801
3368	0.5755
3377	0.5708
3386	0.5687
3395	0.5671
3404	0.5656
3413	0.5651
3422	0.5648
3431	0.5659
3440	0.5671
3449	0.5686
3458	0.5703
3467	0.572
3476	0.5739
3485	0.5758
3494	0.5778
3503	0.5797
3512	0.5823
3521	0.5851
3530	0.5879
3539	0.5907
3548	0.5938
3557	0.597
3566	0.6002
3575	0.6034
3584	0.6063
3593	0.609
3602	0.6117
3611	0.6145
3620	0.6154
3629	0.6164
3638	0.6173
3647	0.6179
3656	0.6177
3665	0.6173
3674	0.617
3683	0.6139
3692	0.6108
3701	0.608
3710	0.6053
3719	0.6026
3728	0.6017
3737	0.6011
3746	0.6005
3755	0.5999
3764	0.5988
3773	0.5976
3782	0.5964
3791	0.5952
3800	0.594
3809	0.593
3818	0.592
3827	0.591
3836	0.5901
3845	0.589
3854	0.5877
3863	0.5865
3872	0.5852
3881	0.584
3890	0.5826
3899	0.5812
3908	0.5799
3917	0.5785
3926	0.5773
3935	0.5764
3944	0.5755
3953	0.5746
3962	0.5741
3971	0.5739
3980	0.5737
3989	0.5735
3998	0.5733
