Infrared Spectrum: ETHYL LINOELAIDATE
Formula: C20 H36 O2
State: SOLUTION (9.1% CS2 FOR 5000-2380 AND 1390-625, 9.1% C2Cl4 FOR 2380-1390 CM^-^1)
Class: COBLENTZ
Instrument: PERKIN-ELMER
Sampling: TRANSMISSION
Path length: 0.01 CM, 0.01 CM
Resolution: 4
Origin: HORMEL INSTITUTE
MICROMETERS	TRANSMITTANCE
2.007	0.908
2.04082	0.908
2.07464	0.908
2.10846	0.908
2.14228	0.908
2.1761	0.91
2.20992	0.91
2.24374	0.905
2.27756	0.896
2.31138	0.883
2.3452	0.879
2.37901	0.881
2.41283	0.883
2.44665	0.89
2.48047	0.89
2.51429	0.896
2.54811	0.898
2.58193	0.9
2.61575	0.9
2.64957	0.9
2.68339	0.9
2.71721	0.901
2.75103	0.901
2.78485	0.9
2.81867	0.901
2.85249	0.898
2.88631	0.893
2.92013	0.879
2.95395	0.888
2.98777	0.888
3.02159	0.89
3.0554	0.891
3.08922	0.89
3.12304	0.884
3.15686	0.883
3.19068	0.881
3.2245	0.876
3.25832	0.862
3.29214	0.824
3.32596	0.632
3.35978	0.363
3.3936	0.155
3.42742	0.079
3.46124	0.284
3.49506	0.218
3.52888	0.389
3.5627	0.734
3.59652	0.81
3.63034	0.849
3.66416	0.857
3.69798	0.862
3.73179	0.868
3.76561	0.869
3.79943	0.871
3.83325	0.879
3.86707	0.883
3.90089	0.891
3.93471	0.893
3.96853	0.896
4.00235	0.9
4.03617	0.9
4.06999	0.9
4.10381	0.9
4.13763	0.9
4.17145	0.9
4.20527	0.901
4.23909	0.9
4.27291	0.893
4.30673	0.895
4.34055	0.893
4.37437	0.903
4.40819	0.912
4.442	0.91
4.47582	0.91
4.50964	0.91
4.54346	0.91
4.57728	0.91
4.6111	0.91
4.64492	0.908
4.67874	0.91
4.71256	0.913
4.74638	0.912
4.7802	0.91
4.81402	0.908
4.84784	0.908
4.88166	0.906
4.91548	0.903
4.9493	0.903
4.98312	0.906
5.01694	0.906
5.05076	0.905
5.08458	0.905
5.11839	0.905
5.15221	0.905
5.18603	0.905
5.21985	0.905
5.25367	0.905
5.28749	0.901
5.32131	0.9
5.35513	0.9
5.38895	0.9
5.42277	0.896
5.45659	0.893
5.49041	0.886
5.52423	0.878
5.55805	0.871
5.59187	0.859
5.62569	0.835
5.65951	0.802
5.69333	0.707
5.72715	0.252
5.76097	0.06
5.79479	0.284
5.8286	0.512
5.86242	0.685
5.89624	0.741
5.93006	0.776
5.96388	0.815
5.9977	0.827
6.03152	0.832
6.06534	0.839
6.09916	0.847
6.13298	0.852
6.1668	0.856
6.20062	0.859
6.23444	0.862
6.26826	0.866
6.30208	0.869
6.3359	0.873
6.36972	0.873
6.40354	0.873
6.43736	0.874
6.47118	0.871
6.50499	0.874
6.53881	0.874
6.57263	0.859
6.60645	0.84
6.64027	0.844
6.67409	0.854
6.70791	0.846
6.74173	0.812
6.77555	0.703
6.80937	0.521
6.84319	0.406
6.87701	0.472
6.91083	0.514
6.94465	0.51
6.97847	0.548
7.01229	0.585
7.04611	0.624
7.07993	0.715
7.11375	0.744
7.14757	0.736
7.18138	0.683
7.2152	0.671
7.24902	0.56
7.28284	0.428
7.31666	0.49
7.35048	0.619
7.3843	0.617
7.41812	0.571
7.45194	0.583
7.48576	0.617
7.51958	0.632
7.5534	0.62
7.58722	0.592
7.62104	0.568
7.65486	0.553
7.68868	0.531
7.7225	0.553
7.75632	0.58
7.79014	0.588
7.82396	0.571
7.85778	0.568
7.89159	0.558
7.92541	0.532
7.95923	0.504
7.99305	0.468
8.02687	0.438
8.06069	0.424
8.09451	0.439
8.12833	0.46
8.16215	0.477
8.19597	0.489
8.22979	0.483
8.26361	0.473
8.29743	0.451
8.33125	0.424
8.36507	0.377
8.39889	0.333
8.43271	0.284
8.46653	0.24
8.50035	0.235
8.53417	0.26
8.56798	0.289
8.6018	0.304
8.63562	0.341
8.66944	0.397
8.70326	0.456
8.73708	0.5
8.7709	0.522
8.80472	0.551
8.83854	0.573
8.87236	0.588
8.90618	0.588
8.94	0.58
8.97382	0.57
9.00764	0.57
9.04146	0.565
9.07528	0.541
9.1091	0.519
9.14292	0.509
9.17674	0.541
9.21056	0.571
9.24438	0.609
9.27819	0.642
9.31201	0.666
9.34583	0.68
9.37965	0.688
9.41347	0.688
9.44729	0.683
9.48111	0.676
9.51493	0.664
9.54875	0.637
9.58257	0.598
9.61639	0.541
9.65021	0.489
9.68403	0.487
9.71785	0.526
9.75167	0.585
9.78549	0.632
9.81931	0.673
9.85313	0.7
9.88695	0.725
9.92077	0.744
9.95458	0.751
9.9884	0.759
10.0222	0.761
10.056	0.752
10.0899	0.717
10.1237	0.68
10.1575	0.604
10.1913	0.593
10.2251	0.548
10.259	0.411
10.2928	0.291
10.3266	0.199
10.3604	0.194
10.3942	0.302
10.4281	0.49
10.4619	0.59
10.4957	0.676
10.5295	0.722
10.5633	0.742
10.5972	0.756
10.631	0.771
10.6648	0.781
10.6986	0.783
10.7324	0.795
10.7663	0.795
10.8001	0.798
10.8339	0.796
10.8677	0.8
10.9015	0.798
10.9354	0.802
10.9692	0.805
11.003	0.807
11.0368	0.81
11.0706	0.815
11.1044	0.818
11.1383	0.82
11.1721	0.822
11.2059	0.824
11.2397	0.825
11.2735	0.83
11.3074	0.832
11.3412	0.83
11.375	0.827
11.4088	0.827
11.4426	0.822
11.4765	0.817
11.5103	0.81
11.5441	0.803
11.5779	0.798
11.6117	0.79
11.6456	0.783
11.6794	0.783
11.7132	0.786
11.747	0.796
11.7808	0.808
11.8147	0.82
11.8485	0.824
11.8823	0.829
11.9161	0.837
11.9499	0.837
11.9838	0.837
12.0176	0.846
12.0514	0.846
12.0852	0.844
12.119	0.847
12.1529	0.844
12.1867	0.844
12.2205	0.846
12.2543	0.842
12.2881	0.842
12.322	0.835
12.3558	0.83
12.3896	0.825
12.4234	0.822
12.4572	0.82
12.491	0.82
12.5249	0.82
12.5587	0.818
12.5925	0.818
12.6263	0.818
12.6601	0.818
12.694	0.82
12.7278	0.815
12.7616	0.815
12.7954	0.813
12.8292	0.815
12.8631	0.817
12.8969	0.818
12.9307	0.822
12.9645	0.824
12.9983	0.824
13.0322	0.824
13.066	0.824
13.0998	0.824
13.1336	0.825
13.1674	0.825
13.2013	0.822
13.2351	0.825
13.2689	0.824
13.3027	0.824
13.3365	0.824
13.3704	0.824
13.4042	0.818
13.438	0.817
13.4718	0.812
13.5056	0.81
13.5395	0.808
13.5733	0.803
13.6071	0.793
13.6409	0.785
13.6747	0.773
13.7086	0.761
13.7424	0.744
13.7762	0.732
13.81	0.72
13.8438	0.722
13.8776	0.734
13.9115	0.754
13.9453	0.773
13.9791	0.793
14.0129	0.803
14.0467	0.817
14.0806	0.822
14.1144	0.829
14.1482	0.837
14.182	0.84
14.2158	0.846
14.2497	0.849
14.2835	0.851
14.3173	0.852
14.3511	0.852
14.3849	0.857
14.4188	0.861
14.4526	0.862
14.4864	0.864
14.5202	0.866
14.554	0.869
14.5879	0.874
14.6217	0.878
14.6555	0.878
14.6893	0.879
14.7231	0.878
14.757	0.884
14.7908	0.881
14.8246	0.883
14.8584	0.884
14.8922	0.883
14.9261	0.884
14.9599	0.874
