Infrared Spectrum: SUN YELLOW C
Formula: Ti O2
State: SOLID (0.6 mg / 300 mg CsI DISC)
Class: COBLENTZ
Instrument: Not specified, most likely a grating spectrometer.
Sampling: TRANSMISSION
Resolution: 4
Origin: DESOTO CHEMICAL COATINGS, INC.
1/CM	TRANSMITTANCE
200	0.738
210.643	0.747
221.286	0.744
231.929	0.742
242.572	0.732
253.215	0.711
263.858	0.683
274.501	0.648
285.144	0.611
295.787	0.538
306.43	0.488
317.073	0.4171
327.716	0.319
338.359	0.259
349.002	0.212
359.645	0.202
370.289	0.2419
380.932	0.25
391.575	0.208
402.218	0.182
412.861	0.182
423.504	0.208
434.147	0.243
444.79	0.261
455.433	0.264
466.076	0.253
476.719	0.239
487.362	0.222
498.005	0.195
508.648	0.17
519.291	0.144
529.934	0.138
540.577	0.131
551.22	0.13
561.863	0.128
572.506	0.13
583.149	0.126
593.792	0.13
604.435	0.131
615.078	0.122
625.721	0.113
636.364	0.109
647.007	0.109
657.65	0.101
668.293	0.099
678.936	0.102
689.579	0.121
700.222	0.139
710.866	0.158
721.509	0.187
732.152	0.219
742.795	0.288
753.438	0.3649
764.081	0.437
774.724	0.517
785.367	0.569
796.01	0.611
806.653	0.65
817.296	0.691
827.939	0.722
838.582	0.76
849.225	0.793
859.868	0.815
870.511	0.843
881.154	0.863
891.797	0.876
902.44	0.89
913.083	0.9
923.726	0.906
934.369	0.914
945.012	0.92
955.655	0.925
966.298	0.93
976.941	0.933
987.584	0.94
998.227	0.942
1008.87	0.945
1019.51	0.942
1030.16	0.937
1040.8	0.929
1051.44	0.929
1062.09	0.934
1072.73	0.94
1083.37	0.945
1094.01	0.949
1104.66	0.95
1115.3	0.957
1125.94	0.962
1136.59	0.965
1147.23	0.966
1157.87	0.973
1168.52	0.973
1179.16	0.977
1189.8	0.98
1200.44	0.982
1211.09	0.981
1221.73	0.982
1232.37	0.982
1243.02	0.981
1253.66	0.98
1264.3	0.982
1274.95	0.98
1285.59	0.982
1296.23	0.98
1306.88	0.982
1317.52	0.982
1328.16	0.984
1338.8	0.98
1349.45	0.978
1360.09	0.974
1370.73	0.972
1381.38	0.972
1392.02	0.969
1402.66	0.97
1413.31	0.969
1423.95	0.966
1434.59	0.965
1445.23	0.965
1455.88	0.965
1466.52	0.96
1477.16	0.96
1487.81	0.961
1498.45	0.961
1509.09	0.958
1519.74	0.957
1530.38	0.953
1541.02	0.946
1551.67	0.941
1562.31	0.932
1572.95	0.93
1583.59	0.925
1594.24	0.91
1604.88	0.894
1615.52	0.881
1626.17	0.88
1636.81	0.889
1647.45	0.9
1658.1	0.902
1668.74	0.909
1679.38	0.912
1690.02	0.91
1700.67	0.909
1711.31	0.906
1721.95	0.91
1732.6	0.906
1743.24	0.909
1753.88	0.904
1764.53	0.902
1775.17	0.901
1785.81	0.897
1796.45	0.896
1807.1	0.893
1817.74	0.89
1828.38	0.889
1839.03	0.884
1849.67	0.88
1860.31	0.878
1870.96	0.875
1881.6	0.871
1892.24	0.865
1902.89	0.86
1913.53	0.857
1924.17	0.853
1934.81	0.849
1945.46	0.845
1956.1	0.84
1966.74	0.84
1977.39	0.839
1988.03	0.833
1998.67	0.827
2009.32	0.822
2019.96	0.8195
2030.6	0.8125
2041.24	0.811
2051.89	0.809
2062.53	0.8035
2073.17	0.8
2083.82	0.7995
2094.46	0.794
2105.1	0.7915
2115.75	0.788
2126.39	0.783
2137.03	0.78
2147.67	0.7755
2158.32	0.7715
2168.96	0.77
2179.6	0.7675
2190.25	0.7614
2200.89	0.7595
2211.53	0.7555
2222.18	0.75
2232.82	0.748
2243.46	0.7449
2254.11	0.742
2264.75	0.739
2275.39	0.736
2286.03	0.735
2296.68	0.7329
2307.32	0.728
2317.96	0.7225
2328.61	0.72
2339.25	0.72
2349.89	0.718
2360.54	0.7154
2371.18	0.712
2381.82	0.7052
2392.46	0.698
2403.11	0.6904
2413.75	0.687
2424.39	0.6849
2435.04	0.6824
2445.68	0.679
2456.32	0.6768
2466.97	0.6704
2477.61	0.662
2488.25	0.658
2498.89	0.658
2509.54	0.651
2520.18	0.6483
2530.82	0.6424
2541.47	0.6394
2552.11	0.638
2562.75	0.6314
2573.4	0.628
2584.04	0.6238
2594.68	0.621
2605.33	0.618
2615.97	0.6174
2626.61	0.6104
2637.25	0.607
2647.9	0.6018
2658.54	0.599
2669.18	0.5934
2679.83	0.5894
2690.47	0.587
2701.11	0.5838
2711.76	0.5756
2722.4	0.571
2733.04	0.5694
2743.68	0.5638
2754.33	0.563
2764.97	0.5601
2775.61	0.5544
2786.26	0.551
2796.9	0.5504
2807.54	0.5477
2818.19	0.5431
2828.83	0.5374
2839.47	0.531
2850.11	0.5277
2860.76	0.5214
2871.4	0.5184
2882.04	0.5134
2892.69	0.513
2903.33	0.5094
2913.97	0.5024
2924.62	0.4987
2935.26	0.4947
2945.9	0.493
2956.55	0.49
2967.19	0.488
2977.83	0.4867
2988.47	0.483
2999.12	0.4803
3009.76	0.475
3020.4	0.471
3031.05	0.468
3041.69	0.4667
3052.33	0.4627
3062.98	0.458
3073.62	0.455
3084.26	0.45
3094.9	0.45
3105.55	0.448
3116.19	0.4419
3126.83	0.44
3137.48	0.4363
3148.12	0.4283
3158.76	0.428
3169.41	0.4253
3180.05	0.4203
3190.69	0.417
3201.33	0.41
3211.98	0.4083
3222.62	0.4053
3233.26	0.401
3243.91	0.3973
3254.55	0.392
3265.19	0.3869
3275.84	0.3843
3286.48	0.3786
3297.12	0.3773
3307.77	0.372
3318.41	0.3683
3329.05	0.3593
3339.69	0.3563
3350.34	0.3496
3360.98	0.3421
3371.62	0.3368
3382.27	0.3283
3392.91	0.3218
3403.55	0.3138
3414.2	0.3095
3424.84	0.3055
3435.48	0.303
3446.12	0.2975
3456.77	0.295
3467.41	0.291
3478.05	0.289
3488.7	0.2883
3499.34	0.2873
3509.98	0.288
3520.63	0.288
3531.27	0.2873
3541.91	0.287
3552.55	0.288
3563.2	0.288
3573.84	0.2888
3584.48	0.2918
3595.13	0.2958
3605.77	0.295
3616.41	0.293
3627.06	0.2935
3637.7	0.2928
3648.34	0.295
3658.99	0.293
3669.63	0.291
3680.27	0.291
3690.91	0.288
3701.56	0.2854
3712.2	0.283
3722.84	0.281
3733.49	0.28
3744.13	0.2774
3754.77	0.2762
3765.42	0.275
3776.06	0.272
3786.7	0.269
3797.34	0.2654
3807.99	0.2614
3818.63	0.26
3829.27	0.257
3839.92	0.256
3850.56	0.255
3861.2	0.252
3871.85	0.25
3882.49	0.2484
3893.13	0.2472
3903.77	0.246
3914.42	0.243
3925.06	0.24
3935.7	0.239
3946.35	0.238
3956.99	0.238
3967.63	0.236
3978.28	0.2343
3988.92	0.2302
