Infrared Spectrum: Strontium lactate
Formula: C6 H10 O6 Sr
State: SOLID (SPLIT MULL)
Class: COBLENTZ III
Instrument: BECKMAN IR-9 (GRATING)
Instrument parameters: ORDER CHANGES: 670, 1200, 2000 CM^-^1
Sampling: TRANSMISSION
Resolution: 2
Origin: DOW CHEMICAL COMPANY
1/CM	TRANSMITTANCE
3800	0.9575
3791	0.9581
3782	0.9589
3773	0.9596
3764	0.9603
3755	0.961
3746	0.9615
3737	0.9623
3728	0.963
3719	0.9624
3710	0.9615
3701	0.9597
3692	0.957
3683	0.9535
3674	0.9494
3665	0.9435
3656	0.9356
3647	0.9254
3638	0.9099
3629	0.8923
3620	0.874
3611	0.856
3602	0.8411
3593	0.8247
3584	0.8068
3575	0.7882
3566	0.7674
3557	0.745
3548	0.7214
3539	0.6886
3530	0.6506
3521	0.6167
3512	0.5818
3503	0.5505
3494	0.5471
3485	0.5439
3476	0.5303
3467	0.5162
3458	0.5037
3449	0.4891
3440	0.4733
3431	0.4565
3422	0.4406
3413	0.4256
3404	0.412
3395	0.3999
3386	0.389
3377	0.3792
3368	0.3712
3359	0.3638
3350	0.358
3341	0.3529
3332	0.3484
3323	0.3448
3314	0.3418
3305	0.3395
3296	0.3374
3287	0.3356
3278	0.3347
3269	0.3338
3260	0.3336
3251	0.3337
3242	0.3338
3233	0.3349
3224	0.3372
3215	0.34
3206	0.343
3197	0.3464
3188	0.3506
3179	0.3549
3170	0.3591
3161	0.3659
3152	0.377
3143	0.3872
3134	0.3976
3125	0.4108
3116	0.4224
3107	0.436
3098	0.4541
3089	0.4732
3080	0.4876
3071	0.5041
3062	0.5185
3053	0.5318
3044	0.546
3035	0.5559
3026	0.5555
3017	0.5454
3008	0.5096
2999	0.4715
2990	0.4699
2981	0.5204
2972	0.556
2963	0.5704
2954	0.5601
2945	0.5524
2936	0.5628
2927	0.576
2918	0.588
2909	0.5971
2900	0.6037
2891	0.61
2882	0.6159
2873	0.6232
2864	0.6319
2855	0.6434
2846	0.6575
2837	0.6772
2828	0.6939
2819	0.7031
2810	0.7121
2801	0.7197
2792	0.7272
2783	0.7335
2774	0.7367
2765	0.7375
2756	0.7405
2747	0.7471
2738	0.7551
2729	0.7628
2720	0.7708
2711	0.781
2702	0.7914
2693	0.8001
2684	0.8065
2675	0.8104
2666	0.8137
2657	0.8203
2648	0.8273
2639	0.8331
2630	0.839
2621	0.8447
2612	0.8505
2603	0.8564
2594	0.8621
2585	0.867
2576	0.8713
2567	0.8736
2558	0.8738
2549	0.8734
2540	0.8718
2531	0.8712
2522	0.8731
2513	0.8765
2504	0.8797
2495	0.8818
2486	0.8833
2477	0.8848
2468	0.8858
2459	0.8864
2450	0.8868
2441	0.8867
2432	0.8867
2423	0.8892
2414	0.8941
2405	0.8997
2396	0.9054
2387	0.907
2378	0.9061
2369	0.9053
2360	0.9059
2351	0.9039
2342	0.9021
2333	0.9031
2324	0.9054
2315	0.9077
2306	0.91
2297	0.9123
2288	0.9159
2279	0.9197
2270	0.9236
2261	0.9268
2252	0.9296
2243	0.9325
2234	0.936
2225	0.9395
2216	0.9432
2207	0.9465
2198	0.9497
2189	0.9528
2180	0.9561
2171	0.9592
2162	0.9624
2153	0.9654
2144	0.9684
2135	0.9714
2126	0.9745
2117	0.9774
2108	0.9805
2099	0.9835
2090	0.9866
2081	0.9899
2072	0.9927
2063	0.9954
2054	0.9982
2045	1.0015
2036	1.0032
2027	1.0042
2018	1.004
2009	1.0034
2000	1.0031
1991	1.0036
1982	1.0041
1973	1.004
1964	1.0038
1955	1.003
1946	1.0021
1937	1.0018
1928	1.0015
1919	1.0014
1910	1.0007
1901	0.9999
1892	0.9994
1883	0.9988
1874	0.9973
1865	0.9958
1856	0.9948
1847	0.9933
1838	0.9908
1829	0.9886
1820	0.9854
1811	0.9821
1802	0.979
1793	0.9725
1784	0.9644
1775	0.9531
1766	0.9355
1757	0.9093
1748	0.8724
1739	0.8399
1730	0.8141
1721	0.7986
1712	0.7917
1703	0.7856
1694	0.7685
1685	0.7254
1676	0.7224
1667	0.7081
1658	0.6571
1649	0.5956
1640	0.4757
1631	0.3738
1622	0.2207
1613	0.1342
1604	0.0614
1595	0.0358
1586	0.0315
1577	0.0443
1568	0.0764
1559	0.146
1550	0.2383
1541	0.3874
1532	0.53
1523	0.639
1514	0.6597
1505	0.6499
1496	0.589
1487	0.4271
1478	0.4392
1469	0.4645
1460	0.4726
1451	0.5227
1442	0.4944
1433	0.3576
1424	0.3707
1415	0.4168
1406	0.412
1397	0.4262
1388	0.4502
1379	0.4619
1370	0.4334
1361	0.4945
1352	0.5473
1343	0.5696
1334	0.5299
1325	0.4773
1316	0.4642
1307	0.5267
1298	0.582
1289	0.5639
1280	0.4631
1271	0.456
1262	0.4919
1253	0.5347
1244	0.5794
1235	0.6162
1226	0.6485
1217	0.6769
1208	0.7024
1199	0.7195
1190	0.7332
1181	0.7378
1172	0.7295
1163	0.7149
1154	0.6665
1145	0.547
1136	0.3864
1127	0.2322
1118	0.4
1109	0.5731
1100	0.5666
1091	0.5498
1082	0.6144
1073	0.6928
1064	0.7118
1055	0.5779
1046	0.5274
1037	0.5952
1028	0.7139
1019	0.7519
1010	0.7733
1001	0.7782
992	0.7775
983	0.7755
974	0.7732
965	0.7728
956	0.7704
947	0.7595
938	0.7153
929	0.7082
920	0.7471
911	0.7545
902	0.7464
893	0.7301
884	0.7139
875	0.6651
866	0.563
857	0.5677
848	0.6583
839	0.6991
830	0.7067
821	0.7085
812	0.7036
803	0.6892
794	0.6549
785	0.5947
776	0.559
767	0.6123
758	0.6273
749	0.6253
740	0.6147
731	0.5948
722	0.5676
713	0.6016
704	0.601
695	0.5899
686	0.5739
677	0.56
668	0.5587
659	0.5683
650	0.572
641	0.5745
632	0.5812
623	0.5892
614	0.5974
605	0.6071
596	0.618
587	0.6302
578	0.6378
569	0.6312
560	0.5964
551	0.5812
542	0.5874
533	0.6349
524	0.6725
515	0.6865
506	0.6935
497	0.695
488	0.6932
479	0.6856
470	0.6698
461	0.6478
452	0.6307
443	0.6036
434	0.5939
425	0.6135
416	0.6558
407	0.6976
