Infrared Spectrum: POLYTETRAMETHYLENE GLYCOL 3000
Formula: H O ( C4 H8 O)n H
State: SOLID (MINERAL OIL MULL)
Class: COBLENTZ
Instrument: Not specified, most likely a prism, grating, or hybrid spectrometer.
Sampling: TRANSMISSION
Resolution: 4
Origin: WYANDOTTE CHEMICALS CORP., WYANDOTTE, MICHIGAN, USA
MICROMETERS	TRANSMITTANCE
2.033	1.001
2.07272	1.001
2.11243	1
2.15215	0.998
2.19187	0.993
2.23158	0.923
2.2713	0.917
2.31102	0.915
2.35073	0.912
2.39045	0.907
2.43017	0.902
2.46988	0.908
2.5096	0.925
2.54931	0.938
2.58903	0.946
2.62875	0.956
2.66846	0.963
2.70818	0.95
2.7479	0.936
2.78761	0.898
2.82733	0.792
2.86705	0.669
2.90676	0.588
2.94648	0.6
2.9862	0.631
3.02591	0.709
3.06563	0.776
3.10535	0.82
3.14506	0.835
3.18478	0.827
3.2245	0.817
3.26421	0.757
3.30393	0.653
3.34365	0.338
3.38336	0.051
3.42308	0.028
3.4628	0.031
3.50251	0.036
3.54223	0.064
3.58194	0.082
3.62166	0.316
3.66138	0.363
3.70109	0.509
3.74081	0.595
3.78053	0.742
3.82024	0.747
3.85996	0.779
3.89968	0.845
3.93939	0.895
3.97911	0.927
4.01883	0.93
4.05854	0.933
4.09826	0.935
4.13798	0.933
4.17769	0.933
4.21741	0.92
4.25713	0.917
4.29684	0.932
4.33656	0.946
4.37628	0.946
4.41599	0.932
4.45571	0.932
4.49543	0.927
4.53514	0.92
4.57486	0.917
4.61457	0.922
4.65429	0.932
4.69401	0.936
4.73372	0.935
4.77344	0.878
4.81316	0.802
4.85287	0.789
4.89259	0.829
4.93231	0.887
4.97202	0.903
5.01174	0.92
5.05146	0.925
5.09117	0.932
5.13089	0.94
5.17061	0.936
5.21032	0.946
5.25004	0.946
5.28976	0.945
5.32947	0.938
5.36919	0.955
5.40891	0.96
5.44862	0.968
5.48834	0.968
5.52805	0.968
5.56777	0.968
5.60749	0.97
5.6472	0.966
5.68692	0.956
5.72664	0.948
5.76635	0.945
5.80607	0.951
5.84579	0.95
5.8855	0.948
5.92522	0.938
5.96494	0.932
6.00465	0.923
6.04437	0.915
6.08409	0.91
6.1238	0.905
6.16352	0.908
6.20324	0.912
6.24295	0.91
6.28267	0.905
6.32239	0.902
6.3621	0.897
6.40182	0.897
6.44154	0.892
6.48125	0.877
6.52097	0.86
6.56068	0.827
6.6004	0.737
6.64012	0.398
6.67983	0.082
6.71955	0.303
6.75927	0.245
6.79898	0.187
6.8387	0.207
6.87842	0.305
6.91813	0.424
6.95785	0.497
6.99757	0.621
7.03728	0.633
7.077	0.63
7.11672	0.635
7.15643	0.583
7.19615	0.401
7.23587	0.121
7.27558	0.033
7.3153	0.097
7.35502	0.257
7.39473	0.454
7.43445	0.563
7.47416	0.625
7.51388	0.681
7.5536	0.679
7.59331	0.643
7.63303	0.621
7.67275	0.59
7.71246	0.592
7.75218	0.613
7.7919	0.625
7.83161	0.61
7.87133	0.59
7.91105	0.567
7.95076	0.366
7.99048	0.139
8.0302	0.378
8.06991	0.393
8.10963	0.391
8.14935	0.459
8.18906	0.341
8.22878	0.18
8.2685	0.082
8.30821	0.258
8.34793	0.401
8.38765	0.469
8.42736	0.504
8.46708	0.514
8.50679	0.48
8.54651	0.434
8.58623	0.368
8.62594	0.301
8.66566	0.222
8.70538	0.127
8.74509	0.066
8.78481	0.038
8.82453	0.028
8.86424	0.028
8.90396	0.026
8.94368	0.023
8.98339	0.023
9.02311	0.024
9.06283	0.024
9.10254	0.026
9.14226	0.028
9.18198	0.036
9.22169	0.051
9.26141	0.071
9.30113	0.087
9.34084	0.102
9.38056	0.132
9.42028	0.145
9.45999	0.16
9.49971	0.197
9.53942	0.223
9.57914	0.238
9.61886	0.248
9.65857	0.257
9.69829	0.26
9.73801	0.262
9.77772	0.245
9.81744	0.187
9.85716	0.099
9.89687	0.069
9.93659	0.058
9.97631	0.029
10.016	0.018
10.0557	0.024
10.0955	0.063
10.1352	0.137
10.1749	0.203
10.2146	0.252
10.2543	0.29
10.294	0.326
10.3338	0.336
10.3735	0.336
10.4132	0.331
10.4529	0.321
10.4926	0.331
10.5323	0.356
10.5721	0.364
10.6118	0.378
10.6515	0.484
10.6912	0.545
10.7309	0.593
10.7706	0.623
10.8104	0.646
10.8501	0.671
10.8898	0.698
10.9295	0.711
10.9692	0.733
11.0089	0.742
11.0487	0.744
11.0884	0.749
11.1281	0.759
11.1678	0.766
11.2075	0.766
11.2472	0.771
11.287	0.779
11.3267	0.794
11.3664	0.797
11.4061	0.799
11.4458	0.804
11.4855	0.807
11.5253	0.809
11.565	0.809
11.6047	0.81
11.6444	0.812
11.6841	0.817
11.7238	0.819
11.7636	0.819
11.8033	0.819
11.843	0.82
11.8827	0.82
11.9224	0.82
11.9621	0.819
12.0018	0.815
12.0416	0.814
12.0813	0.815
12.121	0.82
12.1607	0.822
12.2004	0.822
12.2401	0.82
12.2799	0.825
12.3196	0.825
12.3593	0.835
12.399	0.844
12.4387	0.847
12.4784	0.854
12.5182	0.862
12.5579	0.87
12.5976	0.877
12.6373	0.882
12.677	0.883
12.7167	0.885
12.7565	0.887
12.7962	0.888
12.8359	0.883
12.8756	0.873
12.9153	0.87
12.955	0.862
12.9948	0.857
13.0345	0.852
13.0742	0.847
13.1139	0.839
13.1536	0.825
13.1933	0.805
13.2331	0.767
13.2728	0.716
13.3125	0.635
13.3522	0.5
13.3919	0.333
13.4316	0.278
13.4714	0.451
13.5111	0.605
13.5508	0.704
13.5905	0.757
13.6302	0.784
13.6699	0.807
13.7097	0.817
13.7494	0.832
13.7891	0.835
13.8288	0.837
13.8685	0.84
13.9082	0.85
13.948	0.859
13.9877	0.868
14.0274	0.88
14.0671	0.887
14.1068	0.893
14.1465	0.895
14.1863	0.897
14.226	0.897
14.2657	0.898
14.3054	0.898
14.3451	0.898
14.3848	0.895
14.4246	0.893
14.4643	0.893
14.504	0.895
14.5437	0.892
14.5834	0.888
14.6231	0.888
14.6629	0.887
14.7026	0.882
14.7423	0.88
14.782	0.877
14.8217	0.87
14.8614	0.868
14.9012	0.875
14.9409	0.867
14.9806	0.859
15.0203	0.832
15.06	0.822
15.0997	0.834
15.1395	0.844
15.1792	0.849
15.2189	0.85
15.2586	0.834
15.2983	0.829
15.338	0.822
15.3778	0.819
15.4175	0.817
15.4572	0.819
15.4969	0.804
15.5366	0.791
15.5763	0.786
15.6161	0.787
15.6558	0.784
15.6955	0.772
15.7352	0.774
15.7749	0.759
15.8146	0.754
15.8544	0.747
15.8941	0.737
15.9338	0.733
15.9735	0.728
