Infrared Spectrum: PROCHLORPERAZINE DIMALEATE
Formula: C28 H32 Cl N3 O8 S
State: SOLID (0.99 mg / 200 mg KBr DISC)
Class: COBLENTZ III
Instrument: PERKIN-ELMER 21 (GRATING)
Instrument parameters: NaCl PRISM
Sampling: TRANSMISSION
Resolution: 2
MICROMETERS	TRANSMITTANCE
2.008	0.812
2.0418	0.816
2.07561	0.82
2.10941	0.829
2.14321	0.834
2.17702	0.839
2.21082	0.842
2.24462	0.843
2.27843	0.839
2.31223	0.844
2.34603	0.85
2.37984	0.856
2.41364	0.86
2.44744	0.866
2.48125	0.87
2.51505	0.877
2.54885	0.881
2.58266	0.882
2.61646	0.882
2.65026	0.891
2.68407	0.894
2.71787	0.897
2.75167	0.898
2.78548	0.905
2.81928	0.918
2.85308	0.926
2.88689	0.93
2.92069	0.926
2.95449	0.916
2.9883	0.904
3.0221	0.894
3.0559	0.888
3.08971	0.888
3.12351	0.877
3.15731	0.856
3.19112	0.83
3.22492	0.794
3.25872	0.753
3.29253	0.72
3.32633	0.748
3.36013	0.744
3.39394	0.778
3.42774	0.798
3.46154	0.779
3.49534	0.792
3.52915	0.799
3.56295	0.792
3.59675	0.778
3.63056	0.754
3.66436	0.737
3.69816	0.733
3.73197	0.722
3.76577	0.7
3.79957	0.678
3.83338	0.66
3.86718	0.653
3.90098	0.65
3.93479	0.641
3.96859	0.624
4.00239	0.603
4.0362	0.59
4.07	0.576
4.1038	0.568
4.13761	0.562
4.17141	0.558
4.20521	0.571
4.23902	0.572
4.27282	0.565
4.30662	0.555
4.34043	0.548
4.37423	0.547
4.40803	0.552
4.44184	0.564
4.47564	0.571
4.50944	0.576
4.54325	0.569
4.57705	0.578
4.61085	0.588
4.64466	0.598
4.67846	0.612
4.71226	0.619
4.74607	0.634
4.77987	0.643
4.81367	0.653
4.84748	0.654
4.88128	0.653
4.91508	0.651
4.94889	0.648
4.98269	0.645
5.01649	0.66
5.0503	0.669
5.0841	0.674
5.1179	0.674
5.15171	0.677
5.18551	0.678
5.21931	0.679
5.25312	0.686
5.28692	0.713
5.32072	0.724
5.35453	0.744
5.38833	0.757
5.42213	0.767
5.45594	0.765
5.48974	0.775
5.52354	0.782
5.55735	0.787
5.59115	0.795
5.62495	0.802
5.65876	0.816
5.69256	0.816
5.72636	0.791
5.76017	0.686
5.79397	0.545
5.82777	0.461
5.86158	0.407
5.89538	0.495
5.92918	0.596
5.96299	0.667
5.99679	0.682
6.03059	0.662
6.0644	0.609
6.0982	0.389
6.132	0.244
6.16581	0.348
6.19961	0.437
6.23341	0.351
6.26722	0.32
6.30102	0.236
6.33482	0.179
6.36863	0.187
6.40243	0.211
6.43623	0.211
6.47003	0.194
6.50384	0.201
6.53764	0.211
6.57144	0.203
6.60525	0.17
6.63905	0.139
6.67285	0.104
6.70666	0.088
6.74046	0.069
6.77426	0.087
6.80807	0.066
6.84187	0.062
6.87567	0.111
6.90948	0.122
6.94328	0.224
6.97708	0.26
7.01089	0.332
7.04469	0.324
7.07849	0.342
7.1123	0.331
7.1461	0.33
7.1799	0.409
7.21371	0.396
7.24751	0.349
7.28131	0.334
7.31512	0.169
7.34892	0.084
7.38272	0.174
7.41653	0.386
7.45033	0.447
7.48413	0.504
7.51794	0.452
7.55174	0.399
7.58554	0.41
7.61935	0.454
7.65315	0.428
7.68695	0.396
7.72076	0.369
7.75456	0.369
7.78836	0.338
7.82217	0.394
7.85597	0.452
7.88977	0.438
7.92358	0.404
7.95738	0.344
7.99118	0.317
8.02499	0.321
8.05879	0.328
8.09259	0.332
8.1264	0.315
8.1602	0.279
8.194	0.265
8.22781	0.324
8.26161	0.372
8.29541	0.392
8.32922	0.401
8.36302	0.409
8.39682	0.411
8.43063	0.404
8.46443	0.4
8.49823	0.418
8.53204	0.434
8.56584	0.44
8.59964	0.445
8.63345	0.455
8.66725	0.462
8.70105	0.459
8.73486	0.428
8.76866	0.403
8.80246	0.368
8.83627	0.337
8.87007	0.358
8.90387	0.404
8.93768	0.379
8.97148	0.365
9.00528	0.359
9.03909	0.366
9.07289	0.363
9.10669	0.354
9.1405	0.344
9.1743	0.338
9.2081	0.348
9.24191	0.362
9.27571	0.361
9.30951	0.352
9.34332	0.348
9.37712	0.38
9.41092	0.409
9.44472	0.43
9.47853	0.458
9.51233	0.483
9.54613	0.502
9.57994	0.519
9.61374	0.496
9.64754	0.516
9.68135	0.562
9.71515	0.576
9.74895	0.554
9.78276	0.558
9.81656	0.61
9.85036	0.634
9.88417	0.651
9.91797	0.655
9.95177	0.667
9.98558	0.671
10.0194	0.686
10.0532	0.695
10.087	0.695
10.1208	0.688
10.1546	0.654
10.1884	0.617
10.2222	0.619
10.256	0.634
10.2898	0.605
10.3236	0.595
10.3574	0.636
10.3912	0.665
10.425	0.674
10.4588	0.664
10.4926	0.647
10.5264	0.612
10.5602	0.531
10.594	0.489
10.6278	0.526
10.6616	0.616
10.6954	0.655
10.7293	0.672
10.7631	0.674
10.7969	0.669
10.8307	0.643
10.8645	0.64
10.8983	0.643
10.9321	0.651
10.9659	0.684
10.9997	0.703
11.0335	0.723
11.0673	0.722
11.1011	0.734
11.1349	0.755
11.1687	0.777
11.2025	0.778
11.2363	0.77
11.2701	0.743
11.3039	0.679
11.3377	0.602
11.3715	0.51
11.4053	0.476
11.4391	0.499
11.4729	0.483
11.5067	0.334
11.5405	0.194
11.5743	0.363
11.6081	0.516
11.6419	0.54
11.6757	0.544
11.7095	0.61
11.7433	0.661
11.7772	0.72
11.811	0.747
11.8448	0.757
11.8786	0.758
11.9124	0.713
11.9462	0.623
11.98	0.658
12.0138	0.722
12.0476	0.792
12.0814	0.792
12.1152	0.798
12.149	0.813
12.1828	0.823
12.2166	0.829
12.2504	0.827
12.2842	0.82
12.318	0.787
12.3518	0.779
12.3856	0.77
12.4194	0.76
12.4532	0.708
12.487	0.617
12.5208	0.638
12.5546	0.679
12.5884	0.748
12.6222	0.794
12.656	0.791
12.6898	0.73
12.7236	0.688
12.7574	0.682
12.7913	0.662
12.8251	0.629
12.8589	0.622
12.8927	0.629
12.9265	0.675
12.9603	0.706
12.9941	0.729
13.0279	0.74
13.0617	0.74
13.0955	0.737
13.1293	0.719
13.1631	0.651
13.1969	0.569
13.2307	0.548
13.2645	0.59
13.2983	0.638
13.3321	0.641
13.3659	0.59
13.3997	0.544
13.4335	0.602
13.4673	0.688
13.5011	0.748
13.5349	0.774
13.5687	0.778
13.6025	0.763
13.6363	0.748
13.6701	0.743
13.7039	0.767
13.7377	0.806
13.7715	0.816
13.8054	0.815
13.8392	0.84
13.873	0.849
13.9068	0.851
13.9406	0.856
13.9744	0.858
14.0082	0.858
14.042	0.866
14.0758	0.866
14.1096	0.868
14.1434	0.875
14.1772	0.88
14.211	0.88
14.2448	0.877
14.2786	0.873
14.3124	0.871
14.3462	0.871
14.38	0.87
14.4138	0.87
14.4476	0.871
14.4814	0.87
14.5152	0.86
14.549	0.858
14.5828	0.849
14.6166	0.837
14.6504	0.826
14.6842	0.808
14.718	0.784
14.7518	0.76
14.7856	0.753
14.8194	0.743
14.8533	0.719
14.8871	0.705
14.9209	0.692
14.9547	0.682
14.9885	0.665
15.0223	0.613
15.0561	0.599
15.0899	0.576
15.1237	0.562
15.1575	0.548
15.1913	0.534
15.2251	0.523
15.2589	0.523
15.2927	0.527
15.3265	0.533
