Infrared Spectrum: HYDRAZINE SULFATE
Formula: H6 N2 O4 S
State: SOLID (MINERAL OIL MULL)
Class: COBLENTZ
Instrument: Not specified, most likely a prism, grating, or hybrid spectrometer.
Sampling: TRANSMISSION
Resolution: 4
Origin: WYANDOTTE CHEMICALS CORP., WYANDOTTE, MICHIGAN, USA
MICROMETERS	TRANSMITTANCE
2.043	0.9
2.08288	0.901
2.12276	0.9
2.16264	0.901
2.20252	0.903
2.2424	0.905
2.28228	0.906
2.32216	0.91
2.36204	0.916
2.40192	0.926
2.4418	0.938
2.48168	0.951
2.52156	0.968
2.56144	0.981
2.60132	0.995
2.6412	0.995
2.68108	0.998
2.72096	1.003
2.76084	1.001
2.80072	0.995
2.8406	0.99
2.88048	0.973
2.92036	0.948
2.96024	0.923
3.00012	0.895
3.04	0.762
3.07988	0.62
3.11976	0.499
3.15964	0.359
3.19952	0.304
3.2394	0.271
3.27928	0.251
3.31916	0.217
3.35904	0.073
3.39892	0.026
3.4388	0.024
3.47868	0.031
3.51856	0.031
3.55844	0.144
3.59832	0.214
3.6382	0.236
3.67808	0.246
3.71796	0.241
3.75784	0.241
3.79772	0.236
3.8376	0.234
3.87748	0.234
3.91736	0.239
3.95724	0.232
3.99712	0.247
4.037	0.254
4.07688	0.267
4.11676	0.281
4.15664	0.292
4.19652	0.304
4.2364	0.324
4.27628	0.342
4.31616	0.347
4.35604	0.367
4.39592	0.397
4.4358	0.427
4.47568	0.452
4.51556	0.462
4.55544	0.477
4.59532	0.502
4.6352	0.522
4.67508	0.535
4.71496	0.539
4.75484	0.537
4.79472	0.532
4.8346	0.53
4.87448	0.537
4.91436	0.539
4.95424	0.552
4.99412	0.577
5.034	0.607
5.07388	0.622
5.11376	0.632
5.15364	0.655
5.19352	0.682
5.2334	0.693
5.27328	0.722
5.31316	0.73
5.35304	0.73
5.39292	0.725
5.4328	0.725
5.47268	0.728
5.51256	0.745
5.55244	0.762
5.59232	0.763
5.6322	0.778
5.67208	0.782
5.71196	0.788
5.75184	0.787
5.79172	0.792
5.8316	0.785
5.87148	0.782
5.91136	0.773
5.95124	0.772
5.99112	0.757
6.031	0.733
6.07088	0.67
6.11076	0.605
6.15064	0.575
6.19052	0.552
6.2304	0.545
6.27028	0.51
6.31016	0.459
6.35004	0.427
6.38992	0.41
6.4298	0.379
6.46968	0.374
6.50956	0.341
6.54944	0.324
6.58932	0.317
6.6292	0.331
6.66908	0.374
6.70896	0.412
6.74884	0.379
6.78872	0.201
6.8286	0.211
6.86848	0.282
6.90836	0.422
6.94824	0.607
6.98812	0.707
7.028	0.753
7.06788	0.778
7.10776	0.785
7.14764	0.773
7.18752	0.652
7.2274	0.46
7.26728	0.462
7.30716	0.59
7.34704	0.702
7.38692	0.72
7.4268	0.727
7.46668	0.732
7.50656	0.743
7.54644	0.748
7.58632	0.742
7.6262	0.73
7.66608	0.722
7.70596	0.72
7.74584	0.715
7.78572	0.7
7.8256	0.685
7.86548	0.668
7.90536	0.652
7.94524	0.632
7.98512	0.61
8.025	0.585
8.06488	0.569
8.10476	0.54
8.14464	0.519
8.18452	0.487
8.2244	0.452
8.26428	0.419
8.30416	0.371
8.34404	0.327
8.38392	0.282
8.4238	0.247
8.46368	0.212
8.50356	0.194
8.54344	0.174
8.58332	0.164
8.6232	0.151
8.66308	0.143
8.70296	0.143
8.74284	0.143
8.78272	0.149
8.8226	0.159
8.86248	0.163
8.90236	0.168
8.94224	0.169
8.98212	0.169
9.022	0.158
9.06188	0.148
9.10176	0.148
9.14164	0.134
9.18152	0.124
9.2214	0.121
9.26128	0.111
9.30116	0.103
9.34104	0.103
9.38092	0.093
9.4208	0.088
9.46068	0.088
9.50056	0.088
9.54044	0.091
9.58032	0.083
9.6202	0.083
9.66008	0.083
9.69996	0.078
9.73984	0.078
9.77972	0.074
9.8196	0.076
9.85948	0.073
9.89936	0.074
9.93924	0.086
9.97912	0.084
10.019	0.101
10.0589	0.111
10.0988	0.124
10.1386	0.141
10.1785	0.164
10.2184	0.183
10.2583	0.202
10.2982	0.179
10.338	0.144
10.3779	0.144
10.4178	0.154
10.4577	0.181
10.4976	0.191
10.5374	0.212
10.5773	0.229
10.6172	0.242
10.6571	0.259
10.697	0.269
10.7368	0.294
10.7767	0.307
10.8166	0.327
10.8565	0.341
10.8964	0.352
10.9362	0.381
10.9761	0.391
11.016	0.409
11.0559	0.417
11.0958	0.435
11.1356	0.452
11.1755	0.464
11.2154	0.474
11.2553	0.487
11.2952	0.499
11.335	0.514
11.3749	0.522
11.4148	0.539
11.4547	0.545
11.4946	0.559
11.5344	0.564
11.5743	0.575
11.6142	0.587
11.6541	0.592
11.694	0.6
11.7338	0.603
11.7737	0.613
11.8136	0.623
11.8535	0.63
11.8934	0.637
11.9332	0.643
11.9731	0.658
12.013	0.668
12.0529	0.673
12.0928	0.682
12.1326	0.685
12.1725	0.692
12.2124	0.698
12.2523	0.713
12.2922	0.717
12.332	0.722
12.3719	0.732
12.4118	0.735
12.4517	0.742
12.4916	0.748
12.5314	0.747
12.5713	0.752
12.6112	0.76
12.6511	0.763
12.691	0.77
12.7308	0.775
12.7707	0.778
12.8106	0.78
12.8505	0.783
12.8904	0.785
12.9302	0.788
12.9701	0.793
13.01	0.798
13.0499	0.801
13.0898	0.803
13.1296	0.811
13.1695	0.815
13.2094	0.815
13.2493	0.818
13.2892	0.818
13.329	0.821
13.3689	0.825
13.4088	0.82
13.4487	0.813
13.4886	0.818
13.5284	0.818
13.5683	0.81
13.6082	0.816
13.6481	0.813
13.688	0.815
13.7278	0.818
13.7677	0.82
13.8076	0.816
13.8475	0.818
13.8874	0.813
13.9272	0.83
13.9671	0.84
14.007	0.853
14.0469	0.865
14.0868	0.873
14.1266	0.883
14.1665	0.885
14.2064	0.893
14.2463	0.891
14.2862	0.9
14.326	0.898
14.3659	0.903
14.4058	0.903
14.4457	0.9
14.4856	0.9
14.5254	0.9
14.5653	0.893
14.6052	0.895
14.6451	0.893
14.685	0.886
14.7248	0.89
14.7647	0.881
14.8046	0.875
14.8445	0.865
14.8844	0.861
14.9242	0.851
14.9641	0.843
15.004	0.803
15.0439	0.753
15.0838	0.74
15.1236	0.745
15.1635	0.758
15.2034	0.76
15.2433	0.755
15.2832	0.743
15.323	0.72
15.3629	0.693
15.4028	0.672
15.4427	0.63
15.4826	0.587
15.5224	0.554
15.5623	0.522
15.6022	0.502
15.6421	0.485
15.682	0.474
15.7218	0.472
15.7617	0.469
15.8016	0.467
15.8415	0.469
15.8814	0.485
15.9212	0.485
15.9611	0.484
16.001	0.485
