Infrared Spectrum: ACETIC ACID, SODIUM SALT
Formula: C2 H3 Na O2
State: SOLID (SPLIT MULL)
Class: COBLENTZ III
Instrument: DOW KBr FOREPRISM-GRATING
Instrument parameters: BLAZED AT 3.5, 12.0, 20.0 MICRON AND CHANGED AT 5.0, 7.5, 14.9 MICRON
Sampling: TRANSMISSION
Resolution: 2
Origin: DOW CHEMICAL COMPANY
1/CM	TRANSMITTANCE
3800	0.8939
3791	0.8934
3782	0.8928
3773	0.8927
3764	0.8928
3755	0.8928
3746	0.8931
3737	0.8933
3728	0.8935
3719	0.8937
3710	0.8924
3701	0.8892
3692	0.8842
3683	0.8848
3674	0.8884
3665	0.8849
3656	0.8821
3647	0.8798
3638	0.8795
3629	0.8757
3620	0.874
3611	0.8721
3602	0.8706
3593	0.8692
3584	0.868
3575	0.8652
3566	0.8621
3557	0.8587
3548	0.8549
3539	0.8507
3530	0.8449
3521	0.839
3512	0.8325
3503	0.826
3494	0.8206
3485	0.8157
3476	0.8118
3467	0.8078
3458	0.8043
3449	0.8018
3440	0.7993
3431	0.7967
3422	0.7995
3413	0.8037
3404	0.8074
3395	0.8097
3386	0.8121
3377	0.8148
3368	0.8175
3359	0.8202
3350	0.8228
3341	0.8252
3332	0.8268
3323	0.8277
3314	0.827
3305	0.8247
3296	0.8214
3287	0.8194
3278	0.82
3269	0.8228
3260	0.8251
3251	0.8267
3242	0.8283
3233	0.8301
3224	0.832
3215	0.8328
3206	0.833
3197	0.8328
3188	0.8324
3179	0.8313
3170	0.8299
3161	0.8298
3152	0.8313
3143	0.8355
3134	0.8393
3125	0.8406
3116	0.8416
3107	0.8424
3098	0.8425
3089	0.8423
3080	0.8412
3071	0.8392
3062	0.8368
3053	0.8328
3044	0.8252
3035	0.8111
3026	0.7955
3017	0.7774
3008	0.7574
2999	0.7549
2990	0.7558
2981	0.761
2972	0.7691
2963	0.779
2954	0.7931
2945	0.8103
2936	0.8061
2927	0.8072
2918	0.8232
2909	0.8373
2900	0.8468
2891	0.8507
2882	0.8518
2873	0.8518
2864	0.8518
2855	0.8518
2846	0.8531
2837	0.8565
2828	0.8595
2819	0.8609
2810	0.8624
2801	0.8638
2792	0.8649
2783	0.866
2774	0.867
2765	0.8674
2756	0.8678
2747	0.8668
2738	0.8663
2729	0.8662
2720	0.8662
2711	0.8666
2702	0.867
2693	0.8673
2684	0.868
2675	0.8686
2666	0.8694
2657	0.8701
2648	0.8704
2639	0.8706
2630	0.8709
2621	0.8711
2612	0.8713
2603	0.8717
2594	0.8721
2585	0.872
2576	0.8716
2567	0.8711
2558	0.8702
2549	0.8686
2540	0.8667
2531	0.8648
2522	0.862
2513	0.8593
2504	0.8575
2495	0.857
2486	0.8585
2477	0.8587
2468	0.8583
2459	0.8575
2450	0.8568
2441	0.8559
2432	0.8552
2423	0.8544
2414	0.8539
2405	0.8538
2396	0.8538
2387	0.8533
2378	0.8528
2369	0.8523
2360	0.8518
2351	0.8499
2342	0.8455
2333	0.8412
2324	0.8428
2315	0.8431
2306	0.8434
2297	0.8433
2288	0.8431
2279	0.8432
2270	0.844
2261	0.8451
2252	0.8465
2243	0.8478
2234	0.8491
2225	0.85
2216	0.8509
2207	0.852
2198	0.8532
2189	0.8543
2180	0.855
2171	0.8554
2162	0.8551
2153	0.8548
2144	0.8546
2135	0.8551
2126	0.8557
2117	0.8563
2108	0.857
2099	0.8581
2090	0.8592
2081	0.8603
2072	0.8609
2063	0.8611
2054	0.8618
2045	0.8628
2036	0.8625
2027	0.8621
2018	0.8612
2009	0.8596
2000	0.8584
1991	0.8615
1982	0.8639
1973	0.8647
1964	0.8652
1955	0.8623
1946	0.8598
1937	0.858
1928	0.8594
1919	0.8606
1910	0.8591
1901	0.8577
1892	0.8571
1883	0.8581
1874	0.8583
1865	0.8564
1856	0.8561
1847	0.8567
1838	0.8561
1829	0.8552
1820	0.8546
1811	0.854
1802	0.8535
1793	0.8512
1784	0.85
1775	0.8477
1766	0.8443
1757	0.8416
1748	0.8366
1739	0.8331
1730	0.8312
1721	0.8184
1712	0.8115
1703	0.8054
1694	0.8001
1685	0.7928
1676	0.7837
1667	0.7724
1658	0.7534
1649	0.7167
1640	0.6624
1631	0.6097
1622	0.5432
1613	0.3955
1604	0.2464
1595	0.1266
1586	0.0587
1577	0.0643
1568	0.0719
1559	0.1289
1550	0.2006
1541	0.3943
1532	0.4689
1523	0.5289
1514	0.5791
1505	0.6129
1496	0.6301
1487	0.6401
1478	0.6444
1469	0.636
1460	0.5617
1451	0.3392
1442	0.3047
1433	0.3991
1424	0.4916
1415	0.5285
1406	0.5729
1397	0.6323
1388	0.6574
1379	0.6791
1370	0.7167
1361	0.7315
1352	0.721
1343	0.7121
1334	0.7207
1325	0.7432
1316	0.7526
1307	0.7539
1298	0.7635
1289	0.78
1280	0.7922
1271	0.801
1262	0.8095
1253	0.8169
1244	0.8262
1235	0.839
1226	0.8481
1217	0.8528
1208	0.8543
1199	0.8578
1190	0.8599
1181	0.8531
1172	0.8499
1163	0.85
1154	0.8495
1145	0.8521
1136	0.8595
1127	0.8661
1118	0.8658
1109	0.8668
1100	0.8601
1091	0.8524
1082	0.8423
1073	0.8251
1064	0.8003
1055	0.713
1046	0.6768
1037	0.7705
1028	0.7861
1019	0.7196
1010	0.6451
1001	0.7392
992	0.8117
983	0.831
974	0.8368
965	0.8454
956	0.8514
947	0.8568
938	0.8566
929	0.8409
920	0.8061
911	0.8578
902	0.8587
893	0.8512
884	0.8566
875	0.8594
866	0.8561
857	0.8513
848	0.84
839	0.832
830	0.8227
821	0.8094
812	0.7969
803	0.7964
794	0.8018
785	0.8075
776	0.8104
767	0.8096
758	0.8099
749	0.8058
740	0.7908
731	0.7593
722	0.7115
713	0.7908
704	0.821
695	0.8277
686	0.8218
677	0.8125
668	0.7994
659	0.7582
650	0.6022
641	0.6994
632	0.6746
623	0.4656
614	0.7376
605	0.7793
596	0.7871
587	0.7858
578	0.779
569	0.7644
560	0.7507
551	0.7349
542	0.7196
533	0.7089
524	0.7072
515	0.7224
506	0.7351
497	0.745
488	0.7505
479	0.7476
470	0.7322
461	0.7198
