Infrared Spectrum: O-PHTHALALDEHYDE 2,4-DINITROPHENYL HYDRAZONE
Formula: C20 H14 N8 O8
State: SOLID (MINERAL OIL MULL)
Class: COBLENTZ
Instrument: PERKIN-ELMER
Sampling: TRANSMISSION
Resolution: 4
Origin: STANDARD OIL OF OHIO
MICROMETERS	TRANSMITTANCE
2.027	0.803
2.06091	0.815
2.09482	0.827
2.12872	0.843
2.16263	0.853
2.19654	0.858
2.23045	0.877
2.26436	0.877
2.29827	0.861
2.33217	0.861
2.36608	0.87
2.39999	0.89
2.4339	0.899
2.46781	0.911
2.50172	0.933
2.53562	0.948
2.56953	0.952
2.60344	0.964
2.63735	0.97
2.67126	0.982
2.70517	0.981
2.73907	0.977
2.77298	0.981
2.80689	0.993
2.8408	1
2.87471	1
2.90862	1
2.94252	0.994
2.97643	0.974
3.01034	0.447
3.04425	0.544
3.07816	0.909
3.11207	0.938
3.14597	0.93
3.17988	0.808
3.21379	0.699
3.2477	0.813
3.28161	0.82
3.31552	0.677
3.34942	0.119
3.38333	0.03
3.41724	0.015
3.45115	0.032
3.48506	0.042
3.51897	0.477
3.55287	0.725
3.58678	0.846
3.62069	0.883
3.6546	0.892
3.68851	0.907
3.72242	0.916
3.75632	0.919
3.79023	0.921
3.82414	0.938
3.85805	0.97
3.89196	0.988
3.92587	1
3.95977	1.018
3.99368	1.03
4.02759	1.03
4.0615	1.022
4.09541	1.008
4.12932	1.005
4.16322	1.025
4.19713	1.029
4.23104	1.03
4.26495	1.03
4.29886	1.03
4.33277	1.03
4.36667	1.03
4.40058	1.03
4.43449	1.03
4.4684	1.03
4.50231	1.03
4.53622	1.03
4.57012	1.03
4.60403	1.029
4.63794	1.029
4.67185	1.029
4.70576	1.029
4.73967	1.029
4.77357	1.029
4.80748	1.029
4.84139	1.029
4.8753	1.029
4.90921	1.029
4.94312	1.029
4.97702	1.03
5.01093	1.03
5.04484	1.03
5.07875	1.03
5.11266	1.032
5.14657	1.032
5.18047	1.032
5.21438	1.032
5.24829	1.032
5.2822	1.032
5.31611	1.032
5.35002	1.032
5.38392	1.032
5.41783	1.032
5.45174	1.032
5.48565	1.032
5.51956	1.032
5.55347	1.032
5.58737	1.032
5.62128	1.032
5.65519	1.032
5.6891	1.03
5.72301	1.03
5.75692	1.029
5.79082	1.018
5.82473	0.947
5.85864	0.844
5.89255	0.72
5.92646	0.711
5.96037	0.819
5.99427	0.853
6.02818	0.837
6.06209	0.754
6.096	0.46
6.12991	0.114
6.16382	0.018
6.19772	0.018
6.23163	0.032
6.26554	0.032
6.29945	0.042
6.33336	0.201
6.36727	0.469
6.40117	0.54
6.43508	0.537
6.46899	0.431
6.5029	0.331
6.53681	0.216
6.57072	0.051
6.60462	0.023
6.63853	0.023
6.67244	0.105
6.70635	0.249
6.74026	0.291
6.77417	0.293
6.80807	0.191
6.84198	0.153
6.87589	0.165
6.9098	0.182
6.94371	0.174
6.97762	0.151
7.01152	0.141
7.04543	0.225
7.07934	0.532
7.11325	0.687
7.14716	0.728
7.18107	0.672
7.21497	0.443
7.24888	0.281
7.28279	0.336
7.3167	0.358
7.35061	0.291
7.38452	0.136
7.41842	0.023
7.45233	0.01
7.48624	0.006
7.52015	0.008
7.55406	0.013
7.58797	0.039
7.62187	0.023
7.65578	0.051
7.68969	0.129
7.7236	0.15
7.75751	0.138
7.79142	0.124
7.82532	0.119
7.85923	0.112
7.89314	0.112
7.92705	0.221
7.96096	0.401
7.99487	0.534
8.02877	0.639
8.06268	0.658
8.09659	0.595
8.1305	0.406
8.16441	0.279
8.19832	0.302
8.23222	0.399
8.26613	0.505
8.30004	0.539
8.33395	0.535
8.36786	0.559
8.40177	0.629
8.43567	0.682
8.46958	0.754
8.50349	0.784
8.5374	0.788
8.57131	0.769
8.60522	0.75
8.63912	0.74
8.67303	0.518
8.70694	0.295
8.74085	0.095
8.77476	0.044
8.80867	0.056
8.84257	0.141
8.87648	0.221
8.91039	0.25
8.9443	0.216
8.97821	0.175
9.01212	0.262
9.04602	0.399
9.07993	0.503
9.11384	0.517
9.14775	0.465
9.18166	0.387
9.21557	0.327
9.24947	0.273
9.28338	0.221
9.31729	0.209
9.3512	0.358
9.38511	0.556
9.41902	0.501
9.45292	0.423
9.48683	0.431
9.52074	0.581
9.55465	0.663
9.58856	0.73
9.62247	0.778
9.65637	0.81
9.69028	0.831
9.72419	0.861
9.7581	0.887
9.79201	0.909
9.82592	0.919
9.85982	0.931
9.89373	0.938
9.92764	0.947
9.96155	0.947
9.99546	0.945
10.0294	0.943
10.0633	0.941
10.0972	0.94
10.1311	0.93
10.165	0.919
10.1989	0.902
10.2328	0.872
10.2667	0.837
10.3006	0.822
10.3345	0.824
10.3684	0.849
10.4024	0.887
10.4363	0.909
10.4702	0.911
10.5041	0.907
10.538	0.89
10.5719	0.853
10.6058	0.802
10.6397	0.733
10.6736	0.655
10.7075	0.587
10.7414	0.527
10.7753	0.501
10.8093	0.566
10.8432	0.619
10.8771	0.619
10.911	0.6
10.9449	0.619
10.9788	0.706
11.0127	0.791
11.0466	0.829
11.0805	0.853
11.1144	0.854
11.1483	0.854
11.1822	0.861
11.2162	0.87
11.2501	0.894
11.284	0.921
11.3179	0.936
11.3518	0.95
11.3857	0.96
11.4196	0.972
11.4535	0.986
11.4874	0.994
11.5213	1.001
11.5552	1.006
11.5891	1.006
11.6231	1.001
11.657	0.982
11.6909	0.947
11.7248	0.87
11.7587	0.813
11.7926	0.755
11.8265	0.663
11.8604	0.602
11.8943	0.547
11.9282	0.459
11.9621	0.361
11.996	0.365
12.03	0.525
12.0639	0.655
12.0978	0.745
12.1317	0.812
12.1656	0.863
12.1995	0.906
12.2334	0.952
12.2673	0.976
12.3012	0.986
12.3351	0.981
12.369	0.972
12.4029	0.967
12.4369	0.962
12.4708	0.962
12.5047	0.972
12.5386	0.988
12.5725	0.998
12.6064	1
12.6403	1
12.6742	0.991
12.7081	0.969
12.742	0.938
12.7759	0.885
12.8098	0.825
12.8438	0.761
12.8777	0.68
12.9116	0.61
12.9455	0.559
12.9794	0.513
13.0133	0.486
13.0472	0.464
13.0811	0.46
13.115	0.482
13.1489	0.588
13.1828	0.674
13.2167	0.742
13.2507	0.79
13.2846	0.808
13.3185	0.795
13.3524	0.691
13.3863	0.455
13.4202	0.271
13.4541	0.242
13.488	0.259
13.5219	0.464
13.5558	0.583
13.5897	0.701
13.6236	0.738
13.6576	0.75
13.6915	0.701
13.7254	0.612
13.7593	0.518
13.7932	0.477
13.8271	0.491
13.861	0.537
13.8949	0.551
13.9288	0.569
13.9627	0.621
13.9966	0.709
14.0305	0.813
14.0645	0.851
14.0984	0.873
14.1323	0.889
14.1662	0.902
14.2001	0.912
14.234	0.914
14.2679	0.912
14.3018	0.909
14.3357	0.902
14.3696	0.895
14.4035	0.887
14.4374	0.873
14.4714	0.856
14.5053	0.837
14.5392	0.82
14.5731	0.8
14.607	0.781
14.6409	0.769
14.6748	0.767
14.7087	0.779
14.7426	0.793
14.7765	0.807
14.8104	0.815
14.8443	0.827
14.8783	0.829
14.9122	0.824
14.9461	0.819
14.98	0.812
15.0139	0.805
15.0478	0.802
15.0817	0.8
15.1156	0.8
15.1495	0.798
15.1834	0.796
15.2173	0.783
15.2512	0.771
15.2852	0.752
15.3191	0.742
15.353	0.73
