Infrared Spectrum: KELCOLOID O
Formula: C12 H16 O11 X2
Class: COBLENTZ
Instrument: Not specified, most likely a prism, grating, or hybrid spectrometer.
Sampling: TRANSMISSION
Path length: AIR DRIED FILM
Resolution: 4
Origin: WYANDOTTE CHEMICALS CORP., WYANDOTTE, MICHIGAN, USA
MICROMETERS	TRANSMITTANCE
2.04	0.996
2.07985	0.995
2.1197	1
2.15955	0.998
2.19939	0.993
2.23924	0.991
2.27909	0.991
2.31894	0.993
2.35879	0.988
2.39864	0.98
2.43849	0.97
2.47833	0.978
2.51818	0.983
2.55803	0.978
2.59788	0.976
2.63773	0.971
2.67758	0.946
2.71743	0.82
2.75728	0.578
2.79712	0.357
2.83697	0.247
2.87682	0.197
2.91667	0.181
2.95652	0.176
2.99637	0.189
3.03622	0.237
3.07606	0.287
3.11591	0.377
3.15576	0.461
3.19561	0.549
3.23546	0.631
3.27531	0.682
3.31516	0.598
3.355	0.544
3.39485	0.531
3.4347	0.561
3.47455	0.619
3.5144	0.707
3.55425	0.76
3.5941	0.785
3.63394	0.797
3.67379	0.807
3.71364	0.83
3.75349	0.855
3.79334	0.872
3.83319	0.887
3.87304	0.897
3.91289	0.905
3.95273	0.908
3.99258	0.913
4.03243	0.921
4.07228	0.925
4.11213	0.931
4.15198	0.933
4.19183	0.933
4.23167	0.933
4.27152	0.94
4.31137	0.941
4.35122	0.946
4.39107	0.948
4.43092	0.943
4.47077	0.948
4.51061	0.941
4.55046	0.936
4.59031	0.933
4.63016	0.931
4.67001	0.928
4.70986	0.926
4.74971	0.94
4.78955	0.946
4.8294	0.951
4.86925	0.953
4.9091	0.953
4.94895	0.956
4.9888	0.965
5.02865	0.973
5.0685	0.97
5.10834	0.976
5.14819	0.97
5.18804	0.975
5.22789	0.971
5.26774	0.968
5.30759	0.966
5.34744	0.971
5.38728	0.966
5.42713	0.97
5.46698	0.955
5.50683	0.95
5.54668	0.941
5.58653	0.91
5.62638	0.875
5.66622	0.607
5.70607	0.302
5.74592	0.234
5.78577	0.41
5.82562	0.656
5.86547	0.709
5.90532	0.754
5.94516	0.735
5.98501	0.677
6.02486	0.637
6.06471	0.558
6.10456	0.498
6.14441	0.446
6.18426	0.481
6.22411	0.586
6.26395	0.676
6.3038	0.755
6.34365	0.775
6.3835	0.797
6.42335	0.827
6.4632	0.822
6.50305	0.843
6.54289	0.842
6.58274	0.837
6.62259	0.84
6.66244	0.82
6.70229	0.78
6.74214	0.725
6.78199	0.617
6.82183	0.588
6.86168	0.571
6.90153	0.566
6.94138	0.519
6.98123	0.483
7.02108	0.42
7.06093	0.388
7.10077	0.387
7.14062	0.397
7.18047	0.405
7.22032	0.405
7.26017	0.435
7.30002	0.485
7.33987	0.503
7.37972	0.496
7.41956	0.485
7.45941	0.48
7.49926	0.481
7.53911	0.49
7.57896	0.483
7.61881	0.455
7.65866	0.426
7.6985	0.392
7.73835	0.38
7.7782	0.387
7.81805	0.395
7.8579	0.397
7.89775	0.38
7.9376	0.352
7.97744	0.328
8.01729	0.3
8.05714	0.297
8.09699	0.307
8.13684	0.338
8.17669	0.365
8.21654	0.383
8.25638	0.4
8.29623	0.411
8.33608	0.435
8.37593	0.441
8.41578	0.448
8.45563	0.433
8.49548	0.43
8.53533	0.416
8.57517	0.38
8.61502	0.328
8.65487	0.287
8.69472	0.252
8.73457	0.239
8.77442	0.232
8.81427	0.22
8.85411	0.214
8.89396	0.21
8.93381	0.179
8.97366	0.146
9.01351	0.129
9.05336	0.117
9.09321	0.117
9.13305	0.121
9.1729	0.116
9.21275	0.112
9.2526	0.112
9.29245	0.111
9.3323	0.111
9.37215	0.102
9.41199	0.101
9.45184	0.094
9.49169	0.083
9.53154	0.066
9.57139	0.051
9.61124	0.054
9.65109	0.064
9.69094	0.099
9.73078	0.136
9.77063	0.174
9.81048	0.219
9.85033	0.25
9.89018	0.299
9.93003	0.315
9.96988	0.332
10.0097	0.355
10.0496	0.378
10.0894	0.408
10.1293	0.451
10.1691	0.49
10.209	0.511
10.2488	0.516
10.2887	0.516
10.3285	0.511
10.3684	0.501
10.4082	0.498
10.4481	0.498
10.4879	0.501
10.5278	0.506
10.5676	0.526
10.6075	0.533
10.6473	0.533
10.6872	0.523
10.727	0.511
10.7668	0.513
10.8067	0.516
10.8465	0.534
10.8864	0.541
10.9262	0.551
10.9661	0.571
11.0059	0.578
11.0458	0.588
11.0856	0.588
11.1255	0.591
11.1653	0.589
11.2052	0.578
11.245	0.576
11.2849	0.578
11.3247	0.579
11.3646	0.588
11.4044	0.601
11.4443	0.619
11.4841	0.632
11.524	0.639
11.5638	0.639
11.6037	0.637
11.6435	0.632
11.6834	0.632
11.7232	0.636
11.7631	0.634
11.8029	0.639
11.8428	0.649
11.8826	0.646
11.9225	0.644
11.9623	0.631
12.0022	0.631
12.042	0.622
12.0819	0.617
12.1217	0.606
12.1615	0.586
12.2014	0.566
12.2412	0.563
12.2811	0.559
12.3209	0.568
12.3608	0.588
12.4006	0.596
12.4405	0.607
12.4803	0.622
12.5202	0.631
12.56	0.637
12.5999	0.642
12.6397	0.649
12.6796	0.654
12.7194	0.652
12.7593	0.659
12.7991	0.659
12.839	0.661
12.8788	0.667
12.9187	0.669
12.9585	0.666
12.9984	0.666
13.0382	0.662
13.0781	0.657
13.1179	0.657
13.1578	0.651
13.1976	0.644
13.2375	0.641
13.2773	0.641
13.3172	0.637
13.357	0.642
13.3969	0.642
13.4367	0.641
13.4766	0.644
13.5164	0.649
13.5563	0.656
13.5961	0.659
13.6359	0.662
13.6758	0.666
13.7156	0.662
13.7555	0.669
13.7953	0.669
13.8352	0.671
13.875	0.669
13.9149	0.671
13.9547	0.669
13.9946	0.669
14.0344	0.672
14.0743	0.672
14.1141	0.666
14.154	0.667
14.1938	0.662
14.2337	0.662
14.2735	0.661
14.3134	0.659
14.3532	0.656
14.3931	0.652
14.4329	0.659
14.4728	0.656
14.5126	0.661
14.5525	0.654
14.5923	0.664
14.6322	0.669
14.672	0.669
14.7119	0.674
14.7517	0.674
14.7916	0.677
14.8314	0.682
14.8713	0.676
14.9111	0.679
14.951	0.682
14.9908	0.672
15.0307	0.677
15.0705	0.684
15.1103	0.684
15.1502	0.696
15.19	0.699
15.2299	0.7
15.2697	0.7
15.3096	0.702
15.3494	0.705
15.3893	0.704
15.4291	0.709
15.469	0.709
15.5088	0.719
15.5487	0.722
15.5885	0.729
15.6284	0.724
15.6682	0.72
15.7081	0.722
15.7479	0.722
15.7878	0.724
15.8276	0.725
15.8675	0.725
15.9073	0.727
15.9472	0.72
15.987	0.72
