Infrared Spectrum: Isoguanine sulfate
Formula: C10 H12 N10 O6 S
State: SOLID (SPLIT MULL), FLUOROLUBE FOR 3800-1330 CM^-^1, NUJOL FOR 1330-400 CM^-^1
Class: COBLENTZ III
Instrument: DOW KBr FOREPRISM-GRATING
Instrument parameters: BLAZED AT 3.5, 12.0, 20.0 MICRON AND CHANGED AT 5.0, 7.5, 14.9 MICRON
Sampling: TRANSMISSION
Resolution: 2
Origin: DOW CHEMICAL COMPANY
1/CM	TRANSMITTANCE
3800	0.6761
3791	0.6801
3782	0.6848
3773	0.6883
3764	0.6918
3755	0.6951
3746	0.699
3737	0.7034
3728	0.7078
3719	0.7118
3710	0.7158
3701	0.7196
3692	0.7233
3683	0.7268
3674	0.7301
3665	0.7324
3656	0.7347
3647	0.7365
3638	0.7381
3629	0.7392
3620	0.7398
3611	0.7403
3602	0.74
3593	0.7396
3584	0.7386
3575	0.7371
3566	0.7358
3557	0.7339
3548	0.7321
3539	0.7295
3530	0.7265
3521	0.7235
3512	0.7204
3503	0.7169
3494	0.7125
3485	0.7081
3476	0.7015
3467	0.6948
3458	0.6862
3449	0.6783
3440	0.6711
3431	0.663
3422	0.6535
3413	0.6428
3404	0.6292
3395	0.6089
3386	0.5836
3377	0.5576
3368	0.539
3359	0.5135
3350	0.4895
3341	0.4633
3332	0.4337
3323	0.4032
3314	0.3782
3305	0.3543
3296	0.3262
3287	0.2984
3278	0.2704
3269	0.2342
3260	0.2153
3251	0.2048
3242	0.1975
3233	0.1904
3224	0.1834
3215	0.1748
3206	0.1644
3197	0.1519
3188	0.1392
3179	0.1278
3170	0.1163
3161	0.0981
3152	0.0947
3143	0.135
3134	0.1661
3125	0.1812
3116	0.1958
3107	0.2093
3098	0.2215
3089	0.2287
3080	0.2332
3071	0.2357
3062	0.236
3053	0.2272
3044	0.215
3035	0.2061
3026	0.2016
3017	0.2002
3008	0.2007
2999	0.2051
2990	0.2122
2981	0.2217
2972	0.2311
2963	0.2414
2954	0.2554
2945	0.2597
2936	0.2611
2927	0.2541
2918	0.2459
2909	0.2458
2900	0.2532
2891	0.2641
2882	0.2784
2873	0.2935
2864	0.3109
2855	0.3368
2846	0.3484
2837	0.3434
2828	0.3259
2819	0.3028
2810	0.2934
2801	0.2942
2792	0.3007
2783	0.3061
2774	0.3083
2765	0.3025
2756	0.2932
2747	0.2948
2738	0.2973
2729	0.2996
2720	0.302
2711	0.3046
2702	0.3073
2693	0.3095
2684	0.3114
2675	0.3124
2666	0.3134
2657	0.315
2648	0.3268
2639	0.341
2630	0.353
2621	0.358
2612	0.3645
2603	0.3724
2594	0.3814
2585	0.3912
2576	0.4018
2567	0.4116
2558	0.4196
2549	0.4264
2540	0.4352
2531	0.4441
2522	0.4536
2513	0.4634
2504	0.4732
2495	0.4827
2486	0.4923
2477	0.502
2468	0.5122
2459	0.5223
2450	0.5321
2441	0.5414
2432	0.5508
2423	0.5601
2414	0.569
2405	0.5771
2396	0.5851
2387	0.5932
2378	0.6009
2369	0.6084
2360	0.6159
2351	0.6234
2342	0.631
2333	0.6385
2324	0.6461
2315	0.6536
2306	0.6611
2297	0.6687
2288	0.6761
2279	0.6828
2270	0.6898
2261	0.6978
2252	0.7067
2243	0.7146
2234	0.7218
2225	0.7291
2216	0.7362
2207	0.7432
2198	0.7501
2189	0.7571
2180	0.7642
2171	0.7706
2162	0.7768
2153	0.7826
2144	0.7875
2135	0.7899
2126	0.789
2117	0.7882
2108	0.7886
2099	0.7932
2090	0.7992
2081	0.8056
2072	0.8112
2063	0.8168
2054	0.8227
2045	0.8289
2036	0.8358
2027	0.8406
2018	0.8428
2009	0.8437
2000	0.8443
1991	0.8452
1982	0.8462
1973	0.8478
1964	0.8521
1955	0.8574
1946	0.8643
1937	0.8661
1928	0.8659
1919	0.8657
1910	0.8673
1901	0.8686
1892	0.8675
1883	0.8674
1874	0.8646
1865	0.8574
1856	0.844
1847	0.8318
1838	0.823
1829	0.8015
1820	0.7511
1811	0.7172
1802	0.7214
1793	0.7267
1784	0.7196
1775	0.6683
1766	0.6118
1757	0.5746
1748	0.4639
1739	0.2155
1730	0.0482
1721	0.0272
1712	0.0298
1703	0.0438
1694	0.0226
1685	0.0366
1676	0.1454
1667	0.2488
1658	0.3151
1649	0.3734
1640	0.4251
1631	0.4832
1622	0.513
1613	0.4112
1604	0.229
1595	0.2405
1586	0.4162
1577	0.5375
1568	0.5662
1559	0.5923
1550	0.6188
1541	0.6404
1532	0.6553
1523	0.6634
1514	0.6707
1505	0.678
1496	0.6815
1487	0.6841
1478	0.6858
1469	0.6925
1460	0.6821
1451	0.452
1442	0.3736
1433	0.2584
1424	0.3437
1415	0.5234
1406	0.5708
1397	0.6116
1388	0.6362
1379	0.6564
1370	0.6736
1361	0.6844
1352	0.6721
1343	0.6112
1334	0.2117
1325	0.3288
1316	0.6298
1307	0.6721
1298	0.7839
1289	0.7851
1280	0.7112
1271	0.825
1262	0.866
1253	0.883
1244	0.8728
1235	0.8523
1226	0.798
1217	0.5407
1208	0.4606
1199	0.516
1190	0.7408
1181	0.7018
1172	0.4871
1163	0.4733
1154	0.5424
1145	0.3825
1136	0.0495
1127	0.0863
1118	0.0698
1109	0.1181
1100	0.1882
1091	0.0104
1082	0.0001
1073	0.0279
1064	0.1504
1055	0.2344
1046	0.3993
1037	0.5315
1028	0.6243
1019	0.6691
1010	0.6889
1001	0.6614
992	0.431
983	0.3494
974	0.3978
965	0.6135
956	0.7247
947	0.7315
938	0.7111
929	0.6578
920	0.6735
911	0.6518
902	0.6062
893	0.7056
884	0.7064
875	0.7133
866	0.7418
857	0.7555
848	0.6724
839	0.5345
830	0.6468
821	0.6286
812	0.4817
803	0.3762
794	0.566
785	0.6974
776	0.7034
767	0.5738
758	0.4345
749	0.6434
740	0.6343
731	0.5819
722	0.5624
713	0.5447
704	0.5524
695	0.6081
686	0.6525
677	0.7174
668	0.63
659	0.7108
650	0.7437
641	0.7372
632	0.7858
623	0.761
614	0.6244
605	0.6141
596	0.7755
587	0.8838
578	0.837
569	0.7708
560	0.8055
551	0.8317
542	0.485
533	0.2829
524	0.821
515	0.9043
506	0.9158
497	0.8241
488	0.6754
479	0.8932
470	0.921
461	0.8952
452	0.8056
443	0.8037
434	0.7743
425	0.6971
416	0.5679
407	0.5403
