Infrared Spectrum: ACETIC ACID, p-MENTH-3-YL ESTER
Formula: C12 H22 O2
State: SOLUTION (10% CCl4 FOR 3800-1335, 10% CS2 FOR 1335-400 CM^-^1)
Class: COBLENTZ III
Instrument: DOW KBr FOREPRISM-GRATING
Instrument parameters: BLAZED AT 3.5, 12.0, 20.0 MICRON AND CHANGED AT 5.0, 7.5, 14.9 MICRON
Sampling: TRANSMISSION
Path length: 0.011 CM, 0.011 CM
Resolution: 2
Origin: DOW CHEMICAL COMPANY
1/CM	TRANSMITTANCE
386	0.9564
395	0.9613
404	0.967
413	0.9656
422	0.9452
431	0.8952
440	0.9078
449	0.9495
458	0.9328
467	0.9971
476	1.011
485	1.0143
494	1.0146
503	1.0114
512	1.0015
521	1.0065
530	1.0134
539	1.0118
548	1.0141
557	1.0145
566	1.0025
575	1.0084
584	1.0042
593	0.9783
602	0.8388
611	0.8734
620	0.9318
629	0.9136
638	1.0137
647	1.0202
656	1.0086
665	0.878
674	0.9543
683	1.0299
692	1.0436
701	1.0468
710	1.0458
719	1.0425
728	1.0377
737	1.0303
746	1.0227
755	1.0178
764	1.0139
773	0.9964
782	1.0114
791	1.0081
800	0.9881
809	0.9204
818	0.8525
827	0.9366
836	0.8467
845	0.9948
854	0.9849
863	0.8736
872	0.9639
881	0.9417
890	0.7018
899	0.9078
908	0.8974
917	0.6642
926	0.7755
935	0.7665
944	0.7167
953	0.706
962	0.3728
971	0.4646
980	0.7968
989	0.5914
998	0.6864
1007	0.5322
1016	0.2407
1025	0.1856
1034	0.3652
1043	0.6012
1052	0.6711
1061	0.6626
1070	0.7701
1079	0.8383
1088	0.8355
1097	0.8343
1106	0.7944
1115	0.8592
1124	0.8413
1133	0.6133
1142	0.4791
1151	0.2238
1160	0.7648
1169	0.7208
1178	0.7606
1187	0.7226
1196	0.3214
1205	0.3905
1214	0.4191
1223	0.2412
1232	0.1298
1241	0
1250	0.0072
1259	0.1371
1268	0.328
1277	0.3804
1286	0.5192
1295	0.733
1304	0.7756
1313	0.7812
1322	0.7619
1331	0.7201
1340	0.6997
1349	0.6971
1358	0.4389
1367	0.3605
1376	0.1044
1385	0.4036
1394	0.6508
1403	0.7717
1412	0.7703
1421	0.7139
1430	0.6436
1439	0.557
1448	0.3445
1457	0.3137
1466	0.4647
1475	0.5134
1484	0.7453
1493	0.8741
1502	0.8968
1511	0.9058
1520	0.9185
1529	0.9447
1538	0.9506
1547	0.9537
1556	0.9535
1565	0.9507
1574	0.9466
1583	0.9461
1592	0.9406
1601	0.9321
1610	0.9228
1619	0.913
1628	0.9028
1637	0.8925
1646	0.8808
1655	0.8694
1664	0.8651
1673	0.8338
1682	0.7808
1691	0.7094
1700	0.6314
1709	0.5584
1718	0.4255
1727	0.0456
1736	0.0049
1745	0.1536
1754	0.6769
1763	0.7946
1772	0.8428
1781	0.8687
1790	0.8878
1799	0.9021
1808	0.9125
1817	0.9173
1826	0.922
1835	0.9312
1844	0.9378
1853	0.9425
1862	0.9455
1871	0.9475
1880	0.9485
1889	0.9506
1898	0.9528
1907	0.9553
1916	0.9583
1925	0.9616
1934	0.9652
1943	0.9686
1952	0.9701
1961	0.9702
1970	0.9693
1979	0.9688
1988	0.9696
1997	0.9792
2006	0.9948
2015	0.9995
2024	0.9994
2033	0.9993
2042	0.999
2051	0.9987
2060	0.9992
2069	1
2078	1
2087	0.9999
2096	1
2105	0.9997
2114	0.9989
2123	0.9963
2132	0.9923
2141	0.9898
2150	0.9908
2159	0.9959
2168	0.9982
2177	0.9989
2186	0.9994
2195	0.9999
2204	1.0004
2213	1.0003
2222	1.0004
2231	1.0006
2240	1.0009
2249	1.0011
2258	1.0011
2267	1.001
2276	1.0015
2285	1.0021
2294	1.0032
2303	0.998
2312	0.9959
2321	0.9945
2330	0.994
2339	0.9938
2348	0.9936
2357	0.9932
2366	0.993
2375	0.9925
2384	0.992
2393	0.9912
2402	0.9907
2411	0.9903
2420	0.9897
2429	0.9883
2438	0.987
2447	0.9843
2456	0.9812
2465	0.9773
2474	0.9768
2483	0.98
2492	0.9836
2501	0.9866
2510	0.9883
2519	0.9884
2528	0.9868
2537	0.9846
2546	0.9818
2555	0.9778
2564	0.9735
2573	0.9694
2582	0.9654
2591	0.9618
2600	0.9587
2609	0.9563
2618	0.9545
2627	0.9538
2636	0.9534
2645	0.9535
2654	0.9538
2663	0.9532
2672	0.9525
2681	0.9515
2690	0.9492
2699	0.9425
2708	0.9236
2717	0.9159
2726	0.9347
2735	0.9415
2744	0.9374
2753	0.9375
2762	0.9371
2771	0.9325
2780	0.9192
2789	0.9051
2798	0.8895
2807	0.8617
2816	0.8207
2825	0.7725
2834	0.484
2843	0.3575
2852	0.43
2861	0.2324
2870	0.2684
2879	0.3274
2888	0.3063
2897	0.2723
2906	0.1323
2915	0.0719
2924	0.0764
2933	0.0939
2942	0.0763
2951	0.0465
2960	0.0578
2969	0.144
2978	0.383
2987	0.6394
2996	0.7684
3005	0.8477
3014	0.8692
3023	0.8858
3032	0.9008
3041	0.9136
3050	0.9245
3059	0.9332
3068	0.9388
3077	0.9423
3086	0.9443
3095	0.9454
3104	0.9461
3113	0.9453
3122	0.9441
3131	0.9427
3140	0.9411
3149	0.9396
3158	0.9388
3167	0.9394
3176	0.9418
3185	0.9444
3194	0.9474
3203	0.9504
3212	0.9528
3221	0.9548
3230	0.9562
3239	0.9568
3248	0.9571
3257	0.9571
3266	0.957
3275	0.9568
3284	0.9566
3293	0.9565
3302	0.9564
3311	0.9564
3320	0.9564
3329	0.9564
3338	0.9565
3347	0.9564
3356	0.956
3365	0.9555
3374	0.9551
3383	0.954
3392	0.9524
3401	0.9504
3410	0.948
3419	0.9442
3428	0.9391
3437	0.9345
3446	0.9339
3455	0.9425
3464	0.9561
3473	0.9671
3482	0.9739
3491	0.9764
3500	0.9775
3509	0.9777
3518	0.9786
3527	0.9796
3536	0.9815
3545	0.9838
3554	0.9856
3563	0.9846
3572	0.9801
3581	0.9884
3590	0.9908
3599	0.9873
3608	0.9851
3617	0.992
3626	0.9932
3635	0.9936
3644	0.9933
3653	0.9924
3662	0.9906
3671	0.9875
3680	0.9851
3689	0.9859
3698	0.991
3707	0.9925
3716	0.9923
3725	0.9924
3734	0.992
3743	0.9914
3752	0.9908
3761	0.9907
3770	0.9906
3779	0.9895
3788	0.9891
3797	0.989
