Infrared Spectrum: 3-HYDROXY-2,6-PYRIDINEDIMETHANOL, HYDROCHLORIDE
Formula: C7 H10 Cl N O3
State: SOLID (SPLIT MULL), FLUOROLUBE FOR 3800-1330 CM^-^1, NUJOL FOR 1330-400 CM^-^1
Melting point: 145 C
Class: COBLENTZ III
Instrument: DOW KBr FOREPRISM-GRATING
Instrument parameters: BLAZED AT 3.5, 12.0, 20.0 MICRON AND CHANGED AT 5.0, 7.5, 14.9 MICRON
Sampling: TRANSMISSION
Resolution: 2
Origin: DOW CHEMICAL COMPANY
1/CM	TRANSMITTANCE
387.418	0.92
396.196	0.916
404.975	0.913
413.753	0.909
422.531	0.909
431.31	0.885
440.088	0.848
448.867	0.947
457.645	0.946
466.423	0.933
475.202	0.909
483.98	0.88
492.758	0.836
501.537	0.766
510.315	0.671
519.093	0.664
527.872	0.771
536.65	0.715
545.429	0.638
554.207	0.74
562.985	0.756
571.764	0.749
580.542	0.744
589.32	0.762
598.099	0.76
606.877	0.806
615.656	0.821
624.434	0.913
633.212	0.958
641.991	0.969
650.769	0.972
659.547	0.972
668.326	0.968
677.104	0.95
685.882	0.936
694.661	0.861
703.439	0.861
712.218	0.77
720.996	0.544
729.774	0.356
738.553	0.491
747.331	0.583
756.109	0.845
764.888	0.9
773.666	0.925
782.444	0.929
791.223	0.924
800.001	0.899
808.78	0.832
817.558	0.621
826.336	0.625
835.115	0.694
843.893	0.138
852.671	0.4252
861.45	0.819
870.228	0.797
879.006	0.694
887.785	0.515
896.563	0.448
905.342	0.632
914.12	0.763
922.898	0.817
931.677	0.834
940.455	0.833
949.233	0.774
958.012	0.713
966.79	0.642
975.568	0.562
984.347	0.7511
993.125	0.793
1001.9	0.6789
1010.68	0.741
1019.46	0.746
1028.24	0.69
1037.02	0.544
1045.8	0.331
1054.57	0.011
1063.35	0.1111
1072.13	0.584
1080.91	0.698
1089.69	0.741
1098.47	0.757
1107.24	0.744
1116.02	0.676
1124.8	0.511
1133.58	0.485
1142.36	0.634
1151.14	0.4
1159.91	0.3781
1168.69	0.668
1177.47	0.693
1186.25	0.697
1195.03	0.679
1203.81	0.62
1212.58	0.4839
1221.36	0.343
1230.14	0.4
1238.92	0.2569
1247.7	0.378
1256.48	0.2469
1265.25	0.1101
1274.03	0.29
1282.81	0.261
1291.59	0.1159
1300.37	0.027
1309.15	0.2221
1317.92	0.381
1326.7	0.349
1335.48	0.602
1344.26	0.657
1353.04	0.704
1361.82	0.709
1370.59	0.689
1379.37	0.664
1388.15	0.603
1396.93	0.623
1405.71	0.627
1414.49	0.592
1423.27	0.524
1432.04	0.335
1440.82	0.364
1449.6	0.328
1458.38	0.1361
1467.16	0.437
1475.94	0.662
1484.71	0.724
1493.49	0.726
1502.27	0.715
1511.05	0.687
1519.83	0.612
1528.61	0.4489
1537.38	0.1579
1546.16	0.02
1554.94	0.3012
1563.72	0.6531
1572.5	0.76
1581.28	0.836
1590.05	0.881
1598.83	0.894
1607.61	0.873
1616.39	0.782
1625.17	0.4509
1633.95	0.834
1642.72	0.892
1651.5	0.911
1660.28	0.92
1669.06	0.936
1677.84	0.936
1686.62	0.931
1695.39	0.925
1704.17	0.928
1712.95	0.922
1721.73	0.913
1730.51	0.91
1739.29	0.891
1748.06	0.878
1756.84	0.896
1765.62	0.903
1774.4	0.903
1783.18	0.902
1791.96	0.9
1800.73	0.9
1809.51	0.899
1818.29	0.899
1827.07	0.899
1835.85	0.895
1844.63	0.891
1853.41	0.888
1862.18	0.888
1870.96	0.888
1879.74	0.888
1888.52	0.889
1897.3	0.885
1906.08	0.88
1914.85	0.878
1923.63	0.874
1932.41	0.869
1941.19	0.863
1949.97	0.866
1958.75	0.873
1967.52	0.873
1976.3	0.872
1985.08	0.87
1993.86	0.869
2002.64	0.869
2011.42	0.869
2020.19	0.869
2028.97	0.869
2037.75	0.869
2046.53	0.869
2055.31	0.869
2064.09	0.8665
2072.86	0.8625
2081.64	0.8569
2090.42	0.8529
2099.2	0.8399
2107.98	0.811
2116.76	0.8302
2125.53	0.8381
2134.31	0.841
2143.09	0.841
2151.87	0.839
2160.65	0.836
2169.43	0.832
2178.2	0.826
2186.98	0.8224
2195.76	0.818
2204.54	0.817
2213.32	0.814
2222.1	0.8068
2230.87	0.797
2239.65	0.795
2248.43	0.792
2257.21	0.7828
2265.99	0.778
2274.77	0.7734
2283.54	0.767
2292.32	0.7634
2301.1	0.7594
2309.88	0.7554
2318.66	0.7414
2327.44	0.7334
2336.22	0.7264
2344.99	0.7148
2353.77	0.7021
2362.55	0.6964
2371.33	0.69
2380.11	0.6793
2388.89	0.676
2397.66	0.6753
2406.44	0.672
2415.22	0.6643
2424	0.66
2432.78	0.6533
2441.56	0.6463
2450.33	0.6366
2459.11	0.6276
2467.89	0.6146
2476.67	0.6063
2485.45	0.606
2494.23	0.5999
2503	0.5808
2511.78	0.5693
2520.56	0.563
2529.34	0.562
2538.12	0.561
2546.9	0.5525
2555.67	0.5473
2564.45	0.5253
2573.23	0.5011
2582.01	0.475
2590.79	0.4605
2599.57	0.4447
2608.34	0.4135
2617.12	0.3752
2625.9	0.367
2634.68	0.3884
2643.46	0.398
2652.24	0.3907
2661.01	0.3745
2669.79	0.371
2678.57	0.3748
2687.35	0.3776
2696.13	0.3931
2704.91	0.397
2713.68	0.3866
2722.46	0.3662
2731.24	0.345
2740.02	0.3346
2748.8	0.3218
2757.58	0.301
2766.36	0.2864
2775.13	0.281
2783.91	0.2792
2792.69	0.2692
2801.47	0.2547
2810.25	0.2325
2819.03	0.2145
2827.8	0.2003
2836.58	0.198
2845.36	0.1951
2854.14	0.192
2862.92	0.1893
2871.7	0.1767
2880.47	0.1591
2889.25	0.1344
2898.03	0.1151
2906.81	0.0975
2915.59	0.0722
2924.37	0.0671
2933.14	0.0601
2941.92	0.0503
2950.7	0.0411
2959.48	0.0271
2968.26	0.027
2977.04	0.0339
2985.81	0.0456
2994.59	0.0636
3003.37	0.0825
3012.15	0.1108
3020.93	0.118
3029.71	0.1259
3038.48	0.1379
3047.26	0.1489
3056.04	0.1558
3064.82	0.1599
3073.6	0.166
3082.38	0.167
3091.15	0.166
3099.93	0.162
3108.71	0.16
3117.49	0.1511
3126.27	0.143
3135.05	0.1301
3143.82	0.123
3152.6	0.123
3161.38	0.13
3170.16	0.133
3178.94	0.126
3187.72	0.116
3196.49	0.111
3205.27	0.105
3214.05	0.103
3222.83	0.09
3231.61	0.075
3240.39	0.0659
3249.17	0.05
3257.94	0.055
3266.72	0.0611
3275.5	0.0791
3284.28	0.1
3293.06	0.101
3301.84	0.101
3310.61	0.0969
3319.39	0.0809
3328.17	0.0659
3336.95	0.0501
3345.73	0.0572
3354.51	0.0774
3363.28	0.1235
3372.06	0.1637
3380.84	0.2066
3389.62	0.252
3398.4	0.3136
3407.18	0.3614
3415.95	0.3984
3424.73	0.4308
3433.51	0.4632
3442.29	0.4919
3451.07	0.5255
3459.85	0.5602
3468.62	0.5944
3477.4	0.6246
3486.18	0.6477
3494.96	0.6694
3503.74	0.6892
3512.52	0.7073
3521.29	0.7261
3530.07	0.7371
3538.85	0.7481
3547.63	0.7551
3556.41	0.7603
3565.19	0.766
3573.96	0.767
3582.74	0.768
3591.52	0.7678
3600.3	0.766
3609.08	0.764
3617.86	0.762
3626.63	0.76
3635.41	0.757
3644.19	0.7558
3652.97	0.7528
3661.75	0.749
3670.53	0.746
3679.31	0.744
3688.08	0.7408
3696.86	0.7366
3705.64	0.733
3714.42	0.7298
3723.2	0.726
3731.98	0.722
3740.75	0.7188
3749.53	0.7158
3758.31	0.7128
3767.09	0.7088
3775.87	0.705
3784.65	0.7018
3793.42	0.6978
3802.2	0.696
