Infrared Spectrum: 1,4-Diazabicyclo[2.2.2]octane, compd. with BH3
Formula: C6 H15 N2 B
State: SOLID (SPLIT MULL)
Class: COBLENTZ III
Instrument: PERKIN-ELMER 521 (GRATING)
Instrument parameters: FILTERS AT 3150, 2500, 2000, 1150, 700, 410. GRATING CHANGES: 2000, 630
Resolution: 2
Origin: DOW CORNING CORP.
1/CM	TRANSMITTANCE
245	0.719
254	0.7169
263	0.7133
272	0.7371
281	0.8482
290	0.8859
299	0.8951
308	0.8999
317	0.8988
326	0.9043
335	0.8917
344	0.8187
353	0.7422
362	0.889
371	0.9056
380	0.9139
389	0.9172
398	0.9118
407	0.9066
416	0.9054
425	0.9058
434	0.9068
443	0.9077
452	0.9086
461	0.9089
470	0.9091
479	0.9085
488	0.9077
497	0.9061
506	0.9039
515	0.9018
524	0.8996
533	0.8973
542	0.8951
551	0.8939
560	0.8928
569	0.8929
578	0.8936
587	0.8947
596	0.8943
605	0.8925
614	0.8649
623	0.8589
632	0.8589
641	0.8575
650	0.8549
659	0.8357
668	0.552
677	0.8182
686	0.8506
695	0.8546
704	0.8469
713	0.814
722	0.7742
731	0.7986
740	0.8192
749	0.8298
758	0.8359
767	0.8307
776	0.8205
785	0.7519
794	0.7666
803	0.7356
812	0.8272
821	0.826
830	0.7632
839	0.3418
848	0.7737
857	0.7612
866	0.5064
875	0.5663
884	0.8036
893	0.8095
902	0.8129
911	0.814
920	0.8124
929	0.8093
938	0.8068
947	0.7968
956	0.7603
965	0.7885
974	0.7988
983	0.7323
992	0.8
1001	0.806
1010	0.7977
1019	0.7648
1028	0.7498
1037	0.5762
1046	0.3579
1055	0.4683
1064	0.4044
1073	0.7875
1082	0.8034
1091	0.8022
1100	0.8028
1109	0.8007
1118	0.7929
1127	0.7798
1136	0.7577
1145	0.7282
1154	0.6781
1163	0.493
1172	0.0923
1181	0.5509
1190	0.7104
1199	0.7799
1208	0.791
1217	0.7904
1226	0.7899
1235	0.7917
1244	0.7933
1253	0.791
1262	0.783
1271	0.7625
1280	0.703
1289	0.7422
1298	0.6708
1307	0.5666
1316	0.3615
1325	0.5269
1334	0.5883
1343	0.7748
1352	0.7762
1361	0.7703
1370	0.7702
1379	0.7811
1388	0.7812
1397	0.7795
1406	0.7767
1415	0.7817
1424	0.7745
1433	0.7695
1442	0.7047
1451	0.457
1460	0.6966
1469	0.6491
1478	0.8216
1487	0.8246
1496	0.8243
1505	0.8136
1514	0.8141
1523	0.8237
1532	0.8242
1541	0.8296
1550	0.8308
1559	0.8316
1568	0.8316
1577	0.8297
1586	0.8269
1595	0.8249
1604	0.8237
1613	0.8234
1622	0.8216
1631	0.8203
1640	0.8196
1649	0.819
1658	0.8182
1667	0.8178
1676	0.8172
1685	0.8164
1694	0.8153
1703	0.814
1712	0.8141
1721	0.8155
1730	0.8096
1739	0.8051
1748	0.801
1757	0.8137
1766	0.8107
1775	0.8089
1784	0.8086
1793	0.8077
1802	0.8052
1811	0.8042
1820	0.801
1829	0.7997
1838	0.7994
1847	0.8007
1856	0.8026
1865	0.8035
1874	0.8042
1883	0.8038
1892	0.8031
1901	0.8011
1910	0.7982
1919	0.7972
1928	0.8042
1937	0.8044
1946	0.7997
1955	0.7933
1964	0.787
1973	0.7824
1982	0.7807
1991	0.7797
2000	0.7699
2009	0.7602
2018	0.7549
2027	0.7435
2036	0.7143
2045	0.7067
2054	0.7435
2063	0.7476
2072	0.7465
2081	0.7436
2090	0.7382
2099	0.7322
2108	0.723
2117	0.6957
2126	0.6554
2135	0.7014
2144	0.7221
2153	0.7164
2162	0.7092
2171	0.6921
2180	0.6695
2189	0.6564
2198	0.6068
2207	0.5828
2216	0.6064
2225	0.5866
2234	0.5617
2243	0.5524
2252	0.5258
2261	0.4165
2270	0.1658
2279	0.3123
2288	0.4964
2297	0.4325
2306	0.2514
2315	0.1001
2324	0.2005
2333	0.3433
2342	0.4207
2351	0.2953
2360	0.1699
2369	0.1886
2378	0.2927
2387	0.5317
2396	0.6157
2405	0.699
2414	0.7393
2423	0.7648
2432	0.7749
2441	0.7798
2450	0.7802
2459	0.7793
2468	0.7787
2477	0.7775
2486	0.776
2495	0.7741
2504	0.7722
2513	0.7699
2522	0.767
2531	0.7637
2540	0.7612
2549	0.7586
2558	0.7548
2567	0.7485
2576	0.7403
2585	0.7353
2594	0.7317
2603	0.7287
2612	0.7266
2621	0.7253
2630	0.7251
2639	0.7256
2648	0.7261
2657	0.7265
2666	0.7275
2675	0.7292
2684	0.7305
2693	0.7301
2702	0.7292
2711	0.7278
2720	0.7264
2729	0.7248
2738	0.7225
2747	0.719
2756	0.7131
2765	0.7097
2774	0.7073
2783	0.7056
2792	0.7043
2801	0.6999
2810	0.6955
2819	0.691
2828	0.6824
2837	0.6702
2846	0.6561
2855	0.6389
2864	0.6192
2873	0.5919
2882	0.452
2891	0.3304
2900	0.5618
2909	0.5636
2918	0.5435
2927	0.4899
2936	0.4681
2945	0.4049
2954	0.394
2963	0.3511
2972	0.6111
2981	0.5754
2990	0.3397
2999	0.7065
3008	0.7212
3017	0.7211
3026	0.7178
3035	0.7144
3044	0.7113
3053	0.7082
3062	0.7059
3071	0.7041
3080	0.7024
3089	0.7009
3098	0.6995
3107	0.6996
3116	0.7038
3125	0.7112
3134	0.7175
3143	0.7142
3152	0.7097
3161	0.7067
3170	0.7052
3179	0.7039
3188	0.703
3197	0.7021
3206	0.7009
3215	0.6994
3224	0.6981
3233	0.6966
3242	0.6951
3251	0.6936
3260	0.6921
3269	0.6906
3278	0.6891
3287	0.6874
3296	0.6858
3305	0.6841
3314	0.6811
3323	0.6778
3332	0.6755
3341	0.6776
3350	0.6785
3359	0.6768
3368	0.6741
3377	0.6713
3386	0.6679
3395	0.6644
3404	0.6599
3413	0.6549
3422	0.6541
3431	0.6561
3440	0.6588
3449	0.6613
3458	0.6622
3467	0.6629
3476	0.6624
3485	0.6616
3494	0.6609
3503	0.6601
3512	0.6594
3521	0.6587
3530	0.6579
3539	0.657
3548	0.6561
3557	0.6551
3566	0.6542
3575	0.6532
3584	0.6522
3593	0.6512
3602	0.6502
3611	0.6493
3620	0.6483
3629	0.6474
3638	0.6466
3647	0.6457
3656	0.6449
3665	0.644
3674	0.6433
3683	0.6426
3692	0.6419
3701	0.6412
3710	0.64
3719	0.6388
3728	0.6372
3737	0.6336
3746	0.63
3755	0.6278
3764	0.6256
3773	0.6251
3782	0.6265
3791	0.6273
3800	0.6269
3809	0.626
3818	0.6245
