Infrared Spectrum: ETHYL FERROCENOATE
Formula: C13 H14 Fe O2
State: SOLID (MINERAL OIL MULL)
Melting point: 63-64 C
Class: COBLENTZ
Instrument: Not specified, most likely a prism, grating, or hybrid spectrometer.
Sampling: TRANSMISSION
Resolution: 4
Origin: WYANDOTTE CHEMICALS CORP., WYANDOTTE, MICHIGAN, USA
MICROMETERS	TRANSMITTANCE
2.02	0.502
2.06088	0.505
2.10175	0.516
2.14263	0.521
2.1835	0.517
2.22438	0.505
2.26526	0.514
2.30613	0.521
2.34701	0.526
2.38788	0.529
2.42876	0.536
2.46964	0.535
2.51051	0.529
2.55139	0.557
2.59227	0.582
2.63314	0.579
2.67402	0.593
2.71489	0.589
2.75577	0.594
2.79665	0.598
2.83752	0.593
2.8784	0.594
2.91927	0.594
2.96015	0.593
3.00103	0.581
3.0419	0.588
3.08278	0.582
3.12365	0.582
3.16453	0.57
3.20541	0.529
3.24628	0.504
3.28716	0.497
3.32804	0.23
3.36891	0.042
3.40979	0.035
3.45066	0.087
3.49154	0.102
3.53242	0.384
3.57329	0.699
3.61417	0.745
3.65504	0.735
3.69592	0.721
3.7368	0.729
3.77767	0.741
3.81855	0.755
3.85942	0.752
3.9003	0.767
3.94118	0.776
3.98205	0.781
4.02293	0.791
4.0638	0.793
4.10468	0.788
4.14556	0.788
4.18643	0.793
4.22731	0.793
4.26819	0.764
4.30906	0.789
4.34994	0.805
4.39081	0.834
4.43169	0.837
4.47257	0.823
4.51344	0.818
4.55432	0.832
4.59519	0.834
4.63607	0.842
4.67695	0.856
4.71782	0.859
4.7587	0.863
4.79957	0.88
4.84045	0.88
4.88133	0.88
4.9222	0.882
4.96308	0.888
5.00396	0.894
5.04483	0.892
5.08571	0.894
5.12658	0.911
5.16746	0.919
5.20834	0.921
5.24921	0.919
5.29009	0.921
5.33096	0.919
5.37184	0.923
5.41272	0.941
5.45359	0.933
5.49447	0.957
5.53534	0.943
5.57622	0.923
5.6171	0.887
5.65797	0.895
5.69885	0.911
5.73972	0.88
5.7806	0.555
5.82148	0.411
5.86235	0.232
5.90323	0.1
5.94411	0.288
5.98498	0.459
6.02586	0.512
6.06673	0.642
6.10761	0.692
6.14849	0.721
6.18936	0.752
6.23024	0.784
6.27111	0.805
6.31199	0.83
6.35287	0.82
6.39374	0.841
6.43462	0.823
6.47549	0.825
6.51637	0.83
6.55725	0.844
6.59812	0.851
6.639	0.837
6.67988	0.798
6.72075	0.608
6.76163	0.297
6.8025	0.116
6.84338	0.155
6.88426	0.299
6.92513	0.475
6.96601	0.68
7.00688	0.736
7.04776	0.663
7.08864	0.639
7.12951	0.62
7.17039	0.502
7.21126	0.345
7.25214	0.241
7.29302	0.476
7.33389	0.651
7.37477	0.673
7.41564	0.745
7.45652	0.782
7.4974	0.818
7.53827	0.834
7.57915	0.83
7.62003	0.801
7.6609	0.697
7.70178	0.611
7.74265	0.519
7.78353	0.211
7.82441	0.037
7.86528	0.141
7.90616	0.353
7.94703	0.497
7.98791	0.586
8.02879	0.687
8.06966	0.728
8.11054	0.76
8.15141	0.729
8.19229	0.723
8.23317	0.813
8.27404	0.834
8.31492	0.851
8.3558	0.811
8.39667	0.781
8.43755	0.798
8.47842	0.707
8.5193	0.422
8.56018	0.492
8.60105	0.656
8.64193	0.7
8.6828	0.649
8.72368	0.463
8.76456	0.124
8.80543	0.063
8.84631	0.162
8.88718	0.357
8.92806	0.528
8.96894	0.632
9.00981	0.536
9.05069	0.644
9.09156	0.528
9.13244	0.483
9.17332	0.576
9.21419	0.683
9.25507	0.745
9.29595	0.776
9.33682	0.786
9.3777	0.777
9.41857	0.772
9.45945	0.774
9.50033	0.781
9.5412	0.793
9.58208	0.764
9.62295	0.485
9.66383	0.264
9.70471	0.468
9.74558	0.613
9.78646	0.683
9.82733	0.714
9.86821	0.692
9.90909	0.547
9.94996	0.336
9.99084	0.336
10.0317	0.533
10.0726	0.668
10.1135	0.726
10.1543	0.76
10.1952	0.776
10.2361	0.791
10.277	0.798
10.3178	0.811
10.3587	0.822
10.3996	0.835
10.4405	0.837
10.4814	0.842
10.5222	0.854
10.5631	0.859
10.604	0.861
10.6449	0.861
10.6857	0.863
10.7266	0.87
10.7675	0.871
10.8084	0.863
10.8492	0.811
10.8901	0.673
10.931	0.517
10.9719	0.603
11.0127	0.729
11.0536	0.789
11.0945	0.82
11.1354	0.849
11.1762	0.858
11.2171	0.868
11.258	0.873
11.2989	0.885
11.3398	0.89
11.3806	0.89
11.4215	0.875
11.4624	0.87
11.5033	0.878
11.5441	0.878
11.585	0.847
11.6259	0.762
11.6668	0.748
11.7076	0.788
11.7485	0.791
11.7894	0.793
11.8303	0.711
11.8711	0.7
11.912	0.788
11.9529	0.767
11.9938	0.726
12.0346	0.641
12.0755	0.461
12.1164	0.406
12.1573	0.377
12.1981	0.423
12.239	0.456
12.2799	0.557
12.3208	0.699
12.3617	0.779
12.4025	0.82
12.4434	0.849
12.4843	0.854
12.5252	0.858
12.566	0.854
12.6069	0.852
12.6478	0.868
12.6887	0.878
12.7295	0.864
12.7704	0.721
12.8113	0.444
12.8522	0.427
12.893	0.582
12.9339	0.69
12.9748	0.76
13.0157	0.789
13.0565	0.794
13.0974	0.772
13.1383	0.709
13.1792	0.673
13.2201	0.728
13.2609	0.777
13.3018	0.817
13.3427	0.839
13.3836	0.849
13.4244	0.858
13.4653	0.866
13.5062	0.866
13.5471	0.87
13.5879	0.87
13.6288	0.875
13.6697	0.871
13.7106	0.876
13.7514	0.873
13.7923	0.876
13.8332	0.873
13.8741	0.876
13.9149	0.875
13.9558	0.888
13.9967	0.904
14.0376	0.911
14.0784	0.917
14.1193	0.926
14.1602	0.926
14.2011	0.933
14.242	0.936
14.2828	0.936
14.3237	0.931
14.3646	0.929
14.4055	0.926
14.4463	0.928
14.4872	0.924
14.5281	0.919
14.569	0.919
14.6098	0.917
14.6507	0.917
14.6916	0.916
14.7325	0.911
14.7733	0.9
14.8142	0.904
14.8551	0.897
14.896	0.895
14.9368	0.892
14.9777	0.878
15.0186	0.842
15.0595	0.798
15.1004	0.808
15.1412	0.841
15.1821	0.856
15.223	0.851
15.2639	0.842
15.3047	0.834
15.3456	0.827
15.3865	0.817
15.4274	0.806
15.4682	0.798
15.5091	0.784
15.55	0.777
15.5909	0.77
15.6317	0.765
15.6726	0.757
15.7135	0.745
15.7544	0.736
15.7952	0.723
15.8361	0.709
15.877	0.7
15.9179	0.697
15.9587	0.673
