Infrared Spectrum: [1,2,5]THIADIAZOLO[3,4-d]PYRIMIDINE, 5-AMINO-7-BUTYLAMINO-
Formula: C8 H12 N6 S
State: SOLID (1 mg / 650 mg KBr DISC)
Class: COBLENTZ III
Instrument: PERKIN-ELMER 221 (GRATING)
Instrument parameters: FILTER CHANGE AT 2490, 980 CM^-^1, GRATING FOR 4000-1428 CM^-^1, NaCl PRISM FOR 1428-650 CM^-^1
Sampling: TRANSMISSION
Resolution: 4
Origin: SOUTHERN RESEARCH INSTITUTE
1/CM	TRANSMITTANCE
590.941	0.893
600.289	0.897
609.637	0.901
618.985	0.904
628.333	0.907
637.681	0.909
647.029	0.911
656.377	0.918
665.724	0.932
675.072	0.936
684.42	0.936
693.768	0.935
703.116	0.933
712.464	0.932
721.812	0.921
731.16	0.912
740.508	0.865
749.856	0.836
759.204	0.936
768.552	0.939
777.9	0.932
787.248	0.821
796.596	0.631
805.944	0.729
815.291	0.841
824.639	0.93
833.987	0.91
843.335	0.938
852.683	0.915
862.031	0.8
871.379	0.955
880.727	0.956
890.075	0.95
899.423	0.946
908.771	0.941
918.119	0.937
927.467	0.932
936.815	0.929
946.163	0.925
955.511	0.919
964.858	0.913
974.206	0.905
983.554	0.895
992.902	0.882
1002.25	0.872
1011.6	0.853
1020.95	0.829
1030.29	0.808
1039.64	0.783
1048.99	0.769
1058.34	0.763
1067.69	0.744
1077.03	0.713
1086.38	0.683
1095.73	0.663
1105.08	0.703
1114.43	0.729
1123.77	0.74
1133.12	0.733
1142.47	0.731
1151.82	0.769
1161.17	0.787
1170.51	0.793
1179.86	0.797
1189.21	0.806
1198.56	0.815
1207.9	0.804
1217.25	0.788
1226.6	0.821
1235.95	0.834
1245.3	0.831
1254.64	0.841
1263.99	0.842
1273.34	0.827
1282.69	0.804
1292.04	0.776
1301.38	0.792
1310.73	0.771
1320.08	0.757
1329.43	0.703
1338.78	0.638
1348.12	0.525
1357.47	0.4
1366.82	0.442
1376.17	0.546
1385.52	0.753
1394.86	0.784
1404.21	0.757
1413.56	0.703
1422.91	0.676
1432.26	0.6
1441.6	0.437
1450.95	0.329
1460.3	0.367
1469.65	0.329
1479	0.571
1488.34	0.555
1497.69	0.521
1507.04	0.815
1516.39	0.821
1525.73	0.808
1535.08	0.747
1544.43	0.666
1553.78	0.536
1563.13	0.384
1572.47	0.145
1581.82	0.145
1591.17	0.131
1600.52	0.235
1609.87	0.502
1619.21	0.639
1628.56	0.63
1637.91	0.407
1647.26	0.294
1656.61	0.556
1665.95	0.768
1675.3	0.836
1684.65	0.871
1694	0.895
1703.35	0.908
1712.69	0.913
1722.04	0.918
1731.39	0.923
1740.74	0.928
1750.09	0.934
1759.43	0.947
1768.78	0.949
1778.13	0.959
1787.48	0.968
1796.82	0.968
1806.17	0.968
1815.52	0.968
1824.87	0.968
1834.22	0.968
1843.56	0.968
1852.91	0.968
1862.26	0.968
1871.61	0.968
1880.96	0.967
1890.3	0.966
1899.65	0.964
1909	0.962
1918.35	0.96
1927.7	0.959
1937.04	0.956
1946.39	0.953
1955.74	0.952
1965.09	0.951
1974.44	0.949
1983.78	0.948
1993.13	0.948
2002.48	0.947
2011.83	0.946
2021.18	0.946
2030.52	0.943
2039.87	0.943
2049.22	0.942
2058.57	0.942
2067.92	0.941
2077.26	0.941
2086.61	0.941
2095.96	0.94
2105.31	0.94
2114.65	0.94
2124	0.939
2133.35	0.939
2142.7	0.939
2152.05	0.939
2161.39	0.939
2170.74	0.938
2180.09	0.937
2189.44	0.937
2198.79	0.937
2208.13	0.938
2217.48	0.938
2226.83	0.937
2236.18	0.936
2245.53	0.934
2254.87	0.933
2264.22	0.932
2273.57	0.932
2282.92	0.931
2292.27	0.929
2301.61	0.928
2310.96	0.927
2320.31	0.926
2329.66	0.925
2339.01	0.925
2348.35	0.924
2357.7	0.924
2367.05	0.924
2376.4	0.923
2385.74	0.922
2395.09	0.919
2404.44	0.919
2413.79	0.919
2423.14	0.918
2432.48	0.918
2441.83	0.918
2451.18	0.918
2460.53	0.917
2469.88	0.917
2479.22	0.916
2488.57	0.915
2497.92	0.915
2507.27	0.914
2516.62	0.914
2525.96	0.914
2535.31	0.912
2544.66	0.906
2554.01	0.899
2563.36	0.896
2572.7	0.894
2582.05	0.892
2591.4	0.892
2600.75	0.89
2610.1	0.888
2619.44	0.887
2628.79	0.885
2638.14	0.883
2647.49	0.882
2656.84	0.88
2666.18	0.878
2675.53	0.878
2684.88	0.875
2694.23	0.873
2703.57	0.871
2712.92	0.868
2722.27	0.863
2731.62	0.86
2740.97	0.858
2750.31	0.859
2759.66	0.861
2769.01	0.861
2778.36	0.858
2787.71	0.855
2797.05	0.853
2806.4	0.841
2815.75	0.833
2825.1	0.826
2834.45	0.815
2843.79	0.795
2853.14	0.754
2862.49	0.719
2871.84	0.721
2881.19	0.752
2890.53	0.762
2899.88	0.758
2909.23	0.736
2918.58	0.694
2927.93	0.639
2937.27	0.619
2946.62	0.694
2955.97	0.687
2965.32	0.659
2974.66	0.714
2984.01	0.784
2993.36	0.802
3002.71	0.804
3012.06	0.803
3021.4	0.797
3030.75	0.783
3040.1	0.767
3049.45	0.762
3058.8	0.758
3068.14	0.749
3077.49	0.737
3086.84	0.724
3096.19	0.709
3105.54	0.695
3114.88	0.675
3124.23	0.646
3133.58	0.625
3142.93	0.613
3152.28	0.605
3161.62	0.587
3170.97	0.56
3180.32	0.526
3189.67	0.486
3199.02	0.498
3208.36	0.519
3217.71	0.559
3227.06	0.602
3236.41	0.618
3245.76	0.622
3255.1	0.629
3264.45	0.641
3273.8	0.641
3283.15	0.609
3292.49	0.56
3301.84	0.505
3311.19	0.453
3320.54	0.447
3329.89	0.477
3339.23	0.526
3348.58	0.568
3357.93	0.588
3367.28	0.592
3376.63	0.585
3385.97	0.568
3395.32	0.565
3404.67	0.566
3414.02	0.589
3423.37	0.64
3432.71	0.678
3442.06	0.727
3451.41	0.75
3460.76	0.771
3470.11	0.791
3479.45	0.796
3488.8	0.802
3498.15	0.807
3507.5	0.814
3516.85	0.822
3526.19	0.833
3535.54	0.838
3544.89	0.841
3554.24	0.844
3563.58	0.846
3572.93	0.848
3582.28	0.849
3591.63	0.851
3600.98	0.856
3610.32	0.858
3619.67	0.859
3629.02	0.861
3638.37	0.863
3647.72	0.866
3657.06	0.865
3666.41	0.864
3675.76	0.862
3685.11	0.861
3694.46	0.861
3703.8	0.865
3713.15	0.868
3722.5	0.866
3731.85	0.863
3741.2	0.859
3750.54	0.851
3759.89	0.852
3769.24	0.861
3778.59	0.859
3787.94	0.858
3797.28	0.857
3806.63	0.854
3815.98	0.851
3825.33	0.851
3834.68	0.849
3844.02	0.848
3853.37	0.848
3862.72	0.847
3872.07	0.846
3881.41	0.846
3890.76	0.846
3900.11	0.846
3909.46	0.846
3918.81	0.846
3928.15	0.846
3937.5	0.846
3946.85	0.846
3956.2	0.845
3965.55	0.845
3974.89	0.845
3984.24	0.844
3993.59	0.842
4002.94	0.84
