Infrared Spectrum: PYRIMIDINE, 2,4,5,6-TETRAAMINO-, SULFATE
Formula: C4 H10 N6 O4 S
State: SOLID (1 mg / 650 mg KBr DISC)
Class: COBLENTZ III
Instrument: PERKIN-ELMER 221 (GRATING)
Instrument parameters: FILTER CHANGE AT 2490, 980 CM^-^1, GRATING FOR 4000-1428 CM^-^1, NaCl PRISM FOR 1428-650 CM^-^1
Sampling: TRANSMISSION
Resolution: 4
Origin: SOUTHERN RESEARCH INSTITUTE
1/CM	TRANSMITTANCE
624.198	0.539
633.222	0.555
642.246	0.569
651.27	0.591
660.294	0.604
669.318	0.609
678.343	0.628
687.367	0.638
696.391	0.643
705.415	0.645
714.439	0.645
723.463	0.644
732.487	0.642
741.511	0.638
750.535	0.623
759.559	0.581
768.583	0.627
777.607	0.689
786.632	0.714
795.656	0.728
804.68	0.731
813.704	0.728
822.728	0.719
831.752	0.71
840.776	0.701
849.8	0.695
858.824	0.686
867.848	0.685
876.872	0.687
885.896	0.687
894.921	0.681
903.945	0.678
912.969	0.675
921.993	0.663
931.017	0.651
940.041	0.632
949.065	0.617
958.089	0.572
967.113	0.544
976.137	0.543
985.161	0.529
994.185	0.501
1003.21	0.492
1012.23	0.486
1021.26	0.443
1030.28	0.391
1039.31	0.327
1048.33	0.294
1057.35	0.32
1066.38	0.322
1075.4	0.319
1084.43	0.318
1093.45	0.328
1102.47	0.347
1111.5	0.358
1120.52	0.382
1129.55	0.418
1138.57	0.445
1147.59	0.46
1156.62	0.461
1165.64	0.443
1174.67	0.438
1183.69	0.442
1192.72	0.452
1201.74	0.473
1210.76	0.514
1219.79	0.573
1228.81	0.608
1237.84	0.629
1246.86	0.653
1255.88	0.686
1264.91	0.713
1273.93	0.747
1282.96	0.762
1291.98	0.755
1301	0.745
1310.03	0.74
1319.05	0.727
1328.08	0.707
1337.1	0.677
1346.12	0.634
1355.15	0.632
1364.17	0.626
1373.2	0.616
1382.22	0.595
1391.25	0.594
1400.27	0.619
1409.29	0.64
1418.32	0.648
1427.34	0.648
1436.37	0.63
1445.39	0.57
1454.41	0.498
1463.44	0.474
1472.46	0.534
1481.49	0.641
1490.51	0.641
1499.53	0.618
1508.56	0.573
1517.58	0.577
1526.61	0.579
1535.63	0.539
1544.65	0.416
1553.68	0.393
1562.7	0.427
1571.73	0.47
1580.75	0.498
1589.78	0.489
1598.8	0.437
1607.82	0.365
1616.85	0.32
1625.87	0.248
1634.9	0.182
1643.92	0.14
1652.94	0.117
1661.97	0.129
1670.99	0.165
1680.02	0.202
1689.04	0.277
1698.06	0.336
1707.09	0.438
1716.11	0.494
1725.14	0.558
1734.16	0.616
1743.18	0.663
1752.21	0.709
1761.23	0.745
1770.26	0.77
1779.28	0.797
1788.31	0.827
1797.33	0.836
1806.35	0.85
1815.38	0.866
1824.4	0.872
1833.43	0.884
1842.45	0.891
1851.47	0.895
1860.5	0.897
1869.52	0.899
1878.55	0.898
1887.57	0.896
1896.59	0.895
1905.62	0.894
1914.64	0.889
1923.67	0.887
1932.69	0.885
1941.71	0.878
1950.74	0.877
1959.76	0.875
1968.79	0.871
1977.81	0.864
1986.83	0.852
1995.86	0.847
2004.88	0.838
2013.91	0.834
2022.93	0.83
2031.96	0.826
2040.98	0.822
2050	0.82
2059.03	0.818
2068.05	0.817
2077.08	0.816
2086.1	0.813
2095.12	0.81
2104.15	0.808
2113.17	0.806
2122.2	0.803
2131.22	0.801
2140.24	0.8
2149.27	0.798
2158.29	0.795
2167.32	0.791
2176.34	0.787
2185.36	0.784
2194.39	0.782
2203.41	0.776
2212.44	0.772
2221.46	0.767
2230.49	0.763
2239.51	0.758
2248.53	0.749
2257.56	0.746
2266.58	0.74
2275.61	0.736
2284.63	0.732
2293.65	0.729
2302.68	0.726
2311.7	0.723
2320.73	0.706
2329.75	0.7
2338.77	0.697
2347.8	0.692
2356.82	0.682
2365.85	0.679
2374.87	0.682
2383.89	0.683
2392.92	0.68
2401.94	0.676
2410.97	0.672
2419.99	0.666
2429.02	0.659
2438.04	0.657
2447.06	0.649
2456.09	0.646
2465.11	0.645
2474.14	0.645
2483.16	0.644
2492.18	0.632
2501.21	0.625
2510.23	0.618
2519.26	0.615
2528.28	0.612
2537.3	0.608
2546.33	0.6
2555.35	0.59
2564.38	0.587
2573.4	0.583
2582.42	0.579
2591.45	0.575
2600.47	0.573
2609.5	0.572
2618.52	0.572
2627.54	0.571
2636.57	0.57
2645.59	0.568
2654.62	0.568
2663.64	0.57
2672.67	0.571
2681.69	0.573
2690.71	0.573
2699.74	0.57
2708.76	0.568
2717.79	0.567
2726.81	0.565
2735.83	0.565
2744.86	0.564
2753.88	0.563
2762.91	0.56
2771.93	0.556
2780.95	0.553
2789.98	0.548
2799	0.541
2808.03	0.536
2817.05	0.528
2826.07	0.523
2835.1	0.521
2844.12	0.521
2853.15	0.52
2862.17	0.519
2871.2	0.515
2880.22	0.51
2889.24	0.5
2898.27	0.495
2907.29	0.492
2916.32	0.489
2925.34	0.487
2934.36	0.487
2943.39	0.487
2952.41	0.486
2961.44	0.486
2970.46	0.485
2979.48	0.483
2988.51	0.481
2997.53	0.479
3006.56	0.476
3015.58	0.468
3024.6	0.457
3033.63	0.45
3042.65	0.44
3051.68	0.431
3060.7	0.417
3069.73	0.41
3078.75	0.398
3087.77	0.386
3096.8	0.379
3105.82	0.35
3114.85	0.339
3123.87	0.329
3132.89	0.317
3141.92	0.31
3150.94	0.304
3159.97	0.303
3168.99	0.303
3178.01	0.303
3187.04	0.306
3196.06	0.313
3205.09	0.322
3214.11	0.332
3223.13	0.339
3232.16	0.353
3241.18	0.358
3250.21	0.369
3259.23	0.373
3268.26	0.371
3277.28	0.359
3286.3	0.352
3295.33	0.338
3304.35	0.327
3313.38	0.313
3322.4	0.302
3331.42	0.281
3340.45	0.278
3349.47	0.277
3358.5	0.278
3367.52	0.28
3376.54	0.286
3385.57	0.294
3394.59	0.295
3403.62	0.295
3412.64	0.295
3421.66	0.298
3430.69	0.301
3439.71	0.302
3448.74	0.306
3457.76	0.33
3466.78	0.353
3475.81	0.384
3484.83	0.458
3493.86	0.503
3502.88	0.528
3511.91	0.559
3520.93	0.587
3529.95	0.598
3538.98	0.618
3548	0.64
3557.03	0.663
3566.05	0.678
3575.07	0.7
3584.1	0.721
3593.12	0.746
3602.15	0.756
3611.17	0.776
3620.19	0.791
3629.22	0.819
3638.24	0.832
3647.27	0.835
3656.29	0.848
3665.31	0.858
3674.34	0.86
3683.36	0.862
3692.39	0.865
3701.41	0.866
3710.44	0.863
3719.46	0.861
3728.48	0.858
3737.51	0.856
3746.53	0.857
3755.56	0.859
3764.58	0.86
3773.6	0.86
3782.63	0.86
3791.65	0.86
3800.68	0.858
3809.7	0.849
3818.72	0.846
3827.75	0.842
3836.77	0.84
3845.8	0.839
3854.82	0.839
3863.84	0.838
3872.87	0.837
3881.89	0.837
3890.92	0.837
3899.94	0.837
3908.97	0.837
3917.99	0.837
3927.01	0.837
3936.04	0.836
3945.06	0.836
3954.09	0.837
3963.11	0.838
3972.13	0.838
3981.16	0.838
3990.18	0.838
3999.21	0.838
4008.23	0.838
