Infrared Spectrum: 2-NAPHTHYLAMINE, N-BENZYLIDENE-1-(PHENYLAZO)-, HYDROGEN TETRAFLUOROBORATE
Formula: C23 H18 B F4 N3
State: SOLID (KBr DISC)
Class: COBLENTZ III
Instrument: UNICAM SP-200
Sampling: TRANSMISSION
Resolution: 4
Origin: HUNGARIAN ACAD. OF SCI., VIA SCIENTIFIC DOC. CENTRE LTD.
1/CM	TRANSMITTANCE
650.791	0.624
661.863	0.666
672.935	0.5601
684.007	0.506
695.079	0.569
706.151	0.486
717.224	0.621
728.296	0.653
739.368	0.509
750.44	0.2671
761.512	0.298
772.584	0.463
783.656	0.619
794.728	0.724
805.8	0.738
816.872	0.725
827.945	0.574
839.017	0.369
850.089	0.494
861.161	0.663
872.233	0.644
883.305	0.663
894.377	0.604
905.449	0.684
916.521	0.694
927.593	0.705
938.666	0.701
949.738	0.5833
960.81	0.593
971.882	0.512
982.954	0.368
994.026	0.28
1005.1	0.275
1016.17	0.332
1027.24	0.233
1038.31	0.15
1049.39	0.175
1060.46	0.132
1071.53	0.105
1082.6	0.064
1093.67	0.094
1104.75	0.115
1115.82	0.136
1126.89	0.225
1137.96	0.317
1149.04	0.346
1160.11	0.362
1171.18	0.453
1182.25	0.296
1193.32	0.291
1204.4	0.2481
1215.47	0.433
1226.54	0.494
1237.61	0.48
1248.68	0.178
1259.76	0.32
1270.83	0.47
1281.9	0.463
1292.97	0.457
1304.04	0.475
1315.12	0.442
1326.19	0.367
1337.26	0.471
1348.33	0.53
1359.41	0.603
1370.48	0.629
1381.55	0.424
1392.62	0.507
1403.69	0.58
1414.77	0.399
1425.84	0.178
1436.91	0.234
1447.98	0.38
1459.05	0.224
1470.13	0.492
1481.2	0.5739
1492.27	0.352
1503.34	0.538
1514.41	0.635
1525.49	0.66
1536.56	0.664
1547.63	0.512
1558.7	0.5
1569.78	0.403
1580.85	0.445
1591.92	0.374
1602.99	0.181
1614.06	0.41
1625.14	0.601
1636.21	0.65
1647.28	0.666
1658.35	0.687
1669.42	0.699
1680.5	0.705
1691.57	0.703
1702.64	0.709
1713.71	0.714
1724.78	0.721
1735.86	0.725
1746.93	0.73
1758	0.731
1769.07	0.729
1780.14	0.729
1791.22	0.73
1802.29	0.734
1813.36	0.731
1824.43	0.733
1835.51	0.728
1846.58	0.732
1857.65	0.73
1868.72	0.731
1879.79	0.732
1890.87	0.731
1901.94	0.73
1913.01	0.728
1924.08	0.724
1935.15	0.721
1946.23	0.718
1957.3	0.716
1968.37	0.715
1979.44	0.717
1990.51	0.715
2001.59	0.7195
2012.66	0.721
2023.73	0.722
2034.8	0.724
2045.88	0.723
2056.95	0.7221
2068.02	0.721
2079.09	0.72
2090.16	0.7177
2101.24	0.7162
2112.31	0.715
2123.38	0.716
2134.45	0.714
2145.52	0.7134
2156.6	0.709
2167.67	0.708
2178.74	0.707
2189.81	0.706
2200.88	0.705
2211.96	0.7025
2223.03	0.701
2234.1	0.7
2245.17	0.6991
2256.24	0.6929
2267.32	0.688
2278.39	0.685
2289.46	0.684
2300.53	0.683
2311.61	0.683
2322.68	0.682
2333.75	0.682
2344.82	0.6819
2355.89	0.6761
2366.97	0.6531
2378.04	0.6344
2389.11	0.624
2400.18	0.6164
2411.25	0.605
2422.33	0.5966
2433.4	0.5911
2444.47	0.5775
2455.54	0.5635
2466.61	0.5453
2477.69	0.5402
2488.76	0.5378
2499.83	0.5277
2510.9	0.518
2521.98	0.5064
2533.05	0.499
2544.12	0.4963
2555.19	0.4877
2566.26	0.4834
2577.34	0.482
2588.41	0.481
2599.48	0.479
2610.55	0.4725
2621.62	0.4651
2632.7	0.461
2643.77	0.46
2654.84	0.462
2665.91	0.4649
2676.98	0.4683
2688.06	0.4698
2699.13	0.4697
2710.2	0.467
2721.27	0.462
2732.35	0.4617
2743.42	0.4628
2754.49	0.46
2765.56	0.4621
2776.63	0.467
2787.71	0.468
2798.78	0.4665
2809.85	0.466
2820.92	0.469
2831.99	0.47
2843.07	0.47
2854.14	0.47
2865.21	0.4686
2876.28	0.467
2887.35	0.465
2898.43	0.4696
2909.5	0.473
2920.57	0.4723
2931.64	0.4718
2942.71	0.4679
2953.79	0.4588
2964.86	0.4537
2975.93	0.4457
2987	0.4384
2998.08	0.4381
3009.15	0.4486
3020.22	0.455
3031.29	0.4644
3042.36	0.4729
3053.44	0.4804
3064.51	0.4829
3075.58	0.484
3086.65	0.484
3097.72	0.482
3108.8	0.4782
3119.87	0.4717
3130.94	0.4549
3142.01	0.4344
3153.08	0.4213
3164.16	0.4188
3175.23	0.4209
3186.3	0.4315
3197.37	0.4426
3208.45	0.465
3219.52	0.47
3230.59	0.4809
3241.66	0.4895
3252.73	0.4919
3263.81	0.4974
3274.88	0.5009
3285.95	0.4986
3297.02	0.4952
3308.09	0.4897
3319.17	0.4852
3330.24	0.484
3341.31	0.4874
3352.38	0.491
3363.45	0.489
3374.53	0.4881
3385.6	0.489
3396.67	0.494
3407.74	0.4986
3418.82	0.504
3429.89	0.511
3440.96	0.522
3452.03	0.5309
3463.1	0.5428
3474.18	0.558
3485.25	0.5665
3496.32	0.5717
3507.39	0.5796
3518.46	0.5853
3529.54	0.589
3540.61	0.591
3551.68	0.5981
3562.75	0.6062
3573.82	0.609
3584.9	0.6131
3595.97	0.6196
3607.04	0.623
3618.11	0.625
3629.18	0.628
3640.26	0.631
3651.33	0.637
3662.4	0.633
3673.47	0.6281
3684.55	0.6274
3695.62	0.6299
3706.69	0.6323
3717.76	0.633
3728.83	0.635
3739.91	0.6333
3750.98	0.63
3762.05	0.6269
3773.12	0.623
3784.19	0.6214
3795.27	0.6209
3806.34	0.6184
3817.41	0.6159
3828.48	0.606
3839.55	0.611
3850.63	0.6125
3861.7	0.6121
3872.77	0.608
3883.84	0.6109
3894.92	0.6124
3905.99	0.6122
3917.06	0.609
3928.13	0.6064
3939.2	0.6053
3950.28	0.607
3961.35	0.606
3972.42	0.604
3983.49	0.6018
3994.56	0.6
4005.64	0.6021
4016.71	0.6036
4027.78	0.604
4038.85	0.601
4049.92	0.601
4061	0.6049
4072.07	0.6031
4083.14	0.601
4094.21	0.599
4105.29	0.5976
4116.36	0.5978
4127.43	0.5967
4138.5	0.595
4149.57	0.597
4160.65	0.5973
4171.72	0.594
4182.79	0.5957
4193.86	0.598
4204.93	0.5984
4216.01	0.5971
4227.08	0.599
4238.15	0.601
4249.22	0.5995
4260.29	0.598
4271.37	0.5917
4282.44	0.589
4293.51	0.591
4304.58	0.592
4315.65	0.592
4326.73	0.5912
4337.8	0.592
4348.87	0.592
4359.94	0.5885
4371.02	0.5793
4382.09	0.5802
4393.16	0.5793
4404.23	0.5781
4415.3	0.58
4426.38	0.5811
4437.45	0.58
4448.52	0.58
4459.59	0.5805
4470.66	0.582
4481.74	0.5776
4492.81	0.5741
4503.88	0.574
4514.95	0.575
4526.02	0.5747
4537.1	0.5732
4548.17	0.573
4559.24	0.5765
4570.31	0.5788
4581.39	0.577
4592.46	0.5748
4603.53	0.571
4614.6	0.57
4625.67	0.57
4636.75	0.57
4647.82	0.57
4658.89	0.569
4669.96	0.568
4681.03	0.566
4692.11	0.563
4703.18	0.5659
4714.25	0.568
4725.32	0.568
4736.39	0.568
4747.47	0.568
4758.54	0.5677
4769.61	0.567
4780.68	0.5658
4791.76	0.5633
4802.83	0.564
4813.9	0.565
4824.97	0.563
4836.04	0.5609
4847.12	0.558
4858.19	0.556
4869.26	0.554
4880.33	0.553
4891.4	0.553
4902.48	0.552
4913.55	0.5501
4924.62	0.5517
4935.69	0.5558
4946.76	0.5537
4957.84	0.5512
