Infrared Spectrum: CHROMIUM(OUS) OXALATE
Formula: Cr C2 O4  * H2 O
State: SOLID (KBr DISC)
Class: COBLENTZ
Instrument: Not specified, most likely a prism, grating, or hybrid spectrometer.
Sampling: TRANSMISSION
Resolution: 4
MICROMETERS	TRANSMITTANCE
1.974	0.78
2.01194	0.784
2.04988	0.793
2.08782	0.8
2.12577	0.809
2.16371	0.817
2.20165	0.832
2.23959	0.842
2.27753	0.855
2.31547	0.861
2.35342	0.873
2.39136	0.884
2.4293	0.885
2.46724	0.89
2.50518	0.897
2.54312	0.903
2.58106	0.915
2.61901	0.924
2.65695	0.928
2.69489	0.913
2.73283	0.748
2.77077	0.54
2.80871	0.417
2.84665	0.343
2.8846	0.288
2.92254	0.264
2.96048	0.28
2.99842	0.301
3.03636	0.313
3.0743	0.322
3.11225	0.331
3.15019	0.331
3.18813	0.334
3.22607	0.334
3.26401	0.335
3.30195	0.35
3.33989	0.359
3.37784	0.374
3.41578	0.389
3.45372	0.401
3.49166	0.424
3.5296	0.447
3.56754	0.465
3.60549	0.488
3.64343	0.515
3.68137	0.543
3.71931	0.567
3.75725	0.585
3.79519	0.6
3.83313	0.618
3.87108	0.63
3.90902	0.635
3.94696	0.646
3.9849	0.652
4.02284	0.656
4.06078	0.664
4.09873	0.671
4.13667	0.683
4.17461	0.69
4.21255	0.692
4.25049	0.693
4.28843	0.701
4.32637	0.728
4.36432	0.756
4.40226	0.774
4.4402	0.784
4.47814	0.793
4.51608	0.8
4.55402	0.808
4.59196	0.815
4.62991	0.818
4.66785	0.826
4.70579	0.833
4.74373	0.839
4.78167	0.846
4.81961	0.851
4.85756	0.854
4.8955	0.855
4.93344	0.857
4.97138	0.86
5.00932	0.86
5.04726	0.863
5.0852	0.864
5.12315	0.86
5.16109	0.855
5.19903	0.851
5.23697	0.843
5.27491	0.832
5.31285	0.823
5.3508	0.805
5.38874	0.79
5.42668	0.766
5.46462	0.736
5.50256	0.707
5.5405	0.658
5.57844	0.603
5.61639	0.505
5.65433	0.368
5.69227	0.216
5.73021	0.153
5.76815	0.124
5.80609	0.118
5.84404	0.135
5.88198	0.142
5.91992	0.132
5.95786	0.132
5.9958	0.139
6.03374	0.139
6.07168	0.118
6.10963	0.108
6.14757	0.106
6.18551	0.112
6.22345	0.132
6.26139	0.184
6.29933	0.243
6.33727	0.322
6.37522	0.386
6.41316	0.436
6.4511	0.472
6.48904	0.514
6.52698	0.549
6.56492	0.588
6.60287	0.603
6.64081	0.619
6.67875	0.609
6.71669	0.56
6.75463	0.534
6.79257	0.497
6.83051	0.424
6.86846	0.343
6.9064	0.337
6.94434	0.369
6.98228	0.399
7.02022	0.407
7.05816	0.384
7.09611	0.362
7.13405	0.346
7.17199	0.344
7.20993	0.372
7.24787	0.404
7.28581	0.436
7.32375	0.479
7.3617	0.518
7.39964	0.543
7.43758	0.563
7.47552	0.575
7.51346	0.545
7.5514	0.494
7.58935	0.485
7.62729	0.515
7.66523	0.52
7.70317	0.487
7.74111	0.457
7.77905	0.43
7.81699	0.405
7.85494	0.392
7.89288	0.392
7.93082	0.396
7.96876	0.402
8.0067	0.43
8.04464	0.457
8.08258	0.487
8.12053	0.526
8.15847	0.557
8.19641	0.582
8.23435	0.6
8.27229	0.622
8.31023	0.634
8.34818	0.655
8.38612	0.668
8.42406	0.683
8.462	0.693
8.49994	0.701
8.53788	0.711
8.57582	0.716
8.61377	0.722
8.65171	0.728
8.68965	0.738
8.72759	0.742
8.76553	0.745
8.80347	0.751
8.84142	0.756
8.87936	0.76
8.9173	0.768
8.95524	0.769
8.99318	0.774
9.03112	0.777
9.06906	0.778
9.10701	0.781
9.14495	0.784
9.18289	0.784
9.22083	0.787
9.25877	0.789
9.29671	0.79
9.33465	0.791
9.3726	0.791
9.41054	0.79
9.44848	0.789
9.48642	0.789
9.52436	0.79
9.5623	0.791
9.60025	0.791
9.63819	0.791
9.67613	0.791
9.71407	0.791
9.75201	0.791
9.78995	0.791
9.82789	0.79
9.86584	0.79
9.90378	0.791
9.94172	0.791
9.97966	0.793
10.0176	0.791
10.0555	0.79
10.0935	0.789
10.1314	0.787
10.1694	0.786
10.2073	0.781
10.2453	0.78
10.2832	0.777
10.3211	0.775
10.3591	0.772
10.397	0.771
10.435	0.768
10.4729	0.765
10.5108	0.759
10.5488	0.748
10.5867	0.742
10.6247	0.735
10.6626	0.726
10.7005	0.708
10.7385	0.692
10.7764	0.677
10.8144	0.659
10.8523	0.644
10.8903	0.63
10.9282	0.625
10.9661	0.627
11.0041	0.63
11.042	0.632
11.08	0.635
11.1179	0.638
11.1558	0.65
11.1938	0.658
11.2317	0.665
11.2697	0.668
11.3076	0.673
11.3456	0.673
11.3835	0.671
11.4214	0.67
11.4594	0.665
11.4973	0.662
11.5353	0.659
11.5732	0.655
11.6111	0.652
11.6491	0.647
11.687	0.637
11.725	0.63
11.7629	0.621
11.8009	0.61
11.8388	0.595
11.8767	0.579
11.9147	0.564
11.9526	0.546
11.9906	0.523
12.0285	0.488
12.0664	0.447
12.1044	0.402
12.1423	0.358
12.1803	0.326
12.2182	0.304
12.2562	0.288
12.2941	0.283
12.332	0.283
12.37	0.3
12.4079	0.331
12.4459	0.367
12.4838	0.399
12.5217	0.423
12.5597	0.451
12.5976	0.479
12.6356	0.497
12.6735	0.521
12.7115	0.536
12.7494	0.555
12.7873	0.563
12.8253	0.569
12.8632	0.576
12.9012	0.579
12.9391	0.583
12.977	0.589
13.015	0.589
13.0529	0.591
13.0909	0.595
13.1288	0.598
13.1667	0.604
13.2047	0.604
13.2426	0.606
13.2806	0.607
13.3185	0.607
13.3565	0.609
13.3944	0.613
13.4323	0.612
13.4703	0.613
13.5082	0.615
13.5462	0.618
13.5841	0.618
13.622	0.616
13.66	0.615
13.6979	0.616
13.7359	0.616
13.7738	0.616
13.8118	0.616
13.8497	0.615
13.8876	0.616
13.9256	0.616
13.9635	0.616
14.0015	0.616
14.0394	0.616
14.0773	0.616
14.1153	0.618
14.1532	0.618
14.1912	0.618
14.2291	0.618
14.2671	0.618
14.305	0.618
14.3429	0.619
14.3809	0.618
14.4188	0.619
14.4568	0.621
14.4947	0.621
14.5326	0.619
14.5706	0.618
14.6085	0.618
14.6465	0.618
14.6844	0.618
14.7224	0.618
14.7603	0.618
14.7982	0.618
14.8362	0.616
14.8741	0.615
14.9121	0.613
14.95	0.613
