Infrared Spectrum: DIPHENYLAMINE, 4-AMINO-, MONO-HYDROCHLORIDE
Formula: C12 H13 Cl N2
State: SOLID (SPLIT MULL)
Class: COBLENTZ III
Instrument: DOW KBr FOREPRISM-GRATING
Instrument parameters: BLAZED AT 3.5, 12.0, 20.0 MICRON AND CHANGED AT 5.0, 7.5, 14.9 MICRON
Sampling: TRANSMISSION
Resolution: 2
Origin: DOW CHEMICAL COMPANY
1/CM	TRANSMITTANCE
449	0.7769
458	0.7668
467	0.7562
476	0.7526
485	0.7071
494	0.6405
503	0.6027
512	0.8158
521	0.8114
530	0.8032
539	0.8339
548	0.8494
557	0.8585
566	0.8655
575	0.8737
584	0.8815
593	0.8823
602	0.8623
611	0.7951
620	0.8107
629	0.8578
638	0.8717
647	0.8607
656	0.8748
665	0.8751
674	0.8215
683	0.8018
692	0.5832
701	0.6645
710	0.7921
719	0.7611
728	0.7396
737	0.6042
746	0.4899
755	0.7203
764	0.7742
773	0.6561
782	0.7637
791	0.8153
800	0.803
809	0.6259
818	0.6279
827	0.6951
836	0.7697
845	0.7715
854	0.8208
863	0.8249
872	0.8157
881	0.7978
890	0.8095
899	0.8251
908	0.8223
917	0.8211
926	0.823
935	0.8204
944	0.8176
953	0.8146
962	0.8111
971	0.8168
980	0.8217
989	0.8255
998	0.8195
1007	0.8168
1016	0.8118
1025	0.7783
1034	0.8144
1043	0.8131
1052	0.8097
1061	0.7969
1070	0.7295
1079	0.7591
1088	0.8095
1097	0.8007
1106	0.7736
1115	0.7396
1124	0.7096
1133	0.7661
1142	0.7768
1151	0.7481
1160	0.7656
1169	0.6894
1178	0.7286
1187	0.7951
1196	0.7765
1205	0.6835
1214	0.7882
1223	0.7636
1232	0.7636
1241	0.7681
1250	0.7397
1259	0.7217
1268	0.7318
1277	0.7421
1286	0.7215
1295	0.6764
1304	0.5998
1313	0.4369
1322	0.3538
1331	0.5052
1340	0.5698
1349	0.6596
1358	0.7428
1367	0.7897
1376	0.7912
1385	0.7888
1394	0.7834
1403	0.7511
1412	0.7051
1421	0.7797
1430	0.7675
1439	0.7434
1448	0.6972
1457	0.7284
1466	0.7118
1475	0.6712
1484	0.6041
1493	0.2701
1502	0.4092
1511	0.2034
1520	0.0831
1529	0.1248
1538	0.675
1547	0.7855
1556	0.8028
1565	0.7728
1574	0.7008
1583	0.5864
1592	0.4037
1601	0.2531
1610	0.6048
1619	0.6179
1628	0.5922
1637	0.8533
1646	0.87
1655	0.8774
1664	0.8828
1673	0.8868
1682	0.8875
1691	0.8856
1700	0.8828
1709	0.8784
1718	0.8728
1727	0.8774
1736	0.8753
1745	0.8707
1754	0.8694
1763	0.8691
1772	0.8678
1781	0.8633
1790	0.8588
1799	0.8553
1808	0.8534
1817	0.8502
1826	0.8459
1835	0.8406
1844	0.8346
1853	0.8292
1862	0.8268
1871	0.8228
1880	0.8075
1889	0.8047
1898	0.8097
1907	0.8051
1916	0.7935
1925	0.7771
1934	0.764
1943	0.7525
1952	0.7465
1961	0.7485
1970	0.7536
1979	0.7628
1988	0.7787
1997	0.828
2006	0.8405
2015	0.8483
2024	0.8575
2033	0.8646
2042	0.8735
2051	0.8718
2060	0.8714
2069	0.869
2078	0.865
2087	0.8609
2096	0.8567
2105	0.8518
2114	0.8471
2123	0.8432
2132	0.8394
2141	0.8354
2150	0.8318
2159	0.8296
2168	0.8275
2177	0.8253
2186	0.8221
2195	0.8191
2204	0.8151
2213	0.8104
2222	0.8058
2231	0.8011
2240	0.7964
2249	0.7918
2258	0.7878
2267	0.7837
2276	0.7795
2285	0.7762
2294	0.7741
2303	0.7715
2312	0.7684
2321	0.7651
2330	0.7621
2339	0.7601
2348	0.7596
2357	0.7568
2366	0.7538
2375	0.7492
2384	0.7443
2393	0.7393
2402	0.7344
2411	0.7292
2420	0.7239
2429	0.7178
2438	0.7104
2447	0.7028
2456	0.6954
2465	0.6872
2474	0.6786
2483	0.6699
2492	0.6611
2501	0.6506
2510	0.6312
2519	0.6125
2528	0.5933
2537	0.573
2546	0.5529
2555	0.5197
2564	0.4834
2573	0.4222
2582	0.365
2591	0.3624
2600	0.3564
2609	0.3562
2618	0.36
2627	0.3828
2636	0.4448
2645	0.5457
2654	0.56
2663	0.5544
2672	0.5312
2681	0.5071
2690	0.4899
2699	0.4845
2708	0.4771
2717	0.4666
2726	0.4525
2735	0.4346
2744	0.4103
2753	0.3923
2762	0.3753
2771	0.352
2780	0.329
2789	0.3068
2798	0.2839
2807	0.2601
2816	0.2383
2825	0.2166
2834	0.1985
2843	0.1821
2852	0.1656
2861	0.1496
2870	0.1351
2879	0.1252
2888	0.1156
2897	0.1183
2906	0.1324
2915	0.1455
2924	0.1621
2933	0.1914
2942	0.2161
2951	0.2354
2960	0.2392
2969	0.2402
2978	0.2546
2987	0.2763
2996	0.3057
3005	0.3337
3014	0.379
3023	0.4136
3032	0.4265
3041	0.4415
3050	0.4824
3059	0.5119
3068	0.5512
3077	0.5907
3086	0.6157
3095	0.6309
3104	0.6425
3113	0.6575
3122	0.6705
3131	0.6785
3140	0.6778
3149	0.6799
3158	0.6858
3167	0.6941
3176	0.7041
3185	0.7138
3194	0.7196
3203	0.7225
3212	0.721
3221	0.7171
3230	0.7125
3239	0.7071
3248	0.6986
3257	0.6898
3266	0.6784
3275	0.6654
3284	0.6431
3293	0.6173
3302	0.5724
3311	0.5068
3320	0.3702
3329	0.3592
3338	0.3932
3347	0.5539
3356	0.6734
3365	0.7265
3374	0.7364
3383	0.7375
3392	0.7371
3401	0.736
3410	0.7348
3419	0.7334
3428	0.7318
3437	0.73
3446	0.7282
3455	0.7262
3464	0.7242
3473	0.7219
3482	0.7198
3491	0.7176
3500	0.7155
3509	0.7133
3518	0.7111
3527	0.709
3536	0.7068
3545	0.7045
3554	0.7022
3563	0.7
3572	0.6978
3581	0.6958
3590	0.6938
3599	0.6918
3608	0.6898
3617	0.6878
3626	0.686
3635	0.6846
3644	0.6833
3653	0.6818
3662	0.6805
3671	0.6791
3680	0.6778
3689	0.6768
3698	0.6757
3707	0.6745
3716	0.6732
3725	0.671
3734	0.6688
3743	0.6664
3752	0.6637
3761	0.6608
3770	0.6588
3779	0.6571
3788	0.6553
3797	0.6537
