Infrared Spectrum: STEARIC ACID, STRONTIUM SALT
Formula: C36 H70 O4 Sr
State: SOLID (OIL MULL)
Class: COBLENTZ III
Instrument: BAIRD (PRISM)
Instrument parameters: NaCl PRISM
Sampling: TRANSMISSION
Resolution: 2
Origin: WYANDOTTE CHEMICALS CORP.
MICROMETERS	TRANSMITTANCE
1.956	0.947
1.99421	0.946
2.03242	0.941
2.07062	0.947
2.10883	0.947
2.14704	0.941
2.18525	0.928
2.22346	0.897
2.26167	0.888
2.29987	0.877
2.33808	0.881
2.37629	0.886
2.4145	0.906
2.45271	0.913
2.49091	0.915
2.52912	0.915
2.56733	0.923
2.60554	0.927
2.64375	0.928
2.68196	0.927
2.72016	0.907
2.75837	0.885
2.79658	0.85
2.83479	0.845
2.873	0.84
2.9112	0.826
2.94941	0.824
2.98762	0.821
3.02583	0.821
3.06404	0.824
3.10225	0.819
3.14045	0.809
3.17866	0.806
3.21687	0.795
3.25508	0.761
3.29329	0.69
3.3315	0.404
3.3697	0.035
3.40791	0.035
3.44612	0.032
3.48433	0.038
3.52254	0.064
3.56074	0.508
3.59895	0.706
3.63716	0.775
3.67537	0.778
3.71358	0.79
3.75179	0.806
3.78999	0.811
3.8282	0.822
3.86641	0.84
3.90462	0.857
3.94283	0.876
3.98103	0.885
4.01924	0.904
4.05745	0.905
4.09566	0.901
4.13387	0.905
4.17208	0.906
4.21028	0.903
4.24849	0.903
4.2867	0.907
4.32491	0.922
4.36312	0.933
4.40132	0.921
4.43953	0.912
4.47774	0.912
4.51595	0.917
4.55416	0.918
4.59237	0.919
4.63057	0.928
4.66878	0.924
4.70699	0.924
4.7452	0.924
4.78341	0.928
4.82161	0.928
4.85982	0.928
4.89803	0.925
4.93624	0.927
4.97445	0.927
5.01266	0.919
5.05086	0.921
5.08907	0.923
5.12728	0.922
5.16549	0.922
5.2037	0.921
5.2419	0.921
5.28011	0.918
5.31832	0.917
5.35653	0.918
5.39474	0.919
5.43295	0.918
5.47115	0.916
5.50936	0.916
5.54757	0.916
5.58578	0.915
5.62399	0.912
5.6622	0.907
5.7004	0.899
5.73861	0.854
5.77682	0.842
5.81503	0.852
5.85324	0.854
5.89144	0.855
5.92965	0.854
5.96786	0.843
6.00607	0.811
6.04428	0.779
6.08249	0.757
6.12069	0.732
6.1589	0.722
6.19711	0.672
6.23532	0.566
6.27353	0.415
6.31173	0.289
6.34994	0.253
6.38815	0.244
6.42636	0.193
6.46457	0.169
6.50278	0.124
6.54098	0.112
6.57919	0.074
6.6174	0.18
6.65561	0.401
6.69382	0.5
6.73202	0.433
6.77023	0.192
6.80844	0.066
6.84665	0.083
6.88486	0.09
6.92307	0.162
6.96127	0.26
6.99948	0.364
7.03769	0.383
7.0759	0.334
7.11411	0.349
7.15231	0.523
7.19052	0.604
7.22873	0.471
7.26694	0.339
7.30515	0.501
7.34336	0.575
7.38156	0.645
7.41977	0.651
7.45798	0.662
7.49619	0.653
7.5344	0.69
7.5726	0.659
7.61081	0.692
7.64902	0.702
7.68723	0.677
7.72544	0.68
7.76365	0.684
7.80185	0.712
7.84006	0.693
7.87827	0.735
7.91648	0.738
7.95469	0.738
7.9929	0.742
8.0311	0.757
8.06931	0.764
8.10752	0.75
8.14573	0.754
8.18394	0.775
8.22214	0.777
8.26035	0.759
8.29856	0.767
8.33677	0.783
8.37498	0.794
8.41319	0.771
8.45139	0.785
8.4896	0.801
8.52781	0.799
8.56602	0.794
8.60423	0.8
8.64243	0.805
8.68064	0.813
8.71885	0.82
8.75706	0.822
8.79527	0.822
8.83348	0.821
8.87168	0.824
8.90989	0.803
8.9481	0.752
8.98631	0.744
9.02452	0.754
9.06272	0.765
9.10093	0.772
9.13914	0.799
9.17735	0.814
9.21556	0.812
9.25377	0.813
9.29197	0.811
9.33018	0.807
9.36839	0.802
9.4066	0.803
9.44481	0.805
9.48301	0.811
9.52122	0.813
9.55943	0.811
9.59764	0.812
9.63585	0.813
9.67406	0.814
9.71226	0.811
9.75047	0.814
9.78868	0.815
9.82689	0.813
9.8651	0.814
9.9033	0.811
9.94151	0.818
9.97972	0.822
10.0179	0.83
10.0561	0.828
10.0943	0.827
10.1326	0.826
10.1708	0.826
10.209	0.82
10.2472	0.816
10.2854	0.811
10.3236	0.812
10.3618	0.813
10.4	0.811
10.4382	0.818
10.4764	0.819
10.5146	0.819
10.5528	0.818
10.5911	0.818
10.6293	0.813
10.6675	0.8
10.7057	0.773
10.7439	0.757
10.7821	0.765
10.8203	0.787
10.8585	0.802
10.8967	0.815
10.9349	0.818
10.9731	0.82
11.0113	0.825
11.0496	0.827
11.0878	0.828
11.126	0.828
11.1642	0.827
11.2024	0.818
11.2406	0.813
11.2788	0.809
11.317	0.815
11.3552	0.821
11.3934	0.822
11.4316	0.821
11.4698	0.821
11.508	0.822
11.5463	0.822
11.5845	0.824
11.6227	0.821
11.6609	0.82
11.6991	0.816
11.7373	0.811
11.7755	0.807
11.8137	0.807
11.8519	0.806
11.8901	0.808
11.9283	0.813
11.9665	0.814
12.0048	0.818
12.043	0.815
12.0812	0.814
12.1194	0.816
12.1576	0.818
12.1958	0.816
12.234	0.814
12.2722	0.813
12.3104	0.808
12.3486	0.802
12.3868	0.802
12.425	0.803
12.4633	0.809
12.5015	0.813
12.5397	0.813
12.5779	0.811
12.6161	0.808
12.6543	0.803
12.6925	0.8
12.7307	0.796
12.7689	0.776
12.8071	0.764
12.8453	0.769
12.8835	0.791
12.9218	0.793
12.96	0.793
12.9982	0.789
13.0364	0.79
13.0746	0.789
13.1128	0.783
13.151	0.779
13.1892	0.781
13.2274	0.781
13.2656	0.781
13.3038	0.783
13.342	0.778
13.3803	0.776
13.4185	0.766
13.4567	0.759
13.4949	0.747
13.5331	0.73
13.5713	0.717
13.6095	0.717
13.6477	0.709
13.6859	0.691
13.7241	0.659
13.7623	0.63
13.8005	0.593
13.8387	0.566
13.877	0.522
13.9152	0.479
13.9534	0.47
13.9916	0.522
14.0298	0.614
14.068	0.667
14.1062	0.694
14.1444	0.715
14.1826	0.724
14.2208	0.734
14.259	0.742
14.2972	0.751
14.3355	0.754
14.3737	0.766
14.4119	0.77
14.4501	0.779
14.4883	0.781
14.5265	0.784
14.5647	0.788
14.6029	0.793
14.6411	0.791
14.6793	0.79
14.7175	0.79
14.7557	0.788
14.794	0.782
14.8322	0.779
14.8704	0.779
14.9086	0.778
14.9468	0.775
14.985	0.767
15.0232	0.752
15.0614	0.753
15.0996	0.76
15.1378	0.765
15.176	0.767
15.2142	0.765
15.2525	0.761
15.2907	0.755
15.3289	0.752
15.3671	0.753
15.4053	0.752
15.4435	0.747
15.4817	0.746
15.5199	0.742
15.5581	0.74
15.5963	0.738
15.6345	0.736
15.6727	0.734
15.711	0.73
15.7492	0.726
15.7874	0.722
15.8256	0.722
15.8638	0.716
15.902	0.711
15.9402	0.709
