Infrared Spectrum: m-Cresol, 4-amino-, hydrochloride
Formula: C7 H10 Cl N O
State: SOLID (SPLIT MULL), FLUOROLUBE FOR 3800-1330 CM^-^1, NUJOL FOR 1330-460 CM^-^1
Class: COBLENTZ III
Instrument: DOW FOREPRISM-GRATING
Instrument parameters: BLAZED AT 3.5, 12.0, 20.0 MICRON AND CHANGED AT 5.0, 7.5, 14.9 MICRON
Sampling: TRANSMISSION
Resolution: 2
Origin: DOW CHEMICAL COMPANY
1/CM	TRANSMITTANCE
457	0.4565
466	0.5674
475	0.818
484	0.823
493	0.8134
502	0.6969
511	0.6748
520	0.8385
529	0.8372
538	0.8386
547	0.8417
556	0.844
565	0.7224
574	0.5677
583	0.841
592	0.8436
601	0.8337
610	0.8141
619	0.7959
628	0.7889
637	0.7668
646	0.7121
655	0.4966
664	0.3323
673	0.5261
682	0.7288
691	0.8056
700	0.5841
709	0.7765
718	0.7568
727	0.7104
736	0.7831
745	0.8346
754	0.8435
763	0.8488
772	0.8564
781	0.8709
790	0.8723
799	0.853
808	0.5726
817	0.4271
826	0.8218
835	0.8545
844	0.8599
853	0.8473
862	0.8492
871	0.8134
880	0.4848
889	0.7341
898	0.8333
907	0.8402
916	0.8259
925	0.8083
934	0.7942
943	0.705
952	0.334
961	0.7478
970	0.8165
979	0.818
988	0.8085
997	0.763
1006	0.4674
1015	0.7727
1024	0.7339
1033	0.6292
1042	0.7832
1051	0.7871
1060	0.6926
1069	0.7635
1078	0.7493
1087	0.6403
1096	0.3606
1105	0.6092
1114	0.6866
1123	0.4831
1132	0.6529
1141	0.6999
1150	0.7218
1159	0.7169
1168	0.4638
1177	0.6267
1186	0.4619
1195	0.1622
1204	0.4787
1213	0.556
1222	0.5561
1231	0.5476
1240	0.4736
1249	0.2725
1258	0.4678
1267	0.3923
1276	0.277
1285	0.1435
1294	0.3949
1303	0.4188
1312	0.2078
1321	0.589
1330	0.5173
1339	0.3432
1348	0.5848
1357	0.7065
1366	0.7341
1375	0.696
1384	0.7547
1393	0.7574
1402	0.7449
1411	0.7285
1420	0.7079
1429	0.6765
1438	0.6008
1447	0.5476
1456	0.5725
1465	0.5117
1474	0.3358
1483	0.0412
1492	0.1335
1501	0.4613
1510	0.5549
1519	0.35
1528	0.7765
1537	0.8317
1546	0.834
1555	0.8237
1564	0.787
1573	0.7088
1582	0.6674
1591	0.7054
1600	0.5647
1609	0.2759
1618	0.6139
1627	0.6253
1636	0.6946
1645	0.7619
1654	0.8541
1663	0.8612
1672	0.857
1681	0.8497
1690	0.8427
1699	0.8376
1708	0.8409
1717	0.8484
1726	0.8453
1735	0.8378
1744	0.8206
1753	0.7925
1762	0.8198
1771	0.8347
1780	0.8313
1789	0.8268
1798	0.8206
1807	0.8124
1816	0.8057
1825	0.8039
1834	0.7962
1843	0.7903
1852	0.7828
1861	0.7842
1870	0.7704
1879	0.7243
1888	0.7706
1897	0.7595
1906	0.7375
1915	0.7201
1924	0.7061
1933	0.6969
1942	0.714
1951	0.7224
1960	0.7149
1969	0.6741
1978	0.6608
1987	0.6792
1996	0.7355
2005	0.7713
2014	0.774
2023	0.7857
2032	0.7856
2041	0.7823
2050	0.7801
2059	0.777
2068	0.7735
2077	0.7693
2086	0.7628
2095	0.7551
2104	0.7463
2113	0.7309
2122	0.7308
2131	0.7434
2140	0.7381
2149	0.7303
2158	0.7206
2167	0.7086
2176	0.6967
2185	0.7143
2194	0.7195
2203	0.7151
2212	0.7079
2221	0.7005
2230	0.6949
2239	0.6917
2248	0.6911
2257	0.6883
2266	0.6784
2275	0.6752
2284	0.6717
2293	0.6624
2302	0.6594
2311	0.6562
2320	0.6516
2329	0.6471
2338	0.6406
2347	0.6386
2356	0.6382
2365	0.6369
2374	0.6337
2383	0.627
2392	0.6207
2401	0.6138
2410	0.6061
2419	0.5976
2428	0.5885
2437	0.5775
2446	0.5636
2455	0.5531
2464	0.5497
2473	0.5449
2482	0.5385
2491	0.5301
2500	0.519
2509	0.5004
2518	0.4687
2527	0.408
2536	0.3654
2545	0.4443
2554	0.4255
2563	0.3916
2572	0.4554
2581	0.4518
2590	0.4184
2599	0.3806
2608	0.3962
2617	0.3686
2626	0.3506
2635	0.4108
2644	0.4147
2653	0.3895
2662	0.3813
2671	0.3696
2680	0.375
2689	0.4105
2698	0.4182
2707	0.4088
2716	0.3891
2725	0.384
2734	0.3723
2743	0.3566
2752	0.3368
2761	0.3136
2770	0.2864
2779	0.2674
2788	0.2526
2797	0.2454
2806	0.2249
2815	0.2028
2824	0.1808
2833	0.1547
2842	0.1302
2851	0.1076
2860	0.0877
2869	0.073
2878	0.0695
2887	0.0707
2896	0.0764
2905	0.0918
2914	0.1223
2923	0.1551
2932	0.1902
2941	0.1836
2950	0.1467
2959	0.1479
2968	0.1595
2977	0.1716
2986	0.1827
2995	0.194
3004	0.2044
3013	0.2045
3022	0.1929
3031	0.188
3040	0.1859
3049	0.168
3058	0.1611
3067	0.1822
3076	0.2103
3085	0.2237
3094	0.2335
3103	0.2424
3112	0.2502
3121	0.256
3130	0.2587
3139	0.2578
3148	0.2508
3157	0.2374
3166	0.2186
3175	0.1903
3184	0.1655
3193	0.15
3202	0.1424
3211	0.127
3220	0.0977
3229	0.0684
3238	0.0692
3247	0.1224
3256	0.2177
3265	0.2873
3274	0.3248
3283	0.3588
3292	0.4199
3301	0.4767
3310	0.5295
3319	0.557
3328	0.582
3337	0.5987
3346	0.6125
3355	0.621
3364	0.6237
3373	0.6225
3382	0.618
3391	0.6114
3400	0.6035
3409	0.6028
3418	0.6124
3427	0.627
3436	0.6285
3445	0.6255
3454	0.6239
3463	0.6237
3472	0.6194
3481	0.6155
3490	0.6115
3499	0.6073
3508	0.6035
3517	0.6001
3526	0.5968
3535	0.5932
3544	0.5897
3553	0.5858
3562	0.5819
3571	0.5787
3580	0.5758
3589	0.5727
3598	0.5696
3607	0.5658
3616	0.5608
3625	0.5585
3634	0.5563
3643	0.5543
3652	0.5523
3661	0.5488
3670	0.5435
3679	0.5398
3688	0.5384
3697	0.5377
3706	0.5338
3715	0.5299
3724	0.526
3733	0.5222
3742	0.5184
3751	0.5144
3760	0.5108
3769	0.5079
3778	0.5051
3787	0.5025
3796	0.5012
