Infrared Spectrum: CODEINE, HYDROBROMIDE (DIHYDRATE)
Formula: C18 H22 Br N O3  * 2 H2 O
State: SOLID (1.2 mg / 250 mg KBr DISC)
Melting point: 190-192 C
Class: COBLENTZ III
Instrument: PERKIN-ELMER 21 (GRATING)
Instrument parameters: FILTER AT ABOUT 10 MICRONS
Sampling: TRANSMISSION
Resolution: 2
Origin: BUREAU OF CUSTOMS
1/CM	TRANSMITTANCE
4000	0.8245
3991	0.826
3982	0.8277
3973	0.8292
3964	0.8308
3955	0.8325
3946	0.834
3937	0.8354
3928	0.8367
3919	0.838
3910	0.8393
3901	0.8406
3892	0.8418
3883	0.8432
3874	0.8445
3865	0.8459
3856	0.8473
3847	0.8486
3838	0.85
3829	0.8517
3820	0.8534
3811	0.8552
3802	0.857
3793	0.8588
3784	0.8606
3775	0.8624
3766	0.8642
3757	0.8657
3748	0.8671
3739	0.8687
3730	0.8702
3721	0.8712
3712	0.8718
3703	0.8721
3694	0.8717
3685	0.8713
3676	0.8692
3667	0.8661
3658	0.8624
3649	0.8446
3640	0.8125
3631	0.7705
3622	0.7283
3613	0.6858
3604	0.6432
3595	0.6003
3586	0.5572
3577	0.5139
3568	0.4703
3559	0.4266
3550	0.3826
3541	0.3384
3532	0.2939
3523	0.2493
3514	0.2044
3505	0.1592
3496	0.1211
3487	0.1211
3478	0.1694
3469	0.2338
3460	0.2984
3451	0.3588
3442	0.3703
3433	0.3504
3424	0.326
3415	0.3197
3406	0.3359
3397	0.3553
3388	0.3522
3379	0.3202
3370	0.2869
3361	0.2532
3352	0.2194
3343	0.2097
3334	0.2258
3325	0.2524
3316	0.2792
3307	0.3057
3298	0.3212
3289	0.3362
3280	0.3502
3271	0.3624
3262	0.3737
3253	0.3837
3244	0.3925
3235	0.3974
3226	0.3916
3217	0.385
3208	0.3873
3199	0.3998
3190	0.4134
3181	0.4262
3172	0.4396
3163	0.455
3154	0.4738
3145	0.4946
3136	0.5126
3127	0.53
3118	0.5468
3109	0.5641
3100	0.5772
3091	0.5836
3082	0.5728
3073	0.5375
3064	0.502
3055	0.4662
3046	0.4269
3037	0.433
3028	0.4616
3019	0.4904
3010	0.5194
3001	0.5482
2992	0.554
2983	0.5455
2974	0.5045
2965	0.4947
2956	0.4914
2947	0.4938
2938	0.4991
2929	0.518
2920	0.5481
2911	0.5785
2902	0.609
2893	0.6228
2884	0.6257
2875	0.6221
2866	0.5909
2857	0.5574
2848	0.536
2839	0.535
2830	0.5325
2821	0.5288
2812	0.5215
2803	0.5109
2794	0.4837
2785	0.4319
2776	0.3795
2767	0.3439
2758	0.351
2749	0.3929
2740	0.4349
2731	0.4765
2722	0.4833
2713	0.4748
2704	0.467
2695	0.4732
2686	0.496
2677	0.5114
2668	0.5234
2659	0.5345
2650	0.551
2641	0.5753
2632	0.6012
2623	0.6275
2614	0.6539
2605	0.6665
2596	0.6657
2587	0.6592
2578	0.6547
2569	0.661
2560	0.6685
2551	0.6685
2542	0.6682
2533	0.6819
2524	0.7025
2515	0.7221
2506	0.7395
2497	0.7567
2488	0.774
2479	0.7857
2470	0.7972
2461	0.8096
2452	0.8211
2443	0.8312
2434	0.839
2425	0.8449
2416	0.8498
2407	0.8536
2398	0.8568
2389	0.8582
2380	0.858
2371	0.8628
2362	0.8746
2353	0.8775
2344	0.8806
2335	0.8867
2326	0.891
2317	0.8944
2308	0.898
2299	0.9008
2290	0.9035
2281	0.9064
2272	0.9091
2263	0.9107
2254	0.9121
2245	0.9132
2236	0.9134
2227	0.9137
2218	0.9138
2209	0.9138
2200	0.9144
2191	0.9156
2182	0.9165
2173	0.917
2164	0.9174
2155	0.917
2146	0.9166
2137	0.9159
2128	0.9139
2119	0.91
2110	0.9023
2101	0.8898
2092	0.8748
2083	0.8714
2074	0.8735
2065	0.8764
2056	0.8774
2047	0.8657
2038	0.8571
2029	0.8558
2020	0.8647
2011	0.8807
2002	0.8963
1993	0.9078
1984	0.9142
1975	0.9177
1966	0.9221
1957	0.9292
1948	0.9359
1939	0.9401
1930	0.9427
1921	0.9448
1912	0.9468
1903	0.9481
1894	0.9485
1885	0.9475
1876	0.9447
1867	0.9443
1858	0.9481
1849	0.9528
1840	0.9554
1831	0.9575
1822	0.9564
1813	0.9532
1804	0.9516
1795	0.9505
1786	0.9483
1777	0.9452
1768	0.9416
1759	0.9356
1750	0.9297
1741	0.924
1732	0.9196
1723	0.9192
1714	0.914
1705	0.9049
1696	0.8915
1687	0.8725
1678	0.8533
1669	0.8193
1660	0.723
1651	0.4724
1642	0.5349
1633	0.6753
1624	0.6736
1615	0.5195
1606	0.7218
1597	0.8348
1588	0.8682
1579	0.884
1570	0.8891
1561	0.8882
1552	0.8763
1543	0.8573
1534	0.7594
1525	0.5878
1516	0.3909
1507	0.1629
1498	0.5016
1489	0.639
1480	0.4675
1471	0.491
1462	0.2566
1453	0.3405
1444	0.4602
1435	0.6094
1426	0.599
1417	0.5418
1408	0.4785
1399	0.5532
1390	0.6461
1381	0.7111
1372	0.7088
1363	0.5924
1354	0.7588
1345	0.7618
1336	0.7638
1327	0.6007
1318	0.8021
1309	0.8239
1300	0.7053
1291	0.5138
1282	0.363
1273	0.33
1264	0.6678
1255	0.6355
1246	0.659
1237	0.7665
1228	0.7432
1219	0.7803
1210	0.6791
1201	0.7043
1192	0.4193
1183	0.5838
1174	0.7321
1165	0.5317
1156	0.5644
1147	0.7004
1138	0.5558
1129	0.3902
1120	0.4686
1111	0.6445
1102	0.7225
1093	0.564
1084	0.4475
1075	0.2717
1066	0.3277
1057	0.5221
1048	0.2311
1039	0.5345
1030	0.5881
1021	0.516
1012	0.6442
1003	0.7801
994	0.7986
985	0.7242
976	0.5897
967	0.6504
958	0.7764
949	0.7886
940	0.5625
931	0.7349
922	0.6926
913	0.5323
904	0.8118
895	0.8634
886	0.8714
877	0.8111
868	0.6397
859	0.8605
850	0.8668
841	0.5088
832	0.7525
823	0.8543
814	0.7976
805	0.7301
796	0.3248
787	0.468
778	0.8169
769	0.7786
760	0.8506
751	0.6744
742	0.8268
733	0.8339
724	0.7944
715	0.6955
706	0.7448
697	0.6669
688	0.6312
679	0.6528
670	0.6196
661	0.6849
652	0.6887
