Infrared Spectrum: 4'-CHLORO-2-HYDROXY-5-ISOPROPYLBENZOPHENONE
Formula: C16 H15 Cl O2
State: SOLID (MINERAL OIL MULL)
Class: COBLENTZ
Instrument: Not specified, most likely a prism, grating, or hybrid spectrometer.
Sampling: TRANSMISSION
Resolution: 4
Origin: DOW CHEMICAL COMPANY
MICROMETERS	TRANSMITTANCE
2.022	0.44
2.06114	0.444
2.10027	0.453
2.13941	0.461
2.17854	0.47
2.21768	0.477
2.25682	0.482
2.29595	0.488
2.33509	0.498
2.37422	0.506
2.41336	0.514
2.4525	0.522
2.49163	0.53
2.53077	0.542
2.5699	0.55
2.60904	0.556
2.64818	0.564
2.68731	0.571
2.72645	0.579
2.76558	0.588
2.80472	0.598
2.84386	0.606
2.88299	0.582
2.92213	0.487
2.96126	0.288
3.0004	0.174
3.03954	0.27
3.07867	0.347
3.11781	0.411
3.15694	0.459
3.19608	0.496
3.23522	0.514
3.27435	0.521
3.31349	0.509
3.35263	0.402
3.39176	0.184
3.4309	0.186
3.47003	0.289
3.50917	0.377
3.54831	0.597
3.58744	0.622
3.62658	0.637
3.66571	0.627
3.70485	0.634
3.74399	0.642
3.78312	0.648
3.82226	0.665
3.86139	0.661
3.90053	0.671
3.93967	0.679
3.9788	0.682
4.01794	0.7
4.05707	0.695
4.09621	0.681
4.13535	0.703
4.17448	0.711
4.21362	0.708
4.25275	0.716
4.29189	0.733
4.33103	0.747
4.37016	0.752
4.4093	0.755
4.44843	0.762
4.48757	0.763
4.52671	0.766
4.56584	0.771
4.60498	0.773
4.64411	0.779
4.68325	0.779
4.72239	0.779
4.76152	0.786
4.80066	0.792
4.83979	0.797
4.87893	0.799
4.91807	0.8
4.9572	0.802
4.99634	0.807
5.03547	0.812
5.07461	0.818
5.11375	0.82
5.15288	0.815
5.19202	0.794
5.23115	0.82
5.27029	0.825
5.30943	0.833
5.34856	0.836
5.3877	0.841
5.42683	0.841
5.46597	0.843
5.50511	0.847
5.54424	0.831
5.58338	0.83
5.62251	0.828
5.66165	0.849
5.70079	0.841
5.73992	0.851
5.77906	0.864
5.81819	0.854
5.85733	0.851
5.89647	0.841
5.9356	0.802
5.97474	0.742
6.01388	0.639
6.05301	0.336
6.09215	0.427
6.13128	0.703
6.17042	0.593
6.20956	0.322
6.24869	0.221
6.28783	0.281
6.32696	0.148
6.3661	0.152
6.40524	0.333
6.44437	0.453
6.48351	0.582
6.52264	0.66
6.56178	0.593
6.60092	0.48
6.64005	0.605
6.67919	0.671
6.71832	0.635
6.75746	0.626
6.7966	0.535
6.83573	0.529
6.87487	0.58
6.914	0.681
6.95314	0.783
6.99228	0.805
7.03141	0.817
7.07055	0.805
7.10968	0.763
7.14882	0.69
7.18796	0.674
7.22709	0.611
7.26623	0.622
7.30536	0.65
7.3445	0.611
7.38364	0.695
7.42277	0.7
7.46191	0.655
7.50104	0.632
7.54018	0.422
7.57932	0.153
7.61845	0.38
7.65759	0.401
7.69672	0.247
7.73586	0.194
7.775	0.312
7.81413	0.3
7.85327	0.31
7.8924	0.42
7.93154	0.49
7.97068	0.564
8.00981	0.588
8.04895	0.574
8.08808	0.493
8.12722	0.288
8.16636	0.142
8.20549	0.286
8.24463	0.461
8.28376	0.563
8.3229	0.621
8.36204	0.671
8.40117	0.69
8.44031	0.703
8.47944	0.627
8.51858	0.538
8.55772	0.673
8.59685	0.603
8.63599	0.302
8.67513	0.275
8.71426	0.517
8.7534	0.611
8.79253	0.684
8.83167	0.741
8.87081	0.763
8.90994	0.771
8.94908	0.734
8.98821	0.66
9.02735	0.616
9.06649	0.721
9.10562	0.707
9.14476	0.567
9.18389	0.493
9.22303	0.768
9.26217	0.831
9.3013	0.849
9.34044	0.855
9.37957	0.868
9.41871	0.875
9.45785	0.881
9.49698	0.885
9.53612	0.888
9.57525	0.888
9.61439	0.889
9.65353	0.894
9.69266	0.906
9.7318	0.909
9.77093	0.899
9.81007	0.745
9.84921	0.723
9.88834	0.896
9.92748	0.891
9.96661	0.925
10.0058	0.933
10.0449	0.94
10.084	0.941
10.1232	0.941
10.1623	0.944
10.2014	0.932
10.2406	0.872
10.2797	0.872
10.3188	0.881
10.358	0.899
10.3971	0.867
10.4362	0.773
10.4754	0.851
10.5145	0.919
10.5537	0.92
10.5928	0.896
10.6319	0.86
10.6711	0.763
10.7102	0.587
10.7493	0.438
10.7885	0.618
10.8276	0.813
10.8667	0.864
10.9059	0.883
10.945	0.911
10.9842	0.92
11.0233	0.925
11.0624	0.928
11.1016	0.928
11.1407	0.925
11.1798	0.925
11.219	0.922
11.2581	0.925
11.2972	0.93
11.3364	0.928
11.3755	0.923
11.4146	0.922
11.4538	0.92
11.4929	0.909
11.5321	0.891
11.5712	0.852
11.6103	0.726
11.6495	0.537
11.6886	0.381
11.7277	0.511
11.7669	0.749
11.806	0.786
11.8451	0.707
11.8843	0.551
11.9234	0.399
11.9626	0.451
12.0017	0.553
12.0408	0.576
12.08	0.603
12.1191	0.632
12.1582	0.72
12.1974	0.791
12.2365	0.836
12.2756	0.851
12.3148	0.862
12.3539	0.868
12.393	0.872
12.4322	0.873
12.4713	0.875
12.5105	0.878
12.5496	0.88
12.5887	0.88
12.6279	0.881
12.667	0.885
12.7061	0.885
12.7453	0.888
12.7844	0.885
12.8235	0.88
12.8627	0.868
12.9018	0.813
12.941	0.65
12.9801	0.436
13.0192	0.331
13.0584	0.559
13.0975	0.768
13.1366	0.83
13.1758	0.854
13.2149	0.868
13.254	0.878
13.2932	0.878
13.3323	0.86
13.3714	0.8
13.4106	0.77
13.4497	0.82
13.4889	0.867
13.528	0.881
13.5671	0.888
13.6063	0.888
13.6454	0.883
13.6845	0.878
13.7237	0.864
13.7628	0.831
13.8019	0.768
13.8411	0.752
13.8802	0.812
13.9194	0.88
13.9585	0.886
13.9976	0.888
14.0368	0.88
14.0759	0.872
14.115	0.852
14.1542	0.836
14.1933	0.815
14.2324	0.789
14.2716	0.765
14.3107	0.739
14.3498	0.695
14.389	0.634
14.4281	0.571
14.4673	0.529
14.5064	0.509
14.5455	0.546
14.5847	0.598
14.6238	0.69
14.6629	0.733
14.7021	0.742
14.7412	0.731
14.7803	0.703
14.8195	0.666
14.8586	0.632
14.8978	0.597
14.9369	0.579
14.976	0.567
15.0152	0.556
15.0543	0.551
15.0934	0.559
15.1326	0.574
15.1717	0.59
15.2108	0.605
15.25	0.616
15.2891	0.627
15.3283	0.637
15.3674	0.635
15.4065	0.608
15.4457	0.597
15.4848	0.588
15.5239	0.601
15.5631	0.621
15.6022	0.64
15.6413	0.661
15.6805	0.684
15.7196	0.711
15.7587	0.723
15.7979	0.733
15.837	0.737
15.8762	0.741
