Infrared Spectrum: MORPHINONE, DIHYDRO-
Formula: C17 H19 Cl N O3
State: SOLID (1.2 mg / 250 mg KBr DISC)
Melting point: 305-315 C DECOMP.
Class: COBLENTZ III
Instrument: PERKIN-ELMER 21 (GRATING)
Instrument parameters: FILTER AT ABOUT 10 MICRONS
Sampling: TRANSMISSION
Resolution: 2
Origin: BUREAU OF CUSTOMS
1/CM	TRANSMITTANCE
4000	0.7685
3991	0.7692
3982	0.7695
3973	0.7695
3964	0.7695
3955	0.7695
3946	0.7695
3937	0.7695
3928	0.7695
3919	0.77
3910	0.7706
3901	0.7711
3892	0.7718
3883	0.7742
3874	0.7774
3865	0.7806
3856	0.7832
3847	0.7857
3838	0.7883
3829	0.7908
3820	0.7931
3811	0.7943
3802	0.7956
3793	0.7968
3784	0.7978
3775	0.798
3766	0.798
3757	0.798
3748	0.7978
3739	0.7971
3730	0.7954
3721	0.7936
3712	0.7901
3703	0.785
3694	0.7788
3685	0.7715
3676	0.7578
3667	0.7351
3658	0.7195
3649	0.7046
3640	0.6901
3631	0.6744
3622	0.6524
3613	0.6317
3604	0.6164
3595	0.601
3586	0.5862
3577	0.5721
3568	0.5578
3559	0.5435
3550	0.5292
3541	0.5148
3532	0.4983
3523	0.4801
3514	0.4639
3505	0.449
3496	0.4338
3487	0.4198
3478	0.4117
3469	0.4034
3460	0.3942
3451	0.3899
3442	0.3886
3433	0.3892
3424	0.3928
3415	0.3993
3406	0.4112
3397	0.4239
3388	0.4393
3379	0.455
3370	0.4686
3361	0.4809
3352	0.4895
3343	0.4979
3334	0.5071
3325	0.515
3316	0.5196
3307	0.521
3298	0.5223
3289	0.5218
3280	0.5206
3271	0.5174
3262	0.5135
3253	0.5095
3244	0.5018
3235	0.493
3226	0.4841
3217	0.4751
3208	0.466
3199	0.4567
3190	0.4466
3181	0.4367
3172	0.4244
3163	0.4026
3154	0.387
3145	0.37
3136	0.3507
3127	0.3039
3118	0.276
3109	0.2592
3100	0.24
3091	0.2168
3082	0.185
3073	0.1601
3064	0.1441
3055	0.1324
3046	0.1303
3037	0.1309
3028	0.1432
3019	0.1792
3010	0.2041
3001	0.2107
2992	0.2117
2983	0.2126
2974	0.2135
2965	0.2163
2956	0.2196
2947	0.236
2938	0.2675
2929	0.303
2920	0.3309
2911	0.3544
2902	0.3726
2893	0.3758
2884	0.3778
2875	0.3873
2866	0.3956
2857	0.4039
2848	0.4104
2839	0.4173
2830	0.4253
2821	0.4348
2812	0.441
2803	0.4435
2794	0.4432
2785	0.4419
2776	0.4373
2767	0.4327
2758	0.4205
2749	0.4058
2740	0.3882
2731	0.3725
2722	0.359
2713	0.3408
2704	0.3309
2695	0.3255
2686	0.3189
2677	0.3107
2668	0.3006
2659	0.2907
2650	0.2854
2641	0.2851
2632	0.2868
2623	0.2884
2614	0.2905
2605	0.2937
2596	0.2968
2587	0.3035
2578	0.3183
2569	0.3491
2560	0.3662
2551	0.3664
2542	0.362
2533	0.376
2524	0.3859
2515	0.3957
2506	0.4095
2497	0.4241
2488	0.4393
2479	0.4555
2470	0.4733
2461	0.4927
2452	0.5151
2443	0.5371
2434	0.5581
2425	0.576
2416	0.5923
2407	0.6082
2398	0.6244
2389	0.6347
2380	0.6368
2371	0.6411
2362	0.656
2353	0.6715
2344	0.6887
2335	0.7061
2326	0.7338
2317	0.7551
2308	0.7569
2299	0.7605
2290	0.7687
2281	0.7764
2272	0.7825
2263	0.7888
2254	0.7951
2245	0.801
2236	0.8061
2227	0.8115
2218	0.8168
2209	0.8202
2200	0.8232
2191	0.8262
2182	0.8289
2173	0.8314
2164	0.834
2155	0.8365
2146	0.8391
2137	0.8417
2128	0.8443
2119	0.8468
2110	0.8492
2101	0.8517
2092	0.8543
2083	0.8566
2074	0.8588
2065	0.8609
2056	0.8631
2047	0.8653
2038	0.8675
2029	0.87
2020	0.8724
2011	0.8747
2002	0.8771
1993	0.8794
1984	0.8817
1975	0.8837
1966	0.8855
1957	0.8873
1948	0.8895
1939	0.8916
1930	0.8913
1921	0.8877
1912	0.886
1903	0.8895
1894	0.8965
1885	0.9007
1876	0.904
1867	0.9068
1858	0.9086
1849	0.9101
1840	0.9101
1831	0.9097
1822	0.9099
1813	0.9085
1804	0.9056
1795	0.8992
1786	0.8818
1777	0.8623
1768	0.8358
1759	0.7341
1750	0.4756
1741	0.2007
1732	0.1024
1723	0.343
1714	0.586
1705	0.6774
1696	0.6849
1687	0.6994
1678	0.6775
1669	0.5662
1660	0.4536
1651	0.4552
1642	0.451
1633	0.5191
1624	0.6815
1615	0.7382
1606	0.7807
1597	0.8141
1588	0.8292
1579	0.8345
1570	0.8508
1561	0.8478
1552	0.8391
1543	0.8214
1534	0.7585
1525	0.5328
1516	0.1079
1507	0.3478
1498	0.4546
1489	0.3326
1480	0.2042
1471	0.1984
1462	0.3029
1453	0.3399
1444	0.3766
1435	0.3494
1426	0.3334
1417	0.3073
1408	0.4252
1399	0.5224
1390	0.511
1381	0.4184
1372	0.5233
1363	0.4387
1354	0.41
1345	0.3068
1336	0.2187
1327	0.1686
1318	0.2053
1309	0.4112
1300	0.4612
1291	0.4491
1282	0.2702
1273	0.5043
1264	0.426
1255	0.5729
1246	0.5393
1237	0.5789
1228	0.5537
1219	0.6562
1210	0.6934
1201	0.6649
1192	0.6942
1183	0.4435
1174	0.6511
1165	0.369
1156	0.5132
1147	0.4408
1138	0.5366
1129	0.5275
1120	0.4112
1111	0.5512
1102	0.6445
1093	0.765
1084	0.8025
1075	0.7886
1066	0.7939
1057	0.811
1048	0.7492
1039	0.5378
1030	0.3524
1021	0.3599
1012	0.7007
1003	0.7857
994	0.6474
985	0.32
976	0.39
967	0.4598
958	0.4228
949	0.5591
940	0.7549
931	0.6072
922	0.4781
913	0.6978
904	0.8218
895	0.8498
886	0.6597
877	0.5404
868	0.5277
859	0.6548
850	0.7826
841	0.8325
832	0.4275
823	0.3928
814	0.5002
805	0.6412
796	0.7792
787	0.8092
778	0.8175
769	0.7975
760	0.6898
751	0.5924
742	0.4357
733	0.5041
724	0.6378
715	0.6649
706	0.6958
697	0.6511
688	0.6906
679	0.6981
670	0.6951
661	0.689
652	0.6531
