Infrared Spectrum: Benzylpenicillin, potassium salt
Formula: C16 H17 K N2 O4 S
State: SOLID (1.5 mg / 300 mg KBr DISC)
Melting point: 214-217 C DECOMP.
Class: COBLENTZ III
Instrument: PERKIN-ELMER 21 (GRATING)
Resolution: 2
Origin: THE SQUIBB INSTITUTE FOR MEDICAL RESEARCH
1/CM	TRANSMITTANCE
667	0.7575
676	0.8146
685	0.793
694	0.4863
703	0.6007
712	0.6433
721	0.4188
730	0.7472
739	0.7556
748	0.5822
757	0.2699
766	0.7055
775	0.7972
784	0.873
793	0.8677
802	0.8106
811	0.7931
820	0.8931
829	0.8843
838	0.8635
847	0.8945
856	0.8858
865	0.873
874	0.8295
883	0.7882
892	0.7878
901	0.8568
910	0.8126
919	0.7958
928	0.7208
937	0.8272
946	0.8525
955	0.839
964	0.8811
973	0.8719
982	0.8415
991	0.835
1000	0.7412
1009	0.858
1018	0.8183
1027	0.7904
1036	0.8612
1045	0.8598
1054	0.8464
1063	0.814
1072	0.7463
1081	0.8088
1090	0.714
1099	0.6303
1108	0.7849
1117	0.7181
1126	0.6659
1135	0.7597
1144	0.7197
1153	0.6677
1162	0.7351
1171	0.6857
1180	0.6884
1189	0.6449
1198	0.624
1207	0.5125
1216	0.5257
1225	0.559
1234	0.5702
1243	0.3554
1252	0.4078
1261	0.6397
1270	0.6853
1279	0.667
1288	0.6307
1297	0.5172
1306	0.325
1315	0.1423
1324	0.1161
1333	0.122
1342	0.3214
1351	0.5113
1360	0.5175
1369	0.4763
1378	0.3703
1387	0.1659
1396	0.1599
1405	0.268
1414	0.3038
1423	0.5288
1432	0.5475
1441	0.5239
1450	0.4312
1459	0.4062
1468	0.4119
1477	0.2791
1486	0.1033
1495	0.0581
1504	0.2029
1513	0.3976
1522	0.5348
1531	0.6062
1540	0.6554
1549	0.6648
1558	0.6501
1567	0.615
1576	0.4865
1585	0.4649
1594	0.3477
1603	0.0729
1612	0.0241
1621	0.0654
1630	0.2078
1639	0.4065
1648	0.4536
1657	0.3198
1666	0.1747
1675	0.1154
1684	0.2404
1693	0.4742
1702	0.6584
1711	0.6717
1720	0.6568
1729	0.6258
1738	0.4745
1747	0.2747
1756	0.0864
1765	0.0655
1774	0.0576
1783	0.0621
1792	0.2348
1801	0.4492
1810	0.6092
1819	0.7325
1828	0.7859
1837	0.816
1846	0.8318
1855	0.8406
1864	0.8474
1873	0.8523
1882	0.8573
1891	0.8649
1900	0.8774
1909	0.8882
1918	0.8945
1927	0.8974
1936	0.8997
1945	0.9007
1954	0.9016
1963	0.9046
1972	0.911
1981	0.9169
1990	0.9194
1999	0.9206
2008	0.9207
2017	0.9202
2026	0.9206
2035	0.9212
2044	0.9214
2053	0.9215
2062	0.9216
2071	0.9219
2080	0.9225
2089	0.923
2098	0.9235
2107	0.9236
2116	0.9234
2125	0.9232
2134	0.9229
2143	0.9227
2152	0.9224
2161	0.9222
2170	0.922
2179	0.9218
2188	0.9215
2197	0.9212
2206	0.921
2215	0.9208
2224	0.9207
2233	0.9206
2242	0.9206
2251	0.9206
2260	0.9199
2269	0.9191
2278	0.9183
2287	0.9177
2296	0.9169
2305	0.9168
2314	0.9168
2323	0.9168
2332	0.9168
2341	0.9168
2350	0.9168
2359	0.9168
2368	0.9168
2377	0.9168
2386	0.9168
2395	0.9168
2404	0.9168
2413	0.9167
2422	0.9165
2431	0.9162
2440	0.9159
2449	0.9155
2458	0.9153
2467	0.915
2476	0.9147
2485	0.9145
2494	0.9142
2503	0.9139
2512	0.9137
2521	0.9134
2530	0.9133
2539	0.9133
2548	0.9133
2557	0.9133
2566	0.9133
2575	0.9132
2584	0.9132
2593	0.9132
2602	0.9132
2611	0.9132
2620	0.9132
2629	0.9132
2638	0.9132
2647	0.9132
2656	0.9128
2665	0.9123
2674	0.9116
2683	0.911
2692	0.9103
2701	0.9092
2710	0.9081
2719	0.907
2728	0.9052
2737	0.9031
2746	0.901
2755	0.8983
2764	0.8951
2773	0.8916
2782	0.8864
2791	0.8809
2800	0.8747
2809	0.8671
2818	0.8576
2827	0.848
2836	0.8362
2845	0.8241
2854	0.8122
2863	0.7972
2872	0.7781
2881	0.7593
2890	0.7314
2899	0.709
2908	0.6895
2917	0.6762
2926	0.6687
2935	0.6651
2944	0.6599
2953	0.6418
2962	0.626
2971	0.6185
2980	0.6225
2989	0.7299
2998	0.7609
3007	0.7645
3016	0.7685
3025	0.7745
3034	0.7826
3043	0.8115
3052	0.8314
3061	0.8424
3070	0.8497
3079	0.857
3088	0.8646
3097	0.8762
3106	0.885
3115	0.887
3124	0.8882
3133	0.8885
3142	0.8883
3151	0.8879
3160	0.8864
3169	0.8848
3178	0.8827
3187	0.8804
3196	0.8774
3205	0.8743
3214	0.8716
3223	0.8689
3232	0.8655
3241	0.8619
3250	0.8578
3259	0.8534
3268	0.8475
3277	0.8399
3286	0.8308
3295	0.821
3304	0.8109
3313	0.8002
3322	0.7893
3331	0.7777
3340	0.7656
3349	0.7525
3358	0.7266
3367	0.6914
3376	0.6564
3385	0.6216
3394	0.5903
3403	0.5971
3412	0.7487
3421	0.858
3430	0.8664
3439	0.8724
3448	0.8771
3457	0.8787
3466	0.88
3475	0.8806
3484	0.8811
3493	0.8815
3502	0.8822
3511	0.8831
3520	0.8841
3529	0.8852
3538	0.8871
3547	0.8892
3556	0.8912
3565	0.8954
3574	0.8995
3583	0.9033
3592	0.9064
3601	0.909
3610	0.9112
3619	0.9123
3628	0.9134
3637	0.9141
3646	0.9144
3655	0.9149
3664	0.9152
3673	0.9156
3682	0.9159
3691	0.9159
3700	0.916
3709	0.916
3718	0.9161
3727	0.9162
3736	0.9162
3745	0.9163
3754	0.9163
3763	0.9162
3772	0.9162
3781	0.9161
3790	0.9161
3799	0.916
3808	0.9159
3817	0.9159
3826	0.9158
3835	0.9158
3844	0.9158
3853	0.9158
3862	0.9157
3871	0.9157
3880	0.9157
3889	0.9157
3898	0.9157
3907	0.9157
3916	0.9156
3925	0.9156
3934	0.9155
3943	0.9154
3952	0.9152
3961	0.9152
3970	0.915
3979	0.9149
3988	0.9147
3997	0.9146
