Infrared Spectrum: Calcium pyrophosphate, tetrabasic (Form II)
Formula: O7 P2 Ca2
State: SOLID (1 mg / 100 mg, KBr DISC)
Class: COBLENTZ III
Instrument: BECKMAN IR-12 (GRATING)
Instrument parameters: GRATING
Sampling: TRANSMISSION
Resolution: 2
Origin: COLGATE-PALMOLIVE COMPANY (KELLENBACH)
1/CM	TRANSMITTANCE
204	0.0655
214	0.0554
224	0.0804
234	0.1349
244	0.1588
254	0.1635
264	0.1836
274	0.2391
284	0.2323
294	0.2564
304	0.2773
314	0.3167
324	0.4316
334	0.5528
344	0.6811
354	0.635
364	0.612
374	0.7094
384	0.7873
394	0.7908
404	0.8937
414	0.9274
424	0.9248
434	0.8982
444	0.7331
454	0.6385
464	0.804
474	0.8363
484	0.7017
494	0.4642
504	0.5425
514	0.6331
524	0.4647
534	0.3155
544	0.395
554	0.2244
564	0.1562
574	0.182
584	0.3065
594	0.4311
604	0.5508
614	0.5467
624	0.7347
634	0.7935
644	0.8389
654	0.881
664	0.9062
674	0.914
684	0.9109
694	0.8874
704	0.7607
714	0.503
724	0.4224
734	0.6425
744	0.8268
754	0.8808
764	0.897
774	0.9003
784	0.8926
794	0.8779
804	0.8621
814	0.8369
824	0.812
834	0.7772
844	0.7433
854	0.7058
864	0.6611
874	0.5971
884	0.5191
894	0.4574
904	0.3547
914	0.2523
924	0.1889
934	0.1318
944	0.121
954	0.1714
964	0.251
974	0.3309
984	0.4202
994	0.4657
1004	0.4425
1014	0.5162
1024	0.4064
1034	0.1921
1044	0.4238
1054	0.3881
1064	0.2658
1074	0.1435
1084	0.0953
1094	0.1335
1104	0.2719
1114	0.3954
1124	0.2841
1134	0.1324
1144	0.0592
1154	0.0764
1164	0.067
1174	0.0816
1184	0.1076
1194	0.1137
1204	0.1436
1214	0.2228
1224	0.2788
1234	0.3402
1244	0.3854
1254	0.4197
1264	0.444
1274	0.4614
1284	0.4755
1294	0.4904
1304	0.5057
1314	0.5192
1324	0.5312
1334	0.542
1344	0.552
1354	0.5615
1364	0.5709
1374	0.5796
1384	0.5882
1394	0.5949
1404	0.6021
1414	0.6075
1424	0.6116
1434	0.6153
1444	0.6222
1454	0.6247
1464	0.6309
1474	0.6336
1484	0.6444
1494	0.646
1504	0.6451
1514	0.6473
1524	0.6436
1534	0.6506
1544	0.6362
1554	0.6589
1564	0.6557
1574	0.6659
1584	0.675
1594	0.678
1604	0.6775
1614	0.6712
1624	0.6629
1634	0.6605
1644	0.6561
1654	0.6468
1664	0.6679
1674	0.6731
1684	0.6734
1694	0.6816
1704	0.6793
1714	0.6888
1724	0.6883
1734	0.6881
1744	0.689
1754	0.6943
1764	0.6996
1774	0.7014
1784	0.7045
1794	0.7067
1804	0.7072
1814	0.7074
1824	0.707
1834	0.7061
1844	0.7078
1854	0.7093
1864	0.7124
1874	0.7165
1884	0.7178
1894	0.7178
1904	0.7185
1914	0.7189
1924	0.7196
1934	0.7202
1944	0.7201
1954	0.7201
1964	0.7201
1974	0.7204
1984	0.7209
1994	0.7205
2004	0.7199
2014	0.7211
2024	0.719
2034	0.716
2044	0.7155
2054	0.7173
2064	0.7154
2074	0.7131
2084	0.7116
2094	0.7133
2104	0.7147
2114	0.7134
2124	0.7146
2134	0.713
2144	0.7092
2154	0.7067
2164	0.7086
2174	0.7109
2184	0.7114
2194	0.711
2204	0.7105
2214	0.7104
2224	0.7102
2234	0.71
2244	0.7098
2254	0.7094
2264	0.709
2274	0.7086
2284	0.7076
2294	0.7061
2304	0.7024
2314	0.6984
2324	0.6933
2334	0.6882
2344	0.6867
2354	0.6863
2364	0.6828
2374	0.6944
2384	0.7083
2394	0.7109
2404	0.7121
2414	0.713
2424	0.7138
2434	0.7146
2444	0.7148
2454	0.7148
2464	0.7147
2474	0.7145
2484	0.7144
2494	0.7142
2504	0.714
2514	0.7138
2524	0.7137
2534	0.7135
2544	0.7131
2554	0.7127
2564	0.7122
2574	0.7118
2584	0.7114
2594	0.711
2604	0.7106
2614	0.7102
2624	0.7096
2634	0.7091
2644	0.7085
2654	0.708
2664	0.7074
2674	0.7069
2684	0.7062
2694	0.7054
2704	0.7046
2714	0.7037
2724	0.7029
2734	0.7021
2744	0.7013
2754	0.7004
2764	0.6996
2774	0.6988
2784	0.698
2794	0.6972
2804	0.6964
2814	0.6956
2824	0.6947
2834	0.6941
2844	0.6934
2854	0.6927
2864	0.6921
2874	0.6914
2884	0.6907
2894	0.6901
2904	0.6894
2914	0.6888
2924	0.6882
2934	0.6877
2944	0.6871
2954	0.6866
2964	0.686
2974	0.6855
2984	0.6849
2994	0.6843
3004	0.6837
3014	0.6831
3024	0.6825
3034	0.6819
3044	0.6813
3054	0.6806
3064	0.68
3074	0.6794
3084	0.6787
3094	0.6781
3104	0.6774
3114	0.6768
3124	0.676
3134	0.6746
3144	0.6732
3154	0.6719
3164	0.6705
3174	0.6691
3184	0.6678
3194	0.6666
3204	0.6654
3214	0.6642
3224	0.663
3234	0.6618
3244	0.6605
3254	0.6591
3264	0.6577
3274	0.6562
3284	0.6548
3294	0.6534
3304	0.652
3314	0.6506
3324	0.6486
3334	0.6464
3344	0.6442
3354	0.6421
3364	0.6399
3374	0.6377
3384	0.6356
3394	0.6331
3404	0.6306
3414	0.6283
3424	0.627
3434	0.6258
3444	0.6245
3454	0.6242
3464	0.6246
3474	0.625
3484	0.6255
3494	0.6265
3504	0.6282
3514	0.6298
3524	0.6315
3534	0.6332
3544	0.6347
3554	0.6363
3564	0.6379
3574	0.6391
3584	0.6403
3594	0.6414
3604	0.6432
3614	0.6454
3624	0.6479
3634	0.6515
3644	0.6531
3654	0.6501
3664	0.658
3674	0.6595
3684	0.6556
3694	0.657
3704	0.6582
3714	0.658
3724	0.6563
3734	0.6545
3744	0.6524
3754	0.6503
3764	0.6518
3774	0.6548
3784	0.6591
3794	0.6614
3804	0.6623
3814	0.6597
3824	0.6573
3834	0.6549
3844	0.6531
3854	0.6523
3864	0.6514
3874	0.6513
3884	0.6513
3894	0.6513
3904	0.6515
3914	0.6519
3924	0.6523
3934	0.6524
3944	0.6521
3954	0.6518
3964	0.6517
3974	0.6512
3984	0.6511
3994	0.6509
