Infrared Spectrum: BARIUM CHLORATE
Formula: Ba ( Cl O3)2  * H2 O
State: SOLID (NUJOL MULL)
Class: COBLENTZ
Instrument: Not specified, most likely a prism, grating, or hybrid spectrometer.
Sampling: TRANSMISSION
Resolution: 4
Origin: MELLON INSTITUTE
MICROMETERS	TRANSMITTANCE
2.044	0.889
2.08383	0.894
2.12366	0.896
2.16349	0.897
2.20333	0.902
2.24316	0.904
2.28299	0.901
2.32282	0.899
2.36265	0.902
2.40248	0.902
2.44231	0.904
2.48215	0.906
2.52198	0.916
2.56181	0.921
2.60164	0.917
2.64147	0.919
2.6813	0.917
2.72113	0.909
2.76097	0.845
2.8008	0.438
2.84063	0.544
2.88046	0.701
2.92029	0.819
2.96012	0.844
2.99995	0.865
3.03979	0.877
3.07962	0.887
3.11945	0.889
3.15928	0.884
3.19911	0.897
3.23894	0.897
3.27877	0.891
3.31861	0.844
3.35844	0.53
3.39827	0.294
3.4381	0.505
3.47793	0.51
3.51776	0.775
3.5576	0.899
3.59743	0.919
3.63726	0.922
3.67709	0.926
3.71692	0.926
3.75675	0.927
3.79658	0.929
3.83642	0.931
3.87625	0.931
3.91608	0.932
3.95591	0.936
3.99574	0.939
4.03557	0.939
4.0754	0.938
4.11524	0.938
4.15507	0.938
4.1949	0.941
4.23473	0.932
4.27456	0.922
4.31439	0.917
4.35422	0.919
4.39406	0.929
4.43389	0.936
4.47372	0.938
4.51355	0.932
4.55338	0.936
4.59321	0.934
4.63304	0.932
4.67288	0.934
4.71271	0.932
4.75254	0.932
4.79237	0.931
4.8322	0.927
4.87203	0.924
4.91186	0.914
4.9517	0.922
4.99153	0.927
5.03136	0.929
5.07119	0.929
5.11102	0.929
5.15085	0.927
5.19068	0.926
5.23052	0.921
5.27035	0.917
5.31018	0.916
5.35001	0.911
5.38984	0.904
5.42967	0.902
5.4695	0.914
5.50934	0.917
5.54917	0.912
5.589	0.922
5.62883	0.926
5.66866	0.938
5.70849	0.939
5.74832	0.944
5.78816	0.944
5.82799	0.944
5.86782	0.941
5.90765	0.951
5.94748	0.946
5.98731	0.943
6.02714	0.948
6.06698	0.941
6.10681	0.943
6.14664	0.934
6.18647	0.792
6.2263	0.792
6.26613	0.926
6.30597	0.941
6.3458	0.944
6.38563	0.943
6.42546	0.938
6.46529	0.941
6.50512	0.944
6.54495	0.939
6.58479	0.941
6.62462	0.941
6.66445	0.943
6.70428	0.944
6.74411	0.941
6.78394	0.916
6.82377	0.81
6.86361	0.787
6.90344	0.787
6.94327	0.835
6.9831	0.874
7.02293	0.911
7.06276	0.916
7.10259	0.931
7.14243	0.938
7.18226	0.936
7.22209	0.907
7.26192	0.872
7.30175	0.894
7.34158	0.914
7.38141	0.931
7.42125	0.934
7.46108	0.936
7.50091	0.941
7.54074	0.951
7.58057	0.951
7.6204	0.951
7.66023	0.954
7.70007	0.953
7.7399	0.953
7.77973	0.953
7.81956	0.953
7.85939	0.953
7.89922	0.953
7.93905	0.953
7.97889	0.953
8.01872	0.954
8.05855	0.951
8.09838	0.951
8.13821	0.951
8.17804	0.951
8.21787	0.951
8.25771	0.951
8.29754	0.951
8.33737	0.951
8.3772	0.949
8.41703	0.953
8.45686	0.951
8.49669	0.953
8.53653	0.953
8.57636	0.951
8.61619	0.951
8.65602	0.944
8.69585	0.943
8.73568	0.936
8.77551	0.931
8.81535	0.927
8.85518	0.926
8.89501	0.924
8.93484	0.921
8.97467	0.919
9.0145	0.914
9.05434	0.912
9.09417	0.912
9.134	0.911
9.17383	0.906
9.21366	0.902
9.25349	0.901
9.29332	0.899
9.33316	0.892
9.37299	0.891
9.41282	0.886
9.45265	0.882
9.49248	0.879
9.53231	0.874
9.57214	0.867
9.61198	0.855
9.65181	0.844
9.69164	0.827
9.73147	0.804
9.7713	0.763
9.81113	0.686
9.85096	0.601
9.8908	0.515
9.93063	0.428
9.97046	0.368
10.0103	0.294
10.0501	0.252
10.09	0.217
10.1298	0.197
10.1696	0.177
10.2094	0.157
10.2493	0.144
10.2891	0.137
10.3289	0.132
10.3688	0.128
10.4086	0.125
10.4484	0.123
10.4883	0.12
10.5281	0.118
10.5679	0.117
10.6078	0.115
10.6476	0.118
10.6874	0.139
10.7273	0.16
10.7671	0.18
10.8069	0.185
10.8468	0.185
10.8866	0.172
10.9264	0.165
10.9662	0.162
11.0061	0.162
11.0459	0.177
11.0857	0.239
11.1256	0.329
11.1654	0.427
11.2052	0.492
11.2451	0.549
11.2849	0.592
11.3247	0.639
11.3646	0.671
11.4044	0.695
11.4442	0.713
11.4841	0.725
11.5239	0.733
11.5637	0.743
11.6035	0.752
11.6434	0.758
11.6832	0.767
11.723	0.773
11.7629	0.778
11.8027	0.787
11.8425	0.792
11.8824	0.798
11.9222	0.805
11.962	0.81
12.0019	0.817
12.0417	0.822
12.0815	0.825
12.1214	0.83
12.1612	0.834
12.201	0.837
12.2409	0.84
12.2807	0.844
12.3205	0.847
12.3603	0.85
12.4002	0.85
12.44	0.852
12.4798	0.854
12.5197	0.855
12.5595	0.857
12.5993	0.86
12.6392	0.86
12.679	0.86
12.7188	0.864
12.7587	0.867
12.7985	0.869
12.8383	0.871
12.8782	0.872
12.918	0.871
12.9578	0.872
12.9976	0.874
13.0375	0.874
13.0773	0.876
13.1171	0.876
13.157	0.879
13.1968	0.882
13.2366	0.882
13.2765	0.886
13.3163	0.886
13.3561	0.886
13.396	0.886
13.4358	0.884
13.4756	0.887
13.5155	0.886
13.5553	0.886
13.5951	0.887
13.635	0.887
13.6748	0.889
13.7146	0.889
13.7544	0.892
13.7943	0.892
13.8341	0.889
13.8739	0.889
13.9138	0.891
13.9536	0.892
13.9934	0.894
14.0333	0.896
14.0731	0.897
14.1129	0.897
14.1528	0.897
14.1926	0.897
14.2324	0.897
14.2723	0.896
14.3121	0.896
14.3519	0.891
14.3917	0.887
14.4316	0.886
14.4714	0.884
14.5112	0.882
14.5511	0.877
14.5909	0.872
14.6307	0.871
14.6706	0.869
14.7104	0.859
14.7502	0.859
14.7901	0.855
14.8299	0.845
14.8697	0.842
14.9096	0.837
14.9494	0.835
14.9892	0.835
15.0291	0.834
15.0689	0.825
15.1087	0.822
15.1485	0.817
15.1884	0.812
15.2282	0.812
15.268	0.81
15.3079	0.805
15.3477	0.807
15.3875	0.805
15.4274	0.8
15.4672	0.797
15.507	0.793
15.5469	0.788
15.5867	0.787
15.6265	0.78
15.6664	0.777
15.7062	0.773
15.746	0.77
15.7858	0.763
15.8257	0.757
15.8655	0.747
15.9053	0.743
15.9452	0.74
15.985	0.735
