Infrared Spectrum: POTASSIUM OXALATE
Formula: K2 C2 O4  * H2 O
State: SOLID (KBr DISC)
Class: COBLENTZ
Instrument: Not specified, most likely a prism, grating, or hybrid spectrometer.
Sampling: TRANSMISSION
Resolution: 4
MICROMETERS	TRANSMITTANCE
2.01	0.789
2.04797	0.789
2.08595	0.792
2.12392	0.797
2.16189	0.8
2.19987	0.809
2.23784	0.815
2.27582	0.819
2.31379	0.822
2.35176	0.827
2.38974	0.828
2.42771	0.834
2.46568	0.839
2.50366	0.84
2.54163	0.84
2.57961	0.842
2.61758	0.842
2.65555	0.846
2.69353	0.845
2.7315	0.845
2.76947	0.839
2.80745	0.806
2.84542	0.746
2.88339	0.658
2.92137	0.596
2.95934	0.546
2.99732	0.518
3.03529	0.518
3.07326	0.543
3.11124	0.564
3.14921	0.596
3.18718	0.637
3.22516	0.675
3.26313	0.704
3.30111	0.725
3.33908	0.745
3.37705	0.764
3.41503	0.785
3.453	0.797
3.49097	0.8
3.52895	0.824
3.56692	0.839
3.60489	0.845
3.64287	0.852
3.68084	0.855
3.71882	0.856
3.75679	0.862
3.79476	0.868
3.83274	0.873
3.87071	0.874
3.90868	0.877
3.94666	0.88
3.98463	0.883
4.02261	0.882
4.06058	0.88
4.09855	0.882
4.13653	0.883
4.1745	0.885
4.21247	0.883
4.25045	0.88
4.28842	0.885
4.32639	0.886
4.36437	0.888
4.40234	0.885
4.44032	0.874
4.47829	0.874
4.51626	0.874
4.55424	0.879
4.59221	0.88
4.63018	0.88
4.66816	0.879
4.70613	0.88
4.74411	0.882
4.78208	0.88
4.82005	0.88
4.85803	0.877
4.896	0.876
4.93397	0.876
4.97195	0.874
5.00992	0.873
5.04789	0.871
5.08587	0.865
5.12384	0.862
5.16182	0.858
5.19979	0.853
5.23776	0.849
5.27574	0.843
5.31371	0.834
5.35168	0.822
5.38966	0.819
5.42763	0.818
5.46561	0.809
5.50358	0.8
5.54155	0.791
5.57953	0.78
5.6175	0.766
5.65547	0.755
5.69345	0.745
5.73142	0.731
5.76939	0.722
5.80737	0.69
5.84534	0.682
5.88332	0.652
5.92129	0.605
5.95926	0.545
5.99724	0.414
6.03521	0.292
6.07318	0.284
6.11116	0.33
6.14913	0.235
6.18711	0.253
6.22508	0.295
6.26305	0.302
6.30103	0.305
6.339	0.368
6.37697	0.438
6.41495	0.488
6.45292	0.536
6.49089	0.573
6.52887	0.603
6.56684	0.633
6.60482	0.645
6.64279	0.661
6.68076	0.685
6.71874	0.695
6.75671	0.709
6.79468	0.721
6.83266	0.736
6.87063	0.74
6.90861	0.751
6.94658	0.754
6.98455	0.755
7.02253	0.758
7.0605	0.76
7.09847	0.757
7.13645	0.742
7.17442	0.74
7.21239	0.749
7.25037	0.76
7.28834	0.764
7.32632	0.767
7.36429	0.767
7.40226	0.766
7.44024	0.761
7.47821	0.748
7.51618	0.7
7.55416	0.594
7.59213	0.441
7.63011	0.38
7.66808	0.287
7.70605	0.321
7.74403	0.481
7.782	0.573
7.81997	0.634
7.85795	0.658
7.89592	0.695
7.93389	0.716
7.97187	0.734
8.00984	0.748
8.04782	0.754
8.08579	0.763
8.12376	0.769
8.16174	0.774
8.19971	0.78
8.23768	0.788
8.27566	0.795
8.31363	0.797
8.35161	0.801
8.38958	0.807
8.42755	0.813
8.46553	0.818
8.5035	0.821
8.54147	0.822
8.57945	0.824
8.61742	0.83
8.65539	0.833
8.69337	0.837
8.73134	0.842
8.76932	0.842
8.80729	0.843
8.84526	0.846
8.88324	0.847
8.92121	0.849
8.95918	0.85
8.99716	0.852
9.03513	0.853
9.07311	0.853
9.11108	0.858
9.14905	0.862
9.18703	0.862
9.225	0.864
9.26297	0.865
9.30095	0.865
9.33892	0.865
9.37689	0.867
9.41487	0.868
9.45284	0.87
9.49082	0.871
9.52879	0.871
9.56676	0.871
9.60474	0.871
9.64271	0.87
9.68068	0.871
9.71866	0.873
9.75663	0.874
9.79461	0.876
9.83258	0.876
9.87055	0.876
9.90853	0.876
9.9465	0.877
9.98447	0.879
10.0224	0.879
10.0604	0.879
10.0984	0.88
10.1364	0.88
10.1743	0.88
10.2123	0.882
10.2503	0.883
10.2883	0.883
10.3262	0.883
10.3642	0.883
10.4022	0.883
10.4402	0.883
10.4781	0.885
10.5161	0.886
10.5541	0.886
10.5921	0.886
10.63	0.886
10.668	0.888
10.706	0.888
10.7439	0.888
10.7819	0.886
10.8199	0.888
10.8579	0.888
10.8958	0.888
10.9338	0.889
10.9718	0.889
11.0098	0.888
11.0477	0.888
11.0857	0.888
11.1237	0.888
11.1617	0.888
11.1996	0.888
11.2376	0.888
11.2756	0.888
11.3136	0.888
11.3515	0.888
11.3895	0.888
11.4275	0.888
11.4654	0.886
11.5034	0.886
11.5414	0.885
11.5794	0.886
11.6173	0.885
11.6553	0.883
11.6933	0.882
11.7313	0.88
11.7692	0.88
11.8072	0.879
11.8452	0.877
11.8832	0.876
11.9211	0.874
11.9591	0.871
11.9971	0.871
12.0351	0.868
12.073	0.865
12.111	0.864
12.149	0.862
12.1869	0.859
12.2249	0.861
12.2629	0.858
12.3009	0.852
12.3388	0.849
12.3768	0.847
12.4148	0.846
12.4528	0.843
12.4907	0.839
12.5287	0.831
12.5667	0.825
12.6047	0.816
12.6426	0.803
12.6806	0.791
12.7186	0.773
12.7566	0.76
12.7945	0.737
12.8325	0.716
12.8705	0.694
12.9084	0.661
12.9464	0.585
12.9844	0.527
13.0224	0.548
13.0603	0.491
13.0983	0.463
13.1363	0.59
13.1743	0.679
13.2122	0.703
13.2502	0.722
13.2882	0.739
13.3262	0.745
13.3641	0.748
13.4021	0.752
13.4401	0.754
13.4781	0.754
13.516	0.754
13.554	0.754
13.592	0.754
13.6299	0.752
13.6679	0.751
13.7059	0.749
13.7439	0.748
13.7818	0.746
13.8198	0.743
13.8578	0.743
13.8958	0.745
13.9337	0.743
13.9717	0.743
14.0097	0.743
14.0477	0.745
14.0856	0.745
14.1236	0.746
14.1616	0.745
14.1996	0.745
14.2375	0.745
14.2755	0.748
14.3135	0.752
14.3514	0.752
14.3894	0.754
14.4274	0.755
14.4654	0.758
14.5033	0.758
14.5413	0.76
14.5793	0.761
14.6173	0.761
14.6552	0.763
14.6932	0.764
14.7312	0.766
14.7692	0.766
14.8071	0.767
14.8451	0.769
14.8831	0.769
14.9211	0.77
14.959	0.771
14.997	0.774
