Infrared Spectrum: 1,2-Cyclobutanedicarboxylic acid, didecyl ester, trans-
Formula: C26 H48 O4
State: SOLUTION (10% CCl4 FOR 3800-1330, 10% CS2 FOR 1330-400)
Boiling point: 220 C AT 1 mmHg
Class: COBLENTZ III
Instrument: BECKMAN IR-9 (GRATING)
Instrument parameters: ORDER CHANGES: 670, 1200, 2000 CM^-^1
Sampling: TRANSMISSION
Path length: 0.011 CM, 0.011 CM
Resolution: 2
Origin: DOW CHEMICAL COMPANY
1/CM	TRANSMITTANCE
402	0.0884
411	0.2279
420	0.4219
429	0.4854
438	0.5638
447	0.6221
456	0.6706
465	0.6981
474	0.7298
483	0.7496
492	0.7629
501	0.7751
510	0.7855
519	0.795
528	0.8011
537	0.8066
546	0.8124
555	0.8181
564	0.8235
573	0.8293
582	0.835
591	0.8395
600	0.8419
609	0.8433
618	0.8428
627	0.8384
636	0.829
645	0.8106
654	0.7843
663	0.8186
672	0.832
681	0.8311
690	0.8197
699	0.7973
708	0.7527
717	0.6619
726	0.6418
735	0.6997
744	0.7288
753	0.7527
762	0.7737
771	0.7931
780	0.8025
789	0.8072
798	0.8089
807	0.8077
816	0.8053
825	0.8109
834	0.8042
843	0.7828
852	0.7129
861	0.6629
870	0.6699
879	0.6951
888	0.725
897	0.7556
906	0.7618
915	0.7481
924	0.7227
933	0.7074
942	0.7405
951	0.7564
960	0.754
969	0.7394
978	0.7165
987	0.6814
996	0.6475
1005	0.6094
1014	0.5771
1023	0.5702
1032	0.5608
1041	0.5291
1050	0.4784
1059	0.4719
1068	0.5102
1077	0.5308
1086	0.5375
1095	0.5549
1104	0.6267
1113	0.7078
1122	0.7022
1131	0.6656
1140	0.6084
1149	0.3742
1158	0.188
1167	0.0777
1176	0.0896
1185	0.1241
1194	0.1111
1203	0.1092
1212	0.1433
1221	0.1959
1230	0.3649
1239	0.1895
1248	0.1236
1257	0.2874
1266	0.3328
1275	0.429
1284	0.5265
1293	0.5403
1302	0.4863
1311	0.4099
1320	0.377
1329	0.3954
1338	0.4442
1347	0.5122
1356	0.457
1365	0.4396
1374	0.4915
1383	0.535
1392	0.4776
1401	0.4773
1410	0.6075
1419	0.6934
1428	0.6904
1437	0.5596
1446	0.4915
1455	0.3373
1464	0.2806
1473	0.4034
1482	0.6712
1491	0.7137
1500	0.7015
1509	0.6677
1518	0.6274
1527	0.5866
1536	0.5239
1545	0.4442
1554	0.4285
1563	0.4844
1572	0.5505
1581	0.5792
1590	0.6088
1599	0.6976
1608	0.7526
1617	0.7937
1626	0.8086
1635	0.8143
1644	0.8144
1653	0.81
1662	0.8012
1671	0.786
1680	0.7557
1689	0.6871
1698	0.6313
1707	0.4909
1716	0.3138
1725	0.0289
1734	0
1743	0.0084
1752	0.2886
1761	0.6064
1770	0.6854
1779	0.7385
1788	0.7693
1797	0.7863
1806	0.8017
1815	0.8132
1824	0.8231
1833	0.8308
1842	0.8369
1851	0.8424
1860	0.848
1869	0.8503
1878	0.8517
1887	0.8533
1896	0.8556
1905	0.8586
1914	0.8616
1923	0.8633
1932	0.8627
1941	0.862
1950	0.8605
1959	0.8589
1968	0.8569
1977	0.8541
1986	0.8505
1995	0.835
2004	0.8481
2013	0.8498
2022	0.8502
2031	0.8504
2040	0.8509
2049	0.852
2058	0.8519
2067	0.8518
2076	0.8527
2085	0.8535
2094	0.8547
2103	0.8559
2112	0.8572
2121	0.8583
2130	0.8589
2139	0.8589
2148	0.8582
2157	0.8569
2166	0.855
2175	0.8578
2184	0.8604
2193	0.8608
2202	0.8611
2211	0.8612
2220	0.861
2229	0.8599
2238	0.8586
2247	0.8569
2256	0.8541
2265	0.8505
2274	0.8465
2283	0.8419
2292	0.837
2301	0.8354
2310	0.8356
2319	0.836
2328	0.8349
2337	0.833
2346	0.8308
2355	0.8287
2364	0.8277
2373	0.8308
2382	0.8422
2391	0.8498
2400	0.8531
2409	0.8551
2418	0.8567
2427	0.8569
2436	0.8572
2445	0.8581
2454	0.859
2463	0.8592
2472	0.8594
2481	0.8593
2490	0.8589
2499	0.8585
2508	0.8576
2517	0.8563
2526	0.8551
2535	0.8537
2544	0.8524
2553	0.851
2562	0.849
2571	0.8469
2580	0.8449
2589	0.8422
2598	0.8395
2607	0.8367
2616	0.834
2625	0.8313
2634	0.8286
2643	0.8259
2652	0.8219
2661	0.8177
2670	0.8145
2679	0.813
2688	0.8135
2697	0.8153
2706	0.8163
2715	0.8136
2724	0.8098
2733	0.8059
2742	0.8066
2751	0.8097
2760	0.8103
2769	0.8064
2778	0.8004
2787	0.7901
2796	0.7734
2805	0.755
2814	0.7345
2823	0.6975
2832	0.6083
2841	0.4494
2850	0.1427
2859	0.0254
2868	0.1453
2877	0.1578
2886	0.2706
2895	0.1916
2904	0.1035
2913	0.0461
2922	0.0162
2931	0.0001
2940	0
2949	0.0198
2958	0.0222
2967	0.0567
2976	0.2538
2985	0.3302
2994	0.4045
3003	0.5192
3012	0.6688
3021	0.7145
3030	0.7409
3039	0.7611
3048	0.7776
3057	0.7899
3066	0.7985
3075	0.8061
3084	0.8114
3093	0.8135
3102	0.8161
3111	0.8203
3120	0.8243
3129	0.8266
3138	0.8282
3147	0.8294
3156	0.8303
3165	0.8313
3174	0.8325
3183	0.8335
3192	0.8346
3201	0.8354
3210	0.8362
3219	0.8371
3228	0.8379
3237	0.8381
3246	0.8383
3255	0.8385
3264	0.8387
3273	0.8393
3282	0.84
3291	0.8407
3300	0.8414
3309	0.8416
3318	0.8419
3327	0.8421
3336	0.8428
3345	0.8436
3354	0.8443
3363	0.845
3372	0.8458
3381	0.8464
3390	0.847
3399	0.8474
3408	0.8476
3417	0.8456
3426	0.8427
3435	0.835
3444	0.8273
3453	0.8207
3462	0.8263
3471	0.837
3480	0.846
3489	0.8532
3498	0.8553
3507	0.8558
3516	0.8562
3525	0.8566
3534	0.8568
3543	0.857
3552	0.8571
3561	0.8569
3570	0.8567
3579	0.8565
3588	0.8572
3597	0.8598
3606	0.8621
3615	0.8625
3624	0.8625
3633	0.8625
3642	0.8624
3651	0.8621
3660	0.862
3669	0.8608
3678	0.8586
3687	0.8555
3696	0.8549
3705	0.8585
3714	0.8607
3723	0.8612
3732	0.8617
3741	0.8621
3750	0.8621
3759	0.862
3768	0.8619
3777	0.8619
3786	0.8621
3795	0.8616
