Infrared Spectrum: ETHYLDIBORANE
Formula: C2 H10 B2
State: VAPOR AT 30 mmHg PRESSURE;
Class: COBLENTZ
Instrument: Not specified, most likely a prism, grating, or hybrid spectrometer.
Sampling: TRANSMISSION
Path length: 5 CM
Resolution: 4
Origin: KALLERY CHEMICAL COMPANY
MICROMETERS	TRANSMITTANCE
2.014	0.841
2.0479	0.842
2.08179	0.844
2.11569	0.844
2.14959	0.847
2.18348	0.846
2.21738	0.844
2.25128	0.842
2.28517	0.846
2.31907	0.846
2.35297	0.846
2.38686	0.846
2.42076	0.846
2.45466	0.846
2.48855	0.846
2.52245	0.846
2.55635	0.846
2.59024	0.846
2.62414	0.844
2.65803	0.802
2.69193	0.769
2.72583	0.789
2.75972	0.816
2.79362	0.836
2.82752	0.841
2.86141	0.846
2.89531	0.844
2.92921	0.847
2.9631	0.847
2.997	0.849
3.0309	0.852
3.06479	0.847
3.09869	0.842
3.13259	0.846
3.16648	0.839
3.20038	0.832
3.23428	0.837
3.26817	0.79
3.30207	0.556
3.33597	0.505
3.36986	0.565
3.40376	0.585
3.43766	0.729
3.47155	0.794
3.50545	0.806
3.53935	0.814
3.57324	0.819
3.60714	0.814
3.64104	0.826
3.67493	0.817
3.70883	0.759
3.74273	0.665
3.77662	0.433
3.81052	0.26
3.84442	0.382
3.87831	0.411
3.91221	0.28
3.9461	0.215
3.98	0.265
4.0139	0.737
4.04779	0.801
4.08169	0.831
4.11559	0.837
4.14948	0.839
4.18338	0.842
4.21728	0.842
4.25117	0.844
4.28507	0.842
4.31897	0.842
4.35286	0.849
4.38676	0.851
4.42066	0.852
4.45455	0.854
4.48845	0.857
4.52235	0.857
4.55624	0.856
4.59014	0.856
4.62404	0.852
4.65793	0.842
4.69183	0.836
4.72573	0.836
4.75962	0.839
4.79352	0.842
4.82742	0.837
4.86131	0.836
4.89521	0.842
4.92911	0.842
4.963	0.842
4.9969	0.846
5.0308	0.846
5.06469	0.846
5.09859	0.842
5.13249	0.834
5.16638	0.811
5.20028	0.802
5.23417	0.802
5.26807	0.816
5.30197	0.802
5.33586	0.799
5.36976	0.795
5.40366	0.795
5.43755	0.799
5.47145	0.809
5.50535	0.824
5.53924	0.826
5.57314	0.814
5.60704	0.779
5.64093	0.76
5.67483	0.762
5.70873	0.795
5.74262	0.817
5.77652	0.821
5.81042	0.819
5.84431	0.802
5.87821	0.775
5.91211	0.744
5.946	0.744
5.9799	0.757
6.0138	0.747
6.04769	0.709
6.08159	0.595
6.11549	0.265
6.14938	0.217
6.18328	0.098
6.21718	0.038
6.25107	0.006
6.28497	0.006
6.31887	0.01
6.35276	0.035
6.38666	0.127
6.42056	0.23
6.45445	0.297
6.48835	0.382
6.52224	0.468
6.55614	0.528
6.59004	0.622
6.62393	0.678
6.65783	0.725
6.69173	0.745
6.72562	0.749
6.75952	0.74
6.79342	0.73
6.82731	0.717
6.86121	0.71
6.89511	0.719
6.929	0.739
6.9629	0.749
6.9968	0.75
7.03069	0.76
7.06459	0.754
7.09849	0.742
7.13238	0.742
7.16628	0.744
7.20018	0.757
7.23407	0.769
7.26797	0.787
7.30187	0.794
7.33576	0.801
7.36966	0.811
7.40356	0.822
7.43745	0.824
7.47135	0.827
7.50525	0.827
7.53914	0.826
7.57304	0.831
7.60694	0.826
7.64083	0.787
7.67473	0.749
7.70863	0.739
7.74252	0.747
7.77642	0.74
7.81031	0.745
7.84421	0.789
7.87811	0.804
7.912	0.821
7.9459	0.829
7.9798	0.832
8.01369	0.837
8.04759	0.842
8.08149	0.842
8.11538	0.837
8.14928	0.834
8.18318	0.831
8.21707	0.821
8.25097	0.797
8.28487	0.774
8.31876	0.73
8.35266	0.697
8.38656	0.658
8.42045	0.633
8.45435	0.585
8.48825	0.553
8.52214	0.518
8.55604	0.493
8.58994	0.536
8.62383	0.501
8.65773	0.441
8.69163	0.424
8.72552	0.413
8.75942	0.396
8.79332	0.389
8.82721	0.357
8.86111	0.306
8.89501	0.346
8.9289	0.399
8.9628	0.423
8.9967	0.426
9.03059	0.489
9.06449	0.59
9.09838	0.668
9.13228	0.722
9.16618	0.745
9.20007	0.759
9.23397	0.769
9.26787	0.749
9.30176	0.767
9.33566	0.767
9.36956	0.765
9.40345	0.769
9.43735	0.767
9.47125	0.765
9.50514	0.77
9.53904	0.779
9.57294	0.782
9.60683	0.782
9.64073	0.794
9.67463	0.794
9.70852	0.794
9.74242	0.795
9.77632	0.787
9.81021	0.779
9.84411	0.775
9.87801	0.775
9.9119	0.774
9.9458	0.765
9.9797	0.762
10.0136	0.767
10.0475	0.784
10.0814	0.784
10.1153	0.787
10.1492	0.79
10.1831	0.794
10.217	0.797
10.2509	0.809
10.2848	0.795
10.3187	0.764
10.3526	0.78
10.3865	0.799
10.4204	0.802
10.4542	0.799
10.4881	0.797
10.522	0.797
10.5559	0.797
10.5898	0.792
10.6237	0.785
10.6576	0.785
10.6915	0.78
10.7254	0.772
10.7593	0.767
10.7932	0.764
10.8271	0.764
10.861	0.765
10.8949	0.76
10.9288	0.757
10.9627	0.759
10.9966	0.754
11.0305	0.759
11.0644	0.767
11.0983	0.78
11.1322	0.787
11.1661	0.787
11.2	0.79
11.2339	0.797
11.2678	0.799
11.3017	0.801
11.3356	0.799
11.3695	0.801
11.4034	0.795
11.4372	0.801
11.4711	0.799
11.505	0.801
11.5389	0.795
11.5728	0.799
11.6067	0.804
11.6406	0.807
11.6745	0.814
11.7084	0.814
11.7423	0.811
11.7762	0.814
11.8101	0.812
11.844	0.812
11.8779	0.816
11.9118	0.821
11.9457	0.826
11.9796	0.831
12.0135	0.832
12.0474	0.831
12.0813	0.831
12.1152	0.829
12.1491	0.822
12.183	0.824
12.2169	0.822
12.2508	0.812
12.2847	0.807
12.3186	0.807
12.3525	0.811
12.3864	0.814
12.4202	0.816
12.4541	0.814
12.488	0.816
12.5219	0.819
12.5558	0.821
12.5897	0.822
12.6236	0.829
12.6575	0.836
12.6914	0.839
12.7253	0.841
12.7592	0.846
12.7931	0.846
12.827	0.846
12.8609	0.846
12.8948	0.844
12.9287	0.847
12.9626	0.847
12.9965	0.849
13.0304	0.851
13.0643	0.852
13.0982	0.854
13.1321	0.851
13.166	0.846
13.1999	0.846
13.2338	0.846
13.2677	0.846
13.3016	0.849
13.3355	0.847
13.3694	0.846
13.4033	0.842
13.4371	0.841
13.471	0.837
13.5049	0.836
13.5388	0.836
13.5727	0.836
13.6066	0.834
13.6405	0.827
13.6744	0.817
13.7083	0.822
13.7422	0.822
13.7761	0.822
13.81	0.822
13.8439	0.822
13.8778	0.822
13.9117	0.824
13.9456	0.817
13.9795	0.811
14.0134	0.802
14.0473	0.807
14.0812	0.812
14.1151	0.816
14.149	0.812
14.1829	0.814
14.2168	0.812
14.2507	0.812
14.2846	0.812
14.3185	0.814
14.3524	0.812
14.3863	0.809
14.4201	0.811
14.454	0.811
14.4879	0.809
14.5218	0.807
14.5557	0.807
14.5896	0.807
14.6235	0.804
14.6574	0.802
14.6913	0.797
14.7252	0.797
14.7591	0.797
14.793	0.794
14.8269	0.795
14.8608	0.792
14.8947	0.79
14.9286	0.789
14.9625	0.787
14.9964	0.785
15.0303	0.784
15.0642	0.782
15.0981	0.779
15.132	0.779
15.1659	0.779
15.1998	0.777
15.2337	0.775
15.2676	0.77
15.3015	0.76
15.3354	0.752
15.3693	0.747
15.4031	0.744
15.437	0.744
15.4709	0.744
