Infrared Spectrum: ALLYL SULFONIC ACID, SODIUM SALT
Formula: C3 H5 Na O3 S
State: SOLID (MINERAL OIL MULL)
Class: COBLENTZ
Instrument: Not specified, most likely a prism, grating, or hybrid spectrometer.
Sampling: TRANSMISSION
Resolution: 4
Origin: DOW CHEMICAL COMPANY
MICROMETERS	TRANSMITTANCE
2.055	0.876
2.09613	0.876
2.13727	0.878
2.1784	0.879
2.21954	0.873
2.26067	0.862
2.30181	0.862
2.34294	0.866
2.38408	0.867
2.42521	0.874
2.46634	0.876
2.50748	0.879
2.54861	0.879
2.58975	0.881
2.63088	0.885
2.67202	0.885
2.71315	0.878
2.75428	0.849
2.79542	0.823
2.83655	0.79
2.87769	0.78
2.91882	0.809
2.95996	0.818
3.00109	0.823
3.04223	0.838
3.08336	0.84
3.12449	0.85
3.16563	0.859
3.20676	0.845
3.2479	0.797
3.28903	0.806
3.33017	0.71
3.3713	0.279
3.41243	0.072
3.45357	0.181
3.4947	0.305
3.53584	0.799
3.57697	0.867
3.61811	0.879
3.65924	0.878
3.70038	0.886
3.74151	0.888
3.78264	0.895
3.82378	0.902
3.86491	0.907
3.90605	0.919
3.94718	0.921
3.98832	0.927
4.02945	0.927
4.07059	0.927
4.11172	0.927
4.15285	0.926
4.19399	0.921
4.23512	0.915
4.27626	0.921
4.31739	0.924
4.35853	0.921
4.39966	0.926
4.44079	0.927
4.48193	0.927
4.52306	0.941
4.5642	0.946
4.60533	0.945
4.64647	0.948
4.6876	0.946
4.72874	0.945
4.76987	0.945
4.811	0.95
4.85214	0.95
4.89327	0.953
4.93441	0.957
4.97554	0.957
5.01668	0.953
5.05781	0.957
5.09895	0.958
5.14008	0.96
5.18121	0.96
5.22235	0.96
5.26348	0.957
5.30462	0.95
5.34575	0.943
5.38689	0.941
5.42802	0.95
5.46915	0.958
5.51029	0.958
5.55142	0.958
5.59256	0.957
5.63369	0.958
5.67483	0.955
5.71596	0.941
5.7571	0.939
5.79823	0.936
5.83936	0.938
5.8805	0.938
5.92163	0.931
5.96277	0.915
6.0039	0.895
6.04504	0.823
6.08617	0.789
6.1273	0.903
6.16844	0.919
6.20957	0.929
6.25071	0.936
6.29184	0.939
6.33298	0.943
6.37411	0.939
6.41525	0.946
6.45638	0.939
6.49751	0.938
6.53865	0.931
6.57978	0.924
6.62092	0.917
6.66205	0.9
6.70319	0.862
6.74432	0.753
6.78546	0.579
6.82659	0.488
6.86772	0.574
6.90886	0.677
6.94999	0.687
6.99113	0.711
7.03226	0.826
7.0734	0.801
7.11453	0.802
7.15566	0.811
7.1968	0.734
7.23793	0.653
7.27907	0.723
7.3202	0.819
7.36134	0.83
7.40247	0.831
7.44361	0.835
7.48474	0.835
7.52587	0.821
7.56701	0.799
7.60814	0.763
7.64928	0.747
7.69041	0.73
7.73155	0.72
7.77268	0.655
7.81381	0.524
7.85495	0.397
7.89608	0.303
7.93722	0.277
7.97835	0.204
8.01949	0.144
8.06062	0.128
8.10176	0.092
8.14289	0.077
8.18402	0.072
8.22516	0.061
8.26629	0.049
8.30743	0.042
8.34856	0.039
8.3897	0.037
8.43083	0.039
8.47197	0.063
8.5131	0.125
8.55423	0.226
8.59537	0.353
8.6365	0.483
8.67764	0.59
8.71877	0.644
8.75991	0.687
8.80104	0.72
8.84217	0.74
8.88331	0.751
8.92444	0.756
8.96558	0.761
9.00671	0.754
9.04785	0.74
9.08898	0.711
9.13012	0.68
9.17125	0.665
9.21238	0.658
9.25352	0.631
9.29465	0.504
9.33579	0.3
9.37692	0.142
9.41806	0.085
9.45919	0.104
9.50032	0.207
9.54146	0.413
9.58259	0.507
9.62373	0.603
9.66486	0.744
9.706	0.814
9.74713	0.831
9.78827	0.838
9.8294	0.828
9.87053	0.801
9.91167	0.754
9.9528	0.718
9.99394	0.687
10.0351	0.691
10.0762	0.773
10.1173	0.843
10.1585	0.874
10.1996	0.888
10.2407	0.895
10.2819	0.895
10.323	0.897
10.3641	0.895
10.4053	0.885
10.4464	0.866
10.4876	0.842
10.5287	0.806
10.5698	0.777
10.611	0.747
10.6521	0.698
10.6932	0.632
10.7344	0.586
10.7755	0.554
10.8166	0.536
10.8578	0.55
10.8989	0.639
10.94	0.825
10.9812	0.878
11.0223	0.902
11.0634	0.907
11.1046	0.907
11.1457	0.902
11.1868	0.891
11.228	0.886
11.2691	0.893
11.3102	0.902
11.3514	0.919
11.3925	0.938
11.4336	0.946
11.4748	0.951
11.5159	0.953
11.557	0.955
11.5982	0.953
11.6393	0.953
11.6804	0.951
11.7216	0.951
11.7627	0.953
11.8039	0.953
11.845	0.957
11.8861	0.958
11.9273	0.958
11.9684	0.957
12.0095	0.958
12.0507	0.958
12.0918	0.957
12.1329	0.955
12.1741	0.951
12.2152	0.95
12.2563	0.945
12.2975	0.931
12.3386	0.905
12.3797	0.862
12.4209	0.785
12.462	0.713
12.5031	0.648
12.5443	0.644
12.5854	0.706
12.6265	0.819
12.6677	0.852
12.7088	0.867
12.7499	0.876
12.7911	0.893
12.8322	0.902
12.8733	0.907
12.9145	0.914
12.9556	0.921
12.9967	0.924
13.0379	0.927
13.079	0.929
13.1202	0.931
13.1613	0.933
13.2024	0.931
13.2436	0.929
13.2847	0.927
13.3258	0.929
13.367	0.926
13.4081	0.921
13.4492	0.919
13.4904	0.915
13.5315	0.912
13.5726	0.912
13.6138	0.91
13.6549	0.907
13.696	0.898
13.7372	0.895
13.7783	0.895
13.8194	0.895
13.8606	0.903
13.9017	0.912
13.9428	0.919
13.984	0.922
14.0251	0.927
14.0662	0.927
14.1074	0.926
14.1485	0.919
14.1896	0.915
14.2308	0.915
14.2719	0.903
14.313	0.898
14.3542	0.893
14.3953	0.886
14.4365	0.873
14.4776	0.861
14.5187	0.84
14.5599	0.814
14.601	0.77
14.6421	0.727
14.6833	0.653
14.7244	0.571
14.7655	0.5
14.8067	0.437
14.8478	0.389
14.8889	0.355
14.9301	0.329
14.9712	0.312
15.0123	0.301
15.0535	0.296
15.0946	0.3
15.1357	0.312
15.1769	0.331
15.218	0.348
15.2591	0.373
15.3003	0.397
15.3414	0.435
15.3825	0.476
15.4237	0.524
15.4648	0.566
15.5059	0.602
15.5471	0.627
15.5882	0.644
15.6293	0.662
15.6705	0.668
15.7116	0.677
15.7528	0.68
15.7939	0.684
15.835	0.689
