Infrared Spectrum: PSEUDOUREA, 2-[2-(2-BORNYLAMINO)ETHYL]-2-THIO-, DIHYDROBROMIDE
Formula: C13 H27 Br2 N3 S
State: SOLID (1 mg / 650 mg KBr DISC)
Class: COBLENTZ III
Instrument: PERKIN-ELMER 521 (GRATING)
Instrument parameters: FILTER CHANGE AT 3150, 2500, 2000, 1150, 700, 410 CM^-^1, GRATING CHANGES AT 2000, 630 CM^-^1
Sampling: TRANSMISSION
Resolution: 4
Origin: SOUTHERN RESEARCH INSTITUTE
1/CM	TRANSMITTANCE
247.959	0.241
257.032	0.253
266.105	0.366
275.179	0.453
284.252	0.501
293.325	0.557
302.398	0.628
311.472	0.669
320.545	0.687
329.618	0.703
338.691	0.725
347.765	0.766
356.838	0.794
365.911	0.812
374.984	0.82
384.058	0.816
393.131	0.809
402.204	0.814
411.277	0.827
420.351	0.832
429.424	0.829
438.497	0.816
447.57	0.799
456.644	0.778
465.717	0.658
474.79	0.635
483.863	0.765
492.937	0.778
502.01	0.772
511.083	0.763
520.156	0.749
529.23	0.729
538.303	0.723
547.376	0.715
556.449	0.713
565.523	0.717
574.596	0.721
583.669	0.716
592.742	0.693
601.816	0.671
610.889	0.675
619.962	0.669
629.035	0.66
638.109	0.64
647.182	0.619
656.255	0.598
665.328	0.576
674.402	0.553
683.475	0.539
692.548	0.518
701.621	0.609
710.695	0.683
719.768	0.718
728.841	0.714
737.914	0.761
746.988	0.822
756.061	0.833
765.134	0.81
774.207	0.827
783.281	0.853
792.354	0.875
801.427	0.895
810.5	0.883
819.574	0.861
828.647	0.897
837.72	0.896
846.793	0.895
855.867	0.892
864.94	0.888
874.013	0.88
883.086	0.888
892.16	0.896
901.233	0.892
910.306	0.881
919.379	0.879
928.453	0.838
937.526	0.833
946.599	0.829
955.672	0.809
964.746	0.82
973.819	0.824
982.892	0.795
991.965	0.762
1001.04	0.79
1010.11	0.795
1019.19	0.741
1028.26	0.7
1037.33	0.719
1046.4	0.714
1055.48	0.671
1064.55	0.631
1073.62	0.67
1082.7	0.738
1091.77	0.784
1100.84	0.765
1109.92	0.748
1118.99	0.763
1128.06	0.761
1137.14	0.758
1146.21	0.734
1155.28	0.721
1164.36	0.719
1173.43	0.717
1182.5	0.696
1191.58	0.688
1200.65	0.714
1209.72	0.721
1218.8	0.72
1227.87	0.702
1236.94	0.672
1246.02	0.644
1255.09	0.588
1264.16	0.649
1273.24	0.668
1282.31	0.661
1291.38	0.636
1300.46	0.649
1309.53	0.614
1318.6	0.569
1327.68	0.607
1336.75	0.651
1345.82	0.639
1354.9	0.614
1363.97	0.605
1373.04	0.526
1382.11	0.437
1391.19	0.396
1400.26	0.388
1409.33	0.327
1418.41	0.274
1427.48	0.236
1436.55	0.264
1445.63	0.326
1454.7	0.461
1463.77	0.51
1472.85	0.509
1481.92	0.603
1490.99	0.714
1500.07	0.764
1509.14	0.768
1518.21	0.724
1527.29	0.626
1536.36	0.595
1545.43	0.722
1554.51	0.735
1563.58	0.686
1572.65	0.594
1581.73	0.709
1590.8	0.759
1599.87	0.696
1608.95	0.516
1618.02	0.276
1627.09	0.353
1636.17	0.105
1645.24	0.132
1654.31	0.524
1663.39	0.742
1672.46	0.822
1681.53	0.856
1690.61	0.866
1699.68	0.877
1708.75	0.879
1717.83	0.881
1726.9	0.881
1735.97	0.881
1745.04	0.881
1754.12	0.882
1763.19	0.883
1772.26	0.887
1781.34	0.892
1790.41	0.893
1799.48	0.895
1808.56	0.895
1817.63	0.895
1826.7	0.894
1835.78	0.894
1844.85	0.892
1853.92	0.891
1863	0.89
1872.07	0.886
1881.14	0.884
1890.22	0.883
1899.29	0.882
1908.36	0.881
1917.44	0.88
1926.51	0.88
1935.58	0.88
1944.66	0.88
1953.73	0.878
1962.8	0.876
1971.88	0.876
1980.95	0.876
1990.02	0.876
1999.1	0.875
2008.17	0.875
2017.24	0.875
2026.32	0.873
2035.39	0.869
2044.46	0.867
2053.54	0.866
2062.61	0.865
2071.68	0.863
2080.76	0.86
2089.83	0.857
2098.9	0.852
2107.97	0.85
2117.05	0.848
2126.12	0.848
2135.19	0.848
2144.27	0.848
2153.34	0.848
2162.41	0.848
2171.49	0.848
2180.56	0.846
2189.63	0.844
2198.71	0.842
2207.78	0.837
2216.85	0.833
2225.93	0.833
2235	0.833
2244.07	0.831
2253.15	0.83
2262.22	0.828
2271.29	0.824
2280.37	0.821
2289.44	0.813
2298.51	0.809
2307.59	0.803
2316.66	0.795
2325.73	0.787
2334.81	0.781
2343.88	0.776
2352.95	0.776
2362.03	0.779
2371.1	0.779
2380.17	0.775
2389.25	0.767
2398.32	0.754
2407.39	0.743
2416.47	0.748
2425.54	0.75
2434.61	0.751
2443.68	0.743
2452.76	0.737
2461.83	0.724
2470.9	0.744
2479.98	0.756
2489.05	0.751
2498.12	0.745
2507.2	0.737
2516.27	0.727
2525.34	0.719
2534.42	0.711
2543.49	0.702
2552.56	0.692
2561.64	0.677
2570.71	0.656
2579.78	0.644
2588.86	0.636
2597.93	0.621
2607	0.608
2616.08	0.606
2625.15	0.595
2634.22	0.581
2643.3	0.578
2652.37	0.573
2661.44	0.556
2670.52	0.527
2679.59	0.492
2688.66	0.455
2697.74	0.42
2706.81	0.412
2715.88	0.41
2724.96	0.403
2734.03	0.395
2743.1	0.391
2752.18	0.384
2761.25	0.381
2770.32	0.381
2779.4	0.385
2788.47	0.406
2797.54	0.42
2806.61	0.418
2815.69	0.411
2824.76	0.402
2833.83	0.393
2842.91	0.374
2851.98	0.342
2861.05	0.299
2870.13	0.251
2879.2	0.214
2888.27	0.205
2897.35	0.201
2906.42	0.176
2915.49	0.152
2924.57	0.133
2933.64	0.116
2942.71	0.104
2951.79	0.089
2960.86	0.089
2969.93	0.112
2979.01	0.116
2988.08	0.118
2997.15	0.123
3006.23	0.125
3015.3	0.125
3024.37	0.126
3033.45	0.13
3042.52	0.136
3051.59	0.144
3060.67	0.151
3069.74	0.154
3078.81	0.166
3087.89	0.182
3096.96	0.196
3106.03	0.209
3115.11	0.214
3124.18	0.216
3133.25	0.218
3142.33	0.219
3151.4	0.222
3160.47	0.223
3169.54	0.219
3178.62	0.214
3187.69	0.211
3196.76	0.213
3205.84	0.215
3214.91	0.219
3223.98	0.222
3233.06	0.225
3242.13	0.232
3251.2	0.237
3260.28	0.24
3269.35	0.24
3278.42	0.242
3287.5	0.254
3296.57	0.265
3305.64	0.27
3314.72	0.286
3323.79	0.311
3332.86	0.337
3341.94	0.365
3351.01	0.403
3360.08	0.44
3369.16	0.475
3378.23	0.504
3387.3	0.53
3396.38	0.553
3405.45	0.574
3414.52	0.599
3423.6	0.621
3432.67	0.639
3441.74	0.653
3450.82	0.666
3459.89	0.677
3468.96	0.687
3478.04	0.696
3487.11	0.707
3496.18	0.712
3505.25	0.72
3514.33	0.73
3523.4	0.738
3532.47	0.747
3541.55	0.756
3550.62	0.764
3559.69	0.773
3568.77	0.781
3577.84	0.79
3586.91	0.798
3595.99	0.806
3605.06	0.817
3614.13	0.827
3623.21	0.834
3632.28	0.841
3641.35	0.845
3650.43	0.848
3659.5	0.849
3668.57	0.849
3677.65	0.85
3686.72	0.852
3695.79	0.854
3704.87	0.855
3713.94	0.856
3723.01	0.856
3732.09	0.854
3741.16	0.852
3750.23	0.85
3759.31	0.849
3768.38	0.849
3777.45	0.849
3786.53	0.848
3795.6	0.848
3804.67	0.846
3813.75	0.844
