Infrared Spectrum: 2-PHENYL-3-BENZOFURANYL PENICILLIN, SODIUM SALT
Formula: C23 H19 N2 O5 S Na
State: SOLID (OIL MULL)
Class: COBLENTZ III
Instrument: Not specified, most likely a prism spectrometer.
Instrument parameters: NaCl PRISM
Sampling: TRANSMISSION
Resolution: 2
Origin: SMITH KLINE & FRENCH LABS.
MICROMETERS	TRANSMITTANCE
1.995	0.594
2.02916	0.598
2.06332	0.601
2.09748	0.605
2.13164	0.617
2.16579	0.623
2.19995	0.627
2.23411	0.632
2.26827	0.635
2.30243	0.634
2.33659	0.612
2.37075	0.628
2.40491	0.633
2.43907	0.643
2.47322	0.656
2.50738	0.686
2.54154	0.699
2.5757	0.705
2.60986	0.708
2.64402	0.711
2.67818	0.719
2.71234	0.728
2.7465	0.74
2.78066	0.742
2.81481	0.72
2.84897	0.61
2.88313	0.56
2.91729	0.541
2.95145	0.519
2.98561	0.481
3.01977	0.463
3.05393	0.462
3.08809	0.469
3.12224	0.469
3.1564	0.484
3.19056	0.487
3.22472	0.496
3.25888	0.51
3.29304	0.523
3.3272	0.524
3.36136	0.518
3.39552	0.332
3.42967	0.192
3.46383	0.112
3.49799	0.098
3.53215	0.098
3.56631	0.134
3.60047	0.503
3.63463	0.639
3.66879	0.724
3.70295	0.745
3.73711	0.762
3.77126	0.771
3.80542	0.775
3.83958	0.781
3.87374	0.802
3.9079	0.802
3.94206	0.804
3.97622	0.807
4.01038	0.82
4.04454	0.833
4.07869	0.837
4.11285	0.838
4.14701	0.838
4.18117	0.838
4.21533	0.847
4.24949	0.853
4.28365	0.861
4.31781	0.851
4.35197	0.859
4.38612	0.861
4.42028	0.861
4.45444	0.866
4.4886	0.86
4.52276	0.858
4.55692	0.861
4.59108	0.879
4.62524	0.865
4.6594	0.875
4.69356	0.883
4.72771	0.885
4.76187	0.887
4.79603	0.896
4.83019	0.895
4.86435	0.902
4.89851	0.9
4.93267	0.906
4.96683	0.904
5.00099	0.917
5.03514	0.921
5.0693	0.911
5.10346	0.917
5.13762	0.912
5.17178	0.913
5.20594	0.918
5.2401	0.918
5.27426	0.91
5.30842	0.918
5.34257	0.916
5.37673	0.91
5.41089	0.91
5.44505	0.91
5.47921	0.905
5.51337	0.875
5.54753	0.821
5.58169	0.615
5.61585	0.241
5.65	0.305
5.68416	0.497
5.71832	0.609
5.75248	0.705
5.78664	0.788
5.8208	0.81
5.85496	0.809
5.88912	0.807
5.92328	0.764
5.95744	0.651
5.99159	0.493
6.02575	0.256
6.05991	0.241
6.09407	0.451
6.12823	0.525
6.16239	0.495
6.19655	0.286
6.23071	0.151
6.26487	0.252
6.29902	0.367
6.33318	0.444
6.36734	0.536
6.4015	0.559
6.43566	0.525
6.46982	0.628
6.50398	0.66
6.53814	0.66
6.5723	0.643
6.60645	0.535
6.64061	0.468
6.67477	0.264
6.70893	0.32
6.74309	0.457
6.77725	0.481
6.81141	0.269
6.84557	0.219
6.87973	0.208
6.91389	0.248
6.94804	0.27
6.9822	0.48
7.01636	0.611
7.05052	0.615
7.08468	0.571
7.11884	0.487
7.153	0.314
7.18716	0.376
7.22132	0.404
7.25547	0.326
7.28963	0.265
7.32379	0.365
7.35795	0.413
7.39211	0.564
7.42627	0.6
7.46043	0.584
7.49459	0.531
7.52875	0.544
7.5629	0.56
7.59706	0.576
7.63122	0.546
7.66538	0.532
7.69954	0.53
7.7337	0.513
7.76786	0.461
7.80202	0.447
7.83618	0.473
7.87034	0.581
7.90449	0.618
7.93865	0.555
7.97281	0.425
8.00697	0.524
8.04113	0.574
8.07529	0.612
8.10945	0.616
8.14361	0.554
8.17777	0.567
8.21192	0.643
8.24608	0.663
8.28024	0.631
8.3144	0.523
8.34856	0.452
8.38272	0.485
8.41688	0.582
8.45104	0.656
8.4852	0.679
8.51935	0.677
8.55351	0.671
8.58767	0.626
8.62183	0.604
8.65599	0.617
8.69015	0.639
8.72431	0.662
8.75847	0.66
8.79263	0.731
8.82678	0.695
8.86094	0.601
8.8951	0.571
8.92926	0.54
8.96342	0.652
8.99758	0.691
9.03174	0.682
9.0659	0.686
9.10006	0.671
9.13422	0.662
9.16837	0.633
9.20253	0.571
9.23669	0.598
9.27085	0.686
9.30501	0.708
9.33917	0.656
9.37333	0.626
9.40749	0.705
9.44165	0.731
9.4758	0.74
9.50996	0.765
9.54412	0.787
9.57828	0.786
9.61244	0.779
9.6466	0.783
9.68076	0.785
9.71492	0.717
9.74908	0.691
9.78323	0.735
9.81739	0.771
9.85155	0.779
9.88571	0.787
9.91987	0.743
9.95403	0.756
9.98819	0.787
10.0223	0.794
10.0565	0.8
10.0907	0.802
10.1248	0.813
10.159	0.82
10.1931	0.826
10.2273	0.819
10.2615	0.797
10.2956	0.779
10.3298	0.77
10.3639	0.766
10.3981	0.774
10.4323	0.763
10.4664	0.707
10.5006	0.614
10.5347	0.565
10.5689	0.627
10.603	0.72
10.6372	0.768
10.6714	0.774
10.7055	0.787
10.7397	0.777
10.7738	0.786
10.808	0.797
10.8422	0.803
10.8763	0.804
10.9105	0.815
10.9446	0.821
10.9788	0.831
11.013	0.826
11.0471	0.803
11.0813	0.8
11.1154	0.803
11.1496	0.807
11.1838	0.796
11.2179	0.802
11.2521	0.802
11.2862	0.804
11.3204	0.816
11.3545	0.827
11.3887	0.833
11.4229	0.837
11.457	0.832
11.4912	0.834
11.5253	0.834
11.5595	0.836
11.5937	0.832
11.6278	0.82
11.662	0.793
11.6961	0.777
11.7303	0.785
11.7645	0.788
11.7986	0.802
11.8328	0.805
11.8669	0.803
11.9011	0.797
11.9352	0.782
11.9694	0.77
12.0036	0.771
12.0377	0.791
12.0719	0.788
12.106	0.787
12.1402	0.76
12.1744	0.725
12.2085	0.701
12.2427	0.691
12.2768	0.72
12.311	0.747
12.3452	0.757
12.3793	0.774
12.4135	0.788
12.4476	0.791
12.4818	0.791
12.5159	0.793
12.5501	0.792
12.5843	0.792
12.6184	0.788
12.6526	0.787
12.6867	0.787
12.7209	0.774
12.7551	0.765
12.7892	0.747
12.8234	0.748
12.8575	0.741
12.8917	0.728
12.9259	0.705
12.96	0.699
12.9942	0.69
13.0283	0.65
13.0625	0.6
13.0967	0.458
13.1308	0.485
13.165	0.6
13.1991	0.651
13.2333	0.654
13.2674	0.64
13.3016	0.55
13.3358	0.444
13.3699	0.258
13.4041	0.277
13.4382	0.434
13.4724	0.549
13.5066	0.6
13.5407	0.631
13.5749	0.637
13.609	0.641
13.6432	0.649
13.6774	0.66
13.7115	0.665
13.7457	0.688
13.7798	0.692
13.814	0.696
13.8481	0.697
13.8823	0.702
13.9165	0.705
13.9506	0.706
13.9848	0.713
14.0189	0.724
14.0531	0.728
14.0873	0.724
14.1214	0.73
14.1556	0.712
14.1897	0.701
14.2239	0.686
14.2581	0.675
14.2922	0.658
14.3264	0.651
14.3605	0.638
14.3947	0.625
14.4288	0.612
14.463	0.582
14.4972	0.567
14.5313	0.521
14.5655	0.436
14.5996	0.457
14.6338	0.516
14.668	0.587
14.7021	0.6
14.7363	0.606
14.7704	0.604
14.8046	0.578
14.8388	0.572
14.8729	0.578
14.9071	0.589
14.9412	0.572
14.9754	0.564
15.0096	0.56
15.0437	0.527
15.0779	0.52
15.112	0.535
15.1462	0.55
15.1803	0.564
15.2145	0.575
15.2487	0.582
15.2828	0.587
15.317	0.589
