Infrared Spectrum: Adenine, 3-(m-chlorobenzyl)-
Formula: C12 H10 Cl N5
State: SOLID (1 mg / 650 mg KBr DISC)
Class: COBLENTZ III
Instrument: PERKIN-ELMER 221 (GRATING)
Instrument parameters: FILTER AT 2490, 980 CM^-^1. GRATING 4000-1428 CM^-^1, NaCl PRISM 1428-650 CM^-^1
Sampling: TRANSMISSION
Resolution: 2
Origin: SOUTHERN RESEARCH INSTITUTE
1/CM	TRANSMITTANCE
597	0.8419
606	0.8387
615	0.8435
624	0.8568
633	0.8715
642	0.8723
651	0.7764
660	0.6052
669	0.6867
678	0.7379
687	0.7693
696	0.8254
705	0.6869
714	0.6873
723	0.9009
732	0.9072
741	0.901
750	0.8839
759	0.8582
768	0.8234
777	0.729
786	0.4592
795	0.7384
804	0.863
813	0.8034
822	0.9042
831	0.9473
840	0.9491
849	0.9401
858	0.9063
867	0.9145
876	0.9024
885	0.8259
894	0.921
903	0.8842
912	0.8972
921	0.9189
930	0.9152
939	0.8923
948	0.8271
957	0.9147
966	0.9178
975	0.8931
984	0.8575
993	0.8101
1002	0.6485
1011	0.6674
1020	0.8558
1029	0.897
1038	0.8936
1047	0.8812
1056	0.8554
1065	0.8238
1074	0.7387
1083	0.8404
1092	0.8462
1101	0.8549
1110	0.855
1119	0.8459
1128	0.8263
1137	0.8159
1146	0.7806
1155	0.5086
1164	0.3809
1173	0.5931
1182	0.7625
1191	0.7573
1200	0.6259
1209	0.6376
1218	0.7447
1227	0.7005
1236	0.6005
1245	0.8055
1254	0.8292
1263	0.7393
1272	0.7573
1281	0.8478
1290	0.8478
1299	0.8324
1308	0.798
1317	0.6948
1326	0.6492
1335	0.8111
1344	0.8074
1353	0.7925
1362	0.7582
1371	0.7627
1380	0.7555
1389	0.6804
1398	0.5232
1407	0.5602
1416	0.5042
1425	0.3478
1434	0.5514
1443	0.6578
1452	0.5311
1461	0.8246
1470	0.7672
1479	0.765
1488	0.8263
1497	0.8114
1506	0.74
1515	0.694
1524	0.8061
1533	0.7931
1542	0.7514
1551	0.5256
1560	0.578
1569	0.6913
1578	0.6162
1587	0.6408
1596	0.4979
1605	0.3554
1614	0.1832
1623	0.3307
1632	0.5438
1641	0.5229
1650	0.4352
1659	0.2548
1668	0.1871
1677	0.2494
1686	0.4351
1695	0.6993
1704	0.8184
1713	0.8805
1722	0.9037
1731	0.9175
1740	0.9235
1749	0.9276
1758	0.9267
1767	0.9302
1776	0.9303
1785	0.9249
1794	0.918
1803	0.9134
1812	0.9185
1821	0.9264
1830	0.9181
1839	0.9082
1848	0.9171
1857	0.9335
1866	0.9321
1875	0.9272
1884	0.922
1893	0.9177
1902	0.9231
1911	0.9271
1920	0.9243
1929	0.9206
1938	0.916
1947	0.9102
1956	0.9109
1965	0.9142
1974	0.911
1983	0.9055
1992	0.9027
2001	0.9007
2010	0.8997
2019	0.8991
2028	0.8969
2037	0.8942
2046	0.8922
2055	0.8907
2064	0.889
2073	0.8869
2082	0.8849
2091	0.8835
2100	0.8822
2109	0.8809
2118	0.8803
2127	0.8803
2136	0.8803
2145	0.8803
2154	0.8802
2163	0.8789
2172	0.8777
2181	0.8774
2190	0.8778
2199	0.8783
2208	0.877
2217	0.8748
2226	0.8725
2235	0.8719
2244	0.8729
2253	0.8731
2262	0.8707
2271	0.868
2280	0.8665
2289	0.8667
2298	0.8676
2307	0.8683
2316	0.8658
2325	0.8599
2334	0.8599
2343	0.8591
2352	0.8573
2361	0.8549
2370	0.8525
2379	0.8501
2388	0.8484
2397	0.8472
2406	0.8464
2415	0.8454
2424	0.8442
2433	0.8424
2442	0.8408
2451	0.84
2460	0.8391
2469	0.8382
2478	0.8373
2487	0.8343
2496	0.8287
2505	0.8261
2514	0.824
2523	0.8248
2532	0.8238
2541	0.8226
2550	0.8208
2559	0.8169
2568	0.8114
2577	0.805
2586	0.7986
2595	0.7963
2604	0.7958
2613	0.7952
2622	0.7946
2631	0.7914
2640	0.7846
2649	0.7717
2658	0.758
2667	0.7526
2676	0.7567
2685	0.7651
2694	0.7665
2703	0.7631
2712	0.7525
2721	0.7416
2730	0.74
2739	0.7405
2748	0.7392
2757	0.7362
2766	0.7306
2775	0.721
2784	0.7098
2793	0.7032
2802	0.6959
2811	0.6864
2820	0.6646
2829	0.6477
2838	0.6356
2847	0.6262
2856	0.6209
2865	0.6164
2874	0.6088
2883	0.6016
2892	0.594
2901	0.5853
2910	0.5733
2919	0.5574
2928	0.5403
2937	0.5317
2946	0.5214
2955	0.4995
2964	0.48
2973	0.4624
2982	0.4367
2991	0.418
3000	0.4205
3009	0.4319
3018	0.4425
3027	0.4474
3036	0.4534
3045	0.4535
3054	0.4389
3063	0.4235
3072	0.4854
3081	0.5071
3090	0.5213
3099	0.5314
3108	0.5406
3117	0.5557
3126	0.5607
3135	0.5643
3144	0.576
3153	0.6046
3162	0.6188
3171	0.6247
3180	0.6318
3189	0.6421
3198	0.6568
3207	0.6632
3216	0.6648
3225	0.6578
3234	0.6574
3243	0.6576
3252	0.6505
3261	0.6357
3270	0.6164
3279	0.6016
3288	0.5955
3297	0.5876
3306	0.573
3315	0.551
3324	0.5291
3333	0.5144
3342	0.512
3351	0.5175
3360	0.5172
3369	0.5117
3378	0.5048
3387	0.5063
3396	0.5151
3405	0.532
3414	0.5708
3423	0.6123
3432	0.6381
3441	0.6458
3450	0.6749
3459	0.6941
3468	0.7029
3477	0.7084
3486	0.7145
3495	0.7204
3504	0.7261
3513	0.7316
3522	0.7371
3531	0.7417
3540	0.7463
3549	0.751
3558	0.7558
3567	0.7609
3576	0.766
3585	0.7704
3594	0.7736
3603	0.7827
3612	0.7909
3621	0.7957
3630	0.7995
3639	0.8032
3648	0.8047
3657	0.8048
3666	0.8045
3675	0.8044
3684	0.8042
3693	0.8039
3702	0.8041
3711	0.8045
3720	0.8046
3729	0.8034
3738	0.8023
3747	0.8016
3756	0.8018
3765	0.8046
3774	0.8096
3783	0.8104
3792	0.8102
3801	0.809
3810	0.8054
3819	0.8013
3828	0.8002
3837	0.7998
3846	0.7993
3855	0.8024
3864	0.7886
3873	0.7857
3882	0.7874
3891	0.7864
3900	0.7854
3909	0.7846
3918	0.7846
3927	0.7855
3936	0.7858
3945	0.7854
3954	0.7845
3963	0.7832
3972	0.7819
3981	0.781
3990	0.7803
3999	0.7796
