Infrared Spectrum: BARIUM SULFATE (BARYTES, MINERAL)
Formula: O4 S Ba
State: SOLID (0.5 mg / 300 mg CsI DISC)
Class: COBLENTZ III
Instrument: BECKMAN IR-12 (GRATING)
Instrument parameters: GRATING BLAZED AT 3330, 1330, 445, 220 CM^-^1
Sampling: TRANSMISSION
Resolution: 4
Origin: DESOTO CHEMICAL COATINGS, INC.
1/CM	TRANSMITTANCE
203.988	0.59
214.623	0.61
225.258	0.6809
235.893	0.797
246.529	0.84
257.164	0.861
267.799	0.878
278.434	0.886
289.069	0.892
299.704	0.904
310.34	0.912
320.975	0.904
331.61	0.898
342.245	0.897
352.88	0.893
363.515	0.888
374.151	0.886
384.786	0.889
395.421	0.89
406.056	0.898
416.691	0.905
427.326	0.914
437.962	0.92
448.597	0.926
459.232	0.928
469.867	0.93
480.502	0.933
491.137	0.938
501.773	0.941
512.408	0.942
523.043	0.946
533.678	0.948
544.313	0.946
554.948	0.946
565.584	0.94
576.219	0.936
586.854	0.917
597.489	0.8581
608.124	0.3782
618.759	0.5599
629.395	0.65
640.03	0.5159
650.665	0.7798
661.3	0.877
671.935	0.914
682.57	0.937
693.206	0.945
703.841	0.954
714.476	0.96
725.111	0.96
735.746	0.961
746.381	0.961
757.017	0.965
767.652	0.966
778.287	0.965
788.922	0.964
799.557	0.962
810.192	0.961
820.828	0.964
831.463	0.965
842.098	0.968
852.733	0.968
863.368	0.965
874.003	0.964
884.639	0.961
895.274	0.958
905.909	0.953
916.544	0.949
927.179	0.948
937.814	0.94
948.45	0.932
959.085	0.92
969.72	0.904
980.355	0.861
990.99	0.852
1001.63	0.854
1012.26	0.824
1022.9	0.761
1033.53	0.702
1044.17	0.618
1054.8	0.48
1065.44	0.2851
1076.07	0.137
1086.71	0.144
1097.34	0.229
1107.98	0.237
1118.61	0.184
1129.25	0.2339
1139.88	0.374
1150.52	0.409
1161.15	0.322
1171.79	0.222
1182.42	0.226
1193.06	0.378
1203.69	0.518
1214.33	0.598
1224.96	0.641
1235.6	0.698
1246.23	0.733
1256.87	0.75
1267.5	0.768
1278.14	0.786
1288.77	0.798
1299.41	0.808
1310.05	0.818
1320.68	0.825
1331.32	0.833
1341.95	0.837
1352.59	0.841
1363.22	0.844
1373.86	0.846
1384.49	0.85
1395.13	0.852
1405.76	0.853
1416.4	0.854
1427.03	0.858
1437.67	0.857
1448.3	0.861
1458.94	0.861
1469.57	0.865
1480.21	0.874
1490.84	0.877
1501.48	0.878
1512.11	0.878
1522.75	0.878
1533.38	0.877
1544.02	0.874
1554.65	0.874
1565.29	0.873
1575.92	0.87
1586.56	0.861
1597.19	0.849
1607.83	0.836
1618.47	0.829
1629.1	0.836
1639.74	0.846
1650.37	0.853
1661.01	0.858
1671.64	0.861
1682.28	0.865
1692.91	0.87
1703.55	0.874
1714.18	0.874
1724.82	0.873
1735.45	0.876
1746.09	0.877
1756.72	0.881
1767.36	0.885
1777.99	0.885
1788.63	0.885
1799.26	0.886
1809.9	0.889
1820.53	0.885
1831.17	0.886
1841.8	0.888
1852.44	0.889
1863.07	0.888
1873.71	0.888
1884.34	0.885
1894.98	0.886
1905.61	0.885
1916.25	0.885
1926.88	0.885
1937.52	0.885
1948.16	0.882
1958.79	0.881
1969.43	0.881
1980.06	0.881
1990.7	0.881
2001.33	0.881
2011.97	0.8805
2022.6	0.8775
2033.24	0.876
2043.87	0.876
2054.51	0.8709
2065.14	0.8668
2075.78	0.862
2086.41	0.8629
2097.05	0.861
2107.68	0.861
2118.32	0.8628
2128.95	0.8628
2139.59	0.8614
2150.22	0.86
2160.86	0.86
2171.49	0.86
2182.13	0.861
2192.76	0.8603
2203.4	0.86
2214.03	0.858
2224.67	0.8607
2235.3	0.86
2245.94	0.86
2256.57	0.861
2267.21	0.8617
2277.85	0.8603
2288.48	0.86
2299.12	0.86
2309.75	0.86
2320.39	0.86
2331.02	0.857
2341.66	0.854
2352.29	0.853
2362.93	0.852
2373.56	0.85
2384.2	0.853
2394.83	0.8578
2405.47	0.86
2416.1	0.8571
2426.74	0.857
2437.37	0.857
2448.01	0.856
2458.64	0.854
2469.28	0.853
2479.91	0.853
2490.55	0.85
2501.18	0.849
2511.82	0.85
2522.45	0.849
2533.09	0.849
2543.72	0.848
2554.36	0.848
2564.99	0.846
2575.63	0.848
2586.27	0.846
2596.9	0.845
2607.54	0.845
2618.17	0.844
2628.81	0.845
2639.44	0.844
2650.08	0.841
2660.71	0.84
2671.35	0.84
2681.98	0.838
2692.62	0.838
2703.25	0.838
2713.89	0.8398
2724.52	0.838
2735.16	0.837
2745.79	0.836
2756.43	0.836
2767.06	0.8357
2777.7	0.832
2788.33	0.8322
2798.97	0.8338
2809.6	0.832
2820.24	0.832
2830.87	0.829
2841.51	0.8288
2852.14	0.8202
2862.78	0.8075
2873.41	0.8065
2884.05	0.8093
2894.68	0.808
2905.32	0.805
2915.96	0.7962
2926.59	0.777
2937.23	0.7813
2947.86	0.7883
2958.5	0.793
2969.13	0.798
2979.77	0.8004
2990.4	0.8061
3001.04	0.8094
3011.67	0.81
3022.31	0.81
3032.94	0.81
3043.58	0.81
3054.21	0.81
3064.85	0.809
3075.48	0.8085
3086.12	0.806
3096.75	0.805
3107.39	0.805
3118.02	0.804
3128.66	0.801
3139.29	0.8
3149.93	0.798
3160.56	0.797
3171.2	0.794
3181.83	0.7925
3192.47	0.79
3203.1	0.7894
3213.74	0.789
3224.38	0.7868
3235.01	0.7844
3245.65	0.781
3256.28	0.781
3266.92	0.7764
3277.55	0.7734
3288.19	0.772
3298.82	0.77
3309.46	0.765
3320.09	0.758
3330.73	0.7546
3341.36	0.7483
3352	0.7406
3362.63	0.7333
3373.27	0.7266
3383.9	0.7203
3394.54	0.7145
3405.17	0.7045
3415.81	0.6945
3426.44	0.6905
3437.08	0.689
3447.71	0.689
3458.35	0.688
3468.98	0.686
3479.62	0.6876
3490.25	0.6916
3500.89	0.6938
3511.52	0.6978
3522.16	0.7008
3532.79	0.706
3543.43	0.7117
3554.07	0.7197
3564.7	0.7259
3575.34	0.7318
3585.97	0.7378
3596.61	0.7419
3607.24	0.7499
3617.88	0.7579
3628.51	0.7609
3639.15	0.7649
3649.78	0.77
3660.42	0.772
3671.05	0.773
3681.69	0.774
3692.32	0.774
3702.96	0.774
3713.59	0.773
3724.23	0.773
3734.86	0.772
3745.5	0.7719
3756.13	0.77
3766.77	0.7691
3777.4	0.7718
3788.04	0.769
3798.67	0.768
3809.31	0.768
3819.94	0.768
3830.58	0.7659
3841.21	0.7649
3851.85	0.762
3862.48	0.762
3873.12	0.762
3883.76	0.761
3894.39	0.7608
3905.03	0.76
3915.66	0.76
3926.3	0.761
3936.93	0.76
3947.57	0.7578
3958.2	0.757
3968.84	0.758
3979.47	0.7577
