Infrared Spectrum: Polyethylene glycol
Formula: C2 H6 O2
State: LIQUID (NEAT)
Class: COBLENTZ III
Instrument: DOW KBr FOREPRISM-GRATING
Instrument parameters: BLAZED AT 3.5, 12.0, 20.0 MICRON AND CHANGED AT 5.0, 7.5, 14.9 MICRON
Sampling: TRANSMISSION
Path length: CAPILLARY
Resolution: 2
Origin: DOW CHEMICAL COMPANY
1/CM	TRANSMITTANCE
3802	0.8227
3793	0.8236
3784	0.8239
3775	0.8236
3766	0.8236
3757	0.8234
3748	0.8228
3739	0.8224
3730	0.8218
3721	0.8198
3712	0.8178
3703	0.8143
3694	0.8098
3685	0.8044
3676	0.7965
3667	0.788
3658	0.7756
3649	0.7588
3640	0.739
3631	0.7181
3622	0.6969
3613	0.6768
3604	0.6539
3595	0.6304
3586	0.6077
3577	0.5853
3568	0.562
3559	0.5385
3550	0.5194
3541	0.501
3532	0.4805
3523	0.4638
3514	0.4499
3505	0.4369
3496	0.4253
3487	0.4139
3478	0.4009
3469	0.3877
3460	0.3758
3451	0.364
3442	0.3508
3433	0.3377
3424	0.3262
3415	0.3155
3406	0.3053
3397	0.2967
3388	0.289
3379	0.2846
3370	0.282
3361	0.2815
3352	0.2844
3343	0.29
3334	0.2985
3325	0.3087
3316	0.3191
3307	0.3303
3298	0.3444
3289	0.3609
3280	0.378
3271	0.3964
3262	0.4151
3253	0.4374
3244	0.4597
3235	0.4809
3226	0.5023
3217	0.5298
3208	0.5578
3199	0.5853
3190	0.6095
3181	0.6312
3172	0.6538
3163	0.6761
3154	0.6957
3145	0.7147
3136	0.7294
3127	0.7436
3118	0.7561
3109	0.7669
3100	0.7748
3091	0.7794
3082	0.7832
3073	0.785
3064	0.7858
3055	0.7856
3046	0.7844
3037	0.7824
3028	0.7775
3019	0.7689
3010	0.7565
3001	0.7286
2992	0.6735
2983	0.5802
2974	0.4157
2965	0.349
2956	0.2601
2947	0.239
2938	0.2131
2929	0.1884
2920	0.1685
2911	0.1511
2902	0.1384
2893	0.1263
2884	0.1206
2875	0.121
2866	0.1594
2857	0.2083
2848	0.4175
2839	0.453
2830	0.4958
2821	0.573
2812	0.6057
2803	0.6299
2794	0.6535
2785	0.6788
2776	0.6932
2767	0.7014
2758	0.7064
2749	0.7141
2740	0.7237
2731	0.7339
2722	0.7453
2713	0.7568
2704	0.7695
2695	0.7833
2686	0.7976
2677	0.8058
2668	0.8101
2659	0.8128
2650	0.8155
2641	0.8181
2632	0.8204
2623	0.8224
2614	0.8244
2605	0.8264
2596	0.8296
2587	0.8328
2578	0.8362
2569	0.8393
2560	0.8405
2551	0.8416
2542	0.8418
2533	0.8414
2524	0.8411
2515	0.8408
2506	0.8415
2497	0.8421
2488	0.8428
2479	0.8436
2470	0.8454
2461	0.8475
2452	0.8499
2443	0.8516
2434	0.8533
2425	0.8545
2416	0.8555
2407	0.8571
2398	0.8602
2389	0.8652
2380	0.8683
2371	0.8689
2362	0.8692
2353	0.8692
2344	0.8675
2335	0.8655
2326	0.8625
2317	0.8599
2308	0.8585
2299	0.857
2290	0.8559
2281	0.8558
2272	0.8558
2263	0.8557
2254	0.8559
2245	0.8563
2236	0.8567
2227	0.8571
2218	0.8568
2209	0.8563
2200	0.8556
2191	0.8542
2182	0.8528
2173	0.8517
2164	0.8511
2155	0.8504
2146	0.85
2137	0.8497
2128	0.8498
2119	0.85
2110	0.8502
2101	0.8514
2092	0.8534
2083	0.8548
2074	0.8559
2065	0.8566
2056	0.8555
2047	0.8545
2038	0.8531
2029	0.8506
2020	0.847
2011	0.8433
2002	0.8397
1993	0.8327
1984	0.827
1975	0.8212
1966	0.8181
1957	0.8187
1948	0.8234
1939	0.8318
1930	0.84
1921	0.8471
1912	0.8532
1903	0.8578
1894	0.8623
1885	0.8661
1876	0.8687
1867	0.8708
1858	0.8721
1849	0.8728
1840	0.8728
1831	0.8727
1822	0.8724
1813	0.8721
1804	0.8717
1795	0.8716
1786	0.8716
1777	0.8714
1768	0.8707
1759	0.87
1750	0.8688
1741	0.8675
1732	0.8664
1723	0.8655
1714	0.8644
1705	0.8625
1696	0.859
1687	0.8491
1678	0.8338
1669	0.8124
1660	0.7915
1651	0.7743
1642	0.7725
1633	0.7818
1624	0.8006
1615	0.822
1606	0.8386
1597	0.8508
1588	0.8568
1579	0.8604
1570	0.8621
1561	0.8621
1552	0.8615
1543	0.8591
1534	0.8547
1525	0.8498
1516	0.8423
1507	0.8328
1498	0.8155
1489	0.7431
1480	0.5627
1471	0.5016
1462	0.4876
1453	0.4899
1444	0.5892
1435	0.6687
1426	0.7162
1417	0.7046
1408	0.6918
1399	0.6922
1390	0.6885
1381	0.6621
1372	0.617
1363	0.5065
1354	0.3276
1345	0.4264
1336	0.6489
1327	0.6168
1318	0.6056
1309	0.5377
1300	0.4818
1291	0.4967
1282	0.5373
1273	0.5834
1264	0.5558
1255	0.4387
1246	0.4123
1237	0.5182
1228	0.641
1219	0.6761
1210	0.7145
1201	0.7321
1192	0.726
1183	0.6992
1174	0.6467
1165	0.5235
1156	0.328
1147	0.1438
1138	0.0719
1129	0.0419
1120	0.0284
1111	0.0257
1102	0.0284
1093	0.038
1084	0.0558
1075	0.0866
1066	0.1291
1057	0.1851
1048	0.2878
1039	0.3559
1030	0.3846
1021	0.4876
1012	0.6039
1003	0.646
994	0.6495
985	0.6712
976	0.6971
967	0.6725
958	0.4765
949	0.3349
940	0.3791
931	0.4364
922	0.507
913	0.588
904	0.6564
895	0.6407
886	0.5851
877	0.6357
868	0.6611
859	0.6431
850	0.6033
841	0.5752
832	0.5745
823	0.6562
814	0.7201
805	0.7508
796	0.78
787	0.8011
778	0.8209
769	0.8295
760	0.8262
751	0.8203
742	0.8149
733	0.8096
724	0.805
715	0.8014
706	0.7988
697	0.7962
688	0.7937
679	0.7858
670	0.7583
661	0.7446
652	0.7308
643	0.7174
634	0.7036
625	0.6884
616	0.6703
607	0.6532
598	0.6419
589	0.6326
580	0.6279
571	0.6253
562	0.6252
553	0.6256
544	0.6244
535	0.6202
526	0.6182
517	0.6234
508	0.6392
499	0.6644
490	0.6797
481	0.6868
472	0.6898
463	0.6861
454	0.6743
445	0.6561
436	0.6326
427	0.6021
418	0.5745
409	0.5614
400	0.5723
