Infrared Spectrum: Carbanilic acid, 2,4-di-tert-butyl-, 2-chloroethyl ester
Formula: C17 H26 Cl N O2
State: SOLID (NUJOL MULL)
Melting point: 112 C
Class: COBLENTZ III
Instrument: BECKMAN IR-4 (HYBRID PRISM-GRATING)
Instrument parameters: NaCl PRISM
Sampling: TRANSMISSION
Resolution: 2
Origin: MONSANTO (J. FREEMAN)
1/CM	TRANSMITTANCE
626.027	0.81
634.851	0.8051
643.675	0.8063
652.5	0.7836
661.324	0.7883
670.148	0.8026
678.972	0.8484
687.796	0.8676
696.62	0.7995
705.445	0.7821
714.269	0.7515
723.093	0.7255
731.917	0.7238
740.741	0.827
749.565	0.7813
758.39	0.7476
767.214	0.7274
776.038	0.7327
784.862	0.855
793.686	0.9
802.51	0.9209
811.335	0.8868
820.159	0.6824
828.983	0.8598
837.807	0.9131
846.631	0.9069
855.455	0.9196
864.28	0.9218
873.104	0.9125
881.928	0.8122
890.752	0.8812
899.576	0.8875
908.4	0.8566
917.225	0.8687
926.049	0.8585
934.873	0.8625
943.697	0.8547
952.521	0.8344
961.345	0.8412
970.17	0.8491
978.994	0.8661
987.818	0.8817
996.642	0.8734
1005.47	0.8705
1014.29	0.8553
1023.11	0.8339
1031.94	0.7881
1040.76	0.5625
1049.59	0.5248
1058.41	0.6246
1067.24	0.4333
1076.06	0.5728
1084.88	0.656
1093.71	0.6553
1102.53	0.5693
1111.36	0.7469
1120.18	0.6394
1129	0.8213
1137.83	0.8404
1146.65	0.8017
1155.48	0.788
1164.3	0.8142
1173.13	0.8079
1181.95	0.7972
1190.77	0.6999
1199.6	0.5502
1208.42	0.5197
1217.25	0.6067
1226.07	0.386
1234.89	0.1169
1243.72	0.1067
1252.54	0.4212
1261.37	0.4412
1270.19	0.429
1279.02	0.5279
1287.84	0.6162
1296.66	0.6133
1305.49	0.568
1314.31	0.6515
1323.14	0.74
1331.96	0.7459
1340.78	0.7299
1349.61	0.7052
1358.43	0.6173
1367.26	0.3179
1376.08	0.4389
1384.91	0.399
1393.73	0.6319
1402.55	0.607
1411.38	0.7302
1420.2	0.7499
1429.03	0.7057
1437.85	0.4708
1446.67	0.2867
1455.5	0.1535
1464.32	0.1037
1473.15	0.1358
1481.97	0.4199
1490.8	0.4858
1499.62	0.4663
1508.44	0.4375
1517.27	0.2605
1526.09	0.1397
1534.92	0.1527
1543.74	0.3561
1552.56	0.6457
1561.39	0.7494
1570.21	0.8192
1579.04	0.8674
1587.86	0.8802
1596.69	0.8785
1605.51	0.8297
1614.33	0.7978
1623.16	0.8792
1631.98	0.8916
1640.81	0.8887
1649.63	0.8756
1658.45	0.835
1667.28	0.7642
1676.1	0.7088
1684.93	0.6305
1693.75	0.3697
1702.58	0.108
1711.4	0.094
1720.22	0.2913
1729.05	0.4449
1737.87	0.5626
1746.7	0.7387
1755.52	0.7898
1764.34	0.843
1773.17	0.8877
1781.99	0.901
1790.82	0.9095
1799.64	0.9132
1808.47	0.9144
1817.29	0.9148
1826.11	0.9156
1834.94	0.92
1843.76	0.9257
1852.59	0.9298
1861.41	0.933
1870.23	0.9352
1879.06	0.9362
1887.88	0.9357
1896.71	0.9335
1905.53	0.9312
1914.36	0.9298
1923.18	0.9294
1932	0.9306
1940.83	0.9317
1949.65	0.9325
1958.48	0.9338
1967.3	0.9352
1976.12	0.9363
1984.95	0.9372
1993.77	0.9378
2002.6	0.9371
2011.42	0.9357
2020.25	0.9348
2029.07	0.9341
2037.89	0.9334
2046.72	0.9333
2055.54	0.9332
2064.37	0.933
2073.19	0.9329
2082.01	0.9328
2090.84	0.9328
2099.66	0.9327
2108.49	0.9326
2117.31	0.9323
2126.14	0.9319
2134.96	0.9314
2143.78	0.931
2152.61	0.9304
2161.43	0.9296
2170.26	0.9289
2179.08	0.9281
2187.9	0.9274
2196.73	0.9268
2205.55	0.9262
2214.38	0.9256
2223.2	0.925
2232.03	0.9244
2240.85	0.9236
2249.67	0.9227
2258.5	0.9219
2267.32	0.9211
2276.15	0.9206
2284.97	0.9202
2293.79	0.9196
2302.62	0.9192
2311.44	0.9191
2320.27	0.9191
2329.09	0.9191
2337.92	0.9192
2346.74	0.9199
2355.56	0.9211
2364.39	0.922
2373.21	0.9226
2382.04	0.9226
2390.86	0.918
2399.68	0.9132
2408.51	0.9119
2417.33	0.9113
2426.16	0.9111
2434.98	0.911
2443.81	0.9111
2452.63	0.9111
2461.45	0.911
2470.28	0.9109
2479.1	0.9108
2487.93	0.9103
2496.75	0.9096
2505.57	0.9085
2514.4	0.9071
2523.22	0.9045
2532.05	0.902
2540.87	0.8985
2549.7	0.8948
2558.52	0.8911
2567.34	0.8873
2576.17	0.8834
2584.99	0.8793
2593.82	0.8751
2602.64	0.8708
2611.46	0.8666
2620.29	0.8625
2629.11	0.8585
2637.94	0.8546
2646.76	0.8503
2655.59	0.8459
2664.41	0.8412
2673.23	0.8364
2682.06	0.8314
2690.88	0.8263
2699.71	0.8211
2708.53	0.8158
2717.35	0.8105
2726.18	0.805
2735	0.7994
2743.83	0.7942
2752.65	0.7894
2761.48	0.7854
2770.3	0.7841
2779.12	0.7854
2787.95	0.7863
2796.77	0.7855
2805.6	0.7783
2814.42	0.7623
2823.24	0.7407
2832.07	0.719
2840.89	0.6613
2849.72	0.0386
2858.54	0.0306
2867.37	0.0267
2876.19	0.0232
2885.01	0.0192
2893.84	0.0141
2902.66	0.009
2911.49	0.0051
2920.31	0.0014
2929.13	0.0001
2937.96	0.0001
2946.78	0.0001
2955.61	0.0001
2964.43	0.0001
2973.26	0.0366
2982.08	0.0892
2990.9	0.1416
2999.73	0.1935
3008.55	0.2453
3017.38	0.2967
3026.2	0.3478
3035.02	0.5405
3043.85	0.6223
3052.67	0.675
3061.5	0.7044
3070.32	0.7294
3079.15	0.7494
3087.97	0.7703
3096.79	0.7852
3105.62	0.7932
3114.44	0.8003
3123.27	0.8052
3132.09	0.8089
3140.91	0.8115
3149.74	0.8125
3158.56	0.812
3167.39	0.8109
3176.21	0.8092
3185.04	0.8064
3193.86	0.799
3202.68	0.7894
3211.51	0.7797
3220.33	0.7685
3229.16	0.7565
3237.98	0.7441
3246.8	0.7288
3255.63	0.6543
3264.45	0.5919
3273.28	0.5297
3282.1	0.4679
3290.93	0.4065
3299.75	0.3454
3308.57	0.3196
3317.4	0.3184
3326.22	0.3196
3335.05	0.3408
3343.87	0.3935
3352.69	0.446
3361.52	0.4982
3370.34	0.5501
3379.17	0.6925
3387.99	0.7164
3396.82	0.7535
3405.64	0.7738
3414.46	0.7916
3423.29	0.8107
3432.11	0.8219
3440.94	0.8296
3449.76	0.8367
3458.58	0.8426
3467.41	0.8454
3476.23	0.848
3485.06	0.8501
3493.88	0.852
3502.71	0.8538
3511.53	0.8552
3520.35	0.8564
3529.18	0.8577
3538	0.8589
3546.83	0.8599
3555.65	0.8608
3564.47	0.8616
3573.3	0.8624
3582.12	0.863
3590.95	0.8636
3599.77	0.8643
3608.6	0.865
3617.42	0.8656
3626.24	0.8661
3635.07	0.8665
3643.89	0.8669
3652.72	0.8673
3661.54	0.8676
3670.36	0.8675
3679.19	0.8674
3688.01	0.8673
3696.84	0.8672
3705.66	0.8671
3714.49	0.8669
3723.31	0.8668
3732.13	0.8665
3740.96	0.8663
3749.78	0.8659
3758.61	0.8654
3767.43	0.8651
3776.25	0.8646
3785.08	0.8642
3793.9	0.8644
3802.73	0.8649
3811.55	0.8652
3820.38	0.8656
3829.2	0.8649
3838.02	0.8638
3846.85	0.8624
3855.67	0.8609
3864.5	0.8595
3873.32	0.8579
3882.14	0.8564
3890.97	0.8553
3899.79	0.8544
3908.62	0.8537
3917.44	0.8533
3926.27	0.8529
3935.09	0
