Infrared Spectrum: PIPRADROL HYDROCHLORIDE
Formula: C18 H22 Cl N O  * H2 O
State: SOLID (1 mg / 200 mg KCl DISC) VS KCl
Melting point: 308-309 C DECOMP.
Class: COBLENTZ III
Instrument: PERKIN-ELMER 21 (GRATING)
Instrument parameters: FILTER AT ABOUT 10 MICRONS
Sampling: TRANSMISSION
Path length: 0.055 CM (THICKNESS)
Resolution: 2
1/CM	TRANSMITTANCE
4000	0.839
3991	0.8398
3982	0.8405
3973	0.8413
3964	0.8421
3955	0.8428
3946	0.8441
3937	0.8454
3928	0.8466
3919	0.8478
3910	0.8492
3901	0.8504
3892	0.8517
3883	0.853
3874	0.8543
3865	0.8556
3856	0.8568
3847	0.8581
3838	0.8594
3829	0.8607
3820	0.8621
3811	0.8638
3802	0.8654
3793	0.8671
3784	0.8688
3775	0.8707
3766	0.8725
3757	0.8739
3748	0.8743
3739	0.8746
3730	0.875
3721	0.8754
3712	0.8758
3703	0.8761
3694	0.8759
3685	0.8756
3676	0.8753
3667	0.8745
3658	0.8736
3649	0.8718
3640	0.8691
3631	0.8654
3622	0.859
3613	0.8524
3604	0.8425
3595	0.8325
3586	0.8221
3577	0.8114
3568	0.8015
3559	0.7925
3550	0.7835
3541	0.7764
3532	0.7696
3523	0.7628
3514	0.7561
3505	0.7471
3496	0.736
3487	0.7194
3478	0.699
3469	0.6818
3460	0.6674
3451	0.6532
3442	0.6376
3433	0.6208
3424	0.603
3415	0.5889
3406	0.5764
3397	0.5653
3388	0.5541
3379	0.5372
3370	0.5171
3361	0.5022
3352	0.4853
3343	0.4662
3334	0.4082
3325	0.3673
3316	0.326
3307	0.2847
3298	0.2543
3289	0.2501
3280	0.2492
3271	0.2622
3262	0.3015
3253	0.3434
3244	0.3857
3235	0.4282
3226	0.4709
3217	0.5139
3208	0.5393
3199	0.5455
3190	0.5521
3181	0.5588
3172	0.574
3163	0.5938
3154	0.6136
3145	0.6272
3136	0.6285
3127	0.6283
3118	0.6189
3109	0.5878
3100	0.5559
3091	0.5237
3082	0.4912
3073	0.4588
3064	0.4262
3055	0.42
3046	0.4191
3037	0.4194
3028	0.429
3019	0.4448
3010	0.4489
3001	0.451
2992	0.4458
2983	0.4112
2974	0.3743
2965	0.3516
2956	0.3508
2947	0.3532
2938	0.3677
2929	0.4088
2920	0.4505
2911	0.4926
2902	0.5348
2893	0.5701
2884	0.5699
2875	0.535
2866	0.4981
2857	0.4727
2848	0.4805
2839	0.5003
2830	0.5179
2821	0.5124
2812	0.4848
2803	0.4605
2794	0.4422
2785	0.4326
2776	0.428
2767	0.4265
2758	0.44
2749	0.4572
2740	0.4587
2731	0.4442
2722	0.4119
2713	0.4129
2704	0.4296
2695	0.4477
2686	0.471
2677	0.5152
2668	0.5493
2659	0.5779
2650	0.6037
2641	0.631
2632	0.6575
2623	0.6841
2614	0.6875
2605	0.6822
2596	0.6645
2587	0.6651
2578	0.6736
2569	0.6936
2560	0.7124
2551	0.7315
2542	0.7419
2533	0.7461
2524	0.7468
2515	0.7431
2506	0.7411
2497	0.7407
2488	0.7415
2479	0.7437
2470	0.7485
2461	0.7628
2452	0.7981
2443	0.8121
2434	0.82
2425	0.8252
2416	0.8271
2407	0.8247
2398	0.8194
2389	0.8194
2380	0.8212
2371	0.8244
2362	0.8292
2353	0.8349
2344	0.8421
2335	0.85
2326	0.857
2317	0.8639
2308	0.8697
2299	0.8745
2290	0.8798
2281	0.8861
2272	0.8921
2263	0.8965
2254	0.9014
2245	0.906
2236	0.9081
2227	0.9153
2218	0.9189
2209	0.92
2200	0.9211
2191	0.9223
2182	0.9231
2173	0.9238
2164	0.9234
2155	0.9225
2146	0.9213
2137	0.92
2128	0.9208
2119	0.9217
2110	0.9234
2101	0.9255
2092	0.9277
2083	0.9297
2074	0.9318
2065	0.9338
2056	0.936
2047	0.9345
2038	0.9328
2029	0.9334
2020	0.9345
2011	0.9358
2002	0.9373
1993	0.9381
1984	0.9363
1975	0.9307
1966	0.9211
1957	0.9175
1948	0.9185
1939	0.927
1930	0.9358
1921	0.9408
1912	0.9398
1903	0.9338
1894	0.93
1885	0.9281
1876	0.9278
1867	0.9317
1858	0.9374
1849	0.9414
1840	0.941
1831	0.9378
1822	0.9341
1813	0.9302
1804	0.9307
1795	0.9349
1786	0.9404
1777	0.9425
1768	0.9428
1759	0.9445
1750	0.9461
1741	0.942
1732	0.942
1723	0.9416
1714	0.9407
1705	0.9384
1696	0.9334
1687	0.9208
1678	0.9089
1669	0.8984
1660	0.8942
1651	0.8897
1642	0.88
1633	0.8751
1624	0.8731
1615	0.8711
1606	0.8144
1597	0.7362
1588	0.5254
1579	0.4649
1570	0.8006
1561	0.8516
1552	0.8859
1543	0.9075
1534	0.9131
1525	0.9175
1516	0.9184
1507	0.9008
1498	0.6191
1489	0.7103
1480	0.8259
1471	0.6686
1462	0.7021
1453	0.3444
1444	0.4896
1435	0.7767
1426	0.8252
1417	0.5734
1408	0.5179
1399	0.7271
1390	0.6938
1381	0.5534
1372	0.6032
1363	0.7195
1354	0.7583
1345	0.7997
1336	0.7961
1327	0.8112
1318	0.572
1309	0.595
1300	0.5592
1291	0.7597
1282	0.8283
1273	0.7983
1264	0.6932
1255	0.8417
1246	0.8728
1237	0.8803
1228	0.8868
1219	0.887
1210	0.8528
1201	0.8555
1192	0.6654
1183	0.7075
1174	0.7199
1165	0.6815
1156	0.7576
1147	0.831
1138	0.7989
1129	0.7028
1120	0.8462
1111	0.8468
1102	0.8597
1093	0.8451
1084	0.7883
1075	0.7439
1066	0.6121
1057	0.7711
1048	0.8732
1039	0.841
1030	0.7788
1021	0.8323
1012	0.7042
1003	0.7305
994	0.8697
985	0.7608
976	0.6831
967	0.891
958	0.9175
949	0.9311
940	0.8509
931	0.8306
922	0.8437
913	0.8417
904	0.8796
895	0.896
886	0.9291
877	0.923
868	0.7594
859	0.8927
850	0.9292
841	0.9155
832	0.931
823	0.924
814	0.9244
805	0.9338
796	0.9265
787	0.9273
778	0.7961
769	0.8328
760	0.8865
751	0.8172
742	0.3574
733	0.813
724	0.8812
715	0.8521
706	0.2755
697	0.6518
688	0.5685
679	0.8186
670	0.818
