Infrared Spectrum: Dibutylamine hydrochloride
Formula: C8 H20 Cl N
State: SOLID (NUJOL MULL)
Class: COBLENTZ III
Instrument: DOW KBr FOREPRISM-GRATING
Instrument parameters: BLAZED AT 3.5, 12.0, 20.0 MICRON AND CHANGED AT 5.0, 7.5, 14.9 MICRON
Sampling: TRANSMISSION
Resolution: 2
Origin: DOW CHEMICAL COMPANY
1/CM	TRANSMITTANCE
452	0.7656
461	0.776
470	0.7864
479	0.7958
488	0.8006
497	0.8031
506	0.8068
515	0.8117
524	0.8154
533	0.8186
542	0.823
551	0.8275
560	0.8294
569	0.8302
578	0.8298
587	0.8414
596	0.8303
605	0.8314
614	0.8363
623	0.8343
632	0.8294
641	0.83
650	0.8301
659	0.8518
668	0.8827
677	0.9134
686	0.9442
695	0.9749
704	0.999
713	0.9753
722	0.9482
731	0.9363
740	0.8657
749	0.9344
758	0.9138
767	0.9677
776	0.9668
785	0.9498
794	0.932
803	0.9495
812	0.9721
821	0.9803
830	0.9781
839	0.9751
848	0.9689
857	0.9591
866	0.9452
875	0.9307
884	0.9174
893	0.9296
902	0.9598
911	0.9574
920	0.9596
929	0.9602
938	0.9578
947	0.9543
956	0.9524
965	0.9509
974	0.9515
983	0.9478
992	0.9477
1001	0.9525
1010	0.9532
1019	0.9475
1028	0.9425
1037	0.9345
1046	0.933
1055	0.937
1064	0.9311
1073	0.9291
1082	0.946
1091	0.953
1100	0.9516
1109	0.9654
1118	0.9921
1127	0.9831
1136	0.9498
1145	0.9052
1154	0.9517
1163	0.9488
1172	0.9442
1181	0.947
1190	0.962
1199	0.9621
1208	0.9654
1217	0.9646
1226	0.9632
1235	0.956
1244	0.9451
1253	0.9314
1262	0.9221
1271	0.9194
1280	0.9173
1289	0.9131
1298	0.9068
1307	0.9053
1316	0.902
1325	0.897
1334	0.8732
1343	0.8249
1352	0.8325
1361	0.8592
1370	0.811
1379	0.6601
1388	0.7728
1397	0.8483
1406	0.7771
1415	0.7295
1424	0.8128
1433	0.7487
1442	0.679
1451	0.5082
1460	0.422
1469	0.5177
1478	0.6596
1487	0.7949
1496	0.8558
1505	0.8689
1514	0.8768
1523	0.882
1532	0.8827
1541	0.8815
1550	0.8795
1559	0.8753
1568	0.8641
1577	0.8366
1586	0.7768
1595	0.7812
1604	0.8457
1613	0.8858
1622	0.9018
1631	0.9202
1640	0.9328
1649	0.9278
1658	0.9215
1667	0.9212
1676	0.9206
1685	0.9206
1694	0.921
1703	0.9237
1712	0.9218
1721	0.9244
1730	0.9233
1739	0.9262
1748	0.9263
1757	0.9325
1766	0.936
1775	0.9388
1784	0.9351
1793	0.9377
1802	0.9365
1811	0.9335
1820	0.9296
1829	0.926
1838	0.9227
1847	0.917
1856	0.9168
1865	0.9173
1874	0.9203
1883	0.9253
1892	0.9302
1901	0.934
1910	0.9352
1919	0.9373
1928	0.938
1937	0.9393
1946	0.9425
1955	0.9752
1964	0.9388
1973	0.9384
1982	0.9392
1991	0.9405
2000	0.9271
2009	0.9278
2018	0.9318
2027	0.9343
2036	0.9278
2045	0.9251
2054	0.9211
2063	0.9183
2072	0.9258
2081	0.9263
2090	0.9259
2099	0.9246
2108	0.9237
2117	0.9231
2126	0.9223
2135	0.9214
2144	0.9202
2153	0.9187
2162	0.9174
2171	0.9163
2180	0.9153
2189	0.9145
2198	0.9138
2207	0.913
2216	0.9115
2225	0.9098
2234	0.9082
2243	0.907
2252	0.906
2261	0.9051
2270	0.905
2279	0.9046
2288	0.9037
2297	0.9021
2306	0.8995
2315	0.8946
2324	0.8883
2333	0.8804
2342	0.8687
2351	0.8544
2360	0.8349
2369	0.8064
2378	0.7678
2387	0.7354
2396	0.7454
2405	0.7742
2414	0.7751
2423	0.7534
2432	0.7015
2441	0.6026
2450	0.5421
2459	0.5699
2468	0.6364
2477	0.7028
2486	0.7703
2495	0.7781
2504	0.7715
2513	0.748
2522	0.7078
2531	0.6636
2540	0.6346
2549	0.5906
2558	0.6029
2567	0.6249
2576	0.6417
2585	0.6735
2594	0.6819
2603	0.6772
2612	0.6599
2621	0.622
2630	0.5874
2639	0.5526
2648	0.5196
2657	0.5031
2666	0.4919
2675	0.4734
2684	0.4349
2693	0.3905
2702	0.3462
2711	0.3018
2720	0.2584
2729	0.2346
2738	0.2227
2747	0.2153
2756	0.2119
2765	0.2107
2774	0.2052
2783	0.1832
2792	0.1727
2801	0.1745
2810	0.1774
2819	0.1916
2828	0.1976
2837	0.1548
2846	0.0916
2855	0.0922
2864	0.0958
2873	0.1556
2882	0.1591
2891	0.111
2900	0.0723
2909	0.0366
2918	0.0183
2927	0.019
2936	0.0351
2945	0.0321
2954	0.0264
2963	0.0453
2972	0.1432
2981	0.1934
2990	0.2569
2999	0.294
3008	0.3496
3017	0.4146
3026	0.4805
3035	0.533
3044	0.5654
3053	0.6095
3062	0.6353
3071	0.659
3080	0.6912
3089	0.7239
3098	0.7448
3107	0.763
3116	0.779
3125	0.7911
3134	0.799
3143	0.8042
3152	0.8075
3161	0.8103
3170	0.8131
3179	0.8151
3188	0.8183
3197	0.8231
3206	0.8309
3215	0.8405
3224	0.8503
3233	0.8553
3242	0.8578
3251	0.8593
3260	0.8605
3269	0.8598
3278	0.859
3287	0.8582
3296	0.8568
3305	0.8553
3314	0.8539
3323	0.8513
3332	0.8491
3341	0.8474
3350	0.8458
3359	0.8442
3368	0.8425
3377	0.8403
3386	0.8378
3395	0.8354
3404	0.8332
3413	0.831
3422	0.8288
3431	0.8271
3440	0.826
3449	0.825
3458	0.8247
3467	0.8243
3476	0.8246
3485	0.825
3494	0.8259
3503	0.8268
3512	0.8287
3521	0.8306
3530	0.8325
3539	0.8351
3548	0.8382
3557	0.8415
3566	0.8451
3575	0.8477
3584	0.8498
3593	0.8509
3602	0.8513
3611	0.8517
3620	0.852
3629	0.8521
3638	0.8525
3647	0.8527
3656	0.8528
3665	0.853
3674	0.8527
3683	0.8523
3692	0.8518
3701	0.8514
3710	0.8506
3719	0.8498
3728	0.849
3737	0.8483
3746	0.8478
3755	0.8473
3764	0.8471
3773	0.8468
3782	0.8467
3791	0.8465
3800	0.8463
