Infrared Spectrum: COBALTOUS CHLORIDE HEXAHYDRATE
Formula: Co Cl2  * 6 H2 O
State: SOLID (MINERAL OIL MULL)
Class: COBLENTZ
Instrument: Not specified, most likely a prism, grating, or hybrid spectrometer.
Sampling: TRANSMISSION
Resolution: 4
Origin: WYANDOTTE CHEMICALS CORP., WYANDOTTE, MICHIGAN, USA
MICROMETERS	TRANSMITTANCE
2.007	0.891
2.04772	0.91
2.08844	0.92
2.12915	0.932
2.16987	0.952
2.21059	0.952
2.25131	0.947
2.29203	0.952
2.33274	0.96
2.37346	0.95
2.41418	0.945
2.4549	0.942
2.49562	0.95
2.53634	0.959
2.57705	0.957
2.61777	0.923
2.65849	0.867
2.69921	0.772
2.73993	0.589
2.78064	0.409
2.82136	0.1
2.86208	0.044
2.9028	0.05
2.94352	0.035
2.98423	0.03
3.02495	0.032
3.06567	0.037
3.10639	0.04
3.14711	0.037
3.18783	0.033
3.22854	0.044
3.26926	0.073
3.30998	0.108
3.3507	0.129
3.39142	0.044
3.43213	0.037
3.47285	0.061
3.51357	0.1
3.55429	0.169
3.59501	0.561
3.63572	0.641
3.67644	0.663
3.71716	0.679
3.75788	0.707
3.7986	0.728
3.83932	0.75
3.88003	0.774
3.92075	0.782
3.96147	0.799
4.00219	0.813
4.04291	0.82
4.08362	0.823
4.12434	0.823
4.16506	0.83
4.20578	0.831
4.2465	0.823
4.28721	0.797
4.32793	0.799
4.36865	0.801
4.40937	0.842
4.45009	0.831
4.49081	0.816
4.53152	0.811
4.57224	0.804
4.61296	0.801
4.65368	0.799
4.6944	0.799
4.73511	0.801
4.77583	0.801
4.81655	0.797
4.85727	0.791
4.89799	0.782
4.9387	0.78
4.97942	0.782
5.02014	0.813
5.06086	0.84
5.10158	0.85
5.14229	0.87
5.18301	0.882
5.22373	0.893
5.26445	0.898
5.30517	0.899
5.34589	0.898
5.3866	0.898
5.42732	0.899
5.46804	0.884
5.50876	0.889
5.54948	0.886
5.59019	0.879
5.63091	0.869
5.67163	0.853
5.71235	0.842
5.75307	0.803
5.79378	0.76
5.8345	0.697
5.87522	0.607
5.91594	0.499
5.95666	0.4
5.99738	0.28
6.03809	0.219
6.07881	0.202
6.11953	0.193
6.16025	0.181
6.20097	0.203
6.24168	0.263
6.2824	0.358
6.32312	0.431
6.36384	0.478
6.40456	0.502
6.44527	0.531
6.48599	0.539
6.52671	0.558
6.56743	0.563
6.60815	0.572
6.64887	0.577
6.68958	0.568
6.7303	0.551
6.77102	0.47
6.81174	0.297
6.85246	0.252
6.89317	0.312
6.93389	0.388
6.97461	0.497
7.01533	0.589
7.05605	0.602
7.09676	0.611
7.13748	0.612
7.1782	0.609
7.21892	0.544
7.25964	0.419
7.30036	0.402
7.34107	0.504
7.38179	0.57
7.42251	0.582
7.46323	0.595
7.50395	0.602
7.54466	0.609
7.58538	0.611
7.6261	0.612
7.66682	0.611
7.70754	0.611
7.74825	0.623
7.78897	0.626
7.82969	0.629
7.87041	0.631
7.91113	0.634
7.95184	0.638
7.99256	0.641
8.03328	0.641
8.074	0.645
8.11472	0.648
8.15544	0.657
8.19615	0.66
8.23687	0.653
8.27759	0.663
8.31831	0.663
8.35903	0.667
8.39974	0.668
8.44046	0.67
8.48118	0.672
8.5219	0.667
8.56262	0.66
8.60333	0.66
8.64405	0.66
8.68477	0.657
8.72549	0.658
8.76621	0.663
8.80693	0.663
8.84764	0.662
8.88836	0.665
8.92908	0.657
8.9698	0.655
9.01052	0.653
9.05123	0.648
9.09195	0.653
9.13267	0.658
9.17339	0.653
9.21411	0.658
9.25482	0.658
9.29554	0.658
9.33626	0.653
9.37698	0.66
9.4177	0.66
9.45842	0.66
9.49913	0.66
9.53985	0.658
9.58057	0.658
9.62129	0.662
9.66201	0.658
9.70272	0.662
9.74344	0.665
9.78416	0.665
9.82488	0.67
9.8656	0.675
9.90631	0.675
9.94703	0.674
9.98775	0.679
10.0285	0.68
10.0692	0.68
10.1099	0.682
10.1506	0.68
10.1913	0.674
10.2321	0.677
10.2728	0.674
10.3135	0.667
10.3542	0.667
10.3949	0.667
10.4356	0.665
10.4764	0.66
10.5171	0.658
10.5578	0.657
10.5985	0.653
10.6392	0.653
10.68	0.65
10.7207	0.643
10.7614	0.643
10.8021	0.641
10.8428	0.64
10.8835	0.636
10.9243	0.633
10.965	0.629
11.0057	0.629
11.0464	0.623
11.0871	0.621
11.1279	0.617
11.1686	0.609
11.2093	0.601
11.25	0.594
11.2907	0.597
11.3314	0.589
11.3722	0.58
11.4129	0.572
11.4536	0.567
11.4943	0.558
11.535	0.546
11.5758	0.534
11.6165	0.521
11.6572	0.511
11.6979	0.497
11.7386	0.482
11.7793	0.466
11.8201	0.451
11.8608	0.432
11.9015	0.421
11.9422	0.402
11.9829	0.383
12.0237	0.368
12.0644	0.353
12.1051	0.334
12.1458	0.317
12.1865	0.3
12.2272	0.292
12.268	0.273
12.3087	0.263
12.3494	0.258
12.3901	0.249
12.4308	0.242
12.4716	0.241
12.5123	0.234
12.553	0.241
12.5937	0.241
12.6344	0.244
12.6751	0.252
12.7159	0.259
12.7566	0.266
12.7973	0.273
12.838	0.283
12.8787	0.3
12.9195	0.308
12.9602	0.319
13.0009	0.32
13.0416	0.332
13.0823	0.341
13.123	0.344
13.1638	0.353
13.2045	0.354
13.2452	0.365
13.2859	0.368
13.3266	0.375
13.3674	0.382
13.4081	0.385
13.4488	0.388
13.4895	0.385
13.5302	0.392
13.5709	0.392
13.6117	0.392
13.6524	0.39
13.6931	0.39
13.7338	0.39
13.7745	0.388
13.8153	0.387
13.856	0.383
13.8967	0.378
13.9374	0.371
13.9781	0.37
14.0188	0.37
14.0596	0.365
14.1003	0.365
14.141	0.358
14.1817	0.351
14.2224	0.342
14.2632	0.336
14.3039	0.332
14.3446	0.322
14.3853	0.312
14.426	0.308
14.4667	0.302
14.5075	0.3
14.5482	0.293
14.5889	0.288
14.6296	0.285
14.6703	0.276
14.7111	0.273
14.7518	0.268
14.7925	0.268
14.8332	0.264
14.8739	0.264
14.9146	0.261
14.9554	0.258
14.9961	0.259
15.0368	0.271
15.0775	0.297
15.1182	0.312
15.159	0.29
15.1997	0.273
15.2404	0.269
15.2811	0.278
15.3218	0.29
15.3625	0.303
15.4033	0.305
15.444	0.314
15.4847	0.334
15.5254	0.344
15.5661	0.348
15.6069	0.358
15.6476	0.363
15.6883	0.373
15.729	0.39
15.7697	0.402
15.8104	0.417
15.8512	0.424
15.8919	0.443
15.9326	0.451
15.9733	0.463
