Infrared Spectrum: HEXAMETHYLENE TETRAMINE ALLYLIODIDE
Formula: C9 H17 I N4
State: SOLID (MINERAL OIL MULL)
Class: COBLENTZ
Instrument: Not specified, most likely a prism, grating, or hybrid spectrometer.
Sampling: TRANSMISSION
Resolution: 4
Origin: WYANDOTTE CHEMICALS CORP., WYANDOTTE, MICHIGAN, USA
MICROMETERS	TRANSMITTANCE
2.014	0.37
2.05488	0.38
2.09575	0.387
2.13663	0.389
2.1775	0.385
2.21838	0.368
2.25926	0.368
2.30013	0.373
2.34101	0.38
2.38188	0.404
2.42276	0.416
2.46364	0.412
2.50451	0.419
2.54539	0.433
2.58626	0.443
2.62714	0.441
2.66802	0.472
2.70889	0.479
2.74977	0.472
2.79064	0.45
2.83152	0.419
2.8724	0.387
2.91327	0.368
2.95415	0.356
2.99502	0.358
3.0359	0.378
3.07678	0.392
3.11765	0.402
3.15853	0.389
3.1994	0.397
3.24028	0.392
3.28116	0.353
3.32203	0.221
3.36291	0.09
3.40378	0.02
3.44466	0.025
3.48554	0.04
3.52641	0.059
3.56729	0.336
3.60816	0.525
3.64904	0.558
3.68992	0.547
3.73079	0.547
3.77167	0.559
3.81255	0.578
3.85342	0.6
3.8943	0.616
3.93517	0.633
3.97605	0.645
4.01693	0.65
4.0578	0.653
4.09868	0.651
4.13955	0.655
4.18043	0.665
4.22131	0.665
4.26218	0.641
4.30306	0.663
4.34393	0.696
4.38481	0.732
4.42569	0.754
4.46656	0.745
4.50744	0.742
4.54831	0.762
4.58919	0.761
4.63007	0.764
4.67094	0.762
4.71182	0.766
4.75269	0.783
4.79357	0.788
4.83445	0.796
4.87532	0.813
4.9162	0.807
4.95707	0.812
4.99795	0.82
5.03883	0.824
5.0797	0.822
5.12058	0.843
5.16145	0.846
5.20233	0.851
5.24321	0.865
5.28408	0.817
5.32496	0.829
5.36583	0.86
5.40671	0.885
5.44759	0.88
5.48846	0.883
5.52934	0.899
5.57021	0.895
5.61109	0.914
5.65197	0.895
5.69284	0.909
5.73372	0.89
5.77459	0.909
5.81547	0.899
5.85635	0.889
5.89722	0.875
5.9381	0.812
5.97897	0.795
6.01985	0.8
6.06073	0.827
6.1016	0.829
6.14248	0.829
6.18335	0.819
6.22423	0.817
6.26511	0.841
6.30598	0.866
6.34686	0.909
6.38773	0.918
6.42861	0.923
6.46949	0.914
6.51036	0.918
6.55124	0.909
6.59211	0.906
6.63299	0.889
6.67387	0.803
6.71474	0.656
6.75562	0.537
6.79649	0.054
6.83737	0.078
6.87825	0.18
6.91912	0.264
6.96	0.486
7.00087	0.609
7.04175	0.668
7.08263	0.566
7.1235	0.61
7.16438	0.715
7.20525	0.588
7.24613	0.245
7.28701	0.482
7.32788	0.43
7.36876	0.501
7.40964	0.593
7.45051	0.691
7.49139	0.68
7.53226	0.605
7.57314	0.668
7.61402	0.651
7.65489	0.687
7.69577	0.819
7.73664	0.841
7.77752	0.781
7.8184	0.421
7.85927	0.182
7.90015	0.175
7.94102	0.464
7.9819	0.551
8.02278	0.58
8.06365	0.663
8.10453	0.576
8.1454	0.498
8.18628	0.221
8.22716	0.291
8.26803	0.387
8.30891	0.641
8.34978	0.668
8.39066	0.793
8.43154	0.861
8.47241	0.889
8.51329	0.904
8.55416	0.916
8.59504	0.914
8.63592	0.895
8.67679	0.764
8.71767	0.738
8.75854	0.863
8.79942	0.907
8.8403	0.854
8.88117	0.438
8.92205	0.283
8.96292	0.571
9.0038	0.708
9.04468	0.766
9.08555	0.8
9.12643	0.822
9.1673	0.813
9.20818	0.783
9.24906	0.795
9.28993	0.827
9.33081	0.843
9.37168	0.836
9.41256	0.808
9.45344	0.728
9.49431	0.472
9.53519	0.346
9.57606	0.329
9.61694	0.472
9.65782	0.663
9.69869	0.653
9.73957	0.459
9.78044	0.401
9.82132	0.494
9.8622	0.45
9.90307	0.206
9.94395	0.081
9.98482	0.063
10.0257	0.076
10.0666	0.11
10.1075	0.245
10.1483	0.383
10.1892	0.513
10.2301	0.614
10.271	0.643
10.3118	0.61
10.3527	0.515
10.3936	0.375
10.4345	0.267
10.4753	0.22
10.5162	0.117
10.5571	0.22
10.598	0.331
10.6388	0.455
10.6797	0.575
10.7206	0.639
10.7615	0.627
10.8023	0.602
10.8432	0.305
10.8841	0.308
10.925	0.534
10.9658	0.667
11.0067	0.735
11.0476	0.779
11.0885	0.808
11.1294	0.815
11.1702	0.819
11.2111	0.843
11.252	0.872
11.2929	0.902
11.3337	0.919
11.3746	0.906
11.4155	0.866
11.4564	0.877
11.4972	0.933
11.5381	0.938
11.579	0.901
11.6199	0.738
11.6607	0.587
11.7016	0.723
11.7425	0.873
11.7834	0.947
11.8242	0.953
11.8651	0.962
11.906	0.964
11.9469	0.873
11.9877	0.67
12.0286	0.674
12.0695	0.537
12.1104	0.334
12.1513	0.155
12.1921	0.124
12.233	0.153
12.2739	0.209
12.3148	0.22
12.3556	0.17
12.3965	0.124
12.4374	0.134
12.4783	0.238
12.5191	0.337
12.56	0.433
12.6009	0.522
12.6418	0.612
12.6826	0.638
12.7235	0.498
12.7644	0.226
12.8053	0.213
12.8461	0.378
12.887	0.517
12.9279	0.6
12.9688	0.648
13.0097	0.689
13.0505	0.72
13.0914	0.745
13.1323	0.762
13.1732	0.781
13.214	0.79
13.2549	0.791
13.2958	0.803
13.3367	0.817
13.3775	0.825
13.4184	0.829
13.4593	0.834
13.5002	0.836
13.541	0.827
13.5819	0.834
13.6228	0.832
13.6637	0.839
13.7045	0.844
13.7454	0.834
13.7863	0.825
13.8272	0.824
13.868	0.815
13.9089	0.824
13.9498	0.856
13.9907	0.878
14.0316	0.885
14.0724	0.851
14.1133	0.865
14.1542	0.907
14.1951	0.935
14.2359	0.952
14.2768	0.957
14.3177	0.941
14.3586	0.912
14.3994	0.851
14.4403	0.769
14.4812	0.65
14.5221	0.641
14.5629	0.696
14.6038	0.771
14.6447	0.817
14.6856	0.849
14.7264	0.863
14.7673	0.872
14.8082	0.875
14.8491	0.875
14.8899	0.877
14.9308	0.875
14.9717	0.861
15.0126	0.803
15.0535	0.738
15.0943	0.697
15.1352	0.718
15.1761	0.764
15.217	0.798
15.2578	0.803
15.2987	0.79
15.3396	0.766
15.3805	0.682
15.4213	0.542
15.4622	0.455
15.5031	0.394
15.544	0.392
15.5848	0.447
15.6257	0.5
15.6666	0.569
15.7075	0.598
15.7483	0.604
15.7892	0.605
15.8301	0.6
15.871	0.597
15.9118	0.593
15.9527	0.581
15.9936	0.575
