Infrared Spectrum: dl-Alpha-Amino-n-caproic acid
Formula: C6 H13 N O2
State: SOLID (SPLIT MULL), FLUOROLUBE FOR 3800-1330 CM^-^1, NUJOL FOR 1330-450 CM^-^1
Class: COBLENTZ II
Instrument: DOW KBr FOREPRISM-GRATING
Instrument parameters: BLAZED AT 3.5, 12.0, 20.0 MICRON AND CHANGED AT 5.0, 7.5, 14.9 MICRON
Sampling: TRANSMISSION
Resolution: 2
Origin: DOW CHEMICAL COMPANY
1/CM	TRANSMITTANCE
3800	0.8654
3791	0.8653
3782	0.865
3773	0.8649
3764	0.8648
3755	0.8646
3746	0.8644
3737	0.8645
3728	0.865
3719	0.8653
3710	0.8653
3701	0.8652
3692	0.8651
3683	0.8649
3674	0.8647
3665	0.8645
3656	0.8643
3647	0.8645
3638	0.8651
3629	0.865
3620	0.8648
3611	0.8643
3602	0.8646
3593	0.864
3584	0.8492
3575	0.8551
3566	0.864
3557	0.8632
3548	0.8627
3539	0.8621
3530	0.8624
3521	0.8627
3512	0.8631
3503	0.8634
3494	0.8635
3485	0.8635
3476	0.8634
3467	0.8627
3458	0.8621
3449	0.8615
3440	0.861
3431	0.8604
3422	0.8595
3413	0.8585
3404	0.8578
3395	0.8574
3386	0.8571
3377	0.8568
3368	0.8567
3359	0.8568
3350	0.8568
3341	0.8568
3332	0.8518
3323	0.8516
3314	0.8505
3305	0.8478
3296	0.8438
3287	0.8388
3278	0.8325
3269	0.8254
3260	0.8175
3251	0.8089
3242	0.7957
3233	0.7838
3224	0.7731
3215	0.7618
3206	0.7491
3197	0.7345
3188	0.7169
3179	0.6925
3170	0.6678
3161	0.6438
3152	0.6186
3143	0.5952
3134	0.5664
3125	0.5351
3116	0.5052
3107	0.4692
3098	0.4362
3089	0.398
3080	0.3556
3071	0.3305
3062	0.309
3053	0.2855
3044	0.2554
3035	0.2151
3026	0.1896
3017	0.1745
3008	0.1636
2999	0.1537
2990	0.1442
2981	0.1319
2972	0.1155
2963	0.0674
2954	0.0486
2945	0.063
2936	0.0517
2927	0.0487
2918	0.0658
2909	0.0955
2900	0.1281
2891	0.1529
2882	0.1656
2873	0.1582
2864	0.15
2855	0.1465
2846	0.209
2837	0.2398
2828	0.2618
2819	0.275
2810	0.2857
2801	0.2949
2792	0.3071
2783	0.3191
2774	0.3308
2765	0.3352
2756	0.324
2747	0.3384
2738	0.3586
2729	0.378
2720	0.3975
2711	0.407
2702	0.402
2693	0.3918
2684	0.3809
2675	0.373
2666	0.3618
2657	0.3894
2648	0.4329
2639	0.4762
2630	0.5047
2621	0.5086
2612	0.511
2603	0.5162
2594	0.4838
2585	0.4702
2576	0.4835
2567	0.5212
2558	0.571
2549	0.597
2540	0.6193
2531	0.6393
2522	0.6524
2513	0.6633
2504	0.6719
2495	0.6799
2486	0.6826
2477	0.676
2468	0.6871
2459	0.7005
2450	0.7136
2441	0.7242
2432	0.7328
2423	0.7408
2414	0.7478
2405	0.7531
2396	0.7583
2387	0.7633
2378	0.7683
2369	0.7718
2360	0.7731
2351	0.7744
2342	0.7743
2333	0.7634
2324	0.7547
2315	0.7498
2306	0.7628
2297	0.7783
2288	0.7897
2279	0.7903
2270	0.7911
2261	0.7933
2252	0.7967
2243	0.8001
2234	0.8045
2225	0.8082
2216	0.811
2207	0.8125
2198	0.8136
2189	0.8145
2180	0.8148
2171	0.8143
2162	0.8121
2153	0.8057
2144	0.7987
2135	0.7892
2126	0.7741
2117	0.7576
2108	0.7426
2099	0.7321
2090	0.7314
2081	0.7507
2072	0.7683
2063	0.7831
2054	0.7931
2045	0.8006
2036	0.8083
2027	0.8165
2018	0.8238
2009	0.8316
2000	0.8367
1991	0.8335
1982	0.8354
1973	0.8387
1964	0.843
1955	0.8436
1946	0.8413
1937	0.8436
1928	0.8452
1919	0.8438
1910	0.8428
1901	0.843
1892	0.8433
1883	0.8423
1874	0.8404
1865	0.8382
1856	0.8383
1847	0.8402
1838	0.8418
1829	0.8435
1820	0.8459
1811	0.8468
1802	0.8407
1793	0.8415
1784	0.8367
1775	0.8335
1766	0.8343
1757	0.8307
1748	0.8223
1739	0.8104
1730	0.7995
1721	0.7958
1712	0.7945
1703	0.7904
1694	0.7771
1685	0.7334
1676	0.5854
1667	0.3549
1658	0.1894
1649	0.269
1640	0.2613
1631	0.1865
1622	0.1299
1613	0.1137
1604	0.1221
1595	0.0893
1586	0.0207
1577	0.0357
1568	0.1652
1559	0.2966
1550	0.4195
1541	0.4537
1532	0.4138
1523	0.3448
1514	0.3013
1505	0.4272
1496	0.554
1487	0.6058
1478	0.6201
1469	0.4987
1460	0.5799
1451	0.5462
1442	0.5996
1433	0.5617
1424	0.1432
1415	0.0528
1406	0.387
1397	0.5159
1388	0.5769
1379	0.5903
1370	0.481
1361	0.3214
1352	0.3137
1343	0.0685
1334	0.2687
1325	0.3977
1316	0.5052
1307	0.5386
1298	0.4959
1289	0.3377
1280	0.5695
1271	0.6283
1262	0.6433
1253	0.6347
1244	0.5742
1235	0.6176
1226	0.6726
1217	0.6895
1208	0.6942
1199	0.6553
1190	0.6454
1181	0.6765
1172	0.6719
1163	0.5784
1154	0.5884
1145	0.6646
1136	0.6862
1127	0.6656
1118	0.5722
1109	0.6875
1100	0.703
1091	0.6895
1082	0.6053
1073	0.4003
1064	0.6377
1055	0.6621
1046	0.6871
1037	0.7071
1028	0.7198
1019	0.7201
1010	0.728
1001	0.733
992	0.7365
983	0.7353
974	0.7268
965	0.7064
956	0.6932
947	0.7146
938	0.7133
929	0.6203
920	0.6064
911	0.6865
902	0.7146
893	0.7147
884	0.7265
875	0.6107
866	0.6106
857	0.7046
848	0.719
839	0.7331
830	0.7461
821	0.748
812	0.7412
803	0.734
794	0.7234
785	0.7445
776	0.7201
767	0.7178
758	0.7312
749	0.7193
740	0.6911
731	0.5525
722	0.5857
713	0.6714
704	0.5595
695	0.6093
686	0.7392
677	0.7565
668	0.7756
659	0.7904
650	0.7951
641	0.7886
632	0.794
623	0.8014
614	0.8024
605	0.8018
596	0.8004
587	0.7941
578	0.778
569	0.7107
560	0.4579
551	0.5673
542	0.7307
533	0.7654
524	0.7751
515	0.7695
506	0.7507
497	0.7215
488	0.6895
479	0.6838
470	0.6945
461	0.6947
