Infrared Spectrum: DL-p-HYDROXY-Alpha-METHYLPHENETHYL AMINE HYDROBROMIDE
Formula: C9 H13 N O  * H Br
State: SOLID ( KBr PELLET)
Class: COBLENTZ
Instrument: Not specified, most likely a grating spectrometer.
Sampling: TRANSMISSION
Resolution: 4
Origin: CITRUS EXPERIMENT STATION, UNIVERSITY OF FLORIDA (G. EDWARDS)
MICROMETERS	TRANSMITTANCE
2.013	0.799
2.04625	0.799
2.0795	0.799
2.11275	0.811
2.14599	0.819
2.17924	0.819
2.21249	0.819
2.24574	0.819
2.27899	0.824
2.31224	0.824
2.34549	0.827
2.37873	0.832
2.41198	0.837
2.44523	0.841
2.47848	0.843
2.51173	0.849
2.54498	0.855
2.57823	0.864
2.61147	0.867
2.64472	0.867
2.67797	0.864
2.71122	0.861
2.74447	0.859
2.77772	0.849
2.81097	0.829
2.84421	0.788
2.87746	0.734
2.91071	0.69
2.94396	0.628
2.97721	0.602
3.01046	0.64
3.04371	0.682
3.07695	0.688
3.1102	0.66
3.14345	0.639
3.1767	0.618
3.20995	0.636
3.2432	0.621
3.27645	0.574
3.3097	0.51
3.34294	0.514
3.37619	0.511
3.40944	0.5
3.44269	0.547
3.47594	0.577
3.50919	0.63
3.54244	0.65
3.57568	0.666
3.60893	0.699
3.64218	0.708
3.67543	0.724
3.70868	0.731
3.74193	0.752
3.77518	0.757
3.80842	0.739
3.84167	0.728
3.87492	0.727
3.90817	0.756
3.94142	0.779
3.97467	0.777
4.00792	0.757
4.04116	0.765
4.07441	0.767
4.10766	0.788
4.14091	0.799
4.17416	0.815
4.20741	0.821
4.24066	0.824
4.2739	0.833
4.30715	0.839
4.3404	0.849
4.37365	0.855
4.4069	0.857
4.44015	0.86
4.4734	0.861
4.50664	0.865
4.53989	0.869
4.57314	0.873
4.60639	0.876
4.63964	0.877
4.67289	0.876
4.70614	0.877
4.73938	0.876
4.77263	0.877
4.80588	0.869
4.83913	0.869
4.87238	0.863
4.90563	0.867
4.93888	0.864
4.97212	0.849
5.00537	0.839
5.03862	0.831
5.07187	0.819
5.10512	0.821
5.13837	0.824
5.17162	0.825
5.20486	0.841
5.23811	0.853
5.27136	0.859
5.30461	0.868
5.33786	0.889
5.37111	0.9
5.40436	0.905
5.4376	0.908
5.47085	0.908
5.5041	0.912
5.53735	0.914
5.5706	0.916
5.60385	0.912
5.6371	0.914
5.67035	0.916
5.70359	0.916
5.73684	0.918
5.77009	0.925
5.80334	0.925
5.83659	0.924
5.86984	0.924
5.90309	0.92
5.93633	0.916
5.96958	0.912
6.00283	0.908
6.03608	0.89
6.06933	0.888
6.10258	0.853
6.13583	0.789
6.16907	0.699
6.20232	0.704
6.23557	0.67
6.26882	0.698
6.30207	0.784
6.33532	0.845
6.36857	0.845
6.40181	0.836
6.43506	0.811
6.46831	0.753
6.50156	0.722
6.53481	0.646
6.56806	0.644
6.60131	0.658
6.63455	0.627
6.6678	0.561
6.70105	0.599
6.7343	0.667
6.76755	0.732
6.8008	0.726
6.83405	0.699
6.86729	0.692
6.90054	0.68
6.93379	0.755
6.96704	0.799
7.00029	0.829
7.03354	0.851
7.06679	0.855
7.10003	0.844
7.13328	0.805
7.16653	0.76
7.19978	0.8
7.23303	0.815
7.26628	0.777
7.29953	0.789
7.33277	0.803
7.36602	0.801
7.39927	0.8
7.43252	0.825
7.46577	0.849
7.49902	0.863
7.53227	0.859
7.56551	0.839
7.59876	0.835
7.63201	0.886
7.66526	0.905
7.69851	0.909
7.73176	0.908
7.76501	0.916
7.79825	0.909
7.8315	0.869
7.86475	0.828
7.898	0.744
7.93125	0.684
7.9645	0.739
7.99775	0.785
8.031	0.777
8.06424	0.736
8.09749	0.759
8.13074	0.776
8.16399	0.755
8.19724	0.71
8.23049	0.634
8.26374	0.632
8.29698	0.658
8.33023	0.638
8.36348	0.658
8.39673	0.716
8.42998	0.751
8.46323	0.694
8.49648	0.73
8.52972	0.768
8.56297	0.783
8.59622	0.791
8.62947	0.799
8.66272	0.813
8.69597	0.824
8.72922	0.836
8.76246	0.839
8.79571	0.841
8.82896	0.829
8.86221	0.792
8.89546	0.72
8.92871	0.732
8.96196	0.779
8.9952	0.803
9.02845	0.799
9.0617	0.759
9.09495	0.739
9.1282	0.787
9.16145	0.821
9.1947	0.839
9.22794	0.84
9.26119	0.816
9.29444	0.767
9.32769	0.791
9.36094	0.823
9.39419	0.836
9.42744	0.843
9.46068	0.848
9.49393	0.853
9.52718	0.856
9.56043	0.856
9.59368	0.856
9.62693	0.857
9.66018	0.86
9.69342	0.867
9.72667	0.868
9.75992	0.875
9.79317	0.876
9.82642	0.876
9.85967	0.881
9.89292	0.884
9.92616	0.878
9.95941	0.861
9.99266	0.855
10.0259	0.869
10.0592	0.881
10.0924	0.892
10.1257	0.901
10.1589	0.905
10.1922	0.906
10.2254	0.902
10.2587	0.881
10.2919	0.848
10.3251	0.791
10.3584	0.777
10.3916	0.813
10.4249	0.849
10.4581	0.869
10.4914	0.885
10.5246	0.89
10.5579	0.889
10.5911	0.882
10.6244	0.865
10.6576	0.855
10.6909	0.867
10.7241	0.897
10.7574	0.9
10.7906	0.901
10.8239	0.9
10.8571	0.901
10.8904	0.905
10.9236	0.912
10.9569	0.914
10.9901	0.916
11.0234	0.917
11.0566	0.918
11.0899	0.918
11.1231	0.92
11.1564	0.916
11.1896	0.908
11.2229	0.89
11.2561	0.886
11.2894	0.9
11.3226	0.909
11.3559	0.918
11.3891	0.916
11.4224	0.914
11.4556	0.912
11.4888	0.909
11.5221	0.901
11.5553	0.885
11.5886	0.871
11.6218	0.852
11.6551	0.82
11.6883	0.779
11.7216	0.73
11.7548	0.71
11.7881	0.694
11.8213	0.663
11.8546	0.634
11.8878	0.639
11.9211	0.683
11.9543	0.748
11.9876	0.8
12.0208	0.844
12.0541	0.864
12.0873	0.876
12.1206	0.876
12.1538	0.867
12.1871	0.859
12.2203	0.849
12.2536	0.828
12.2868	0.799
12.3201	0.738
12.3533	0.674
12.3866	0.65
12.4198	0.687
12.4531	0.74
12.4863	0.792
12.5196	0.832
12.5528	0.859
12.5861	0.878
12.6193	0.89
12.6525	0.901
12.6858	0.904
12.719	0.893
12.7523	0.871
12.7855	0.828
12.8188	0.731
12.852	0.676
12.8853	0.704
12.9185	0.761
12.9518	0.808
12.985	0.829
13.0183	0.848
13.0515	0.868
13.0848	0.881
13.118	0.888
13.1513	0.89
13.1845	0.896
13.2178	0.898
13.251	0.901
13.2843	0.901
13.3175	0.901
13.3508	0.904
13.384	0.905
13.4173	0.906
13.4505	0.906
13.4838	0.908
13.517	0.906
13.5503	0.908
13.5835	0.909
13.6168	0.909
13.65	0.909
13.6833	0.91
13.7165	0.909
13.7498	0.91
13.783	0.91
13.8163	0.909
13.8495	0.908
13.8827	0.904
13.916	0.898
13.9492	0.878
13.9825	0.861
14.0157	0.871
14.049	0.885
14.0822	0.893
14.1155	0.896
14.1487	0.894
14.182	0.894
14.2152	0.894
14.2485	0.892
14.2817	0.89
14.315	0.89
14.3482	0.89
14.3815	0.888
14.4147	0.88
14.448	0.872
14.4812	0.86
14.5145	0.855
14.5477	0.857
14.581	0.856
14.6142	0.853
14.6475	0.851
14.6807	0.849
14.714	0.848
14.7472	0.847
14.7805	0.843
14.8137	0.84
14.847	0.835
14.8802	0.824
14.9135	0.823
14.9467	0.843
14.98	0.889
