Infrared Spectrum: Delta-CAMPHOR OXIME
Formula: C10 H17 N O
State: SOLID (MINERAL OIL MULL)
Melting point: 118.5-120 C
Class: COBLENTZ
Instrument: Not specified, most likely a prism, grating, or hybrid spectrometer.
Sampling: TRANSMISSION
Resolution: 4
Origin: WYANDOTTE CHEMICALS CORP., WYANDOTTE, MICHIGAN, USA
MICROMETERS	TRANSMITTANCE
1.987	0.676
2.02687	0.682
2.06673	0.691
2.1066	0.699
2.14646	0.699
2.18633	0.672
2.22619	0.681
2.26606	0.687
2.30593	0.702
2.34579	0.709
2.38566	0.72
2.42552	0.739
2.46539	0.739
2.50525	0.742
2.54512	0.772
2.58499	0.749
2.62485	0.799
2.66472	0.79
2.70458	0.787
2.74445	0.794
2.78431	0.772
2.82418	0.719
2.86405	0.626
2.90391	0.495
2.94378	0.353
2.98364	0.186
3.02351	0.081
3.06337	0.132
3.10324	0.229
3.1431	0.225
3.18297	0.285
3.22284	0.398
3.2627	0.461
3.30257	0.353
3.34243	0.038
3.3823	0.043
3.42216	0.048
3.46203	0.061
3.5019	0.267
3.54176	0.566
3.58163	0.664
3.62149	0.684
3.66136	0.681
3.70122	0.724
3.74109	0.739
3.78096	0.749
3.82082	0.762
3.86069	0.772
3.90055	0.79
3.94042	0.799
3.98028	0.803
4.02015	0.81
4.06002	0.81
4.09988	0.812
4.13975	0.815
4.17961	0.815
4.21948	0.813
4.25934	0.79
4.29921	0.817
4.33908	0.838
4.37894	0.872
4.41881	0.858
4.45867	0.858
4.49854	0.862
4.5384	0.862
4.57827	0.868
4.61814	0.872
4.658	0.878
4.69787	0.878
4.73773	0.888
4.7776	0.888
4.81746	0.892
4.85733	0.89
4.8972	0.897
4.93706	0.9
4.97693	0.901
5.01679	0.905
5.05666	0.903
5.09652	0.906
5.13639	0.911
5.17625	0.905
5.21612	0.913
5.25599	0.913
5.29585	0.913
5.33572	0.918
5.37558	0.908
5.41545	0.905
5.45531	0.908
5.49518	0.9
5.53505	0.915
5.57491	0.915
5.61478	0.92
5.65464	0.897
5.69451	0.913
5.73437	0.9
5.77424	0.91
5.81411	0.87
5.85397	0.858
5.89384	0.782
5.9337	0.737
5.97357	0.827
6.01343	0.83
6.0533	0.85
6.09317	0.847
6.13303	0.843
6.1729	0.862
6.21276	0.852
6.25263	0.862
6.29249	0.852
6.33236	0.858
6.37223	0.837
6.41209	0.845
6.45196	0.822
6.49182	0.832
6.53169	0.812
6.57155	0.822
6.61142	0.805
6.65129	0.767
6.69115	0.609
6.73102	0.406
6.77088	0.257
6.81075	0.214
6.85061	0.172
6.89048	0.144
6.93035	0.217
6.97021	0.365
7.01008	0.568
7.04994	0.652
7.08981	0.674
7.12967	0.676
7.16954	0.39
7.2094	0.443
7.24927	0.285
7.28914	0.352
7.329	0.657
7.36887	0.681
7.40873	0.707
7.4486	0.712
7.48846	0.72
7.52833	0.509
7.5682	0.574
7.60806	0.671
7.64793	0.674
7.68779	0.676
7.72766	0.745
7.76752	0.759
7.80739	0.676
7.84726	0.72
7.88712	0.782
7.92699	0.802
7.96685	0.805
8.00672	0.705
8.04658	0.757
8.08645	0.808
8.12632	0.802
8.16618	0.759
8.20605	0.803
8.24591	0.827
8.28578	0.822
8.32564	0.74
8.36551	0.769
8.40538	0.794
8.44524	0.85
8.48511	0.85
8.52497	0.852
8.56484	0.828
8.6047	0.817
8.64457	0.825
8.68444	0.87
8.7243	0.888
8.76417	0.892
8.80403	0.865
8.8439	0.805
8.88376	0.847
8.92363	0.875
8.9635	0.825
9.00336	0.764
9.04323	0.862
9.08309	0.862
9.12296	0.767
9.16282	0.769
9.20269	0.83
9.24255	0.694
9.28242	0.647
9.32229	0.794
9.36215	0.842
9.40202	0.852
9.44188	0.858
9.48175	0.87
9.52161	0.873
9.56148	0.877
9.60135	0.882
9.64121	0.88
9.68108	0.88
9.72094	0.855
9.76081	0.77
9.80067	0.827
9.84054	0.85
9.88041	0.857
9.92027	0.892
9.96014	0.893
10	0.898
10.0399	0.882
10.0797	0.863
10.1196	0.825
10.1595	0.848
10.1993	0.853
10.2392	0.848
10.2791	0.845
10.3189	0.833
10.3588	0.828
10.3987	0.803
10.4385	0.772
10.4784	0.722
10.5183	0.647
10.5581	0.631
10.598	0.554
10.6379	0.362
10.6777	0.242
10.7176	0.312
10.7575	0.232
10.7973	0.164
10.8372	0.081
10.877	0.064
10.9169	0.167
10.9568	0.257
10.9966	0.333
11.0365	0.476
11.0764	0.574
11.1162	0.654
11.1561	0.692
11.196	0.727
11.2358	0.752
11.2757	0.779
11.3156	0.799
11.3554	0.812
11.3953	0.818
11.4352	0.827
11.475	0.832
11.5149	0.838
11.5548	0.802
11.5946	0.7
11.6345	0.674
11.6744	0.764
11.7142	0.744
11.7541	0.501
11.794	0.598
11.8338	0.745
11.8737	0.782
11.9136	0.8
11.9534	0.812
11.9933	0.815
12.0332	0.794
12.073	0.702
12.1129	0.49
12.1527	0.377
12.1926	0.593
12.2325	0.709
12.2723	0.769
12.3122	0.797
12.3521	0.812
12.3919	0.828
12.4318	0.832
12.4717	0.837
12.5115	0.842
12.5514	0.845
12.5913	0.838
12.6311	0.838
12.671	0.827
12.7109	0.815
12.7507	0.785
12.7906	0.719
12.8305	0.568
12.8703	0.573
12.9102	0.7
12.9501	0.762
12.9899	0.777
13.0298	0.779
13.0697	0.77
13.1095	0.76
13.1494	0.744
13.1893	0.735
13.2291	0.705
13.269	0.694
13.3089	0.669
13.3487	0.642
13.3886	0.621
13.4285	0.581
13.4683	0.551
13.5082	0.514
13.548	0.48
13.5879	0.453
13.6278	0.431
13.6676	0.405
13.7075	0.378
13.7474	0.347
13.7872	0.328
13.8271	0.313
13.867	0.313
13.9068	0.323
13.9467	0.35
13.9866	0.37
14.0264	0.395
14.0663	0.428
14.1062	0.451
14.146	0.478
14.1859	0.5
14.2258	0.528
14.2656	0.546
14.3055	0.559
14.3454	0.571
14.3852	0.581
14.4251	0.596
14.465	0.601
14.5048	0.607
14.5447	0.617
14.5846	0.621
14.6244	0.629
14.6643	0.631
14.7042	0.632
14.744	0.639
14.7839	0.636
14.8238	0.632
14.8636	0.622
14.9035	0.634
14.9433	0.649
14.9832	0.659
15.0231	0.652
15.0629	0.651
15.1028	0.669
15.1427	0.696
15.1825	0.7
15.2224	0.702
15.2623	0.699
15.3021	0.696
15.342	0.692
15.3819	0.692
15.4217	0.697
15.4616	0.687
15.5015	0.681
15.5413	0.676
15.5812	0.676
15.6211	0.679
15.6609	0.672
15.7008	0.669
15.7407	0.662
15.7805	0.656
15.8204	0.651
15.8603	0.642
15.9001	0.639
15.94	0.637
15.9799	0.634
