Infrared Spectrum: 5Alpha-Androstan-16Beta-ylacetic acid lactone, 3Beta,17Beta-dihydroxy-
Formula: C21 H32 O3
State: SOLUTION 7% (CHCl3 FOR 2.5-12.5 microns)
Melting point: 240-242 C
Class: COBLENTZ
Instrument: PERKIN-ELMER 21 (GRATING)
Instrument parameters: FILTER AT ABOUT 10 MICRONS
Path length: 0.01 CM
Resolution: 2
Origin: ABBOTT LABORATORIES
1/CM	TRANSMITTANCE
799	0.9834
808	0.9529
817	0.9175
826	0.8614
835	0.8616
844	0.8522
853	0.8076
862	0.8957
871	0.8847
880	0.8955
889	0.8604
898	0.8257
907	0.8737
916	0.8896
925	0.8914
934	0.8463
943	0.8458
952	0.7855
961	0.8527
970	0.8025
979	0.7368
988	0.734
997	0.638
1006	0.5846
1015	0.2995
1024	0.4488
1033	0.3295
1042	0.129
1051	0.474
1060	0.7152
1069	0.771
1078	0.761
1087	0.7852
1096	0.7493
1105	0.7186
1114	0.6775
1123	0.5884
1132	0.564
1141	0.5448
1150	0.5529
1159	0.3655
1168	0.2189
1177	0.2857
1186	0.5719
1195	0.6545
1204	0.6111
1213	0.5991
1222	0.5976
1231	0.6153
1240	0.6934
1249	0.776
1258	0.7798
1267	0.7918
1276	0.7817
1285	0.7569
1294	0.718
1303	0.7104
1312	0.7937
1321	0.7595
1330	0.7542
1339	0.7622
1348	0.7359
1357	0.6656
1366	0.7146
1375	0.6777
1384	0.6493
1393	0.7695
1402	0.816
1411	0.7987
1420	0.8306
1429	0.7713
1438	0.6535
1447	0.5958
1456	0.7079
1465	0.7123
1474	0.8426
1483	0.9003
1492	0.9143
1501	0.9177
1510	0.9188
1519	0.9173
1528	0.9162
1537	0.9136
1546	0.9093
1555	0.9058
1564	0.9027
1573	0.8996
1582	0.8965
1591	0.8936
1600	0.8912
1609	0.8889
1618	0.8869
1627	0.8849
1636	0.8811
1645	0.877
1654	0.8705
1663	0.8631
1672	0.8544
1681	0.8463
1690	0.8122
1699	0.7572
1708	0.7465
1717	0.7472
1726	0.6797
1735	0.5592
1744	0.2927
1753	0.0738
1762	0.0693
1771	0.1782
1780	0.3711
1789	0.6906
1798	0.8263
1807	0.8718
1816	0.8901
1825	0.8998
1834	0.9031
1843	0.9053
1852	0.9071
1861	0.9087
1870	0.9102
1879	0.9115
1888	0.9127
1897	0.9139
1906	0.9139
1915	0.9139
1924	0.9138
1933	0.9138
1942	0.9138
1951	0.9137
1960	0.9137
1969	0.9137
1978	0.9136
1987	0.9136
1996	0.9136
2005	0.9135
2014	0.9135
2023	0.9135
2032	0.9134
2041	0.9134
2050	0.9134
2059	0.9133
2068	0.9133
2077	0.9133
2086	0.9133
2095	0.9132
2104	0.9132
2113	0.9132
2122	0.9131
2131	0.9131
2140	0.9131
2149	0.9131
2158	0.913
2167	0.913
2176	0.913
2185	0.9129
2194	0.9129
2203	0.9129
2212	0.9129
2221	0.9128
2230	0.9128
2239	0.9128
2248	0.9128
2257	0.9127
2266	0.9127
2275	0.9127
2284	0.9127
2293	0.9126
2302	0.9126
2311	0.9126
2320	0.9126
2329	0.9125
2338	0.9125
2347	0.9125
2356	0.9122
2365	0.9115
2374	0.9091
2383	0.905
2392	0.8991
2401	0.8936
2410	0.89
2419	0.8876
2428	0.8876
2437	0.8879
2446	0.8882
2455	0.8893
2464	0.8903
2473	0.8913
2482	0.8923
2491	0.8933
2500	0.8936
2509	0.8933
2518	0.8929
2527	0.8924
2536	0.8912
2545	0.8898
2554	0.8885
2563	0.8863
2572	0.8837
2581	0.8811
2590	0.8791
2599	0.8771
2608	0.8752
2617	0.8741
2626	0.8734
2635	0.8726
2644	0.8722
2653	0.8724
2662	0.8726
2671	0.8728
2680	0.8721
2689	0.8707
2698	0.8695
2707	0.868
2716	0.8648
2725	0.8614
2734	0.8566
2743	0.8517
2752	0.8447
2761	0.8353
2770	0.8231
2779	0.8105
2788	0.7872
2797	0.7514
2806	0.6906
2815	0.619
2824	0.5478
2833	0.4772
2842	0.4349
2851	0.4389
2860	0.4489
2869	0.4536
2878	0.4132
2887	0.3591
2896	0.3052
2905	0.2582
2914	0.2548
2923	0.2765
2932	0.3404
2941	0.4041
2950	0.4673
2959	0.5301
2968	0.5925
2977	0.6546
2986	0.7163
2995	0.7776
3004	0.8335
3013	0.8552
3022	0.8723
3031	0.8827
3040	0.8848
3049	0.8851
3058	0.8853
3067	0.8852
3076	0.8851
3085	0.885
3094	0.8848
3103	0.8846
3112	0.8844
3121	0.8842
3130	0.8836
3139	0.883
3148	0.8824
3157	0.8818
3166	0.8814
3175	0.8808
3184	0.8804
3193	0.8798
3202	0.8793
3211	0.8781
3220	0.8769
3229	0.8758
3238	0.8747
3247	0.8731
3256	0.8711
3265	0.8691
3274	0.8668
3283	0.864
3292	0.8612
3301	0.8584
3310	0.8557
3319	0.8529
3328	0.8501
3337	0.8474
3346	0.8446
3355	0.8419
3364	0.8396
3373	0.8373
3382	0.8352
3391	0.8329
3400	0.8314
3409	0.8304
3418	0.8294
3427	0.8286
3436	0.8286
3445	0.8286
3454	0.8287
3463	0.8288
3472	0.8289
3481	0.829
3490	0.8292
3499	0.8293
3508	0.8295
3517	0.8292
3526	0.8289
3535	0.8271
3544	0.8148
3553	0.8016
3562	0.789
3571	0.7852
3580	0.789
3589	0.8097
3598	0.8328
3607	0.8559
3616	0.8787
3625	0.8972
3634	0.9028
3643	0.9032
3652	0.9035
3661	0.9035
3670	0.9035
3679	0.9033
3688	0.903
3697	0.9029
3706	0.9027
3715	0.9025
3724	0.9023
3733	0.9021
3742	0.902
3751	0.9018
3760	0.9015
3769	0.9015
3778	0.9013
3787	0.9012
3796	0.901
3805	0.9009
3814	0.9007
3823	0.9005
3832	0.9005
3841	0.9005
3850	0.9005
3859	0.9005
3868	0.9005
3877	0.9005
3886	0.9005
3895	0.9004
3904	0.9004
3913	0.9002
3922	0.9002
3931	0.9
3940	0.9
3949	0.8999
3958	0.8998
3967	0.8997
3976	0.8996
3985	0.8995
3994	0.8994
