Infrared Spectrum: DIISOBUTYLENE OXIDE
Formula: C8 H16 O
State: LIQUID
Class: COBLENTZ
Instrument: Not specified, most likely a prism, grating, or hybrid spectrometer.
Sampling: TRANSMISSION
Path length: 0.003 CM
Resolution: 4
Origin: WYANDOTTE CHEMICALS CORP., WYANDOTTE, MICHIGAN, USA
MICROMETERS	TRANSMITTANCE
2.041	0.967
2.08184	0.971
2.12267	0.965
2.16351	0.957
2.20434	0.925
2.24518	0.906
2.28601	0.914
2.32685	0.913
2.36768	0.913
2.40852	0.916
2.44935	0.916
2.49019	0.916
2.53102	0.916
2.57186	0.916
2.61269	0.916
2.65353	0.93
2.69436	0.92
2.7352	0.926
2.77603	0.926
2.81687	0.921
2.8577	0.911
2.89854	0.906
2.93937	0.899
2.98021	0.891
3.02104	0.877
3.06188	0.87
3.10271	0.852
3.14355	0.838
3.18438	0.831
3.22522	0.828
3.26605	0.775
3.30689	0.5
3.34772	0.076
3.38856	0.045
3.42939	0.088
3.47023	0.156
3.51106	0.323
3.5519	0.68
3.59273	0.777
3.63357	0.821
3.6744	0.819
3.71524	0.831
3.75607	0.869
3.79691	0.867
3.83774	0.87
3.87858	0.875
3.91941	0.879
3.96025	0.882
4.00109	0.884
4.04192	0.875
4.08276	0.875
4.12359	0.872
4.16443	0.87
4.20526	0.869
4.2461	0.867
4.28693	0.879
4.32777	0.887
4.3686	0.889
4.40944	0.87
4.45027	0.863
4.49111	0.867
4.53194	0.869
4.57278	0.872
4.61361	0.879
4.65445	0.875
4.69528	0.874
4.73612	0.874
4.77695	0.874
4.81779	0.875
4.85862	0.874
4.89946	0.87
4.94029	0.869
4.98113	0.869
5.02196	0.869
5.0628	0.865
5.10363	0.865
5.14447	0.869
5.1853	0.869
5.22614	0.863
5.26697	0.863
5.30781	0.865
5.34864	0.86
5.38948	0.86
5.43031	0.858
5.47115	0.858
5.51198	0.855
5.55282	0.852
5.59365	0.848
5.63449	0.848
5.67532	0.845
5.71616	0.836
5.75699	0.821
5.79783	0.823
5.83866	0.824
5.8795	0.831
5.92033	0.829
5.96117	0.829
6.00201	0.826
6.04284	0.818
6.08368	0.814
6.12451	0.814
6.16535	0.816
6.20618	0.816
6.24702	0.816
6.28785	0.814
6.32869	0.816
6.36952	0.816
6.41036	0.811
6.45119	0.802
6.49203	0.777
6.53286	0.772
6.5737	0.753
6.61453	0.688
6.65537	0.551
6.6962	0.301
6.73704	0.224
6.77787	0.204
6.81871	0.265
6.85954	0.345
6.90038	0.418
6.94121	0.496
6.98205	0.568
7.02288	0.598
7.06372	0.641
7.10455	0.608
7.14539	0.479
7.18622	0.238
7.22706	0.251
7.26789	0.205
7.30873	0.119
7.34956	0.299
7.3904	0.585
7.43123	0.61
7.47207	0.641
7.5129	0.676
7.55374	0.71
7.59457	0.75
7.63541	0.758
7.67624	0.695
7.71708	0.649
7.75791	0.671
7.79875	0.722
7.83958	0.705
7.88042	0.654
7.92126	0.544
7.96209	0.54
8.00293	0.503
8.04376	0.517
8.0846	0.615
8.12543	0.681
8.16627	0.688
8.2071	0.671
8.24794	0.688
8.28877	0.627
8.32961	0.579
8.37044	0.688
8.41128	0.75
8.45211	0.76
8.49295	0.758
8.53378	0.727
8.57462	0.681
8.61545	0.636
8.65629	0.736
8.69712	0.773
8.73796	0.775
8.77879	0.746
8.81963	0.664
8.86046	0.596
8.9013	0.51
8.94213	0.445
8.98297	0.43
9.0238	0.576
9.06464	0.681
9.10547	0.724
9.14631	0.738
9.18714	0.724
9.22798	0.678
9.26881	0.603
9.30965	0.491
9.35048	0.452
9.39132	0.484
9.43215	0.482
9.47299	0.634
9.51382	0.678
9.55466	0.661
9.59549	0.678
9.63633	0.705
9.67716	0.709
9.718	0.714
9.75883	0.743
9.79967	0.77
9.84051	0.777
9.88134	0.773
9.92218	0.763
9.96301	0.753
10.0038	0.714
10.0447	0.732
10.0855	0.763
10.1264	0.77
10.1672	0.772
10.208	0.77
10.2489	0.767
10.2897	0.76
10.3305	0.755
10.3714	0.721
10.4122	0.651
10.453	0.534
10.4939	0.532
10.5347	0.625
10.5755	0.656
10.6164	0.661
10.6572	0.697
10.698	0.707
10.7389	0.697
10.7797	0.676
10.8205	0.659
10.8614	0.625
10.9022	0.554
10.9431	0.578
10.9839	0.564
11.0247	0.52
11.0656	0.465
11.1064	0.335
11.1472	0.272
11.1881	0.391
11.2289	0.559
11.2697	0.61
11.3106	0.603
11.3514	0.525
11.3922	0.498
11.4331	0.573
11.4739	0.593
11.5147	0.598
11.5556	0.625
11.5964	0.651
11.6372	0.673
11.6781	0.704
11.7189	0.722
11.7598	0.732
11.8006	0.732
11.8414	0.732
11.8823	0.729
11.9231	0.719
11.9639	0.695
12.0048	0.688
12.0456	0.68
12.0864	0.675
12.1273	0.659
12.1681	0.647
12.2089	0.615
12.2498	0.578
12.2906	0.51
12.3314	0.44
12.3723	0.372
12.4131	0.397
12.454	0.522
12.4948	0.568
12.5356	0.551
12.5765	0.491
12.6173	0.379
12.6581	0.324
12.699	0.365
12.7398	0.496
12.7806	0.596
12.8215	0.654
12.8623	0.681
12.9031	0.709
12.944	0.721
12.9848	0.729
13.0256	0.736
13.0665	0.736
13.1073	0.734
13.1481	0.729
13.189	0.717
13.2298	0.693
13.2707	0.651
13.3115	0.583
13.3523	0.501
13.3932	0.462
13.434	0.491
13.4748	0.588
13.5157	0.644
13.5565	0.671
13.5973	0.681
13.6382	0.67
13.679	0.637
13.7198	0.596
13.7607	0.596
13.8015	0.651
13.8423	0.688
13.8832	0.702
13.924	0.707
13.9649	0.702
14.0057	0.675
14.0465	0.646
14.0874	0.637
14.1282	0.641
14.169	0.661
14.2099	0.678
14.2507	0.687
14.2915	0.688
14.3324	0.671
14.3732	0.647
14.414	0.62
14.4549	0.62
14.4957	0.642
14.5365	0.67
14.5774	0.683
14.6182	0.707
14.659	0.717
14.6999	0.732
14.7407	0.743
14.7816	0.741
14.8224	0.741
14.8632	0.748
14.9041	0.748
14.9449	0.748
14.9857	0.746
15.0266	0.731
15.0674	0.714
15.1082	0.721
15.1491	0.734
15.1899	0.739
15.2307	0.738
15.2716	0.736
15.3124	0.732
15.3532	0.731
15.3941	0.727
15.4349	0.721
15.4757	0.717
15.5166	0.715
15.5574	0.712
15.5983	0.71
15.6391	0.71
15.6799	0.709
15.7208	0.705
15.7616	0.702
15.8024	0.697
15.8433	0.693
15.8841	0.692
15.9249	0.688
15.9658	0.687
