Infrared Spectrum: Alpha,Alpha-DICHLOROPROPIONIC ACID, MONO ETHANOL AMINE SALT
Formula: C5 H11 Cl2 N O3
Class: COBLENTZ
Instrument: Not specified, most likely a prism, grating, or hybrid spectrometer.
Sampling: TRANSMISSION
Path length: FILM
Resolution: 4
Origin: DOW CHEMICAL COMPANY
MICROMETERS	TRANSMITTANCE
2.027	0.861
2.06818	0.863
2.10936	0.859
2.15054	0.863
2.19172	0.859
2.2329	0.856
2.27408	0.864
2.31525	0.871
2.35643	0.878
2.39761	0.873
2.43879	0.88
2.47997	0.89
2.52115	0.895
2.56233	0.9
2.60351	0.902
2.64469	0.9
2.68587	0.885
2.72705	0.845
2.76823	0.761
2.8094	0.64
2.85058	0.508
2.89176	0.393
2.93294	0.316
2.97412	0.292
3.0153	0.279
3.05648	0.267
3.09766	0.261
3.13884	0.234
3.18002	0.214
3.2212	0.196
3.26238	0.186
3.30356	0.181
3.34473	0.181
3.38591	0.179
3.42709	0.208
3.46827	0.239
3.50945	0.291
3.55063	0.332
3.59181	0.351
3.63299	0.386
3.67417	0.433
3.71535	0.453
3.75653	0.47
3.79771	0.491
3.83888	0.518
3.88006	0.561
3.92124	0.583
3.96242	0.597
4.0036	0.638
4.04478	0.686
4.08596	0.731
4.12714	0.763
4.16832	0.779
4.2095	0.785
4.25068	0.815
4.29186	0.835
4.33304	0.844
4.37421	0.859
4.41539	0.863
4.45657	0.871
4.49775	0.873
4.53893	0.871
4.58011	0.859
4.62129	0.847
4.66247	0.832
4.70365	0.823
4.74483	0.82
4.78601	0.82
4.82719	0.82
4.86836	0.827
4.90954	0.835
4.95072	0.851
4.9919	0.864
5.03308	0.876
5.07426	0.885
5.11544	0.893
5.15662	0.91
5.1978	0.912
5.23898	0.922
5.28016	0.924
5.32134	0.929
5.36252	0.926
5.40369	0.926
5.44487	0.922
5.48605	0.909
5.52723	0.91
5.56841	0.921
5.60959	0.922
5.65077	0.91
5.69195	0.9
5.73313	0.883
5.77431	0.863
5.81549	0.825
5.85667	0.756
5.89784	0.623
5.93902	0.472
5.9802	0.294
6.02138	0.167
6.06256	0.138
6.10374	0.116
6.14492	0.125
6.1861	0.16
6.22728	0.193
6.26846	0.239
6.30964	0.277
6.35082	0.342
6.39199	0.383
6.43317	0.412
6.47435	0.404
6.51553	0.381
6.55671	0.369
6.59789	0.39
6.63907	0.453
6.68025	0.506
6.72143	0.535
6.76261	0.523
6.80379	0.546
6.84497	0.498
6.88615	0.417
6.92732	0.416
6.9685	0.565
7.00968	0.587
7.05086	0.59
7.09204	0.563
7.13322	0.506
7.1744	0.407
7.21558	0.236
7.25676	0.253
7.29794	0.34
7.33912	0.198
7.3803	0.183
7.42147	0.316
7.46265	0.477
7.50383	0.551
7.54501	0.592
7.58619	0.636
7.62737	0.684
7.66855	0.712
7.70973	0.729
7.75091	0.729
7.79209	0.719
7.83327	0.732
7.87445	0.75
7.91563	0.784
7.9568	0.808
7.99798	0.823
8.03916	0.821
8.08034	0.821
8.12152	0.823
8.1627	0.83
8.20388	0.839
8.24506	0.845
8.28624	0.857
8.32742	0.859
8.3686	0.864
8.40978	0.852
8.45095	0.833
8.49213	0.815
8.53331	0.796
8.57449	0.779
8.61567	0.758
8.65685	0.741
8.69803	0.72
8.73921	0.696
8.78039	0.65
8.82157	0.635
8.86275	0.654
8.90393	0.684
8.94511	0.705
8.98628	0.715
9.02746	0.722
9.06864	0.72
9.10982	0.693
9.151	0.642
9.19218	0.541
9.23336	0.404
9.27454	0.284
9.31572	0.231
9.3569	0.222
9.39808	0.258
9.43926	0.364
9.48043	0.488
9.52161	0.599
9.56279	0.655
9.60397	0.666
9.64515	0.65
9.68633	0.613
9.72751	0.553
9.76869	0.489
9.80987	0.455
9.85105	0.446
9.89223	0.488
9.93341	0.563
9.97459	0.616
10.0158	0.65
10.0569	0.66
10.0981	0.669
10.1393	0.674
10.1805	0.698
10.2217	0.727
10.2628	0.76
10.304	0.782
10.3452	0.806
10.3864	0.827
10.4276	0.845
10.4687	0.864
10.5099	0.876
10.5511	0.89
10.5923	0.9
10.6335	0.909
10.6746	0.914
10.7158	0.917
10.757	0.924
10.7982	0.929
10.8393	0.929
10.8805	0.929
10.9217	0.929
10.9629	0.929
11.0041	0.922
11.0452	0.921
11.0864	0.909
11.1276	0.898
11.1688	0.878
11.21	0.847
11.2511	0.799
11.2923	0.751
11.3335	0.705
11.3747	0.688
11.4159	0.693
11.457	0.726
11.4982	0.753
11.5394	0.779
11.5806	0.809
11.6218	0.833
11.6629	0.851
11.7041	0.859
11.7453	0.859
11.7865	0.845
11.8276	0.828
11.8688	0.811
11.91	0.804
11.9512	0.799
11.9924	0.806
12.0335	0.82
12.0747	0.828
12.1159	0.832
12.1571	0.827
12.1983	0.809
12.2394	0.791
12.2806	0.779
12.3218	0.777
12.363	0.777
12.4042	0.78
12.4453	0.779
12.4865	0.777
12.5277	0.772
12.5689	0.772
12.6101	0.77
12.6512	0.77
12.6924	0.77
12.7336	0.77
12.7748	0.775
12.8159	0.777
12.8571	0.775
12.8983	0.768
12.9395	0.76
12.9807	0.756
13.0218	0.75
13.063	0.739
13.1042	0.727
13.1454	0.715
13.1866	0.703
13.2277	0.688
13.2689	0.672
13.3101	0.652
13.3513	0.64
13.3925	0.626
13.4336	0.613
13.4748	0.599
13.516	0.58
13.5572	0.563
13.5984	0.546
13.6395	0.522
13.6807	0.5
13.7219	0.46
13.7631	0.429
13.8043	0.395
13.8454	0.359
13.8866	0.328
13.9278	0.306
13.969	0.303
14.0101	0.318
14.0513	0.344
14.0925	0.38
14.1337	0.41
14.1749	0.433
14.216	0.446
14.2572	0.452
14.2984	0.453
14.3396	0.448
14.3808	0.438
14.4219	0.421
14.4631	0.4
14.5043	0.378
14.5455	0.351
14.5867	0.328
14.6278	0.309
14.669	0.301
14.7102	0.297
14.7514	0.303
14.7926	0.311
14.8337	0.323
14.8749	0.328
14.9161	0.335
14.9573	0.342
14.9984	0.347
15.0396	0.347
15.0808	0.337
15.122	0.327
15.1632	0.321
15.2043	0.311
15.2455	0.308
15.2867	0.301
15.3279	0.297
15.3691	0.294
15.4102	0.292
15.4514	0.294
15.4926	0.297
15.5338	0.303
15.575	0.308
15.6161	0.315
15.6573	0.318
15.6985	0.321
15.7397	0.328
15.7809	0.332
15.822	0.34
15.8632	0.34
