Infrared Spectrum: (-)-3-MENTHOXYACETOXY-(+)-ESTRA-1,3,5(10),6,8-PENTAEN-17-ONE
Formula: C30 H38 O4
State: SOLID (KBr DISC)
Class: COBLENTZ III
Instrument: BECKMAN IR-7
Sampling: TRANSMISSION
Resolution: 4
Origin: THE WORCESTER FOUNDATION FOR EXPERIMENTAL BIOLOGY, Neal L. McNiven
1/CM	TRANSMITTANCE
646.545	1
655.272	0.953
664	1.008
672.727	0.984
681.454	0.967
690.181	0.941
698.909	0.913
707.636	0.867
716.363	0.864
725.091	0.803
733.818	0.653
742.545	0.789
751.272	0.732
760	0.809
768.727	0.815
777.454	0.761
786.182	0.798
794.909	0.785
803.636	0.6141
812.363	0.681
821.091	0.473
829.818	0.651
838.545	0.696
847.273	0.6189
856	0.762
864.727	0.76
873.454	0.679
882.182	0.5389
890.909	0.718
899.636	0.724
908.364	0.627
917.091	0.419
925.818	0.646
934.545	0.652
943.273	0.671
952	0.572
960.727	0.541
969.454	0.522
978.182	0.591
986.909	0.592
995.636	0.617
1004.36	0.513
1013.09	0.431
1021.82	0.536
1030.55	0.478
1039.27	0.47
1048	0.554
1056.73	0.536
1065.45	0.404
1074.18	0.4311
1082.91	0.421
1091.64	0.418
1100.36	0.254
1109.09	0.096
1117.82	0.011
1126.55	0.189
1135.27	0.25
1144	0.166
1152.73	0.086
1161.45	0.026
1170.18	0.167
1178.91	0.385
1187.64	0.486
1196.36	0.565
1205.09	0.4801
1213.82	0.198
1222.55	0.407
1231.27	0.421
1240	0.513
1248.73	0.56
1257.45	0.598
1266.18	0.593
1274.91	0.568
1283.64	0.596
1292.36	0.5068
1301.09	0.598
1309.82	0.533
1318.55	0.523
1327.27	0.618
1336	0.565
1344.73	0.531
1353.45	0.305
1362.18	0.451
1370.91	0.242
1379.64	0.407
1388.36	0.411
1397.09	0.57
1405.82	0.5049
1414.55	0.582
1423.27	0.3581
1432	0.495
1440.73	0.518
1449.46	0.411
1458.18	0.399
1466.91	0.502
1475.64	0.516
1484.36	0.601
1493.09	0.62
1501.82	0.566
1510.55	0.4601
1519.27	0.591
1528	0.662
1536.73	0.682
1545.46	0.68
1554.18	0.676
1562.91	0.609
1571.64	0.572
1580.36	0.64
1589.09	0.581
1597.82	0.3291
1606.55	0.574
1615.27	0.563
1624	0.609
1632.73	0.622
1641.46	0.618
1650.18	0.625
1658.91	0.63
1667.64	0.625
1676.36	0.625
1685.09	0.604
1693.82	0.578
1702.55	0.547
1711.27	0.447
1720	0.2651
1728.73	0.043
1737.46	0.193
1746.18	0.416
1754.91	0.515
1763.64	0.478
1772.36	0.0881
1781.09	0.211
1789.82	0.447
1798.55	0.586
1807.27	0.618
1816	0.642
1824.73	0.653
1833.46	0.664
1842.18	0.667
1850.91	0.678
1859.64	0.684
1868.36	0.687
1877.09	0.686
1885.82	0.681
1894.55	0.686
1903.27	0.682
1912	0.669
1920.73	0.661
1929.46	0.676
1938.18	0.689
1946.91	0.687
1955.64	0.682
1964.36	0.686
1973.09	0.685
1981.82	0.684
1990.55	0.682
1999.27	0.681
2008	0.681
2016.73	0.68
2025.46	0.68
2034.18	0.679
2042.91	0.6782
2051.64	0.6771
2060.36	0.677
2069.09	0.677
2077.82	0.677
2086.55	0.677
2095.27	0.677
2104	0.677
2112.73	0.676
2121.46	0.676
2130.18	0.675
2138.91	0.675
2147.64	0.675
2156.37	0.674
2165.09	0.674
2173.82	0.6738
2182.55	0.673
2191.27	0.672
2200	0.6683
2208.73	0.66
2217.46	0.658
2226.18	0.6557
2234.91	0.653
2243.64	0.6506
2252.37	0.6473
2261.09	0.6418
2269.82	0.638
2278.55	0.6384
2287.27	0.6414
2296	0.643
2304.73	0.642
2313.46	0.6385
2322.18	0.639
2330.91	0.641
2339.64	0.642
2348.37	0.6398
2357.09	0.6357
2365.82	0.631
2374.55	0.6263
2383.27	0.627
2392	0.628
2400.73	0.6307
2409.46	0.634
2418.18	0.6322
2426.91	0.6292
2435.64	0.628
2444.37	0.627
2453.09	0.627
2461.82	0.627
2470.55	0.626
2479.27	0.6241
2488	0.622
2496.73	0.619
2505.46	0.619
2514.18	0.617
2522.91	0.615
2531.64	0.614
2540.37	0.6129
2549.09	0.612
2557.82	0.611
2566.55	0.6108
2575.27	0.609
2584	0.6088
2592.73	0.6055
2601.46	0.6018
2610.18	0.599
2618.91	0.598
2627.64	0.5967
2636.37	0.595
2645.09	0.5936
2653.82	0.5926
2662.55	0.5906
2671.27	0.588
2680	0.5866
2688.73	0.585
2697.46	0.584
2706.18	0.5815
2714.91	0.5764
2723.64	0.5734
2732.37	0.5714
2741.09	0.57
2749.82	0.57
2758.55	0.57
2767.27	0.5693
2776	0.5653
2784.73	0.5599
2793.46	0.5438
2802.18	0.5355
2810.91	0.5287
2819.64	0.516
2828.37	0.4979
2837.09	0.4559
2845.82	0.3829
2854.55	0.2694
2863.27	0.1935
2872	0.191
2880.73	0.2687
2889.46	0.294
2898.18	0.287
2906.91	0.2578
2915.64	0.1991
2924.37	0.1164
2933.09	0.1239
2941.82	0.1176
2950.55	0.0909
2959.28	0.1533
2968	0.2915
2976.73	0.3811
2985.46	0.4402
2994.18	0.4783
3002.91	0.5332
3011.64	0.533
3020.37	0.5216
3029.09	0.5
3037.82	0.5207
3046.55	0.5326
3055.28	0.523
3064	0.505
3072.73	0.519
3081.46	0.5319
3090.18	0.533
3098.91	0.5345
3107.64	0.536
3116.37	0.5375
3125.09	0.536
3133.82	0.536
3142.55	0.5344
3151.28	0.5314
3160	0.531
3168.73	0.532
3177.46	0.533
3186.18	0.533
3194.91	0.533
3203.64	0.533
3212.37	0.532
3221.09	0.532
3229.82	0.531
3238.55	0.531
3247.28	0.5301
3256	0.5291
3264.73	0.5281
3273.46	0.528
3282.18	0.528
3290.91	0.526
3299.64	0.525
3308.37	0.523
3317.09	0.522
3325.82	0.52
3334.55	0.5178
3343.28	0.513
3352	0.512
3360.73	0.511
3369.46	0.51
3378.18	0.5098
3386.91	0.5063
3395.64	0.504
3404.37	0.502
3413.09	0.502
3421.82	0.5
3430.55	0.496
3439.28	0.487
3448	0.4814
3456.73	0.4884
3465.46	0.498
3474.18	0.5054
3482.91	0.5085
3491.64	0.5109
3500.37	0.513
3509.09	0.513
3517.82	0.515
3526.55	0.5093
3535.28	0.5076
3544	0.5142
3552.73	0.5212
3561.46	0.5243
3570.18	0.5257
3578.91	0.527
3587.64	0.528
3596.37	0.529
3605.09	0.531
3613.82	0.531
3622.55	0.532
3631.28	0.532
3640	0.532
3648.73	0.532
3657.46	0.532
3666.19	0.532
3674.91	0.532
3683.64	0.532
3692.37	0.532
3701.09	0.531
3709.82	0.531
3718.55	0.531
3727.28	0.531
3736	0.531
3744.73	0.531
3753.46	0.531
3762.19	0.53
3770.91	0.5298
3779.64	0.529
3788.37	0.528
3797.09	0.5278
3805.82	0.5267
3814.55	0.5225
3823.28	0.52
3832	0.52
3840.73	0.52
3849.46	0.519
3858.19	0.518
3866.91	0.518
3875.64	0.517
3884.37	0.517
3893.09	0.518
3901.82	0.5175
3910.55	0.518
3919.28	0.518
3928	0.518
3936.73	0.518
3945.46	0.5174
3954.19	0.5164
3962.91	0.515
3971.64	0.5133
3980.37	0.5116
3989.09	0.5103
3997.82	0.51
