Infrared Spectrum: BARIUM PHOSPHATE, DIBASIC
Formula: Ba H P O4
State: SOLID (NUJOL MULL)
Class: COBLENTZ
Instrument: Not specified, most likely a prism, grating, or hybrid spectrometer.
Sampling: TRANSMISSION
Resolution: 4
Origin: MELLON INSTITUTE
MICROMETERS	TRANSMITTANCE
2.061	0.901
2.10097	0.909
2.14095	0.918
2.18092	0.926
2.22089	0.929
2.26087	0.926
2.30084	0.923
2.34081	0.929
2.38079	0.936
2.42076	0.939
2.46073	0.949
2.5007	0.959
2.54068	0.959
2.58065	0.961
2.62062	0.973
2.6606	0.958
2.70057	0.973
2.74054	0.959
2.78052	0.951
2.82049	0.938
2.86046	0.918
2.90044	0.909
2.94041	0.903
2.98038	0.898
3.02036	0.893
3.06033	0.881
3.1003	0.868
3.14027	0.853
3.18025	0.834
3.22022	0.813
3.26019	0.792
3.30017	0.701
3.34014	0.2
3.38011	0.098
3.42009	0.255
3.46006	0.225
3.50003	0.469
3.54001	0.631
3.57998	0.644
3.61995	0.634
3.65993	0.622
3.6999	0.614
3.73987	0.617
3.77984	0.624
3.81982	0.644
3.85979	0.681
3.89976	0.702
3.93974	0.712
3.97971	0.717
4.01968	0.679
4.05966	0.627
4.09963	0.619
4.1396	0.637
4.17958	0.647
4.21955	0.634
4.25952	0.629
4.2995	0.626
4.33947	0.629
4.37944	0.654
4.41942	0.676
4.45939	0.679
4.49936	0.684
4.53933	0.689
4.57931	0.696
4.61928	0.702
4.65925	0.712
4.69923	0.719
4.7392	0.726
4.77917	0.731
4.81915	0.742
4.85912	0.752
4.89909	0.761
4.93907	0.772
4.97904	0.781
5.01901	0.789
5.05899	0.799
5.09896	0.803
5.13893	0.801
5.1789	0.801
5.21888	0.797
5.25885	0.794
5.29882	0.781
5.3388	0.771
5.37877	0.761
5.41874	0.746
5.45872	0.731
5.49869	0.711
5.53866	0.697
5.57864	0.669
5.61861	0.652
5.65858	0.644
5.69856	0.629
5.73853	0.606
5.7785	0.599
5.81847	0.595
5.85845	0.594
5.89842	0.597
5.93839	0.599
5.97837	0.607
6.01834	0.619
6.05831	0.627
6.09829	0.629
6.13826	0.639
6.17823	0.651
6.21821	0.671
6.25818	0.681
6.29815	0.682
6.33813	0.689
6.3781	0.694
6.41807	0.699
6.45804	0.706
6.49802	0.714
6.53799	0.716
6.57796	0.727
6.61794	0.727
6.65791	0.737
6.69788	0.734
6.73786	0.726
6.77783	0.666
6.8178	0.515
6.85778	0.497
6.89775	0.529
6.93772	0.622
6.9777	0.681
7.01767	0.729
7.05764	0.742
7.09762	0.759
7.13759	0.771
7.17756	0.769
7.21753	0.684
7.25751	0.657
7.29748	0.697
7.33745	0.742
7.37743	0.771
7.4174	0.779
7.45737	0.787
7.49735	0.796
7.53732	0.803
7.57729	0.803
7.61727	0.796
7.65724	0.787
7.69721	0.777
7.73719	0.759
7.77716	0.726
7.81713	0.661
7.8571	0.579
7.89708	0.442
7.93705	0.382
7.97702	0.362
8.017	0.375
8.05697	0.452
8.09694	0.55
8.13692	0.647
8.17689	0.689
8.21686	0.717
8.25684	0.736
8.29681	0.752
8.33678	0.766
8.37676	0.772
8.41673	0.776
8.4567	0.772
8.49667	0.764
8.53665	0.744
8.57662	0.731
8.61659	0.699
8.65657	0.656
8.69654	0.602
8.73651	0.537
8.77649	0.415
8.81646	0.302
8.85643	0.207
8.89641	0.178
8.93638	0.16
8.97635	0.156
9.01633	0.148
9.0563	0.135
9.09627	0.118
9.13625	0.101
9.17622	0.091
9.21619	0.08
9.25616	0.07
9.29614	0.061
9.33611	0.056
9.37608	0.055
9.41606	0.053
9.45603	0.056
9.496	0.076
9.53598	0.118
9.57595	0.17
9.61592	0.238
9.6559	0.293
9.69587	0.325
9.73584	0.352
9.77582	0.363
9.81579	0.373
9.85576	0.37
9.89573	0.365
9.93571	0.358
9.97568	0.345
10.0157	0.313
10.0556	0.267
10.0956	0.242
10.1356	0.227
10.1755	0.223
10.2155	0.252
10.2555	0.302
10.2955	0.358
10.3354	0.393
10.3754	0.434
10.4154	0.459
10.4554	0.475
10.4953	0.48
10.5353	0.482
10.5753	0.482
10.6153	0.467
10.6552	0.449
10.6952	0.435
10.7352	0.422
10.7751	0.41
10.8151	0.404
10.8551	0.398
10.8951	0.392
10.935	0.368
10.975	0.335
11.015	0.282
11.055	0.243
11.0949	0.227
11.1349	0.212
11.1749	0.208
11.2148	0.207
11.2548	0.21
11.2948	0.215
11.3348	0.23
11.3747	0.243
11.4147	0.258
11.4547	0.278
11.4947	0.302
11.5346	0.318
11.5746	0.33
11.6146	0.34
11.6546	0.353
11.6945	0.368
11.7345	0.38
11.7745	0.388
11.8144	0.402
11.8544	0.414
11.8944	0.424
11.9344	0.434
11.9743	0.444
12.0143	0.455
12.0543	0.474
12.0943	0.497
12.1342	0.517
12.1742	0.529
12.2142	0.54
12.2541	0.554
12.2941	0.574
12.3341	0.59
12.3741	0.606
12.414	0.626
12.454	0.639
12.494	0.649
12.534	0.661
12.5739	0.664
12.6139	0.672
12.6539	0.682
12.6939	0.691
12.7338	0.699
12.7738	0.704
12.8138	0.714
12.8537	0.719
12.8937	0.726
12.9337	0.727
12.9737	0.736
13.0136	0.742
13.0536	0.749
13.0936	0.752
13.1336	0.761
13.1735	0.767
13.2135	0.772
13.2535	0.776
13.2935	0.777
13.3334	0.784
13.3734	0.789
13.4134	0.794
13.4533	0.794
13.4933	0.797
13.5333	0.797
13.5733	0.799
13.6132	0.801
13.6532	0.803
13.6932	0.803
13.7332	0.803
13.7731	0.803
13.8131	0.803
13.8531	0.803
13.893	0.804
13.933	0.813
13.973	0.818
14.013	0.823
14.0529	0.828
14.0929	0.828
14.1329	0.829
14.1729	0.831
14.2128	0.833
14.2528	0.833
14.2928	0.833
14.3328	0.833
14.3727	0.833
14.4127	0.831
14.4527	0.829
14.4926	0.826
14.5326	0.824
14.5726	0.818
14.6126	0.816
14.6525	0.814
14.6925	0.809
14.7325	0.804
14.7725	0.801
14.8124	0.796
14.8524	0.791
14.8924	0.791
14.9323	0.789
14.9723	0.791
15.0123	0.784
15.0523	0.781
15.0922	0.777
15.1322	0.777
15.1722	0.774
15.2122	0.771
15.2521	0.767
15.2921	0.766
15.3321	0.764
15.3721	0.761
15.412	0.754
15.452	0.751
15.492	0.746
15.5319	0.741
15.5719	0.737
15.6119	0.732
15.6519	0.727
15.6918	0.726
15.7318	0.724
15.7718	0.722
15.8118	0.719
15.8517	0.717
15.8917	0.716
15.9317	0.712
15.9717	0.712
