Infrared Spectrum: MORPHOLINE, 3,4-DIMETHYL-2-PHENYL-, d-, BITARTRATE
Formula: C16 H23 N O7
State: SOLID (KBr DISC) VS KBr
Class: COBLENTZ III
Instrument: PERKIN-ELMER 21 (GRATING)
Instrument parameters: FILTER AT ABOUT 10 MICRONS
Sampling: TRANSMISSION
Resolution: 2
1/CM	TRANSMITTANCE
4000	0.8092
3991	0.8089
3982	0.8088
3973	0.8086
3964	0.8084
3955	0.8082
3946	0.8081
3937	0.8078
3928	0.8076
3919	0.8075
3910	0.8074
3901	0.8074
3892	0.8074
3883	0.8072
3874	0.8072
3865	0.8072
3856	0.8071
3847	0.8071
3838	0.8071
3829	0.8071
3820	0.8071
3811	0.8072
3802	0.8078
3793	0.8084
3784	0.8089
3775	0.8094
3766	0.8099
3757	0.8105
3748	0.811
3739	0.8114
3730	0.8115
3721	0.8118
3712	0.8119
3703	0.8122
3694	0.8125
3685	0.8126
3676	0.8128
3667	0.8124
3658	0.8115
3649	0.8106
3640	0.8096
3631	0.8086
3622	0.8075
3613	0.8061
3604	0.8035
3595	0.8008
3586	0.7982
3577	0.7955
3568	0.7924
3559	0.7872
3550	0.7817
3541	0.7761
3532	0.7705
3523	0.7631
3514	0.7468
3505	0.7196
3496	0.6637
3487	0.6344
3478	0.6049
3469	0.5752
3460	0.5455
3451	0.5155
3442	0.4912
3433	0.4927
3424	0.5056
3415	0.5192
3406	0.5329
3397	0.5467
3388	0.5581
3379	0.5615
3370	0.5634
3361	0.5647
3352	0.5646
3343	0.5636
3334	0.56
3325	0.5331
3316	0.4928
3307	0.4523
3298	0.4199
3289	0.4225
3280	0.4269
3271	0.4335
3262	0.4422
3253	0.4603
3244	0.4967
3235	0.5249
3226	0.5508
3217	0.5712
3208	0.5865
3199	0.5976
3190	0.6069
3181	0.6149
3172	0.6207
3163	0.6244
3154	0.6268
3145	0.6278
3136	0.6274
3127	0.6267
3118	0.6251
3109	0.6225
3100	0.62
3091	0.6158
3082	0.6103
3073	0.6047
3064	0.5966
3055	0.5862
3046	0.5759
3037	0.5654
3028	0.5531
3019	0.5489
3010	0.548
3001	0.5472
2992	0.547
2983	0.546
2974	0.5409
2965	0.5377
2956	0.5368
2947	0.5353
2938	0.5301
2929	0.5227
2920	0.5145
2911	0.5078
2902	0.5017
2893	0.4987
2884	0.4958
2875	0.495
2866	0.4944
2857	0.4937
2848	0.4942
2839	0.4954
2830	0.4966
2821	0.4977
2812	0.4986
2803	0.4994
2794	0.5001
2785	0.5005
2776	0.5009
2767	0.5004
2758	0.5
2749	0.4994
2740	0.4973
2731	0.4931
2722	0.486
2713	0.4773
2704	0.4691
2695	0.4607
2686	0.455
2677	0.4528
2668	0.451
2659	0.4491
2650	0.4462
2641	0.4431
2632	0.436
2623	0.4185
2614	0.405
2605	0.392
2596	0.383
2587	0.3762
2578	0.3703
2569	0.3664
2560	0.3652
2551	0.3671
2542	0.3714
2533	0.3757
2524	0.3797
2515	0.3836
2506	0.3872
2497	0.39
2488	0.3918
2479	0.3907
2470	0.3862
2461	0.3828
2452	0.3821
2443	0.3848
2434	0.4029
2425	0.4217
2416	0.4397
2407	0.4571
2398	0.4765
2389	0.4992
2380	0.5209
2371	0.5386
2362	0.5448
2353	0.5492
2344	0.5545
2335	0.5619
2326	0.571
2317	0.5834
2308	0.5969
2299	0.6114
2290	0.6262
2281	0.6382
2272	0.6496
2263	0.66
2254	0.6682
2245	0.6765
2236	0.6839
2227	0.6901
2218	0.6962
2209	0.7022
2200	0.7082
2191	0.7121
2182	0.7156
2173	0.7176
2164	0.7195
2155	0.7208
2146	0.7214
2137	0.7212
2128	0.72
2119	0.7181
2110	0.715
2101	0.7115
2092	0.7071
2083	0.7025
2074	0.6971
2065	0.6905
2056	0.6838
2047	0.6768
2038	0.6691
2029	0.6612
2020	0.6535
2011	0.6468
2002	0.6404
1993	0.634
1984	0.6267
1975	0.6193
1966	0.6123
1957	0.6062
1948	0.6032
1939	0.6029
1930	0.6002
1921	0.595
1912	0.5867
1903	0.5794
1894	0.5732
1885	0.5666
1876	0.5648
1867	0.5644
1858	0.5649
1849	0.5662
1840	0.5697
1831	0.5722
1822	0.5736
1813	0.5744
1804	0.5736
1795	0.5728
1786	0.5683
1777	0.562
1768	0.5516
1759	0.534
1750	0.5083
1741	0.4824
1732	0.4544
1723	0.4174
1714	0.3814
1705	0.3498
1696	0.3484
1687	0.3858
1678	0.4412
1669	0.482
1660	0.5034
1651	0.5078
1642	0.5101
1633	0.5078
1624	0.4877
1615	0.4664
1606	0.449
1597	0.4278
1588	0.4094
1579	0.4018
1570	0.3993
1561	0.3993
1552	0.405
1543	0.4208
1534	0.4331
1525	0.4366
1516	0.4389
1507	0.4424
1498	0.4512
1489	0.4722
1480	0.4954
1471	0.4928
1462	0.4503
1453	0.3962
1444	0.3759
1435	0.3742
1426	0.3637
1417	0.3249
1408	0.2755
1399	0.2667
1390	0.2855
1381	0.3486
1372	0.395
1363	0.4242
1354	0.4501
1345	0.4591
1336	0.4534
1327	0.4456
1318	0.3918
1309	0.3083
1300	0.2319
1291	0.2966
1282	0.3492
1273	0.3035
1264	0.2334
1255	0.2294
1246	0.2918
1237	0.3348
1228	0.3905
1219	0.3622
1210	0.2894
1201	0.3404
1192	0.4012
1183	0.4482
1174	0.4835
1165	0.4918
1156	0.4949
1147	0.4585
1138	0.286
1129	0.2521
1120	0.4073
1111	0.3273
1102	0.3414
1093	0.2996
1084	0.383
1075	0.3557
1066	0.2845
1057	0.3664
1048	0.4567
1039	0.4542
1030	0.5051
1021	0.5184
1012	0.5896
1003	0.6508
994	0.6323
985	0.5623
976	0.5276
967	0.6494
958	0.6988
949	0.7318
940	0.7408
931	0.6778
922	0.7131
913	0.7388
904	0.6714
895	0.6254
886	0.6951
877	0.7361
868	0.7301
859	0.7642
850	0.7419
841	0.7125
832	0.7244
823	0.7334
814	0.7319
805	0.7282
796	0.7357
787	0.6514
778	0.7811
769	0.7295
760	0.5935
751	0.5842
742	0.7583
733	0.7999
724	0.8068
715	0.7911
706	0.6553
697	0.3432
688	0.5666
679	0.4473
