Infrared Spectrum: Penicillin, o-cyclohexylphenyl-, sodium salt, dihydrate
Formula: C21 H25 N2 O4 S Na
State: SOLID (OIL MULL)
Class: COBLENTZ III
Instrument: PERKIN-ELMER 21 (GRATING)
Instrument parameters: NaCl PRISM
Sampling: TRANSMISSION
Resolution: 2
Origin: SMITH, KLINE & FRENCH LABS.
1/CM	TRANSMITTANCE
649	0.6784
658	0.7187
667	0.748
676	0.7347
685	0.7554
694	0.7663
703	0.775
712	0.7756
721	0.7843
730	0.7906
739	0.7671
748	0.6704
757	0.5483
766	0.7339
775	0.8181
784	0.8624
793	0.8767
802	0.8785
811	0.874
820	0.8774
829	0.879
838	0.876
847	0.8621
856	0.8452
865	0.8488
874	0.839
883	0.7607
892	0.7849
901	0.8383
910	0.8423
919	0.8206
928	0.8228
937	0.8056
946	0.7926
955	0.8041
964	0.7928
973	0.7934
982	0.8003
991	0.7751
1000	0.7761
1009	0.7402
1018	0.702
1027	0.6772
1036	0.7508
1045	0.7473
1054	0.7537
1063	0.7415
1072	0.7384
1081	0.735
1090	0.6751
1099	0.7287
1108	0.7277
1117	0.6984
1126	0.6332
1135	0.7205
1144	0.6765
1153	0.6479
1162	0.7186
1171	0.7306
1180	0.7346
1189	0.7107
1198	0.7041
1207	0.6926
1216	0.7017
1225	0.6966
1234	0.7094
1243	0.6799
1252	0.6243
1261	0.5912
1270	0.598
1279	0.6507
1288	0.6303
1297	0.5976
1306	0.4461
1315	0.4791
1324	0.384
1333	0.2335
1342	0.3219
1351	0.4927
1360	0.4787
1369	0.419
1378	0.4741
1387	0.4968
1396	0.3976
1405	0.5019
1414	0.5931
1423	0.5836
1432	0.5332
1441	0.3881
1450	0.3605
1459	0.3611
1468	0.4772
1477	0.5825
1486	0.5927
1495	0.5947
1504	0.5792
1513	0.5825
1522	0.5652
1531	0.5042
1540	0.3502
1549	0.3377
1558	0.3825
1567	0.499
1576	0.499
1585	0.4477
1594	0.2883
1603	0.1094
1612	0.0831
1621	0.2501
1630	0.3815
1639	0.3594
1648	0.2703
1657	0.3978
1666	0.528
1675	0.6158
1684	0.6311
1693	0.6543
1702	0.6571
1711	0.663
1720	0.6339
1729	0.6384
1738	0.5687
1747	0.4325
1756	0.2233
1765	0.2431
1774	0.3658
1783	0.5427
1792	0.6319
1801	0.6596
1810	0.7032
1819	0.7032
1828	0.7041
1837	0.7069
1846	0.7111
1855	0.721
1864	0.7265
1873	0.7269
1882	0.7233
1891	0.723
1900	0.7302
1909	0.7272
1918	0.7186
1927	0.7184
1936	0.7153
1945	0.7115
1954	0.714
1963	0.7169
1972	0.7154
1981	0.7099
1990	0.7072
1999	0.7061
2008	0.7044
2017	0.7033
2026	0.7025
2035	0.7021
2044	0.7021
2053	0.7019
2062	0.7008
2071	0.6997
2080	0.6987
2089	0.6966
2098	0.6946
2107	0.6924
2116	0.69
2125	0.6883
2134	0.6877
2143	0.6877
2152	0.6882
2161	0.6935
2170	0.6944
2179	0.6921
2188	0.6873
2197	0.6784
2206	0.678
2215	0.6788
2224	0.6794
2233	0.6881
2242	0.6866
2251	0.6765
2260	0.6677
2269	0.6669
2278	0.6668
2287	0.6668
2296	0.6669
2305	0.6565
2314	0.6457
2323	0.6478
2332	0.656
2341	0.659
2350	0.6562
2359	0.6497
2368	0.6454
2377	0.6482
2386	0.6511
2395	0.6541
2404	0.6564
2413	0.6569
2422	0.655
2431	0.6459
2440	0.6431
2449	0.6446
2458	0.6437
2467	0.6417
2476	0.6386
2485	0.6342
2494	0.6326
2503	0.6353
2512	0.6383
2521	0.636
2530	0.6337
2539	0.6315
2548	0.6293
2557	0.6272
2566	0.6247
2575	0.6221
2584	0.6194
2593	0.6168
2602	0.614
2611	0.6113
2620	0.6083
2629	0.6054
2638	0.6034
2647	0.6016
2656	0.5998
2665	0.5992
2674	0.5965
2683	0.5921
2692	0.587
2701	0.5815
2710	0.5757
2719	0.5693
2728	0.5594
2737	0.5425
2746	0.5261
2755	0.5095
2764	0.4894
2773	0.4302
2782	0.3736
2791	0.3188
2800	0.2643
2809	0.2101
2818	0.1677
2827	0.1406
2836	0.1341
2845	0.1317
2854	0.1307
2863	0.1315
2872	0.134
2881	0.138
2890	0.1454
2899	0.1584
2908	0.1819
2917	0.2161
2926	0.2442
2935	0.2895
2944	0.3352
2953	0.3807
2962	0.4259
2971	0.4638
2980	0.4758
2989	0.4764
2998	0.4758
3007	0.4744
3016	0.4723
3025	0.4722
3034	0.4725
3043	0.4726
3052	0.4725
3061	0.4721
3070	0.4702
3079	0.467
3088	0.4618
3097	0.4548
3106	0.4491
3115	0.4478
3124	0.4384
3133	0.427
3142	0.4178
3151	0.4139
3160	0.4097
3169	0.4077
3178	0.406
3187	0.4045
3196	0.4042
3205	0.4065
3214	0.4205
3223	0.4284
3232	0.4321
3241	0.4352
3250	0.4381
3259	0.4407
3268	0.4409
3277	0.4406
3286	0.4399
3295	0.4389
3304	0.4381
3313	0.4378
3322	0.4387
3331	0.4396
3340	0.4411
3349	0.4438
3358	0.4476
3367	0.4524
3376	0.458
3385	0.4638
3394	0.471
3403	0.4787
3412	0.4884
3421	0.4989
3430	0.508
3439	0.5166
3448	0.525
3457	0.532
3466	0.5425
3475	0.552
3484	0.5536
3493	0.5544
3502	0.5551
3511	0.5556
3520	0.5562
3529	0.5562
3538	0.5561
3547	0.5549
3556	0.5526
3565	0.5511
3574	0.5511
3583	0.553
3592	0.5567
3601	0.561
3610	0.5655
3619	0.569
3628	0.5706
3637	0.5698
3646	0.569
3655	0.568
3664	0.5663
3673	0.5645
3682	0.5626
3691	0.5607
3700	0.5587
3709	0.5567
3718	0.5546
3727	0.5527
3736	0.5507
3745	0.5488
3754	0.5473
3763	0.5461
3772	0.5449
3781	0.5437
3790	0.5427
3799	0.5423
3808	0.5419
3817	0.5414
3826	0.5411
3835	0.5407
3844	0.5404
3853	0.54
3862	0.5396
3871	0.5392
3880	0.5388
3889	0.5385
3898	0.5381
3907	0.5377
3916	0.537
3925	0.535
3934	0.5325
3943	0.5301
3952	0.5271
3961	0.5238
3970	0.5209
3979	0.5181
3988	0.5151
3997	0.5119
