Infrared Spectrum: METHANE SULFONIC ACID, PHENYLCARBAMOYL-, ANILINE SALT
Formula: C14 H16 N2 O4 S
State: SOLID (KBr PELLET)
Melting point: 225-227 C
Class: COBLENTZ
Instrument: Not specified, most likely a prism, grating, or hybrid spectrometer.
Sampling: TRANSMISSION
Resolution: 4
Origin: TENNESSEE EASTMAN COMPANY, RESEARCH LABORATORIES
MICROMETERS	TRANSMITTANCE
2	0.958
2.04101	0.957
2.08203	0.96
2.12304	0.955
2.16406	0.955
2.20507	0.955
2.24609	0.958
2.2871	0.957
2.32812	0.962
2.36913	0.96
2.41015	0.955
2.45116	0.955
2.49217	0.96
2.53319	0.96
2.5742	0.958
2.61522	0.96
2.65623	0.957
2.69725	0.945
2.73826	0.917
2.77928	0.796
2.82029	0.777
2.86131	0.743
2.90232	0.7
2.94334	0.767
2.98435	0.545
3.02536	0.355
3.06638	0.586
3.10739	0.555
3.14841	0.548
3.18942	0.427
3.23044	0.297
3.27145	0.23
3.31247	0.162
3.35348	0.14
3.3945	0.121
3.43551	0.126
3.47652	0.22
3.51754	0.326
3.55855	0.401
3.59957	0.464
3.64058	0.487
3.6816	0.47
3.72261	0.444
3.76363	0.369
3.80464	0.338
3.84566	0.432
3.88667	0.572
3.92769	0.676
3.9687	0.769
4.00971	0.811
4.05073	0.844
4.09174	0.859
4.13276	0.894
4.17377	0.909
4.21479	0.914
4.2558	0.914
4.29682	0.917
4.33783	0.931
4.37885	0.935
4.41986	0.936
4.46087	0.936
4.50189	0.943
4.5429	0.948
4.58392	0.945
4.62493	0.948
4.66595	0.929
4.70696	0.907
4.74798	0.895
4.78899	0.892
4.83001	0.89
4.87102	0.888
4.91204	0.895
4.95305	0.911
4.99406	0.921
5.03508	0.921
5.07609	0.926
5.11711	0.928
5.15812	0.935
5.19914	0.955
5.24015	0.958
5.28117	0.945
5.32218	0.941
5.3632	0.953
5.40421	0.969
5.44522	0.967
5.48624	0.958
5.52725	0.941
5.56827	0.95
5.60928	0.95
5.6503	0.943
5.69131	0.919
5.73233	0.89
5.77334	0.89
5.81436	0.88
5.85537	0.825
5.89639	0.729
5.9374	0.461
5.97841	0.22
6.01943	0.037
6.06044	0.14
6.10146	0.311
6.14247	0.251
6.18349	0.148
6.2245	0.085
6.26552	0.261
6.30653	0.454
6.34755	0.348
6.38856	0.109
6.42957	0.129
6.47059	0.309
6.5116	0.482
6.55262	0.567
6.59363	0.468
6.63465	0.124
6.67566	0.391
6.71668	0.637
6.75769	0.69
6.79871	0.697
6.83972	0.615
6.88073	0.155
6.92175	0.629
6.96276	0.512
7.00378	0.57
7.04479	0.757
7.08581	0.83
7.12682	0.839
7.16784	0.847
7.20885	0.847
7.24987	0.851
7.29088	0.861
7.3319	0.847
7.37291	0.77
7.41392	0.48
7.45494	0.23
7.49595	0.461
7.53697	0.659
7.57798	0.755
7.619	0.791
7.66001	0.729
7.70103	0.692
7.74204	0.401
7.78306	0.355
7.82407	0.644
7.86508	0.589
7.9061	0.35
7.94711	0.569
7.98813	0.625
8.02914	0.555
8.07016	0.446
8.11117	0.261
8.15219	0.194
8.1932	0.155
8.23422	0.041
8.27523	0.032
8.31625	0.124
8.35726	0.143
8.39827	0.097
8.43929	0.07
8.4803	0.027
8.52132	0.094
8.56233	0.311
8.60335	0.504
8.64436	0.586
8.68538	0.586
8.72639	0.545
8.76741	0.531
8.80842	0.492
8.84943	0.442
8.89045	0.54
8.93146	0.635
8.97248	0.683
9.01349	0.736
9.05451	0.769
9.09552	0.791
9.13654	0.796
9.17755	0.81
9.21857	0.806
9.25958	0.823
9.3006	0.829
9.34161	0.796
9.38262	0.736
9.42364	0.514
9.46465	0.579
9.50567	0.381
9.54668	0.105
9.5877	0.037
9.62871	0.294
9.66973	0.521
9.71074	0.707
9.75176	0.793
9.79277	0.827
9.83378	0.864
9.8748	0.88
9.91581	0.875
9.95683	0.873
9.99784	0.892
10.0389	0.909
10.0799	0.911
10.1209	0.911
10.1619	0.887
10.2029	0.822
10.2439	0.733
10.2849	0.55
10.326	0.639
10.367	0.784
10.408	0.871
10.449	0.923
10.49	0.94
10.531	0.952
10.572	0.957
10.6131	0.964
10.6541	0.967
10.6951	0.969
10.7361	0.965
10.7771	0.933
10.8181	0.916
10.8591	0.933
10.9002	0.936
10.9412	0.905
10.9822	0.856
11.0232	0.817
11.0642	0.733
11.1052	0.846
11.1463	0.935
11.1873	0.965
11.2283	0.981
11.2693	0.986
11.3103	0.988
11.3513	0.991
11.3923	0.993
11.4334	0.994
11.4744	0.996
11.5154	0.998
11.5564	0.998
11.5974	0.994
11.6384	0.989
11.6794	0.977
11.7205	0.95
11.7615	0.921
11.8025	0.883
11.8435	0.863
11.8845	0.88
11.9255	0.912
11.9665	0.924
12.0076	0.929
12.0486	0.928
12.0896	0.904
12.1306	0.83
12.1716	0.704
12.2126	0.584
12.2536	0.646
12.2947	0.747
12.3357	0.82
12.3767	0.863
12.4177	0.882
12.4587	0.892
12.4997	0.894
12.5407	0.899
12.5818	0.902
12.6228	0.904
12.6638	0.904
12.7048	0.899
12.7458	0.88
12.7868	0.866
12.8278	0.851
12.8689	0.822
12.9099	0.8
12.9509	0.752
12.9919	0.712
13.0329	0.634
13.0739	0.541
13.115	0.449
13.156	0.401
13.197	0.362
13.238	0.319
13.279	0.287
13.32	0.222
13.361	0.138
13.4021	0.087
13.4431	0.076
13.4841	0.158
13.5251	0.288
13.5661	0.415
13.6071	0.565
13.6481	0.651
13.6892	0.69
13.7302	0.719
13.7712	0.743
13.8122	0.758
13.8532	0.769
13.8942	0.774
13.9352	0.777
13.9763	0.777
14.0173	0.774
14.0583	0.769
14.0993	0.755
14.1403	0.745
14.1813	0.728
14.2223	0.712
14.2634	0.69
14.3044	0.671
14.3454	0.639
14.3864	0.601
14.4274	0.517
14.4684	0.405
14.5094	0.292
14.5505	0.27
14.5915	0.336
14.6325	0.464
14.6735	0.586
14.7145	0.659
14.7555	0.699
14.7965	0.721
14.8376	0.726
14.8786	0.724
14.9196	0.712
14.9606	0.682
15.0016	0.647
15.0426	0.613
15.0837	0.582
15.1247	0.526
15.1657	0.499
15.2067	0.49
15.2477	0.499
15.2887	0.552
15.3297	0.582
15.3708	0.603
15.4118	0.617
15.4528	0.627
15.4938	0.63
15.5348	0.623
15.5758	0.629
15.6168	0.63
15.6579	0.629
15.6989	0.623
15.7399	0.618
15.7809	0.613
15.8219	0.611
15.8629	0.608
15.9039	0.603
15.945	0.6
