Infrared Spectrum: 2,4-DINITROSO RESORCINOL MONOHYDRATE
Formula: C6 H4 N2 O4  * H2 O
State: SOLID (MINERAL OIL MULL)
Melting point: DECOMPOSES AT 160 C
Class: COBLENTZ
Instrument: Not specified, most likely a prism, grating, or hybrid spectrometer.
Sampling: TRANSMISSION
Resolution: 4
Origin: WYANDOTTE CHEMICALS CORP., WYANDOTTE, MICHIGAN, USA
MICROMETERS	TRANSMITTANCE
2.007	0.809
2.04794	0.818
2.08887	0.825
2.12981	0.82
2.17074	0.823
2.21168	0.839
2.25261	0.84
2.29355	0.854
2.33448	0.88
2.37542	0.886
2.41635	0.895
2.45729	0.905
2.49822	0.931
2.53916	0.921
2.58009	0.952
2.62103	0.955
2.66197	0.928
2.7029	0.832
2.74384	0.505
2.78477	0.563
2.82571	0.66
2.86664	0.426
2.90758	0.416
2.94851	0.609
2.98945	0.633
3.03038	0.513
3.07132	0.299
3.11225	0.234
3.15319	0.304
3.19413	0.38
3.23506	0.457
3.276	0.385
3.31693	0.092
3.35787	0.065
3.3988	0.16
3.43974	0.125
3.48067	0.318
3.52161	0.375
3.56254	0.347
3.60348	0.361
3.64441	0.375
3.68535	0.363
3.72628	0.421
3.76722	0.486
3.80816	0.529
3.84909	0.542
3.89003	0.594
3.93096	0.636
3.9719	0.676
4.01283	0.712
4.05377	0.739
4.0947	0.756
4.13564	0.765
4.17657	0.78
4.21751	0.768
4.25844	0.801
4.29938	0.833
4.34032	0.864
4.38125	0.875
4.42219	0.868
4.46312	0.892
4.50406	0.881
4.54499	0.912
4.58593	0.921
4.62686	0.917
4.6678	0.924
4.70873	0.928
4.74967	0.941
4.7906	0.938
4.83154	0.922
4.87247	0.924
4.91341	0.941
4.95435	0.948
4.99528	0.943
5.03622	0.96
5.07715	0.97
5.11809	0.977
5.15902	0.972
5.19996	0.955
5.24089	0.969
5.28183	0.969
5.32276	0.96
5.3637	0.946
5.40463	0.94
5.44557	0.921
5.4865	0.926
5.52744	0.909
5.56838	0.897
5.60931	0.878
5.65025	0.876
5.69118	0.876
5.73212	0.893
5.77305	0.84
5.81399	0.583
5.85492	0.477
5.89586	0.597
5.93679	0.174
5.97773	0.119
6.01866	0.304
6.0596	0.525
6.10054	0.602
6.14147	0.59
6.18241	0.369
6.22334	0.602
6.26428	0.684
6.30521	0.726
6.34615	0.726
6.38708	0.626
6.42802	0.554
6.46895	0.654
6.50989	0.738
6.55082	0.72
6.59176	0.604
6.63269	0.366
6.67363	0.491
6.71457	0.511
6.7555	0.369
6.79644	0.421
6.83737	0.503
6.87831	0.59
6.91924	0.691
6.96018	0.717
7.00111	0.65
7.04205	0.505
7.08298	0.351
7.12392	0.253
7.16485	0.289
7.20579	0.395
7.24672	0.452
7.28766	0.525
7.3286	0.594
7.36953	0.64
7.41047	0.702
7.4514	0.75
7.49234	0.75
7.53327	0.7
7.57421	0.619
7.61514	0.715
7.65608	0.739
7.69701	0.729
7.73795	0.684
7.77888	0.674
7.81982	0.726
7.86076	0.75
7.90169	0.77
7.94263	0.777
7.98356	0.782
8.0245	0.789
8.06543	0.789
8.10637	0.78
8.1473	0.731
8.18824	0.587
8.22917	0.664
8.27011	0.75
8.31104	0.775
8.35198	0.791
8.39291	0.811
8.43385	0.821
8.47479	0.821
8.51572	0.821
8.55666	0.827
8.59759	0.818
8.63853	0.803
8.67946	0.767
8.7204	0.595
8.76133	0.344
8.80227	0.45
8.8432	0.631
8.88414	0.712
8.92507	0.736
8.96601	0.724
9.00695	0.667
9.04788	0.678
9.08882	0.755
9.12975	0.791
9.17069	0.82
9.21162	0.823
9.25256	0.828
9.29349	0.835
9.33443	0.842
9.37536	0.851
9.4163	0.844
9.45723	0.82
9.49817	0.768
9.5391	0.614
9.58004	0.368
9.62098	0.304
9.66191	0.474
9.70285	0.69
9.74378	0.76
9.78472	0.809
9.82565	0.825
9.86659	0.823
9.90752	0.818
9.94846	0.823
9.98939	0.821
10.0303	0.815
10.0713	0.787
10.1122	0.756
10.1531	0.674
10.1941	0.563
10.235	0.39
10.2759	0.226
10.3169	0.125
10.3578	0.075
10.3987	0.077
10.4397	0.102
10.4806	0.169
10.5216	0.268
10.5625	0.39
10.6034	0.484
10.6444	0.53
10.6853	0.571
10.7262	0.589
10.7672	0.587
10.8081	0.58
10.849	0.558
10.89	0.537
10.9309	0.534
10.9718	0.544
11.0128	0.539
11.0537	0.546
11.0946	0.553
11.1356	0.577
11.1765	0.601
11.2175	0.621
11.2584	0.65
11.2993	0.679
11.3403	0.708
11.3812	0.732
11.4221	0.748
11.4631	0.758
11.504	0.768
11.5449	0.772
11.5859	0.77
11.6268	0.767
11.6677	0.758
11.7087	0.722
11.7496	0.643
11.7905	0.467
11.8315	0.388
11.8724	0.523
11.9134	0.614
11.9543	0.643
11.9952	0.655
12.0362	0.664
12.0771	0.671
12.118	0.688
12.159	0.734
12.1999	0.785
12.2408	0.83
12.2818	0.863
12.3227	0.868
12.3636	0.868
12.4046	0.825
12.4455	0.773
12.4864	0.684
12.5274	0.597
12.5683	0.532
12.6093	0.479
12.6502	0.458
12.6911	0.477
12.7321	0.537
12.773	0.619
12.8139	0.667
12.8549	0.703
12.8958	0.727
12.9367	0.746
12.9777	0.756
13.0186	0.768
13.0595	0.777
13.1005	0.784
13.1414	0.794
13.1824	0.806
13.2233	0.806
13.2642	0.813
13.3052	0.816
13.3461	0.821
13.387	0.825
13.428	0.818
13.4689	0.808
13.5098	0.791
13.5508	0.768
13.5917	0.77
13.6326	0.787
13.6736	0.809
13.7145	0.815
13.7554	0.813
13.7964	0.808
13.8373	0.806
13.8783	0.801
13.9192	0.818
13.9601	0.833
14.0011	0.842
14.042	0.859
14.0829	0.857
14.1239	0.857
14.1648	0.861
14.2057	0.857
14.2467	0.856
14.2876	0.861
14.3285	0.852
14.3695	0.849
14.4104	0.844
14.4513	0.837
14.4923	0.835
14.5332	0.823
14.5742	0.808
14.6151	0.804
14.656	0.789
14.697	0.777
14.7379	0.763
14.7788	0.736
14.8198	0.719
14.8607	0.708
14.9016	0.696
14.9426	0.686
14.9835	0.657
15.0244	0.609
15.0654	0.575
15.1063	0.558
15.1472	0.573
15.1882	0.587
15.2291	0.594
15.2701	0.594
15.311	0.597
15.3519	0.606
15.3929	0.611
15.4338	0.619
15.4747	0.623
15.5157	0.631
15.5566	0.638
15.5975	0.643
15.6385	0.635
15.6794	0.642
15.7203	0.638
15.7613	0.628
15.8022	0.628
15.8431	0.609
15.8841	0.611
15.925	0.604
15.966	0.592
