Infrared Spectrum: HISTAMINE DIHYDROCHLORIDE
Formula: C5 H11 Cl2 N3
State: SOLID (MINERAL OIL MULL)
Class: COBLENTZ
Instrument: Not specified, most likely a prism, grating, or hybrid spectrometer.
Sampling: TRANSMISSION
Resolution: 4
Origin: DOW CHEMICAL COMPANY
MICROMETERS	TRANSMITTANCE
2.034	0.721
2.0751	0.724
2.11619	0.733
2.15729	0.741
2.19839	0.741
2.23949	0.741
2.28058	0.738
2.32168	0.743
2.36278	0.757
2.40387	0.77
2.44497	0.784
2.48607	0.796
2.52716	0.808
2.56826	0.817
2.60936	0.83
2.65046	0.832
2.69155	0.842
2.73265	0.851
2.77375	0.859
2.81484	0.866
2.85594	0.868
2.89704	0.866
2.93813	0.859
2.97923	0.835
3.02033	0.789
3.06143	0.699
3.10252	0.543
3.14362	0.437
3.18472	0.316
3.22581	0.208
3.26691	0.261
3.30801	0.223
3.34911	0.112
3.3902	0.023
3.4313	0.03
3.4724	0.054
3.51349	0.148
3.55459	0.263
3.59569	0.321
3.63678	0.406
3.67788	0.451
3.71898	0.478
3.76008	0.5
3.80117	0.531
3.84227	0.558
3.88337	0.629
3.92446	0.656
3.96556	0.688
4.00666	0.659
4.04775	0.688
4.08885	0.757
4.12995	0.77
4.17105	0.781
4.21214	0.788
4.25324	0.8
4.29434	0.808
4.33543	0.818
4.37653	0.83
4.41763	0.832
4.45872	0.835
4.49982	0.842
4.54092	0.849
4.58202	0.847
4.62311	0.854
4.66421	0.864
4.70531	0.864
4.7464	0.864
4.7875	0.868
4.8286	0.871
4.8697	0.876
4.91079	0.882
4.95189	0.887
4.99299	0.888
5.03408	0.883
5.07518	0.885
5.11628	0.89
5.15737	0.883
5.19847	0.876
5.23957	0.871
5.28067	0.871
5.32176	0.878
5.36286	0.882
5.40396	0.883
5.44505	0.888
5.48615	0.887
5.52725	0.883
5.56834	0.883
5.60944	0.883
5.65054	0.863
5.69164	0.863
5.73273	0.866
5.77383	0.866
5.81493	0.859
5.85602	0.851
5.89712	0.839
5.93822	0.825
5.97932	0.808
6.02041	0.8
6.06151	0.796
6.10261	0.711
6.1437	0.618
6.1848	0.702
6.2259	0.68
6.26699	0.699
6.30809	0.75
6.34919	0.762
6.39029	0.769
6.43138	0.757
6.47248	0.736
6.51358	0.558
6.55467	0.581
6.59577	0.776
6.63687	0.829
6.67796	0.832
6.71906	0.699
6.76016	0.495
6.80126	0.362
6.84235	0.345
6.88345	0.391
6.92455	0.464
6.96564	0.649
7.00674	0.752
7.04784	0.765
7.08894	0.764
7.13003	0.8
7.17113	0.796
7.21223	0.661
7.25332	0.581
7.29442	0.7
7.33552	0.77
7.37661	0.782
7.41771	0.77
7.45881	0.823
7.49991	0.829
7.541	0.82
7.5821	0.827
7.6232	0.837
7.66429	0.835
7.70539	0.837
7.74649	0.849
7.78758	0.854
7.82868	0.856
7.86978	0.852
7.91088	0.852
7.95197	0.863
7.99307	0.852
8.03417	0.769
8.07526	0.731
8.11636	0.835
8.15746	0.863
8.19855	0.87
8.23965	0.882
8.28075	0.885
8.32185	0.89
8.36294	0.888
8.40404	0.868
8.44514	0.863
8.48623	0.871
8.52733	0.859
8.56843	0.844
8.60953	0.829
8.65062	0.764
8.69172	0.723
8.73282	0.796
8.77391	0.847
8.81501	0.868
8.85611	0.871
8.8972	0.873
8.9383	0.87
8.9794	0.83
9.0205	0.811
9.06159	0.849
9.10269	0.854
9.14379	0.745
9.18488	0.651
9.22598	0.791
9.26708	0.852
9.30817	0.866
9.34927	0.882
9.39037	0.882
9.43147	0.888
9.47256	0.89
9.51366	0.892
9.55476	0.888
9.59585	0.882
9.63695	0.859
9.67805	0.803
9.71915	0.786
9.76024	0.841
9.80134	0.87
9.84244	0.882
9.88353	0.892
9.92463	0.895
9.96573	0.899
10.0068	0.899
10.0479	0.897
10.089	0.878
10.1301	0.849
10.1712	0.858
10.2123	0.878
10.2534	0.878
10.2945	0.876
10.3356	0.859
10.3767	0.823
10.4178	0.695
10.4589	0.661
10.5	0.769
10.5411	0.829
10.5822	0.846
10.6233	0.851
10.6644	0.854
10.7055	0.856
10.7466	0.851
10.7877	0.851
10.8288	0.839
10.8699	0.822
10.911	0.801
10.9521	0.777
10.9932	0.762
11.0343	0.76
11.0753	0.764
11.1164	0.789
11.1575	0.815
11.1986	0.837
11.2397	0.852
11.2808	0.864
11.3219	0.868
11.363	0.868
11.4041	0.858
11.4452	0.841
11.4863	0.805
11.5274	0.752
11.5685	0.659
11.6096	0.535
11.6507	0.447
11.6918	0.417
11.7329	0.466
11.774	0.55
11.8151	0.632
11.8562	0.705
11.8973	0.743
11.9384	0.769
11.9795	0.784
12.0206	0.784
12.0617	0.762
12.1028	0.719
12.1439	0.67
12.185	0.649
12.2261	0.651
12.2672	0.651
12.3083	0.625
12.3494	0.6
12.3905	0.598
12.4315	0.611
12.4726	0.664
12.5137	0.704
12.5548	0.736
12.5959	0.764
12.637	0.779
12.6781	0.788
12.7192	0.789
12.7603	0.769
12.8014	0.758
12.8425	0.77
12.8836	0.798
12.9247	0.806
12.9658	0.813
13.0069	0.817
13.048	0.823
13.0891	0.827
13.1302	0.829
13.1713	0.829
13.2124	0.829
13.2535	0.829
13.2946	0.829
13.3357	0.823
13.3768	0.822
13.4179	0.82
13.459	0.815
13.5001	0.805
13.5412	0.796
13.5823	0.782
13.6234	0.762
13.6645	0.752
13.7056	0.752
13.7467	0.755
13.7878	0.758
13.8288	0.758
13.8699	0.758
13.911	0.762
13.9521	0.77
13.9932	0.776
14.0343	0.779
14.0754	0.779
14.1165	0.779
14.1576	0.779
14.1987	0.777
14.2398	0.774
14.2809	0.767
14.322	0.764
14.3631	0.758
14.4042	0.753
14.4453	0.748
14.4864	0.74
14.5275	0.736
14.5686	0.731
14.6097	0.723
14.6508	0.717
14.6919	0.712
14.733	0.707
14.7741	0.7
14.8152	0.69
14.8563	0.682
14.8974	0.678
14.9385	0.671
14.9796	0.666
15.0207	0.659
15.0618	0.651
15.1029	0.642
15.144	0.637
15.1851	0.629
15.2261	0.618
15.2672	0.617
15.3083	0.606
15.3494	0.601
15.3905	0.589
15.4316	0.589
15.4727	0.586
15.5138	0.57
15.5549	0.56
15.596	0.557
15.6371	0.543
15.6782	0.538
15.7193	0.528
15.7604	0.521
15.8015	0.517
15.8426	0.517
15.8837	0.514
