Infrared Spectrum: PYRIDINE, 2,6-DIAMINO-4-[(DIPHENYLMETHYL)AMINO]-3-NITRO-
Formula: C18 H17 N5 O2
State: SOLID (1 mg / 650 mg KBr DISC)
Class: COBLENTZ III
Instrument: PERKIN-ELMER 521 (GRATING)
Instrument parameters: FILTER CHANGE AT 3150, 2500, 2000, 1150, 700, 410 CM^-^1, GRATING CHANGES AT 2000, 630 CM^-^1
Sampling: TRANSMISSION
Resolution: 4
Origin: SOUTHERN RESEARCH INSTITUTE
1/CM	TRANSMITTANCE
242.625	0.227
251.688	0.244
260.75	0.305
269.812	0.368
278.875	0.438
287.938	0.491
297	0.541
306.062	0.571
315.125	0.593
324.188	0.615
333.25	0.635
342.312	0.647
351.375	0.642
360.438	0.625
369.5	0.586
378.562	0.563
387.625	0.584
396.688	0.602
405.75	0.67
414.812	0.715
423.875	0.729
432.938	0.73
442	0.723
451.062	0.724
460.125	0.73
469.188	0.746
478.25	0.761
487.312	0.78
496.375	0.78
505.438	0.775
514.5	0.751
523.562	0.741
532.625	0.774
541.688	0.77
550.75	0.755
559.812	0.719
568.875	0.731
577.938	0.718
587	0.701
596.062	0.647
605.125	0.72
614.188	0.751
623.25	0.78
632.312	0.782
641.375	0.773
650.438	0.756
659.5	0.771
668.562	0.821
677.625	0.824
686.688	0.731
695.75	0.631
704.812	0.731
713.875	0.854
722.938	0.86
732	0.767
741.062	0.655
750.125	0.805
759.188	0.791
768.25	0.767
777.312	0.737
786.375	0.65
795.438	0.836
804.5	0.853
813.562	0.851
822.625	0.85
831.688	0.848
840.75	0.855
849.812	0.857
858.875	0.855
867.938	0.852
877	0.854
886.062	0.853
895.125	0.849
904.188	0.839
913.25	0.831
922.312	0.833
931.375	0.835
940.438	0.83
949.5	0.824
958.562	0.809
967.625	0.78
976.688	0.741
985.75	0.701
994.812	0.693
1003.88	0.733
1012.94	0.765
1022	0.739
1031.06	0.751
1040.12	0.774
1049.19	0.771
1058.25	0.755
1067.31	0.735
1076.38	0.733
1085.44	0.692
1094.5	0.666
1103.56	0.654
1112.62	0.611
1121.69	0.582
1130.75	0.517
1139.81	0.535
1148.88	0.627
1157.94	0.666
1167	0.68
1176.06	0.689
1185.12	0.658
1194.19	0.71
1203.25	0.694
1212.31	0.659
1221.38	0.593
1230.44	0.498
1239.5	0.452
1248.56	0.463
1257.62	0.423
1266.69	0.377
1275.75	0.34
1284.81	0.451
1293.88	0.535
1302.94	0.445
1312	0.347
1321.06	0.509
1330.12	0.657
1339.19	0.651
1348.25	0.695
1357.31	0.757
1366.38	0.834
1375.44	0.856
1384.5	0.847
1393.56	0.838
1402.62	0.821
1411.69	0.765
1420.75	0.803
1429.81	0.802
1438.88	0.771
1447.94	0.684
1457	0.701
1466.06	0.715
1475.12	0.501
1484.19	0.394
1493.25	0.354
1502.31	0.46
1511.38	0.628
1520.44	0.7
1529.5	0.698
1538.56	0.566
1547.62	0.35
1556.69	0.298
1565.75	0.356
1574.81	0.193
1583.88	0.14
1592.94	0.177
1602	0.271
1611.06	0.476
1620.12	0.561
1629.19	0.643
1638.25	0.636
1647.31	0.425
1656.38	0.713
1665.44	0.82
1674.5	0.87
1683.56	0.889
1692.62	0.904
1701.69	0.915
1710.75	0.919
1719.81	0.921
1728.88	0.925
1737.94	0.928
1747	0.929
1756.06	0.929
1765.12	0.929
1774.19	0.929
1783.25	0.928
1792.31	0.928
1801.38	0.929
1810.44	0.929
1819.5	0.93
1828.56	0.932
1837.62	0.932
1846.69	0.929
1855.75	0.928
1864.81	0.925
1873.88	0.922
1882.94	0.921
1892	0.919
1901.06	0.919
1910.12	0.918
1919.19	0.917
1928.25	0.916
1937.31	0.914
1946.38	0.912
1955.44	0.91
1964.5	0.912
1973.56	0.913
1982.62	0.915
1991.69	0.916
2000.75	0.913
2009.81	0.909
2018.88	0.906
2027.94	0.904
2037	0.902
2046.06	0.9
2055.12	0.899
2064.19	0.898
2073.25	0.897
2082.31	0.896
2091.38	0.895
2100.44	0.894
2109.5	0.893
2118.56	0.892
2127.62	0.891
2136.69	0.89
2145.75	0.888
2154.81	0.888
2163.88	0.887
2172.94	0.886
2182	0.886
2191.06	0.886
2200.12	0.885
2209.19	0.885
2218.25	0.883
2227.31	0.883
2236.38	0.882
2245.44	0.881
2254.5	0.879
2263.56	0.878
2272.62	0.877
2281.69	0.876
2290.75	0.874
2299.81	0.873
2308.88	0.871
2317.94	0.871
2327	0.87
2336.06	0.87
2345.12	0.87
2354.19	0.87
2363.25	0.87
2372.31	0.87
2381.38	0.87
2390.44	0.868
2399.5	0.868
2408.56	0.866
2417.62	0.864
2426.69	0.862
2435.75	0.861
2444.81	0.859
2453.88	0.859
2462.94	0.857
2472	0.855
2481.06	0.853
2490.12	0.852
2499.19	0.85
2508.25	0.85
2517.31	0.849
2526.38	0.848
2535.44	0.846
2544.5	0.845
2553.56	0.845
2562.62	0.844
2571.69	0.844
2580.75	0.844
2589.81	0.844
2598.88	0.843
2607.94	0.842
2617	0.842
2626.06	0.842
2635.12	0.841
2644.19	0.84
2653.25	0.839
2662.31	0.837
2671.38	0.834
2680.44	0.831
2689.5	0.829
2698.56	0.827
2707.62	0.825
2716.69	0.824
2725.75	0.824
2734.81	0.824
2743.88	0.823
2752.94	0.823
2762	0.822
2771.06	0.821
2780.12	0.818
2789.19	0.816
2798.25	0.812
2807.31	0.808
2816.38	0.803
2825.44	0.8
2834.5	0.798
2843.56	0.796
2852.62	0.795
2861.69	0.793
2870.75	0.792
2879.81	0.791
2888.88	0.79
2897.94	0.785
2907	0.779
2916.06	0.775
2925.12	0.775
2934.19	0.778
2943.25	0.779
2952.31	0.778
2961.38	0.775
2970.44	0.771
2979.5	0.767
2988.56	0.763
2997.62	0.75
3006.69	0.744
3015.75	0.714
3024.81	0.71
3033.88	0.719
3042.94	0.71
3052	0.692
3061.06	0.69
3070.12	0.692
3079.19	0.687
3088.25	0.681
3097.31	0.67
3106.38	0.657
3115.44	0.642
3124.5	0.631
3133.56	0.623
3142.62	0.618
3151.69	0.613
3160.75	0.607
3169.81	0.602
3178.88	0.594
3187.94	0.586
3197	0.592
3206.06	0.615
3215.12	0.64
3224.19	0.654
3233.25	0.66
3242.31	0.662
3251.38	0.657
3260.44	0.652
3269.5	0.644
3278.56	0.622
3287.62	0.591
3296.69	0.56
3305.75	0.532
3314.81	0.501
3323.88	0.433
3332.94	0.403
3342	0.429
3351.06	0.569
3360.12	0.595
3369.19	0.594
3378.25	0.576
3387.31	0.54
3396.38	0.559
3405.44	0.563
3414.5	0.561
3423.56	0.559
3432.62	0.554
3441.69	0.535
3450.75	0.5
3459.81	0.427
3468.88	0.473
3477.94	0.459
3487	0.55
3496.06	0.604
3505.12	0.634
3514.19	0.657
3523.25	0.673
3532.31	0.685
3541.38	0.695
3550.44	0.707
3559.5	0.713
3568.56	0.724
3577.62	0.735
3586.69	0.745
3595.75	0.754
3604.81	0.764
3613.88	0.773
3622.94	0.782
3632	0.789
3641.06	0.792
3650.12	0.796
3659.19	0.797
3668.25	0.795
3677.31	0.797
3686.38	0.799
3695.44	0.801
3704.5	0.802
3713.56	0.805
3722.62	0.805
3731.69	0.806
3740.75	0.805
3749.81	0.804
3758.88	0.803
3767.94	0.801
3777	0.799
3786.06	0.798
3795.12	0.797
3804.19	0.795
3813.25	0.794
