Infrared Spectrum: 3,4-DIHYDRO-3-PHENYL-6-(1,1,3,3-TETRAMETHYLBUTYL)-2H-1,3-BENZOXAZINE
Formula: C22 H29 N O
State: SOLUTION (10% CCl4 FOR 5000-1300, 10% CS2 FOR 1300-625 CM^-^1)
Class: COBLENTZ
Instrument: Not specified, most likely a prism, grating, or hybrid spectrometer.
Sampling: TRANSMISSION
Path length: 0.011 CM, 0.011 CM
Resolution: 4
Origin: DOW CHEMICAL COMPANY
MICROMETERS	TRANSMITTANCE
2.027	0.86
2.06764	0.862
2.10828	0.862
2.14892	0.859
2.18956	0.865
2.2302	0.86
2.27084	0.852
2.31148	0.852
2.35212	0.86
2.39276	0.862
2.4334	0.862
2.47404	0.87
2.51468	0.874
2.55532	0.874
2.59596	0.874
2.6366	0.879
2.67724	0.879
2.71788	0.879
2.75852	0.87
2.79916	0.862
2.8398	0.86
2.88044	0.848
2.92108	0.83
2.96172	0.828
3.00236	0.83
3.043	0.823
3.08364	0.82
3.12428	0.82
3.16492	0.825
3.20556	0.8
3.2462	0.723
3.28684	0.63
3.32748	0.515
3.36812	0.162
3.40876	0.261
3.4494	0.273
3.49004	0.479
3.53068	0.711
3.57132	0.781
3.61196	0.81
3.6526	0.835
3.69324	0.864
3.73388	0.869
3.77451	0.872
3.81515	0.875
3.85579	0.877
3.89643	0.882
3.93707	0.89
3.97771	0.894
4.01835	0.894
4.05899	0.895
4.09963	0.901
4.14027	0.901
4.18091	0.897
4.22155	0.892
4.26219	0.889
4.30283	0.884
4.34347	0.887
4.38411	0.894
4.42475	0.902
4.46539	0.911
4.50603	0.914
4.54667	0.914
4.58731	0.916
4.62795	0.919
4.66859	0.919
4.70923	0.919
4.74987	0.917
4.79051	0.917
4.83115	0.911
4.87179	0.916
4.91243	0.916
4.95307	0.911
4.99371	0.907
5.03435	0.904
5.07499	0.909
5.11563	0.899
5.15627	0.885
5.19691	0.879
5.23755	0.889
5.27819	0.88
5.31883	0.875
5.35947	0.887
5.40011	0.887
5.44075	0.892
5.48139	0.901
5.52203	0.902
5.56267	0.899
5.60331	0.892
5.64395	0.882
5.68459	0.882
5.72523	0.879
5.76587	0.884
5.80651	0.889
5.84715	0.879
5.88779	0.874
5.92843	0.874
5.96907	0.869
6.00971	0.862
6.05035	0.847
6.09099	0.82
6.13163	0.748
6.17227	0.553
6.21291	0.271
6.25355	0.367
6.29419	0.417
6.33483	0.518
6.37547	0.511
6.41611	0.459
6.45675	0.461
6.49739	0.533
6.53803	0.531
6.57867	0.451
6.61931	0.187
6.65995	0.043
6.70059	0.241
6.74123	0.369
6.78187	0.39
6.82251	0.439
6.86315	0.489
6.90379	0.615
6.94443	0.696
6.98507	0.671
7.02571	0.604
7.06635	0.624
7.10699	0.612
7.14763	0.491
7.18827	0.431
7.22891	0.444
7.26954	0.377
7.31018	0.298
7.35082	0.661
7.39146	0.692
7.4321	0.687
7.47274	0.612
7.51338	0.535
7.55402	0.666
7.59466	0.728
7.6353	0.672
7.67594	0.699
7.71658	0.743
7.75722	0.766
7.79786	0.729
7.8385	0.622
7.87914	0.521
7.91978	0.395
7.96042	0.218
8.00106	0.137
8.0417	0.164
8.08234	0.062
8.12298	0.241
8.16362	0.429
8.20426	0.417
8.2449	0.35
8.28554	0.327
8.32618	0.362
8.36682	0.478
8.40746	0.531
8.4481	0.53
8.48874	0.481
8.52938	0.498
8.57002	0.536
8.61066	0.53
8.6513	0.52
8.69194	0.598
8.73258	0.691
8.77322	0.699
8.81386	0.605
8.8545	0.498
8.89514	0.451
8.93578	0.531
8.97642	0.667
9.01706	0.744
9.0577	0.731
9.09834	0.669
9.13898	0.699
9.17962	0.687
9.22026	0.659
9.2609	0.669
9.30154	0.714
9.34218	0.768
9.38282	0.788
9.42346	0.798
9.4641	0.783
9.50474	0.753
9.54538	0.719
9.58602	0.666
9.62666	0.588
9.6673	0.489
9.70794	0.489
9.74858	0.629
9.78922	0.686
9.82986	0.719
9.8705	0.744
9.91114	0.743
9.95178	0.689
9.99242	0.605
10.0331	0.619
10.0737	0.629
10.1143	0.578
10.155	0.557
10.1956	0.501
10.2363	0.379
10.2769	0.271
10.3175	0.338
10.3582	0.374
10.3988	0.255
10.4395	0.119
10.4801	0.063
10.5207	0.088
10.5614	0.166
10.602	0.263
10.6427	0.352
10.6833	0.489
10.7239	0.61
10.7646	0.642
10.8052	0.604
10.8459	0.577
10.8865	0.602
10.9271	0.687
10.9678	0.76
11.0084	0.78
11.0491	0.778
11.0897	0.738
11.1303	0.654
11.171	0.588
11.2116	0.578
11.2523	0.62
11.2929	0.639
11.3335	0.61
11.3742	0.568
11.4148	0.568
11.4555	0.609
11.4961	0.624
11.5367	0.629
11.5774	0.652
11.618	0.659
11.6587	0.659
11.6993	0.664
11.7399	0.677
11.7806	0.696
11.8212	0.716
11.8619	0.738
11.9025	0.75
11.9431	0.744
11.9838	0.731
12.0244	0.659
12.0651	0.53
12.1057	0.404
12.1463	0.201
12.187	0.162
12.2276	0.416
12.2683	0.629
12.3089	0.699
12.3495	0.728
12.3902	0.75
12.4308	0.755
12.4715	0.751
12.5121	0.739
12.5527	0.699
12.5934	0.63
12.634	0.609
12.6746	0.669
12.7153	0.721
12.7559	0.75
12.7966	0.755
12.8372	0.756
12.8778	0.753
12.9185	0.738
12.9591	0.709
12.9998	0.664
13.0404	0.607
13.081	0.511
13.1217	0.412
13.1623	0.275
13.203	0.181
13.2436	0.174
13.2842	0.209
13.3249	0.25
13.3655	0.347
13.4062	0.489
13.4468	0.59
13.4874	0.657
13.5281	0.697
13.5687	0.709
13.6094	0.701
13.65	0.649
13.6906	0.598
13.7313	0.627
13.7719	0.679
13.8126	0.701
13.8532	0.703
13.8938	0.694
13.9345	0.681
13.9751	0.664
14.0158	0.64
14.0564	0.617
14.097	0.598
14.1377	0.577
14.1783	0.558
14.219	0.521
14.2596	0.478
14.3002	0.394
14.3409	0.3
14.3815	0.226
14.4222	0.209
14.4628	0.258
14.5034	0.35
14.5441	0.451
14.5847	0.523
14.6254	0.558
14.666	0.578
14.7066	0.585
14.7473	0.588
14.7879	0.588
14.8286	0.585
14.8692	0.582
14.9098	0.573
14.9505	0.572
14.9911	0.568
15.0318	0.56
15.0724	0.546
15.113	0.528
15.1537	0.51
15.1943	0.496
15.235	0.476
15.2756	0.468
15.3162	0.468
15.3569	0.473
15.3975	0.479
15.4382	0.479
15.4788	0.481
15.5194	0.478
15.5601	0.473
15.6007	0.466
15.6414	0.463
15.682	0.461
15.7226	0.458
15.7633	0.451
15.8039	0.446
15.8446	0.442
15.8852	0.447
15.9258	0.458
15.9665	0.463
