Infrared Spectrum: SACCHARIN, SOLUBLE
Formula: C7 H4 N Na O3 S  * 2 H2 O
State: SOLID (SPLIT MULL)
Class: COBLENTZ III
Instrument: BECKMAN IR-9 (GRATING)
Instrument parameters: ORDER CHANGES: 670, 1200, 2000 CM^-^1
Sampling: TRANSMISSION
Resolution: 2
Origin: DOW CHEMICAL COMPANY
1/CM	TRANSMITTANCE
3800	0.6761
3791	0.6778
3782	0.6796
3773	0.6807
3764	0.6815
3755	0.6825
3746	0.6836
3737	0.685
3728	0.6871
3719	0.6892
3710	0.6911
3701	0.6939
3692	0.6974
3683	0.7008
3674	0.7037
3665	0.7062
3656	0.7086
3647	0.7101
3638	0.7111
3629	0.7112
3620	0.7108
3611	0.7101
3602	0.7087
3593	0.7031
3584	0.6919
3575	0.6895
3566	0.6818
3557	0.6655
3548	0.6071
3539	0.4602
3530	0.4214
3521	0.5243
3512	0.6021
3503	0.6116
3494	0.6124
3485	0.611
3476	0.6068
3467	0.6
3458	0.5906
3449	0.5786
3440	0.5654
3431	0.5495
3422	0.5315
3413	0.5123
3404	0.4932
3395	0.4752
3386	0.4601
3377	0.4462
3368	0.4336
3359	0.4221
3350	0.4131
3341	0.4105
3332	0.4115
3323	0.4149
3314	0.4185
3305	0.421
3296	0.4224
3287	0.4188
3278	0.4162
3269	0.4159
3260	0.4189
3251	0.4273
3242	0.458
3233	0.4773
3224	0.4981
3215	0.5262
3206	0.5427
3197	0.5566
3188	0.5701
3179	0.5823
3170	0.5958
3161	0.6093
3152	0.6204
3143	0.6309
3134	0.6365
3125	0.6397
3116	0.639
3107	0.6218
3098	0.6045
3089	0.635
3080	0.6425
3071	0.6264
3062	0.6173
3053	0.6622
3044	0.6682
3035	0.6701
3026	0.6791
3017	0.681
3008	0.6932
2999	0.7086
2990	0.7085
2981	0.7072
2972	0.7053
2963	0.7043
2954	0.7032
2945	0.6955
2936	0.6885
2927	0.6895
2918	0.7007
2909	0.7148
2900	0.7275
2891	0.7337
2882	0.733
2873	0.7319
2864	0.7318
2855	0.7397
2846	0.7511
2837	0.7601
2828	0.7636
2819	0.7658
2810	0.7689
2801	0.7724
2792	0.7758
2783	0.7783
2774	0.781
2765	0.7821
2756	0.7832
2747	0.7843
2738	0.7857
2729	0.7865
2720	0.7875
2711	0.7892
2702	0.7912
2693	0.7933
2684	0.795
2675	0.7962
2666	0.7975
2657	0.7989
2648	0.8001
2639	0.8012
2630	0.8028
2621	0.8047
2612	0.8064
2603	0.8082
2594	0.8099
2585	0.8115
2576	0.8128
2567	0.8139
2558	0.8149
2549	0.8158
2540	0.8161
2531	0.8165
2522	0.8168
2513	0.8165
2504	0.8154
2495	0.8148
2486	0.8158
2477	0.8183
2468	0.8186
2459	0.8184
2450	0.8182
2441	0.8178
2432	0.8132
2423	0.8105
2414	0.8104
2405	0.8105
2396	0.811
2387	0.8148
2378	0.8202
2369	0.8211
2360	0.8213
2351	0.8208
2342	0.8203
2333	0.8195
2324	0.8186
2315	0.8175
2306	0.8167
2297	0.8158
2288	0.8155
2279	0.8153
2270	0.8151
2261	0.8147
2252	0.8144
2243	0.8161
2234	0.8208
2225	0.8266
2216	0.8316
2207	0.8338
2198	0.8362
2189	0.8395
2180	0.8428
2171	0.8466
2162	0.8505
2153	0.8542
2144	0.8574
2135	0.8604
2126	0.8633
2117	0.8661
2108	0.8689
2099	0.8716
2090	0.8742
2081	0.8767
2072	0.8788
2063	0.8805
2054	0.8825
2045	0.8834
2036	0.8844
2027	0.8853
2018	0.8853
2009	0.8847
2000	0.8767
1991	0.8778
1982	0.879
1973	0.879
1964	0.8801
1955	0.8725
1946	0.872
1937	0.8683
1928	0.8768
1919	0.8832
1910	0.8845
1901	0.8846
1892	0.8845
1883	0.8845
1874	0.8841
1865	0.8828
1856	0.8815
1847	0.8835
1838	0.8825
1829	0.8827
1820	0.8895
1811	0.8941
1802	0.8955
1793	0.8952
1784	0.8943
1775	0.8925
1766	0.8887
1757	0.8804
1748	0.8775
1739	0.8771
1730	0.8761
1721	0.8714
1712	0.8517
1703	0.8095
1694	0.6912
1685	0.6058
1676	0.4208
1667	0.3462
1658	0.2293
1649	0.0467
1640	0.2738
1631	0.3155
1622	0.629
1613	0.7387
1604	0.7651
1595	0.509
1586	0.4145
1577	0.7421
1568	0.7891
1559	0.8082
1550	0.8134
1541	0.8344
1532	0.8416
1523	0.8412
1514	0.8402
1505	0.8449
1496	0.8486
1487	0.8492
1478	0.8443
1469	0.8144
1460	0.4971
1451	0.7751
1442	0.8277
1433	0.8303
1424	0.8228
1415	0.8155
1406	0.819
1397	0.8193
1388	0.8168
1379	0.8115
1370	0.7965
1361	0.7185
1352	0.6456
1343	0.5394
1334	0.4312
1325	0.6724
1316	0.7391
1307	0.6714
1298	0.327
1289	0.3149
1280	0.566
1271	0.2852
1262	0.0232
1253	0.0547
1244	0.4105
1235	0.5724
1226	0.6697
1217	0.6801
1208	0.7075
1199	0.7138
1190	0.6999
1181	0.6217
1172	0.5343
1163	0.2173
1154	0.0247
1145	0.0336
1136	0.298
1127	0.1984
1118	0.2085
1109	0.5428
1100	0.556
1091	0.6227
1082	0.6741
1073	0.7061
1064	0.7022
1055	0.4566
1046	0.7371
1037	0.7878
1028	0.7899
1019	0.7947
1010	0.8017
1001	0.8021
992	0.7868
983	0.6174
974	0.2244
965	0.5683
956	0.535
947	0.6844
938	0.8057
929	0.8343
920	0.8449
911	0.8468
902	0.8461
893	0.8459
884	0.834
875	0.8516
866	0.856
857	0.8532
848	0.8505
839	0.8457
830	0.84
821	0.8337
812	0.8233
803	0.8065
794	0.6928
785	0.7058
776	0.4257
767	0.7393
758	0.5933
749	0.139
740	0.6456
731	0.5923
722	0.5738
713	0.5606
704	0.5942
695	0.7096
686	0.6755
677	0.4962
668	0.7772
659	0.7918
650	0.7861
641	0.6987
632	0.7028
623	0.5152
614	0.3878
605	0.6418
596	0.6329
587	0.588
578	0.5984
569	0.5958
560	0.5874
551	0.5106
542	0.4962
533	0.334
524	0.5712
515	0.6821
506	0.7072
497	0.7243
488	0.7264
479	0.7255
470	0.7178
461	0.7162
452	0.7131
443	0.6965
434	0.6711
425	0.5972
416	0.4497
407	0.4197
