Infrared Spectrum: CALCIUM PANTOTHENATE DEXTRO
Formula: C18 H32 Ca N2 O10
State: SOLID (0.9 mg / 200 mg KBr DISC)
Melting point: 195-196 C DECOMPOSE
Class: COBLENTZ III
Instrument: PERKIN-ELMER 21 (GRATING)
Instrument parameters: FILTER AT ABOUT 10 MICRONS
Sampling: TRANSMISSION
Resolution: 2
1/CM	TRANSMITTANCE
4000	0.7489
3991	0.7482
3982	0.7475
3973	0.7469
3964	0.7462
3955	0.7457
3946	0.745
3937	0.7443
3928	0.7436
3919	0.7428
3910	0.7421
3901	0.7414
3892	0.7407
3883	0.7399
3874	0.7392
3865	0.7384
3856	0.7375
3847	0.7365
3838	0.7351
3829	0.7335
3820	0.7319
3811	0.7306
3802	0.729
3793	0.7274
3784	0.7257
3775	0.7236
3766	0.7212
3757	0.7189
3748	0.7165
3739	0.7143
3730	0.7111
3721	0.7071
3712	0.7033
3703	0.6992
3694	0.6939
3685	0.6867
3676	0.6795
3667	0.6722
3658	0.6606
3649	0.6445
3640	0.6331
3631	0.6227
3622	0.6117
3613	0.5968
3604	0.581
3595	0.5665
3586	0.552
3577	0.5366
3568	0.5168
3559	0.4903
3550	0.4735
3541	0.4625
3532	0.4529
3523	0.4419
3514	0.426
3505	0.411
3496	0.398
3487	0.385
3478	0.3726
3469	0.36
3460	0.3476
3451	0.3309
3442	0.3203
3433	0.3116
3424	0.3015
3415	0.2896
3406	0.2767
3397	0.2691
3388	0.2599
3379	0.2571
3370	0.2561
3361	0.2565
3352	0.2581
3343	0.2612
3334	0.2644
3325	0.2677
3316	0.2709
3307	0.2743
3298	0.2792
3289	0.2852
3280	0.291
3271	0.2967
3262	0.3024
3253	0.3088
3244	0.317
3235	0.3254
3226	0.335
3217	0.345
3208	0.3568
3199	0.368
3190	0.3787
3181	0.3896
3172	0.4018
3163	0.4144
3154	0.4272
3145	0.4364
3136	0.4448
3127	0.4532
3118	0.461
3109	0.4689
3100	0.4812
3091	0.4934
3082	0.5044
3073	0.5154
3064	0.5262
3055	0.5373
3046	0.5483
3037	0.5568
3028	0.5609
3019	0.5624
3010	0.5622
3001	0.5575
2992	0.5257
2983	0.48
2974	0.4626
2965	0.4562
2956	0.454
2947	0.4539
2938	0.4583
2929	0.4665
2920	0.4827
2911	0.4967
2902	0.5083
2893	0.5137
2884	0.5154
2875	0.5166
2866	0.5266
2857	0.5579
2848	0.5712
2839	0.5848
2830	0.599
2821	0.6134
2812	0.6266
2803	0.6421
2794	0.6551
2785	0.6686
2776	0.6785
2767	0.6841
2758	0.688
2749	0.6899
2740	0.6914
2731	0.6934
2722	0.6976
2713	0.7018
2704	0.7064
2695	0.7115
2686	0.7167
2677	0.7219
2668	0.7281
2659	0.7347
2650	0.7422
2641	0.7508
2632	0.7575
2623	0.7594
2614	0.7612
2605	0.764
2596	0.768
2587	0.7718
2578	0.776
2569	0.7801
2560	0.7844
2551	0.7881
2542	0.7917
2533	0.7954
2524	0.7991
2515	0.8028
2506	0.8061
2497	0.8084
2488	0.8099
2479	0.8108
2470	0.8118
2461	0.8126
2452	0.8135
2443	0.8148
2434	0.8171
2425	0.8197
2416	0.822
2407	0.8241
2398	0.826
2389	0.8271
2380	0.8282
2371	0.8283
2362	0.8277
2353	0.8253
2344	0.8189
2335	0.8158
2326	0.8145
2317	0.8144
2308	0.8161
2299	0.8183
2290	0.8204
2281	0.8227
2272	0.8244
2263	0.8255
2254	0.8261
2245	0.8259
2236	0.8246
2227	0.8221
2218	0.8206
2209	0.8201
2200	0.8204
2191	0.8203
2182	0.8193
2173	0.8183
2164	0.8171
2155	0.8158
2146	0.8147
2137	0.8136
2128	0.8132
2119	0.8128
2110	0.8122
2101	0.8118
2092	0.8111
2083	0.8106
2074	0.8101
2065	0.8093
2056	0.8084
2047	0.8074
2038	0.8065
2029	0.8055
2020	0.8044
2011	0.8032
2002	0.8025
1993	0.8017
1984	0.8006
1975	0.7986
1966	0.7964
1957	0.7939
1948	0.7914
1939	0.7887
1930	0.7857
1921	0.7825
1912	0.7792
1903	0.7756
1894	0.7719
1885	0.7674
1876	0.7626
1867	0.7578
1858	0.7535
1849	0.7492
1840	0.7449
1831	0.7387
1822	0.7321
1813	0.7248
1804	0.7165
1795	0.7076
1786	0.6986
1777	0.6878
1768	0.6764
1759	0.6615
1750	0.6436
1741	0.626
1732	0.609
1723	0.5903
1714	0.5645
1705	0.523
1696	0.466
1687	0.3971
1678	0.3396
1669	0.2563
1660	0.2012
1651	0.1837
1642	0.1984
1633	0.2489
1624	0.2878
1615	0.2751
1606	0.2178
1597	0.1865
1588	0.1734
1579	0.1629
1570	0.1542
1561	0.1518
1552	0.162
1543	0.2012
1534	0.2622
1525	0.3455
1516	0.4188
1507	0.4976
1498	0.5543
1489	0.5532
1480	0.4532
1471	0.3887
1462	0.344
1453	0.3079
1444	0.2889
1435	0.2941
1426	0.3002
1417	0.2908
1408	0.2964
1399	0.3364
1390	0.4368
1381	0.4836
1372	0.4739
1363	0.4646
1354	0.5234
1345	0.5858
1336	0.5914
1327	0.5301
1318	0.4896
1309	0.4808
1300	0.5105
1291	0.5355
1282	0.5378
1273	0.525
1264	0.5156
1255	0.52
1246	0.5604
1237	0.6146
1228	0.6419
1219	0.6512
1210	0.6331
1201	0.6208
1192	0.6334
1183	0.6648
1174	0.693
1165	0.7207
1156	0.7294
1147	0.7253
1138	0.7426
1129	0.7578
1120	0.74
1111	0.666
1102	0.58
1093	0.4867
1084	0.4545
1075	0.4529
1066	0.477
1057	0.451
1048	0.4042
1039	0.4106
1030	0.4898
1021	0.5508
1012	0.6128
1003	0.6781
994	0.6898
985	0.6681
976	0.7311
967	0.7601
958	0.7556
949	0.7246
940	0.7448
931	0.7806
922	0.7701
913	0.73
904	0.7307
895	0.7108
886	0.6744
877	0.731
868	0.7497
859	0.7434
850	0.7364
841	0.7293
832	0.7175
823	0.7015
814	0.6848
805	0.6693
796	0.6758
787	0.6683
778	0.6538
769	0.6358
760	0.6218
751	0.6087
742	0.6046
733	0.5986
724	0.5959
715	0.5886
706	0.5796
697	0.5732
688	0.5673
679	0.5615
670	0.5559
661	0.537
652	0.5428
