Infrared Spectrum: N-METHYL-Beta-CARBOHYDRAZIDOPYRIDINIUM-P-TOLUENE SULFONATE
Formula: C14 H17 N3 O4 S
State: SOLID (MINERAL OIL MULL)
Class: COBLENTZ
Instrument: Not specified, most likely a prism, grating, or hybrid spectrometer.
Sampling: TRANSMISSION
Resolution: 4
Origin: DOW CHEMICAL COMPANY
MICROMETERS	TRANSMITTANCE
2.02	0.348
2.06031	0.358
2.10062	0.365
2.14092	0.373
2.18123	0.38
2.22154	0.388
2.26185	0.395
2.30216	0.397
2.34246	0.409
2.38277	0.42
2.42308	0.43
2.46339	0.442
2.5037	0.454
2.544	0.46
2.58431	0.479
2.62462	0.485
2.66493	0.489
2.70523	0.495
2.74554	0.494
2.78585	0.392
2.82616	0.317
2.86647	0.385
2.90677	0.429
2.94708	0.499
2.98739	0.393
3.0277	0.258
3.06801	0.228
3.10831	0.322
3.14862	0.367
3.18893	0.398
3.22924	0.4
3.26955	0.298
3.30985	0.252
3.35016	0.145
3.39047	0.011
3.43078	0.036
3.47109	0.068
3.51139	0.245
3.5517	0.519
3.59201	0.57
3.63232	0.579
3.67263	0.584
3.71293	0.589
3.75324	0.597
3.79355	0.612
3.83386	0.622
3.87416	0.631
3.91447	0.642
3.95478	0.659
3.99509	0.667
4.0354	0.677
4.0757	0.681
4.11601	0.687
4.15632	0.692
4.19663	0.699
4.23694	0.702
4.27724	0.706
4.31755	0.714
4.35786	0.721
4.39817	0.724
4.43848	0.727
4.47878	0.727
4.51909	0.729
4.5594	0.732
4.59971	0.739
4.64002	0.742
4.68032	0.746
4.72063	0.746
4.76094	0.749
4.80125	0.766
4.84156	0.767
4.88186	0.769
4.92217	0.776
4.96248	0.777
5.00279	0.779
5.04309	0.779
5.0834	0.787
5.12371	0.789
5.16402	0.781
5.20433	0.779
5.24463	0.799
5.28494	0.808
5.32525	0.813
5.36556	0.821
5.40587	0.823
5.44617	0.823
5.48648	0.824
5.52679	0.828
5.5671	0.829
5.60741	0.831
5.64771	0.834
5.68802	0.841
5.72833	0.841
5.76864	0.838
5.80895	0.819
5.84925	0.804
5.88956	0.744
5.92987	0.58
5.97018	0.27
6.01049	0.21
6.05079	0.395
6.0911	0.41
6.13141	0.328
6.17172	0.34
6.21202	0.489
6.25233	0.515
6.29264	0.545
6.33295	0.634
6.37326	0.671
6.41356	0.59
6.45387	0.499
6.49418	0.44
6.53449	0.467
6.5748	0.499
6.6151	0.479
6.65541	0.4
6.69572	0.444
6.73603	0.49
6.77634	0.318
6.81664	0.225
6.85695	0.27
6.89726	0.378
6.93757	0.532
6.97788	0.595
7.01818	0.637
7.05849	0.662
7.0988	0.657
7.13911	0.644
7.17942	0.549
7.21972	0.405
7.26003	0.435
7.30034	0.53
7.34065	0.567
7.38095	0.542
7.42126	0.54
7.46157	0.577
7.50188	0.577
7.54219	0.579
7.58249	0.585
7.6228	0.562
7.66311	0.552
7.70342	0.542
7.74373	0.542
7.78403	0.574
7.82434	0.609
7.86465	0.634
7.90496	0.646
7.94527	0.647
7.98557	0.631
8.02588	0.535
8.06619	0.387
8.1065	0.212
8.14681	0.143
8.18711	0.186
8.22742	0.272
8.26773	0.328
8.30804	0.357
8.34835	0.307
8.38865	0.227
8.42896	0.146
8.46927	0.13
8.50958	0.15
8.54988	0.181
8.59019	0.237
8.6305	0.372
8.67081	0.457
8.71112	0.522
8.75142	0.549
8.79173	0.56
8.83204	0.515
8.87235	0.424
8.91266	0.268
8.95296	0.2
8.99327	0.315
9.03358	0.429
9.07389	0.519
9.1142	0.577
9.1545	0.612
9.19481	0.626
9.23512	0.639
9.27543	0.659
9.31574	0.679
9.35604	0.701
9.39635	0.712
9.43666	0.722
9.47697	0.736
9.51728	0.742
9.55758	0.732
9.59789	0.589
9.6382	0.338
9.67851	0.212
9.71881	0.362
9.75912	0.599
9.79943	0.677
9.83974	0.651
9.88005	0.414
9.92035	0.305
9.96066	0.534
10.001	0.617
10.0413	0.659
10.0816	0.672
10.1219	0.671
10.1622	0.649
10.2025	0.609
10.2428	0.554
10.2831	0.497
10.3234	0.445
10.3637	0.424
10.404	0.432
10.4444	0.467
10.4847	0.53
10.525	0.597
10.5653	0.642
10.6056	0.676
10.6459	0.704
10.6862	0.721
10.7265	0.734
10.7668	0.744
10.8071	0.757
10.8474	0.761
10.8877	0.761
10.9281	0.762
10.9684	0.762
11.0087	0.761
11.049	0.754
11.0893	0.744
11.1296	0.731
11.1699	0.731
11.2102	0.734
11.2505	0.749
11.2908	0.771
11.3311	0.779
11.3714	0.787
11.4117	0.794
11.4521	0.799
11.4924	0.801
11.5327	0.801
11.573	0.803
11.6133	0.804
11.6536	0.804
11.6939	0.799
11.7342	0.776
11.7745	0.749
11.8148	0.724
11.8551	0.714
11.8954	0.707
11.9358	0.696
11.9761	0.672
12.0164	0.642
12.0567	0.589
12.097	0.499
12.1373	0.439
12.1776	0.547
12.2179	0.644
12.2582	0.706
12.2985	0.772
12.3388	0.797
12.3791	0.814
12.4194	0.819
12.4598	0.806
12.5001	0.772
12.5404	0.781
12.5807	0.813
12.621	0.826
12.6613	0.831
12.7016	0.833
12.7419	0.833
12.7822	0.833
12.8225	0.833
12.8628	0.831
12.9031	0.823
12.9434	0.823
12.9838	0.823
13.0241	0.823
13.0644	0.823
13.1047	0.823
13.145	0.818
13.1853	0.813
13.2256	0.808
13.2659	0.801
13.3062	0.797
13.3465	0.792
13.3868	0.789
13.4271	0.781
13.4675	0.774
13.5078	0.766
13.5481	0.757
13.5884	0.749
13.6287	0.741
13.669	0.731
13.7093	0.719
13.7496	0.711
13.7899	0.699
13.8302	0.687
13.8705	0.681
13.9108	0.681
13.9511	0.677
13.9915	0.662
14.0318	0.637
14.0721	0.617
14.1124	0.599
14.1527	0.574
14.193	0.539
14.2333	0.492
14.2736	0.43
14.3139	0.357
14.3542	0.285
14.3945	0.245
14.4348	0.218
14.4752	0.217
14.5155	0.24
14.5558	0.26
14.5961	0.257
14.6364	0.223
14.6767	0.173
14.717	0.141
14.7573	0.138
14.7976	0.175
14.8379	0.243
14.8782	0.312
14.9185	0.355
14.9588	0.414
14.9992	0.465
15.0395	0.499
15.0798	0.509
15.1201	0.515
15.1604	0.517
15.2007	0.515
15.241	0.51
15.2813	0.504
15.3216	0.499
15.3619	0.49
15.4022	0.487
15.4425	0.487
15.4828	0.487
15.5232	0.487
15.5635	0.489
15.6038	0.492
15.6441	0.495
15.6844	0.499
15.7247	0.5
15.765	0.502
15.8053	0.504
15.8456	0.505
15.8859	0.507
