Infrared Spectrum: Pentanamine, 1,1-2,2-3,3-4,4-octamethyl-, hydrochloride
Formula: C13 H30 Cl N
State: LIQUID (NEAT)
Class: COBLENTZ III
Instrument: Not specified, most likely a prism, grating, or hybrid spectrometer.
Sampling: TRANSMISSION
Path length: CAPILLARY
Resolution: 2
Origin: BRITISH PETROLEUM CO. LTD., ENGLAND
1/CM	TRANSMITTANCE
667	0.7035
676	0.704
685	0.6942
694	0.6811
703	0.6618
712	0.6395
721	0.6067
730	0.5643
739	0.5584
748	0.5925
757	0.6013
766	0.5849
775	0.5491
784	0.5433
793	0.5944
802	0.6382
811	0.6393
820	0.6315
829	0.6261
838	0.6223
847	0.6118
856	0.5993
865	0.5931
874	0.5794
883	0.5639
892	0.5412
901	0.5392
910	0.5329
919	0.5084
928	0.511
937	0.5155
946	0.5156
955	0.4939
964	0.4705
973	0.4796
982	0.5004
991	0.5145
1000	0.4928
1009	0.4685
1018	0.4911
1027	0.5004
1036	0.5103
1045	0.5153
1054	0.5016
1063	0.5027
1072	0.5279
1081	0.5421
1090	0.5416
1099	0.52
1108	0.4735
1117	0.4658
1126	0.4749
1135	0.494
1144	0.4637
1153	0.3505
1162	0.2792
1171	0.2451
1180	0.3061
1189	0.402
1198	0.4484
1207	0.4341
1216	0.4086
1225	0.4044
1234	0.4098
1243	0.4102
1252	0.3987
1261	0.3889
1270	0.3903
1279	0.3966
1288	0.401
1297	0.393
1306	0.3871
1315	0.3894
1324	0.3857
1333	0.3762
1342	0.3662
1351	0.344
1360	0.2804
1369	0.1619
1378	0.0725
1387	0.0489
1396	0.0972
1405	0.2671
1414	0.3982
1423	0.3751
1432	0.2944
1441	0.1842
1450	0.097
1459	0.0341
1468	0.0305
1477	0.1156
1486	0.2019
1495	0.1858
1504	0.1068
1513	0.0369
1522	0.0366
1531	0.072
1540	0.2369
1549	0.3714
1558	0.4117
1567	0.4141
1576	0.4044
1585	0.3572
1594	0.27
1603	0.1838
1612	0.1281
1621	0.0507
1630	0.1989
1639	0.4102
1648	0.5126
1657	0.521
1666	0.5514
1675	0.5602
1684	0.593
1693	0.5997
1702	0.6086
1711	0.6218
1720	0.6299
1729	0.6424
1738	0.6444
1747	0.6449
1756	0.6498
1765	0.6577
1774	0.6589
1783	0.66
1792	0.6611
1801	0.6617
1810	0.662
1819	0.6612
1828	0.6603
1837	0.6591
1846	0.6569
1855	0.6534
1864	0.648
1873	0.6444
1882	0.6431
1891	0.6406
1900	0.6293
1909	0.6184
1918	0.6081
1927	0.5973
1936	0.5928
1945	0.5807
1954	0.5659
1963	0.5585
1972	0.5492
1981	0.5266
1990	0.4907
1999	0.4682
2008	0.4489
2017	0.4282
2026	0.4038
2035	0.379
2044	0.3586
2053	0.3521
2062	0.362
2071	0.3804
2080	0.4115
2089	0.4425
2098	0.4732
2107	0.5047
2116	0.5467
2125	0.5711
2134	0.5928
2143	0.6088
2152	0.618
2161	0.6245
2170	0.6265
2179	0.6278
2188	0.6344
2197	0.6354
2206	0.6355
2215	0.6354
2224	0.6354
2233	0.6368
2242	0.6355
2251	0.6355
2260	0.6355
2269	0.6348
2278	0.6326
2287	0.629
2296	0.6252
2305	0.6195
2314	0.6097
2323	0.5938
2332	0.5871
2341	0.5842
2350	0.5826
2359	0.5809
2368	0.5782
2377	0.5749
2386	0.57
2395	0.5638
2404	0.5548
2413	0.5449
2422	0.5331
2431	0.5197
2440	0.5037
2449	0.4842
2458	0.4415
2467	0.4189
2476	0.3959
2485	0.3749
2494	0.347
2503	0.3238
2512	0.3031
2521	0.2871
2530	0.2654
2539	0.247
2548	0.2136
2557	0.2053
2566	0.2032
2575	0.2021
2584	0.2013
2593	0.2014
2602	0.1997
2611	0.1915
2620	0.183
2629	0.1753
2638	0.168
2647	0.1608
2656	0.1514
2665	0.1421
2674	0.1332
2683	0.1255
2692	0.1071
2701	0.0928
2710	0.0783
2719	0.0665
2728	0.0583
2737	0.0504
2746	0.0428
2755	0.0347
2764	0.0264
2773	0.0195
2782	0.0169
2791	0.0145
2800	0.013
2809	0.0114
2818	0.011
2827	0.0106
2836	0.0103
2845	0.0103
2854	0.0102
2863	0.0101
2872	0.0102
2881	0.0106
2890	0.0109
2899	0.0113
2908	0.0118
2917	0.0124
2926	0.0131
2935	0.0137
2944	0.0143
2953	0.0149
2962	0.0154
2971	0.0162
2980	0.0173
2989	0.0183
2998	0.0194
3007	0.0207
3016	0.0219
3025	0.0238
3034	0.0259
3043	0.0291
3052	0.0324
3061	0.0365
3070	0.0409
3079	0.0453
3088	0.0544
3097	0.0712
3106	0.0853
3115	0.1201
3124	0.1453
3133	0.1737
3142	0.216
3151	0.2544
3160	0.2625
3169	0.2655
3178	0.2684
3187	0.2749
3196	0.2854
3205	0.3366
3214	0.4148
3223	0.4827
3232	0.5502
3241	0.6088
3250	0.6274
3259	0.6408
3268	0.6503
3277	0.6562
3286	0.6601
3295	0.6617
3304	0.663
3313	0.6643
3322	0.6671
3331	0.672
3340	0.677
3349	0.6803
3358	0.6822
3367	0.6832
3376	0.6838
3385	0.6842
3394	0.6845
3403	0.6843
3412	0.684
3421	0.6837
3430	0.6832
3439	0.6831
3448	0.6836
3457	0.6864
3466	0.6918
3475	0.6966
3484	0.6983
3493	0.6994
3502	0.7027
3511	0.709
3520	0.7128
3529	0.7158
3538	0.7177
3547	0.7194
3556	0.7197
3565	0.7202
3574	0.7206
3583	0.7209
3592	0.721
3601	0.721
3610	0.7211
3619	0.7211
3628	0.721
3637	0.7208
3646	0.7207
3655	0.7205
3664	0.7202
3673	0.7196
3682	0.7189
3691	0.7183
3700	0.7175
3709	0.7159
3718	0.7141
3727	0.7121
3736	0.7113
3745	0.711
3754	0.7106
3763	0.7103
3772	0.7101
3781	0.7098
3790	0.7095
3799	0.7081
3808	0.7059
3817	0.7034
3826	0.7011
3835	0.6987
3844	0.6963
3853	0.694
3862	0.6926
3871	0.6917
3880	0.6909
3889	0.6902
3898	0.6896
3907	0.6888
3916	0.6879
3925	0.6869
3934	0.6851
3943	0.6833
3952	0.6811
3961	0.6767
3970	0.6704
3979	0.6642
3988	0.6579
3997	0.6525
