Infrared Spectrum: ETHANETHIOL, 2-DIETHYLAMINO-,HYDROCHLORIDE
Formula: C6 H16 Cl N S
State: SOLID (SPLIT MULL)
Melting point: 170 C
Class: COBLENTZ III
Instrument: DOW KBr FOREPRISM-GRATING
Instrument parameters: BLAZED AT 3.5, 12.0, 20.0 MICRON AND CHANGED AT 5.0, 7.5, 14.9 MICRON
Sampling: TRANSMISSION
Resolution: 2
Origin: DOW CHEMICAL COMPANY
1/CM	TRANSMITTANCE
390	0.7115
399	0.7236
408	0.7365
417	0.751
426	0.7565
435	0.7805
444	0.8121
453	0.8162
462	0.7926
471	0.8392
480	0.8489
489	0.8425
498	0.7506
507	0.8706
516	0.8797
525	0.8816
534	0.8823
543	0.8805
552	0.8761
561	0.8702
570	0.8721
579	0.8695
588	0.8662
597	0.8627
606	0.8586
615	0.8552
624	0.8521
633	0.8503
642	0.8488
651	0.8467
660	0.8439
669	0.8404
678	0.8366
687	0.83
696	0.8233
705	0.8026
714	0.7661
723	0.6707
732	0.6592
741	0.7465
750	0.7678
759	0.7495
768	0.7271
777	0.7643
786	0.7258
795	0.7685
804	0.7004
813	0.6669
822	0.7591
831	0.6884
840	0.5942
849	0.7686
858	0.7722
867	0.7625
876	0.7411
885	0.6258
894	0.6425
903	0.755
912	0.7278
921	0.7664
930	0.7554
939	0.7471
948	0.7046
957	0.5895
966	0.6144
975	0.7345
984	0.753
993	0.7486
1002	0.7315
1011	0.6853
1020	0.5898
1029	0.4009
1038	0.5242
1047	0.5477
1056	0.6874
1065	0.6245
1074	0.6718
1083	0.7411
1092	0.7254
1101	0.6561
1110	0.3795
1119	0.5906
1128	0.7328
1137	0.7294
1146	0.7182
1155	0.6242
1164	0.66
1173	0.5689
1182	0.7339
1191	0.7411
1200	0.7372
1209	0.7315
1218	0.7286
1227	0.7292
1236	0.7117
1245	0.6968
1254	0.661
1263	0.5966
1272	0.6708
1281	0.6674
1290	0.6277
1299	0.6384
1308	0.6327
1317	0.581
1326	0.615
1335	0.6083
1344	0.5789
1353	0.5231
1362	0.4543
1371	0.4185
1380	0.3384
1389	0.4027
1398	0.349
1407	0.6596
1416	0.6295
1425	0.581
1434	0.4912
1443	0.3864
1452	0.4687
1461	0.3682
1470	0.2721
1479	0.436
1488	0.8607
1497	0.8552
1506	0.8474
1515	0.8399
1524	0.8375
1533	0.8378
1542	0.8399
1551	0.8464
1560	0.8547
1569	0.8607
1578	0.8613
1587	0.8599
1596	0.858
1605	0.854
1614	0.8493
1623	0.8449
1632	0.8401
1641	0.8352
1650	0.8304
1659	0.8261
1668	0.8217
1677	0.8165
1686	0.8115
1695	0.8075
1704	0.8037
1713	0.8008
1722	0.7987
1731	0.7946
1740	0.7895
1749	0.7844
1758	0.7803
1767	0.7751
1776	0.7697
1785	0.7643
1794	0.7591
1803	0.7558
1812	0.7525
1821	0.7514
1830	0.7451
1839	0.7392
1848	0.7338
1857	0.729
1866	0.7215
1875	0.7142
1884	0.7084
1893	0.7025
1902	0.6976
1911	0.6935
1920	0.6889
1929	0.6833
1938	0.6765
1947	0.6707
1956	0.6662
1965	0.6618
1974	0.6544
1983	0.6515
1992	0.646
2001	0.6398
2010	0.6352
2019	0.6298
2028	0.6243
2037	0.6183
2046	0.6112
2055	0.6039
2064	0.5965
2073	0.5893
2082	0.5826
2091	0.5759
2100	0.5678
2109	0.5588
2118	0.5482
2127	0.5378
2136	0.529
2145	0.5258
2154	0.5229
2163	0.5141
2172	0.5034
2181	0.4912
2190	0.4801
2199	0.4649
2208	0.4505
2217	0.436
2226	0.4232
2235	0.4108
2244	0.3982
2253	0.3846
2262	0.3714
2271	0.3584
2280	0.3456
2289	0.3338
2298	0.3208
2307	0.3003
2316	0.2582
2325	0.2353
2334	0.2159
2343	0.2058
2352	0.1985
2361	0.194
2370	0.1899
2379	0.186
2388	0.1744
2397	0.1611
2406	0.1469
2415	0.1292
2424	0.1118
2433	0.0913
2442	0.0837
2451	0.0966
2460	0.1161
2469	0.1249
2478	0.1333
2487	0.141
2496	0.1487
2505	0.2268
2514	0.2337
2523	0.1994
2532	0.1993
2541	0.1916
2550	0.1644
2559	0.1356
2568	0.1162
2577	0.1065
2586	0.1082
2595	0.1259
2604	0.1412
2613	0.1435
2622	0.1448
2631	0.1438
2640	0.1514
2649	0.2175
2658	0.2544
2667	0.2677
2676	0.2861
2685	0.3017
2694	0.356
2703	0.4179
2712	0.4616
2721	0.4923
2730	0.4534
2739	0.4467
2748	0.4609
2757	0.4605
2766	0.473
2775	0.5154
2784	0.5458
2793	0.5656
2802	0.5797
2811	0.5875
2820	0.5897
2829	0.587
2838	0.574
2847	0.548
2856	0.5219
2865	0.4766
2874	0.4098
2883	0.4029
2892	0.3659
2901	0.3418
2910	0.3101
2919	0.275
2928	0.2382
2937	0.216
2946	0.2221
2955	0.347
2964	0.3473
2973	0.3934
2982	0.3758
2991	0.4087
3000	0.5457
3009	0.6796
3018	0.6724
3027	0.6611
3036	0.6521
3045	0.6451
3054	0.6396
3063	0.6338
3072	0.6257
3081	0.6186
3090	0.6118
3099	0.6051
3108	0.5991
3117	0.5931
3126	0.5876
3135	0.5831
3144	0.5786
3153	0.5741
3162	0.5696
3171	0.5667
3180	0.564
3189	0.5581
3198	0.5514
3207	0.5453
3216	0.5393
3225	0.5333
3234	0.5277
3243	0.5222
3252	0.5167
3261	0.5112
3270	0.5057
3279	0.5006
3288	0.4956
3297	0.4905
3306	0.4855
3315	0.4804
3324	0.4754
3333	0.4706
3342	0.4665
3351	0.4624
3360	0.4583
3369	0.4541
3378	0.45
3387	0.4462
3396	0.4435
3405	0.4408
3414	0.4382
3423	0.4355
3432	0.4328
3441	0.4302
3450	0.4275
3459	0.4249
3468	0.4224
3477	0.4198
3486	0.4172
3495	0.4146
3504	0.412
3513	0.4094
3522	0.4068
3531	0.4044
3540	0.402
3549	0.3996
3558	0.3972
3567	0.3947
3576	0.3924
3585	0.3899
3594	0.3875
3603	0.385
3612	0.3828
3621	0.3803
3630	0.378
3639	0.3758
3648	0.3738
3657	0.3716
3666	0.3697
3675	0.3677
3684	0.3658
3693	0.3638
3702	0.3626
3711	0.3616
3720	0.3606
3729	0.3598
3738	0.3591
