Infrared Spectrum: Aniline, 2,4-di-sec-butyl-
Formula: C14 H23 N
State: LIQUID (NEAT)
Class: COBLENTZ III
Instrument: BECKMAN IR-4 (HYBRID PRISM-GRATING)
Instrument parameters: NaCl PRISM
Sampling: TRANSMISSION
Path length: CAPILLARY
Resolution: 2
Origin: MONSANTO (J. FREEMAN)
1/CM	TRANSMITTANCE
626.573	0.5671
635.296	0.5406
644.019	0.526
652.742	0.5673
661.465	0.6221
670.189	0.6407
678.912	0.6798
687.635	0.7045
696.358	0.7241
705.081	0.743
713.804	0.7644
722.527	0.7748
731.25	0.7359
739.973	0.4367
748.697	0.5047
757.42	0.6874
766.143	0.6948
774.866	0.6889
783.589	0.6746
792.312	0.7121
801.035	0.6592
809.758	0.4608
818.481	0.3841
827.205	0.6726
835.928	0.7606
844.651	0.8275
853.374	0.8566
862.097	0.8926
870.82	0.9056
879.543	0.8764
888.266	0.73
896.989	0.8946
905.713	0.891
914.436	0.9201
923.159	0.9157
931.882	0.8986
940.605	0.8859
949.328	0.8212
958.051	0.7853
966.774	0.8522
975.497	0.8781
984.221	0.8674
992.944	0.7245
1001.67	0.7568
1010.39	0.7459
1019.11	0.7862
1027.84	0.8832
1036.56	0.8971
1045.28	0.8704
1054.01	0.8093
1062.73	0.7993
1071.45	0.826
1080.17	0.835
1088.9	0.7782
1097.62	0.7609
1106.34	0.7711
1115.07	0.8258
1123.79	0.8274
1132.51	0.8279
1141.24	0.7476
1149.96	0.7063
1158.68	0.6294
1167.41	0.7216
1176.13	0.7716
1184.85	0.6361
1193.58	0.8796
1202.3	0.8846
1211.02	0.8718
1219.74	0.8506
1228.47	0.8183
1237.19	0.683
1245.91	0.6311
1254.64	0.4979
1263.36	0.468
1272.08	0.4762
1280.81	0.5253
1289.53	0.5712
1298.25	0.5626
1306.98	0.5893
1315.7	0.5621
1324.42	0.6085
1333.14	0.6321
1341.87	0.6853
1350.59	0.6974
1359.31	0.6346
1368.04	0.5621
1376.76	0.3847
1385.48	0.6425
1394.21	0.8088
1402.93	0.8077
1411.65	0.7356
1420.38	0.7453
1429.1	0.5731
1437.82	0.4019
1446.55	0.2559
1455.27	0.2175
1463.99	0.2945
1472.71	0.4814
1481.44	0.6064
1490.16	0.6247
1498.88	0.3054
1507.61	0.2862
1516.33	0.2531
1525.05	0.3892
1533.78	0.5592
1542.5	0.7271
1551.22	0.8339
1559.95	0.8465
1568.67	0.8404
1577.39	0.8162
1586.12	0.7288
1594.84	0.7061
1603.56	0.4766
1612.28	0.2237
1621.01	0.2621
1629.73	0.3969
1638.45	0.5304
1647.18	0.6623
1655.9	0.7929
1664.62	0.8527
1673.35	0.8814
1682.07	0.9115
1690.79	0.9224
1699.52	0.9327
1708.24	0.9478
1716.96	0.9589
1725.68	0.9674
1734.41	0.9692
1743.13	0.9669
1751.85	0.9638
1760.58	0.9616
1769.3	0.9608
1778.02	0.9529
1786.75	0.9541
1795.47	0.9588
1804.19	0.9585
1812.92	0.958
1821.64	0.9571
1830.36	0.9545
1839.09	0.9515
1847.81	0.9467
1856.53	0.9396
1865.25	0.9316
1873.98	0.924
1882.7	0.9304
1891.42	0.9457
1900.15	0.9464
1908.87	0.9475
1917.59	0.9554
1926.32	0.9608
1935.04	0.963
1943.76	0.965
1952.49	0.9671
1961.21	0.9692
1969.93	0.9699
1978.66	0.9706
1987.38	0.9708
1996.1	0.9705
2004.82	0.9703
2013.55	0.9702
2022.27	0.9702
2030.99	0.9701
2039.72	0.9698
2048.44	0.9695
2057.16	0.9692
2065.89	0.9689
2074.61	0.9683
2083.33	0.9675
2092.06	0.9668
2100.78	0.966
2109.5	0.9652
2118.22	0.9643
2126.95	0.9635
2135.67	0.9626
2144.39	0.9619
2153.12	0.9617
2161.84	0.9616
2170.56	0.9614
2179.29	0.9613
2188.01	0.9611
2196.73	0.9609
2205.46	0.9608
2214.18	0.9606
2222.9	0.9604
2231.63	0.96
2240.35	0.9596
2249.07	0.9592
2257.79	0.9587
2266.52	0.9582
2275.24	0.9576
2283.96	0.957
2292.69	0.9564
2301.41	0.9559
2310.13	0.9548
2318.86	0.9537
2327.58	0.9526
2336.3	0.9515
2345.03	0.9501
2353.75	0.9486
2362.47	0.9471
2371.19	0.946
2379.92	0.9456
2388.64	0.9456
2397.36	0.9457
2406.09	0.9462
2414.81	0.9467
2423.53	0.9473
2432.26	0.9478
2440.98	0.9487
2449.7	0.9494
2458.43	0.9502
2467.15	0.951
2475.87	0.9517
2484.6	0.9526
2493.32	0.9533
2502.04	0.9539
2510.76	0.9545
2519.49	0.9536
2528.21	0.9519
2536.93	0.9498
2545.66	0.9453
2554.38	0.9406
2563.1	0.9372
2571.83	0.934
2580.55	0.9318
2589.27	0.9296
2598	0.9282
2606.72	0.9273
2615.44	0.9269
2624.17	0.9265
2632.89	0.926
2641.61	0.9256
2650.33	0.9252
2659.06	0.9245
2667.78	0.9232
2676.5	0.9215
2685.23	0.9199
2693.95	0.9187
2702.67	0.9164
2711.4	0.9141
2720.12	0.9091
2728.84	0.9022
2737.57	0.8915
2746.29	0.8844
2755.01	0.8841
2763.73	0.8882
2772.46	0.8955
2781.18	0.9013
2789.9	0.9014
2798.63	0.8944
2807.35	0.8785
2816.07	0.8618
2824.8	0.8457
2833.52	0.822
2842.24	0.7962
2850.97	0.7056
2859.69	0.2436
2868.41	0.256
2877.14	0.2768
2885.86	0.2867
2894.58	0.2339
2903.3	0.1751
2912.03	0.1667
2920.75	0.1579
2929.47	0.1098
2938.2	0.099
2946.92	0.137
2955.64	0.1953
2964.37	0.2534
2973.09	0.3109
2981.81	0.3683
2990.54	0.4253
2999.26	0.4819
3007.98	0.538
3016.71	0.5689
3025.43	0.5837
3034.15	0.5949
3042.87	0.6053
3051.6	0.6185
3060.32	0.6346
3069.04	0.6486
3077.77	0.6664
3086.49	0.7065
3095.21	0.7411
3103.94	0.771
3112.66	0.8134
3121.38	0.838
3130.11	0.8656
3138.83	0.8795
3147.55	0.8868
3156.27	0.8903
3165	0.8915
3173.72	0.8923
3182.44	0.892
3191.17	0.8903
3199.89	0.888
3208.61	0.8839
3217.34	0.8798
3226.06	0.8763
3234.78	0.8755
3243.51	0.8778
3252.23	0.8837
3260.95	0.8909
3269.68	0.8966
3278.4	0.8989
3287.12	0.8991
3295.84	0.8983
3304.57	0.8954
3313.29	0.8813
3322.01	0.8639
3330.74	0.8335
3339.46	0.7986
3348.18	0.764
3356.91	0.7296
3365.63	0.6952
3374.35	0.661
3383.08	0.6494
3391.8	0.6505
3400.52	0.6565
3409.25	0.6771
3417.97	0.6975
3426.69	0.718
3435.41	0.7383
3444.14	0.756
3452.86	0.7591
3461.58	0.7557
3470.31	0.7469
3479.03	0.7381
3487.75	0.7339
3496.48	0.7391
3505.2	0.7736
3513.92	0.8149
3522.65	0.8562
3531.37	0.8899
3540.09	0.9005
3548.81	0.9087
3557.54	0.9161
3566.26	0.9193
3574.98	0.9216
3583.71	0.9228
3592.43	0.9239
3601.15	0.9246
3609.88	0.9254
3618.6	0.926
3627.32	0.9264
3636.05	0.9268
3644.77	0.9272
3653.49	0.9276
3662.22	0.9281
3670.94	0.9285
3679.66	0.9286
3688.38	0.9286
3697.11	0.9285
3705.83	0.9285
3714.55	0.9284
3723.28	0.9284
3732	0.9283
3740.72	0.9283
3749.45	0.9281
3758.17	0.9279
3766.89	0.928
3775.62	0.9283
3784.34	0.9284
3793.06	0.9286
3801.79	0.9287
3810.51	0.9291
3819.23	0.9302
3827.95	0.931
3836.68	0.9309
3845.4	0.9305
3854.12	0.9302
3862.85	0.9298
3871.57	0.9288
3880.29	0.9275
3889.02	0.9262
