Infrared Spectrum: NEODYMIUM OXALATE
Formula: Nd2 ( C2 O4)3  * 10 H2 O
State: SOLID (KBr DISC)
Class: COBLENTZ
Instrument: Not specified, most likely a prism, grating, or hybrid spectrometer.
Sampling: TRANSMISSION
Resolution: 4
MICROMETERS	TRANSMITTANCE
2.036	0.909
2.07407	0.909
2.11214	0.909
2.15021	0.909
2.18828	0.911
2.22636	0.911
2.26443	0.911
2.3025	0.911
2.34057	0.912
2.37864	0.911
2.41671	0.912
2.45478	0.912
2.49285	0.911
2.53092	0.911
2.56899	0.911
2.60707	0.911
2.64514	0.912
2.68321	0.912
2.72128	0.912
2.75935	0.908
2.79742	0.818
2.83549	0.667
2.87356	0.559
2.91163	0.451
2.9497	0.392
2.98778	0.378
3.02585	0.387
3.06392	0.426
3.10199	0.468
3.14006	0.508
3.17813	0.562
3.2162	0.605
3.25427	0.642
3.29234	0.706
3.33041	0.745
3.36849	0.774
3.40656	0.788
3.44463	0.805
3.4827	0.827
3.52077	0.849
3.55884	0.862
3.59691	0.871
3.63498	0.878
3.67305	0.884
3.71112	0.89
3.7492	0.89
3.78727	0.895
3.82534	0.899
3.86341	0.901
3.90148	0.902
3.93955	0.903
3.97762	0.903
4.01569	0.906
4.05376	0.905
4.09183	0.906
4.12991	0.908
4.16798	0.909
4.20605	0.909
4.24412	0.909
4.28219	0.908
4.32026	0.908
4.35833	0.908
4.3964	0.908
4.43447	0.909
4.47254	0.909
4.51062	0.909
4.54869	0.908
4.58676	0.908
4.62483	0.908
4.6629	0.908
4.70097	0.906
4.73904	0.905
4.77711	0.905
4.81518	0.903
4.85325	0.905
4.89133	0.903
4.9294	0.905
4.96747	0.905
5.00554	0.905
5.04361	0.905
5.08168	0.906
5.11975	0.906
5.15782	0.905
5.19589	0.905
5.23396	0.903
5.27204	0.902
5.31011	0.902
5.34818	0.902
5.38625	0.902
5.42432	0.901
5.46239	0.901
5.50046	0.898
5.53853	0.895
5.5766	0.893
5.61467	0.887
5.65275	0.886
5.69082	0.874
5.72889	0.867
5.76696	0.847
5.80503	0.769
5.8431	0.688
5.88117	0.571
5.91924	0.44
5.95731	0.344
5.99538	0.273
6.03346	0.221
6.07153	0.166
6.1096	0.144
6.14767	0.14
6.18574	0.161
6.22381	0.24
6.26188	0.311
6.29995	0.454
6.33802	0.519
6.37609	0.586
6.41417	0.623
6.45224	0.679
6.49031	0.71
6.52838	0.737
6.56645	0.76
6.60452	0.769
6.64259	0.779
6.68066	0.793
6.71873	0.794
6.7568	0.796
6.79488	0.79
6.83295	0.788
6.87102	0.79
6.90909	0.799
6.94716	0.815
6.98523	0.818
7.0233	0.83
7.06137	0.834
7.09944	0.844
7.13752	0.849
7.17559	0.849
7.21366	0.85
7.25173	0.849
7.2898	0.827
7.32787	0.799
7.36594	0.768
7.40401	0.759
7.44208	0.747
7.48015	0.737
7.51823	0.688
7.5563	0.601
7.59437	0.514
7.63244	0.508
7.67051	0.579
7.70858	0.648
7.74665	0.726
7.78472	0.762
7.82279	0.791
7.86086	0.815
7.89894	0.831
7.93701	0.843
7.97508	0.846
8.01315	0.852
8.05122	0.858
8.08929	0.858
8.12736	0.861
8.16543	0.861
8.2035	0.862
8.24157	0.864
8.27965	0.868
8.31772	0.87
8.35579	0.871
8.39386	0.871
8.43193	0.874
8.47	0.874
8.50807	0.874
8.54614	0.874
8.58421	0.875
8.62228	0.875
8.66036	0.877
8.69843	0.878
8.7365	0.881
8.77457	0.881
8.81264	0.883
8.85071	0.883
8.88878	0.883
8.92685	0.883
8.96492	0.883
9.00299	0.883
9.04107	0.883
9.07914	0.883
9.11721	0.883
9.15528	0.881
9.19335	0.883
9.23142	0.881
9.26949	0.883
9.30756	0.883
9.34563	0.881
9.3837	0.886
9.42178	0.886
9.45985	0.886
9.49792	0.886
9.53599	0.886
9.57406	0.887
9.61213	0.887
9.6502	0.887
9.68827	0.889
9.72634	0.887
9.76441	0.887
9.80249	0.887
9.84056	0.889
9.87863	0.889
9.9167	0.89
9.95477	0.89
9.99284	0.89
10.0309	0.89
10.069	0.893
10.1071	0.895
10.1451	0.896
10.1832	0.896
10.2213	0.896
10.2593	0.896
10.2974	0.896
10.3355	0.896
10.3736	0.896
10.4116	0.896
10.4497	0.896
10.4878	0.896
10.5258	0.896
10.5639	0.896
10.602	0.896
10.64	0.895
10.6781	0.896
10.7162	0.895
10.7543	0.895
10.7923	0.895
10.8304	0.895
10.8685	0.895
10.9065	0.895
10.9446	0.893
10.9827	0.89
11.0208	0.887
11.0588	0.887
11.0969	0.886
11.135	0.887
11.173	0.887
11.2111	0.889
11.2492	0.889
11.2873	0.889
11.3253	0.89
11.3634	0.89
11.4015	0.89
11.4395	0.89
11.4776	0.889
11.5157	0.887
11.5538	0.887
11.5918	0.883
11.6299	0.881
11.668	0.88
11.706	0.88
11.7441	0.878
11.7822	0.878
11.8202	0.877
11.8583	0.875
11.8964	0.874
11.9345	0.87
11.9725	0.867
12.0106	0.865
12.0487	0.861
12.0867	0.856
12.1248	0.85
12.1629	0.847
12.201	0.841
12.239	0.833
12.2771	0.819
12.3152	0.799
12.3532	0.775
12.3913	0.748
12.4294	0.72
12.4675	0.689
12.5055	0.648
12.5436	0.63
12.5817	0.626
12.6197	0.626
12.6578	0.638
12.6959	0.657
12.734	0.676
12.772	0.697
12.8101	0.713
12.8482	0.728
12.8862	0.741
12.9243	0.751
12.9624	0.759
13.0005	0.768
13.0385	0.769
13.0766	0.771
13.1147	0.772
13.1527	0.775
13.1908	0.779
13.2289	0.781
13.2669	0.781
13.305	0.781
13.3431	0.781
13.3812	0.781
13.4192	0.781
13.4573	0.779
13.4954	0.779
13.5334	0.778
13.5715	0.779
13.6096	0.778
13.6477	0.778
13.6857	0.778
13.7238	0.778
13.7619	0.778
13.7999	0.778
13.838	0.776
13.8761	0.775
13.9142	0.776
13.9522	0.778
13.9903	0.776
14.0284	0.776
14.0664	0.776
14.1045	0.775
14.1426	0.775
14.1807	0.774
14.2187	0.774
14.2568	0.774
14.2949	0.774
14.3329	0.774
14.371	0.774
14.4091	0.774
14.4471	0.772
14.4852	0.771
14.5233	0.771
14.5614	0.771
14.5994	0.772
14.6375	0.772
14.6756	0.772
14.7136	0.772
14.7517	0.772
14.7898	0.774
14.8279	0.774
14.8659	0.774
14.904	0.774
14.9421	0.774
