Infrared Spectrum: SODIUM PENICILLIN G
Formula: C16 H17 N2 Na O4 S
State: SOLID (1 mg / 200 mg KBr DISC)
Class: COBLENTZ III
Instrument: PERKIN-ELMER 21 (GRATING)
Instrument parameters: FILTER AT ABOUT 10 MICRONS
Sampling: TRANSMISSION
Path length: 0.055 CM (THICKNESS)
Resolution: 2
1/CM	TRANSMITTANCE
4000	0.9425
3991	0.942
3982	0.9418
3973	0.9421
3964	0.9425
3955	0.9428
3946	0.9433
3937	0.9437
3928	0.944
3919	0.9443
3910	0.9447
3901	0.945
3892	0.9454
3883	0.9455
3874	0.9455
3865	0.9455
3856	0.9455
3847	0.946
3838	0.9467
3829	0.9475
3820	0.9486
3811	0.9495
3802	0.9504
3793	0.9509
3784	0.9499
3775	0.9482
3766	0.9471
3757	0.9468
3748	0.9471
3739	0.9478
3730	0.9485
3721	0.949
3712	0.949
3703	0.9488
3694	0.9488
3685	0.9484
3676	0.9478
3667	0.9471
3658	0.9464
3649	0.9449
3640	0.9434
3631	0.9418
3622	0.9404
3613	0.938
3604	0.9353
3595	0.9323
3586	0.9278
3577	0.9231
3568	0.9168
3559	0.9091
3550	0.8991
3541	0.8848
3532	0.8702
3523	0.8583
3514	0.8475
3505	0.8397
3496	0.8347
3487	0.8291
3478	0.823
3469	0.8158
3460	0.8092
3451	0.8032
3442	0.7975
3433	0.7924
3424	0.7872
3415	0.7818
3406	0.7762
3397	0.7711
3388	0.7665
3379	0.7622
3370	0.7578
3361	0.7518
3352	0.7042
3343	0.6132
3334	0.5662
3325	0.6085
3316	0.7522
3307	0.7736
3298	0.7943
3289	0.8047
3280	0.813
3271	0.8193
3262	0.8255
3253	0.8315
3244	0.8374
3235	0.8433
3226	0.849
3217	0.8547
3208	0.86
3199	0.8641
3190	0.8682
3181	0.8724
3172	0.8766
3163	0.881
3154	0.8854
3145	0.8897
3136	0.8939
3127	0.8983
3118	0.9025
3109	0.905
3100	0.9057
3091	0.906
3082	0.9036
3073	0.896
3064	0.8887
3055	0.8825
3046	0.8766
3037	0.8689
3028	0.8602
3019	0.8444
3010	0.8418
3001	0.8437
2992	0.8548
2983	0.8616
2974	0.8623
2965	0.8261
2956	0.7765
2947	0.74
2938	0.7415
2929	0.7693
2920	0.7928
2911	0.7974
2902	0.7993
2893	0.8011
2884	0.8105
2875	0.8228
2866	0.836
2857	0.8473
2848	0.8564
2839	0.8659
2830	0.8764
2821	0.8867
2812	0.8968
2803	0.9049
2794	0.9127
2785	0.9196
2776	0.926
2767	0.932
2758	0.9367
2749	0.9409
2740	0.9448
2731	0.9464
2722	0.9464
2713	0.9463
2704	0.9462
2695	0.946
2686	0.946
2677	0.9462
2668	0.9475
2659	0.9485
2650	0.9478
2641	0.9459
2632	0.9439
2623	0.9424
2614	0.9432
2605	0.9441
2596	0.9458
2587	0.9474
2578	0.9489
2569	0.9504
2560	0.9508
2551	0.9512
2542	0.9517
2533	0.9523
2524	0.9544
2515	0.956
2506	0.9566
2497	0.957
2488	0.957
2479	0.957
2470	0.9568
2461	0.9568
2452	0.9571
2443	0.958
2434	0.9589
2425	0.9593
2416	0.9592
2407	0.9596
2398	0.9616
2389	0.9642
2380	0.9654
2371	0.9653
2362	0.9625
2353	0.9589
2344	0.9566
2335	0.9561
2326	0.9562
2317	0.9567
2308	0.9575
2299	0.9589
2290	0.9604
2281	0.9624
2272	0.9675
2263	0.9693
2254	0.9698
2245	0.9655
2236	0.9638
2227	0.9657
2218	0.9671
2209	0.9684
2200	0.9689
2191	0.9687
2182	0.9685
2173	0.9683
2164	0.9682
2155	0.968
2146	0.9677
2137	0.9674
2128	0.9673
2119	0.9684
2110	0.9702
2101	0.9661
2092	0.9623
2083	0.961
2074	0.9612
2065	0.962
2056	0.9632
2047	0.9645
2038	0.966
2029	0.9664
2020	0.9664
2011	0.9661
2002	0.9645
1993	0.9618
1984	0.9578
1975	0.9536
1966	0.9503
1957	0.9473
1948	0.9465
1939	0.9508
1930	0.951
1921	0.9486
1912	0.9447
1903	0.9363
1894	0.9303
1885	0.9246
1876	0.9213
1867	0.9209
1858	0.9178
1849	0.9045
1840	0.8835
1831	0.8643
1822	0.849
1813	0.8186
1804	0.7596
1795	0.5449
1786	0.3224
1777	0.0976
1768	0.1829
1759	0.433
1750	0.5436
1741	0.6581
1732	0.7393
1723	0.7428
1714	0.5533
1705	0.2688
1696	0.2067
1687	0.3905
1678	0.5697
1669	0.5951
1660	0.6046
1651	0.6065
1642	0.4681
1633	0.2634
1624	0.0604
1615	0.0593
1606	0.2534
1597	0.422
1588	0.5622
1579	0.6878
1570	0.7531
1561	0.7751
1552	0.7676
1543	0.7585
1534	0.6825
1525	0.6148
1516	0.4912
1507	0.2276
1498	0.11
1489	0.3198
1480	0.5241
1471	0.6223
1462	0.6354
1453	0.557
1444	0.626
1435	0.5469
1426	0.4367
1417	0.3101
1408	0.4886
1399	0.6038
1390	0.6026
1381	0.7376
1372	0.6791
1363	0.7734
1354	0.7915
1345	0.749
1336	0.6949
1327	0.4997
1318	0.5106
1309	0.2739
1300	0.3714
1291	0.6443
1282	0.6758
1273	0.7007
1264	0.7391
1255	0.5762
1246	0.5844
1237	0.6908
1228	0.769
1219	0.8141
1210	0.8058
1201	0.6792
1192	0.6789
1183	0.7812
1174	0.7895
1165	0.7247
1156	0.6754
1147	0.7947
1138	0.8146
1129	0.7844
1120	0.7028
1111	0.8094
1102	0.823
1093	0.6938
1084	0.765
1075	0.7611
1066	0.85
1057	0.868
1048	0.8744
1039	0.8808
1030	0.8304
1021	0.8441
1012	0.8765
1003	0.7847
994	0.8575
985	0.8842
976	0.9014
967	0.8887
958	0.8541
949	0.8852
940	0.8651
931	0.819
922	0.8628
913	0.8841
904	0.9014
895	0.7804
886	0.8963
877	0.8738
868	0.907
859	0.9242
850	0.9211
841	0.9186
832	0.9283
823	0.9218
814	0.8873
805	0.8175
796	0.8954
787	0.896
778	0.8274
769	0.6498
760	0.703
751	0.7451
742	0.8447
733	0.8362
724	0.715
715	0.68
706	0.7041
697	0.67
688	0.8678
679	0.8831
670	0.8574
