Infrared Spectrum: SODIUM, (2-BIPHENYLYLOXY)-, TETRAHYDRATE
Formula: C12 H9 Na O  * 4 H2 O
State: SOLID (OIL MULL)
Class: COBLENTZ III
Instrument: BAIRD NaCl PRISM
Sampling: TRANSMISSION
Resolution: 4
Origin: WYANDOTTE CHEMICALS CORP.
MICROMETERS	TRANSMITTANCE
2.02	0.564
2.05901	0.569
2.09801	0.585
2.13702	0.602
2.17603	0.62
2.21504	0.637
2.25404	0.632
2.29305	0.641
2.33206	0.664
2.37106	0.687
2.41007	0.696
2.44908	0.712
2.48809	0.737
2.52709	0.758
2.5661	0.776
2.60511	0.81
2.64411	0.82
2.68312	0.843
2.72213	0.791
2.76114	0.54
2.80014	0.49
2.83915	0.523
2.87816	0.48
2.91716	0.446
2.95617	0.41
2.99518	0.384
3.03419	0.318
3.07319	0.279
3.1122	0.25
3.15121	0.224
3.19021	0.202
3.22922	0.187
3.26823	0.16
3.30723	0.126
3.34624	0.091
3.38525	0.025
3.42426	0.021
3.46326	0.028
3.50227	0.032
3.54128	0.085
3.58028	0.32
3.61929	0.404
3.6583	0.436
3.69731	0.457
3.73631	0.486
3.77532	0.52
3.81433	0.552
3.85333	0.571
3.89234	0.598
3.93135	0.621
3.97036	0.631
4.00936	0.653
4.04837	0.66
4.08738	0.684
4.12638	0.698
4.16539	0.708
4.2044	0.717
4.24341	0.718
4.28241	0.708
4.32142	0.729
4.36043	0.75
4.39943	0.77
4.43844	0.774
4.47745	0.775
4.51646	0.779
4.55546	0.784
4.59447	0.798
4.63348	0.802
4.67248	0.823
4.71149	0.82
4.7505	0.823
4.78951	0.828
4.82851	0.835
4.86752	0.853
4.90653	0.875
4.94553	0.891
4.98454	0.898
5.02355	0.9
5.06256	0.903
5.10156	0.908
5.14057	0.898
5.17958	0.878
5.21858	0.897
5.25759	0.886
5.2966	0.87
5.33561	0.863
5.37461	0.871
5.41362	0.89
5.45263	0.884
5.49163	0.879
5.53064	0.887
5.56965	0.891
5.60865	0.915
5.64766	0.904
5.68667	0.91
5.72568	0.918
5.76468	0.919
5.80369	0.907
5.8427	0.912
5.8817	0.906
5.92071	0.864
5.95972	0.795
5.99873	0.62
6.03773	0.567
6.07674	0.624
6.11575	0.598
6.15475	0.693
6.19376	0.615
6.23277	0.529
6.27178	0.556
6.31078	0.66
6.34979	0.681
6.3888	0.653
6.4278	0.724
6.46681	0.807
6.50582	0.85
6.54483	0.863
6.58383	0.885
6.62284	0.812
6.66185	0.552
6.70085	0.723
6.73986	0.471
6.77887	0.08
6.81788	0.101
6.85688	0.226
6.89589	0.241
6.9349	0.268
6.9739	0.23
7.01291	0.374
7.05192	0.586
7.09093	0.691
7.12993	0.752
7.16894	0.76
7.20795	0.618
7.24695	0.467
7.28596	0.654
7.32497	0.748
7.36398	0.856
7.40298	0.889
7.44199	0.906
7.481	0.935
7.52	0.954
7.55901	0.963
7.59802	0.897
7.63702	0.843
7.67603	0.732
7.71504	0.507
7.75405	0.475
7.79305	0.367
7.83206	0.215
7.87107	0.128
7.91007	0.203
7.94908	0.321
7.98809	0.282
8.0271	0.343
8.0661	0.515
8.10511	0.602
8.14412	0.637
8.18312	0.701
8.22213	0.756
8.26114	0.786
8.30015	0.826
8.33915	0.854
8.37816	0.881
8.41717	0.903
8.45617	0.912
8.49518	0.879
8.53419	0.864
8.5732	0.912
8.6122	0.891
8.65121	0.819
8.69022	0.808
8.72922	0.909
8.76823	0.95
8.80724	0.956
8.84625	0.975
8.88525	0.987
8.92426	0.954
8.96327	0.768
9.00227	0.707
9.04128	0.869
9.08029	0.942
9.1193	0.953
9.1583	0.962
9.19731	0.971
9.23632	0.971
9.27532	0.92
9.31433	0.76
9.35334	0.846
9.39235	0.962
9.43135	0.99
9.47036	1.002
9.50937	0.974
9.54837	0.9
9.58738	0.893
9.62639	0.953
9.6654	0.96
9.7044	0.959
9.74341	0.985
9.78242	1.001
9.82142	1.001
9.86043	0.914
9.89944	0.59
9.93844	0.739
9.97745	0.917
10.0165	0.892
10.0555	0.814
10.0945	0.856
10.1335	0.915
10.1725	0.91
10.2115	0.912
10.2505	0.913
10.2895	0.919
10.3285	0.923
10.3675	0.921
10.4065	0.921
10.4455	0.92
10.4845	0.921
10.5236	0.925
10.5626	0.912
10.6016	0.892
10.6406	0.859
10.6796	0.88
10.7186	0.9
10.7576	0.886
10.7966	0.879
10.8356	0.893
10.8746	0.902
10.9136	0.876
10.9526	0.884
10.9916	0.906
11.0306	0.928
11.0697	0.936
11.1087	0.934
11.1477	0.934
11.1867	0.932
11.2257	0.924
11.2647	0.921
11.3037	0.915
11.3427	0.913
11.3817	0.9
11.4207	0.873
11.4597	0.865
11.4987	0.85
11.5377	0.848
11.5767	0.841
11.6158	0.832
11.6548	0.821
11.6938	0.786
11.7328	0.715
11.7718	0.61
11.8108	0.498
11.8498	0.41
11.8888	0.336
11.9278	0.398
11.9668	0.563
12.0058	0.698
12.0448	0.779
12.0838	0.819
12.1228	0.836
12.1619	0.848
12.2009	0.847
12.2399	0.842
12.2789	0.836
12.3179	0.834
12.3569	0.831
12.3959	0.821
12.4349	0.814
12.4739	0.804
12.5129	0.791
12.5519	0.775
12.5909	0.76
12.6299	0.75
12.6689	0.734
12.708	0.72
12.747	0.7
12.786	0.658
12.825	0.576
12.864	0.524
12.903	0.506
12.942	0.43
12.981	0.329
13.02	0.278
13.059	0.29
13.098	0.298
13.137	0.289
13.176	0.275
13.215	0.268
13.254	0.28
13.2931	0.373
13.3321	0.441
13.3711	0.456
13.4101	0.439
13.4491	0.401
13.4881	0.376
13.5271	0.404
13.5661	0.448
13.6051	0.491
13.6441	0.523
13.6831	0.507
13.7221	0.436
13.7611	0.454
13.8001	0.534
13.8392	0.567
13.8782	0.546
13.9172	0.523
13.9562	0.539
13.9952	0.586
14.0342	0.604
14.0732	0.573
14.1122	0.467
14.1512	0.402
14.1902	0.346
14.2292	0.374
14.2682	0.431
14.3072	0.464
14.3462	0.469
14.3853	0.48
14.4243	0.514
14.4633	0.56
14.5023	0.579
14.5413	0.591
14.5803	0.597
14.6193	0.603
14.6583	0.606
14.6973	0.61
14.7363	0.615
14.7753	0.615
14.8143	0.608
14.8533	0.614
14.8923	0.617
14.9314	0.612
14.9704	0.606
15.0094	0.59
15.0484	0.58
15.0874	0.58
15.1264	0.59
15.1654	0.595
15.2044	0.585
15.2434	0.584
15.2824	0.579
15.3214	0.575
15.3604	0.569
15.3994	0.563
15.4384	0.562
15.4775	0.556
15.5165	0.551
15.5555	0.541
15.5945	0.532
15.6335	0.526
15.6725	0.525
15.7115	0.513
15.7505	0.507
15.7895	0.509
15.8285	0.506
15.8675	0.5
15.9065	0.498
15.9455	0.496
15.9845	0.495
