Infrared Spectrum: PRASEODYMIUM OXALATE
Formula: Pr2 ( C2 O4)3  * 10 H2 O
State: SOLID (KBr DISC)
Class: COBLENTZ
Instrument: Not specified, most likely a prism, grating, or hybrid spectrometer.
Sampling: TRANSMISSION
Resolution: 4
MICROMETERS	TRANSMITTANCE
1.976	0.943
2.01433	0.941
2.05266	0.941
2.09099	0.943
2.12933	0.949
2.16766	0.952
2.20599	0.952
2.24432	0.949
2.28265	0.952
2.32098	0.958
2.35931	0.959
2.39765	0.961
2.43598	0.962
2.47431	0.962
2.51264	0.962
2.55097	0.962
2.5893	0.962
2.62763	0.964
2.66596	0.964
2.7043	0.964
2.74263	0.964
2.78096	0.935
2.81929	0.85
2.85762	0.687
2.89595	0.59
2.93428	0.536
2.97262	0.512
3.01095	0.512
3.04928	0.55
3.08761	0.585
3.12594	0.617
3.16427	0.653
3.2026	0.68
3.24094	0.718
3.27927	0.759
3.3176	0.787
3.35593	0.823
3.39426	0.847
3.43259	0.857
3.47092	0.877
3.50925	0.892
3.54759	0.904
3.58592	0.919
3.62425	0.932
3.66258	0.937
3.70091	0.943
3.73924	0.949
3.77757	0.955
3.81591	0.959
3.85424	0.961
3.89257	0.962
3.9309	0.965
3.96923	0.968
4.00756	0.968
4.04589	0.968
4.08423	0.973
4.12256	0.973
4.16089	0.974
4.19922	0.974
4.23755	0.974
4.27588	0.976
4.31421	0.976
4.35254	0.976
4.39088	0.976
4.42921	0.976
4.46754	0.974
4.50587	0.974
4.5442	0.976
4.58253	0.976
4.62086	0.976
4.6592	0.976
4.69753	0.976
4.73586	0.976
4.77419	0.976
4.81252	0.976
4.85085	0.976
4.88918	0.976
4.92752	0.976
4.96585	0.976
5.00418	0.977
5.04251	0.977
5.08084	0.977
5.11917	0.977
5.1575	0.976
5.19583	0.977
5.23417	0.977
5.2725	0.974
5.31083	0.973
5.34916	0.973
5.38749	0.973
5.42582	0.973
5.46415	0.971
5.50249	0.965
5.54082	0.956
5.57915	0.955
5.61748	0.943
5.65581	0.937
5.69414	0.923
5.73247	0.907
5.77081	0.883
5.80914	0.792
5.84747	0.639
5.8858	0.563
5.92413	0.466
5.96246	0.394
6.00079	0.294
6.03912	0.267
6.07746	0.225
6.11579	0.21
6.15412	0.206
6.19245	0.216
6.23078	0.276
6.26911	0.346
6.30744	0.44
6.34578	0.533
6.38411	0.602
6.42244	0.653
6.46077	0.701
6.4991	0.715
6.53743	0.772
6.57576	0.784
6.6141	0.804
6.65243	0.817
6.69076	0.834
6.72909	0.834
6.76742	0.828
6.80575	0.822
6.84408	0.817
6.88242	0.832
6.92075	0.84
6.95908	0.853
6.99741	0.866
7.03574	0.88
7.07407	0.887
7.1124	0.896
7.15073	0.901
7.18907	0.904
7.2274	0.905
7.26573	0.904
7.30406	0.883
7.34239	0.856
7.38072	0.835
7.41905	0.82
7.45739	0.805
7.49572	0.789
7.53405	0.735
7.57238	0.606
7.61071	0.557
7.64904	0.559
7.68737	0.617
7.72571	0.686
7.76404	0.744
7.80237	0.801
7.8407	0.838
7.87903	0.859
7.91736	0.874
7.95569	0.886
7.99402	0.895
8.03236	0.902
8.07069	0.905
8.10902	0.91
8.14735	0.913
8.18568	0.917
8.22401	0.917
8.26234	0.919
8.30068	0.922
8.33901	0.925
8.37734	0.928
8.41567	0.929
8.454	0.929
8.49233	0.931
8.53066	0.932
8.569	0.934
8.60733	0.934
8.64566	0.935
8.68399	0.937
8.72232	0.937
8.76065	0.938
8.79898	0.94
8.83731	0.941
8.87565	0.943
8.91398	0.944
8.95231	0.944
8.99064	0.944
9.02897	0.946
9.0673	0.947
9.10563	0.947
9.14397	0.947
9.1823	0.947
9.22063	0.949
9.25896	0.949
9.29729	0.949
9.33562	0.949
9.37395	0.949
9.41229	0.949
9.45062	0.947
9.48895	0.947
9.52728	0.947
9.56561	0.947
9.60394	0.949
9.64227	0.949
9.6806	0.949
9.71894	0.95
9.75727	0.95
9.7956	0.95
9.83393	0.952
9.87226	0.953
9.91059	0.955
9.94892	0.955
9.98726	0.956
10.0256	0.956
10.0639	0.958
10.1022	0.958
10.1406	0.959
10.1789	0.961
10.2172	0.961
10.2556	0.961
10.2939	0.962
10.3322	0.962
10.3706	0.962
10.4089	0.962
10.4472	0.961
10.4856	0.961
10.5239	0.962
10.5622	0.962
10.6006	0.962
10.6389	0.962
10.6772	0.962
10.7156	0.962
10.7539	0.962
10.7922	0.962
10.8305	0.961
10.8689	0.959
10.9072	0.959
10.9455	0.956
10.9839	0.955
11.0222	0.955
11.0605	0.953
11.0989	0.953
11.1372	0.953
11.1755	0.955
11.2139	0.955
11.2522	0.953
11.2905	0.953
11.3289	0.953
11.3672	0.955
11.4055	0.955
11.4438	0.955
11.4822	0.953
11.5205	0.953
11.5588	0.952
11.5972	0.95
11.6355	0.947
11.6738	0.943
11.7122	0.943
11.7505	0.94
11.7888	0.94
11.8272	0.94
11.8655	0.94
11.9038	0.937
11.9422	0.935
11.9805	0.929
12.0188	0.928
12.0571	0.925
12.0955	0.919
12.1338	0.916
12.1721	0.911
12.2105	0.905
12.2488	0.893
12.2871	0.883
12.3255	0.872
12.3638	0.847
12.4021	0.82
12.4405	0.787
12.4788	0.754
12.5171	0.729
12.5555	0.695
12.5938	0.687
12.6321	0.687
12.6705	0.695
12.7088	0.713
12.7471	0.73
12.7854	0.748
12.8238	0.768
12.8621	0.781
12.9004	0.799
12.9388	0.811
12.9771	0.823
13.0154	0.831
13.0538	0.838
13.0921	0.844
13.1304	0.849
13.1688	0.852
13.2071	0.855
13.2454	0.855
13.2838	0.855
13.3221	0.856
13.3604	0.857
13.3987	0.856
13.4371	0.856
13.4754	0.856
13.5137	0.856
13.5521	0.856
13.5904	0.856
13.6287	0.856
13.6671	0.856
13.7054	0.856
13.7437	0.856
13.7821	0.855
13.8204	0.855
13.8587	0.855
13.8971	0.855
13.9354	0.855
13.9737	0.855
14.012	0.855
14.0504	0.855
14.0887	0.855
14.127	0.855
14.1654	0.855
14.2037	0.853
14.242	0.853
14.2804	0.855
14.3187	0.855
14.357	0.855
14.3954	0.855
14.4337	0.855
14.472	0.855
14.5104	0.855
14.5487	0.855
14.587	0.855
14.6254	0.855
14.6637	0.855
14.702	0.855
14.7403	0.855
14.7787	0.855
14.817	0.853
14.8553	0.855
14.8937	0.855
14.932	0.855
14.9703	0.856
