Infrared Spectrum: SUCCINIC ACID, 2-HYDROXYMETHYLENE-3-ISOPROPYLIDENE-, DIMETHYL ESTER
Formula: C10 H14 O5
Class: COBLENTZ
Instrument: Not specified, most likely a prism, grating, or hybrid spectrometer.
Sampling: TRANSMISSION
Path length: SMEAR
Resolution: 4
Origin: TENNESSEE EASTMAN COMPANY, RESEARCH LABORATORIES
MICROMETERS	TRANSMITTANCE
2.048	0.903
2.089	0.905
2.13001	0.903
2.17101	0.9
2.21201	0.828
2.25301	0.821
2.29402	0.849
2.33502	0.852
2.37602	0.854
2.41703	0.862
2.45803	0.873
2.49903	0.874
2.54003	0.888
2.58104	0.9
2.62204	0.903
2.66304	0.91
2.70405	0.909
2.74505	0.903
2.78605	0.9
2.82705	0.869
2.86806	0.814
2.90906	0.718
2.95006	0.579
2.99107	0.523
3.03207	0.502
3.07307	0.49
3.11407	0.469
3.15508	0.463
3.19608	0.411
3.23708	0.344
3.27809	0.289
3.31909	0.113
3.36009	0.111
3.40109	0.111
3.4421	0.238
3.4831	0.259
3.5241	0.423
3.5651	0.536
3.60611	0.581
3.64711	0.588
3.68811	0.65
3.72912	0.711
3.77012	0.74
3.81112	0.758
3.85212	0.775
3.89313	0.785
3.93413	0.807
3.97513	0.795
4.01614	0.819
4.05714	0.821
4.09814	0.814
4.13914	0.806
4.18015	0.804
4.22115	0.837
4.26215	0.843
4.30316	0.845
4.34416	0.881
4.38516	0.912
4.42616	0.912
4.46717	0.917
4.50817	0.909
4.54917	0.902
4.59018	0.907
4.63118	0.842
4.67218	0.891
4.71318	0.879
4.75419	0.849
4.79519	0.861
4.83619	0.885
4.8772	0.89
4.9182	0.866
4.9592	0.838
5.0002	0.835
5.04121	0.816
5.08221	0.814
5.12321	0.838
5.16422	0.857
5.20522	0.85
5.24622	0.85
5.28722	0.871
5.32823	0.888
5.36923	0.878
5.41023	0.845
5.45124	0.835
5.49224	0.79
5.53324	0.751
5.57424	0.694
5.61525	0.607
5.65625	0.526
5.69725	0.463
5.73826	0.396
5.77926	0.056
5.82026	0.039
5.86126	0.126
5.90227	0.204
5.94327	0.058
5.98427	0.022
6.02528	0.048
6.06628	0.18
6.10728	0.233
6.14828	0.209
6.18929	0.214
6.23029	0.221
6.27129	0.373
6.3123	0.536
6.3533	0.643
6.3943	0.704
6.4353	0.759
6.47631	0.766
6.51731	0.787
6.55831	0.783
6.59931	0.785
6.64032	0.775
6.68132	0.746
6.72232	0.704
6.76333	0.586
6.80433	0.415
6.84533	0.238
6.88633	0.082
6.92734	0.087
6.96834	0.334
7.00934	0.492
7.05035	0.634
7.09135	0.638
7.13235	0.54
7.17335	0.336
7.21436	0.173
7.25536	0.135
7.29636	0.13
7.33737	0.245
7.37837	0.262
7.41937	0.106
7.46037	0.094
7.50138	0.233
7.54238	0.379
7.58338	0.432
7.62439	0.391
7.66539	0.283
7.70639	0.222
7.74739	0.125
7.7884	0.06
7.8294	0.053
7.8704	0.09
7.91141	0.19
7.95241	0.295
7.99341	0.341
8.03441	0.288
8.07542	0.166
8.11642	0.048
8.15742	0.027
8.19843	0.029
8.23943	0.049
8.28043	0.041
8.32143	0.065
8.36244	0.034
8.40344	0.068
8.44444	0.157
8.48545	0.192
8.52645	0.123
8.56745	0.041
8.60845	0.017
8.64946	0.017
8.69046	0.039
8.73146	0.104
8.77247	0.202
8.81347	0.31
8.85447	0.368
8.89547	0.401
8.93648	0.439
8.97748	0.464
9.01848	0.447
9.05949	0.329
9.10049	0.204
9.14149	0.097
9.18249	0.102
9.2235	0.209
9.2645	0.356
9.3055	0.476
9.34651	0.586
9.38751	0.656
9.42851	0.704
9.46951	0.73
9.51052	0.747
9.55152	0.753
9.59252	0.742
9.63352	0.718
9.67453	0.703
9.71553	0.698
9.75653	0.656
9.79754	0.533
9.83854	0.413
9.87954	0.337
9.92054	0.332
9.96155	0.427
10.0026	0.469
10.0436	0.437
10.0846	0.399
10.1256	0.439
10.1666	0.468
10.2076	0.521
10.2486	0.533
10.2896	0.53
10.3306	0.523
10.3716	0.523
10.4126	0.533
10.4536	0.59
10.4946	0.658
10.5356	0.732
10.5766	0.795
10.6176	0.825
10.6586	0.837
10.6996	0.837
10.7406	0.828
10.7816	0.782
10.8226	0.742
10.8636	0.792
10.9046	0.84
10.9456	0.85
10.9866	0.855
11.0276	0.869
11.0686	0.891
11.1096	0.891
11.1506	0.89
11.1916	0.881
11.2326	0.869
11.2736	0.852
11.3146	0.816
11.3556	0.756
11.3966	0.692
11.4376	0.629
11.4787	0.639
11.5197	0.696
11.5607	0.744
11.6017	0.756
11.6427	0.751
11.6837	0.722
11.7247	0.687
11.7657	0.648
11.8067	0.595
11.8477	0.545
11.8887	0.497
11.9297	0.444
11.9707	0.399
12.0117	0.349
12.0527	0.322
12.0937	0.305
12.1347	0.293
12.1757	0.293
12.2167	0.329
12.2577	0.368
12.2987	0.421
12.3397	0.457
12.3807	0.473
12.4217	0.485
12.4627	0.506
12.5037	0.526
12.5447	0.54
12.5857	0.528
12.6267	0.499
12.6677	0.493
12.7087	0.511
12.7497	0.533
12.7907	0.547
12.8317	0.569
12.8727	0.593
12.9138	0.608
12.9548	0.608
12.9958	0.552
13.0368	0.456
13.0778	0.403
13.1188	0.457
13.1598	0.569
13.2008	0.638
13.2418	0.686
13.2828	0.716
13.3238	0.742
13.3648	0.765
13.4058	0.78
13.4468	0.787
13.4878	0.795
13.5288	0.802
13.5698	0.804
13.6108	0.806
13.6518	0.809
13.6928	0.811
13.7338	0.814
13.7748	0.814
13.8158	0.818
13.8568	0.814
13.8978	0.816
13.9388	0.813
13.9798	0.816
14.0208	0.816
14.0618	0.811
14.1028	0.804
14.1438	0.806
14.1848	0.801
14.2258	0.802
14.2668	0.797
14.3078	0.789
14.3489	0.789
14.3899	0.785
14.4309	0.78
14.4719	0.773
14.5129	0.771
14.5539	0.768
14.5949	0.761
14.6359	0.758
14.6769	0.751
14.7179	0.751
14.7589	0.744
14.7999	0.74
14.8409	0.735
14.8819	0.73
14.9229	0.722
14.9639	0.718
15.0049	0.713
15.0459	0.704
15.0869	0.704
15.1279	0.701
15.1689	0.696
15.2099	0.687
15.2509	0.68
15.2919	0.674
15.3329	0.67
15.3739	0.663
15.4149	0.656
15.4559	0.653
15.4969	0.648
15.5379	0.641
15.5789	0.634
15.6199	0.629
15.6609	0.622
15.7019	0.619
15.7429	0.614
15.784	0.608
15.825	0.603
15.866	0.6
15.907	0.596
15.948	0.591
15.989	0.586
