Infrared Spectrum: ISOQUINOLINE, 6,7-DIMETHOXY-8-HYDROXY-1,2,3,4-TETRAHYDRO-,HYDROCHLORIDE
Formula: C11 H16 Cl N O3
State: SOLID (KBr DISC)
Class: COBLENTZ III
Instrument: PERKIN-ELMER 21 (GRATING)
Instrument parameters: FILTER AT ABOUT 10 MICRONS
Sampling: TRANSMISSION
Resolution: 2
1/CM	TRANSMITTANCE
4000	0.572
3991	0.5731
3982	0.5743
3973	0.5756
3964	0.5768
3955	0.5781
3946	0.5793
3937	0.5806
3928	0.5818
3919	0.5831
3910	0.5844
3901	0.5856
3892	0.587
3883	0.5883
3874	0.5896
3865	0.5909
3856	0.5923
3847	0.5936
3838	0.595
3829	0.5964
3820	0.5978
3811	0.599
3802	0.6004
3793	0.6016
3784	0.603
3775	0.6042
3766	0.6053
3757	0.6062
3748	0.6075
3739	0.6085
3730	0.6091
3721	0.6097
3712	0.6102
3703	0.6109
3694	0.6116
3685	0.6121
3676	0.6128
3667	0.6132
3658	0.6136
3649	0.613
3640	0.612
3631	0.6102
3622	0.6058
3613	0.5993
3604	0.5926
3595	0.5853
3586	0.5775
3577	0.5697
3568	0.5618
3559	0.5529
3550	0.5437
3541	0.5345
3532	0.5235
3523	0.511
3514	0.4994
3505	0.4915
3496	0.4837
3487	0.4759
3478	0.4616
3469	0.4445
3460	0.425
3451	0.4115
3442	0.4024
3433	0.3953
3424	0.39
3415	0.3859
3406	0.3827
3397	0.3808
3388	0.3802
3379	0.3796
3370	0.3788
3361	0.3777
3352	0.3736
3343	0.3486
3334	0.3256
3325	0.3026
3316	0.2766
3307	0.2753
3298	0.2755
3289	0.2854
3280	0.2987
3271	0.3121
3262	0.3255
3253	0.3391
3244	0.3527
3235	0.3664
3226	0.3802
3217	0.394
3208	0.408
3199	0.4219
3190	0.436
3181	0.4502
3172	0.4644
3163	0.4787
3154	0.4932
3145	0.506
3136	0.5124
3127	0.5178
3118	0.5231
3109	0.5264
3100	0.5286
3091	0.5301
3082	0.53
3073	0.5283
3064	0.5198
3055	0.4891
3046	0.4474
3037	0.4053
3028	0.363
3019	0.3205
3010	0.2777
3001	0.2347
2992	0.1913
2983	0.1784
2974	0.1769
2965	0.1769
2956	0.1844
2947	0.2046
2938	0.2259
2929	0.2471
2920	0.2684
2911	0.2838
2902	0.2842
2893	0.2813
2884	0.2763
2875	0.2705
2866	0.2645
2857	0.2605
2848	0.2575
2839	0.2542
2830	0.2416
2821	0.2218
2812	0.2056
2803	0.1925
2794	0.1878
2785	0.1869
2776	0.1934
2767	0.2134
2758	0.2309
2749	0.2474
2740	0.2617
2731	0.2666
2722	0.2693
2713	0.2727
2704	0.2792
2695	0.293
2686	0.3062
2677	0.3192
2668	0.3307
2659	0.3386
2650	0.3534
2641	0.377
2632	0.3955
2623	0.4106
2614	0.4246
2605	0.4401
2596	0.4525
2587	0.4618
2578	0.4678
2569	0.4718
2560	0.4725
2551	0.4712
2542	0.4737
2533	0.481
2524	0.4875
2515	0.4923
2506	0.4951
2497	0.4962
2488	0.4958
2479	0.495
2470	0.4956
2461	0.4996
2452	0.5125
2443	0.5276
2434	0.5429
2425	0.5587
2416	0.57
2407	0.5803
2398	0.5885
2389	0.5944
2380	0.5991
2371	0.6026
2362	0.6059
2353	0.6081
2344	0.6103
2335	0.6131
2326	0.619
2317	0.626
2308	0.6343
2299	0.6428
2290	0.6517
2281	0.6592
2272	0.6653
2263	0.6714
2254	0.6758
2245	0.6796
2236	0.6832
2227	0.6849
2218	0.6861
2209	0.6872
2200	0.6904
2191	0.6934
2182	0.6951
2173	0.6962
2164	0.6971
2155	0.699
2146	0.7022
2137	0.7092
2128	0.7122
2119	0.7117
2110	0.7076
2101	0.704
2092	0.7005
2083	0.7005
2074	0.7068
2065	0.7134
2056	0.7175
2047	0.7214
2038	0.7249
2029	0.7278
2020	0.731
2011	0.734
2002	0.7371
1993	0.7403
1984	0.7435
1975	0.7467
1966	0.7518
1957	0.7568
1948	0.7608
1939	0.7632
1930	0.7635
1921	0.7624
1912	0.7618
1903	0.7701
1894	0.7781
1885	0.7839
1876	0.7867
1867	0.7869
1858	0.7845
1849	0.7878
1840	0.7921
1831	0.7951
1822	0.7982
1813	0.8008
1804	0.8036
1795	0.8062
1786	0.8092
1777	0.8128
1768	0.8162
1759	0.816
1750	0.8137
1741	0.811
1732	0.8074
1723	0.8048
1714	0.8084
1705	0.8111
1696	0.8117
1687	0.8024
1678	0.778
1669	0.7592
1660	0.7534
1651	0.7395
1642	0.6874
1633	0.436
1624	0.4136
1615	0.558
1606	0.3562
1597	0.1092
1588	0.3083
1579	0.5194
1570	0.6454
1561	0.6954
1552	0.7533
1543	0.7732
1534	0.779
1525	0.544
1516	0.1685
1507	0.3674
1498	0.5577
1489	0.5847
1480	0.5912
1471	0.3492
1462	0.3131
1453	0.3177
1444	0.3729
1435	0.1569
1426	0.3344
1417	0.5288
1408	0.6099
1399	0.653
1390	0.5862
1381	0.4441
1372	0.2657
1363	0.4664
1354	0.5532
1345	0.5841
1336	0.6145
1327	0.6415
1318	0.5035
1309	0.428
1300	0.2421
1291	0.3308
1282	0.5538
1273	0.6002
1264	0.501
1255	0.2749
1246	0.3689
1237	0.4032
1228	0.3609
1219	0.3848
1210	0.5367
1201	0.3414
1192	0.3058
1183	0.3554
1174	0.5371
1165	0.6262
1156	0.6705
1147	0.6372
1138	0.3105
1129	0.1668
1120	0.1599
1111	0.1379
1102	0.3007
1093	0.4133
1084	0.5268
1075	0.5792
1066	0.6249
1057	0.6544
1048	0.4189
1039	0.5997
1030	0.5281
1021	0.325
1012	0.3524
1003	0.3908
994	0.5483
985	0.6234
976	0.6329
967	0.6078
958	0.651
949	0.5984
940	0.6812
931	0.7095
922	0.7225
913	0.7405
904	0.748
895	0.7475
886	0.7274
877	0.7435
868	0.6152
859	0.6403
850	0.7272
841	0.756
832	0.7642
823	0.7717
814	0.7547
805	0.4631
796	0.4499
787	0.6921
778	0.7337
769	0.7575
760	0.7154
751	0.7636
742	0.7712
733	0.7172
724	0.7251
715	0.7606
706	0.7637
697	0.7225
688	0.7275
679	0.6926
