Infrared Spectrum: BENZOIC ACID, 3,5-DINITRO-,SILVER SALT
Formula: C7 H3 Ag N2 O6
State: SOLID (SPLIT MULL), FLUOROLUBE FOR 3800-1335 CM^-^1, NUJOL FOR 1335-460 CM^-^1
Class: COBLENTZ III
Instrument: DOW KBr FOREPRISM-GRATING
Instrument parameters: BLAZED AT 3.5, 12.0, 20.0 MICRON AND CHANGED AT 5.0, 7.5, 14.9 MICRON
Sampling: TRANSMISSION
Resolution: 2
Origin: DOW CHEMICAL COMPANY
1/CM	TRANSMITTANCE
458	0.7435
467	0.7555
476	0.7671
485	0.7747
494	0.7762
503	0.7661
512	0.7426
521	0.6762
530	0.4484
539	0.6068
548	0.6783
557	0.7836
566	0.7968
575	0.8058
584	0.8115
593	0.8171
602	0.8178
611	0.8147
620	0.8119
629	0.8242
638	0.8196
647	0.7858
656	0.8122
665	0.8182
674	0.8411
683	0.8375
692	0.8165
701	0.76
710	0.6751
719	0.0103
728	0.0593
737	0.6023
746	0.7595
755	0.8101
764	0.8262
773	0.8295
782	0.7878
791	0.6817
800	0.7264
809	0.8402
818	0.7586
827	0.8378
836	0.8371
845	0.8348
854	0.8323
863	0.83
872	0.8271
881	0.8221
890	0.8128
899	0.8037
908	0.7705
917	0.465
926	0.3654
935	0.484
944	0.7692
953	0.7868
962	0.7245
971	0.6685
980	0.7989
989	0.8044
998	0.8025
1007	0.8028
1016	0.7995
1025	0.7926
1034	0.7838
1043	0.7748
1052	0.7549
1061	0.7076
1070	0.419
1079	0.4088
1088	0.4319
1097	0.5143
1106	0.7455
1115	0.7601
1124	0.7669
1133	0.7744
1142	0.7654
1151	0.7591
1160	0.7567
1169	0.7465
1178	0.723
1187	0.6395
1196	0.7137
1205	0.7321
1214	0.7265
1223	0.7226
1232	0.6949
1241	0.7022
1250	0.6831
1259	0.6478
1268	0.6319
1277	0.6359
1286	0.6267
1295	0.5833
1304	0.5119
1313	0.445
1322	0.2671
1331	0.0713
1340	0.0001
1349	0.0123
1358	0.2082
1367	0.2418
1376	0.0916
1385	0.0441
1394	0.4472
1403	0.5375
1412	0.5317
1421	0.543
1430	0.5287
1439	0.4018
1448	0.3899
1457	0.2233
1466	0.3658
1475	0.5686
1484	0.5291
1493	0.4473
1502	0.2724
1511	0.0995
1520	0.0085
1529	0.0126
1538	0.0032
1547	0.1038
1556	0.0477
1565	0.0301
1574	0.271
1583	0.4412
1592	0.4392
1601	0.0045
1610	0.2598
1619	0.257
1628	0.4005
1637	0.7269
1646	0.8136
1655	0.853
1664	0.8764
1673	0.8731
1682	0.8663
1691	0.8597
1700	0.8552
1709	0.851
1718	0.8474
1727	0.8537
1736	0.8607
1745	0.8615
1754	0.8595
1763	0.8563
1772	0.853
1781	0.8496
1790	0.846
1799	0.8421
1808	0.8375
1817	0.8312
1826	0.8191
1835	0.7938
1844	0.7147
1853	0.8171
1862	0.8033
1871	0.7939
1880	0.8001
1889	0.803
1898	0.7924
1907	0.7919
1916	0.7908
1925	0.7798
1934	0.7861
1943	0.7871
1952	0.7775
1961	0.7845
1970	0.7811
1979	0.7767
1988	0.7725
1997	0.8143
2006	0.8086
2015	0.8044
2024	0.8001
2033	0.7958
2042	0.7915
2051	0.7867
2060	0.7815
2069	0.7762
2078	0.771
2087	0.7656
2096	0.7603
2105	0.7551
2114	0.7507
2123	0.7465
2132	0.7421
2141	0.7375
2150	0.7331
2159	0.7286
2168	0.7241
2177	0.7198
2186	0.7154
2195	0.711
2204	0.7068
2213	0.701
2222	0.6931
2231	0.6848
2240	0.6768
2249	0.6688
2258	0.6608
2267	0.655
2276	0.6521
2285	0.6494
2294	0.6437
2303	0.6357
2312	0.6285
2321	0.6264
2330	0.6251
2339	0.6243
2348	0.6244
2357	0.625
2366	0.6253
2375	0.6252
2384	0.6252
2393	0.6244
2402	0.6225
2411	0.6164
2420	0.611
2429	0.6067
2438	0.604
2447	0.6012
2456	0.5986
2465	0.5958
2474	0.5933
2483	0.5914
2492	0.5895
2501	0.5864
2510	0.5824
2519	0.5781
2528	0.5766
2537	0.5796
2546	0.5819
2555	0.5795
2564	0.576
2573	0.5722
2582	0.5684
2591	0.5651
2600	0.5626
2609	0.5597
2618	0.5566
2627	0.5533
2636	0.5499
2645	0.5464
2654	0.5431
2663	0.5399
2672	0.5368
2681	0.5328
2690	0.529
2699	0.525
2708	0.5214
2717	0.5177
2726	0.5141
2735	0.5098
2744	0.5049
2753	0.5
2762	0.495
2771	0.4892
2780	0.4831
2789	0.4752
2798	0.4731
2807	0.4737
2816	0.4731
2825	0.4657
2834	0.451
2843	0.4376
2852	0.4293
2861	0.4266
2870	0.4296
2879	0.4357
2888	0.4423
2897	0.4342
2906	0.4284
2915	0.4223
2924	0.4164
2933	0.411
2942	0.4078
2951	0.4117
2960	0.4162
2969	0.4212
2978	0.4202
2987	0.4152
2996	0.4103
3005	0.4049
3014	0.3986
3023	0.3914
3032	0.3829
3041	0.3732
3050	0.3634
3059	0.3499
3068	0.3348
3077	0.3161
3086	0.295
3095	0.2334
3104	0.1454
3113	0.1565
3122	0.2844
3131	0.4222
3140	0.4175
3149	0.4082
3158	0.3989
3167	0.3956
3176	0.3953
3185	0.3937
3194	0.39
3203	0.386
3212	0.383
3221	0.38
3230	0.3773
3239	0.3744
3248	0.3716
3257	0.3687
3266	0.3659
3275	0.363
3284	0.36
3293	0.3572
3302	0.3543
3311	0.3514
3320	0.3486
3329	0.3457
3338	0.3428
3347	0.3398
3356	0.337
3365	0.334
3374	0.3312
3383	0.3282
3392	0.3254
3401	0.3225
3410	0.3197
3419	0.3169
3428	0.3141
3437	0.3112
3446	0.3084
3455	0.3058
3464	0.3033
3473	0.3008
3482	0.2982
3491	0.2957
3500	0.2932
3509	0.2906
3518	0.2882
3527	0.2861
3536	0.2841
3545	0.282
3554	0.28
3563	0.2779
3572	0.2759
3581	0.2738
3590	0.2722
3599	0.2709
3608	0.2696
3617	0.2682
3626	0.267
3635	0.2656
3644	0.2645
3653	0.2635
3662	0.2626
3671	0.2615
3680	0.2597
3689	0.2578
3698	0.256
3707	0.2541
3716	0.252
3725	0.2499
3734	0.2478
3743	0.2451
3752	0.2425
3761	0.2399
3770	0.2372
3779	0.2345
3788	0.2317
3797	0.229
