Infrared Spectrum: Benzimidazole, 4-amino-5,7-difluoro-, hydrochloride
Formula: C7 H6 Cl F2 N3
State: SOLID (0.8 mg / 650 mg KBr DISC)
Class: COBLENTZ III
Instrument: PERKIN-ELMER 21 (GRATING)
Instrument parameters: FILTER CHANGE ABOUT 1020 CM^-^1
Sampling: TRANSMISSION
Resolution: 2
Origin: SOUTHERN RESEARCH INSTITUTE
1/CM	TRANSMITTANCE
604.291	0.6432
613.325	0.6408
622.358	0.6371
631.392	0.6286
640.426	0.6149
649.459	0.5996
658.493	0.5956
667.527	0.5739
676.56	0.5126
685.594	0.5091
694.628	0.637
703.661	0.6377
712.695	0.6318
721.729	0.623
730.762	0.6284
739.796	0.6821
748.83	0.705
757.863	0.7008
766.897	0.6854
775.931	0.6682
784.964	0.6405
793.998	0.5945
803.032	0.5351
812.065	0.5199
821.099	0.4833
830.133	0.4712
839.166	0.3952
848.2	0.3958
857.234	0.602
866.267	0.738
875.301	0.7624
884.334	0.7632
893.368	0.7473
902.402	0.6621
911.435	0.6284
920.469	0.6423
929.503	0.6537
938.536	0.6629
947.57	0.7629
956.604	0.7777
965.637	0.7863
974.671	0.8092
983.705	0.813
992.738	0.8137
1001.77	0.8131
1010.81	0.8112
1019.84	0.8084
1028.87	0.7854
1037.91	0.7579
1046.94	0.7584
1055.97	0.7917
1065.01	0.7848
1074.04	0.7793
1083.08	0.7759
1092.11	0.7628
1101.14	0.7339
1110.18	0.646
1119.21	0.2526
1128.24	0.3741
1137.28	0.7498
1146.31	0.7549
1155.34	0.7179
1164.38	0.5724
1173.41	0.4867
1182.45	0.6494
1191.48	0.7088
1200.51	0.643
1209.55	0.5546
1218.58	0.4946
1227.61	0.7762
1236.65	0.8213
1245.68	0.818
1254.71	0.8074
1263.75	0.7893
1272.78	0.7686
1281.82	0.6583
1290.85	0.4555
1299.88	0.8059
1308.92	0.8147
1317.95	0.8072
1326.98	0.7889
1336.02	0.7677
1345.05	0.6888
1354.08	0.4842
1363.12	0.5308
1372.15	0.6267
1381.19	0.5249
1390.22	0.5804
1399.25	0.4895
1408.29	0.2084
1417.32	0.0637
1426.35	0.1204
1435.39	0.5921
1444.42	0.7538
1453.46	0.7923
1462.49	0.7977
1471.52	0.79
1480.56	0.7714
1489.59	0.7129
1498.62	0.6311
1507.66	0.3572
1516.69	0.2033
1525.72	0.3179
1534.76	0.5876
1543.79	0.4374
1552.83	0.1803
1561.86	0.3784
1570.89	0.6616
1579.93	0.7037
1588.96	0.6885
1597.99	0.6736
1607.03	0.5875
1616.06	0.4528
1625.09	0.592
1634.13	0.5659
1643.16	0.4881
1652.2	0.4144
1661.23	0.6068
1670.26	0.6629
1679.3	0.6827
1688.33	0.735
1697.36	0.7568
1706.4	0.7658
1715.43	0.7763
1724.46	0.7857
1733.5	0.8017
1742.53	0.8086
1751.57	0.8174
1760.6	0.8244
1769.63	0.8295
1778.67	0.835
1787.7	0.844
1796.73	0.8524
1805.77	0.8539
1814.8	0.8504
1823.84	0.844
1832.87	0.8313
1841.9	0.8367
1850.94	0.8469
1859.97	0.8596
1869	0.8705
1878.04	0.8728
1887.07	0.8747
1896.1	0.8745
1905.14	0.8743
1914.17	0.8736
1923.21	0.8724
1932.24	0.8707
1941.27	0.8683
1950.31	0.8678
1959.34	0.8735
1968.37	0.8752
1977.41	0.8747
1986.44	0.8774
1995.47	0.8797
2004.51	0.8792
2013.54	0.875
2022.58	0.8723
2031.61	0.8703
2040.64	0.8685
2049.68	0.8667
2058.71	0.8648
2067.74	0.8641
2076.78	0.8622
2085.81	0.8591
2094.85	0.8559
2103.88	0.857
2112.91	0.8576
2121.95	0.8568
2130.98	0.8556
2140.01	0.8541
2149.05	0.8515
2158.08	0.8481
2167.11	0.8451
2176.15	0.8416
2185.18	0.8374
2194.22	0.8327
2203.25	0.8282
2212.28	0.8238
2221.32	0.8196
2230.35	0.8154
2239.38	0.8109
2248.42	0.8064
2257.45	0.802
2266.48	0.797
2275.52	0.7908
2284.55	0.7817
2293.59	0.7726
2302.62	0.761
2311.65	0.7397
2320.69	0.7037
2329.72	0.6811
2338.75	0.677
2347.79	0.6749
2356.82	0.6737
2365.85	0.6731
2374.89	0.6713
2383.92	0.6644
2392.96	0.6576
2401.99	0.6462
2411.02	0.6305
2420.06	0.59
2429.09	0.567
2438.12	0.5479
2447.16	0.5346
2456.19	0.5389
2465.23	0.5358
2474.26	0.517
2483.29	0.4847
2492.33	0.4547
2501.36	0.424
2510.39	0.3943
2519.43	0.3556
2528.46	0.3179
2537.49	0.2873
2546.53	0.2691
2555.56	0.2436
2564.6	0.2294
2573.63	0.2546
2582.66	0.2914
2591.7	0.3026
2600.73	0.2932
2609.76	0.273
2618.8	0.2641
2627.83	0.2521
2636.86	0.2246
2645.9	0.1932
2654.93	0.1705
2663.97	0.1516
2673	0.1302
2682.03	0.1197
2691.07	0.12
2700.1	0.1207
2709.13	0.1199
2718.17	0.1144
2727.2	0.1094
2736.24	0.113
2745.27	0.1208
2754.3	0.131
2763.34	0.1446
2772.37	0.1578
2781.4	0.1804
2790.44	0.196
2799.47	0.199
2808.5	0.2056
2817.54	0.2184
2826.57	0.2299
2835.61	0.2342
2844.64	0.2367
2853.67	0.2538
2862.71	0.2812
2871.74	0.3137
2880.77	0.3536
2889.81	0.3834
2898.84	0.4024
2907.87	0.4051
2916.91	0.3872
2925.94	0.342
2934.98	0.2671
2944.01	0.2164
2953.04	0.199
2962.08	0.1941
2971.11	0.2018
2980.14	0.226
2989.18	0.2587
2998.21	0.2887
3007.24	0.354
3016.28	0.3873
3025.31	0.3981
3034.35	0.4034
3043.38	0.4035
3052.41	0.3992
3061.45	0.3896
3070.48	0.3779
3079.51	0.3644
3088.55	0.3608
3097.58	0.3696
3106.62	0.399
3115.65	0.4718
3124.68	0.5541
3133.72	0.5983
3142.75	0.6239
3151.78	0.6335
3160.82	0.6348
3169.85	0.6255
3178.88	0.591
3187.92	0.5585
3196.95	0.5309
3205.99	0.5208
3215.02	0.5405
3224.05	0.6062
3233.09	0.6289
3242.12	0.631
3251.15	0.6195
3260.19	0.6008
3269.22	0.5952
3278.25	0.5903
3287.29	0.5609
3296.32	0.5233
3305.36	0.4825
3314.39	0.4419
3323.42	0.4011
3332.46	0.3594
3341.49	0.3745
3350.52	0.4101
3359.56	0.5148
3368.59	0.5953
3377.63	0.6279
3386.66	0.6406
3395.69	0.6463
3404.73	0.647
3413.76	0.6457
3422.79	0.6426
3431.83	0.6367
3440.86	0.6291
3449.89	0.6189
3458.93	0.6
3467.96	0.5652
3477	0.529
3486.03	0.4781
3495.06	0.4557
3504.1	0.5189
3513.13	0.6281
3522.16	0.6814
3531.2	0.7175
3540.23	0.7417
3549.26	0.7581
3558.3	0.7647
3567.33	0.7804
3576.37	0.7939
3585.4	0.802
3594.43	0.8126
3603.47	0.8233
3612.5	0.8284
3621.53	0.8367
3630.57	0.8548
3639.6	0.8662
3648.63	0.8691
3657.67	0.8768
3666.7	0.8785
3675.74	0.8796
3684.77	0.8805
3693.8	0.8815
3702.84	0.8826
3711.87	0.8829
3720.9	0.8832
3729.94	0.8838
3738.97	0.8847
3748.01	0.8858
3757.04	0.8871
3766.07	0.8891
3775.11	0.8912
3784.14	0.8914
3793.17	0.8896
3802.21	0.8847
3811.24	0.8807
3820.27	0.8793
3829.31	0.8789
3838.34	0.879
3847.38	0.8799
3856.41	0.8807
3865.44	0.8809
3874.48	0.8814
3883.51	0.8822
3892.54	0.8828
3901.58	0.8831
3910.61	0.8828
3919.64	0.881
3928.68	0.8762
3937.71	0.8731
3946.75	0.8724
3955.78	0.8719
3964.81	0.8722
3973.85	0.8731
3982.88	0.8745
3991.91	0.8753
4000.95	0.876
4009.98	0.8788
