Infrared Spectrum: DIETHYL 1,1'-FERROCENE DICARBAMATE
Formula: C16 H20 Fe N2 O4
State: SOLID (MINERAL OIL MULL)
Melting point: 119.5-120 C
Class: COBLENTZ
Instrument: Not specified, most likely a prism, grating, or hybrid spectrometer.
Sampling: TRANSMISSION
Resolution: 4
Origin: WYANDOTTE CHEMICALS CORP., WYANDOTTE, MICHIGAN, USA
MICROMETERS	TRANSMITTANCE
2.007	0.805
2.04788	0.806
2.08875	0.818
2.12963	0.815
2.1705	0.803
2.21138	0.782
2.25226	0.805
2.29313	0.811
2.33401	0.801
2.37488	0.815
2.41576	0.822
2.45664	0.822
2.49751	0.822
2.53839	0.841
2.57926	0.829
2.62014	0.851
2.66102	0.852
2.70189	0.856
2.74277	0.861
2.78364	0.856
2.82452	0.852
2.8654	0.815
2.90627	0.697
2.94715	0.671
2.98802	0.695
3.0289	0.2
3.06978	0.598
3.11065	0.723
3.15153	0.769
3.1924	0.704
3.23328	0.635
3.27416	0.705
3.31503	0.495
3.35591	0.138
3.39678	0.049
3.43766	0.111
3.47854	0.172
3.51941	0.307
3.56029	0.705
3.60116	0.774
3.64204	0.779
3.68292	0.784
3.72379	0.813
3.76467	0.818
3.80555	0.823
3.84642	0.83
3.8873	0.837
3.92817	0.851
3.96905	0.863
4.00993	0.863
4.0508	0.864
4.09168	0.866
4.13255	0.866
4.17343	0.866
4.21431	0.864
4.25518	0.856
4.29606	0.863
4.33693	0.87
4.37781	0.882
4.41869	0.866
4.45956	0.868
4.50044	0.873
4.54131	0.873
4.58219	0.875
4.62307	0.873
4.66394	0.882
4.70482	0.888
4.74569	0.894
4.78657	0.895
4.82745	0.895
4.86832	0.897
4.9092	0.899
4.95007	0.9
4.99095	0.899
5.03183	0.897
5.0727	0.888
5.11358	0.892
5.15445	0.888
5.19533	0.895
5.23621	0.899
5.27708	0.897
5.31796	0.888
5.35883	0.875
5.39971	0.875
5.44059	0.871
5.48146	0.866
5.52234	0.868
5.56321	0.858
5.60409	0.829
5.64497	0.801
5.68584	0.748
5.72672	0.543
5.76759	0.092
5.80847	0.437
5.84935	0.47
5.89022	0.278
5.9311	0.066
5.97197	0.347
6.01285	0.605
6.05373	0.634
6.0946	0.682
6.13548	0.688
6.17635	0.688
6.21723	0.611
6.25811	0.441
6.29898	0.292
6.33986	0.15
6.38073	0.068
6.42161	0.044
6.46249	0.058
6.50336	0.21
6.54424	0.401
6.58511	0.57
6.62599	0.658
6.66687	0.605
6.70774	0.362
6.74862	0.41
6.78949	0.329
6.83037	0.292
6.87125	0.329
6.91212	0.398
6.953	0.572
6.99387	0.668
7.03475	0.687
7.07563	0.682
7.1165	0.591
7.15738	0.447
7.19825	0.23
7.23913	0.148
7.28001	0.317
7.32088	0.394
7.36176	0.483
7.40264	0.196
7.44351	0.364
7.48439	0.557
7.52526	0.601
7.56614	0.618
7.60702	0.569
7.64789	0.523
7.68877	0.478
7.72964	0.482
7.77052	0.473
7.8114	0.389
7.85227	0.261
7.89315	0.131
7.93402	0.037
7.9749	0.063
8.01578	0.087
8.05665	0.121
8.09753	0.109
8.1384	0.307
8.17928	0.529
8.22016	0.555
8.26103	0.374
8.30191	0.177
8.34278	0.092
8.38366	0.309
8.42454	0.514
8.46541	0.598
8.50629	0.603
8.54716	0.594
8.58804	0.632
8.62892	0.675
8.66979	0.709
8.71067	0.726
8.75154	0.757
8.79242	0.758
8.8333	0.762
8.87417	0.747
8.91505	0.695
8.95592	0.62
8.9968	0.646
9.03768	0.622
9.07855	0.502
9.11943	0.4
9.1603	0.353
9.20118	0.241
9.24206	0.104
9.28293	0.1
9.32381	0.225
9.36468	0.415
9.40556	0.435
9.44644	0.449
9.48731	0.314
9.52819	0.451
9.56906	0.505
9.60994	0.576
9.65082	0.452
9.69169	0.381
9.73257	0.435
9.77344	0.396
9.81432	0.3
9.8552	0.514
9.89607	0.635
9.93695	0.695
9.97782	0.716
10.0187	0.738
10.0596	0.745
10.1005	0.748
10.1413	0.757
10.1822	0.748
10.2231	0.753
10.264	0.758
10.3048	0.758
10.3457	0.76
10.3866	0.762
10.4275	0.76
10.4683	0.76
10.5092	0.753
10.5501	0.738
10.591	0.702
10.6318	0.582
10.6727	0.391
10.7136	0.333
10.7545	0.446
10.7953	0.601
10.8362	0.7
10.8771	0.719
10.918	0.741
10.9588	0.752
10.9997	0.757
11.0406	0.758
11.0815	0.76
11.1224	0.75
11.1632	0.709
11.2041	0.642
11.245	0.582
11.2859	0.57
11.3267	0.623
11.3676	0.675
11.4085	0.731
11.4494	0.747
11.4902	0.758
11.5311	0.762
11.572	0.748
11.6129	0.741
11.6537	0.729
11.6946	0.69
11.7355	0.618
11.7764	0.564
11.8172	0.632
11.8581	0.709
11.899	0.741
11.9399	0.738
11.9807	0.707
12.0216	0.724
12.0625	0.747
12.1034	0.75
12.1443	0.75
12.1851	0.76
12.226	0.76
12.2669	0.741
12.3078	0.705
12.3486	0.62
12.3895	0.446
12.4304	0.355
12.4713	0.499
12.5121	0.432
12.553	0.447
12.5939	0.605
12.6348	0.699
12.6756	0.74
12.7165	0.758
12.7574	0.753
12.7983	0.74
12.8391	0.697
12.88	0.617
12.9209	0.574
12.9618	0.594
13.0027	0.601
13.0435	0.56
13.0844	0.468
13.1253	0.444
13.1662	0.529
13.207	0.634
13.2479	0.68
13.2888	0.707
13.3297	0.728
13.3705	0.736
13.4114	0.743
13.4523	0.741
13.4932	0.74
13.534	0.74
13.5749	0.747
13.6158	0.752
13.6567	0.755
13.6975	0.764
13.7384	0.767
13.7793	0.767
13.8202	0.767
13.861	0.767
13.9019	0.769
13.9428	0.767
13.9837	0.769
14.0246	0.769
14.0654	0.748
14.1063	0.731
14.1472	0.728
14.1881	0.726
14.2289	0.729
14.2698	0.731
14.3107	0.75
14.3516	0.762
14.3924	0.769
14.4333	0.772
14.4742	0.769
14.5151	0.77
14.5559	0.767
14.5968	0.764
14.6377	0.758
14.6786	0.757
14.7194	0.745
14.7603	0.741
14.8012	0.728
14.8421	0.714
14.8829	0.711
14.9238	0.697
14.9647	0.68
15.0056	0.666
15.0465	0.632
15.0873	0.617
15.1282	0.598
15.1691	0.594
15.21	0.608
15.2508	0.611
15.2917	0.615
15.3326	0.62
15.3735	0.622
15.4143	0.627
15.4552	0.629
15.4961	0.63
15.537	0.639
15.5778	0.644
15.6187	0.647
15.6596	0.649
15.7005	0.652
15.7413	0.654
15.7822	0.659
15.8231	0.661
15.864	0.654
15.9048	0.647
15.9457	0.641
15.9866	0.641
