Infrared Spectrum: Pseudourea, 2-[2-[(4-pyrid-2-yl-butyl) amino]ethyl]-2-thio-
Formula: C12 H23 Br3 N4 S
State: SOLID (1 mg / 650 mg KBr DISC)
Class: COBLENTZ III
Instrument: PERKIN-ELMER 521 (GRATING)
Instrument parameters: FILTERS AT 3150, 2500, 2000, 1150, 700, 410. GRATING CHANGES: 2000, 630
Sampling: TRANSMISSION
Resolution: 2
Origin: SOUTHERN RESEARCH INSTITUTE
1/CM	TRANSMITTANCE
255	0.3332
265	0.4118
275	0.5019
285	0.5857
295	0.6429
305	0.6807
315	0.7085
325	0.7336
335	0.7569
345	0.7765
355	0.7938
365	0.8105
375	0.82
385	0.8192
395	0.8236
405	0.8392
415	0.8442
425	0.8417
435	0.8311
445	0.8144
455	0.7835
465	0.7304
475	0.7547
485	0.7833
495	0.7767
505	0.7852
515	0.7905
525	0.7891
535	0.7844
545	0.7777
555	0.7681
565	0.7469
575	0.73
585	0.7261
595	0.7052
605	0.6883
615	0.6717
625	0.579
635	0.6386
645	0.6181
655	0.6066
665	0.6056
675	0.5943
685	0.5958
695	0.6163
705	0.6585
715	0.6807
725	0.6773
735	0.6676
745	0.6491
755	0.5912
765	0.5446
775	0.6555
785	0.7436
795	0.7992
805	0.8218
815	0.8415
825	0.8553
835	0.8623
845	0.8631
855	0.8613
865	0.8722
875	0.8752
885	0.876
895	0.8704
905	0.8642
915	0.8546
925	0.8434
935	0.8368
945	0.8493
955	0.8632
965	0.8602
975	0.845
985	0.8164
995	0.7732
1005	0.7392
1015	0.7478
1025	0.7673
1035	0.746
1045	0.7041
1055	0.7034
1065	0.7008
1075	0.704
1085	0.7103
1095	0.7155
1105	0.7244
1115	0.7789
1125	0.8077
1135	0.8068
1145	0.7937
1155	0.7504
1165	0.7521
1175	0.7874
1185	0.7902
1195	0.7844
1205	0.7704
1215	0.7486
1225	0.7276
1235	0.7086
1245	0.7108
1255	0.7015
1265	0.7112
1275	0.7105
1285	0.6967
1295	0.6914
1305	0.6753
1315	0.6847
1325	0.7055
1335	0.7085
1345	0.6942
1355	0.67
1365	0.6565
1375	0.6243
1385	0.566
1395	0.52
1405	0.4777
1415	0.4322
1425	0.4095
1435	0.412
1445	0.4532
1455	0.4862
1465	0.506
1475	0.7468
1485	0.802
1495	0.7975
1505	0.7865
1515	0.7521
1525	0.6473
1535	0.5558
1545	0.7032
1555	0.7368
1565	0.7378
1575	0.7427
1585	0.7539
1595	0.7238
1605	0.4196
1615	0.3649
1625	0.2983
1635	0.2389
1645	0.1451
1655	0.4622
1665	0.7587
1675	0.8538
1685	0.8893
1695	0.9046
1705	0.9118
1715	0.9161
1725	0.9185
1735	0.9187
1745	0.918
1755	0.9174
1765	0.9158
1775	0.9135
1785	0.9113
1795	0.9088
1805	0.9059
1815	0.902
1825	0.901
1835	0.9015
1845	0.9016
1855	0.8997
1865	0.8958
1875	0.8923
1885	0.8901
1895	0.8868
1905	0.883
1915	0.8791
1925	0.8757
1935	0.873
1945	0.8727
1955	0.8745
1965	0.8766
1975	0.8769
1985	0.8741
1995	0.8682
2005	0.8667
2015	0.8686
2025	0.8703
2035	0.8714
2045	0.8729
2055	0.8749
2065	0.8754
2075	0.875
2085	0.8732
2095	0.8694
2105	0.8686
2115	0.8702
2125	0.8718
2135	0.873
2145	0.8717
2155	0.8693
2165	0.8669
2175	0.8646
2185	0.8605
2195	0.8563
2205	0.8526
2215	0.8492
2225	0.846
2235	0.8427
2245	0.8392
2255	0.8346
2265	0.8286
2275	0.8211
2285	0.8127
2295	0.8033
2305	0.7913
2315	0.7784
2325	0.7657
2335	0.7535
2345	0.7422
2355	0.7339
2365	0.7282
2375	0.7195
2385	0.7015
2395	0.6866
2405	0.6744
2415	0.6696
2425	0.6691
2435	0.6707
2445	0.672
2455	0.6677
2465	0.6609
2475	0.6479
2485	0.6324
2495	0.6174
2505	0.601
2515	0.5843
2525	0.5662
2535	0.5454
2545	0.5242
2555	0.505
2565	0.485
2575	0.4656
2585	0.4467
2595	0.4268
2605	0.4081
2615	0.3918
2625	0.3802
2635	0.3701
2645	0.3562
2655	0.3414
2665	0.3213
2675	0.2993
2685	0.2782
2695	0.2635
2705	0.2523
2715	0.2434
2725	0.2369
2735	0.2364
2745	0.2418
2755	0.2502
2765	0.2581
2775	0.2583
2785	0.2579
2795	0.2583
2805	0.2661
2815	0.2753
2825	0.2834
2835	0.2883
2845	0.283
2855	0.2762
2865	0.2685
2875	0.2598
2885	0.2499
2895	0.2372
2905	0.2202
2915	0.1939
2925	0.172
2935	0.1654
2945	0.1691
2955	0.1739
2965	0.1805
2975	0.1784
2985	0.1709
2995	0.1697
3005	0.1701
3015	0.1714
3025	0.1728
3035	0.1752
3045	0.1837
3055	0.1951
3065	0.2064
3075	0.2135
3085	0.2315
3095	0.2394
3105	0.2441
3115	0.2647
3125	0.276
3135	0.2856
3145	0.2931
3155	0.294
3165	0.2939
3175	0.2958
3185	0.3028
3195	0.3088
3205	0.3138
3215	0.3143
3225	0.312
3235	0.3102
3245	0.3127
3255	0.3244
3265	0.3359
3275	0.3475
3285	0.3608
3295	0.3788
3305	0.4144
3315	0.4518
3325	0.4943
3335	0.5286
3345	0.5674
3355	0.6008
3365	0.627
3375	0.6474
3385	0.6678
3395	0.6872
3405	0.7066
3415	0.7228
3425	0.734
3435	0.7437
3445	0.7534
3455	0.7627
3465	0.7705
3475	0.7784
3485	0.7863
3495	0.794
3505	0.8016
3515	0.8093
3525	0.8169
3535	0.8252
3545	0.834
3555	0.8462
3565	0.8484
3575	0.8544
3585	0.8627
3595	0.8689
3605	0.8734
3615	0.8783
3625	0.8836
3635	0.8869
3645	0.8891
3655	0.8887
3665	0.8868
3675	0.8862
3685	0.8864
3695	0.8876
3705	0.8865
3715	0.8851
3725	0.8838
3735	0.8826
3745	0.8814
3755	0.8801
3765	0.8788
3775	0.8771
3785	0.8753
3795	0.8736
3805	0.872
3815	0.8704
3825	0.8689
3835	0.8674
3845	0.8655
3855	0.8631
3865	0.8607
3875	0.8593
3885	0.8584
3895	0.8575
3905	0.8566
3915	0.8558
3925	0.8548
3935	0.8538
3945	0.8531
3955	0.8525
3965	0.8517
3975	0.8506
3985	0.8496
3995	0.8493
