Infrared Spectrum: LEAD CHROMATE
Formula: Pb Cr O4
State: SOLID (NUJOL MULL)
Class: COBLENTZ
Instrument: Not specified, most likely a prism, grating, or hybrid spectrometer.
Sampling: TRANSMISSION
Resolution: 4
Origin: MELLON INSTITUTE
MICROMETERS	TRANSMITTANCE
2.031	0.314
2.07194	0.316
2.11289	0.317
2.15383	0.317
2.19478	0.319
2.23572	0.324
2.27667	0.328
2.31761	0.335
2.35855	0.34
2.3995	0.345
2.44044	0.352
2.48139	0.36
2.52233	0.372
2.56328	0.384
2.60422	0.396
2.64516	0.407
2.68611	0.417
2.72705	0.426
2.768	0.431
2.80894	0.436
2.84989	0.438
2.89083	0.445
2.93177	0.448
2.97272	0.451
3.01366	0.457
3.05461	0.458
3.09555	0.463
3.1365	0.469
3.17744	0.474
3.21838	0.486
3.25933	0.498
3.30027	0.481
3.34122	0.298
3.38216	0.266
3.42311	0.307
3.46405	0.419
3.50499	0.553
3.54594	0.597
3.58688	0.618
3.62783	0.628
3.66877	0.634
3.70972	0.639
3.75066	0.646
3.7916	0.651
3.83255	0.656
3.87349	0.661
3.91444	0.664
3.95538	0.67
3.99633	0.675
4.03727	0.676
4.07821	0.682
4.11916	0.685
4.1601	0.689
4.20105	0.69
4.24199	0.695
4.28294	0.699
4.32388	0.699
4.36482	0.702
4.40577	0.702
4.44671	0.707
4.48766	0.711
4.5286	0.713
4.56955	0.714
4.61049	0.716
4.65143	0.719
4.69238	0.719
4.73332	0.723
4.77427	0.726
4.81521	0.728
4.85616	0.731
4.8971	0.735
4.93804	0.738
4.97899	0.745
5.01993	0.75
5.06088	0.759
5.10182	0.766
5.14277	0.771
5.18371	0.776
5.22465	0.78
5.2656	0.781
5.30654	0.783
5.34749	0.786
5.38843	0.788
5.42938	0.792
5.47032	0.797
5.51126	0.8
5.55221	0.804
5.59315	0.807
5.6341	0.816
5.67504	0.821
5.71599	0.826
5.75693	0.831
5.79787	0.836
5.83882	0.841
5.87976	0.845
5.92071	0.85
5.96165	0.853
6.0026	0.855
6.04354	0.859
6.08448	0.86
6.12543	0.862
6.16637	0.867
6.20732	0.867
6.24826	0.864
6.28921	0.853
6.33015	0.848
6.37109	0.847
6.41204	0.85
6.45298	0.855
6.49393	0.855
6.53487	0.853
6.57582	0.853
6.61676	0.862
6.6577	0.867
6.69865	0.871
6.73959	0.86
6.78054	0.762
6.82148	0.697
6.86243	0.709
6.90337	0.762
6.94431	0.798
6.98526	0.819
7.0262	0.833
7.06715	0.85
7.10809	0.86
7.14904	0.853
7.18998	0.795
7.23092	0.786
7.27187	0.819
7.31281	0.859
7.35376	0.878
7.3947	0.884
7.43565	0.893
7.47659	0.896
7.51753	0.902
7.55848	0.903
7.59942	0.908
7.64037	0.91
7.68131	0.912
7.72226	0.914
7.7632	0.917
7.80414	0.919
7.84509	0.922
7.88603	0.924
7.92698	0.924
7.96792	0.924
8.00887	0.924
8.04981	0.924
8.09075	0.924
8.1317	0.926
8.17264	0.929
8.21359	0.927
8.25453	0.927
8.29548	0.931
8.33642	0.932
8.37736	0.936
8.41831	0.936
8.45925	0.936
8.5002	0.936
8.54114	0.936
8.58209	0.936
8.62303	0.936
8.66397	0.934
8.70492	0.932
8.74586	0.931
8.78681	0.931
8.82775	0.931
8.8687	0.931
8.90964	0.932
8.95058	0.934
8.99153	0.934
9.03247	0.938
9.07342	0.938
9.11436	0.939
9.1553	0.939
9.19625	0.939
9.23719	0.943
9.27814	0.945
9.31908	0.946
9.36003	0.948
9.40097	0.948
9.44191	0.948
9.48286	0.948
9.5238	0.95
9.56475	0.946
9.60569	0.948
9.64664	0.948
9.68758	0.948
9.72852	0.948
9.76947	0.948
9.81041	0.95
9.85136	0.951
9.8923	0.95
9.93325	0.95
9.97419	0.948
10.0151	0.946
10.0561	0.945
10.097	0.946
10.138	0.946
10.1789	0.945
10.2199	0.939
10.2608	0.932
10.3017	0.917
10.3427	0.907
10.3836	0.895
10.4246	0.869
10.4655	0.821
10.5065	0.793
10.5474	0.749
10.5884	0.704
10.6293	0.67
10.6702	0.634
10.7112	0.577
10.7521	0.536
10.7931	0.503
10.834	0.432
10.875	0.398
10.9159	0.371
10.9569	0.359
10.9978	0.338
11.0387	0.329
11.0797	0.321
11.1206	0.312
11.1616	0.304
11.2025	0.3
11.2435	0.295
11.2844	0.292
11.3254	0.29
11.3663	0.29
11.4072	0.286
11.4482	0.283
11.4891	0.274
11.5301	0.269
11.571	0.264
11.612	0.259
11.6529	0.259
11.6939	0.257
11.7348	0.256
11.7757	0.256
11.8167	0.259
11.8576	0.262
11.8986	0.269
11.9395	0.274
11.9805	0.276
12.0214	0.273
12.0623	0.271
12.1033	0.269
12.1442	0.271
12.1852	0.276
12.2261	0.285
12.2671	0.295
12.308	0.305
12.349	0.323
12.3899	0.34
12.4308	0.355
12.4718	0.372
12.5127	0.388
12.5537	0.403
12.5946	0.417
12.6356	0.432
12.6765	0.448
12.7175	0.462
12.7584	0.475
12.7993	0.491
12.8403	0.505
12.8812	0.524
12.9222	0.539
12.9631	0.553
13.0041	0.568
13.045	0.582
13.086	0.592
13.1269	0.603
13.1678	0.613
13.2088	0.625
13.2497	0.634
13.2907	0.64
13.3316	0.651
13.3726	0.656
13.4135	0.664
13.4545	0.671
13.4954	0.68
13.5363	0.687
13.5773	0.692
13.6182	0.701
13.6592	0.704
13.7001	0.711
13.7411	0.716
13.782	0.719
13.823	0.725
13.8639	0.728
13.9048	0.73
13.9458	0.735
13.9867	0.742
14.0277	0.747
14.0686	0.752
14.1096	0.756
14.1505	0.759
14.1915	0.757
14.2324	0.756
14.2733	0.752
14.3143	0.743
14.3552	0.74
14.3962	0.738
14.4371	0.733
14.4781	0.726
14.519	0.718
14.56	0.709
14.6009	0.702
14.6418	0.695
14.6828	0.685
14.7237	0.678
14.7647	0.67
14.8056	0.661
14.8466	0.652
14.8875	0.646
14.9284	0.64
14.9694	0.632
15.0103	0.628
15.0513	0.62
15.0922	0.616
15.1332	0.611
15.1741	0.604
15.2151	0.603
15.256	0.597
15.2969	0.591
15.3379	0.584
15.3788	0.579
15.4198	0.575
15.4607	0.572
15.5017	0.565
15.5426	0.561
15.5836	0.558
15.6245	0.554
15.6654	0.549
15.7064	0.548
15.7473	0.542
15.7883	0.539
15.8292	0.536
15.8702	0.532
15.9111	0.53
15.9521	0.527
15.993	0.527
