Infrared Spectrum: HYPOXANTHINE, 7-(2-HYDROXYETHYL)-, p-TOLUENESULFONATE
Formula: C14 H14 N4 O4 S
State: SOLID (1 mg / 650 mg KBr DISC)
Class: COBLENTZ III
Instrument: PERKIN-ELMER 221 (GRATING)
Instrument parameters: FILTER CHANGES AT 2490, 980 CM^-^1, GRATING FOR 4000-1428 CM^-^1, NaCl PRISM FOR 1428-650 CM^-^1
Sampling: TRANSMISSION
Resolution: 4
Origin: SOUTHERN RESEARCH INST.
1/CM	TRANSMITTANCE
599.005	0.821
608.624	0.815
618.242	0.754
627.861	0.775
637.479	0.885
647.098	0.756
656.717	0.266
666.335	0.615
675.954	0.692
685.572	0.925
695.191	0.899
704.81	0.918
714.428	0.944
724.047	0.91
733.665	0.768
743.284	0.856
752.902	0.789
762.521	0.336
772.14	0.422
781.758	0.686
791.377	0.796
800.995	0.614
810.614	0.57
820.233	0.708
829.851	0.895
839.47	0.881
849.088	0.829
858.707	0.428
868.326	0.558
877.944	0.732
887.563	0.448
897.181	0.209
906.8	0.188
916.419	0.54
926.037	0.837
935.656	0.869
945.274	0.817
954.893	0.847
964.512	0.812
974.13	0.773
983.749	0.732
993.367	0.326
1002.99	0.566
1012.6	0.686
1022.22	0.803
1031.84	0.813
1041.46	0.85
1051.08	0.855
1060.7	0.817
1070.32	0.686
1079.93	0.651
1089.55	0.614
1099.17	0.701
1108.79	0.807
1118.41	0.82
1128.03	0.814
1137.65	0.777
1147.26	0.589
1156.88	0.347
1166.5	0.116
1176.12	0.408
1185.74	0.528
1195.36	0.771
1204.98	0.535
1214.59	0.366
1224.21	0.473
1233.83	0.8
1243.45	0.876
1253.07	0.848
1262.69	0.753
1272.31	0.815
1281.93	0.652
1291.54	0.741
1301.16	0.714
1310.78	0.758
1320.4	0.631
1330.02	0.201
1339.64	0.177
1349.26	0.437
1358.87	0.633
1368.49	0.688
1378.11	0.682
1387.73	0.363
1397.35	0.728
1406.97	0.547
1416.59	0.52
1426.2	0.409
1435.82	0.358
1445.44	0.513
1455.06	0.665
1464.68	0.627
1474.3	0.792
1483.92	0.88
1493.53	0.763
1503.15	0.859
1512.77	0.77
1522.39	0.603
1532.01	0.739
1541.63	0.881
1551.25	0.881
1560.86	0.868
1570.48	0.776
1580.1	0.669
1589.72	0.291
1599.34	0.562
1608.96	0.813
1618.58	0.818
1628.19	0.777
1637.81	0.753
1647.43	0.745
1657.05	0.688
1666.67	0.577
1676.29	0.354
1685.91	0.071
1695.52	0.026
1705.14	0.198
1714.76	0.483
1724.38	0.683
1734	0.776
1743.62	0.869
1753.24	0.895
1762.85	0.889
1772.47	0.861
1782.09	0.877
1791.71	0.896
1801.33	0.894
1810.95	0.909
1820.57	0.913
1830.18	0.915
1839.8	0.924
1849.42	0.928
1859.04	0.929
1868.66	0.926
1878.28	0.92
1887.9	0.902
1897.52	0.901
1907.13	0.904
1916.75	0.921
1926.37	0.927
1935.99	0.93
1945.61	0.931
1955.23	0.931
1964.85	0.931
1974.46	0.932
1984.08	0.932
1993.7	0.932
2003.32	0.932
2012.94	0.931
2022.56	0.93
2032.18	0.929
2041.79	0.927
2051.41	0.925
2061.03	0.924
2070.65	0.922
2080.27	0.92
2089.89	0.916
2099.51	0.915
2109.12	0.913
2118.74	0.91
2128.36	0.91
2137.98	0.909
2147.6	0.909
2157.22	0.909
2166.84	0.908
2176.45	0.907
2186.07	0.906
2195.69	0.905
2205.31	0.904
2214.93	0.903
2224.55	0.901
2234.17	0.895
2243.78	0.886
2253.4	0.883
2263.02	0.88
2272.64	0.879
2282.26	0.879
2291.88	0.877
2301.5	0.875
2311.11	0.874
2320.73	0.869
2330.35	0.866
2339.97	0.862
2349.59	0.853
2359.21	0.852
2368.83	0.852
2378.44	0.852
2388.06	0.85
2397.68	0.848
2407.3	0.841
2416.92	0.837
2426.54	0.83
2436.16	0.823
2445.77	0.819
2455.39	0.817
2465.01	0.808
2474.63	0.803
2484.25	0.799
2493.87	0.791
2503.49	0.784
2513.1	0.777
2522.72	0.767
2532.34	0.753
2541.96	0.743
2551.58	0.735
2561.2	0.73
2570.82	0.724
2580.44	0.716
2590.05	0.691
2599.67	0.669
2609.29	0.651
2618.91	0.63
2628.53	0.658
2638.15	0.675
2647.77	0.663
2657.38	0.64
2667	0.624
2676.62	0.626
2686.24	0.633
2695.86	0.626
2705.48	0.61
2715.1	0.589
2724.71	0.57
2734.33	0.558
2743.95	0.557
2753.57	0.555
2763.19	0.53
2772.81	0.52
2782.43	0.506
2792.04	0.479
2801.66	0.467
2811.28	0.445
2820.9	0.435
2830.52	0.439
2840.14	0.47
2849.76	0.487
2859.37	0.493
2868.99	0.507
2878.61	0.553
2888.23	0.588
2897.85	0.608
2907.47	0.618
2917.09	0.621
2926.7	0.613
2936.32	0.59
2945.94	0.576
2955.56	0.585
2965.18	0.627
2974.8	0.64
2984.42	0.649
2994.03	0.626
3003.65	0.582
3013.27	0.572
3022.89	0.601
3032.51	0.615
3042.13	0.574
3051.75	0.601
3061.36	0.588
3070.98	0.554
3080.6	0.588
3090.22	0.649
3099.84	0.694
3109.46	0.696
3119.08	0.666
3128.69	0.656
3138.31	0.729
3147.93	0.747
3157.55	0.742
3167.17	0.741
3176.79	0.762
3186.41	0.784
3196.03	0.787
3205.64	0.785
3215.26	0.784
3224.88	0.786
3234.5	0.793
3244.12	0.795
3253.74	0.792
3263.36	0.786
3272.97	0.782
3282.59	0.78
3292.21	0.778
3301.83	0.777
3311.45	0.773
3321.07	0.771
3330.69	0.768
3340.3	0.764
3349.92	0.758
3359.54	0.753
3369.16	0.746
3378.78	0.742
3388.4	0.738
3398.02	0.737
3407.63	0.736
3417.25	0.735
3426.87	0.735
3436.49	0.736
3446.11	0.737
3455.73	0.738
3465.35	0.738
3474.96	0.74
3484.58	0.742
3494.2	0.744
3503.82	0.748
3513.44	0.753
3523.06	0.76
3532.68	0.766
3542.29	0.771
3551.91	0.774
3561.53	0.778
3571.15	0.782
3580.77	0.785
3590.39	0.787
3600.01	0.788
3609.62	0.792
3619.24	0.796
3628.86	0.8
3638.48	0.803
3648.1	0.803
3657.72	0.803
3667.34	0.802
3676.95	0.802
3686.57	0.805
3696.19	0.808
3705.81	0.808
3715.43	0.803
3725.05	0.801
3734.67	0.799
3744.28	0.796
3753.9	0.8
3763.52	0.805
3773.14	0.803
3782.76	0.801
3792.38	0.799
3802	0.796
3811.62	0.795
3821.23	0.795
3830.85	0.794
3840.47	0.794
3850.09	0.792
3859.71	0.792
3869.33	0.791
3878.95	0.79
3888.56	0.789
3898.18	0.788
3907.8	0.787
3917.42	0.786
3927.04	0.784
3936.66	0.783
3946.28	0.783
3955.89	0.782
3965.51	0.781
3975.13	0.781
3984.75	0.781
3994.37	0.781
4003.99	0.781
