Infrared Spectrum: POTASSIUM CARBONATE
Formula: K2 C O3
State: SOLID (NUJOL MULL)
Class: COBLENTZ
Instrument: Not specified, most likely a prism, grating, or hybrid spectrometer.
Sampling: TRANSMISSION
Resolution: 4
Origin: MELLON INSTITUTE
MICROMETERS	TRANSMITTANCE
2.032	0.872
2.07292	0.867
2.11383	0.872
2.15475	0.874
2.19567	0.878
2.23659	0.879
2.2775	0.878
2.31842	0.872
2.35934	0.874
2.40025	0.879
2.44117	0.878
2.48209	0.879
2.523	0.879
2.56392	0.884
2.60484	0.886
2.64576	0.883
2.68667	0.876
2.72759	0.872
2.76851	0.853
2.80942	0.826
2.85034	0.785
2.89126	0.743
2.93218	0.737
2.97309	0.726
3.01401	0.719
3.05493	0.713
3.09584	0.716
3.13676	0.718
3.17768	0.718
3.2186	0.718
3.25951	0.714
3.30043	0.64
3.34135	0.439
3.38226	0.518
3.42318	0.577
3.4641	0.68
3.50501	0.786
3.54593	0.829
3.58685	0.848
3.62777	0.869
3.66868	0.881
3.7096	0.888
3.75052	0.895
3.79143	0.898
3.83235	0.9
3.87327	0.9
3.91419	0.9
3.9551	0.9
3.99602	0.9
4.03694	0.9
4.07785	0.908
4.11877	0.91
4.15969	0.908
4.2006	0.902
4.24152	0.895
4.28244	0.89
4.32336	0.888
4.36427	0.902
4.40519	0.908
4.44611	0.908
4.48702	0.908
4.52794	0.915
4.56886	0.912
4.60978	0.91
4.65069	0.91
4.69161	0.92
4.73253	0.92
4.77344	0.919
4.81436	0.915
4.85528	0.915
4.8962	0.92
4.93711	0.924
4.97803	0.924
5.01895	0.92
5.05986	0.917
5.10078	0.917
5.1417	0.917
5.18261	0.922
5.22353	0.926
5.26445	0.926
5.30537	0.926
5.34628	0.926
5.3872	0.92
5.42812	0.92
5.46903	0.92
5.50995	0.922
5.55087	0.924
5.59179	0.932
5.6327	0.931
5.67362	0.922
5.71454	0.917
5.75545	0.915
5.79637	0.915
5.83729	0.91
5.8782	0.905
5.91912	0.9
5.96004	0.893
6.00096	0.884
6.04187	0.874
6.08279	0.884
6.12371	0.883
6.16462	0.886
6.20554	0.886
6.24646	0.879
6.28738	0.869
6.32829	0.859
6.36921	0.848
6.41013	0.833
6.45104	0.809
6.49196	0.78
6.53288	0.74
6.5738	0.69
6.61471	0.63
6.65563	0.558
6.69655	0.482
6.73746	0.415
6.77838	0.341
6.8193	0.286
6.86021	0.25
6.90113	0.221
6.94205	0.235
6.98297	0.317
7.02388	0.427
7.0648	0.431
7.10572	0.487
7.14663	0.544
7.18755	0.596
7.22847	0.647
7.26939	0.697
7.3103	0.749
7.35122	0.786
7.39214	0.809
7.43305	0.828
7.47397	0.843
7.51489	0.853
7.5558	0.862
7.59672	0.876
7.63764	0.884
7.67856	0.893
7.71947	0.9
7.76039	0.907
7.80131	0.912
7.84222	0.914
7.88314	0.917
7.92406	0.92
7.96498	0.924
8.00589	0.926
8.04681	0.929
8.08773	0.932
8.12864	0.932
8.16956	0.932
8.21048	0.932
8.2514	0.936
8.29231	0.936
8.33323	0.936
8.37415	0.936
8.41506	0.934
8.45598	0.934
8.4969	0.932
8.53781	0.931
8.57873	0.936
8.61965	0.939
8.66057	0.938
8.70148	0.938
8.7424	0.941
8.78332	0.945
8.82423	0.945
8.86515	0.948
8.90607	0.95
8.94699	0.946
8.9879	0.943
9.02882	0.945
9.06974	0.948
9.11065	0.946
9.15157	0.945
9.19249	0.945
9.2334	0.946
9.27432	0.946
9.31524	0.948
9.35616	0.948
9.39707	0.95
9.43799	0.951
9.47891	0.951
9.51982	0.955
9.56074	0.958
9.60166	0.957
9.64258	0.957
9.68349	0.96
9.72441	0.958
9.76533	0.96
9.80624	0.96
9.84716	0.958
9.88808	0.958
9.929	0.958
9.96991	0.962
10.0108	0.962
10.0517	0.96
10.0927	0.955
10.1336	0.958
10.1745	0.962
10.2154	0.962
10.2563	0.955
10.2972	0.958
10.3382	0.96
10.3791	0.96
10.42	0.962
10.4609	0.958
10.5018	0.96
10.5428	0.951
10.5837	0.939
10.6246	0.939
10.6655	0.946
10.7064	0.943
10.7473	0.939
10.7883	0.938
10.8292	0.932
10.8701	0.927
10.911	0.927
10.9519	0.924
10.9928	0.919
11.0338	0.91
11.0747	0.9
11.1156	0.895
11.1565	0.903
11.1974	0.914
11.2383	0.914
11.2793	0.912
11.3202	0.908
11.3611	0.905
11.402	0.893
11.4429	0.859
11.4838	0.807
11.5248	0.742
11.5657	0.743
11.6066	0.804
11.6475	0.852
11.6884	0.884
11.7293	0.905
11.7703	0.919
11.8112	0.934
11.8521	0.943
11.893	0.95
11.9339	0.955
11.9748	0.958
12.0158	0.962
12.0567	0.967
12.0976	0.975
12.1385	0.972
12.1794	0.972
12.2204	0.975
12.2613	0.979
12.3022	0.975
12.3431	0.974
12.384	0.974
12.4249	0.975
12.4659	0.975
12.5068	0.979
12.5477	0.984
12.5886	0.984
12.6295	0.982
12.6704	0.979
12.7114	0.979
12.7523	0.979
12.7932	0.979
12.8341	0.972
12.875	0.975
12.9159	0.974
12.9569	0.972
12.9978	0.97
13.0387	0.967
13.0796	0.96
13.1205	0.962
13.1614	0.962
13.2024	0.96
13.2433	0.96
13.2842	0.957
13.3251	0.955
13.366	0.953
13.4069	0.953
13.4479	0.95
13.4888	0.939
13.5297	0.938
13.5706	0.932
13.6115	0.932
13.6524	0.932
13.6934	0.931
13.7343	0.929
13.7752	0.922
13.8161	0.915
13.857	0.912
13.898	0.912
13.9389	0.914
13.9798	0.908
14.0207	0.903
14.0616	0.902
14.1025	0.898
14.1435	0.891
14.1844	0.884
14.2253	0.884
14.2662	0.881
14.3071	0.872
14.348	0.864
14.389	0.855
14.4299	0.843
14.4708	0.828
14.5117	0.821
14.5526	0.824
14.5935	0.823
14.6345	0.823
14.6754	0.823
14.7163	0.819
14.7572	0.814
14.7981	0.816
14.839	0.817
14.88	0.816
14.9209	0.809
14.9618	0.798
15.0027	0.788
15.0436	0.783
15.0845	0.781
15.1255	0.778
15.1664	0.778
15.2073	0.785
15.2482	0.781
15.2891	0.776
15.33	0.773
15.371	0.776
15.4119	0.774
15.4528	0.773
15.4937	0.774
15.5346	0.774
15.5756	0.771
15.6165	0.768
15.6574	0.769
15.6983	0.769
15.7392	0.769
15.7801	0.781
15.8211	0.776
15.862	0.783
15.9029	0.781
15.9438	0.785
15.9847	0.786
