Infrared Spectrum: o-METHOXYBENZOYL RUTHENOCENE
Formula: C18 H16 O2 Ru
State: SOLID (MINERAL OIL MULL)
Class: COBLENTZ
Instrument: Not specified, most likely a prism, grating, or hybrid spectrometer.
Sampling: TRANSMISSION
Resolution: 4
Origin: WYANDOTTE CHEMICALS CORP., WYANDOTTE, MICHIGAN, USA
MICROMETERS	TRANSMITTANCE
2.02	0.446
2.06086	0.457
2.10172	0.457
2.14258	0.458
2.18343	0.467
2.22429	0.467
2.26515	0.474
2.30601	0.477
2.34687	0.479
2.38773	0.488
2.42859	0.501
2.46944	0.5
2.5103	0.5
2.55116	0.506
2.59202	0.522
2.63288	0.522
2.67374	0.537
2.7146	0.539
2.75545	0.546
2.79631	0.546
2.83717	0.546
2.87803	0.551
2.91889	0.554
2.95975	0.556
3.0006	0.558
3.04146	0.558
3.08232	0.549
3.12318	0.554
3.16404	0.541
3.2049	0.518
3.24576	0.45
3.28661	0.458
3.32747	0.361
3.36833	0.046
3.40919	0.01
3.45005	0.035
3.49091	0.08
3.53177	0.234
3.57262	0.626
3.61348	0.679
3.65434	0.696
3.6952	0.669
3.73606	0.679
3.77692	0.686
3.81778	0.698
3.85863	0.703
3.89949	0.714
3.94035	0.719
3.98121	0.734
4.02207	0.738
4.06293	0.738
4.10379	0.736
4.14464	0.743
4.1855	0.743
4.22636	0.751
4.26722	0.741
4.30808	0.738
4.34894	0.751
4.3898	0.77
4.43065	0.78
4.47151	0.78
4.51237	0.782
4.55323	0.782
4.59409	0.799
4.63495	0.808
4.6758	0.813
4.71666	0.82
4.75752	0.828
4.79838	0.832
4.83924	0.835
4.8801	0.839
4.92096	0.839
4.96181	0.842
5.00267	0.845
5.04353	0.849
5.08439	0.859
5.12525	0.863
5.16611	0.868
5.20697	0.852
5.24782	0.869
5.28868	0.869
5.32954	0.871
5.3704	0.886
5.41126	0.89
5.45212	0.897
5.49298	0.902
5.53383	0.9
5.57469	0.892
5.61555	0.871
5.65641	0.881
5.69727	0.902
5.73813	0.897
5.77899	0.897
5.81984	0.893
5.8607	0.885
5.90156	0.876
5.94242	0.875
5.98328	0.828
6.02414	0.535
6.065	0.193
6.10585	0.373
6.14671	0.599
6.18757	0.698
6.22843	0.604
6.26929	0.607
6.31015	0.679
6.351	0.753
6.39186	0.78
6.43272	0.827
6.47358	0.827
6.51444	0.852
6.5553	0.857
6.59616	0.856
6.63701	0.837
6.67787	0.791
6.71873	0.44
6.75959	0.47
6.80045	0.285
6.84131	0.142
6.88217	0.164
6.92302	0.246
6.96388	0.351
7.00474	0.585
7.0456	0.705
7.08646	0.636
7.12732	0.719
7.16818	0.739
7.20903	0.631
7.24989	0.513
7.29075	0.359
7.33161	0.5
7.37247	0.683
7.41333	0.676
7.45419	0.672
7.49504	0.796
7.5359	0.852
7.57676	0.863
7.61762	0.857
7.65848	0.77
7.69934	0.556
7.7402	0.238
7.78105	0.422
7.82191	0.648
7.86277	0.633
7.90363	0.359
7.94449	0.416
7.98535	0.508
8.0262	0.539
8.06706	0.392
8.10792	0.486
8.14878	0.595
8.18964	0.667
8.2305	0.693
8.27136	0.712
8.31221	0.743
8.35307	0.768
8.39393	0.779
8.43479	0.779
8.47565	0.75
8.51651	0.768
8.55737	0.729
8.59822	0.772
8.63908	0.712
8.67994	0.731
8.7208	0.787
8.76166	0.803
8.80252	0.825
8.84338	0.833
8.88423	0.835
8.92509	0.83
8.96595	0.821
9.00681	0.717
9.04767	0.474
9.08853	0.535
9.12939	0.691
9.17024	0.729
9.2111	0.75
9.25196	0.765
9.29282	0.777
9.33368	0.784
9.37454	0.797
9.4154	0.808
9.45625	0.809
9.49711	0.758
9.53797	0.626
9.57883	0.58
9.61969	0.66
9.66055	0.578
9.7014	0.529
9.74226	0.571
9.78312	0.647
9.82398	0.601
9.86484	0.397
9.9057	0.452
9.94656	0.551
9.98741	0.469
10.0283	0.532
10.0691	0.664
10.11	0.753
10.1508	0.791
10.1917	0.821
10.2326	0.83
10.2734	0.809
10.3143	0.808
10.3551	0.823
10.396	0.816
10.4369	0.782
10.4777	0.767
10.5186	0.715
10.5594	0.671
10.6003	0.784
10.6412	0.833
10.682	0.844
10.7229	0.767
10.7637	0.739
10.8046	0.839
10.8454	0.861
10.8863	0.868
10.9272	0.866
10.968	0.866
11.0089	0.873
11.0497	0.875
11.0906	0.871
11.1315	0.868
11.1723	0.859
11.2132	0.856
11.254	0.849
11.2949	0.84
11.3357	0.847
11.3766	0.809
11.4175	0.794
11.4583	0.827
11.4992	0.825
11.54	0.746
11.5809	0.551
11.6218	0.539
11.6626	0.696
11.7035	0.746
11.7443	0.693
11.7852	0.589
11.826	0.577
11.8669	0.695
11.9078	0.732
11.9486	0.744
11.9895	0.746
12.0303	0.736
12.0712	0.707
12.1121	0.739
12.1529	0.734
12.1938	0.686
12.2346	0.679
12.2755	0.662
12.3164	0.601
12.3572	0.453
12.3981	0.349
12.4389	0.58
12.4798	0.703
12.5206	0.755
12.5615	0.801
12.6024	0.832
12.6432	0.84
12.6841	0.845
12.7249	0.873
12.7658	0.897
12.8067	0.907
12.8475	0.909
12.8884	0.897
12.9292	0.835
12.9701	0.818
13.0109	0.866
13.0518	0.876
13.0927	0.863
13.1335	0.823
13.1744	0.719
13.2152	0.544
13.2561	0.315
13.297	0.186
13.3378	0.28
13.3787	0.505
13.4195	0.652
13.4604	0.738
13.5012	0.78
13.5421	0.808
13.583	0.808
13.6238	0.736
13.6647	0.609
13.7055	0.549
13.7464	0.619
13.7873	0.714
13.8281	0.77
13.869	0.797
13.9098	0.821
13.9507	0.832
13.9916	0.857
14.0324	0.876
14.0733	0.897
14.1141	0.907
14.155	0.921
14.1958	0.926
14.2367	0.938
14.2776	0.941
14.3184	0.946
14.3593	0.95
14.4001	0.953
14.441	0.957
14.4819	0.957
14.5227	0.95
14.5636	0.945
14.6044	0.936
14.6453	0.928
14.6861	0.919
14.727	0.91
14.7679	0.9
14.8087	0.892
14.8496	0.881
14.8904	0.869
14.9313	0.869
14.9722	0.859
15.013	0.842
15.0539	0.803
15.0947	0.739
15.1356	0.708
15.1764	0.71
15.2173	0.678
15.2582	0.601
15.299	0.544
15.3399	0.527
15.3807	0.549
15.4216	0.592
15.4625	0.63
15.5033	0.65
15.5442	0.667
15.585	0.669
15.6259	0.667
15.6668	0.666
15.7076	0.666
15.7485	0.655
15.7893	0.642
15.8302	0.63
15.871	0.626
15.9119	0.613
15.9528	0.604
