Infrared Spectrum: Hypoxanthine, 1-benzyl-9-cyclopentyl-
Formula: C17 H18 N4 O
State: SOLID (1 mg / 650 mg KBr DISC)
Class: COBLENTZ III
Instrument: PERKIN-ELMER 521 (GRATING)
Instrument parameters: FILTERS AT 3130, 2500, 2000, 1150, 700, 410. GRATING CHANGES: 2000, 620 CM^-^1
Sampling: TRANSMISSION
Resolution: 2
Origin: SOUTHERN RESEARCH INSTITUTE
1/CM	TRANSMITTANCE
250	0.2472
260	0.3201
270	0.4074
280	0.4956
290	0.5487
300	0.6224
310	0.6423
320	0.5979
330	0.6823
340	0.7307
350	0.7657
360	0.8366
370	0.8779
380	0.8953
390	0.9041
400	0.9101
410	0.9273
420	0.9316
430	0.9339
440	0.9238
450	0.8064
460	0.9072
470	0.9545
480	0.9544
490	0.9491
500	0.9323
510	0.8313
520	0.9144
530	0.945
540	0.9358
550	0.8707
560	0.8845
570	0.9307
580	0.8914
590	0.915
600	0.9064
610	0.8489
620	0.8582
630	0.7804
640	0.6741
650	0.7214
660	0.7428
670	0.8101
680	0.8587
690	0.5563
700	0.605
710	0.8173
720	0.6335
730	0.4955
740	0.8963
750	0.902
760	0.9336
770	0.9328
780	0.8207
790	0.8517
800	0.8134
810	0.8847
820	0.9072
830	0.8956
840	0.8864
850	0.9323
860	0.9326
870	0.921
880	0.8798
890	0.8628
900	0.8919
910	0.8531
920	0.9053
930	0.8819
940	0.8012
950	0.8158
960	0.5699
970	0.8573
980	0.7312
990	0.8879
1000	0.9072
1010	0.8917
1020	0.8263
1030	0.7761
1040	0.8682
1050	0.8038
1060	0.8004
1070	0.809
1080	0.8141
1090	0.8708
1100	0.8656
1110	0.8639
1120	0.8223
1130	0.7218
1140	0.6533
1150	0.7064
1160	0.7659
1170	0.7431
1180	0.7149
1190	0.5984
1200	0.6096
1210	0.6718
1220	0.6065
1230	0.5153
1240	0.6871
1250	0.8338
1260	0.8449
1270	0.8563
1280	0.8306
1290	0.8019
1300	0.7658
1310	0.739
1320	0.7449
1330	0.7532
1340	0.6693
1350	0.416
1360	0.6691
1370	0.6376
1380	0.6462
1390	0.8553
1400	0.8138
1410	0.7375
1420	0.6654
1430	0.5975
1440	0.7342
1450	0.5209
1460	0.815
1470	0.8115
1480	0.7892
1490	0.5802
1500	0.4976
1510	0.6752
1520	0.755
1530	0.5537
1540	0.2756
1550	0.4871
1560	0.7498
1570	0.5126
1580	0.6417
1590	0.8202
1600	0.7749
1610	0.817
1620	0.7769
1630	0.7501
1640	0.7028
1650	0.6287
1660	0.4931
1670	0.2027
1680	0.157
1690	0.2096
1700	0.2683
1710	0.2396
1720	0.4167
1730	0.6829
1740	0.8274
1750	0.899
1760	0.9421
1770	0.9551
1780	0.9664
1790	0.9602
1800	0.9524
1810	0.966
1820	0.969
1830	0.9684
1840	0.9584
1850	0.9526
1860	0.9544
1870	0.9525
1880	0.9358
1890	0.9382
1900	0.9543
1910	0.9559
1920	0.9505
1930	0.9355
1940	0.9256
1950	0.9455
1960	0.9457
1970	0.9481
1980	0.9526
1990	0.9507
2000	0.9473
2010	0.9459
2020	0.9439
2030	0.9425
2040	0.9417
2050	0.9405
2060	0.9391
2070	0.9378
2080	0.9372
2090	0.9365
2100	0.9356
2110	0.9331
2120	0.9305
2130	0.9285
2140	0.9279
2150	0.9274
2160	0.9262
2170	0.9249
2180	0.9233
2190	0.9218
2200	0.9208
2210	0.9211
2220	0.9218
2230	0.9188
2240	0.9125
2250	0.9095
2260	0.9094
2270	0.9077
2280	0.9062
2290	0.9051
2300	0.9035
2310	0.9006
2320	0.8978
2330	0.8974
2340	0.8973
2350	0.8974
2360	0.8976
2370	0.8982
2380	0.8985
2390	0.8983
2400	0.8976
2410	0.8967
2420	0.8962
2430	0.8945
2440	0.8921
2450	0.8898
2460	0.8875
2470	0.8851
2480	0.8826
2490	0.8806
2500	0.8786
2510	0.8771
2520	0.8751
2530	0.8731
2540	0.8715
2550	0.8699
2560	0.8693
2570	0.869
2580	0.8691
2590	0.8694
2600	0.8693
2610	0.8686
2620	0.8681
2630	0.8669
2640	0.8649
2650	0.8616
2660	0.8581
2670	0.8545
2680	0.8508
2690	0.8469
2700	0.843
2710	0.8387
2720	0.8366
2730	0.8398
2740	0.8424
2750	0.8437
2760	0.8379
2770	0.832
2780	0.8294
2790	0.8251
2800	0.8203
2810	0.8135
2820	0.8027
2830	0.7819
2840	0.732
2850	0.6795
2860	0.6419
2870	0.6555
2880	0.6979
2890	0.7038
2900	0.6698
2910	0.6389
2920	0.6077
2930	0.5437
2940	0.5283
2950	0.486
2960	0.5617
2970	0.6493
2980	0.738
2990	0.7813
3000	0.7907
3010	0.7797
3020	0.7177
3030	0.7093
3040	0.7022
3050	0.6903
3060	0.7727
3070	0.7885
3080	0.778
3090	0.8071
3100	0.8101
3110	0.792
3120	0.8255
3130	0.855
3140	0.8556
3150	0.8468
3160	0.8473
3170	0.8483
3180	0.8474
3190	0.8456
3200	0.8433
3210	0.8403
3220	0.8371
3230	0.833
3240	0.8279
3250	0.8249
3260	0.8219
3270	0.8205
3280	0.8199
3290	0.8194
3300	0.8184
3310	0.8172
3320	0.8136
3330	0.81
3340	0.807
3350	0.7998
3360	0.7941
3370	0.7914
3380	0.7886
3390	0.7872
3400	0.7861
3410	0.785
3420	0.7839
3430	0.7837
3440	0.7844
3450	0.785
3460	0.786
3470	0.7873
3480	0.7887
3490	0.7903
3500	0.7927
3510	0.7952
3520	0.7976
3530	0.8001
3540	0.803
3550	0.8062
3560	0.8094
3570	0.8116
3580	0.8135
3590	0.8152
3600	0.8169
3610	0.8185
3620	0.8189
3630	0.8191
3640	0.8192
3650	0.8194
3660	0.8191
3670	0.8187
3680	0.8183
3690	0.8189
3700	0.8194
3710	0.8196
3720	0.8197
3730	0.8198
3740	0.8195
3750	0.8191
3760	0.8188
3770	0.8173
3780	0.8158
3790	0.8143
3800	0.8128
3810	0.8114
3820	0.8103
3830	0.8092
3840	0.8081
3850	0.807
3860	0.8066
3870	0.8062
3880	0.8058
3890	0.8054
3900	0.8052
3910	0.805
3920	0.8047
3930	0.8044
3940	0.8039
3950	0.8034
3960	0.8028
3970	0.802
3980	0.8012
3990	0.8004
4000	0.7996
