Infrared Spectrum: Lactic acid, cyclohexyl ester
Formula: C9 H16 O3
State: SOLUTION (10% CCl4 FOR 3800-1320, 10% CS2 FOR 1320-450 CM^-^1)
Class: COBLENTZ III
Instrument: DOW KBr FOREPRISM-GRATING
Instrument parameters: BLAZED AT 3.5, 12.0, 20.0 MICRON AND CHANGED AT 5.0, 7.5, 14.9 MICRON
Sampling: TRANSMISSION
Path length: 0.011 CM, 0.011 CM
Resolution: 2
Origin: DOW CHEMICAL COMPANY
1/CM	TRANSMITTANCE
3800	0.985
3791	0.988
3782	0.9881
3773	0.9903
3764	0.9909
3755	0.9904
3746	0.9902
3737	0.9911
3728	0.9904
3719	0.9884
3710	0.989
3701	0.9885
3692	0.9821
3683	0.9711
3674	0.9559
3665	0.9519
3656	0.9558
3647	0.9563
3638	0.9527
3629	0.9463
3620	0.9335
3611	0.9133
3602	0.8642
3593	0.807
3584	0.8168
3575	0.8176
3566	0.7779
3557	0.6701
3548	0.5575
3539	0.4474
3530	0.3824
3521	0.3834
3512	0.4064
3503	0.4418
3494	0.4715
3485	0.4959
3476	0.5152
3467	0.5269
3458	0.5387
3449	0.5504
3440	0.5623
3431	0.5757
3422	0.5904
3413	0.6066
3404	0.6238
3395	0.6425
3386	0.6598
3377	0.6767
3368	0.6929
3359	0.7078
3350	0.7233
3341	0.7404
3332	0.7576
3323	0.7696
3314	0.7816
3305	0.7917
3296	0.7995
3287	0.8083
3278	0.818
3269	0.8258
3260	0.8326
3251	0.8379
3242	0.8428
3233	0.8479
3224	0.8531
3215	0.8578
3206	0.861
3197	0.8662
3188	0.8703
3179	0.8729
3170	0.8767
3161	0.8809
3152	0.8846
3143	0.8869
3134	0.8917
3125	0.8944
3116	0.8967
3107	0.8985
3098	0.9007
3089	0.9016
3080	0.8988
3071	0.9002
3062	0.8967
3053	0.8932
3044	0.8911
3035	0.8862
3026	0.8707
3017	0.8505
3008	0.8189
2999	0.7226
2990	0.5097
2981	0.4299
2972	0.3851
2963	0.4054
2954	0.2397
2945	0.0589
2936	-0.0036
2927	-0.0036
2918	0.0326
2909	0.1515
2900	0.3006
2891	0.4368
2882	0.4934
2873	0.493
2864	0.2618
2855	0.0645
2846	0.3056
2837	0.6693
2828	0.7678
2819	0.8224
2810	0.8366
2801	0.8473
2792	0.8565
2783	0.8716
2774	0.888
2765	0.9004
2756	0.9123
2747	0.9243
2738	0.9326
2729	0.9354
2720	0.9354
2711	0.9319
2702	0.9287
2693	0.9276
2684	0.9277
2675	0.9212
2666	0.9014
2657	0.8925
2648	0.903
2639	0.9208
2630	0.9321
2621	0.9384
2612	0.9402
2603	0.9393
2594	0.9376
2585	0.9364
2576	0.939
2567	0.9458
2558	0.9514
2549	0.9555
2540	0.9581
2531	0.959
2522	0.9564
2513	0.9521
2504	0.9515
2495	0.9517
2486	0.9521
2477	0.9544
2468	0.9555
2459	0.9573
2450	0.9581
2441	0.9602
2432	0.9606
2423	0.9599
2414	0.9585
2405	0.9584
2396	0.9579
2387	0.9588
2378	0.9635
2369	0.9676
2360	0.9723
2351	0.9783
2342	0.9805
2333	0.9811
2324	0.983
2315	0.9776
2306	0.9719
2297	0.9688
2288	0.9653
2279	0.9637
2270	0.9628
2261	0.9633
2252	0.964
2243	0.9648
2234	0.966
2225	0.968
2216	0.9678
2207	0.9679
2198	0.9675
2189	0.9652
2180	0.9626
2171	0.9615
2162	0.9581
2153	0.9569
2144	0.9558
2135	0.9566
2126	0.9576
2117	0.9587
2108	0.9596
2099	0.9606
2090	0.9607
2081	0.9588
2072	0.9564
2063	0.955
2054	0.9558
2045	0.9545
2036	0.9547
2027	0.9558
2018	0.9563
2009	0.9563
2000	0.9557
1991	0.9356
1982	0.9465
1973	0.951
1964	0.9491
1955	0.9483
1946	0.9463
1937	0.9477
1928	0.9504
1919	0.9513
1910	0.9512
1901	0.9507
1892	0.9495
1883	0.948
1874	0.9467
1865	0.9443
1856	0.9398
1847	0.9354
1838	0.9311
1829	0.9227
1820	0.9135
1811	0.8939
1802	0.8704
1793	0.8577
1784	0.846
1775	0.8295
1766	0.7876
1757	0.6824
1748	0.3084
1739	0.047
1730	-0.0036
1721	-0.0036
1712	0.1483
1703	0.4213
1694	0.6155
1685	0.7134
1676	0.7871
1667	0.8502
1658	0.8681
1649	0.8729
1640	0.8752
1631	0.8743
1622	0.8684
1613	0.8724
1604	0.878
1595	0.8795
1586	0.8379
1577	0.8154
1568	0.8093
1559	0.7991
1550	0.7605
1541	0.7157
1532	0.7302
1523	0.7862
1514	0.794
1505	0.7954
1496	0.8116
1487	0.8272
1478	0.831
1469	0.7302
1460	0.5156
1451	0.1147
1442	0.2919
1433	0.6592
1424	0.7347
1415	0.7439
1406	0.7298
1397	0.7172
1388	0.6898
1379	0.6164
1370	0.5111
1361	0.5985
1352	0.656
1343	0.671
1334	0.6112
1325	0.572
1316	0.5108
1307	0.5595
1298	0.5589
1289	0.4728
1280	0.2632
1271	0.1082
1262	0.0265
1253	0.0087
1244	0.0686
1235	0.0992
1226	0.0108
1217	-0.0036
1208	0.0148
1199	0.1229
1190	0.2824
1181	0.4936
1172	0.6146
1163	0.6358
1154	0.4688
1145	0.3297
1136	0.0515
1127	-0.0036
1118	-0.0036
1109	0.1458
1100	0.3399
1091	0.3936
1082	0.4204
1073	0.4978
1064	0.576
1055	0.6357
1046	0.4929
1037	0.1487
1028	0.2834
1019	0.4759
1010	0.1651
1001	0.5481
992	0.8238
983	0.8745
974	0.8944
965	0.844
956	0.7724
947	0.4232
938	0.6453
929	0.6991
920	0.6035
911	0.5812
902	0.6953
893	0.7836
884	0.7718
875	0.9124
866	0.9123
857	0.8131
848	0.7896
839	0.6301
830	0.9189
821	0.8759
812	0.9665
803	0.9635
794	0.9091
785	0.9331
776	0.9443
767	0.9222
758	0.7815
749	0.8338
740	0.9095
731	0.9456
722	0.953
713	0.9456
704	0.9366
695	0.9276
686	0.914
677	0.8994
668	0.8815
659	0.8285
650	0.8053
641	0.8052
632	0.8267
623	0.8401
614	0.8551
605	0.8669
596	0.8683
587	0.8664
578	0.8686
569	0.8703
560	0.8597
551	0.8481
542	0.8438
533	0.8427
524	0.8308
515	0.8208
506	0.8061
497	0.786
488	0.7711
479	0.7527
470	0.7364
461	0.7234
