Infrared Spectrum: POTASSIUM CHROMATE
Formula: K2 Cr O4
State: SOLID (NUJOL MULL)
Class: COBLENTZ
Instrument: Not specified, most likely a prism, grating, or hybrid spectrometer.
Sampling: TRANSMISSION
Resolution: 4
Origin: MELLON INSTITUTE
MICROMETERS	TRANSMITTANCE
2.011	0.396
2.05083	0.396
2.09066	0.398
2.13049	0.4
2.17033	0.402
2.21016	0.402
2.24999	0.407
2.28982	0.41
2.32965	0.415
2.36948	0.423
2.40932	0.43
2.44915	0.44
2.48898	0.45
2.52881	0.457
2.56864	0.465
2.60847	0.472
2.6483	0.48
2.68814	0.489
2.72797	0.495
2.7678	0.504
2.80763	0.509
2.84746	0.507
2.88729	0.507
2.92712	0.509
2.96696	0.51
3.00679	0.512
3.04662	0.517
3.08645	0.522
3.12628	0.53
3.16611	0.541
3.20595	0.546
3.24578	0.552
3.28561	0.559
3.32544	0.52
3.36527	0.294
3.4051	0.144
3.44493	0.154
3.48477	0.149
3.5246	0.289
3.56443	0.589
3.60426	0.668
3.64409	0.7
3.68392	0.71
3.72376	0.721
3.76359	0.728
3.80342	0.735
3.84325	0.74
3.88308	0.747
3.92291	0.752
3.96274	0.757
4.00258	0.76
4.04241	0.767
4.08224	0.772
4.12207	0.777
4.1619	0.78
4.20173	0.783
4.24156	0.787
4.2814	0.788
4.32123	0.792
4.36106	0.795
4.40089	0.797
4.44072	0.798
4.48055	0.798
4.52039	0.8
4.56022	0.802
4.60005	0.804
4.63988	0.807
4.67971	0.81
4.71954	0.812
4.75937	0.814
4.79921	0.814
4.83904	0.817
4.87887	0.82
4.9187	0.822
4.95853	0.825
4.99836	0.829
5.0382	0.832
5.07803	0.834
5.11786	0.839
5.15769	0.842
5.19752	0.844
5.23735	0.849
5.27718	0.85
5.31702	0.852
5.35685	0.855
5.39668	0.859
5.43651	0.862
5.47634	0.865
5.51617	0.867
5.556	0.871
5.59584	0.872
5.63567	0.876
5.6755	0.877
5.71533	0.879
5.75516	0.879
5.79499	0.877
5.83483	0.881
5.87466	0.882
5.91449	0.886
5.95432	0.887
5.99415	0.892
6.03398	0.894
6.07381	0.899
6.11365	0.902
6.15348	0.904
6.19331	0.909
6.23314	0.916
6.27297	0.921
6.3128	0.924
6.35264	0.926
6.39247	0.929
6.4323	0.929
6.47213	0.929
6.51196	0.929
6.55179	0.929
6.59162	0.927
6.63146	0.927
6.67129	0.922
6.71112	0.906
6.75095	0.869
6.79078	0.733
6.83061	0.546
6.87044	0.529
6.91028	0.572
6.95011	0.681
6.98994	0.775
7.02977	0.824
7.0696	0.864
7.10943	0.899
7.14927	0.904
7.1891	0.849
7.22893	0.685
7.26876	0.71
7.30859	0.75
7.34842	0.817
7.38825	0.839
7.42809	0.854
7.46792	0.867
7.50775	0.892
7.54758	0.909
7.58741	0.916
7.62724	0.916
7.66707	0.914
7.70691	0.917
7.74674	0.922
7.78657	0.924
7.8264	0.926
7.86623	0.926
7.90606	0.927
7.9459	0.927
7.98573	0.927
8.02556	0.929
8.06539	0.931
8.10522	0.932
8.14505	0.936
8.18488	0.936
8.22472	0.939
8.26455	0.944
8.30438	0.946
8.34421	0.953
8.38404	0.956
8.42387	0.961
8.46371	0.963
8.50354	0.959
8.54337	0.954
8.5832	0.951
8.62303	0.948
8.66286	0.946
8.70269	0.946
8.74253	0.949
8.78236	0.951
8.82219	0.954
8.86202	0.954
8.90185	0.958
8.94168	0.959
8.98151	0.963
9.02135	0.963
9.06118	0.961
9.10101	0.961
9.14084	0.959
9.18067	0.959
9.2205	0.959
9.26034	0.959
9.30017	0.961
9.34	0.959
9.37983	0.959
9.41966	0.956
9.45949	0.954
9.49932	0.954
9.53916	0.951
9.57899	0.951
9.61882	0.948
9.65865	0.944
9.69848	0.943
9.73831	0.938
9.77815	0.932
9.81798	0.927
9.85781	0.924
9.89764	0.919
9.93747	0.914
9.9773	0.906
10.0171	0.896
10.057	0.886
10.0968	0.874
10.1366	0.857
10.1765	0.84
10.2163	0.815
10.2561	0.79
10.296	0.743
10.3358	0.685
10.3756	0.613
10.4154	0.537
10.4553	0.463
10.4951	0.41
10.5349	0.323
10.5748	0.294
10.6146	0.247
10.6544	0.231
10.6943	0.221
10.7341	0.216
10.7739	0.212
10.8138	0.212
10.8536	0.212
10.8934	0.204
10.9333	0.194
10.9731	0.18
11.0129	0.167
11.0528	0.155
11.0926	0.147
11.1324	0.134
11.1722	0.123
11.2121	0.112
11.2519	0.103
11.2917	0.093
11.3316	0.087
11.3714	0.082
11.4112	0.075
11.4511	0.072
11.4909	0.065
11.5307	0.073
11.5706	0.098
11.6104	0.123
11.6502	0.132
11.6901	0.144
11.7299	0.167
11.7697	0.207
11.8096	0.278
11.8494	0.324
11.8892	0.383
11.929	0.432
11.9689	0.463
12.0087	0.489
12.0485	0.51
12.0884	0.53
12.1282	0.554
12.168	0.581
12.2079	0.601
12.2477	0.623
12.2875	0.636
12.3274	0.654
12.3672	0.676
12.407	0.69
12.4469	0.7
12.4867	0.706
12.5265	0.716
12.5664	0.721
12.6062	0.725
12.646	0.731
12.6858	0.737
12.7257	0.74
12.7655	0.743
12.8053	0.748
12.8452	0.753
12.885	0.758
12.9248	0.763
12.9647	0.765
13.0045	0.773
13.0443	0.778
13.0842	0.787
13.124	0.797
13.1638	0.804
13.2037	0.815
13.2435	0.824
13.2833	0.825
13.3231	0.824
13.363	0.82
13.4028	0.817
13.4426	0.817
13.4825	0.819
13.5223	0.82
13.5621	0.819
13.602	0.819
13.6418	0.817
13.6816	0.82
13.7215	0.822
13.7613	0.817
13.8011	0.812
13.841	0.812
13.8808	0.814
13.9206	0.819
13.9605	0.822
14.0003	0.827
14.0401	0.829
14.0799	0.83
14.1198	0.832
14.1596	0.834
14.1994	0.83
14.2393	0.832
14.2791	0.83
14.3189	0.827
14.3588	0.822
14.3986	0.817
14.4384	0.812
14.4783	0.805
14.5181	0.802
14.5579	0.795
14.5978	0.792
14.6376	0.787
14.6774	0.782
14.7173	0.775
14.7571	0.772
14.7969	0.763
14.8367	0.753
14.8766	0.745
14.9164	0.74
14.9562	0.735
14.9961	0.73
15.0359	0.725
15.0757	0.721
15.1156	0.715
15.1554	0.71
15.1952	0.703
15.2351	0.7
15.2749	0.691
15.3147	0.685
15.3546	0.68
15.3944	0.671
15.4342	0.666
15.4741	0.658
15.5139	0.654
15.5537	0.653
15.5935	0.651
15.6334	0.648
15.6732	0.644
15.713	0.643
15.7529	0.638
15.7927	0.634
15.8325	0.634
15.8724	0.631
15.9122	0.629
15.952	0.624
15.9919	0.623
