Infrared Spectrum: CALCIUM LACTATE PENTAHYDRATE
Formula: C6 H10 O6 Ca  * 5 H2 O
State: SOLID (MINERAL OIL MULL)
Class: COBLENTZ
Instrument: Not specified, most likely a grating spectrometer.
Instrument parameters: PERKIN-ELMER (GRATING)
Sampling: TRANSMISSION
Resolution: 4
MICROMETERS	TRANSMITTANCE
2.034	0.888
2.0677	0.889
2.10139	0.893
2.13509	0.9
2.16879	0.906
2.20248	0.908
2.23618	0.915
2.26987	0.913
2.30357	0.9
2.33727	0.889
2.37096	0.886
2.40466	0.888
2.43836	0.889
2.47205	0.9
2.50575	0.903
2.53945	0.901
2.57314	0.906
2.60684	0.905
2.64053	0.894
2.67423	0.891
2.70793	0.872
2.74162	0.833
2.77532	0.75
2.80902	0.664
2.84271	0.554
2.87641	0.481
2.9101	0.437
2.9438	0.403
2.9775	0.372
3.01119	0.361
3.04489	0.35
3.07859	0.342
3.11228	0.34
3.14598	0.337
3.17968	0.337
3.21337	0.349
3.24707	0.374
3.28076	0.383
3.31446	0.377
3.34816	0.281
3.38185	0.12
3.41555	0.052
3.44925	0.05
3.48294	0.05
3.51664	0.101
3.55034	0.379
3.58403	0.513
3.61773	0.572
3.65142	0.6
3.68512	0.623
3.71882	0.662
3.75251	0.681
3.78621	0.701
3.81991	0.728
3.8536	0.762
3.8873	0.793
3.92099	0.805
3.95469	0.82
3.98839	0.833
4.02208	0.852
4.05578	0.861
4.08948	0.869
4.12317	0.871
4.15687	0.869
4.19057	0.876
4.22426	0.876
4.25796	0.874
4.29165	0.879
4.32535	0.883
4.35905	0.888
4.39274	0.889
4.42644	0.891
4.46014	0.894
4.49383	0.896
4.52753	0.898
4.56123	0.898
4.59492	0.901
4.62862	0.908
4.66231	0.915
4.69601	0.922
4.72971	0.935
4.7634	0.944
4.7971	0.95
4.8308	0.952
4.86449	0.955
4.89819	0.961
4.93188	0.964
4.96558	0.967
4.99928	0.969
5.03297	0.969
5.06667	0.972
5.10037	0.976
5.13406	0.976
5.16776	0.976
5.20146	0.971
5.23515	0.966
5.26885	0.966
5.30254	0.961
5.33624	0.954
5.36994	0.95
5.40363	0.945
5.43733	0.935
5.47103	0.928
5.50472	0.916
5.53842	0.911
5.57212	0.891
5.60581	0.886
5.63951	0.877
5.6732	0.864
5.7069	0.845
5.7406	0.838
5.77429	0.83
5.80799	0.82
5.84169	0.808
5.87538	0.772
5.90908	0.755
5.94277	0.728
5.97647	0.696
6.01017	0.666
6.04386	0.623
6.07756	0.577
6.11126	0.5
6.14495	0.438
6.17865	0.389
6.21235	0.371
6.24604	0.34
6.27974	0.308
6.31343	0.298
6.34713	0.3
6.38083	0.335
6.41452	0.372
6.44822	0.43
6.48192	0.459
6.51561	0.527
6.54931	0.549
6.58301	0.601
6.6167	0.613
6.6504	0.608
6.68409	0.567
6.71779	0.5
6.75149	0.41
6.78518	0.215
6.81888	0.201
6.85258	0.208
6.88627	0.301
6.91997	0.379
6.95366	0.416
6.98736	0.423
7.02106	0.44
7.05475	0.45
7.08845	0.45
7.12215	0.44
7.15584	0.44
7.18954	0.435
7.22324	0.372
7.25693	0.349
7.29063	0.44
7.32432	0.452
7.35802	0.586
7.39172	0.652
7.42541	0.683
7.45911	0.713
7.49281	0.72
7.5265	0.659
7.5602	0.601
7.5939	0.547
7.62759	0.64
7.66129	0.71
7.69498	0.742
7.72868	0.728
7.76238	0.632
7.79607	0.511
7.82977	0.461
7.86347	0.561
7.89716	0.654
7.93086	0.71
7.96455	0.75
7.99825	0.777
8.03195	0.8
8.06564	0.813
8.09934	0.84
8.13304	0.847
8.16673	0.861
8.20043	0.859
8.23413	0.871
8.26782	0.876
8.30152	0.886
8.33521	0.888
8.36891	0.898
8.40261	0.903
8.4363	0.906
8.47	0.91
8.5037	0.903
8.53739	0.891
8.57109	0.886
8.60479	0.877
8.63848	0.869
8.67218	0.866
8.70587	0.85
8.73957	0.813
8.77327	0.75
8.80696	0.628
8.84066	0.469
8.87436	0.386
8.90805	0.418
8.94175	0.411
8.97545	0.596
9.00914	0.676
9.04284	0.7
9.07653	0.703
9.11023	0.752
9.14393	0.803
9.17762	0.82
9.21132	0.84
9.24502	0.852
9.27871	0.857
9.31241	0.857
9.3461	0.864
9.3798	0.866
9.4135	0.866
9.44719	0.84
9.48089	0.776
9.51459	0.762
9.54828	0.805
9.58198	0.838
9.61568	0.862
9.64937	0.871
9.68307	0.877
9.71676	0.883
9.75046	0.889
9.78416	0.891
9.81785	0.891
9.85155	0.889
9.88525	0.891
9.91894	0.889
9.95264	0.889
9.98634	0.888
10.02	0.886
10.0537	0.884
10.0874	0.881
10.1211	0.874
10.1548	0.874
10.1885	0.866
10.2222	0.857
10.2559	0.852
10.2896	0.837
10.3233	0.83
10.357	0.827
10.3907	0.816
10.4244	0.805
10.4581	0.793
10.4918	0.774
10.5255	0.757
10.5592	0.738
10.5929	0.705
10.6266	0.677
10.6603	0.64
10.694	0.628
10.7277	0.65
10.7614	0.703
10.795	0.75
10.8287	0.759
10.8624	0.749
10.8961	0.722
10.9298	0.689
10.9635	0.664
10.9972	0.635
11.0309	0.618
11.0646	0.611
11.0983	0.61
11.132	0.61
11.1657	0.61
11.1994	0.623
11.2331	0.635
11.2668	0.652
11.3005	0.672
11.3342	0.698
11.3679	0.706
11.4016	0.715
11.4353	0.722
11.469	0.727
11.5027	0.725
11.5364	0.718
11.5701	0.701
11.6038	0.662
11.6375	0.652
11.6712	0.662
11.7048	0.691
11.7385	0.723
11.7722	0.744
11.8059	0.754
11.8396	0.762
11.8733	0.764
11.907	0.766
11.9407	0.769
11.9744	0.771
12.0081	0.767
12.0418	0.764
12.0755	0.764
12.1092	0.762
12.1429	0.757
12.1766	0.759
12.2103	0.754
12.244	0.754
12.2777	0.75
12.3114	0.747
12.3451	0.745
12.3788	0.73
12.4125	0.723
12.4462	0.72
12.4799	0.705
12.5136	0.693
12.5473	0.679
12.581	0.659
12.6146	0.638
12.6483	0.608
12.682	0.586
12.7157	0.545
12.7494	0.52
12.7831	0.503
12.8168	0.503
12.8505	0.528
12.8842	0.55
12.9179	0.579
12.9516	0.591
12.9853	0.598
13.019	0.596
13.0527	0.591
13.0864	0.591
13.1201	0.593
13.1538	0.586
13.1875	0.581
13.2212	0.572
13.2549	0.561
13.2886	0.55
13.3223	0.547
13.356	0.538
13.3897	0.53
13.4234	0.518
13.4571	0.511
13.4908	0.505
13.5245	0.493
13.5581	0.479
13.5918	0.476
13.6255	0.471
13.6592	0.469
13.6929	0.462
13.7266	0.455
13.7603	0.444
13.794	0.44
13.8277	0.432
13.8614	0.422
13.8951	0.42
13.9288	0.43
13.9625	0.449
13.9962	0.452
14.0299	0.457
14.0636	0.462
14.0973	0.466
14.131	0.474
14.1647	0.477
14.1984	0.477
14.2321	0.479
14.2658	0.486
14.2995	0.489
14.3332	0.486
14.3669	0.486
14.4006	0.488
14.4343	0.491
14.4679	0.489
14.5016	0.491
14.5353	0.488
14.569	0.491
14.6027	0.491
14.6364	0.493
14.6701	0.493
14.7038	0.493
14.7375	0.494
14.7712	0.494
14.8049	0.494
14.8386	0.494
14.8723	0.494
14.906	0.494
