Infrared Spectrum: OCTATETRAENE DICARBOXYLIC ACID, DIMETHYL ESTER
Formula: C12 H14 O4
State: SOLID (OIL MULL)
Class: COBLENTZ
Instrument: Not specified, most likely a grating spectrometer.
Sampling: TRANSMISSION
Resolution: 4
Origin: ABBOTT LABORATORIES
MICROMETERS	TRANSMITTANCE
1.989	0.312
2.02918	0.314
2.06936	0.315
2.10954	0.32
2.14972	0.324
2.1899	0.322
2.23007	0.32
2.27025	0.319
2.31043	0.32
2.35061	0.32
2.39079	0.325
2.43097	0.328
2.47115	0.335
2.51133	0.338
2.55151	0.335
2.59169	0.335
2.63187	0.338
2.67205	0.343
2.71222	0.348
2.7524	0.35
2.79258	0.351
2.83276	0.351
2.87294	0.35
2.91312	0.35
2.9533	0.358
2.99348	0.356
3.03366	0.358
3.07384	0.361
3.11402	0.365
3.1542	0.358
3.19437	0.36
3.23455	0.358
3.27473	0.333
3.31491	0.258
3.35509	0.123
3.39527	0.106
3.43545	0.136
3.47563	0.179
3.51581	0.315
3.55599	0.355
3.59617	0.375
3.63634	0.383
3.67652	0.386
3.7167	0.386
3.75688	0.389
3.79706	0.393
3.83724	0.396
3.87742	0.401
3.9176	0.407
3.95778	0.411
3.99796	0.421
4.03814	0.427
4.07832	0.429
4.11849	0.424
4.15867	0.422
4.19885	0.421
4.23903	0.43
4.27921	0.43
4.31939	0.437
4.35957	0.449
4.39975	0.45
4.43993	0.453
4.48011	0.457
4.52029	0.463
4.56047	0.472
4.60064	0.473
4.64082	0.476
4.681	0.48
4.72118	0.485
4.76136	0.483
4.80154	0.486
4.84172	0.493
4.8819	0.496
4.92208	0.498
4.96226	0.5
5.00244	0.508
5.04262	0.516
5.08279	0.521
5.12297	0.529
5.16315	0.531
5.20333	0.532
5.24351	0.539
5.28369	0.547
5.32387	0.549
5.36405	0.562
5.40423	0.567
5.44441	0.569
5.48459	0.574
5.52476	0.577
5.56494	0.578
5.60512	0.575
5.6453	0.574
5.68548	0.577
5.72566	0.549
5.76584	0.519
5.80602	0.414
5.8462	0.271
5.88638	0.189
5.92656	0.378
5.96674	0.569
6.00691	0.646
6.04709	0.652
6.08727	0.68
6.12745	0.493
6.16763	0.2
6.20781	0.296
6.24799	0.445
6.28817	0.521
6.32835	0.587
6.36853	0.399
6.40871	0.422
6.44889	0.483
6.48906	0.513
6.52924	0.565
6.56942	0.583
6.6096	0.598
6.64978	0.616
6.68996	0.633
6.73014	0.634
6.77032	0.628
6.8105	0.524
6.85068	0.421
6.89086	0.434
6.93103	0.504
6.97121	0.457
7.01139	0.486
7.05157	0.661
7.09175	0.708
7.13193	0.746
7.17211	0.776
7.21229	0.782
7.25247	0.712
7.29265	0.649
7.33283	0.759
7.37301	0.809
7.41318	0.825
7.45336	0.773
7.49354	0.692
7.53372	0.601
7.5739	0.422
7.61408	0.241
7.65426	0.19
7.69444	0.217
7.73462	0.324
7.7748	0.411
7.81498	0.351
7.85516	0.406
7.89533	0.521
7.93551	0.628
7.97569	0.723
8.01587	0.779
8.05605	0.784
8.09623	0.646
8.13641	0.435
8.17659	0.246
8.21677	0.177
8.25695	0.236
8.29713	0.3
8.33731	0.375
8.37748	0.44
8.41766	0.49
8.45784	0.588
8.49802	0.669
8.5382	0.549
8.57838	0.264
8.61856	0.199
8.65874	0.263
8.69892	0.351
8.7391	0.468
8.77928	0.626
8.81945	0.513
8.85963	0.23
8.89981	0.179
8.93999	0.199
8.98017	0.236
9.02035	0.271
9.06053	0.297
9.10071	0.299
9.14089	0.304
9.18107	0.324
9.22125	0.338
9.26143	0.358
9.3016	0.376
9.34178	0.37
9.38196	0.376
9.42214	0.376
9.46232	0.388
9.5025	0.386
9.54268	0.378
9.58286	0.375
9.62304	0.35
9.66322	0.31
9.7034	0.241
9.74358	0.172
9.78375	0.172
9.82393	0.256
9.86411	0.338
9.90429	0.406
9.94447	0.475
9.98465	0.506
10.0248	0.531
10.065	0.546
10.1052	0.552
10.1454	0.56
10.1855	0.565
10.2257	0.552
10.2659	0.557
10.3061	0.58
10.3463	0.592
10.3864	0.6
10.4266	0.6
10.4668	0.601
10.507	0.605
10.5472	0.61
10.5873	0.606
10.6275	0.613
10.6677	0.613
10.7079	0.613
10.7481	0.61
10.7882	0.611
10.8284	0.592
10.8686	0.529
10.9088	0.544
10.9489	0.595
10.9891	0.613
11.0293	0.618
11.0695	0.621
11.1097	0.625
11.1498	0.615
11.19	0.585
11.2302	0.542
11.2704	0.462
11.3106	0.325
11.3507	0.416
11.3909	0.595
11.4311	0.664
11.4713	0.679
11.5115	0.687
11.5516	0.69
11.5918	0.689
11.632	0.692
11.6722	0.7
11.7124	0.697
11.7525	0.699
11.7927	0.7
11.8329	0.702
11.8731	0.702
11.9132	0.703
11.9534	0.707
11.9936	0.702
12.0338	0.664
12.074	0.582
12.1141	0.648
12.1543	0.694
12.1945	0.718
12.2347	0.731
12.2749	0.738
12.315	0.736
12.3552	0.74
12.3954	0.741
12.4356	0.74
12.4758	0.738
12.5159	0.743
12.5561	0.743
12.5963	0.743
12.6365	0.74
12.6767	0.743
12.7168	0.743
12.757	0.746
12.7972	0.743
12.8374	0.743
12.8775	0.745
12.9177	0.753
12.9579	0.745
12.9981	0.746
13.0383	0.745
13.0784	0.746
13.1186	0.743
13.1588	0.746
13.199	0.745
13.2392	0.743
13.2793	0.745
13.3195	0.741
13.3597	0.74
13.3999	0.738
13.4401	0.736
13.4802	0.736
13.5204	0.735
13.5606	0.73
13.6008	0.725
13.641	0.708
13.6811	0.671
13.7213	0.564
13.7615	0.557
13.8017	0.639
13.8418	0.674
13.882	0.689
13.9222	0.682
13.9624	0.603
14.0026	0.529
14.0427	0.62
14.0829	0.695
14.1231	0.731
14.1633	0.741
14.2035	0.743
14.2436	0.745
14.2838	0.754
14.324	0.756
14.3642	0.754
14.4044	0.756
14.4445	0.754
14.4847	0.759
14.5249	0.751
14.5651	0.743
14.6053	0.746
14.6454	0.75
14.6856	0.748
14.7258	0.741
14.766	0.74
14.8061	0.736
14.8463	0.735
14.8865	0.733
14.9267	0.735
14.9669	0.731
15.007	0.731
15.0472	0.722
15.0874	0.717
15.1276	0.723
15.1678	0.715
15.2079	0.713
15.2481	0.715
15.2883	0.717
15.3285	0.712
15.3687	0.712
15.4088	0.712
15.449	0.713
