Infrared Spectrum: ZINC YELLOW
Formula: 4 Zn O  * 4 Cr O3  * K2 O  * 3 H2 O
State: SOLID (0.7 mg / 300 mg CsI PELLET)
Class: COBLENTZ
Instrument: Not specified, most likely a grating spectrometer.
Sampling: TRANSMISSION
Resolution: 4
Origin: DESOTO CHEMICAL COATINGS, INC.
1/CM	TRANSMITTANCE
201.33	0.648
211.973	0.65
222.616	0.675
233.259	0.734
243.902	0.78
254.545	0.804
265.188	0.823
275.831	0.823
286.474	0.81
297.117	0.793
307.76	0.782
318.403	0.789
329.046	0.801
339.689	0.812
350.333	0.81
360.976	0.81
371.619	0.806
382.262	0.7651
392.905	0.713
403.548	0.747
414.191	0.776
424.834	0.79
435.477	0.802
446.12	0.836
456.763	0.871
467.406	0.89
478.049	0.902
488.692	0.912
499.335	0.914
509.978	0.918
520.621	0.926
531.264	0.932
541.907	0.936
552.55	0.941
563.193	0.946
573.836	0.949
584.479	0.955
595.122	0.961
605.765	0.963
616.408	0.963
627.051	0.962
637.695	0.966
648.338	0.963
658.981	0.951
669.624	0.941
680.267	0.932
690.91	0.912
701.553	0.872
712.196	0.801
722.839	0.768
733.482	0.802
744.125	0.823
754.768	0.806
765.411	0.756
776.054	0.663
786.697	0.55
797.34	0.3611
807.983	0.239
818.626	0.225
829.269	0.34
839.912	0.493
850.555	0.5809
861.198	0.583
871.841	0.2723
882.484	0.065
893.127	0.119
903.77	0.215
914.413	0.3879
925.057	0.486
935.7	0.49
946.343	0.256
956.986	0.13
967.629	0.5606
978.272	0.825
988.915	0.896
999.558	0.91
1010.2	0.911
1020.84	0.908
1031.49	0.903
1042.13	0.896
1052.77	0.89
1063.42	0.883
1074.06	0.879
1084.7	0.88
1095.35	0.883
1105.99	0.888
1116.63	0.892
1127.27	0.898
1137.92	0.902
1148.56	0.907
1159.2	0.911
1169.85	0.911
1180.49	0.915
1191.13	0.919
1201.78	0.922
1212.42	0.923
1223.06	0.926
1233.7	0.923
1244.35	0.924
1254.99	0.927
1265.63	0.924
1276.28	0.927
1286.92	0.924
1297.56	0.927
1308.21	0.926
1318.85	0.924
1329.49	0.924
1340.13	0.922
1350.78	0.919
1361.42	0.922
1372.06	0.918
1382.71	0.916
1393.35	0.916
1403.99	0.915
1414.64	0.915
1425.28	0.914
1435.92	0.916
1446.57	0.918
1457.21	0.916
1467.85	0.918
1478.49	0.919
1489.14	0.92
1499.78	0.92
1510.42	0.919
1521.07	0.914
1531.71	0.911
1542.35	0.906
1553	0.899
1563.64	0.888
1574.28	0.882
1584.92	0.875
1595.57	0.853
1606.21	0.828
1616.85	0.808
1627.5	0.816
1638.14	0.841
1648.78	0.864
1659.43	0.872
1670.07	0.882
1680.71	0.886
1691.36	0.892
1702	0.898
1712.64	0.9
1723.28	0.9
1733.93	0.9
1744.57	0.902
1755.21	0.903
1765.86	0.903
1776.5	0.903
1787.14	0.902
1797.79	0.902
1808.43	0.903
1819.07	0.9
1829.71	0.9
1840.36	0.902
1851	0.903
1861.64	0.902
1872.29	0.902
1882.93	0.9
1893.57	0.902
1904.22	0.904
1914.86	0.902
1925.5	0.904
1936.15	0.907
1946.79	0.908
1957.43	0.907
1968.07	0.908
1978.72	0.91
1989.36	0.912
2000	0.912
2010.65	0.915
2021.29	0.914
2031.93	0.914
2042.58	0.916
2053.22	0.918
2063.86	0.918
2074.5	0.918
2085.15	0.919
2095.79	0.919
2106.43	0.922
2117.08	0.923
2127.72	0.922
2138.36	0.92
2149.01	0.919
2159.65	0.918
2170.29	0.915
2180.93	0.916
2191.58	0.915
2202.22	0.916
2212.86	0.914
2223.51	0.912
2234.15	0.911
2244.79	0.911
2255.44	0.911
2266.08	0.911
2276.72	0.9099
2287.37	0.908
2298.01	0.907
2308.65	0.904
2319.29	0.904
2329.94	0.903
2340.58	0.9018
2351.22	0.899
2361.87	0.9
2372.51	0.899
2383.15	0.8999
2393.8	0.899
2404.44	0.8959
2415.08	0.894
2425.72	0.8919
2436.37	0.8909
2447.01	0.89
2457.65	0.887
2468.3	0.8839
2478.94	0.879
2489.58	0.879
2500.23	0.879
2510.87	0.875
2521.51	0.873
2532.16	0.8719
2542.8	0.869
2553.44	0.8679
2564.08	0.8649
2574.73	0.8631
2585.37	0.861
2596.01	0.861
2606.66	0.86
2617.3	0.861
2627.94	0.86
2638.59	0.86
2649.23	0.86
2659.87	0.859
2670.51	0.8569
2681.16	0.8548
2691.8	0.8529
2702.44	0.852
2713.09	0.852
2723.73	0.8521
2734.37	0.852
2745.02	0.851
2755.66	0.8508
2766.3	0.851
2776.94	0.8507
2787.59	0.849
2798.23	0.8507
2808.87	0.8489
2819.52	0.8467
2830.16	0.843
2840.8	0.8409
2851.45	0.836
2862.09	0.8329
2872.73	0.832
2883.38	0.832
2894.02	0.831
2904.66	0.8278
2915.3	0.823
2925.95	0.8169
2936.59	0.8117
2947.23	0.81
2957.88	0.8117
2968.52	0.8098
2979.16	0.809
2989.81	0.806
3000.45	0.805
3011.09	0.8037
3021.73	0.7997
3032.38	0.7957
3043.02	0.7877
3053.66	0.784
3064.31	0.7803
3074.95	0.773
3085.59	0.7688
3096.24	0.7618
3106.88	0.7528
3117.52	0.746
3128.17	0.739
3138.81	0.7326
3149.45	0.7258
3160.09	0.7188
3170.74	0.7054
3181.38	0.6962
3192.02	0.6816
3202.67	0.6734
3213.31	0.6616
3223.95	0.6536
3234.6	0.6456
3245.24	0.6398
3255.88	0.6318
3266.52	0.628
3277.17	0.6268
3287.81	0.621
3298.45	0.6194
3309.1	0.615
3319.74	0.613
3330.38	0.612
3341.03	0.6106
3351.67	0.6046
3362.31	0.5968
3372.95	0.5886
3383.6	0.5758
3394.24	0.5681
3404.88	0.5513
3415.53	0.5381
3426.17	0.5194
3436.81	0.4983
3447.46	0.4768
3458.1	0.4658
3468.74	0.472
3479.39	0.4987
3490.03	0.5347
3500.67	0.5652
3511.31	0.5905
3521.96	0.6145
3532.6	0.6345
3543.24	0.6523
3553.89	0.6678
3564.53	0.681
3575.17	0.6966
3585.82	0.71
3596.46	0.7215
3607.1	0.7388
3617.74	0.742
3628.39	0.7505
3639.03	0.7585
3649.67	0.7653
3660.32	0.7705
3670.96	0.772
3681.6	0.77
3692.25	0.77
3702.89	0.77
3713.53	0.769
3724.18	0.768
3734.82	0.766
3745.46	0.765
3756.1	0.762
3766.75	0.761
3777.39	0.761
3788.03	0.76
3798.68	0.758
3809.32	0.757
3819.96	0.753
3830.61	0.752
3841.25	0.75
3851.89	0.749
3862.53	0.7484
3873.18	0.7457
3883.82	0.7427
3894.46	0.7417
3905.11	0.7387
3915.75	0.738
3926.39	0.737
3937.04	0.733
3947.68	0.7316
3958.32	0.7316
3968.97	0.731
3979.61	0.7297
