Infrared Spectrum: 1,2,4-BENZOTRIAZIN-3(4H)-ONE, 4(HYDROXYMETHYL)-
Formula: C8 H7 N3 O2
State: SOLID (SPLIT MULL), FLUOROLUBE FOR 3800-1330 CM^-^1, NUJOL FOR 1330-460 CM^-^1
Class: COBLENTZ III
Instrument: DOW KBr FOREPRISM-GRATING
Instrument parameters: BLAZED AT 3.5, 12.0, 20.0 MICRON AND CHANGED AT 5.0, 7.5, 14.9 MICRON
Sampling: TRANSMISSION
Resolution: 2
Origin: DOW CHEMICAL COMPANY
1/CM	TRANSMITTANCE
444.575	0.811
453.373	0.811
462.17	0.807
470.968	0.803
479.766	0.785
488.563	0.765
497.361	0.851
506.159	0.853
514.956	0.854
523.754	0.858
532.552	0.842
541.349	0.824
550.147	0.855
558.945	0.788
567.743	0.869
576.54	0.877
585.338	0.876
594.136	0.846
602.933	0.879
611.731	0.773
620.529	0.879
629.326	0.879
638.124	0.868
646.922	0.868
655.719	0.868
664.517	0.868
673.315	0.868
682.112	0.857
690.91	0.821
699.708	0.743
708.505	0.583
717.303	0.607
726.101	0.603
734.898	0.634
743.696	0.73
752.494	0.737
761.292	0.57
770.089	0.795
778.887	0.714
787.685	0.7101
796.482	0.876
805.28	0.909
814.078	0.875
822.875	0.778
831.673	0.627
840.471	0.884
849.268	0.914
858.066	0.925
866.864	0.924
875.661	0.92
884.459	0.903
893.257	0.91
902.054	0.914
910.852	0.91
919.65	0.896
928.447	0.817
937.245	0.896
946.043	0.899
954.841	0.898
963.638	0.894
972.436	0.89
981.234	0.887
990.031	0.891
998.829	0.892
1007.63	0.881
1016.42	0.851
1025.22	0.885
1034.02	0.88
1042.82	0.87
1051.62	0.847
1060.41	0.78
1069.21	0.679
1078.01	0.347
1086.81	0.5371
1095.6	0.777
1104.4	0.685
1113.2	0.875
1122	0.876
1130.79	0.894
1139.59	0.866
1148.39	0.875
1157.19	0.815
1165.98	0.894
1174.78	0.848
1183.58	0.87
1192.38	0.898
1201.18	0.894
1209.97	0.887
1218.77	0.875
1227.57	0.855
1236.37	0.828
1245.16	0.791
1253.96	0.777
1262.76	0.699
1271.56	0.66
1280.35	0.7331
1289.15	0.773
1297.95	0.679
1306.75	0.515
1315.55	0.516
1324.34	0.741
1333.14	0.6379
1341.94	0.722
1350.74	0.773
1359.53	0.793
1368.33	0.791
1377.13	0.767
1385.93	0.695
1394.72	0.7671
1403.52	0.806
1412.32	0.766
1421.12	0.807
1429.92	0.788
1438.71	0.728
1447.51	0.6051
1456.31	0.6329
1465.11	0.7661
1473.9	0.7329
1482.7	0.858
1491.5	0.862
1500.3	0.855
1509.09	0.837
1517.89	0.785
1526.69	0.6919
1535.49	0.554
1544.29	0.832
1553.08	0.822
1561.88	0.821
1570.68	0.795
1579.48	0.74
1588.27	0.652
1597.07	0.667
1605.87	0.495
1614.67	0.35
1623.46	0.5533
1632.26	0.4099
1641.06	0.23
1649.86	0.273
1658.66	0.4641
1667.45	0.5501
1676.25	0.7981
1685.05	0.876
1693.85	0.92
1702.64	0.938
1711.44	0.953
1720.24	0.964
1729.04	0.98
1737.83	0.979
1746.63	0.986
1755.43	0.987
1764.23	0.978
1773.02	0.982
1781.82	0.98
1790.62	0.978
1799.42	0.976
1808.22	0.973
1817.01	0.971
1825.81	0.967
1834.61	0.961
1843.41	0.962
1852.2	0.957
1861	0.943
1869.8	0.953
1878.6	0.954
1887.39	0.947
1896.19	0.951
1904.99	0.951
1913.79	0.949
1922.59	0.945
1931.38	0.942
1940.18	0.942
1948.98	0.939
1957.78	0.939
1966.57	0.936
1975.37	0.935
1984.17	0.935
1992.97	0.935
2001.76	0.934
2010.56	0.934
2019.36	0.934
2028.16	0.934
2036.96	0.934
2045.75	0.934
2054.55	0.934
2063.35	0.934
2072.15	0.934
2080.94	0.934
2089.74	0.9321
2098.54	0.931
2107.34	0.928
2116.13	0.9241
2124.93	0.92
2133.73	0.916
2142.53	0.914
2151.33	0.912
2160.12	0.912
2168.92	0.91
2177.72	0.9021
2186.52	0.902
2195.31	0.8992
2204.11	0.8962
2212.91	0.896
2221.71	0.8941
2230.5	0.891
2239.3	0.8841
2248.1	0.877
2256.9	0.872
2265.7	0.869
2274.49	0.866
2283.29	0.8641
2292.09	0.862
2300.89	0.8593
2309.68	0.859
2318.48	0.859
2327.28	0.859
2336.08	0.859
2344.87	0.858
2353.67	0.857
2362.47	0.857
2371.27	0.857
2380.06	0.857
2388.86	0.857
2397.66	0.855
2406.46	0.855
2415.26	0.855
2424.05	0.855
2432.85	0.854
2441.65	0.8514
2450.45	0.848
2459.24	0.848
2468.04	0.85
2476.84	0.851
2485.64	0.851
2494.43	0.851
2503.23	0.851
2512.03	0.85
2520.83	0.85
2529.63	0.848
2538.42	0.8473
2547.22	0.847
2556.02	0.844
2564.82	0.842
2573.61	0.839
2582.41	0.8353
2591.21	0.835
2600.01	0.833
2608.8	0.832
2617.6	0.831
2626.4	0.829
2635.2	0.828
2644	0.8253
2652.79	0.824
2661.59	0.8203
2670.39	0.817
2679.19	0.8133
2687.98	0.81
2696.78	0.805
2705.58	0.803
2714.38	0.802
2723.17	0.8
2731.97	0.7984
2740.77	0.796
2749.57	0.7937
2758.37	0.7914
2767.16	0.7884
2775.96	0.785
2784.76	0.781
2793.56	0.777
2802.35	0.7734
2811.15	0.7682
2819.95	0.7624
2828.75	0.7556
2837.54	0.7406
2846.34	0.7206
2855.14	0.7064
2863.94	0.703
2872.74	0.701
2881.53	0.701
2890.33	0.701
2899.13	0.7
2907.93	0.696
2916.72	0.6894
2925.52	0.682
2934.32	0.6871
2943.12	0.693
2951.91	0.6909
2960.71	0.6768
2969.51	0.6945
2978.31	0.723
2987.1	0.723
2995.9	0.718
3004.7	0.711
3013.5	0.707
3022.3	0.705
3031.09	0.7005
3039.89	0.7
3048.69	0.6995
3057.49	0.6925
3066.28	0.678
3075.08	0.6596
3083.88	0.647
3092.68	0.66
3101.47	0.6561
3110.27	0.6431
3119.07	0.6316
3127.87	0.6167
3136.67	0.5982
3145.46	0.5696
3154.26	0.5559
3163.06	0.5298
3171.86	0.5125
3180.65	0.491
3189.45	0.4919
3198.25	0.5054
3207.05	0.527
3215.84	0.5595
3224.64	0.5882
3233.44	0.6237
3242.24	0.6509
3251.04	0.6836
3259.83	0.7056
3268.63	0.7192
3277.43	0.7352
3286.23	0.747
3295.02	0.756
3303.82	0.762
3312.62	0.7664
3321.42	0.7704
3330.21	0.774
3339.01	0.774
3347.81	0.774
3356.61	0.774
3365.41	0.773
3374.2	0.771
3383	0.77
3391.8	0.769
3400.6	0.767
3409.39	0.766
3418.19	0.766
3426.99	0.766
3435.79	0.769
3444.58	0.771
3453.38	0.771
3462.18	0.771
3470.98	0.771
3479.78	0.77
3488.57	0.769
3497.37	0.767
3506.17	0.766
3514.97	0.762
3523.76	0.762
3532.56	0.762
3541.36	0.76
3550.16	0.76
3558.95	0.76
3567.75	0.7597
3576.55	0.7588
3585.35	0.7575
3594.14	0.756
3602.94	0.756
3611.74	0.756
3620.54	0.756
3629.34	0.755
3638.13	0.755
3646.93	0.754
3655.73	0.751
3664.53	0.748
3673.32	0.747
3682.12	0.744
3690.92	0.743
3699.72	0.743
3708.51	0.741
3717.31	0.741
3726.11	0.741
3734.91	0.741
3743.71	0.74
3752.5	0.737
3761.3	0.7338
3770.1	0.7317
3778.9	0.729
3787.69	0.728
3796.49	0.728
