Infrared Spectrum: P-PHENYLAZO CARBANILIC ACID, MENTHYL ESTER
Formula: C23 H29 N3 O2
State: SOLID (1.5 mg / 100 mg KBr)
Melting point: 152-154 C
Class: COBLENTZ
Instrument: Not specified, most likely a grating spectrometer.
Sampling: TRANSMISSION
Resolution: 4
Origin: CITRUS EXPERIMENT STATION, UNIVERSITY OF FLORIDA (G. EDWARDS)
MICROMETERS	TRANSMITTANCE
2.027	0.728
2.06016	0.728
2.09332	0.733
2.12648	0.74
2.15964	0.742
2.1928	0.748
2.22595	0.753
2.25911	0.762
2.29227	0.765
2.32543	0.768
2.35859	0.77
2.39175	0.774
2.42491	0.778
2.45807	0.786
2.49123	0.789
2.52439	0.789
2.55755	0.798
2.5907	0.802
2.62386	0.802
2.65702	0.801
2.69018	0.801
2.72334	0.801
2.7565	0.804
2.78966	0.806
2.82282	0.813
2.85598	0.812
2.88914	0.801
2.9223	0.746
2.95545	0.644
2.98861	0.781
3.02177	0.822
3.05493	0.834
3.08809	0.841
3.12125	0.849
3.15441	0.853
3.18757	0.852
3.22073	0.84
3.25389	0.83
3.28705	0.841
3.3202	0.818
3.35336	0.545
3.38652	0.577
3.41968	0.718
3.45284	0.661
3.486	0.778
3.51916	0.857
3.55232	0.873
3.58548	0.885
3.61864	0.878
3.6518	0.884
3.68495	0.89
3.71811	0.896
3.75127	0.898
3.78443	0.9
3.81759	0.902
3.85075	0.905
3.88391	0.908
3.91707	0.909
3.95023	0.912
3.98339	0.914
4.01655	0.916
4.0497	0.917
4.08286	0.92
4.11602	0.924
4.14918	0.925
4.18234	0.925
4.2155	0.924
4.24866	0.922
4.28182	0.922
4.31498	0.93
4.34814	0.929
4.3813	0.926
4.41445	0.928
4.44761	0.93
4.48077	0.933
4.51393	0.936
4.54709	0.938
4.58025	0.94
4.61341	0.94
4.64657	0.94
4.67973	0.94
4.71289	0.941
4.74605	0.941
4.7792	0.941
4.81236	0.942
4.84552	0.944
4.87868	0.945
4.91184	0.945
4.945	0.945
4.97816	0.945
5.01132	0.945
5.04448	0.942
5.07764	0.942
5.1108	0.942
5.14395	0.942
5.17711	0.942
5.21027	0.942
5.24343	0.942
5.27659	0.945
5.30975	0.946
5.34291	0.949
5.37607	0.952
5.40923	0.95
5.44239	0.95
5.47555	0.949
5.5087	0.941
5.54186	0.934
5.57502	0.928
5.60818	0.93
5.64134	0.932
5.6745	0.913
5.70766	0.88
5.74082	0.825
5.77398	0.792
5.80714	0.546
5.8403	0.408
5.87345	0.604
5.90661	0.773
5.93977	0.877
5.97293	0.904
6.00609	0.916
6.03925	0.93
6.07241	0.932
6.10557	0.936
6.13873	0.924
6.17189	0.87
6.20505	0.773
6.2382	0.672
6.27136	0.678
6.30452	0.854
6.33768	0.921
6.37084	0.902
6.404	0.84
6.43716	0.782
6.47032	0.602
6.50348	0.46
6.53664	0.358
6.5698	0.481
6.60295	0.698
6.63611	0.773
6.66927	0.837
6.70243	0.809
6.73559	0.856
6.76875	0.833
6.80191	0.818
6.83507	0.792
6.86823	0.801
6.90139	0.773
6.93455	0.812
6.9677	0.91
7.00086	0.909
7.03402	0.792
7.06718	0.512
7.10034	0.646
7.1335	0.844
7.16666	0.861
7.19982	0.85
7.23298	0.852
7.26614	0.762
7.2993	0.846
7.33245	0.905
7.36561	0.914
7.39877	0.914
7.43193	0.912
7.46509	0.909
7.49825	0.884
7.53141	0.83
7.56457	0.785
7.59773	0.744
7.63089	0.568
7.66405	0.677
7.6972	0.809
7.73036	0.872
7.76352	0.896
7.79668	0.91
7.82984	0.91
7.863	0.886
7.89616	0.878
7.92932	0.861
7.96248	0.841
7.99564	0.826
8.0288	0.741
8.06195	0.621
8.09511	0.438
8.12827	0.284
8.16143	0.321
8.19459	0.412
8.22775	0.564
8.26091	0.688
8.29407	0.752
8.32723	0.81
8.36039	0.848
8.39355	0.833
8.4267	0.761
8.45986	0.769
8.49302	0.838
8.52618	0.884
8.55934	0.888
8.5925	0.876
8.62566	0.788
8.65882	0.725
8.69198	0.808
8.72514	0.845
8.7583	0.865
8.79145	0.909
8.82461	0.924
8.85777	0.928
8.89093	0.924
8.92409	0.917
8.95725	0.892
8.99041	0.853
9.02357	0.826
9.05673	0.865
9.08989	0.862
9.12305	0.868
9.1562	0.901
9.18936	0.897
9.22252	0.834
9.25568	0.801
9.28884	0.886
9.322	0.894
9.35516	0.852
9.38832	0.818
9.42148	0.736
9.45464	0.774
9.4878	0.698
9.52095	0.521
9.55411	0.525
9.58727	0.642
9.62043	0.714
9.65359	0.792
9.68675	0.857
9.71991	0.9
9.75307	0.914
9.78623	0.904
9.81939	0.864
9.85255	0.865
9.8857	0.893
9.91886	0.922
9.95202	0.926
9.98518	0.93
10.0183	0.936
10.0515	0.94
10.0847	0.928
10.1178	0.91
10.151	0.816
10.1841	0.802
10.2173	0.88
10.2505	0.913
10.2836	0.877
10.3168	0.813
10.3499	0.844
10.3831	0.897
10.4162	0.922
10.4494	0.93
10.4826	0.94
10.5157	0.933
10.5489	0.944
10.582	0.95
10.6152	0.952
10.6484	0.952
10.6815	0.95
10.7147	0.946
10.7478	0.941
10.781	0.924
10.8142	0.904
10.8473	0.902
10.8805	0.892
10.9136	0.912
10.9468	0.942
10.98	0.954
11.0131	0.961
11.0463	0.962
11.0794	0.96
11.1126	0.96
11.1457	0.962
11.1789	0.965
11.2121	0.962
11.2452	0.956
11.2784	0.952
11.3115	0.936
11.3447	0.917
11.3779	0.937
11.411	0.946
11.4442	0.942
11.4773	0.922
11.5105	0.898
11.5437	0.91
11.5768	0.929
11.61	0.942
11.6431	0.942
11.6763	0.936
11.7095	0.926
11.7426	0.901
11.7758	0.853
11.8089	0.76
11.8421	0.622
11.8753	0.55
11.9084	0.605
11.9416	0.68
11.9747	0.768
12.0079	0.832
12.041	0.862
12.0742	0.894
12.1074	0.909
12.1405	0.917
12.1737	0.921
12.2068	0.921
12.24	0.921
12.2732	0.922
12.3063	0.922
12.3395	0.921
12.3726	0.921
12.4058	0.922
12.439	0.924
12.4721	0.926
12.5053	0.929
12.5384	0.925
12.5716	0.918
12.6047	0.906
12.6379	0.897
12.6711	0.889
12.7042	0.88
12.7374	0.873
12.7705	0.866
12.8037	0.862
12.8369	0.865
12.87	0.873
12.9032	0.877
12.9363	0.87
12.9695	0.829
13.0027	0.773
13.0358	0.717
13.069	0.637
13.1021	0.637
13.1353	0.724
13.1685	0.798
13.2016	0.842
13.2348	0.865
13.2679	0.884
13.3011	0.898
13.3343	0.9
13.3674	0.89
13.4006	0.88
13.4337	0.881
13.4669	0.89
13.5	0.902
13.5332	0.91
13.5664	0.913
13.5995	0.914
13.6327	0.914
13.6658	0.914
13.699	0.914
13.7322	0.914
13.7653	0.912
13.7985	0.905
13.8316	0.9
13.8648	0.873
13.898	0.83
13.9311	0.802
13.9643	0.82
13.9974	0.853
14.0306	0.87
14.0637	0.888
14.0969	0.896
14.1301	0.898
14.1632	0.898
14.1964	0.898
14.2295	0.896
14.2627	0.889
14.2959	0.88
14.329	0.869
14.3622	0.861
14.3953	0.845
14.4285	0.821
14.4617	0.797
14.4948	0.757
14.528	0.69
14.5611	0.626
14.5943	0.586
14.6275	0.617
14.6606	0.68
14.6938	0.74
14.7269	0.784
14.7601	0.801
14.7933	0.812
14.8264	0.814
14.8596	0.814
14.8927	0.793
14.9259	0.757
14.959	0.742
14.9922	0.79
