Infrared Spectrum: BENZOYL FERROCENE OXIME
Formula: C17 H15 Fe N O
State: SOLID (MINERAL OIL MULL)
Melting point: 161-162.5 C
Class: COBLENTZ
Instrument: Not specified, most likely a prism, grating, or hybrid spectrometer.
Sampling: TRANSMISSION
Resolution: 4
Origin: WYANDOTTE CHEMICALS CORP., WYANDOTTE, MICHIGAN, USA
MICROMETERS	TRANSMITTANCE
2.02	0.282
2.06076	0.284
2.10152	0.296
2.14228	0.306
2.18304	0.301
2.2238	0.323
2.26456	0.335
2.30531	0.342
2.34607	0.344
2.38683	0.373
2.42759	0.381
2.46835	0.39
2.50911	0.407
2.54987	0.431
2.59063	0.444
2.63139	0.453
2.67215	0.473
2.71291	0.488
2.75367	0.488
2.79442	0.488
2.83518	0.483
2.87594	0.459
2.9167	0.408
2.95746	0.349
2.99822	0.248
3.03898	0.134
3.07974	0.097
3.1205	0.09
3.16126	0.095
3.20202	0.08
3.24278	0.071
3.28353	0.08
3.32429	0.052
3.36505	0.051
3.40581	0.057
3.44657	0.054
3.48733	0.069
3.52809	0.27
3.56885	0.408
3.60961	0.473
3.65037	0.492
3.69113	0.526
3.73189	0.55
3.77264	0.591
3.8134	0.614
3.85416	0.632
3.89492	0.649
3.93568	0.676
3.97644	0.695
4.0172	0.71
4.05796	0.72
4.09872	0.729
4.13948	0.729
4.18024	0.741
4.221	0.737
4.26176	0.741
4.30251	0.761
4.34327	0.816
4.38403	0.829
4.42479	0.817
4.46555	0.812
4.50631	0.819
4.54707	0.827
4.58783	0.843
4.62859	0.851
4.66935	0.87
4.71011	0.882
4.75087	0.887
4.79162	0.897
4.83238	0.901
4.87314	0.909
4.9139	0.913
4.95466	0.916
4.99542	0.925
5.03618	0.933
5.07694	0.933
5.1177	0.921
5.15846	0.918
5.19922	0.935
5.23998	0.938
5.28073	0.931
5.32149	0.909
5.36225	0.945
5.40301	0.972
5.44377	0.974
5.48453	0.959
5.52529	0.933
5.56605	0.93
5.60681	0.899
5.64757	0.865
5.68833	0.855
5.72909	0.868
5.76984	0.851
5.8106	0.851
5.85136	0.819
5.89212	0.8
5.93288	0.821
5.97364	0.8
6.0144	0.698
6.05516	0.49
6.09592	0.48
6.13668	0.775
6.17744	0.819
6.2182	0.855
6.25896	0.826
6.29971	0.848
6.34047	0.875
6.38123	0.875
6.42199	0.848
6.46275	0.858
6.50351	0.846
6.54427	0.841
6.58503	0.807
6.62579	0.65
6.66655	0.623
6.70731	0.458
6.74807	0.18
6.78882	0.091
6.82958	0.078
6.87034	0.09
6.9111	0.201
6.95186	0.315
6.99262	0.419
7.03338	0.432
7.07414	0.441
7.1149	0.47
7.15566	0.475
7.19642	0.206
7.23718	0.148
7.27793	0.395
7.31869	0.589
7.35945	0.548
7.40021	0.553
7.44097	0.357
7.48173	0.599
7.52249	0.667
7.56325	0.519
7.60401	0.492
7.64477	0.269
7.68553	0.32
7.72629	0.519
7.76704	0.575
7.8078	0.688
7.84856	0.775
7.88932	0.829
7.93008	0.839
7.97084	0.831
8.0116	0.86
8.05236	0.875
8.09312	0.889
8.13388	0.902
8.17464	0.899
8.2154	0.836
8.25616	0.863
8.29691	0.887
8.33767	0.834
8.37843	0.751
8.41919	0.667
8.45995	0.751
8.50071	0.795
8.54147	0.834
8.58223	0.829
8.62299	0.868
8.66375	0.879
8.70451	0.892
8.74527	0.918
8.78602	0.918
8.82678	0.918
8.86754	0.892
8.9083	0.88
8.94906	0.846
8.98982	0.567
9.03058	0.441
9.07134	0.747
9.1121	0.829
9.15286	0.839
9.19362	0.844
9.23438	0.735
9.27513	0.64
9.31589	0.766
9.35665	0.717
9.39741	0.366
9.43817	0.347
9.47893	0.536
9.51969	0.693
9.56045	0.775
9.60121	0.666
9.64197	0.522
9.68273	0.311
9.72349	0.415
9.76424	0.698
9.805	0.77
9.84576	0.781
9.88652	0.672
9.92728	0.42
9.96804	0.24
10.0088	0.156
10.0496	0.112
10.0903	0.197
10.1311	0.366
10.1718	0.574
10.2126	0.695
10.2534	0.744
10.2941	0.758
10.3349	0.768
10.3756	0.798
10.4164	0.81
10.4572	0.788
10.4979	0.703
10.5387	0.5
10.5794	0.195
10.6202	0.134
10.6609	0.4
10.7017	0.684
10.7425	0.747
10.7832	0.645
10.824	0.393
10.8647	0.403
10.9055	0.412
10.9463	0.362
10.987	0.471
11.0278	0.722
11.0685	0.805
11.1093	0.841
11.1501	0.844
11.1908	0.829
11.2316	0.793
11.2723	0.596
11.3131	0.427
11.3539	0.654
11.3946	0.771
11.4354	0.792
11.4761	0.764
11.5169	0.691
11.5576	0.73
11.5984	0.8
11.6392	0.812
11.6799	0.742
11.7207	0.635
11.7614	0.48
11.8022	0.275
11.843	0.19
11.8837	0.228
11.9245	0.432
11.9652	0.499
12.006	0.371
12.0468	0.247
12.0875	0.201
12.1283	0.182
12.169	0.143
12.2098	0.127
12.2506	0.144
12.2913	0.102
12.3321	0.086
12.3728	0.134
12.4136	0.257
12.4544	0.374
12.4951	0.446
12.5359	0.468
12.5766	0.442
12.6174	0.396
12.6581	0.369
12.6989	0.344
12.7397	0.339
12.7804	0.335
12.8212	0.332
12.8619	0.321
12.9027	0.26
12.9435	0.185
12.9842	0.126
13.025	0.097
13.0657	0.131
13.1065	0.236
13.1473	0.359
13.188	0.456
13.2288	0.56
13.2695	0.611
13.3103	0.642
13.3511	0.672
13.3918	0.689
13.4326	0.689
13.4733	0.679
13.5141	0.647
13.5548	0.616
13.5956	0.611
13.6364	0.604
13.6771	0.55
13.7179	0.42
13.7586	0.315
13.7994	0.344
13.8402	0.446
13.8809	0.529
13.9217	0.568
13.9624	0.572
14.0032	0.5
14.044	0.437
14.0847	0.48
14.1255	0.55
14.1662	0.529
14.207	0.449
14.2478	0.31
14.2885	0.192
14.3293	0.126
14.37	0.115
14.4108	0.197
14.4516	0.333
14.4923	0.465
14.5331	0.553
14.5738	0.567
14.6146	0.596
14.6553	0.657
14.6961	0.708
14.7369	0.758
14.7776	0.78
14.8184	0.787
14.8591	0.787
14.8999	0.776
14.9407	0.747
14.9814	0.693
15.0222	0.633
15.0629	0.625
15.1037	0.667
15.1445	0.713
15.1852	0.747
15.226	0.776
15.2667	0.781
15.3075	0.778
15.3483	0.768
15.389	0.756
15.4298	0.756
15.4705	0.749
15.5113	0.737
15.552	0.735
15.5928	0.734
15.6336	0.718
15.6743	0.71
15.7151	0.691
15.7558	0.681
15.7966	0.664
15.8374	0.657
15.8781	0.647
15.9189	0.63
15.9596	0.613
16.0004	0.603
