Infrared Spectrum: METHANE DISULFONIC ACID, DIPOTASSIUM SALT
Formula: C H2 K2 O6 S2
State: SOLID (MINERAL OIL MULL)
Class: COBLENTZ
Instrument: Not specified, most likely a prism, grating, or hybrid spectrometer.
Sampling: TRANSMISSION
Resolution: 4
Origin: DOW CHEMICAL COMPANY
MICROMETERS	TRANSMITTANCE
2.014	0.763
2.05513	0.765
2.09627	0.768
2.1374	0.768
2.17854	0.768
2.21967	0.767
2.2608	0.758
2.30194	0.753
2.34307	0.756
2.38421	0.765
2.42534	0.768
2.46647	0.77
2.50761	0.778
2.54874	0.778
2.58988	0.778
2.63101	0.784
2.67214	0.785
2.71328	0.785
2.75441	0.78
2.79555	0.773
2.83668	0.768
2.87781	0.763
2.91895	0.755
2.96008	0.758
3.00122	0.76
3.04235	0.768
3.08348	0.773
3.12462	0.773
3.16575	0.768
3.20689	0.768
3.24802	0.763
3.28915	0.698
3.33029	0.6
3.37142	0.346
3.41256	0.112
3.45369	0.215
3.49482	0.277
3.53596	0.525
3.57709	0.761
3.61823	0.794
3.65936	0.795
3.70049	0.801
3.74163	0.804
3.78276	0.806
3.8239	0.812
3.86503	0.819
3.90616	0.823
3.9473	0.829
3.98843	0.829
4.02957	0.831
4.0707	0.829
4.11183	0.833
4.15297	0.833
4.1941	0.835
4.23524	0.833
4.27637	0.833
4.3175	0.84
4.35864	0.833
4.39977	0.833
4.44091	0.84
4.48204	0.831
4.52317	0.835
4.56431	0.85
4.60544	0.86
4.64658	0.857
4.68771	0.862
4.72884	0.862
4.76998	0.862
4.81111	0.86
4.85225	0.865
4.89338	0.865
4.93451	0.869
4.97565	0.869
5.01678	0.863
5.05792	0.874
5.09905	0.874
5.14018	0.874
5.18132	0.875
5.22245	0.872
5.26359	0.872
5.30472	0.875
5.34585	0.875
5.38699	0.877
5.42812	0.875
5.46926	0.879
5.51039	0.879
5.55152	0.88
5.59266	0.879
5.63379	0.879
5.67493	0.879
5.71606	0.872
5.75719	0.869
5.79833	0.872
5.83946	0.87
5.8806	0.872
5.92173	0.875
5.96286	0.875
6.004	0.872
6.04513	0.872
6.08627	0.879
6.1274	0.87
6.16853	0.87
6.20967	0.87
6.2508	0.863
6.29193	0.869
6.33307	0.87
6.3742	0.874
6.41534	0.867
6.45647	0.874
6.4976	0.87
6.53874	0.87
6.57987	0.865
6.62101	0.867
6.66214	0.858
6.70327	0.84
6.74441	0.795
6.78554	0.642
6.82668	0.5
6.86781	0.511
6.90894	0.613
6.95008	0.721
6.99121	0.795
7.03235	0.816
7.07348	0.821
7.11461	0.819
7.15575	0.802
7.19688	0.729
7.23802	0.595
7.27915	0.596
7.32028	0.695
7.36142	0.758
7.40255	0.763
7.44369	0.758
7.48482	0.756
7.52595	0.755
7.56709	0.744
7.60822	0.721
7.64936	0.705
7.69049	0.678
7.73162	0.649
7.77276	0.59
7.81389	0.425
7.85503	0.241
7.89616	0.304
7.93729	0.292
7.97843	0.2
8.01956	0.12
8.0607	0.085
8.10183	0.069
8.14296	0.062
8.1841	0.054
8.22523	0.074
8.26637	0.119
8.3075	0.136
8.34863	0.263
8.38977	0.391
8.4309	0.51
8.47204	0.581
8.51317	0.632
8.5543	0.671
8.59544	0.7
8.63657	0.724
8.67771	0.743
8.71884	0.761
8.75997	0.768
8.80111	0.77
8.84224	0.77
8.88338	0.768
8.92451	0.799
8.96564	0.804
9.00678	0.801
9.04791	0.799
9.08905	0.799
9.13018	0.795
9.17131	0.782
9.21245	0.768
9.25358	0.685
9.29472	0.537
9.33585	0.518
9.37698	0.576
9.41812	0.712
9.45925	0.763
9.50039	0.758
9.54152	0.731
9.58265	0.685
9.62379	0.646
9.66492	0.574
9.70606	0.411
9.74719	0.232
9.78832	0.132
9.82946	0.166
9.87059	0.421
9.91173	0.602
9.95286	0.719
9.99399	0.748
10.0351	0.741
10.0763	0.748
10.1174	0.782
10.1585	0.831
10.1997	0.841
10.2408	0.852
10.2819	0.857
10.3231	0.86
10.3642	0.863
10.4053	0.865
10.4465	0.869
10.4876	0.869
10.5287	0.869
10.5699	0.867
10.611	0.867
10.6521	0.863
10.6933	0.862
10.7344	0.862
10.7755	0.865
10.8167	0.867
10.8578	0.867
10.8989	0.867
10.9401	0.867
10.9812	0.869
11.0223	0.869
11.0635	0.869
11.1046	0.869
11.1457	0.867
11.1869	0.867
11.228	0.865
11.2691	0.865
11.3103	0.867
11.3514	0.869
11.3925	0.87
11.4337	0.87
11.4748	0.87
11.516	0.87
11.5571	0.867
11.5982	0.867
11.6394	0.867
11.6805	0.862
11.7216	0.86
11.7628	0.862
11.8039	0.863
11.845	0.862
11.8862	0.86
11.9273	0.857
11.9684	0.848
12.0096	0.831
12.0507	0.809
12.0918	0.794
12.133	0.761
12.1741	0.7
12.2152	0.6
12.2564	0.484
12.2975	0.358
12.3386	0.28
12.3798	0.321
12.4209	0.44
12.462	0.551
12.5032	0.619
12.5443	0.678
12.5854	0.721
12.6266	0.755
12.6677	0.768
12.7088	0.778
12.75	0.78
12.7911	0.767
12.8322	0.724
12.8734	0.639
12.9145	0.576
12.9556	0.61
12.9968	0.717
13.0379	0.775
13.079	0.795
13.1202	0.802
13.1613	0.807
13.2024	0.809
13.2436	0.809
13.2847	0.809
13.3258	0.807
13.367	0.806
13.4081	0.799
13.4492	0.795
13.4904	0.79
13.5315	0.785
13.5727	0.778
13.6138	0.775
13.6549	0.768
13.6961	0.765
13.7372	0.758
13.7783	0.751
13.8195	0.744
13.8606	0.743
13.9017	0.739
13.9429	0.741
13.984	0.746
14.0251	0.744
14.0663	0.738
14.1074	0.736
14.1485	0.729
14.1897	0.724
14.2308	0.715
14.2719	0.705
14.3131	0.693
14.3542	0.681
14.3953	0.668
14.4365	0.658
14.4776	0.649
14.5187	0.649
14.5599	0.649
14.601	0.647
14.6421	0.641
14.6833	0.636
14.7244	0.629
14.7655	0.62
14.8067	0.613
14.8478	0.608
14.8889	0.598
14.9301	0.585
14.9712	0.576
15.0123	0.571
15.0535	0.559
15.0946	0.556
15.1357	0.547
15.1769	0.54
15.218	0.535
15.2591	0.527
15.3003	0.517
15.3414	0.506
15.3825	0.498
15.4237	0.482
15.4648	0.471
15.5059	0.457
15.5471	0.447
15.5882	0.433
15.6294	0.416
15.6705	0.397
15.7116	0.37
15.7528	0.352
15.7939	0.343
15.835	0.34
15.8762	0.336
15.9173	0.346
