Infrared Spectrum: DIBROMO-Beta-NAPHTHOL
Formula: C10 H6 Br2 O
State: SOLID (1.0% IN KBr PELLET)
Class: COBLENTZ
Instrument: Not specified, most likely a prism, grating, or hybrid spectrometer.
Sampling: TRANSMISSION
Path length: 0.0355 CM
Resolution: 4
Origin: ANDERSON PHYSICAL LABORATORY
1/CM	TRANSMITTANCE
668.015	0.794
676.416	0.77
684.817	0.8079
693.217	0.901
701.618	0.901
710.019	0.898
718.42	0.89
726.82	0.877
735.221	0.859
743.622	0.838
752.023	0.818
760.424	0.818
768.824	0.793
777.225	0.745
785.626	0.758
794.027	0.758
802.427	0.709
810.828	0.589
819.229	0.379
827.63	0.247
836.031	0.476
844.431	0.7748
852.832	0.863
861.233	0.808
869.634	0.736
878.035	0.5951
886.435	0.4
894.836	0.5199
903.237	0.764
911.638	0.748
920.038	0.685
928.439	0.5481
936.84	0.395
945.241	0.5658
953.642	0.725
962.042	0.623
970.443	0.61
978.844	0.7
987.245	0.763
995.645	0.751
1004.05	0.761
1012.45	0.752
1020.85	0.725
1029.25	0.703
1037.65	0.698
1046.05	0.674
1054.45	0.638
1062.85	0.566
1071.25	0.487
1079.65	0.394
1088.05	0.43
1096.45	0.538
1104.86	0.533
1113.26	0.473
1121.66	0.397
1130.06	0.29
1138.46	0.184
1146.86	0.184
1155.26	0.127
1163.66	0.188
1172.06	0.11
1180.46	0.098
1188.86	0.2689
1197.26	0.482
1205.66	0.487
1214.07	0.397
1222.47	0.254
1230.87	0.158
1239.27	0.401
1247.67	0.689
1256.07	0.668
1264.47	0.571
1272.87	0.583
1281.27	0.5291
1289.67	0.634
1298.07	0.662
1306.47	0.631
1314.88	0.499
1323.28	0.322
1331.68	0.4001
1340.08	0.484
1348.48	0.4191
1356.88	0.304
1365.28	0.269
1373.68	0.5569
1382.08	0.494
1390.48	0.289
1398.88	0.29
1407.28	0.61
1415.68	0.64
1424.09	0.68
1432.49	0.698
1440.89	0.764
1449.29	0.758
1457.69	0.746
1466.09	0.679
1474.49	0.538
1482.89	0.5
1491.29	0.56
1499.69	0.4569
1508.09	0.29
1516.49	0.3549
1524.89	0.7459
1533.3	0.785
1541.7	0.773
1550.1	0.698
1558.5	0.631
1566.9	0.563
1575.3	0.434
1583.7	0.3099
1592.1	0.224
1600.5	0.166
1608.9	0.2929
1617.3	0.497
1625.7	0.4
1634.1	0.724
1642.51	0.788
1650.91	0.8
1659.31	0.805
1667.71	0.802
1676.11	0.782
1684.51	0.752
1692.91	0.752
1701.31	0.749
1709.71	0.749
1718.11	0.746
1726.51	0.745
1734.91	0.737
1743.31	0.734
1751.72	0.719
1760.12	0.701
1768.52	0.694
1776.92	0.701
1785.32	0.725
1793.72	0.734
1802.12	0.736
1810.52	0.731
1818.92	0.73
1827.32	0.724
1835.72	0.712
1844.12	0.71
1852.53	0.706
1860.93	0.701
1869.33	0.7
1877.73	0.695
1886.13	0.682
1894.53	0.667
1902.93	0.649
1911.33	0.632
1919.73	0.635
1928.13	0.652
1936.53	0.655
1944.93	0.661
1953.33	0.664
1961.74	0.664
1970.14	0.661
1978.54	0.653
1986.94	0.65
1995.34	0.644
2003.74	0.629
2012.14	0.6223
2020.54	0.6165
2028.94	0.6145
2037.34	0.61
2045.74	0.6078
2054.14	0.602
2062.54	0.5983
2070.95	0.5961
2079.35	0.5883
2087.75	0.5835
2096.15	0.5779
2104.55	0.5741
2112.95	0.5706
2121.35	0.5666
2129.75	0.563
2138.15	0.5602
2146.55	0.559
2154.95	0.559
2163.35	0.559
2171.75	0.557
2180.16	0.551
2188.56	0.5487
2196.96	0.5456
2205.36	0.5382
2213.76	0.5345
2222.16	0.5296
2230.56	0.529
2238.96	0.5261
2247.36	0.5205
2255.76	0.515
2264.16	0.51
2272.56	0.5053
2280.96	0.5029
2289.37	0.4996
2297.77	0.4951
2306.17	0.4901
2314.57	0.4849
2322.97	0.4816
2331.37	0.4768
2339.77	0.4751
2348.17	0.473
2356.57	0.473
2364.97	0.473
2373.37	0.472
2381.77	0.472
2390.17	0.4713
2398.58	0.466
2406.98	0.4558
2415.38	0.4519
2423.78	0.449
2432.18	0.4484
2440.58	0.4463
2448.98	0.4448
2457.38	0.4427
2465.78	0.44
2474.18	0.439
2482.58	0.436
2490.98	0.4337
2499.39	0.4304
2507.79	0.4272
2516.19	0.4239
2524.59	0.4203
2532.99	0.4169
2541.39	0.4134
2549.79	0.41
2558.19	0.409
2566.59	0.407
2574.99	0.407
2583.39	0.407
2591.79	0.4067
2600.19	0.406
2608.6	0.406
2617	0.404
2625.4	0.403
2633.8	0.4019
2642.2	0.3984
2650.6	0.398
2659	0.3965
2667.4	0.395
2675.8	0.3942
2684.2	0.394
2692.6	0.392
2701	0.39
2709.4	0.3882
2717.81	0.388
2726.21	0.383
2734.61	0.3785
2743.01	0.376
2751.41	0.373
2759.81	0.3703
2768.21	0.366
2776.61	0.3618
2785.01	0.359
2793.41	0.356
2801.81	0.3555
2810.21	0.355
2818.61	0.353
2827.02	0.3516
2835.42	0.3465
2843.82	0.3416
2852.22	0.34
2860.62	0.338
2869.02	0.337
2877.42	0.337
2885.82	0.337
2894.22	0.3366
2902.62	0.335
2911.02	0.3326
2919.42	0.331
2927.82	0.3306
2936.23	0.3258
2944.63	0.3186
2953.03	0.3111
2961.43	0.3018
2969.83	0.2986
2978.23	0.2967
2986.63	0.2951
2995.03	0.2928
3003.43	0.29
3011.83	0.29
3020.23	0.2891
3028.63	0.2869
3037.04	0.284
3045.44	0.284
3053.84	0.284
3062.24	0.286
3070.64	0.286
3079.04	0.284
3087.44	0.283
3095.84	0.28
3104.24	0.278
3112.64	0.277
3121.04	0.277
3129.44	0.2749
3137.84	0.2699
3146.25	0.268
3154.65	0.2651
3163.05	0.2588
3171.45	0.2553
3179.85	0.2534
3188.25	0.2513
3196.65	0.2476
3205.05	0.241
3213.45	0.2354
3221.85	0.233
3230.25	0.2298
3238.65	0.2267
3247.05	0.2234
3255.46	0.223
3263.86	0.22
3272.26	0.218
3280.66	0.2174
3289.06	0.2099
3297.46	0.2049
3305.86	0.2014
3314.26	0.1931
3322.66	0.1826
3331.06	0.1749
3339.46	0.1688
3347.86	0.1623
3356.26	0.1548
3364.67	0.1479
3373.07	0.1373
3381.47	0.1294
3389.87	0.1226
3398.27	0.1149
3406.67	0.112
3415.07	0.1125
3423.47	0.1181
3431.87	0.1332
3440.27	0.1495
3448.67	0.151
3457.07	0.151
3465.47	0.151
3473.88	0.1535
3482.28	0.1775
3490.68	0.1969
3499.08	0.233
3507.48	0.2547
3515.88	0.264
3524.28	0.2682
3532.68	0.271
3541.08	0.2772
3549.48	0.28
3557.88	0.2786
3566.28	0.278
3574.68	0.277
3583.09	0.277
3591.49	0.277
3599.89	0.277
3608.29	0.28
3616.69	0.28
3625.09	0.28
3633.49	0.28
3641.89	0.2766
3650.29	0.2731
3658.69	0.272
3667.09	0.272
3675.49	0.271
3683.9	0.269
3692.3	0.269
3700.7	0.2661
3709.1	0.257
3717.5	0.254
3725.9	0.253
3734.3	0.251
3742.7	0.25
3751.1	0.2492
3759.5	0.247
3767.9	0.247
3776.3	0.247
3784.7	0.247
3793.11	0.2457
3801.51	0.245
3809.91	0.245
3818.31	0.245
3826.71	0.245
3835.11	0.245
3843.51	0.242
3851.91	0.242
3860.31	0.242
3868.71	0.242
3877.11	0.2419
3885.51	0.241
3893.91	0.241
3902.32	0.2393
3910.72	0.2387
3919.12	0.235
3927.52	0.2338
3935.92	0.2322
3944.32	0.232
3952.72	0.232
3961.12	0.232
3969.52	0.2303
3977.92	0.23
3986.32	0.23
