Infrared Spectrum: 1,4-BUTANEDIAMINE, N,N'-BIS-(3-AMINOPROPYL)-, DIPHOSPHATE
Formula: C10 H26 N4  * ( H3 O4 P)2
State: SOLID (SPLIT MULL)
Class: COBLENTZ III
Instrument: DOW KBr FOREPRISM-GRATING
Instrument parameters: BLAZED AT 3.5, 12.0, 20.0 MICRON AND CHANGED AT 5.0, 7.5, 14.9 MICRON
Sampling: TRANSMISSION
Resolution: 2
Origin: DOW CHEMICAL COMPANY
1/CM	TRANSMITTANCE
377	1.0228
386	1.0252
395	1.0265
404	1.0212
413	1.0092
422	0.9982
431	1.0155
440	1.0259
449	1.0109
458	0.9932
467	0.976
476	0.9542
485	0.9228
494	0.9073
503	0.8759
512	0.8167
521	0.7048
530	0.5023
539	0.3718
548	0.5293
557	0.4082
566	0.5436
575	0.6653
584	0.7187
593	0.7371
602	0.7393
611	0.7353
620	0.7208
629	0.7005
638	0.6695
647	0.6333
656	0.5949
665	0.5709
674	0.5497
683	0.5696
692	0.5914
701	0.6012
710	0.5951
719	0.5718
728	0.5871
737	0.6026
746	0.6075
755	0.607
764	0.5734
773	0.4741
782	0.4945
791	0.6682
800	0.6353
809	0.6065
818	0.5782
827	0.5371
836	0.5117
845	0.5479
854	0.586
863	0.609
872	0.5697
881	0.416
890	0.2547
899	0.5633
908	0.7478
917	0.7607
926	0.7489
935	0.6791
944	0.5601
953	0.1951
962	0.1829
971	0.4853
980	0.4795
989	0.477
998	0.6366
1007	0.6192
1016	0.5577
1025	0.413
1034	0.2495
1043	0.0814
1052	0.083
1061	0.0473
1070	0.0386
1079	0.0735
1088	0.1687
1097	0.3234
1106	0.4791
1115	0.5557
1124	0.6089
1133	0.6493
1142	0.6861
1151	0.69
1160	0.6835
1169	0.6504
1178	0.6047
1187	0.5606
1196	0.5062
1205	0.4795
1214	0.6124
1223	0.7161
1232	0.7646
1241	0.7754
1250	0.7211
1259	0.8008
1268	0.8098
1277	0.8142
1286	0.8071
1295	0.7946
1304	0.8157
1313	0.8176
1322	0.8275
1331	0.8244
1340	0.5052
1349	0.5299
1358	0.5675
1367	0.5935
1376	0.6025
1385	0.6133
1394	0.574
1403	0.4673
1412	0.5131
1421	0.5415
1430	0.5235
1439	0.5074
1448	0.4858
1457	0.4603
1466	0.4525
1475	0.3848
1484	0.2308
1493	0.4055
1502	0.5444
1511	0.569
1520	0.5756
1529	0.5734
1538	0.5634
1547	0.5409
1556	0.4758
1565	0.4057
1574	0.3462
1583	0.4836
1592	0.4904
1601	0.5325
1610	0.5499
1619	0.5458
1628	0.5298
1637	0.5151
1646	0.4959
1655	0.4551
1664	0.4146
1673	0.5122
1682	0.5672
1691	0.5737
1700	0.5798
1709	0.6081
1718	0.6411
1727	0.6738
1736	0.6895
1745	0.6928
1754	0.694
1763	0.6933
1772	0.6918
1781	0.6911
1790	0.6946
1799	0.6926
1808	0.6865
1817	0.6815
1826	0.6822
1835	0.6815
1844	0.678
1853	0.6731
1862	0.6655
1871	0.6647
1880	0.6622
1889	0.6589
1898	0.6538
1907	0.6455
1916	0.6396
1925	0.6381
1934	0.6387
1943	0.6356
1952	0.6286
1961	0.6203
1970	0.6138
1979	0.6055
1988	0.5984
1997	0.5897
2006	0.5814
2015	0.5709
2024	0.5609
2033	0.55
2042	0.539
2051	0.5281
2060	0.516
2069	0.503
2078	0.4883
2087	0.469
2096	0.4507
2105	0.4323
2114	0.4138
2123	0.3982
2132	0.3821
2141	0.3647
2150	0.3482
2159	0.3366
2168	0.3409
2177	0.3476
2186	0.347
2195	0.3504
2204	0.357
2213	0.3623
2222	0.366
2231	0.366
2240	0.363
2249	0.3582
2258	0.3526
2267	0.3446
2276	0.3336
2285	0.3207
2294	0.302
2303	0.2846
2312	0.268
2321	0.2584
2330	0.2503
2339	0.2447
2348	0.2408
2357	0.2389
2366	0.237
2375	0.2335
2384	0.2299
2393	0.226
2402	0.2224
2411	0.2192
2420	0.2168
2429	0.2145
2438	0.2118
2447	0.2048
2456	0.1966
2465	0.1904
2474	0.1842
2483	0.1787
2492	0.1783
2501	0.1814
2510	0.1894
2519	0.1883
2528	0.1821
2537	0.1736
2546	0.1726
2555	0.1735
2564	0.1745
2573	0.1754
2582	0.1763
2591	0.1778
2600	0.1794
2609	0.1809
2618	0.1809
2627	0.1778
2636	0.172
2645	0.1677
2654	0.1634
2663	0.1588
2672	0.1549
2681	0.1513
2690	0.1479
2699	0.145
2708	0.1424
2717	0.1399
2726	0.138
2735	0.1362
2744	0.1339
2753	0.1313
2762	0.127
2771	0.1218
2780	0.1165
2789	0.1128
2798	0.1122
2807	0.1139
2816	0.1161
2825	0.1186
2834	0.1191
2843	0.1145
2852	0.1065
2861	0.1076
2870	0.1105
2879	0.1195
2888	0.1308
2897	0.142
2906	0.1483
2915	0.1478
2924	0.1452
2933	0.1396
2942	0.1322
2951	0.123
2960	0.1159
2969	0.1094
2978	0.1037
2987	0.1027
2996	0.102
3005	0.1
3014	0.0935
3023	0.088
3032	0.0842
3041	0.0814
3050	0.0804
3059	0.0816
3068	0.0842
3077	0.0883
3086	0.092
3095	0.0952
3104	0.0971
3113	0.0989
3122	0.1019
3131	0.1046
3140	0.1076
3149	0.1095
3158	0.1118
3167	0.115
3176	0.1198
3185	0.1241
3194	0.1283
3203	0.1326
3212	0.137
3221	0.1404
3230	0.1416
3239	0.1428
3248	0.145
3257	0.1473
3266	0.1502
3275	0.153
3284	0.1557
3293	0.1583
3302	0.1619
3311	0.1668
3320	0.1718
3329	0.1789
3338	0.1865
3347	0.1931
3356	0.202
3365	0.2115
3374	0.2214
3383	0.2332
3392	0.2483
3401	0.2656
3410	0.2819
3419	0.298
3428	0.3206
3437	0.3458
3446	0.3754
3455	0.4125
3464	0.4469
3473	0.4871
3482	0.5192
3491	0.5543
3500	0.5894
3509	0.6252
3518	0.6643
3527	0.6871
3536	0.7178
3545	0.7551
3554	0.781
3563	0.8125
3572	0.8271
3581	0.8632
3590	0.8823
3599	0.8986
3608	0.9106
3617	0.9205
3626	0.9293
3635	0.9382
3644	0.9449
3653	0.9494
3662	0.9515
3671	0.9527
3680	0.9531
3689	0.9524
3698	0.9502
3707	0.9473
3716	0.9443
3725	0.9418
3734	0.9392
3743	0.9364
3752	0.9337
3761	0.931
3770	0.9284
3779	0.9258
3788	0.9231
3797	0.9204
