Infrared Spectrum: DIFERROCENYL KETONE
Formula: C21 H18 O Fe2
State: SOLID (MINERAL OIL MULL)
Melting point: 209.5-210 C
Class: COBLENTZ
Instrument: Not specified, most likely a prism, grating, or hybrid spectrometer.
Sampling: TRANSMISSION
Resolution: 4
Origin: WYANDOTTE CHEMICALS CORP., WYANDOTTE, MICHIGAN, USA
MICROMETERS	TRANSMITTANCE
2.034	0.321
2.07488	0.333
2.11575	0.349
2.15663	0.357
2.1975	0.363
2.23838	0.373
2.27926	0.385
2.32013	0.402
2.36101	0.398
2.40188	0.419
2.44276	0.419
2.48364	0.416
2.52451	0.441
2.56539	0.458
2.60627	0.46
2.64714	0.469
2.68802	0.489
2.72889	0.493
2.76977	0.5
2.81065	0.501
2.85152	0.508
2.8924	0.51
2.93327	0.511
2.97415	0.518
3.01503	0.522
3.0559	0.523
3.09678	0.523
3.13765	0.503
3.17853	0.508
3.21941	0.409
3.26028	0.491
3.30116	0.464
3.34204	0.224
3.38291	0.044
3.42379	0.058
3.46466	0.14
3.50554	0.131
3.54642	0.554
3.58729	0.643
3.62817	0.664
3.66904	0.669
3.70992	0.669
3.7508	0.674
3.79167	0.681
3.83255	0.698
3.87342	0.705
3.9143	0.722
3.95518	0.724
3.99605	0.734
4.03693	0.738
4.0778	0.738
4.11868	0.736
4.15956	0.75
4.20043	0.748
4.24131	0.75
4.28219	0.744
4.32306	0.76
4.36394	0.792
4.40481	0.796
4.44569	0.794
4.48657	0.784
4.52744	0.78
4.56832	0.801
4.60919	0.806
4.65007	0.811
4.69095	0.823
4.73182	0.827
4.7727	0.835
4.81357	0.84
4.85445	0.835
4.89533	0.84
4.9362	0.84
4.97708	0.851
5.01796	0.861
5.05883	0.852
5.09971	0.868
5.14058	0.869
5.18146	0.869
5.22234	0.876
5.26321	0.88
5.30409	0.873
5.34496	0.881
5.38584	0.881
5.42672	0.883
5.46759	0.888
5.50847	0.9
5.54934	0.885
5.59022	0.861
5.6311	0.83
5.67197	0.821
5.71285	0.84
5.75372	0.816
5.7946	0.811
5.83548	0.791
5.87635	0.773
5.91723	0.779
5.95811	0.791
5.99898	0.763
6.03986	0.739
6.08073	0.607
6.12161	0.315
6.16249	0.046
6.20336	0.26
6.24424	0.532
6.28511	0.633
6.32599	0.696
6.36687	0.753
6.40774	0.765
6.44862	0.7
6.48949	0.741
6.53037	0.782
6.57125	0.804
6.61212	0.796
6.653	0.727
6.69388	0.688
6.73475	0.527
6.77563	0.068
6.8165	0.142
6.85738	0.246
6.89826	0.405
6.93913	0.544
6.98001	0.707
7.02088	0.696
7.06176	0.547
7.10264	0.691
7.14351	0.621
7.18439	0.648
7.22526	0.38
7.26614	0.369
7.30702	0.631
7.34789	0.69
7.38877	0.69
7.42964	0.767
7.47052	0.751
7.5114	0.731
7.55227	0.801
7.59315	0.804
7.63403	0.715
7.6749	0.577
7.71578	0.133
7.75665	0.446
7.79753	0.676
7.83841	0.777
7.87928	0.801
7.92016	0.777
7.96103	0.797
8.00191	0.837
8.04279	0.849
8.08366	0.854
8.12454	0.868
8.16541	0.866
8.20629	0.869
8.24717	0.852
8.28804	0.712
8.32892	0.65
8.3698	0.784
8.41067	0.839
8.45155	0.869
8.49242	0.888
8.5333	0.888
8.57418	0.898
8.61505	0.904
8.65593	0.909
8.6968	0.917
8.73768	0.933
8.77856	0.94
8.81943	0.943
8.86031	0.95
8.90118	0.936
8.94206	0.929
8.98294	0.897
9.02381	0.491
9.06469	0.851
9.10556	0.91
9.14644	0.916
9.18732	0.907
9.22819	0.904
9.26907	0.893
9.30995	0.871
9.35082	0.613
9.3917	0.289
9.43257	0.537
9.47345	0.351
9.51433	0.565
9.5552	0.539
9.59608	0.726
9.63695	0.815
9.67783	0.804
9.71871	0.452
9.75958	0.619
9.80046	0.797
9.84133	0.794
9.88221	0.541
9.92309	0.438
9.96396	0.628
10.0048	0.493
10.0457	0.676
10.0866	0.806
10.1275	0.849
10.1683	0.869
10.2092	0.876
10.2501	0.886
10.291	0.886
10.3318	0.89
10.3727	0.886
10.4136	0.881
10.4545	0.895
10.4954	0.9
10.5362	0.904
10.5771	0.905
10.618	0.917
10.6589	0.91
10.6997	0.91
10.7406	0.91
10.7815	0.912
10.8224	0.921
10.8632	0.921
10.9041	0.916
10.945	0.909
10.9859	0.902
11.0267	0.869
11.0676	0.708
11.1085	0.647
11.1494	0.799
11.1902	0.804
11.2311	0.842
11.272	0.892
11.3129	0.893
11.3538	0.892
11.3946	0.863
11.4355	0.832
11.4764	0.828
11.5173	0.869
11.5581	0.868
11.599	0.84
11.6399	0.765
11.6808	0.631
11.7216	0.731
11.7625	0.758
11.8034	0.566
11.8443	0.647
11.8851	0.722
11.926	0.381
11.9669	0.452
12.0078	0.366
12.0486	0.611
12.0895	0.726
12.1304	0.654
12.1713	0.575
12.2121	0.381
12.253	0.349
12.2939	0.441
12.3348	0.551
12.3757	0.402
12.4165	0.164
12.4574	0.275
12.4983	0.476
12.5392	0.585
12.58	0.683
12.6209	0.761
12.6618	0.809
12.7027	0.839
12.7435	0.852
12.7844	0.856
12.8253	0.859
12.8662	0.839
12.907	0.808
12.9479	0.58
12.9888	0.561
13.0297	0.777
13.0705	0.823
13.1114	0.854
13.1523	0.859
13.1932	0.863
13.2341	0.864
13.2749	0.868
13.3158	0.875
13.3567	0.873
13.3976	0.88
13.4384	0.878
13.4793	0.875
13.5202	0.871
13.5611	0.871
13.6019	0.868
13.6428	0.869
13.6837	0.869
13.7246	0.875
13.7654	0.868
13.8063	0.861
13.8472	0.859
13.8881	0.859
13.9289	0.861
13.9698	0.876
14.0107	0.888
14.0516	0.893
14.0924	0.898
14.1333	0.9
14.1742	0.904
14.2151	0.907
14.256	0.904
14.2968	0.902
14.3377	0.904
14.3786	0.902
14.4195	0.898
14.4603	0.898
14.5012	0.89
14.5421	0.892
14.583	0.886
14.6238	0.883
14.6647	0.881
14.7056	0.88
14.7465	0.878
14.7873	0.869
14.8282	0.866
14.8691	0.861
14.91	0.857
14.9508	0.854
14.9917	0.842
15.0326	0.801
15.0735	0.77
15.1144	0.799
15.1552	0.825
15.1961	0.839
15.237	0.827
15.2779	0.808
15.3187	0.799
15.3596	0.789
15.4005	0.777
15.4414	0.761
15.4822	0.753
15.5231	0.736
15.564	0.724
15.6049	0.705
15.6457	0.702
15.6866	0.698
15.7275	0.696
15.7684	0.683
15.8092	0.679
15.8501	0.667
15.891	0.659
15.9319	0.647
15.9727	0.63
