Infrared Spectrum: BENZENEBORONIC ACID, m-AMINO-,HYDROGEN SULFATE
Formula: C6 H10 B N O6 S
State: SOLID (SPLIT MULL)
Class: COBLENTZ III
Instrument: DOW KBr FOREPRISM-GRATING
Instrument parameters: BLAZED AT 3.5, 12.0, 20.0 MICRON AND CHANGED AT 5.0, 7.5, 14.9 MICRON
Sampling: TRANSMISSION
Resolution: 2
Origin: DOW CHEMICAL COMPANY
1/CM	TRANSMITTANCE
458	0.8642
467	0.8625
476	0.8473
485	0.7272
494	0.7998
503	0.9587
512	0.8577
521	0.9725
530	0.824
539	0.6633
548	0.9982
557	1.0006
566	0.9735
575	0.785
584	0.9558
593	0.9436
602	0.8698
611	0.5956
620	0.442
629	0.2099
638	0.6435
647	0.8883
656	0.8725
665	0.9413
674	0.9375
683	0.9002
692	0.7688
701	0.1025
710	0.4034
719	0.6741
728	0.6377
737	0.568
746	0.621
755	0.7569
764	0.8097
773	0.8323
782	0.8617
791	0.8886
800	0.8074
809	0.6017
818	0.9499
827	0.9709
836	0.9649
845	0.9592
854	0.9507
863	0.9424
872	0.8698
881	0.8909
890	0.8545
899	0.7495
908	0.71
917	0.6733
926	0.7647
935	0.8312
944	0.8898
953	0.8884
962	0.8164
971	0.6831
980	0.844
989	0.8025
998	0.7458
1007	0.6351
1016	0.4688
1025	0.2754
1034	0.119
1043	0.1328
1052	0.1944
1061	0.1549
1070	0.1685
1079	0.1811
1088	0.2075
1097	0.2773
1106	0.2732
1115	0.2274
1124	0.2295
1133	0.2023
1142	0.2477
1151	0.3108
1160	0.2314
1169	0.1845
1178	0.1199
1187	0.1694
1196	0.2419
1205	0.4137
1214	0.3998
1223	0.6172
1232	0.6436
1241	0.506
1250	0.3589
1259	0.5487
1268	0.7524
1277	0.6921
1286	0.5832
1295	0.6461
1304	0.6586
1313	0.5188
1322	0.2595
1331	0.0305
1340	0.0314
1349	0.103
1358	0.0425
1367	0.0892
1376	0.21
1385	0.2631
1394	0.2666
1403	0.3073
1412	0.4023
1421	0.5522
1430	0.4783
1439	0.1944
1448	0.1161
1457	0.358
1466	0.5066
1475	0.7999
1484	0.8239
1493	0.6331
1502	0.6771
1511	0.6869
1520	0.5266
1529	0.4205
1538	0.3177
1547	0.5888
1556	0.7144
1565	0.7891
1574	0.8105
1583	0.7801
1592	0.7761
1601	0.7437
1610	0.7444
1619	0.7084
1628	0.7258
1637	0.6475
1646	0.7026
1655	0.8332
1664	0.9138
1673	0.951
1682	0.9625
1691	0.9683
1700	0.9716
1709	0.9711
1718	0.9636
1727	0.9525
1736	0.9739
1745	0.9847
1754	0.9847
1763	0.978
1772	0.9614
1781	0.9566
1790	0.968
1799	0.9728
1808	0.9763
1817	0.9765
1826	0.979
1835	0.9689
1844	0.9675
1853	0.9716
1862	0.9689
1871	0.9682
1880	0.9653
1889	0.9602
1898	0.9512
1907	0.9283
1916	0.9223
1925	0.9425
1934	0.9377
1943	0.9303
1952	0.9184
1961	0.913
1970	0.8906
1979	0.8749
1988	0.8588
1997	0.8471
2006	0.9082
2015	0.9028
2024	0.8981
2033	0.8948
2042	0.8938
2051	0.8947
2060	0.8981
2069	0.9045
2078	0.9156
2087	0.929
2096	0.9398
2105	0.9471
2114	0.9527
2123	0.9577
2132	0.9616
2141	0.963
2150	0.9615
2159	0.9594
2168	0.9566
2177	0.9521
2186	0.9463
2195	0.938
2204	0.9289
2213	0.9175
2222	0.905
2231	0.8925
2240	0.8791
2249	0.8657
2258	0.8553
2267	0.8492
2276	0.843
2285	0.8345
2294	0.8242
2303	0.8091
2312	0.7915
2321	0.775
2330	0.7606
2339	0.7482
2348	0.741
2357	0.7367
2366	0.7325
2375	0.7292
2384	0.7239
2393	0.7155
2402	0.706
2411	0.6962
2420	0.6835
2429	0.6698
2438	0.658
2447	0.6491
2456	0.6365
2465	0.6188
2474	0.5994
2483	0.5797
2492	0.5641
2501	0.5487
2510	0.5317
2519	0.5132
2528	0.493
2537	0.471
2546	0.4451
2555	0.4106
2564	0.3692
2573	0.3296
2582	0.2826
2591	0.2457
2600	0.2355
2609	0.2462
2618	0.2539
2627	0.2538
2636	0.2547
2645	0.2744
2654	0.3057
2663	0.315
2672	0.3161
2681	0.3159
2690	0.3187
2699	0.3294
2708	0.3376
2717	0.3377
2726	0.3359
2735	0.3348
2744	0.3289
2753	0.3146
2762	0.2982
2771	0.2811
2780	0.264
2789	0.2474
2798	0.2337
2807	0.2246
2816	0.2167
2825	0.2045
2834	0.1889
2843	0.1746
2852	0.1679
2861	0.1668
2870	0.1664
2879	0.1668
2888	0.1681
2897	0.1696
2906	0.1726
2915	0.1757
2924	0.1802
2933	0.1845
2942	0.1891
2951	0.1936
2960	0.1986
2969	0.2021
2978	0.2052
2987	0.2059
2996	0.2056
3005	0.2035
3014	0.1998
3023	0.1932
3032	0.1851
3041	0.177
3050	0.1654
3059	0.1693
3068	0.1729
3077	0.1784
3086	0.1841
3095	0.1811
3104	0.1751
3113	0.1744
3122	0.1825
3131	0.2039
3140	0.2317
3149	0.2472
3158	0.2615
3167	0.2748
3176	0.2879
3185	0.3013
3194	0.3142
3203	0.3284
3212	0.3448
3221	0.36
3230	0.3723
3239	0.3814
3248	0.3895
3257	0.3962
3266	0.4009
3275	0.4023
3284	0.4002
3293	0.3941
3302	0.385
3311	0.3709
3320	0.353
3329	0.3368
3338	0.319
3347	0.3025
3356	0.2862
3365	0.2698
3374	0.2534
3383	0.2367
3392	0.2227
3401	0.2143
3410	0.2202
3419	0.2625
3428	0.3568
3437	0.4522
3446	0.5547
3455	0.6024
3464	0.6434
3473	0.6896
3482	0.7324
3491	0.761
3500	0.7888
3509	0.8131
3518	0.8349
3527	0.8514
3536	0.8675
3545	0.8856
3554	0.9106
3563	0.9291
3572	0.9336
3581	0.9425
3590	0.9493
3599	0.9516
3608	0.9525
3617	0.9521
3626	0.9506
3635	0.9528
3644	0.9606
3653	0.9667
3662	0.9696
3671	0.9701
3680	0.9688
3689	0.9673
3698	0.9658
3707	0.9631
3716	0.9605
3725	0.9578
3734	0.9554
3743	0.9528
3752	0.9502
3761	0.9478
3770	0.9454
3779	0.9421
3788	0.9391
3797	0.9359
