Infrared Spectrum: RHODIUM, TRIS(1,1,1-TRIFLUORO-2,4-PENTANEDIONATO)-
Formula: C15 H12 F9 O6 Rh
State: SOLID (1.0 mg / 650 mg KBr DISC)
Class: COBLENTZ III
Instrument: PERKIN-ELMER 521 (GRATING)
Instrument parameters: FILTERS AT 3150, 2500, 2000, 1150, 700, 410 AND GRATING CHANGES: 2000, 630 CM^-^1
Sampling: TRANSMISSION
Resolution: 4
Origin: SOUTHERN RESEARCH INSTITUTE
1/CM	TRANSMITTANCE
250	0.239
259.6	0.2879
269.2	0.3589
278.8	0.427
288.4	0.478
298	0.5259
307.6	0.552
317.2	0.5719
326.8	0.6049
336.4	0.6439
346	0.6729
355.6	0.6899
365.2	0.7049
374.8	0.708
384.4	0.7143
394	0.7389
403.6	0.756
413.2	0.7599
422.8	0.758
432.4	0.7312
442	0.7179
451.6	0.7619
461.2	0.774
470.8	0.775
480.4	0.775
490	0.769
499.6	0.761
509.2	0.7443
518.8	0.7429
528.4	0.7392
538	0.7261
547.6	0.7534
557.2	0.7739
566.8	0.779
576.4	0.782
586	0.7781
595.6	0.7489
605.2	0.7269
614.8	0.7913
624.4	0.8059
634	0.809
643.6	0.7912
653.2	0.7207
662.8	0.6787
672.4	0.7122
682	0.778
691.6	0.8356
701.2	0.848
710.8	0.8471
720.4	0.8383
730	0.7814
739.6	0.761
749.2	0.8333
758.8	0.85
768.4	0.8283
778	0.7392
787.6	0.702
797.2	0.7411
806.8	0.8335
816.4	0.8568
826	0.859
835.6	0.857
845.2	0.8531
854.8	0.8387
864.4	0.7449
874	0.7131
883.6	0.8479
893.2	0.854
902.8	0.853
912.4	0.849
922	0.8431
931.6	0.8283
941.2	0.7569
950.8	0.8312
960.4	0.8379
970	0.834
979.6	0.828
989.2	0.8196
998.8	0.8036
1008.4	0.7851
1018	0.774
1027.6	0.7837
1037.2	0.793
1046.8	0.7932
1056.4	0.793
1066	0.792
1075.6	0.7853
1085.2	0.7743
1094.8	0.7563
1104.4	0.7155
1114	0.6447
1123.6	0.5375
1133.2	0.3352
1142.8	0.1653
1152.4	0.1833
1162	0.3098
1171.6	0.4668
1181.2	0.5
1190.8	0.3563
1200.4	0.3025
1210	0.4007
1219.6	0.5034
1229.2	0.3991
1238.8	0.5476
1248.4	0.738
1258	0.7157
1267.6	0.644
1277.2	0.489
1286.8	0.215
1296.4	0.135
1306	0.173
1315.6	0.5507
1325.2	0.7273
1334.8	0.7638
1344.4	0.761
1354	0.7071
1363.6	0.5731
1373.2	0.7229
1382.8	0.7758
1392.4	0.7674
1402	0.716
1411.6	0.6355
1421.2	0.638
1430.8	0.62
1440.4	0.5702
1450	0.6217
1459.6	0.6674
1469.2	0.7366
1478.8	0.7753
1488.4	0.7782
1498	0.7509
1507.6	0.6942
1517.2	0.4878
1526.8	0.4079
1536.4	0.6125
1546	0.6745
1555.6	0.6763
1565.2	0.6251
1574.8	0.5243
1584.4	0.3356
1594	0.1981
1603.6	0.1633
1613.2	0.3429
1622.8	0.5561
1632.4	0.6772
1642	0.7322
1651.6	0.7595
1661.2	0.7817
1670.8	0.7965
1680.4	0.809
1690	0.8187
1699.6	0.8374
1709.2	0.8534
1718.8	0.8657
1728.4	0.871
1738	0.872
1747.6	0.8747
1757.2	0.8797
1766.8	0.8824
1776.4	0.886
1786	0.886
1795.6	0.887
1805.2	0.887
1814.8	0.887
1824.4	0.8913
1834	0.892
1843.6	0.892
1853.2	0.892
1862.8	0.892
1872.4	0.8897
1882	0.8853
1891.6	0.884
1901.2	0.892
1910.8	0.893
1920.4	0.893
1930	0.894
1939.6	0.893
1949.2	0.893
1958.8	0.894
1968.4	0.894
1978	0.8953
1987.6	0.896
1997.2	0.8897
2006.8	0.885
2016.4	0.884
2026	0.884
2035.6	0.885
2045.2	0.886
2054.8	0.887
2064.4	0.8883
2074	0.89
2083.6	0.886
2093.2	0.887
2102.8	0.891
2112.4	0.8917
2122	0.892
2131.6	0.893
2141.2	0.892
2150.8	0.891
2160.4	0.892
2170	0.8927
2179.6	0.8937
2189.2	0.894
2198.8	0.893
2208.4	0.894
2218	0.8923
2227.6	0.892
2237.2	0.891
2246.8	0.891
2256.4	0.892
2266	0.893
2275.6	0.893
2285.2	0.893
2294.8	0.892
2304.4	0.892
2314	0.892
2323.6	0.892
2333.2	0.89
2342.8	0.89
2352.4	0.89
2362	0.89
2371.6	0.889
2381.2	0.8877
2390.8	0.8883
2400.4	0.89
2410	0.889
2419.6	0.8903
2429.2	0.889
2438.8	0.887
2448.4	0.8863
2458	0.8817
2467.6	0.8867
2477.2	0.8833
2486.8	0.884
2496.4	0.883
2506	0.884
2515.6	0.883
2525.2	0.883
2534.8	0.881
2544.4	0.881
2554	0.881
2563.6	0.881
2573.2	0.881
2582.8	0.8793
2592.4	0.879
2602	0.88
2611.6	0.881
2621.2	0.881
2630.8	0.881
2640.4	0.881
2650	0.8803
2659.6	0.88
2669.2	0.879
2678.8	0.879
2688.4	0.879
2698	0.879
2707.6	0.878
2717.2	0.874
2726.8	0.873
2736.4	0.873
2746	0.875
2755.6	0.874
2765.2	0.8763
2774.8	0.877
2784.4	0.873
2794	0.871
2803.6	0.868
2813.2	0.867
2822.8	0.867
2832.4	0.859
2842	0.8507
2851.6	0.8497
2861.2	0.852
2870.8	0.85
2880.4	0.85
2890	0.8463
2899.6	0.8357
2909.2	0.824
2918.8	0.8137
2928.4	0.8173
2938	0.833
2947.6	0.841
2957.2	0.841
2966.8	0.8393
2976.4	0.841
2986	0.8453
2995.6	0.847
3005.2	0.846
3014.8	0.847
3024.4	0.847
3034	0.846
3043.6	0.8477
3053.2	0.849
3062.8	0.848
3072.4	0.848
3082	0.846
3091.6	0.843
3101.2	0.842
3110.8	0.8453
3120.4	0.8353
3130	0.819
3139.6	0.8203
3149.2	0.823
3158.8	0.825
3168.4	0.824
3178	0.8223
3187.6	0.8183
3197.2	0.8113
3206.8	0.807
3216.4	0.805
3226	0.8003
3235.6	0.795
3245.2	0.792
3254.8	0.7883
3264.4	0.786
3274	0.78
3283.6	0.775
3293.2	0.7727
3302.8	0.7633
3312.4	0.756
3322	0.744
3331.6	0.7383
3341.2	0.729
3350.8	0.7123
3360.4	0.7027
3370	0.69
3379.6	0.6763
3389.2	0.6684
3398.8	0.6573
3408.4	0.6463
3418	0.642
3427.6	0.64
3437.2	0.64
3446.8	0.6427
3456.4	0.649
3466	0.6543
3475.6	0.6577
3485.2	0.6617
3494.8	0.6697
3504.4	0.6793
3514	0.6887
3523.6	0.7057
3533.2	0.7137
3542.8	0.726
3552.4	0.7367
3562	0.7437
3571.6	0.7577
3581.2	0.775
3590.8	0.7873
3600.4	0.7983
3610	0.813
3619.6	0.8273
3629.2	0.8413
3638.8	0.852
3648.4	0.8567
3658	0.861
3667.6	0.862
3677.2	0.86
3686.8	0.8643
3696.4	0.8717
3706	0.8787
3715.6	0.878
3725.2	0.88
3734.8	0.881
3744.4	0.881
3754	0.881
3763.6	0.883
3773.2	0.883
3782.8	0.8817
3792.4	0.883
3802	0.8837
3811.6	0.8817
