Infrared Spectrum: TITANIUM CALCIUM (RUTILE)
Formula: Ti O2  * Ca S O4
State: SOLID (0.5 mg / 300 mg CsI PELLET)
Class: COBLENTZ
Instrument: Not specified, most likely a grating spectrometer.
Sampling: TRANSMISSION
Resolution: 4
Origin: DESOTO CHEMICAL COATINGS, INC.
1/CM	TRANSMITTANCE
200	0.7
210.635	0.703
221.27	0.707
231.906	0.71
242.541	0.69
253.176	0.659
263.811	0.5592
274.446	0.469
285.082	0.448
295.717	0.413
306.352	0.396
316.987	0.387
327.622	0.381
338.257	0.379
348.893	0.38
359.528	0.392
370.163	0.4869
380.798	0.483
391.433	0.425
402.069	0.407
412.704	0.42
423.339	0.441
433.974	0.499
444.609	0.538
455.245	0.556
465.88	0.539
476.515	0.52
487.15	0.492
497.785	0.48
508.421	0.465
519.056	0.452
529.691	0.455
540.326	0.463
550.961	0.472
561.596	0.479
572.232	0.485
582.867	0.488
593.502	0.3683
604.137	0.429
614.772	0.3
625.408	0.433
636.043	0.465
646.678	0.476
657.313	0.485
667.948	0.488
678.584	0.281
689.219	0.4909
699.854	0.53
710.489	0.555
721.124	0.575
731.759	0.594
742.395	0.615
753.03	0.632
763.665	0.656
774.3	0.694
784.935	0.73
795.571	0.774
806.206	0.809
816.841	0.849
827.476	0.878
838.111	0.894
848.747	0.905
859.382	0.918
870.017	0.919
880.652	0.93
891.287	0.93
901.923	0.935
912.558	0.938
923.193	0.943
933.828	0.946
944.463	0.947
955.098	0.949
965.734	0.947
976.369	0.95
987.004	0.95
997.639	0.95
1008.27	0.945
1018.91	0.938
1029.54	0.941
1040.18	0.938
1050.82	0.935
1061.45	0.931
1072.09	0.925
1082.72	0.911
1093.36	0.882
1103.99	0.632
1114.63	0.2563
1125.26	0.205
1135.9	0.339
1146.53	0.301
1157.17	0.116
1167.8	0.205
1178.44	0.279
1189.07	0.431
1199.71	0.658
1210.34	0.818
1220.98	0.873
1231.61	0.899
1242.25	0.914
1252.88	0.925
1263.52	0.935
1274.15	0.938
1284.79	0.939
1295.42	0.945
1306.06	0.947
1316.69	0.95
1327.33	0.951
1337.97	0.955
1348.6	0.953
1359.24	0.954
1369.87	0.954
1380.51	0.954
1391.14	0.955
1401.78	0.953
1412.41	0.955
1423.05	0.953
1433.68	0.954
1444.32	0.954
1454.95	0.954
1465.59	0.95
1476.22	0.953
1486.86	0.959
1497.49	0.958
1508.13	0.957
1518.76	0.955
1529.4	0.955
1540.03	0.953
1550.67	0.95
1561.3	0.947
1571.94	0.941
1582.57	0.937
1593.21	0.921
1603.85	0.903
1614.48	0.879
1625.12	0.878
1635.75	0.895
1646.39	0.91
1657.02	0.914
1667.66	0.921
1678.29	0.931
1688.93	0.937
1699.56	0.943
1710.2	0.943
1720.83	0.943
1731.47	0.947
1742.1	0.947
1752.74	0.951
1763.37	0.954
1774.01	0.954
1784.64	0.954
1795.28	0.954
1805.91	0.955
1816.55	0.955
1827.18	0.957
1837.82	0.951
1848.45	0.954
1859.09	0.955
1869.72	0.951
1880.36	0.95
1891	0.95
1901.63	0.951
1912.27	0.95
1922.9	0.95
1933.54	0.949
1944.17	0.949
1954.81	0.949
1965.44	0.947
1976.08	0.949
1986.71	0.947
1997.35	0.949
2007.98	0.946
2018.62	0.939
2029.25	0.938
2039.89	0.938
2050.52	0.934
2061.16	0.933
2071.79	0.931
2082.43	0.933
2093.06	0.931
2103.7	0.93
2114.33	0.929
2124.97	0.927
2135.6	0.923
2146.24	0.921
2156.87	0.919
2167.51	0.921
2178.15	0.925
2188.78	0.9259
2199.42	0.925
2210.05	0.925
2220.69	0.922
2231.32	0.921
2241.96	0.9208
2252.59	0.921
2263.23	0.919
2273.86	0.919
2284.5	0.923
2295.13	0.9208
2305.77	0.919
2316.4	0.918
2327.04	0.918
2337.67	0.913
2348.31	0.91
2358.94	0.9091
2369.58	0.911
2380.21	0.91
2390.85	0.9113
2401.48	0.9142
2412.12	0.918
2422.75	0.919
2433.39	0.917
2444.03	0.915
2454.66	0.915
2465.3	0.915
2475.93	0.9148
2486.57	0.9126
2497.2	0.911
2507.84	0.9114
2518.47	0.914
2529.11	0.911
2539.74	0.9108
2550.38	0.9092
2561.01	0.91
2571.65	0.909
2582.28	0.9106
2592.92	0.909
2603.55	0.9093
2614.19	0.907
2624.82	0.909
2635.46	0.909
2646.09	0.907
2656.73	0.906
2667.36	0.905
2678	0.906
2688.63	0.906
2699.27	0.905
2709.9	0.903
2720.54	0.902
2731.18	0.901
2741.81	0.901
2752.45	0.899
2763.08	0.899
2773.72	0.898
2784.35	0.898
2794.99	0.898
2805.62	0.899
2816.26	0.898
2826.89	0.8964
2837.53	0.8937
2848.16	0.8851
2858.8	0.877
2869.43	0.878
2880.07	0.8797
2890.7	0.881
2901.34	0.8787
2911.97	0.8703
2922.61	0.8572
2933.24	0.8517
2943.88	0.8601
2954.51	0.8654
2965.15	0.8694
2975.78	0.8734
2986.42	0.8758
2997.05	0.878
3007.69	0.879
3018.33	0.879
3028.96	0.878
3039.6	0.878
3050.23	0.877
3060.87	0.878
3071.5	0.878
3082.14	0.8776
3092.77	0.875
3103.41	0.873
3114.04	0.8706
3124.68	0.867
3135.31	0.866
3145.95	0.865
3156.58	0.865
3167.22	0.8626
3177.85	0.861
3188.49	0.857
3199.12	0.8521
3209.76	0.849
3220.39	0.849
3231.03	0.846
3241.66	0.8415
3252.3	0.8385
3262.93	0.8375
3273.57	0.8325
3284.21	0.8295
3294.84	0.8255
3305.48	0.8185
3316.11	0.8105
3326.75	0.8005
3337.38	0.7945
3348.02	0.7845
3358.65	0.7779
3369.29	0.7674
3379.92	0.7503
3390.56	0.7395
3401.19	0.7248
3411.83	0.7129
3422.46	0.7075
3433.1	0.702
3443.73	0.698
3454.37	0.695
3465	0.6956
3475.64	0.6971
3486.27	0.7
3496.91	0.7047
3507.54	0.712
3518.18	0.7172
3528.81	0.7236
3539.45	0.7332
3550.08	0.7432
3560.72	0.75
3571.36	0.7614
3581.99	0.7746
3592.63	0.7816
3603.26	0.7942
3613.9	0.8049
3624.53	0.809
3635.17	0.8186
3645.8	0.8266
3656.44	0.83
3667.07	0.833
3677.71	0.833
3688.34	0.833
3698.98	0.833
3709.61	0.833
3720.25	0.833
3730.88	0.833
3741.52	0.8317
3752.15	0.83
3762.79	0.83
3773.42	0.83
3784.06	0.83
3794.69	0.8293
3805.33	0.829
3815.96	0.827
3826.6	0.827
3837.23	0.8263
3847.87	0.823
3858.51	0.822
3869.14	0.822
3879.78	0.822
3890.41	0.822
3901.05	0.822
3911.68	0.822
3922.32	0.822
3932.95	0.819
3943.59	0.8188
3954.22	0.819
3964.86	0.818
3975.49	0.819
