Infrared Spectrum: 2-(N-METHYLANILINO)-3-(n-HEXYL) PYRAZINE
Formula: C17 H23 N3
State: LIQUID
Class: COBLENTZ
Instrument: Not specified, most likely a prism, grating, or hybrid spectrometer.
Sampling: TRANSMISSION
Path length: 0.0015 CM
Resolution: 4
Origin: WYANDOTTE CHEMICALS CORP., WYANDOTTE, MICHIGAN, USA
MICROMETERS	TRANSMITTANCE
2.08	0.946
2.11981	0.943
2.15962	0.94
2.19943	0.922
2.23924	0.897
2.27905	0.903
2.31886	0.907
2.35867	0.908
2.39848	0.9
2.43829	0.928
2.4781	0.927
2.51791	0.932
2.55772	0.948
2.59753	0.938
2.63733	0.941
2.67714	0.938
2.71695	0.935
2.75676	0.93
2.79657	0.922
2.83638	0.917
2.87619	0.9
2.916	0.878
2.95581	0.875
2.99562	0.862
3.03543	0.845
3.07524	0.842
3.11505	0.835
3.15486	0.82
3.19467	0.797
3.23448	0.651
3.27429	0.359
3.3141	0.487
3.35391	0.112
3.39372	0.049
3.43353	0.074
3.47334	0.111
3.51315	0.179
3.55296	0.54
3.59277	0.686
3.63258	0.749
3.67239	0.749
3.7122	0.764
3.752	0.759
3.79181	0.756
3.83162	0.766
3.87143	0.771
3.91124	0.771
3.95105	0.791
3.99086	0.791
4.03067	0.796
4.07048	0.796
4.11029	0.791
4.1501	0.794
4.18991	0.799
4.22972	0.791
4.26953	0.794
4.30934	0.8
4.34915	0.817
4.38896	0.854
4.42877	0.859
4.46858	0.864
4.50839	0.873
4.5482	0.888
4.58801	0.898
4.62782	0.903
4.66763	0.903
4.70744	0.9
4.74725	0.907
4.78706	0.905
4.82687	0.91
4.86667	0.908
4.90648	0.913
4.94629	0.918
4.9861	0.915
5.02591	0.923
5.06572	0.91
5.10553	0.913
5.14534	0.9
5.18515	0.872
5.22496	0.859
5.26477	0.873
5.30458	0.872
5.34439	0.882
5.3842	0.872
5.42401	0.89
5.46382	0.89
5.50363	0.887
5.54344	0.87
5.58325	0.855
5.62306	0.845
5.66287	0.847
5.70268	0.847
5.74249	0.824
5.7823	0.81
5.82211	0.792
5.86192	0.776
5.90173	0.762
5.94154	0.767
5.98134	0.771
6.02115	0.754
6.06096	0.752
6.10077	0.718
6.14058	0.653
6.18039	0.442
6.2202	0.122
6.26001	0.308
6.29982	0.273
6.33963	0.344
6.37944	0.446
6.41925	0.542
6.45906	0.487
6.49887	0.131
6.53868	0.076
6.57849	0.205
6.6183	0.124
6.65811	0.056
6.69792	0.159
6.73773	0.174
6.77754	0.096
6.81735	0.066
6.85716	0.071
6.89697	0.086
6.93678	0.104
6.97659	0.077
7.0164	0.169
7.05621	0.228
7.09601	0.066
7.13582	0.054
7.17563	0.066
7.21544	0.132
7.25525	0.084
7.29506	0.069
7.33487	0.099
7.37468	0.175
7.41449	0.24
7.4543	0.281
7.49411	0.278
7.53392	0.273
7.57373	0.308
7.61354	0.333
7.65335	0.328
7.69316	0.315
7.73297	0.32
7.77278	0.366
7.81259	0.369
7.8524	0.373
7.89221	0.407
7.93202	0.379
7.97183	0.298
8.01164	0.29
8.05145	0.333
8.09126	0.391
8.13107	0.475
8.17088	0.51
8.21068	0.477
8.25049	0.406
8.2903	0.371
8.33011	0.378
8.36992	0.417
8.40973	0.378
8.44954	0.298
8.48935	0.255
8.52916	0.238
8.56897	0.25
8.60878	0.18
8.64859	0.139
8.6884	0.15
8.72821	0.15
8.76802	0.107
8.80783	0.184
8.84764	0.3
8.88745	0.257
8.92726	0.208
8.96707	0.215
9.00688	0.291
9.04669	0.301
9.0865	0.361
9.12631	0.424
9.16612	0.464
9.20593	0.462
9.24574	0.398
9.28555	0.374
9.32535	0.461
9.36516	0.507
9.40497	0.573
9.44478	0.577
9.48459	0.558
9.5244	0.568
9.56421	0.631
9.60402	0.674
9.64383	0.696
9.68364	0.645
9.72345	0.565
9.76326	0.568
9.80307	0.656
9.84288	0.686
9.88269	0.663
9.9225	0.552
9.96231	0.532
10.0021	0.447
10.0419	0.582
10.0817	0.655
10.1215	0.683
10.1614	0.703
10.2012	0.711
10.241	0.719
10.2808	0.728
10.3206	0.737
10.3604	0.742
10.4002	0.741
10.44	0.741
10.4798	0.749
10.5196	0.759
10.5595	0.767
10.5993	0.779
10.6391	0.792
10.6789	0.8
10.7187	0.809
10.7585	0.812
10.7983	0.809
10.8381	0.81
10.8779	0.802
10.9177	0.791
10.9576	0.749
10.9974	0.701
11.0372	0.645
11.077	0.595
11.1168	0.545
11.1566	0.548
11.1964	0.588
11.2362	0.625
11.276	0.655
11.3158	0.673
11.3556	0.684
11.3955	0.698
11.4353	0.699
11.4751	0.688
11.5149	0.671
11.5547	0.651
11.5945	0.646
11.6343	0.621
11.6741	0.585
11.7139	0.535
11.7537	0.495
11.7936	0.466
11.8334	0.451
11.8732	0.451
11.913	0.485
11.9528	0.563
11.9926	0.628
12.0324	0.681
12.0722	0.701
12.112	0.716
12.1518	0.728
12.1916	0.739
12.2315	0.759
12.2713	0.757
12.3111	0.781
12.3509	0.802
12.3907	0.817
12.4305	0.804
12.4703	0.799
12.5101	0.809
12.5499	0.814
12.5897	0.815
12.6296	0.834
12.6694	0.839
12.7092	0.839
12.749	0.829
12.7888	0.8
12.8286	0.764
12.8684	0.691
12.9082	0.592
12.948	0.487
12.9878	0.402
13.0277	0.33
13.0675	0.291
13.1073	0.271
13.1471	0.266
13.1869	0.266
13.2267	0.265
13.2665	0.263
13.3063	0.275
13.3461	0.305
13.3859	0.373
13.4257	0.479
13.4656	0.573
13.5054	0.618
13.5452	0.638
13.585	0.64
13.6248	0.633
13.6646	0.623
13.7044	0.611
13.7442	0.598
13.784	0.585
13.8238	0.605
13.8637	0.63
13.9035	0.674
13.9433	0.708
13.9831	0.711
14.0229	0.694
14.0627	0.646
14.1025	0.57
14.1423	0.48
14.1821	0.396
14.2219	0.326
14.2618	0.265
14.3016	0.22
14.3414	0.18
14.3812	0.17
14.421	0.179
14.4608	0.21
14.5006	0.252
14.5404	0.321
14.5802	0.414
14.62	0.54
14.6598	0.641
14.6997	0.714
14.7395	0.751
14.7793	0.781
14.8191	0.791
14.8589	0.797
14.8987	0.809
14.9385	0.814
14.9783	0.814
15.0181	0.787
15.0579	0.759
15.0978	0.766
15.1376	0.779
15.1774	0.796
15.2172	0.8
15.257	0.802
15.2968	0.802
15.3366	0.799
15.3764	0.797
15.4162	0.802
15.456	0.791
15.4958	0.799
15.5357	0.789
15.5755	0.782
15.6153	0.786
15.6551	0.781
15.6949	0.777
15.7347	0.771
15.7745	0.762
15.8143	0.756
15.8541	0.749
15.8939	0.746
15.9338	0.739
15.9736	0.726
