Infrared Spectrum: GADOLINIUM OXALATE
Formula: Gd2 ( C2 O4)3  * 10 H2 O
State: SOLID (KBr DISC)
Class: COBLENTZ
Instrument: Not specified, most likely a prism, grating, or hybrid spectrometer.
Sampling: TRANSMISSION
Resolution: 4
MICROMETERS	TRANSMITTANCE
2.039	0.905
2.07701	0.907
2.11501	0.911
2.15302	0.913
2.19102	0.917
2.22903	0.92
2.26703	0.926
2.30504	0.929
2.34305	0.93
2.38105	0.933
2.41906	0.936
2.45706	0.939
2.49507	0.941
2.53308	0.941
2.57108	0.941
2.60909	0.941
2.64709	0.947
2.6851	0.95
2.7231	0.948
2.76111	0.922
2.79912	0.81
2.83712	0.661
2.87513	0.577
2.91313	0.504
2.95114	0.454
2.98915	0.438
3.02715	0.444
3.06516	0.485
3.10316	0.513
3.14117	0.547
3.17917	0.6
3.21718	0.648
3.25519	0.691
3.29319	0.742
3.3312	0.783
3.3692	0.811
3.40721	0.829
3.44522	0.848
3.48322	0.872
3.52123	0.888
3.55923	0.901
3.59724	0.91
3.63524	0.917
3.67325	0.923
3.71126	0.93
3.74926	0.938
3.78727	0.944
3.82527	0.948
3.86328	0.95
3.90128	0.954
3.93929	0.955
3.9773	0.96
4.0153	0.96
4.05331	0.964
4.09131	0.966
4.12932	0.966
4.16733	0.967
4.20533	0.969
4.24334	0.969
4.28134	0.97
4.31935	0.97
4.35735	0.97
4.39536	0.97
4.43337	0.97
4.47137	0.97
4.50938	0.97
4.54738	0.97
4.58539	0.97
4.6234	0.97
4.6614	0.972
4.69941	0.972
4.73741	0.972
4.77542	0.972
4.81342	0.972
4.85143	0.973
4.88944	0.975
4.92744	0.975
4.96545	0.976
5.00345	0.976
5.04146	0.977
5.07947	0.976
5.11747	0.976
5.15548	0.975
5.19348	0.972
5.23149	0.967
5.26949	0.966
5.3075	0.964
5.34551	0.964
5.38351	0.964
5.42152	0.958
5.45952	0.954
5.49753	0.95
5.53553	0.939
5.57354	0.932
5.61155	0.916
5.64955	0.905
5.68756	0.885
5.72556	0.857
5.76357	0.798
5.80158	0.667
5.83958	0.532
5.87759	0.432
5.91559	0.395
5.9536	0.345
5.9916	0.254
6.02961	0.175
6.06762	0.15
6.10562	0.119
6.14363	0.117
6.18163	0.125
6.21964	0.175
6.25765	0.232
6.29565	0.352
6.33366	0.442
6.37166	0.529
6.40967	0.585
6.44767	0.642
6.48568	0.669
6.52369	0.725
6.56169	0.745
6.5997	0.766
6.6377	0.782
6.67571	0.801
6.71372	0.808
6.75172	0.811
6.78973	0.808
6.82773	0.81
6.86574	0.813
6.90374	0.839
6.94175	0.852
6.97976	0.864
7.01776	0.873
7.05577	0.879
7.09377	0.889
7.13178	0.894
7.16978	0.894
7.20779	0.891
7.2458	0.86
7.2838	0.829
7.32181	0.769
7.35981	0.747
7.39782	0.735
7.43583	0.714
7.47383	0.676
7.51184	0.6
7.54984	0.551
7.58785	0.5
7.62585	0.492
7.66386	0.566
7.70187	0.655
7.73987	0.713
7.77788	0.776
7.81588	0.819
7.85389	0.85
7.8919	0.869
7.9299	0.879
7.96791	0.889
8.00591	0.897
8.04392	0.902
8.08192	0.905
8.11993	0.911
8.15794	0.914
8.19594	0.916
8.23395	0.916
8.27195	0.916
8.30996	0.917
8.34797	0.917
8.38597	0.922
8.42398	0.923
8.46198	0.927
8.49999	0.927
8.53799	0.929
8.576	0.929
8.61401	0.929
8.65201	0.929
8.69002	0.929
8.72802	0.929
8.76603	0.93
8.80403	0.932
8.84204	0.932
8.88005	0.932
8.91805	0.933
8.95606	0.936
8.99406	0.938
9.03207	0.938
9.07008	0.938
9.10808	0.938
9.14609	0.938
9.18409	0.938
9.2221	0.941
9.2601	0.941
9.29811	0.941
9.33612	0.941
9.37412	0.942
9.41213	0.942
9.45013	0.942
9.48814	0.942
9.52615	0.942
9.56415	0.942
9.60216	0.944
9.64016	0.944
9.67817	0.944
9.71617	0.944
9.75418	0.944
9.79219	0.945
9.83019	0.945
9.8682	0.945
9.9062	0.945
9.94421	0.945
9.98222	0.947
10.0202	0.947
10.0582	0.947
10.0962	0.947
10.1342	0.947
10.1722	0.947
10.2103	0.948
10.2483	0.948
10.2863	0.95
10.3243	0.95
10.3623	0.95
10.4003	0.95
10.4383	0.951
10.4763	0.951
10.5143	0.951
10.5523	0.951
10.5903	0.951
10.6283	0.951
10.6663	0.951
10.7043	0.952
10.7423	0.952
10.7803	0.951
10.8183	0.951
10.8563	0.95
10.8944	0.948
10.9324	0.945
10.9704	0.945
11.0084	0.944
11.0464	0.944
11.0844	0.944
11.1224	0.945
11.1604	0.944
11.1984	0.944
11.2364	0.944
11.2744	0.944
11.3124	0.944
11.3504	0.944
11.3884	0.944
11.4264	0.944
11.4644	0.944
11.5024	0.942
11.5405	0.941
11.5785	0.939
11.6165	0.938
11.6545	0.936
11.6925	0.935
11.7305	0.933
11.7685	0.93
11.8065	0.93
11.8445	0.929
11.8825	0.926
11.9205	0.92
11.9585	0.92
11.9965	0.916
12.0345	0.908
12.0725	0.898
12.1105	0.888
12.1485	0.866
12.1866	0.847
12.2246	0.82
12.2626	0.775
12.3006	0.722
12.3386	0.683
12.3766	0.65
12.4146	0.63
12.4526	0.613
12.4906	0.598
12.5286	0.598
12.5666	0.614
12.6046	0.644
12.6426	0.68
12.6806	0.722
12.7186	0.747
12.7566	0.764
12.7946	0.78
12.8327	0.797
12.8707	0.808
12.9087	0.819
12.9467	0.825
12.9847	0.832
13.0227	0.836
13.0607	0.838
13.0987	0.844
13.1367	0.845
13.1747	0.845
13.2127	0.845
13.2507	0.847
13.2887	0.844
13.3267	0.844
13.3647	0.844
13.4027	0.844
13.4407	0.844
13.4787	0.844
13.5168	0.844
13.5548	0.844
13.5928	0.844
13.6308	0.844
13.6688	0.844
13.7068	0.845
13.7448	0.845
13.7828	0.845
13.8208	0.845
13.8588	0.845
13.8968	0.844
13.9348	0.844
13.9728	0.844
14.0108	0.844
14.0488	0.844
14.0868	0.842
14.1248	0.842
14.1629	0.841
14.2009	0.839
14.2389	0.838
14.2769	0.833
14.3149	0.833
14.3529	0.832
14.3909	0.83
14.4289	0.829
14.4669	0.83
14.5049	0.829
14.5429	0.827
14.5809	0.826
14.6189	0.826
14.6569	0.826
14.6949	0.823
14.7329	0.822
14.7709	0.822
14.809	0.82
14.847	0.82
14.885	0.82
14.923	0.819
14.961	0.817
14.999	0.817
15.037	0.819
15.075	0.819
15.113	0.819
