Infrared Spectrum: 4-ImidazoleCarboxylic acid, 5-(dimethyl-1-triazeno)-, butyl ester
Formula: C10 H17 N5 O2
State: SOLID (1 mg / 650 mg KBr DISC)
Class: COBLENTZ III
Instrument: PERKIN-ELMER 521 (GRATING)
Instrument parameters: FILTERS AT 3130, 2475, 2000, 1150, 700, 410. GRATING CHANGES: 2000, 620 CM^-^1
Sampling: TRANSMISSION
Resolution: 2
Origin: SOUTHERN RESEARCH INSTITUTE
1/CM	TRANSMITTANCE
250	0.4792
260.043	0.537
270.085	0.6084
280.128	0.652
290.171	0.6863
300.213	0.7238
310.256	0.7518
320.299	0.7713
330.341	0.7887
340.384	0.8021
350.427	0.8151
360.469	0.8242
370.512	0.8422
380.555	0.855
390.597	0.8434
400.64	0.8477
410.683	0.8537
420.725	0.8345
430.768	0.8328
440.811	0.8515
450.853	0.8455
460.896	0.8613
470.939	0.8639
480.981	0.8652
491.024	0.8626
501.067	0.8651
511.109	0.8734
521.152	0.8733
531.195	0.8718
541.237	0.8663
551.28	0.85
561.323	0.8575
571.365	0.8746
581.408	0.8701
591.451	0.8631
601.493	0.8476
611.536	0.7833
621.579	0.7833
631.621	0.8602
641.664	0.8502
651.707	0.6534
661.749	0.8833
671.792	0.8843
681.835	0.8815
691.877	0.8793
701.92	0.8787
711.963	0.8741
722.005	0.8661
732.048	0.8537
742.091	0.8396
752.133	0.8608
762.176	0.8458
772.219	0.7923
782.261	0.7031
792.304	0.8295
802.347	0.822
812.389	0.804
822.432	0.7804
832.475	0.7484
842.517	0.7035
852.56	0.6882
862.603	0.7758
872.645	0.7778
882.688	0.7712
892.731	0.7737
902.773	0.8009
912.816	0.8003
922.859	0.7853
932.901	0.7369
942.944	0.6379
952.987	0.6859
963.029	0.6541
973.072	0.8002
983.115	0.8192
993.157	0.8064
1003.2	0.7904
1013.24	0.7589
1023.29	0.7445
1033.33	0.7075
1043.37	0.6625
1053.41	0.5965
1063.46	0.4028
1073.5	0.4017
1083.54	0.6706
1093.58	0.696
1103.63	0.6413
1113.67	0.7247
1123.71	0.7194
1133.75	0.6597
1143.8	0.6447
1153.84	0.5737
1163.88	0.4117
1173.93	0.3915
1183.97	0.5719
1194.01	0.7396
1204.05	0.772
1214.1	0.7688
1224.14	0.7432
1234.18	0.6826
1244.22	0.6726
1254.27	0.7073
1264.31	0.6907
1274.35	0.6534
1284.39	0.4747
1294.44	0.4533
1304.48	0.3947
1314.52	0.2711
1324.57	0.4623
1334.61	0.4348
1344.65	0.5073
1354.69	0.6222
1364.74	0.5695
1374.78	0.4196
1384.82	0.5666
1394.86	0.6386
1404.91	0.5354
1414.95	0.5019
1424.99	0.4959
1435.03	0.5687
1445.08	0.5568
1455.12	0.5796
1465.16	0.5861
1475.21	0.5568
1485.25	0.5811
1495.29	0.5368
1505.33	0.5477
1515.38	0.6818
1525.42	0.7971
1535.46	0.8043
1545.5	0.7625
1555.55	0.7399
1565.59	0.8098
1575.63	0.8279
1585.67	0.8485
1595.72	0.8442
1605.76	0.8306
1615.8	0.8148
1625.85	0.7948
1635.89	0.7634
1645.93	0.7246
1655.97	0.6784
1666.02	0.6033
1676.06	0.433
1686.1	0.1579
1696.14	0.2035
1706.19	0.4649
1716.23	0.6194
1726.27	0.7649
1736.31	0.8274
1746.36	0.8519
1756.4	0.8673
1766.44	0.8757
1776.49	0.887
1786.53	0.8919
1796.57	0.8958
1806.61	0.8997
1816.66	0.9033
1826.7	0.9055
1836.74	0.9057
1846.78	0.906
1856.83	0.9062
1866.87	0.9054
1876.91	0.9053
1886.95	0.9054
1897	0.9055
1907.04	0.9057
1917.08	0.9058
1927.13	0.9059
1937.17	0.906
1947.21	0.9061
1957.25	0.9062
1967.3	0.9063
1977.34	0.9064
1987.38	0.9054
1997.42	0.9031
2007.47	0.8984
2017.51	0.8974
2027.55	0.8958
2037.59	0.8948
2047.64	0.8938
2057.68	0.893
2067.72	0.8912
2077.77	0.8886
2087.81	0.8851
2097.85	0.8814
2107.89	0.8775
2117.94	0.8773
2127.98	0.8779
2138.02	0.8784
2148.06	0.8779
2158.11	0.8771
2168.15	0.8765
2178.19	0.8762
2188.23	0.8757
2198.28	0.8747
2208.32	0.8736
2218.36	0.8719
2228.41	0.8692
2238.45	0.8665
2248.49	0.8639
2258.53	0.8614
2268.58	0.8587
2278.62	0.856
2288.66	0.853
2298.7	0.8503
2308.75	0.8479
2318.79	0.8456
2328.83	0.8433
2338.87	0.8411
2348.92	0.8377
2358.96	0.8342
2369	0.8308
2379.05	0.8277
2389.09	0.8247
2399.13	0.8224
2409.17	0.8205
2419.22	0.8167
2429.26	0.8134
2439.3	0.8104
2449.34	0.8079
2459.39	0.8045
2469.43	0.7945
2479.47	0.7848
2489.51	0.7765
2499.56	0.7683
2509.6	0.7599
2519.64	0.7546
2529.69	0.7523
2539.73	0.7518
2549.77	0.7522
2559.81	0.7532
2569.86	0.7527
2579.9	0.7496
2589.94	0.7438
2599.98	0.7403
2610.03	0.7386
2620.07	0.7371
2630.11	0.7296
2640.15	0.7232
2650.2	0.7184
2660.24	0.7148
2670.28	0.7141
2680.33	0.7138
2690.37	0.7132
2700.41	0.7103
2710.45	0.6981
2720.5	0.6791
2730.54	0.669
2740.58	0.6582
2750.62	0.6475
2760.67	0.6378
2770.71	0.6333
2780.75	0.6389
2790.79	0.6503
2800.84	0.665
2810.88	0.6738
2820.92	0.6687
2830.97	0.6528
2841.01	0.6405
2851.05	0.6224
2861.09	0.5623
2871.14	0.5749
2881.18	0.5624
2891.22	0.5583
2901.26	0.5619
2911.31	0.5578
2921.35	0.5433
2931.39	0.5379
2941.43	0.5221
2951.48	0.4753
2961.52	0.5295
2971.56	0.6281
2981.61	0.6317
2991.65	0.626
3001.69	0.6208
3011.73	0.6228
3021.78	0.6294
3031.82	0.6386
3041.86	0.6523
3051.9	0.6673
3061.95	0.6721
3071.99	0.6842
3082.03	0.6968
3092.07	0.7066
3102.12	0.7088
3112.16	0.7127
3122.2	0.7234
3132.25	0.7329
3142.29	0.7189
3152.33	0.7183
3162.37	0.7441
3172.42	0.7662
3182.46	0.7821
3192.5	0.7931
3202.54	0.8018
3212.59	0.8105
3222.63	0.818
3232.67	0.8244
3242.71	0.8297
3252.76	0.8331
3262.8	0.8354
3272.84	0.8366
3282.89	0.8378
3292.93	0.8385
3302.97	0.8384
3313.01	0.838
3323.06	0.8366
3333.1	0.8352
3343.14	0.8337
3353.18	0.8301
3363.23	0.8261
3373.27	0.8214
3383.31	0.8176
3393.35	0.8176
3403.4	0.8181
3413.44	0.8191
3423.48	0.8201
3433.53	0.8212
3443.57	0.8222
3453.61	0.8233
3463.65	0.8244
3473.7	0.8257
3483.74	0.8276
3493.78	0.8294
3503.82	0.8325
3513.87	0.8357
3523.91	0.8389
3533.95	0.8421
3543.99	0.8453
3554.04	0.8482
3564.08	0.8511
3574.12	0.8552
3584.17	0.8585
3594.21	0.8606
3604.25	0.8617
3614.29	0.8621
3624.34	0.8618
3634.38	0.8615
3644.42	0.8612
3654.46	0.8612
3664.51	0.8612
3674.55	0.8612
3684.59	0.8612
3694.63	0.8611
3704.68	0.8617
3714.72	0.8622
3724.76	0.8628
3734.81	0.8633
3744.85	0.8638
3754.89	0.864
3764.93	0.8642
3774.98	0.8645
3785.02	0.8645
3795.06	0.864
3805.1	0.8635
3815.15	0.8629
3825.19	0.8623
3835.23	0.8612
3845.27	0.8602
3855.32	0.8591
3865.36	0.8579
3875.4	0.8565
3885.45	0.8552
3895.49	0.8538
3905.53	0.8522
3915.57	0.8507
3925.62	0.8493
3935.66	0.848
3945.7	0.8471
3955.74	0.8466
3965.79	0.8463
3975.83	0.8461
3985.87	0.8455
3995.91	0.8449
4005.96	0.8453
4016	0.8457
