Infrared Spectrum: P-PHENYLAZO CARBANILIC ACID, 4-TERPINENOL ESTER
Formula: C23 H27 N3 O2
State: SOLID (1.5 mg / 100 mg KBr)
Melting point: 146-148 C
Class: COBLENTZ
Instrument: Not specified, most likely a grating spectrometer.
Sampling: TRANSMISSION
Resolution: 4
Origin: CITRUS EXPERIMENT STATION, UNIVERSITY OF FLORIDA (G. EDWARDS)
MICROMETERS	TRANSMITTANCE
2.027	0.914
2.06022	0.914
2.09344	0.917
2.12666	0.921
2.15988	0.921
2.1931	0.922
2.22632	0.922
2.25954	0.924
2.29276	0.925
2.32598	0.928
2.3592	0.929
2.39243	0.929
2.42565	0.929
2.45887	0.93
2.49209	0.932
2.52531	0.942
2.55853	0.942
2.59175	0.941
2.62497	0.938
2.65819	0.938
2.69141	0.938
2.72463	0.934
2.75785	0.93
2.79107	0.93
2.82429	0.932
2.85751	0.929
2.89073	0.846
2.92395	0.864
2.95717	0.914
2.99039	0.92
3.02361	0.933
3.05683	0.941
3.09005	0.944
3.12328	0.946
3.1565	0.948
3.18972	0.942
3.22294	0.934
3.25616	0.925
3.28938	0.92
3.3226	0.821
3.35582	0.788
3.38904	0.774
3.42226	0.84
3.45548	0.87
3.4887	0.888
3.52192	0.936
3.55514	0.946
3.58836	0.95
3.62158	0.948
3.6548	0.949
3.68802	0.954
3.72124	0.96
3.75446	0.96
3.78768	0.954
3.8209	0.956
3.85413	0.958
3.88735	0.958
3.92057	0.962
3.95379	0.965
3.98701	0.961
4.02023	0.962
4.05345	0.964
4.08667	0.964
4.11989	0.965
4.15311	0.969
4.18633	0.969
4.21955	0.969
4.25277	0.968
4.28599	0.954
4.31921	0.964
4.35243	0.966
4.38565	0.968
4.41887	0.968
4.45209	0.964
4.48531	0.958
4.51853	0.964
4.55175	0.966
4.58498	0.968
4.6182	0.969
4.65142	0.969
4.68464	0.968
4.71786	0.966
4.75108	0.966
4.7843	0.966
4.81752	0.965
4.85074	0.964
4.88396	0.964
4.91718	0.965
4.9504	0.965
4.98362	0.965
5.01684	0.964
5.05006	0.961
5.08328	0.96
5.1165	0.961
5.14972	0.962
5.18294	0.957
5.21616	0.954
5.24938	0.961
5.28261	0.962
5.31583	0.964
5.34905	0.966
5.38227	0.968
5.41549	0.965
5.44871	0.957
5.48193	0.953
5.51515	0.956
5.54837	0.956
5.58159	0.956
5.61481	0.953
5.64803	0.949
5.68125	0.936
5.71447	0.888
5.74769	0.852
5.78091	0.805
5.81413	0.587
5.84735	0.612
5.88057	0.789
5.91379	0.876
5.94701	0.904
5.98023	0.917
6.01346	0.929
6.04668	0.93
6.0799	0.937
6.11312	0.934
6.14634	0.905
6.17956	0.849
6.21278	0.652
6.246	0.785
6.27922	0.864
6.31244	0.914
6.34566	0.92
6.37888	0.9
6.4121	0.87
6.44532	0.756
6.47854	0.681
6.51176	0.5
6.54498	0.356
6.5782	0.4
6.61142	0.58
6.64464	0.748
6.67786	0.818
6.71108	0.833
6.74431	0.826
6.77753	0.769
6.81075	0.75
6.84397	0.834
6.87719	0.809
6.91041	0.692
6.94363	0.696
6.97685	0.808
7.01007	0.84
7.04329	0.752
7.07651	0.644
7.10973	0.816
7.14295	0.854
7.17617	0.826
7.20939	0.817
7.24261	0.812
7.27583	0.822
7.30905	0.85
7.34227	0.864
7.37549	0.862
7.40871	0.864
7.44194	0.866
7.47516	0.849
7.50838	0.8
7.5416	0.781
7.57482	0.788
7.60804	0.75
7.64126	0.671
7.67448	0.752
7.7077	0.853
7.74092	0.88
7.77414	0.889
7.80736	0.886
7.84058	0.852
7.8738	0.813
7.90702	0.758
7.94024	0.796
7.97346	0.822
8.00668	0.846
8.0399	0.833
8.07312	0.8
8.10634	0.713
8.13956	0.543
8.17279	0.434
8.20601	0.572
8.23923	0.601
8.27245	0.512
8.30567	0.495
8.33889	0.398
8.37211	0.49
8.40533	0.632
8.43855	0.72
8.47177	0.786
8.50499	0.813
8.53821	0.829
8.57143	0.79
8.60465	0.631
8.63787	0.639
8.67109	0.723
8.70431	0.757
8.73753	0.743
8.77075	0.789
8.80397	0.785
8.83719	0.748
8.87041	0.772
8.90364	0.814
8.93686	0.844
8.97008	0.84
9.0033	0.836
9.03652	0.837
9.06974	0.853
9.10296	0.858
9.13618	0.861
9.1694	0.866
9.20262	0.876
9.23584	0.878
9.26906	0.868
9.30228	0.833
9.3355	0.782
9.36872	0.76
9.40194	0.688
9.43516	0.692
9.46838	0.732
9.5016	0.717
9.53482	0.664
9.56804	0.635
9.60126	0.676
9.63449	0.739
9.66771	0.782
9.70093	0.781
9.73415	0.758
9.76737	0.72
9.80059	0.736
9.83381	0.748
9.86703	0.739
9.90025	0.728
9.93347	0.74
9.96669	0.773
9.99991	0.806
10.0331	0.836
10.0664	0.862
10.0996	0.869
10.1328	0.882
10.166	0.881
10.1992	0.882
10.2325	0.886
10.2657	0.886
10.2989	0.889
10.3321	0.89
10.3653	0.89
10.3986	0.893
10.4318	0.894
10.465	0.896
10.4982	0.894
10.5314	0.886
10.5647	0.88
10.5979	0.882
10.6311	0.889
10.6643	0.898
10.6975	0.897
10.7308	0.885
10.764	0.866
10.7972	0.869
10.8304	0.873
10.8636	0.865
10.8969	0.846
10.9301	0.83
10.9633	0.87
10.9965	0.894
11.0297	0.902
11.063	0.904
11.0962	0.9
11.1294	0.893
11.1626	0.885
11.1958	0.869
11.2291	0.856
11.2623	0.858
11.2955	0.862
11.3287	0.866
11.3619	0.868
11.3952	0.878
11.4284	0.892
11.4616	0.901
11.4948	0.905
11.5281	0.908
11.5613	0.908
11.5945	0.904
11.6277	0.896
11.6609	0.886
11.6942	0.872
11.7274	0.846
11.7606	0.821
11.7938	0.782
11.827	0.727
11.8603	0.647
11.8935	0.607
11.9267	0.664
11.9599	0.713
11.9931	0.753
12.0264	0.777
12.0596	0.806
12.0928	0.821
12.126	0.836
12.1592	0.844
12.1925	0.849
12.2257	0.853
12.2589	0.854
12.2921	0.854
12.3253	0.85
12.3586	0.841
12.3918	0.83
12.425	0.82
12.4582	0.83
12.4914	0.818
12.5247	0.814
12.5579	0.818
12.5911	0.828
12.6243	0.834
12.6575	0.836
12.6908	0.834
12.724	0.83
12.7572	0.825
12.7904	0.818
12.8236	0.81
12.8569	0.788
12.8901	0.784
12.9233	0.79
12.9565	0.784
12.9898	0.772
13.023	0.749
13.0562	0.729
13.0894	0.711
13.1226	0.693
13.1559	0.719
13.1891	0.776
13.2223	0.798
13.2555	0.805
13.2887	0.804
13.322	0.808
13.3552	0.822
13.3884	0.841
13.4216	0.857
13.4548	0.861
13.4881	0.865
13.5213	0.869
13.5545	0.872
13.5877	0.872
13.6209	0.872
13.6542	0.869
13.6874	0.864
13.7206	0.86
13.7538	0.858
13.787	0.854
13.8203	0.852
13.8535	0.844
13.8867	0.837
13.9199	0.84
13.9531	0.842
13.9864	0.844
14.0196	0.856
14.0528	0.868
14.086	0.873
14.1192	0.878
14.1525	0.881
14.1857	0.881
14.2189	0.882
14.2521	0.884
14.2853	0.884
14.3186	0.882
14.3518	0.88
14.385	0.877
14.4182	0.865
14.4515	0.842
14.4847	0.81
14.5179	0.793
14.5511	0.774
14.5843	0.772
14.6176	0.772
14.6508	0.77
14.684	0.773
14.7172	0.785
14.7504	0.802
14.7837	0.821
14.8169	0.844
14.8501	0.856
14.8833	0.837
14.9165	0.814
14.9498	0.805
14.983	0.86
15.0162	0.885
