Infrared Spectrum: PALLADIUM, BIS(1,1,1-TRIFLUORO-2,4-PENTANEDIONATO)-
Formula: C10 H8 F6 O4 Pd
State: SOLID (1 mg / 650 mg KBr DISC)
Class: COBLENTZ III
Instrument: PERKIN-ELMER 521 (GRATING)
Instrument parameters: FILTERS AT 3150, 2500, 2000, 1150, 700, 410. GRATING CHANGES: 2000, 630 CM^-^1
Sampling: TRANSMISSION
Resolution: 2
Origin: SOUTHERN RESEARCH INSTITUTE
1/CM	TRANSMITTANCE
250.427	0.315
260.614	0.4367
270.8	0.4835
280.987	0.5529
291.174	0.6158
301.361	0.659
311.547	0.6737
321.734	0.7087
331.921	0.745
342.108	0.7779
352.294	0.8028
362.481	0.8185
372.668	0.816
382.855	0.8097
393.041	0.8391
403.228	0.8654
413.415	0.8703
423.602	0.868
433.788	0.8657
443.975	0.8238
454.162	0.8634
464.349	0.8811
474.535	0.888
484.722	0.89
494.909	0.89
505.096	0.889
515.282	0.8701
525.469	0.8878
535.656	0.8806
545.843	0.8538
556.029	0.8895
566.216	0.896
576.403	0.896
586.59	0.8943
596.776	0.862
606.963	0.7977
617.15	0.8852
627.337	0.904
637.523	0.909
647.71	0.91
657.897	0.912
668.084	0.9017
678.27	0.8484
688.457	0.7914
698.644	0.9035
708.831	0.922
719.017	0.9102
729.204	0.9113
739.391	0.7613
749.578	0.889
759.764	0.918
769.951	0.913
780.138	0.8986
790.325	0.7158
800.511	0.5626
810.698	0.9213
820.885	0.922
831.072	0.9173
841.258	0.917
851.445	0.9148
861.632	0.8957
871.819	0.7407
882.005	0.8835
892.192	0.916
902.379	0.916
912.566	0.914
922.752	0.9097
932.939	0.8997
943.126	0.828
953.313	0.8907
963.499	0.8999
973.686	0.895
983.873	0.8889
994.06	0.874
1004.25	0.8611
1014.43	0.8373
1024.62	0.8111
1034.81	0.8519
1044.99	0.857
1055.18	0.8472
1065.37	0.8333
1075.55	0.8216
1085.74	0.8127
1095.93	0.7961
1106.11	0.7661
1116.3	0.7038
1126.49	0.5497
1136.67	0.2785
1146.86	0.4522
1157.05	0.2764
1167.23	0.4086
1177.42	0.4939
1187.61	0.3727
1197.79	0.3509
1207.98	0.588
1218.17	0.6301
1228.35	0.4789
1238.54	0.7281
1248.73	0.819
1258.92	0.7883
1269.1	0.6985
1279.29	0.6206
1289.48	0.4001
1299.66	0.2508
1309.85	0.4497
1320.04	0.6995
1330.22	0.8214
1340.41	0.842
1350.6	0.8226
1360.78	0.7178
1370.97	0.7667
1381.16	0.8423
1391.34	0.861
1401.53	0.8399
1411.72	0.7956
1421.9	0.8003
1432.09	0.7975
1442.28	0.7256
1452.46	0.6766
1462.65	0.8112
1472.84	0.839
1483.02	0.8287
1493.21	0.7839
1503.4	0.7412
1513.58	0.5801
1523.77	0.5399
1533.96	0.7819
1544.14	0.7704
1554.33	0.8001
1564.52	0.7515
1574.7	0.4703
1584.89	0.258
1595.08	0.3173
1605.26	0.4327
1615.45	0.639
1625.64	0.742
1635.82	0.7684
1646.01	0.8111
1656.2	0.8521
1666.39	0.8763
1676.57	0.884
1686.76	0.884
1696.95	0.88
1707.13	0.8882
1717.32	0.8983
1727.51	0.9131
1737.69	0.918
1747.88	0.919
1758.07	0.926
1768.25	0.93
1778.44	0.932
1788.63	0.933
1798.81	0.933
1809	0.933
1819.19	0.933
1829.37	0.935
1839.56	0.935
1849.75	0.935
1859.93	0.935
1870.12	0.932
1880.31	0.9305
1890.49	0.9276
1900.68	0.9288
1910.87	0.932
1921.05	0.932
1931.24	0.933
1941.43	0.933
1951.61	0.933
1961.8	0.933
1971.99	0.933
1982.17	0.933
1992.36	0.933
2002.55	0.93
2012.73	0.924
2022.92	0.924
2033.11	0.923
2043.29	0.923
2053.48	0.923
2063.67	0.924
2073.86	0.927
2084.04	0.927
2094.23	0.926
2104.42	0.926
2114.6	0.926
2124.79	0.926
2134.98	0.927
2145.16	0.927
2155.35	0.926
2165.54	0.924
2175.72	0.923
2185.91	0.922
2196.1	0.923
2206.28	0.923
2216.47	0.921
2226.66	0.919
2236.84	0.918
2247.03	0.918
2257.22	0.918
2267.4	0.917
2277.59	0.917
2287.78	0.916
2297.96	0.914
2308.15	0.914
2318.34	0.914
2328.52	0.914
2338.71	0.913
2348.9	0.913
2359.08	0.913
2369.27	0.914
2379.46	0.916
2389.64	0.916
2399.83	0.916
2410.02	0.916
2420.2	0.916
2430.39	0.914
2440.58	0.914
2450.76	0.914
2460.95	0.91
2471.14	0.908
2481.33	0.909
2491.51	0.91
2501.7	0.91
2511.89	0.91
2522.07	0.91
2532.26	0.91
2542.45	0.908
2552.63	0.908
2562.82	0.908
2573.01	0.908
2583.19	0.908
2593.38	0.908
2603.57	0.909
2613.75	0.909
2623.94	0.909
2634.13	0.909
2644.31	0.909
2654.5	0.909
2664.69	0.909
2674.87	0.909
2685.06	0.909
2695.25	0.908
2705.43	0.905
2715.62	0.903
2725.81	0.9
2735.99	0.898
2746.18	0.902
2756.37	0.902
2766.55	0.902
2776.74	0.9
2786.93	0.899
2797.11	0.899
2807.3	0.899
2817.49	0.896
2827.67	0.895
2837.86	0.893
2848.05	0.89
2858.23	0.89
2868.42	0.89
2878.61	0.889
2888.8	0.886
2898.98	0.882
2909.17	0.877
2919.36	0.872
2929.54	0.875
2939.73	0.882
2949.92	0.886
2960.1	0.886
2970.29	0.889
2980.48	0.891
2990.66	0.891
3000.85	0.889
3011.04	0.889
3021.22	0.889
3031.41	0.889
3041.6	0.889
3051.78	0.889
3061.97	0.888
3072.16	0.886
3082.34	0.884
3092.53	0.882
3102.72	0.881
3112.9	0.889
3123.09	0.881
3133.28	0.863
3143.46	0.87
3153.65	0.871
3163.84	0.872
3174.02	0.872
3184.21	0.871
3194.4	0.867
3204.58	0.871
3214.77	0.868
3224.96	0.866
3235.14	0.861
3245.33	0.857
3255.52	0.856
3265.7	0.851
3275.89	0.851
3286.08	0.851
3296.27	0.849
3306.45	0.851
3316.64	0.843
3326.83	0.837
3337.01	0.832
3347.2	0.826
3357.39	0.821
3367.57	0.814
3377.76	0.807
3387.95	0.801
3398.13	0.797
3408.32	0.795
3418.51	0.792
3428.69	0.791
3438.88	0.792
3449.07	0.793
3459.25	0.795
3469.44	0.797
3479.63	0.797
3489.81	0.801
3500	0.805
3510.19	0.811
3520.37	0.816
3530.56	0.82
3540.75	0.826
3550.93	0.833
3561.12	0.839
3571.31	0.846
3581.49	0.852
3591.68	0.857
3601.87	0.862
3612.05	0.867
3622.24	0.874
3632.43	0.877
3642.61	0.881
3652.8	0.884
3662.99	0.884
3673.17	0.884
3683.36	0.882
3693.55	0.886
3703.73	0.889
3713.92	0.889
3724.11	0.889
3734.3	0.889
3744.48	0.889
3754.67	0.889
3764.86	0.89
3775.04	0.89
3785.23	0.89
3795.42	0.89
3805.6	0.891
3815.79	0.891
3825.98	0.89
3836.16	0.89
3846.35	0.89
3856.54	0.89
3866.72	0.889
3876.91	0.888
3887.1	0.888
3897.28	0.888
3907.47	0.888
