Infrared Spectrum: POTASSIUM PERMANGANATE
Formula: K Mn O4
State: SOLID (NUJOL MULL)
Class: COBLENTZ
Instrument: Not specified, most likely a prism, grating, or hybrid spectrometer.
Sampling: TRANSMISSION
Resolution: 4
Origin: MELLON INSTITUTE
MICROMETERS	TRANSMITTANCE
2.017	0.379
2.05797	0.392
2.09894	0.399
2.1399	0.416
2.18087	0.43
2.22184	0.437
2.26281	0.447
2.30377	0.457
2.34474	0.463
2.38571	0.475
2.42668	0.487
2.46764	0.502
2.50861	0.509
2.54958	0.521
2.59055	0.526
2.63151	0.533
2.67248	0.545
2.71345	0.55
2.75442	0.555
2.79539	0.562
2.83635	0.569
2.87732	0.572
2.91829	0.579
2.95926	0.584
3.00022	0.59
3.04119	0.596
3.08216	0.598
3.12313	0.602
3.16409	0.603
3.20506	0.61
3.24603	0.61
3.287	0.59
3.32797	0.518
3.36893	0.14
3.4099	0.169
3.45087	0.202
3.49184	0.368
3.5328	0.639
3.57377	0.73
3.61474	0.749
3.65571	0.751
3.69667	0.754
3.73764	0.759
3.77861	0.763
3.81958	0.768
3.86054	0.773
3.90151	0.778
3.94248	0.782
3.98345	0.787
4.02442	0.792
4.06538	0.799
4.10635	0.802
4.14732	0.806
4.18829	0.811
4.22925	0.816
4.27022	0.816
4.31119	0.816
4.35216	0.818
4.39312	0.825
4.43409	0.831
4.47506	0.833
4.51603	0.833
4.55699	0.833
4.59796	0.835
4.63893	0.84
4.6799	0.845
4.72087	0.849
4.76183	0.854
4.8028	0.859
4.84377	0.862
4.88474	0.864
4.9257	0.869
4.96667	0.874
5.00764	0.878
5.04861	0.879
5.08957	0.885
5.13054	0.89
5.17151	0.891
5.21248	0.897
5.25345	0.902
5.29441	0.903
5.33538	0.903
5.37635	0.905
5.41732	0.909
5.45828	0.907
5.49925	0.905
5.54022	0.902
5.58119	0.903
5.62215	0.912
5.66312	0.912
5.70409	0.898
5.74506	0.885
5.78602	0.871
5.82699	0.895
5.86796	0.91
5.90893	0.919
5.9499	0.924
5.99086	0.927
6.03183	0.922
6.0728	0.922
6.11377	0.931
6.15473	0.933
6.1957	0.936
6.23667	0.936
6.27764	0.934
6.3186	0.933
6.35957	0.936
6.40054	0.933
6.44151	0.936
6.48247	0.938
6.52344	0.933
6.56441	0.938
6.60538	0.934
6.64635	0.931
6.68731	0.919
6.72828	0.855
6.76925	0.704
6.81022	0.6
6.85118	0.59
6.89215	0.716
6.93312	0.783
6.97409	0.857
7.01505	0.907
7.05602	0.924
7.09699	0.931
7.13796	0.926
7.17893	0.771
7.21989	0.735
7.26086	0.787
7.30183	0.849
7.3428	0.9
7.38376	0.91
7.42473	0.917
7.4657	0.933
7.50667	0.941
7.54763	0.946
7.5886	0.945
7.62957	0.945
7.67054	0.946
7.7115	0.948
7.75247	0.953
7.79344	0.951
7.83441	0.951
7.87538	0.955
7.91634	0.958
7.95731	0.955
7.99828	0.953
8.03925	0.951
8.08021	0.955
8.12118	0.957
8.16215	0.962
8.20312	0.969
8.24408	0.975
8.28505	0.981
8.32602	0.984
8.36699	0.984
8.40795	0.984
8.44892	0.984
8.48989	0.986
8.53086	0.984
8.57183	0.984
8.61279	0.984
8.65376	0.984
8.69473	0.982
8.7357	0.987
8.77666	0.991
8.81763	0.991
8.8586	0.996
8.89957	0.996
8.94053	0.994
8.9815	0.994
9.02247	0.993
9.06344	0.994
9.10441	0.998
9.14537	0.998
9.18634	0.994
9.22731	0.994
9.26828	0.993
9.30924	0.993
9.35021	0.993
9.39118	0.993
9.43215	0.994
9.47311	0.996
9.51408	0.993
9.55505	0.993
9.59602	0.993
9.63698	0.987
9.67795	0.989
9.71892	0.991
9.75989	0.991
9.80086	0.994
9.84182	0.994
9.88279	0.994
9.92376	0.989
9.96473	0.987
10.0057	0.987
10.0467	0.982
10.0876	0.979
10.1286	0.972
10.1696	0.965
10.2105	0.958
10.2515	0.951
10.2925	0.941
10.3334	0.934
10.3744	0.924
10.4154	0.91
10.4563	0.905
10.4973	0.89
10.5383	0.866
10.5792	0.825
10.6202	0.675
10.6612	0.55
10.7021	0.38
10.7431	0.25
10.7841	0.162
10.825	0.111
10.866	0.099
10.907	0.084
10.9479	0.077
10.9889	0.072
11.0299	0.065
11.0709	0.061
11.1118	0.058
11.1528	0.056
11.1938	0.085
11.2347	0.13
11.2757	0.217
11.3167	0.305
11.3576	0.384
11.3986	0.447
11.4396	0.504
11.4805	0.543
11.5215	0.574
11.5625	0.605
11.6034	0.634
11.6444	0.658
11.6854	0.689
11.7263	0.711
11.7673	0.723
11.8083	0.704
11.8492	0.691
11.8902	0.716
11.9312	0.739
11.9721	0.763
12.0131	0.787
12.0541	0.797
12.095	0.802
12.136	0.807
12.177	0.813
12.2179	0.819
12.2589	0.825
12.2999	0.828
12.3409	0.83
12.3818	0.833
12.4228	0.837
12.4638	0.84
12.5047	0.84
12.5457	0.84
12.5867	0.84
12.6276	0.84
12.6686	0.838
12.7096	0.835
12.7505	0.83
12.7915	0.825
12.8325	0.821
12.8734	0.821
12.9144	0.825
12.9554	0.828
12.9963	0.831
13.0373	0.831
13.0783	0.831
13.1192	0.835
13.1602	0.835
13.2012	0.833
13.2421	0.83
13.2831	0.825
13.3241	0.825
13.365	0.826
13.406	0.825
13.447	0.814
13.4879	0.807
13.5289	0.799
13.5699	0.794
13.6108	0.79
13.6518	0.783
13.6928	0.777
13.7338	0.771
13.7747	0.765
13.8157	0.759
13.8567	0.759
13.8976	0.763
13.9386	0.763
13.9796	0.763
14.0205	0.759
14.0615	0.754
14.1025	0.749
14.1434	0.744
14.1844	0.737
14.2254	0.728
14.2663	0.725
14.3073	0.718
14.3483	0.715
14.3892	0.708
14.4302	0.703
14.4712	0.692
14.5121	0.684
14.5531	0.675
14.5941	0.672
14.635	0.668
14.676	0.665
14.717	0.66
14.7579	0.651
14.7989	0.643
14.8399	0.644
14.8808	0.643
14.9218	0.636
14.9628	0.631
15.0037	0.622
15.0447	0.619
15.0857	0.61
15.1267	0.607
15.1676	0.605
15.2086	0.605
15.2496	0.602
15.2905	0.598
15.3315	0.593
15.3725	0.591
15.4134	0.586
15.4544	0.583
15.4954	0.581
15.5363	0.579
15.5773	0.578
15.6183	0.576
15.6592	0.576
15.7002	0.574
15.7412	0.572
15.7821	0.572
15.8231	0.572
15.8641	0.571
15.905	0.571
15.946	0.571
15.987	0.569
