Infrared Spectrum: 2-HYDROXY-3-(N-HEXYLAMINO) PROPYL-TRIMETHYLAMMONIUM p-TOSYLATE
Formula: C19 H36 N2 O4 S
State: SOLID (KBr PELLET)
Melting point: 117.5-120 C
Class: COBLENTZ
Instrument: Not specified, most likely a prism, grating, or hybrid spectrometer.
Sampling: TRANSMISSION
Resolution: 4
Origin: EASTMAN KODAK COMPANY, RESEARCH LABORATORIES, ROCHESTER, N.Y.
MICROMETERS	TRANSMITTANCE
2.04	0.75
2.08	0.739
2.12	0.745
2.16	0.742
2.2	0.739
2.24	0.739
2.27999	0.74
2.31999	0.752
2.35999	0.762
2.39999	0.772
2.43999	0.788
2.47999	0.786
2.51999	0.786
2.55999	0.796
2.59999	0.8
2.63999	0.808
2.67998	0.813
2.71998	0.808
2.75998	0.793
2.79998	0.724
2.83998	0.688
2.87998	0.637
2.91998	0.519
2.95998	0.442
2.99998	0.349
3.03998	0.281
3.07998	0.316
3.11997	0.519
3.15997	0.598
3.19997	0.703
3.23997	0.737
3.27997	0.719
3.31997	0.66
3.35997	0.662
3.39997	0.378
3.43997	0.268
3.47997	0.455
3.51996	0.437
3.55996	0.536
3.59996	0.737
3.63996	0.752
3.67996	0.775
3.71996	0.809
3.75996	0.822
3.79996	0.839
3.83996	0.847
3.87996	0.849
3.91996	0.868
3.95995	0.868
3.99995	0.888
4.03995	0.886
4.07995	0.89
4.11995	0.896
4.15995	0.896
4.19995	0.88
4.23995	0.901
4.27995	0.918
4.31995	0.921
4.35994	0.929
4.39994	0.922
4.43994	0.921
4.47994	0.911
4.51994	0.913
4.55994	0.909
4.59994	0.914
4.63994	0.927
4.67994	0.927
4.71994	0.937
4.75994	0.949
4.79993	0.947
4.83993	0.931
4.87993	0.937
4.91993	0.937
4.95993	0.937
4.99993	0.934
5.03993	0.932
5.07993	0.934
5.11993	0.929
5.15993	0.939
5.19992	0.929
5.23992	0.927
5.27992	0.94
5.31992	0.947
5.35992	0.94
5.39992	0.945
5.43992	0.939
5.47992	0.944
5.51992	0.929
5.55992	0.937
5.59992	0.945
5.63991	0.931
5.67991	0.939
5.71991	0.927
5.75991	0.937
5.79991	0.931
5.83991	0.919
5.87991	0.927
5.91991	0.927
5.95991	0.921
5.99991	0.906
6.0399	0.873
6.0799	0.888
6.1199	0.881
6.1599	0.852
6.1999	0.868
6.2399	0.819
6.2799	0.888
6.3199	0.878
6.3599	0.898
6.3999	0.878
6.4399	0.888
6.47989	0.888
6.51989	0.893
6.55989	0.877
6.59989	0.829
6.63989	0.763
6.67989	0.54
6.71989	0.342
6.75989	0.427
6.79989	0.463
6.83989	0.516
6.87988	0.545
6.91988	0.645
6.95988	0.708
6.99988	0.708
7.03988	0.752
7.07988	0.752
7.11988	0.727
7.15988	0.747
7.19988	0.731
7.23988	0.757
7.27988	0.701
7.31987	0.747
7.35987	0.727
7.39987	0.77
7.43987	0.619
7.47987	0.611
7.51987	0.808
7.55987	0.8
7.59987	0.775
7.63987	0.65
7.67987	0.755
7.71986	0.791
7.75986	0.808
7.79986	0.8
7.83986	0.814
7.87986	0.811
7.91986	0.8
7.95986	0.775
7.99986	0.737
8.03986	0.701
8.07986	0.659
8.11985	0.498
8.15985	0.303
8.19985	0.103
8.23985	0.078
8.27985	0.15
8.31985	0.247
8.35985	0.296
8.39985	0.198
8.43985	0.083
8.47985	0.124
8.51985	0.308
8.55984	0.239
8.59984	0.455
8.63984	0.55
8.67984	0.649
8.71984	0.6
8.75984	0.526
8.79984	0.516
8.83984	0.37
8.87984	0.288
8.91984	0.16
8.95983	0.249
8.99983	0.436
9.03983	0.355
9.07983	0.327
9.11983	0.547
9.15983	0.614
9.19983	0.609
9.23983	0.598
9.27983	0.714
9.31983	0.757
9.35983	0.79
9.39982	0.796
9.43982	0.778
9.47982	0.752
9.51982	0.791
9.55982	0.754
9.59982	0.652
9.63982	0.304
9.67982	0.175
9.71982	0.527
9.75982	0.742
9.79981	0.798
9.83981	0.677
9.87981	0.149
9.91981	0.319
9.95981	0.604
9.99981	0.736
10.0398	0.76
10.0798	0.803
10.1198	0.8
10.1598	0.76
10.1998	0.754
10.2398	0.624
10.2798	0.414
10.3198	0.39
10.3598	0.547
10.3998	0.709
10.4398	0.778
10.4798	0.793
10.5198	0.809
10.5598	0.795
10.5998	0.672
10.6398	0.5
10.6798	0.58
10.7198	0.739
10.7598	0.826
10.7998	0.849
10.8398	0.859
10.8798	0.865
10.9198	0.849
10.9598	0.768
10.9998	0.596
11.0398	0.618
11.0798	0.8
11.1198	0.849
11.1598	0.886
11.1998	0.883
11.2398	0.883
11.2798	0.901
11.3198	0.921
11.3598	0.922
11.3998	0.927
11.4398	0.914
11.4798	0.888
11.5198	0.839
11.5598	0.896
11.5998	0.918
11.6398	0.922
11.6798	0.919
11.7198	0.891
11.7598	0.868
11.7998	0.888
11.8398	0.906
11.8798	0.898
11.9198	0.908
11.9598	0.89
11.9998	0.885
12.0398	0.868
12.0798	0.857
12.1198	0.818
12.1598	0.752
12.1998	0.708
12.2398	0.649
12.2798	0.518
12.3198	0.314
12.3598	0.327
12.3998	0.516
12.4398	0.629
12.4798	0.639
12.5198	0.562
12.5597	0.519
12.5997	0.559
12.6397	0.616
12.6797	0.662
12.7197	0.718
12.7597	0.755
12.7997	0.78
12.8397	0.795
12.8797	0.808
12.9197	0.822
12.9597	0.831
12.9997	0.839
13.0397	0.831
13.0797	0.808
13.1197	0.819
13.1597	0.84
13.1997	0.862
13.2397	0.862
13.2797	0.857
13.3197	0.867
13.3597	0.868
13.3997	0.877
13.4397	0.863
13.4797	0.859
13.5197	0.859
13.5597	0.859
13.5997	0.854
13.6397	0.836
13.6797	0.816
13.7197	0.754
13.7597	0.767
13.7997	0.788
13.8397	0.798
13.8797	0.798
13.9197	0.727
13.9597	0.652
13.9997	0.708
14.0397	0.757
14.0797	0.759
14.1197	0.75
14.1597	0.734
14.1997	0.718
14.2397	0.68
14.2797	0.655
14.3197	0.613
14.3597	0.555
14.3997	0.498
14.4397	0.444
14.4797	0.377
14.5197	0.334
14.5597	0.268
14.5997	0.257
14.6397	0.28
14.6797	0.339
14.7197	0.401
14.7597	0.457
14.7997	0.504
14.8397	0.549
14.8797	0.578
14.9197	0.595
14.9597	0.58
14.9997	0.637
15.0397	0.647
15.0797	0.604
15.1197	0.595
15.1597	0.583
15.1997	0.578
15.2397	0.575
15.2797	0.567
15.3197	0.557
15.3597	0.56
15.3997	0.555
15.4397	0.547
15.4797	0.55
15.5197	0.557
15.5597	0.555
15.5997	0.552
15.6397	0.555
15.6797	0.554
15.7197	0.55
15.7597	0.545
15.7997	0.539
15.8397	0.527
15.8797	0.534
15.9197	0.545
15.9597	0.539
15.9997	0.531
