Infrared Spectrum: Benzenesulfonic acid, 2,4,6-trinitro-, nickel salt
Formula: C12 H4 N6 O18 S2 Ni
State: SOLID (NUJOL MULL)
Class: COBLENTZ III
Instrument: PERKIN-ELMER 521 (GRATING)
Sampling: TRANSMISSION
Resolution: 2
Origin: STANDARD OIL OF OHIO
1/CM	TRANSMITTANCE
3896	0.7501
3887	0.749
3878	0.7482
3869	0.7492
3860	0.753
3851	0.7569
3842	0.7622
3833	0.7662
3824	0.7689
3815	0.7714
3806	0.7717
3797	0.7719
3788	0.7735
3779	0.7751
3770	0.7788
3761	0.7828
3752	0.7875
3743	0.7921
3734	0.7964
3725	0.798
3716	0.7989
3707	0.7986
3698	0.7974
3689	0.7936
3680	0.7864
3671	0.7739
3662	0.7437
3653	0.7061
3644	0.6337
3635	0.5276
3626	0.421
3617	0.3145
3608	0.2322
3599	0.1986
3590	0.1859
3581	0.1787
3572	0.1731
3563	0.1665
3554	0.1609
3545	0.1686
3536	0.1789
3527	0.1854
3518	0.187
3509	0.1834
3500	0.1748
3491	0.1698
3482	0.1686
3473	0.166
3464	0.1572
3455	0.1429
3446	0.1317
3437	0.125
3428	0.1246
3419	0.127
3410	0.1342
3401	0.1386
3392	0.14
3383	0.1415
3374	0.1439
3365	0.1491
3356	0.1548
3347	0.1615
3338	0.1687
3329	0.1758
3320	0.1824
3311	0.1884
3302	0.1944
3293	0.2
3284	0.2052
3275	0.2101
3266	0.215
3257	0.2179
3248	0.218
3239	0.2161
3230	0.2124
3221	0.2088
3212	0.2062
3203	0.2044
3194	0.2027
3185	0.2004
3176	0.1985
3167	0.197
3158	0.1968
3149	0.1981
3140	0.2042
3131	0.2169
3122	0.2325
3113	0.2483
3104	0.261
3095	0.2674
3086	0.2693
3077	0.1812
3068	0.1539
3059	0.2162
3050	0.2761
3041	0.3005
3032	0.3167
3023	0.3318
3014	0.3518
3005	0.3587
2996	0.3503
2987	0.3442
2978	0.3291
2969	0.2706
2960	0.2032
2951	0.1648
2942	0.1677
2933	0.1526
2924	0.1086
2915	0.1064
2906	0.162
2897	0.209
2888	0.2562
2879	0.3017
2870	0.298
2861	0.265
2852	0.2181
2843	0.2934
2834	0.4765
2825	0.5825
2816	0.6393
2807	0.6661
2798	0.6758
2789	0.683
2780	0.701
2771	0.7154
2762	0.7225
2753	0.7257
2744	0.7268
2735	0.725
2726	0.7218
2717	0.7201
2708	0.7232
2699	0.7289
2690	0.7285
2681	0.7334
2672	0.7399
2663	0.7418
2654	0.7467
2645	0.7482
2636	0.7496
2627	0.7522
2618	0.7572
2609	0.7617
2600	0.7625
2591	0.7615
2582	0.764
2573	0.7669
2564	0.7684
2555	0.7692
2546	0.7701
2537	0.7712
2528	0.7724
2519	0.7724
2510	0.7722
2501	0.7703
2492	0.7671
2483	0.7637
2474	0.7615
2465	0.7622
2456	0.7638
2447	0.7634
2438	0.7612
2429	0.7591
2420	0.7574
2411	0.756
2402	0.7555
2393	0.7556
2384	0.7561
2375	0.7571
2366	0.7604
2357	0.7625
2348	0.7624
2339	0.7617
2330	0.761
2321	0.7628
2312	0.7675
2303	0.7701
2294	0.7701
2285	0.7726
2276	0.7772
2267	0.7784
2258	0.779
2249	0.7801
2240	0.7824
2231	0.7895
2222	0.7945
2213	0.7976
2204	0.8004
2195	0.8019
2186	0.8028
2177	0.8033
2168	0.8038
2159	0.8044
2150	0.805
2141	0.8051
2132	0.8048
2123	0.8032
2114	0.8
2105	0.7947
2096	0.7922
2087	0.7934
2078	0.7953
2069	0.7948
2060	0.7928
2051	0.7907
2042	0.7884
2033	0.7851
2024	0.7836
2015	0.7848
2006	0.7871
1997	0.791
1988	0.7958
1979	0.8005
1970	0.8051
1961	0.81
1952	0.8138
1943	0.8175
1934	0.8204
1925	0.8223
1916	0.8237
1907	0.8252
1898	0.8262
1889	0.8268
1880	0.8263
1871	0.8221
1862	0.8015
1853	0.7787
1844	0.7789
1835	0.8206
1826	0.8268
1817	0.8305
1808	0.8348
1799	0.8377
1790	0.8368
1781	0.8339
1772	0.8308
1763	0.8264
1754	0.8208
1745	0.8122
1736	0.7971
1727	0.7792
1718	0.7612
1709	0.7275
1700	0.6668
1691	0.5994
1682	0.4809
1673	0.36
1664	0.3099
1655	0.3056
1646	0.3184
1637	0.3449
1628	0.3664
1619	0.4197
1610	0.3872
1601	0.4453
1592	0.5015
1583	0.49
1574	0.405
1565	0.2514
1556	0.1206
1547	0.1192
1538	0.1517
1529	0.2741
1520	0.3809
1511	0.4819
1502	0.5672
1493	0.6081
1484	0.623
1475	0.5707
1466	0.4354
1457	0.4456
1448	0.5235
1439	0.6084
1430	0.6842
1421	0.708
1412	0.6865
1403	0.6486
1394	0.6323
1385	0.516
1376	0.3832
1367	0.2555
1358	0.1149
1349	0.104
1340	0.2571
1331	0.4444
1322	0.579
1313	0.6092
1304	0.6125
1295	0.6078
1286	0.5455
1277	0.3914
1268	0.1586
1259	0.2018
1250	0.2746
1241	0.2984
1232	0.2233
1223	0.1879
1214	0.31
1205	0.4246
1196	0.5217
1187	0.606
1178	0.6474
1169	0.6665
1160	0.6778
1151	0.6769
1142	0.5837
1133	0.3168
1124	0.4854
1115	0.6641
1106	0.7158
1097	0.7261
1088	0.693
1079	0.4596
1070	0.3759
1061	0.6608
1052	0.6906
1043	0.6698
1034	0.2462
1025	0.5048
1016	0.6615
1007	0.7078
998	0.7305
989	0.7418
980	0.7417
971	0.7418
962	0.7449
953	0.7441
944	0.6535
935	0.5219
926	0.3056
917	0.6828
908	0.7071
899	0.7257
890	0.7186
881	0.7175
872	0.7065
863	0.69
854	0.6706
845	0.6388
836	0.6007
827	0.5026
818	0.5475
809	0.5139
800	0.4736
791	0.4424
782	0.4176
773	0.403
764	0.3526
755	0.1804
746	0.2766
737	0.2278
728	0.2789
719	0.212
710	0.3432
701	0.3495
692	0.3379
683	0.3259
674	0.3194
665	0.3061
656	0.3218
647	0.3196
638	0.2489
629	0.1944
620	0.2406
611	0.2662
602	0.2754
593	0.2752
584	0.2638
575	0.2401
566	0.1754
557	0.1737
548	0.1825
539	0.1832
530	0.1462
521	0.1319
512	0.1284
