Infrared Spectrum: 1,2,3,4,5,6-HEXACHLOROCYCLOHEXANE
Formula: C6 H6 Cl6
State: SOLUTION (10% CCl4 FOR 3800-1330, 10% CS2 FOR 1330-450 CM^-^1)
Class: COBLENTZ
Instrument: Not specified, most likely a prism, grating, or hybrid spectrometer.
Sampling: TRANSMISSION
Path length: 0.011 CM, 0.011 CM
Resolution: 4
Origin: DOW CHEMICAL COMPANY
1/CM	TRANSMITTANCE
453.621	0.937
462.165	0.94
470.708	0.937
479.252	0.889
487.795	0.3324
496.339	1.0069
504.882	1.022
513.426	1.043
521.97	1.053
530.513	1.053
539.057	1.049
547.6	1.061
556.144	1.059
564.688	1.055
573.231	1.057
581.775	1.07
590.318	1.074
598.862	1.072
607.405	1.072
615.949	1.062
624.493	1.055
633.036	1.045
641.58	1.022
650.123	0.975
658.667	0.952
667.211	0.6693
675.754	0.874
684.298	0.4258
692.841	0.3025
701.385	0.4272
709.928	0.75
718.472	0.969
727.016	1.024
735.559	1.026
744.103	1.034
752.646	1.04
761.19	1.022
769.733	0.9651
778.277	0.4082
786.821	0.761
795.364	0.979
803.908	1.024
812.451	1.024
820.995	1.024
829.539	1.001
838.082	0.942
846.626	0.494
855.169	0.6706
863.713	0.809
872.256	0.906
880.8	0.946
889.344	0.992
897.887	0.996
906.431	0.9399
914.974	0.6952
923.518	1.001
932.062	1.017
940.605	1.007
949.149	0.9141
957.692	0.528
966.236	0.8769
974.779	0.9559
983.323	1.013
991.867	1.026
1000.41	1.028
1008.95	1.024
1017.5	1.026
1026.04	1.011
1034.58	0.8961
1043.13	0.994
1051.67	1.026
1060.22	1.032
1068.76	1.03
1077.3	1.026
1085.85	1.024
1094.39	0.963
1102.93	0.78
1111.48	0.9168
1120.02	1.022
1128.56	1.041
1137.11	1.038
1145.65	1.036
1154.19	1.041
1162.74	1.04
1171.28	1.028
1179.83	0.984
1188.37	1.017
1196.91	0.988
1205.46	0.967
1214	0.883
1222.54	0.7192
1231.09	0.961
1239.63	0.881
1248.17	0.7931
1256.72	0.956
1265.26	0.923
1273.8	0.879
1282.35	0.7269
1290.89	0.994
1299.44	1.003
1307.98	0.986
1316.52	0.954
1325.07	0.931
1333.61	0.889
1342.15	0.5664
1350.7	0.902
1359.24	0.95
1367.78	0.965
1376.33	0.969
1384.87	0.979
1393.41	0.977
1401.96	0.979
1410.5	0.979
1419.05	0.979
1427.59	0.982
1436.13	0.982
1444.68	0.982
1453.22	0.98
1461.76	0.975
1470.31	0.969
1478.85	0.946
1487.39	0.925
1495.94	0.891
1504.48	0.816
1513.02	0.765
1521.57	0.723
1530.11	0.675
1538.66	0.5621
1547.2	0.501
1555.74	0.5281
1564.29	0.6331
1572.83	0.692
1581.37	0.721
1589.92	0.778
1598.46	0.86
1607	0.931
1615.55	0.965
1624.09	0.979
1632.64	0.992
1641.18	1.003
1649.72	1.003
1658.27	0.998
1666.81	1.001
1675.35	0.996
1683.9	1.001
1692.44	1
1700.98	0.998
1709.53	0.998
1718.07	1
1726.61	0.998
1735.16	0.998
1743.7	0.998
1752.25	1
1760.79	1
1769.33	1
1777.88	1.003
1786.42	1
1794.96	1
1803.51	1
1812.05	0.998
1820.59	0.998
1829.14	0.998
1837.68	0.996
1846.22	0.996
1854.77	0.994
1863.31	0.998
1871.86	1
1880.4	0.998
1888.94	0.996
1897.49	0.994
1906.03	0.996
1914.57	1.001
1923.12	1.003
1931.66	1.001
1940.2	1.001
1948.75	1.003
1957.29	1.001
1965.83	1
1974.38	1
1982.92	1
1991.47	0.992
2000.01	0.994
2008.55	0.995
2017.1	0.996
2025.64	0.997
2034.18	0.9999
2042.73	1.001
2051.27	1.001
2059.81	1.0019
2068.36	1.0031
2076.9	1.003
2085.44	1.003
2093.99	1.003
2102.53	1.003
2111.08	1.003
2119.62	1.003
2128.16	1.003
2136.71	1.003
2145.25	1.001
2153.79	1.001
2162.34	1.001
2170.88	1.0027
2179.42	1.003
2187.97	1.003
2196.51	1.003
2205.06	1.0013
2213.6	1.001
2222.14	1
2230.69	0.9994
2239.23	0.9924
2247.77	0.992
2256.32	0.9884
2264.86	0.9854
2273.4	0.98
2281.95	0.9764
2290.49	0.973
2299.03	0.9715
2307.58	0.9765
2316.12	0.977
2324.67	0.9793
2333.21	0.9825
2341.75	0.9875
2350.3	0.992
2358.84	0.9934
2367.38	0.9964
2375.93	0.996
2384.47	0.994
2393.01	0.988
2401.56	0.994
2410.1	0.9927
2418.64	0.99
2427.19	0.988
2435.73	0.988
2444.28	0.988
2452.82	0.988
2461.36	0.988
2469.91	0.986
2478.45	0.9848
2486.99	0.98
2495.54	0.982
2504.08	0.984
2512.62	0.986
2521.17	0.9768
2529.71	0.9796
2538.25	0.9818
2546.8	0.98
2555.34	0.98
2563.89	0.98
2572.43	0.986
2580.97	0.9809
2589.52	0.98
2598.06	0.988
2606.6	0.99
2615.15	0.994
2623.69	0.992
2632.23	0.988
2640.78	0.986
2649.32	0.985
2657.86	0.982
2666.41	0.982
2674.95	0.988
2683.5	0.9929
2692.04	0.994
2700.58	0.9931
2709.13	0.992
2717.67	0.9958
2726.21	0.996
2734.76	0.996
2743.3	0.996
2751.84	0.996
2760.39	0.994
2768.93	0.994
2777.47	0.996
2786.02	0.996
2794.56	0.996
2803.11	0.998
2811.65	0.9963
2820.19	0.9973
2828.74	0.996
2837.28	0.994
2845.82	0.992
2854.37	0.996
2862.91	0.996
2871.45	0.994
2880	0.9924
2888.54	0.992
2897.09	0.99
2905.63	0.9874
2914.17	0.982
2922.72	0.9759
2931.26	0.9435
2939.8	0.8228
2948.35	0.8313
2956.89	0.945
2965.43	0.9373
2973.98	0.839
2982.52	0.8725
2991.06	0.893
2999.61	0.9092
3008.15	0.9385
3016.7	0.9587
3025.24	0.9714
3033.78	0.9784
3042.33	0.9824
3050.87	0.986
3059.41	0.988
3067.96	0.988
3076.5	0.9883
3085.04	0.99
3093.59	0.9923
3102.13	0.9947
3110.67	0.998
3119.22	0.998
3127.76	1
3136.31	1.001
3144.85	1.001
3153.39	1.003
3161.94	1.005
3170.48	1.005
3179.02	1.0052
3187.57	1.007
3196.11	1.009
3204.65	1.009
3213.2	1.0089
3221.74	1.007
3230.28	1.0111
3238.83	1.015
3247.37	1.013
3255.92	1.013
3264.46	1.015
3273	1.016
3281.55	1.017
3290.09	1.016
3298.63	1.019
3307.18	1.017
3315.72	1.017
3324.26	1.0195
3332.81	1.019
3341.35	1.0181
3349.89	1.017
3358.44	1.0179
3366.98	1.019
3375.53	1.019
3384.07	1.019
3392.61	1.019
3401.16	1.019
3409.7	1.019
3418.24	1.0191
3426.79	1.019
3435.33	1.017
3443.87	1.017
3452.42	1.017
3460.96	1.015
3469.5	1.015
3478.05	1.0157
3486.59	1.015
3495.14	1.011
3503.68	1.011
3512.22	1.013
3520.77	1.0114
3529.31	1.011
3537.85	1.0094
3546.4	1.009
3554.94	1.009
3563.48	1.009
3572.03	1.009
3580.57	1.0065
3589.12	1.003
3597.66	1.001
3606.2	1.001
3614.75	1.001
3623.29	1.001
3631.83	1
3640.38	1
3648.92	0.9991
3657.46	0.996
3666.01	0.998
3674.55	0.998
3683.09	0.998
3691.64	0.998
3700.18	1
3708.73	1.001
3717.27	1
3725.81	0.998
3734.36	0.9977
3742.9	0.994
3751.44	0.9977
3759.99	0.9915
3768.53	0.998
3777.07	0.998
3785.62	0.998
