Infrared Spectrum: TRIMETHYLAMINE BORANE
Formula: C3 H12 N B
State: SOLID (MULL, KEL-F OIL FOR 2-7.5 AND MINERAL OIL FOR 7.5-16 MICRONS)
Class: COBLENTZ
Instrument: Not specified, most likely a prism, grating, or hybrid spectrometer.
Sampling: TRANSMISSION
Resolution: 4
Origin: WYANDOTTE CHEMICALS CORP., WYANDOTTE, MICHIGAN, USA
MICROMETERS	TRANSMITTANCE
2.037	0.753
2.07687	0.756
2.11673	0.756
2.1566	0.72
2.19646	0.736
2.23633	0.759
2.27619	0.761
2.31606	0.774
2.35593	0.779
2.39579	0.794
2.43566	0.802
2.47552	0.806
2.51539	0.809
2.55525	0.826
2.59512	0.829
2.63499	0.839
2.67485	0.834
2.71472	0.832
2.75458	0.832
2.79445	0.809
2.83431	0.809
2.87418	0.796
2.91405	0.766
2.95391	0.791
2.99378	0.802
3.03364	0.796
3.07351	0.807
3.11338	0.821
3.15324	0.829
3.19311	0.846
3.23297	0.814
3.27284	0.692
3.3127	0.481
3.35257	0.395
3.39244	0.534
3.4323	0.632
3.47217	0.733
3.51203	0.771
3.5519	0.839
3.59176	0.894
3.63163	0.897
3.6715	0.897
3.71136	0.905
3.75123	0.908
3.79109	0.93
3.83096	0.93
3.87082	0.897
3.91069	0.938
3.95056	0.932
3.99042	0.923
4.03029	0.948
4.07015	0.889
4.11002	0.705
4.14988	0.519
4.18975	0.38
4.22962	0.115
4.26948	0.096
4.30935	0.115
4.34921	0.12
4.38908	0.102
4.42894	0.067
4.46881	0.062
4.50868	0.163
4.54854	0.329
4.58841	0.423
4.62827	0.514
4.66814	0.476
4.70801	0.6
4.74787	0.653
4.78774	0.68
4.8276	0.571
4.86747	0.471
4.90733	0.673
4.9472	0.711
4.98707	0.743
5.02693	0.759
5.0668	0.798
5.10666	0.817
5.14653	0.827
5.18639	0.826
5.22626	0.822
5.26613	0.839
5.30599	0.862
5.34586	0.846
5.38572	0.865
5.42559	0.849
5.46545	0.839
5.50532	0.769
5.54519	0.829
5.58505	0.841
5.62492	0.831
5.66478	0.834
5.70465	0.834
5.74451	0.85
5.78438	0.847
5.82425	0.862
5.86411	0.86
5.90398	0.844
5.94384	0.837
5.98371	0.841
6.02357	0.841
6.06344	0.867
6.10331	0.867
6.14317	0.88
6.18304	0.889
6.2229	0.902
6.26277	0.89
6.30263	0.89
6.3425	0.847
6.38237	0.862
6.42223	0.831
6.4621	0.849
6.50196	0.827
6.54183	0.839
6.5817	0.832
6.62156	0.804
6.66143	0.614
6.70129	0.231
6.74116	0.081
6.78102	0.062
6.82089	0.187
6.86076	0.266
6.90062	0.354
6.94049	0.435
6.98035	0.514
7.02022	0.559
7.06008	0.508
7.09995	0.269
7.13982	0.485
7.17968	0.543
7.21955	0.541
7.25941	0.562
7.29928	0.584
7.33914	0.576
7.37901	0.567
7.41888	0.561
7.45874	0.586
7.49861	0.574
7.53847	0.562
7.57834	0.556
7.6182	0.567
7.65807	0.579
7.69794	0.592
7.7378	0.602
7.77767	0.602
7.81753	0.596
7.8574	0.548
7.89726	0.344
7.93713	0.221
7.977	0.316
8.01686	0.465
8.05673	0.519
8.09659	0.529
8.13646	0.503
8.17633	0.48
8.21619	0.438
8.25606	0.4
8.29592	0.346
8.33579	0.298
8.37565	0.248
8.41552	0.205
8.45539	0.172
8.49525	0.16
8.53512	0.14
8.57498	0.14
8.61485	0.158
8.65471	0.203
8.69458	0.259
8.73445	0.311
8.77431	0.337
8.81418	0.324
8.85404	0.24
8.89391	0.195
8.93377	0.387
8.97364	0.463
9.01351	0.521
9.05337	0.548
9.09324	0.559
9.1331	0.559
9.17297	0.561
9.21283	0.571
9.2527	0.577
9.29257	0.577
9.33243	0.579
9.3723	0.584
9.41216	0.589
9.45203	0.594
9.49189	0.591
9.53176	0.591
9.57163	0.577
9.61149	0.582
9.65136	0.567
9.69122	0.571
9.73109	0.552
9.77095	0.529
9.81082	0.48
9.85069	0.39
9.89055	0.274
9.93042	0.197
9.97028	0.162
10.0101	0.168
10.05	0.24
10.0899	0.397
10.1297	0.519
10.1696	0.569
10.2095	0.6
10.2493	0.615
10.2892	0.632
10.3291	0.647
10.3689	0.655
10.4088	0.662
10.4487	0.667
10.4885	0.678
10.5284	0.682
10.5683	0.69
10.6081	0.687
10.648	0.692
10.6879	0.685
10.7277	0.682
10.7676	0.688
10.8075	0.695
10.8473	0.701
10.8872	0.697
10.9271	0.683
10.9669	0.62
11.0068	0.632
11.0467	0.688
11.0865	0.703
11.1264	0.687
11.1663	0.667
11.2061	0.627
11.246	0.592
11.2859	0.551
11.3257	0.5
11.3656	0.463
11.4055	0.443
11.4453	0.432
11.4852	0.405
11.525	0.352
11.5649	0.281
11.6048	0.233
11.6446	0.197
11.6845	0.177
11.7244	0.167
11.7642	0.17
11.8041	0.185
11.844	0.24
11.8838	0.322
11.9237	0.39
11.9636	0.455
12.0034	0.524
12.0433	0.574
12.0832	0.615
12.123	0.637
12.1629	0.647
12.2028	0.658
12.2426	0.672
12.2825	0.672
12.3224	0.67
12.3622	0.677
12.4021	0.687
12.442	0.705
12.4818	0.718
12.5217	0.726
12.5616	0.758
12.6014	0.794
12.6413	0.798
12.6812	0.806
12.721	0.809
12.7609	0.812
12.8008	0.814
12.8406	0.812
12.8805	0.816
12.9203	0.811
12.9602	0.812
13.0001	0.817
13.0399	0.824
13.0798	0.824
13.1197	0.826
13.1595	0.822
13.1994	0.836
13.2393	0.829
13.2791	0.832
13.319	0.836
13.3589	0.831
13.3987	0.822
13.4386	0.811
13.4785	0.799
13.5183	0.791
13.5582	0.778
13.5981	0.763
13.6379	0.759
13.6778	0.745
13.7177	0.725
13.7575	0.731
13.7974	0.735
13.8373	0.726
13.8771	0.711
13.917	0.703
13.9569	0.759
13.9967	0.788
14.0366	0.817
14.0765	0.819
14.1163	0.829
14.1562	0.839
14.1961	0.841
14.2359	0.847
14.2758	0.844
14.3157	0.837
14.3555	0.834
14.3954	0.826
14.4352	0.821
14.4751	0.807
14.515	0.789
14.5548	0.756
14.5947	0.743
14.6346	0.735
14.6744	0.736
14.7143	0.735
14.7542	0.736
14.794	0.718
14.8339	0.708
14.8738	0.706
14.9136	0.715
14.9535	0.726
14.9934	0.726
15.0332	0.721
15.0731	0.74
15.113	0.791
15.1528	0.802
15.1927	0.796
15.2326	0.798
15.2724	0.794
15.3123	0.789
15.3522	0.783
15.392	0.773
15.4319	0.766
15.4718	0.764
15.5116	0.758
15.5515	0.751
15.5914	0.753
15.6312	0.748
15.6711	0.74
15.711	0.728
15.7508	0.718
15.7907	0.711
15.8305	0.706
15.8704	0.697
15.9103	0.69
15.9501	0.682
15.99	0.672
