Infrared Spectrum: BENZOYL OSMOCENE
Formula: C17 H14 O Os
State: SOLID (MINERAL OIL MULL)
Class: COBLENTZ
Instrument: Not specified, most likely a prism, grating, or hybrid spectrometer.
Sampling: TRANSMISSION
Resolution: 4
Origin: WYANDOTTE CHEMICALS CORP., WYANDOTTE, MICHIGAN, USA
MICROMETERS	TRANSMITTANCE
2.02	0.489
2.05991	0.492
2.09981	0.512
2.13972	0.522
2.17962	0.527
2.21953	0.529
2.25943	0.537
2.29934	0.542
2.33925	0.547
2.37915	0.557
2.41906	0.567
2.45896	0.57
2.49887	0.579
2.53877	0.569
2.57868	0.579
2.61859	0.606
2.65849	0.614
2.6984	0.606
2.7383	0.624
2.77821	0.619
2.81811	0.622
2.85802	0.619
2.89793	0.611
2.93783	0.619
2.97774	0.627
3.01764	0.627
3.05755	0.617
3.09745	0.621
3.13736	0.606
3.17727	0.614
3.21717	0.602
3.25708	0.527
3.29698	0.467
3.33689	0.559
3.37679	0.504
3.4167	0.302
3.45661	0.153
3.49651	0.188
3.53642	0.298
3.57632	0.337
3.61623	0.699
3.65613	0.737
3.69604	0.744
3.73595	0.742
3.77585	0.761
3.81576	0.756
3.85566	0.769
3.89557	0.771
3.93547	0.774
3.97538	0.789
4.01529	0.806
4.05519	0.808
4.0951	0.811
4.135	0.811
4.17491	0.809
4.21481	0.819
4.25472	0.826
4.29463	0.794
4.33453	0.771
4.37444	0.789
4.41434	0.819
4.45425	0.861
4.49415	0.858
4.53406	0.853
4.57397	0.851
4.61387	0.851
4.65378	0.871
4.69368	0.881
4.73359	0.884
4.77349	0.896
4.8134	0.901
4.8533	0.899
4.89321	0.903
4.93312	0.896
4.97302	0.901
5.01293	0.901
5.05283	0.919
5.09274	0.901
5.13264	0.904
5.17255	0.898
5.21246	0.899
5.25236	0.899
5.29227	0.908
5.33217	0.923
5.37208	0.924
5.41198	0.933
5.45189	0.946
5.4918	0.938
5.5317	0.928
5.57161	0.904
5.61151	0.891
5.65142	0.898
5.69132	0.878
5.73123	0.881
5.77114	0.873
5.81104	0.874
5.85095	0.856
5.89085	0.833
5.93076	0.839
5.97066	0.797
6.01057	0.744
6.05048	0.629
6.09038	0.358
6.13029	0.103
6.17019	0.342
6.2101	0.564
6.25	0.412
6.28991	0.656
6.32982	0.485
6.36972	0.676
6.40963	0.744
6.44953	0.811
6.48944	0.819
6.52934	0.813
6.56925	0.776
6.60916	0.834
6.64906	0.848
6.68897	0.813
6.72887	0.791
6.76878	0.706
6.80868	0.525
6.84859	0.407
6.8885	0.218
6.9284	0.343
6.96831	0.305
7.00821	0.606
7.04812	0.739
7.08802	0.759
7.12793	0.611
7.16784	0.666
7.20774	0.719
7.24765	0.569
7.28755	0.512
7.32746	0.469
7.36736	0.814
7.40727	0.767
7.44718	0.697
7.48708	0.858
7.52699	0.757
7.56689	0.611
7.6068	0.644
7.6467	0.711
7.68661	0.714
7.72652	0.626
7.76642	0.372
7.80633	0.181
7.84623	0.435
7.88614	0.622
7.92604	0.711
7.96595	0.764
8.00586	0.791
8.04576	0.809
8.08567	0.843
8.12557	0.861
8.16548	0.896
8.20538	0.896
8.24529	0.868
8.2852	0.853
8.3251	0.903
8.36501	0.904
8.40491	0.889
8.44482	0.833
8.48472	0.746
8.52463	0.759
8.56454	0.53
8.60444	0.447
8.64435	0.684
8.68425	0.818
8.72416	0.849
8.76406	0.873
8.80397	0.898
8.84388	0.898
8.88378	0.901
8.92369	0.891
8.96359	0.883
9.0035	0.879
9.0434	0.883
9.08331	0.669
9.12322	0.616
9.16312	0.792
9.20303	0.819
9.24293	0.761
9.28284	0.691
9.32274	0.779
9.36265	0.809
9.40256	0.819
9.44246	0.769
9.48237	0.577
9.52227	0.524
9.56218	0.54
9.60208	0.564
9.64199	0.767
9.6819	0.754
9.7218	0.617
9.76171	0.627
9.80161	0.405
9.84152	0.555
9.88142	0.767
9.92133	0.823
9.96123	0.782
10.0011	0.624
10.041	0.482
10.081	0.601
10.1209	0.694
10.1608	0.826
10.2007	0.856
10.2406	0.804
10.2805	0.746
10.3204	0.841
10.3603	0.863
10.4002	0.881
10.4401	0.876
10.48	0.871
10.5199	0.811
10.5598	0.606
10.5997	0.442
10.6396	0.747
10.6795	0.754
10.7194	0.767
10.7593	0.861
10.7993	0.879
10.8392	0.893
10.8791	0.899
10.919	0.901
10.9589	0.904
10.9988	0.893
11.0387	0.901
11.0786	0.908
11.1185	0.903
11.1584	0.896
11.1983	0.878
11.2382	0.864
11.2781	0.859
11.318	0.846
11.3579	0.782
11.3978	0.769
11.4377	0.771
11.4777	0.751
11.5176	0.746
11.5575	0.803
11.5974	0.826
11.6373	0.786
11.6772	0.671
11.7171	0.632
11.757	0.539
11.7969	0.415
11.8368	0.484
11.8767	0.619
11.9166	0.642
11.9565	0.664
11.9964	0.542
12.0363	0.41
12.0762	0.375
12.1161	0.345
12.156	0.322
12.196	0.368
12.2359	0.585
12.2758	0.697
12.3157	0.801
12.3556	0.836
12.3955	0.873
12.4354	0.864
12.4753	0.823
12.5152	0.637
12.5551	0.601
12.595	0.831
12.6349	0.883
12.6748	0.899
12.7147	0.903
12.7546	0.914
12.7945	0.914
12.8344	0.916
12.8744	0.914
12.9143	0.914
12.9542	0.911
12.9941	0.911
13.034	0.911
13.0739	0.913
13.1138	0.913
13.1537	0.908
13.1936	0.899
13.2335	0.904
13.2734	0.899
13.3133	0.903
13.3532	0.903
13.3931	0.903
13.433	0.903
13.4729	0.901
13.5128	0.904
13.5527	0.899
13.5927	0.889
13.6326	0.891
13.6725	0.881
13.7124	0.856
13.7523	0.819
13.7922	0.737
13.8321	0.59
13.872	0.385
13.9119	0.247
13.9518	0.227
13.9917	0.363
14.0316	0.554
14.0715	0.672
14.1114	0.767
14.1513	0.801
14.1912	0.814
14.2311	0.824
14.2711	0.818
14.311	0.787
14.3509	0.712
14.3908	0.584
14.4307	0.45
14.4706	0.368
14.5105	0.427
14.5504	0.58
14.5903	0.706
14.6302	0.747
14.6701	0.776
14.71	0.784
14.7499	0.799
14.7898	0.789
14.8297	0.747
14.8696	0.661
14.9095	0.621
14.9494	0.636
14.9894	0.672
15.0293	0.676
15.0692	0.652
15.1091	0.627
15.149	0.636
15.1889	0.671
15.2288	0.714
15.2687	0.719
15.3086	0.727
15.3485	0.724
15.3884	0.729
15.4283	0.716
15.4682	0.694
15.5081	0.686
15.548	0.687
15.5879	0.692
15.6278	0.681
15.6678	0.682
15.7077	0.677
15.7476	0.662
15.7875	0.654
15.8274	0.646
15.8673	0.632
15.9072	0.622
15.9471	0.626
15.987	0.614
