Infrared Spectrum: 1,1'-BIS (4-FLUOROBENZOYL) FERROCENE
Formula: C24 H16 F2 O2 Fe
State: SOLID (MINERAL OIL MULL)
Class: COBLENTZ
Instrument: Not specified, most likely a prism, grating, or hybrid spectrometer.
Sampling: TRANSMISSION
Resolution: 4
Origin: WYANDOTTE CHEMICALS CORP., WYANDOTTE, MICHIGAN, USA
MICROMETERS	TRANSMITTANCE
2.041	0.54
2.08181	0.548
2.12263	0.55
2.16344	0.548
2.20426	0.557
2.24507	0.557
2.28589	0.57
2.3267	0.58
2.36752	0.596
2.40833	0.604
2.44915	0.599
2.48996	0.616
2.53078	0.633
2.57159	0.64
2.6124	0.654
2.65322	0.654
2.69403	0.657
2.73485	0.671
2.77566	0.669
2.81648	0.662
2.85729	0.664
2.89811	0.654
2.93892	0.657
2.97974	0.65
3.02055	0.659
3.06137	0.645
3.10218	0.626
3.14299	0.623
3.18381	0.565
3.22462	0.448
3.26544	0.579
3.30625	0.449
3.34707	0.105
3.38788	0.088
3.4287	0.168
3.46951	0.175
3.51033	0.441
3.55114	0.695
3.59196	0.737
3.63277	0.746
3.67358	0.747
3.7144	0.758
3.75521	0.763
3.79603	0.763
3.83684	0.77
3.87766	0.79
3.91847	0.797
3.95929	0.809
4.0001	0.798
4.04092	0.812
4.08173	0.804
4.12255	0.793
4.16336	0.809
4.20417	0.816
4.24499	0.807
4.2858	0.827
4.32662	0.851
4.36743	0.872
4.40825	0.865
4.44906	0.858
4.48988	0.863
4.53069	0.868
4.57151	0.875
4.61232	0.887
4.65314	0.887
4.69395	0.897
4.73476	0.89
4.77558	0.901
4.81639	0.909
4.85721	0.909
4.89802	0.909
4.93884	0.916
4.97965	0.896
5.02047	0.896
5.06128	0.918
5.1021	0.928
5.14291	0.914
5.18373	0.909
5.22454	0.856
5.26535	0.899
5.30617	0.921
5.34698	0.926
5.3878	0.942
5.42861	0.928
5.46943	0.914
5.51024	0.899
5.55106	0.879
5.59187	0.858
5.63269	0.872
5.6735	0.879
5.71432	0.863
5.75513	0.848
5.79595	0.822
5.83676	0.8
5.87757	0.785
5.91839	0.703
5.9592	0.603
6.00002	0.454
6.04083	0.044
6.08165	0.066
6.12246	0.257
6.16328	0.161
6.20409	0.114
6.24491	0.405
6.28572	0.534
6.32654	0.66
6.36735	0.717
6.40816	0.72
6.44898	0.72
6.48979	0.715
6.53061	0.71
6.57142	0.497
6.61224	0.327
6.65305	0.645
6.69387	0.669
6.73468	0.541
6.7755	0.262
6.81631	0.124
6.85713	0.149
6.89794	0.182
6.93875	0.528
6.97957	0.681
7.02038	0.676
7.0612	0.434
7.10201	0.315
7.14283	0.524
7.18364	0.212
7.22446	0.361
7.26527	0.41
7.30609	0.616
7.3469	0.713
7.38772	0.505
7.42853	0.5
7.46934	0.63
7.51016	0.669
7.55097	0.669
7.59179	0.528
7.6326	0.122
7.67342	0.073
7.71423	0.08
7.75505	0.134
7.79586	0.177
7.83668	0.376
7.87749	0.586
7.91831	0.608
7.95912	0.507
7.99993	0.362
8.04075	0.156
8.08156	0.103
8.12238	0.09
8.16319	0.248
8.20401	0.451
8.24482	0.604
8.28564	0.698
8.32645	0.739
8.36727	0.768
8.40808	0.747
8.4489	0.72
8.48971	0.466
8.53052	0.551
8.57134	0.655
8.61215	0.141
8.65297	0.204
8.69378	0.296
8.7346	0.662
8.77541	0.792
8.81623	0.802
8.85704	0.804
8.89786	0.798
8.93867	0.798
8.97949	0.776
9.0203	0.47
9.06111	0.229
9.10193	0.659
9.14274	0.78
9.18356	0.814
9.22437	0.812
9.26519	0.761
9.306	0.461
9.34682	0.454
9.38763	0.597
9.42845	0.487
9.46926	0.625
9.51008	0.768
9.55089	0.809
9.5917	0.812
9.63252	0.747
9.67333	0.453
9.71415	0.199
9.75496	0.536
9.79578	0.73
9.83659	0.744
9.87741	0.655
9.91822	0.754
9.95904	0.821
9.99985	0.85
10.0407	0.868
10.0815	0.868
10.1223	0.863
10.1631	0.824
10.2039	0.713
10.2447	0.688
10.2856	0.741
10.3264	0.78
10.3672	0.727
10.408	0.5
10.4488	0.575
10.4896	0.741
10.5304	0.77
10.5713	0.809
10.6121	0.843
10.6529	0.867
10.6937	0.872
10.7345	0.873
10.7753	0.88
10.8161	0.88
10.857	0.879
10.8978	0.868
10.9386	0.872
10.9794	0.868
11.0202	0.862
11.061	0.862
11.1018	0.868
11.1427	0.834
11.1835	0.812
11.2243	0.751
11.2651	0.712
11.3059	0.724
11.3467	0.768
11.3875	0.781
11.4284	0.734
11.4692	0.483
11.51	0.272
11.5508	0.235
11.5916	0.226
11.6324	0.269
11.6733	0.267
11.7141	0.282
11.7549	0.247
11.7957	0.161
11.8365	0.209
11.8773	0.373
11.9181	0.402
11.959	0.275
11.9998	0.122
12.0406	0.12
12.0814	0.294
12.1222	0.34
12.163	0.444
12.2038	0.614
12.2447	0.688
12.2855	0.734
12.3263	0.751
12.3671	0.659
12.4079	0.494
12.4487	0.548
12.4895	0.718
12.5304	0.819
12.5712	0.879
12.612	0.911
12.6528	0.923
12.6936	0.923
12.7344	0.928
12.7752	0.919
12.8161	0.909
12.8569	0.889
12.8977	0.785
12.9385	0.555
12.9793	0.304
13.0201	0.112
13.0609	0.105
13.1018	0.345
13.1426	0.609
13.1834	0.701
13.2242	0.781
13.265	0.85
13.3058	0.879
13.3466	0.899
13.3875	0.916
13.4283	0.913
13.4691	0.914
13.5099	0.916
13.5507	0.916
13.5915	0.921
13.6324	0.918
13.6732	0.911
13.714	0.913
13.7548	0.913
13.7956	0.914
13.8364	0.916
13.8772	0.911
13.9181	0.916
13.9589	0.925
13.9997	0.94
14.0405	0.947
14.0813	0.947
14.1221	0.943
14.1629	0.931
14.2038	0.916
14.2446	0.85
14.2854	0.741
14.3262	0.64
14.367	0.647
14.4078	0.744
14.4486	0.826
14.4895	0.88
14.5303	0.908
14.5711	0.911
14.6119	0.909
14.6527	0.916
14.6935	0.913
14.7343	0.908
14.7752	0.906
14.816	0.902
14.8568	0.897
14.8976	0.89
14.9384	0.887
14.9792	0.877
15.02	0.814
15.0609	0.771
15.1017	0.773
15.1425	0.809
15.1833	0.824
15.2241	0.836
15.2649	0.827
15.3058	0.812
15.3466	0.805
15.3874	0.798
15.4282	0.79
15.469	0.773
15.5098	0.768
15.5506	0.758
15.5915	0.739
15.6323	0.698
15.6731	0.645
15.7139	0.613
15.7547	0.609
15.7955	0.623
15.8363	0.657
15.8772	0.659
15.918	0.66
15.9588	0.654
15.9996	0.643
