Infrared Spectrum: LITHIUM SULFATE
Formula: Li2 S O4  * H2 O
State: SOLID (NUJOL MULL)
Class: COBLENTZ
Instrument: Not specified, most likely a prism, grating, or hybrid spectrometer.
Sampling: TRANSMISSION
Resolution: 4
Origin: MELLON INSTITUTE
MICROMETERS	TRANSMITTANCE
2.028	0.714
2.06795	0.714
2.1079	0.717
2.14785	0.716
2.1878	0.719
2.22775	0.726
2.2677	0.724
2.30765	0.726
2.3476	0.724
2.38755	0.722
2.4275	0.719
2.46745	0.719
2.5074	0.719
2.54735	0.719
2.5873	0.721
2.62726	0.711
2.66721	0.704
2.70716	0.699
2.74711	0.651
2.78706	0.602
2.82701	0.54
2.86696	0.507
2.90691	0.51
2.94686	0.53
2.98681	0.56
3.02676	0.589
3.06671	0.621
3.10666	0.647
3.14661	0.669
3.18656	0.691
3.22651	0.704
3.26646	0.714
3.30641	0.524
3.34636	0.368
3.38631	0.278
3.42626	0.343
3.46621	0.357
3.50616	0.666
3.54611	0.731
3.58606	0.766
3.62601	0.771
3.66596	0.776
3.70591	0.779
3.74586	0.781
3.78581	0.782
3.82577	0.784
3.86572	0.786
3.90567	0.786
3.94562	0.791
3.98557	0.794
4.02552	0.797
4.06547	0.799
4.10542	0.801
4.14537	0.799
4.18532	0.796
4.22527	0.786
4.26522	0.784
4.30517	0.786
4.34512	0.787
4.38507	0.794
4.42502	0.796
4.46497	0.794
4.50492	0.787
4.54487	0.784
4.58482	0.784
4.62477	0.784
4.66472	0.781
4.70467	0.779
4.74462	0.776
4.78457	0.777
4.82452	0.782
4.86447	0.787
4.90442	0.787
4.94437	0.792
4.98432	0.797
5.02428	0.799
5.06423	0.801
5.10418	0.804
5.14413	0.806
5.18408	0.808
5.22403	0.808
5.26398	0.808
5.30393	0.808
5.34388	0.808
5.38383	0.808
5.42378	0.811
5.46373	0.811
5.50368	0.813
5.54363	0.813
5.58358	0.816
5.62353	0.823
5.66348	0.823
5.70343	0.823
5.74338	0.823
5.78333	0.826
5.82328	0.824
5.86323	0.824
5.90318	0.823
5.94313	0.816
5.98308	0.818
6.02303	0.803
6.06298	0.786
6.10293	0.717
6.14288	0.604
6.18283	0.649
6.22279	0.744
6.26274	0.799
6.30269	0.796
6.34264	0.811
6.38259	0.808
6.42254	0.824
6.46249	0.828
6.50244	0.826
6.54239	0.826
6.58234	0.823
6.62229	0.829
6.66224	0.823
6.70219	0.803
6.74214	0.754
6.78209	0.676
6.82204	0.622
6.86199	0.626
6.90194	0.641
6.94189	0.671
6.98184	0.749
7.02179	0.756
7.06174	0.754
7.10169	0.746
7.14164	0.716
7.18159	0.656
7.22154	0.587
7.26149	0.584
7.30144	0.592
7.34139	0.627
7.38134	0.684
7.4213	0.727
7.46125	0.756
7.5012	0.767
7.54115	0.772
7.5811	0.776
7.62105	0.777
7.661	0.782
7.70095	0.784
7.7409	0.782
7.78085	0.779
7.8208	0.777
7.86075	0.774
7.9007	0.771
7.94065	0.767
7.9806	0.761
8.02055	0.752
8.0605	0.737
8.10045	0.709
8.1404	0.672
8.18035	0.639
8.2203	0.59
8.26025	0.524
8.3002	0.452
8.34015	0.39
8.3801	0.307
8.42005	0.252
8.46	0.223
8.49995	0.203
8.5399	0.202
8.57985	0.208
8.61981	0.21
8.65976	0.2
8.69971	0.196
8.73966	0.176
8.77961	0.161
8.81956	0.135
8.85951	0.105
8.89946	0.093
8.93941	0.083
8.97936	0.078
9.01931	0.076
9.05926	0.081
9.09921	0.12
9.13916	0.202
9.17911	0.283
9.21906	0.363
9.25901	0.459
9.29896	0.534
9.33891	0.57
9.37886	0.602
9.41881	0.642
9.45876	0.676
9.49871	0.702
9.53866	0.714
9.57861	0.741
9.61856	0.767
9.65851	0.779
9.69846	0.786
9.73841	0.792
9.77836	0.792
9.81832	0.792
9.85827	0.799
9.89822	0.806
9.93817	0.816
9.97812	0.826
10.0181	0.836
10.058	0.844
10.098	0.851
10.1379	0.856
10.1779	0.863
10.2178	0.869
10.2578	0.876
10.2977	0.883
10.3377	0.893
10.3776	0.898
10.4176	0.901
10.4575	0.906
10.4975	0.911
10.5374	0.913
10.5774	0.916
10.6173	0.919
10.6573	0.923
10.6972	0.926
10.7372	0.926
10.7771	0.928
10.8171	0.929
10.857	0.928
10.897	0.931
10.9369	0.933
10.9769	0.934
11.0168	0.939
11.0568	0.943
11.0967	0.946
11.1367	0.948
11.1766	0.953
11.2166	0.956
11.2565	0.958
11.2965	0.958
11.3364	0.963
11.3764	0.964
11.4163	0.966
11.4563	0.969
11.4962	0.971
11.5362	0.973
11.5761	0.974
11.6161	0.974
11.656	0.978
11.696	0.979
11.7359	0.981
11.7759	0.984
11.8158	0.989
11.8558	0.988
11.8957	0.991
11.9357	0.991
11.9756	0.993
12.0156	0.994
12.0555	0.996
12.0955	0.996
12.1354	0.998
12.1754	0.991
12.2153	0.973
12.2553	0.973
12.2952	0.986
12.3352	0.993
12.3751	0.994
12.4151	0.996
12.455	0.994
12.495	0.993
12.5349	0.993
12.5749	0.993
12.6148	0.994
12.6548	0.991
12.6947	0.991
12.7347	0.991
12.7746	0.993
12.8146	0.993
12.8545	0.984
12.8945	0.981
12.9344	0.973
12.9744	0.968
13.0143	0.968
13.0543	0.966
13.0942	0.964
13.1342	0.958
13.1741	0.956
13.2141	0.954
13.254	0.953
13.294	0.953
13.3339	0.943
13.3739	0.944
13.4138	0.941
13.4538	0.931
13.4937	0.914
13.5337	0.904
13.5736	0.903
13.6136	0.903
13.6535	0.901
13.6935	0.898
13.7334	0.894
13.7734	0.889
13.8133	0.883
13.8533	0.881
13.8932	0.881
13.9332	0.878
13.9731	0.878
14.0131	0.876
14.0531	0.873
14.093	0.868
14.133	0.863
14.1729	0.853
14.2129	0.844
14.2528	0.838
14.2928	0.828
14.3327	0.818
14.3727	0.803
14.4126	0.796
14.4526	0.787
14.4925	0.777
14.5325	0.766
14.5724	0.756
14.6124	0.749
14.6523	0.746
14.6923	0.737
14.7322	0.727
14.7722	0.719
14.8121	0.712
14.8521	0.706
14.892	0.682
14.932	0.657
14.9719	0.646
15.0119	0.637
15.0518	0.629
15.0918	0.622
15.1317	0.614
15.1717	0.604
15.2116	0.601
15.2516	0.589
15.2915	0.579
15.3315	0.575
15.3714	0.57
15.4114	0.57
15.4513	0.574
15.4913	0.575
15.5312	0.579
15.5712	0.582
15.6111	0.587
15.6511	0.592
15.691	0.599
15.731	0.604
15.7709	0.607
15.8109	0.612
15.8508	0.619
15.8908	0.622
15.9307	0.629
15.9707	0.632
