Infrared Spectrum: HEXAMETHYLENE TETRAAMINE ETHIODIDE
Formula: C8 H17 I N4
State: SOLID (MINERAL OIL MULL)
Melting point: 150-152 C DECOMPOSES
Class: COBLENTZ
Instrument: Not specified, most likely a prism, grating, or hybrid spectrometer.
Sampling: TRANSMISSION
Resolution: 4
Origin: WYANDOTTE CHEMICALS CORP., WYANDOTTE, MICHIGAN, USA
MICROMETERS	TRANSMITTANCE
2.038	0.378
2.07781	0.382
2.11763	0.372
2.15744	0.358
2.19726	0.357
2.23707	0.357
2.27688	0.37
2.3167	0.383
2.35651	0.39
2.39633	0.397
2.43614	0.397
2.47596	0.405
2.51577	0.414
2.55558	0.417
2.5954	0.422
2.63521	0.432
2.67503	0.437
2.71484	0.44
2.75465	0.442
2.79447	0.427
2.83428	0.4
2.8741	0.4
2.91391	0.404
2.95373	0.41
2.99354	0.422
3.03335	0.435
3.07317	0.435
3.11298	0.437
3.1528	0.435
3.19261	0.43
3.23242	0.38
3.27224	0.205
3.31205	0.028
3.35187	0.026
3.39168	0.03
3.4315	0.036
3.47131	0.143
3.51112	0.497
3.55094	0.584
3.59075	0.601
3.63057	0.577
3.67038	0.57
3.71019	0.572
3.75001	0.59
3.78982	0.606
3.82964	0.627
3.86945	0.639
3.90927	0.641
3.94908	0.639
3.98889	0.651
4.02871	0.652
4.06852	0.656
4.10834	0.657
4.14815	0.659
4.18796	0.666
4.22778	0.671
4.26759	0.681
4.30741	0.699
4.34722	0.706
4.38704	0.717
4.42685	0.724
4.46666	0.731
4.50648	0.736
4.54629	0.737
4.58611	0.742
4.62592	0.744
4.66573	0.744
4.70555	0.746
4.74536	0.754
4.78518	0.764
4.82499	0.777
4.86481	0.782
4.90462	0.782
4.94443	0.789
4.98425	0.797
5.02406	0.799
5.06388	0.796
5.10369	0.801
5.1435	0.808
5.18332	0.813
5.22313	0.823
5.26295	0.814
5.30276	0.828
5.34258	0.828
5.38239	0.833
5.4222	0.834
5.46202	0.848
5.50183	0.851
5.54165	0.851
5.58146	0.848
5.62127	0.851
5.66109	0.854
5.7009	0.864
5.74072	0.864
5.78053	0.861
5.82035	0.851
5.86016	0.829
5.89997	0.818
5.93979	0.821
5.9796	0.833
6.01942	0.856
6.05923	0.871
6.09904	0.886
6.13886	0.883
6.17867	0.899
6.21849	0.904
6.2583	0.903
6.29812	0.899
6.33793	0.901
6.37774	0.906
6.41756	0.901
6.45737	0.899
6.49719	0.893
6.537	0.878
6.57681	0.831
6.61663	0.682
6.65644	0.532
6.69626	0.368
6.73607	0.095
6.77589	0.083
6.8157	0.136
6.85551	0.298
6.89533	0.554
6.93514	0.627
6.97496	0.647
7.01477	0.751
7.05458	0.666
7.0944	0.485
7.13421	0.273
7.17403	0.317
7.21384	0.268
7.25366	0.425
7.29347	0.547
7.33328	0.681
7.3731	0.749
7.41291	0.771
7.45273	0.836
7.49254	0.532
7.53235	0.592
7.57217	0.764
7.61198	0.736
7.6518	0.474
7.69161	0.567
7.73143	0.612
7.77124	0.327
7.81105	0.262
7.85087	0.499
7.89068	0.647
7.9305	0.646
7.97031	0.572
8.01012	0.33
8.04994	0.158
8.08975	0.098
8.12957	0.277
8.16938	0.532
8.2092	0.659
8.24901	0.709
8.28882	0.762
8.32864	0.804
8.36845	0.828
8.40827	0.853
8.44808	0.849
8.48789	0.826
8.52771	0.844
8.56752	0.864
8.60734	0.836
8.64715	0.784
8.68697	0.662
8.72678	0.322
8.76659	0.24
8.80641	0.552
8.84622	0.706
8.88604	0.799
8.92585	0.824
8.96566	0.819
9.00548	0.883
9.04529	0.891
9.08511	0.908
9.12492	0.913
9.16474	0.894
9.20455	0.909
9.24436	0.929
9.28418	0.909
9.32399	0.804
9.36381	0.684
9.40362	0.398
9.44343	0.454
9.48325	0.579
9.52306	0.709
9.56288	0.742
9.60269	0.659
9.64251	0.53
9.68232	0.43
9.72213	0.158
9.76195	0.158
9.80176	0.464
9.84158	0.462
9.88139	0.168
9.9212	0.055
9.96102	0.045
10.0008	0.048
10.0406	0.051
10.0805	0.048
10.1203	0.11
10.1601	0.265
10.1999	0.387
10.2397	0.465
10.2795	0.512
10.3193	0.54
10.3592	0.559
10.399	0.57
10.4388	0.595
10.4786	0.664
10.5184	0.707
10.5582	0.737
10.598	0.754
10.6379	0.746
10.6777	0.766
10.7175	0.794
10.7573	0.813
10.7971	0.821
10.8369	0.826
10.8767	0.843
10.9166	0.851
10.9564	0.853
10.9962	0.779
11.036	0.602
11.0758	0.562
11.1156	0.652
11.1554	0.724
11.1953	0.806
11.2351	0.844
11.2749	0.863
11.3147	0.864
11.3545	0.871
11.3943	0.859
11.4341	0.861
11.474	0.848
11.5138	0.682
11.5536	0.594
11.5934	0.599
11.6332	0.632
11.673	0.779
11.7128	0.851
11.7527	0.859
11.7925	0.834
11.8323	0.781
11.8721	0.671
11.9119	0.535
11.9517	0.405
11.9915	0.302
12.0314	0.158
12.0712	0.091
12.111	0.075
12.1508	0.063
12.1906	0.083
12.2304	0.151
12.2702	0.28
12.3101	0.4
12.3499	0.457
12.3897	0.49
12.4295	0.562
12.4693	0.616
12.5091	0.647
12.5489	0.667
12.5888	0.652
12.6286	0.5
12.6684	0.305
12.7082	0.238
12.748	0.255
12.7878	0.195
12.8276	0.14
12.8675	0.161
12.9073	0.307
12.9471	0.447
12.9869	0.547
13.0267	0.599
13.0665	0.646
13.1063	0.682
13.1462	0.704
13.186	0.722
13.2258	0.744
13.2656	0.764
13.3054	0.774
13.3452	0.791
13.385	0.799
13.4249	0.799
13.4647	0.799
13.5045	0.799
13.5443	0.804
13.5841	0.809
13.6239	0.821
13.6637	0.829
13.7035	0.838
13.7434	0.843
13.7832	0.844
13.823	0.843
13.8628	0.856
13.9026	0.878
13.9424	0.891
13.9822	0.898
14.0221	0.843
14.0619	0.751
14.1017	0.769
14.1415	0.859
14.1813	0.894
14.2211	0.918
14.2609	0.926
14.3008	0.941
14.3406	0.954
14.3804	0.959
14.4202	0.966
14.46	0.968
14.4998	0.968
14.5396	0.968
14.5795	0.961
14.6193	0.961
14.6591	0.964
14.6989	0.964
14.7387	0.963
14.7785	0.956
14.8183	0.951
14.8582	0.953
14.898	0.953
14.9378	0.933
14.9776	0.884
15.0174	0.859
15.0572	0.878
15.097	0.903
15.1369	0.906
15.1767	0.869
15.2165	0.823
15.2563	0.726
15.2961	0.58
15.3359	0.46
15.3757	0.392
15.4156	0.378
15.4554	0.417
15.4952	0.482
15.535	0.57
15.5748	0.616
15.6146	0.649
15.6544	0.662
15.6943	0.669
15.7341	0.666
15.7739	0.662
15.8137	0.666
15.8535	0.661
15.8933	0.651
15.9331	0.637
15.973	0.629
