Infrared Spectrum: Uracil, 1-{p-[3-(2-chloroethyl)Ureido]Benzyl}-
Formula: C14 H15 Cl N4 O3
State: SOLID (1 mg / 650 mg KBr DISC)
Class: COBLENTZ III
Instrument: PERKIN-ELMER 521 (GRATING)
Instrument parameters: FILTERS AT 3130, 2475, 2000, 1150, 700, 410. GRATING CHANGES: 2000, 630 CM^-^1
Sampling: TRANSMISSION
Resolution: 2
Origin: SOUTHERN RESEARCH INSTITUTE
1/CM	TRANSMITTANCE
257	0.4676
267	0.5435
277	0.6027
287	0.6431
297	0.6683
307	0.6868
317	0.695
327	0.6973
337	0.6992
347	0.7396
357	0.7328
367	0.7655
377	0.7697
387	0.7623
397	0.7372
407	0.7037
417	0.6756
427	0.6689
437	0.6738
447	0.7436
457	0.767
467	0.7738
477	0.7726
487	0.7719
497	0.7277
507	0.7135
517	0.7647
527	0.7021
537	0.5805
547	0.627
557	0.7313
567	0.7561
577	0.7389
587	0.7135
597	0.6844
607	0.6464
617	0.642
627	0.6378
637	0.625
647	0.6108
657	0.6545
667	0.7064
677	0.731
687	0.7589
697	0.7735
707	0.759
717	0.75
727	0.7657
737	0.7498
747	0.7385
757	0.6916
767	0.7238
777	0.6601
787	0.6858
797	0.7015
807	0.6366
817	0.5867
827	0.6047
837	0.7032
847	0.6969
857	0.6923
867	0.7066
877	0.7497
887	0.7892
897	0.8243
907	0.8412
917	0.8323
927	0.7915
937	0.8081
947	0.7991
957	0.7772
967	0.8094
977	0.8092
987	0.8095
997	0.8128
1007	0.8192
1017	0.8041
1027	0.8198
1037	0.8172
1047	0.8058
1057	0.7861
1067	0.7757
1077	0.772
1087	0.7592
1097	0.7642
1107	0.7524
1117	0.7531
1127	0.7596
1137	0.761
1147	0.74
1157	0.7089
1167	0.666
1177	0.5918
1187	0.639
1197	0.5819
1207	0.5519
1217	0.5311
1227	0.4264
1237	0.3175
1247	0.3117
1257	0.4504
1267	0.6375
1277	0.657
1287	0.6369
1297	0.6222
1307	0.49
1317	0.5267
1327	0.6324
1337	0.6043
1347	0.5273
1357	0.5943
1367	0.6219
1377	0.5703
1387	0.3761
1397	0.5659
1407	0.4441
1417	0.4703
1427	0.598
1437	0.5692
1447	0.4911
1457	0.3557
1467	0.593
1477	0.6735
1487	0.6593
1497	0.5814
1507	0.4281
1517	0.3523
1527	0.3712
1537	0.33
1547	0.2881
1557	0.3235
1567	0.3377
1577	0.3265
1587	0.384
1597	0.254
1607	0.3361
1617	0.4209
1627	0.2758
1637	0.1753
1647	0.1969
1657	0.129
1667	0.1272
1677	0.1064
1687	0.1082
1697	0.1072
1707	0.1548
1717	0.2069
1727	0.234
1737	0.3695
1747	0.5207
1757	0.5496
1767	0.5991
1777	0.7307
1787	0.7595
1797	0.7767
1807	0.8249
1817	0.8538
1827	0.8697
1837	0.8814
1847	0.8874
1857	0.8887
1867	0.8897
1877	0.8901
1887	0.8906
1897	0.8905
1907	0.8908
1917	0.8911
1927	0.8914
1937	0.8916
1947	0.8915
1957	0.8913
1967	0.8914
1977	0.8919
1987	0.8933
1997	0.8978
2007	0.9
2017	0.8992
2027	0.8983
2037	0.8975
2047	0.897
2057	0.8965
2067	0.8961
2077	0.8957
2087	0.8953
2097	0.895
2107	0.8945
2117	0.894
2127	0.8935
2137	0.8928
2147	0.8922
2157	0.8916
2167	0.8909
2177	0.89
2187	0.8891
2197	0.8882
2207	0.8873
2217	0.8866
2227	0.8861
2237	0.8856
2247	0.8851
2257	0.8845
2267	0.8837
2277	0.883
2287	0.8822
2297	0.8814
2307	0.8803
2317	0.8792
2327	0.8781
2337	0.877
2347	0.876
2357	0.8746
2367	0.8725
2377	0.8709
2387	0.8697
2397	0.8684
2407	0.8677
2417	0.8676
2427	0.8674
2437	0.8669
2447	0.8665
2457	0.866
2467	0.8659
2477	0.8661
2487	0.866
2497	0.8646
2507	0.8621
2517	0.8596
2527	0.8569
2537	0.8541
2547	0.8512
2557	0.8494
2567	0.8482
2577	0.8467
2587	0.8451
2597	0.8434
2607	0.8415
2617	0.8395
2627	0.8375
2637	0.8355
2647	0.8334
2657	0.8313
2667	0.8293
2677	0.8267
2687	0.8239
2697	0.8197
2707	0.8147
2717	0.8086
2727	0.8014
2737	0.7923
2747	0.7803
2757	0.7669
2767	0.7521
2777	0.7286
2787	0.7032
2797	0.6852
2807	0.6828
2817	0.6967
2827	0.723
2837	0.7419
2847	0.7296
2857	0.7098
2867	0.7083
2877	0.7167
2887	0.7231
2897	0.7097
2907	0.6899
2917	0.67
2927	0.654
2937	0.644
2947	0.6401
2957	0.621
2967	0.6045
2977	0.5972
2987	0.5775
2997	0.5578
3007	0.5466
3017	0.5468
3027	0.5405
3037	0.5381
3047	0.5484
3057	0.5695
3067	0.5828
3077	0.5792
3087	0.5715
3097	0.5614
3107	0.5761
3117	0.5894
3127	0.594
3137	0.6023
3147	0.5925
3157	0.5883
3167	0.5886
3177	0.5904
3187	0.595
3197	0.6014
3207	0.6064
3217	0.6074
3227	0.6035
3237	0.5922
3247	0.5728
3257	0.543
3267	0.5161
3277	0.4908
3287	0.451
3297	0.4151
3307	0.3835
3317	0.3678
3327	0.3778
3337	0.4119
3347	0.4465
3357	0.4802
3367	0.5074
3377	0.5323
3387	0.559
3397	0.5901
3407	0.6196
3417	0.6393
3427	0.6552
3437	0.6685
3447	0.6782
3457	0.685
3467	0.6915
3477	0.6976
3487	0.7035
3497	0.7103
3507	0.7191
3517	0.7322
3527	0.7421
3537	0.7492
3547	0.7653
3557	0.7739
3567	0.7802
3577	0.7971
3587	0.8065
3597	0.8172
3607	0.8288
3617	0.842
3627	0.8499
3637	0.854
3647	0.8571
3657	0.8592
3667	0.8611
3677	0.8625
3687	0.8637
3697	0.8638
3707	0.8639
3717	0.8636
3727	0.8631
3737	0.8622
3747	0.8611
3757	0.8601
3767	0.8592
3777	0.8584
3787	0.8576
3797	0.8569
3807	0.8565
3817	0.8561
3827	0.8557
3837	0.8553
3847	0.8549
3857	0.8543
3867	0.8537
3877	0.8539
3887	0.8542
3897	0.8545
3907	0.8538
3917	0.853
3927	0.8524
3937	0.8521
3947	0.8517
3957	0.8517
3967	0.8518
3977	0.851
3987	0.851
3997	0.8511
