Infrared Spectrum: MAGNESIUM PHOSPHATE, DIBASIC
Formula: Mg H P O4  * 3 H2 O
State: SOLID (NUJOL MULL)
Class: COBLENTZ
Instrument: Not specified, most likely a prism, grating, or hybrid spectrometer.
Sampling: TRANSMISSION
Resolution: 4
Origin: MELLON INSTITUTE
MICROMETERS	TRANSMITTANCE
2.018	0.961
2.05783	0.966
2.09766	0.969
2.13749	0.973
2.17731	0.974
2.21714	0.974
2.25697	0.969
2.2968	0.956
2.33663	0.949
2.37646	0.951
2.41629	0.943
2.45611	0.938
2.49594	0.941
2.53577	0.936
2.5756	0.929
2.61543	0.928
2.65526	0.916
2.69509	0.903
2.73491	0.847
2.77474	0.705
2.81457	0.418
2.8544	0.272
2.89423	0.295
2.93406	0.239
2.97389	0.227
3.01371	0.16
3.05354	0.16
3.09337	0.277
3.1332	0.382
3.17303	0.453
3.21286	0.498
3.25269	0.518
3.29251	0.506
3.33234	0.301
3.37217	0.113
3.412	0.207
3.45183	0.215
3.49166	0.351
3.53149	0.54
3.57131	0.595
3.61114	0.623
3.65097	0.655
3.6908	0.688
3.73063	0.712
3.77046	0.73
3.81029	0.749
3.85011	0.759
3.88994	0.769
3.92977	0.772
3.9696	0.755
4.00943	0.724
4.04926	0.72
4.08909	0.722
4.12891	0.714
4.16874	0.702
4.20857	0.7
4.2484	0.695
4.28823	0.7
4.32806	0.707
4.36788	0.749
4.40771	0.78
4.44754	0.792
4.48737	0.802
4.5272	0.819
4.56703	0.829
4.60686	0.839
4.64668	0.844
4.68651	0.847
4.72634	0.849
4.76617	0.854
4.806	0.859
4.84583	0.866
4.88566	0.871
4.92548	0.872
4.96531	0.879
5.00514	0.886
5.04497	0.889
5.0848	0.892
5.12463	0.896
5.16446	0.894
5.20428	0.896
5.24411	0.896
5.28394	0.897
5.32377	0.896
5.3636	0.894
5.40343	0.899
5.44326	0.901
5.48308	0.892
5.52291	0.894
5.56274	0.884
5.60257	0.892
5.6424	0.886
5.68223	0.874
5.72206	0.867
5.76188	0.841
5.80171	0.806
5.84154	0.715
5.88137	0.615
5.9212	0.571
5.96103	0.561
6.00086	0.548
6.04068	0.493
6.08051	0.461
6.12034	0.583
6.16017	0.66
6.2	0.735
6.23983	0.762
6.27966	0.78
6.31948	0.789
6.35931	0.792
6.39914	0.79
6.43897	0.802
6.4788	0.806
6.51863	0.802
6.55846	0.802
6.59828	0.814
6.63811	0.812
6.67794	0.814
6.71777	0.809
6.7576	0.795
6.79743	0.7
6.83726	0.596
6.87708	0.586
6.91691	0.637
6.95674	0.69
6.99657	0.759
7.0364	0.777
7.07623	0.801
7.11606	0.812
7.15588	0.817
7.19571	0.804
7.23554	0.732
7.27537	0.727
7.3152	0.755
7.35503	0.79
7.39486	0.806
7.43468	0.811
7.47451	0.821
7.51434	0.822
7.55417	0.822
7.594	0.821
7.63383	0.817
7.67366	0.806
7.71348	0.804
7.75331	0.801
7.79314	0.797
7.83297	0.78
7.8728	0.76
7.91263	0.727
7.95246	0.688
7.99228	0.607
8.03211	0.496
8.07194	0.419
8.11177	0.403
8.1516	0.433
8.19143	0.5
8.23126	0.548
8.27108	0.571
8.31091	0.58
8.35074	0.56
8.39057	0.505
8.4304	0.431
8.47023	0.356
8.51005	0.245
8.54988	0.183
8.58971	0.172
8.62954	0.183
8.66937	0.264
8.7092	0.362
8.74903	0.431
8.78885	0.469
8.82868	0.5
8.86851	0.511
8.90834	0.516
8.94817	0.516
8.988	0.501
9.02783	0.486
9.06765	0.463
9.10748	0.421
9.14731	0.366
9.18714	0.314
9.22697	0.254
9.2668	0.21
9.30663	0.17
9.34645	0.15
9.38628	0.138
9.42611	0.13
9.46594	0.125
9.50577	0.125
9.5456	0.138
9.58543	0.167
9.62525	0.187
9.66508	0.183
9.70491	0.162
9.74474	0.148
9.78457	0.142
9.8244	0.162
9.86423	0.232
9.90405	0.316
9.94388	0.403
9.98371	0.468
10.0235	0.515
10.0634	0.548
10.1032	0.578
10.143	0.608
10.1829	0.63
10.2227	0.655
10.2625	0.673
10.3023	0.69
10.3422	0.712
10.382	0.722
10.4218	0.734
10.4617	0.74
10.5015	0.75
10.5413	0.757
10.5811	0.77
10.621	0.775
10.6608	0.779
10.7006	0.784
10.7405	0.785
10.7803	0.79
10.8201	0.794
10.8599	0.794
10.8998	0.792
10.9396	0.785
10.9794	0.764
11.0193	0.724
11.0591	0.682
11.0989	0.648
11.1387	0.625
11.1786	0.602
11.2184	0.588
11.2582	0.571
11.2981	0.566
11.3379	0.563
11.3777	0.563
11.4175	0.565
11.4574	0.576
11.4972	0.591
11.537	0.605
11.5769	0.625
11.6167	0.645
11.6565	0.66
11.6963	0.675
11.7362	0.683
11.776	0.697
11.8158	0.704
11.8557	0.712
11.8955	0.719
11.9353	0.725
11.9751	0.73
12.015	0.735
12.0548	0.737
12.0946	0.742
12.1345	0.744
12.1743	0.744
12.2141	0.744
12.2539	0.742
12.2938	0.742
12.3336	0.74
12.3734	0.74
12.4133	0.74
12.4531	0.735
12.4929	0.732
12.5327	0.722
12.5726	0.717
12.6124	0.715
12.6522	0.71
12.6921	0.7
12.7319	0.69
12.7717	0.678
12.8115	0.672
12.8514	0.667
12.8912	0.658
12.931	0.648
12.9709	0.638
13.0107	0.628
13.0505	0.617
13.0903	0.61
13.1302	0.603
13.17	0.593
13.2098	0.581
13.2497	0.573
13.2895	0.57
13.3293	0.566
13.3691	0.56
13.409	0.556
13.4488	0.555
13.4886	0.55
13.5285	0.543
13.5683	0.54
13.6081	0.535
13.6479	0.528
13.6878	0.525
13.7276	0.521
13.7674	0.518
13.8073	0.515
13.8471	0.513
13.8869	0.51
13.9267	0.503
13.9666	0.5
14.0064	0.498
14.0462	0.494
14.0861	0.491
14.1259	0.491
14.1657	0.486
14.2055	0.483
14.2454	0.483
14.2852	0.483
14.325	0.479
14.3649	0.481
14.4047	0.481
14.4445	0.479
14.4843	0.479
14.5242	0.478
14.564	0.483
14.6038	0.481
14.6437	0.481
14.6835	0.484
14.7233	0.483
14.7631	0.483
14.803	0.484
14.8428	0.486
14.8826	0.489
14.9225	0.486
14.9623	0.491
15.0021	0.494
15.0419	0.498
15.0818	0.5
15.1216	0.5
15.1614	0.5
15.2013	0.501
15.2411	0.503
15.2809	0.506
15.3207	0.508
15.3606	0.511
15.4004	0.515
15.4402	0.513
15.4801	0.515
15.5199	0.52
15.5597	0.521
15.5995	0.52
15.6394	0.525
15.6792	0.528
15.719	0.533
15.7589	0.535
15.7987	0.541
15.8385	0.546
15.8783	0.553
15.9182	0.556
15.958	0.56
15.9978	0.561
