Infrared Spectrum: POTASSIUM 6-(p-AMINO-PHENYLACETAMIDO)-PENICILLINATE
Formula: C16 H18 N3 O4 S K
State: SOLID (OIL MULL)
Class: COBLENTZ III
Instrument: PERKIN-ELMER 21 (GRATING)
Instrument parameters: NaCl PRISM
Sampling: TRANSMISSION
Resolution: 2
Origin: SMITH KLINE & FRENCH LABS.
1/CM	TRANSMITTANCE
663	0.5773
672	0.647
681	0.6514
690	0.6188
699	0.5653
708	0.6168
717	0.5871
726	0.6119
735	0.5736
744	0.5158
753	0.4826
762	0.4783
771	0.4236
780	0.5219
789	0.5891
798	0.5128
807	0.5201
816	0.634
825	0.5814
834	0.5417
843	0.4917
852	0.5783
861	0.6166
870	0.6744
879	0.7054
888	0.6403
897	0.7208
906	0.7329
915	0.6862
924	0.7066
933	0.6812
942	0.7131
951	0.672
960	0.7441
969	0.7477
978	0.7505
987	0.7031
996	0.6227
1005	0.7505
1014	0.7029
1023	0.7192
1032	0.7478
1041	0.7483
1050	0.7389
1059	0.7258
1068	0.6863
1077	0.6102
1086	0.6062
1095	0.6107
1104	0.7081
1113	0.6791
1122	0.6522
1131	0.6904
1140	0.6624
1149	0.6556
1158	0.648
1167	0.6333
1176	0.6188
1185	0.5585
1194	0.5268
1203	0.5892
1212	0.6485
1221	0.6373
1230	0.5169
1239	0.4606
1248	0.5346
1257	0.6116
1266	0.5641
1275	0.4432
1284	0.4487
1293	0.4613
1302	0.2864
1311	0.2061
1320	0.2495
1329	0.2959
1338	0.4637
1347	0.5118
1356	0.4602
1365	0.3515
1374	0.254
1383	0.2544
1392	0.2793
1401	0.3911
1410	0.384
1419	0.3702
1428	0.3927
1437	0.3452
1446	0.2782
1455	0.2301
1464	0.2438
1473	0.3585
1482	0.3159
1491	0.229
1500	0.123
1509	0.1335
1518	0.2585
1527	0.3596
1536	0.3561
1545	0.3489
1554	0.2887
1563	0.27
1572	0.233
1581	0.2229
1590	0.1248
1599	0.1057
1608	0.1089
1617	0.1146
1626	0.1269
1635	0.2101
1644	0.2456
1653	0.3402
1662	0.4441
1671	0.5676
1680	0.658
1689	0.6751
1698	0.7057
1707	0.6934
1716	0.6706
1725	0.6483
1734	0.5302
1743	0.3153
1752	0.2013
1761	0.1882
1770	0.3271
1779	0.5395
1788	0.7124
1797	0.7694
1806	0.7736
1815	0.7986
1824	0.8102
1833	0.8118
1842	0.8121
1851	0.8166
1860	0.8108
1869	0.8061
1878	0.8058
1887	0.8111
1896	0.8267
1905	0.8285
1914	0.8306
1923	0.8313
1932	0.8245
1941	0.824
1950	0.825
1959	0.8244
1968	0.821
1977	0.8171
1986	0.8139
1995	0.8101
2004	0.806
2013	0.8073
2022	0.8
2031	0.7956
2040	0.7943
2049	0.7933
2058	0.7924
2067	0.7915
2076	0.7908
2085	0.7874
2094	0.783
2103	0.7781
2112	0.7757
2121	0.7739
2130	0.773
2139	0.7706
2148	0.7678
2157	0.7631
2166	0.7576
2175	0.7563
2184	0.7585
2193	0.7646
2202	0.7682
2211	0.7703
2220	0.7715
2229	0.7716
2238	0.7715
2247	0.7713
2256	0.7709
2265	0.7703
2274	0.7699
2283	0.7693
2292	0.7685
2301	0.7676
2310	0.7666
2319	0.7652
2328	0.7637
2337	0.7622
2346	0.7603
2355	0.7583
2364	0.7564
2373	0.7545
2382	0.7525
2391	0.7504
2400	0.7485
2409	0.7465
2418	0.7447
2427	0.743
2436	0.7413
2445	0.74
2454	0.7392
2463	0.7382
2472	0.734
2481	0.7277
2490	0.7223
2499	0.7218
2508	0.722
2517	0.7222
2526	0.7225
2535	0.7208
2544	0.7174
2553	0.7141
2562	0.7108
2571	0.7075
2580	0.7042
2589	0.701
2598	0.6977
2607	0.6945
2616	0.6914
2625	0.6896
2634	0.6877
2643	0.6859
2652	0.6837
2661	0.6765
2670	0.6659
2679	0.6592
2688	0.655
2697	0.6524
2706	0.6499
2715	0.6554
2724	0.6549
2733	0.6516
2742	0.6391
2751	0.6193
2760	0.5948
2769	0.5658
2778	0.5163
2787	0.4132
2796	0.3108
2805	0.2091
2814	0.1346
2823	0.1197
2832	0.1181
2841	0.1172
2850	0.1117
2859	0.088
2868	0.0721
2877	0.0664
2886	0.0691
2895	0.0833
2904	0.0892
2913	0.1019
2922	0.1478
2931	0.1931
2940	0.238
2949	0.283
2958	0.2998
2967	0.3085
2976	0.3124
2985	0.3137
2994	0.3135
3003	0.3128
3012	0.3121
3021	0.3104
3030	0.3083
3039	0.3065
3048	0.3051
3057	0.304
3066	0.3034
3075	0.3029
3084	0.3024
3093	0.3022
3102	0.302
3111	0.3019
3120	0.3019
3129	0.3019
3138	0.3019
3147	0.3018
3156	0.3009
3165	0.2999
3174	0.2978
3183	0.2948
3192	0.2912
3201	0.2875
3210	0.2837
3219	0.2803
3228	0.277
3237	0.2734
3246	0.2686
3255	0.2581
3264	0.249
3273	0.2429
3282	0.2413
3291	0.2424
3300	0.2451
3309	0.2581
3318	0.2969
3327	0.336
3336	0.3751
3345	0.4138
3354	0.4524
3363	0.4908
3372	0.5183
3381	0.5205
3390	0.5203
3399	0.5198
3408	0.5185
3417	0.5164
3426	0.5127
3435	0.5059
3444	0.4983
3453	0.4907
3462	0.4831
3471	0.4756
3480	0.4681
3489	0.4606
3498	0.4527
3507	0.4467
3516	0.4444
3525	0.4457
3534	0.449
3543	0.4567
3552	0.4688
3561	0.4996
3570	0.5334
3579	0.5669
3588	0.5853
3597	0.5907
3606	0.5936
3615	0.5949
3624	0.5953
3633	0.5952
3642	0.5949
3651	0.594
3660	0.5929
3669	0.5911
3678	0.5893
3687	0.5876
3696	0.5858
3705	0.5837
3714	0.5811
3723	0.5805
3732	0.5802
3741	0.5802
3750	0.5799
3759	0.5782
3768	0.5731
3777	0.57
3786	0.5684
3795	0.5681
3804	0.5678
3813	0.5675
3822	0.5672
3831	0.5669
3840	0.5666
3849	0.5658
3858	0.5643
3867	0.5626
3876	0.561
3885	0.5586
3894	0.5557
3903	0.5527
3912	0.5496
3921	0.5465
3930	0.5433
3939	0.5404
3948	0.5385
3957	0.5369
3966	0.5352
3975	0.5336
3984	0.5315
3993	0.5293
