Infrared Spectrum: Indole, 2,5-dimethyl-, hydrochloride
Formula: C10 H12 Cl N
State: SOLID (KBr DISC, 0.8% WT.)
Class: COBLENTZ III
Instrument: PERKIN-ELMER 157
Sampling: TRANSMISSION
Resolution: 2
Origin: BRITISH PETROLEUM CO. LTD., ENGLAND
1/CM	TRANSMITTANCE
668	0.56
677	0.6006
686	0.6026
695	0.6048
704	0.6147
713	0.6098
722	0.5933
731	0.574
740	0.5583
749	0.5709
758	0.5692
767	0.5625
776	0.5423
785	0.5019
794	0.4241
803	0.3325
812	0.3087
821	0.356
830	0.449
839	0.5397
848	0.5615
857	0.5443
866	0.5214
875	0.5256
884	0.5419
893	0.5471
902	0.5462
911	0.5505
920	0.5724
929	0.5804
938	0.5723
947	0.5635
956	0.5541
965	0.543
974	0.5276
983	0.5188
992	0.5013
1001	0.5004
1010	0.487
1019	0.4561
1028	0.4213
1037	0.4026
1046	0.4457
1055	0.4849
1064	0.4813
1073	0.4658
1082	0.4131
1091	0.3559
1100	0.3463
1109	0.3672
1118	0.3713
1127	0.3592
1136	0.3494
1145	0.3239
1154	0.3149
1163	0.3236
1172	0.3065
1181	0.285
1190	0.2572
1199	0.2302
1208	0.2377
1217	0.2799
1226	0.2957
1235	0.3002
1244	0.3079
1253	0.3206
1262	0.3222
1271	0.3128
1280	0.3013
1289	0.2921
1298	0.2671
1307	0.2614
1316	0.2628
1325	0.2657
1334	0.2966
1343	0.303
1352	0.3039
1361	0.2965
1370	0.2714
1379	0.2294
1388	0.252
1397	0.2973
1406	0.2994
1415	0.2793
1424	0.2502
1433	0.213
1442	0.1929
1451	0.1936
1460	0.1944
1469	0.193
1478	0.1876
1487	0.1714
1496	0.1714
1505	0.2664
1514	0.3007
1523	0.3277
1532	0.3243
1541	0.3083
1550	0.2967
1559	0.2634
1568	0.2464
1577	0.2414
1586	0.241
1595	0.2411
1604	0.2386
1613	0.2318
1622	0.2264
1631	0.2456
1640	0.2706
1649	0.3007
1658	0.3077
1667	0.3162
1676	0.3681
1685	0.4032
1694	0.4197
1703	0.4505
1712	0.4914
1721	0.5179
1730	0.647
1739	0.6929
1748	0.7143
1757	0.716
1766	0.7146
1775	0.7077
1784	0.7059
1793	0.7046
1802	0.7025
1811	0.6984
1820	0.6901
1829	0.683
1838	0.6815
1847	0.668
1856	0.6617
1865	0.6536
1874	0.6432
1883	0.6398
1892	0.633
1901	0.6234
1910	0.6159
1919	0.6115
1928	0.6085
1937	0.6047
1946	0.5949
1955	0.5915
1964	0.5897
1973	0.5883
1982	0.5868
1991	0.5852
2000	0.5826
2009	0.5793
2018	0.5761
2027	0.5751
2036	0.5746
2045	0.5744
2054	0.5742
2063	0.5733
2072	0.5684
2081	0.56
2090	0.5543
2099	0.5521
2108	0.5516
2117	0.5512
2126	0.5485
2135	0.5445
2144	0.54
2153	0.5348
2162	0.5292
2171	0.5221
2180	0.513
2189	0.5043
2198	0.4966
2207	0.487
2216	0.4773
2225	0.4685
2234	0.4618
2243	0.4552
2252	0.4496
2261	0.444
2270	0.4362
2279	0.4269
2288	0.4143
2297	0.3984
2306	0.3826
2315	0.3669
2324	0.35
2333	0.3346
2342	0.3211
2351	0.3101
2360	0.3016
2369	0.2946
2378	0.2865
2387	0.2776
2396	0.2679
2405	0.2582
2414	0.2475
2423	0.2363
2432	0.2272
2441	0.2163
2450	0.2067
2459	0.2008
2468	0.1978
2477	0.1965
2486	0.1953
2495	0.1947
2504	0.1935
2513	0.1921
2522	0.1907
2531	0.1877
2540	0.1841
2549	0.1797
2558	0.1743
2567	0.1685
2576	0.1655
2585	0.1637
2594	0.1627
2603	0.162
2612	0.1616
2621	0.161
2630	0.1605
2639	0.1594
2648	0.1582
2657	0.157
2666	0.1553
2675	0.1534
2684	0.1515
2693	0.1494
2702	0.1473
2711	0.1456
2720	0.1446
2729	0.1435
2738	0.1418
2747	0.1383
2756	0.1315
2765	0.1302
2774	0.1294
2783	0.1289
2792	0.1284
2801	0.1274
2810	0.1262
2819	0.1249
2828	0.1237
2837	0.1232
2846	0.1231
2855	0.1251
2864	0.1268
2873	0.1272
2882	0.1273
2891	0.1277
2900	0.1384
2909	0.146
2918	0.154
2927	0.1607
2936	0.167
2945	0.1706
2954	0.1726
2963	0.1881
2972	0.1995
2981	0.205
2990	0.2063
2999	0.2069
3008	0.2118
3017	0.2198
3026	0.2241
3035	0.2273
3044	0.229
3053	0.23
3062	0.2303
3071	0.2305
3080	0.2293
3089	0.2279
3098	0.2262
3107	0.2237
3116	0.2208
3125	0.2161
3134	0.2109
3143	0.2059
3152	0.2013
3161	0.1972
3170	0.1935
3179	0.1914
3188	0.19
3197	0.1894
3206	0.1891
3215	0.1888
3224	0.1885
3233	0.1884
3242	0.1883
3251	0.1877
3260	0.1867
3269	0.1835
3278	0.1783
3287	0.1748
3296	0.1735
3305	0.1727
3314	0.1722
3323	0.1719
3332	0.1717
3341	0.1716
3350	0.1716
3359	0.1716
3368	0.1719
3377	0.1725
3386	0.1739
3395	0.1765
3404	0.1804
3413	0.1862
3422	0.1923
3431	0.2033
3440	0.2256
3449	0.246
3458	0.2662
3467	0.2863
3476	0.3064
3485	0.3263
3494	0.3453
3503	0.3579
3512	0.3697
3521	0.3809
3530	0.4055
3539	0.4726
3548	0.5007
3557	0.5369
3566	0.5741
3575	0.6111
3584	0.6564
3593	0.6712
3602	0.6802
3611	0.7089
3620	0.7319
3629	0.7402
3638	0.7447
3647	0.7458
3656	0.7456
3665	0.7452
3674	0.7443
3683	0.7416
3692	0.7367
3701	0.7326
3710	0.729
3719	0.7271
3728	0.7262
3737	0.7254
3746	0.7251
3755	0.7248
3764	0.7245
3773	0.7239
3782	0.7235
3791	0.7153
3800	0.7036
3809	0.6934
3818	0.6887
3827	0.6879
3836	0.6875
3845	0.6872
3854	0.6869
3863	0.6852
3872	0.6818
3881	0.6779
3890	0.6749
3899	0.6735
3908	0.6721
3917	0.6707
3926	0.6696
3935	0.6684
3944	0.6674
3953	0.6664
3962	0.6652
3971	0.6638
3980	0.6624
3989	0.661
3998	0.6599
