Infrared Spectrum: L-(+)-GLUTAMIC ACID
Formula: C5 H9 O4
State: SOLID (OIL MULL)
Melting point: 197 C DECOMPOSES
Class: COBLENTZ
Instrument: Not specified, most likely a prism, grating, or hybrid spectrometer.
Sampling: TRANSMISSION
Resolution: 4
Origin: WYANDOTTE CHEMICALS CORP., WYANDOTTE, MICHIGAN, USA
MICROMETERS	TRANSMITTANCE
2.056	0.838
2.09562	0.842
2.13523	0.85
2.17485	0.852
2.21447	0.842
2.25409	0.845
2.2937	0.868
2.33332	0.868
2.37294	0.885
2.41255	0.9
2.45217	0.901
2.49179	0.906
2.5314	0.908
2.57102	0.933
2.61064	0.916
2.65026	0.946
2.68987	0.951
2.72949	0.946
2.76911	0.945
2.80872	0.928
2.84834	0.92
2.88796	0.898
2.92757	0.89
2.96719	0.873
3.00681	0.863
3.04643	0.812
3.08604	0.734
3.12566	0.631
3.16528	0.41
3.20489	0.234
3.24451	0.151
3.28413	0.167
3.32375	0.126
3.36336	0.043
3.40298	0.026
3.4426	0.036
3.48221	0.034
3.52183	0.066
3.56145	0.166
3.60106	0.197
3.64068	0.187
3.6803	0.204
3.71992	0.239
3.75953	0.166
3.79915	0.187
3.83877	0.219
3.87838	0.262
3.918	0.282
3.95762	0.28
3.99723	0.308
4.03685	0.327
4.07647	0.352
4.11609	0.37
4.1557	0.375
4.19532	0.395
4.23494	0.415
4.27455	0.406
4.31417	0.431
4.35379	0.463
4.39341	0.528
4.43302	0.534
4.47264	0.566
4.51226	0.586
4.55187	0.609
4.59149	0.616
4.63111	0.621
4.67072	0.602
4.71034	0.594
4.74996	0.485
4.78958	0.573
4.82919	0.581
4.86881	0.588
4.90843	0.594
4.94804	0.593
4.98766	0.569
5.02728	0.549
5.06689	0.523
5.10651	0.481
5.14613	0.436
5.18575	0.428
5.22536	0.446
5.26498	0.475
5.3046	0.503
5.34421	0.514
5.38383	0.528
5.42345	0.548
5.46307	0.571
5.50268	0.584
5.5423	0.588
5.58192	0.578
5.62153	0.554
5.66115	0.539
5.70077	0.529
5.74038	0.478
5.78	0.405
5.81962	0.325
5.85924	0.244
5.89885	0.147
5.93847	0.127
5.97809	0.209
6.0177	0.264
6.05732	0.202
6.09694	0.182
6.13655	0.25
6.17617	0.146
6.21579	0.068
6.25541	0.048
6.29502	0.049
6.33464	0.058
6.37426	0.066
6.41387	0.081
6.45349	0.088
6.49311	0.074
6.53273	0.089
6.57234	0.134
6.61196	0.186
6.65158	0.21
6.69119	0.265
6.73081	0.262
6.77043	0.196
6.81004	0.099
6.84966	0.139
6.88928	0.249
6.9289	0.299
6.96851	0.272
7.00813	0.244
7.04775	0.303
7.08736	0.382
7.12698	0.496
7.1666	0.511
7.20621	0.38
7.24583	0.204
7.28545	0.21
7.32507	0.312
7.36468	0.302
7.4043	0.259
7.44392	0.232
7.48353	0.245
7.52315	0.247
7.56277	0.157
7.60239	0.066
7.642	0.064
7.68162	0.189
7.72124	0.252
7.76085	0.161
7.80047	0.098
7.84009	0.078
7.8797	0.081
7.91932	0.084
7.95894	0.089
7.99856	0.117
8.03817	0.147
8.07779	0.144
8.11741	0.162
8.15702	0.205
8.19664	0.232
8.23626	0.245
8.27587	0.282
8.31549	0.32
8.35511	0.355
8.39473	0.38
8.43434	0.345
8.47396	0.323
8.51358	0.368
8.55319	0.192
8.59281	0.131
8.63243	0.225
8.67205	0.277
8.71166	0.28
8.75128	0.21
8.7909	0.229
8.83051	0.252
8.87013	0.277
8.90975	0.34
8.94936	0.39
8.98898	0.418
9.0286	0.445
9.06822	0.453
9.10783	0.451
9.14745	0.438
9.18707	0.411
9.22668	0.31
9.2663	0.237
9.30592	0.332
9.34553	0.395
9.38515	0.416
9.42477	0.383
9.46439	0.385
9.504	0.401
9.54362	0.415
9.58324	0.393
9.62285	0.392
9.66247	0.36
9.70209	0.312
9.74171	0.25
9.78132	0.247
9.82094	0.297
9.86056	0.367
9.90017	0.392
9.93979	0.403
9.97941	0.473
10.019	0.543
10.0586	0.578
10.0983	0.583
10.1379	0.561
10.1775	0.612
10.2171	0.642
10.2567	0.654
10.2963	0.659
10.336	0.662
10.3756	0.672
10.4152	0.686
10.4548	0.696
10.4944	0.7
10.534	0.686
10.5737	0.604
10.6133	0.626
10.6529	0.681
10.6925	0.714
10.7321	0.732
10.7717	0.74
10.8114	0.75
10.851	0.747
10.8906	0.649
10.9302	0.611
10.9698	0.544
11.0095	0.578
11.0491	0.666
11.0887	0.727
11.1283	0.762
11.1679	0.792
11.2075	0.803
11.2472	0.822
11.2868	0.832
11.3264	0.845
11.366	0.858
11.4056	0.858
11.4452	0.855
11.4849	0.808
11.5245	0.657
11.5641	0.553
11.6037	0.506
11.6433	0.418
11.6829	0.498
11.7226	0.656
11.7622	0.732
11.8018	0.775
11.8414	0.802
11.881	0.815
11.9206	0.825
11.9603	0.823
11.9999	0.822
12.0395	0.833
12.0791	0.817
12.1187	0.779
12.1583	0.704
12.198	0.523
12.2376	0.327
12.2772	0.431
12.3168	0.553
12.3564	0.554
12.396	0.495
12.4357	0.47
12.4753	0.573
12.5149	0.651
12.5545	0.71
12.5941	0.742
12.6337	0.764
12.6734	0.765
12.713	0.737
12.7526	0.571
12.7922	0.513
12.8318	0.609
12.8715	0.656
12.9111	0.691
12.9507	0.757
12.9903	0.79
13.0299	0.812
13.0695	0.815
13.1092	0.822
13.1488	0.822
13.1884	0.818
13.228	0.82
13.2676	0.832
13.3072	0.799
13.3469	0.705
13.3865	0.637
13.4261	0.651
13.4657	0.626
13.5053	0.639
13.5449	0.735
13.5846	0.803
13.6242	0.828
13.6638	0.837
13.7034	0.848
13.743	0.853
13.7826	0.848
13.8223	0.84
13.8619	0.818
13.9015	0.797
13.9411	0.749
13.9807	0.697
14.0203	0.624
14.06	0.593
14.0996	0.616
14.1392	0.666
14.1788	0.709
14.2184	0.734
14.258	0.727
14.2977	0.725
14.3373	0.754
14.3769	0.784
14.4165	0.813
14.4561	0.827
14.4957	0.835
14.5354	0.838
14.575	0.833
14.6146	0.828
14.6542	0.822
14.6938	0.807
14.7335	0.792
14.7731	0.757
14.8127	0.714
14.8523	0.649
14.8919	0.576
14.9315	0.516
14.9712	0.496
15.0108	0.498
15.0504	0.528
15.09	0.606
15.1296	0.666
15.1692	0.71
15.2089	0.719
15.2485	0.729
15.2881	0.727
15.3277	0.719
15.3673	0.722
15.4069	0.715
15.4466	0.715
15.4862	0.702
15.5258	0.697
15.5654	0.692
15.605	0.687
15.6446	0.679
15.6843	0.676
15.7239	0.664
15.7635	0.651
15.8031	0.641
15.8427	0.634
15.8823	0.622
15.922	0.609
15.9616	0.594
16.0012	0.589
