Infrared Spectrum: Arginine, N^2-p-tolylsulfonyl-, L-
Formula: C13 H20 N4 O4 S  * 3 H2 O
State: SOLID (SPLIT MULL), FLUOROLUBE FOR 3800-1330 CM^-^1, NUJOL FOR 1330-400 CM^-^1
Melting point: 252 C DECOMP.
Class: COBLENTZ III
Instrument: BECKMAN IR-9 (GRATING)
Instrument parameters: ORDER CHANGES: 670, 1200, 2000 CM^-^1
Sampling: TRANSMISSION
Resolution: 2
Origin: DOW CHEMICAL COMPANY
1/CM	TRANSMITTANCE
3800	0.631
3791	0.632
3782	0.6338
3773	0.637
3764	0.6405
3755	0.644
3746	0.6467
3737	0.6493
3728	0.6518
3719	0.6546
3710	0.6572
3701	0.6596
3692	0.6596
3683	0.655
3674	0.6467
3665	0.6397
3656	0.633
3647	0.6285
3638	0.6248
3629	0.621
3620	0.6146
3611	0.6067
3602	0.6009
3593	0.5983
3584	0.597
3575	0.596
3566	0.5951
3557	0.5937
3548	0.5918
3539	0.589
3530	0.5851
3521	0.5795
3512	0.5707
3503	0.557
3494	0.5371
3485	0.5118
3476	0.48
3467	0.4375
3458	0.4043
3449	0.3564
3440	0.3004
3431	0.2597
3422	0.2133
3413	0.1926
3404	0.1794
3395	0.1648
3386	0.1503
3377	0.1371
3368	0.1292
3359	0.1267
3350	0.1275
3341	0.132
3332	0.1372
3323	0.1426
3314	0.1466
3305	0.1492
3296	0.1517
3287	0.1537
3278	0.1555
3269	0.157
3260	0.1584
3251	0.1596
3242	0.1608
3233	0.1616
3224	0.1618
3215	0.161
3206	0.1598
3197	0.1582
3188	0.1566
3179	0.1549
3170	0.1532
3161	0.1516
3152	0.1502
3143	0.1498
3134	0.1495
3125	0.1502
3116	0.1518
3107	0.1545
3098	0.1578
3089	0.1615
3080	0.1654
3071	0.1722
3062	0.1806
3053	0.1929
3044	0.2068
3035	0.2198
3026	0.2323
3017	0.2507
3008	0.2691
2999	0.2828
2990	0.2833
2981	0.2829
2972	0.2834
2963	0.284
2954	0.2872
2945	0.2948
2936	0.2983
2927	0.306
2918	0.3305
2909	0.3595
2900	0.3603
2891	0.3592
2882	0.3458
2873	0.338
2864	0.3427
2855	0.3536
2846	0.3748
2837	0.4039
2828	0.4304
2819	0.456
2810	0.47
2801	0.4768
2792	0.481
2783	0.4854
2774	0.4919
2765	0.4986
2756	0.5051
2747	0.5131
2738	0.5225
2729	0.5332
2720	0.544
2711	0.5543
2702	0.564
2693	0.5738
2684	0.5828
2675	0.5915
2666	0.6002
2657	0.6077
2648	0.6146
2639	0.6214
2630	0.628
2621	0.6341
2612	0.6403
2603	0.6461
2594	0.6521
2585	0.6581
2576	0.6642
2567	0.6701
2558	0.6748
2549	0.6794
2540	0.6833
2531	0.6871
2522	0.691
2513	0.6942
2504	0.6967
2495	0.6991
2486	0.7011
2477	0.7025
2468	0.7039
2459	0.7051
2450	0.7069
2441	0.7091
2432	0.7111
2423	0.7133
2414	0.7156
2405	0.7174
2396	0.7194
2387	0.7225
2378	0.7269
2369	0.7307
2360	0.7321
2351	0.7325
2342	0.7334
2333	0.7331
2324	0.7325
2315	0.7308
2306	0.7305
2297	0.7321
2288	0.734
2279	0.7364
2270	0.7397
2261	0.7431
2252	0.7471
2243	0.7512
2234	0.7554
2225	0.7591
2216	0.7628
2207	0.7671
2198	0.7714
2189	0.7755
2180	0.7794
2171	0.7828
2162	0.7861
2153	0.7894
2144	0.7925
2135	0.7957
2126	0.7989
2117	0.8021
2108	0.8053
2099	0.8085
2090	0.8117
2081	0.8148
2072	0.818
2063	0.821
2054	0.8241
2045	0.827
2036	0.83
2027	0.8328
2018	0.8358
2009	0.8389
2000	0.8427
1991	0.8471
1982	0.8501
1973	0.8521
1964	0.8537
1955	0.8544
1946	0.8534
1937	0.8499
1928	0.8461
1919	0.8428
1910	0.85
1901	0.8609
1892	0.8632
1883	0.8652
1874	0.8671
1865	0.8693
1856	0.8728
1847	0.8746
1838	0.8737
1829	0.8703
1820	0.8659
1811	0.8641
1802	0.8664
1793	0.8675
1784	0.8657
1775	0.862
1766	0.856
1757	0.8462
1748	0.8328
1739	0.8078
1730	0.7776
1721	0.7334
1712	0.645
1703	0.5202
1694	0.2983
1685	0.1717
1676	0.0959
1667	0.0504
1658	0.0357
1649	0.0406
1640	0.0604
1631	0.1077
1622	0.1177
1613	0.0985
1604	0.0629
1595	0.0907
1586	0.1555
1577	0.1761
1568	0.153
1559	0.1441
1550	0.1758
1541	0.2504
1532	0.3521
1523	0.4202
1514	0.4921
1505	0.5198
1496	0.4691
1487	0.5328
1478	0.4801
1469	0.3999
1460	0.407
1451	0.3128
1442	0.3555
1433	0.3958
1424	0.386
1415	0.3225
1406	0.1636
1397	0.1865
1388	0.2071
1379	0.2252
1370	0.2654
1361	0.268
1352	0.2856
1343	0.2642
1334	0.1115
1325	0.2217
1316	0.3258
1307	0.3779
1298	0.4693
1289	0.4929
1280	0.6636
1271	0.7408
1262	0.7662
1253	0.7786
1244	0.7826
1235	0.6937
1226	0.7542
1217	0.7492
1208	0.7467
1199	0.7484
1190	0.6807
1181	0.6774
1172	0.532
1163	0.0457
1154	0.1146
1145	0.4072
1136	0.5555
1127	0.5827
1118	0.6259
1109	0.6364
1100	0.442
1091	0.2466
1082	0.6506
1073	0.7314
1064	0.7596
1055	0.7208
1046	0.7935
1037	0.7693
1028	0.8649
1019	0.8176
1010	0.9021
1001	0.8336
992	0.8528
983	0.8866
974	0.8882
965	0.8835
956	0.8131
947	0.7711
938	0.8258
929	0.8237
920	0.8151
911	0.8122
902	0.8266
893	0.8411
884	0.8566
875	0.8895
866	0.9108
857	0.8911
848	0.8496
839	0.8242
830	0.8225
821	0.5955
812	0.5495
803	0.6974
794	0.744
785	0.6712
776	0.6483
767	0.6092
758	0.5681
749	0.5593
740	0.5328
731	0.4936
722	0.4399
713	0.4032
704	0.3903
695	0.3986
686	0.3968
677	0.375
668	0.3087
659	0.3516
650	0.5599
641	0.6039
632	0.596
623	0.6018
614	0.6051
605	0.5942
596	0.5676
587	0.5099
578	0.3854
569	0.2008
560	0.3457
551	0.3192
542	0.4674
533	0.5812
524	0.6408
515	0.6786
506	0.6983
497	0.6936
488	0.6898
479	0.7169
470	0.7405
461	0.7412
452	0.7275
443	0.6899
434	0.6726
425	0.644
416	0.5922
407	0.5876
