Infrared Spectrum: ACETIC ACID, SODIUM SALT
Formula: C2 H3 Na O2
State: SOLID (1 mg / 650 mg KBr DISC)
Class: COBLENTZ III
Instrument: PERKIN-ELMER 221 (GRATING)
Instrument parameters: FILTER AT 2490, 980 CM^-^1. GRATING 4000-1428 CM^-^1, NaCl PRISM 1428-650 CM^-^1
Sampling: TRANSMISSION
Resolution: 2
Origin: SOUTHERN RESEARCH INSTITUTE
1/CM	TRANSMITTANCE
591.731	0.706
600.713	0.64
609.695	0.6657
618.677	0.7656
627.659	0.7792
636.641	0.5709
645.623	0.3492
654.605	0.8014
663.587	0.8893
672.569	0.9133
681.551	0.9275
690.533	0.933
699.516	0.9374
708.498	0.9424
717.48	0.947
726.462	0.951
735.444	0.952
744.426	0.952
753.408	0.954
762.39	0.9551
771.372	0.9571
780.354	0.959
789.336	0.96
798.318	0.961
807.3	0.963
816.282	0.963
825.264	0.963
834.246	0.963
843.228	0.961
852.21	0.961
861.192	0.9554
870.174	0.951
879.156	0.948
888.138	0.9456
897.12	0.9426
906.102	0.9321
915.085	0.6627
924.067	0.8102
933.049	0.927
942.031	0.926
951.013	0.919
959.995	0.9129
968.977	0.9
977.959	0.8723
986.941	0.8353
995.923	0.6854
1004.9	0.5324
1013.89	0.6828
1022.87	0.776
1031.85	0.7002
1040.83	0.567
1049.82	0.6915
1058.8	0.7981
1067.78	0.8547
1076.76	0.8788
1085.74	0.892
1094.73	0.894
1103.71	0.895
1112.69	0.8974
1121.67	0.9052
1130.65	0.91
1139.64	0.913
1148.62	0.914
1157.6	0.914
1166.58	0.9151
1175.56	0.922
1184.55	0.922
1193.53	0.92
1202.51	0.918
1211.49	0.915
1220.47	0.9117
1229.46	0.9034
1238.44	0.8929
1247.42	0.895
1256.4	0.897
1265.38	0.8966
1274.37	0.8933
1283.35	0.88
1292.33	0.8757
1301.31	0.8638
1310.29	0.8457
1319.28	0.7966
1328.26	0.7849
1337.24	0.7759
1346.22	0.7421
1355.2	0.6878
1364.19	0.612
1373.17	0.5144
1382.15	0.4239
1391.13	0.2787
1400.11	0.1598
1409.1	0.0897
1418.08	0.085
1427.06	0.0799
1436.04	0.066
1445.02	0.0683
1454.01	0.2335
1462.99	0.4163
1471.97	0.5334
1480.95	0.564
1489.94	0.579
1498.92	0.5694
1507.9	0.5353
1516.88	0.4822
1525.86	0.3867
1534.85	0.2587
1543.83	0.1584
1552.81	0.0492
1561.79	0.0202
1570.77	0.0152
1579.76	0.014
1588.74	0.016
1597.72	0.0229
1606.7	0.0668
1615.68	0.1215
1624.67	0.2133
1633.65	0.2964
1642.63	0.3714
1651.61	0.4298
1660.59	0.4786
1669.58	0.5155
1678.56	0.5458
1687.54	0.5756
1696.52	0.5954
1705.5	0.6142
1714.49	0.633
1723.47	0.6499
1732.45	0.6667
1741.43	0.6789
1750.41	0.6918
1759.4	0.7055
1768.38	0.7172
1777.36	0.7247
1786.34	0.732
1795.32	0.7376
1804.31	0.7435
1813.29	0.7525
1822.27	0.758
1831.25	0.76
1840.23	0.7603
1849.22	0.7663
1858.2	0.7725
1867.18	0.775
1876.16	0.776
1885.15	0.778
1894.13	0.78
1903.11	0.781
1912.09	0.783
1921.07	0.783
1930.06	0.7849
1939.04	0.7852
1948.02	0.788
1957	0.789
1965.98	0.79
1974.97	0.792
1983.95	0.792
1992.93	0.793
2001.91	0.793
2010.89	0.793
2019.88	0.7925
2028.86	0.793
2037.84	0.793
2046.82	0.7935
2055.8	0.794
2064.79	0.794
2073.77	0.795
2082.75	0.795
2091.73	0.797
2100.71	0.797
2109.7	0.797
2118.68	0.797
2127.66	0.798
2136.64	0.798
2145.62	0.799
2154.61	0.799
2163.59	0.801
2172.57	0.801
2181.55	0.801
2190.53	0.801
2199.52	0.801
2208.5	0.801
2217.48	0.799
2226.46	0.799
2235.44	0.799
2244.43	0.799
2253.41	0.801
2262.39	0.801
2271.37	0.801
2280.35	0.801
2289.34	0.801
2298.32	0.801
2307.3	0.799
2316.28	0.797
2325.27	0.795
2334.25	0.794
2343.23	0.794
2352.21	0.795
2361.19	0.795
2370.18	0.795
2379.16	0.795
2388.14	0.795
2397.12	0.794
2406.1	0.793
2415.09	0.791
2424.07	0.7855
2433.05	0.786
2442.03	0.789
2451.01	0.79
2460	0.792
2468.98	0.79
2477.96	0.788
2486.94	0.7845
2495.92	0.783
2504.91	0.783
2513.89	0.783
2522.87	0.784
2531.85	0.786
2540.83	0.786
2549.82	0.786
2558.8	0.786
2567.78	0.786
2576.76	0.786
2585.74	0.786
2594.73	0.786
2603.71	0.788
2612.69	0.788
2621.67	0.788
2630.65	0.786
2639.64	0.786
2648.62	0.786
2657.6	0.785
2666.58	0.785
2675.56	0.785
2684.55	0.785
2693.53	0.7845
2702.51	0.783
2711.49	0.7805
2720.47	0.78
2729.46	0.778
2738.44	0.775
2747.42	0.774
2756.4	0.775
2765.39	0.775
2774.37	0.776
2783.35	0.778
2792.33	0.776
2801.31	0.775
2810.3	0.772
2819.28	0.7695
2828.26	0.7655
2837.24	0.757
2846.22	0.747
2855.21	0.744
2864.19	0.744
2873.17	0.746
2882.15	0.744
2891.13	0.741
2900.12	0.737
2909.1	0.731
2918.08	0.7071
2927.06	0.6636
2936.04	0.6205
2945.03	0.6704
2954.01	0.6735
2962.99	0.6555
2971.97	0.6175
2980.95	0.5795
2989.94	0.574
2998.92	0.5525
3007.9	0.5555
3016.88	0.599
3025.86	0.6224
3034.85	0.6505
3043.83	0.6715
3052.81	0.6865
3061.79	0.6955
3070.77	0.703
3079.76	0.709
3088.74	0.712
3097.72	0.714
3106.7	0.714
3115.68	0.714
3124.67	0.714
3133.65	0.714
3142.63	0.714
3151.61	0.714
3160.59	0.714
3169.58	0.713
3178.56	0.71
3187.54	0.71
3196.52	0.7065
3205.51	0.702
3214.49	0.698
3223.47	0.694
3232.45	0.691
3241.43	0.688
3250.42	0.6865
3259.4	0.686
3268.38	0.685
3277.36	0.679
3286.34	0.678
3295.33	0.678
3304.31	0.677
3313.29	0.674
3322.27	0.669
3331.25	0.6645
3340.24	0.659
3349.22	0.653
3358.2	0.645
3367.18	0.637
3376.16	0.632
3385.15	0.6265
3394.13	0.622
3403.11	0.617
3412.09	0.614
3421.07	0.613
3430.06	0.61
3439.04	0.61
3448.02	0.612
3457	0.6125
3465.98	0.616
3474.97	0.6175
3483.95	0.6215
3492.93	0.625
3501.91	0.629
3510.89	0.631
3519.88	0.6355
3528.86	0.6415
3537.84	0.6505
3546.82	0.655
3555.8	0.66
3564.79	0.6645
3573.77	0.67
3582.75	0.676
3591.73	0.6815
3600.71	0.686
3609.7	0.6905
3618.68	0.697
3627.66	0.705
3636.64	0.7105
3645.63	0.714
3654.61	0.715
3663.59	0.715
3672.57	0.7145
3681.55	0.714
3690.54	0.715
3699.52	0.718
3708.5	0.719
3717.48	0.72
3726.46	0.72
3735.45	0.719
3744.43	0.719
3753.41	0.719
3762.39	0.719
3771.37	0.72
3780.36	0.719
3789.34	0.718
3798.32	0.721
3807.3	0.721
3816.28	0.721
3825.27	0.719
3834.25	0.716
3843.23	0.715
3852.21	0.714
3861.19	0.7145
3870.18	0.713
3879.16	0.713
3888.14	0.714
3897.12	0.713
3906.1	0.713
3915.09	0.705
3924.07	0.705
3933.05	0.704
3942.03	0.702
3951.01	0.7015
3960	0.701
3968.98	0.701
3977.96	0.7
3986.94	0.701
3995.92	0.7
4004.91	0.7
