Infrared Spectrum: Benzimidazole, 5-amino-, hydrochloride
Formula: C7 H8 Cl N3
State: SOLID (SPLIT MULL), FLUOROLUBE FOR 3800-1330 CM^-^1, NUJOL FOR 1330-400 CM^-^1
Class: COBLENTZ II
Instrument: BECKMAN IR-9 (GRATING)
Instrument parameters: ORDER CHANGES: 670, 1200, 2000 CM^-^1
Sampling: TRANSMISSION
Resolution: 2
Origin: DOW CHEMICAL COMPANY
1/CM	TRANSMITTANCE
3804	0.6908
3795	0.6922
3786	0.6939
3777	0.6958
3768	0.6978
3759	0.6999
3750	0.7018
3741	0.7037
3732	0.7061
3723	0.7087
3714	0.7112
3705	0.7139
3696	0.7165
3687	0.7193
3678	0.7219
3669	0.7241
3660	0.7261
3651	0.728
3642	0.7299
3633	0.7318
3624	0.7341
3615	0.7365
3606	0.7385
3597	0.7399
3588	0.7414
3579	0.7421
3570	0.7421
3561	0.7421
3552	0.7421
3543	0.7421
3534	0.7424
3525	0.7432
3516	0.7439
3507	0.7446
3498	0.7456
3489	0.7465
3480	0.7475
3471	0.7486
3462	0.7497
3453	0.7508
3444	0.7521
3435	0.7538
3426	0.7554
3417	0.7568
3408	0.7585
3399	0.7601
3390	0.7621
3381	0.7641
3372	0.7657
3363	0.7671
3354	0.7678
3345	0.7685
3336	0.7691
3327	0.768
3318	0.7647
3309	0.7604
3300	0.7564
3291	0.7512
3282	0.7451
3273	0.7375
3264	0.7262
3255	0.7118
3246	0.6955
3237	0.6804
3228	0.6641
3219	0.6422
3210	0.6196
3201	0.5935
3192	0.5669
3183	0.5376
3174	0.4973
3165	0.438
3156	0.3855
3147	0.2812
3138	0.2662
3129	0.3165
3120	0.3179
3111	0.3034
3102	0.2743
3093	0.2622
3084	0.252
3075	0.2308
3066	0.2085
3057	0.1804
3048	0.1489
3039	0.1433
3030	0.1329
3021	0.1186
3012	0.1109
3003	0.1092
2994	0.0879
2985	0.0753
2976	0.0787
2967	0.0759
2958	0.0646
2949	0.0467
2940	0.0338
2931	0.0284
2922	0.0282
2913	0.0346
2904	0.0442
2895	0.0456
2886	0.0372
2877	0.0268
2868	0.0279
2859	0.0292
2850	0.0287
2841	0.0279
2832	0.0372
2823	0.0425
2814	0.0407
2805	0.0448
2796	0.0539
2787	0.0594
2778	0.0607
2769	0.0664
2760	0.0684
2751	0.0651
2742	0.0715
2733	0.0922
2724	0.1245
2715	0.127
2706	0.1318
2697	0.1473
2688	0.1494
2679	0.1486
2670	0.15
2661	0.1564
2652	0.1762
2643	0.2017
2634	0.2277
2625	0.2535
2616	0.2706
2607	0.2663
2598	0.232
2589	0.1782
2580	0.1442
2571	0.1436
2562	0.1465
2553	0.1698
2544	0.2162
2535	0.2621
2526	0.2854
2517	0.305
2508	0.3328
2499	0.3608
2490	0.3887
2481	0.4199
2472	0.445
2463	0.4652
2454	0.4834
2445	0.5005
2436	0.5074
2427	0.5095
2418	0.5257
2409	0.5426
2400	0.5577
2391	0.5712
2382	0.5832
2373	0.5981
2364	0.6087
2355	0.6154
2346	0.622
2337	0.628
2328	0.6333
2319	0.6372
2310	0.6431
2301	0.6517
2292	0.67
2283	0.6832
2274	0.6872
2265	0.6876
2256	0.689
2247	0.7014
2238	0.7155
2229	0.7271
2220	0.7353
2211	0.7403
2202	0.7434
2193	0.745
2184	0.7468
2175	0.7501
2166	0.7604
2157	0.7734
2148	0.7771
2139	0.7778
2130	0.7772
2121	0.7758
2112	0.7736
2103	0.7508
2094	0.7465
2085	0.7461
2076	0.7382
2067	0.7245
2058	0.6775
2049	0.681
2040	0.7005
2031	0.7051
2022	0.709
2013	0.7328
2004	0.7565
1995	0.7868
1986	0.7971
1977	0.8036
1968	0.8151
1959	0.8171
1950	0.8204
1941	0.8247
1932	0.8268
1923	0.8181
1914	0.8271
1905	0.8466
1896	0.8571
1887	0.8651
1878	0.8677
1869	0.8648
1860	0.8607
1851	0.8571
1842	0.8542
1833	0.8567
1824	0.8618
1815	0.8617
1806	0.8659
1797	0.8715
1788	0.8717
1779	0.8727
1770	0.8761
1761	0.8764
1752	0.8721
1743	0.8545
1734	0.8398
1725	0.8445
1716	0.8434
1707	0.841
1698	0.8405
1689	0.8398
1680	0.8431
1671	0.8444
1662	0.8413
1653	0.8136
1644	0.7921
1635	0.7301
1626	0.6072
1617	0.7589
1608	0.7675
1599	0.7561
1590	0.6851
1581	0.7618
1572	0.766
1563	0.766
1554	0.82
1545	0.8441
1536	0.8239
1527	0.7086
1518	0.552
1509	0.7017
1500	0.6119
1491	0.2832
1482	0.5226
1473	0.7804
1464	0.7833
1455	0.6064
1446	0.1656
1437	0.7051
1428	0.7707
1419	0.8033
1410	0.8238
1401	0.825
1392	0.7815
1383	0.7303
1374	0.4548
1365	0.1777
1356	0.593
1347	0.6907
1338	0.7278
1329	0.7412
1320	0.731
1311	0.734
1302	0.7101
1293	0.7486
1284	0.7587
1275	0.7451
1266	0.4762
1257	0.6896
1248	0.7006
1239	0.4619
1230	0.6434
1221	0.7271
1212	0.7481
1203	0.7565
1194	0.7521
1185	0.7185
1176	0.7297
1167	0.7058
1158	0.516
1149	0.5818
1140	0.6366
1131	0.5315
1122	0.6241
1113	0.6536
1104	0.6653
1095	0.6159
1086	0.6744
1077	0.7258
1068	0.7621
1059	0.7722
1050	0.7811
1041	0.7887
1032	0.7947
1023	0.7989
1014	0.8022
1005	0.8069
996	0.8088
987	0.8058
978	0.7982
969	0.7601
960	0.7799
951	0.77
942	0.5488
933	0.7424
924	0.7281
915	0.6621
906	0.734
897	0.7846
888	0.7864
879	0.7571
870	0.5627
861	0.7508
852	0.7175
843	0.6458
834	0.5136
825	0.1791
816	0.4176
807	0.4484
798	0.6464
789	0.6338
780	0.6703
771	0.7371
762	0.7475
753	0.7314
744	0.7649
735	0.7682
726	0.756
717	0.7965
708	0.837
699	0.8599
690	0.8674
681	0.8671
672	0.8592
663	0.8601
654	0.861
645	0.8592
636	0.8543
627	0.8465
618	0.7521
609	0.2279
600	0.8061
591	0.8343
582	0.8389
573	0.8364
564	0.8345
555	0.8324
546	0.8287
537	0.8254
528	0.8198
519	0.8124
510	0.8039
501	0.793
492	0.7896
483	0.7714
474	0.7704
465	0.7522
456	0.7164
447	0.6441
438	0.3652
429	0.5649
420	0.5344
411	0.4704
402	0.4628
