Infrared Spectrum: 4-Amino-5-(2-aminoethyl)-2-methylpyrimidine, dihydrochloride
Formula: C7 H14 Cl2 N4
State: SOLID (SPLIT MULL), FLUOROLUBE FOR 3800-1330 CM^-^1, NUJOL FOR 1330-400 CM^-^1
Class: COBLENTZ III
Instrument: DOW KBr FOREPRISM-GRATING
Instrument parameters: BLAZED AT 3.5, 12.0, 20.0 MICRON AND CHANGED AT 5.0, 7.5, 14.9 MICRON
Sampling: TRANSMISSION
Resolution: 2
Origin: DOW CHEMICAL COMPANY
1/CM	TRANSMITTANCE
3780	0.5702
3771	0.5717
3762	0.5733
3753	0.575
3744	0.5774
3735	0.5801
3726	0.5831
3717	0.586
3708	0.5889
3699	0.5915
3690	0.5942
3681	0.5968
3672	0.5993
3663	0.6018
3654	0.6043
3645	0.6068
3636	0.6098
3627	0.6127
3618	0.6157
3609	0.618
3600	0.62
3591	0.622
3582	0.6231
3573	0.6239
3564	0.6248
3555	0.6245
3546	0.6223
3537	0.6199
3528	0.6169
3519	0.6137
3510	0.6105
3501	0.6107
3492	0.6124
3483	0.6143
3474	0.6185
3465	0.6227
3456	0.6278
3447	0.6335
3438	0.6383
3429	0.6411
3420	0.6421
3411	0.6415
3402	0.6395
3393	0.6369
3384	0.6343
3375	0.6312
3366	0.629
3357	0.6275
3348	0.626
3339	0.5552
3330	0.5205
3321	0.5122
3312	0.467
3303	0.4592
3294	0.4491
3285	0.426
3276	0.3974
3267	0.3726
3258	0.3673
3249	0.3897
3240	0.4299
3231	0.4505
3222	0.4607
3213	0.4446
3204	0.4307
3195	0.4301
3186	0.3954
3177	0.3625
3168	0.3344
3159	0.3068
3150	0.2734
3141	0.2093
3132	0.1945
3123	0.2143
3114	0.2553
3105	0.283
3096	0.3009
3087	0.3097
3078	0.3108
3069	0.3096
3060	0.2985
3051	0.2819
3042	0.2628
3033	0.2323
3024	0.23
3015	0.2335
3006	0.2394
2997	0.2464
2988	0.2489
2979	0.2402
2970	0.2225
2961	0.2217
2952	0.2337
2943	0.2405
2934	0.2359
2925	0.2223
2916	0.2084
2907	0.1959
2898	0.1834
2889	0.1687
2880	0.1557
2871	0.1589
2862	0.1656
2853	0.1754
2844	0.1868
2835	0.1999
2826	0.2124
2817	0.2158
2808	0.2077
2799	0.2029
2790	0.2029
2781	0.2069
2772	0.2128
2763	0.2142
2754	0.2126
2745	0.2085
2736	0.2027
2727	0.1985
2718	0.2017
2709	0.2068
2700	0.2126
2691	0.2184
2682	0.22
2673	0.2169
2664	0.2149
2655	0.242
2646	0.2629
2637	0.2773
2628	0.2803
2619	0.2446
2610	0.223
2601	0.2472
2592	0.2696
2583	0.2863
2574	0.2995
2565	0.312
2556	0.3232
2547	0.3346
2538	0.3459
2529	0.357
2520	0.3694
2511	0.3821
2502	0.389
2493	0.3947
2484	0.3984
2475	0.4037
2466	0.411
2457	0.4201
2448	0.4276
2439	0.4348
2430	0.4428
2421	0.4483
2412	0.4487
2403	0.4505
2394	0.4546
2385	0.4564
2376	0.4568
2367	0.4585
2358	0.46
2349	0.4647
2340	0.4709
2331	0.478
2322	0.4854
2313	0.4924
2304	0.4993
2295	0.506
2286	0.5112
2277	0.5168
2268	0.5222
2259	0.5266
2250	0.5338
2241	0.5409
2232	0.548
2223	0.5559
2214	0.5645
2205	0.573
2196	0.5791
2187	0.5849
2178	0.5905
2169	0.5959
2160	0.6014
2151	0.6071
2142	0.6125
2133	0.6175
2124	0.6216
2115	0.6247
2106	0.6272
2097	0.6293
2088	0.6305
2079	0.6308
2070	0.631
2061	0.6331
2052	0.6368
2043	0.6415
2034	0.6438
2025	0.6446
2016	0.6457
2007	0.6465
1998	0.6465
1989	0.6403
1980	0.6458
1971	0.6541
1962	0.6621
1953	0.6499
1944	0.6457
1935	0.6661
1926	0.6781
1917	0.6861
1908	0.6911
1899	0.6915
1890	0.6849
1881	0.6857
1872	0.6911
1863	0.6975
1854	0.7033
1845	0.7101
1836	0.7162
1827	0.7175
1818	0.7111
1809	0.7071
1800	0.7141
1791	0.7118
1782	0.6925
1773	0.6918
1764	0.713
1755	0.7146
1746	0.731
1737	0.7444
1728	0.7501
1719	0.7474
1710	0.7408
1701	0.7382
1692	0.674
1683	0.4139
1674	0.2403
1665	0.0947
1656	0.2266
1647	0.3077
1638	0.4962
1629	0.5549
1620	0.49
1611	0.2805
1602	0.1515
1593	0.4147
1584	0.5001
1575	0.5564
1566	0.4507
1557	0.3454
1548	0.3183
1539	0.3302
1530	0.3051
1521	0.3926
1512	0.384
1503	0.3593
1494	0.3206
1485	0.4144
1476	0.4618
1467	0.4803
1458	0.459
1449	0.4475
1440	0.4571
1431	0.4327
1422	0.465
1413	0.4756
1404	0.4462
1395	0.375
1386	0.4297
1377	0.4097
1368	0.4366
1359	0.4218
1350	0.3192
1341	0.3238
1332	0.3671
1323	0.365
1314	0.3477
1305	0.3373
1296	0.33
1287	0.375
1278	0.4129
1269	0.444
1260	0.4696
1251	0.4888
1242	0.5019
1233	0.2928
1224	0.3937
1215	0.33
1206	0.4536
1197	0.5057
1188	0.539
1179	0.5026
1170	0.5204
1161	0.4334
1152	0.5073
1143	0.4871
1134	0.5437
1125	0.5774
1116	0.6067
1107	0.6066
1098	0.6047
1089	0.582
1080	0.6177
1071	0.6448
1062	0.651
1053	0.6393
1044	0.601
1035	0.5715
1026	0.5694
1017	0.589
1008	0.6278
999	0.501
990	0.6252
981	0.4856
972	0.5594
963	0.6337
954	0.6696
945	0.6864
936	0.6868
927	0.6665
918	0.5165
909	0.4078
900	0.3895
891	0.5136
882	0.542
873	0.6603
864	0.7312
855	0.7551
846	0.7654
837	0.7717
828	0.774
819	0.7744
810	0.7634
801	0.5332
792	0.6815
783	0.6906
774	0.4904
765	0.6107
756	0.6102
747	0.625
738	0.6575
729	0.6511
720	0.6112
711	0.622
702	0.4889
693	0.4262
684	0.4821
675	0.5109
666	0.3604
657	0.4795
648	0.636
639	0.6891
630	0.728
621	0.6888
612	0.7441
603	0.7433
594	0.7276
585	0.5258
576	0.6796
567	0.6936
558	0.6908
549	0.6885
540	0.7098
531	0.7112
522	0.6376
513	0.7407
504	0.7525
495	0.7574
486	0.7597
477	0.7596
468	0.7495
459	0.7272
450	0.7244
441	0.7448
432	0.7561
423	0.754
414	0.7549
405	0.7471
396	0.7382
387	0.7293
