Infrared Spectrum: ACETIC ACID, CADMIUM SALT, DIHYDRATE
Formula: C4 H6 O4 Cd  * 2 H2 O
State: SOLID (MINERAL OIL MULL)
Class: COBLENTZ
Instrument: PERKIN-ELMER
Sampling: TRANSMISSION
Resolution: 4
Origin: BELL TELEPHONE LABORATORIES- F. VRATNY
MICROMETERS	TRANSMITTANCE
2.027	0.847
2.06086	0.849
2.09471	0.856
2.12857	0.861
2.16242	0.866
2.19628	0.869
2.23013	0.873
2.26399	0.875
2.29784	0.837
2.3317	0.799
2.36555	0.803
2.39941	0.821
2.43326	0.821
2.46712	0.825
2.50098	0.835
2.53483	0.859
2.56869	0.873
2.60254	0.878
2.6364	0.886
2.67025	0.886
2.70411	0.876
2.73796	0.847
2.77182	0.755
2.80567	0.515
2.83953	0.297
2.87339	0.299
2.90724	0.323
2.9411	0.292
2.97495	0.222
3.00881	0.193
3.04266	0.181
3.07652	0.164
3.11037	0.15
3.14423	0.135
3.17808	0.125
3.21194	0.121
3.24579	0.123
3.27965	0.123
3.31351	0.118
3.34736	0.078
3.38122	0.029
3.41507	0.027
3.44893	0.025
3.48278	0.027
3.51664	0.034
3.55049	0.299
3.58435	0.431
3.6182	0.508
3.65206	0.522
3.68591	0.551
3.71977	0.583
3.75363	0.604
3.78748	0.631
3.82134	0.655
3.85519	0.678
3.88905	0.703
3.9229	0.729
3.95676	0.753
3.99061	0.76
4.02447	0.76
4.05832	0.76
4.09218	0.768
4.12604	0.773
4.15989	0.772
4.19375	0.767
4.2276	0.77
4.26146	0.773
4.29531	0.772
4.32917	0.761
4.36302	0.748
4.39688	0.746
4.43073	0.75
4.46459	0.76
4.49844	0.772
4.5323	0.779
4.56616	0.791
4.60001	0.808
4.63387	0.813
4.66772	0.827
4.70158	0.835
4.73543	0.849
4.76929	0.861
4.80314	0.873
4.837	0.875
4.87085	0.876
4.90471	0.876
4.93856	0.876
4.97242	0.881
5.00628	0.883
5.04013	0.885
5.07399	0.88
5.10784	0.878
5.1417	0.878
5.17555	0.881
5.20941	0.875
5.24326	0.873
5.27712	0.871
5.31097	0.868
5.34483	0.863
5.37868	0.851
5.41254	0.847
5.4464	0.835
5.48025	0.827
5.51411	0.811
5.54796	0.799
5.58182	0.792
5.61567	0.775
5.64953	0.768
5.68338	0.751
5.71724	0.743
5.75109	0.724
5.78495	0.702
5.81881	0.678
5.85266	0.648
5.88652	0.601
5.92037	0.554
5.95423	0.505
5.98808	0.429
6.02194	0.351
6.05579	0.251
6.08965	0.272
6.1235	0.294
6.15736	0.306
6.19121	0.284
6.22507	0.246
6.25893	0.195
6.29278	0.15
6.32664	0.089
6.36049	0.07
6.39435	0.051
6.4282	0.029
6.46206	0.027
6.49591	0.029
6.52977	0.027
6.56362	0.032
6.59748	0.041
6.63133	0.046
6.66519	0.059
6.69905	0.09
6.7329	0.09
6.76676	0.08
6.80061	0.02
6.83447	0.02
6.86832	0.022
6.90218	0.022
6.93603	0.023
6.96989	0.03
7.00374	0.046
7.0376	0.051
7.07146	0.059
7.10531	0.085
7.13917	0.102
7.17302	0.109
7.20688	0.092
7.24073	0.077
7.27459	0.099
7.30844	0.116
7.3423	0.202
7.37615	0.226
7.41001	0.234
7.44386	0.258
7.47772	0.306
7.51158	0.335
7.54543	0.363
7.57929	0.38
7.61314	0.393
7.647	0.41
7.68085	0.424
7.71471	0.438
7.74856	0.46
7.78242	0.472
7.81627	0.484
7.85013	0.5
7.88398	0.517
7.91784	0.532
7.9517	0.544
7.98555	0.556
8.01941	0.565
8.05326	0.575
8.08712	0.58
8.12097	0.582
8.15483	0.595
8.18868	0.602
8.22254	0.614
8.25639	0.616
8.29025	0.628
8.32411	0.636
8.35796	0.647
8.39182	0.652
8.42567	0.657
8.45953	0.659
8.49338	0.659
8.52724	0.652
8.56109	0.647
8.59495	0.65
8.6288	0.652
8.66266	0.65
8.69651	0.657
8.73037	0.662
8.76423	0.674
8.79808	0.684
8.83194	0.698
8.86579	0.703
8.89965	0.708
8.9335	0.71
8.96736	0.714
9.00121	0.719
9.03507	0.72
9.06892	0.72
9.10278	0.722
9.13663	0.727
9.17049	0.724
9.20435	0.719
9.2382	0.717
9.27206	0.717
9.30591	0.712
9.33977	0.71
9.37362	0.705
9.40748	0.698
9.44133	0.678
9.47519	0.645
9.50904	0.601
9.5429	0.57
9.57675	0.57
9.61061	0.594
9.64447	0.614
9.67832	0.619
9.71218	0.601
9.74603	0.541
9.77989	0.488
9.81374	0.421
9.8476	0.388
9.88145	0.392
9.91531	0.44
9.94916	0.506
9.98302	0.59
10.0169	0.623
10.0507	0.64
10.0846	0.648
10.1184	0.657
10.1523	0.669
10.1862	0.669
10.22	0.671
10.2539	0.676
10.2877	0.678
10.3216	0.678
10.3554	0.676
10.3893	0.671
10.4231	0.652
10.457	0.573
10.4909	0.457
10.5247	0.426
10.5586	0.433
10.5924	0.537
10.6263	0.625
10.6601	0.654
10.694	0.667
10.7278	0.683
10.7617	0.688
10.7955	0.691
10.8294	0.695
10.8633	0.696
10.8971	0.696
10.931	0.695
10.9648	0.696
10.9987	0.698
11.0325	0.698
11.0664	0.696
11.1002	0.691
11.1341	0.686
11.168	0.681
11.2018	0.671
11.2357	0.662
11.2695	0.655
11.3034	0.655
11.3372	0.645
11.3711	0.643
11.4049	0.638
11.4388	0.631
11.4727	0.63
11.5065	0.619
11.5404	0.611
11.5742	0.602
11.6081	0.594
11.6419	0.59
11.6758	0.58
11.7096	0.57
11.7435	0.561
11.7774	0.554
11.8112	0.539
11.8451	0.529
11.8789	0.522
11.9128	0.517
11.9466	0.513
11.9805	0.508
12.0143	0.505
12.0482	0.503
12.0821	0.494
12.1159	0.491
12.1498	0.489
12.1836	0.489
12.2175	0.486
12.2513	0.484
12.2852	0.484
12.319	0.484
12.3529	0.484
12.3868	0.484
12.4206	0.482
12.4545	0.489
12.4883	0.5
12.5222	0.5
12.556	0.501
12.5899	0.501
12.6237	0.501
12.6576	0.501
12.6915	0.501
12.7253	0.501
12.7592	0.5
12.793	0.496
12.8269	0.491
12.8607	0.486
12.8946	0.482
12.9284	0.481
12.9623	0.477
12.9962	0.474
13.03	0.467
13.0639	0.462
13.0977	0.453
13.1316	0.45
13.1654	0.445
13.1993	0.441
13.2331	0.431
13.267	0.422
13.3008	0.419
13.3347	0.405
13.3686	0.402
13.4024	0.388
13.4363	0.375
13.4701	0.363
13.504	0.349
13.5378	0.335
13.5717	0.321
13.6055	0.309
13.6394	0.304
13.6733	0.299
13.7071	0.296
13.741	0.294
13.7748	0.291
13.8087	0.287
13.8425	0.284
13.8764	0.282
13.9102	0.284
13.9441	0.285
13.978	0.299
14.0118	0.318
14.0457	0.325
14.0795	0.333
14.1134	0.351
14.1472	0.356
14.1811	0.363
14.2149	0.368
14.2488	0.373
14.2827	0.375
14.3165	0.376
14.3504	0.375
14.3842	0.371
14.4181	0.352
14.4519	0.333
14.4858	0.304
14.5196	0.277
14.5535	0.246
14.5874	0.224
14.6212	0.214
14.6551	0.193
14.6889	0.184
14.7228	0.181
14.7566	0.172
14.7905	0.169
14.8243	0.181
14.8582	0.21
14.8921	0.239
14.9259	0.267
14.9598	0.301
14.9936	0.318
15.0275	0.332
15.0613	0.351
15.0952	0.383
15.129	0.416
15.1629	0.424
15.1968	0.445
15.2306	0.458
15.2645	0.465
15.2983	0.482
15.3322	0.496
15.366	0.508
