Infrared Spectrum: Phenol, 2,4-diamino-, dihydrochloride
Formula: C6 H10 Cl2 N2 O
State: SOLID (KBr DISC, 0.9% WT.)
Class: COBLENTZ III
Instrument: PERKIN-ELMER 157
Sampling: TRANSMISSION
Resolution: 2
Origin: BRITISH PETROLEUM CO. LTD., ENGLAND
1/CM	TRANSMITTANCE
668	0.3417
677	0.2904
686	0.3388
695	0.3474
704	0.2239
713	0.2252
722	0.4348
731	0.3843
740	0.2803
749	0.2035
758	0.3662
767	0.4853
776	0.5013
785	0.4336
794	0.2909
803	0.5745
812	0.5386
821	0.4534
830	0.12
839	0.1753
848	0.5336
857	0.5865
866	0.5882
875	0.5666
884	0.2978
893	0.5127
902	0.5721
911	0.5703
920	0.5538
929	0.5375
938	0.518
947	0.5388
956	0.5193
965	0.4441
974	0.5101
983	0.488
992	0.4687
1001	0.4502
1010	0.4275
1019	0.4065
1028	0.3835
1037	0.3383
1046	0.2681
1055	0.1731
1064	0.0585
1073	0.077
1082	0.2962
1091	0.2841
1100	0.1553
1109	0.0652
1118	0.0433
1127	0.1239
1136	0.1975
1145	0.2206
1154	0.4034
1163	0.3686
1172	0.355
1181	0.3098
1190	0.2053
1199	0.0497
1208	0.2182
1217	0.3483
1226	0.337
1235	0.3058
1244	0.2627
1253	0.2362
1262	0.1914
1271	0.1468
1280	0.0871
1289	0.0344
1298	0.0302
1307	0.3512
1316	0.3472
1325	0.2802
1334	0.1892
1343	0.0878
1352	0.0368
1361	0.0932
1370	0.2062
1379	0.1975
1388	0.164
1397	0.141
1406	0.1369
1415	0.1357
1424	0.1323
1433	0.1061
1442	0.0805
1451	0.0582
1460	0.0372
1469	0.0428
1478	0.0462
1487	0.0248
1496	0.0239
1505	0.0306
1514	0.0413
1523	0.0626
1532	0.0952
1541	0.2244
1550	0.224
1559	0.0929
1568	0.0453
1577	0.0251
1586	0.0503
1595	0.1718
1604	0.4778
1613	0.4622
1622	0.3406
1631	0.2039
1640	0.1294
1649	0.2244
1658	0.5139
1667	0.5183
1676	0.5161
1685	0.5116
1694	0.4945
1703	0.4788
1712	0.4779
1721	0.4679
1730	0.4674
1739	0.446
1748	0.4025
1757	0.3663
1766	0.3691
1775	0.3783
1784	0.3744
1793	0.3633
1802	0.3491
1811	0.3327
1820	0.3141
1829	0.2919
1838	0.2571
1847	0.2375
1856	0.2282
1865	0.2228
1874	0.2191
1883	0.2084
1892	0.1939
1901	0.1908
1910	0.1896
1919	0.1919
1928	0.1986
1937	0.2043
1946	0.2041
1955	0.2053
1964	0.2198
1973	0.2357
1982	0.2475
1991	0.2603
2000	0.272
2009	0.2811
2018	0.2812
2027	0.2804
2036	0.2794
2045	0.2755
2054	0.2735
2063	0.2684
2072	0.258
2081	0.2481
2090	0.2444
2099	0.2435
2108	0.2427
2117	0.242
2126	0.2413
2135	0.2406
2144	0.2401
2153	0.235
2162	0.2255
2171	0.2134
2180	0.205
2189	0.2027
2198	0.1983
2207	0.1825
2216	0.1737
2225	0.1707
2234	0.1678
2243	0.1647
2252	0.1617
2261	0.1593
2270	0.1571
2279	0.1562
2288	0.1526
2297	0.1444
2306	0.1388
2315	0.1373
2324	0.1353
2333	0.122
2342	0.1038
2351	0.0932
2360	0.0895
2369	0.0881
2378	0.0878
2387	0.0865
2396	0.0848
2405	0.0804
2414	0.0749
2423	0.0699
2432	0.0649
2441	0.0599
2450	0.0546
2459	0.049
2468	0.0442
2477	0.0424
2486	0.0416
2495	0.0398
2504	0.0352
2513	0.0264
2522	0.0167
2531	0.0163
2540	0.0163
2549	0.0163
2558	0.0164
2567	0.0166
2576	0.0168
2585	0.0171
2594	0.0174
2603	0.0177
2612	0.018
2621	0.0181
2630	0.0183
2639	0.0184
2648	0.0186
2657	0.0187
2666	0.0187
2675	0.0186
2684	0.0185
2693	0.0185
2702	0.0184
2711	0.0183
2720	0.0182
2729	0.018
2738	0.0178
2747	0.0177
2756	0.0175
2765	0.0173
2774	0.0171
2783	0.0171
2792	0.017
2801	0.017
2810	0.017
2819	0.0169
2828	0.0169
2837	0.0169
2846	0.0168
2855	0.0168
2864	0.0168
2873	0.0168
2882	0.0168
2891	0.0169
2900	0.0169
2909	0.0169
2918	0.017
2927	0.017
2936	0.017
2945	0.0171
2954	0.0171
2963	0.0172
2972	0.0173
2981	0.0176
2990	0.0192
2999	0.0208
3008	0.0224
3017	0.024
3026	0.0258
3035	0.0277
3044	0.0293
3053	0.0308
3062	0.0317
3071	0.0322
3080	0.0323
3089	0.0322
3098	0.0322
3107	0.0323
3116	0.0323
3125	0.0326
3134	0.0334
3143	0.0364
3152	0.0422
3161	0.0517
3170	0.0762
3179	0.0922
3188	0.1046
3197	0.1147
3206	0.1242
3215	0.1325
3224	0.1457
3233	0.1738
3242	0.202
3251	0.2298
3260	0.2576
3269	0.2853
3278	0.315
3287	0.34
3296	0.3547
3305	0.3608
3314	0.3665
3323	0.3716
3332	0.3738
3341	0.3751
3350	0.3755
3359	0.3755
3368	0.3744
3377	0.3731
3386	0.3715
3395	0.3702
3404	0.3696
3413	0.3699
3422	0.3703
3431	0.371
3440	0.3721
3449	0.3735
3458	0.3765
3467	0.383
3476	0.3896
3485	0.3927
3494	0.3939
3503	0.3951
3512	0.3965
3521	0.3979
3530	0.4007
3539	0.4088
3548	0.4172
3557	0.4224
3566	0.4246
3575	0.4267
3584	0.4282
3593	0.4289
3602	0.4296
3611	0.4303
3620	0.4308
3629	0.4311
3638	0.4312
3647	0.4315
3656	0.4316
3665	0.4312
3674	0.4305
3683	0.4297
3692	0.4277
3701	0.4249
3710	0.4215
3719	0.4167
3728	0.4112
3737	0.4048
3746	0.3959
3755	0.3893
3764	0.3868
3773	0.3861
3782	0.3853
3791	0.3844
3800	0.3834
3809	0.3819
3818	0.3785
3827	0.3746
3836	0.3702
3845	0.3657
3854	0.3614
3863	0.3578
3872	0.3545
3881	0.3511
3890	0.3477
3899	0.3445
3908	0.3414
3917	0.339
3926	0.3368
3935	0.3345
3944	0.3322
3953	0.3296
3962	0.3271
3971	0.3246
3980	0.3221
3989	0.3196
3998	0.3175
