Infrared Spectrum: SODIUM DIGLYCOLATE
Formula: C4 H4 O5 Na2
State: SOLID (MINERAL OIL MULL)
Class: COBLENTZ
Instrument: Not specified, most likely a prism, grating, or hybrid spectrometer.
Sampling: TRANSMISSION
Resolution: 4
Origin: DOW CHEMICAL COMPANY
MICROMETERS	TRANSMITTANCE
2.02	0.918
2.06006	0.923
2.10012	0.933
2.14018	0.935
2.18023	0.928
2.22029	0.885
2.26035	0.876
2.30041	0.881
2.34047	0.89
2.38053	0.893
2.42059	0.901
2.46065	0.916
2.5007	0.918
2.54076	0.918
2.58082	0.915
2.62088	0.916
2.66094	0.913
2.701	0.883
2.74106	0.851
2.78112	0.79
2.82117	0.68
2.86123	0.582
2.90129	0.49
2.94135	0.409
2.98141	0.327
3.02147	0.296
3.06153	0.341
3.10159	0.396
3.14164	0.462
3.1817	0.52
3.22176	0.55
3.26182	0.554
3.30188	0.454
3.34194	0.148
3.382	0.033
3.42206	0.054
3.46211	0.113
3.50217	0.545
3.54223	0.74
3.58229	0.795
3.62235	0.801
3.66241	0.811
3.70247	0.815
3.74253	0.821
3.78258	0.835
3.82264	0.858
3.8627	0.865
3.90276	0.868
3.94282	0.873
3.98288	0.871
4.02294	0.87
4.06299	0.871
4.10305	0.865
4.14311	0.861
4.18317	0.845
4.22323	0.83
4.26329	0.845
4.30335	0.863
4.34341	0.866
4.38346	0.875
4.42352	0.878
4.46358	0.876
4.50364	0.873
4.5437	0.876
4.58376	0.888
4.62382	0.886
4.66388	0.888
4.70393	0.888
4.74399	0.895
4.78405	0.895
4.82411	0.895
4.86417	0.9
4.90423	0.9
4.94429	0.9
4.98435	0.895
5.0244	0.898
5.06446	0.9
5.10452	0.893
5.14458	0.89
5.18464	0.885
5.2247	0.881
5.26476	0.876
5.30482	0.868
5.34487	0.865
5.38493	0.861
5.42499	0.851
5.46505	0.84
5.50511	0.821
5.54517	0.8
5.58523	0.777
5.62528	0.748
5.66534	0.72
5.7054	0.673
5.74546	0.599
5.78552	0.534
5.82558	0.565
5.86564	0.589
5.9057	0.577
5.94575	0.514
5.98581	0.434
6.02587	0.309
6.06593	0.181
6.10599	0.136
6.14605	0.121
6.18611	0.139
6.22617	0.171
6.26622	0.261
6.30628	0.362
6.34634	0.47
6.3864	0.549
6.42646	0.6
6.46652	0.645
6.50658	0.658
6.54664	0.662
6.58669	0.68
6.62675	0.695
6.66681	0.687
6.70687	0.61
6.74693	0.494
6.78699	0.241
6.82705	0.189
6.86711	0.217
6.90716	0.212
6.94722	0.184
6.98728	0.149
7.02734	0.224
7.0674	0.361
7.10746	0.482
7.14752	0.54
7.18758	0.462
7.22763	0.376
7.26769	0.479
7.30775	0.599
7.34781	0.653
7.38787	0.66
7.42793	0.685
7.46799	0.708
7.50804	0.673
7.5481	0.55
7.58816	0.351
7.62822	0.216
7.66828	0.409
7.70834	0.565
7.7484	0.642
7.78846	0.677
7.82851	0.695
7.86857	0.705
7.90863	0.703
7.94869	0.65
7.98875	0.677
8.02881	0.745
8.06887	0.748
8.10893	0.74
8.14898	0.775
8.18904	0.778
8.2291	0.783
8.26916	0.78
8.30922	0.78
8.34928	0.777
8.38934	0.765
8.4294	0.748
8.46945	0.717
8.50951	0.665
8.54957	0.607
8.58963	0.525
8.62969	0.394
8.66975	0.261
8.70981	0.222
8.74987	0.291
8.78992	0.379
8.82998	0.489
8.87004	0.569
8.9101	0.615
8.95016	0.652
8.99022	0.683
9.03028	0.715
9.07034	0.74
9.11039	0.758
9.15045	0.77
9.19051	0.775
9.23057	0.773
9.27063	0.748
9.31069	0.653
9.35075	0.532
9.3908	0.469
9.43086	0.595
9.47092	0.685
9.51098	0.737
9.55104	0.75
9.5911	0.712
9.63116	0.692
9.67122	0.722
9.71127	0.768
9.75133	0.783
9.79139	0.792
9.83145	0.792
9.87151	0.79
9.91157	0.798
9.95163	0.798
9.99169	0.798
10.0317	0.797
10.0718	0.795
10.1119	0.795
10.1519	0.788
10.192	0.783
10.232	0.777
10.2721	0.777
10.3122	0.772
10.3522	0.773
10.3923	0.775
10.4323	0.768
10.4724	0.777
10.5124	0.78
10.5525	0.787
10.5926	0.79
10.6326	0.783
10.6727	0.76
10.7127	0.707
10.7528	0.655
10.7929	0.662
10.8329	0.712
10.873	0.74
10.913	0.76
10.9531	0.773
10.9932	0.775
11.0332	0.772
11.0733	0.773
11.1133	0.773
11.1534	0.77
11.1934	0.768
11.2335	0.77
11.2736	0.772
11.3136	0.775
11.3537	0.778
11.3937	0.778
11.4338	0.778
11.4739	0.775
11.5139	0.77
11.554	0.768
11.594	0.765
11.6341	0.765
11.6742	0.758
11.7142	0.755
11.7543	0.75
11.7943	0.748
11.8344	0.745
11.8744	0.742
11.9145	0.738
11.9546	0.733
11.9946	0.727
12.0347	0.717
12.0747	0.71
12.1148	0.7
12.1549	0.69
12.1949	0.678
12.235	0.668
12.275	0.657
12.3151	0.643
12.3552	0.63
12.3952	0.612
12.4353	0.589
12.4753	0.574
12.5154	0.55
12.5554	0.532
12.5955	0.514
12.6356	0.495
12.6756	0.482
12.7157	0.472
12.7557	0.469
12.7958	0.464
12.8359	0.462
12.8759	0.462
12.916	0.467
12.956	0.472
12.9961	0.477
13.0361	0.482
13.0762	0.489
13.1163	0.49
13.1563	0.494
13.1964	0.492
13.2364	0.494
13.2765	0.489
13.3166	0.482
13.3566	0.479
13.3967	0.472
13.4367	0.46
13.4768	0.45
13.5169	0.439
13.5569	0.425
13.597	0.405
13.637	0.387
13.6771	0.367
13.7171	0.356
13.7572	0.356
13.7973	0.371
13.8373	0.392
13.8774	0.405
13.9174	0.44
13.9575	0.46
13.9976	0.477
14.0376	0.485
14.0777	0.494
14.1177	0.495
14.1578	0.495
14.1979	0.495
14.2379	0.495
14.278	0.494
14.318	0.49
14.3581	0.489
14.3981	0.485
14.4382	0.48
14.4783	0.474
14.5183	0.465
14.5584	0.455
14.5984	0.45
14.6385	0.442
14.6786	0.439
14.7186	0.432
14.7587	0.427
14.7987	0.425
14.8388	0.415
14.8788	0.409
14.9189	0.402
14.959	0.396
14.999	0.389
15.0391	0.384
15.0791	0.379
15.1192	0.372
15.1593	0.369
15.1993	0.362
15.2394	0.352
15.2794	0.339
15.3195	0.331
15.3596	0.321
15.3996	0.312
15.4397	0.299
15.4797	0.289
15.5198	0.282
15.5598	0.271
15.5999	0.261
15.64	0.256
15.68	0.247
15.7201	0.244
15.7601	0.239
15.8002	0.239
15.8403	0.239
15.8803	0.236
