Infrared Spectrum: FERROUS SULFATE
Formula: Fe S O4  * 7 H2 O
State: SOLID (NUJOL MULL)
Class: COBLENTZ
Instrument: Not specified, most likely a prism, grating, or hybrid spectrometer.
Sampling: TRANSMISSION
Resolution: 4
Origin: MELLON INSTITUTE
MICROMETERS	TRANSMITTANCE
2.048	0.914
2.08795	0.921
2.1279	0.926
2.16785	0.931
2.2078	0.933
2.24775	0.939
2.2877	0.939
2.32765	0.939
2.3676	0.939
2.40755	0.941
2.4475	0.943
2.48745	0.949
2.5274	0.949
2.56735	0.946
2.6073	0.949
2.64725	0.943
2.6872	0.933
2.72715	0.901
2.7671	0.759
2.80705	0.606
2.84701	0.482
2.88696	0.414
2.92691	0.39
2.96686	0.38
3.00681	0.375
3.04676	0.378
3.08671	0.392
3.12666	0.417
3.16661	0.482
3.20656	0.574
3.24651	0.634
3.28646	0.664
3.32641	0.479
3.36636	0.305
3.40631	0.322
3.44626	0.412
3.48621	0.577
3.52616	0.851
3.56611	0.916
3.60606	0.939
3.64601	0.948
3.68596	0.949
3.72591	0.951
3.76586	0.953
3.80581	0.954
3.84576	0.953
3.88571	0.961
3.92566	0.963
3.96561	0.963
4.00556	0.964
4.04551	0.964
4.08546	0.956
4.12541	0.951
4.16536	0.939
4.20531	0.926
4.24526	0.921
4.28521	0.914
4.32516	0.913
4.36512	0.918
4.40507	0.923
4.44502	0.924
4.48497	0.926
4.52492	0.924
4.56487	0.923
4.60482	0.923
4.64477	0.924
4.68472	0.924
4.72467	0.924
4.76462	0.924
4.80457	0.929
4.84452	0.933
4.88447	0.934
4.92442	0.934
4.96437	0.936
5.00432	0.936
5.04427	0.938
5.08422	0.943
5.12417	0.944
5.16412	0.951
5.20407	0.951
5.24402	0.953
5.28397	0.954
5.32392	0.954
5.36387	0.954
5.40382	0.959
5.44377	0.964
5.48372	0.963
5.52367	0.964
5.56362	0.969
5.60357	0.969
5.64352	0.973
5.68347	0.973
5.72342	0.971
5.76337	0.969
5.80332	0.968
5.84327	0.961
5.88323	0.954
5.92318	0.941
5.96313	0.918
6.00308	0.871
6.04303	0.797
6.08298	0.766
6.12293	0.699
6.16288	0.694
6.20283	0.741
6.24278	0.799
6.28273	0.849
6.32268	0.869
6.36263	0.888
6.40258	0.896
6.44253	0.913
6.48248	0.924
6.52243	0.926
6.56238	0.933
6.60233	0.936
6.64228	0.943
6.68223	0.939
6.72218	0.928
6.76213	0.856
6.80208	0.719
6.84203	0.707
6.88198	0.752
6.92193	0.808
6.96188	0.863
7.00183	0.898
7.04178	0.914
7.08173	0.926
7.12168	0.929
7.16163	0.914
7.20158	0.804
7.24153	0.811
7.28148	0.856
7.32143	0.888
7.36138	0.914
7.40134	0.919
7.44129	0.923
7.48124	0.928
7.52119	0.929
7.56114	0.931
7.60109	0.933
7.64104	0.933
7.68099	0.933
7.72094	0.928
7.76089	0.926
7.80084	0.928
7.84079	0.923
7.88074	0.919
7.92069	0.916
7.96064	0.913
8.00059	0.916
8.04054	0.906
8.08049	0.896
8.12044	0.891
8.16039	0.881
8.20034	0.866
8.24029	0.851
8.28024	0.831
8.32019	0.804
8.36014	0.782
8.40009	0.746
8.44004	0.701
8.47999	0.642
8.51994	0.572
8.55989	0.495
8.59984	0.445
8.63979	0.407
8.67974	0.388
8.71969	0.38
8.75964	0.375
8.79959	0.37
8.83954	0.36
8.87949	0.345
8.91945	0.333
8.9594	0.32
8.99935	0.305
9.0393	0.293
9.07925	0.285
9.1192	0.277
9.15915	0.273
9.1991	0.267
9.23905	0.267
9.279	0.27
9.31895	0.278
9.3589	0.292
9.39885	0.302
9.4388	0.325
9.47875	0.372
9.5187	0.402
9.55865	0.439
9.5986	0.479
9.63855	0.512
9.6785	0.552
9.71845	0.584
9.7584	0.621
9.79835	0.642
9.8383	0.664
9.87825	0.696
9.9182	0.712
9.95815	0.722
9.9981	0.734
10.0381	0.731
10.078	0.726
10.118	0.739
10.1579	0.749
10.1979	0.762
10.2378	0.774
10.2778	0.782
10.3177	0.782
10.3577	0.796
10.3976	0.799
10.4376	0.801
10.4775	0.813
10.5175	0.816
10.5574	0.823
10.5974	0.839
10.6373	0.851
10.6773	0.854
10.7172	0.863
10.7572	0.869
10.7971	0.874
10.8371	0.883
10.877	0.889
10.917	0.894
10.9569	0.901
10.9969	0.906
11.0368	0.914
11.0768	0.919
11.1167	0.923
11.1567	0.924
11.1966	0.928
11.2366	0.933
11.2765	0.934
11.3165	0.939
11.3564	0.943
11.3964	0.946
11.4363	0.949
11.4763	0.949
11.5162	0.951
11.5562	0.951
11.5961	0.949
11.6361	0.951
11.676	0.951
11.716	0.953
11.7559	0.954
11.7959	0.954
11.8358	0.954
11.8758	0.956
11.9157	0.956
11.9557	0.958
11.9956	0.961
12.0356	0.963
12.0755	0.963
12.1155	0.963
12.1554	0.963
12.1954	0.963
12.2353	0.963
12.2753	0.961
12.3152	0.954
12.3552	0.951
12.3951	0.949
12.4351	0.951
12.475	0.949
12.515	0.949
12.5549	0.943
12.5949	0.938
12.6348	0.936
12.6748	0.928
12.7147	0.923
12.7547	0.919
12.7946	0.916
12.8346	0.913
12.8745	0.908
12.9145	0.903
12.9544	0.899
12.9944	0.896
13.0343	0.889
13.0743	0.884
13.1142	0.876
13.1542	0.874
13.1941	0.869
13.2341	0.856
13.274	0.849
13.314	0.839
13.3539	0.829
13.3939	0.819
13.4338	0.803
13.4738	0.791
13.5137	0.782
13.5537	0.774
13.5936	0.764
13.6336	0.761
13.6735	0.752
13.7135	0.742
13.7534	0.729
13.7934	0.722
13.8333	0.712
13.8733	0.709
13.9132	0.706
13.9532	0.702
13.9931	0.696
14.0331	0.689
14.073	0.687
14.113	0.682
14.1529	0.679
14.1929	0.677
14.2328	0.674
14.2728	0.671
14.3127	0.667
14.3527	0.662
14.3926	0.661
14.4326	0.659
14.4725	0.656
14.5125	0.651
14.5524	0.647
14.5924	0.649
14.6323	0.647
14.6723	0.639
14.7122	0.636
14.7522	0.636
14.7921	0.637
14.8321	0.642
14.872	0.641
14.912	0.629
14.9519	0.626
14.9919	0.622
15.0318	0.622
15.0718	0.619
15.1117	0.617
15.1517	0.616
15.1916	0.614
15.2316	0.614
15.2715	0.612
15.3115	0.612
15.3514	0.612
15.3914	0.612
15.4313	0.611
15.4713	0.612
15.5112	0.612
15.5512	0.619
15.5911	0.619
15.6311	0.622
15.671	0.629
15.711	0.634
15.7509	0.644
15.7909	0.654
15.8308	0.662
15.8708	0.671
15.9107	0.679
15.9507	0.684
15.9906	0.687
