Infrared Spectrum: Calcium sodium citrate
Formula: C6 H5 Ca Na O7
State: SOLID (SPLIT MULL)
Class: COBLENTZ III
Instrument: DOW KBr FOREPRISM-GRATING
Instrument parameters: BLAZED AT 3.5, 12.0, 20.0 MICRON AND CHANGED AT 5.0, 7.5, 14.9 MICRON
Sampling: TRANSMISSION
Resolution: 2
Origin: DOW CHEMICAL COMPANY
1/CM	TRANSMITTANCE
3800	0.882
3791	0.8834
3782	0.8851
3773	0.8867
3764	0.8877
3755	0.8831
3746	0.8794
3737	0.8805
3728	0.8833
3719	0.8857
3710	0.8877
3701	0.8887
3692	0.8884
3683	0.887
3674	0.8848
3665	0.8837
3656	0.8845
3647	0.8855
3638	0.8857
3629	0.8846
3620	0.8837
3611	0.8828
3602	0.8823
3593	0.8809
3584	0.8796
3575	0.8774
3566	0.8751
3557	0.8734
3548	0.8721
3539	0.871
3530	0.8693
3521	0.8677
3512	0.866
3503	0.8645
3494	0.8628
3485	0.8613
3476	0.8603
3467	0.8593
3458	0.8583
3449	0.8573
3440	0.8563
3431	0.8554
3422	0.8544
3413	0.8536
3404	0.8528
3395	0.8517
3386	0.8505
3377	0.8492
3368	0.8481
3359	0.8466
3350	0.8452
3341	0.8439
3332	0.8428
3323	0.8416
3314	0.8396
3305	0.8375
3296	0.8346
3287	0.8315
3278	0.8277
3269	0.8238
3260	0.8199
3251	0.8154
3242	0.8104
3233	0.8058
3224	0.8006
3215	0.7948
3206	0.7887
3197	0.7819
3188	0.7755
3179	0.7672
3170	0.7591
3161	0.7512
3152	0.7432
3143	0.7347
3134	0.7255
3125	0.7147
3116	0.7011
3107	0.6844
3098	0.6653
3089	0.6455
3080	0.631
3071	0.6187
3062	0.616
3053	0.6246
3044	0.644
3035	0.6708
3026	0.6937
3017	0.7105
3008	0.7256
2999	0.7398
2990	0.7515
2981	0.7608
2972	0.7558
2963	0.7507
2954	0.7669
2945	0.7671
2936	0.7658
2927	0.7758
2918	0.7864
2909	0.7992
2900	0.8107
2891	0.821
2882	0.8278
2873	0.8289
2864	0.8288
2855	0.8325
2846	0.8377
2837	0.8438
2828	0.8481
2819	0.8506
2810	0.8515
2801	0.8514
2792	0.8509
2783	0.8488
2774	0.8441
2765	0.8321
2756	0.8186
2747	0.8131
2738	0.8165
2729	0.8309
2720	0.8492
2711	0.8592
2702	0.8667
2693	0.868
2684	0.8677
2675	0.8674
2666	0.8665
2657	0.8653
2648	0.8692
2639	0.8783
2630	0.8847
2621	0.8881
2612	0.89
2603	0.8909
2594	0.8918
2585	0.8924
2576	0.8928
2567	0.8932
2558	0.8936
2549	0.8938
2540	0.8941
2531	0.8944
2522	0.8948
2513	0.8947
2504	0.8938
2495	0.8925
2486	0.8897
2477	0.8868
2468	0.8843
2459	0.8818
2450	0.8815
2441	0.8832
2432	0.8856
2423	0.8871
2414	0.8885
2405	0.8877
2396	0.8863
2387	0.8846
2378	0.8818
2369	0.8791
2360	0.8771
2351	0.8754
2342	0.8741
2333	0.873
2324	0.8721
2315	0.8728
2306	0.8742
2297	0.8766
2288	0.8791
2279	0.8817
2270	0.8846
2261	0.8871
2252	0.89
2243	0.8933
2234	0.8966
2225	0.9004
2216	0.9021
2207	0.9035
2198	0.905
2189	0.9064
2180	0.9082
2171	0.9099
2162	0.9116
2153	0.9133
2144	0.9156
2135	0.9178
2126	0.9202
2117	0.9221
2108	0.9244
2099	0.9271
2090	0.9298
2081	0.9324
2072	0.9347
2063	0.9368
2054	0.9388
2045	0.9399
2036	0.9417
2027	0.9438
2018	0.9458
2009	0.9468
2000	0.9548
1991	0.9853
1982	0.9888
1973	0.9906
1964	0.9925
1955	1.0037
1946	0.9984
1937	0.996
1928	0.9951
1919	0.9948
1910	0.9948
1901	0.9943
1892	0.9927
1883	0.9898
1874	0.9885
1865	0.9873
1856	0.988
1847	0.9887
1838	0.9862
1829	0.9864
1820	0.9868
1811	0.9873
1802	0.9875
1793	0.9865
1784	0.9809
1775	0.9809
1766	0.9802
1757	0.9791
1748	0.9765
1739	0.9721
1730	0.9655
1721	0.958
1712	0.951
1703	0.9455
1694	0.9343
1685	0.8973
1676	0.8092
1667	0.5438
1658	0.7246
1649	0.7657
1640	0.6746
1631	0.4917
1622	0.2492
1613	0.132
1604	0.1415
1595	0.3796
1586	0.338
1577	0.2959
1568	0.5426
1559	0.5764
1550	0.2884
1541	0.2111
1532	0.524
1523	0.7257
1514	0.7988
1505	0.8301
1496	0.854
1487	0.8548
1478	0.775
1469	0.5026
1460	0.7382
1451	0.7247
1442	0.5475
1433	0.2004
1424	0.2734
1415	0.4049
1406	0.5377
1397	0.5408
1388	0.524
1379	0.6604
1370	0.7208
1361	0.778
1352	0.7951
1343	0.7625
1334	0.7793
1325	0.82
1316	0.7357
1307	0.5445
1298	0.7395
1289	0.67
1280	0.6725
1271	0.4889
1262	0.7742
1253	0.8161
1244	0.8275
1235	0.8224
1226	0.8204
1217	0.8069
1208	0.7451
1199	0.7203
1190	0.7871
1181	0.8055
1172	0.8064
1163	0.7828
1154	0.5164
1145	0.7618
1136	0.8125
1127	0.8172
1118	0.8314
1109	0.8502
1100	0.8463
1091	0.7322
1082	0.4221
1073	0.7794
1064	0.7835
1055	0.8312
1046	0.8552
1037	0.8593
1028	0.8627
1019	0.8665
1010	0.8683
1001	0.8725
992	0.8731
983	0.861
974	0.8237
965	0.8182
956	0.8365
947	0.8431
938	0.7824
929	0.8247
920	0.8056
911	0.8528
902	0.8549
893	0.8095
884	0.8345
875	0.8638
866	0.8673
857	0.8671
848	0.8371
839	0.6228
830	0.8397
821	0.8601
812	0.8535
803	0.8108
794	0.7925
785	0.8277
776	0.8503
767	0.8585
758	0.8608
749	0.8575
740	0.8306
731	0.8261
722	0.8118
713	0.8413
704	0.8351
695	0.8659
686	0.8889
677	0.8975
668	0.8875
659	0.7778
650	0.6575
641	0.8653
632	0.888
623	0.8839
614	0.6593
605	0.6861
596	0.6352
587	0.8702
578	0.8432
569	0.8485
560	0.8906
551	0.8837
542	0.8036
533	0.7875
524	0.8763
515	0.9015
506	0.9203
497	0.9343
488	0.9445
479	0.9532
470	0.9612
461	0.9675
452	0.9681
443	0.9615
434	0.9495
425	0.9444
416	0.9433
407	0.9362
398	0.9527
389	0.9717
