Infrared Spectrum: MORPHINE, SULFATE (PENTAHYDRATE)
Formula: C34 H40 N2 O10 S  * 5 H2 O
State: SOLID (1.2 mg / 250 mg KBr DISC)
Melting point: ABOUT 250 C DECOMP.
Class: COBLENTZ III
Instrument: PERKIN-ELMER 21 (GRATING)
Instrument parameters: FILTER AT ABOUT 10 MICRONS
Sampling: TRANSMISSION
Resolution: 2
Origin: BUREAU OF CUSTOMS
1/CM	TRANSMITTANCE
4000	0.9075
3991	0.908
3982	0.9086
3973	0.909
3964	0.9096
3955	0.9101
3946	0.9106
3937	0.9113
3928	0.912
3919	0.9127
3910	0.9134
3901	0.9144
3892	0.9156
3883	0.917
3874	0.9186
3865	0.9204
3856	0.9227
3847	0.9242
3838	0.9242
3829	0.9225
3820	0.9196
3811	0.9184
3802	0.9178
3793	0.9174
3784	0.9171
3775	0.9167
3766	0.915
3757	0.9125
3748	0.9083
3739	0.9028
3730	0.8938
3721	0.8842
3712	0.87
3703	0.8545
3694	0.8377
3685	0.8185
3676	0.7971
3667	0.7678
3658	0.73
3649	0.6901
3640	0.6711
3631	0.6112
3622	0.5418
3613	0.503
3604	0.4639
3595	0.4247
3586	0.3852
3577	0.3456
3568	0.3065
3559	0.2705
3550	0.2488
3541	0.2335
3532	0.2149
3523	0.1978
3514	0.1887
3505	0.1816
3496	0.1737
3487	0.1654
3478	0.1533
3469	0.1433
3460	0.1346
3451	0.1317
3442	0.1299
3433	0.1295
3424	0.13
3415	0.1351
3406	0.1469
3397	0.1596
3388	0.1717
3379	0.1833
3370	0.1928
3361	0.1987
3352	0.2043
3343	0.208
3334	0.2117
3325	0.2151
3316	0.2168
3307	0.2177
3298	0.2175
3289	0.2167
3280	0.2132
3271	0.2103
3262	0.2088
3253	0.2076
3244	0.2066
3235	0.2066
3226	0.2068
3217	0.2084
3208	0.2103
3199	0.2138
3190	0.2179
3181	0.225
3172	0.2331
3163	0.2425
3154	0.2522
3145	0.2628
3136	0.2737
3127	0.284
3118	0.2928
3109	0.2997
3100	0.3063
3091	0.312
3082	0.3146
3073	0.316
3064	0.3174
3055	0.3198
3046	0.33
3037	0.3462
3028	0.3675
3019	0.3834
3010	0.3898
3001	0.3907
2992	0.3924
2983	0.3946
2974	0.3996
2965	0.4101
2956	0.4237
2947	0.4409
2938	0.471
2929	0.505
2920	0.5187
2911	0.5316
2902	0.5333
2893	0.5336
2884	0.5299
2875	0.5279
2866	0.5317
2857	0.5387
2848	0.546
2839	0.551
2830	0.5521
2821	0.5412
2812	0.535
2803	0.5346
2794	0.5321
2785	0.5257
2776	0.5133
2767	0.5021
2758	0.4978
2749	0.4825
2740	0.4755
2731	0.4725
2722	0.4685
2713	0.4617
2704	0.4528
2695	0.4465
2686	0.4424
2677	0.4393
2668	0.4391
2659	0.4399
2650	0.4458
2641	0.4535
2632	0.4571
2623	0.4568
2614	0.4587
2605	0.4712
2596	0.4792
2587	0.4779
2578	0.4595
2569	0.4429
2560	0.4382
2551	0.4402
2542	0.443
2533	0.4396
2524	0.4328
2515	0.4312
2506	0.4346
2497	0.4454
2488	0.456
2479	0.4696
2470	0.4809
2461	0.4904
2452	0.4998
2443	0.5092
2434	0.5208
2425	0.5339
2416	0.5478
2407	0.5588
2398	0.5637
2389	0.5651
2380	0.5684
2371	0.5793
2362	0.5922
2353	0.6062
2344	0.6189
2335	0.6323
2326	0.6437
2317	0.6522
2308	0.6608
2299	0.6676
2290	0.6742
2281	0.6808
2272	0.6878
2263	0.6951
2254	0.7024
2245	0.7087
2236	0.7149
2227	0.7211
2218	0.7276
2209	0.7344
2200	0.7411
2191	0.7478
2182	0.7545
2173	0.761
2164	0.7675
2155	0.7742
2146	0.7808
2137	0.7874
2128	0.7939
2119	0.8001
2110	0.8061
2101	0.8118
2092	0.818
2083	0.8246
2074	0.8312
2065	0.8378
2056	0.8445
2047	0.8516
2038	0.8591
2029	0.8659
2020	0.8723
2011	0.8777
2002	0.8809
1993	0.883
1984	0.8888
1975	0.8934
1966	0.8978
1957	0.9014
1948	0.9048
1939	0.9082
1930	0.9116
1921	0.9148
1912	0.9178
1903	0.9204
1894	0.9228
1885	0.9277
1876	0.9248
1867	0.9178
1858	0.9112
1849	0.9093
1840	0.9171
1831	0.9206
1822	0.9201
1813	0.9163
1804	0.9106
1795	0.9053
1786	0.8973
1777	0.8881
1768	0.8792
1759	0.8701
1750	0.8591
1741	0.8453
1732	0.8285
1723	0.8004
1714	0.7647
1705	0.7162
1696	0.6532
1687	0.5839
1678	0.4482
1669	0.3604
1660	0.4088
1651	0.4854
1642	0.4625
1633	0.4824
1624	0.6247
1615	0.7382
1606	0.7721
1597	0.7896
1588	0.7999
1579	0.8092
1570	0.8137
1561	0.8097
1552	0.7937
1543	0.7151
1534	0.5481
1525	0.3336
1516	0.199
1507	0.3192
1498	0.3528
1489	0.3439
1480	0.4366
1471	0.4657
1462	0.4707
1453	0.4232
1444	0.5656
1435	0.5595
1426	0.6333
1417	0.6343
1408	0.5862
1399	0.5046
1390	0.4114
1381	0.3592
1372	0.3522
1363	0.4786
1354	0.471
1345	0.3543
1336	0.2517
1327	0.2541
1318	0.3354
1309	0.5068
1300	0.5353
1291	0.4233
1282	0.3882
1273	0.456
1264	0.5275
1255	0.5139
1246	0.6029
1237	0.6425
1228	0.6366
1219	0.6761
1210	0.5775
1201	0.6107
1192	0.5134
1183	0.3838
1174	0.3282
1165	0.1767
1156	0.1745
1147	0.1011
1138	0.0676
1129	0.0496
1120	0.1302
1111	0.1919
1102	0.1515
1093	0.0811
1084	0.0608
1075	0.0586
1066	0.1092
1057	0.0975
1048	0.1
1039	0.1244
1030	0.187
1021	0.2684
1012	0.4614
1003	0.563
994	0.5941
985	0.5471
976	0.355
967	0.3904
958	0.5094
949	0.5292
940	0.4422
931	0.4932
922	0.6316
913	0.7058
904	0.7462
895	0.7403
886	0.7274
877	0.5383
868	0.6578
859	0.7062
850	0.4523
841	0.5673
832	0.6385
823	0.6514
814	0.6062
805	0.4815
796	0.2147
787	0.412
778	0.4883
769	0.5856
760	0.4157
751	0.5737
742	0.6006
733	0.5949
724	0.5615
715	0.4798
706	0.4182
697	0.445
688	0.4538
679	0.4248
670	0.3896
661	0.3856
