Infrared Spectrum: SODIUM CHROMATE
Formula: Na2 Cr O4
State: SOLID (NUJOL MULL)
Class: COBLENTZ
Instrument: Not specified, most likely a prism, grating, or hybrid spectrometer.
Sampling: TRANSMISSION
Resolution: 4
Origin: MELLON INSTITUTE
MICROMETERS	TRANSMITTANCE
2.022	0.753
2.06191	0.76
2.10181	0.773
2.14172	0.783
2.18162	0.79
2.22153	0.797
2.26143	0.802
2.30134	0.809
2.34125	0.819
2.38115	0.829
2.42106	0.84
2.46096	0.854
2.50087	0.874
2.54077	0.889
2.58068	0.899
2.62059	0.904
2.66049	0.906
2.7004	0.902
2.7403	0.859
2.78021	0.752
2.82011	0.504
2.86002	0.39
2.89993	0.306
2.93983	0.239
2.97974	0.211
3.01964	0.187
3.05955	0.177
3.09945	0.167
3.13936	0.162
3.17927	0.164
3.21917	0.17
3.25908	0.185
3.29898	0.189
3.33889	0.122
3.37879	0.085
3.4187	0.098
3.45861	0.107
3.49851	0.199
3.53842	0.633
3.57832	0.72
3.61823	0.748
3.65813	0.762
3.69804	0.773
3.73795	0.785
3.77785	0.798
3.81776	0.812
3.85766	0.825
3.89757	0.84
3.93747	0.864
3.97738	0.876
4.01729	0.882
4.05719	0.882
4.0971	0.882
4.137	0.886
4.17691	0.876
4.21681	0.869
4.25672	0.864
4.29663	0.86
4.33653	0.855
4.37644	0.854
4.41634	0.845
4.45625	0.83
4.49615	0.81
4.53606	0.798
4.57597	0.768
4.61587	0.75
4.65578	0.738
4.69568	0.735
4.73559	0.735
4.77549	0.74
4.8154	0.758
4.85531	0.772
4.89521	0.785
4.93512	0.8
4.97502	0.81
5.01493	0.824
5.05483	0.844
5.09474	0.862
5.13465	0.874
5.17455	0.882
5.21446	0.894
5.25436	0.894
5.29427	0.897
5.33417	0.902
5.37408	0.907
5.41399	0.907
5.45389	0.909
5.4938	0.914
5.5337	0.917
5.57361	0.921
5.61351	0.927
5.65342	0.932
5.69333	0.936
5.73323	0.944
5.77314	0.954
5.81304	0.953
5.85295	0.934
5.89285	0.869
5.93276	0.706
5.97267	0.541
6.01257	0.539
6.05248	0.619
6.09238	0.748
6.13229	0.855
6.17219	0.912
6.2121	0.927
6.25201	0.936
6.29191	0.943
6.33182	0.941
6.37172	0.941
6.41163	0.944
6.45153	0.954
6.49144	0.959
6.53135	0.958
6.57125	0.953
6.61116	0.954
6.65106	0.949
6.69097	0.919
6.73087	0.844
6.77078	0.666
6.81069	0.489
6.85059	0.494
6.8905	0.601
6.9304	0.723
6.97031	0.809
7.01021	0.84
7.05012	0.881
7.09003	0.884
7.12993	0.867
7.16984	0.755
7.20974	0.624
7.24965	0.673
7.28955	0.725
7.32946	0.79
7.36937	0.8
7.40927	0.804
7.44918	0.82
7.48908	0.837
7.52899	0.849
7.56889	0.845
7.6088	0.84
7.64871	0.835
7.68861	0.839
7.72852	0.844
7.76842	0.845
7.80833	0.845
7.84823	0.842
7.88814	0.844
7.92805	0.842
7.96795	0.844
8.00786	0.847
8.04776	0.849
8.08767	0.85
8.12757	0.849
8.16748	0.845
8.20739	0.845
8.24729	0.849
8.2872	0.845
8.3271	0.845
8.36701	0.847
8.40691	0.852
8.44682	0.85
8.48673	0.849
8.52663	0.842
8.56654	0.839
8.60644	0.832
8.64635	0.832
8.68625	0.832
8.72616	0.832
8.76607	0.83
8.80597	0.829
8.84588	0.827
8.88578	0.825
8.92569	0.825
8.96559	0.824
9.0055	0.825
9.04541	0.825
9.08531	0.824
9.12522	0.82
9.16512	0.82
9.20503	0.817
9.24493	0.817
9.28484	0.814
9.32475	0.81
9.36465	0.805
9.40456	0.805
9.44446	0.802
9.48437	0.798
9.52427	0.788
9.56418	0.783
9.60409	0.775
9.64399	0.767
9.6839	0.762
9.7238	0.755
9.76371	0.743
9.80361	0.733
9.84352	0.73
9.88343	0.716
9.92333	0.701
9.96324	0.695
10.0031	0.686
10.043	0.681
10.083	0.661
10.1229	0.641
10.1628	0.628
10.2027	0.609
10.2426	0.592
10.2825	0.564
10.3224	0.542
10.3623	0.519
10.4022	0.502
10.4421	0.469
10.482	0.443
10.5219	0.412
10.5618	0.38
10.6017	0.345
10.6416	0.301
10.6815	0.254
10.7214	0.224
10.7614	0.197
10.8013	0.164
10.8412	0.145
10.8811	0.134
10.921	0.128
10.9609	0.12
11.0008	0.118
11.0407	0.112
11.0806	0.102
11.1205	0.09
11.1604	0.082
11.2003	0.08
11.2402	0.082
11.2801	0.087
11.32	0.093
11.3599	0.102
11.3998	0.107
11.4397	0.108
11.4797	0.103
11.5196	0.093
11.5595	0.09
11.5994	0.085
11.6393	0.085
11.6792	0.083
11.7191	0.085
11.759	0.095
11.7989	0.105
11.8388	0.117
11.8787	0.12
11.9186	0.118
11.9585	0.105
11.9984	0.103
12.0383	0.102
12.0782	0.102
12.1181	0.1
12.1581	0.1
12.198	0.097
12.2379	0.102
12.2778	0.11
12.3177	0.12
12.3576	0.127
12.3975	0.15
12.4374	0.179
12.4773	0.204
12.5172	0.241
12.5571	0.268
12.597	0.284
12.6369	0.313
12.6768	0.336
12.7167	0.361
12.7566	0.383
12.7965	0.402
12.8364	0.415
12.8764	0.423
12.9163	0.432
12.9562	0.435
12.9961	0.437
13.036	0.44
13.0759	0.442
13.1158	0.447
13.1557	0.447
13.1956	0.45
13.2355	0.452
13.2754	0.45
13.3153	0.447
13.3552	0.452
13.3951	0.452
13.435	0.45
13.4749	0.448
13.5148	0.443
13.5548	0.443
13.5947	0.442
13.6346	0.442
13.6745	0.435
13.7144	0.428
13.7543	0.427
13.7942	0.425
13.8341	0.42
13.874	0.418
13.9139	0.418
13.9538	0.418
13.9937	0.418
14.0336	0.413
14.0735	0.403
14.1134	0.402
14.1533	0.396
14.1932	0.39
14.2331	0.376
14.2731	0.368
14.313	0.36
14.3529	0.358
14.3928	0.351
14.4327	0.35
14.4726	0.345
14.5125	0.341
14.5524	0.338
14.5923	0.333
14.6322	0.333
14.6721	0.331
14.712	0.331
14.7519	0.338
14.7918	0.348
14.8317	0.351
14.8716	0.356
14.9115	0.355
14.9515	0.355
14.9914	0.36
15.0313	0.36
15.0712	0.37
15.1111	0.375
15.151	0.38
15.1909	0.39
15.2308	0.395
15.2707	0.403
15.3106	0.407
15.3505	0.415
15.3904	0.42
15.4303	0.422
15.4702	0.43
15.5101	0.44
15.55	0.443
15.5899	0.448
15.6298	0.45
15.6698	0.455
15.7097	0.462
15.7496	0.47
15.7895	0.477
15.8294	0.489
15.8693	0.495
15.9092	0.502
15.9491	0.509
15.989	0.515
