Infrared Spectrum: Malonic aicd,[(carboxyamino)oxy]-, triethyl ester
Formula: C10 H17 N O7
State: LIQUID (NEAT)
Class: COBLENTZ III
Instrument: PERKIN-ELMER 21 (GRATING)
Instrument parameters: FILTER CHANGE AT 1075 CM^-^1
Sampling: TRANSMISSION
Path length: CAPILLARY
Resolution: 2
Origin: SOUTHERN RESEARCH INSTITUTE, W.C. Coburn, Jr.
1/CM	TRANSMITTANCE
617.612	0.7433
626.637	0.7555
635.662	0.7783
644.687	0.804
653.712	0.8188
662.737	0.8295
671.762	0.8463
680.787	0.8702
689.812	0.8911
698.837	0.8991
707.862	0.8975
716.887	0.8927
725.912	0.8927
734.936	0.8934
743.961	0.8861
752.986	0.8583
762.011	0.8224
771.036	0.7834
780.061	0.6816
789.086	0.6636
798.111	0.7579
807.136	0.817
816.161	0.8248
825.186	0.8244
834.211	0.8009
843.236	0.7577
852.261	0.728
861.286	0.7406
870.311	0.7432
879.336	0.8138
888.361	0.8255
897.386	0.821
906.411	0.8157
915.436	0.8124
924.461	0.7885
933.486	0.7774
942.511	0.7681
951.536	0.7498
960.561	0.7516
969.585	0.76
978.61	0.7468
987.635	0.7226
996.66	0.7002
1005.69	0.6216
1014.71	0.5593
1023.74	0.4733
1032.76	0.3885
1041.79	0.4747
1050.81	0.5469
1059.84	0.4398
1068.86	0.2134
1077.88	0.2529
1086.91	0.3965
1095.93	0.3642
1104.96	0.3993
1113.98	0.4315
1123.01	0.4439
1132.03	0.4307
1141.06	0.3803
1150.08	0.2923
1159.11	0.274
1168.13	0.2899
1177.16	0.3205
1186.18	0.2725
1195.21	0.2254
1204.23	0.292
1213.26	0.4042
1222.28	0.4524
1231.31	0.4698
1240.33	0.4654
1249.36	0.4591
1258.38	0.4392
1267.41	0.4087
1276.43	0.3928
1285.46	0.3976
1294.48	0.3902
1303.51	0.3288
1312.53	0.2668
1321.56	0.1822
1330.58	0.1138
1339.61	0.1107
1348.63	0.1554
1357.66	0.5089
1366.68	0.5911
1375.71	0.4044
1384.73	0.1889
1393.76	0.4297
1402.78	0.464
1411.81	0.3434
1420.83	0.315
1429.86	0.4035
1438.88	0.5761
1447.91	0.5711
1456.93	0.5075
1465.96	0.5365
1474.98	0.4892
1484.01	0.5644
1493.03	0.6362
1502.06	0.7464
1511.08	0.7672
1520.11	0.7794
1529.13	0.7934
1538.16	0.802
1547.18	0.7967
1556.21	0.7946
1565.23	0.7674
1574.26	0.7419
1583.28	0.6811
1592.31	0.5971
1601.33	0.4242
1610.36	0.4093
1619.38	0.494
1628.41	0.5864
1637.43	0.645
1646.46	0.6732
1655.48	0.6728
1664.51	0.6534
1673.53	0.5885
1682.56	0.4756
1691.58	0.3005
1700.61	0.1498
1709.63	0.078
1718.66	0.0705
1727.68	0.0721
1736.71	0.0798
1745.73	0.0962
1754.76	0.1258
1763.78	0.1785
1772.81	0.3257
1781.83	0.5839
1790.86	0.6835
1799.88	0.7355
1808.91	0.7495
1817.93	0.7695
1826.96	0.7817
1835.98	0.7943
1845.01	0.8043
1854.03	0.8124
1863.06	0.8197
1872.08	0.8243
1881.11	0.8278
1890.13	0.8291
1899.16	0.8283
1908.18	0.8164
1917.21	0.813
1926.23	0.8145
1935.26	0.8209
1944.28	0.8294
1953.31	0.8285
1962.33	0.828
1971.36	0.8268
1980.38	0.8286
1989.41	0.8347
1998.43	0.836
2007.46	0.8346
2016.48	0.8322
2025.51	0.8321
2034.53	0.8367
2043.56	0.8399
2052.58	0.841
2061.61	0.8398
2070.63	0.8366
2079.66	0.8377
2088.68	0.8368
2097.71	0.8373
2106.73	0.8379
2115.76	0.8374
2124.78	0.8367
2133.81	0.8375
2142.83	0.8387
2151.86	0.8428
2160.88	0.8451
2169.91	0.8442
2178.93	0.8433
2187.96	0.8437
2196.98	0.8459
2206.01	0.8457
2215.03	0.8432
2224.06	0.8408
2233.08	0.8386
2242.1	0.837
2251.13	0.8375
2260.15	0.8408
2269.18	0.8423
2278.2	0.8433
2287.23	0.8462
2296.25	0.8484
2305.28	0.8493
2314.3	0.8489
2323.33	0.8456
2332.35	0.8417
2341.38	0.8405
2350.4	0.8349
2359.43	0.8293
2368.45	0.83
2377.48	0.8308
2386.5	0.8315
2395.53	0.8343
2404.55	0.8356
2413.58	0.8377
2422.6	0.8407
2431.63	0.8359
2440.65	0.8328
2449.68	0.8331
2458.7	0.8341
2467.73	0.8344
2476.75	0.8348
2485.78	0.8353
2494.8	0.8359
2503.83	0.8365
2512.85	0.837
2521.88	0.8377
2530.9	0.8385
2539.93	0.839
2548.95	0.8391
2557.98	0.8395
2567	0.8405
2576.03	0.8426
2585.05	0.8402
2594.08	0.8394
2603.1	0.8376
2612.13	0.8355
2621.15	0.8329
2630.18	0.8336
2639.2	0.8383
2648.23	0.8392
2657.25	0.8344
2666.28	0.8302
2675.3	0.8276
2684.33	0.8238
2693.35	0.8199
2702.38	0.8177
2711.4	0.8167
2720.43	0.8157
2729.45	0.8154
2738.48	0.8158
2747.5	0.8158
2756.53	0.8163
2765.55	0.8171
2774.58	0.8143
2783.6	0.8108
2792.63	0.8097
2801.65	0.8074
2810.68	0.8037
2819.7	0.7976
2828.73	0.7911
2837.75	0.7854
2846.78	0.7808
2855.8	0.7738
2864.83	0.7666
2873.85	0.756
2882.88	0.7368
2891.9	0.7236
2900.93	0.7153
2909.95	0.6843
2918.98	0.6551
2928	0.6523
2937.03	0.6488
2946.05	0.6197
2955.08	0.6071
2964.1	0.6065
2973.13	0.567
2982.15	0.5193
2991.18	0.4781
3000.2	0.4281
3009.23	0.4461
3018.25	0.5294
3027.28	0.6075
3036.3	0.6563
3045.33	0.703
3054.35	0.7463
3063.38	0.7663
3072.4	0.7749
3081.43	0.7814
3090.45	0.7827
3099.48	0.7809
3108.5	0.7774
3117.53	0.7718
3126.55	0.7681
3135.58	0.7558
3144.6	0.7422
3153.63	0.7293
3162.65	0.7135
3171.68	0.693
3180.7	0.6739
3189.73	0.6568
3198.75	0.6379
3207.78	0.6295
3216.8	0.6255
3225.83	0.6265
3234.85	0.6301
3243.88	0.6328
3252.9	0.6314
3261.93	0.6261
3270.95	0.6165
3279.98	0.6064
3289	0.595
3298.03	0.5817
3307.05	0.5657
3316.08	0.5481
3325.1	0.5306
3334.13	0.5109
3343.15	0.4921
3352.18	0.4694
3361.2	0.4432
3370.23	0.4316
3379.25	0.4213
3388.27	0.4172
3397.3	0.4199
3406.32	0.4225
3415.35	0.4259
3424.37	0.4323
3433.4	0.4572
3442.42	0.4672
3451.45	0.4745
3460.47	0.4713
3469.5	0.4584
3478.52	0.44
3487.55	0.426
3496.57	0.4178
3505.6	0.4185
3514.62	0.4281
3523.65	0.4493
3532.67	0.4712
3541.7	0.5097
3550.72	0.5522
3559.75	0.6128
3568.77	0.6558
3577.8	0.6978
3586.82	0.7247
3595.85	0.7456
3604.87	0.7536
3613.9	0.7673
3622.92	0.7735
3631.95	0.7761
3640.97	0.7783
3650	0.7804
3659.02	0.7825
3668.05	0.7847
3677.07	0.7872
3686.1	0.7905
3695.12	0.7958
3704.15	0.8054
3713.17	0.8114
3722.2	0.8146
3731.22	0.8169
3740.25	0.8205
3749.27	0.8223
3758.3	0.8287
3767.32	0.8328
3776.35	0.8327
3785.37	0.8324
3794.4	0.8317
3803.42	0.8303
3812.45	0.8281
3821.47	0.826
3830.5	0.8256
3839.52	0.8259
3848.55	0.826
3857.57	0.8263
3866.6	0.8266
3875.62	0.8269
3884.65	0.827
3893.67	0.8273
3902.7	0.8254
3911.72	0.8255
3920.75	0.8273
3929.77	0.8242
3938.8	0.8114
3947.82	0.7022
3956.85	0.7012
3965.87	0.702
3974.9	0.7029
3983.92	0.7033
3992.95	0.7022
4001.97	0.6971
4011	0.6999
