Infrared Spectrum: ACETIC ACID, POTASSIUM SALT
Formula: C2 H3 O2 K
State: SOLID (KCl PELLET)
Class: COBLENTZ
Instrument: Not specified, most likely a prism, grating, or hybrid spectrometer.
Sampling: TRANSMISSION
Resolution: 4
Origin: BELL TELEPHONE LABORATORIES- F. VRATNY
MICROMETERS	TRANSMITTANCE
2.033	0.209
2.0729	0.213
2.11279	0.22
2.15269	0.221
2.19259	0.222
2.23249	0.23
2.27238	0.234
2.31228	0.238
2.35218	0.242
2.39207	0.245
2.43197	0.261
2.47187	0.264
2.51176	0.263
2.55166	0.267
2.59156	0.28
2.63146	0.285
2.67135	0.285
2.71125	0.292
2.75115	0.291
2.79104	0.268
2.83094	0.216
2.87084	0.161
2.91073	0.109
2.95063	0.08
2.99053	0.068
3.03043	0.07
3.07032	0.077
3.11022	0.082
3.15012	0.102
3.19001	0.125
3.22991	0.141
3.26981	0.169
3.30971	0.19
3.3496	0.186
3.3895	0.176
3.4294	0.202
3.46929	0.253
3.50919	0.299
3.54909	0.309
3.58898	0.339
3.62888	0.361
3.66878	0.363
3.70868	0.371
3.74857	0.387
3.78847	0.401
3.82837	0.405
3.86826	0.413
3.90816	0.416
3.94806	0.421
3.98795	0.424
4.02785	0.423
4.06775	0.427
4.10765	0.431
4.14754	0.433
4.18744	0.437
4.22734	0.445
4.26723	0.453
4.30713	0.453
4.34703	0.447
4.38693	0.452
4.42682	0.452
4.46672	0.457
4.50662	0.463
4.54651	0.464
4.58641	0.465
4.62631	0.468
4.6662	0.469
4.7061	0.479
4.746	0.481
4.7859	0.481
4.82579	0.492
4.86569	0.495
4.90559	0.495
4.94548	0.496
4.98538	0.499
5.02528	0.506
5.06517	0.504
5.10507	0.524
5.14497	0.531
5.18487	0.526
5.22476	0.532
5.26466	0.539
5.30456	0.539
5.34445	0.548
5.38435	0.551
5.42425	0.551
5.46415	0.55
5.50404	0.551
5.54394	0.554
5.58384	0.548
5.62373	0.547
5.66363	0.536
5.70353	0.52
5.74342	0.492
5.78332	0.471
5.82322	0.443
5.86312	0.401
5.90301	0.357
5.94291	0.328
5.98281	0.3
6.0227	0.297
6.0626	0.268
6.1025	0.212
6.14239	0.086
6.18229	0.001
6.22219	0.001
6.26209	0.001
6.30198	0.004
6.34188	0
6.38178	0
6.42167	0.006
6.46157	0.033
6.50147	0.088
6.54137	0.14
6.58126	0.181
6.62116	0.201
6.66106	0.226
6.70095	0.233
6.74085	0.233
6.78075	0.23
6.82064	0.216
6.86054	0.162
6.90044	0.122
6.94034	0.07
6.98023	0.001
7.02013	0
7.06003	0
7.09992	0
7.13982	0.004
7.17972	0.06
7.21962	0.15
7.25951	0.217
7.29941	0.291
7.33931	0.331
7.3792	0.34
7.4191	0.315
7.459	0.232
7.49889	0.405
7.53879	0.457
7.57869	0.472
7.61859	0.484
7.65848	0.493
7.69838	0.502
7.73828	0.504
7.77817	0.519
7.81807	0.542
7.85797	0.556
7.89786	0.555
7.93776	0.551
7.97766	0.552
8.01756	0.55
8.05745	0.548
8.09735	0.552
8.13725	0.568
8.17714	0.579
8.21704	0.586
8.25694	0.591
8.29684	0.591
8.33673	0.591
8.37663	0.595
8.41653	0.596
8.45642	0.594
8.49632	0.594
8.53622	0.594
8.57611	0.594
8.61601	0.591
8.65591	0.595
8.69581	0.596
8.7357	0.598
8.7756	0.599
8.8155	0.599
8.85539	0.594
8.89529	0.591
8.93519	0.591
8.97508	0.591
9.01498	0.591
9.05488	0.591
9.09478	0.591
9.13467	0.591
9.17457	0.591
9.21447	0.59
9.25436	0.586
9.29426	0.579
9.33416	0.576
9.37406	0.564
9.41395	0.536
9.45385	0.471
9.49375	0.433
9.53364	0.42
9.57354	0.443
9.61344	0.471
9.65333	0.48
9.69323	0.469
9.73313	0.444
9.77303	0.4
9.81292	0.36
9.85282	0.333
9.89272	0.308
9.93261	0.297
9.97251	0.363
10.0124	0.451
10.0523	0.487
10.0922	0.53
10.1321	0.564
10.172	0.587
10.2119	0.6
10.2518	0.611
10.2917	0.62
10.3316	0.626
10.3715	0.63
10.4114	0.642
10.4513	0.654
10.4912	0.656
10.5311	0.663
10.571	0.66
10.6109	0.659
10.6508	0.659
10.6907	0.651
10.7306	0.61
10.7705	0.558
10.8103	0.464
10.8502	0.335
10.8901	0.186
10.93	0.447
10.9699	0.559
11.0098	0.62
11.0497	0.642
11.0896	0.651
11.1295	0.652
11.1694	0.66
11.2093	0.668
11.2492	0.671
11.2891	0.674
11.329	0.672
11.3689	0.672
11.4088	0.672
11.4487	0.674
11.4886	0.674
11.5285	0.674
11.5684	0.672
11.6083	0.67
11.6482	0.667
11.6881	0.666
11.728	0.659
11.7679	0.654
11.8078	0.646
11.8477	0.648
11.8876	0.644
11.9275	0.642
11.9674	0.639
12.0073	0.636
12.0472	0.63
12.0871	0.624
12.127	0.62
12.1668	0.619
12.2067	0.619
12.2466	0.619
12.2865	0.619
12.3264	0.614
12.3663	0.606
12.4062	0.603
12.4461	0.6
12.486	0.598
12.5259	0.598
12.5658	0.596
12.6057	0.594
12.6456	0.591
12.6855	0.591
12.7254	0.588
12.7653	0.586
12.8052	0.582
12.8451	0.583
12.885	0.582
12.9249	0.584
12.9648	0.58
13.0047	0.588
13.0446	0.588
13.0845	0.582
13.1244	0.578
13.1643	0.579
13.2042	0.579
13.2441	0.582
13.284	0.579
13.3239	0.575
13.3638	0.579
13.4037	0.579
13.4436	0.579
13.4835	0.578
13.5233	0.579
13.5632	0.578
13.6031	0.578
13.643	0.578
13.6829	0.578
13.7228	0.578
13.7627	0.579
13.8026	0.578
13.8425	0.58
13.8824	0.579
13.9223	0.58
13.9622	0.578
14.0021	0.579
14.042	0.58
14.0819	0.58
14.1218	0.58
14.1617	0.58
14.2016	0.582
14.2415	0.58
14.2814	0.58
14.3213	0.58
14.3612	0.579
14.4011	0.58
14.441	0.58
14.4809	0.58
14.5208	0.582
14.5607	0.58
14.6006	0.579
14.6405	0.579
14.6804	0.579
14.7203	0.575
14.7602	0.579
14.8001	0.571
14.8399	0.571
14.8798	0.571
14.9197	0.579
14.9596	0.54
14.9995	0.543
15.0394	0.54
15.0793	0.53
15.1192	0.516
15.1591	0.481
15.199	0.449
15.2389	0.425
15.2788	0.391
15.3187	0.329
15.3586	0.275
15.3985	0.213
15.4384	0.192
15.4783	0.202
