Infrared Spectrum: Acetanilide, N,4-ditertiary butyl-
Formula: C16 H25 N O
State: SOLID (SPLIT MULL); HCB FOR 1-8 MICRON, NUJOL FOR 8-16 MICRON
Class: COBLENTZ III
Instrument: BECKMAN IR-4 (HYBRID PRISM-GRATING)
Instrument parameters: NaCl PRISM
Sampling: TRANSMISSION
Resolution: 2
Origin: MONSANTO (J. FREEMAN)
1/CM	TRANSMITTANCE
626	0.9736
635	0.973
644	0.9816
653	0.9599
662	0.9819
671	0.9891
680	0.9844
689	0.9772
698	0.9727
707	0.9564
716	0.9193
725	0.8794
734	0.9164
743	0.931
752	0.8447
761	0.948
770	0.9488
779	0.9526
788	0.9539
797	0.912
806	0.9158
815	0.9457
824	0.9234
833	0.7539
842	0.5656
851	0.9094
860	0.9361
869	0.9424
878	0.9413
887	0.9307
896	0.9299
905	0.9298
914	0.8905
923	0.8498
932	0.8698
941	0.9094
950	0.8325
959	0.8444
968	0.8839
977	0.9101
986	0.9192
995	0.9168
1004	0.9048
1013	0.8136
1022	0.6683
1031	0.7238
1040	0.7
1049	0.8323
1058	0.8857
1067	0.9035
1076	0.9082
1085	0.9066
1094	0.8999
1103	0.8725
1112	0.5795
1121	0.8466
1130	0.9003
1139	0.9
1148	0.8884
1157	0.8714
1166	0.8401
1175	0.7826
1184	0.7004
1193	0.4722
1202	0.2687
1211	0.5911
1220	0.6282
1229	0.5733
1238	0.7704
1247	0.7985
1256	0.7971
1265	0.7067
1274	0.4821
1283	0.3485
1292	0.4704
1301	0.6793
1310	0.6779
1319	0.5708
1328	0.3546
1337	0.0433
1346	0.1411
1355	0.5217
1364	0.0522
1373	0.0194
1382	0.1487
1391	0.3372
1400	0.2582
1409	0.4244
1418	0.6068
1427	0.592
1436	0.5628
1445	0.5776
1454	0.5436
1463	0.4559
1472	0.4343
1481	0.5408
1490	0.5955
1499	0.6891
1508	0.546
1517	0.2408
1526	0.4956
1535	0.8203
1544	0.8256
1553	0.8254
1562	0.8135
1571	0.6944
1580	0.7553
1589	0.8421
1598	0.7557
1607	0.6398
1616	0.6022
1625	0.6806
1634	0.6058
1643	0.3065
1652	0.1785
1661	0.0131
1670	0.0004
1679	0.478
1688	0.5918
1697	0.7518
1706	0.863
1715	0.8981
1724	0.9259
1733	0.9503
1742	0.9653
1751	0.9718
1760	0.9672
1769	0.958
1778	0.9499
1787	0.9438
1796	0.9382
1805	0.9483
1814	0.9636
1823	0.9651
1832	0.9629
1841	0.9596
1850	0.9562
1859	0.9549
1868	0.9599
1877	0.9601
1886	0.9587
1895	0.9541
1904	0.9431
1913	0.9262
1922	0.9217
1931	0.9299
1940	0.9484
1949	0.9538
1958	0.9524
1967	0.9506
1976	0.9541
1985	0.9531
1994	0.9512
2003	0.9514
2012	0.9548
2021	0.9586
2030	0.9621
2039	0.9619
2048	0.9615
2057	0.961
2066	0.9606
2075	0.9599
2084	0.9593
2093	0.9587
2102	0.958
2111	0.9573
2120	0.9566
2129	0.9561
2138	0.9558
2147	0.9555
2156	0.9552
2165	0.9549
2174	0.9544
2183	0.9537
2192	0.953
2201	0.9523
2210	0.9516
2219	0.9508
2228	0.95
2237	0.9492
2246	0.9485
2255	0.9477
2264	0.9458
2273	0.9436
2282	0.9413
2291	0.9392
2300	0.9377
2309	0.9383
2318	0.9388
2327	0.94
2336	0.9414
2345	0.9431
2354	0.9449
2363	0.9467
2372	0.9477
2381	0.9451
2390	0.9399
2399	0.9332
2408	0.9315
2417	0.9325
2426	0.9341
2435	0.9355
2444	0.9359
2453	0.9362
2462	0.9361
2471	0.9347
2480	0.9337
2489	0.9334
2498	0.9332
2507	0.9331
2516	0.9319
2525	0.9307
2534	0.9294
2543	0.9277
2552	0.9259
2561	0.9241
2570	0.9219
2579	0.9196
2588	0.9174
2597	0.9161
2606	0.9147
2615	0.9133
2624	0.9126
2633	0.9126
2642	0.9126
2651	0.9122
2660	0.9114
2669	0.9104
2678	0.9093
2687	0.909
2696	0.9081
2705	0.9069
2714	0.9031
2723	0.8995
2732	0.8966
2741	0.8951
2750	0.8938
2759	0.8938
2768	0.8936
2777	0.8928
2786	0.8919
2795	0.8885
2804	0.8831
2813	0.8763
2822	0.8694
2831	0.8609
2840	0.8522
2849	0.8382
2858	0.8115
2867	0.754
2876	0.6109
2885	0.4859
2894	0.4764
2903	0.4678
2912	0.424
2921	0.3795
2930	0.3596
2939	0.348
2948	0.3242
2957	0.2954
2966	0.179
2975	0.1446
2984	0.1427
2993	0.2265
3002	0.4073
3011	0.5002
3020	0.5507
3029	0.5828
3038	0.6184
3047	0.6726
3056	0.7075
3065	0.7263
3074	0.7698
3083	0.8069
3092	0.8198
3101	0.8322
3110	0.8484
3119	0.8591
3128	0.8655
3137	0.8719
3146	0.8707
3155	0.8715
3164	0.8717
3173	0.8714
3182	0.8708
3191	0.87
3200	0.8692
3209	0.8683
3218	0.8673
3227	0.8662
3236	0.865
3245	0.8635
3254	0.8619
3263	0.8597
3272	0.8573
3281	0.8548
3290	0.853
3299	0.8532
3308	0.8551
3317	0.8569
3326	0.8595
3335	0.8626
3344	0.8649
3353	0.8658
3362	0.8656
3371	0.8651
3380	0.8645
3389	0.8632
3398	0.8619
3407	0.8606
3416	0.8595
3425	0.8585
3434	0.8576
3443	0.8571
3452	0.8566
3461	0.8562
3470	0.8561
3479	0.8563
3488	0.8565
3497	0.8567
3506	0.8568
3515	0.857
3524	0.8572
3533	0.8574
3542	0.8575
3551	0.8577
3560	0.8582
3569	0.8587
3578	0.859
3587	0.8595
3596	0.8599
3605	0.8604
3614	0.8608
3623	0.8613
3632	0.8618
3641	0.8623
3650	0.863
3659	0.8639
3668	0.8649
3677	0.8658
3686	0.8671
3695	0.8687
3704	0.8698
3713	0.8707
3722	0.8716
3731	0.8725
3740	0.8734
3749	0.8742
3758	0.875
3767	0.8756
3776	0.876
3785	0.8762
3794	0.8759
3803	0.8757
3812	0.8754
3821	0.8751
3830	0.8746
3839	0.8741
3848	0.8735
3857	0.873
3866	0.8723
3875	0.8714
3884	0.8705
3893	0.8697
3902	0.8688
3911	0.8679
3920	0.867
3929	0.866
3938	0.8648
3947	0.8638
3956	0.8627
3965	0.8617
3974	0.8606
3983	0.8595
3992	0.8585
