Infrared Spectrum: MALONIC ACID CALCIUM SALT TETRAHYDRATE
Formula: C3 H2 O4 Ca
State: SOLID (MINERAL OIL MULL)
Class: COBLENTZ
Instrument: Not specified, most likely a prism, grating, or hybrid spectrometer.
Sampling: TRANSMISSION
Resolution: 4
Origin: WYANDOTTE CHEMICALS CORP., WYANDOTTE, MICHIGAN, USA
MICROMETERS	TRANSMITTANCE
2.02	0.94
2.05975	0.94
2.09951	0.948
2.13926	0.95
2.17901	0.933
2.21877	0.935
2.25852	0.931
2.29827	0.946
2.33803	0.936
2.37778	0.941
2.41754	0.935
2.45729	0.941
2.49704	0.95
2.5368	0.951
2.57655	0.953
2.6163	0.95
2.65606	0.945
2.69581	0.91
2.73556	0.84
2.77532	0.694
2.81507	0.426
2.85482	0.239
2.89458	0.275
2.93433	0.347
2.97409	0.382
3.01384	0.398
3.05359	0.342
3.09335	0.307
3.1331	0.3
3.17285	0.308
3.21261	0.33
3.25236	0.333
3.29211	0.335
3.33187	0.302
3.37162	0.081
3.41137	0.053
3.45113	0.121
3.49088	0.156
3.53064	0.323
3.57039	0.636
3.61014	0.715
3.6499	0.749
3.68965	0.762
3.7294	0.799
3.76916	0.823
3.80891	0.837
3.84866	0.85
3.88842	0.863
3.92817	0.875
3.96792	0.89
4.00768	0.882
4.04743	0.875
4.08718	0.877
4.12694	0.872
4.16669	0.868
4.20645	0.87
4.2462	0.872
4.28595	0.88
4.32571	0.883
4.36546	0.89
4.40521	0.892
4.44497	0.883
4.48472	0.883
4.52447	0.892
4.56423	0.893
4.60398	0.897
4.64373	0.91
4.68349	0.921
4.72324	0.936
4.763	0.943
4.80275	0.963
4.8425	0.966
4.88226	0.97
4.92201	0.976
4.96176	0.985
5.00152	0.98
5.04127	0.988
5.08102	0.97
5.12078	0.983
5.16053	0.981
5.20028	0.981
5.24004	0.98
5.27979	0.97
5.31955	0.97
5.3593	0.97
5.39905	0.961
5.43881	0.95
5.47856	0.946
5.51831	0.945
5.55807	0.928
5.59782	0.908
5.63757	0.888
5.67733	0.87
5.71708	0.837
5.75683	0.799
5.79659	0.762
5.83634	0.735
5.87609	0.717
5.91585	0.661
5.9556	0.598
5.99536	0.473
6.03511	0.335
6.07486	0.322
6.11462	0.284
6.15437	0.212
6.19412	0.142
6.23388	0.078
6.27363	0.051
6.31338	0.048
6.35314	0.049
6.39289	0.061
6.43264	0.064
6.4724	0.114
6.51215	0.161
6.55191	0.219
6.59166	0.26
6.63141	0.302
6.67117	0.32
6.71092	0.275
6.75067	0.204
6.79043	0.134
6.83018	0.149
6.86993	0.181
6.90969	0.252
6.94944	0.31
6.98919	0.305
7.02895	0.378
7.0687	0.393
7.10845	0.387
7.14821	0.37
7.18796	0.294
7.22772	0.146
7.26747	0.076
7.30722	0.054
7.34698	0.121
7.38673	0.239
7.42648	0.357
7.46624	0.461
7.50599	0.539
7.54574	0.583
7.5855	0.591
7.62525	0.594
7.665	0.614
7.70476	0.662
7.74451	0.699
7.78427	0.722
7.82402	0.72
7.86377	0.72
7.90353	0.705
7.94328	0.636
7.98303	0.631
8.02279	0.689
8.06254	0.735
8.10229	0.759
8.14205	0.774
8.1818	0.78
8.22155	0.785
8.26131	0.79
8.30106	0.794
8.34082	0.797
8.38057	0.802
8.42032	0.805
8.46008	0.805
8.49983	0.803
8.53958	0.802
8.57934	0.803
8.61909	0.805
8.65884	0.805
8.6986	0.807
8.73835	0.813
8.7781	0.813
8.81786	0.808
8.85761	0.807
8.89736	0.808
8.93712	0.808
8.97687	0.812
9.01663	0.822
9.05638	0.827
9.09613	0.822
9.13589	0.818
9.17564	0.813
9.21539	0.812
9.25515	0.808
9.2949	0.808
9.33465	0.81
9.37441	0.813
9.41416	0.81
9.45391	0.812
9.49367	0.815
9.53342	0.817
9.57318	0.818
9.61293	0.82
9.65268	0.818
9.69244	0.825
9.73219	0.828
9.77194	0.828
9.8117	0.828
9.85145	0.832
9.8912	0.835
9.93096	0.838
9.97071	0.835
10.0105	0.833
10.0502	0.818
10.09	0.81
10.1297	0.779
10.1695	0.729
10.2092	0.622
10.249	0.493
10.2887	0.476
10.3285	0.554
10.3682	0.614
10.408	0.614
10.4478	0.622
10.4875	0.604
10.5273	0.38
10.567	0.388
10.6068	0.632
10.6465	0.725
10.6863	0.769
10.726	0.787
10.7658	0.79
10.8055	0.808
10.8453	0.81
10.885	0.808
10.9248	0.808
10.9645	0.81
11.0043	0.813
11.0441	0.813
11.0838	0.812
11.1236	0.81
11.1633	0.81
11.2031	0.807
11.2428	0.802
11.2826	0.79
11.3223	0.784
11.3621	0.772
11.4018	0.759
11.4416	0.745
11.4813	0.734
11.5211	0.74
11.5609	0.749
11.6006	0.745
11.6404	0.74
11.6801	0.737
11.7199	0.725
11.7596	0.715
11.7994	0.707
11.8391	0.702
11.8789	0.702
11.9186	0.699
11.9584	0.7
11.9981	0.7
12.0379	0.699
12.0776	0.699
12.1174	0.694
12.1572	0.694
12.1969	0.694
12.2367	0.689
12.2764	0.686
12.3162	0.679
12.3559	0.672
12.3957	0.661
12.4354	0.652
12.4752	0.642
12.5149	0.634
12.5547	0.624
12.5944	0.614
12.6342	0.607
12.674	0.599
12.7137	0.599
12.7535	0.596
12.7932	0.596
12.833	0.596
12.8727	0.594
12.9125	0.593
12.9522	0.593
12.992	0.584
13.0317	0.579
13.0715	0.569
13.1112	0.564
13.151	0.548
13.1907	0.533
13.2305	0.514
13.2703	0.501
13.31	0.486
13.3498	0.468
13.3895	0.458
13.4293	0.445
13.469	0.428
13.5088	0.41
13.5485	0.398
13.5883	0.39
13.628	0.378
13.6678	0.373
13.7075	0.36
13.7473	0.352
13.7871	0.345
13.8268	0.328
13.8666	0.312
13.9063	0.29
13.9461	0.25
13.9858	0.212
14.0256	0.23
14.0653	0.29
14.1051	0.362
14.1448	0.398
14.1846	0.44
14.2243	0.465
14.2641	0.486
14.3038	0.498
14.3436	0.519
14.3834	0.528
14.4231	0.548
14.4629	0.563
14.5026	0.579
14.5424	0.586
14.5821	0.598
14.6219	0.609
14.6616	0.624
14.7014	0.631
14.7411	0.634
14.7809	0.637
14.8206	0.641
14.8604	0.652
14.9002	0.647
14.9399	0.647
14.9797	0.649
15.0194	0.647
15.0592	0.624
15.0989	0.604
15.1387	0.589
15.1784	0.584
15.2182	0.569
15.2579	0.539
15.2977	0.495
15.3374	0.458
15.3772	0.456
15.4169	0.491
15.4567	0.554
15.4965	0.594
15.5362	0.634
15.576	0.654
15.6157	0.672
15.6555	0.681
15.6952	0.687
15.735	0.689
15.7747	0.7
15.8145	0.691
15.8542	0.691
15.894	0.686
15.9337	0.691
15.9735	0.689
