Infrared Spectrum: 8-QUINOLINOL, MAGNESIUM SALT
Formula: C18 H12 Mg N2 O2
State: SOLID (MINERAL OIL MULL)
Class: COBLENTZ
Instrument: Not specified, most likely a prism, grating, or hybrid spectrometer.
Sampling: TRANSMISSION
Resolution: 4
Origin: DOW CHEMICAL COMPANY
MICROMETERS	TRANSMITTANCE
2.021	0.618
2.06214	0.625
2.10327	0.634
2.14441	0.639
2.18554	0.641
2.22668	0.642
2.26781	0.632
2.30895	0.632
2.35009	0.632
2.39122	0.646
2.43236	0.659
2.47349	0.683
2.51463	0.7
2.55576	0.707
2.5969	0.714
2.63804	0.717
2.67917	0.723
2.72031	0.723
2.76144	0.711
2.80258	0.711
2.84371	0.711
2.88485	0.711
2.92599	0.712
2.96712	0.707
3.00826	0.707
3.04939	0.704
3.09053	0.699
3.13166	0.695
3.1728	0.694
3.21394	0.69
3.25507	0.642
3.29621	0.577
3.33734	0.505
3.37848	0.01
3.41962	0.032
3.46075	0.071
3.50189	0.271
3.54302	0.644
3.58416	0.711
3.62529	0.733
3.66643	0.726
3.70757	0.728
3.7487	0.735
3.78984	0.75
3.83097	0.758
3.87211	0.776
3.91324	0.793
3.95438	0.801
3.99552	0.808
4.03665	0.82
4.07779	0.823
4.11892	0.825
4.16006	0.825
4.20119	0.829
4.24233	0.825
4.28347	0.829
4.3246	0.835
4.36574	0.844
4.40687	0.844
4.44801	0.842
4.48914	0.842
4.53028	0.846
4.57142	0.851
4.61255	0.858
4.65369	0.858
4.69482	0.861
4.73596	0.861
4.77709	0.861
4.81823	0.863
4.85937	0.871
4.9005	0.876
4.94164	0.878
4.98277	0.88
5.02391	0.883
5.06504	0.882
5.10618	0.878
5.14732	0.873
5.18845	0.864
5.22959	0.859
5.27072	0.866
5.31186	0.875
5.35299	0.878
5.39413	0.882
5.43527	0.89
5.4764	0.883
5.51754	0.885
5.55867	0.888
5.59981	0.887
5.64095	0.888
5.68208	0.888
5.72322	0.888
5.76435	0.888
5.80549	0.888
5.84662	0.887
5.88776	0.88
5.9289	0.878
5.97003	0.868
6.01117	0.861
6.0523	0.849
6.09344	0.849
6.13457	0.835
6.17571	0.76
6.21685	0.622
6.25798	0.68
6.29912	0.516
6.34025	0.441
6.38139	0.764
6.42252	0.844
6.46366	0.835
6.5048	0.837
6.54593	0.83
6.58707	0.789
6.6282	0.487
6.66934	0.21
6.71047	0.623
6.75161	0.401
6.79275	0.042
6.83388	0.116
6.87502	0.324
6.91615	0.516
6.95729	0.629
6.99842	0.63
7.03956	0.752
7.0807	0.779
7.12183	0.659
7.16297	0.34
7.2041	0.133
7.24524	0.141
7.28637	0.275
7.32751	0.588
7.36865	0.7
7.40978	0.716
7.45092	0.553
7.49205	0.352
7.53319	0.22
7.57432	0.56
7.61546	0.716
7.6566	0.77
7.69773	0.781
7.73887	0.719
7.78	0.591
7.82114	0.635
7.86227	0.735
7.90341	0.765
7.94455	0.817
7.98568	0.823
8.02682	0.793
8.06795	0.752
8.10909	0.752
8.15023	0.822
8.19136	0.863
8.2325	0.863
8.27363	0.852
8.31477	0.876
8.3559	0.888
8.39704	0.888
8.43818	0.851
8.47931	0.841
8.52045	0.852
8.56158	0.878
8.60272	0.878
8.64385	0.871
8.68499	0.878
8.72613	0.888
8.76726	0.883
8.8084	0.873
8.84953	0.875
8.89067	0.87
8.9318	0.747
8.97294	0.553
9.01408	0.288
9.05521	0.48
9.09635	0.697
9.13748	0.743
9.17862	0.784
9.21975	0.829
9.26089	0.851
9.30203	0.861
9.34316	0.859
9.3843	0.842
9.42543	0.839
9.46657	0.839
9.5077	0.87
9.54884	0.888
9.58998	0.883
9.63111	0.834
9.67225	0.811
9.71338	0.851
9.75452	0.878
9.79565	0.89
9.83679	0.895
9.87793	0.899
9.91906	0.9
9.9602	0.905
10.0013	0.909
10.0425	0.907
10.0836	0.904
10.1247	0.895
10.1659	0.89
10.207	0.88
10.2481	0.87
10.2893	0.868
10.3304	0.878
10.3716	0.878
10.4127	0.876
10.4538	0.875
10.495	0.875
10.5361	0.885
10.5772	0.885
10.6184	0.888
10.6595	0.888
10.7006	0.892
10.7418	0.895
10.7829	0.899
10.824	0.902
10.8652	0.902
10.9063	0.899
10.9475	0.871
10.9886	0.83
11.0297	0.791
11.0709	0.81
11.112	0.859
11.1531	0.88
11.1943	0.887
11.2354	0.887
11.2765	0.88
11.3177	0.88
11.3588	0.88
11.3999	0.878
11.4411	0.88
11.4822	0.88
11.5234	0.882
11.5645	0.892
11.6056	0.902
11.6468	0.904
11.6879	0.904
11.729	0.907
11.7702	0.909
11.8113	0.911
11.8524	0.912
11.8936	0.912
11.9347	0.902
11.9758	0.88
12.017	0.83
12.0581	0.716
12.0993	0.569
12.1404	0.454
12.1815	0.499
12.2227	0.8
12.2638	0.863
12.3049	0.868
12.3461	0.781
12.3872	0.623
12.4283	0.509
12.4695	0.603
12.5106	0.7
12.5517	0.654
12.5929	0.548
12.634	0.444
12.6752	0.388
12.7163	0.429
12.7574	0.572
12.7986	0.716
12.8397	0.789
12.8808	0.815
12.922	0.822
12.9631	0.823
13.0042	0.822
13.0454	0.815
13.0865	0.796
13.1276	0.765
13.1688	0.726
13.2099	0.683
13.2511	0.641
13.2922	0.593
13.3333	0.533
13.3745	0.49
13.4156	0.473
13.4567	0.468
13.4979	0.459
13.539	0.429
13.5801	0.388
13.6213	0.321
13.6624	0.297
13.7035	0.326
13.7447	0.432
13.7858	0.521
13.827	0.601
13.8681	0.647
13.9092	0.676
13.9504	0.699
13.9915	0.712
14.0326	0.717
14.0738	0.723
14.1149	0.724
14.156	0.724
14.1972	0.719
14.2383	0.714
14.2795	0.705
14.3206	0.699
14.3617	0.688
14.4029	0.685
14.444	0.675
14.4851	0.668
14.5263	0.656
14.5674	0.649
14.6085	0.642
14.6497	0.635
14.6908	0.625
14.7319	0.618
14.7731	0.61
14.8142	0.603
14.8554	0.596
14.8965	0.581
14.9376	0.569
14.9788	0.569
15.0199	0.569
15.061	0.562
15.1022	0.548
15.1433	0.529
15.1844	0.521
15.2256	0.5
15.2667	0.487
15.3078	0.47
15.349	0.449
15.3901	0.435
15.4313	0.425
15.4724	0.423
15.5135	0.423
15.5547	0.425
15.5958	0.425
15.6369	0.427
15.6781	0.427
15.7192	0.425
15.7603	0.422
15.8015	0.417
15.8426	0.415
15.8837	0.415
