Infrared Spectrum: bis(Methylthio)diiron hexacarbonyl
Formula: C8 H6 O6 S2 Fe2
State: SOLID (SPLIT MULL), FLUOROLUBE FOR 3800-1330 CM^-^1, NUJOL FOR 1330-400 CM^-^1
Class: COBLENTZ II
Instrument: DOW KBr FOREPRISM-GRATING
Instrument parameters: BLAZED AT 3.5, 12.0, 20.0 MICRON AND CHANGED AT 5.0, 7.5, 14.9 MICRON
Sampling: TRANSMISSION
Resolution: 2
Origin: DOW CHEMICAL COMPANY
1/CM	TRANSMITTANCE
3800	0.7965
3791	0.7958
3782	0.7951
3773	0.7943
3764	0.7938
3755	0.7944
3746	0.795
3737	0.7958
3728	0.7969
3719	0.7987
3710	0.8006
3701	0.8011
3692	0.8018
3683	0.8021
3674	0.8025
3665	0.8028
3656	0.8032
3647	0.8031
3638	0.803
3629	0.8028
3620	0.8026
3611	0.8022
3602	0.8017
3593	0.8007
3584	0.7985
3575	0.7936
3566	0.7938
3557	0.794
3548	0.7937
3539	0.7934
3530	0.7931
3521	0.7926
3512	0.7922
3503	0.7922
3494	0.7924
3485	0.7924
3476	0.7925
3467	0.7925
3458	0.7928
3449	0.7928
3440	0.793
3431	0.7931
3422	0.7932
3413	0.7933
3404	0.7933
3395	0.7932
3386	0.7932
3377	0.7932
3368	0.794
3359	0.7949
3350	0.7958
3341	0.7958
3332	0.7961
3323	0.7964
3314	0.7965
3305	0.7969
3296	0.7975
3287	0.798
3278	0.7982
3269	0.7982
3260	0.7983
3251	0.7983
3242	0.7984
3233	0.7996
3224	0.8008
3215	0.8021
3206	0.8034
3197	0.8046
3188	0.8058
3179	0.8068
3170	0.8078
3161	0.8086
3152	0.8094
3143	0.8101
3134	0.8107
3125	0.8112
3116	0.8118
3107	0.8125
3098	0.8133
3089	0.814
3080	0.8148
3071	0.8155
3062	0.8162
3053	0.8168
3044	0.8165
3035	0.8158
3026	0.8151
3017	0.815
3008	0.8154
2999	0.8162
2990	0.8178
2981	0.8197
2972	0.8218
2963	0.8228
2954	0.8237
2945	0.8238
2936	0.8218
2927	0.8183
2918	0.8174
2909	0.8187
2900	0.8206
2891	0.8221
2882	0.8233
2873	0.824
2864	0.8247
2855	0.8253
2846	0.8259
2837	0.8264
2828	0.827
2819	0.8275
2810	0.8282
2801	0.829
2792	0.8298
2783	0.8306
2774	0.8312
2765	0.8318
2756	0.8324
2747	0.8325
2738	0.8324
2729	0.8321
2720	0.8321
2711	0.8321
2702	0.8321
2693	0.8321
2684	0.8324
2675	0.8328
2666	0.8334
2657	0.8339
2648	0.8347
2639	0.8352
2630	0.835
2621	0.8349
2612	0.8347
2603	0.8347
2594	0.8349
2585	0.835
2576	0.8364
2567	0.837
2558	0.8373
2549	0.8375
2540	0.838
2531	0.8378
2522	0.8375
2513	0.8371
2504	0.8367
2495	0.8363
2486	0.8359
2477	0.8353
2468	0.8343
2459	0.834
2450	0.8337
2441	0.8333
2432	0.8331
2423	0.8328
2414	0.8325
2405	0.8324
2396	0.8336
2387	0.8348
2378	0.8367
2369	0.839
2360	0.8418
2351	0.8444
2342	0.846
2333	0.8456
2324	0.8452
2315	0.8445
2306	0.8439
2297	0.8434
2288	0.843
2279	0.8424
2270	0.8418
2261	0.842
2252	0.8428
2243	0.8434
2234	0.8452
2225	0.847
2216	0.8485
2207	0.8496
2198	0.8511
2189	0.853
2180	0.8548
2171	0.8561
2162	0.8571
2153	0.858
2144	0.8587
2135	0.8592
2126	0.8586
2117	0.8571
2108	0.8557
2099	0.8502
2090	0.8383
2081	0.3548
2072	0.6412
2063	0.7765
2054	0.4252
2045	0.064
2036	0.2939
2027	0.555
2018	0.6399
2009	0.3892
2000	0.144
1991	0.137
1982	0.3489
1973	0.5174
1964	0.6097
1955	0.6383
1946	0.7012
1937	0.7315
1928	0.7481
1919	0.7658
1910	0.7771
1901	0.7853
1892	0.7919
1883	0.7961
1874	0.8001
1865	0.804
1856	0.8082
1847	0.8125
1838	0.8165
1829	0.8198
1820	0.8227
1811	0.8251
1802	0.827
1793	0.8287
1784	0.8305
1775	0.8321
1766	0.8336
1757	0.8349
1748	0.8361
1739	0.837
1730	0.8375
1721	0.8371
1712	0.8347
1703	0.8308
1694	0.8178
1685	0.8058
1676	0.8043
1667	0.8026
1658	0.7958
1649	0.7875
1640	0.7795
1631	0.7758
1622	0.7858
1613	0.8007
1604	0.8142
1595	0.8247
1586	0.8321
1577	0.8327
1568	0.8317
1559	0.8324
1550	0.8332
1541	0.8336
1532	0.8341
1523	0.8343
1514	0.8346
1505	0.8348
1496	0.8349
1487	0.8348
1478	0.8341
1469	0.8328
1460	0.8302
1451	0.8268
1442	0.8221
1433	0.8004
1424	0.7868
1415	0.7918
1406	0.7953
1397	0.796
1388	0.7942
1379	0.7826
1370	0.791
1361	0.7881
1352	0.7821
1343	0.7935
1334	0.8061
1325	0.7878
1316	0.7458
1307	0.7458
1298	0.744
1289	0.7507
1280	0.7565
1271	0.7578
1262	0.7425
1253	0.7047
1244	0.6811
1235	0.669
1226	0.6558
1217	0.6488
1208	0.6601
1199	0.6635
1190	0.6758
1181	0.6832
1172	0.6851
1163	0.6924
1154	0.7061
1145	0.7451
1136	0.8007
1127	0.8355
1118	0.8585
1109	0.8717
1100	0.8789
1091	0.878
1082	0.8492
1073	0.7669
1064	0.7992
1055	0.7975
1046	0.7956
1037	0.8078
1028	0.7937
1019	0.7692
1010	0.7937
1001	0.8306
992	0.8691
983	0.8956
974	0.9133
965	0.9231
956	0.9156
947	0.9118
938	0.9324
929	0.9449
920	0.9489
911	0.9482
902	0.9299
893	0.8699
884	0.8039
875	0.7881
866	0.8126
857	0.8394
848	0.8638
839	0.9018
830	0.9215
821	0.9292
812	0.922
803	0.9074
794	0.8992
785	0.9216
776	0.928
767	0.9333
758	0.9375
749	0.9387
740	0.9344
731	0.9232
722	0.9139
713	0.9225
704	0.9271
695	0.9228
686	0.9218
677	0.9232
668	0.9237
659	0.925
650	0.9296
641	0.9335
632	0.9337
623	0.9002
614	0.7217
605	0.7607
596	0.8227
587	0.6678
578	0.5847
569	0.7297
560	0.7108
551	0.832
542	0.8978
533	0.9161
524	0.9225
515	0.9264
506	0.9071
497	0.8686
488	0.863
479	0.8742
470	0.881
461	0.881
452	0.8747
443	0.8484
434	0.8386
425	0.835
416	0.8324
407	0.8246
398	0.8227
