Infrared Spectrum: SODIUM DIPHENYLAMINE-P-SULFONATE
Formula: C12 H10 N O3 S Na
State: SOLID (MINERAL OIL MULL)
Class: COBLENTZ
Instrument: Not specified, most likely a prism, grating, or hybrid spectrometer.
Sampling: TRANSMISSION
Resolution: 4
Origin: WYANDOTTE CHEMICALS CORP., WYANDOTTE, MICHIGAN, USA
MICROMETERS	TRANSMITTANCE
2.034	0.569
2.07486	0.574
2.11571	0.583
2.15657	0.585
2.19742	0.586
2.23828	0.578
2.27913	0.574
2.31999	0.585
2.36084	0.595
2.4017	0.593
2.44256	0.605
2.48341	0.617
2.52427	0.615
2.56512	0.637
2.60598	0.644
2.64683	0.644
2.68769	0.651
2.72854	0.659
2.7694	0.659
2.81026	0.659
2.85111	0.664
2.89197	0.659
2.93282	0.659
2.97368	0.511
3.01453	0.568
3.05539	0.61
3.09625	0.62
3.1371	0.619
3.17796	0.605
3.21881	0.598
3.25967	0.551
3.30052	0.477
3.34138	0.289
3.38223	0.034
3.42309	0.03
3.46395	0.059
3.5048	0.062
3.54566	0.294
3.58651	0.654
3.62737	0.719
3.66822	0.724
3.70908	0.722
3.74993	0.731
3.79079	0.744
3.83165	0.748
3.8725	0.763
3.91336	0.773
3.95421	0.784
3.99507	0.79
4.03592	0.799
4.07678	0.801
4.11763	0.811
4.15849	0.814
4.19935	0.818
4.2402	0.818
4.28106	0.812
4.32191	0.824
4.36277	0.829
4.40362	0.828
4.44448	0.829
4.48533	0.838
4.52619	0.845
4.56705	0.846
4.6079	0.852
4.64876	0.86
4.68961	0.865
4.73047	0.87
4.77132	0.874
4.81218	0.88
4.85304	0.88
4.89389	0.886
4.93475	0.894
4.9756	0.899
5.01646	0.901
5.05731	0.903
5.09817	0.913
5.13902	0.908
5.17988	0.901
5.22074	0.899
5.26159	0.867
5.30245	0.889
5.3433	0.913
5.38416	0.92
5.42501	0.918
5.46587	0.914
5.50672	0.921
5.54758	0.928
5.58844	0.921
5.62929	0.923
5.67015	0.921
5.711	0.916
5.75186	0.92
5.79271	0.928
5.83357	0.921
5.87442	0.918
5.91528	0.918
5.95614	0.918
5.99699	0.911
6.03785	0.899
6.0787	0.894
6.11956	0.867
6.16041	0.763
6.20127	0.425
6.24213	0.355
6.28298	0.477
6.32384	0.693
6.36469	0.772
6.40555	0.826
6.4464	0.821
6.48726	0.76
6.52811	0.525
6.56897	0.358
6.60983	0.489
6.65068	0.387
6.69154	0.465
6.73239	0.501
6.77325	0.306
6.8141	0.187
6.85496	0.263
6.89581	0.301
6.93667	0.493
6.97753	0.727
7.01838	0.792
7.05924	0.818
7.10009	0.794
7.14095	0.634
7.1818	0.63
7.22266	0.503
7.26351	0.379
7.30437	0.574
7.34523	0.681
7.38608	0.692
7.42694	0.664
7.46779	0.612
7.50865	0.484
7.5495	0.387
7.59036	0.471
7.63121	0.586
7.67207	0.641
7.71293	0.654
7.75378	0.681
7.79464	0.704
7.83549	0.634
7.87635	0.493
7.9172	0.465
7.95806	0.491
7.99892	0.348
8.03977	0.285
8.08063	0.192
8.12148	0.168
8.16234	0.243
8.20319	0.377
8.24405	0.406
8.2849	0.413
8.32576	0.258
8.36662	0.136
8.40747	0.164
8.44833	0.215
8.48918	0.192
8.53004	0.153
8.57089	0.232
8.61175	0.335
8.6526	0.409
8.69346	0.425
8.73432	0.37
8.77517	0.248
8.81603	0.331
8.85688	0.362
8.89774	0.42
8.93859	0.452
8.97945	0.488
9.0203	0.556
9.06116	0.629
9.10202	0.666
9.14287	0.692
9.18373	0.7
9.22458	0.693
9.26544	0.678
9.30629	0.726
9.34715	0.746
9.388	0.75
9.42886	0.722
9.46972	0.503
9.51057	0.312
9.55143	0.476
9.59228	0.45
9.63314	0.542
9.67399	0.615
9.71485	0.637
9.75571	0.702
9.79656	0.738
9.83742	0.729
9.87827	0.647
9.91913	0.658
9.95998	0.727
10.0008	0.748
10.0417	0.727
10.0825	0.753
10.1234	0.778
10.1643	0.785
10.2051	0.763
10.246	0.758
10.2868	0.768
10.3277	0.77
10.3685	0.777
10.4094	0.78
10.4503	0.785
10.4911	0.79
10.532	0.79
10.5728	0.799
10.6137	0.809
10.6545	0.814
10.6954	0.816
10.7362	0.814
10.7771	0.816
10.818	0.818
10.8588	0.819
10.8997	0.823
10.9405	0.829
10.9814	0.84
11.0222	0.846
11.0631	0.852
11.1039	0.853
11.1448	0.85
11.1857	0.829
11.2265	0.823
11.2674	0.819
11.3082	0.814
11.3491	0.807
11.3899	0.792
11.4308	0.782
11.4716	0.826
11.5125	0.838
11.5534	0.845
11.5942	0.845
11.6351	0.846
11.6759	0.84
11.7168	0.801
11.7576	0.715
11.7985	0.647
11.8393	0.552
11.8802	0.484
11.9211	0.484
11.9619	0.551
12.0028	0.571
12.0436	0.591
12.0845	0.617
12.1253	0.642
12.1662	0.668
12.207	0.688
12.2479	0.687
12.2888	0.692
12.3296	0.702
12.3705	0.719
12.4113	0.721
12.4522	0.719
12.493	0.714
12.5339	0.715
12.5747	0.739
12.6156	0.768
12.6565	0.789
12.6973	0.809
12.7382	0.816
12.779	0.821
12.8199	0.826
12.8607	0.828
12.9016	0.831
12.9424	0.829
12.9833	0.824
13.0242	0.823
13.065	0.816
13.1059	0.79
13.1467	0.736
13.1876	0.622
13.2284	0.496
13.2693	0.35
13.3101	0.275
13.351	0.268
13.3919	0.253
13.4327	0.301
13.4736	0.433
13.5144	0.539
13.5553	0.579
13.5961	0.568
13.637	0.566
13.6778	0.556
13.7187	0.528
13.7596	0.506
13.8004	0.527
13.8413	0.593
13.8821	0.646
13.923	0.685
13.9638	0.707
14.0047	0.683
14.0455	0.607
14.0864	0.539
14.1273	0.518
14.1681	0.518
14.209	0.528
14.2498	0.551
14.2907	0.574
14.3315	0.596
14.3724	0.581
14.4132	0.528
14.4541	0.438
14.495	0.394
14.5358	0.403
14.5767	0.518
14.6175	0.613
14.6584	0.673
14.6992	0.707
14.7401	0.729
14.7809	0.741
14.8218	0.746
14.8627	0.751
14.9035	0.75
14.9444	0.748
14.9852	0.734
15.0261	0.695
15.0669	0.69
15.1078	0.721
15.1486	0.736
15.1895	0.727
15.2304	0.714
15.2712	0.705
15.3121	0.688
15.3529	0.666
15.3938	0.63
15.4346	0.576
15.4755	0.537
15.5163	0.523
15.5572	0.537
15.5981	0.566
15.6389	0.591
15.6798	0.608
15.7206	0.612
15.7615	0.608
15.8023	0.605
15.8432	0.598
15.884	0.578
15.9249	0.549
15.9658	0.537
