Infrared Spectrum: ISO-CHOLESTERYLAMINE, HYDROCHLORIDE
Formula: C27 H48 Cl N
State: SOLID (OIL MULL)
Class: COBLENTZ III
Instrument: Not specified, most likely a prism spectrometer.
Instrument parameters: NaCl PRISM
Sampling: TRANSMISSION
Resolution: 2
Origin: SMITH KLINE & FRENCH LABS.
MICROMETERS	TRANSMITTANCE
1.984	0.95
2.01836	0.95
2.05271	0.954
2.08707	0.959
2.12142	0.958
2.15578	0.957
2.19014	0.956
2.22449	0.951
2.25885	0.933
2.2932	0.84
2.32756	0.797
2.36192	0.803
2.39627	0.823
2.43063	0.825
2.46498	0.847
2.49934	0.901
2.5337	0.909
2.56805	0.923
2.60241	0.925
2.63676	0.946
2.67112	0.95
2.70548	0.95
2.73983	0.947
2.77419	0.909
2.80854	0.847
2.8429	0.752
2.87726	0.669
2.91161	0.602
2.94597	0.578
2.98032	0.587
3.01468	0.621
3.04904	0.643
3.08339	0.628
3.11775	0.499
3.1521	0.431
3.18646	0.373
3.22082	0.269
3.25517	0.179
3.28953	0.119
3.32388	0.107
3.35824	0.092
3.3926	0.084
3.42695	0.079
3.46131	0.081
3.49566	0.081
3.53002	0.084
3.56438	0.158
3.59873	0.303
3.63309	0.372
3.66745	0.409
3.7018	0.445
3.73616	0.484
3.77051	0.505
3.80487	0.529
3.83923	0.535
3.87358	0.543
3.90794	0.609
3.94229	0.655
3.97665	0.697
4.01101	0.736
4.04536	0.785
4.07972	0.8
4.11407	0.806
4.14843	0.817
4.18279	0.825
4.21714	0.853
4.2515	0.867
4.28585	0.869
4.32021	0.868
4.35457	0.864
4.38892	0.864
4.42328	0.861
4.45763	0.872
4.49199	0.875
4.52635	0.87
4.5607	0.867
4.59506	0.864
4.62941	0.866
4.66377	0.867
4.69813	0.868
4.73248	0.868
4.76684	0.868
4.80119	0.866
4.83555	0.864
4.86991	0.862
4.90426	0.857
4.93862	0.834
4.97297	0.802
5.00733	0.786
5.04169	0.785
5.07604	0.79
5.1104	0.795
5.14475	0.805
5.17911	0.828
5.21347	0.84
5.24782	0.857
5.28218	0.872
5.31653	0.879
5.35089	0.885
5.38525	0.89
5.4196	0.894
5.45396	0.897
5.48831	0.9
5.52267	0.902
5.55703	0.903
5.59138	0.904
5.62574	0.904
5.66009	0.903
5.69445	0.902
5.72881	0.897
5.76316	0.894
5.79752	0.887
5.83187	0.879
5.86623	0.873
5.90059	0.857
5.93494	0.846
5.9693	0.829
6.00365	0.813
6.03801	0.796
6.07237	0.778
6.10672	0.739
6.14108	0.669
6.17543	0.465
6.20979	0.259
6.24415	0.242
6.2785	0.349
6.31286	0.511
6.34721	0.64
6.38157	0.712
6.41593	0.739
6.45028	0.741
6.48464	0.712
6.51899	0.493
6.55335	0.295
6.58771	0.168
6.62206	0.177
6.65642	0.243
6.69077	0.354
6.72513	0.371
6.75949	0.238
6.79384	0.103
6.8282	0.085
6.86256	0.093
6.89691	0.095
6.93127	0.115
6.96562	0.352
6.99998	0.516
7.03434	0.589
7.06869	0.574
7.10305	0.327
7.1374	0.317
7.17176	0.325
7.20612	0.099
7.24047	0.099
7.27483	0.132
7.30918	0.22
7.34354	0.366
7.3779	0.471
7.41225	0.471
7.44661	0.455
7.48096	0.462
7.51532	0.516
7.54968	0.518
7.58403	0.582
7.61839	0.571
7.65274	0.55
7.6871	0.496
7.72146	0.54
7.75581	0.628
7.79017	0.574
7.82452	0.538
7.85888	0.574
7.89324	0.612
7.92759	0.66
7.96195	0.66
7.9963	0.688
8.03066	0.693
8.06502	0.678
8.09937	0.677
8.13373	0.689
8.16808	0.697
8.20244	0.663
8.2368	0.563
8.27115	0.562
8.30551	0.619
8.33986	0.677
8.37422	0.69
8.40858	0.68
8.44293	0.699
8.47729	0.685
8.51164	0.646
8.546	0.533
8.58036	0.54
8.61471	0.612
8.64907	0.644
8.68342	0.613
8.71778	0.589
8.75214	0.584
8.78649	0.605
8.82085	0.654
8.8552	0.668
8.88956	0.626
8.92392	0.627
8.95827	0.661
8.99263	0.684
9.02698	0.693
9.06134	0.713
9.0957	0.733
9.13005	0.721
9.16441	0.688
9.19876	0.678
9.23312	0.651
9.26748	0.618
9.30183	0.623
9.33619	0.656
9.37054	0.654
9.4049	0.6
9.43926	0.544
9.47361	0.489
9.50797	0.455
9.54232	0.506
9.57668	0.54
9.61104	0.481
9.64539	0.485
9.67975	0.506
9.7141	0.464
9.74846	0.429
9.78282	0.522
9.81717	0.604
9.85153	0.633
9.88588	0.655
9.92024	0.662
9.9546	0.643
9.98895	0.643
10.0233	0.58
10.0577	0.6
10.092	0.626
10.1264	0.665
10.1607	0.7
10.1951	0.704
10.2294	0.688
10.2638	0.665
10.2982	0.616
10.3325	0.554
10.3669	0.535
10.4012	0.596
10.4356	0.643
10.4699	0.662
10.5043	0.663
10.5386	0.677
10.573	0.676
10.6074	0.633
10.6417	0.668
10.6761	0.699
10.7104	0.693
10.7448	0.649
10.7791	0.601
10.8135	0.588
10.8479	0.606
10.8822	0.641
10.9166	0.668
10.9509	0.695
10.9853	0.741
11.0196	0.775
11.054	0.777
11.0883	0.774
11.1227	0.775
11.1571	0.78
11.1914	0.78
11.2258	0.778
11.2601	0.778
11.2945	0.781
11.3288	0.783
11.3632	0.784
11.3975	0.789
11.4319	0.797
11.4663	0.801
11.5006	0.795
11.535	0.786
11.5693	0.783
11.6037	0.791
11.638	0.801
11.6724	0.802
11.7068	0.803
11.7411	0.803
11.7755	0.802
11.8098	0.797
11.8442	0.794
11.8785	0.784
11.9129	0.779
11.9472	0.774
11.9816	0.777
12.016	0.783
12.0503	0.784
12.0847	0.783
12.119	0.78
12.1534	0.766
12.1877	0.744
12.2221	0.76
12.2565	0.762
12.2908	0.746
12.3252	0.693
12.3595	0.605
12.3939	0.557
12.4282	0.615
12.4626	0.7
12.4969	0.753
12.5313	0.781
12.5657	0.79
12.6	0.796
12.6344	0.8
12.6687	0.801
12.7031	0.801
12.7374	0.801
12.7718	0.801
12.8061	0.801
12.8405	0.8
12.8749	0.797
12.9092	0.794
12.9436	0.791
12.9779	0.788
13.0123	0.786
13.0466	0.786
13.081	0.786
13.1154	0.786
13.1497	0.786
13.1841	0.785
13.2184	0.784
13.2528	0.781
13.2871	0.779
13.3215	0.773
13.3558	0.767
13.3902	0.755
13.4246	0.747
13.4589	0.736
13.4933	0.716
13.5276	0.694
13.562	0.679
13.5963	0.666
13.6307	0.655
13.665	0.656
13.6994	0.656
13.7338	0.654
13.7681	0.647
13.8025	0.639
13.8368	0.635
13.8712	0.637
13.9055	0.651
13.9399	0.672
13.9743	0.693
14.0086	0.714
14.043	0.729
14.0773	0.738
14.1117	0.746
14.146	0.749
14.1804	0.749
14.2147	0.749
14.2491	0.742
14.2835	0.729
14.3178	0.706
14.3522	0.686
14.3865	0.674
14.4209	0.686
14.4552	0.71
14.4896	0.721
14.5239	0.727
14.5583	0.727
14.5927	0.724
14.627	0.713
14.6614	0.7
14.6957	0.691
14.7301	0.688
14.7644	0.699
14.7988	0.702
14.8332	0.707
