Infrared Spectrum: p-CHLORO-N-(2,3,4,4,5,6-HEXACHLORO-2,5-CYCLOHEXADIENYLIDENE)ANILINE
Formula: C12 H4 Cl7 N
State: SOLID (MINERAL OIL MULL)
Class: COBLENTZ
Instrument: Not specified, most likely a prism, grating, or hybrid spectrometer.
Sampling: TRANSMISSION
Resolution: 4
Origin: DOW CHEMICAL COMPANY
MICROMETERS	TRANSMITTANCE
2.062	0.7
2.10313	0.702
2.14427	0.704
2.1854	0.711
2.22654	0.709
2.26767	0.7
2.30881	0.699
2.34994	0.702
2.39107	0.711
2.43221	0.719
2.47334	0.733
2.51448	0.743
2.55561	0.747
2.59675	0.753
2.63788	0.758
2.67902	0.758
2.72015	0.762
2.76128	0.764
2.80242	0.76
2.84355	0.757
2.88469	0.755
2.92582	0.75
2.96696	0.743
3.00809	0.741
3.04922	0.735
3.09036	0.733
3.13149	0.735
3.17263	0.74
3.21376	0.74
3.2549	0.729
3.29603	0.687
3.33717	0.473
3.3783	0.09
3.41943	0.058
3.46057	0.123
3.5017	0.299
3.54284	0.695
3.58397	0.762
3.62511	0.779
3.66624	0.772
3.70737	0.784
3.74851	0.782
3.78964	0.788
3.83078	0.803
3.87191	0.806
3.91305	0.822
3.95418	0.832
3.99531	0.835
4.03645	0.839
4.07758	0.839
4.11872	0.841
4.15985	0.849
4.20099	0.854
4.24212	0.856
4.28326	0.856
4.32439	0.858
4.36552	0.863
4.40666	0.866
4.44779	0.866
4.48893	0.866
4.53006	0.866
4.5712	0.866
4.61233	0.868
4.65346	0.871
4.6946	0.871
4.73573	0.871
4.77687	0.875
4.818	0.876
4.85914	0.88
4.90027	0.882
4.94141	0.883
4.98254	0.887
5.02367	0.89
5.06481	0.892
5.10594	0.892
5.14708	0.894
5.18821	0.894
5.22935	0.894
5.27048	0.892
5.31161	0.89
5.35275	0.895
5.39388	0.895
5.43502	0.895
5.47615	0.899
5.51729	0.9
5.55842	0.9
5.59955	0.9
5.64069	0.9
5.68182	0.899
5.72296	0.895
5.76409	0.894
5.80523	0.885
5.84636	0.791
5.8875	0.63
5.92863	0.757
5.96976	0.834
6.0109	0.829
6.05203	0.813
6.09317	0.829
6.1343	0.832
6.17544	0.813
6.21657	0.791
6.2577	0.755
6.29884	0.588
6.33997	0.702
6.38111	0.765
6.42224	0.75
6.46338	0.748
6.50451	0.753
6.54565	0.758
6.58678	0.752
6.62791	0.716
6.66905	0.69
6.71018	0.673
6.75132	0.588
6.79245	0.391
6.83359	0.324
6.87472	0.435
6.91585	0.577
6.95699	0.717
6.99812	0.755
7.03926	0.758
7.08039	0.781
7.12153	0.786
7.16266	0.776
7.20379	0.565
7.24493	0.487
7.28606	0.608
7.3272	0.707
7.36833	0.765
7.40947	0.781
7.4506	0.789
7.49174	0.803
7.53287	0.805
7.574	0.8
7.61514	0.781
7.65627	0.776
7.69741	0.774
7.73854	0.779
7.77968	0.752
7.82081	0.717
7.86194	0.671
7.90308	0.719
7.94421	0.786
7.98535	0.798
8.02648	0.801
8.06762	0.803
8.10875	0.81
8.14988	0.818
8.19102	0.825
8.23215	0.823
8.27329	0.813
8.31442	0.789
8.35556	0.781
8.39669	0.796
8.43783	0.805
8.47896	0.8
8.52009	0.791
8.56123	0.781
8.60236	0.781
8.6435	0.788
8.68463	0.803
8.72577	0.813
8.7669	0.818
8.80803	0.822
8.84917	0.82
8.8903	0.788
8.93144	0.716
8.97257	0.511
9.01371	0.388
9.05484	0.632
9.09598	0.704
9.13711	0.709
9.17824	0.711
9.21938	0.736
9.26051	0.774
9.30165	0.801
9.34278	0.811
9.38392	0.825
9.42505	0.83
9.46618	0.834
9.50732	0.834
9.54845	0.832
9.58959	0.827
9.63072	0.83
9.67186	0.834
9.71299	0.837
9.75412	0.841
9.79526	0.837
9.83639	0.82
9.87753	0.811
9.91866	0.818
9.9598	0.834
10.0009	0.844
10.0421	0.847
10.0832	0.841
10.1243	0.81
10.1655	0.808
10.2066	0.82
10.2477	0.835
10.2889	0.835
10.33	0.832
10.3711	0.835
10.4123	0.842
10.4534	0.842
10.4945	0.846
10.5357	0.846
10.5768	0.844
10.6179	0.844
10.6591	0.842
10.7002	0.842
10.7413	0.842
10.7825	0.846
10.8236	0.852
10.8648	0.851
10.9059	0.851
10.947	0.856
10.9882	0.864
11.0293	0.864
11.0704	0.861
11.1116	0.859
11.1527	0.856
11.1938	0.856
11.235	0.858
11.2761	0.861
11.3172	0.868
11.3584	0.873
11.3995	0.873
11.4406	0.87
11.4818	0.87
11.5229	0.87
11.564	0.866
11.6052	0.863
11.6463	0.852
11.6874	0.841
11.7286	0.825
11.7697	0.818
11.8108	0.815
11.852	0.813
11.8931	0.813
11.9342	0.822
11.9754	0.825
12.0165	0.827
12.0576	0.825
12.0988	0.82
12.1399	0.82
12.1811	0.817
12.2222	0.813
12.2633	0.813
12.3045	0.827
12.3456	0.835
12.3867	0.841
12.4279	0.841
12.469	0.841
12.5101	0.839
12.5513	0.825
12.5924	0.791
12.6335	0.719
12.6747	0.658
12.7158	0.659
12.7569	0.721
12.7981	0.77
12.8392	0.8
12.8803	0.803
12.9215	0.801
12.9626	0.769
13.0037	0.74
13.0449	0.738
13.086	0.758
13.1271	0.779
13.1683	0.779
13.2094	0.779
13.2505	0.767
13.2917	0.752
13.3328	0.747
13.3739	0.741
13.4151	0.733
13.4562	0.699
13.4974	0.63
13.5385	0.538
13.5796	0.444
13.6208	0.352
13.6619	0.335
13.703	0.435
13.7442	0.55
13.7853	0.6
13.8264	0.62
13.8676	0.627
13.9087	0.627
13.9498	0.613
13.991	0.6
14.0321	0.588
14.0732	0.598
14.1144	0.618
14.1555	0.627
14.1966	0.632
14.2378	0.635
14.2789	0.642
14.32	0.651
14.3612	0.656
14.4023	0.661
14.4434	0.664
14.4846	0.664
14.5257	0.663
14.5668	0.656
14.608	0.651
14.6491	0.642
14.6902	0.637
14.7314	0.627
14.7725	0.62
14.8137	0.613
14.8548	0.605
14.8959	0.596
14.9371	0.582
14.9782	0.579
15.0193	0.56
15.0605	0.547
15.1016	0.536
15.1427	0.528
15.1839	0.528
15.225	0.526
15.2661	0.526
15.3073	0.524
15.3484	0.519
15.3895	0.509
15.4307	0.502
15.4718	0.497
15.5129	0.488
15.5541	0.482
15.5952	0.473
15.6363	0.468
15.6775	0.461
15.7186	0.456
15.7597	0.449
15.8009	0.442
15.842	0.439
15.8831	0.437
