Infrared Spectrum: MAGNESIUM OXALATE
Formula: Mg C2 O4  * 2 H2 O
State: SOLID (KBr DISC)
Class: COBLENTZ
Instrument: Not specified, most likely a prism, grating, or hybrid spectrometer.
Sampling: TRANSMISSION
Resolution: 4
MICROMETERS	TRANSMITTANCE
2.065	0.941
2.10294	0.945
2.14088	0.948
2.17883	0.949
2.21677	0.949
2.25471	0.951
2.29265	0.951
2.33059	0.952
2.36854	0.952
2.40648	0.952
2.44442	0.954
2.48236	0.949
2.5203	0.949
2.55825	0.948
2.59619	0.948
2.63413	0.946
2.67207	0.938
2.71001	0.927
2.74796	0.867
2.7859	0.689
2.82384	0.474
2.86178	0.284
2.89972	0.131
2.93767	0.069
2.97561	0.063
3.01355	0.216
3.05149	0.334
3.08943	0.422
3.12738	0.491
3.16532	0.572
3.20326	0.621
3.2412	0.69
3.27914	0.776
3.31709	0.801
3.35503	0.83
3.39297	0.849
3.43091	0.885
3.46885	0.907
3.5068	0.917
3.54474	0.926
3.58268	0.932
3.62062	0.938
3.65856	0.942
3.69651	0.949
3.73445	0.955
3.77239	0.958
3.81033	0.961
3.84827	0.961
3.88622	0.961
3.92416	0.963
3.9621	0.964
4.00004	0.969
4.03799	0.969
4.07593	0.97
4.11387	0.97
4.15181	0.967
4.18975	0.96
4.2277	0.948
4.26564	0.948
4.30358	0.948
4.34152	0.946
4.37946	0.929
4.41741	0.923
4.45535	0.924
4.49329	0.93
4.53123	0.935
4.56917	0.941
4.60712	0.946
4.64506	0.948
4.683	0.949
4.72094	0.949
4.75888	0.952
4.79683	0.952
4.83477	0.954
4.87271	0.955
4.91065	0.954
4.94859	0.955
4.98654	0.957
5.02448	0.958
5.06242	0.958
5.10036	0.957
5.1383	0.951
5.17625	0.949
5.21419	0.938
5.25213	0.933
5.29007	0.938
5.32801	0.942
5.36596	0.944
5.4039	0.944
5.44184	0.945
5.47978	0.944
5.51772	0.941
5.55567	0.932
5.59361	0.924
5.63155	0.911
5.66949	0.886
5.70743	0.864
5.74538	0.758
5.78332	0.617
5.82126	0.505
5.8592	0.409
5.89714	0.251
5.93509	0.117
5.97303	0.054
6.01097	0.048
6.04891	0.051
6.08685	0.045
6.1248	0.079
6.16274	0.197
6.20068	0.266
6.23862	0.356
6.27656	0.488
6.31451	0.593
6.35245	0.667
6.39039	0.706
6.42833	0.762
6.46627	0.782
6.50422	0.805
6.54216	0.823
6.5801	0.837
6.61804	0.849
6.65598	0.858
6.69393	0.865
6.73187	0.87
6.76981	0.874
6.80775	0.874
6.84569	0.874
6.88364	0.87
6.92158	0.865
6.95952	0.864
6.99746	0.867
7.0354	0.87
7.07335	0.874
7.11129	0.876
7.14923	0.87
7.18717	0.82
7.22511	0.72
7.26306	0.459
7.301	0.416
7.33894	0.546
7.37688	0.617
7.41482	0.646
7.45277	0.549
7.49071	0.371
7.52865	0.157
7.56659	0.192
7.60454	0.421
7.64248	0.575
7.68042	0.671
7.71836	0.746
7.7563	0.795
7.79425	0.817
7.83219	0.833
7.87013	0.843
7.90807	0.849
7.94601	0.852
7.98396	0.855
8.0219	0.86
8.05984	0.86
8.09778	0.863
8.13572	0.865
8.17367	0.865
8.21161	0.864
8.24955	0.864
8.28749	0.864
8.32543	0.864
8.36338	0.864
8.40132	0.864
8.43926	0.864
8.4772	0.865
8.51514	0.865
8.55309	0.865
8.59103	0.867
8.62897	0.867
8.66691	0.867
8.70485	0.867
8.7428	0.867
8.78074	0.868
8.81868	0.868
8.85662	0.87
8.89456	0.87
8.93251	0.87
8.97045	0.871
9.00839	0.873
9.04633	0.873
9.08427	0.873
9.12222	0.874
9.16016	0.874
9.1981	0.874
9.23604	0.876
9.27398	0.877
9.31193	0.879
9.34987	0.88
9.38781	0.882
9.42575	0.885
9.46369	0.886
9.50164	0.888
9.53958	0.889
9.57752	0.891
9.61546	0.892
9.6534	0.893
9.69135	0.896
9.72929	0.898
9.76723	0.899
9.80517	0.901
9.84311	0.902
9.88106	0.902
9.919	0.905
9.95694	0.907
9.99488	0.908
10.0328	0.907
10.0708	0.908
10.1087	0.908
10.1467	0.908
10.1846	0.91
10.2225	0.91
10.2605	0.91
10.2984	0.911
10.3364	0.911
10.3743	0.913
10.4122	0.913
10.4502	0.914
10.4881	0.916
10.5261	0.916
10.564	0.917
10.602	0.917
10.6399	0.917
10.6778	0.917
10.7158	0.917
10.7537	0.917
10.7917	0.917
10.8296	0.917
10.8675	0.917
10.9055	0.916
10.9434	0.914
10.9814	0.913
11.0193	0.913
11.0573	0.913
11.0952	0.913
11.1331	0.913
11.1711	0.911
11.209	0.908
11.247	0.907
11.2849	0.905
11.3229	0.904
11.3608	0.902
11.3987	0.896
11.4367	0.888
11.4746	0.883
11.5126	0.876
11.5505	0.865
11.5884	0.846
11.6264	0.827
11.6643	0.817
11.7023	0.782
11.7402	0.751
11.7782	0.709
11.8161	0.65
11.854	0.608
11.892	0.522
11.9299	0.478
11.9679	0.431
12.0058	0.406
12.0438	0.405
12.0817	0.407
12.1196	0.446
12.1576	0.486
12.1955	0.543
12.2335	0.589
12.2714	0.618
12.3093	0.637
12.3473	0.658
12.3852	0.675
12.4232	0.692
12.4611	0.705
12.4991	0.718
12.537	0.73
12.5749	0.743
12.6129	0.751
12.6508	0.756
12.6888	0.759
12.7267	0.765
12.7646	0.768
12.8026	0.773
12.8405	0.776
12.8785	0.779
12.9164	0.779
12.9544	0.78
12.9923	0.78
13.0302	0.78
13.0682	0.779
13.1061	0.779
13.1441	0.776
13.182	0.771
13.22	0.767
13.2579	0.761
13.2958	0.758
13.3338	0.754
13.3717	0.749
13.4097	0.742
13.4476	0.733
13.4855	0.726
13.5235	0.717
13.5614	0.709
13.5994	0.702
13.6373	0.693
13.6753	0.684
13.7132	0.675
13.7511	0.667
13.7891	0.659
13.827	0.652
13.865	0.646
13.9029	0.639
13.9409	0.63
13.9788	0.622
14.0167	0.617
14.0547	0.611
14.0926	0.608
14.1306	0.603
14.1685	0.597
14.2064	0.59
14.2444	0.584
14.2823	0.583
14.3203	0.58
14.3582	0.58
14.3962	0.58
14.4341	0.58
14.472	0.581
14.51	0.583
14.5479	0.586
14.5859	0.589
14.6238	0.59
14.6618	0.593
14.6997	0.597
14.7376	0.603
14.7756	0.606
14.8135	0.609
14.8515	0.614
14.8894	0.617
14.9273	0.627
14.9653	0.628
15.0032	0.628
15.0412	0.63
15.0791	0.633
15.1171	0.639
15.155	0.643
15.1929	0.648
15.2309	0.655
15.2688	0.658
15.3068	0.662
15.3447	0.671
15.3826	0.673
15.4206	0.675
15.4585	0.678
15.4965	0.681
15.5344	0.683
15.5724	0.684
15.6103	0.689
15.6482	0.69
15.6862	0.69
15.7241	0.69
15.7621	0.69
15.8	0.69
