Infrared Spectrum: 1,4-Butanediamine dihydrochloride
Formula: C4 H14 Cl2 N2
State: SOLID (SPLIT MULL), FLUOROLUBE FOR 3800-1330 CM^-^1, NUJOL FOR 1330-450 CM^-^1
Class: COBLENTZ III
Instrument: DOW KBr FOREPRISM-GRATING
Instrument parameters: BLAZED AT 3.5, 12.0, 20.0 MICRON AND CHANGED AT 5.0, 7.5, 14.9 MICRON
Sampling: TRANSMISSION
Resolution: 2
Origin: DOW CHEMICAL COMPANY
1/CM	TRANSMITTANCE
3780	0.5422
3771	0.5464
3762	0.5507
3753	0.555
3744	0.5588
3735	0.5625
3726	0.566
3717	0.5692
3708	0.5723
3699	0.5754
3690	0.5783
3681	0.5806
3672	0.583
3663	0.5853
3654	0.5876
3645	0.5906
3636	0.5941
3627	0.5976
3618	0.601
3609	0.6045
3600	0.6082
3591	0.612
3582	0.6158
3573	0.6196
3564	0.6238
3555	0.628
3546	0.6323
3537	0.6368
3528	0.6417
3519	0.6465
3510	0.6511
3501	0.6554
3492	0.6592
3483	0.6621
3474	0.6656
3465	0.6693
3456	0.6738
3447	0.6793
3438	0.6848
3429	0.6906
3420	0.6967
3411	0.7025
3402	0.7081
3393	0.7136
3384	0.7203
3375	0.7276
3366	0.7355
3357	0.7437
3348	0.7519
3339	0.7603
3330	0.7686
3321	0.7768
3312	0.785
3303	0.7897
3294	0.793
3285	0.7937
3276	0.7862
3267	0.7375
3258	0.7083
3249	0.638
3240	0.5471
3231	0.5335
3222	0.5486
3213	0.5527
3204	0.5369
3195	0.52
3186	0.5033
3177	0.4952
3168	0.4897
3159	0.4526
3150	0.3841
3141	0.3258
3132	0.26
3123	0.2218
3114	0.1728
3105	0.1339
3096	0.116
3087	0.1052
3078	0.1001
3069	0.1002
3060	0.105
3051	0.106
3042	0.1011
3033	0.0933
3024	0.093
3015	0.0926
3006	0.0868
2997	0.077
2988	0.0718
2979	0.0731
2970	0.0796
2961	0.0886
2952	0.0911
2943	0.0924
2934	0.0978
2925	0.1085
2916	0.1208
2907	0.1344
2898	0.1474
2889	0.156
2880	0.1566
2871	0.157
2862	0.1596
2853	0.1693
2844	0.1865
2835	0.2045
2826	0.219
2817	0.2321
2808	0.2418
2799	0.2441
2790	0.2481
2781	0.2526
2772	0.2588
2763	0.28
2754	0.3021
2745	0.3157
2736	0.318
2727	0.319
2718	0.3338
2709	0.3442
2700	0.3521
2691	0.3686
2682	0.3844
2673	0.3992
2664	0.4107
2655	0.417
2646	0.419
2637	0.4184
2628	0.4116
2619	0.4222
2610	0.441
2601	0.4676
2592	0.4775
2583	0.4785
2574	0.4782
2565	0.4477
2556	0.4404
2547	0.4599
2538	0.4853
2529	0.504
2520	0.5184
2511	0.5256
2502	0.5285
2493	0.5301
2484	0.5275
2475	0.5286
2466	0.5426
2457	0.5544
2448	0.5597
2439	0.5612
2430	0.5627
2421	0.561
2412	0.5551
2403	0.553
2394	0.5618
2385	0.5698
2376	0.581
2367	0.5866
2358	0.5914
2349	0.5967
2340	0.6029
2331	0.6074
2322	0.6107
2313	0.6149
2304	0.6212
2295	0.6279
2286	0.6348
2277	0.6411
2268	0.6475
2259	0.6538
2250	0.6608
2241	0.668
2232	0.6751
2223	0.6825
2214	0.6897
2205	0.6965
2196	0.7034
2187	0.7101
2178	0.7167
2169	0.7231
2160	0.7295
2151	0.7358
2142	0.7411
2133	0.7449
2124	0.7467
2115	0.7483
2106	0.753
2097	0.7592
2088	0.7608
2079	0.7328
2070	0.7136
2061	0.7134
2052	0.6258
2043	0.6203
2034	0.5177
2025	0.5688
2016	0.627
2007	0.6562
1998	0.6725
1989	0.6874
1980	0.7105
1971	0.7294
1962	0.7458
1953	0.7593
1944	0.7674
1935	0.7734
1926	0.7781
1917	0.7826
1908	0.7865
1899	0.7899
1890	0.7925
1881	0.7951
1872	0.7981
1863	0.8011
1854	0.8026
1845	0.8046
1836	0.8072
1827	0.811
1818	0.815
1809	0.8183
1800	0.8186
1791	0.8165
1782	0.8148
1773	0.8184
1764	0.8263
1755	0.8333
1746	0.8375
1737	0.8418
1728	0.8428
1719	0.846
1710	0.8518
1701	0.8554
1692	0.8561
1683	0.8542
1674	0.8537
1665	0.855
1656	0.8565
1647	0.8618
1638	0.8695
1629	0.8745
1620	0.8644
1611	0.6323
1602	0.8147
1593	0.7354
1584	0.8267
1575	0.8585
1566	0.8647
1557	0.8684
1548	0.8755
1539	0.8846
1530	0.8916
1521	0.8985
1512	0.9044
1503	0.9006
1494	0.9003
1485	0.8615
1476	0.5623
1467	0.416
1458	0.6986
1449	0.1581
1440	0.1475
1431	0.3568
1422	0.591
1413	0.6147
1404	0.5168
1395	0.6033
1386	0.6701
1377	0.7082
1368	0.7353
1359	0.7448
1350	0.6736
1341	0.5982
1332	0.6421
1323	0.6582
1314	0.66
1305	0.6539
1296	0.6106
1287	0.2195
1278	0.2464
1269	0.5676
1260	0.6471
1251	0.6824
1242	0.7038
1233	0.7201
1224	0.7317
1215	0.7324
1206	0.7268
1197	0.7291
1188	0.738
1179	0.7306
1170	0.7151
1161	0.7165
1152	0.7184
1143	0.7076
1134	0.6987
1125	0.5819
1116	0.086
1107	0.3305
1098	0.5837
1089	0.6528
1080	0.6798
1071	0.6989
1062	0.7151
1053	0.724
1044	0.7186
1035	0.6218
1026	0.4989
1017	0.6003
1008	0.6896
999	0.7248
990	0.7398
981	0.7462
972	0.7458
963	0.7433
954	0.7504
945	0.7604
936	0.7664
927	0.7521
918	0.2208
909	0.6578
900	0.7325
891	0.7411
882	0.7158
873	0.3668
864	0.5012
855	0.6953
846	0.7462
837	0.7661
828	0.7793
819	0.7875
810	0.7947
801	0.7994
792	0.8011
783	0.799
774	0.7839
765	0.4173
756	0.6599
747	0.7481
738	0.7568
729	0.7375
720	0.6762
711	0.7419
702	0.7905
693	0.8204
684	0.8308
675	0.83
666	0.8547
657	0.8648
648	0.8653
639	0.8659
630	0.8653
621	0.8594
612	0.8578
603	0.8582
594	0.8589
585	0.8578
576	0.8578
567	0.8575
558	0.8551
549	0.8487
540	0.8417
531	0.8354
522	0.83
513	0.7921
504	0.4565
495	0.6422
486	0.7982
477	0.8118
468	0.8155
459	0.8041
