Infrared Spectrum: Triazolo[4,5-d]pyrimidine, 1H-v-, 5,7-dichloro
Formula: C4 H Cl2 N5
State: SOLID (1.0 mg / 650 mg KBr DISC)
Class: COBLENTZ III
Instrument: PERKIN-ELMER 21 (GRATING)
Instrument parameters: FILTER CHANGE ABOUT 1090 CM^-^1
Sampling: TRANSMISSION
Resolution: 2
Origin: SOUTHERN RESEARCH INSTITUTE
1/CM	TRANSMITTANCE
604	0.7648
613	0.6732
622	0.69
631	0.893
640	0.9389
649	0.9236
658	0.899
667	0.8743
676	0.8934
685	0.7692
694	0.6986
703	0.9172
712	0.8851
721	0.8528
730	0.8263
739	0.8084
748	0.7897
757	0.7691
766	0.733
775	0.6594
784	0.6314
793	0.6135
802	0.6752
811	0.706
820	0.7098
829	0.7196
838	0.7107
847	0.6925
856	0.6681
865	0.6553
874	0.542
883	0.3001
892	0.6113
901	0.4239
910	0.8401
919	0.8423
928	0.8313
937	0.8181
946	0.8009
955	0.7748
964	0.7252
973	0.5166
982	0.4758
991	0.587
1000	0.3803
1009	0.7768
1018	0.7667
1027	0.6872
1036	0.5722
1045	0.5711
1054	0.7549
1063	0.7915
1072	0.8171
1081	0.814
1090	0.8255
1099	0.7964
1108	0.7829
1117	0.7673
1126	0.7268
1135	0.6947
1144	0.621
1153	0.4027
1162	0.2093
1171	0.1933
1180	0.2277
1189	0.4255
1198	0.7035
1207	0.7581
1216	0.686
1225	0.5001
1234	0.7626
1243	0.841
1252	0.8232
1261	0.8032
1270	0.7978
1279	0.7006
1288	0.5313
1297	0.4797
1306	0.403
1315	0.5691
1324	0.7229
1333	0.7048
1342	0.6418
1351	0.3143
1360	0.2321
1369	0.3151
1378	0.6091
1387	0.6599
1396	0.7382
1405	0.7387
1414	0.748
1423	0.7459
1432	0.6148
1441	0.5563
1450	0.5631
1459	0.616
1468	0.7269
1477	0.7389
1486	0.7472
1495	0.7463
1504	0.7368
1513	0.7209
1522	0.6794
1531	0.6504
1540	0.5743
1549	0.4334
1558	0.2802
1567	0.1913
1576	0.2569
1585	0.4261
1594	0.3748
1603	0.2389
1612	0.2755
1621	0.4817
1630	0.7055
1639	0.7566
1648	0.7969
1657	0.8113
1666	0.8223
1675	0.8361
1684	0.8466
1693	0.8529
1702	0.8572
1711	0.8606
1720	0.8681
1729	0.8675
1738	0.8727
1747	0.8809
1756	0.8806
1765	0.8817
1774	0.8834
1783	0.8757
1792	0.8772
1801	0.8795
1810	0.8783
1819	0.8773
1828	0.8792
1837	0.8822
1846	0.8853
1855	0.8841
1864	0.8825
1873	0.8806
1882	0.8793
1891	0.8778
1900	0.8753
1909	0.8728
1918	0.8702
1927	0.8676
1936	0.8661
1945	0.8646
1954	0.8631
1963	0.8618
1972	0.8606
1981	0.8594
1990	0.8584
1999	0.8577
2008	0.8568
2017	0.8528
2026	0.8501
2035	0.8486
2044	0.8472
2053	0.846
2062	0.845
2071	0.8426
2080	0.8399
2089	0.8379
2098	0.8358
2107	0.8339
2116	0.8327
2125	0.8387
2134	0.8382
2143	0.8328
2152	0.8277
2161	0.8227
2170	0.818
2179	0.8125
2188	0.8089
2197	0.8073
2206	0.8074
2215	0.8118
2224	0.8158
2233	0.815
2242	0.8041
2251	0.8016
2260	0.8002
2269	0.7976
2278	0.7952
2287	0.7869
2296	0.7835
2305	0.7835
2314	0.7843
2323	0.7854
2332	0.7881
2341	0.7905
2350	0.7872
2359	0.7818
2368	0.7762
2377	0.7711
2386	0.7673
2395	0.764
2404	0.7613
2413	0.7455
2422	0.7406
2431	0.7356
2440	0.7296
2449	0.7256
2458	0.7232
2467	0.7215
2476	0.7214
2485	0.7119
2494	0.7088
2503	0.7062
2512	0.7035
2521	0.7019
2530	0.6975
2539	0.6874
2548	0.6786
2557	0.6727
2566	0.6654
2575	0.6578
2584	0.6499
2593	0.64
2602	0.6328
2611	0.627
2620	0.6172
2629	0.609
2638	0.6018
2647	0.5952
2656	0.5882
2665	0.5792
2674	0.5694
2683	0.5628
2692	0.5614
2701	0.5582
2710	0.5483
2719	0.5378
2728	0.5288
2737	0.5227
2746	0.5173
2755	0.5107
2764	0.4999
2773	0.4914
2782	0.4901
2791	0.4994
2800	0.4965
2809	0.4924
2818	0.4951
2827	0.4974
2836	0.4926
2845	0.4881
2854	0.4855
2863	0.4786
2872	0.483
2881	0.4918
2890	0.4989
2899	0.4903
2908	0.4757
2917	0.4606
2926	0.4474
2935	0.4357
2944	0.4254
2953	0.417
2962	0.4145
2971	0.4148
2980	0.4157
2989	0.4191
2998	0.4257
3007	0.4378
3016	0.451
3025	0.45
3034	0.4554
3043	0.4524
3052	0.4433
3061	0.4332
3070	0.4265
3079	0.4243
3088	0.4242
3097	0.4275
3106	0.4452
3115	0.4635
3124	0.4802
3133	0.4987
3142	0.5154
3151	0.5306
3160	0.5445
3169	0.5548
3178	0.558
3187	0.5649
3196	0.5793
3205	0.5907
3214	0.6009
3223	0.6166
3232	0.6374
3241	0.6492
3250	0.6617
3259	0.6729
3268	0.6806
3277	0.6861
3286	0.6914
3295	0.6967
3304	0.7007
3313	0.7041
3322	0.7134
3331	0.7131
3340	0.7109
3349	0.7051
3358	0.6973
3367	0.6883
3376	0.6785
3385	0.6734
3394	0.672
3403	0.6656
3412	0.6583
3421	0.6545
3430	0.6532
3439	0.6509
3448	0.6494
3457	0.6581
3466	0.6594
3475	0.6581
3484	0.664
3493	0.6661
3502	0.6702
3511	0.6745
3520	0.6889
3529	0.6931
3538	0.6962
3547	0.7007
3556	0.7069
3565	0.7054
3574	0.7048
3583	0.7074
3592	0.7235
3601	0.7411
3610	0.7449
3619	0.7477
3628	0.7511
3637	0.7533
3646	0.7562
3655	0.7573
3664	0.7578
3673	0.7582
3682	0.7587
3691	0.7597
3700	0.7614
3709	0.767
3718	0.7737
3727	0.7701
3736	0.7664
3745	0.7625
3754	0.761
3763	0.7633
3772	0.7654
3781	0.7694
3790	0.7647
3799	0.7591
3808	0.7564
3817	0.7569
3826	0.7576
3835	0.7591
3844	0.7611
3853	0.7625
3862	0.7652
3871	0.7691
3880	0.7714
3889	0.762
3898	0.7602
3907	0.7527
3916	0.751
3925	0.744
3934	0.7457
3943	0.7428
3952	0.7408
3961	0.7491
3970	0.7514
3979	0.7421
3988	0.7272
3997	0.7116
