Infrared Spectrum: DIBUTYLTIN-BIS-(ISO-OCTYLTHIOGLYCOLATE)
Formula: C28 H56 O4 S2 Sn
State: LIQUID
Class: COBLENTZ
Instrument: Not specified, most likely a grating spectrometer.
Sampling: TRANSMISSION
Path length: SMEAR ON CsBr
Resolution: 4
Origin: STANDARD OIL OF OHIO
1/CM	TRANSMITTANCE
243.111	0.863
252.579	0.856
262.046	0.843
271.514	0.824
280.981	0.824
290.449	0.824
299.916	0.808
309.384	0.74
318.851	0.621
328.319	0.59
337.786	0.597
347.254	0.612
356.721	0.68
366.189	0.772
375.656	0.819
385.124	0.824
394.591	0.84
404.059	0.861
413.526	0.863
422.994	0.878
432.461	0.888
441.929	0.895
451.396	0.897
460.864	0.887
470.331	0.907
479.799	0.917
489.266	0.912
498.734	0.902
508.201	0.875
517.669	0.863
527.136	0.88
536.604	0.907
546.071	0.915
555.539	0.909
565.006	0.882
574.474	0.85
583.941	0.836
593.409	0.811
602.876	0.796
612.344	0.819
621.811	0.868
631.279	0.893
640.746	0.872
650.214	0.829
659.681	0.784
669.149	0.6581
678.616	0.639
688.084	0.663
697.551	0.626
707.019	0.649
716.486	0.75
725.954	0.829
735.421	0.836
744.889	0.835
754.356	0.835
763.824	0.835
773.291	0.803
782.759	0.824
792.226	0.853
801.694	0.875
811.161	0.878
820.629	0.873
830.096	0.867
839.564	0.851
849.031	0.809
858.499	0.824
867.966	0.705
877.434	0.6441
886.901	0.666
896.369	0.781
905.836	0.809
915.304	0.803
924.771	0.801
934.239	0.803
943.706	0.781
953.174	0.744
962.641	0.629
972.109	0.622
981.576	0.565
991.044	0.533
1000.51	0.552
1009.98	0.602
1019.45	0.624
1028.91	0.624
1038.38	0.653
1047.85	0.663
1057.32	0.68
1066.78	0.681
1076.25	0.624
1085.72	0.683
1095.19	0.76
1104.65	0.695
1114.12	0.474
1123.59	0.318
1133.06	0.328
1142.52	0.308
1151.99	0.306
1161.46	0.345
1170.93	0.346
1180.39	0.284
1189.86	0.287
1199.33	0.363
1208.8	0.483
1218.26	0.558
1227.73	0.609
1237.2	0.607
1246.67	0.533
1256.13	0.442
1265.6	0.351
1275.07	0.297
1284.54	0.264
1294	0.244
1303.47	0.267
1312.94	0.336
1322.41	0.459
1331.87	0.572
1341.34	0.601
1350.81	0.658
1360.28	0.631
1369.74	0.56
1379.21	0.4609
1388.68	0.489
1398.15	0.572
1407.61	0.526
1417.08	0.54
1426.55	0.582
1436.02	0.622
1445.48	0.552
1454.95	0.422
1464.42	0.331
1473.89	0.4522
1483.35	0.661
1492.82	0.784
1502.29	0.814
1511.76	0.835
1521.22	0.846
1530.69	0.85
1540.16	0.851
1549.63	0.846
1559.09	0.838
1568.56	0.831
1578.03	0.831
1587.5	0.833
1596.96	0.833
1606.43	0.833
1615.9	0.835
1625.37	0.838
1634.83	0.831
1644.3	0.823
1653.77	0.808
1663.24	0.7709
1672.7	0.712
1682.17	0.627
1691.64	0.5149
1701.11	0.355
1710.57	0.262
1720.04	0.272
1729.51	0.249
1738.98	0.235
1748.44	0.3141
1757.91	0.5082
1767.38	0.675
1776.85	0.772
1786.31	0.808
1795.78	0.823
1805.25	0.838
1814.72	0.851
1824.18	0.86
1833.65	0.865
1843.12	0.868
1852.59	0.868
1862.05	0.87
1871.52	0.868
1880.99	0.868
1890.46	0.87
1899.92	0.87
1909.39	0.87
1918.86	0.87
1928.33	0.872
1937.79	0.87
1947.26	0.87
1956.73	0.87
1966.2	0.87
1975.66	0.87
1985.13	0.87
1994.6	0.873
2004.07	0.875
2013.53	0.877
2023	0.873
2032.47	0.873
2041.94	0.872
2051.4	0.872
2060.87	0.872
2070.34	0.8731
2079.81	0.875
2089.27	0.875
2098.74	0.875
2108.21	0.875
2117.68	0.875
2127.14	0.875
2136.61	0.875
2146.08	0.875
2155.55	0.875
2165.01	0.875
2174.48	0.8724
2183.95	0.87
2193.42	0.872
2202.88	0.8728
2212.35	0.87
2221.82	0.8666
2231.29	0.8677
2240.75	0.872
2250.22	0.8706
2259.69	0.868
2269.16	0.868
2278.62	0.868
2288.09	0.867
2297.56	0.865
2307.03	0.8677
2316.49	0.87
2325.96	0.8685
2335.43	0.867
2344.9	0.868
2354.36	0.8706
2363.83	0.87
2373.3	0.867
2382.77	0.865
2392.23	0.863
2401.7	0.861
2411.17	0.8623
2420.64	0.86
2430.1	0.8603
2439.57	0.8627
2449.04	0.8643
2458.51	0.86
2467.97	0.86
2477.44	0.858
2486.91	0.858
2496.38	0.858
2505.84	0.856
2515.31	0.8551
2524.78	0.855
2534.25	0.853
2543.71	0.853
2553.18	0.8511
2562.65	0.8491
2572.12	0.8412
2581.58	0.8355
2591.05	0.836
2600.52	0.839
2609.99	0.835
2619.45	0.833
2628.92	0.833
2638.39	0.833
2647.86	0.831
2657.32	0.8319
2666.79	0.8279
2676.26	0.8286
2685.73	0.8279
2695.19	0.826
2704.66	0.8239
2714.13	0.8193
2723.6	0.8058
2733.06	0.792
2742.53	0.8035
2752	0.809
2761.47	0.8083
2770.93	0.801
2780.4	0.7905
2789.87	0.7784
2799.34	0.7541
2808.8	0.7204
2818.27	0.6827
2827.74	0.6316
2837.21	0.5556
2846.67	0.4243
2856.14	0.3115
2865.61	0.2899
2875.08	0.2527
2884.54	0.3133
2894.01	0.2822
2903.48	0.2519
2912.95	0.2176
2922.41	0.1877
2931.88	0.1788
2941.35	0.2041
2950.82	0.1867
2960.28	0.1274
2969.75	0.1695
2979.22	0.3135
2988.69	0.436
2998.15	0.5591
3007.62	0.6497
3017.09	0.697
3026.56	0.7417
3036.02	0.7662
3045.49	0.782
3054.96	0.7936
3064.43	0.801
3073.89	0.8057
3083.36	0.811
3092.83	0.8139
3102.3	0.8184
3111.76	0.821
3121.23	0.8178
3130.7	0.8176
3140.17	0.8221
3149.63	0.819
3159.1	0.8171
3168.57	0.816
3178.04	0.816
3187.5	0.819
3196.97	0.8199
3206.44	0.824
3215.91	0.826
3225.37	0.829
3234.84	0.831
3244.31	0.833
3253.78	0.833
3263.24	0.835
3272.71	0.835
3282.18	0.835
3291.65	0.835
3301.11	0.835
3310.58	0.833
3320.05	0.829
3329.52	0.829
3338.98	0.829
3348.45	0.8268
3357.92	0.826
3367.39	0.826
3376.85	0.8257
3386.32	0.8221
3395.79	0.819
3405.26	0.818
3414.72	0.818
3424.19	0.818
3433.66	0.8157
3443.13	0.8117
3452.59	0.814
3462.06	0.8154
3471.53	0.8156
3481	0.816
3490.46	0.818
3499.93	0.819
3509.4	0.8188
3518.87	0.818
3528.33	0.818
3537.8	0.818
3547.27	0.816
3556.74	0.8132
3566.2	0.814
3575.67	0.814
3585.14	0.816
3594.61	0.8144
3604.07	0.819
3613.54	0.819
3623.01	0.818
3632.48	0.816
3641.94	0.816
3651.41	0.818
3660.88	0.816
3670.35	0.818
3679.81	0.814
3689.28	0.816
3698.75	0.8148
3708.22	0.818
3717.68	0.816
3727.15	0.814
3736.62	0.816
3746.09	0.816
3755.55	0.814
3765.02	0.8111
3774.49	0.8121
3783.96	0.809
3793.42	0.808
3802.89	0.808
3812.36	0.8085
3821.83	0.809
3831.29	0.807
3840.76	0.804
3850.23	0.806
3859.7	0.809
3869.16	0.8085
3878.63	0.806
3888.1	0.8035
