Infrared Spectrum: 2-HYDROXY-3-(N-TETRADECYLAMINO) PROPYL-TRIMETHYLAMMONIUM p-TOSYLATE
Formula: C27 H52 N2 O4 S
State: SOLID (KBr PELLET)
Melting point: 111-181 C
Class: COBLENTZ
Instrument: Not specified, most likely a prism, grating, or hybrid spectrometer.
Sampling: TRANSMISSION
Resolution: 4
Origin: EASTMAN KODAK COMPANY, RESEARCH LABORATORIES, ROCHESTER, N.Y.
MICROMETERS	TRANSMITTANCE
2.013	0.764
2.05289	0.766
2.09277	0.768
2.13266	0.761
2.17254	0.754
2.21243	0.754
2.25232	0.756
2.2922	0.751
2.33209	0.753
2.37197	0.759
2.41186	0.766
2.45174	0.766
2.49163	0.774
2.53152	0.776
2.5714	0.777
2.61129	0.779
2.65117	0.779
2.69106	0.779
2.73095	0.777
2.77083	0.768
2.81072	0.703
2.8506	0.656
2.89049	0.615
2.93038	0.546
2.97026	0.468
3.01015	0.361
3.05003	0.24
3.08992	0.312
3.1298	0.453
3.16969	0.592
3.20958	0.662
3.24946	0.697
3.28935	0.659
3.32923	0.659
3.36912	0.55
3.40901	0.254
3.44889	0.2
3.48878	0.289
3.52866	0.299
3.56855	0.513
3.60844	0.694
3.64832	0.713
3.68821	0.735
3.72809	0.756
3.76798	0.761
3.80787	0.769
3.84775	0.787
3.88764	0.791
3.92752	0.796
3.96741	0.812
4.00729	0.817
4.04718	0.817
4.08707	0.82
4.12695	0.822
4.16684	0.82
4.20672	0.842
4.24661	0.848
4.2865	0.86
4.32638	0.858
4.36627	0.84
4.40615	0.84
4.44604	0.838
4.48593	0.835
4.52581	0.832
4.5657	0.833
4.60558	0.842
4.64547	0.847
4.68535	0.847
4.72524	0.848
4.76513	0.858
4.80501	0.856
4.8449	0.847
4.88478	0.84
4.92467	0.84
4.96456	0.84
5.00444	0.843
5.04433	0.847
5.08421	0.847
5.1241	0.847
5.16399	0.845
5.20387	0.842
5.24376	0.84
5.28364	0.842
5.32353	0.842
5.36341	0.853
5.4033	0.85
5.44319	0.856
5.48307	0.853
5.52296	0.848
5.56284	0.85
5.60273	0.848
5.64262	0.843
5.6825	0.85
5.72239	0.853
5.76227	0.855
5.80216	0.848
5.84205	0.845
5.88193	0.847
5.92182	0.847
5.9617	0.845
6.00159	0.835
6.04147	0.824
6.08136	0.814
6.12125	0.809
6.16113	0.786
6.20102	0.799
6.2409	0.759
6.28079	0.781
6.32068	0.817
6.36056	0.815
6.40045	0.822
6.44033	0.827
6.48022	0.827
6.52011	0.827
6.55999	0.81
6.59988	0.791
6.63976	0.746
6.67965	0.554
6.71954	0.3
6.75942	0.342
6.79931	0.383
6.83919	0.36
6.87908	0.541
6.91896	0.601
6.95885	0.662
6.99874	0.649
7.03862	0.708
7.07851	0.694
7.11839	0.659
7.15828	0.699
7.19817	0.654
7.23805	0.689
7.27794	0.656
7.31782	0.667
7.35771	0.687
7.3976	0.7
7.43748	0.588
7.47737	0.56
7.51725	0.71
7.55714	0.74
7.59702	0.726
7.63691	0.656
7.6768	0.694
7.71668	0.73
7.75657	0.736
7.79645	0.73
7.83634	0.741
7.87623	0.746
7.91611	0.751
7.956	0.738
7.99588	0.718
8.03577	0.69
8.07566	0.629
8.11554	0.518
8.15543	0.279
8.19531	0.077
8.2352	0.062
8.27508	0.143
8.31497	0.215
8.35486	0.287
8.39474	0.174
8.43463	0.067
8.47451	0.113
8.5144	0.284
8.55429	0.189
8.59417	0.399
8.63406	0.564
8.67394	0.626
8.71383	0.588
8.75372	0.485
8.7936	0.488
8.83349	0.342
8.87337	0.261
8.91326	0.121
8.95314	0.184
8.99303	0.407
9.03292	0.416
9.0728	0.296
9.11269	0.373
9.15257	0.564
9.19246	0.659
9.23235	0.687
9.27223	0.7
9.31212	0.72
9.352	0.741
9.39189	0.75
9.43178	0.738
9.47166	0.726
9.51155	0.726
9.55143	0.726
9.59132	0.631
9.63121	0.317
9.67109	0.136
9.71098	0.574
9.75086	0.692
9.79075	0.73
9.83063	0.687
9.87052	0.254
9.91041	0.226
9.95029	0.62
9.99018	0.705
10.0301	0.758
10.0699	0.779
10.1098	0.787
10.1497	0.763
10.1896	0.723
10.2295	0.625
10.2694	0.453
10.3093	0.383
10.3492	0.488
10.389	0.629
10.4289	0.722
10.4688	0.75
10.5087	0.754
10.5486	0.754
10.5885	0.725
10.6284	0.555
10.6682	0.48
10.7081	0.674
10.748	0.761
10.7879	0.781
10.8278	0.782
10.8677	0.743
10.9076	0.74
10.9474	0.789
10.9873	0.776
11.0272	0.577
11.0671	0.679
11.107	0.796
11.1469	0.835
11.1868	0.856
11.2266	0.858
11.2665	0.853
11.3064	0.851
11.3463	0.868
11.3862	0.86
11.4261	0.858
11.466	0.86
11.5058	0.802
11.5457	0.825
11.5856	0.848
11.6255	0.866
11.6654	0.866
11.7053	0.86
11.7452	0.845
11.785	0.837
11.8249	0.858
11.8648	0.86
11.9047	0.86
11.9446	0.842
11.9845	0.819
12.0244	0.838
12.0642	0.843
12.1041	0.833
12.144	0.819
12.1839	0.774
12.2238	0.726
12.2637	0.587
12.3036	0.378
12.3434	0.396
12.3833	0.45
12.4232	0.467
12.4631	0.504
12.503	0.613
12.5429	0.636
12.5828	0.585
12.6226	0.588
12.6625	0.646
12.7024	0.684
12.7423	0.715
12.7822	0.73
12.8221	0.741
12.862	0.753
12.9018	0.782
12.9417	0.789
12.9816	0.794
13.0215	0.792
13.0614	0.781
13.1013	0.781
13.1412	0.802
13.181	0.81
13.2209	0.814
13.2608	0.815
13.3007	0.815
13.3406	0.815
13.3805	0.815
13.4204	0.814
13.4603	0.814
13.5001	0.814
13.54	0.81
13.5799	0.809
13.6198	0.807
13.6597	0.799
13.6996	0.777
13.7395	0.75
13.7793	0.715
13.8192	0.649
13.8591	0.57
13.899	0.58
13.9389	0.585
13.9788	0.582
14.0187	0.644
14.0585	0.68
14.0984	0.689
14.1383	0.682
14.1782	0.662
14.2181	0.631
14.258	0.611
14.2979	0.569
14.3377	0.532
14.3776	0.485
14.4175	0.439
14.4574	0.378
14.4973	0.319
14.5372	0.297
14.5771	0.282
14.6169	0.274
14.6568	0.277
14.6967	0.314
14.7366	0.386
14.7765	0.435
14.8164	0.491
14.8563	0.519
14.8961	0.534
14.936	0.532
14.9759	0.521
15.0158	0.6
15.0557	0.565
15.0956	0.544
15.1355	0.542
15.1753	0.542
15.2152	0.542
15.2551	0.544
15.295	0.542
15.3349	0.531
15.3748	0.527
15.4147	0.524
15.4545	0.519
15.4944	0.516
15.5343	0.503
15.5742	0.498
15.6141	0.496
15.654	0.496
15.6939	0.488
15.7337	0.481
15.7736	0.475
15.8135	0.462
15.8534	0.465
15.8933	0.465
15.9332	0.468
15.9731	0.468
