Infrared Spectrum: Diisopropylamine hydrochloride
Formula: C6 H16 Cl N
State: SOLID (NUJOL MULL)
Class: COBLENTZ III
Instrument: DOW KBr FOREPRISM-GRATING
Instrument parameters: BLAZED AT 3.5, 12.0, 20.0 MICRON AND CHANGED AT 5.0, 7.5, 14.9 MICRON
Sampling: TRANSMISSION
Resolution: 2
Origin: DOW CHEMICAL COMPANY
1/CM	TRANSMITTANCE
454	0.7155
463	0.7158
472	0.6485
481	0.7028
490	0.7565
499	0.7437
508	0.6278
517	0.511
526	0.8678
535	0.8947
544	0.9074
553	0.9154
562	0.9224
571	0.9262
580	0.929
589	0.9309
598	0.9308
607	0.9316
616	0.9401
625	0.9411
634	0.9418
643	0.9431
652	0.943
661	0.9401
670	0.9393
679	0.9498
688	0.9445
697	0.9358
706	0.926
715	0.9082
724	0.8367
733	0.8699
742	0.8863
751	0.9055
760	0.9112
769	0.9111
778	0.9098
787	0.9104
796	0.9094
805	0.8621
814	0.903
823	0.9098
832	0.8973
841	0.784
850	0.8911
859	0.9025
868	0.9059
877	0.8986
886	0.8965
895	0.8899
904	0.8944
913	0.8761
922	0.847
931	0.8712
940	0.8353
949	0.6399
958	0.6548
967	0.7351
976	0.7003
985	0.6921
994	0.8374
1003	0.8455
1012	0.8399
1021	0.8297
1030	0.826
1039	0.8251
1048	0.8212
1057	0.8092
1066	0.7994
1075	0.7858
1084	0.7665
1093	0.6664
1102	0.5751
1111	0.546
1120	0.7978
1129	0.7922
1138	0.7547
1147	0.6092
1156	0.1962
1165	0.4545
1174	0.4568
1183	0.4072
1192	0.6132
1201	0.609
1210	0.6253
1219	0.7996
1228	0.8505
1237	0.8513
1246	0.85
1255	0.8457
1264	0.8375
1273	0.8278
1282	0.8169
1291	0.8068
1300	0.7924
1309	0.7418
1318	0.7054
1327	0.7733
1336	0.6895
1345	0.6606
1354	0.6103
1363	0.6383
1372	0.5286
1381	0.2204
1390	0.4478
1399	0.1279
1408	0.3918
1417	0.6375
1426	0.4994
1435	0.4907
1444	0.1734
1453	0.2544
1462	0.1199
1471	0.0713
1480	0.1138
1489	0.5857
1498	0.7268
1507	0.7522
1516	0.7788
1525	0.7861
1534	0.7858
1543	0.7911
1552	0.8015
1561	0.8058
1570	0.8006
1579	0.753
1588	0.2322
1597	0.6928
1606	0.8033
1615	0.8292
1624	0.8309
1633	0.8388
1642	0.8508
1651	0.8395
1660	0.8218
1669	0.8203
1678	0.8216
1687	0.8343
1696	0.8368
1705	0.8344
1714	0.8348
1723	0.8428
1732	0.8464
1741	0.8478
1750	0.8455
1759	0.838
1768	0.8437
1777	0.8405
1786	0.8566
1795	0.8608
1804	0.8671
1813	0.8677
1822	0.8546
1831	0.8391
1840	0.8208
1849	0.8386
1858	0.853
1867	0.8433
1876	0.8342
1885	0.8428
1894	0.8506
1903	0.8509
1912	0.8541
1921	0.8573
1930	0.8618
1939	0.8633
1948	0.8604
1957	0.8617
1966	0.8244
1975	0.8046
1984	0.8075
1993	0.8325
2002	0.8467
2011	0.8435
2020	0.8406
2029	0.8375
2038	0.8338
2047	0.8302
2056	0.8266
2065	0.819
2074	0.7983
2083	0.763
2092	0.7144
2101	0.6035
2110	0.615
2119	0.7444
2128	0.8101
2137	0.8212
2146	0.8327
2155	0.8315
2164	0.8301
2173	0.8282
2182	0.8257
2191	0.8128
2200	0.8115
2209	0.8167
2218	0.8239
2227	0.8213
2236	0.8174
2245	0.8131
2254	0.8072
2263	0.7985
2272	0.7851
2281	0.7778
2290	0.7837
2299	0.7808
2308	0.7692
2317	0.7625
2326	0.7647
2335	0.764
2344	0.749
2353	0.7382
2362	0.7314
2371	0.7257
2380	0.6985
2389	0.6883
2398	0.6604
2407	0.6162
2416	0.5206
2425	0.4041
2434	0.4041
2443	0.5572
2452	0.5935
2461	0.5386
2470	0.471
2479	0.2129
2488	0.0266
2497	0.061
2506	0.3841
2515	0.4562
2524	0.5154
2533	0.4653
2542	0.3806
2551	0.3725
2560	0.3849
2569	0.3668
2578	0.4437
2587	0.5007
2596	0.4928
2605	0.4407
2614	0.4025
2623	0.4059
2632	0.3354
2641	0.3008
2650	0.295
2659	0.2655
2668	0.2077
2677	0.1485
2686	0.1034
2695	0.0679
2704	0.0406
2713	0.0173
2722	0.003
2731	0.0117
2740	0.0217
2749	0.0178
2758	0.0109
2767	0.0128
2776	0.025
2785	0.0447
2794	0.0471
2803	0.0358
2812	0.0207
2821	0.0117
2830	0.0075
2839	0.0068
2848	0.0066
2857	0.008
2866	0.0113
2875	0.014
2884	0.0128
2893	0.0087
2902	0.0047
2911	0.0036
2920	0.0035
2929	0.0035
2938	0.0039
2947	0.0043
2956	0.0048
2965	0.0058
2974	0.0072
2983	0.0107
2992	0.0145
3001	0.0749
3010	0.1658
3019	0.2369
3028	0.3004
3037	0.374
3046	0.4459
3055	0.4929
3064	0.5291
3073	0.5714
3082	0.605
3091	0.6322
3100	0.6545
3109	0.6744
3118	0.6918
3127	0.7031
3136	0.7053
3145	0.6982
3154	0.6837
3163	0.66
3172	0.6431
3181	0.664
3190	0.7155
3199	0.7354
3208	0.7478
3217	0.7495
3226	0.753
3235	0.7604
3244	0.7668
3253	0.7685
3262	0.7698
3271	0.77
3280	0.7701
3289	0.7693
3298	0.7684
3307	0.768
3316	0.7714
3325	0.7743
3334	0.7725
3343	0.7694
3352	0.7657
3361	0.7618
3370	0.7576
3379	0.7534
3388	0.7489
3397	0.744
3406	0.7391
3415	0.7322
3424	0.723
3433	0.7086
3442	0.6824
3451	0.6453
3460	0.6359
3469	0.6765
3478	0.6915
3487	0.6878
3496	0.6768
3505	0.6568
3514	0.6248
3523	0.5245
3532	0.5158
3541	0.5597
3550	0.604
3559	0.648
3568	0.6856
3577	0.7056
3586	0.7208
3595	0.7347
3604	0.7454
3613	0.7517
3622	0.7593
3631	0.7667
3640	0.7721
3649	0.7785
3658	0.7833
3667	0.7865
3676	0.7886
3685	0.7903
3694	0.7905
3703	0.7905
3712	0.7904
3721	0.7903
3730	0.7899
3739	0.7884
3748	0.7871
3757	0.7865
3766	0.7836
3775	0.7821
3784	0.7831
3793	0.7825
