Infrared Spectrum: 2-NAPHTHYLAMINE, N-(P-METHOXYBENZYLIDENE)-1-(P-METHOXYPHENYLAZO)-,HYDROGEN TETRAFLUOROBORATE
Formula: C25 H22 B F4 N3 O2
State: SOLID (KBr DISC)
Class: COBLENTZ III
Instrument: UNICAM SP-200
Sampling: TRANSMISSION
Resolution: 4
Origin: HUNGARIAN ACAD. OF SCI., VIA SCIENTIFIC DOC. CENTRE LTD.
1/CM	TRANSMITTANCE
651.591	0.778
662.728	0.796
673.866	0.804
685.003	0.799
696.14	0.788
707.277	0.757
718.415	0.764
729.552	0.782
740.689	0.648
751.827	0.721
762.964	0.662
774.101	0.755
785.239	0.706
796.376	0.793
807.513	0.766
818.65	0.666
829.788	0.309
840.925	0.4309
852.062	0.628
863.2	0.671
874.337	0.769
885.474	0.784
896.611	0.772
907.749	0.828
918.886	0.827
930.023	0.815
941.161	0.789
952.298	0.742
963.435	0.67
974.573	0.607
985.71	0.501
996.847	0.519
1007.98	0.428
1019.12	0.289
1030.26	0.208
1041.4	0.258
1052.53	0.272
1063.67	0.233
1074.81	0.215
1085.95	0.2
1097.08	0.26
1108.22	0.232
1119.36	0.2569
1130.49	0.4
1141.63	0.378
1152.77	0.374
1163.91	0.243
1175.04	0.1169
1186.18	0.383
1197.32	0.484
1208.46	0.507
1219.59	0.565
1230.73	0.3981
1241.87	0.209
1253	0.103
1264.14	0.18
1275.28	0.488
1286.42	0.525
1297.55	0.489
1308.69	0.428
1319.83	0.468
1330.97	0.567
1342.1	0.702
1353.24	0.689
1364.38	0.734
1375.52	0.752
1386.65	0.713
1397.79	0.744
1408.93	0.574
1420.06	0.501
1431.2	0.367
1442.34	0.286
1453.48	0.412
1464.61	0.521
1475.75	0.6869
1486.89	0.676
1498.03	0.4641
1509.16	0.26
1520.3	0.574
1531.44	0.746
1542.57	0.688
1553.71	0.568
1564.85	0.6071
1575.99	0.467
1587.12	0.414
1598.26	0.193
1609.4	0.3239
1620.54	0.6649
1631.67	0.75
1642.81	0.782
1653.95	0.82
1665.08	0.827
1676.22	0.838
1687.36	0.84
1698.5	0.85
1709.63	0.853
1720.77	0.863
1731.91	0.865
1743.05	0.874
1754.18	0.871
1765.32	0.872
1776.46	0.875
1787.59	0.875
1798.73	0.874
1809.87	0.875
1821.01	0.873
1832.14	0.875
1843.28	0.875
1854.42	0.868
1865.56	0.873
1876.69	0.866
1887.83	0.859
1898.97	0.868
1910.11	0.857
1921.24	0.865
1932.38	0.864
1943.52	0.857
1954.65	0.855
1965.79	0.853
1976.93	0.853
1988.07	0.854
1999.2	0.86
2010.34	0.8529
2021.48	0.8442
2032.62	0.8376
2043.75	0.8379
2054.89	0.8404
2066.03	0.842
2077.16	0.8435
2088.3	0.845
2099.44	0.846
2110.58	0.846
2121.71	0.847
2132.85	0.846
2143.99	0.8445
2155.13	0.841
2166.26	0.842
2177.4	0.842
2188.54	0.8391
2199.67	0.839
2210.81	0.837
2221.95	0.8355
2233.09	0.833
2244.22	0.832
2255.36	0.8309
2266.5	0.8293
2277.64	0.8268
2288.77	0.8243
2299.91	0.824
2311.05	0.8258
2322.19	0.826
2333.32	0.8211
2344.46	0.8136
2355.6	0.8081
2366.73	0.8015
2377.87	0.7899
2389.01	0.7829
2400.15	0.7766
2411.28	0.7634
2422.42	0.7586
2433.56	0.7553
2444.7	0.7502
2455.83	0.7414
2466.97	0.7313
2478.11	0.7251
2489.24	0.7158
2500.38	0.7043
2511.52	0.697
2522.66	0.6899
2533.79	0.673
2544.93	0.6639
2556.07	0.6591
2567.21	0.6486
2578.34	0.6383
2589.48	0.6305
2600.62	0.6272
2611.75	0.627
2622.89	0.623
2634.03	0.6082
2645.17	0.6021
2656.3	0.599
2667.44	0.598
2678.58	0.597
2689.72	0.595
2700.85	0.5904
2711.99	0.5858
2723.13	0.585
2734.26	0.5838
2745.4	0.5794
2756.54	0.5644
2767.68	0.5571
2778.81	0.539
2789.95	0.5468
2801.09	0.559
2812.23	0.564
2823.36	0.5665
2834.5	0.5668
2845.64	0.5591
2856.78	0.5458
2867.91	0.544
2879.05	0.5348
2890.19	0.5195
2901.32	0.5283
2912.46	0.5473
2923.6	0.5574
2934.74	0.5599
2945.87	0.5629
2957.01	0.57
2968.15	0.5671
2979.29	0.572
2990.42	0.566
3001.56	0.5656
3012.7	0.5774
3023.83	0.5877
3034.97	0.5938
3046.11	0.6083
3057.25	0.6117
3068.38	0.6218
3079.52	0.626
3090.66	0.627
3101.8	0.626
3112.93	0.6199
3124.07	0.6059
3135.21	0.5947
3146.34	0.5827
3157.48	0.5722
3168.62	0.5568
3179.76	0.551
3190.89	0.5533
3202.03	0.5588
3213.17	0.5608
3224.31	0.5686
3235.44	0.5794
3246.58	0.59
3257.72	0.6055
3268.86	0.6009
3279.99	0.6006
3291.13	0.6043
3302.27	0.6073
3313.4	0.5967
3324.54	0.588
3335.68	0.5863
3346.82	0.5888
3357.95	0.5859
3369.09	0.582
3380.23	0.5869
3391.37	0.59
3402.5	0.5935
3413.64	0.6074
3424.78	0.6258
3435.91	0.6291
3447.05	0.631
3458.19	0.6434
3469.33	0.647
3480.46	0.6596
3491.6	0.668
3502.74	0.6791
3513.88	0.6868
3525.01	0.6899
3536.15	0.698
3547.29	0.7035
3558.42	0.7071
3569.56	0.722
3580.7	0.7233
3591.84	0.727
3602.97	0.729
3614.11	0.7362
3625.25	0.7393
3636.39	0.7428
3647.52	0.747
3658.66	0.7431
3669.8	0.7381
3680.93	0.736
3692.07	0.7385
3703.21	0.7427
3714.35	0.7386
3725.48	0.7411
3736.62	0.7447
3747.76	0.7384
3758.9	0.736
3770.03	0.7393
3781.17	0.7382
3792.31	0.738
3803.45	0.7315
3814.58	0.728
3825.72	0.728
3836.86	0.727
3847.99	0.726
3859.13	0.726
3870.27	0.7261
3881.41	0.7287
3892.54	0.7302
3903.68	0.7283
3914.82	0.727
3925.96	0.7278
3937.09	0.727
3948.23	0.7242
3959.37	0.725
3970.5	0.728
3981.64	0.7255
3992.78	0.722
4003.92	0.724
4015.05	0.723
4026.19	0.7194
4037.33	0.7178
4048.47	0.7194
4059.6	0.718
4070.74	0.718
4081.88	0.721
4093.01	0.7191
4104.15	0.718
4115.29	0.722
4126.43	0.72
4137.56	0.713
4148.7	0.7114
4159.84	0.711
4170.98	0.713
4182.11	0.7138
4193.25	0.7093
4204.39	0.7083
4215.53	0.7126
4226.66	0.7083
4237.8	0.7031
4248.94	0.704
4260.07	0.707
4271.21	0.7085
4282.35	0.707
4293.49	0.709
4304.62	0.708
4315.76	0.7044
4326.9	0.7
4338.04	0.7017
4349.17	0.702
4360.31	0.704
4371.45	0.7047
4382.58	0.704
4393.72	0.6992
4404.86	0.6999
4416	0.702
4427.13	0.702
4438.27	0.702
4449.41	0.697
4460.55	0.696
4471.68	0.6972
4482.82	0.6987
4493.96	0.7012
4505.09	0.7002
4516.23	0.6954
4527.37	0.6911
4538.51	0.693
4549.64	0.6939
4560.78	0.695
4571.92	0.695
4583.06	0.6931
4594.19	0.6952
4605.33	0.697
4616.47	0.6915
4627.6	0.686
4638.74	0.687
4649.88	0.687
4661.02	0.686
4672.15	0.6859
4683.29	0.6898
4694.43	0.6922
4705.57	0.6865
4716.7	0.686
4727.84	0.688
4738.98	0.6869
4750.12	0.684
4761.25	0.6828
4772.39	0.681
4783.53	0.681
4794.66	0.682
4805.8	0.6837
4816.94	0.679
4828.08	0.679
4839.21	0.6771
4850.35	0.679
4861.49	0.679
4872.63	0.68
4883.76	0.6809
4894.9	0.679
4906.04	0.677
4917.17	0.6784
4928.31	0.679
4939.45	0.6772
4950.59	0.6757
4961.72	0.6758
