Infrared Spectrum: Nicotinamide hydroiodide
Formula: C6 H7 I N2 O
State: SOLID (SPLIT MULL)
Class: COBLENTZ III
Instrument: BECKMAN IR-9 (GRATING)
Instrument parameters: ORDER CHANGES: 670, 1200, 2000 CM^-^1
Sampling: TRANSMISSION
Resolution: 2
Origin: DOW CHEMICAL COMPANY
1/CM	TRANSMITTANCE
3790	0.6465
3781	0.6518
3772	0.6543
3763	0.6558
3754	0.6575
3745	0.6595
3736	0.6618
3727	0.6642
3718	0.6665
3709	0.6689
3700	0.6712
3691	0.6736
3682	0.6765
3673	0.6796
3664	0.6826
3655	0.6853
3646	0.6875
3637	0.6896
3628	0.6915
3619	0.6932
3610	0.694
3601	0.695
3592	0.6968
3583	0.6988
3574	0.7008
3565	0.7037
3556	0.7068
3547	0.7098
3538	0.7133
3529	0.7168
3520	0.7206
3511	0.7243
3502	0.7281
3493	0.7318
3484	0.7365
3475	0.741
3466	0.7464
3457	0.7518
3448	0.7572
3439	0.7614
3430	0.7644
3421	0.7655
3412	0.7645
3403	0.7614
3394	0.756
3385	0.7397
3376	0.7007
3367	0.6184
3358	0.4221
3349	0.3167
3340	0.218
3331	0.2554
3322	0.3775
3313	0.4662
3304	0.5054
3295	0.5257
3286	0.545
3277	0.5621
3268	0.5796
3259	0.5905
3250	0.5827
3241	0.5652
3232	0.5496
3223	0.5487
3214	0.5545
3205	0.5475
3196	0.5456
3187	0.5248
3178	0.3949
3169	0.3226
3160	0.332
3151	0.3791
3142	0.4249
3133	0.4738
3124	0.5228
3115	0.558
3106	0.5584
3097	0.5236
3088	0.5302
3079	0.5587
3070	0.4129
3061	0.5171
3052	0.4969
3043	0.4365
3034	0.4924
3025	0.4952
3016	0.476
3007	0.4704
2998	0.4682
2989	0.4665
2980	0.4654
2971	0.466
2962	0.4783
2953	0.4937
2944	0.5078
2935	0.5206
2926	0.5369
2917	0.5266
2908	0.511
2899	0.5249
2890	0.5162
2881	0.5207
2872	0.5369
2863	0.5328
2854	0.5152
2845	0.5214
2836	0.5351
2827	0.5507
2818	0.5653
2809	0.5799
2800	0.5926
2791	0.5962
2782	0.6005
2773	0.6089
2764	0.6248
2755	0.6362
2746	0.6412
2737	0.6441
2728	0.6491
2719	0.6583
2710	0.6662
2701	0.6742
2692	0.6821
2683	0.6905
2674	0.6974
2665	0.7032
2656	0.7084
2647	0.7135
2638	0.7194
2629	0.7251
2620	0.7304
2611	0.7353
2602	0.7378
2593	0.7384
2584	0.7374
2575	0.7385
2566	0.7415
2557	0.7461
2548	0.7517
2539	0.7554
2530	0.7571
2521	0.7592
2512	0.7611
2503	0.7631
2494	0.7649
2485	0.7668
2476	0.7683
2467	0.7697
2458	0.7708
2449	0.7718
2440	0.7728
2431	0.7735
2422	0.774
2413	0.7747
2404	0.7761
2395	0.7771
2386	0.7781
2377	0.7842
2368	0.794
2359	0.794
2350	0.7933
2341	0.793
2332	0.7928
2323	0.7925
2314	0.7921
2305	0.7918
2296	0.7921
2287	0.7925
2278	0.7931
2269	0.7936
2260	0.7949
2251	0.7965
2242	0.8017
2233	0.8078
2224	0.8138
2215	0.8186
2206	0.8236
2197	0.8275
2188	0.8308
2179	0.8338
2170	0.8368
2161	0.8396
2152	0.8418
2143	0.8435
2134	0.8451
2125	0.8467
2116	0.8486
2107	0.8504
2098	0.8523
2089	0.8542
2080	0.8561
2071	0.8581
2062	0.8602
2053	0.8624
2044	0.8644
2035	0.8661
2026	0.867
2017	0.8673
2008	0.8662
1999	0.8636
1990	0.8735
1981	0.8761
1972	0.8703
1963	0.8798
1954	0.887
1945	0.8844
1936	0.8737
1927	0.8811
1918	0.8901
1909	0.891
1900	0.8904
1891	0.8908
1882	0.8916
1873	0.8855
1864	0.8787
1855	0.8892
1846	0.9039
1837	0.9124
1828	0.9128
1819	0.9103
1810	0.9075
1801	0.9107
1792	0.9159
1783	0.9187
1774	0.9198
1765	0.9183
1756	0.9171
1747	0.9295
1738	0.9332
1729	0.93
1720	0.9233
1711	0.9186
1702	0.8806
1693	0.8165
1684	0.7172
1675	0.3209
1666	0.1629
1657	0.3609
1648	0.5889
1639	0.7458
1630	0.6946
1621	0.6242
1612	0.366
1603	0.5856
1594	0.5805
1585	0.7484
1576	0.8175
1567	0.8445
1558	0.8277
1549	0.7911
1540	0.5067
1531	0.6814
1522	0.8069
1513	0.8398
1504	0.8552
1495	0.8652
1486	0.8697
1477	0.8657
1468	0.8593
1459	0.8435
1450	0.5187
1441	0.82
1432	0.8257
1423	0.7904
1414	0.6438
1405	0.46
1396	0.5643
1387	0.6651
1378	0.7343
1369	0.7596
1360	0.7646
1351	0.7508
1342	0.7094
1333	0.6947
1324	0.6204
1315	0.6737
1306	0.6514
1297	0.7168
1288	0.7268
1279	0.734
1270	0.7314
1261	0.7404
1252	0.7176
1243	0.6835
1234	0.8284
1225	0.8635
1216	0.8724
1207	0.8843
1198	0.9028
1189	0.9112
1180	0.8908
1171	0.9073
1162	0.8901
1153	0.8782
1144	0.9114
1135	0.9154
1126	0.574
1117	0.8499
1108	0.6933
1099	0.92
1090	0.9294
1081	0.9309
1072	0.9225
1063	0.9025
1054	0.9449
1045	0.954
1036	0.9341
1027	0.9249
1018	0.9021
1009	0.9208
1000	0.9256
991	0.8711
982	0.9044
973	0.9447
964	0.9517
955	0.9506
946	0.9453
937	0.9591
928	0.9636
919	0.9633
910	0.9644
901	0.9566
892	0.9228
883	0.7758
874	0.959
865	0.9773
856	0.9853
847	0.9889
838	0.9807
829	0.9328
820	0.5931
811	0.9496
802	0.9707
793	0.9561
784	0.862
775	0.7851
766	0.8937
757	0.9316
748	0.9339
739	0.923
730	0.903
721	0.885
712	0.9096
703	0.786
694	0.8658
685	0.8787
676	0.7176
667	0.6919
658	0.6008
649	0.4135
640	0.5462
631	0.6558
622	0.8598
613	0.7787
604	0.9247
595	0.9548
586	0.9658
577	0.9721
568	0.975
559	0.9727
550	0.9643
541	0.9225
532	0.8715
523	0.9642
514	0.9654
505	0.9644
496	0.962
487	0.9566
478	0.9451
469	0.9304
460	0.911
451	0.8814
442	0.837
433	0.7805
424	0.7292
415	0.7074
406	0.7164
