Infrared Spectrum: Benzenamine, 2-chloro-N-(1',1'-dimethylpropyl)-
Formula: C11 H16 Cl N
State: LIQUID (NEAT)
Class: COBLENTZ III
Instrument: BECKMAN IR-4 (HYBRID PRISM-GRATING)
Instrument parameters: NaCl PRISM
Sampling: TRANSMISSION
Path length: CAPILLARY
Resolution: 2
Origin: MONSANTO (J. FREEMAN)
1/CM	TRANSMITTANCE
627	0.7839
636	0.8171
645	0.8209
654	0.8139
663	0.7628
672	0.7214
681	0.6406
690	0.473
699	0.4662
708	0.59
717	0.5805
726	0.4696
735	0.1155
744	0.0867
753	0.2387
762	0.5515
771	0.6578
780	0.635
789	0.6324
798	0.7358
807	0.7831
816	0.7934
825	0.7912
834	0.749
843	0.7807
852	0.833
861	0.868
870	0.874
879	0.872
888	0.8654
897	0.8471
906	0.7924
915	0.8307
924	0.6738
933	0.7723
942	0.8341
951	0.8359
960	0.7792
969	0.6557
978	0.6201
987	0.6968
996	0.7334
1005	0.6726
1014	0.6655
1023	0.5791
1032	0.3212
1041	0.2632
1050	0.3618
1059	0.4799
1068	0.4783
1077	0.6555
1086	0.7903
1095	0.8075
1104	0.8351
1113	0.8451
1122	0.7705
1131	0.5028
1140	0.6854
1149	0.7474
1158	0.676
1167	0.5195
1176	0.4314
1185	0.292
1194	0.2874
1203	0.2313
1212	0.2722
1221	0.3872
1230	0.6144
1239	0.6642
1248	0.5609
1257	0.3538
1266	0.3488
1275	0.5498
1284	0.4653
1293	0.2892
1302	0.2881
1311	0.3821
1320	0.3098
1329	0.1673
1338	0.2253
1347	0.3531
1356	0.6825
1365	0.6851
1374	0.3372
1383	0.454
1392	0.3096
1401	0.4459
1410	0.7109
1419	0.7174
1428	0.6711
1437	0.4753
1446	0.4096
1455	0.3472
1464	0.2493
1473	0.1047
1482	0.1235
1491	0.2948
1500	0.3178
1509	0.2356
1518	0.1675
1527	0.1014
1536	0.2506
1545	0.4017
1554	0.6323
1563	0.6934
1572	0.6956
1581	0.5474
1590	0.3951
1599	0.1978
1608	0.0789
1617	0.2755
1626	0.3519
1635	0.4765
1644	0.6568
1653	0.7204
1662	0.739
1671	0.7616
1680	0.7842
1689	0.8065
1698	0.8316
1707	0.8678
1716	0.8824
1725	0.8892
1734	0.895
1743	0.8994
1752	0.8943
1761	0.8776
1770	0.8563
1779	0.8737
1788	0.887
1797	0.8828
1806	0.8814
1815	0.8829
1824	0.8914
1833	0.8978
1842	0.8936
1851	0.8784
1860	0.8698
1869	0.88
1878	0.8883
1887	0.8808
1896	0.8508
1905	0.8392
1914	0.8605
1923	0.8712
1932	0.8532
1941	0.8455
1950	0.8762
1959	0.8919
1968	0.9019
1977	0.9078
1986	0.9114
1995	0.9133
2004	0.9143
2013	0.9151
2022	0.9153
2031	0.9155
2040	0.9158
2049	0.9161
2058	0.9163
2067	0.9163
2076	0.9164
2085	0.9164
2094	0.9164
2103	0.9164
2112	0.9162
2121	0.9151
2130	0.9135
2139	0.9109
2148	0.9085
2157	0.9062
2166	0.9054
2175	0.9057
2184	0.9087
2193	0.9148
2202	0.9183
2211	0.9184
2220	0.9179
2229	0.9164
2238	0.915
2247	0.9137
2256	0.9126
2265	0.9113
2274	0.9099
2283	0.9086
2292	0.9073
2301	0.9062
2310	0.9051
2319	0.9052
2328	0.9052
2337	0.9053
2346	0.9055
2355	0.9056
2364	0.9056
2373	0.9055
2382	0.9051
2391	0.9031
2400	0.9011
2409	0.8986
2418	0.8954
2427	0.8922
2436	0.8889
2445	0.8864
2454	0.8855
2463	0.8878
2472	0.8905
2481	0.8933
2490	0.8962
2499	0.897
2508	0.8973
2517	0.8954
2526	0.8927
2535	0.8897
2544	0.8865
2553	0.8819
2562	0.8775
2571	0.8724
2580	0.8667
2589	0.8604
2598	0.8563
2607	0.8547
2616	0.8548
2625	0.8548
2634	0.8536
2643	0.8499
2652	0.8457
2661	0.845
2670	0.8484
2679	0.8562
2688	0.862
2697	0.8683
2706	0.8743
2715	0.8788
2724	0.8818
2733	0.8831
2742	0.8821
2751	0.8801
2760	0.8726
2769	0.8621
2778	0.8555
2787	0.8532
2796	0.8519
2805	0.851
2814	0.8496
2823	0.8469
2832	0.8402
2841	0.8308
2850	0.8177
2859	0.8002
2868	0.7245
2877	0.699
2886	0.6665
2895	0.6009
2904	0.5114
2913	0.3916
2922	0.3835
2931	0.3938
2940	0.3698
2949	0.3375
2958	0.3054
2967	0.2735
2976	0.2532
2985	0.2422
2994	0.2078
3003	0.1736
3012	0.1532
3021	0.1953
3030	0.2846
3039	0.3733
3048	0.4615
3057	0.5492
3066	0.6352
3075	0.6491
3084	0.6496
3093	0.6403
3102	0.6292
3111	0.6259
3120	0.6367
3129	0.6607
3138	0.6826
3147	0.7111
3156	0.7998
3165	0.8164
3174	0.8187
3183	0.8199
3192	0.8208
3201	0.8211
3210	0.8215
3219	0.8212
3228	0.8209
3237	0.822
3246	0.8284
3255	0.8362
3264	0.843
3273	0.8456
3282	0.8477
3291	0.8485
3300	0.8491
3309	0.849
3318	0.8485
3327	0.8477
3336	0.8461
3345	0.8428
3354	0.8396
3363	0.8358
3372	0.8028
3381	0.7599
3390	0.7173
3399	0.6748
3408	0.6326
3417	0.5906
3426	0.5488
3435	0.5073
3444	0.4668
3453	0.4543
3462	0.4543
3471	0.5172
3480	0.6265
3489	0.7008
3498	0.7082
3507	0.7131
3516	0.7172
3525	0.722
3534	0.728
3543	0.7446
3552	0.7659
3561	0.8115
3570	0.8261
3579	0.8345
3588	0.8406
3597	0.8447
3606	0.8478
3615	0.8495
3624	0.851
3633	0.8518
3642	0.8524
3651	0.8529
3660	0.8529
3669	0.853
3678	0.853
3687	0.853
3696	0.8529
3705	0.8528
3714	0.8528
3723	0.8527
3732	0.8526
3741	0.8523
3750	0.8518
3759	0.8513
3768	0.8507
3777	0.8502
3786	0.8496
3795	0.8492
3804	0.8485
3813	0.848
3822	0.8474
3831	0.8469
3840	0.8463
3849	0.846
3858	0.8458
3867	0.8454
3876	0.8451
3885	0.845
3894	0.8449
3903	0.8449
3912	0.8448
3921	0.8442
3930	0.8437
3939	0.8432
3948	0.8424
3957	0.8415
3966	0.8407
3975	0.8398
3984	0.8389
3993	0.8378
