Infrared Spectrum: Phenylphosphinic acid, sodium salt-
Formula: C6 H6 Na O2 P
State: SOLID (SPLIT MULL), FLUOROLUBE FOR 3800-1330 CM^-^1, NUJOL FOR 1330-400 CM^-^1
Class: COBLENTZ III
Instrument: DOW KBr FOREPRISM-GRATING
Instrument parameters: BLAZED AT 3.5, 12.0, 20.0 MICRON AND CHANGED AT 5.0, 7.5, 14.9 MICRON
Sampling: TRANSMISSION
Resolution: 2
Origin: DOW CHEMICAL COMPANY
1/CM	TRANSMITTANCE
383	0.8609
392	0.8573
401	0.8516
410	0.8408
419	0.8251
428	0.8004
437	0.8497
446	0.8842
455	0.8884
464	0.8889
473	0.8798
482	0.8446
491	0.5244
500	0.5496
509	0.7015
518	0.8188
527	0.7828
536	0.7025
545	0.0676
554	0.4881
563	0.58
572	0.8215
581	0.8491
590	0.8599
599	0.8639
608	0.8668
617	0.8711
626	0.8709
635	0.8675
644	0.8605
653	0.8498
662	0.8288
671	0.7865
680	0.6701
689	0.2665
698	0.6764
707	0.298
716	0.7462
725	0.7506
734	0.744
743	0.4596
752	0.4279
761	0.814
770	0.823
779	0.8277
788	0.8286
797	0.8268
806	0.8211
815	0.8131
824	0.804
833	0.7944
842	0.7867
851	0.7821
860	0.781
869	0.7882
878	0.7828
887	0.7737
896	0.7711
905	0.7385
914	0.7432
923	0.7485
932	0.7615
941	0.7574
950	0.7489
959	0.7339
968	0.7084
977	0.6672
986	0.5336
995	0.2861
1004	0.2752
1013	0.6705
1022	0.4381
1031	0.6806
1040	0.5604
1049	0.1372
1058	0.1679
1067	0.3782
1076	0.6297
1085	0.6806
1094	0.6715
1103	0.6756
1112	0.6505
1121	0.5824
1130	0.4318
1139	0.1454
1148	0.3084
1157	0.2572
1166	0.0671
1175	0.0294
1184	0.4203
1193	0.3222
1202	0.411
1211	0.6121
1220	0.6968
1229	0.7315
1238	0.7474
1247	0.756
1256	0.758
1265	0.7568
1274	0.7528
1283	0.7467
1292	0.7356
1301	0.7267
1310	0.7362
1319	0.7478
1328	0.6407
1337	0.5989
1346	0.6052
1355	0.6838
1364	0.7262
1373	0.7257
1382	0.7039
1391	0.7485
1400	0.7496
1409	0.7462
1418	0.7308
1427	0.6862
1436	0.2529
1445	0.8015
1454	0.8162
1463	0.8194
1472	0.8112
1481	0.7811
1490	0.8024
1499	0.818
1508	0.814
1517	0.8143
1526	0.813
1535	0.8117
1544	0.8094
1553	0.8101
1562	0.8145
1571	0.8158
1580	0.8133
1589	0.7638
1598	0.7968
1607	0.8171
1616	0.8124
1625	0.8172
1634	0.8134
1643	0.8119
1652	0.7985
1661	0.8019
1670	0.799
1679	0.8004
1688	0.804
1697	0.7962
1706	0.8058
1715	0.8047
1724	0.8049
1733	0.8011
1742	0.7994
1751	0.7941
1760	0.7907
1769	0.7875
1778	0.7935
1787	0.7925
1796	0.791
1805	0.7894
1814	0.7851
1823	0.7814
1832	0.7842
1841	0.7878
1850	0.7881
1859	0.7825
1868	0.7757
1877	0.7715
1886	0.7711
1895	0.771
1904	0.7801
1913	0.7851
1922	0.7858
1931	0.7822
1940	0.7745
1949	0.7625
1958	0.7657
1967	0.765
1976	0.7667
1985	0.7676
1994	0.7658
2003	0.763
2012	0.7628
2021	0.7618
2030	0.7575
2039	0.7488
2048	0.7464
2057	0.7456
2066	0.7445
2075	0.7408
2084	0.7351
2093	0.7288
2102	0.7225
2111	0.7186
2120	0.7145
2129	0.7096
2138	0.7026
2147	0.6948
2156	0.6867
2165	0.6784
2174	0.6693
2183	0.6564
2192	0.6415
2201	0.6247
2210	0.6268
2219	0.633
2228	0.6287
2237	0.615
2246	0.5942
2255	0.5625
2264	0.5145
2273	0.3255
2282	0.1377
2291	0.3509
2300	0.5797
2309	0.5958
2318	0.5948
2327	0.5899
2336	0.5836
2345	0.5732
2354	0.5346
2363	0.3746
2372	0.5512
2381	0.5697
2390	0.5135
2399	0.3212
2408	0.591
2417	0.6355
2426	0.6505
2435	0.6571
2444	0.6606
2453	0.6621
2462	0.663
2471	0.6639
2480	0.6655
2489	0.6674
2498	0.6694
2507	0.6712
2516	0.6717
2525	0.6711
2534	0.6704
2543	0.6687
2552	0.6671
2561	0.6655
2570	0.664
2579	0.6631
2588	0.6625
2597	0.6618
2606	0.6606
2615	0.6593
2624	0.6582
2633	0.6571
2642	0.6561
2651	0.655
2660	0.6533
2669	0.6512
2678	0.6494
2687	0.6474
2696	0.6455
2705	0.6436
2714	0.6422
2723	0.6415
2732	0.6403
2741	0.6386
2750	0.6368
2759	0.6347
2768	0.6326
2777	0.6304
2786	0.6284
2795	0.6262
2804	0.6243
2813	0.6223
2822	0.62
2831	0.6174
2840	0.6148
2849	0.6122
2858	0.6099
2867	0.6077
2876	0.6056
2885	0.6033
2894	0.6006
2903	0.5979
2912	0.5955
2921	0.5932
2930	0.5909
2939	0.5878
2948	0.5847
2957	0.5815
2966	0.5774
2975	0.5729
2984	0.5679
2993	0.5612
3002	0.5402
3011	0.498
3020	0.5439
3029	0.5359
3038	0.5114
3047	0.4403
3056	0.4448
3065	0.4956
3074	0.3697
3083	0.5653
3092	0.5751
3101	0.582
3110	0.5805
3119	0.5775
3128	0.5742
3137	0.571
3146	0.5682
3155	0.5706
3164	0.5696
3173	0.5671
3182	0.5645
3191	0.5616
3200	0.5589
3209	0.5569
3218	0.5549
3227	0.5528
3236	0.5508
3245	0.5487
3254	0.5467
3263	0.5444
3272	0.542
3281	0.5395
3290	0.5372
3299	0.5347
3308	0.5322
3317	0.5295
3326	0.5268
3335	0.5242
3344	0.5219
3353	0.5197
3362	0.5175
3371	0.5162
3380	0.5154
3389	0.5145
3398	0.5136
3407	0.5128
3416	0.512
3425	0.5112
3434	0.5104
3443	0.5096
3452	0.5088
3461	0.5082
3470	0.5076
3479	0.507
3488	0.5065
3497	0.5058
3506	0.5053
3515	0.5044
3524	0.5035
3533	0.5027
3542	0.5018
3551	0.5009
3560	0.5001
3569	0.4992
3578	0.4984
3587	0.4976
3596	0.4968
3605	0.496
3614	0.4951
3623	0.4942
3632	0.4932
3641	0.4921
3650	0.491
3659	0.4903
3668	0.4896
3677	0.4889
3686	0.4883
3695	0.4875
3704	0.4866
3713	0.4857
3722	0.4849
3731	0.4836
3740	0.4824
3749	0.4817
3758	0.4812
3767	0.4808
3776	0.4805
3785	0.48
3794	0.4792
3803	0.4779
