Infrared Spectrum: 1,1'-DIISOCYANATO FERROCENE
Formula: C12 H8 N2 O2 Fe
State: SOLID (MINERAL OIL MULL)
Class: COBLENTZ
Instrument: Not specified, most likely a prism, grating, or hybrid spectrometer.
Sampling: TRANSMISSION
Resolution: 4
Origin: WYANDOTTE CHEMICALS CORP., WYANDOTTE, MICHIGAN, USA
MICROMETERS	TRANSMITTANCE
2.014	0.299
2.05488	0.303
2.09575	0.31
2.13663	0.31
2.1775	0.321
2.21838	0.327
2.25926	0.337
2.30013	0.342
2.34101	0.342
2.38188	0.352
2.42276	0.364
2.46364	0.367
2.50451	0.367
2.54539	0.379
2.58626	0.388
2.62714	0.385
2.66802	0.408
2.70889	0.395
2.74977	0.385
2.79065	0.403
2.83152	0.413
2.8724	0.415
2.91327	0.403
2.95415	0.39
2.99503	0.425
3.0359	0.427
3.07678	0.431
3.11765	0.431
3.15853	0.422
3.19941	0.419
3.24028	0.39
3.28116	0.42
3.32203	0.386
3.36291	0.187
3.40379	0.074
3.44466	0.085
3.48554	0.163
3.52641	0.219
3.56729	0.546
3.60817	0.616
3.64904	0.64
3.68992	0.647
3.73079	0.676
3.77167	0.676
3.81255	0.691
3.85342	0.713
3.8943	0.729
3.93517	0.744
3.97605	0.754
4.01693	0.768
4.0578	0.747
4.09868	0.7
4.13956	0.609
4.18043	0.511
4.22131	0.332
4.26218	0.229
4.30306	0.218
4.34394	0.218
4.38481	0.183
4.42569	0.069
4.46656	0.061
4.50744	0.073
4.54832	0.132
4.58919	0.173
4.63007	0.216
4.67094	0.235
4.71182	0.291
4.7527	0.402
4.79357	0.461
4.83445	0.488
4.87532	0.509
4.9162	0.519
4.95708	0.538
4.99795	0.558
5.03883	0.582
5.0797	0.591
5.12058	0.604
5.16146	0.616
5.20233	0.63
5.24321	0.643
5.28408	0.65
5.32496	0.666
5.36584	0.679
5.40671	0.681
5.44759	0.724
5.48847	0.698
5.52934	0.703
5.57022	0.691
5.61109	0.676
5.65197	0.643
5.69285	0.659
5.73372	0.66
5.7746	0.638
5.81547	0.592
5.85635	0.601
5.89723	0.618
5.9381	0.623
5.97898	0.614
6.01985	0.608
6.06073	0.603
6.10161	0.614
6.14248	0.649
6.18336	0.72
6.22423	0.742
6.26511	0.749
6.30599	0.742
6.34686	0.715
6.38774	0.609
6.42861	0.304
6.46949	0.262
6.51037	0.4
6.55124	0.509
6.59212	0.597
6.63299	0.628
6.67387	0.635
6.71475	0.616
6.75562	0.55
6.7965	0.367
6.83738	0.352
6.87825	0.425
6.91913	0.511
6.96	0.632
7.00088	0.686
7.04176	0.676
7.08263	0.579
7.12351	0.264
7.16438	0.369
7.20526	0.497
7.24614	0.441
7.28701	0.262
7.32789	0.279
7.36876	0.403
7.40964	0.505
7.45052	0.628
7.49139	0.698
7.53227	0.72
7.57314	0.727
7.61402	0.749
7.6549	0.756
7.69577	0.759
7.73665	0.758
7.77752	0.77
7.8184	0.766
7.85928	0.773
7.90015	0.773
7.94103	0.775
7.9819	0.778
8.02278	0.766
8.06366	0.761
8.10453	0.747
8.14541	0.594
8.18629	0.431
8.22716	0.674
8.26804	0.746
8.30891	0.773
8.34979	0.78
8.39067	0.735
8.43154	0.507
8.47242	0.459
8.51329	0.425
8.55417	0.485
8.59505	0.601
8.63592	0.667
8.6768	0.72
8.71767	0.768
8.75855	0.793
8.79943	0.814
8.8403	0.827
8.88118	0.833
8.92205	0.839
8.96293	0.843
9.00381	0.843
9.04468	0.841
9.08556	0.831
9.12643	0.834
9.16731	0.831
9.20819	0.821
9.24906	0.834
9.28994	0.821
9.33081	0.826
9.37169	0.814
9.41257	0.679
9.45344	0.562
9.49432	0.729
9.5352	0.783
9.57607	0.817
9.61695	0.822
9.65782	0.792
9.6987	0.715
9.73958	0.516
9.78045	0.282
9.82133	0.32
9.8622	0.456
9.90308	0.679
9.94396	0.8
9.98483	0.839
10.0257	0.86
10.0666	0.875
10.1075	0.877
10.1483	0.882
10.1892	0.887
10.2301	0.889
10.271	0.887
10.3118	0.896
10.3527	0.902
10.3936	0.909
10.4345	0.923
10.4753	0.919
10.5162	0.921
10.5571	0.928
10.598	0.926
10.6388	0.926
10.6797	0.931
10.7206	0.921
10.7615	0.908
10.8024	0.89
10.8432	0.827
10.8841	0.64
10.925	0.35
10.9659	0.216
11.0067	0.303
11.0476	0.417
11.0885	0.422
11.1294	0.511
11.1702	0.65
11.2111	0.679
11.252	0.744
11.2929	0.8
11.3337	0.838
11.3746	0.862
11.4155	0.875
11.4564	0.873
11.4972	0.879
11.5381	0.858
11.579	0.856
11.6199	0.884
11.6608	0.873
11.7016	0.855
11.7425	0.819
11.7834	0.758
11.8243	0.754
11.8651	0.768
11.906	0.684
11.9469	0.592
11.9878	0.695
12.0286	0.73
12.0695	0.788
12.1104	0.817
12.1513	0.792
12.1921	0.758
12.233	0.718
12.2739	0.599
12.3148	0.412
12.3556	0.233
12.3965	0.132
12.4374	0.195
12.4783	0.325
12.5191	0.431
12.56	0.531
12.6009	0.614
12.6418	0.62
12.6827	0.647
12.7235	0.693
12.7644	0.688
12.8053	0.746
12.8462	0.781
12.887	0.807
12.9279	0.805
12.9688	0.809
13.0097	0.798
13.0505	0.785
13.0914	0.776
13.1323	0.776
13.1732	0.787
13.214	0.797
13.2549	0.797
13.2958	0.8
13.3367	0.812
13.3775	0.817
13.4184	0.834
13.4593	0.834
13.5002	0.831
13.541	0.838
13.5819	0.831
13.6228	0.833
13.6637	0.839
13.7046	0.834
13.7454	0.838
13.7863	0.831
13.8272	0.827
13.8681	0.819
13.9089	0.819
13.9498	0.826
13.9907	0.841
14.0316	0.843
14.0724	0.853
14.1133	0.85
14.1542	0.846
14.1951	0.85
14.2359	0.838
14.2768	0.834
14.3177	0.829
14.3586	0.817
14.3994	0.81
14.4403	0.802
14.4812	0.792
14.5221	0.783
14.563	0.766
14.6038	0.761
14.6447	0.756
14.6856	0.737
14.7265	0.727
14.7673	0.722
14.8082	0.706
14.8491	0.701
14.89	0.691
14.9308	0.684
14.9717	0.678
15.0126	0.642
15.0535	0.596
15.0943	0.589
15.1352	0.601
15.1761	0.62
15.217	0.616
15.2578	0.596
15.2987	0.587
15.3396	0.57
15.3805	0.551
15.4213	0.531
15.4622	0.512
15.5031	0.499
15.544	0.477
15.5849	0.466
15.6257	0.444
15.6666	0.437
15.7075	0.427
15.7484	0.419
15.7892	0.412
15.8301	0.403
15.871	0.403
15.9119	0.396
15.9527	0.402
