Infrared Spectrum: ANDROSTANE-3,17-DIONE, (5Alpha), 2,2,4,4,16,16-HEXADEUTERIO-
Formula: C19 H22 O2 D6
State: SOLID (KBr DISC)
Class: COBLENTZ III
Instrument: BECKMAN IR-7
Sampling: TRANSMISSION
Resolution: 4
Origin: N. L. McNIVEN- THE WORCESTER FOUNDATION FOR EXPERIMENTAL BIOLOGY
1/CM	TRANSMITTANCE
640.088	0.69
648.678	0.717
657.269	0.787
665.859	0.817
674.449	0.791
683.04	0.827
691.63	0.847
700.22	0.816
708.811	0.83
717.401	0.842
725.991	0.864
734.582	0.836
743.172	0.773
751.762	0.845
760.353	0.873
768.943	0.874
777.533	0.888
786.124	0.892
794.714	0.891
803.304	0.858
811.895	0.895
820.485	0.779
829.075	0.872
837.666	0.901
846.256	0.879
854.846	0.874
863.437	0.872
872.027	0.877
880.617	0.856
889.208	0.777
897.798	0.87
906.388	0.84
914.979	0.888
923.569	0.856
932.159	0.862
940.75	0.838
949.34	0.809
957.93	0.812
966.521	0.773
975.111	0.803
983.701	0.827
992.292	0.803
1000.88	0.685
1009.47	0.753
1018.06	0.576
1026.65	0.619
1035.24	0.624
1043.83	0.642
1052.42	0.63
1061.01	0.353
1069.6	0.645
1078.2	0.734
1086.79	0.807
1095.38	0.793
1103.97	0.789
1112.56	0.793
1121.15	0.719
1129.74	0.732
1138.33	0.692
1146.92	0.767
1155.51	0.738
1164.1	0.793
1172.69	0.736
1181.28	0.454
1189.87	0.789
1198.46	0.831
1207.05	0.656
1215.64	0.78
1224.23	0.714
1232.82	0.816
1241.41	0.783
1250	0.581
1258.59	0.643
1267.18	0.694
1275.77	0.826
1284.36	0.761
1292.95	0.712
1301.54	0.847
1310.13	0.868
1318.72	0.842
1327.31	0.753
1335.91	0.756
1344.5	0.823
1353.09	0.831
1361.68	0.773
1370.27	0.787
1378.86	0.582
1387.45	0.558
1396.04	0.735
1404.63	0.814
1413.22	0.826
1421.81	0.822
1430.4	0.757
1438.99	0.508
1447.58	0.498
1456.17	0.607
1464.76	0.7
1473.35	0.7501
1481.94	0.856
1490.53	0.884
1499.12	0.898
1507.71	0.901
1516.3	0.905
1524.89	0.907
1533.48	0.91
1542.07	0.909
1550.66	0.906
1559.25	0.902
1567.84	0.897
1576.43	0.891
1585.03	0.883
1593.62	0.871
1602.21	0.861
1610.8	0.845
1619.39	0.829
1627.98	0.831
1636.57	0.821
1645.16	0.801
1653.75	0.785
1662.34	0.744
1670.93	0.705
1679.52	0.597
1688.11	0.42
1696.7	0.279
1705.29	0.067
1713.88	0.101
1722.47	0.208
1731.06	0.199
1739.65	0.156
1748.24	0.324
1756.83	0.505
1765.42	0.69
1774.01	0.795
1782.6	0.825
1791.19	0.864
1799.78	0.875
1808.37	0.883
1816.96	0.908
1825.55	0.922
1834.14	0.931
1842.74	0.935
1851.33	0.939
1859.92	0.94
1868.51	0.942
1877.1	0.945
1885.69	0.945
1894.28	0.945
1902.87	0.946
1911.46	0.946
1920.05	0.947
1928.64	0.947
1937.23	0.948
1945.82	0.948
1954.41	0.946
1963	0.949
1971.59	0.95
1980.18	0.949
1988.77	0.95
1997.36	0.95
2005.95	0.95
2014.54	0.95
2023.13	0.95
2031.72	0.95
2040.31	0.95
2048.9	0.949
2057.49	0.948
2066.08	0.9475
2074.67	0.946
2083.26	0.944
2091.85	0.942
2100.45	0.9366
2109.04	0.9289
2117.63	0.9203
2126.22	0.912
2134.81	0.906
2143.4	0.9004
2151.99	0.899
2160.58	0.9009
2169.17	0.9055
2177.76	0.9095
2186.35	0.913
2194.94	0.915
2203.53	0.9125
2212.12	0.8757
2220.71	0.8392
2229.3	0.837
2237.89	0.8773
2246.48	0.9053
2255.07	0.9214
2263.66	0.9303
2272.25	0.933
2280.84	0.934
2289.43	0.9346
2298.02	0.9369
2306.61	0.938
2315.2	0.94
2323.79	0.9419
2332.38	0.9432
2340.97	0.944
2349.56	0.9458
2358.16	0.946
2366.75	0.945
2375.34	0.944
2383.93	0.943
2392.52	0.942
2401.11	0.9403
2409.7	0.938
2418.29	0.937
2426.88	0.937
2435.47	0.936
2444.06	0.935
2452.65	0.934
2461.24	0.933
2469.83	0.933
2478.42	0.933
2487.01	0.932
2495.6	0.931
2504.19	0.9302
2512.78	0.9263
2521.37	0.9229
2529.96	0.921
2538.55	0.9203
2547.14	0.918
2555.73	0.916
2564.32	0.9144
2572.91	0.913
2581.5	0.9078
2590.09	0.9065
2598.68	0.9041
2607.28	0.9028
2615.87	0.8995
2624.46	0.8934
2633.05	0.889
2641.64	0.887
2650.23	0.887
2658.82	0.886
2667.41	0.885
2676	0.885
2684.59	0.885
2693.18	0.884
2701.77	0.883
2710.36	0.8811
2718.95	0.8788
2727.54	0.8744
2736.13	0.873
2744.72	0.8742
2753.31	0.875
2761.9	0.874
2770.49	0.8678
2779.08	0.862
2787.67	0.8545
2796.26	0.8417
2804.85	0.8198
2813.44	0.7993
2822.03	0.7791
2830.62	0.6802
2839.21	0.6012
2847.8	0.3505
2856.39	0.378
2864.99	0.334
2873.58	0.3861
2882.17	0.5013
2890.76	0.4382
2899.35	0.3908
2907.94	0.3443
2916.53	0.2809
2925.12	0.1707
2933.71	0.1651
2942.3	0.1738
2950.89	0.2165
2959.48	0.291
2968.07	0.3662
2976.66	0.33
2985.25	0.4526
2993.84	0.651
3002.43	0.7585
3011.02	0.8022
3019.61	0.8167
3028.2	0.8265
3036.79	0.8296
3045.38	0.8351
3053.97	0.8389
3062.56	0.84
3071.15	0.841
3079.74	0.84
3088.33	0.8383
3096.92	0.836
3105.51	0.835
3114.1	0.834
3122.7	0.834
3131.29	0.834
3139.88	0.834
3148.47	0.8331
3157.06	0.832
3165.65	0.8315
3174.24	0.83
3182.83	0.83
3191.42	0.829
3200.01	0.829
3208.6	0.828
3217.19	0.828
3225.78	0.8263
3234.37	0.822
3242.96	0.82
3251.55	0.8194
3260.14	0.8171
3268.73	0.8118
3277.32	0.8084
3285.91	0.8061
3294.5	0.8038
3303.09	0.8015
3311.68	0.8
3320.27	0.7959
3328.86	0.794
3337.45	0.7905
3346.04	0.7839
3354.63	0.7762
3363.22	0.7716
3371.81	0.764
3380.41	0.7564
3389	0.7481
3397.59	0.7391
3406.18	0.7378
3414.77	0.7456
3423.36	0.7479
3431.95	0.7456
3440.54	0.7365
3449.13	0.7328
3457.72	0.7494
3466.31	0.7612
3474.9	0.7705
3483.49	0.7771
3492.08	0.7746
3500.67	0.7713
3509.26	0.783
3517.85	0.7939
3526.44	0.799
3535.03	0.8048
3543.62	0.8075
3552.21	0.8151
3560.8	0.8218
3569.39	0.8274
3577.98	0.8325
3586.57	0.8358
3595.16	0.844
3603.75	0.845
3612.34	0.8468
3620.93	0.8511
3629.53	0.8544
3638.12	0.8587
3646.71	0.86
3655.3	0.86
3663.89	0.861
3672.48	0.862
3681.07	0.862
3689.66	0.863
3698.25	0.864
3706.84	0.864
3715.43	0.8645
3724.02	0.865
3732.61	0.865
3741.2	0.865
3749.79	0.864
3758.38	0.864
3766.97	0.864
3775.56	0.863
3784.15	0.862
3792.74	0.862
3801.33	0.8614
3809.92	0.861
3818.51	0.86
3827.1	0.86
3835.69	0.86
3844.28	0.859
3852.87	0.858
3861.46	0.858
3870.05	0.857
3878.64	0.8566
3887.24	0.856
3895.83	0.856
3904.42	0.855
3913.01	0.854
3921.6	0.854
3930.19	0.854
3938.78	0.853
3947.37	0.853
3955.96	0.852
3964.55	0.852
3973.14	0.852
3981.73	0.852
3990.32	0.852
