Infrared Spectrum: FERROUS OXALATE
Formula: Fe C2 O4  * 2 H2 O
State: SOLID (KBr DISC)
Class: COBLENTZ
Instrument: Not specified, most likely a prism, grating, or hybrid spectrometer.
Sampling: TRANSMISSION
Resolution: 4
MICROMETERS	TRANSMITTANCE
2.051	0.917
2.08891	0.919
2.12682	0.922
2.16474	0.929
2.20265	0.932
2.24056	0.933
2.27847	0.935
2.31639	0.936
2.3543	0.936
2.39221	0.939
2.43012	0.939
2.46804	0.941
2.50595	0.941
2.54386	0.941
2.58177	0.941
2.61969	0.941
2.6576	0.939
2.69551	0.935
2.73342	0.902
2.77134	0.832
2.80925	0.626
2.84716	0.491
2.88507	0.38
2.92299	0.279
2.9609	0.192
2.99881	0.216
3.03672	0.322
3.07464	0.461
3.11255	0.566
3.15046	0.622
3.18837	0.673
3.22629	0.705
3.2642	0.754
3.30211	0.795
3.34002	0.82
3.37794	0.855
3.41585	0.879
3.45376	0.9
3.49167	0.913
3.52959	0.917
3.5675	0.922
3.60541	0.927
3.64332	0.935
3.68124	0.941
3.71915	0.945
3.75706	0.948
3.79497	0.951
3.83288	0.952
3.8708	0.954
3.90871	0.958
3.94662	0.96
3.98453	0.961
4.02245	0.961
4.06036	0.961
4.09827	0.961
4.13618	0.961
4.1741	0.963
4.21201	0.961
4.24992	0.96
4.28783	0.96
4.32575	0.96
4.36366	0.96
4.40157	0.96
4.43948	0.96
4.4774	0.96
4.51531	0.96
4.55322	0.96
4.59113	0.96
4.62905	0.961
4.66696	0.961
4.70487	0.961
4.74278	0.963
4.7807	0.963
4.81861	0.964
4.85652	0.967
4.89443	0.969
4.93235	0.972
4.97026	0.973
5.00817	0.975
5.04608	0.975
5.084	0.975
5.12191	0.973
5.15982	0.972
5.19773	0.969
5.23565	0.961
5.27356	0.96
5.31147	0.96
5.34938	0.961
5.3873	0.961
5.42521	0.96
5.46312	0.958
5.50103	0.951
5.53894	0.947
5.57686	0.933
5.61477	0.922
5.65268	0.902
5.69059	0.889
5.72851	0.833
5.76642	0.747
5.80433	0.663
5.84224	0.61
5.88016	0.491
5.91807	0.364
5.95598	0.245
5.99389	0.176
6.03181	0.116
6.06972	0.085
6.10763	0.063
6.14554	0.079
6.18346	0.166
6.22137	0.28
6.25928	0.397
6.29719	0.455
6.33511	0.542
6.37302	0.569
6.41093	0.633
6.44884	0.661
6.48676	0.707
6.52467	0.733
6.56258	0.755
6.60049	0.767
6.63841	0.794
6.67632	0.805
6.71423	0.822
6.75214	0.825
6.79006	0.83
6.82797	0.836
6.86588	0.839
6.90379	0.839
6.94171	0.841
6.97962	0.841
7.01753	0.841
7.05544	0.841
7.09336	0.841
7.13127	0.839
7.16918	0.839
7.20709	0.835
7.245	0.801
7.28292	0.639
7.32083	0.519
7.35874	0.626
7.39665	0.702
7.43457	0.722
7.47248	0.713
7.51039	0.557
7.5483	0.375
7.58622	0.388
7.62413	0.547
7.66204	0.685
7.69995	0.748
7.73787	0.797
7.77578	0.822
7.81369	0.847
7.8516	0.855
7.88952	0.863
7.92743	0.872
7.96534	0.877
8.00325	0.882
8.04117	0.888
8.07908	0.892
8.11699	0.895
8.1549	0.898
8.19282	0.898
8.23073	0.904
8.26864	0.905
8.30655	0.907
8.34447	0.907
8.38238	0.907
8.42029	0.91
8.4582	0.914
8.49612	0.919
8.53403	0.919
8.57194	0.92
8.60985	0.92
8.64777	0.922
8.68568	0.923
8.72359	0.925
8.7615	0.926
8.79941	0.926
8.83733	0.927
8.87524	0.929
8.91315	0.93
8.95106	0.932
8.98898	0.932
9.02689	0.933
9.0648	0.932
9.10271	0.935
9.14063	0.936
9.17854	0.938
9.21645	0.938
9.25436	0.938
9.29228	0.939
9.33019	0.941
9.3681	0.941
9.40601	0.942
9.44393	0.944
9.48184	0.945
9.51975	0.947
9.55766	0.947
9.59558	0.948
9.63349	0.948
9.6714	0.95
9.70931	0.95
9.74723	0.951
9.78514	0.951
9.82305	0.951
9.86096	0.951
9.89888	0.951
9.93679	0.951
9.9747	0.951
10.0126	0.951
10.0505	0.951
10.0884	0.951
10.1264	0.951
10.1643	0.951
10.2022	0.951
10.2401	0.951
10.278	0.952
10.3159	0.951
10.3538	0.952
10.3917	0.952
10.4297	0.952
10.4676	0.952
10.5055	0.952
10.5434	0.952
10.5813	0.952
10.6192	0.952
10.6571	0.952
10.695	0.952
10.7329	0.952
10.7709	0.951
10.8088	0.951
10.8467	0.951
10.8846	0.951
10.9225	0.951
10.9604	0.95
10.9983	0.948
11.0362	0.947
11.0742	0.947
11.1121	0.947
11.15	0.944
11.1879	0.944
11.2258	0.942
11.2637	0.942
11.3016	0.941
11.3395	0.936
11.3775	0.933
11.4154	0.933
11.4533	0.927
11.4912	0.923
11.5291	0.922
11.567	0.913
11.6049	0.904
11.6428	0.895
11.6808	0.883
11.7187	0.876
11.7566	0.866
11.7945	0.844
11.8324	0.823
11.8703	0.791
11.9082	0.755
11.9461	0.719
11.9841	0.672
12.022	0.632
12.0599	0.604
12.0978	0.595
12.1357	0.583
12.1736	0.579
12.2115	0.583
12.2494	0.611
12.2874	0.636
12.3253	0.663
12.3632	0.691
12.4011	0.702
12.439	0.716
12.4769	0.725
12.5148	0.733
12.5527	0.742
12.5907	0.744
12.6286	0.745
12.6665	0.75
12.7044	0.751
12.7423	0.751
12.7802	0.751
12.8181	0.751
12.856	0.75
12.894	0.75
12.9319	0.751
12.9698	0.751
13.0077	0.751
13.0456	0.752
13.0835	0.751
13.1214	0.751
13.1593	0.751
13.1973	0.751
13.2352	0.75
13.2731	0.75
13.311	0.75
13.3489	0.748
13.3868	0.747
13.4247	0.747
13.4626	0.742
13.5006	0.744
13.5385	0.741
13.5764	0.738
13.6143	0.735
13.6522	0.736
13.6901	0.735
13.728	0.733
13.7659	0.733
13.8039	0.733
13.8418	0.735
13.8797	0.735
13.9176	0.736
13.9555	0.738
13.9934	0.738
14.0313	0.738
14.0692	0.738
14.1072	0.739
14.1451	0.742
14.183	0.742
14.2209	0.744
14.2588	0.752
14.2967	0.755
14.3346	0.755
14.3725	0.758
14.4105	0.761
14.4484	0.764
14.4863	0.767
14.5242	0.77
14.5621	0.772
14.6	0.775
14.6379	0.777
14.6758	0.779
14.7138	0.78
14.7517	0.782
14.7896	0.782
14.8275	0.785
14.8654	0.785
14.9033	0.788
14.9412	0.794
14.9791	0.798
15.0171	0.8
15.055	0.801
15.0929	0.801
15.1308	0.802
15.1687	0.804
15.2066	0.802
15.2445	0.804
15.2824	0.805
15.3204	0.805
15.3583	0.807
15.3962	0.808
15.4341	0.808
15.472	0.808
15.5099	0.808
