Infrared Spectrum: SALICYL-3,4,5,6-d4-ALDEHYDE-d
Formula: C7 H D5 O2
State: SOLUTION (10% IN CCl4 FOR 4000-1270 CM^-^1, 10% IN CS2 FOR 1270-460 CM^-^1) VS. SOLVENT
Class: COBLENTZ III
Instrument: CARY 90 (GRATING)
Instrument parameters: GRATING CHANGES AT 3000, 2000, 1200 CM^-^1
Sampling: TRANSMISSION
Path length: 0.010 CM, 0.010 CM
Resolution: 4
Origin: WESTERN REGIONAL RES. USDA
1/CM	TRANSMITTANCE
453.503	0.949
462.802	0.441
472.102	1.022
481.401	1.146
490.701	1.143
500	1.112
509.3	1.062
518.599	0.989
527.899	0.805
537.198	0.763
546.497	0.667
555.797	1.079
565.096	1.061
574.396	0.723
583.695	0.067
592.995	0.778
602.294	1.071
611.594	1.079
620.893	0.919
630.192	0.279
639.492	0.616
648.791	0.922
658.091	1.002
667.39	1.001
676.69	0.968
685.989	0.828
695.288	0.569
704.588	0.095
713.887	0.24
723.187	0.19
732.486	0.276
741.786	0.545
751.085	0.776
760.385	0.889
769.684	0.59
778.983	1.041
788.283	1.058
797.582	0.8059
806.882	0.229
816.181	0.834
825.481	0.3959
834.78	1.041
844.08	1.003
853.379	0.988
862.678	1.013
871.978	0.797
881.277	0.768
890.577	1.071
899.876	1.114
909.176	1.096
918.475	1.054
927.775	1.005
937.074	0.913
946.373	0.599
955.673	0.613
964.972	0.916
974.272	1.009
983.571	0.998
992.871	0.989
1002.17	0.847
1011.47	0.772
1020.77	0.873
1030.07	0.943
1039.37	1.003
1048.67	0.947
1057.97	0.894
1067.27	0.693
1076.57	0.627
1085.87	0.797
1095.16	0.825
1104.46	0.759
1113.76	0.583
1123.06	0.627
1132.36	0.637
1141.66	0.732
1150.96	0.4279
1160.26	0.01
1169.56	0.3511
1178.86	0.332
1188.16	0.836
1197.46	0.911
1206.76	0.887
1216.06	0.633
1225.36	0.748
1234.66	0.227
1243.96	0.785
1253.25	0.792
1262.55	0.779
1271.85	0.569
1281.15	0.291
1290.45	0.095
1299.75	0.049
1309.05	0.194
1318.35	0.364
1327.65	0.601
1336.95	0.693
1346.25	0.761
1355.55	0.706
1364.85	0.635
1374.15	0.344
1383.45	0.255
1392.75	0
1402.05	0.204
1411.35	0.342
1420.64	0.379
1429.94	0.4661
1439.24	0.665
1448.54	0.767
1457.84	0.812
1467.14	0.872
1476.44	0.887
1485.74	0.922
1495.04	0.928
1504.34	0.891
1513.64	0.915
1522.94	0.802
1532.24	0.263
1541.54	0.0011
1550.84	0.259
1560.14	0.302
1569.44	0.443
1578.74	0.361
1588.03	0
1597.33	0.197
1606.63	0.203
1615.93	0.189
1625.23	0.079
1634.53	0
1643.83	0
1653.13	0
1662.43	0.1011
1671.73	0.5
1681.03	0.65
1690.33	0.775
1699.63	0.889
1708.93	0.93
1718.23	0.945
1727.53	0.926
1736.83	0.939
1746.13	0.916
1755.42	0.963
1764.72	0.969
1774.02	0.988
1783.32	0.973
1792.62	0.99
1801.92	0.997
1811.22	1.009
1820.52	0.998
1829.82	0.981
1839.12	0.972
1848.42	0.984
1857.72	0.98
1867.02	0.973
1876.32	0.972
1885.62	0.972
1894.92	0.962
1904.22	0.971
1913.52	0.98
1922.81	0.986
1932.11	0.986
1941.41	0.983
1950.71	0.99
1960.01	0.989
1969.31	0.977
1978.61	0.964
1987.91	0.972
1997.21	0.992
2006.51	0.969
2015.81	0.949
2025.11	0.9229
2034.41	0.8858
2043.71	0.8525
2053.01	0.9061
2062.31	0.93
2071.61	0.9222
2080.91	0.8447
2090.2	0.7284
2099.5	0.6351
2108.8	0.3763
2118.1	0.1991
2127.4	0.3176
2136.7	0.5988
2146	0.7864
2155.3	0.885
2164.6	0.93
2173.9	0.9417
2183.2	0.9295
2192.5	0.896
2201.8	0.9263
2211.1	0.9457
2220.4	0.9493
2229.7	0.9463
2239	0.931
2248.3	0.8808
2257.59	0.8389
2266.89	0.7521
2276.19	0.7654
2285.49	0.7037
2294.79	0.6852
2304.09	0.6405
2313.39	0.6755
2322.69	0.6861
2331.99	0.5699
2341.29	0.5681
2350.59	0.6667
2359.89	0.6126
2369.19	0.4474
2378.49	0.3949
2387.79	0.4569
2397.09	0.5211
2406.39	0.5851
2415.69	0.6454
2424.98	0.7272
2434.28	0.7927
2443.58	0.8388
2452.88	0.8719
2462.18	0.889
2471.48	0.881
2480.78	0.9092
2490.08	0.9298
2499.38	0.9342
2508.68	0.954
2517.98	0.962
2527.28	0.964
2536.58	0.9639
2545.88	0.9559
2555.18	0.9469
2564.48	0.9367
2573.78	0.9154
2583.08	0.9296
2592.37	0.9473
2601.67	0.9459
2610.97	0.9362
2620.27	0.9101
2629.57	0.8446
2638.87	0.8958
2648.17	0.9478
2657.47	0.9678
2666.77	0.9817
2676.07	0.986
2685.37	0.9725
2694.67	0.9653
2703.97	0.9482
2713.27	0.9285
2722.57	0.9569
2731.87	0.9779
2741.17	0.9843
2750.47	0.986
2759.76	0.986
2769.06	0.9837
2778.36	0.983
2787.66	0.98
2796.96	0.977
2806.26	0.9756
2815.56	0.9695
2824.86	0.9546
2834.16	0.9522
2843.46	0.9304
2852.76	0.9098
2862.06	0.9407
2871.36	0.9629
2880.66	0.968
2889.96	0.9611
2899.26	0.9571
2908.56	0.953
2917.86	0.949
2927.15	0.947
2936.45	0.9505
2945.75	0.954
2955.05	0.951
2964.35	0.9495
2973.65	0.951
2982.95	0.9586
2992.25	0.9697
3001.55	0.9724
3010.85	0.9674
3020.15	0.9608
3029.45	0.955
3038.75	0.9485
3048.05	0.9282
3057.35	0.9067
3066.65	0.911
3075.95	0.9153
3085.25	0.9083
3094.54	0.8963
3103.84	0.8813
3113.14	0.8726
3122.44	0.8446
3131.74	0.8105
3141.04	0.813
3150.34	0.8205
3159.64	0.8318
3168.94	0.8366
3178.24	0.8391
3187.54	0.8541
3196.84	0.8674
3206.14	0.8804
3215.44	0.886
3224.74	0.8812
3234.04	0.879
3243.34	0.882
3252.63	0.8781
3261.93	0.874
3271.23	0.8739
3280.53	0.8828
3289.83	0.8909
3299.13	0.9088
3308.43	0.924
3317.73	0.9329
3327.03	0.9409
3336.33	0.9469
3345.63	0.951
3354.93	0.956
3364.23	0.96
3373.53	0.966
3382.83	0.969
3392.13	0.973
3401.43	0.979
3410.73	0.984
3420.02	0.988
3429.32	0.993
3438.62	1
3447.92	1.0021
3457.22	1.0061
3466.52	1.0101
3475.82	1.0112
3485.12	1.014
3494.42	1.015
3503.72	1.016
3513.02	1.018
3522.32	1.0181
3531.62	1.0192
3540.92	1.022
3550.22	1.022
3559.52	1.024
3568.82	1.0244
3578.12	1.026
3587.41	1.027
3596.71	1.0278
3606.01	1.027
3615.31	1.027
3624.61	1.026
3633.91	1.0255
3643.21	1.024
3652.51	1.023
3661.81	1.0233
3671.11	1.024
3680.41	1.026
3689.71	1.027
3699.01	1.027
3708.31	1.0277
3717.61	1.027
3726.91	1.026
3736.21	1.023
3745.51	1.02
3754.8	1.018
3764.1	1.018
3773.4	1.0208
3782.7	1.0234
3792	1.0264
3801.3	1.028
3810.6	1.028
3819.9	1.028
3829.2	1.028
3838.5	1.0275
3847.8	1.027
3857.1	1.026
3866.4	1.026
3875.7	1.026
3885	1.027
3894.3	1.027
3903.6	1.027
3912.9	1.027
3922.19	1.026
3931.49	1.024
3940.79	1.022
3950.09	1.02
3959.39	1.019
3968.69	1.0167
3977.99	1.0154
3987.29	1.0144
3996.59	1.013
