Infrared Spectrum: 3-HYDROXY-16,17-SECOESTRA-1,3,5(10)-TRIENE=16,17-DIOIC ACID
Formula: C18 H22 O5
State: SOLID (KBr DISC)
Class: COBLENTZ III
Instrument: BECKMAN IR-7
Sampling: TRANSMISSION
Resolution: 4
Origin: THE WORCESTER FOUNDATION FOR EXPERIMENTAL BIOLOGY, Neal L. McNiven
1/CM	TRANSMITTANCE
605.836	1.027
614.591	1.027
623.345	1.027
632.1	1.027
640.854	0.993
649.609	0.951
658.363	1.01
667.118	0.982
675.872	0.99
684.627	0.872
693.382	0.912
702.136	0.992
710.891	0.985
719.645	0.952
728.4	0.938
737.154	0.851
745.909	0.901
754.664	0.893
763.418	0.891
772.173	0.8341
780.927	0.813
789.682	0.728
798.436	0.6859
807.191	0.808
815.945	0.768
824.7	0.653
833.455	0.697
842.209	0.722
850.964	0.615
859.718	0.654
868.473	0.528
877.227	0.587
885.982	0.661
894.737	0.598
903.491	0.66
912.246	0.646
921	0.604
929.755	0.536
938.509	0.6718
947.264	0.728
956.018	0.77
964.773	0.729
973.528	0.745
982.282	0.807
991.037	0.81
999.791	0.79
1008.55	0.791
1017.3	0.759
1026.05	0.774
1034.81	0.773
1043.56	0.782
1052.32	0.802
1061.07	0.794
1069.83	0.788
1078.58	0.789
1087.34	0.781
1096.09	0.739
1104.85	0.626
1113.6	0.602
1122.36	0.53
1131.11	0.549
1139.86	0.571
1148.62	0.577
1157.37	0.541
1166.13	0.399
1174.88	0.536
1183.64	0.531
1192.39	0.4
1201.15	0.338
1209.9	0.251
1218.66	0.37
1227.41	0.243
1236.16	0.24
1244.92	0.302
1253.67	0.44
1262.43	0.509
1271.18	0.48
1279.94	0.398
1288.69	0.408
1297.45	0.404
1306.2	0.51
1314.96	0.617
1323.71	0.653
1332.46	0.657
1341.22	0.664
1349.97	0.647
1358.73	0.648
1367.48	0.63
1376.24	0.581
1384.99	0.485
1393.75	0.471
1402.5	0.488
1411.26	0.503
1420.01	0.456
1428.76	0.533
1437.52	0.507
1446.27	0.386
1455.03	0.44
1463.78	0.538
1472.54	0.663
1481.29	0.741
1490.05	0.693
1498.8	0.583
1507.56	0.512
1516.31	0.7269
1525.06	0.788
1533.82	0.8
1542.57	0.795
1551.33	0.792
1560.08	0.765
1568.84	0.74
1577.59	0.697
1586.35	0.635
1595.1	0.536
1603.86	0.3671
1612.61	0.423
1621.37	0.499
1630.12	0.554
1638.87	0.555
1647.63	0.537
1656.38	0.501
1665.14	0.459
1673.89	0.396
1682.65	0.311
1691.4	0.12
1700.16	0.101
1708.91	0.086
1717.67	0.118
1726.42	0.298
1735.17	0.451
1743.93	0.57
1752.68	0.67
1761.44	0.713
1770.19	0.736
1778.95	0.758
1787.7	0.777
1796.46	0.791
1805.21	0.794
1813.97	0.802
1822.72	0.808
1831.47	0.814
1840.23	0.818
1848.98	0.824
1857.74	0.824
1866.49	0.821
1875.25	0.81
1884	0.824
1892.76	0.831
1901.51	0.833
1910.27	0.834
1919.02	0.834
1927.77	0.834
1936.53	0.834
1945.28	0.833
1954.04	0.832
1962.79	0.832
1971.55	0.832
1980.3	0.832
1989.06	0.83
1997.81	0.828
2006.57	0.826
2015.32	0.826
2024.07	0.826
2032.83	0.825
2041.58	0.824
2050.34	0.822
2059.09	0.821
2067.85	0.8196
2076.6	0.818
2085.36	0.8166
2094.11	0.8156
2102.87	0.814
2111.62	0.813
2120.38	0.8115
2129.13	0.81
2137.88	0.8085
2146.64	0.8075
2155.39	0.8045
2164.15	0.802
2172.9	0.8
2181.66	0.797
2190.41	0.7944
2199.17	0.7924
2207.92	0.7904
2216.68	0.7884
2225.43	0.786
2234.18	0.784
2242.94	0.7813
2251.69	0.7783
2260.45	0.776
2269.2	0.774
2277.96	0.7723
2286.71	0.77
2295.47	0.768
2304.22	0.7662
2312.98	0.765
2321.73	0.7622
2330.48	0.7612
2339.24	0.7576
2347.99	0.7532
2356.75	0.7511
2365.5	0.7451
2374.26	0.7423
2383.01	0.7381
2391.77	0.7331
2400.52	0.7262
2409.28	0.72
2418.03	0.7141
2426.78	0.712
2435.54	0.706
2444.29	0.698
2453.05	0.693
2461.8	0.6879
2470.56	0.6778
2479.31	0.6679
2488.07	0.6579
2496.82	0.6509
2505.58	0.6456
2514.33	0.6281
2523.08	0.6147
2531.84	0.6097
2540.59	0.6068
2549.35	0.6047
2558.1	0.602
2566.86	0.5972
2575.61	0.5858
2584.37	0.5828
2593.12	0.5807
2601.88	0.5745
2610.63	0.5687
2619.39	0.5677
2628.14	0.5647
2636.89	0.563
2645.65	0.563
2654.4	0.563
2663.16	0.564
2671.91	0.564
2680.67	0.563
2689.42	0.5626
2698.18	0.562
2706.93	0.561
2715.69	0.5595
2724.44	0.558
2733.19	0.5545
2741.95	0.5525
2750.7	0.547
2759.46	0.5394
2768.21	0.5319
2776.97	0.5229
2785.72	0.5117
2794.48	0.4944
2803.23	0.4822
2811.99	0.453
2820.74	0.4302
2829.49	0.421
2838.25	0.3988
2847	0.355
2855.76	0.3148
2864.51	0.3338
2873.27	0.3658
2882.02	0.3626
2890.78	0.346
2899.53	0.3318
2908.29	0.3136
2917.04	0.2746
2925.79	0.2441
2934.55	0.2265
2943.3	0.2357
2952.06	0.2975
2960.81	0.3498
2969.57	0.3501
2978.32	0.3395
2987.08	0.3342
2995.83	0.3291
3004.59	0.3212
3013.34	0.3121
3022.09	0.304
3030.85	0.301
3039.6	0.314
3048.36	0.319
3057.11	0.319
3065.87	0.318
3074.62	0.3169
3083.38	0.3109
3092.13	0.309
3100.89	0.309
3109.64	0.309
3118.4	0.3091
3127.15	0.311
3135.9	0.311
3144.66	0.312
3153.41	0.314
3162.17	0.3162
3170.92	0.318
3179.68	0.3202
3188.43	0.3225
3197.19	0.3294
3205.94	0.3393
3214.7	0.3426
3223.45	0.3463
3232.2	0.3527
3240.96	0.3553
3249.71	0.357
3258.47	0.3584
3267.22	0.3586
3275.98	0.357
3284.73	0.3526
3293.49	0.3473
3302.24	0.3392
3311	0.3301
3319.75	0.3076
3328.5	0.2801
3337.26	0.2496
3346.01	0.2167
3354.77	0.2105
3363.52	0.2199
3372.28	0.2405
3381.03	0.2619
3389.79	0.2792
3398.54	0.306
3407.3	0.3308
3416.05	0.3509
3424.8	0.3587
3433.56	0.3714
3442.31	0.3801
3451.07	0.3887
3459.82	0.3969
3468.58	0.4015
3477.33	0.4075
3486.09	0.408
3494.84	0.4027
3503.6	0.3976
3512.35	0.3894
3521.11	0.3832
3529.86	0.381
3538.61	0.3863
3547.37	0.405
3556.12	0.4201
3564.88	0.4471
3573.63	0.4608
3582.39	0.4679
3591.14	0.4738
3599.9	0.4819
3608.65	0.4899
3617.41	0.498
3626.16	0.514
3634.91	0.5492
3643.67	0.5891
3652.42	0.6005
3661.18	0.6332
3669.93	0.6692
3678.69	0.6907
3687.44	0.701
3696.2	0.7092
3704.95	0.7161
3713.71	0.7193
3722.46	0.7242
3731.21	0.728
3739.97	0.729
3748.72	0.7292
3757.48	0.731
3766.23	0.732
3774.99	0.733
3783.74	0.733
3792.5	0.734
3801.25	0.734
3810.01	0.734
3818.76	0.734
3827.51	0.734
3836.27	0.7344
3845.02	0.736
3853.78	0.736
3862.53	0.7374
3871.29	0.738
3880.04	0.737
3888.8	0.737
3897.55	0.736
3906.31	0.736
3915.06	0.736
3923.81	0.736
3932.57	0.738
3941.32	0.738
3950.08	0.738
3958.83	0.739
3967.59	0.74
3976.34	0.74
3985.1	0.74
3993.85	0.74
4002.61	0.739
4011.36	0.739
