Infrared Spectrum: ZINC SULFATE HEPTA-HYDRATE
Formula: Zn S O4  * 7 H2 O
State: SOLID (MINERAL OIL MULL)
Class: COBLENTZ
Instrument: Not specified, most likely a prism, grating, or hybrid spectrometer.
Sampling: TRANSMISSION
Resolution: 4
Origin: WYANDOTTE CHEMICALS CORP., WYANDOTTE, MICHIGAN, USA
MICROMETERS	TRANSMITTANCE
2.02	0.775
2.05975	0.78
2.09951	0.79
2.13926	0.815
2.17901	0.813
2.21877	0.805
2.25852	0.8
2.29827	0.787
2.33803	0.773
2.37778	0.772
2.41754	0.775
2.45729	0.762
2.49704	0.748
2.5368	0.75
2.57655	0.748
2.6163	0.713
2.65606	0.638
2.69581	0.49
2.73556	0.367
2.77532	0.207
2.81507	0.053
2.85482	0.088
2.89458	0.089
2.93433	0.108
2.97409	0.144
3.01384	0.154
3.05359	0.161
3.09335	0.166
3.1331	0.171
3.17285	0.174
3.21261	0.183
3.25236	0.202
3.29211	0.234
3.33187	0.234
3.37162	0.159
3.41137	0.136
3.45113	0.198
3.49088	0.212
3.53064	0.299
3.57039	0.417
3.61014	0.475
3.6499	0.524
3.68965	0.562
3.7294	0.602
3.76916	0.643
3.80891	0.673
3.84866	0.687
3.88842	0.712
3.92817	0.73
3.96792	0.75
4.00768	0.77
4.04743	0.77
4.08718	0.775
4.12694	0.773
4.16669	0.773
4.20645	0.773
4.2462	0.762
4.28595	0.745
4.32571	0.75
4.36546	0.762
4.40521	0.775
4.44497	0.77
4.48472	0.77
4.52447	0.77
4.56423	0.755
4.60398	0.743
4.64373	0.733
4.68349	0.733
4.72324	0.733
4.763	0.735
4.80275	0.732
4.8425	0.725
4.88226	0.722
4.92201	0.72
4.96176	0.735
5.00152	0.763
5.04127	0.772
5.08102	0.778
5.12078	0.8
5.16053	0.841
5.20028	0.866
5.24004	0.873
5.27979	0.883
5.31955	0.885
5.3593	0.885
5.39905	0.88
5.43881	0.856
5.47856	0.848
5.51831	0.811
5.55807	0.788
5.59782	0.772
5.63757	0.772
5.67733	0.767
5.71708	0.733
5.75683	0.703
5.79659	0.663
5.83634	0.6
5.87609	0.57
5.91585	0.514
5.9556	0.462
5.99536	0.425
6.03511	0.404
6.07486	0.357
6.11462	0.181
6.15437	0.269
6.19412	0.399
6.23388	0.454
6.27363	0.487
6.31338	0.519
6.35314	0.542
6.39289	0.557
6.43264	0.569
6.4724	0.582
6.51215	0.584
6.55191	0.58
6.59166	0.565
6.63141	0.569
6.67117	0.58
6.71092	0.602
6.75067	0.577
6.79043	0.5
6.83018	0.462
6.86993	0.47
6.90969	0.514
6.94944	0.58
6.98919	0.638
7.02895	0.67
7.0687	0.685
7.10845	0.7
7.14821	0.705
7.18796	0.697
7.22772	0.622
7.26747	0.58
7.30722	0.625
7.34698	0.665
7.38673	0.678
7.42648	0.683
7.46624	0.682
7.50599	0.68
7.54574	0.682
7.5855	0.682
7.62525	0.67
7.665	0.657
7.70476	0.66
7.74451	0.64
7.78427	0.633
7.82402	0.625
7.86377	0.613
7.90353	0.603
7.94328	0.585
7.98303	0.575
8.02279	0.557
8.06254	0.535
8.10229	0.504
8.14205	0.479
8.1818	0.46
8.22155	0.41
8.26131	0.391
8.30106	0.364
8.34082	0.342
8.38057	0.312
8.42032	0.281
8.46008	0.239
8.49983	0.202
8.53958	0.154
8.57934	0.146
8.61909	0.118
8.65884	0.114
8.6986	0.116
8.73835	0.161
8.7781	0.189
8.81786	0.207
8.85761	0.199
8.89736	0.181
8.93712	0.144
8.97687	0.116
9.01663	0.089
9.05638	0.083
9.09613	0.083
9.13589	0.084
9.17564	0.091
9.21539	0.094
9.25515	0.108
9.2949	0.121
9.33465	0.131
9.37441	0.154
9.41416	0.178
9.45391	0.196
9.49367	0.209
9.53342	0.239
9.57318	0.266
9.61293	0.282
9.65268	0.302
9.69244	0.326
9.73219	0.339
9.77194	0.351
9.8117	0.341
9.85145	0.349
9.8912	0.364
9.93096	0.382
9.97071	0.407
10.0105	0.412
10.0502	0.414
10.09	0.384
10.1297	0.341
10.1695	0.359
10.2092	0.4
10.249	0.422
10.2887	0.444
10.3285	0.454
10.3682	0.465
10.408	0.474
10.4478	0.48
10.4875	0.484
10.5273	0.485
10.567	0.485
10.6068	0.489
10.6465	0.499
10.6863	0.492
10.726	0.485
10.7658	0.477
10.8055	0.474
10.8453	0.475
10.885	0.462
10.9248	0.465
10.9645	0.464
11.0043	0.455
11.0441	0.444
11.0838	0.437
11.1236	0.429
11.1633	0.425
11.2031	0.415
11.2428	0.409
11.2826	0.397
11.3223	0.392
11.3621	0.391
11.4018	0.384
11.4416	0.382
11.4813	0.381
11.5211	0.379
11.5609	0.366
11.6006	0.366
11.6404	0.364
11.6801	0.366
11.7199	0.366
11.7596	0.367
11.7994	0.371
11.8391	0.366
11.8789	0.371
11.9186	0.374
11.9584	0.372
11.9981	0.372
12.0379	0.376
12.0776	0.391
12.1174	0.397
12.1572	0.402
12.1969	0.402
12.2367	0.405
12.2764	0.412
12.3162	0.412
12.3559	0.412
12.3957	0.414
12.4354	0.415
12.4752	0.422
12.5149	0.42
12.5547	0.42
12.5944	0.424
12.6342	0.425
12.674	0.427
12.7137	0.427
12.7535	0.425
12.7932	0.42
12.833	0.42
12.8727	0.425
12.9125	0.422
12.9522	0.422
12.992	0.419
13.0317	0.409
13.0715	0.404
13.1112	0.402
13.151	0.4
13.1907	0.399
13.2305	0.396
13.2703	0.392
13.31	0.391
13.3498	0.382
13.3895	0.384
13.4293	0.384
13.469	0.379
13.5088	0.374
13.5485	0.372
13.5883	0.371
13.628	0.371
13.6678	0.362
13.7075	0.369
13.7473	0.364
13.7871	0.361
13.8268	0.366
13.8666	0.369
13.9063	0.372
13.9461	0.374
13.9858	0.372
14.0256	0.372
14.0653	0.374
14.1051	0.372
14.1448	0.371
14.1846	0.371
14.2243	0.374
14.2641	0.376
14.3038	0.381
14.3436	0.381
14.3834	0.384
14.4231	0.382
14.4629	0.386
14.5026	0.394
14.5424	0.391
14.5821	0.394
14.6219	0.396
14.6616	0.396
14.7014	0.399
14.7411	0.399
14.7809	0.404
14.8206	0.405
14.8604	0.397
14.9002	0.399
14.9399	0.402
14.9797	0.402
15.0194	0.407
15.0592	0.414
15.0989	0.396
15.1387	0.386
15.1784	0.384
15.2182	0.389
15.2579	0.396
15.2977	0.404
15.3374	0.402
15.3772	0.402
15.4169	0.409
15.4567	0.412
15.4965	0.414
15.5362	0.41
15.576	0.414
15.6157	0.415
15.6555	0.417
15.6952	0.424
15.735	0.424
15.7747	0.427
15.8145	0.429
15.8542	0.435
15.894	0.437
15.9337	0.434
15.9735	0.439
