Infrared Spectrum: Sodium nitrite
Formula: Na N O2
State: SOLID (1 mg / 650 mg KBr DISC)
Class: COBLENTZ III
Instrument: PERKIN-ELMER 521 (GRATING)
Instrument parameters: FILTERS AT 3150, 2500, 2000, 1150, 700, 410. GRATING CHANGES: 2000, 630
Sampling: TRANSMISSION
Resolution: 2
Origin: SOUTHERN RESEARCH INSTITUTE
1/CM	TRANSMITTANCE
258	0.2064
268.024	0.2637
278.048	0.3224
288.072	0.3898
298.096	0.4524
308.12	0.5125
318.144	0.5683
328.168	0.6069
338.192	0.6397
348.216	0.6735
358.24	0.7101
368.264	0.7471
378.288	0.7801
388.312	0.8048
398.336	0.8293
408.36	0.8463
418.384	0.8596
428.408	0.8687
438.432	0.8743
448.456	0.8812
458.48	0.8879
468.504	0.8959
478.528	0.905
488.552	0.9138
498.576	0.9192
508.6	0.9222
518.624	0.9243
528.649	0.9249
538.673	0.9254
548.697	0.9252
558.721	0.9251
568.745	0.9258
578.769	0.9268
588.793	0.928
598.817	0.9299
608.841	0.9308
618.865	0.9228
628.889	0.926
638.913	0.9285
648.937	0.9306
658.961	0.9304
668.985	0.8997
679.009	0.9388
689.033	0.9406
699.057	0.9421
709.081	0.9432
719.105	0.9445
729.129	0.9451
739.153	0.9457
749.177	0.9469
759.201	0.9476
769.225	0.9479
779.249	0.948
789.273	0.9472
799.297	0.9444
809.321	0.9392
819.345	0.8966
829.369	0.6374
839.393	0.9255
849.417	0.9279
859.441	0.9259
869.465	0.9222
879.489	0.9171
889.513	0.9123
899.537	0.9073
909.561	0.9028
919.585	0.898
929.609	0.8924
939.633	0.8861
949.657	0.8774
959.681	0.8691
969.705	0.8639
979.729	0.8581
989.753	0.8526
999.777	0.8478
1009.8	0.8399
1019.83	0.8292
1029.85	0.8161
1039.87	0.8017
1049.9	0.7871
1059.92	0.7719
1069.95	0.7562
1079.97	0.7422
1089.99	0.7269
1100.02	0.7103
1110.04	0.6905
1120.07	0.663
1130.09	0.6374
1140.11	0.612
1150.14	0.5819
1160.16	0.5509
1170.19	0.5094
1180.21	0.4701
1190.23	0.4319
1200.26	0.3721
1210.28	0.3166
1220.31	0.2509
1230.33	0.2033
1240.35	0.1694
1250.38	0.1354
1260.4	0.1062
1270.43	0.0991
1280.45	0.1788
1290.47	0.2624
1300.5	0.3253
1310.52	0.3816
1320.55	0.3755
1330.57	0.4039
1340.59	0.4699
1350.62	0.504
1360.64	0.5307
1370.67	0.5478
1380.69	0.5625
1390.71	0.5752
1400.74	0.5876
1410.76	0.6008
1420.79	0.6134
1430.81	0.6253
1440.83	0.6377
1450.86	0.6501
1460.88	0.6625
1470.91	0.6752
1480.93	0.6866
1490.95	0.696
1500.98	0.7041
1511	0.7119
1521.03	0.7182
1531.05	0.723
1541.07	0.7272
1551.1	0.7309
1561.12	0.7337
1571.15	0.7364
1581.17	0.7372
1591.19	0.7375
1601.22	0.7361
1611.24	0.7321
1621.27	0.7235
1631.29	0.7277
1641.31	0.7366
1651.34	0.7505
1661.36	0.7667
1671.39	0.7747
1681.41	0.7805
1691.43	0.7838
1701.46	0.787
1711.48	0.7903
1721.51	0.7951
1731.53	0.8002
1741.55	0.8035
1751.58	0.806
1761.6	0.8075
1771.63	0.8087
1781.65	0.8099
1791.67	0.8111
1801.7	0.8124
1811.72	0.8135
1821.75	0.8142
1831.77	0.8149
1841.8	0.8155
1851.82	0.8159
1861.84	0.8164
1871.87	0.8174
1881.89	0.8184
1891.92	0.8195
1901.94	0.8206
1911.96	0.8218
1921.99	0.8227
1932.01	0.8233
1942.04	0.824
1952.06	0.8244
1962.08	0.8232
1972.11	0.8213
1982.13	0.8193
1992.16	0.8178
2002.18	0.8167
2012.2	0.8159
2022.23	0.8151
2032.25	0.8143
2042.28	0.8138
2052.3	0.8136
2062.32	0.8133
2072.35	0.8133
2082.37	0.814
2092.4	0.8154
2102.42	0.815
2112.44	0.8139
2122.47	0.8139
2132.49	0.8139
2142.52	0.8139
2152.54	0.8139
2162.56	0.8143
2172.59	0.8149
2182.61	0.8155
2192.64	0.8152
2202.66	0.8146
2212.68	0.8141
2222.71	0.8137
2232.73	0.8133
2242.76	0.8128
2252.78	0.8111
2262.8	0.8093
2272.83	0.8078
2282.85	0.8073
2292.88	0.8067
2302.9	0.8062
2312.92	0.8052
2322.95	0.8041
2332.97	0.8031
2343	0.8027
2353.02	0.8022
2363.04	0.8019
2373.07	0.8027
2383.09	0.8044
2393.12	0.8058
2403.14	0.8052
2413.16	0.8036
2423.19	0.8018
2433.21	0.7998
2443.24	0.7979
2453.26	0.7962
2463.28	0.7947
2473.31	0.7992
2483.33	0.7948
2493.36	0.7905
2503.38	0.7856
2513.4	0.7798
2523.43	0.7673
2533.45	0.7404
2543.48	0.7217
2553.5	0.7225
2563.52	0.7299
2573.55	0.7363
2583.57	0.7441
2593.6	0.75
2603.62	0.7551
2613.64	0.7571
2623.67	0.7593
2633.69	0.7621
2643.72	0.7639
2653.74	0.7636
2663.76	0.7716
2673.79	0.7716
2683.81	0.7719
2693.84	0.7725
2703.86	0.7734
2713.88	0.7739
2723.91	0.7744
2733.93	0.7745
2743.96	0.7745
2753.98	0.7741
2764	0.7729
2774.03	0.7717
2784.05	0.7706
2794.08	0.7694
2804.1	0.7683
2814.12	0.7672
2824.15	0.7662
2834.17	0.7641
2844.2	0.76
2854.22	0.7572
2864.24	0.7582
2874.27	0.7593
2884.29	0.7586
2894.32	0.7577
2904.34	0.7542
2914.37	0.7475
2924.39	0.7475
2934.41	0.7516
2944.44	0.755
2954.46	0.7565
2964.49	0.757
2974.51	0.7599
2984.53	0.761
2994.56	0.7609
3004.58	0.7611
3014.61	0.7609
3024.63	0.7603
3034.65	0.7598
3044.68	0.7587
3054.7	0.7575
3064.73	0.7556
3074.75	0.7538
3084.77	0.7519
3094.8	0.7503
3104.82	0.7486
3114.85	0.7459
3124.87	0.745
3134.89	0.7411
3144.92	0.7381
3154.94	0.736
3164.97	0.7339
3174.99	0.7301
3185.01	0.7272
3195.04	0.7244
3205.06	0.7219
3215.09	0.7192
3225.11	0.7164
3235.13	0.7135
3245.16	0.7106
3255.18	0.7071
3265.21	0.7035
3275.23	0.7
3285.25	0.6967
3295.28	0.6938
3305.3	0.6898
3315.33	0.6842
3325.35	0.6772
3335.37	0.6698
3345.4	0.6621
3355.42	0.6538
3365.45	0.6454
3375.47	0.6371
3385.49	0.6274
3395.52	0.6204
3405.54	0.6148
3415.57	0.611
3425.59	0.6088
3435.61	0.6089
3445.64	0.6096
3455.66	0.6113
3465.69	0.6127
3475.71	0.6152
3485.73	0.6187
3495.76	0.6238
3505.78	0.6294
3515.81	0.6347
3525.83	0.6402
3535.85	0.6468
3545.88	0.6532
3555.9	0.6588
3565.93	0.6645
3575.95	0.6702
3585.97	0.6751
3596	0.6804
3606.02	0.6861
3616.05	0.6936
3626.07	0.6991
3636.09	0.7015
3646.12	0.7107
3656.14	0.7114
3666.17	0.7155
3676.19	0.7169
3686.21	0.7099
3696.24	0.7144
3706.26	0.7185
3716.29	0.7191
3726.31	0.7157
3736.33	0.7172
3746.36	0.7171
3756.38	0.7137
3766.41	0.7121
3776.43	0.7181
3786.45	0.7181
3796.48	0.718
3806.5	0.7177
3816.53	0.7158
3826.55	0.7135
3836.57	0.714
3846.6	0.7147
3856.62	0.7142
3866.65	0.7071
3876.67	0.7145
3886.69	0.7143
3896.72	0.7124
3906.74	0.7124
3916.77	0.7138
3926.79	0.7161
3936.82	0.7166
3946.84	0.7162
3956.86	0.715
3966.89	0.7146
3976.91	0.7144
3986.94	0.7146
3996.96	0.7145
4006.98	0.7144
