Infrared Spectrum: SODIUM MOLYBDATE
Formula: Na2 Mo O4  * 2 H2 O
State: SOLID (NUJOL MULL)
Class: COBLENTZ
Instrument: Not specified, most likely a prism, grating, or hybrid spectrometer.
Sampling: TRANSMISSION
Resolution: 4
Origin: MELLON INSTITUTE
MICROMETERS	TRANSMITTANCE
2.025	0.751
2.06589	0.751
2.10679	0.753
2.14768	0.756
2.18858	0.759
2.22947	0.763
2.27036	0.765
2.31126	0.766
2.35215	0.77
2.39305	0.773
2.43394	0.777
2.47483	0.78
2.51573	0.782
2.55662	0.783
2.59752	0.785
2.63841	0.783
2.67931	0.782
2.7202	0.78
2.76109	0.773
2.80199	0.753
2.84288	0.689
2.88378	0.62
2.92467	0.552
2.96556	0.457
3.00646	0.403
3.04735	0.38
3.08825	0.385
3.12914	0.413
3.17003	0.452
3.21093	0.499
3.25182	0.538
3.29272	0.536
3.33361	0.368
3.3745	0.279
3.4154	0.363
3.45629	0.356
3.49719	0.596
3.53808	0.689
3.57898	0.71
3.61987	0.713
3.66076	0.715
3.70166	0.715
3.74255	0.713
3.78345	0.713
3.82434	0.715
3.86523	0.715
3.90613	0.715
3.94702	0.715
3.98792	0.713
4.02881	0.715
4.0697	0.713
4.1106	0.715
4.15149	0.713
4.19239	0.713
4.23328	0.713
4.27417	0.713
4.31507	0.713
4.35596	0.711
4.39686	0.699
4.43775	0.692
4.47865	0.689
4.51954	0.687
4.56043	0.687
4.60133	0.686
4.64222	0.686
4.68312	0.687
4.72401	0.687
4.7649	0.687
4.8058	0.687
4.84669	0.689
4.88759	0.689
4.92848	0.698
4.96937	0.699
5.01027	0.701
5.05116	0.701
5.09206	0.701
5.13295	0.701
5.17384	0.701
5.21474	0.703
5.25563	0.703
5.29653	0.704
5.33742	0.706
5.37832	0.708
5.41921	0.711
5.4601	0.713
5.501	0.716
5.54189	0.72
5.58279	0.722
5.62368	0.723
5.66457	0.725
5.70547	0.725
5.74636	0.725
5.78726	0.727
5.82815	0.716
5.86904	0.68
5.90994	0.638
5.95083	0.615
5.99173	0.636
6.03262	0.667
6.07351	0.699
6.11441	0.715
6.1553	0.727
6.1962	0.734
6.23709	0.737
6.27799	0.737
6.31888	0.739
6.35977	0.74
6.40067	0.742
6.44156	0.744
6.48246	0.746
6.52335	0.746
6.56424	0.747
6.60514	0.749
6.64603	0.749
6.68693	0.739
6.72782	0.699
6.76871	0.598
6.80961	0.576
6.8505	0.583
6.8914	0.627
6.93229	0.679
6.97318	0.71
7.01408	0.72
7.05497	0.734
7.09587	0.737
7.13676	0.732
7.17766	0.696
7.21855	0.663
7.25944	0.691
7.30034	0.727
7.34123	0.742
7.38213	0.747
7.42302	0.753
7.46391	0.756
7.50481	0.759
7.5457	0.763
7.5866	0.766
7.62749	0.768
7.66838	0.768
7.70928	0.771
7.75017	0.773
7.79107	0.78
7.83196	0.783
7.87285	0.787
7.91375	0.789
7.95464	0.792
7.99554	0.797
8.03643	0.801
8.07733	0.802
8.11822	0.807
8.15911	0.813
8.20001	0.816
8.2409	0.819
8.2818	0.823
8.32269	0.828
8.36358	0.83
8.40448	0.833
8.44537	0.835
8.48627	0.838
8.52716	0.84
8.56805	0.842
8.60895	0.843
8.64984	0.845
8.69074	0.849
8.73163	0.85
8.77252	0.852
8.81342	0.854
8.85431	0.854
8.89521	0.857
8.9361	0.857
8.977	0.859
9.01789	0.859
9.05878	0.861
9.09968	0.862
9.14057	0.864
9.18147	0.869
9.22236	0.871
9.26325	0.874
9.30415	0.878
9.34504	0.881
9.38594	0.883
9.42683	0.886
9.46772	0.89
9.50862	0.891
9.54951	0.895
9.59041	0.897
9.6313	0.898
9.67219	0.898
9.71309	0.898
9.75398	0.9
9.79488	0.905
9.83577	0.907
9.87667	0.909
9.91756	0.912
9.95845	0.914
9.99935	0.917
10.0402	0.921
10.0811	0.921
10.122	0.921
10.1629	0.922
10.2038	0.924
10.2447	0.924
10.2856	0.926
10.3265	0.926
10.3674	0.926
10.4083	0.927
10.4492	0.929
10.4901	0.933
10.531	0.933
10.5719	0.934
10.6128	0.936
10.6537	0.934
10.6945	0.934
10.7354	0.934
10.7763	0.934
10.8172	0.929
10.8581	0.924
10.899	0.919
10.9399	0.891
10.9808	0.802
11.0217	0.668
11.0626	0.581
11.1035	0.555
11.1444	0.65
11.1853	0.72
11.2262	0.747
11.2671	0.732
11.308	0.684
11.3489	0.614
11.3897	0.53
11.4306	0.456
11.4715	0.389
11.5124	0.332
11.5533	0.289
11.5942	0.241
11.6351	0.212
11.676	0.192
11.7169	0.2
11.7578	0.222
11.7987	0.236
11.8396	0.234
11.8805	0.217
11.9214	0.198
11.9623	0.183
12.0032	0.169
12.0441	0.154
12.0849	0.144
12.1258	0.138
12.1667	0.135
12.2076	0.142
12.2485	0.164
12.2894	0.192
12.3303	0.217
12.3712	0.255
12.4121	0.308
12.453	0.372
12.4939	0.428
12.5348	0.471
12.5757	0.511
12.6166	0.542
12.6575	0.566
12.6984	0.588
12.7393	0.603
12.7801	0.62
12.821	0.632
12.8619	0.641
12.9028	0.651
12.9437	0.66
12.9846	0.665
13.0255	0.67
13.0664	0.675
13.1073	0.68
13.1482	0.684
13.1891	0.687
13.23	0.691
13.2709	0.694
13.3118	0.696
13.3527	0.696
13.3936	0.698
13.4345	0.698
13.4753	0.698
13.5162	0.698
13.5571	0.698
13.598	0.698
13.6389	0.696
13.6798	0.692
13.7207	0.691
13.7616	0.689
13.8025	0.687
13.8434	0.684
13.8843	0.682
13.9252	0.682
13.9661	0.68
14.007	0.677
14.0479	0.674
14.0888	0.67
14.1297	0.663
14.1705	0.658
14.2114	0.651
14.2523	0.643
14.2932	0.638
14.3341	0.631
14.375	0.626
14.4159	0.62
14.4568	0.614
14.4977	0.612
14.5386	0.608
14.5795	0.603
14.6204	0.6
14.6613	0.598
14.7022	0.595
14.7431	0.593
14.784	0.59
14.8248	0.586
14.8657	0.584
14.9066	0.579
14.9475	0.578
14.9884	0.574
15.0293	0.572
15.0702	0.569
15.1111	0.567
15.152	0.566
15.1929	0.564
15.2338	0.562
15.2747	0.562
15.3156	0.56
15.3565	0.56
15.3974	0.56
15.4383	0.559
15.4792	0.562
15.52	0.562
15.5609	0.566
15.6018	0.566
15.6427	0.569
15.6836	0.572
15.7245	0.579
15.7654	0.584
15.8063	0.593
15.8472	0.6
15.8881	0.605
15.929	0.608
15.9699	0.615
