Infrared Spectrum: CALCIUM PERMANGANATE
Formula: Ca ( Mn O4)2  * 4 H2 O
State: SOLID (DRY POWDER)
Class: COBLENTZ
Instrument: Not specified, most likely a prism, grating, or hybrid spectrometer.
Sampling: TRANSMISSION
Resolution: 4
Origin: MELLON INSTITUTE
MICROMETERS	TRANSMITTANCE
2.037	0.794
2.07797	0.798
2.11894	0.803
2.1599	0.801
2.20087	0.8
2.24184	0.796
2.28281	0.793
2.32377	0.789
2.36474	0.786
2.40571	0.781
2.44668	0.764
2.48765	0.753
2.52861	0.745
2.56958	0.741
2.61055	0.74
2.65152	0.729
2.69248	0.714
2.73345	0.61
2.77442	0.381
2.81539	0.162
2.85635	0.099
2.89732	0.092
2.93829	0.123
2.97926	0.17
3.02023	0.254
3.06119	0.314
3.10216	0.352
3.14313	0.439
3.1841	0.504
3.22506	0.562
3.26603	0.603
3.307	0.639
3.34797	0.659
3.38894	0.676
3.4299	0.692
3.47087	0.702
3.51184	0.714
3.55281	0.719
3.59377	0.723
3.63474	0.729
3.67571	0.729
3.71668	0.733
3.75765	0.733
3.79861	0.733
3.83958	0.733
3.88055	0.733
3.92152	0.733
3.96248	0.733
4.00345	0.735
4.04442	0.735
4.08539	0.736
4.12635	0.736
4.16732	0.736
4.20829	0.717
4.24926	0.705
4.29023	0.707
4.33119	0.714
4.37216	0.723
4.41313	0.724
4.4541	0.723
4.49506	0.719
4.53603	0.719
4.577	0.716
4.61797	0.711
4.65894	0.711
4.6999	0.705
4.74087	0.705
4.78184	0.711
4.82281	0.714
4.86377	0.712
4.90474	0.712
4.94571	0.721
4.98668	0.724
5.02765	0.731
5.06861	0.731
5.10958	0.738
5.15055	0.747
5.19152	0.748
5.23248	0.753
5.27345	0.753
5.31442	0.757
5.35539	0.758
5.39635	0.765
5.43732	0.764
5.47829	0.762
5.51926	0.764
5.56023	0.77
5.60119	0.777
5.64216	0.782
5.68313	0.782
5.7241	0.781
5.76506	0.772
5.80603	0.777
5.847	0.781
5.88797	0.784
5.92894	0.776
5.9699	0.745
6.01087	0.694
6.05184	0.588
6.09281	0.444
6.13377	0.246
6.17474	0.271
6.21571	0.352
6.25668	0.582
6.29765	0.67
6.33861	0.711
6.37958	0.735
6.42055	0.747
6.46152	0.764
6.50248	0.774
6.54345	0.774
6.58442	0.782
6.62539	0.784
6.66635	0.806
6.70732	0.81
6.74829	0.822
6.78926	0.818
6.83023	0.82
6.87119	0.818
6.91216	0.832
6.95313	0.823
6.9941	0.829
7.03506	0.827
7.07603	0.83
7.117	0.835
7.15797	0.842
7.19894	0.846
7.2399	0.846
7.28087	0.846
7.32184	0.851
7.36281	0.852
7.40377	0.851
7.44474	0.852
7.48571	0.861
7.52668	0.863
7.56765	0.863
7.60861	0.863
7.64958	0.87
7.69055	0.88
7.73152	0.885
7.77248	0.885
7.81345	0.887
7.85442	0.892
7.89539	0.894
7.93635	0.892
7.97732	0.892
8.01829	0.892
8.05926	0.895
8.10023	0.897
8.14119	0.899
8.18216	0.899
8.22313	0.899
8.2641	0.899
8.30506	0.897
8.34603	0.9
8.387	0.902
8.42797	0.902
8.46894	0.904
8.5099	0.902
8.55087	0.902
8.59184	0.902
8.63281	0.902
8.67377	0.905
8.71474	0.905
8.75571	0.905
8.79668	0.905
8.83765	0.907
8.87861	0.907
8.91958	0.909
8.96055	0.909
9.00152	0.909
9.04248	0.911
9.08345	0.911
9.12442	0.916
9.16539	0.916
9.20635	0.916
9.24732	0.917
9.28829	0.917
9.32926	0.917
9.37023	0.921
9.41119	0.928
9.45216	0.929
9.49313	0.929
9.5341	0.931
9.57506	0.935
9.61603	0.936
9.657	0.936
9.69797	0.936
9.73894	0.941
9.7799	0.94
9.82087	0.943
9.86184	0.945
9.90281	0.948
9.94377	0.948
9.98474	0.948
10.0257	0.945
10.0667	0.948
10.1076	0.945
10.1486	0.952
10.1896	0.95
10.2305	0.948
10.2715	0.94
10.3125	0.941
10.3535	0.938
10.3944	0.929
10.4354	0.917
10.4764	0.902
10.5173	0.875
10.5583	0.825
10.5993	0.75
10.6402	0.61
10.6812	0.458
10.7222	0.36
10.7631	0.27
10.8041	0.203
10.8451	0.182
10.886	0.172
10.927	0.167
10.968	0.164
11.0089	0.157
11.0499	0.153
11.0909	0.153
11.1318	0.15
11.1728	0.145
11.2138	0.145
11.2547	0.153
11.2957	0.182
11.3367	0.249
11.3776	0.319
11.4186	0.391
11.4596	0.483
11.5005	0.538
11.5415	0.588
11.5825	0.632
11.6235	0.668
11.6644	0.688
11.7054	0.709
11.7464	0.729
11.7873	0.74
11.8283	0.702
11.8693	0.639
11.9102	0.639
11.9512	0.652
11.9922	0.705
12.0331	0.729
12.0741	0.752
12.1151	0.769
12.156	0.776
12.197	0.781
12.238	0.784
12.2789	0.794
12.3199	0.801
12.3609	0.806
12.4018	0.81
12.4428	0.811
12.4838	0.813
12.5247	0.815
12.5657	0.818
12.6067	0.813
12.6476	0.822
12.6886	0.818
12.7296	0.815
12.7705	0.815
12.8115	0.817
12.8525	0.817
12.8935	0.813
12.9344	0.811
12.9754	0.808
13.0164	0.806
13.0573	0.803
13.0983	0.8
13.1393	0.805
13.1802	0.8
13.2212	0.796
13.2622	0.796
13.3031	0.796
13.3441	0.793
13.3851	0.788
13.426	0.782
13.467	0.777
13.508	0.772
13.5489	0.769
13.5899	0.767
13.6309	0.765
13.6718	0.753
13.7128	0.752
13.7538	0.75
13.7947	0.745
13.8357	0.74
13.8767	0.735
13.9176	0.729
13.9586	0.724
13.9996	0.717
14.0405	0.714
14.0815	0.704
14.1225	0.697
14.1635	0.692
14.2044	0.68
14.2454	0.676
14.2864	0.67
14.3273	0.664
14.3683	0.656
14.4093	0.652
14.4502	0.649
14.4912	0.641
14.5322	0.637
14.5731	0.63
14.6141	0.625
14.6551	0.617
14.696	0.61
14.737	0.601
14.778	0.593
14.8189	0.589
14.8599	0.588
14.9009	0.581
14.9418	0.574
14.9828	0.572
15.0238	0.564
15.0647	0.552
15.1057	0.548
15.1467	0.541
15.1876	0.538
15.2286	0.533
15.2696	0.528
15.3105	0.524
15.3515	0.521
15.3925	0.517
15.4335	0.511
15.4744	0.511
15.5154	0.509
15.5564	0.509
15.5973	0.511
15.6383	0.511
15.6793	0.5
15.7202	0.499
15.7612	0.5
15.8022	0.497
15.8431	0.499
15.8841	0.5
15.9251	0.5
15.966	0.499
16.007	0.499
