Infrared Spectrum: Octadecane-1-sulfonic acid, sodium salt
Formula: C18 H37 O3 S Na
State: SOLID (1 mg / 100 mg KBr DISC)
Class: COBLENTZ III
Instrument: BECKMAN IR-12 (GRATING)
Instrument parameters: GRATING
Sampling: TRANSMISSION
Resolution: 2
Origin: COLGATE-PALMOLIVE COMPANY (KELLENBACH)
1/CM	TRANSMITTANCE
202	0.0487
212	0.0521
222	0.0772
232	0.1864
242	0.3584
252	0.4678
262	0.5876
272	0.7107
282	0.7383
292	0.7881
302	0.8049
312	0.8228
322	0.8638
332	0.8803
342	0.8864
352	0.8803
362	0.875
372	0.8873
382	0.8884
392	0.8959
402	0.8992
412	0.9284
422	0.9278
432	0.9273
442	0.9254
452	0.9289
462	0.9285
472	0.9123
482	0.8948
492	0.8998
502	0.8892
512	0.8665
522	0.8135
532	0.7386
542	0.709
552	0.71
562	0.7374
572	0.797
582	0.8206
592	0.8243
602	0.803
612	0.6997
622	0.4279
632	0.6185
642	0.7791
652	0.8032
662	0.7894
672	0.7896
682	0.792
692	0.7923
702	0.7872
712	0.7742
722	0.5914
732	0.693
742	0.7581
752	0.7642
762	0.7766
772	0.7717
782	0.7465
792	0.6817
802	0.6247
812	0.7184
822	0.782
832	0.7858
842	0.7875
852	0.7859
862	0.7886
872	0.7884
882	0.7816
892	0.7795
902	0.7815
912	0.7786
922	0.7754
932	0.7745
942	0.7765
952	0.7782
962	0.7698
972	0.7686
982	0.7577
992	0.7574
1002	0.7553
1012	0.7542
1022	0.7494
1032	0.7125
1042	0.6185
1052	0.4487
1062	0.2448
1072	0.286
1082	0.5784
1092	0.6575
1102	0.6782
1112	0.6976
1122	0.6914
1132	0.6695
1142	0.6398
1152	0.5147
1162	0.3285
1172	0.1379
1182	0.107
1192	0.1207
1202	0.1402
1212	0.1492
1222	0.2579
1232	0.3153
1242	0.4182
1252	0.4927
1262	0.5507
1272	0.6225
1282	0.6186
1292	0.6352
1302	0.6366
1312	0.6634
1322	0.6814
1332	0.6915
1342	0.6842
1352	0.6896
1362	0.6889
1372	0.685
1382	0.6715
1392	0.6956
1402	0.6848
1412	0.6657
1422	0.6622
1432	0.6752
1442	0.6586
1452	0.6347
1462	0.5433
1472	0.3564
1482	0.6273
1492	0.673
1502	0.677
1512	0.6759
1522	0.669
1532	0.6808
1542	0.6653
1552	0.6785
1562	0.6646
1572	0.677
1582	0.6785
1592	0.6777
1602	0.6724
1612	0.664
1622	0.6554
1632	0.6466
1642	0.6383
1652	0.6253
1662	0.6393
1672	0.6544
1682	0.6594
1692	0.6628
1702	0.658
1712	0.6645
1722	0.6621
1732	0.6704
1742	0.6666
1752	0.667
1762	0.6697
1772	0.6657
1782	0.6723
1792	0.6707
1802	0.6689
1812	0.6667
1822	0.6661
1832	0.6583
1842	0.6652
1852	0.6629
1862	0.6631
1872	0.6634
1882	0.6633
1892	0.6608
1902	0.6596
1912	0.659
1922	0.6593
1932	0.6595
1942	0.6584
1952	0.6569
1962	0.6551
1972	0.6536
1982	0.6519
1992	0.6503
2002	0.6482
2012	0.6459
2022	0.6453
2032	0.6474
2042	0.6457
2052	0.6431
2062	0.6404
2072	0.6397
2082	0.641
2092	0.6399
2102	0.6386
2112	0.6364
2122	0.6343
2132	0.6323
2142	0.631
2152	0.6297
2162	0.6284
2172	0.627
2182	0.6258
2192	0.6245
2202	0.6234
2212	0.6228
2222	0.6243
2232	0.6215
2242	0.6172
2252	0.6157
2262	0.6158
2272	0.6141
2282	0.6108
2292	0.6087
2302	0.6087
2312	0.6064
2322	0.6002
2332	0.5933
2342	0.5863
2352	0.5791
2362	0.5754
2372	0.5864
2382	0.6031
2392	0.6045
2402	0.6039
2412	0.6019
2422	0.6012
2432	0.6044
2442	0.6026
2452	0.6006
2462	0.5982
2472	0.5962
2482	0.5943
2492	0.5926
2502	0.5915
2512	0.5905
2522	0.59
2532	0.5898
2542	0.5896
2552	0.589
2562	0.5873
2572	0.5854
2582	0.5828
2592	0.58
2602	0.5768
2612	0.5738
2622	0.571
2632	0.5697
2642	0.5688
2652	0.5686
2662	0.5695
2672	0.5712
2682	0.5715
2692	0.5704
2702	0.5683
2712	0.5659
2722	0.5637
2732	0.5617
2742	0.5598
2752	0.5579
2762	0.5557
2772	0.5531
2782	0.5487
2792	0.5399
2802	0.5285
2812	0.5123
2822	0.4815
2832	0.4009
2842	0.2294
2852	0.0578
2862	0.1692
2872	0.2866
2882	0.2821
2892	0.2126
2902	0.1431
2912	0.0736
2922	0.0122
2932	0.0233
2942	0.198
2952	0.2412
2962	0.2568
2972	0.3546
2982	0.4597
2992	0.4739
3002	0.4859
3012	0.4945
3022	0.4993
3032	0.503
3042	0.5058
3052	0.5081
3062	0.5104
3072	0.5128
3082	0.5146
3092	0.516
3102	0.5155
3112	0.517
3122	0.5167
3132	0.516
3142	0.5153
3152	0.5145
3162	0.5138
3172	0.5121
3182	0.5104
3192	0.5086
3202	0.5064
3212	0.5043
3222	0.5022
3232	0.5
3242	0.4978
3252	0.4955
3262	0.493
3272	0.4904
3282	0.4872
3292	0.4837
3302	0.4799
3312	0.476
3322	0.4718
3332	0.4674
3342	0.463
3352	0.4579
3362	0.4529
3372	0.4475
3382	0.4419
3392	0.4356
3402	0.4287
3412	0.4225
3422	0.4182
3432	0.4151
3442	0.4129
3452	0.4111
3462	0.4106
3472	0.4127
3482	0.4147
3492	0.4176
3502	0.4209
3512	0.4243
3522	0.4277
3532	0.4311
3542	0.4353
3552	0.4395
3562	0.4436
3572	0.4477
3582	0.4516
3592	0.4547
3602	0.4577
3612	0.4608
3622	0.4644
3632	0.468
3642	0.4708
3652	0.4711
3662	0.4703
3672	0.4679
3682	0.472
3692	0.4762
3702	0.4734
3712	0.4686
3722	0.4732
3732	0.4708
3742	0.4656
3752	0.4644
3762	0.467
3772	0.471
3782	0.4714
3792	0.4712
3802	0.4693
3812	0.4658
3822	0.4628
3832	0.461
3842	0.46
3852	0.4597
3862	0.4603
3872	0.4601
3882	0.459
3892	0.4564
3902	0.4509
3912	0.4539
3922	0.4583
3932	0.4607
3942	0.461
3952	0.4608
3962	0.4594
3972	0.4577
3982	0.4558
3992	0.4535
4002	0.4517
