Infrared Spectrum: 2-Chloro-10-(3'-dimethylaminopropyl)-5,5-phenothiazinedioxide, hydrochloride, monohydrate
Formula: C17 H20 Cl2 N2 O2 S  * H2 O
State: SOLID (OIL MULL)
Class: COBLENTZ III
Instrument: PERKIN-ELMER 21 (GRATING)
Instrument parameters: NaCl PRISM
Sampling: TRANSMISSION
Resolution: 2
Origin: SMITH KLINE & FRENCH LABS.
1/CM	TRANSMITTANCE
4000	0.622
3991	0.6236
3982	0.6277
3973	0.63
3964	0.631
3955	0.6319
3946	0.6328
3937	0.6338
3928	0.6358
3919	0.6383
3910	0.6436
3901	0.6475
3892	0.6499
3883	0.6495
3874	0.6471
3865	0.6443
3856	0.6415
3847	0.6412
3838	0.6431
3829	0.6467
3820	0.6521
3811	0.6596
3802	0.6668
3793	0.6701
3784	0.6721
3775	0.673
3766	0.6736
3757	0.6733
3748	0.6712
3739	0.6698
3730	0.6694
3721	0.6711
3712	0.6736
3703	0.6758
3694	0.6782
3685	0.6804
3676	0.6821
3667	0.6789
3658	0.6721
3649	0.6691
3640	0.6707
3631	0.6738
3622	0.6748
3613	0.6745
3604	0.6719
3595	0.6678
3586	0.6528
3577	0.5748
3568	0.4915
3559	0.4144
3550	0.3918
3541	0.3864
3532	0.3916
3523	0.4105
3514	0.4302
3505	0.4501
3496	0.47
3487	0.49
3478	0.5101
3469	0.5303
3460	0.5507
3451	0.5694
3442	0.576
3433	0.5773
3424	0.5771
3415	0.5702
3406	0.5567
3397	0.5012
3388	0.4581
3379	0.4148
3370	0.3872
3361	0.3873
3352	0.3889
3343	0.4109
3334	0.4409
3325	0.471
3316	0.5014
3307	0.5318
3298	0.5597
3289	0.5649
3280	0.5679
3271	0.5705
3262	0.586
3253	0.6068
3244	0.6277
3235	0.6354
3226	0.6389
3217	0.6412
3208	0.6431
3199	0.6449
3190	0.6474
3181	0.6501
3172	0.6535
3163	0.6565
3154	0.6588
3145	0.661
3136	0.6632
3127	0.6643
3118	0.6649
3109	0.6655
3100	0.6665
3091	0.6685
3082	0.6705
3073	0.6701
3064	0.6678
3055	0.6469
3046	0.6381
3037	0.6343
3028	0.6312
3019	0.6292
3010	0.6262
3001	0.6225
2992	0.6155
2983	0.6047
2974	0.5905
2965	0.5754
2956	0.5452
2947	0.478
2938	0.3843
2929	0.2899
2920	0.195
2911	0.1442
2902	0.1378
2893	0.1263
2884	0.1165
2875	0.1109
2866	0.1081
2857	0.115
2848	0.1266
2839	0.1261
2830	0.124
2821	0.1282
2812	0.2029
2803	0.2846
2794	0.367
2785	0.4498
2776	0.5332
2767	0.6171
2758	0.6584
2749	0.6615
2740	0.6644
2731	0.6665
2722	0.6676
2713	0.6612
2704	0.6496
2695	0.6455
2686	0.6389
2677	0.6172
2668	0.5681
2659	0.5272
2650	0.4539
2641	0.3977
2632	0.3692
2623	0.3436
2614	0.3163
2605	0.2889
2596	0.2613
2587	0.2371
2578	0.2365
2569	0.2496
2560	0.2909
2551	0.3312
2542	0.3594
2533	0.3866
2524	0.4184
2515	0.4217
2506	0.4121
2497	0.4044
2488	0.4064
2479	0.4089
2470	0.4016
2461	0.3802
2452	0.3816
2443	0.393
2434	0.4225
2425	0.4562
2416	0.4809
2407	0.5076
2398	0.5305
2389	0.5496
2380	0.5676
2371	0.5845
2362	0.5972
2353	0.6105
2344	0.6245
2335	0.6372
2326	0.6508
2317	0.6682
2308	0.6871
2299	0.7062
2290	0.7256
2281	0.7784
2272	0.7943
2263	0.8001
2254	0.8025
2245	0.8072
2236	0.8104
2227	0.8124
2218	0.8175
2209	0.8233
2200	0.831
2191	0.8362
2182	0.8402
2173	0.8471
2164	0.8554
2155	0.8578
2146	0.8571
2137	0.8559
2128	0.8575
2119	0.8618
2110	0.8667
2101	0.8704
2092	0.8721
2083	0.8738
2074	0.8747
2065	0.8754
2056	0.8738
2047	0.8714
2038	0.868
2029	0.8681
2020	0.8692
2011	0.8755
2002	0.8848
1993	0.8912
1984	0.8971
1975	0.9063
1966	0.9137
1957	0.9132
1948	0.9112
1939	0.9118
1930	0.915
1921	0.9178
1912	0.9205
1903	0.9224
1894	0.9171
1885	0.9097
1876	0.927
1867	0.9378
1858	0.9404
1849	0.9414
1840	0.9425
1831	0.9437
1822	0.9458
1813	0.9483
1804	0.9495
1795	0.9504
1786	0.9525
1777	0.9557
1768	0.9571
1759	0.9544
1750	0.9471
1741	0.9434
1732	0.9414
1723	0.9405
1714	0.9459
1705	0.9498
1696	0.9513
1687	0.9518
1678	0.9521
1669	0.9515
1660	0.9521
1651	0.9559
1642	0.9427
1633	0.9046
1624	0.8287
1615	0.8165
1606	0.6584
1597	0.4843
1588	0.2684
1579	0.1113
1570	0.1848
1561	0.5984
1552	0.5983
1543	0.6362
1534	0.7707
1525	0.8318
1516	0.8104
1507	0.7835
1498	0.7928
1489	0.6439
1480	0.323
1471	0.2012
1462	0.0887
1453	0.0934
1444	0.1211
1435	0.3108
1426	0.4341
1417	0.1996
1408	0.4059
1399	0.6179
1390	0.6524
1381	0.6674
1372	0.4208
1363	0.5455
1354	0.612
1345	0.4804
1336	0.7333
1327	0.7756
1318	0.7853
1309	0.76
1300	0.7141
1291	0.507
1282	0.421
1273	0.1759
1264	0.1084
1255	0.4856
1246	0.4729
1237	0.3814
1228	0.6331
1219	0.7643
1210	0.8208
1201	0.8321
1192	0.8202
1183	0.7639
1174	0.4451
1165	0.2335
1156	0.2385
1147	0.4347
1138	0.2941
1129	0.2989
1120	0.7047
1111	0.4659
1102	0.5748
1093	0.7672
1084	0.4772
1075	0.3838
1066	0.6191
1057	0.7928
1048	0.7806
1039	0.7622
1030	0.6982
1021	0.8057
1012	0.8621
1003	0.7608
994	0.8628
985	0.8874
976	0.8738
967	0.6762
958	0.7757
949	0.794
940	0.7511
931	0.2771
922	0.7903
913	0.8498
904	0.8774
895	0.8873
886	0.8161
877	0.364
868	0.638
859	0.8331
850	0.8561
841	0.8466
832	0.8278
823	0.9012
814	0.8544
805	0.5965
796	0.6941
787	0.8378
778	0.8671
769	0.7864
760	0.3222
751	0.2177
742	0.6868
733	0.8034
724	0.7769
715	0.8294
706	0.7251
697	0.8402
688	0.8412
