Infrared Spectrum: 4-AMINOBENZENEMETHANAMINE, N-PHENYL-,DIHYDROCHLORIDE
Formula: C13 H16 Cl2 N2
State: SOLID (KBr DISC, 0.8% WT.)
Class: COBLENTZ III
Instrument: PERKIN-ELMER 157
Sampling: TRANSMISSION
Resolution: 2
Origin: BRITISH PETROLEUM CO. LTD., ENGLAND
1/CM	TRANSMITTANCE
667	0.8987
676	0.8571
685	0.736
694	0.5911
703	0.8347
712	0.8401
721	0.8137
730	0.7795
739	0.7073
748	0.481
757	0.0294
766	0.6393
775	0.7253
784	0.7047
793	0.5064
802	0.4004
811	0.0725
820	0.4618
829	0.5421
838	0.6364
847	0.7131
856	0.612
865	0.1558
874	0.6767
883	0.802
892	0.8047
901	0.7841
910	0.6177
919	0.7492
928	0.7829
937	0.7399
946	0.6383
955	0.7736
964	0.696
973	0.764
982	0.7572
991	0.7424
1000	0.7196
1009	0.6803
1018	0.5065
1027	0.481
1036	0.6171
1045	0.528
1054	0.3544
1063	0.3247
1072	0.5312
1081	0.4919
1090	0.3705
1099	0.1061
1108	0.0555
1117	0.0404
1126	0.5513
1135	0.673
1144	0.6596
1153	0.6497
1162	0.6455
1171	0.5959
1180	0.3941
1189	0.4355
1198	0.1893
1207	0.3837
1216	0.6611
1225	0.6539
1234	0.6327
1243	0.6336
1252	0.6338
1261	0.625
1270	0.5859
1279	0.5737
1288	0.5528
1297	0.4205
1306	0.3626
1315	0.4384
1324	0.409
1333	0.616
1342	0.6143
1351	0.6026
1360	0.5756
1369	0.566
1378	0.5059
1387	0.489
1396	0.4555
1405	0.419
1414	0.3591
1423	0.3001
1432	0.1975
1441	0.1759
1450	0.2506
1459	0.2098
1468	0.1451
1477	0.0519
1486	0.0115
1495	0.0205
1504	0.025
1513	0.0622
1522	0.2704
1531	0.3187
1540	0.2362
1549	0.0939
1558	0.0406
1567	0.0398
1576	0.1913
1585	0.3925
1594	0.3844
1603	0.2878
1612	0.0807
1621	0.3525
1630	0.4869
1639	0.5039
1648	0.5453
1657	0.5584
1666	0.5861
1675	0.5881
1684	0.5884
1693	0.5887
1702	0.5892
1711	0.5896
1720	0.5899
1729	0.5767
1738	0.5713
1747	0.5525
1756	0.5492
1765	0.5335
1774	0.5075
1783	0.4795
1792	0.4678
1801	0.4651
1810	0.4641
1819	0.4503
1828	0.4365
1837	0.4199
1846	0.402
1855	0.3835
1864	0.3554
1873	0.3184
1882	0.2947
1891	0.2448
1900	0.2143
1909	0.2322
1918	0.2562
1927	0.2676
1936	0.2875
1945	0.2952
1954	0.2994
1963	0.3043
1972	0.3067
1981	0.3102
1990	0.3313
1999	0.3528
2008	0.3742
2017	0.3924
2026	0.3933
2035	0.3929
2044	0.3954
2053	0.4065
2062	0.4186
2071	0.4199
2080	0.4155
2089	0.4025
2098	0.3894
2107	0.3721
2116	0.3683
2125	0.3787
2134	0.3774
2143	0.3675
2152	0.3561
2161	0.3433
2170	0.3307
2179	0.3182
2188	0.3057
2197	0.2926
2206	0.2813
2215	0.2665
2224	0.2632
2233	0.2745
2242	0.2813
2251	0.2829
2260	0.2816
2269	0.2771
2278	0.2707
2287	0.2574
2296	0.2448
2305	0.2285
2314	0.2173
2323	0.2063
2332	0.1936
2341	0.1753
2350	0.1665
2359	0.1576
2368	0.1489
2377	0.1428
2386	0.1386
2395	0.1299
2404	0.1075
2413	0.1034
2422	0.0914
2431	0.0874
2440	0.0797
2449	0.0666
2458	0.0491
2467	0.0413
2476	0.0391
2485	0.0357
2494	0.0258
2503	0.0046
2512	0
2521	0
2530	0
2539	0
2548	0
2557	0
2566	0
2575	0.0016
2584	0.0034
2593	0.0044
2602	0.0045
2611	0.0005
2620	0
2629	0
2638	0
2647	0
2656	0
2665	0
2674	0
2683	0
2692	0
2701	0
2710	0
2719	0
2728	0
2737	0
2746	0
2755	0.0002
2764	0.0027
2773	0.0035
2782	0.0036
2791	0.0036
2800	0.0035
2809	0.0035
2818	0.0055
2827	0.0095
2836	0.0103
2845	0.0107
2854	0.011
2863	0.0111
2872	0.0112
2881	0.0113
2890	0.0114
2899	0.0114
2908	0.0114
2917	0.0114
2926	0.0114
2935	0.0113
2944	0.0114
2953	0.0114
2962	0.0114
2971	0.0117
2980	0.012
2989	0.0122
2998	0.0125
3007	0.0131
3016	0.0138
3025	0.0152
3034	0.0173
3043	0.02
3052	0.0234
3061	0.0267
3070	0.0291
3079	0.0298
3088	0.0304
3097	0.0341
3106	0.0549
3115	0.0748
3124	0.087
3133	0.0994
3142	0.1266
3151	0.1564
3160	0.1859
3169	0.2153
3178	0.2445
3187	0.2735
3196	0.3025
3205	0.3311
3214	0.3729
3223	0.3967
3232	0.4072
3241	0.4126
3250	0.4158
3259	0.4176
3268	0.4191
3277	0.4155
3286	0.4117
3295	0.4056
3304	0.3996
3313	0.3912
3322	0.3823
3331	0.3747
3340	0.3657
3349	0.3431
3358	0.3178
3367	0.3077
3376	0.2999
3385	0.2916
3394	0.286
3403	0.2819
3412	0.2795
3421	0.279
3430	0.2789
3439	0.2789
3448	0.28
3457	0.2846
3466	0.2936
3475	0.303
3484	0.3119
3493	0.3198
3502	0.327
3511	0.3342
3520	0.3426
3529	0.3543
3538	0.3678
3547	0.3768
3556	0.3887
3565	0.4001
3574	0.4109
3583	0.4254
3592	0.4657
3601	0.4778
3610	0.4856
3619	0.4947
3628	0.505
3637	0.5191
3646	0.5302
3655	0.5318
3664	0.5329
3673	0.5334
3682	0.5334
3691	0.5332
3700	0.5324
3709	0.5308
3718	0.5235
3727	0.5185
3736	0.5154
3745	0.5128
3754	0.5115
3763	0.5114
3772	0.5114
3781	0.5114
3790	0.5092
3799	0.5055
3808	0.4975
3817	0.4914
3826	0.4875
3835	0.485
3844	0.483
3853	0.4783
3862	0.4739
3871	0.4692
3880	0.4658
3889	0.4645
3898	0.4638
3907	0.4638
3916	0.4638
3925	0.4636
3934	0.4635
3943	0.4629
3952	0.462
3961	0.4609
3970	0.4591
3979	0.4567
3988	0.4541
3997	0.4523
