Infrared Spectrum: o-Toluenesulfonic acid, 4-nitro-, sodium salt
Formula: C7 H6 N Na O5 S
State: SOLID (OIL MULL)
Class: COBLENTZ III
Instrument: BAIRD (GRATING)
Instrument parameters: NaCl PRISM
Resolution: 2
Origin: WYANDOTTE CHEMICALS CORP.
1/CM	TRANSMITTANCE
626	0.6755
635	0.7112
644	0.7645
653	0.8447
662	0.8707
671	0.9092
680	0.9143
689	0.9307
698	0.8975
707	0.9101
716	0.8275
725	0.7486
734	0.766
743	0.8536
752	0.9456
761	0.9606
770	0.9597
779	0.9706
788	0.973
797	0.8716
806	0.9554
815	0.9805
824	0.9582
833	0.9513
842	0.9808
851	0.9752
860	0.973
869	0.9682
878	0.9534
887	0.9101
896	0.9052
905	0.9411
914	0.813
923	0.8276
932	0.9046
941	0.9017
950	0.9
959	0.8939
968	0.8839
977	0.889
986	0.9015
995	0.8984
1004	0.8841
1013	0.8615
1022	0.8185
1031	0.713
1040	0.577
1049	0.8242
1058	0.8488
1067	0.8317
1076	0.7604
1085	0.5458
1094	0.6726
1103	0.9255
1112	0.9265
1121	0.9028
1130	0.8645
1139	0.8185
1148	0.7179
1157	0.7253
1166	0.7501
1175	0.7075
1184	0.6331
1193	0.4963
1202	0.3564
1211	0.4461
1220	0.5978
1229	0.5704
1238	0.5106
1247	0.5028
1256	0.6728
1265	0.7266
1274	0.7366
1283	0.8132
1292	0.7984
1301	0.7543
1310	0.7331
1319	0.7272
1328	0.7441
1337	0.7176
1346	0.4954
1355	0.335
1364	0.5666
1373	0.5044
1382	0.3282
1391	0.5769
1400	0.8232
1409	0.8636
1418	0.8623
1427	0.8438
1436	0.7825
1445	0.5574
1454	0.3619
1463	0.2154
1472	0.2023
1481	0.3741
1490	0.6511
1499	0.7755
1508	0.8127
1517	0.7865
1526	0.7331
1535	0.6558
1544	0.6815
1553	0.8484
1562	0.8994
1571	0.9025
1580	0.9012
1589	0.8824
1598	0.8304
1607	0.8391
1616	0.8228
1625	0.8672
1634	0.9033
1643	0.887
1652	0.8705
1661	0.8609
1670	0.8503
1679	0.8563
1688	0.913
1697	0.9392
1706	0.9474
1715	0.9504
1724	0.9524
1733	0.9519
1742	0.9533
1751	0.9579
1760	0.9673
1769	0.971
1778	0.9717
1787	0.9719
1796	0.9717
1805	0.9716
1814	0.9713
1823	0.971
1832	0.9704
1841	0.9696
1850	0.969
1859	0.9678
1868	0.9665
1877	0.9646
1886	0.9627
1895	0.9609
1904	0.9594
1913	0.9577
1922	0.9562
1931	0.9546
1940	0.9533
1949	0.9519
1958	0.9506
1967	0.9492
1976	0.9479
1985	0.9465
1994	0.9451
2003	0.9435
2012	0.9416
2021	0.9398
2030	0.9378
2039	0.9358
2048	0.9339
2057	0.933
2066	0.9323
2075	0.9314
2084	0.9302
2093	0.929
2102	0.9269
2111	0.9244
2120	0.922
2129	0.9198
2138	0.9175
2147	0.9173
2156	0.9173
2165	0.9171
2174	0.9169
2183	0.9154
2192	0.913
2201	0.9107
2210	0.9092
2219	0.9083
2228	0.9074
2237	0.9065
2246	0.9058
2255	0.905
2264	0.9038
2273	0.9015
2282	0.8987
2291	0.8956
2300	0.8925
2309	0.8896
2318	0.8872
2327	0.8858
2336	0.8843
2345	0.883
2354	0.8817
2363	0.8804
2372	0.8791
2381	0.8779
2390	0.8766
2399	0.8753
2408	0.8739
2417	0.8726
2426	0.8713
2435	0.87
2444	0.8687
2453	0.8676
2462	0.8665
2471	0.8653
2480	0.8628
2489	0.8601
2498	0.8573
2507	0.8528
2516	0.8478
2525	0.8425
2534	0.8372
2543	0.8318
2552	0.826
2561	0.8202
2570	0.8143
2579	0.8085
2588	0.8025
2597	0.7967
2606	0.7908
2615	0.785
2624	0.7791
2633	0.7736
2642	0.7687
2651	0.7637
2660	0.759
2669	0.7561
2678	0.7532
2687	0.7504
2696	0.7484
2705	0.7468
2714	0.7454
2723	0.7442
2732	0.743
2741	0.7402
2750	0.7361
2759	0.728
2768	0.7161
2777	0.6613
2786	0.5642
2795	0.4678
2804	0.3719
2813	0.2768
2822	0.1821
2831	0.0813
2840	0.0531
2849	0.039
2858	0.0317
2867	0.0279
2876	0.0266
2885	0.0252
2894	0.0239
2903	0.0234
2912	0.0233
2921	0.024
2930	0.0256
2939	0.0281
2948	0.0462
2957	0.1068
2966	0.1673
2975	0.2275
2984	0.2873
2993	0.3469
3002	0.406
3011	0.4647
3020	0.5231
3029	0.5812
3038	0.6424
3047	0.6752
3056	0.6929
3065	0.7025
3074	0.7095
3083	0.716
3092	0.7224
3101	0.7282
3110	0.7334
3119	0.7354
3128	0.7361
3137	0.736
3146	0.7359
3155	0.7358
3164	0.7356
3173	0.7352
3182	0.735
3191	0.7348
3200	0.7346
3209	0.7343
3218	0.734
3227	0.7337
3236	0.7323
3245	0.7306
3254	0.7275
3263	0.7234
3272	0.718
3281	0.7124
3290	0.706
3299	0.6995
3308	0.6934
3317	0.6876
3326	0.6815
3335	0.6727
3344	0.6629
3353	0.6532
3362	0.6435
3371	0.6343
3380	0.6268
3389	0.6195
3398	0.6128
3407	0.6084
3416	0.6071
3425	0.6069
3434	0.608
3443	0.6091
3452	0.6119
3461	0.6156
3470	0.6233
3479	0.6319
3488	0.6407
3497	0.6498
3506	0.6659
3515	0.6822
3524	0.701
3533	0.7194
3542	0.732
3551	0.7431
3560	0.752
3569	0.7591
3578	0.766
3587	0.7703
3596	0.7725
3605	0.7733
3614	0.7735
3623	0.7737
3632	0.7746
3641	0.7761
3650	0.7802
3659	0.7865
3668	0.7944
3677	0.801
3686	0.807
3695	0.8122
3704	0.8147
3713	0.817
3722	0.8173
3731	0.8172
3740	0.8162
3749	0.8151
3758	0.8134
3767	0.8115
3776	0.8096
3785	0.8078
3794	0.8059
3803	0.804
3812	0.8021
3821	0.8003
3830	0.7986
3839	0.797
3848	0.7953
3857	0.7936
3866	0.7921
3875	0.7908
3884	0.7897
3893	0.7886
3902	0.7875
3911	0.7864
3920	0.7854
3929	0.7844
3938	0.7835
3947	0.7826
3956	0.7818
3965	0.781
3974	0.7801
3983	0.7794
3992	0.7785
