Infrared Spectrum: 1,3-(1,1'-FERROCENYLENE)-1,1,3,3-TETRAMETHYL DISILOXANE
Formula: C14 H20 Fe O Si2
State: SOLID (MINERAL OIL MULL)
Class: COBLENTZ
Instrument: Not specified, most likely a prism, grating, or hybrid spectrometer.
Sampling: TRANSMISSION
Resolution: 4
Origin: WYANDOTTE CHEMICALS CORP., WYANDOTTE, MICHIGAN, USA
MICROMETERS	TRANSMITTANCE
2.04	0.388
2.07975	0.398
2.11951	0.407
2.15926	0.411
2.19902	0.412
2.23877	0.419
2.27853	0.429
2.31828	0.439
2.35803	0.447
2.39779	0.456
2.43754	0.459
2.4773	0.464
2.51705	0.47
2.55681	0.482
2.59656	0.489
2.63631	0.495
2.67607	0.504
2.71582	0.51
2.75558	0.517
2.79533	0.519
2.83509	0.524
2.87484	0.525
2.91459	0.527
2.95435	0.527
2.9941	0.529
3.03386	0.532
3.07361	0.532
3.11337	0.53
3.15312	0.52
3.19287	0.504
3.23263	0.429
3.27238	0.461
3.31214	0.363
3.35189	0.043
3.39165	0.038
3.4314	0.077
3.47115	0.106
3.51091	0.278
3.55066	0.666
3.59042	0.718
3.63017	0.729
3.66993	0.721
3.70968	0.721
3.74943	0.728
3.78919	0.733
3.82894	0.739
3.8687	0.747
3.90845	0.772
3.9482	0.776
3.98796	0.776
4.02771	0.774
4.06747	0.776
4.10722	0.782
4.14698	0.789
4.18673	0.796
4.22648	0.786
4.26624	0.776
4.30599	0.789
4.34575	0.804
4.3855	0.824
4.42526	0.825
4.46501	0.825
4.50476	0.829
4.54452	0.832
4.58427	0.83
4.62403	0.834
4.66378	0.84
4.70354	0.855
4.74329	0.865
4.78304	0.855
4.8228	0.86
4.86255	0.847
4.90231	0.854
4.94206	0.86
4.98182	0.872
5.02157	0.89
5.06132	0.882
5.10108	0.893
5.14083	0.897
5.18059	0.878
5.22034	0.887
5.2601	0.885
5.29985	0.908
5.3396	0.915
5.37936	0.91
5.41911	0.922
5.45887	0.917
5.49862	0.917
5.53838	0.927
5.57813	0.915
5.61788	0.892
5.65764	0.875
5.69739	0.888
5.73715	0.862
5.7769	0.862
5.81666	0.837
5.85641	0.832
5.89616	0.862
5.93592	0.852
5.97567	0.844
6.01543	0.83
6.05518	0.844
6.09494	0.875
6.13469	0.888
6.17444	0.86
6.2142	0.868
6.25395	0.897
6.29371	0.9
6.33346	0.895
6.37322	0.887
6.41297	0.9
6.45272	0.89
6.49248	0.892
6.53223	0.892
6.57199	0.903
6.61174	0.888
6.6515	0.882
6.69125	0.822
6.731	0.723
6.77076	0.504
6.81051	0.346
6.85027	0.411
6.89002	0.533
6.92978	0.665
6.96953	0.724
7.00928	0.515
7.04904	0.65
7.08879	0.674
7.12855	0.752
7.1683	0.802
7.20806	0.532
7.24781	0.462
7.28756	0.404
7.32732	0.701
7.36707	0.729
7.40683	0.829
7.44658	0.86
7.48633	0.89
7.52609	0.903
7.56584	0.908
7.6056	0.877
7.64535	0.691
7.68511	0.844
7.72486	0.892
7.76461	0.893
7.80437	0.872
7.84412	0.834
7.88388	0.752
7.92363	0.47
7.96339	0.067
8.00314	0.187
8.04289	0.56
8.08265	0.739
8.1224	0.825
8.16216	0.868
8.20191	0.89
8.24167	0.9
8.28142	0.907
8.32117	0.913
8.36093	0.905
8.40068	0.872
8.44044	0.575
8.48019	0.693
8.51995	0.572
8.5597	0.15
8.59945	0.061
8.63921	0.276
8.67896	0.676
8.71872	0.754
8.75847	0.852
8.79823	0.922
8.83798	0.94
8.87773	0.941
8.91749	0.938
8.95724	0.948
8.997	0.955
9.03675	0.95
9.07651	0.927
9.11626	0.902
9.15601	0.883
9.19577	0.845
9.23552	0.796
9.27528	0.736
9.31503	0.686
9.35479	0.635
9.39454	0.543
9.43429	0.472
9.47405	0.354
9.5138	0.331
9.55356	0.409
9.59331	0.139
9.63307	0.036
9.67282	0.051
9.71257	0.044
9.75233	0.041
9.79208	0.051
9.83184	0.067
9.87159	0.104
9.91135	0.172
9.9511	0.238
9.99085	0.308
10.0306	0.379
10.0704	0.442
10.1101	0.494
10.1499	0.538
10.1896	0.58
10.2294	0.61
10.2691	0.635
10.3089	0.665
10.3486	0.686
10.3884	0.704
10.4282	0.723
10.4679	0.734
10.5077	0.751
10.5474	0.757
10.5872	0.764
10.6269	0.772
10.6667	0.767
10.7064	0.784
10.7462	0.791
10.7859	0.796
10.8257	0.8
10.8654	0.794
10.9052	0.777
10.945	0.736
10.9847	0.623
11.0245	0.396
11.0642	0.255
11.104	0.349
11.1437	0.565
11.1835	0.696
11.2232	0.699
11.263	0.752
11.3027	0.802
11.3425	0.817
11.3823	0.797
11.422	0.742
11.4618	0.696
11.5015	0.635
11.5413	0.674
11.581	0.651
11.6208	0.618
11.6605	0.56
11.7003	0.422
11.74	0.326
11.7798	0.441
11.8196	0.489
11.8593	0.427
11.8991	0.432
11.9388	0.359
11.9786	0.278
12.0183	0.212
12.0581	0.14
12.0978	0.069
12.1376	0.039
12.1773	0.029
12.2171	0.026
12.2568	0.028
12.2966	0.033
12.3364	0.044
12.3761	0.079
12.4159	0.104
12.4556	0.116
12.4954	0.101
12.5351	0.072
12.5749	0.039
12.6146	0.033
12.6544	0.028
12.6941	0.034
12.7339	0.072
12.7737	0.139
12.8134	0.218
12.8532	0.306
12.8929	0.391
12.9327	0.474
12.9724	0.548
13.0122	0.611
13.0519	0.648
13.0917	0.669
13.1314	0.693
13.1712	0.713
13.2109	0.724
13.2507	0.737
13.2905	0.747
13.3302	0.756
13.37	0.757
13.4097	0.744
13.4495	0.728
13.4892	0.729
13.529	0.741
13.5687	0.747
13.6085	0.761
13.6482	0.777
13.688	0.787
13.7278	0.799
13.7675	0.807
13.8073	0.804
13.847	0.8
13.8868	0.8
13.9265	0.805
13.9663	0.819
14.006	0.834
14.0458	0.84
14.0855	0.845
14.1253	0.84
14.1651	0.842
14.2048	0.829
14.2446	0.799
14.2843	0.751
14.3241	0.673
14.3638	0.577
14.4036	0.499
14.4433	0.437
14.4831	0.429
14.5228	0.459
14.5626	0.53
14.6023	0.593
14.6421	0.671
14.6819	0.726
14.7216	0.766
14.7614	0.781
14.8011	0.789
14.8409	0.792
14.8806	0.781
14.9204	0.756
14.9601	0.719
14.9999	0.648
15.0396	0.583
15.0794	0.489
15.1192	0.431
15.1589	0.424
15.1987	0.466
15.2384	0.537
15.2782	0.588
15.3179	0.64
15.3577	0.665
15.3974	0.679
15.4372	0.691
15.4769	0.691
15.5167	0.691
15.5565	0.693
15.5962	0.693
15.636	0.691
15.6757	0.681
15.7155	0.673
15.7552	0.653
15.795	0.648
15.8347	0.611
15.8745	0.577
15.9142	0.562
15.954	0.553
15.9937	0.538
