Infrared Spectrum: 1,1'-BIS(CARBAZIDO) FERROCENE
Formula: C12 H8 Fe N6 O2
State: SOLID (MINERAL OIL MULL)
Class: COBLENTZ
Instrument: Not specified, most likely a prism, grating, or hybrid spectrometer.
Sampling: TRANSMISSION
Resolution: 4
Origin: WYANDOTTE CHEMICALS CORP., WYANDOTTE, MICHIGAN, USA
MICROMETERS	TRANSMITTANCE
2.027	0.716
2.06782	0.729
2.10864	0.736
2.14945	0.735
2.19027	0.747
2.23109	0.741
2.27191	0.748
2.31272	0.753
2.35354	0.772
2.39436	0.777
2.43518	0.779
2.47599	0.769
2.51681	0.772
2.55763	0.776
2.59845	0.806
2.63926	0.791
2.68008	0.818
2.7209	0.822
2.76172	0.817
2.80253	0.815
2.84335	0.811
2.88417	0.805
2.92499	0.8
2.9658	0.8
3.00662	0.777
3.04744	0.786
3.08826	0.781
3.12907	0.784
3.16989	0.779
3.21071	0.76
3.25153	0.711
3.29234	0.772
3.33316	0.707
3.37398	0.379
3.4148	0.188
3.45561	0.247
3.49643	0.391
3.53725	0.459
3.57807	0.805
3.61888	0.859
3.6597	0.87
3.70052	0.864
3.74134	0.859
3.78215	0.868
3.82297	0.882
3.86379	0.89
3.90461	0.897
3.94542	0.899
3.98624	0.899
4.02706	0.9
4.06788	0.9
4.1087	0.9
4.14951	0.907
4.19033	0.907
4.23115	0.899
4.27197	0.856
4.31278	0.852
4.3536	0.858
4.39442	0.895
4.43524	0.907
4.47605	0.897
4.51687	0.863
4.55769	0.859
4.59851	0.856
4.63932	0.822
4.68014	0.577
4.72096	0.411
4.76178	0.396
4.80259	0.774
4.84341	0.822
4.88423	0.849
4.92505	0.875
4.96586	0.892
5.00668	0.902
5.0475	0.904
5.08832	0.905
5.12913	0.917
5.16995	0.928
5.21077	0.935
5.25159	0.936
5.2924	0.95
5.33322	0.941
5.37404	0.938
5.41486	0.95
5.45567	0.945
5.49649	0.943
5.53731	0.928
5.57813	0.916
5.61894	0.9
5.65976	0.899
5.70058	0.9
5.7414	0.909
5.78221	0.885
5.82303	0.83
5.86385	0.767
5.90467	0.449
5.94549	0.109
5.9863	0.295
6.02712	0.623
6.06794	0.719
6.10876	0.811
6.14957	0.827
6.19039	0.837
6.23121	0.839
6.27203	0.863
6.31284	0.87
6.35366	0.878
6.39448	0.882
6.4353	0.878
6.47611	0.87
6.51693	0.868
6.55775	0.864
6.59857	0.858
6.63938	0.852
6.6802	0.791
6.72102	0.82
6.76184	0.729
6.80265	0.512
6.84347	0.316
6.88429	0.225
6.92511	0.5
6.96592	0.736
7.00674	0.822
7.04756	0.82
7.08838	0.813
7.12919	0.661
7.17001	0.772
7.21083	0.726
7.25165	0.466
7.29246	0.437
7.33328	0.705
7.3741	0.776
7.41492	0.769
7.45573	0.776
7.49655	0.817
7.53737	0.818
7.57819	0.81
7.619	0.815
7.65982	0.81
7.70064	0.791
7.74146	0.76
7.78227	0.687
7.82309	0.562
7.86391	0.316
7.90473	0.052
7.94555	0.141
7.98636	0.377
8.02718	0.622
8.068	0.692
8.10882	0.702
8.14963	0.589
8.19045	0.418
8.23127	0.49
8.27209	0.316
8.3129	0.176
8.35372	0.094
8.39454	0.107
8.43536	0.155
8.47617	0.316
8.51699	0.523
8.55781	0.622
8.59863	0.647
8.63944	0.627
8.68026	0.652
8.72108	0.728
8.7619	0.76
8.80271	0.789
8.84353	0.798
8.88435	0.745
8.92517	0.593
8.96598	0.682
9.0068	0.733
9.04762	0.765
9.08844	0.777
9.12925	0.779
9.17007	0.772
9.21089	0.77
9.25171	0.764
9.29252	0.757
9.33334	0.664
9.37416	0.379
9.41498	0.256
9.45579	0.213
9.49661	0.441
9.53743	0.658
9.57825	0.682
9.61906	0.608
9.65988	0.67
9.7007	0.671
9.74152	0.74
9.78233	0.777
9.82315	0.786
9.86397	0.81
9.90479	0.817
9.94561	0.82
9.98642	0.788
10.0272	0.654
10.0681	0.475
10.1089	0.285
10.1497	0.319
10.1905	0.478
10.2313	0.6
10.2721	0.67
10.313	0.731
10.3538	0.772
10.3946	0.798
10.4354	0.813
10.4762	0.82
10.5171	0.823
10.5579	0.83
10.5987	0.839
10.6395	0.851
10.6803	0.856
10.7211	0.858
10.762	0.852
10.8028	0.856
10.8436	0.844
10.8844	0.834
10.9252	0.852
10.966	0.839
11.0069	0.805
11.0477	0.805
11.0885	0.704
11.1293	0.459
11.1701	0.461
11.2109	0.485
11.2518	0.673
11.2926	0.75
11.3334	0.781
11.3742	0.786
11.415	0.736
11.4559	0.617
11.4967	0.745
11.5375	0.798
11.5783	0.822
11.6191	0.827
11.6599	0.784
11.7008	0.67
11.7416	0.712
11.7824	0.769
11.8232	0.731
11.864	0.69
11.9048	0.55
11.9457	0.452
11.9865	0.547
12.0273	0.7
12.0681	0.704
12.1089	0.555
12.1498	0.452
12.1906	0.444
12.2314	0.37
12.2722	0.63
12.313	0.741
12.3538	0.803
12.3947	0.822
12.4355	0.827
12.4763	0.829
12.5171	0.827
12.5579	0.822
12.5987	0.82
12.6396	0.825
12.6804	0.847
12.7212	0.854
12.762	0.863
12.8028	0.863
12.8437	0.859
12.8845	0.866
12.9253	0.863
12.9661	0.866
13.0069	0.861
13.0477	0.866
13.0886	0.859
13.1294	0.861
13.1702	0.849
13.211	0.847
13.2518	0.82
13.2926	0.755
13.3335	0.588
13.3743	0.446
13.4151	0.512
13.4559	0.644
13.4967	0.757
13.5375	0.811
13.5784	0.829
13.6192	0.852
13.66	0.858
13.7008	0.854
13.7416	0.854
13.7825	0.856
13.8233	0.868
13.8641	0.868
13.9049	0.864
13.9457	0.871
13.9865	0.876
14.0274	0.88
14.0682	0.883
14.109	0.885
14.1498	0.89
14.1906	0.888
14.2314	0.885
14.2723	0.88
14.3131	0.88
14.3539	0.878
14.3947	0.875
14.4355	0.871
14.4764	0.87
14.5172	0.864
14.558	0.856
14.5988	0.868
14.6396	0.861
14.6804	0.856
14.7213	0.866
14.7621	0.847
14.8029	0.847
14.8437	0.844
14.8845	0.841
14.9253	0.837
14.9662	0.83
15.007	0.793
15.0478	0.76
15.0886	0.745
15.1294	0.777
15.1703	0.798
15.2111	0.793
15.2519	0.798
15.2927	0.788
15.3335	0.784
15.3743	0.779
15.4152	0.774
15.456	0.762
15.4968	0.755
15.5376	0.748
15.5784	0.745
15.6192	0.743
15.6601	0.735
15.7009	0.726
15.7417	0.723
15.7825	0.712
15.8233	0.697
15.8642	0.69
15.905	0.699
15.9458	0.687
