Infrared Spectrum: Copper, bis(2,4-hexanedionato)-
Formula: C12 H18 Cu O4
State: SOLID (SPLIT MULL), FLUOROLUBE FOR 3800-1330 CM^-^1, NUJOL FOR 1330-450 CM^-^1
Class: COBLENTZ III
Instrument: DOW KBr FOREPRISM-GRATING
Instrument parameters: BLAZED AT 3.5, 12.0, 20.0 MICRON AND CHANGED AT 5.0, 7.5, 14.9 MICRON
Sampling: TRANSMISSION
Resolution: 2
Origin: DOW CHEMICAL COMPANY
1/CM	TRANSMITTANCE
3790	0.745
3781	0.7418
3772	0.7408
3763	0.7408
3754	0.7418
3745	0.7451
3736	0.7482
3727	0.7485
3718	0.7462
3709	0.7461
3700	0.748
3691	0.7462
3682	0.7464
3673	0.7501
3664	0.7524
3655	0.7518
3646	0.7495
3637	0.7495
3628	0.7499
3619	0.7503
3610	0.7514
3601	0.7525
3592	0.754
3583	0.7543
3574	0.7444
3565	0.7498
3556	0.7522
3547	0.7525
3538	0.7518
3529	0.7511
3520	0.751
3511	0.7508
3502	0.7508
3493	0.751
3484	0.7511
3475	0.7514
3466	0.7517
3457	0.7521
3448	0.7525
3439	0.753
3430	0.7537
3421	0.7543
3412	0.7549
3403	0.7556
3394	0.7561
3385	0.7571
3376	0.7581
3367	0.7591
3358	0.76
3349	0.761
3340	0.7619
3331	0.7625
3322	0.7633
3313	0.7638
3304	0.7645
3295	0.7651
3286	0.7658
3277	0.7664
3268	0.7671
3259	0.7678
3250	0.7685
3241	0.7689
3232	0.7695
3223	0.77
3214	0.7707
3205	0.7712
3196	0.7717
3187	0.7701
3178	0.7675
3169	0.7654
3160	0.7655
3151	0.7665
3142	0.7684
3133	0.7701
3124	0.7717
3115	0.7731
3106	0.7744
3097	0.775
3088	0.7742
3079	0.7717
3070	0.773
3061	0.7761
3052	0.7778
3043	0.7785
3034	0.7786
3025	0.7776
3016	0.7742
3007	0.7674
2998	0.7554
2989	0.6972
2980	0.686
2971	0.6788
2962	0.6934
2953	0.7203
2944	0.7128
2935	0.6765
2926	0.6989
2917	0.7089
2908	0.7182
2899	0.7285
2890	0.7354
2881	0.7364
2872	0.739
2863	0.7561
2854	0.7653
2845	0.7721
2836	0.7778
2827	0.7828
2818	0.7865
2809	0.7901
2800	0.7935
2791	0.7955
2782	0.7974
2773	0.7987
2764	0.8
2755	0.8012
2746	0.8025
2737	0.8037
2728	0.805
2719	0.8065
2710	0.8082
2701	0.8099
2692	0.8115
2683	0.813
2674	0.8143
2665	0.8155
2656	0.8167
2647	0.818
2638	0.8195
2629	0.8204
2620	0.8215
2611	0.8228
2602	0.824
2593	0.825
2584	0.826
2575	0.8265
2566	0.827
2557	0.8273
2548	0.8277
2539	0.8281
2530	0.8285
2521	0.8289
2512	0.8293
2503	0.8297
2494	0.8302
2485	0.8307
2476	0.8309
2467	0.8308
2458	0.8307
2449	0.8306
2440	0.8306
2431	0.831
2422	0.8315
2413	0.8318
2404	0.832
2395	0.832
2386	0.832
2377	0.8321
2368	0.8323
2359	0.8324
2350	0.8325
2341	0.8325
2332	0.8321
2323	0.831
2314	0.8271
2305	0.8273
2296	0.8309
2287	0.8334
2278	0.8348
2269	0.8363
2260	0.838
2251	0.8396
2242	0.842
2233	0.8444
2224	0.8471
2215	0.8499
2206	0.8528
2197	0.8558
2188	0.8588
2179	0.8617
2170	0.8638
2161	0.865
2152	0.8655
2143	0.8658
2134	0.8658
2125	0.866
2116	0.8667
2107	0.8675
2098	0.8689
2089	0.8702
2080	0.8715
2071	0.8717
2062	0.8699
2053	0.8725
2044	0.8736
2035	0.8733
2026	0.8732
2017	0.8737
2008	0.8738
1999	0.8683
1990	0.8553
1981	0.8575
1972	0.8584
1963	0.8671
1954	0.8614
1945	0.8624
1936	0.8635
1927	0.8628
1918	0.8623
1909	0.8618
1900	0.8618
1891	0.8618
1882	0.8621
1873	0.8625
1864	0.8634
1855	0.8665
1846	0.8646
1837	0.8653
1828	0.8666
1819	0.8685
1810	0.8697
1801	0.8701
1792	0.8706
1783	0.8712
1774	0.8717
1765	0.8718
1756	0.8718
1747	0.872
1738	0.8721
1729	0.8728
1720	0.8738
1711	0.8745
1702	0.8752
1693	0.8749
1684	0.8743
1675	0.873
1666	0.871
1657	0.868
1648	0.864
1639	0.8597
1630	0.851
1621	0.8347
1612	0.8031
1603	0.7428
1594	0.6154
1585	0.2795
1576	0.1262
1567	0.2595
1558	0.4244
1549	0.3884
1540	0.3554
1531	0.2463
1522	0.2179
1513	0.4266
1504	0.5915
1495	0.6649
1486	0.7051
1477	0.7018
1468	0.6247
1459	0.5336
1450	0.56
1441	0.596
1432	0.5834
1423	0.5309
1414	0.505
1405	0.602
1396	0.6547
1387	0.6692
1378	0.6658
1369	0.6525
1360	0.5805
1351	0.6508
1342	0.6438
1333	0.6785
1324	0.73
1315	0.7453
1306	0.7544
1297	0.7651
1288	0.7631
1279	0.7556
1270	0.7456
1261	0.7224
1252	0.6918
1243	0.7065
1234	0.7797
1225	0.8042
1216	0.8108
1207	0.814
1198	0.7828
1189	0.7169
1180	0.6481
1171	0.7426
1162	0.7961
1153	0.7965
1144	0.7946
1135	0.8071
1126	0.8095
1117	0.8119
1108	0.8118
1099	0.8098
1090	0.7955
1081	0.746
1072	0.6486
1063	0.7618
1054	0.7841
1045	0.7811
1036	0.7367
1027	0.6441
1018	0.7276
1009	0.7894
1000	0.7764
991	0.7606
982	0.7849
973	0.7958
964	0.7974
955	0.7111
946	0.7832
937	0.799
928	0.8061
919	0.808
910	0.8103
901	0.7988
892	0.7142
883	0.7753
874	0.8035
865	0.8154
856	0.8144
847	0.8153
838	0.8175
829	0.8216
820	0.8171
811	0.7788
802	0.6911
793	0.7661
784	0.5683
775	0.6662
766	0.7896
757	0.8062
748	0.8051
739	0.7919
730	0.7765
721	0.7475
712	0.7841
703	0.8084
694	0.8198
685	0.8203
676	0.8118
667	0.7769
658	0.7698
649	0.7674
640	0.754
631	0.7521
622	0.7394
613	0.7543
604	0.7631
595	0.7658
586	0.765
577	0.7633
568	0.7608
559	0.7582
550	0.7554
541	0.7525
532	0.7492
523	0.7458
514	0.7419
505	0.7364
496	0.7341
487	0.7305
478	0.7174
469	0.6875
460	0.6521
