Infrared Spectrum: Oxadiazole, 1,2,4-, 5-(Alpha-bromopropyl)-3-(5-nitrofuran-2-yl)-
Formula: C9 H8 Br N3 O4
State: SOLUTION (2% CHCl3) VS SOLVENT
Boiling point: 164 C AT 0.6 mmHg
Class: COBLENTZ III
Instrument: PERKIN-ELMER 421 (GRATING)
Instrument parameters: GRATINGS: 1999 CM^-^1
Sampling: TRANSMISSION
Path length: 0.03 CM
Resolution: 2
Origin: ABBOTT LABORATORIES - WASHBURN
1/CM	TRANSMITTANCE
654	0.5536
663	0.5559
672	0.5591
681	0.5606
690	0.5588
699	0.5564
708	0.5536
717	0.5528
726	0.5529
735	0.5523
744	0.551
753	0.5488
762	0.5465
771	0.5449
780	0.5434
789	0.5439
798	0.5449
807	0.6142
816	0.7084
825	0.7908
834	0.821
843	0.8324
852	0.8391
861	0.8385
870	0.8181
879	0.769
888	0.6006
897	0.5003
906	0.6691
915	0.7033
924	0.779
933	0.8333
942	0.8319
951	0.7899
960	0.5776
969	0.8561
978	0.7573
987	0.8479
996	0.762
1005	0.3342
1014	0.7277
1023	0.842
1032	0.8777
1041	0.8915
1050	0.8876
1059	0.8604
1068	0.8701
1077	0.8754
1086	0.8606
1095	0.8768
1104	0.8882
1113	0.887
1122	0.8514
1131	0.8152
1140	0.7966
1149	0.7336
1158	0.7265
1167	0.697
1176	0.6341
1185	0.6306
1194	0.6299
1203	0.6301
1212	0.6335
1221	0.6319
1230	0.6347
1239	0.7093
1248	0.7485
1257	0.743
1266	0.7123
1275	0.6444
1284	0.6124
1293	0.5084
1302	0.2932
1311	0.2185
1320	0.1372
1329	0.2768
1338	0.1405
1347	0.104
1356	0.493
1365	0.3627
1374	0.5113
1383	0.7101
1392	0.6738
1401	0.5067
1410	0.6979
1419	0.6877
1428	0.7105
1437	0.7281
1446	0.6564
1455	0.6833
1464	0.7554
1473	0.772
1482	0.7433
1491	0.5875
1500	0.3631
1509	0.3032
1518	0.376
1527	0.4854
1536	0.4468
1545	0.2604
1554	0.3453
1563	0.3269
1572	0.524
1581	0.763
1590	0.808
1599	0.798
1608	0.7275
1617	0.7859
1626	0.8547
1635	0.8708
1644	0.8677
1653	0.8667
1662	0.8892
1671	0.8846
1680	0.8809
1689	0.8829
1698	0.8884
1707	0.8887
1716	0.8871
1725	0.8831
1734	0.8793
1743	0.8746
1752	0.8683
1761	0.8549
1770	0.8588
1779	0.8721
1788	0.8777
1797	0.882
1806	0.883
1815	0.8839
1824	0.8846
1833	0.8852
1842	0.8858
1851	0.8862
1860	0.8866
1869	0.887
1878	0.8871
1887	0.8869
1896	0.8867
1905	0.8865
1914	0.8864
1923	0.8862
1932	0.8861
1941	0.8865
1950	0.8869
1959	0.888
1968	0.8904
1977	0.8937
1986	0.8882
1995	0.8709
2004	0.8873
2013	0.8878
2022	0.8885
2031	0.8894
2040	0.892
2049	0.8979
2058	0.9017
2067	0.9017
2076	0.9028
2085	0.903
2094	0.9029
2103	0.9029
2112	0.9029
2121	0.9029
2130	0.9042
2139	0.9055
2148	0.9021
2157	0.9009
2166	0.9042
2175	0.906
2184	0.9052
2193	0.9026
2202	0.9012
2211	0.9024
2220	0.9028
2229	0.9016
2238	0.9013
2247	0.9018
2256	0.9024
2265	0.9026
2274	0.9029
2283	0.9021
2292	0.8999
2301	0.8939
2310	0.8872
2319	0.8878
2328	0.8893
2337	0.8905
2346	0.89
2355	0.8886
2364	0.8852
2373	0.8748
2382	0.8561
2391	0.8508
2400	0.8552
2409	0.8598
2418	0.862
2427	0.8642
2436	0.8713
2445	0.877
2454	0.8815
2463	0.885
2472	0.8863
2481	0.8773
2490	0.8924
2499	0.8986
2508	0.9007
2517	0.9019
2526	0.9024
2535	0.9029
2544	0.9028
2553	0.9022
2562	0.8979
2571	0.8976
2580	0.9029
2589	0.9053
2598	0.9056
2607	0.9049
2616	0.9037
2625	0.9023
2634	0.9009
2643	0.8995
2652	0.8974
2661	0.8956
2670	0.8947
2679	0.8939
2688	0.8934
2697	0.893
2706	0.8927
2715	0.8934
2724	0.8921
2733	0.8873
2742	0.8839
2751	0.8839
2760	0.8845
2769	0.8852
2778	0.8834
2787	0.8765
2796	0.8739
2805	0.8799
2814	0.8772
2823	0.8651
2832	0.8526
2841	0.8404
2850	0.8238
2859	0.8041
2868	0.7842
2877	0.7956
2886	0.8179
2895	0.7979
2904	0.7776
2913	0.7582
2922	0.7394
2931	0.7249
2940	0.7194
2949	0.6964
2958	0.6719
2967	0.6275
2976	0.6649
2985	0.7409
2994	0.7487
3003	0.7611
3012	0.7643
3021	0.7647
3030	0.765
3039	0.774
3048	0.7926
3057	0.798
3066	0.8027
3075	0.8093
3084	0.81
3093	0.8099
3102	0.8045
3111	0.7931
3120	0.7748
3129	0.7319
3138	0.704
3147	0.7363
3156	0.8199
3165	0.8498
3174	0.8705
3183	0.8812
3192	0.8893
3201	0.8971
3210	0.9033
3219	0.9072
3228	0.9106
3237	0.9134
3246	0.915
3255	0.9159
3264	0.9137
3273	0.9119
3282	0.9118
3291	0.9109
3300	0.9101
3309	0.9094
3318	0.9086
3327	0.9078
3336	0.9069
3345	0.9058
3354	0.9047
3363	0.9039
3372	0.903
3381	0.9023
3390	0.9015
3399	0.9002
3408	0.8988
3417	0.8974
3426	0.8959
3435	0.8941
3444	0.8923
3453	0.8901
3462	0.8878
3471	0.8852
3480	0.884
3489	0.884
3498	0.8851
3507	0.8786
3516	0.8766
3525	0.8749
3534	0.8731
3543	0.8716
3552	0.8691
3561	0.8652
3570	0.8617
3579	0.8607
3588	0.8603
3597	0.8601
3606	0.86
3615	0.8599
3624	0.8594
3633	0.8585
3642	0.8572
3651	0.8544
3660	0.8473
3669	0.8379
3678	0.8405
3687	0.8458
3696	0.8489
3705	0.8522
3714	0.8535
3723	0.8539
3732	0.853
3741	0.8521
3750	0.851
3759	0.8499
3768	0.8494
3777	0.8491
3786	0.8498
3795	0.8499
3804	0.8495
3813	0.8489
3822	0.8487
3831	0.8486
3840	0.8495
3849	0.8508
3858	0.8533
3867	0.8556
3876	0.8575
3885	0.8567
3894	0.856
3903	0.8563
3912	0.8561
3921	0.8547
3930	0.8531
3939	0.8508
3948	0.8488
3957	0.8481
3966	0.8477
3975	0.847
3984	0.8459
3993	0.8453
