Infrared Spectrum: Pyrazine, 2-methyl-3-piperidino-, sulfate
Formula: C10 H17 N3 O4 S
State: SOLID (SPLIT MULL), FLUOROLUBE FOR 3800-1330 CM^-^1, NUJOL FOR 1330-400 CM^-^1
Class: COBLENTZ III
Instrument: DOW KBr FOREPRISM-GRATING
Instrument parameters: BLAZED AT 3.5, 12.0, 20.0 MICRON AND CHANGED AT 5.0, 7.5, 14.9 MICRON
Sampling: TRANSMISSION
Resolution: 2
Origin: DOW CHEMICAL COMPANY
1/CM	TRANSMITTANCE
3800	0.5641
3791	0.5687
3782	0.5739
3773	0.578
3764	0.5812
3755	0.5821
3746	0.5781
3737	0.5766
3728	0.5801
3719	0.5839
3710	0.5866
3701	0.5893
3692	0.5919
3683	0.5941
3674	0.596
3665	0.5981
3656	0.6001
3647	0.6021
3638	0.6042
3629	0.606
3620	0.6082
3611	0.61
3602	0.6117
3593	0.6135
3584	0.6152
3575	0.617
3566	0.6188
3557	0.6206
3548	0.6224
3539	0.6243
3530	0.6262
3521	0.6274
3512	0.6283
3503	0.6293
3494	0.6303
3485	0.6312
3476	0.6322
3467	0.6332
3458	0.6342
3449	0.6352
3440	0.6362
3431	0.6376
3422	0.6388
3413	0.6399
3404	0.6408
3395	0.6418
3386	0.6426
3377	0.6438
3368	0.645
3359	0.6457
3350	0.6464
3341	0.6469
3332	0.6475
3323	0.6478
3314	0.6465
3305	0.6438
3296	0.6388
3287	0.6344
3278	0.631
3269	0.6287
3260	0.6283
3251	0.6285
3242	0.6262
3233	0.6214
3224	0.6109
3215	0.6025
3206	0.5958
3197	0.5897
3188	0.5843
3179	0.575
3170	0.5587
3161	0.5349
3152	0.4967
3143	0.4804
3134	0.4388
3125	0.3866
3116	0.3908
3107	0.4135
3098	0.4245
3089	0.4233
3080	0.4172
3071	0.4102
3062	0.4034
3053	0.3968
3044	0.3909
3035	0.3852
3026	0.3794
3017	0.3724
3008	0.3489
2999	0.339
2990	0.3425
2981	0.3432
2972	0.3394
2963	0.3237
2954	0.2612
2945	0.206
2936	0.2204
2927	0.2069
2918	0.1794
2909	0.2349
2900	0.2658
2891	0.2767
2882	0.2819
2873	0.2865
2864	0.2634
2855	0.229
2846	0.2831
2837	0.3039
2828	0.3128
2819	0.32
2810	0.3253
2801	0.3303
2792	0.3346
2783	0.3386
2774	0.342
2765	0.3454
2756	0.3494
2747	0.3534
2738	0.3564
2729	0.356
2720	0.3554
2711	0.3554
2702	0.3564
2693	0.3589
2684	0.3609
2675	0.3625
2666	0.3625
2657	0.3578
2648	0.3534
2639	0.3504
2630	0.3478
2621	0.3449
2612	0.3416
2603	0.3384
2594	0.3355
2585	0.3345
2576	0.3341
2567	0.3345
2558	0.335
2549	0.3354
2540	0.3355
2531	0.3356
2522	0.3366
2513	0.3397
2504	0.345
2495	0.3512
2486	0.3582
2477	0.3677
2468	0.3802
2459	0.3949
2450	0.4084
2441	0.4219
2432	0.4354
2423	0.449
2414	0.4625
2405	0.4766
2396	0.4915
2387	0.506
2378	0.5196
2369	0.5317
2360	0.5436
2351	0.5554
2342	0.5677
2333	0.5808
2324	0.5928
2315	0.6042
2306	0.6141
2297	0.6238
2288	0.6324
2279	0.6364
2270	0.6407
2261	0.6451
2252	0.6499
2243	0.6555
2234	0.661
2225	0.6664
2216	0.6711
2207	0.6746
2198	0.6771
2189	0.6778
2180	0.6761
2171	0.6701
2162	0.6617
2153	0.653
2144	0.6437
2135	0.6417
2126	0.6455
2117	0.6654
2108	0.6825
2099	0.6926
2090	0.6862
2081	0.6771
2072	0.6758
2063	0.6869
2054	0.7048
2045	0.7291
2036	0.7592
2027	0.7846
2018	0.7898
2009	0.7949
2000	0.8065
1991	0.8168
1982	0.8061
1973	0.8042
1964	0.8093
1955	0.8283
1946	0.8244
1937	0.8234
1928	0.8221
1919	0.8199
1910	0.8211
1901	0.8278
1892	0.8341
1883	0.8404
1874	0.8468
1865	0.8531
1856	0.8594
1847	0.866
1838	0.8731
1829	0.8765
1820	0.8775
1811	0.8781
1802	0.8778
1793	0.8774
1784	0.8782
1775	0.8792
1766	0.8814
1757	0.8846
1748	0.883
1739	0.8824
1730	0.8811
1721	0.8842
1712	0.8803
1703	0.8825
1694	0.8786
1685	0.8871
1676	0.8841
1667	0.8878
1658	0.8845
1649	0.8552
1640	0.816
1631	0.8105
1622	0.8431
1613	0.8646
1604	0.8728
1595	0.8331
1586	0.6183
1577	0.3753
1568	0.6264
1559	0.7439
1550	0.7949
1541	0.7355
1532	0.571
1523	0.2622
1514	0.0439
1505	0.0653
1496	0.3376
1487	0.5635
1478	0.6438
1469	0.6415
1460	0.5349
1451	0.4258
1442	0.3196
1433	0.2848
1424	0.4468
1415	0.6491
1406	0.7047
1397	0.743
1388	0.7054
1379	0.477
1370	0.6157
1361	0.5579
1352	0.6214
1343	0.5344
1334	0.4073
1325	0.4844
1316	0.4638
1307	0.4202
1298	0.3814
1289	0.3791
1280	0.3672
1271	0.3486
1262	0.2715
1253	0.2501
1244	0.2292
1235	0.1456
1226	0.085
1217	0.0975
1208	0.2115
1199	0.167
1190	0.1794
1181	0.1166
1172	0.0858
1163	0.0842
1154	0.1335
1145	0.2558
1136	0.3864
1127	0.4582
1118	0.5165
1109	0.4773
1100	0.532
1091	0.5319
1082	0.4754
1073	0.4756
1064	0.446
1055	0.4397
1046	0.2418
1037	0.1087
1028	0.2409
1019	0.4291
1010	0.4143
1001	0.3996
992	0.4294
983	0.6276
974	0.6875
965	0.7345
956	0.7425
947	0.6886
938	0.2029
929	0.6148
920	0.7189
911	0.7578
902	0.7657
893	0.7192
884	0.6497
875	0.4818
866	0.1773
857	0.2324
848	0.2385
839	0.5216
830	0.5772
821	0.4848
812	0.619
803	0.7012
794	0.7622
785	0.7741
776	0.7755
767	0.7751
758	0.7718
749	0.7286
740	0.7585
731	0.7558
722	0.7254
713	0.7532
704	0.7803
695	0.7908
686	0.7984
677	0.6295
668	0.6939
659	0.7845
650	0.7917
641	0.801
632	0.8036
623	0.796
614	0.7422
605	0.6055
596	0.5392
587	0.563
578	0.4951
569	0.309
560	0.6915
551	0.7815
542	0.8104
533	0.7993
524	0.7971
515	0.8199
506	0.8274
497	0.8643
488	0.8788
479	0.882
470	0.8788
461	0.8405
452	0.8156
443	0.7107
434	0.6741
425	0.8361
416	0.887
407	0.9106
398	0.9245
389	0.9306
