Infrared Spectrum: ESTRADIOL-17B MONOBENZOATE
Formula: C27 H32 O3
State: SOLUTION (2.2% IN CS2)
Melting point: 195-197 C (CORR.)
Class: COBLENTZ
Instrument: Not specified, most likely a prism, grating, or hybrid spectrometer.
Sampling: TRANSMISSION
Path length: 0.1 CM
Resolution: 4
Origin: DEPARTMENT OF PHARMACOLOGY, THE STATE UNIVERSITY OF IOWA, IOWA
MICROMETERS	TRANSMITTANCE
2.038	0.634
2.07516	0.635
2.11232	0.635
2.14947	0.635
2.18663	0.635
2.22379	0.635
2.26095	0.632
2.29811	0.631
2.33527	0.631
2.37242	0.631
2.40958	0.631
2.44674	0.629
2.4839	0.629
2.52106	0.632
2.55821	0.632
2.59537	0.634
2.63253	0.634
2.66969	0.632
2.70685	0.628
2.74401	0.486
2.78116	0.52
2.81832	0.572
2.85548	0.597
2.89264	0.6
2.9298	0.604
2.96696	0.613
3.00411	0.62
3.04127	0.619
3.07843	0.619
3.11559	0.62
3.15275	0.62
3.1899	0.62
3.22706	0.61
3.26422	0.557
3.30138	0.55
3.33854	0.405
3.3757	0.3
3.41285	0.221
3.45001	0.224
3.48717	0.234
3.52433	0.368
3.56149	0.464
3.59864	0.525
3.6358	0.584
3.67296	0.601
3.71012	0.609
3.74728	0.615
3.78444	0.62
3.82159	0.625
3.85875	0.628
3.89591	0.631
3.93307	0.634
3.97023	0.635
4.00738	0.635
4.04454	0.635
4.0817	0.637
4.11886	0.638
4.15602	0.638
4.19318	0.64
4.23033	0.638
4.26749	0.637
4.30465	0.634
4.34181	0.626
4.37897	0.606
4.41613	0.591
4.45328	0.6
4.49044	0.609
4.5276	0.598
4.56476	0.572
4.60192	0.544
4.63907	0.523
4.67623	0.492
4.71339	0.473
4.75055	0.471
4.78771	0.548
4.82487	0.601
4.86202	0.625
4.89918	0.641
4.93634	0.648
4.9735	0.65
5.01066	0.648
5.04781	0.648
5.08497	0.641
5.12213	0.638
5.15929	0.643
5.19645	0.643
5.23361	0.638
5.27076	0.638
5.30792	0.638
5.34508	0.64
5.38224	0.643
5.4194	0.643
5.45655	0.64
5.49371	0.626
5.53087	0.622
5.56803	0.62
5.60519	0.607
5.64235	0.575
5.6795	0.517
5.71666	0.312
5.75382	0.199
5.79098	0.25
5.82814	0.414
5.8653	0.497
5.90245	0.522
5.93961	0.548
5.97677	0.569
6.01393	0.576
6.05109	0.578
6.08824	0.573
6.1254	0.566
6.16256	0.541
6.19972	0.51
6.23688	0.485
6.27404	0.451
6.31119	0.432
6.34835	0.418
6.38551	0.407
6.42267	0.399
6.45983	0.395
6.49698	0.39
6.53414	0.39
6.5713	0.39
6.60846	0.39
6.64562	0.389
6.68278	0.386
6.71993	0.384
6.75709	0.382
6.79425	0.379
6.83141	0.376
6.86857	0.371
6.90573	0.367
6.94288	0.359
6.98004	0.355
7.0172	0.348
7.05436	0.345
7.09152	0.342
7.12867	0.342
7.16583	0.343
7.20299	0.353
7.24015	0.373
7.27731	0.377
7.31447	0.399
7.35162	0.479
7.38878	0.491
7.42594	0.495
7.4631	0.491
7.50026	0.483
7.53741	0.479
7.57457	0.474
7.61173	0.429
7.64889	0.399
7.68605	0.387
7.72321	0.387
7.76036	0.386
7.79752	0.37
7.83468	0.321
7.87184	0.222
7.909	0.182
7.94615	0.146
7.98331	0.128
8.02047	0.12
8.05763	0.117
8.09479	0.123
8.13195	0.163
8.1691	0.172
8.20626	0.154
8.24342	0.137
8.28058	0.132
8.31774	0.151
8.3549	0.266
8.39205	0.345
8.42921	0.368
8.46637	0.364
8.50353	0.303
8.54069	0.231
8.57784	0.228
8.615	0.296
8.65216	0.305
8.68932	0.252
8.72648	0.212
8.76364	0.224
8.80079	0.287
8.83795	0.345
8.87511	0.384
8.91227	0.404
8.94943	0.404
8.98658	0.392
9.02374	0.387
9.0609	0.382
9.09806	0.356
9.13522	0.331
9.17238	0.353
9.20953	0.38
9.24669	0.327
9.28385	0.235
9.32101	0.197
9.35817	0.206
9.39532	0.224
9.43248	0.179
9.46964	0.176
9.5068	0.184
9.54396	0.355
9.58112	0.382
9.61827	0.386
9.65543	0.386
9.69259	0.382
9.72975	0.367
9.76691	0.275
9.80407	0.296
9.84122	0.361
9.87838	0.38
9.91554	0.395
9.9527	0.429
9.98986	0.445
10.027	0.457
10.0642	0.466
10.1013	0.467
10.1385	0.469
10.1756	0.47
10.2128	0.471
10.25	0.476
10.2871	0.476
10.3243	0.449
10.3614	0.451
10.3986	0.504
10.4358	0.532
10.4729	0.55
10.5101	0.558
10.5472	0.556
10.5844	0.53
10.6215	0.505
10.6587	0.5
10.6959	0.497
10.733	0.495
10.7702	0.497
10.8073	0.505
10.8445	0.51
10.8817	0.513
10.9188	0.51
10.956	0.463
10.9931	0.451
11.0303	0.46
11.0674	0.474
11.1046	0.476
11.1418	0.438
11.1789	0.364
11.2161	0.346
11.2532	0.356
11.2904	0.383
11.3276	0.408
11.3647	0.417
11.4019	0.418
11.439	0.42
11.4762	0.423
11.5133	0.424
11.5505	0.424
11.5877	0.423
11.6248	0.424
11.662	0.424
11.6991	0.424
11.7363	0.426
11.7735	0.424
11.8106	0.427
11.8478	0.438
11.8849	0.461
11.9221	0.476
11.9592	0.502
11.9964	0.53
12.0336	0.545
12.0707	0.548
12.1079	0.55
12.145	0.545
12.1822	0.507
12.2193	0.488
12.2565	0.498
12.2937	0.522
12.3308	0.548
12.368	0.557
12.4051	0.564
12.4423	0.566
12.4795	0.564
12.5166	0.558
12.5538	0.551
12.5909	0.545
12.6281	0.536
12.6652	0.526
12.7024	0.511
12.7396	0.5
12.7767	0.492
12.8139	0.494
12.851	0.5
12.8882	0.53
12.9254	0.557
12.9625	0.572
12.9997	0.585
13.0368	0.591
13.074	0.597
13.1111	0.6
13.1483	0.606
13.1855	0.612
13.2226	0.617
13.2598	0.622
13.2969	0.623
13.3341	0.626
13.3713	0.623
13.4084	0.622
13.4456	0.617
13.4827	0.613
13.5199	0.61
13.557	0.607
13.5942	0.612
13.6314	0.619
13.6685	0.622
13.7057	0.625
13.7428	0.626
13.78	0.628
13.8172	0.626
13.8543	0.622
13.8915	0.617
13.9286	0.606
13.9658	0.582
14.0029	0.533
14.0401	0.473
14.0773	0.328
14.1144	0.277
14.1516	0.221
14.1887	0.2
14.2259	0.178
14.263	0.174
14.3002	0.203
14.3374	0.289
14.3745	0.396
14.4117	0.401
14.4488	0.452
14.486	0.494
14.5232	0.498
14.5603	0.494
14.5975	0.485
14.6346	0.48
14.6718	0.483
14.7089	0.492
14.7461	0.51
14.7833	0.528
14.8204	0.551
14.8576	0.57
14.8947	0.581
14.9319	0.584
14.9691	0.595
15.0062	0.61
15.0434	0.617
15.0805	0.62
15.1177	0.622
15.1548	0.623
15.192	0.628
