Infrared Spectrum: Phthalimide, N-[4-[(3-bromopropyl)-amino]butyl]-, hydrobromide
Formula: C15 H20 Br2 N2 O2
State: SOLID (1 mg / 650 mg KBr DISC)
Class: COBLENTZ III
Instrument: PERKIN-ELMER 521 (GRATING)
Instrument parameters: FILTERS AT 3150, 2500, 2000, 1150, 700, 410. GRATING CHANGES: 2000, 630
Sampling: TRANSMISSION
Resolution: 2
Origin: SOUTHERN RESEARCH INSTITUTE
1/CM	TRANSMITTANCE
256.6	0.24
266.645	0.2976
276.69	0.3761
286.735	0.4487
296.78	0.5308
306.825	0.5917
316.87	0.6292
326.914	0.656
336.959	0.6732
347.004	0.6126
357.049	0.7631
367.094	0.792
377.139	0.8039
387.184	0.8305
397.229	0.8333
407.274	0.8357
417.319	0.8489
427.364	0.8472
437.409	0.8437
447.453	0.8594
457.498	0.8691
467.543	0.8701
477.588	0.8698
487.633	0.8665
497.678	0.8563
507.723	0.8521
517.768	0.8367
527.813	0.6469
537.858	0.8401
547.903	0.7826
557.948	0.7753
567.993	0.8166
578.037	0.8767
588.082	0.8766
598.127	0.8683
608.172	0.8522
618.217	0.8206
628.262	0.8493
638.307	0.8772
648.352	0.8722
658.397	0.8764
668.442	0.8801
678.487	0.8728
688.532	0.8626
698.576	0.8398
708.621	0.7113
718.666	0.397
728.711	0.8174
738.756	0.9015
748.801	0.8717
758.846	0.8884
768.891	0.8196
778.936	0.8384
788.981	0.8968
799.026	0.7497
809.071	0.9143
819.116	0.9076
829.16	0.9038
839.205	0.9071
849.25	0.8775
859.295	0.7737
869.34	0.8825
879.385	0.8838
889.43	0.883
899.475	0.8857
909.52	0.8756
919.565	0.8227
929.61	0.7224
939.655	0.8105
949.699	0.8538
959.744	0.8176
969.789	0.8013
979.834	0.8408
989.879	0.8225
999.924	0.8019
1009.97	0.7436
1020.01	0.7555
1030.06	0.7217
1040.1	0.6306
1050.15	0.3663
1060.19	0.7259
1070.24	0.7257
1080.28	0.7921
1090.33	0.8233
1100.37	0.8232
1110.42	0.8171
1120.46	0.7464
1130.51	0.8203
1140.55	0.8242
1150.6	0.7838
1160.64	0.7622
1170.69	0.6805
1180.73	0.7016
1190.78	0.8323
1200.82	0.8483
1210.87	0.85
1220.91	0.8423
1230.96	0.8017
1241	0.8014
1251.05	0.7654
1261.09	0.8143
1271.14	0.798
1281.18	0.7786
1291.23	0.7269
1301.27	0.7333
1311.32	0.6989
1321.36	0.7036
1331.41	0.6119
1341.45	0.7305
1351.5	0.7135
1361.54	0.6153
1371.59	0.4075
1381.63	0.633
1391.68	0.388
1401.72	0.325
1411.77	0.5217
1421.81	0.7499
1431.86	0.5024
1441.9	0.6317
1451.95	0.6243
1461.99	0.495
1472.04	0.8253
1482.08	0.8954
1492.13	0.8946
1502.17	0.8916
1512.21	0.8877
1522.26	0.8799
1532.3	0.8627
1542.35	0.8588
1552.39	0.8562
1562.44	0.8486
1572.48	0.8174
1582.53	0.7406
1592.57	0.7991
1602.62	0.7561
1612.66	0.7684
1622.71	0.7822
1632.75	0.7782
1642.8	0.7551
1652.84	0.7238
1662.89	0.6755
1672.93	0.5861
1682.98	0.5268
1693.02	0.3088
1703.07	0.0754
1713.11	0.1523
1723.16	0.5404
1733.2	0.7073
1743.25	0.7999
1753.29	0.7969
1763.34	0.4942
1773.38	0.6739
1783.43	0.8867
1793.47	0.8995
1803.52	0.9133
1813.56	0.9271
1823.61	0.9301
1833.65	0.9236
1843.7	0.9181
1853.74	0.9288
1863.79	0.9405
1873.83	0.9432
1883.88	0.9416
1893.92	0.9374
1903.97	0.9328
1914.01	0.9306
1924.06	0.9311
1934.1	0.9335
1944.15	0.9328
1954.19	0.9285
1964.24	0.9249
1974.28	0.9277
1984.33	0.9316
1994.37	0.9294
2004.42	0.9226
2014.46	0.9212
2024.51	0.9256
2034.55	0.9267
2044.6	0.927
2054.64	0.9259
2064.69	0.9239
2074.73	0.922
2084.78	0.9206
2094.82	0.9193
2104.87	0.918
2114.91	0.9167
2124.96	0.9149
2135	0.9127
2145.04	0.9112
2155.09	0.9101
2165.13	0.909
2175.18	0.9078
2185.22	0.9066
2195.27	0.9055
2205.31	0.9042
2215.36	0.9029
2225.4	0.9016
2235.45	0.8999
2245.49	0.898
2255.54	0.896
2265.58	0.8938
2275.63	0.8911
2285.67	0.8885
2295.72	0.8843
2305.76	0.8787
2315.81	0.8707
2325.85	0.8608
2335.9	0.8508
2345.94	0.8464
2355.99	0.8476
2366.03	0.8512
2376.08	0.8506
2386.12	0.8437
2396.17	0.8264
2406.21	0.7886
2416.26	0.7531
2426.3	0.7715
2436.35	0.7457
2446.39	0.7411
2456.44	0.8316
2466.48	0.8427
2476.53	0.8385
2486.57	0.8322
2496.62	0.8229
2506.66	0.8084
2516.71	0.7918
2526.75	0.795
2536.8	0.7978
2546.84	0.7824
2556.89	0.7905
2566.93	0.796
2576.98	0.7756
2587.02	0.7694
2597.07	0.7666
2607.11	0.7577
2617.16	0.7485
2627.2	0.7456
2637.25	0.7386
2647.29	0.7202
2657.34	0.6997
2667.38	0.6701
2677.43	0.6313
2687.47	0.6121
2697.52	0.5998
2707.56	0.5722
2717.61	0.5838
2727.65	0.5445
2737.7	0.5064
2747.74	0.4828
2757.79	0.462
2767.83	0.4014
2777.87	0.3284
2787.92	0.3354
2797.96	0.3883
2808.01	0.4455
2818.05	0.5262
2828.1	0.5839
2838.14	0.5855
2848.19	0.5869
2858.23	0.5686
2868.28	0.5775
2878.32	0.6067
2888.37	0.5982
2898.41	0.5465
2908.46	0.4947
2918.5	0.4664
2928.55	0.4346
2938.59	0.3716
2948.64	0.3633
2958.68	0.4132
2968.73	0.4682
2978.77	0.5552
2988.82	0.6271
2998.86	0.6363
3008.91	0.6886
3018.95	0.7411
3029	0.7707
3039.04	0.7985
3049.09	0.8137
3059.13	0.8263
3069.18	0.8415
3079.22	0.8523
3089.27	0.8575
3099.31	0.8646
3109.36	0.8698
3119.4	0.871
3129.45	0.8721
3139.49	0.8697
3149.54	0.8576
3159.58	0.8554
3169.63	0.8591
3179.67	0.8621
3189.72	0.8599
3199.76	0.8569
3209.81	0.853
3219.85	0.8492
3229.9	0.8457
3239.94	0.8423
3249.99	0.8396
3260.03	0.8369
3270.08	0.8336
3280.12	0.8303
3290.17	0.8267
3300.21	0.8227
3310.26	0.8168
3320.3	0.8095
3330.35	0.8008
3340.39	0.7912
3350.44	0.7816
3360.48	0.7721
3370.53	0.7606
3380.57	0.75
3390.61	0.7408
3400.66	0.7322
3410.7	0.726
3420.75	0.7235
3430.79	0.7208
3440.84	0.7154
3450.88	0.7058
3460.93	0.7094
3470.97	0.7305
3481.02	0.7418
3491.06	0.7468
3501.11	0.7514
3511.15	0.7561
3521.2	0.7639
3531.24	0.7727
3541.29	0.7849
3551.33	0.7946
3561.38	0.8021
3571.42	0.8098
3581.47	0.8178
3591.51	0.8252
3601.56	0.8333
3611.6	0.8413
3621.65	0.8487
3631.69	0.8551
3641.74	0.8578
3651.78	0.8573
3661.83	0.8612
3671.87	0.8587
3681.92	0.8579
3691.96	0.8624
3702.01	0.8687
3712.05	0.8699
3722.1	0.8705
3732.14	0.8683
3742.19	0.8631
3752.23	0.862
3762.28	0.8696
3772.32	0.8759
3782.37	0.8764
3792.41	0.8742
3802.46	0.8701
3812.5	0.8666
3822.55	0.866
3832.59	0.8652
3842.64	0.8644
3852.68	0.8649
3862.73	0.8604
3872.77	0.8661
3882.82	0.8655
3892.86	0.864
3902.91	0.8622
3912.95	0.8624
3923	0.8663
3933.04	0.8633
3943.09	0.8628
3953.13	0.8629
3963.18	0.8627
3973.22	0.8622
3983.27	0.8615
3993.31	0.8613
4003.36	0.8614
4013.4	0.8616
