Infrared Spectrum: BIS(2-AMINO-1-PROPYL) DITHIOLCARBONATE DIHYDROCHLORIDE
Formula: C7 H16 N2 S2 O  * 2 H Cl
State: SOLID (MINERAL OIL MULL)
Melting point: 208-211 C
Class: COBLENTZ
Instrument: Not specified, most likely a prism, grating, or hybrid spectrometer.
Sampling: TRANSMISSION
Resolution: 4
Origin: ARTHUR D. LITTLE, INC.
MICROMETERS	TRANSMITTANCE
2.218	0.901
2.24907	0.901
2.28015	0.908
2.31122	0.906
2.3423	0.899
2.37337	0.9
2.40444	0.905
2.43552	0.914
2.46659	0.937
2.49766	0.961
2.52874	0.966
2.55981	0.974
2.59089	0.987
2.62196	0.989
2.65303	0.991
2.68411	0.991
2.71518	0.989
2.74625	0.991
2.77733	0.978
2.8084	0.928
2.83948	0.911
2.87055	0.902
2.90162	0.892
2.9327	0.89
2.96377	0.886
2.99484	0.883
3.02592	0.883
3.05699	0.881
3.08807	0.856
3.11914	0.763
3.15021	0.674
3.18129	0.577
3.21236	0.427
3.24344	0.325
3.27451	0.275
3.30558	0.232
3.33666	0.205
3.36773	0.186
3.3988	0.173
3.42988	0.166
3.46095	0.159
3.49203	0.157
3.5231	0.158
3.55417	0.186
3.58525	0.229
3.61632	0.303
3.64739	0.335
3.67847	0.332
3.70954	0.39
3.74062	0.436
3.77169	0.496
3.80276	0.565
3.83384	0.573
3.86491	0.572
3.89598	0.522
3.92706	0.538
3.95813	0.655
3.98921	0.704
4.02028	0.623
4.05135	0.587
4.08243	0.701
4.1135	0.767
4.14458	0.812
4.17565	0.823
4.20672	0.825
4.2378	0.827
4.26887	0.83
4.29994	0.832
4.33102	0.839
4.36209	0.874
4.39317	0.891
4.42424	0.899
4.45531	0.904
4.48639	0.908
4.51746	0.911
4.54853	0.914
4.57961	0.913
4.61068	0.914
4.64176	0.913
4.67283	0.915
4.7039	0.915
4.73498	0.91
4.76605	0.878
4.79712	0.837
4.8282	0.795
4.85927	0.734
4.89035	0.703
4.92142	0.687
4.95249	0.689
4.98357	0.703
5.01464	0.734
5.04572	0.763
5.07679	0.816
5.10786	0.832
5.13894	0.835
5.17001	0.868
5.20108	0.881
5.23216	0.883
5.26323	0.902
5.29431	0.911
5.32538	0.922
5.35645	0.924
5.38753	0.929
5.4186	0.932
5.44967	0.932
5.48075	0.932
5.51182	0.929
5.5429	0.928
5.57397	0.928
5.60504	0.914
5.63612	0.828
5.66719	0.791
5.69827	0.808
5.72934	0.805
5.76041	0.827
5.79149	0.851
5.82256	0.851
5.85363	0.856
5.88471	0.858
5.91578	0.854
5.94686	0.826
5.97793	0.794
6.009	0.71
6.04008	0.448
6.07115	0.305
6.10222	0.526
6.1333	0.71
6.16437	0.735
6.19545	0.659
6.22652	0.432
6.25759	0.665
6.28867	0.63
6.31974	0.268
6.35081	0.335
6.38189	0.574
6.41296	0.689
6.44404	0.743
6.47511	0.753
6.50618	0.793
6.53726	0.814
6.56833	0.808
6.59941	0.752
6.63048	0.655
6.66155	0.292
6.69263	0.214
6.7237	0.369
6.75477	0.48
6.78585	0.436
6.81692	0.311
6.848	0.324
6.87907	0.39
6.91014	0.476
6.94122	0.547
6.97229	0.666
7.00336	0.752
7.03444	0.798
7.06551	0.816
7.09659	0.809
7.12766	0.68
7.15873	0.412
7.18981	0.568
7.22088	0.507
7.25195	0.324
7.28303	0.495
7.3141	0.597
7.34518	0.533
7.37625	0.607
7.40732	0.698
7.4384	0.67
7.46947	0.614
7.50055	0.762
7.53162	0.817
7.56269	0.836
7.59377	0.841
7.62484	0.844
7.65591	0.846
7.68699	0.848
7.71806	0.849
7.74914	0.855
7.78021	0.862
7.81128	0.865
7.84236	0.865
7.87343	0.835
7.9045	0.716
7.93558	0.748
7.96665	0.775
7.99773	0.555
8.0288	0.316
8.05987	0.541
8.09095	0.71
8.12202	0.782
8.15309	0.825
8.18417	0.832
8.21524	0.828
8.24632	0.687
8.27739	0.51
8.30846	0.363
8.33954	0.335
8.37061	0.44
8.40169	0.598
8.43276	0.736
8.46383	0.768
8.49491	0.808
8.52598	0.826
8.55705	0.835
8.58813	0.839
8.6192	0.842
8.65028	0.845
8.68135	0.848
8.71242	0.854
8.7435	0.86
8.77457	0.859
8.80564	0.859
8.83672	0.86
8.86779	0.846
8.89887	0.639
8.92994	0.475
8.96101	0.628
8.99209	0.775
9.02316	0.822
9.05423	0.836
9.08531	0.828
9.11638	0.773
9.14746	0.532
9.17853	0.477
9.2096	0.624
9.24068	0.748
9.27175	0.818
9.30283	0.846
9.3339	0.858
9.36497	0.865
9.39605	0.872
9.42712	0.878
9.45819	0.879
9.48927	0.878
9.52034	0.86
9.55142	0.844
9.58249	0.848
9.61356	0.858
9.64464	0.872
9.67571	0.877
9.70678	0.882
9.73786	0.885
9.76893	0.886
9.80001	0.886
9.83108	0.882
9.86215	0.878
9.89323	0.758
9.9243	0.438
9.95537	0.445
9.98645	0.559
10.0175	0.652
10.0486	0.804
10.0797	0.849
10.1107	0.862
10.1418	0.867
10.1729	0.837
10.204	0.749
10.235	0.747
10.2661	0.805
10.2972	0.842
10.3283	0.859
10.3593	0.877
10.3904	0.887
10.4215	0.891
10.4526	0.895
10.4836	0.896
10.5147	0.887
10.5458	0.823
10.5769	0.768
10.6079	0.803
10.639	0.841
10.6701	0.868
10.7011	0.879
10.7322	0.886
10.7633	0.888
10.7944	0.885
10.8254	0.885
10.8565	0.885
10.8876	0.879
10.9187	0.874
10.9497	0.864
10.9808	0.854
11.0119	0.837
11.043	0.814
11.074	0.777
11.1051	0.735
11.1362	0.685
11.1673	0.615
11.1983	0.513
11.2294	0.372
11.2605	0.243
11.2915	0.182
11.3226	0.164
11.3537	0.157
11.3848	0.154
11.4158	0.164
11.4469	0.234
11.478	0.324
11.5091	0.424
11.5401	0.472
11.5712	0.481
11.6023	0.411
11.6334	0.196
11.6644	0.167
11.6955	0.171
11.7266	0.234
11.7577	0.321
11.7887	0.397
11.8198	0.468
11.8509	0.514
11.882	0.57
11.913	0.615
11.9441	0.659
11.9752	0.698
12.0062	0.736
12.0373	0.759
12.0684	0.773
12.0995	0.791
12.1305	0.804
12.1616	0.812
12.1927	0.818
12.2238	0.826
12.2548	0.833
12.2859	0.837
12.317	0.845
12.3481	0.85
12.3791	0.851
12.4102	0.845
12.4413	0.84
12.4724	0.844
12.5034	0.849
12.5345	0.856
12.5656	0.869
12.5966	0.882
12.6277	0.902
12.6588	0.906
12.6899	0.908
12.7209	0.91
12.752	0.914
12.7831	0.922
12.8142	0.924
12.8452	0.925
12.8763	0.927
12.9074	0.929
12.9385	0.931
12.9695	0.932
13.0006	0.931
13.0317	0.932
13.0628	0.931
13.0938	0.932
13.1249	0.932
13.156	0.932
13.187	0.933
13.2181	0.941
13.2492	0.942
13.2803	0.942
13.3113	0.946
13.3424	0.947
13.3735	0.946
13.4046	0.946
13.4356	0.945
13.4667	0.945
13.4978	0.942
13.5289	0.934
13.5599	0.923
13.591	0.9
13.6221	0.83
13.6532	0.81
13.6842	0.816
13.7153	0.835
13.7464	0.849
13.7775	0.863
13.8085	0.873
13.8396	0.877
13.8707	0.882
13.9017	0.883
13.9328	0.883
13.9639	0.887
13.995	0.9
14.026	0.916
