Infrared Spectrum: Propane, 1,3-bis(2-tert-butyl-4-methyl-anilino)-
Formula: C25 H38 N2
State: SOLID (OIL MULL)
Class: COBLENTZ III
Instrument: BECKMAN IR-4 (HYBRID PRISM-GRATING)
Instrument parameters: NaCl PRISM
Sampling: TRANSMISSION
Resolution: 2
Origin: MONSANTO (J. FREEMAN)
1/CM	TRANSMITTANCE
626	0.823
635	0.7974
644	0.7838
653	0.8066
662	0.7738
671	0.8029
680	0.8956
689	0.9008
698	0.921
707	0.9128
716	0.8795
725	0.8628
734	0.8811
743	0.898
752	0.9036
761	0.8743
770	0.5475
779	0.5817
788	0.7688
797	0.6269
806	0.1491
815	0.7124
824	0.8263
833	0.8942
842	0.918
851	0.9263
860	0.9315
869	0.9289
878	0.7152
887	0.8607
896	0.9147
905	0.9019
914	0.816
923	0.7626
932	0.8413
941	0.9029
950	0.8986
959	0.8989
968	0.8941
977	0.884
986	0.8593
995	0.828
1004	0.8504
1013	0.8269
1022	0.7417
1031	0.798
1040	0.7146
1049	0.8336
1058	0.8568
1067	0.8459
1076	0.8139
1085	0.8115
1094	0.7835
1103	0.5022
1112	0.6703
1121	0.7257
1130	0.6199
1139	0.7759
1148	0.7756
1157	0.5629
1166	0.6884
1175	0.7563
1184	0.7451
1193	0.6236
1202	0.5874
1211	0.4157
1220	0.4469
1229	0.5472
1238	0.4949
1247	0.4174
1256	0.4961
1265	0.3961
1274	0.0822
1283	0.2379
1292	0.3803
1301	0.3578
1310	0.1128
1319	0.6783
1328	0.7695
1337	0.7877
1346	0.7761
1355	0.7306
1364	0.4312
1373	0.432
1382	0.4121
1391	0.3626
1400	0.2858
1409	0.2981
1418	0.4447
1427	0.5424
1436	0.434
1445	0.2923
1454	0.2389
1463	0.1007
1472	0.0723
1481	0.1972
1490	0.3303
1499	0.1788
1508	0.0493
1517	0.0386
1526	0.2163
1535	0.4263
1544	0.5876
1553	0.727
1562	0.7791
1571	0.8165
1580	0.7556
1589	0.7968
1598	0.7906
1607	0.6014
1616	0.4126
1625	0.6415
1634	0.8437
1643	0.8922
1652	0.9024
1661	0.9067
1670	0.9101
1679	0.9136
1688	0.9186
1697	0.9218
1706	0.9215
1715	0.9197
1724	0.918
1733	0.9164
1742	0.9148
1751	0.9093
1760	0.8934
1769	0.9016
1778	0.909
1787	0.9051
1796	0.8978
1805	0.8653
1814	0.856
1823	0.8854
1832	0.8912
1841	0.8789
1850	0.8613
1859	0.8461
1868	0.8811
1877	0.8903
1886	0.8902
1895	0.8897
1904	0.8887
1913	0.8871
1922	0.8851
1931	0.884
1940	0.8828
1949	0.8817
1958	0.8805
1967	0.8794
1976	0.8784
1985	0.8772
1994	0.8762
2003	0.8749
2012	0.8735
2021	0.8721
2030	0.8705
2039	0.8686
2048	0.8666
2057	0.8647
2066	0.8629
2075	0.8611
2084	0.8593
2093	0.8576
2102	0.8559
2111	0.8542
2120	0.8525
2129	0.8509
2138	0.8493
2147	0.8478
2156	0.8462
2165	0.8445
2174	0.8426
2183	0.8407
2192	0.8389
2201	0.837
2210	0.8351
2219	0.8333
2228	0.8311
2237	0.829
2246	0.8269
2255	0.8248
2264	0.8228
2273	0.8207
2282	0.8184
2291	0.8157
2300	0.813
2309	0.8103
2318	0.8077
2327	0.805
2336	0.8024
2345	0.7994
2354	0.7966
2363	0.7937
2372	0.7908
2381	0.7895
2390	0.7902
2399	0.7935
2408	0.7972
2417	0.7969
2426	0.7952
2435	0.7934
2444	0.7912
2453	0.789
2462	0.7862
2471	0.7826
2480	0.779
2489	0.7755
2498	0.7713
2507	0.7669
2516	0.7625
2525	0.7581
2534	0.7537
2543	0.7486
2552	0.7434
2561	0.7384
2570	0.7344
2579	0.7312
2588	0.728
2597	0.7258
2606	0.7251
2615	0.7244
2624	0.7236
2633	0.7225
2642	0.7199
2651	0.7173
2660	0.7131
2669	0.7089
2678	0.7052
2687	0.702
2696	0.6987
2705	0.6946
2714	0.6868
2723	0.6667
2732	0.6425
2741	0.6278
2750	0.6315
2759	0.6388
2768	0.6462
2777	0.6491
2786	0.6459
2795	0.632
2804	0.604
2813	0.5527
2822	0.5012
2831	0.3894
2840	0.2833
2849	0.1832
2858	0.0489
2867	0.0423
2876	0.0399
2885	0.038
2894	0.0337
2903	0.0254
2912	0.0144
2921	0.0073
2930	0.0036
2939	0.0017
2948	0.0015
2957	0.0021
2966	0.0556
2975	0.1228
2984	0.1897
2993	0.2561
3002	0.3085
3011	0.3291
3020	0.3555
3029	0.3785
3038	0.4016
3047	0.4252
3056	0.4479
3065	0.4701
3074	0.4926
3083	0.5148
3092	0.5306
3101	0.5449
3110	0.5627
3119	0.5852
3128	0.6006
3137	0.6097
3146	0.6151
3155	0.6204
3164	0.6233
3173	0.6249
3182	0.6265
3191	0.6281
3200	0.6285
3209	0.6286
3218	0.6288
3227	0.6289
3236	0.6288
3245	0.6282
3254	0.6275
3263	0.6269
3272	0.6263
3281	0.6256
3290	0.6243
3299	0.6226
3308	0.6209
3317	0.6193
3326	0.6177
3335	0.615
3344	0.6118
3353	0.6087
3362	0.6056
3371	0.6025
3380	0.5982
3389	0.5926
3398	0.587
3407	0.5742
3416	0.5541
3425	0.5342
3434	0.5143
3443	0.4945
3452	0.4748
3461	0.4581
3470	0.4567
3479	0.467
3488	0.4801
3497	0.4932
3506	0.5061
3515	0.519
3524	0.5319
3533	0.544
3542	0.5522
3551	0.56
3560	0.5627
3569	0.5649
3578	0.5652
3587	0.5653
3596	0.5652
3605	0.5647
3614	0.5644
3623	0.5641
3632	0.5638
3641	0.5636
3650	0.5634
3659	0.5632
3668	0.5627
3677	0.5622
3686	0.5617
3695	0.5613
3704	0.5609
3713	0.5606
3722	0.5602
3731	0.5599
3740	0.559
3749	0.5579
3758	0.5569
3767	0.5558
3776	0.5548
3785	0.5536
3794	0.5517
3803	0.5498
3812	0.5479
3821	0.5462
3830	0.5443
3839	0.5425
3848	0.5406
3857	0.5387
3866	0.5368
3875	0.5349
3884	0.533
3893	0.5311
3902	0.5293
3911	0.5273
3920	0.5255
3929	0.5237
3938	0.5219
3947	0.5201
3956	0.5183
3965	0.5165
3974	0.5147
3983	0.5129
3992	0.5111
