Infrared Spectrum: Hexadecanoic acid, sodium salt
Formula: C16 H31 Na O2
State: SOLID (SPLIT MULL), FLUOROLUBE FOR 3800-1335 CM^-^1, NUJOL FOR 1335-400 CM^-^1
Class: COBLENTZ III
Instrument: DOW KBr FOREPRISM-GRATING
Instrument parameters: BLAZED AT 3.5, 12.0, 20.0 MICRON AND CHANGED AT 5.0, 7.5, 14.9 MICRON
Sampling: TRANSMISSION
Resolution: 2
Origin: DOW CHEMICAL COMPANY
1/CM	TRANSMITTANCE
3800	0.7428
3791	0.7451
3782	0.7471
3773	0.7488
3764	0.7501
3755	0.75
3746	0.7494
3737	0.7499
3728	0.7511
3719	0.753
3710	0.7551
3701	0.7571
3692	0.7587
3683	0.7574
3674	0.7518
3665	0.7522
3656	0.7546
3647	0.7553
3638	0.7558
3629	0.756
3620	0.7561
3611	0.7571
3602	0.7583
3593	0.7594
3584	0.7604
3575	0.7614
3566	0.7621
3557	0.7622
3548	0.7624
3539	0.7617
3530	0.7607
3521	0.7596
3512	0.7589
3503	0.7584
3494	0.758
3485	0.7575
3476	0.7571
3467	0.7571
3458	0.7571
3449	0.7571
3440	0.7571
3431	0.7571
3422	0.7571
3413	0.7578
3404	0.7585
3395	0.7592
3386	0.7599
3377	0.7607
3368	0.7618
3359	0.7628
3350	0.7639
3341	0.765
3332	0.766
3323	0.7669
3314	0.768
3305	0.769
3296	0.77
3287	0.7707
3278	0.7715
3269	0.7721
3260	0.7728
3251	0.7735
3242	0.7745
3233	0.7754
3224	0.7762
3215	0.7771
3206	0.7783
3197	0.7795
3188	0.7806
3179	0.7818
3170	0.783
3161	0.7846
3152	0.7862
3143	0.7881
3134	0.7896
3125	0.7911
3116	0.7925
3107	0.7936
3098	0.7948
3089	0.7958
3080	0.7968
3071	0.7978
3062	0.7993
3053	0.8008
3044	0.8021
3035	0.8021
3026	0.8019
3017	0.8018
3008	0.8021
2999	0.8008
2990	0.7961
2981	0.778
2972	0.7347
2963	0.5386
2954	0.4304
2945	0.4557
2936	0.2471
2927	0.0723
2918	0.07
2909	0.2355
2900	0.3414
2891	0.3948
2882	0.4451
2873	0.4741
2864	0.496
2855	0.3029
2846	0.1752
2837	0.4292
2828	0.5397
2819	0.5921
2810	0.6227
2801	0.6465
2792	0.6621
2783	0.6755
2774	0.6867
2765	0.6968
2756	0.7053
2747	0.7136
2738	0.7197
2729	0.7254
2720	0.731
2711	0.7365
2702	0.7419
2693	0.7451
2684	0.7472
2675	0.7475
2666	0.7478
2657	0.7482
2648	0.7485
2639	0.7492
2630	0.7505
2621	0.7518
2612	0.7537
2603	0.7561
2594	0.7586
2585	0.7603
2576	0.7618
2567	0.7633
2558	0.7647
2549	0.7649
2540	0.7651
2531	0.7655
2522	0.7658
2513	0.7657
2504	0.7654
2495	0.765
2486	0.7648
2477	0.7647
2468	0.7646
2459	0.7644
2450	0.7643
2441	0.7642
2432	0.7639
2423	0.7635
2414	0.7631
2405	0.7626
2396	0.7622
2387	0.7615
2378	0.7596
2369	0.7561
2360	0.7517
2351	0.7472
2342	0.7434
2333	0.7408
2324	0.7401
2315	0.7414
2306	0.7437
2297	0.7458
2288	0.7486
2279	0.7514
2270	0.7564
2261	0.7617
2252	0.766
2243	0.7701
2234	0.7736
2225	0.7761
2216	0.7781
2207	0.7797
2198	0.7811
2189	0.783
2180	0.7856
2171	0.7882
2162	0.7908
2153	0.793
2144	0.7951
2135	0.7971
2126	0.7989
2117	0.8003
2108	0.8019
2099	0.8037
2090	0.8051
2081	0.8061
2072	0.8072
2063	0.8083
2054	0.8094
2045	0.8106
2036	0.8124
2027	0.8142
2018	0.8157
2009	0.8175
2000	0.8237
1991	0.8278
1982	0.83
1973	0.8321
1964	0.8381
1955	0.8409
1946	0.839
1937	0.8378
1928	0.8375
1919	0.8377
1910	0.8375
1901	0.837
1892	0.8363
1883	0.8345
1874	0.8328
1865	0.829
1856	0.829
1847	0.8293
1838	0.8295
1829	0.8292
1820	0.8297
1811	0.8301
1802	0.8274
1793	0.826
1784	0.825
1775	0.8214
1766	0.8194
1757	0.8185
1748	0.8135
1739	0.8065
1730	0.7993
1721	0.7954
1712	0.7836
1703	0.7767
1694	0.7824
1685	0.7876
1676	0.7961
1667	0.8055
1658	0.8125
1649	0.8098
1640	0.8208
1631	0.8111
1622	0.8011
1613	0.7884
1604	0.7748
1595	0.72
1586	0.6302
1577	0.5086
1568	0.2114
1559	0.0676
1550	0.2725
1541	0.4274
1532	0.5624
1523	0.6398
1514	0.691
1505	0.7258
1496	0.7441
1487	0.7542
1478	0.6045
1469	0.429
1460	0.526
1451	0.4469
1442	0.493
1433	0.4712
1424	0.3705
1415	0.5169
1406	0.5673
1397	0.6169
1388	0.6374
1379	0.623
1370	0.6345
1361	0.6365
1352	0.6053
1343	0.5643
1334	0.5931
1325	0.6074
1316	0.6297
1307	0.6395
1298	0.6122
1289	0.6435
1280	0.6258
1271	0.6454
1262	0.6632
1253	0.6483
1244	0.6706
1235	0.6411
1226	0.6471
1217	0.6704
1208	0.6285
1199	0.6494
1190	0.6345
1181	0.6685
1172	0.6804
1163	0.6934
1154	0.69
1145	0.6911
1136	0.7024
1127	0.6968
1118	0.6992
1109	0.7019
1100	0.6551
1091	0.699
1082	0.7128
1073	0.7192
1064	0.7245
1055	0.7283
1046	0.7291
1037	0.7337
1028	0.7383
1019	0.7389
1010	0.7235
1001	0.7244
992	0.7356
983	0.7357
974	0.7164
965	0.7053
956	0.7148
947	0.7271
938	0.7336
929	0.7082
920	0.6391
911	0.7299
902	0.7428
893	0.7315
884	0.7418
875	0.7594
866	0.7647
857	0.7621
848	0.7174
839	0.7647
830	0.7714
821	0.773
812	0.7565
803	0.7667
794	0.771
785	0.7497
776	0.7471
767	0.7558
758	0.7525
749	0.7436
740	0.6836
731	0.6368
722	0.4239
713	0.636
704	0.6912
695	0.6297
686	0.7628
677	0.7947
668	0.8201
659	0.8143
650	0.815
641	0.8187
632	0.821
623	0.8235
614	0.8233
605	0.8225
596	0.8168
587	0.81
578	0.8015
569	0.8089
560	0.8186
551	0.8125
542	0.7488
533	0.7571
524	0.8056
515	0.8264
506	0.8351
497	0.8439
488	0.823
479	0.8596
470	0.8654
461	0.8604
452	0.8167
443	0.8577
434	0.8621
425	0.8699
416	0.8808
407	0.8949
398	0.9096
389	0.9258
