Infrared Spectrum: AMMONIUM SAMARIUM OXALATE, HYDRATE
Formula: C8 H8 N2 O16 Sm2  * 6-8 H2 O
State: SOLID (SPLIT MULL), FLUOROLUBE FOR 3800-1330 CM^-^1, NUJOL FOR 1330-470 CM^-^1
Class: COBLENTZ III
Instrument: DOW KBr FOREPRISM-GRATING
Instrument parameters: BLAZED AT 3.5, 12.0, 20.0 MICRON AND CHANGED AT 5.0, 7.5, 14.9 MICRON
Sampling: TRANSMISSION
Resolution: 2
Origin: DOW CHEMICAL COMPANY
1/CM	TRANSMITTANCE
466.324	0.892
475.128	0.869
483.932	0.821
492.736	0.769
501.54	0.803
510.345	0.833
519.149	0.864
527.953	0.91
536.757	0.938
545.561	0.949
554.365	0.957
563.169	0.964
571.973	0.971
580.777	0.972
589.581	0.975
598.386	0.975
607.19	0.975
615.994	0.976
624.798	0.976
633.602	0.976
642.406	0.976
651.21	0.976
660.014	0.976
668.818	0.976
677.623	0.976
686.427	0.975
695.231	0.975
704.035	0.971
712.839	0.958
721.643	0.928
730.447	0.934
739.251	0.942
748.055	0.947
756.86	0.945
765.664	0.935
774.468	0.92
783.272	0.873
792.076	0.685
800.88	0.542
809.684	0.719
818.488	0.931
827.292	0.979
836.096	0.989
844.901	0.994
853.705	0.995
862.509	0.997
871.313	1.002
880.117	1
888.921	0.993
897.725	0.994
906.529	0.989
915.333	0.98
924.138	0.986
932.942	0.989
941.746	0.991
950.55	0.989
959.354	0.989
968.158	0.984
976.962	0.982
985.766	0.989
994.57	0.987
1003.37	0.989
1012.18	0.987
1020.98	0.982
1029.79	0.982
1038.59	0.982
1047.4	0.982
1056.2	0.98
1065	0.98
1073.81	0.98
1082.61	0.983
1091.42	0.986
1100.22	0.989
1109.02	0.995
1117.83	0.997
1126.63	0.997
1135.44	0.997
1144.24	0.995
1153.04	0.98
1161.85	0.976
1170.65	0.972
1179.46	0.979
1188.26	0.976
1197.06	0.969
1205.87	0.961
1214.67	0.96
1223.48	0.954
1232.28	0.947
1241.09	0.94
1249.89	0.932
1258.69	0.912
1267.5	0.891
1276.3	0.869
1285.11	0.836
1293.91	0.777
1302.71	0.634
1311.52	0.451
1320.32	0.417
1329.13	0.64
1337.93	0.762
1346.73	0.776
1355.54	0.762
1364.34	0.755
1373.15	0.776
1381.95	0.818
1390.76	0.865
1399.56	0.853
1408.36	0.82
1417.17	0.791
1425.97	0.747
1434.78	0.78
1443.58	0.781
1452.38	0.73
1461.19	0.726
1469.99	0.756
1478.8	0.778
1487.6	0.814
1496.4	0.832
1505.21	0.822
1514.01	0.806
1522.82	0.785
1531.62	0.759
1540.43	0.734
1549.23	0.692
1558.03	0.644
1566.84	0.586
1575.64	0.51
1584.45	0.428
1593.25	0.314
1602.05	0.23
1610.86	0.148
1619.66	0.093
1628.47	0.07
1637.27	0.063
1646.07	0.072
1654.88	0.108
1663.68	0.153
1672.49	0.215
1681.29	0.307
1690.09	0.398
1698.9	0.456
1707.7	0.512
1716.51	0.582
1725.31	0.662
1734.12	0.726
1742.92	0.755
1751.72	0.759
1760.53	0.826
1769.33	0.857
1778.14	0.872
1786.94	0.888
1795.74	0.901
1804.55	0.913
1813.35	0.924
1822.16	0.929
1830.96	0.936
1839.76	0.942
1848.57	0.946
1857.37	0.951
1866.18	0.957
1874.98	0.96
1883.79	0.961
1892.59	0.961
1901.39	0.961
1910.2	0.962
1919	0.968
1927.81	0.972
1936.61	0.979
1945.41	0.983
1954.22	0.989
1963.02	0.998
1971.83	0.99
1980.63	0.989
1989.43	0.989
1998.24	0.989
2007.04	0.99
2015.85	0.991
2024.65	0.991
2033.45	0.99
2042.26	0.989
2051.06	0.987
2059.87	0.984
2068.67	0.9829
2077.48	0.9799
2086.28	0.978
2095.08	0.975
2103.89	0.9747
2112.69	0.9728
2121.5	0.9707
2130.3	0.9678
2139.1	0.9648
2147.91	0.961
2156.71	0.9596
2165.52	0.9568
2174.32	0.9538
2183.12	0.9508
2191.93	0.9485
2200.73	0.9445
2209.54	0.94
2218.34	0.9371
2227.15	0.9317
2235.95	0.9264
2244.75	0.9223
2253.56	0.9167
2262.36	0.9109
2271.17	0.903
2279.97	0.902
2288.77	0.901
2297.58	0.899
2306.38	0.8986
2315.19	0.8971
2323.99	0.8999
2332.79	0.903
2341.6	0.905
2350.4	0.906
2359.21	0.91
2368.01	0.91
2376.82	0.91
2385.62	0.912
2394.42	0.913
2403.23	0.913
2412.03	0.913
2420.84	0.913
2429.64	0.913
2438.44	0.913
2447.25	0.9124
2456.05	0.913
2464.86	0.913
2473.66	0.912
2482.46	0.912
2491.27	0.91
2500.07	0.91
2508.88	0.91
2517.68	0.91
2526.48	0.91
2535.29	0.909
2544.09	0.909
2552.9	0.907
2561.7	0.907
2570.51	0.9046
2579.31	0.902
2588.11	0.899
2596.92	0.898
2605.72	0.896
2614.53	0.8923
2623.33	0.892
2632.13	0.8911
2640.94	0.89
2649.74	0.887
2658.55	0.884
2667.35	0.883
2676.15	0.88
2684.96	0.877
2693.76	0.8751
2702.57	0.873
2711.37	0.869
2720.18	0.868
2728.98	0.864
2737.78	0.861
2746.59	0.857
2755.39	0.8529
2764.2	0.848
2773	0.843
2781.8	0.8389
2790.61	0.832
2799.41	0.828
2808.22	0.8219
2817.02	0.8179
2825.82	0.8086
2834.63	0.7986
2843.43	0.7878
2852.24	0.7812
2861.04	0.7658
2869.85	0.758
2878.65	0.7552
2887.45	0.7694
2896.26	0.776
2905.06	0.774
2913.87	0.7685
2922.67	0.7612
2931.47	0.7509
2940.28	0.7444
2949.08	0.74
2957.89	0.733
2966.69	0.7257
2975.49	0.7177
2984.3	0.7107
2993.1	0.7036
3001.91	0.6966
3010.71	0.6896
3019.51	0.6832
3028.32	0.6776
3037.12	0.6706
3045.93	0.6636
3054.73	0.66
3063.54	0.6579
3072.34	0.659
3081.14	0.66
3089.95	0.6635
3098.75	0.6665
3107.56	0.6735
3116.36	0.68
3125.16	0.682
3133.97	0.681
3142.77	0.6774
3151.58	0.6719
3160.38	0.6606
3169.18	0.6484
3177.99	0.6382
3186.79	0.627
3195.6	0.6211
3204.4	0.6213
3213.21	0.629
3222.01	0.644
3230.81	0.6634
3239.62	0.6787
3248.42	0.6921
3257.23	0.7054
3266.03	0.715
3274.83	0.7177
3283.64	0.718
3292.44	0.718
3301.25	0.717
3310.05	0.712
3318.85	0.7068
3327.66	0.7002
3336.46	0.696
3345.27	0.6903
3354.07	0.6863
3362.88	0.682
3371.68	0.677
3380.48	0.6731
3389.29	0.6682
3398.09	0.664
3406.9	0.662
3415.7	0.6561
3424.5	0.6491
3433.31	0.644
3442.11	0.641
3450.92	0.645
3459.72	0.652
3468.52	0.659
3477.33	0.667
3486.13	0.6791
3494.94	0.6931
3503.74	0.7082
3512.54	0.7284
3521.35	0.7443
3530.15	0.7603
3538.96	0.7761
3547.76	0.7932
3556.57	0.8004
3565.37	0.8104
3574.17	0.8203
3582.98	0.8378
3591.78	0.8579
3600.59	0.8728
3609.39	0.8876
3618.19	0.8982
3627	0.9062
3635.8	0.9122
3644.61	0.9162
3653.41	0.918
3662.21	0.92
3671.02	0.92
3679.82	0.92
3688.63	0.92
3697.43	0.918
3706.24	0.918
3715.04	0.918
3723.84	0.918
3732.65	0.918
3741.45	0.918
3750.26	0.918
3759.06	0.917
3767.86	0.9152
3776.67	0.912
3785.47	0.912
3794.28	0.912
