Infrared Spectrum: Choline Iodide, O-(p-ChloroCinnamoyl)
Formula: C14 H19 Cl I N O2
State: SOLID (NUJOL MULL)
Class: COBLENTZ III
Instrument: PERKIN-ELMER 221 (GRATING)
Instrument parameters: FILTER AT 2490, 980 CM^-^1. GRATING 4000-1428 CM^-^1, NaCl PRISM 1428-650 CM^-^1
Sampling: TRANSMISSION
Resolution: 2
Origin: SOUTHERN RESEARCH INSTITUTE
1/CM	TRANSMITTANCE
632	0.7709
641.053	0.7801
650.107	0.7865
659.16	0.8164
668.214	0.8377
677.267	0.8285
686.321	0.8266
695.374	0.8603
704.427	0.847
713.481	0.7815
722.534	0.775
731.588	0.7626
740.641	0.8429
749.694	0.8366
758.748	0.8158
767.801	0.7536
776.855	0.8516
785.908	0.8335
794.962	0.7776
804.015	0.5477
813.068	0.4025
822.122	0.4941
831.175	0.5438
840.229	0.5976
849.282	0.8255
858.335	0.8211
867.389	0.7784
876.442	0.8021
885.496	0.7921
894.549	0.7736
903.603	0.7215
912.656	0.4526
921.709	0.5915
930.763	0.5455
939.816	0.3056
948.87	0.4959
957.923	0.7174
966.976	0.7179
976.03	0.6167
985.083	0.4435
994.137	0.386
1003.19	0.6789
1012.24	0.6154
1021.3	0.6699
1030.35	0.7263
1039.4	0.7571
1048.46	0.7326
1057.51	0.717
1066.56	0.6841
1075.62	0.4447
1084.67	0.6334
1093.72	0.6064
1102.78	0.6205
1111.83	0.7004
1120.88	0.6591
1129.94	0.5992
1138.99	0.5432
1148.04	0.4304
1157.1	0.2584
1166.15	0.1099
1175.21	0.3085
1184.26	0.3043
1193.31	0.5579
1202.37	0.6313
1211.42	0.7803
1220.47	0.7718
1229.53	0.7552
1238.58	0.7709
1247.63	0.7525
1256.69	0.7174
1265.74	0.5166
1274.79	0.6913
1283.85	0.6605
1292.9	0.6112
1301.95	0.2528
1311.01	0.3433
1320.06	0.5062
1329.11	0.5847
1338.17	0.6166
1347.22	0.4924
1356.27	0.5791
1365.33	0.4841
1374.38	0.4012
1383.43	0.5814
1392.49	0.5322
1401.54	0.5616
1410.59	0.712
1419.65	0.6885
1428.7	0.4977
1437.75	0.3373
1446.81	0.2301
1455.86	0.1615
1464.91	0.2399
1473.97	0.3208
1483.02	0.4174
1492.07	0.4919
1501.13	0.7737
1510.18	0.7691
1519.23	0.7624
1528.29	0.7618
1537.34	0.7524
1546.4	0.7261
1555.45	0.6785
1564.5	0.5866
1573.56	0.682
1582.61	0.535
1591.66	0.6125
1600.72	0.6935
1609.77	0.6449
1618.82	0.5815
1627.88	0.4098
1636.93	0.2905
1645.98	0.7039
1655.04	0.7401
1664.09	0.6928
1673.14	0.6565
1682.2	0.6022
1691.25	0.561
1700.3	0.3686
1709.36	0.1523
1718.41	0.2822
1727.46	0.6466
1736.52	0.7964
1745.57	0.8117
1754.62	0.8219
1763.68	0.813
1772.73	0.8048
1781.78	0.7962
1790.84	0.7866
1799.89	0.7804
1808.94	0.7803
1818	0.7845
1827.05	0.7903
1836.1	0.7914
1845.16	0.7896
1854.21	0.7861
1863.26	0.7826
1872.32	0.7765
1881.37	0.7703
1890.43	0.7639
1899.48	0.7574
1908.53	0.7515
1917.59	0.7458
1926.64	0.7441
1935.69	0.7459
1944.75	0.748
1953.8	0.7488
1962.85	0.7456
1971.91	0.7401
1980.96	0.7337
1990.01	0.7074
1999.07	0.7083
2008.12	0.7219
2017.17	0.7204
2026.23	0.7167
2035.28	0.7128
2044.33	0.7087
2053.39	0.707
2062.44	0.7058
2071.49	0.7042
2080.55	0.7023
2089.6	0.7001
2098.65	0.6958
2107.71	0.6916
2116.76	0.6883
2125.81	0.6869
2134.87	0.6845
2143.92	0.682
2152.97	0.6797
2162.03	0.6774
2171.08	0.675
2180.13	0.6727
2189.19	0.6701
2198.24	0.6674
2207.29	0.6647
2216.35	0.6618
2225.4	0.6585
2234.45	0.6553
2243.51	0.652
2252.56	0.649
2261.62	0.6464
2270.67	0.6438
2279.72	0.6412
2288.78	0.6389
2297.83	0.6366
2306.88	0.6343
2315.94	0.632
2324.99	0.6297
2334.04	0.6275
2343.1	0.6276
2352.15	0.6296
2361.2	0.6287
2370.26	0.6272
2379.31	0.6247
2388.36	0.6213
2397.42	0.6182
2406.47	0.6158
2415.52	0.613
2424.58	0.6102
2433.63	0.6075
2442.68	0.6046
2451.74	0.6018
2460.79	0.5991
2469.84	0.5967
2478.9	0.5946
2487.95	0.5945
2497	0.5942
2506.06	0.5927
2515.11	0.5905
2524.16	0.5873
2533.22	0.5828
2542.27	0.5771
2551.32	0.5719
2560.38	0.5678
2569.43	0.5638
2578.48	0.5601
2587.54	0.5572
2596.59	0.5542
2605.65	0.5513
2614.7	0.5484
2623.75	0.5455
2632.81	0.5424
2641.86	0.5394
2650.91	0.537
2659.97	0.5345
2669.02	0.5336
2678.07	0.5333
2687.13	0.5327
2696.18	0.5312
2705.23	0.5286
2714.29	0.526
2723.34	0.5232
2732.39	0.5247
2741.45	0.5272
2750.5	0.5293
2759.55	0.5295
2768.61	0.5269
2777.66	0.5212
2786.71	0.5008
2795.77	0.4906
2804.82	0.4803
2813.87	0.454
2822.93	0.4093
2831.98	0.3328
2841.03	0.2279
2850.09	0.0412
2859.14	0.017
2868.19	0.0205
2877.25	0.029
2886.3	0.0354
2895.35	0.0225
2904.41	0.0047
2913.46	0.0047
2922.51	0.0053
2931.57	0.0058
2940.62	0.0061
2949.67	0.0066
2958.73	0.0082
2967.78	0.0109
2976.84	0.0337
2985.89	0.1068
2994.94	0.1907
3004	0.2021
3013.05	0.1669
3022.1	0.3019
3031.16	0.3294
3040.21	0.3397
3049.26	0.3633
3058.32	0.3696
3067.37	0.3822
3076.42	0.386
3085.48	0.3953
3094.53	0.3992
3103.58	0.4024
3112.64	0.4061
3121.69	0.4097
3130.74	0.4126
3139.8	0.4152
3148.85	0.4177
3157.9	0.4186
3166.96	0.4191
3176.01	0.4196
3185.06	0.4199
3194.12	0.42
3203.17	0.4202
3212.22	0.4208
3221.28	0.4214
3230.33	0.4209
3239.38	0.4205
3248.44	0.4199
3257.49	0.4192
3266.54	0.4184
3275.6	0.4171
3284.65	0.4168
3293.7	0.4166
3302.76	0.4163
3311.81	0.416
3320.86	0.4156
3329.92	0.4152
3338.97	0.4148
3348.03	0.4141
3357.08	0.4132
3366.13	0.4122
3375.19	0.4113
3384.24	0.4104
3393.29	0.4085
3402.35	0.4066
3411.4	0.4055
3420.45	0.405
3429.51	0.4044
3438.56	0.4038
3447.61	0.4037
3456.67	0.4037
3465.72	0.4029
3474.77	0.4018
3483.83	0.4007
3492.88	0.4002
3501.93	0.3997
3510.99	0.3992
3520.04	0.3988
3529.09	0.3993
3538.15	0.3998
3547.2	0.4003
3556.25	0.3998
3565.31	0.3989
3574.36	0.3973
3583.41	0.3957
3592.47	0.3941
3601.52	0.3924
3610.57	0.3907
3619.63	0.3889
3628.68	0.3872
3637.73	0.3856
3646.79	0.384
3655.84	0.3824
3664.89	0.3812
3673.95	0.3806
3683	0.38
3692.06	0.3793
3701.11	0.3787
3710.16	0.3784
3719.22	0.3782
3728.27	0.3779
3737.32	0.3776
3746.38	0.3774
3755.43	0.3771
3764.48	0.3768
3773.54	0.3764
3782.59	0.3761
3791.64	0.3758
3800.7	0.3754
3809.75	0.3737
3818.8	0.3721
3827.86	0.3706
3836.91	0.369
3845.96	0.3674
3855.02	0.366
3864.07	0.3646
3873.12	0.3632
3882.18	0.3618
3891.23	0.3607
3900.28	0.3598
3909.34	0.3589
3918.39	0.358
3927.44	0.3572
3936.5	0.3567
3945.55	0.356
3954.6	0.3555
3963.66	0.3548
3972.71	0.354
3981.76	0.3532
3990.82	0.3525
3999.87	0.3519
4008.92	0.3513
4017.98	0.3507
