Infrared Spectrum: CALCIUM SALICYLATE
Formula: C14 H10 O6 Ca
State: SOLID (MINERAL OIL MULL)
Class: COBLENTZ
Instrument: Not specified, most likely a prism, grating, or hybrid spectrometer.
Sampling: TRANSMISSION
Resolution: 4
Origin: DOW CHEMICAL COMPANY
MICROMETERS	TRANSMITTANCE
2.02	0.589
2.06	0.596
2.1	0.604
2.14	0.607
2.18	0.617
2.22	0.624
2.25999	0.629
2.29999	0.627
2.33999	0.629
2.37999	0.635
2.41999	0.644
2.45999	0.647
2.49999	0.655
2.53999	0.668
2.57999	0.678
2.61999	0.695
2.65998	0.698
2.69998	0.701
2.73998	0.713
2.77998	0.713
2.81998	0.642
2.85998	0.463
2.89998	0.223
2.93998	0.24
2.97998	0.37
3.01998	0.496
3.05997	0.533
3.09997	0.546
3.13997	0.538
3.17997	0.548
3.21997	0.557
3.25997	0.562
3.29997	0.559
3.33997	0.541
3.37997	0.387
3.41997	0.071
3.45997	0.071
3.49996	0.158
3.53996	0.2
3.57996	0.551
3.61996	0.668
3.65996	0.693
3.69996	0.7
3.73996	0.706
3.77996	0.718
3.81996	0.731
3.85996	0.735
3.89995	0.741
3.93995	0.751
3.97995	0.763
4.01995	0.771
4.05995	0.771
4.09995	0.778
4.13995	0.786
4.17995	0.786
4.21995	0.802
4.25995	0.804
4.29994	0.802
4.33994	0.793
4.37994	0.793
4.41994	0.793
4.45994	0.789
4.49994	0.793
4.53994	0.794
4.57994	0.798
4.61994	0.799
4.65994	0.801
4.69994	0.801
4.73993	0.799
4.77993	0.799
4.81993	0.811
4.85993	0.814
4.89993	0.817
4.93993	0.821
4.97993	0.827
5.01993	0.829
5.05993	0.832
5.09993	0.831
5.13992	0.824
5.17992	0.819
5.21992	0.831
5.25992	0.836
5.29992	0.842
5.33992	0.841
5.37992	0.839
5.41992	0.834
5.45992	0.832
5.49992	0.832
5.53991	0.846
5.57991	0.847
5.61991	0.847
5.65991	0.844
5.69991	0.841
5.73991	0.844
5.77991	0.839
5.81991	0.832
5.85991	0.839
5.89991	0.831
5.93991	0.809
5.9799	0.793
6.0199	0.759
6.0599	0.697
6.0999	0.437
6.1399	0.243
6.1799	0.304
6.2199	0.45
6.2599	0.216
6.2999	0.369
6.3399	0.466
6.37989	0.415
6.41989	0.226
6.45989	0.122
6.49989	0.197
6.53989	0.355
6.57989	0.465
6.61989	0.546
6.65989	0.564
6.69989	0.364
6.73989	0.367
6.77988	0.327
6.81988	0.077
6.85988	0.145
6.89988	0.324
6.93988	0.417
6.97988	0.458
7.01988	0.432
7.05988	0.324
7.09988	0.139
7.13988	0.1
7.17988	0.238
7.21987	0.322
7.25987	0.289
7.29987	0.316
7.33987	0.38
7.37987	0.447
7.41987	0.496
7.45987	0.548
7.49987	0.605
7.53987	0.645
7.57987	0.652
7.61986	0.609
7.65986	0.642
7.69986	0.682
7.73986	0.703
7.77986	0.721
7.81986	0.725
7.85986	0.678
7.89986	0.61
7.93986	0.415
7.97986	0.192
8.01986	0.264
8.05985	0.428
8.09985	0.529
8.13985	0.562
8.17985	0.582
8.21985	0.617
8.25985	0.655
8.29985	0.683
8.33985	0.701
8.37985	0.71
8.41985	0.715
8.45984	0.721
8.49984	0.73
8.53984	0.665
8.57984	0.486
8.61984	0.495
8.65984	0.599
8.69984	0.697
8.73984	0.718
8.77984	0.738
8.81984	0.748
8.85983	0.753
8.89983	0.766
8.93983	0.771
8.97983	0.774
9.01983	0.774
9.05983	0.773
9.09983	0.768
9.13983	0.759
9.17983	0.769
9.21983	0.774
9.25983	0.774
9.29982	0.778
9.33982	0.779
9.37982	0.783
9.41982	0.786
9.45982	0.788
9.49982	0.789
9.53982	0.788
9.57982	0.753
9.61982	0.657
9.65982	0.7
9.69981	0.754
9.73981	0.773
9.77981	0.781
9.81981	0.788
9.85981	0.788
9.89981	0.788
9.93981	0.791
9.97981	0.791
10.0198	0.791
10.0598	0.791
10.0998	0.783
10.1398	0.763
10.1798	0.764
10.2198	0.784
10.2598	0.784
10.2998	0.776
10.3398	0.725
10.3798	0.701
10.4198	0.759
10.4598	0.781
10.4998	0.789
10.5398	0.793
10.5798	0.793
10.6198	0.794
10.6598	0.796
10.6998	0.798
10.7398	0.798
10.7798	0.801
10.8198	0.804
10.8598	0.807
10.8998	0.807
10.9398	0.807
10.9798	0.809
11.0198	0.811
11.0598	0.812
11.0998	0.812
11.1398	0.812
11.1798	0.811
11.2198	0.807
11.2598	0.802
11.2998	0.794
11.3398	0.758
11.3798	0.66
11.4198	0.478
11.4598	0.534
11.4998	0.629
11.5398	0.518
11.5798	0.577
11.6198	0.736
11.6598	0.783
11.6998	0.793
11.7398	0.796
11.7798	0.799
11.8198	0.799
11.8598	0.794
11.8998	0.791
11.9398	0.791
11.9798	0.784
12.0198	0.776
12.0598	0.756
12.0998	0.74
12.1398	0.708
12.1798	0.584
12.2198	0.516
12.2598	0.543
12.2998	0.506
12.3398	0.536
12.3797	0.63
12.4197	0.685
12.4597	0.703
12.4997	0.716
12.5397	0.728
12.5797	0.733
12.6197	0.735
12.6597	0.731
12.6997	0.728
12.7397	0.723
12.7797	0.713
12.8197	0.701
12.8597	0.683
12.8997	0.665
12.9397	0.64
12.9797	0.586
13.0197	0.481
13.0597	0.342
13.0997	0.235
13.1397	0.163
13.1797	0.129
13.2197	0.215
13.2597	0.423
13.2997	0.548
13.3397	0.609
13.3797	0.647
13.4197	0.66
13.4597	0.66
13.4997	0.655
13.5397	0.647
13.5797	0.639
13.6197	0.625
13.6597	0.612
13.6997	0.599
13.7397	0.577
13.7797	0.561
13.8197	0.551
13.8597	0.531
13.8997	0.514
13.9397	0.48
13.9797	0.432
14.0197	0.362
14.0597	0.302
14.0997	0.306
14.1397	0.359
14.1797	0.399
14.2197	0.425
14.2597	0.425
14.2997	0.418
14.3397	0.408
14.3797	0.395
14.4197	0.385
14.4597	0.372
14.4997	0.365
14.5397	0.36
14.5797	0.357
14.6197	0.354
14.6597	0.35
14.6997	0.346
14.7397	0.332
14.7797	0.316
14.8197	0.293
14.8597	0.261
14.8997	0.251
14.9397	0.254
14.9797	0.279
15.0197	0.309
15.0597	0.326
15.0997	0.341
15.1397	0.352
15.1797	0.365
15.2197	0.372
15.2597	0.375
15.2997	0.377
15.3397	0.375
15.3797	0.375
15.4197	0.37
15.4597	0.369
15.4997	0.364
15.5397	0.359
15.5797	0.355
15.6197	0.352
15.6597	0.352
15.6997	0.352
15.7397	0.352
15.7797	0.352
