Infrared Spectrum: Glycinic acid, N-2-tert-butyl-phenyl-, ethyl ester
Formula: C14 H21 N O2
State: LIQUID (NEAT)
Class: COBLENTZ III
Instrument: BECKMAN IR-4 (HYBRID PRISM-GRATING)
Instrument parameters: NaCl PRISM
Sampling: TRANSMISSION
Path length: CAPILLARY
Resolution: 2
Origin: MONSANTO (J. FREEMAN)
1/CM	TRANSMITTANCE
626	0.6644
635	0.6679
644	0.6778
653	0.6967
662	0.7244
671	0.7311
680	0.7377
689	0.7393
698	0.7381
707	0.7264
716	0.6896
725	0.629
734	0.4013
743	0.1227
752	0.2076
761	0.5544
770	0.7402
779	0.7832
788	0.7666
797	0.7246
806	0.7633
815	0.7308
824	0.7005
833	0.7645
842	0.6704
851	0.6529
860	0.8005
869	0.825
878	0.7908
887	0.8736
896	0.892
905	0.867
914	0.8296
923	0.7651
932	0.7049
941	0.8157
950	0.838
959	0.8565
968	0.8624
977	0.8533
986	0.7955
995	0.7397
1004	0.6495
1013	0.4769
1022	0.3004
1031	0.2786
1040	0.5148
1049	0.6145
1058	0.3529
1067	0.7295
1076	0.7012
1085	0.6547
1094	0.572
1103	0.5467
1112	0.4424
1121	0.4072
1130	0.6288
1139	0.5499
1148	0.3949
1157	0.2472
1166	0.1554
1175	0.2356
1184	0.2346
1193	0.1572
1202	0.1206
1211	0.1005
1220	0.0612
1229	0.0872
1238	0.132
1247	0.1733
1256	0.2282
1265	0.3125
1274	0.3333
1283	0.3308
1292	0.2712
1301	0.3009
1310	0.3427
1319	0.2655
1328	0.2571
1337	0.4946
1346	0.4848
1355	0.2554
1364	0.2972
1373	0.3357
1382	0.1385
1391	0.3293
1400	0.4124
1409	0.3795
1418	0.5208
1427	0.5522
1436	0.5082
1445	0.3183
1454	0.1242
1463	0.1559
1472	0.3347
1481	0.3549
1490	0.334
1499	0.3509
1508	0.3747
1517	0.2644
1526	0.1594
1535	0.1718
1544	0.2964
1553	0.4249
1562	0.6688
1571	0.6866
1580	0.5551
1589	0.3493
1598	0.3574
1607	0.3931
1616	0.2527
1625	0.5343
1634	0.6431
1643	0.79
1652	0.8104
1661	0.8128
1670	0.8091
1679	0.7929
1688	0.7746
1697	0.7452
1706	0.7015
1715	0.6758
1724	0.6312
1733	0.4951
1742	0.3427
1751	0.1919
1760	0.0899
1769	0.1451
1778	0.3312
1787	0.5154
1796	0.7288
1805	0.7546
1814	0.7811
1823	0.8014
1832	0.843
1841	0.8624
1850	0.8724
1859	0.8767
1868	0.8777
1877	0.8751
1886	0.8667
1895	0.8538
1904	0.8472
1913	0.8635
1922	0.8802
1931	0.8833
1940	0.8897
1949	0.9036
1958	0.9149
1967	0.922
1976	0.9279
1985	0.9318
1994	0.9356
2003	0.9378
2012	0.9377
2021	0.9363
2030	0.9341
2039	0.9317
2048	0.9292
2057	0.9266
2066	0.9237
2075	0.923
2084	0.9242
2093	0.926
2102	0.9278
2111	0.9289
2120	0.9297
2129	0.9303
2138	0.9306
2147	0.9309
2156	0.9313
2165	0.9317
2174	0.9325
2183	0.9332
2192	0.934
2201	0.9348
2210	0.9356
2219	0.9364
2228	0.9371
2237	0.9379
2246	0.9386
2255	0.9394
2264	0.9401
2273	0.9394
2282	0.9385
2291	0.9375
2300	0.9358
2309	0.9342
2318	0.9327
2327	0.9309
2336	0.9288
2345	0.9266
2354	0.9255
2363	0.9243
2372	0.9242
2381	0.9251
2390	0.9243
2399	0.9228
2408	0.9197
2417	0.9157
2426	0.9137
2435	0.9137
2444	0.9156
2453	0.9182
2462	0.9199
2471	0.9218
2480	0.9226
2489	0.9234
2498	0.9239
2507	0.9236
2516	0.9225
2525	0.9204
2534	0.9179
2543	0.9151
2552	0.9122
2561	0.9088
2570	0.9058
2579	0.9051
2588	0.9048
2597	0.9052
2606	0.9058
2615	0.9064
2624	0.9073
2633	0.9082
2642	0.9085
2651	0.9081
2660	0.9076
2669	0.9071
2678	0.9066
2687	0.9053
2696	0.9039
2705	0.9024
2714	0.9001
2723	0.8974
2732	0.8925
2741	0.8874
2750	0.8807
2759	0.8739
2768	0.8631
2777	0.8485
2786	0.8334
2795	0.8141
2804	0.7977
2813	0.7807
2822	0.7535
2831	0.7394
2840	0.7254
2849	0.7084
2858	0.6887
2867	0.6644
2876	0.6334
2885	0.5791
2894	0.4865
2903	0.4035
2912	0.3843
2921	0.3713
2930	0.3552
2939	0.3382
2948	0.3207
2957	0.3044
2966	0.2918
2975	0.269
2984	0.2412
2993	0.2117
3002	0.1886
3011	0.1872
3020	0.2114
3029	0.2678
3038	0.324
3047	0.3798
3056	0.4352
3065	0.4903
3074	0.5452
3083	0.5973
3092	0.5982
3101	0.5994
3110	0.6335
3119	0.6927
3128	0.7516
3137	0.8102
3146	0.8572
3155	0.8668
3164	0.8721
3173	0.877
3182	0.8813
3191	0.8859
3200	0.8916
3209	0.8982
3218	0.9001
3227	0.9017
3236	0.9019
3245	0.902
3254	0.9021
3263	0.9019
3272	0.9016
3281	0.9012
3290	0.9008
3299	0.9
3308	0.8992
3317	0.8979
3326	0.8958
3335	0.893
3344	0.8883
3353	0.8792
3362	0.8695
3371	0.8598
3380	0.8499
3389	0.8391
3398	0.8259
3407	0.8121
3416	0.798
3425	0.7805
3434	0.7654
3443	0.7534
3452	0.7154
3461	0.6648
3470	0.6144
3479	0.5642
3488	0.5143
3497	0.4648
3506	0.4412
3515	0.4419
3524	0.5398
3533	0.6639
3542	0.782
3551	0.8254
3560	0.8438
3569	0.8579
3578	0.8679
3587	0.8754
3596	0.879
3605	0.8822
3614	0.884
3623	0.8855
3632	0.887
3641	0.8881
3650	0.889
3659	0.8899
3668	0.8906
3677	0.891
3686	0.8913
3695	0.8917
3704	0.8921
3713	0.8924
3722	0.8926
3731	0.8927
3740	0.893
3749	0.8932
3758	0.8934
3767	0.8936
3776	0.8938
3785	0.8938
3794	0.8938
3803	0.8938
3812	0.8937
3821	0.8937
3830	0.8936
3839	0.8935
3848	0.893
3857	0.8925
3866	0.892
3875	0.8916
3884	0.8911
3893	0.8906
3902	0.8902
3911	0.8896
3920	0.8889
3929	0.8881
3938	0.8874
3947	0.8866
3956	0.8858
3965	0.8851
3974	0.8843
3983	0.8836
3992	0.8826
