Infrared Spectrum: Penicillin, 3-pyridylmethyl-, potassium salt
Formula: C15 H16 K N3 O4 S
State: SOLID (OIL MULL)
Class: COBLENTZ III
Instrument: PERKIN-ELMER 21 (GRATING)
Instrument parameters: NaCl PRISM
Sampling: TRANSMISSION
Resolution: 2
Origin: SMITH, KLINE & FRENCH LABS.
1/CM	TRANSMITTANCE
659	0.6168
668	0.7109
677	0.7264
686	0.7354
695	0.7382
704	0.6573
713	0.71
722	0.7205
731	0.709
740	0.6247
749	0.7432
758	0.7101
767	0.6323
776	0.8053
785	0.8318
794	0.8154
803	0.7885
812	0.8125
821	0.8372
830	0.8403
839	0.8381
848	0.8137
857	0.8416
866	0.828
875	0.8132
884	0.7668
893	0.81
902	0.8242
911	0.8044
920	0.7793
929	0.7617
938	0.7735
947	0.7559
956	0.7277
965	0.7767
974	0.7581
983	0.7079
992	0.7584
1001	0.7327
1010	0.7641
1019	0.718
1028	0.6945
1037	0.7872
1046	0.7775
1055	0.8067
1064	0.8097
1073	0.7809
1082	0.7683
1091	0.7003
1100	0.6835
1109	0.7216
1118	0.6701
1127	0.4909
1136	0.6526
1145	0.6967
1154	0.646
1163	0.6981
1172	0.6966
1181	0.6161
1190	0.6887
1199	0.6693
1208	0.7022
1217	0.7314
1226	0.7113
1235	0.6111
1244	0.6047
1253	0.5292
1262	0.6256
1271	0.6348
1280	0.6755
1289	0.6255
1298	0.5681
1307	0.4646
1316	0.3371
1325	0.285
1334	0.3417
1343	0.497
1352	0.5386
1361	0.3709
1370	0.2423
1379	0.3773
1388	0.446
1397	0.533
1406	0.6446
1415	0.5587
1424	0.5546
1433	0.3666
1442	0.2183
1451	0.1467
1460	0.1308
1469	0.3556
1478	0.4512
1487	0.549
1496	0.5048
1505	0.3898
1514	0.352
1523	0.4906
1532	0.6308
1541	0.6637
1550	0.6818
1559	0.6504
1568	0.5497
1577	0.4954
1586	0.3081
1595	0.1388
1604	0.168
1613	0.4712
1622	0.6984
1631	0.7364
1640	0.7352
1649	0.7066
1658	0.572
1667	0.2378
1676	0.3055
1685	0.6565
1694	0.7254
1703	0.7559
1712	0.755
1721	0.7504
1730	0.7034
1739	0.6107
1748	0.4223
1757	0.3898
1766	0.161
1775	0.2022
1784	0.4663
1793	0.681
1802	0.7561
1811	0.8133
1820	0.8206
1829	0.846
1838	0.8441
1847	0.8518
1856	0.8469
1865	0.8437
1874	0.8442
1883	0.845
1892	0.8462
1901	0.8487
1910	0.8564
1919	0.858
1928	0.8535
1937	0.8596
1946	0.8593
1955	0.8582
1964	0.8577
1973	0.8573
1982	0.857
1991	0.8567
2000	0.8562
2009	0.8545
2018	0.8523
2027	0.85
2036	0.8488
2045	0.8498
2054	0.8524
2063	0.8552
2072	0.8522
2081	0.8486
2090	0.8465
2099	0.8439
2108	0.8459
2117	0.8514
2126	0.8518
2135	0.8519
2144	0.852
2153	0.8526
2162	0.8518
2171	0.8483
2180	0.8425
2189	0.8384
2198	0.8382
2207	0.8388
2216	0.8429
2225	0.8406
2234	0.8368
2243	0.8364
2252	0.8379
2261	0.8422
2270	0.8467
2279	0.8504
2288	0.8527
2297	0.8547
2306	0.8562
2315	0.8554
2324	0.8519
2333	0.8481
2342	0.8441
2351	0.8397
2360	0.8353
2369	0.8303
2378	0.825
2387	0.8234
2396	0.829
2405	0.8371
2414	0.8324
2423	0.8303
2432	0.8327
2441	0.8375
2450	0.838
2459	0.8306
2468	0.8226
2477	0.8154
2486	0.808
2495	0.7995
2504	0.7937
2513	0.79
2522	0.787
2531	0.7843
2540	0.7816
2549	0.7771
2558	0.7695
2567	0.7608
2576	0.7538
2585	0.752
2594	0.7543
2603	0.7565
2612	0.7494
2621	0.7412
2630	0.7308
2639	0.7082
2648	0.6991
2657	0.6973
2666	0.6952
2675	0.6918
2684	0.6835
2693	0.665
2702	0.6441
2711	0.6085
2720	0.5855
2729	0.5557
2738	0.5096
2747	0.4697
2756	0.4381
2765	0.3987
2774	0.3258
2783	0.2614
2792	0.1869
2801	0.1454
2810	0.1314
2819	0.1276
2828	0.1275
2837	0.1275
2846	0.1281
2855	0.1346
2864	0.1501
2873	0.1633
2882	0.2023
2891	0.2342
2900	0.2708
2909	0.3071
2918	0.3432
2927	0.4316
2936	0.4921
2945	0.5522
2954	0.6119
2963	0.6685
2972	0.6957
2981	0.7069
2990	0.7111
2999	0.7142
3008	0.7163
3017	0.7181
3026	0.719
3035	0.7195
3044	0.7198
3053	0.7196
3062	0.7189
3071	0.7178
3080	0.7151
3089	0.7129
3098	0.7111
3107	0.7095
3116	0.7079
3125	0.7067
3134	0.7055
3143	0.7034
3152	0.696
3161	0.6914
3170	0.6903
3179	0.6906
3188	0.691
3197	0.6917
3206	0.6937
3215	0.6991
3224	0.7092
3233	0.7193
3242	0.7323
3251	0.7525
3260	0.7698
3269	0.7831
3278	0.7993
3287	0.8126
3296	0.8208
3305	0.8247
3314	0.827
3323	0.8281
3332	0.8286
3341	0.8291
3350	0.8291
3359	0.8289
3368	0.8287
3377	0.8284
3386	0.828
3395	0.8277
3404	0.8277
3413	0.8285
3422	0.8303
3431	0.8337
3440	0.8357
3449	0.835
3458	0.8328
3467	0.8301
3476	0.8266
3485	0.8259
3494	0.8315
3503	0.8376
3512	0.8422
3521	0.8455
3530	0.8445
3539	0.8426
3548	0.8407
3557	0.8401
3566	0.8404
3575	0.8405
3584	0.8404
3593	0.84
3602	0.8395
3611	0.8384
3620	0.8373
3629	0.8361
3638	0.8346
3647	0.8331
3656	0.8317
3665	0.8301
3674	0.8283
3683	0.8264
3692	0.8246
3701	0.8227
3710	0.8209
3719	0.819
3728	0.8172
3737	0.8157
3746	0.8145
3755	0.8132
3764	0.812
3773	0.8116
3782	0.8113
3791	0.8119
3800	0.8127
3809	0.8133
3818	0.8132
3827	0.8128
3836	0.8123
3845	0.8118
3854	0.8113
3863	0.8107
3872	0.8101
3881	0.8095
3890	0.8091
3899	0.8086
3908	0.8081
3917	0.8076
3926	0.8072
3935	0.8069
3944	0.8065
3953	0.8062
3962	0.8038
3971	0.799
3980	0.794
3989	0.7923
3998	0.7924
