Infrared Spectrum: BARIUM PERMANGANATE
Formula: Ba ( Mn O4)2
State: SOLID (NUJOL MULL)
Class: COBLENTZ
Instrument: Not specified, most likely a prism, grating, or hybrid spectrometer.
Sampling: TRANSMISSION
Resolution: 4
Origin: MELLON INSTITUTE
MICROMETERS	TRANSMITTANCE
2.019	0.452
2.05987	0.461
2.10074	0.473
2.1416	0.487
2.18247	0.497
2.22334	0.504
2.26421	0.516
2.30507	0.521
2.34594	0.533
2.38681	0.543
2.42768	0.552
2.46854	0.564
2.50941	0.578
2.55028	0.584
2.59115	0.59
2.63201	0.598
2.67288	0.602
2.71375	0.615
2.75462	0.62
2.79549	0.626
2.83635	0.631
2.87722	0.632
2.91809	0.636
2.95896	0.641
2.99982	0.646
3.04069	0.65
3.08156	0.653
3.12243	0.662
3.16329	0.668
3.20416	0.672
3.24503	0.674
3.2859	0.651
3.32676	0.555
3.36763	0.234
3.4085	0.241
3.44937	0.351
3.49024	0.385
3.5311	0.715
3.57197	0.751
3.61284	0.763
3.65371	0.77
3.69457	0.777
3.73544	0.78
3.77631	0.783
3.81718	0.79
3.85804	0.799
3.89891	0.802
3.93978	0.809
3.98065	0.813
4.02151	0.818
4.06238	0.818
4.10325	0.819
4.14412	0.823
4.18499	0.825
4.22585	0.804
4.26672	0.802
4.30759	0.797
4.34846	0.802
4.38932	0.825
4.43019	0.838
4.47106	0.84
4.51193	0.838
4.55279	0.84
4.59366	0.842
4.63453	0.845
4.6754	0.85
4.71626	0.849
4.75713	0.85
4.798	0.85
4.83887	0.854
4.87973	0.857
4.9206	0.862
4.96147	0.867
5.00234	0.871
5.04321	0.876
5.08407	0.878
5.12494	0.881
5.16581	0.888
5.20668	0.891
5.24754	0.893
5.28841	0.895
5.32928	0.898
5.37015	0.893
5.41101	0.893
5.45188	0.891
5.49275	0.891
5.53362	0.897
5.57448	0.9
5.61535	0.902
5.65622	0.902
5.69709	0.9
5.73796	0.895
5.77882	0.893
5.81969	0.902
5.86056	0.902
5.90143	0.893
5.94229	0.903
5.98316	0.9
6.02403	0.905
6.0649	0.914
6.10576	0.909
6.14663	0.91
6.1875	0.914
6.22837	0.922
6.26923	0.924
6.3101	0.921
6.35097	0.914
6.39184	0.917
6.43271	0.905
6.47357	0.912
6.51444	0.903
6.55531	0.903
6.59618	0.909
6.63704	0.91
6.67791	0.915
6.71878	0.903
6.75965	0.85
6.80051	0.751
6.84138	0.653
6.88225	0.668
6.92312	0.754
6.96398	0.849
7.00485	0.89
7.04572	0.893
7.08659	0.915
7.12746	0.919
7.16832	0.903
7.20919	0.813
7.25006	0.777
7.29093	0.842
7.33179	0.883
7.37266	0.905
7.41353	0.903
7.4544	0.905
7.49526	0.922
7.53613	0.929
7.577	0.927
7.61787	0.926
7.65873	0.926
7.6996	0.929
7.74047	0.933
7.78134	0.938
7.82221	0.941
7.86307	0.941
7.90394	0.938
7.94481	0.936
7.98568	0.941
8.02654	0.943
8.06741	0.941
8.10828	0.938
8.14915	0.941
8.19001	0.943
8.23088	0.941
8.27175	0.941
8.31262	0.941
8.35348	0.945
8.39435	0.948
8.43522	0.946
8.47609	0.948
8.51696	0.948
8.55782	0.945
8.59869	0.939
8.63956	0.943
8.68043	0.945
8.72129	0.946
8.76216	0.946
8.80303	0.945
8.8439	0.943
8.88476	0.946
8.92563	0.948
8.9665	0.948
9.00737	0.95
9.04823	0.951
9.0891	0.948
9.12997	0.945
9.17084	0.945
9.21171	0.946
9.25257	0.948
9.29344	0.948
9.33431	0.945
9.37518	0.945
9.41604	0.948
9.45691	0.951
9.49778	0.951
9.53865	0.95
9.57951	0.95
9.62038	0.955
9.66125	0.957
9.70212	0.957
9.74298	0.957
9.78385	0.958
9.82472	0.963
9.86559	0.965
9.90646	0.965
9.94732	0.967
9.98819	0.967
10.0291	0.962
10.0699	0.962
10.1108	0.963
10.1517	0.963
10.1925	0.962
10.2334	0.955
10.2743	0.948
10.3151	0.943
10.356	0.936
10.3969	0.927
10.4377	0.903
10.4786	0.833
10.5195	0.732
10.5603	0.519
10.6012	0.38
10.6421	0.277
10.6829	0.267
10.7238	0.265
10.7647	0.272
10.8055	0.26
10.8464	0.238
10.8873	0.21
10.9281	0.186
10.969	0.183
11.0099	0.317
11.0507	0.444
11.0916	0.523
11.1325	0.531
11.1734	0.5
11.2142	0.428
11.2551	0.37
11.296	0.324
11.3368	0.305
11.3777	0.296
11.4186	0.293
11.4594	0.317
11.5003	0.356
11.5412	0.435
11.582	0.542
11.6229	0.667
11.6638	0.727
11.7046	0.778
11.7455	0.819
11.7864	0.845
11.8272	0.849
11.8681	0.759
11.909	0.602
11.9498	0.691
11.9907	0.802
12.0316	0.861
12.0724	0.876
12.1133	0.893
12.1542	0.905
12.195	0.912
12.2359	0.919
12.2768	0.924
12.3176	0.929
12.3585	0.933
12.3994	0.938
12.4402	0.943
12.4811	0.948
12.522	0.95
12.5629	0.951
12.6037	0.953
12.6446	0.953
12.6855	0.95
12.7263	0.945
12.7672	0.941
12.8081	0.938
12.8489	0.936
12.8898	0.939
12.9307	0.941
12.9715	0.945
13.0124	0.948
13.0533	0.95
13.0941	0.95
13.135	0.951
13.1759	0.95
13.2167	0.951
13.2576	0.951
13.2985	0.95
13.3393	0.948
13.3802	0.946
13.4211	0.945
13.4619	0.945
13.5028	0.945
13.5437	0.946
13.5845	0.946
13.6254	0.945
13.6663	0.939
13.7071	0.938
13.748	0.936
13.7889	0.933
13.8297	0.929
13.8706	0.929
13.9115	0.933
13.9524	0.934
13.9932	0.939
14.0341	0.939
14.075	0.939
14.1158	0.938
14.1567	0.938
14.1976	0.934
14.2384	0.929
14.2793	0.922
14.3202	0.915
14.361	0.914
14.4019	0.907
14.4428	0.9
14.4836	0.893
14.5245	0.886
14.5654	0.881
14.6062	0.867
14.6471	0.862
14.688	0.855
14.7288	0.845
14.7697	0.835
14.8106	0.823
14.8514	0.801
14.8923	0.792
14.9332	0.792
14.974	0.79
15.0149	0.783
15.0558	0.778
15.0966	0.77
15.1375	0.758
15.1784	0.749
15.2192	0.74
15.2601	0.734
15.301	0.723
15.3419	0.713
15.3827	0.704
15.4236	0.694
15.4645	0.684
15.5053	0.675
15.5462	0.665
15.5871	0.66
15.6279	0.651
15.6688	0.644
15.7097	0.634
15.7505	0.622
15.7914	0.612
15.8323	0.605
15.8731	0.598
15.914	0.593
15.9549	0.59
