Infrared Spectrum: Cyclohexanamine, N-methyl-, hydrochloride
Formula: C7 H16 Cl N
State: SOLID (KBr DISC, 1% WT.)
Class: COBLENTZ III
Instrument: PERKIN-ELMER 157
Sampling: TRANSMISSION
Resolution: 2
Origin: BRITISH PETROLEUM CO. LTD., ENGLAND
1/CM	TRANSMITTANCE
668	0.9909
677	0.9706
686	0.9532
695	0.9384
704	0.9269
713	0.9051
722	0.8876
731	0.8659
740	0.8635
749	0.8609
758	0.8507
767	0.8424
776	0.8255
785	0.7497
794	0.7428
803	0.7888
812	0.786
821	0.7788
830	0.7648
839	0.7124
848	0.6604
857	0.6601
866	0.7293
875	0.7412
884	0.7161
893	0.5522
902	0.6169
911	0.4645
920	0.2405
929	0.5038
938	0.6817
947	0.743
956	0.7447
965	0.7378
974	0.719
983	0.7118
992	0.7035
1001	0.6239
1010	0.4082
1019	0.4993
1028	0.2367
1037	0.3104
1046	0.0799
1055	0.3017
1064	0.6034
1073	0.6577
1082	0.4464
1091	0.5731
1100	0.6137
1109	0.4112
1118	0.5435
1127	0.6821
1136	0.6486
1145	0.3778
1154	0.7003
1163	0.7286
1172	0.7178
1181	0.6504
1190	0.7195
1199	0.7131
1208	0.7093
1217	0.6769
1226	0.7301
1235	0.711
1244	0.6985
1253	0.6098
1262	0.63
1271	0.5924
1280	0.6616
1289	0.6521
1298	0.6234
1307	0.576
1316	0.4311
1325	0.4943
1334	0.5312
1343	0.4571
1352	0.4258
1361	0.368
1370	0.2428
1379	0.3252
1388	0.4217
1397	0.4003
1406	0.3601
1415	0.301
1424	0.1349
1433	0.1407
1442	0.0865
1451	0.0417
1460	0.0648
1469	0.0596
1478	0.154
1487	0.3629
1496	0.4554
1505	0.5166
1514	0.5291
1523	0.532
1532	0.5326
1541	0.5329
1550	0.5157
1559	0.4798
1568	0.4301
1577	0.2324
1586	0.0805
1595	0.223
1604	0.3807
1613	0.5059
1622	0.5104
1631	0.5155
1640	0.5269
1649	0.5735
1658	0.6176
1667	0.6295
1676	0.6307
1685	0.6172
1694	0.5987
1703	0.5699
1712	0.5795
1721	0.5953
1730	0.6313
1739	0.6346
1748	0.6096
1757	0.5937
1766	0.5831
1775	0.5832
1784	0.6037
1793	0.6414
1802	0.6496
1811	0.6488
1820	0.6282
1829	0.5944
1838	0.5855
1847	0.5883
1856	0.6109
1865	0.6272
1874	0.6484
1883	0.6499
1892	0.6496
1901	0.646
1910	0.6296
1919	0.5852
1928	0.5833
1937	0.5994
1946	0.6117
1955	0.6419
1964	0.6492
1973	0.65
1982	0.6493
1991	0.643
2000	0.6347
2009	0.6201
2018	0.6124
2027	0.5878
2036	0.5682
2045	0.5769
2054	0.5917
2063	0.6062
2072	0.62
2081	0.6305
2090	0.6288
2099	0.6242
2108	0.6182
2117	0.6012
2126	0.6001
2135	0.604
2144	0.6056
2153	0.6009
2162	0.5948
2171	0.5871
2180	0.5823
2189	0.579
2198	0.577
2207	0.5738
2216	0.5661
2225	0.5582
2234	0.5559
2243	0.5555
2252	0.5555
2261	0.5478
2270	0.535
2279	0.5221
2288	0.5155
2297	0.5102
2306	0.5011
2315	0.4831
2324	0.4512
2333	0.4211
2342	0.3683
2351	0.322
2360	0.3111
2369	0.3084
2378	0.3078
2387	0.2992
2396	0.2394
2405	0.1788
2414	0.1187
2423	0.0841
2432	0.0852
2441	0.1721
2450	0.1912
2459	0.2108
2468	0.1955
2477	0.1623
2486	0.1293
2495	0.1154
2504	0.1476
2513	0.1766
2522	0.185
2531	0.1887
2540	0.1881
2549	0.1816
2558	0.1759
2567	0.1518
2576	0.1405
2585	0.1331
2594	0.1271
2603	0.1205
2612	0.1123
2621	0.0873
2630	0.0767
2639	0.0603
2648	0.0409
2657	0.0287
2666	0.0177
2675	0.0113
2684	0.01
2693	0.0093
2702	0.009
2711	0.0088
2720	0.0087
2729	0.0086
2738	0.0084
2747	0.0082
2756	0.0079
2765	0.0078
2774	0.0078
2783	0.0077
2792	0.0076
2801	0.0075
2810	0.0076
2819	0.0077
2828	0.0078
2837	0.0079
2846	0.008
2855	0.0083
2864	0.0086
2873	0.0089
2882	0.0092
2891	0.0095
2900	0.0098
2909	0.0102
2918	0.0107
2927	0.0111
2936	0.0116
2945	0.012
2954	0.0124
2963	0.0133
2972	0.0166
2981	0.0208
2990	0.0242
2999	0.0256
3008	0.0266
3017	0.0282
3026	0.0351
3035	0.0514
3044	0.0658
3053	0.0782
3062	0.0935
3071	0.1214
3080	0.1401
3089	0.1568
3098	0.172
3107	0.1816
3116	0.1897
3125	0.1951
3134	0.1999
3143	0.2048
3152	0.2135
3161	0.2266
3170	0.26
3179	0.2713
3188	0.2816
3197	0.2962
3206	0.3089
3215	0.316
3224	0.3208
3233	0.3247
3242	0.3283
3251	0.3319
3260	0.3348
3269	0.3371
3278	0.3376
3287	0.3375
3296	0.3365
3305	0.3353
3314	0.3339
3323	0.3328
3332	0.3317
3341	0.3304
3350	0.3289
3359	0.3277
3368	0.3269
3377	0.3267
3386	0.3273
3395	0.328
3404	0.3289
3413	0.33
3422	0.3314
3431	0.3328
3440	0.3344
3449	0.3367
3458	0.3392
3467	0.3427
3476	0.3469
3485	0.3517
3494	0.3579
3503	0.3634
3512	0.3688
3521	0.3744
3530	0.3799
3539	0.3857
3548	0.3926
3557	0.4001
3566	0.4049
3575	0.4067
3584	0.4078
3593	0.4085
3602	0.4092
3611	0.4098
3620	0.4101
3629	0.4104
3638	0.4106
3647	0.4107
3656	0.4106
3665	0.4104
3674	0.41
3683	0.4098
3692	0.4089
3701	0.4076
3710	0.4052
3719	0.4024
3728	0.3997
3737	0.3988
3746	0.3979
3755	0.397
3764	0.3961
3773	0.3951
3782	0.394
3791	0.3929
3800	0.3917
3809	0.3905
3818	0.3889
3827	0.3873
3836	0.3858
3845	0.3835
3854	0.3803
3863	0.3767
3872	0.3758
3881	0.3758
3890	0.3758
3899	0.3758
3908	0.3759
3917	0.3758
3926	0.3755
3935	0.3754
3944	0.3752
3953	0.375
3962	0.3747
3971	0.3744
3980	0.3739
3989	0.3732
3998	0.3725
