Infrared Spectrum: 1,3,4,6-TETRACHLORO-3Alpha,6Alpha-DIPHENYL-GLYCOLURIL
Formula: C16 H10 Cl4 N4 O2
State: SOLID (1.0% IN KBr PELLET)
Class: COBLENTZ
Instrument: Not specified, most likely a prism, grating, or hybrid spectrometer.
Sampling: TRANSMISSION
Path length: 0.0355 CM THICK
Resolution: 4
Origin: ANDERSON PHYSICAL LABORATORY
1/CM	TRANSMITTANCE
667.603	0.73
676.03	0.712
684.457	0.5951
692.884	0.4181
701.311	0.1901
709.738	0.3109
718.165	0.706
726.592	0.698
735.019	0.508
743.446	0.637
751.873	0.533
760.3	0.7688
768.727	0.803
777.154	0.79
785.581	0.793
794.008	0.6981
802.435	0.3771
810.862	0.43
819.289	0.472
827.716	0.602
836.143	0.845
844.57	0.83
852.997	0.785
861.424	0.721
869.851	0.857
878.278	0.923
886.705	0.929
895.131	0.923
903.558	0.911
911.985	0.892
920.412	0.859
928.839	0.803
937.266	0.6911
945.693	0.517
954.12	0.8529
962.547	0.877
970.974	0.872
979.401	0.871
987.828	0.866
996.255	0.863
1004.68	0.847
1013.11	0.871
1021.54	0.847
1029.96	0.758
1038.39	0.7369
1046.82	0.838
1055.24	0.802
1063.67	0.758
1072.1	0.668
1080.53	0.536
1088.95	0.542
1097.38	0.526
1105.81	0.526
1114.23	0.529
1122.66	0.565
1131.09	0.4421
1139.51	0.241
1147.94	0.31
1156.37	0.484
1164.79	0.607
1173.22	0.71
1181.65	0.751
1190.08	0.758
1198.5	0.778
1206.93	0.772
1215.36	0.721
1223.78	0.625
1232.21	0.451
1240.64	0.313
1249.06	0.302
1257.49	0.299
1265.92	0.3609
1274.35	0.614
1282.77	0.715
1291.2	0.673
1299.63	0.595
1308.05	0.467
1316.48	0.232
1324.91	0.085
1333.33	0.094
1341.76	0.182
1350.19	0.3049
1358.62	0.4519
1367.04	0.5739
1375.47	0.64
1383.9	0.68
1392.32	0.719
1400.75	0.742
1409.18	0.751
1417.6	0.755
1426.03	0.773
1434.46	0.775
1442.89	0.749
1451.31	0.6082
1459.74	0.5117
1468.17	0.844
1476.59	0.841
1485.02	0.836
1493.45	0.79
1501.87	0.803
1510.3	0.874
1518.73	0.905
1527.16	0.905
1535.58	0.901
1544.01	0.898
1552.44	0.899
1560.86	0.904
1569.29	0.901
1577.72	0.878
1586.14	0.859
1594.57	0.838
1603	0.815
1611.42	0.8
1619.85	0.773
1628.28	0.766
1636.71	0.761
1645.13	0.752
1653.56	0.737
1661.99	0.725
1670.41	0.661
1678.84	0.598
1687.27	0.545
1695.69	0.493
1704.12	0.454
1712.55	0.391
1720.98	0.34
1729.4	0.316
1737.83	0.263
1746.26	0.14
1754.68	0.05
1763.11	0.038
1771.54	0.041
1779.96	0.059
1788.39	0.1909
1796.82	0.5379
1805.25	0.755
1813.67	0.866
1822.1	0.908
1830.53	0.929
1838.95	0.944
1847.38	0.956
1855.81	0.955
1864.23	0.953
1872.66	0.952
1881.09	0.937
1889.52	0.937
1897.94	0.937
1906.37	0.947
1914.8	0.95
1923.22	0.976
1931.65	0.98
1940.08	0.974
1948.5	0.967
1956.93	0.955
1965.36	0.947
1973.79	0.959
1982.21	0.97
1990.64	0.976
1999.07	0.985
2007.49	0.985
2015.92	0.983
2024.35	0.982
2032.77	0.9805
2041.2	0.98
2049.63	0.977
2058.05	0.976
2066.48	0.977
2074.91	0.979
2083.34	0.98
2091.76	0.98
2100.19	0.98
2108.62	0.98
2117.04	0.979
2125.47	0.977
2133.9	0.9744
2142.32	0.9729
2150.75	0.971
2159.18	0.971
2167.61	0.97
2176.03	0.9679
2184.46	0.965
2192.89	0.965
2201.31	0.968
2209.74	0.9649
2218.17	0.962
2226.59	0.962
2235.02	0.9637
2243.45	0.965
2251.88	0.967
2260.3	0.967
2268.73	0.9652
2277.16	0.9637
2285.58	0.9616
2294.01	0.961
2302.44	0.961
2310.86	0.959
2319.29	0.959
2327.72	0.959
2336.15	0.959
2344.57	0.959
2353	0.958
2361.43	0.958
2369.85	0.958
2378.28	0.958
2386.71	0.956
2395.13	0.955
2403.56	0.953
2411.99	0.95
2420.42	0.949
2428.84	0.947
2437.27	0.946
2445.7	0.9438
2454.12	0.94
2462.55	0.94
2470.98	0.937
2479.4	0.9348
2487.83	0.934
2496.26	0.934
2504.68	0.934
2513.11	0.934
2521.54	0.9345
2529.97	0.9365
2538.39	0.941
2546.82	0.9448
2555.25	0.951
2563.67	0.9497
2572.1	0.9379
2580.53	0.935
2588.95	0.934
2597.38	0.9348
2605.81	0.935
2614.24	0.935
2622.66	0.935
2631.09	0.935
2639.52	0.9351
2647.94	0.937
2656.37	0.937
2664.8	0.9342
2673.22	0.932
2681.65	0.931
2690.08	0.9292
2698.51	0.9227
2706.93	0.9199
2715.36	0.919
2723.79	0.9178
2732.21	0.9134
2740.64	0.9019
2749.07	0.895
2757.49	0.8924
2765.92	0.89
2774.35	0.8869
2782.78	0.884
2791.2	0.883
2799.63	0.881
2808.06	0.8834
2816.48	0.887
2824.91	0.889
2833.34	0.8872
2841.76	0.8857
2850.19	0.881
2858.62	0.88
2867.05	0.88
2875.47	0.8775
2883.9	0.8701
2892.33	0.868
2900.75	0.8661
2909.18	0.865
2917.61	0.865
2926.03	0.8636
2934.46	0.8601
2942.89	0.8568
2951.31	0.8526
2959.74	0.8427
2968.17	0.8321
2976.6	0.8226
2985.02	0.8111
2993.45	0.7976
3001.88	0.7841
3010.3	0.767
3018.73	0.7475
3027.16	0.7242
3035.58	0.706
3044.01	0.704
3052.44	0.7076
3060.87	0.7146
3069.29	0.7271
3077.72	0.731
3086.15	0.7305
3094.57	0.7246
3103	0.719
3111.43	0.718
3119.85	0.7154
3128.28	0.7122
3136.71	0.7088
3145.14	0.7037
3153.56	0.701
3161.99	0.7
3170.42	0.6979
3178.84	0.695
3187.27	0.6962
3195.7	0.698
3204.12	0.7001
3212.55	0.7033
3220.98	0.7052
3229.41	0.7125
3237.83	0.7162
3246.26	0.721
3254.69	0.721
3263.11	0.721
3271.54	0.7177
3279.97	0.713
3288.39	0.712
3296.82	0.7102
3305.25	0.7034
3313.68	0.6898
3322.1	0.683
3330.53	0.6791
3338.96	0.6695
3347.38	0.6573
3355.81	0.65
3364.24	0.6415
3372.66	0.631
3381.09	0.6241
3389.52	0.622
3397.94	0.622
3406.37	0.617
3414.8	0.616
3423.23	0.616
3431.65	0.617
3440.08	0.6252
3448.51	0.6269
3456.93	0.629
3465.36	0.631
3473.79	0.631
3482.21	0.6345
3490.64	0.6424
3499.07	0.652
3507.5	0.662
3515.92	0.6805
3524.35	0.6857
3532.78	0.6971
3541.2	0.7033
3549.63	0.7071
3558.06	0.7228
3566.48	0.7301
3574.91	0.7427
3583.34	0.7602
3591.77	0.7717
3600.19	0.7852
3608.62	0.7985
3617.05	0.8132
3625.47	0.8274
3633.9	0.83
3642.33	0.8281
3650.75	0.8234
3659.18	0.823
3667.61	0.8294
3676.04	0.837
3684.46	0.841
3692.89	0.8393
3701.32	0.8386
3709.74	0.8327
3718.17	0.832
3726.6	0.8329
3735.02	0.8411
3743.45	0.8444
3751.88	0.8462
3760.31	0.847
3768.73	0.847
3777.16	0.845
3785.59	0.8421
3794.01	0.8353
3802.44	0.833
3810.87	0.8374
3819.29	0.844
3827.72	0.8366
3836.15	0.8263
3844.57	0.821
3853	0.8237
3861.43	0.8295
3869.86	0.8394
3878.28	0.8397
3886.71	0.833
3895.14	0.832
3903.56	0.8352
3911.99	0.836
3920.42	0.8315
3928.84	0.8181
3937.27	0.8106
3945.7	0.809
3954.13	0.809
3962.55	0.811
3970.98	0.8124
3979.41	0.815
3987.83	0.8165
