Infrared Spectrum: DEHYDROACETIC ACID, COPPER SALT
Formula: C16 H14 O8 Cu
State: SOLID (MINERAL OIL MULL)
Class: COBLENTZ
Instrument: Not specified, most likely a prism, grating, or hybrid spectrometer.
Sampling: TRANSMISSION
Resolution: 4
Origin: DOW CHEMICAL COMPANY
MICROMETERS	TRANSMITTANCE
2.021	0.322
2.06205	0.332
2.10311	0.346
2.14416	0.356
2.18522	0.372
2.22627	0.38
2.26732	0.373
2.30838	0.372
2.34943	0.382
2.39049	0.401
2.43154	0.414
2.47259	0.424
2.51365	0.438
2.5547	0.452
2.59576	0.465
2.63681	0.477
2.67786	0.491
2.71892	0.503
2.75997	0.51
2.80103	0.513
2.84208	0.522
2.88314	0.523
2.92419	0.52
2.96524	0.525
3.0063	0.539
3.04735	0.54
3.08841	0.54
3.12946	0.532
3.17051	0.513
3.21157	0.489
3.25262	0.482
3.29368	0.476
3.33473	0.343
3.37578	0.035
3.41684	0.025
3.45789	0.032
3.49895	0.071
3.54	0.351
3.58105	0.554
3.62211	0.617
3.66316	0.602
3.70422	0.621
3.74527	0.626
3.78632	0.624
3.82738	0.65
3.86843	0.67
3.90949	0.699
3.95054	0.72
3.99159	0.735
4.03265	0.749
4.0737	0.737
4.11476	0.74
4.15581	0.749
4.19687	0.75
4.23792	0.755
4.27897	0.773
4.32003	0.795
4.36108	0.796
4.40214	0.8
4.44319	0.81
4.48424	0.8
4.5253	0.822
4.56635	0.82
4.60741	0.82
4.64846	0.829
4.68951	0.834
4.73057	0.829
4.77162	0.846
4.81268	0.853
4.85373	0.851
4.89478	0.853
4.93584	0.851
4.97689	0.853
5.01795	0.865
5.059	0.878
5.10005	0.877
5.14111	0.88
5.18216	0.899
5.22322	0.872
5.26427	0.878
5.30532	0.868
5.34638	0.798
5.38743	0.836
5.42849	0.899
5.46954	0.901
5.5106	0.889
5.55165	0.877
5.5927	0.848
5.63376	0.762
5.67481	0.75
5.71587	0.718
5.75692	0.52
5.79797	0.151
5.83903	0.046
5.88008	0.04
5.92114	0.237
5.96219	0.457
6.00324	0.31
6.0443	0.09
6.08535	0.066
6.12641	0.303
6.16746	0.453
6.20851	0.51
6.24957	0.423
6.29062	0.151
6.33168	0.029
6.37273	0.03
6.41378	0.046
6.45484	0.063
6.49589	0.22
6.53695	0.365
6.578	0.447
6.61905	0.457
6.66011	0.383
6.70116	0.238
6.74222	0.032
6.78327	0.063
6.82433	0.058
6.86538	0.04
6.90643	0.029
6.94749	0.025
6.98854	0.037
7.0296	0.083
7.07065	0.199
7.1117	0.22
7.15276	0.116
7.19381	0.069
7.23487	0.092
7.27592	0.071
7.31697	0.145
7.35803	0.179
7.39908	0.08
7.44014	0.257
7.48119	0.394
7.52224	0.469
7.5633	0.529
7.60435	0.558
7.64541	0.576
7.68646	0.593
7.72751	0.627
7.76857	0.639
7.80962	0.602
7.85068	0.477
7.89173	0.544
7.93278	0.662
7.97384	0.689
8.01489	0.684
8.05595	0.607
8.097	0.407
8.13806	0.494
8.17911	0.643
8.22016	0.675
8.26122	0.703
8.30227	0.745
8.34333	0.766
8.38438	0.776
8.42543	0.776
8.46649	0.726
8.50754	0.527
8.5486	0.387
8.58965	0.552
8.6307	0.709
8.67176	0.745
8.71281	0.776
8.75387	0.8
8.79492	0.813
8.83597	0.82
8.87703	0.825
8.91808	0.831
8.95914	0.827
9.00019	0.817
9.04124	0.824
9.0823	0.844
9.12335	0.848
9.16441	0.854
9.20546	0.858
9.24651	0.858
9.28757	0.844
9.32862	0.79
9.36968	0.621
9.41073	0.505
9.45179	0.762
9.49284	0.815
9.53389	0.791
9.57495	0.646
9.616	0.554
9.65706	0.493
9.69811	0.416
9.73916	0.447
9.78022	0.542
9.82127	0.653
9.86233	0.619
9.90338	0.368
9.94443	0.095
9.98549	0.151
10.0265	0.416
10.0676	0.592
10.1087	0.655
10.1497	0.627
10.1908	0.479
10.2318	0.221
10.2729	0.191
10.3139	0.407
10.355	0.583
10.396	0.648
10.4371	0.699
10.4781	0.723
10.5192	0.728
10.5602	0.689
10.6013	0.588
10.6424	0.407
10.6834	0.296
10.7245	0.44
10.7655	0.621
10.8066	0.694
10.8476	0.752
10.8887	0.786
10.9297	0.813
10.9708	0.829
11.0118	0.848
11.0529	0.861
11.0939	0.865
11.135	0.866
11.1761	0.866
11.2171	0.868
11.2582	0.872
11.2992	0.88
11.3403	0.885
11.3813	0.89
11.4224	0.895
11.4634	0.897
11.5045	0.895
11.5455	0.88
11.5866	0.843
11.6277	0.757
11.6687	0.607
11.7098	0.343
11.7508	0.134
11.7919	0.223
11.8329	0.482
11.874	0.622
11.915	0.75
11.9561	0.813
11.9971	0.844
12.0382	0.868
12.0792	0.887
12.1203	0.902
12.1614	0.912
12.2024	0.918
12.2435	0.926
12.2845	0.928
12.3256	0.938
12.3666	0.94
12.4077	0.94
12.4487	0.945
12.4898	0.945
12.5308	0.943
12.5719	0.943
12.6129	0.936
12.654	0.924
12.6951	0.897
12.7361	0.837
12.7772	0.704
12.8182	0.481
12.8593	0.245
12.9003	0.257
12.9414	0.585
12.9824	0.738
13.0235	0.825
13.0645	0.853
13.1056	0.863
13.1467	0.873
13.1877	0.877
13.2288	0.875
13.2698	0.87
13.3109	0.863
13.3519	0.856
13.393	0.843
13.434	0.813
13.4751	0.783
13.5161	0.738
13.5572	0.675
13.5982	0.624
13.6393	0.593
13.6804	0.607
13.7214	0.643
13.7625	0.639
13.8035	0.561
13.8446	0.547
13.8856	0.61
13.9267	0.703
13.9677	0.747
14.0088	0.771
14.0498	0.784
14.0909	0.793
14.1319	0.798
14.173	0.8
14.2141	0.796
14.2551	0.795
14.2962	0.788
14.3372	0.784
14.3783	0.778
14.4193	0.773
14.4604	0.764
14.5014	0.754
14.5425	0.738
14.5835	0.715
14.6246	0.689
14.6657	0.668
14.7067	0.663
14.7478	0.672
14.7888	0.689
14.8299	0.699
14.8709	0.704
14.912	0.704
14.953	0.704
14.9941	0.703
15.0351	0.694
15.0762	0.687
15.1172	0.677
15.1583	0.672
15.1994	0.665
15.2404	0.658
15.2815	0.653
15.3225	0.641
15.3636	0.633
15.4046	0.624
15.4457	0.607
15.4867	0.58
15.5278	0.529
15.5688	0.484
15.6099	0.447
15.6509	0.435
15.692	0.436
15.7331	0.443
15.7741	0.457
15.8152	0.474
15.8562	0.488
15.8973	0.488
