Infrared Spectrum: BENZENESULFONIC ACID, p-CHLORO-,SODIUM SALT
Formula: C6 H4 Cl Na O3 S
State: SOLID (SPLIT MULL)
Class: COBLENTZ III
Instrument: DOW KBr FOREPRISM-GRATING
Instrument parameters: BLAZED AT 3.5, 12.0, 20.0 MICRON AND CHANGED AT 5.0, 7.5, 14.9 MICRON
Sampling: TRANSMISSION
Resolution: 2
Origin: DOW CHEMICAL COMPANY
1/CM	TRANSMITTANCE
3800	0.7358
3791	0.7369
3782	0.7385
3773	0.7399
3764	0.7414
3755	0.7426
3746	0.7439
3737	0.7451
3728	0.7457
3719	0.7451
3710	0.744
3701	0.7425
3692	0.7421
3683	0.7458
3674	0.7485
3665	0.7489
3656	0.7484
3647	0.7475
3638	0.7474
3629	0.7476
3620	0.7486
3611	0.7496
3602	0.7514
3593	0.7528
3584	0.7534
3575	0.7538
3566	0.7545
3557	0.7553
3548	0.756
3539	0.7568
3530	0.7578
3521	0.7587
3512	0.7601
3503	0.7615
3494	0.7632
3485	0.7647
3476	0.7661
3467	0.7672
3458	0.7685
3449	0.7699
3440	0.7718
3431	0.7737
3422	0.7758
3413	0.7783
3404	0.7808
3395	0.7821
3386	0.7821
3377	0.7822
3368	0.7822
3359	0.7822
3350	0.7824
3341	0.7824
3332	0.783
3323	0.7835
3314	0.7841
3305	0.7849
3296	0.7857
3287	0.7864
3278	0.7871
3269	0.7876
3260	0.7878
3251	0.7881
3242	0.7884
3233	0.7886
3224	0.7889
3215	0.7892
3206	0.7894
3197	0.7895
3188	0.7893
3179	0.7883
3170	0.785
3161	0.7799
3152	0.78
3143	0.7815
3134	0.7768
3125	0.7795
3116	0.7803
3107	0.7758
3098	0.7568
3089	0.7078
3080	0.6562
3071	0.7274
3062	0.6661
3053	0.7203
3044	0.7725
3035	0.7578
3026	0.7441
3017	0.7624
3008	0.7828
2999	0.7911
2990	0.7938
2981	0.7925
2972	0.788
2963	0.7808
2954	0.7739
2945	0.7799
2936	0.7785
2927	0.7711
2918	0.7708
2909	0.7815
2900	0.7961
2891	0.8036
2882	0.8044
2873	0.8014
2864	0.7958
2855	0.7925
2846	0.7955
2837	0.8058
2828	0.8168
2819	0.8189
2810	0.8203
2801	0.8214
2792	0.8221
2783	0.8122
2774	0.8004
2765	0.8193
2756	0.8234
2747	0.8221
2738	0.8261
2729	0.8286
2720	0.8298
2711	0.8286
2702	0.8249
2693	0.8243
2684	0.8295
2675	0.8321
2666	0.8333
2657	0.8337
2648	0.8351
2639	0.8371
2630	0.8386
2621	0.8385
2612	0.8381
2603	0.8371
2594	0.8356
2585	0.8336
2576	0.8318
2567	0.8307
2558	0.8294
2549	0.8321
2540	0.8344
2531	0.8361
2522	0.836
2513	0.8357
2504	0.8351
2495	0.8341
2486	0.8321
2477	0.8312
2468	0.8305
2459	0.8301
2450	0.8298
2441	0.8291
2432	0.8224
2423	0.8239
2414	0.8275
2405	0.8282
2396	0.827
2387	0.8249
2378	0.8284
2369	0.839
2360	0.8417
2351	0.8289
2342	0.8209
2333	0.8225
2324	0.8182
2315	0.8141
2306	0.8101
2297	0.8086
2288	0.8071
2279	0.8068
2270	0.8103
2261	0.8132
2252	0.8155
2243	0.8175
2234	0.822
2225	0.8281
2216	0.835
2207	0.8407
2198	0.8434
2189	0.846
2180	0.8478
2171	0.8497
2162	0.8518
2153	0.8543
2144	0.8571
2135	0.8601
2126	0.8632
2117	0.8662
2108	0.8671
2099	0.868
2090	0.8692
2081	0.8707
2072	0.8723
2063	0.8738
2054	0.8754
2045	0.8768
2036	0.8768
2027	0.8773
2018	0.8795
2009	0.8842
2000	0.8805
1991	0.8788
1982	0.879
1973	0.8774
1964	0.8763
1955	0.8796
1946	0.8733
1937	0.8721
1928	0.8271
1919	0.829
1910	0.8602
1901	0.8763
1892	0.8799
1883	0.8793
1874	0.8794
1865	0.8811
1856	0.8832
1847	0.8764
1838	0.8841
1829	0.8883
1820	0.888
1811	0.8851
1802	0.8752
1793	0.8744
1784	0.8717
1775	0.8752
1766	0.8815
1757	0.8848
1748	0.8867
1739	0.888
1730	0.8892
1721	0.8901
1712	0.8906
1703	0.8903
1694	0.8886
1685	0.8846
1676	0.8783
1667	0.8457
1658	0.8607
1649	0.8903
1640	0.8927
1631	0.8899
1622	0.8746
1613	0.8761
1604	0.8791
1595	0.854
1586	0.6314
1577	0.6644
1568	0.7621
1559	0.8433
1550	0.8607
1541	0.8634
1532	0.8571
1523	0.8509
1514	0.8445
1505	0.8393
1496	0.8197
1487	0.6851
1478	0.5739
1469	0.7403
1460	0.7461
1451	0.7172
1442	0.7261
1433	0.74
1424	0.7567
1415	0.758
1406	0.6905
1397	0.4599
1388	0.5918
1379	0.7661
1370	0.7818
1361	0.7275
1352	0.7437
1343	0.7106
1334	0.7238
1325	0.7269
1316	0.7378
1307	0.7334
1298	0.731
1289	0.7283
1280	0.6511
1271	0.6678
1262	0.5006
1253	0.5253
1244	0.2092
1235	0.0492
1226	0.2487
1217	0.3244
1208	0.3622
1199	0.0812
1190	0.0079
1181	0.0352
1172	0.2324
1163	0.5112
1154	0.6028
1145	0.5874
1136	0.1304
1127	0.5226
1118	0.6784
1109	0.709
1100	0.5362
1091	0.0981
1082	0.6812
1073	0.7111
1064	0.7034
1055	0.56
1046	0.3516
1037	0.6255
1028	0.7625
1019	0.7755
1010	0.1042
1001	0.7217
992	0.7706
983	0.78
974	0.7632
965	0.776
956	0.763
947	0.7898
938	0.8
929	0.8068
920	0.8111
911	0.8141
902	0.8158
893	0.8146
884	0.8085
875	0.8065
866	0.8151
857	0.8121
848	0.7969
839	0.5186
830	0.0703
821	0.7715
812	0.7965
803	0.8149
794	0.819
785	0.8172
776	0.7992
767	0.7261
758	0.3529
749	0.7675
740	0.7775
731	0.7668
722	0.7372
713	0.7098
704	0.8091
695	0.8251
686	0.8304
677	0.8295
668	0.568
659	0.3108
650	0.7917
641	0.6549
632	0.8135
623	0.8217
614	0.8428
605	0.8458
596	0.8348
587	0.7969
578	0.3364
569	0.4896
560	0.6997
551	0.7847
542	0.8197
533	0.8293
524	0.8304
515	0.8252
506	0.8041
497	0.4417
488	0.5527
479	0.7488
470	0.7912
461	0.8001
452	0.8057
