Infrared Spectrum: BROWN IRON OXIDE
Formula: O3 Fe2
State: SOLID (1 mg / 300 mg CsI DISC)
Class: COBLENTZ
Instrument: Not specified, most likely a grating spectrometer.
Sampling: TRANSMISSION
Resolution: 4
Origin: DESOTO CHEMICAL COATINGS, INC.
1/CM	TRANSMITTANCE
197.341	0.668
207.976	0.667
218.611	0.664
229.247	0.652
239.882	0.634
250.517	0.619
261.152	0.597
271.787	0.573
282.423	0.55
293.058	0.521
303.693	0.482
314.328	0.4261
324.963	0.272
335.599	0.22
346.234	0.224
356.869	0.263
367.504	0.341
378.139	0.401
388.775	0.426
399.41	0.45
410.045	0.502
420.68	0.476
431.315	0.4141
441.951	0.305
452.586	0.248
463.221	0.227
473.856	0.239
484.491	0.293
495.127	0.396
505.762	0.43
516.397	0.347
527.032	0.2421
537.667	0.206
548.303	0.206
558.938	0.226
569.573	0.256
580.208	0.296
590.843	0.333
601.479	0.378
612.114	0.41
622.749	0.452
633.384	0.497
644.019	0.551
654.655	0.613
665.29	0.672
675.925	0.719
686.56	0.739
697.195	0.757
707.831	0.791
718.466	0.816
729.101	0.839
739.736	0.857
750.371	0.871
761.007	0.88
771.642	0.875
782.277	0.86
792.912	0.864
803.547	0.872
814.183	0.912
824.818	0.93
835.453	0.946
846.088	0.952
856.723	0.958
867.359	0.958
877.994	0.95
888.629	0.942
899.264	0.933
909.899	0.924
920.535	0.914
931.17	0.906
941.805	0.898
952.44	0.888
963.075	0.868
973.711	0.841
984.346	0.813
994.981	0.795
1005.62	0.769
1016.25	0.742
1026.89	0.719
1037.52	0.7
1048.16	0.682
1058.79	0.662
1069.43	0.628
1080.06	0.609
1090.7	0.609
1101.33	0.621
1111.97	0.647
1122.6	0.667
1133.24	0.686
1143.87	0.702
1154.51	0.712
1165.14	0.723
1175.78	0.731
1186.41	0.75
1197.05	0.763
1207.69	0.779
1218.32	0.791
1228.96	0.805
1239.59	0.82
1250.23	0.832
1260.86	0.841
1271.5	0.847
1282.13	0.847
1292.77	0.847
1303.4	0.847
1314.04	0.844
1324.67	0.843
1335.31	0.84
1345.94	0.837
1356.58	0.835
1367.21	0.829
1377.85	0.824
1388.48	0.82
1399.12	0.819
1409.75	0.817
1420.39	0.816
1431.02	0.815
1441.66	0.809
1452.29	0.805
1462.93	0.804
1473.57	0.804
1484.2	0.804
1494.84	0.803
1505.47	0.8
1516.11	0.796
1526.74	0.793
1537.38	0.792
1548.01	0.788
1558.65	0.783
1569.28	0.777
1579.92	0.771
1590.55	0.757
1601.19	0.74
1611.82	0.72
1622.46	0.718
1633.09	0.73
1643.73	0.74
1654.36	0.75
1665	0.753
1675.63	0.756
1686.27	0.757
1696.9	0.757
1707.54	0.757
1718.17	0.757
1728.81	0.759
1739.45	0.757
1750.08	0.76
1760.72	0.759
1771.35	0.759
1781.99	0.753
1792.62	0.753
1803.26	0.753
1813.89	0.75
1824.53	0.75
1835.16	0.747
1845.8	0.747
1856.43	0.748
1867.07	0.744
1877.7	0.74
1888.34	0.74
1898.97	0.736
1909.61	0.735
1920.24	0.734
1930.88	0.732
1941.51	0.731
1952.15	0.728
1962.78	0.727
1973.42	0.723
1984.05	0.722
1994.69	0.72
2005.33	0.724
2015.96	0.724
2026.6	0.723
2037.23	0.722
2047.87	0.72
2058.5	0.719
2069.14	0.718
2079.77	0.718
2090.41	0.716
2101.04	0.714
2111.68	0.711
2122.31	0.71
2132.95	0.71
2143.58	0.707
2154.22	0.704
2164.85	0.703
2175.49	0.702
2186.12	0.702
2196.76	0.7
2207.39	0.7
2218.03	0.699
2228.66	0.699
2239.3	0.698
2249.93	0.695
2260.57	0.694
2271.21	0.692
2281.84	0.6871
2292.48	0.686
2303.11	0.6841
2313.75	0.684
2324.38	0.684
2335.02	0.684
2345.65	0.682
2356.29	0.682
2366.92	0.682
2377.56	0.682
2388.19	0.682
2398.83	0.6781
2409.46	0.676
2420.1	0.6789
2430.73	0.678
2441.37	0.6751
2452	0.671
2462.64	0.67
2473.27	0.6671
2483.91	0.6641
2494.54	0.6621
2505.18	0.66
2515.81	0.659
2526.45	0.6581
2537.09	0.658
2547.72	0.658
2558.36	0.656
2568.99	0.654
2579.63	0.654
2590.26	0.654
2600.9	0.6511
2611.53	0.648
2622.17	0.6461
2632.8	0.644
2643.44	0.642
2654.07	0.639
2664.71	0.638
2675.34	0.639
2685.98	0.6391
2696.61	0.6362
2707.25	0.634
2717.88	0.634
2728.52	0.6301
2739.15	0.63
2749.79	0.63
2760.42	0.6282
2771.06	0.6261
2781.69	0.623
2792.33	0.622
2802.97	0.621
2813.6	0.622
2824.24	0.6181
2834.87	0.6171
2845.51	0.613
2856.14	0.6101
2866.78	0.609
2877.41	0.606
2888.05	0.603
2898.68	0.602
2909.32	0.599
2919.95	0.5932
2930.59	0.5869
2941.22	0.5909
2951.86	0.5901
2962.49	0.59
2973.13	0.591
2983.76	0.593
2994.4	0.5901
3005.03	0.5912
3015.67	0.589
3026.3	0.59
3036.94	0.589
3047.57	0.5891
3058.21	0.587
3068.85	0.586
3079.48	0.585
3090.12	0.583
3100.75	0.5811
3111.39	0.579
3122.02	0.578
3132.66	0.575
3143.29	0.573
3153.93	0.5701
3164.56	0.569
3175.2	0.5661
3185.83	0.565
3196.47	0.5621
3207.1	0.561
3217.74	0.5581
3228.37	0.557
3239.01	0.554
3249.64	0.5513
3260.28	0.55
3270.91	0.549
3281.55	0.546
3292.18	0.5421
3302.82	0.539
3313.45	0.537
3324.09	0.533
3334.73	0.5236
3345.36	0.5146
3356	0.5073
3366.63	0.5013
3377.27	0.4962
3387.9	0.4829
3398.54	0.4772
3409.17	0.4692
3419.81	0.4643
3430.44	0.4602
3441.08	0.4562
3451.71	0.4532
3462.35	0.4503
3472.98	0.45
3483.62	0.452
3494.25	0.453
3504.89	0.456
3515.52	0.4597
3526.16	0.4637
3536.79	0.4676
3547.43	0.474
3558.06	0.4796
3568.7	0.4845
3579.33	0.4923
3589.97	0.4995
3600.61	0.505
3611.24	0.5126
3621.88	0.517
3632.51	0.5206
3643.15	0.526
3653.78	0.529
3664.42	0.531
3675.05	0.534
3685.69	0.533
3696.32	0.533
3706.96	0.538
3717.59	0.535
3728.23	0.5332
3738.86	0.531
3749.5	0.53
3760.13	0.529
3770.77	0.529
3781.4	0.527
3792.04	0.529
3802.67	0.5274
3813.31	0.526
3823.94	0.5252
3834.58	0.5212
3845.21	0.5182
3855.85	0.518
3866.49	0.521
3877.12	0.519
3887.76	0.521
3898.39	0.5182
3909.03	0.517
3919.66	0.5142
3930.3	0.5132
3940.93	0.513
3951.57	0.513
3962.2	0.5114
3972.84	0.511
3983.47	0.5102
