Infrared Spectrum: LANTHANUM OXALATE
Formula: La2 ( C2 O4)3  * 9 H2 O
State: SOLID (KBr DISC)
Class: COBLENTZ
Instrument: Not specified, most likely a prism, grating, or hybrid spectrometer.
Sampling: TRANSMISSION
Resolution: 4
MICROMETERS	TRANSMITTANCE
2.006	0.961
2.04391	0.961
2.08182	0.963
2.11974	0.964
2.15765	0.963
2.19556	0.964
2.23347	0.964
2.27138	0.966
2.30929	0.967
2.34721	0.968
2.38512	0.968
2.42303	0.968
2.46094	0.97
2.49885	0.97
2.53677	0.968
2.57468	0.968
2.61259	0.968
2.6505	0.968
2.68841	0.968
2.72632	0.967
2.76424	0.94
2.80215	0.836
2.84006	0.714
2.87797	0.599
2.91588	0.509
2.9538	0.465
2.99171	0.462
3.02962	0.528
3.06753	0.592
3.10544	0.632
3.14336	0.683
3.18127	0.735
3.21918	0.775
3.25709	0.802
3.295	0.827
3.33291	0.846
3.37083	0.864
3.40874	0.872
3.44665	0.89
3.48456	0.905
3.52247	0.914
3.56039	0.924
3.5983	0.932
3.63621	0.935
3.67412	0.937
3.71203	0.945
3.74994	0.951
3.78786	0.954
3.82577	0.954
3.86368	0.957
3.90159	0.957
3.9395	0.957
3.97742	0.957
4.01533	0.958
4.05324	0.96
4.09115	0.961
4.12906	0.961
4.16697	0.961
4.20489	0.961
4.2428	0.963
4.28071	0.961
4.31862	0.963
4.35653	0.963
4.39445	0.964
4.43236	0.963
4.47027	0.96
4.50818	0.958
4.54609	0.96
4.584	0.958
4.62192	0.96
4.65983	0.958
4.69774	0.958
4.73565	0.958
4.77356	0.96
4.81148	0.96
4.84939	0.96
4.8873	0.961
4.92521	0.961
4.96312	0.961
5.00103	0.963
5.03895	0.964
5.07686	0.964
5.11477	0.964
5.15268	0.963
5.19059	0.961
5.22851	0.961
5.26642	0.96
5.30433	0.96
5.34224	0.955
5.38015	0.955
5.41807	0.955
5.45598	0.955
5.49389	0.951
5.5318	0.949
5.56971	0.949
5.60762	0.945
5.64554	0.937
5.68345	0.926
5.72136	0.918
5.75927	0.896
5.79718	0.83
5.8351	0.737
5.87301	0.624
5.91092	0.438
5.94883	0.345
5.98674	0.233
6.02465	0.169
6.06257	0.166
6.10048	0.168
6.13839	0.209
6.1763	0.245
6.21421	0.286
6.25213	0.332
6.29004	0.451
6.32795	0.576
6.36586	0.67
6.40377	0.722
6.44168	0.784
6.4796	0.807
6.51751	0.841
6.55542	0.852
6.59333	0.859
6.63124	0.864
6.66916	0.858
6.70707	0.831
6.74498	0.825
6.78289	0.825
6.8208	0.827
6.85871	0.828
6.89663	0.85
6.93454	0.872
6.97245	0.884
7.01036	0.892
7.04827	0.898
7.08619	0.901
7.1241	0.902
7.16201	0.903
7.19992	0.905
7.23783	0.892
7.27574	0.872
7.31366	0.843
7.35157	0.825
7.38948	0.81
7.42739	0.8
7.4653	0.784
7.50322	0.738
7.54113	0.615
7.57904	0.548
7.61695	0.545
7.65486	0.559
7.69278	0.655
7.73069	0.763
7.7686	0.813
7.80651	0.844
7.84442	0.87
7.88233	0.884
7.92025	0.892
7.95816	0.899
7.99607	0.902
8.03398	0.906
8.07189	0.908
8.10981	0.911
8.14772	0.911
8.18563	0.914
8.22354	0.917
8.26145	0.92
8.29936	0.92
8.33728	0.921
8.37519	0.921
8.4131	0.921
8.45101	0.923
8.48892	0.923
8.52684	0.923
8.56475	0.923
8.60266	0.923
8.64057	0.923
8.67848	0.924
8.71639	0.924
8.75431	0.924
8.79222	0.926
8.83013	0.927
8.86804	0.927
8.90595	0.927
8.94387	0.927
8.98178	0.926
9.01969	0.926
9.0576	0.927
9.09551	0.926
9.13342	0.924
9.17134	0.924
9.20925	0.927
9.24716	0.926
9.28507	0.924
9.32298	0.924
9.3609	0.924
9.39881	0.924
9.43672	0.923
9.47463	0.923
9.51254	0.923
9.55045	0.923
9.58837	0.921
9.62628	0.921
9.66419	0.92
9.7021	0.918
9.74001	0.92
9.77793	0.921
9.81584	0.921
9.85375	0.921
9.89166	0.923
9.92957	0.924
9.96749	0.924
10.0054	0.923
10.0433	0.921
10.0812	0.923
10.1191	0.924
10.157	0.924
10.195	0.924
10.2329	0.924
10.2708	0.926
10.3087	0.926
10.3466	0.926
10.3845	0.926
10.4224	0.926
10.4603	0.926
10.4983	0.926
10.5362	0.926
10.5741	0.926
10.612	0.926
10.6499	0.926
10.6878	0.926
10.7257	0.924
10.7636	0.924
10.8015	0.923
10.8395	0.921
10.8774	0.918
10.9153	0.914
10.9532	0.914
10.9911	0.912
11.029	0.914
11.0669	0.914
11.1048	0.914
11.1428	0.915
11.1807	0.918
11.2186	0.918
11.2565	0.918
11.2944	0.92
11.3323	0.92
11.3702	0.921
11.4081	0.921
11.446	0.921
11.484	0.921
11.5219	0.921
11.5598	0.918
11.5977	0.917
11.6356	0.915
11.6735	0.914
11.7114	0.915
11.7493	0.914
11.7873	0.915
11.8252	0.915
11.8631	0.914
11.901	0.912
11.9389	0.909
11.9768	0.909
12.0147	0.903
12.0526	0.901
12.0905	0.899
12.1285	0.895
12.1664	0.884
12.2043	0.872
12.2422	0.853
12.2801	0.837
12.318	0.797
12.3559	0.765
12.3938	0.726
12.4318	0.683
12.4697	0.646
12.5076	0.623
12.5455	0.614
12.5834	0.615
12.6213	0.642
12.6592	0.677
12.6971	0.703
12.735	0.728
12.773	0.75
12.8109	0.766
12.8488	0.782
12.8867	0.797
12.9246	0.812
12.9625	0.819
13.0004	0.827
13.0383	0.837
13.0763	0.841
13.1142	0.844
13.1521	0.847
13.19	0.855
13.2279	0.856
13.2658	0.859
13.3037	0.861
13.3416	0.862
13.3796	0.862
13.4175	0.862
13.4554	0.864
13.4933	0.864
13.5312	0.865
13.5691	0.867
13.607	0.865
13.6449	0.864
13.6828	0.864
13.7208	0.864
13.7587	0.864
13.7966	0.862
13.8345	0.862
13.8724	0.862
13.9103	0.862
13.9482	0.862
13.9861	0.862
14.0241	0.859
14.062	0.859
14.0999	0.859
14.1378	0.859
14.1757	0.859
14.2136	0.859
14.2515	0.856
14.2894	0.853
14.3273	0.855
14.3653	0.856
14.4032	0.856
14.4411	0.858
14.479	0.858
14.5169	0.856
14.5548	0.858
14.5927	0.859
14.6306	0.859
14.6686	0.859
14.7065	0.859
14.7444	0.859
14.7823	0.861
14.8202	0.862
14.8581	0.862
14.896	0.862
14.9339	0.862
