Infrared Spectrum: CADMIUM LITHOPONE
Formula: Cd S
State: SOLID (0.6 mg / 300 mg CsI DISC)
Class: COBLENTZ
Instrument: Not specified, most likely a grating spectrometer.
Sampling: TRANSMISSION
Resolution: 4
Origin: DESOTO CHEMICAL COATINGS, INC.
1/CM	TRANSMITTANCE
200	0.678
210.651	0.679
221.302	0.708
231.953	0.751
242.604	0.78
253.255	0.771
263.905	0.6211
274.556	0.578
285.207	0.598
295.858	0.711
306.509	0.757
317.16	0.772
327.811	0.8
338.462	0.817
349.113	0.829
359.764	0.829
370.415	0.833
381.065	0.839
391.716	0.84
402.367	0.843
413.018	0.848
423.669	0.86
434.32	0.877
444.971	0.882
455.622	0.89
466.273	0.9
476.924	0.904
487.574	0.913
498.225	0.917
508.876	0.922
519.527	0.924
530.178	0.928
540.829	0.928
551.48	0.928
562.131	0.929
572.782	0.926
583.433	0.929
594.084	0.925
604.734	0.7801
615.385	0.535
626.036	0.811
636.687	0.7432
647.338	0.7459
657.989	0.884
668.64	0.918
679.291	0.933
689.942	0.941
700.593	0.944
711.244	0.945
721.894	0.95
732.545	0.952
743.196	0.952
753.847	0.95
764.498	0.954
775.149	0.954
785.8	0.952
796.451	0.954
807.102	0.953
817.753	0.956
828.403	0.953
839.054	0.953
849.705	0.954
860.356	0.954
871.007	0.956
881.658	0.956
892.309	0.953
902.96	0.954
913.611	0.953
924.262	0.95
934.913	0.948
945.563	0.946
956.214	0.942
966.865	0.942
977.516	0.936
988.167	0.811
998.818	0.921
1009.47	0.921
1020.12	0.912
1030.77	0.897
1041.42	0.875
1052.07	0.839
1062.72	0.6792
1073.37	0.2041
1084.03	0.17
1094.68	0.425
1105.33	0.466
1115.98	0.2351
1126.63	0.2769
1137.28	0.5609
1147.93	0.678
1158.58	0.715
1169.23	0.6481
1179.88	0.4541
1190.53	0.347
1201.19	0.432
1211.84	0.625
1222.49	0.7679
1233.14	0.841
1243.79	0.893
1254.44	0.909
1265.09	0.916
1275.74	0.922
1286.39	0.929
1297.04	0.936
1307.69	0.932
1318.35	0.936
1329	0.937
1339.65	0.937
1350.3	0.937
1360.95	0.937
1371.6	0.938
1382.25	0.936
1392.9	0.936
1403.55	0.932
1414.2	0.933
1424.85	0.933
1435.51	0.936
1446.16	0.933
1456.81	0.934
1467.46	0.93
1478.11	0.938
1488.76	0.938
1499.41	0.94
1510.06	0.938
1520.71	0.94
1531.36	0.938
1542.01	0.934
1552.67	0.93
1563.32	0.925
1573.97	0.922
1584.62	0.914
1595.27	0.909
1605.92	0.9
1616.57	0.89
1627.22	0.892
1637.87	0.902
1648.52	0.91
1659.17	0.913
1669.83	0.92
1680.48	0.922
1691.13	0.925
1701.78	0.93
1712.43	0.938
1723.08	0.936
1733.73	0.938
1744.38	0.941
1755.03	0.94
1765.68	0.94
1776.33	0.941
1786.99	0.94
1797.64	0.941
1808.29	0.94
1818.94	0.941
1829.59	0.941
1840.24	0.941
1850.89	0.941
1861.54	0.941
1872.19	0.938
1882.84	0.94
1893.49	0.938
1904.15	0.94
1914.8	0.938
1925.45	0.937
1936.1	0.937
1946.75	0.937
1957.4	0.936
1968.05	0.936
1978.7	0.932
1989.35	0.933
2000	0.932
2010.65	0.932
2021.31	0.93
2031.96	0.929
2042.61	0.929
2053.26	0.9249
2063.91	0.9219
2074.56	0.92
2085.21	0.918
2095.86	0.92
2106.51	0.921
2117.16	0.921
2127.81	0.9238
2138.46	0.921
2149.12	0.922
2159.77	0.9237
2170.42	0.922
2181.07	0.925
2191.72	0.922
2202.37	0.9218
2213.02	0.922
2223.67	0.922
2234.32	0.9236
2244.97	0.9225
2255.62	0.922
2266.28	0.922
2276.93	0.925
2287.58	0.925
2298.23	0.9217
2308.88	0.92
2319.53	0.921
2330.18	0.921
2340.83	0.921
2351.48	0.921
2362.13	0.9213
2372.78	0.9206
2383.44	0.9204
2394.09	0.922
2404.74	0.921
2415.39	0.92
2426.04	0.9216
2436.69	0.921
2447.34	0.9216
2457.99	0.921
2468.64	0.9216
2479.29	0.9215
2489.94	0.921
2500.6	0.921
2511.25	0.92
2521.9	0.92
2532.55	0.9205
2543.2	0.9205
2553.85	0.919
2564.5	0.918
2575.15	0.917
2585.8	0.918
2596.45	0.918
2607.1	0.918
2617.76	0.9176
2628.41	0.9174
2639.06	0.9148
2649.71	0.914
2660.36	0.914
2671.01	0.914
2681.66	0.916
2692.31	0.914
2702.96	0.914
2713.61	0.9123
2724.26	0.912
2734.92	0.912
2745.57	0.9106
2756.22	0.909
2766.87	0.9093
2777.52	0.9087
2788.17	0.9093
2798.82	0.909
2809.47	0.9092
2820.12	0.909
2830.77	0.909
2841.42	0.9064
2852.08	0.901
2862.73	0.898
2873.38	0.898
2884.03	0.9008
2894.68	0.901
2905.33	0.9
2915.98	0.8931
2926.63	0.8851
2937.28	0.8849
2947.93	0.8899
2958.58	0.8939
2969.24	0.894
2979.89	0.897
2990.54	0.898
3001.19	0.9009
3011.84	0.9
3022.49	0.9
3033.14	0.898
3043.79	0.898
3054.44	0.898
3065.09	0.898
3075.74	0.897
3086.4	0.897
3097.05	0.897
3107.7	0.896
3118.35	0.896
3129	0.896
3139.65	0.893
3150.3	0.89
3160.95	0.89
3171.6	0.889
3182.25	0.889
3192.9	0.8889
3203.56	0.886
3214.21	0.8849
3224.86	0.8837
3235.51	0.8797
3246.16	0.877
3256.81	0.877
3267.46	0.877
3278.11	0.8758
3288.76	0.8728
3299.41	0.8666
3310.06	0.8608
3320.72	0.8568
3331.37	0.8505
3342.02	0.8477
3352.67	0.8397
3363.32	0.8301
3373.97	0.8221
3384.62	0.8164
3395.27	0.8037
3405.92	0.7964
3416.57	0.789
3427.22	0.7837
3437.88	0.781
3448.53	0.7796
3459.18	0.7766
3469.83	0.7764
3480.48	0.779
3491.13	0.779
3501.78	0.7818
3512.43	0.787
3523.08	0.7899
3533.73	0.7954
3544.38	0.8045
3555.04	0.8099
3565.69	0.819
3576.34	0.8295
3586.99	0.834
3597.64	0.8395
3608.29	0.852
3618.94	0.862
3629.59	0.8635
3640.24	0.8721
3650.89	0.875
3661.54	0.875
3672.2	0.877
3682.85	0.876
3693.5	0.876
3704.15	0.876
3714.8	0.877
3725.45	0.878
3736.1	0.878
3746.75	0.877
3757.4	0.877
3768.05	0.877
3778.7	0.876
3789.36	0.8753
3800.01	0.875
3810.66	0.876
3821.31	0.877
3831.96	0.877
3842.61	0.876
3853.26	0.873
3863.91	0.873
3874.56	0.873
3885.21	0.873
3895.86	0.873
3906.52	0.872
3917.17	0.871
3927.82	0.869
3938.47	0.872
3949.12	0.869
3959.77	0.8718
3970.42	0.869
3981.07	0.8693
