Infrared Spectrum: POTASSIUM SULFATE
Formula: K2 S O4
State: SOLID (NUJOL MULL)
Class: COBLENTZ
Instrument: Not specified, most likely a prism, grating, or hybrid spectrometer.
Sampling: TRANSMISSION
Resolution: 4
Origin: MELLON INSTITUTE
MICROMETERS	TRANSMITTANCE
2.016	0.602
2.05588	0.595
2.09576	0.591
2.13564	0.588
2.17552	0.585
2.2154	0.581
2.25528	0.58
2.29516	0.578
2.33504	0.575
2.37492	0.573
2.4148	0.573
2.45468	0.571
2.49456	0.568
2.53444	0.568
2.57432	0.57
2.6142	0.571
2.65408	0.57
2.69396	0.568
2.73384	0.568
2.77372	0.568
2.8136	0.566
2.85348	0.565
2.89336	0.563
2.93324	0.561
2.97312	0.56
3.013	0.56
3.05288	0.56
3.09276	0.561
3.13264	0.563
3.17252	0.565
3.2124	0.565
3.25228	0.558
3.29216	0.466
3.33204	0.292
3.37192	0.29
3.4118	0.311
3.45168	0.406
3.49156	0.548
3.53144	0.578
3.57132	0.595
3.6112	0.602
3.65108	0.605
3.69096	0.612
3.73084	0.615
3.77072	0.617
3.8106	0.622
3.85048	0.623
3.89036	0.627
3.93024	0.627
3.97012	0.628
4.01	0.63
4.04988	0.632
4.08976	0.632
4.12964	0.633
4.16952	0.633
4.2094	0.633
4.24928	0.633
4.28916	0.633
4.32904	0.635
4.36892	0.637
4.4088	0.637
4.44868	0.637
4.48856	0.637
4.52844	0.635
4.56832	0.635
4.6082	0.635
4.64808	0.635
4.68796	0.637
4.72784	0.637
4.76772	0.64
4.8076	0.642
4.84748	0.647
4.88736	0.652
4.92724	0.655
4.96712	0.663
5.007	0.672
5.04688	0.677
5.08676	0.683
5.12664	0.688
5.16652	0.692
5.2064	0.693
5.24628	0.697
5.28616	0.698
5.32604	0.7
5.36592	0.702
5.4058	0.702
5.44568	0.709
5.48556	0.712
5.52544	0.715
5.56532	0.72
5.6052	0.725
5.64508	0.734
5.68496	0.74
5.72484	0.745
5.76472	0.749
5.8046	0.75
5.84448	0.755
5.88436	0.759
5.92424	0.764
5.96412	0.767
6.004	0.77
6.04388	0.77
6.08376	0.774
6.12364	0.777
6.16352	0.779
6.2034	0.78
6.24328	0.782
6.28316	0.785
6.32304	0.787
6.36292	0.789
6.4028	0.792
6.44268	0.795
6.48256	0.797
6.52244	0.799
6.56232	0.802
6.6022	0.802
6.64208	0.804
6.68196	0.802
6.72184	0.782
6.76172	0.688
6.8016	0.648
6.84148	0.663
6.88136	0.698
6.92124	0.745
6.96112	0.775
7.001	0.779
7.04088	0.799
7.08076	0.809
7.12064	0.802
7.16052	0.779
7.2004	0.74
7.24028	0.765
7.28017	0.782
7.32005	0.799
7.35993	0.807
7.39981	0.812
7.43969	0.819
7.47957	0.821
7.51945	0.826
7.55933	0.827
7.59921	0.829
7.63909	0.831
7.67897	0.831
7.71885	0.832
7.75873	0.832
7.79861	0.834
7.83849	0.831
7.87837	0.827
7.91825	0.821
7.95813	0.814
7.99801	0.802
8.03789	0.794
8.07777	0.787
8.11765	0.774
8.15753	0.757
8.19741	0.739
8.23729	0.707
8.27717	0.665
8.31705	0.627
8.35693	0.602
8.39681	0.591
8.43669	0.573
8.47657	0.54
8.51645	0.463
8.55633	0.382
8.59621	0.327
8.63609	0.284
8.67597	0.247
8.71585	0.217
8.75573	0.185
8.79561	0.157
8.83549	0.133
8.87537	0.107
8.91525	0.093
8.95513	0.083
8.99501	0.08
9.03489	0.081
9.07477	0.098
9.11465	0.148
9.15453	0.202
9.19441	0.289
9.23429	0.366
9.27417	0.433
9.31405	0.489
9.35393	0.54
9.39381	0.575
9.43369	0.602
9.47357	0.628
9.51345	0.648
9.55333	0.67
9.59321	0.69
9.63309	0.712
9.67297	0.732
9.71285	0.749
9.75273	0.759
9.79261	0.764
9.83249	0.767
9.87237	0.772
9.91225	0.774
9.95213	0.78
9.99201	0.784
10.0319	0.787
10.0718	0.789
10.1116	0.792
10.1515	0.794
10.1914	0.802
10.2313	0.806
10.2712	0.817
10.311	0.826
10.3509	0.832
10.3908	0.837
10.4307	0.842
10.4706	0.847
10.5104	0.851
10.5503	0.854
10.5902	0.859
10.6301	0.862
10.67	0.867
10.7098	0.869
10.7497	0.872
10.7896	0.876
10.8295	0.877
10.8694	0.879
10.9092	0.881
10.9491	0.882
10.989	0.882
11.0289	0.884
11.0688	0.886
11.1086	0.889
11.1485	0.891
11.1884	0.892
11.2283	0.896
11.2682	0.899
11.308	0.901
11.3479	0.903
11.3878	0.904
11.4277	0.908
11.4676	0.911
11.5074	0.913
11.5473	0.914
11.5872	0.916
11.6271	0.919
11.667	0.921
11.7068	0.923
11.7467	0.924
11.7866	0.928
11.8265	0.929
11.8664	0.931
11.9062	0.933
11.9461	0.934
11.986	0.936
12.0259	0.936
12.0658	0.938
12.1056	0.939
12.1455	0.941
12.1854	0.943
12.2253	0.943
12.2652	0.944
12.305	0.944
12.3449	0.946
12.3848	0.946
12.4247	0.948
12.4646	0.946
12.5045	0.946
12.5443	0.946
12.5842	0.948
12.6241	0.946
12.664	0.946
12.7039	0.946
12.7437	0.946
12.7836	0.949
12.8235	0.948
12.8634	0.948
12.9033	0.948
12.9431	0.944
12.983	0.943
13.0229	0.943
13.0628	0.941
13.1027	0.939
13.1425	0.938
13.1824	0.936
13.2223	0.934
13.2622	0.934
13.3021	0.933
13.3419	0.931
13.3818	0.928
13.4217	0.923
13.4616	0.921
13.5015	0.918
13.5413	0.914
13.5812	0.911
13.6211	0.908
13.661	0.904
13.7009	0.903
13.7407	0.899
13.7806	0.894
13.8205	0.891
13.8604	0.889
13.9003	0.887
13.9401	0.884
13.98	0.881
14.0199	0.879
14.0598	0.876
14.0997	0.872
14.1395	0.869
14.1794	0.866
14.2193	0.862
14.2592	0.856
14.2991	0.852
14.3389	0.846
14.3788	0.839
14.4187	0.834
14.4586	0.826
14.4985	0.819
14.5383	0.812
14.5782	0.804
14.6181	0.799
14.658	0.79
14.6979	0.782
14.7377	0.775
14.7776	0.769
14.8175	0.76
14.8574	0.754
14.8973	0.749
14.9371	0.744
14.977	0.737
15.0169	0.732
15.0568	0.725
15.0967	0.72
15.1365	0.712
15.1764	0.707
15.2163	0.702
15.2562	0.695
15.2961	0.69
15.3359	0.682
15.3758	0.677
15.4157	0.668
15.4556	0.66
15.4955	0.653
15.5353	0.645
15.5752	0.637
15.6151	0.628
15.655	0.617
15.6949	0.603
15.7347	0.596
15.7746	0.58
15.8145	0.561
15.8544	0.55
15.8943	0.54
15.9341	0.531
15.974	0.525
