Infrared Spectrum: LACTOBIONIC ACID, SODIUM SALT
Formula: C12 H21 Na O12
State: SOLID (OIL MULL)
Class: COBLENTZ III
Instrument: BAIRD NaCl PRISM
Sampling: TRANSMISSION
Resolution: 4
Origin: WYANDOTTE CHEMICALS CORP.
MICROMETERS	TRANSMITTANCE
2.01	0.745
2.04921	0.753
2.08843	0.778
2.12764	0.784
2.16686	0.807
2.20607	0.801
2.24528	0.784
2.2845	0.791
2.32371	0.819
2.36293	0.826
2.40214	0.829
2.44135	0.828
2.48057	0.836
2.51978	0.87
2.559	0.898
2.59821	0.924
2.63742	0.933
2.67664	0.951
2.71585	0.938
2.75507	0.764
2.79428	0.53
2.83349	0.298
2.87271	0.168
2.91192	0.118
2.95114	0.093
2.99035	0.082
3.02956	0.071
3.06878	0.073
3.10799	0.066
3.14721	0.067
3.18642	0.076
3.22563	0.076
3.26485	0.09
3.30406	0.107
3.34328	0.076
3.38249	0.028
3.4217	0.028
3.46092	0.025
3.50013	0.028
3.53935	0.029
3.57856	0.165
3.61777	0.26
3.65699	0.289
3.6962	0.292
3.73542	0.318
3.77463	0.35
3.81384	0.4
3.85306	0.43
3.89227	0.464
3.93149	0.495
3.9707	0.531
4.00991	0.552
4.04913	0.584
4.08834	0.61
4.12756	0.623
4.16677	0.658
4.20598	0.669
4.2452	0.692
4.28441	0.694
4.32363	0.727
4.36284	0.763
4.40205	0.785
4.44127	0.778
4.48048	0.785
4.5197	0.799
4.55891	0.802
4.59813	0.802
4.63734	0.813
4.67655	0.818
4.71577	0.815
4.75498	0.826
4.7942	0.836
4.83341	0.85
4.87262	0.863
4.91184	0.855
4.95105	0.863
4.99027	0.876
5.02948	0.881
5.06869	0.891
5.10791	0.9
5.14712	0.907
5.18634	0.908
5.22555	0.912
5.26476	0.921
5.30398	0.921
5.34319	0.921
5.38241	0.924
5.42162	0.922
5.46083	0.927
5.50005	0.921
5.53926	0.916
5.57848	0.907
5.61769	0.898
5.6569	0.874
5.69612	0.854
5.73533	0.823
5.77455	0.803
5.81376	0.758
5.85297	0.691
5.89219	0.611
5.9314	0.51
5.97062	0.413
6.00983	0.323
6.04904	0.23
6.08826	0.159
6.12747	0.101
6.16669	0.081
6.2059	0.07
6.24511	0.076
6.28433	0.106
6.32354	0.187
6.36276	0.236
6.40197	0.348
6.44118	0.382
6.4804	0.436
6.51961	0.45
6.55883	0.461
6.59804	0.448
6.63725	0.421
6.67647	0.36
6.71568	0.257
6.7549	0.141
6.79411	0.036
6.83332	0.043
6.87254	0.041
6.91175	0.059
6.95097	0.086
6.99018	0.103
7.02939	0.103
7.06861	0.101
7.10782	0.099
7.14704	0.106
7.18625	0.092
7.22546	0.041
7.26468	0.048
7.30389	0.066
7.34311	0.101
7.38232	0.104
7.42153	0.125
7.46075	0.139
7.49996	0.149
7.53918	0.156
7.57839	0.157
7.6176	0.16
7.65682	0.167
7.69603	0.177
7.73525	0.191
7.77446	0.198
7.81367	0.202
7.85289	0.209
7.8921	0.208
7.93132	0.207
7.97053	0.21
8.00974	0.205
8.04896	0.203
8.08817	0.197
8.12739	0.2
8.1666	0.198
8.20581	0.207
8.24503	0.229
8.28424	0.26
8.32346	0.308
8.36267	0.352
8.40188	0.377
8.4411	0.363
8.48031	0.311
8.51953	0.24
8.55874	0.188
8.59795	0.159
8.63717	0.144
8.67638	0.13
8.7156	0.12
8.75481	0.112
8.79402	0.115
8.83324	0.099
8.87245	0.098
8.91167	0.094
8.95088	0.097
8.99009	0.094
9.02931	0.092
9.06852	0.073
9.10774	0.069
9.14695	0.06
9.18616	0.057
9.22538	0.056
9.26459	0.053
9.30381	0.053
9.34302	0.055
9.38223	0.061
9.42145	0.059
9.46066	0.053
9.49988	0.056
9.53909	0.053
9.5783	0.053
9.61752	0.053
9.65673	0.057
9.69595	0.053
9.73516	0.056
9.77438	0.056
9.81359	0.057
9.8528	0.059
9.89202	0.069
9.93123	0.077
9.97045	0.098
10.0097	0.122
10.0489	0.14
10.0881	0.159
10.1273	0.18
10.1665	0.202
10.2057	0.217
10.2449	0.237
10.2842	0.262
10.3234	0.273
10.3626	0.288
10.4018	0.299
10.441	0.3
10.4802	0.298
10.5194	0.295
10.5587	0.3
10.5979	0.302
10.6371	0.321
10.6763	0.325
10.7155	0.336
10.7547	0.351
10.7939	0.352
10.8332	0.353
10.8724	0.352
10.9116	0.355
10.9508	0.373
10.99	0.381
11.0292	0.403
11.0684	0.374
11.1077	0.351
11.1469	0.323
11.1861	0.29
11.2253	0.279
11.2645	0.273
11.3037	0.281
11.3429	0.299
11.3821	0.303
11.4214	0.313
11.4606	0.32
11.4998	0.326
11.539	0.331
11.5782	0.341
11.6174	0.347
11.6566	0.352
11.6959	0.353
11.7351	0.367
11.7743	0.374
11.8135	0.385
11.8527	0.4
11.8919	0.405
11.9311	0.41
11.9704	0.41
12.0096	0.405
12.0488	0.401
12.088	0.387
12.1272	0.381
12.1664	0.384
12.2056	0.384
12.2449	0.39
12.2841	0.385
12.3233	0.374
12.3625	0.376
12.4017	0.369
12.4409	0.364
12.4801	0.346
12.5194	0.339
12.5586	0.324
12.5978	0.3
12.637	0.289
12.6762	0.273
12.7154	0.267
12.7546	0.273
12.7939	0.263
12.8331	0.274
12.8723	0.278
12.9115	0.281
12.9507	0.274
12.9899	0.274
13.0291	0.278
13.0684	0.274
13.1076	0.273
13.1468	0.273
13.186	0.272
13.2252	0.272
13.2644	0.263
13.3036	0.268
13.3429	0.265
13.3821	0.256
13.4213	0.256
13.4605	0.249
13.4997	0.236
13.5389	0.228
13.5781	0.218
13.6173	0.208
13.6566	0.208
13.6958	0.205
13.735	0.198
13.7742	0.2
13.8134	0.194
13.8526	0.191
13.8918	0.191
13.9311	0.192
13.9703	0.194
14.0095	0.192
14.0487	0.196
14.0879	0.197
14.1271	0.198
14.1663	0.199
14.2056	0.194
14.2448	0.198
14.284	0.2
14.3232	0.202
14.3624	0.202
14.4016	0.207
14.4408	0.215
14.4801	0.219
14.5193	0.225
14.5585	0.23
14.5977	0.239
14.6369	0.246
14.6761	0.252
14.7153	0.254
14.7546	0.258
14.7938	0.26
14.833	0.26
14.8722	0.263
14.9114	0.26
14.9506	0.268
14.9898	0.279
15.0291	0.289
15.0683	0.283
15.1075	0.271
15.1467	0.265
15.1859	0.272
15.2251	0.284
15.2643	0.287
15.3036	0.29
15.3428	0.302
15.382	0.308
15.4212	0.31
15.4604	0.324
15.4996	0.32
15.5388	0.334
15.578	0.339
15.6173	0.335
15.6565	0.345
15.6957	0.34
15.7349	0.344
15.7741	0.356
15.8133	0.36
15.8525	0.362
15.8918	0.368
15.931	0.373
15.9702	0.379
