Infrared Spectrum: Aldehyde of Bryodulcosigenine 5
Formula: C27 H42 O3
State: SOLID (KBr DISC)
Class: COBLENTZ III
Instrument: PERKIN-ELMER 21 (GRATING)
Instrument parameters: NaCl PRISM
Sampling: TRANSMISSION
Resolution: 2
Origin: PROF. P. TUNMAN,UNIV. OF WURZBURG, GERMANY VIA SCIENTIFIC DOCUM. CTR., U.K.
1/CM	TRANSMITTANCE
649	0.8289
658	0.849
667	0.8288
676	0.8441
685	0.8504
694	0.8834
703	0.8959
712	0.9003
721	0.8983
730	0.8908
739	0.8267
748	0.8931
757	0.9018
766	0.895
775	0.8783
784	0.7962
793	0.8703
802	0.8932
811	0.8121
820	0.885
829	0.8714
838	0.8712
847	0.8875
856	0.8787
865	0.8729
874	0.8659
883	0.875
892	0.8632
901	0.8125
910	0.8485
919	0.7611
928	0.8212
937	0.6785
946	0.731
955	0.7643
964	0.7375
973	0.5076
982	0.5539
991	0.8102
1000	0.7851
1009	0.75
1018	0.8069
1027	0.6527
1036	0.7999
1045	0.8162
1054	0.7828
1063	0.726
1072	0.63
1081	0.6042
1090	0.6728
1099	0.6466
1108	0.5911
1117	0.6798
1126	0.6792
1135	0.7153
1144	0.7303
1153	0.7901
1162	0.7802
1171	0.7009
1180	0.7004
1189	0.7327
1198	0.737
1207	0.619
1216	0.6364
1225	0.7418
1234	0.6767
1243	0.4349
1252	0.7014
1261	0.7891
1270	0.7351
1279	0.6573
1288	0.6308
1297	0.603
1306	0.7664
1315	0.834
1324	0.7703
1333	0.7666
1342	0.8126
1351	0.7544
1360	0.6393
1369	0.5062
1378	0.5443
1387	0.5051
1396	0.7397
1405	0.6439
1414	0.6718
1423	0.6682
1432	0.5483
1441	0.5318
1450	0.6149
1459	0.5347
1468	0.6193
1477	0.7955
1486	0.872
1495	0.8921
1504	0.9033
1513	0.9013
1522	0.9045
1531	0.8926
1540	0.9076
1549	0.9007
1558	0.902
1567	0.8913
1576	0.8925
1585	0.8768
1594	0.8752
1603	0.84
1612	0.834
1621	0.8272
1630	0.8048
1639	0.7766
1648	0.7081
1657	0.5501
1666	0.3171
1675	0.2091
1684	0.538
1693	0.7438
1702	0.7134
1711	0.2417
1720	0.5187
1729	0.7722
1738	0.8123
1747	0.8432
1756	0.867
1765	0.8818
1774	0.8891
1783	0.8907
1792	0.8965
1801	0.9044
1810	0.9138
1819	0.9244
1828	0.9277
1837	0.925
1846	0.9265
1855	0.9297
1864	0.9323
1873	0.9323
1882	0.9346
1891	0.9379
1900	0.9355
1909	0.9298
1918	0.9283
1927	0.9292
1936	0.9328
1945	0.9349
1954	0.9314
1963	0.9296
1972	0.928
1981	0.9305
1990	0.9358
1999	0.9369
2008	0.9373
2017	0.9373
2026	0.937
2035	0.9371
2044	0.9373
2053	0.9376
2062	0.9379
2071	0.9368
2080	0.9354
2089	0.9334
2098	0.9328
2107	0.9361
2116	0.9365
2125	0.9362
2134	0.9355
2143	0.9348
2152	0.9342
2161	0.9336
2170	0.9327
2179	0.9313
2188	0.9312
2197	0.9363
2206	0.9352
2215	0.9324
2224	0.9292
2233	0.9245
2242	0.9222
2251	0.9287
2260	0.93
2269	0.9302
2278	0.9304
2287	0.9305
2296	0.93
2305	0.9291
2314	0.9254
2323	0.9156
2332	0.9099
2341	0.9134
2350	0.9183
2359	0.921
2368	0.9228
2377	0.9238
2386	0.9256
2395	0.9272
2404	0.9278
2413	0.9271
2422	0.9259
2431	0.9247
2440	0.9228
2449	0.921
2458	0.9191
2467	0.9172
2476	0.9153
2485	0.9135
2494	0.9118
2503	0.9101
2512	0.9084
2521	0.9068
2530	0.9045
2539	0.9022
2548	0.8999
2557	0.8975
2566	0.8943
2575	0.8909
2584	0.8875
2593	0.8832
2602	0.8788
2611	0.8745
2620	0.8691
2629	0.8635
2638	0.8572
2647	0.8495
2656	0.8398
2665	0.8272
2674	0.8089
2683	0.7727
2692	0.7098
2701	0.6607
2710	0.686
2719	0.7836
2728	0.8424
2737	0.8423
2746	0.8368
2755	0.8111
2764	0.7801
2773	0.7493
2782	0.7216
2791	0.6698
2800	0.5847
2809	0.5776
2818	0.5752
2827	0.569
2836	0.5324
2845	0.4849
2854	0.4377
2863	0.4093
2872	0.3949
2881	0.3925
2890	0.3956
2899	0.36
2908	0.3183
2917	0.3037
2926	0.2937
2935	0.2903
2944	0.2899
2953	0.3416
2962	0.4321
2971	0.522
2980	0.6113
2989	0.7002
2998	0.7884
3007	0.8639
3016	0.8687
3025	0.8711
3034	0.8734
3043	0.8772
3052	0.8819
3061	0.887
3070	0.8911
3079	0.893
3088	0.8942
3097	0.8943
3106	0.894
3115	0.8933
3124	0.8926
3133	0.8918
3142	0.8904
3151	0.8888
3160	0.8855
3169	0.8813
3178	0.8768
3187	0.8723
3196	0.868
3205	0.864
3214	0.8607
3223	0.8585
3232	0.8576
3241	0.8566
3250	0.8545
3259	0.844
3268	0.8347
3277	0.8255
3286	0.816
3295	0.8046
3304	0.7926
3313	0.7771
3322	0.7576
3331	0.7449
3340	0.7352
3349	0.725
3358	0.7134
3367	0.6966
3376	0.6697
3385	0.6459
3394	0.6261
3403	0.6024
3412	0.5681
3421	0.5203
3430	0.4473
3439	0.3747
3448	0.3321
3457	0.3311
3466	0.3689
3475	0.428
3484	0.4868
3493	0.5453
3502	0.6034
3511	0.6612
3520	0.7189
3529	0.7761
3538	0.8279
3547	0.863
3556	0.8892
3565	0.8929
3574	0.8957
3583	0.8984
3592	0.9012
3601	0.904
3610	0.9096
3619	0.9148
3628	0.9224
3637	0.9258
3646	0.9269
3655	0.9277
3664	0.9279
3673	0.9281
3682	0.9283
3691	0.9284
3700	0.9286
3709	0.9286
3718	0.9288
3727	0.929
3736	0.929
3745	0.9293
3754	0.9297
3763	0.9301
3772	0.9304
3781	0.9303
3790	0.9302
3799	0.9301
3808	0.9299
3817	0.9291
3826	0.9282
3835	0.9273
3844	0.9265
3853	0.9256
3862	0.9251
3871	0.9246
3880	0.924
3889	0.9235
3898	0.923
3907	0.9225
3916	0.9224
3925	0.9222
3934	0.9221
3943	0.922
3952	0.9218
3961	0.9217
3970	0.9215
3979	0.9214
3988	0.9211
3997	0.9209
