Infrared Spectrum: Cacotheline
Formula: C21 H21 N3 O7
State: SOLID (SPLIT MULL)
Class: COBLENTZ II
Instrument: DOW KBr FOREPRISM-GRATING
Instrument parameters: BLAZED AT 3.5, 12.0, 20.0 MICRON AND CHANGED AT 5.0, 7.5, 14.9 MICRON
Sampling: TRANSMISSION
Resolution: 2
Origin: DOW CHEMICAL COMPANY
1/CM	TRANSMITTANCE
3800	0.6454
3791	0.6471
3782	0.6499
3773	0.6525
3764	0.6546
3755	0.6562
3746	0.6578
3737	0.659
3728	0.6597
3719	0.6595
3710	0.6607
3701	0.6632
3692	0.6643
3683	0.6622
3674	0.6647
3665	0.6669
3656	0.6684
3647	0.6678
3638	0.6671
3629	0.665
3620	0.6628
3611	0.6588
3602	0.6534
3593	0.6471
3584	0.6415
3575	0.6367
3566	0.6336
3557	0.6393
3548	0.6421
3539	0.6422
3530	0.643
3521	0.6436
3512	0.6445
3503	0.6461
3494	0.6476
3485	0.6496
3476	0.6524
3467	0.6551
3458	0.6585
3449	0.6619
3440	0.6656
3431	0.6698
3422	0.6738
3413	0.6775
3404	0.6817
3395	0.6858
3386	0.6883
3377	0.6895
3368	0.6893
3359	0.688
3350	0.6846
3341	0.6786
3332	0.6549
3323	0.5187
3314	0.2983
3305	0.3848
3296	0.5546
3287	0.5866
3278	0.6135
3269	0.6308
3260	0.6435
3251	0.6521
3242	0.6583
3233	0.6611
3224	0.6619
3215	0.6618
3206	0.6578
3197	0.6504
3188	0.6383
3179	0.6235
3170	0.6075
3161	0.5699
3152	0.5232
3143	0.4844
3134	0.4435
3125	0.4126
3116	0.3988
3107	0.3957
3098	0.399
3089	0.4102
3080	0.4281
3071	0.449
3062	0.4704
3053	0.4907
3044	0.5103
3035	0.5279
3026	0.5376
3017	0.5426
3008	0.5448
2999	0.5382
2990	0.5501
2981	0.5588
2972	0.5698
2963	0.5619
2954	0.5691
2945	0.576
2936	0.5821
2927	0.5869
2918	0.5862
2909	0.5823
2900	0.5745
2891	0.5682
2882	0.5654
2873	0.5751
2864	0.5864
2855	0.5864
2846	0.5877
2837	0.5927
2828	0.5991
2819	0.6069
2810	0.616
2801	0.6283
2792	0.6351
2783	0.6405
2774	0.6431
2765	0.6438
2756	0.6457
2747	0.6475
2738	0.6496
2729	0.6518
2720	0.654
2711	0.6561
2702	0.6583
2693	0.6606
2684	0.663
2675	0.6651
2666	0.6669
2657	0.6688
2648	0.6705
2639	0.6725
2630	0.6767
2621	0.6811
2612	0.6835
2603	0.6834
2594	0.6836
2585	0.684
2576	0.6844
2567	0.6854
2558	0.6865
2549	0.6875
2540	0.6893
2531	0.6911
2522	0.693
2513	0.6954
2504	0.6983
2495	0.7012
2486	0.7065
2477	0.7115
2468	0.7171
2459	0.7225
2450	0.728
2441	0.7328
2432	0.7376
2423	0.7422
2414	0.7464
2405	0.7503
2396	0.7538
2387	0.7572
2378	0.7598
2369	0.7618
2360	0.7621
2351	0.7621
2342	0.7626
2333	0.7621
2324	0.7651
2315	0.7689
2306	0.7725
2297	0.7757
2288	0.7789
2279	0.7819
2270	0.7851
2261	0.7884
2252	0.7915
2243	0.7948
2234	0.7985
2225	0.8024
2216	0.8062
2207	0.8101
2198	0.8137
2189	0.8172
2180	0.8209
2171	0.8232
2162	0.8253
2153	0.8273
2144	0.8301
2135	0.833
2126	0.8359
2117	0.8389
2108	0.842
2099	0.8444
2090	0.8464
2081	0.8474
2072	0.8488
2063	0.8507
2054	0.8524
2045	0.8542
2036	0.8566
2027	0.8583
2018	0.8605
2009	0.8618
2000	0.8621
1991	0.8518
1982	0.861
1973	0.863
1964	0.8638
1955	0.8641
1946	0.8647
1937	0.865
1928	0.8644
1919	0.8649
1910	0.8659
1901	0.8661
1892	0.8642
1883	0.8623
1874	0.8618
1865	0.8632
1856	0.8651
1847	0.8665
1838	0.8677
1829	0.8687
1820	0.8704
1811	0.872
1802	0.8728
1793	0.87
1784	0.8641
1775	0.8538
1766	0.8375
1757	0.8014
1748	0.7525
1739	0.5264
1730	0.2357
1721	0.5025
1712	0.6917
1703	0.7049
1694	0.4246
1685	0.3072
1676	0.3022
1667	0.3792
1658	0.5194
1649	0.6308
1640	0.6851
1631	0.7041
1622	0.6618
1613	0.3628
1604	0.058
1595	0.2048
1586	0.4731
1577	0.6383
1568	0.7119
1559	0.7661
1550	0.8015
1541	0.8187
1532	0.8308
1523	0.8401
1514	0.8443
1505	0.8352
1496	0.7998
1487	0.6147
1478	0.4881
1469	0.6372
1460	0.5897
1451	0.4571
1442	0.4703
1433	0.3173
1424	0.3682
1415	0.3476
1406	0.2693
1397	0.3354
1388	0.3864
1379	0.2934
1370	0.2325
1361	0.2063
1352	0.3294
1343	0.3382
1334	0.2527
1325	0.1231
1316	0.1696
1307	0.2413
1298	0.2695
1289	0.3362
1280	0.2803
1271	0.4902
1262	0.5782
1253	0.5769
1244	0.5142
1235	0.3528
1226	0.2819
1217	0.3759
1208	0.3388
1199	0.4405
1190	0.4
1181	0.3964
1172	0.5218
1163	0.5524
1154	0.6834
1145	0.7332
1136	0.7265
1127	0.6472
1118	0.3327
1109	0.6737
1100	0.7278
1091	0.6425
1082	0.7033
1073	0.6554
1064	0.7786
1055	0.794
1046	0.7701
1037	0.6239
1028	0.6331
1019	0.6867
1010	0.6174
1001	0.78
992	0.7267
983	0.7803
974	0.7872
965	0.7888
956	0.7596
947	0.7546
938	0.7244
929	0.7085
920	0.7858
911	0.7985
902	0.7818
893	0.7528
884	0.7733
875	0.7542
866	0.82
857	0.8283
848	0.661
839	0.8144
830	0.8164
821	0.7564
812	0.8104
803	0.8188
794	0.7294
785	0.7597
776	0.8235
767	0.8096
758	0.8196
749	0.7545
740	0.8178
731	0.7725
722	0.6195
713	0.6968
704	0.7581
695	0.7011
686	0.7978
677	0.714
668	0.7506
659	0.8685
650	0.8923
641	0.8499
632	0.8801
623	0.849
614	0.8935
605	0.8587
596	0.8578
587	0.8774
578	0.8658
569	0.8428
560	0.8689
551	0.8464
542	0.859
533	0.8632
524	0.864
515	0.8555
506	0.7861
497	0.8407
488	0.8494
479	0.8162
470	0.8132
461	0.7971
452	0.7893
