Infrared Spectrum: Laurex (principally zinc laurate)
Formula: C24 H46 O4 Zn
State: SOLID (OIL MULL)
Class: COBLENTZ
Instrument: BAIRD (PRISM)
Instrument parameters: NaCl PRISM
Sampling: TRANSMISSION
Resolution: 2
Origin: WYANDOTTE CHEMICALS CORP.
1/CM	TRANSMITTANCE
627	0.7472
636	0.7704
645	0.7887
654	0.8153
663	0.8237
672	0.8592
681	0.867
690	0.8632
699	0.8422
708	0.7615
717	0.3749
726	0.4714
735	0.4583
744	0.3029
753	0.3928
762	0.6831
771	0.765
780	0.7498
789	0.8744
798	0.895
807	0.8915
816	0.866
825	0.8755
834	0.8976
843	0.8812
852	0.8746
861	0.8675
870	0.8299
879	0.8586
888	0.838
897	0.8656
906	0.8553
915	0.8275
924	0.8142
933	0.8048
942	0.7652
951	0.7196
960	0.7924
969	0.7985
978	0.7682
987	0.7545
996	0.7355
1005	0.7723
1014	0.7883
1023	0.7668
1032	0.7402
1041	0.7051
1050	0.6871
1059	0.6733
1068	0.6563
1077	0.6926
1086	0.6656
1095	0.6868
1104	0.7182
1113	0.6879
1122	0.6218
1131	0.6597
1140	0.7668
1149	0.7625
1158	0.7308
1167	0.714
1176	0.7176
1185	0.752
1194	0.7603
1203	0.7137
1212	0.7524
1221	0.7412
1230	0.7468
1239	0.7212
1248	0.717
1257	0.7205
1266	0.6536
1275	0.6854
1284	0.6552
1293	0.6246
1302	0.589
1311	0.5559
1320	0.5512
1329	0.572
1338	0.5713
1347	0.4566
1356	0.4394
1365	0.3818
1374	0.2348
1383	0.0951
1392	0.188
1401	0.1471
1410	0.0786
1419	0.0921
1428	0.254
1437	0.2973
1446	0.1377
1455	0.0375
1464	0.0214
1473	0.0186
1482	0.0047
1491	0.2689
1500	0.3355
1509	0.2906
1518	0.2423
1527	0.1468
1536	0.0347
1545	0.0332
1554	0.0429
1563	0.0227
1572	0.0885
1581	0.1265
1590	0.2328
1599	0.2854
1608	0.2606
1617	0.3544
1626	0.5332
1635	0.6578
1644	0.7684
1653	0.8201
1662	0.8475
1671	0.8582
1680	0.8928
1689	0.8997
1698	0.9009
1707	0.8978
1716	0.8979
1725	0.8801
1734	0.8816
1743	0.815
1752	0.747
1761	0.8714
1770	0.9545
1779	0.962
1788	0.9742
1797	0.9755
1806	0.9761
1815	0.9787
1824	0.9786
1833	0.974
1842	0.968
1851	0.9748
1860	0.972
1869	0.9654
1878	0.9614
1887	0.9591
1896	0.9582
1905	0.9583
1914	0.9588
1923	0.9607
1932	0.9634
1941	0.9652
1950	0.9667
1959	0.9682
1968	0.9702
1977	0.9711
1986	0.972
1995	0.9708
2004	0.9681
2013	0.9685
2022	0.9699
2031	0.9719
2040	0.9735
2049	0.9749
2058	0.9764
2067	0.9777
2076	0.979
2085	0.9807
2094	0.9806
2103	0.9788
2112	0.9769
2121	0.9745
2130	0.9707
2139	0.9675
2148	0.9644
2157	0.9629
2166	0.9621
2175	0.9612
2184	0.9602
2193	0.959
2202	0.958
2211	0.9559
2220	0.9537
2229	0.9516
2238	0.9495
2247	0.9475
2256	0.9454
2265	0.9435
2274	0.9431
2283	0.9427
2292	0.9415
2301	0.9313
2310	0.9246
2319	0.9187
2328	0.9133
2337	0.9085
2346	0.9039
2355	0.9014
2364	0.9006
2373	0.9015
2382	0.9035
2391	0.9053
2400	0.9071
2409	0.9093
2418	0.9113
2427	0.9116
2436	0.9119
2445	0.9122
2454	0.9105
2463	0.9069
2472	0.898
2481	0.8938
2490	0.8915
2499	0.8882
2508	0.8841
2517	0.8789
2526	0.8732
2535	0.8663
2544	0.8573
2553	0.8471
2562	0.8342
2571	0.8219
2580	0.8092
2589	0.7955
2598	0.7788
2607	0.7662
2616	0.7589
2625	0.7521
2634	0.746
2643	0.74
2652	0.7342
2661	0.729
2670	0.7246
2679	0.7221
2688	0.7207
2697	0.7196
2706	0.7077
2715	0.6884
2724	0.6828
2733	0.6864
2742	0.6939
2751	0.6998
2760	0.695
2769	0.6691
2778	0.6462
2787	0.6206
2796	0.5605
2805	0.4356
2814	0.3148
2823	0.2274
2832	0.0596
2841	0.0202
2850	0.016
2859	0.0145
2868	0.014
2877	0.0144
2886	0.0144
2895	0.0143
2904	0.0139
2913	0.0132
2922	0.0126
2931	0.0119
2940	0.0113
2949	0.0107
2958	0.0105
2967	0.014
2976	0.0194
2985	0.0347
2994	0.0516
3003	0.1259
3012	0.2075
3021	0.2887
3030	0.3693
3039	0.4495
3048	0.5292
3057	0.6084
3066	0.6818
3075	0.7115
3084	0.7288
3093	0.733
3102	0.7341
3111	0.7332
3120	0.7321
3129	0.7308
3138	0.7295
3147	0.7265
3156	0.723
3165	0.7184
3174	0.7139
3183	0.7104
3192	0.7078
3201	0.7072
3210	0.706
3219	0.7048
3228	0.7033
3237	0.6993
3246	0.6948
3255	0.689
3264	0.6831
3273	0.6775
3282	0.672
3291	0.667
3300	0.6627
3309	0.6601
3318	0.6591
3327	0.6581
3336	0.6583
3345	0.6597
3354	0.6629
3363	0.6661
3372	0.671
3381	0.6762
3390	0.6812
3399	0.6862
3408	0.6916
3417	0.6989
3426	0.7061
3435	0.7137
3444	0.7219
3453	0.7305
3462	0.7397
3471	0.7499
3480	0.7596
3489	0.7705
3498	0.7915
3507	0.8006
3516	0.8098
3525	0.8188
3534	0.8279
3543	0.8368
3552	0.8457
3561	0.8546
3570	0.8634
3579	0.8748
3588	0.8861
3597	0.8944
3606	0.8987
3615	0.9028
3624	0.9068
3633	0.9094
3642	0.9119
3651	0.9141
3660	0.9153
3669	0.9166
3678	0.9178
3687	0.9185
3696	0.9188
3705	0.9191
3714	0.9191
3723	0.9188
3732	0.9188
3741	0.9203
3750	0.9214
3759	0.9207
3768	0.9172
3777	0.912
3786	0.9106
3795	0.9097
3804	0.9092
3813	0.9087
3822	0.9089
3831	0.9094
3840	0.9108
3849	0.9128
3858	0.9143
3867	0.9157
3876	0.9156
3885	0.9147
3894	0.9133
3903	0.9118
3912	0.9103
3921	0.9087
3930	0.907
3939	0.9052
3948	0.9033
3957	0.9014
3966	0.8994
3975	0.8975
3984	0.8954
3993	0.8931
