Infrared Spectrum: CALCIUM ORTHOARSENATE, TRIBASIC
Formula: Ca3 ( As O4)2
State: SOLID (NUJOL MULL)
Class: COBLENTZ
Instrument: Not specified, most likely a prism, grating, or hybrid spectrometer.
Sampling: TRANSMISSION
Resolution: 4
Origin: MELLON INSTITUTE
MICROMETERS	TRANSMITTANCE
2.012	0.936
2.05289	0.96
2.09378	0.965
2.13467	0.967
2.17556	0.967
2.21646	0.967
2.25735	0.965
2.29824	0.958
2.33913	0.957
2.38002	0.958
2.42091	0.962
2.4618	0.965
2.50269	0.972
2.54358	0.977
2.58448	0.979
2.62537	0.979
2.66626	0.977
2.70715	0.972
2.74804	0.95
2.78893	0.938
2.82982	0.89
2.87071	0.842
2.9116	0.809
2.9525	0.782
2.99339	0.765
3.03428	0.751
3.07517	0.734
3.11606	0.723
3.15695	0.716
3.19784	0.72
3.23873	0.718
3.27962	0.704
3.32052	0.533
3.36141	0.154
3.4023	0.078
3.44319	0.272
3.48408	0.236
3.52497	0.639
3.56586	0.703
3.60675	0.735
3.64764	0.753
3.68854	0.768
3.72943	0.782
3.77032	0.787
3.81121	0.787
3.8521	0.783
3.89299	0.773
3.93388	0.758
3.97477	0.746
4.01566	0.737
4.05656	0.727
4.09745	0.716
4.13834	0.71
4.17923	0.701
4.22012	0.694
4.26101	0.689
4.3019	0.689
4.34279	0.687
4.38368	0.689
4.42458	0.692
4.46547	0.694
4.50636	0.704
4.54725	0.71
4.58814	0.711
4.62903	0.713
4.66992	0.72
4.71081	0.732
4.7517	0.742
4.7926	0.754
4.83349	0.758
4.87438	0.758
4.91527	0.763
4.95616	0.775
4.99705	0.782
5.03794	0.783
5.07883	0.787
5.11972	0.792
5.16062	0.795
5.20151	0.799
5.2424	0.799
5.28329	0.799
5.32418	0.797
5.36507	0.79
5.40596	0.787
5.44685	0.783
5.48774	0.78
5.52864	0.775
5.56953	0.77
5.61042	0.765
5.65131	0.761
5.6922	0.744
5.73309	0.747
5.77398	0.728
5.81487	0.715
5.85576	0.708
5.89666	0.694
5.93755	0.677
5.97844	0.658
6.01933	0.641
6.06022	0.626
6.10111	0.619
6.142	0.608
6.18289	0.6
6.22378	0.596
6.26468	0.598
6.30557	0.596
6.34646	0.595
6.38735	0.593
6.42824	0.595
6.46913	0.595
6.51002	0.596
6.55091	0.598
6.5918	0.605
6.6327	0.612
6.67359	0.617
6.71448	0.619
6.75537	0.6
6.79626	0.495
6.83715	0.416
6.87804	0.43
6.91893	0.485
6.95982	0.545
7.00072	0.598
7.04161	0.607
7.0825	0.617
7.12339	0.62
7.16428	0.603
7.20517	0.547
7.24606	0.478
7.28695	0.493
7.32784	0.512
7.36874	0.531
7.40963	0.533
7.45052	0.538
7.49141	0.545
7.5323	0.562
7.57319	0.567
7.61408	0.574
7.65497	0.578
7.69586	0.583
7.73676	0.593
7.77765	0.6
7.81854	0.608
7.85943	0.612
7.90032	0.619
7.94121	0.629
7.9821	0.632
8.02299	0.638
8.06388	0.643
8.10478	0.65
8.14567	0.655
8.18656	0.66
8.22745	0.668
8.26834	0.672
8.30923	0.677
8.35012	0.68
8.39101	0.686
8.4319	0.689
8.4728	0.696
8.51369	0.699
8.55458	0.703
8.59547	0.708
8.63636	0.71
8.67725	0.711
8.71814	0.715
8.75903	0.72
8.79992	0.723
8.84082	0.725
8.88171	0.73
8.9226	0.734
8.96349	0.737
9.00438	0.74
9.04527	0.746
9.08616	0.749
9.12705	0.751
9.16794	0.751
9.20884	0.753
9.24973	0.754
9.29062	0.753
9.33151	0.753
9.3724	0.751
9.41329	0.749
9.45418	0.747
9.49507	0.744
9.53596	0.74
9.57686	0.737
9.61775	0.732
9.65864	0.727
9.69953	0.72
9.74042	0.711
9.78131	0.706
9.8222	0.701
9.86309	0.698
9.90398	0.686
9.94488	0.687
9.98577	0.684
10.0267	0.684
10.0675	0.684
10.1084	0.682
10.1493	0.68
10.1902	0.679
10.2311	0.675
10.272	0.67
10.3129	0.667
10.3538	0.663
10.3947	0.653
10.4356	0.644
10.4765	0.629
10.5174	0.612
10.5582	0.586
10.5991	0.543
10.64	0.499
10.6809	0.451
10.7218	0.401
10.7627	0.358
10.8036	0.331
10.8445	0.315
10.8854	0.31
10.9263	0.3
10.9672	0.274
11.008	0.25
11.0489	0.221
11.0898	0.205
11.1307	0.198
11.1716	0.186
11.2125	0.174
11.2534	0.169
11.2943	0.168
11.3352	0.168
11.3761	0.171
11.417	0.171
11.4578	0.174
11.4987	0.174
11.5396	0.174
11.5805	0.171
11.6214	0.164
11.6623	0.156
11.7032	0.152
11.7441	0.152
11.785	0.154
11.8259	0.15
11.8668	0.152
11.9076	0.152
11.9485	0.152
11.9894	0.156
12.0303	0.164
12.0712	0.174
12.1121	0.178
12.153	0.197
12.1939	0.202
12.2348	0.216
12.2757	0.24
12.3166	0.253
12.3575	0.257
12.3983	0.269
12.4392	0.274
12.4801	0.277
12.521	0.289
12.5619	0.301
12.6028	0.315
12.6437	0.32
12.6846	0.322
12.7255	0.324
12.7664	0.334
12.8073	0.341
12.8481	0.356
12.889	0.368
12.9299	0.373
12.9708	0.375
13.0117	0.387
13.0526	0.391
13.0935	0.403
13.1344	0.411
13.1753	0.415
13.2162	0.418
13.2571	0.418
13.2979	0.42
13.3388	0.423
13.3797	0.428
13.4206	0.435
13.4615	0.435
13.5024	0.44
13.5433	0.445
13.5842	0.452
13.6251	0.456
13.666	0.461
13.7069	0.468
13.7477	0.473
13.7886	0.48
13.8295	0.487
13.8704	0.492
13.9113	0.499
13.9522	0.506
13.9931	0.512
14.034	0.528
14.0749	0.536
14.1158	0.545
14.1567	0.56
14.1976	0.569
14.2384	0.578
14.2793	0.584
14.3202	0.59
14.3611	0.595
14.402	0.6
14.4429	0.602
14.4838	0.605
14.5247	0.622
14.5656	0.629
14.6065	0.634
14.6474	0.639
14.6882	0.643
14.7291	0.646
14.77	0.65
14.8109	0.653
14.8518	0.656
14.8927	0.658
14.9336	0.656
14.9745	0.651
15.0154	0.653
15.0563	0.663
15.0972	0.665
15.138	0.667
15.1789	0.667
15.2198	0.665
15.2607	0.663
15.3016	0.656
15.3425	0.656
15.3834	0.667
15.4243	0.662
15.4652	0.658
15.5061	0.66
15.547	0.667
15.5878	0.667
15.6287	0.667
15.6696	0.663
15.7105	0.668
15.7514	0.667
15.7923	0.667
15.8332	0.672
15.8741	0.67
15.915	0.672
15.9559	0.674
