Infrared Spectrum: Tricarbonylcycloheptatrienylmolybdenum
Formula: C10 H7 Mo O3
State: SOLID (SPLIT MULL)
Class: COBLENTZ III
Instrument: DOW KBr FOREPRISM-GRATING
Instrument parameters: BLAZED AT 3.5, 12.0, 20.0 MICRON AND CHANGED AT 5.0, 7.5, 14.9 MICRON
Sampling: TRANSMISSION
Resolution: 2
Origin: DOW CHEMICAL COMPANY
1/CM	TRANSMITTANCE
3800	0.9013
3791	0.9027
3782	0.9045
3773	0.9062
3764	0.9068
3755	0.908
3746	0.91
3737	0.9124
3728	0.9133
3719	0.9083
3710	0.8999
3701	0.9025
3692	0.905
3683	0.9081
3674	0.9101
3665	0.911
3656	0.9116
3647	0.912
3638	0.9124
3629	0.9127
3620	0.9132
3611	0.9137
3602	0.9139
3593	0.9142
3584	0.9092
3575	0.9
3566	0.9046
3557	0.9054
3548	0.9057
3539	0.9055
3530	0.9055
3521	0.9055
3512	0.9055
3503	0.9058
3494	0.9061
3485	0.9064
3476	0.9067
3467	0.907
3458	0.9073
3449	0.9077
3440	0.9081
3431	0.9085
3422	0.9089
3413	0.9095
3404	0.9101
3395	0.9107
3386	0.9118
3377	0.9128
3368	0.9141
3359	0.9148
3350	0.9155
3341	0.9162
3332	0.9168
3323	0.9174
3314	0.9178
3305	0.9184
3296	0.9193
3287	0.9203
3278	0.9212
3269	0.9221
3260	0.923
3251	0.9239
3242	0.9248
3233	0.9255
3224	0.9262
3215	0.9268
3206	0.9277
3197	0.9284
3188	0.9291
3179	0.9297
3170	0.931
3161	0.9321
3152	0.9335
3143	0.935
3134	0.9367
3125	0.9384
3116	0.9397
3107	0.9409
3098	0.9418
3089	0.9425
3080	0.9428
3071	0.9412
3062	0.9375
3053	0.9353
3044	0.9334
3035	0.9363
3026	0.9437
3017	0.9459
3008	0.9468
2999	0.9478
2990	0.9498
2981	0.9515
2972	0.9521
2963	0.949
2954	0.9474
2945	0.9475
2936	0.9475
2927	0.946
2918	0.9433
2909	0.9421
2900	0.9427
2891	0.9374
2882	0.917
2873	0.9412
2864	0.949
2855	0.9509
2846	0.949
2837	0.9384
2828	0.9378
2819	0.9527
2810	0.9595
2801	0.9627
2792	0.9645
2783	0.9663
2774	0.9673
2765	0.9681
2756	0.969
2747	0.9697
2738	0.9701
2729	0.9705
2720	0.971
2711	0.9718
2702	0.9728
2693	0.9737
2684	0.9747
2675	0.9757
2666	0.9768
2657	0.9775
2648	0.9783
2639	0.9793
2630	0.9803
2621	0.9814
2612	0.9828
2603	0.9833
2594	0.9836
2585	0.9841
2576	0.9847
2567	0.9852
2558	0.9858
2549	0.9864
2540	0.9865
2531	0.9868
2522	0.9874
2513	0.9878
2504	0.9878
2495	0.9878
2486	0.9875
2477	0.9878
2468	0.9885
2459	0.9886
2450	0.9878
2441	0.9874
2432	0.9875
2423	0.9877
2414	0.9881
2405	0.9887
2396	0.9894
2387	0.9902
2378	0.992
2369	0.9947
2360	0.9968
2351	0.9978
2342	0.9984
2333	0.9982
2324	0.9981
2315	0.9941
2306	0.991
2297	0.9917
2288	0.9928
2279	0.9942
2270	0.9956
2261	0.9971
2252	0.9988
2243	1.0003
2234	1.0016
2225	1.0025
2216	1.0038
2207	1.0053
2198	1.0068
2189	1.0082
2180	1.0087
2171	1.0093
2162	1.0099
2153	1.0105
2144	1.0112
2135	1.0121
2126	1.0127
2117	1.0128
2108	1.0125
2099	1.0123
2090	1.0121
2081	1.011
2072	1.0139
2063	1.0064
2054	1.0059
2045	1.0041
2036	0.9998
2027	0.9917
2018	0.9805
2009	0.9641
2000	0.8018
1991	0.6525
1982	0.2113
1973	0.0791
1964	0.2773
1955	0.506
1946	0.6694
1937	0.676
1928	0.3234
1919	0.1969
1910	0.1637
1901	0.3053
1892	0.4751
1883	0.5116
1874	0.3021
1865	0.1328
1856	0.0958
1847	0.2931
1838	0.4949
1829	0.5585
1820	0.7365
1811	0.8056
1802	0.8528
1793	0.8825
1784	0.9032
1775	0.9195
1766	0.936
1757	0.9485
1748	0.9575
1739	0.9644
1730	0.9703
1721	0.9749
1712	0.9785
1703	0.9818
1694	0.9844
1685	0.9863
1676	0.9868
1667	0.9846
1658	0.9827
1649	0.9873
1640	0.989
1631	0.9892
1622	0.9897
1613	0.9912
1604	0.9928
1595	0.9952
1586	0.9927
1577	0.9902
1568	0.9906
1559	0.9909
1550	0.99
1541	0.9889
1532	0.9512
1523	0.9804
1514	0.9258
1505	0.9838
1496	0.9914
1487	0.9975
1478	0.9982
1469	0.9904
1460	0.7421
1451	0.9374
1442	0.9723
1433	0.8139
1424	0.9725
1415	0.9801
1406	0.9823
1397	0.9511
1388	0.9865
1379	0.9991
1370	0.9937
1361	0.9873
1352	0.9653
1343	0.9617
1334	0.9578
1325	0.9631
1316	0.9661
1307	0.9118
1298	0.9594
1289	0.9709
1280	0.9744
1271	0.9751
1262	0.9749
1253	0.9751
1244	0.982
1235	0.986
1226	0.9678
1217	0.9803
1208	0.9858
1199	0.9697
1190	0.9881
1181	0.9889
1172	0.9765
1163	0.9837
1154	0.9916
1145	0.996
1136	0.9932
1127	0.9952
1118	0.9995
1109	1.0018
1100	0.9999
1091	0.9953
1082	0.9998
1073	0.9999
1064	1.0001
1055	1.0035
1046	1.0059
1037	1.0064
1028	1.006
1019	1.0045
1010	1.0034
1001	0.9995
992	0.9157
983	0.9595
974	0.9939
965	0.9924
956	1.0028
947	1.0023
938	1.0056
929	1.0109
920	1.0111
911	1.0139
902	1.0166
893	1.014
884	1.0058
875	1.0096
866	1.0212
857	1.0245
848	1.0221
839	0.8821
830	1.0218
821	1.029
812	1.0318
803	1.0354
794	1.0297
785	0.9591
776	1.0305
767	1.0362
758	1.0392
749	1.0414
740	1.0417
731	1.0386
722	1.0316
713	1.0482
704	1.0655
695	1.078
686	1.0835
677	1.084
668	1.0814
659	1.0323
650	1.0749
641	1.0652
632	1.0558
623	1.0496
614	1.0437
605	0.7383
596	1.0098
587	1.0209
578	0.8414
569	0.9881
560	1.015
551	0.9432
542	0.9314
533	1.0051
524	1.0209
515	1.0255
506	1.0252
497	0.8468
488	0.8051
479	0.9961
470	1.0216
461	1.0146
452	1.0071
443	1.0006
434	0.8544
425	0.9385
416	0.933
407	0.9295
398	0.9221
389	0.914
380	0.8978
