Infrared Spectrum: 1,1'-(5-PHENYL-1,1,3,3,5,5-HEXAMETHYLTRISILOXANYL)-FERROCENE
Formula: C34 H54 Fe O4 Si6
State: LIQUID
Class: COBLENTZ
Instrument: Not specified, most likely a prism, grating, or hybrid spectrometer.
Sampling: TRANSMISSION
Path length: CAPILLARY
Resolution: 4
Origin: WYANDOTTE CHEMICALS CORP., WYANDOTTE, MICHIGAN, USA
MICROMETERS	TRANSMITTANCE
2.06	0.983
2.09973	0.983
2.13947	0.99
2.1792	0.988
2.21894	0.985
2.25867	0.986
2.29841	0.988
2.33814	0.99
2.37788	0.98
2.41761	0.98
2.45734	0.981
2.49708	0.99
2.53681	0.991
2.57655	0.98
2.61628	0.986
2.65602	0.983
2.69575	0.988
2.73549	0.99
2.77522	0.99
2.81495	0.986
2.85469	0.986
2.89442	0.986
2.93416	0.986
2.97389	0.983
3.01363	0.981
3.05336	0.976
3.0931	0.975
3.13283	0.968
3.17257	0.945
3.2123	0.826
3.25203	0.809
3.29177	0.829
3.3315	0.494
3.37124	0.808
3.41097	0.813
3.45071	0.907
3.49044	0.942
3.53018	0.947
3.56991	0.953
3.60964	0.98
3.64938	0.981
3.68911	0.986
3.72885	0.986
3.76858	0.988
3.80832	0.99
3.84805	0.99
3.88779	0.993
3.92752	0.995
3.96725	0.996
4.00699	0.993
4.04672	0.985
4.08646	0.986
4.12619	0.99
4.16593	0.986
4.20566	0.988
4.2454	0.988
4.28513	0.995
4.32486	0.998
4.3646	1
4.40433	0.998
4.44407	0.995
4.4838	0.99
4.52354	0.993
4.56327	0.99
4.60301	0.99
4.64274	0.996
4.68248	0.998
4.72221	0.995
4.76194	0.995
4.80168	0.995
4.84141	0.991
4.88115	0.986
4.92088	0.988
4.96062	0.991
5.00035	0.996
5.04009	0.993
5.07982	0.988
5.11955	0.983
5.15929	0.966
5.19902	0.97
5.23876	0.98
5.27849	0.975
5.31823	0.978
5.35796	0.976
5.3977	0.99
5.43743	0.986
5.47716	0.981
5.5169	0.975
5.55663	0.98
5.59637	0.981
5.6361	0.961
5.67584	0.952
5.71557	0.942
5.75531	0.94
5.79504	0.94
5.83477	0.937
5.87451	0.933
5.91424	0.925
5.95398	0.92
5.99371	0.912
6.03345	0.907
6.07318	0.909
6.11292	0.917
6.15265	0.915
6.19239	0.922
6.23212	0.88
6.27185	0.912
6.31159	0.912
6.35132	0.914
6.39106	0.923
6.43079	0.927
6.47053	0.937
6.51026	0.935
6.55	0.938
6.58973	0.937
6.62946	0.938
6.6692	0.917
6.70893	0.909
6.74867	0.912
6.7884	0.904
6.82814	0.889
6.86787	0.846
6.90761	0.814
6.94734	0.672
6.98707	0.552
7.02681	0.702
7.06654	0.684
7.10628	0.735
7.14601	0.781
7.18575	0.824
7.22548	0.839
7.26522	0.859
7.30495	0.758
7.34468	0.867
7.38442	0.904
7.42415	0.904
7.46389	0.902
7.50362	0.907
7.54336	0.895
7.58309	0.876
7.62283	0.869
7.66256	0.829
7.7023	0.852
7.74203	0.862
7.78176	0.834
7.8215	0.771
7.86123	0.618
7.90097	0.203
7.9407	0.084
7.98044	0.158
8.02017	0.507
8.05991	0.74
8.09964	0.809
8.13937	0.844
8.17911	0.861
8.21884	0.871
8.25858	0.871
8.29831	0.872
8.33805	0.867
8.37778	0.838
8.41752	0.76
8.45725	0.694
8.49698	0.677
8.53672	0.36
8.57645	0.446
8.61619	0.684
8.65592	0.732
8.69566	0.742
8.73539	0.723
8.77513	0.68
8.81486	0.618
8.85459	0.462
8.89433	0.233
8.93406	0.228
8.9738	0.363
9.01353	0.323
9.05327	0.246
9.093	0.181
9.13274	0.138
9.17247	0.119
9.21221	0.099
9.25194	0.09
9.29167	0.084
9.33141	0.08
9.37114	0.074
9.41088	0.067
9.45061	0.064
9.49035	0.059
9.53008	0.049
9.56982	0.046
9.60955	0.041
9.64928	0.047
9.68902	0.062
9.72875	0.072
9.76849	0.11
9.80822	0.188
9.84796	0.264
9.88769	0.366
9.92743	0.447
9.96716	0.515
10.0069	0.492
10.0466	0.591
10.0864	0.646
10.1261	0.687
10.1658	0.712
10.2056	0.738
10.2453	0.748
10.285	0.765
10.3248	0.775
10.3645	0.79
10.4042	0.803
10.444	0.813
10.4837	0.821
10.5234	0.828
10.5632	0.833
10.6029	0.836
10.6426	0.841
10.6824	0.844
10.7221	0.846
10.7618	0.846
10.8016	0.846
10.8413	0.844
10.8811	0.836
10.9208	0.831
10.9605	0.823
11.0003	0.803
11.04	0.77
11.0797	0.702
11.1195	0.656
11.1592	0.626
11.1989	0.649
11.2387	0.71
11.2784	0.728
11.3181	0.732
11.3579	0.728
11.3976	0.707
11.4373	0.674
11.4771	0.636
11.5168	0.563
11.5565	0.497
11.5963	0.457
11.636	0.434
11.6757	0.411
11.7155	0.406
11.7552	0.411
11.7949	0.423
11.8347	0.429
11.8744	0.408
11.9141	0.363
11.9539	0.309
11.9936	0.233
12.0334	0.163
12.0731	0.122
12.1128	0.12
12.1526	0.137
12.1923	0.143
12.232	0.142
12.2718	0.147
12.3115	0.157
12.3512	0.15
12.391	0.133
12.4307	0.1
12.4704	0.08
12.5102	0.062
12.5499	0.047
12.5896	0.042
12.6294	0.041
12.6691	0.046
12.7088	0.054
12.7486	0.076
12.7883	0.099
12.828	0.14
12.8678	0.186
12.9075	0.256
12.9472	0.36
12.987	0.452
13.0267	0.528
13.0664	0.581
13.1062	0.619
13.1459	0.646
13.1857	0.666
13.2254	0.674
13.2651	0.676
13.3049	0.661
13.3446	0.624
13.3843	0.566
13.4241	0.502
13.4638	0.485
13.5035	0.49
13.5433	0.5
13.583	0.512
13.6227	0.525
13.6625	0.532
13.7022	0.522
13.7419	0.502
13.7817	0.462
13.8214	0.439
13.8611	0.461
13.9009	0.517
13.9406	0.585
13.9803	0.618
14.0201	0.628
14.0598	0.619
14.0995	0.583
14.1393	0.519
14.179	0.462
14.2187	0.413
14.2585	0.385
14.2982	0.355
14.338	0.323
14.3777	0.304
14.4174	0.317
14.4572	0.404
14.4969	0.495
14.5366	0.563
14.5764	0.608
14.6161	0.616
14.6558	0.623
14.6956	0.621
14.7353	0.611
14.775	0.6
14.8148	0.595
14.8545	0.595
14.8942	0.606
14.934	0.634
14.9737	0.664
15.0134	0.676
15.0532	0.679
15.0929	0.69
15.1326	0.709
15.1724	0.72
15.2121	0.694
15.2518	0.661
15.2916	0.621
15.3313	0.598
15.371	0.608
15.4108	0.641
15.4505	0.689
15.4903	0.717
15.53	0.73
15.5697	0.742
15.6095	0.75
15.6492	0.752
15.6889	0.757
15.7287	0.75
15.7684	0.752
15.8081	0.75
15.8479	0.74
15.8876	0.735
15.9273	0.733
15.9671	0.725
16.0068	0.725
