Infrared Spectrum: L-(-)-RHAMNOSE
Formula: C6 H12 O5  * H2 O
Class: COBLENTZ
Instrument: Not specified, most likely a prism, grating, or hybrid spectrometer.
Sampling: TRANSMISSION
Resolution: 4
Origin: WYANDOTTE CHEMICALS CORP., WYANDOTTE, MICHIGAN, USA
MICROMETERS	TRANSMITTANCE
2.012	0.925
2.0515	0.92
2.091	0.935
2.1305	0.941
2.17	0.941
2.2095	0.926
2.249	0.88
2.2885	0.888
2.328	0.905
2.36751	0.893
2.40701	0.875
2.44651	0.91
2.48601	0.92
2.52551	0.936
2.56501	0.941
2.60451	0.941
2.64401	0.92
2.68351	0.921
2.72301	0.88
2.76251	0.808
2.80201	0.568
2.84151	0.289
2.88101	0.126
2.92051	0.039
2.96001	0.068
2.99951	0.064
3.03901	0.041
3.07852	0.036
3.11802	0.034
3.15752	0.034
3.19702	0.041
3.23652	0.093
3.27602	0.169
3.31552	0.23
3.35502	0.107
3.39452	0.033
3.43402	0.033
3.47352	0.033
3.51302	0.036
3.55252	0.214
3.59202	0.495
3.63152	0.579
3.67102	0.543
3.71052	0.528
3.75002	0.543
3.78953	0.642
3.82903	0.692
3.86853	0.71
3.90803	0.692
3.94753	0.719
3.98703	0.754
4.02653	0.795
4.06603	0.81
4.10553	0.815
4.14503	0.803
4.18453	0.835
4.22403	0.843
4.26353	0.832
4.30303	0.848
4.34253	0.862
4.38203	0.888
4.42153	0.88
4.46104	0.868
4.50054	0.867
4.54004	0.87
4.57954	0.88
4.61904	0.873
4.65854	0.877
4.69804	0.877
4.73754	0.862
4.77704	0.895
4.81654	0.893
4.85604	0.916
4.89554	0.921
4.93504	0.931
4.97454	0.936
5.01404	0.945
5.05354	0.941
5.09304	0.941
5.13254	0.943
5.17205	0.935
5.21155	0.945
5.25105	0.948
5.29055	0.961
5.33005	0.951
5.36955	0.945
5.40905	0.955
5.44855	0.948
5.48805	0.951
5.52755	0.941
5.56705	0.916
5.60655	0.94
5.64605	0.935
5.68555	0.931
5.72505	0.911
5.76455	0.89
5.80405	0.862
5.84355	0.83
5.88306	0.792
5.92256	0.686
5.96206	0.508
6.00156	0.503
6.04106	0.581
6.08056	0.686
6.12006	0.729
6.15956	0.742
6.19906	0.75
6.23856	0.762
6.27806	0.77
6.31756	0.772
6.35706	0.75
6.39656	0.762
6.43606	0.745
6.47556	0.739
6.51506	0.73
6.55457	0.719
6.59407	0.676
6.63357	0.656
6.67307	0.631
6.71257	0.566
6.75207	0.413
6.79157	0.167
6.83107	0.089
6.87057	0.099
6.91007	0.131
6.94957	0.197
6.98907	0.235
7.02857	0.269
7.06807	0.338
7.10757	0.39
7.14707	0.383
7.18657	0.352
7.22607	0.141
7.26558	0.059
7.30508	0.169
7.34458	0.292
7.38408	0.431
7.42358	0.385
7.46308	0.523
7.50258	0.521
7.54208	0.44
7.58158	0.524
7.62108	0.453
7.66058	0.365
7.70008	0.33
7.73958	0.254
7.77908	0.244
7.81858	0.33
7.85808	0.425
7.89758	0.553
7.93708	0.604
7.97659	0.607
8.01609	0.579
8.05559	0.48
8.09509	0.385
8.13459	0.284
8.17409	0.181
8.21359	0.27
8.25309	0.453
8.29259	0.528
8.33209	0.578
8.37159	0.604
8.41109	0.611
8.45059	0.611
8.49009	0.609
8.52959	0.596
8.56909	0.581
8.60859	0.554
8.6481	0.468
8.6876	0.365
8.7271	0.219
8.7666	0.212
8.8061	0.325
8.8456	0.274
8.8851	0.112
8.9246	0.048
8.9641	0.151
9.0036	0.33
9.0431	0.441
9.0826	0.4
9.1221	0.285
9.1616	0.151
9.2011	0.046
9.2406	0.038
9.2801	0.033
9.3196	0.028
9.35911	0.038
9.39861	0.056
9.43811	0.098
9.47761	0.117
9.51711	0.084
9.55661	0.041
9.59611	0.034
9.63561	0.031
9.67511	0.031
9.71461	0.034
9.75411	0.049
9.79361	0.089
9.83311	0.149
9.87261	0.215
9.91211	0.289
9.95161	0.343
9.99111	0.403
10.0306	0.453
10.0701	0.481
10.1096	0.491
10.1491	0.408
10.1886	0.215
10.2281	0.101
10.2676	0.081
10.3071	0.144
10.3466	0.315
10.3861	0.426
10.4256	0.493
10.4651	0.526
10.5046	0.559
10.5441	0.583
10.5836	0.609
10.6231	0.627
10.6626	0.642
10.7021	0.647
10.7416	0.659
10.7811	0.662
10.8206	0.667
10.8601	0.662
10.8996	0.651
10.9391	0.601
10.9786	0.446
11.0181	0.308
11.0576	0.486
11.0971	0.596
11.1366	0.654
11.1761	0.672
11.2156	0.677
11.2551	0.679
11.2946	0.671
11.3341	0.636
11.3736	0.543
11.4131	0.365
11.4526	0.448
11.4921	0.549
11.5316	0.593
11.5711	0.609
11.6106	0.611
11.6501	0.601
11.6896	0.593
11.7291	0.569
11.7686	0.546
11.8081	0.519
11.8476	0.478
11.8871	0.436
11.9266	0.367
11.9661	0.274
12.0056	0.169
12.0451	0.098
12.0846	0.136
12.1241	0.179
12.1636	0.24
12.2031	0.32
12.2426	0.332
12.2821	0.312
12.3216	0.269
12.3611	0.212
12.4006	0.154
12.4401	0.096
12.4797	0.071
12.5192	0.086
12.5587	0.131
12.5982	0.191
12.6377	0.237
12.6772	0.27
12.7167	0.287
12.7562	0.305
12.7957	0.31
12.8352	0.315
12.8747	0.318
12.9142	0.317
12.9537	0.317
12.9932	0.313
13.0327	0.31
13.0722	0.299
13.1117	0.29
13.1512	0.28
13.1907	0.267
13.2302	0.257
13.2697	0.25
13.3092	0.24
13.3487	0.234
13.3882	0.224
13.4277	0.222
13.4672	0.219
13.5067	0.217
13.5462	0.212
13.5857	0.215
13.6252	0.217
13.6647	0.217
13.7042	0.222
13.7437	0.217
13.7832	0.22
13.8227	0.217
13.8622	0.209
13.9017	0.209
13.9412	0.217
13.9807	0.222
14.0202	0.225
14.0597	0.235
14.0992	0.249
14.1387	0.267
14.1782	0.274
14.2177	0.297
14.2572	0.315
14.2967	0.33
14.3362	0.347
14.3757	0.363
14.4152	0.382
14.4547	0.405
14.4942	0.423
14.5337	0.435
14.5732	0.455
14.6127	0.465
14.6522	0.478
14.6917	0.493
14.7312	0.496
14.7707	0.506
14.8102	0.516
14.8497	0.518
14.8892	0.516
14.9287	0.514
14.9682	0.5
15.0077	0.496
15.0472	0.481
15.0867	0.453
15.1262	0.421
15.1657	0.401
15.2052	0.39
15.2447	0.39
15.2842	0.413
15.3237	0.43
15.3632	0.446
15.4027	0.466
15.4422	0.486
15.4817	0.501
15.5212	0.514
15.5607	0.523
15.6002	0.534
15.6397	0.546
15.6792	0.553
15.7187	0.558
15.7582	0.558
15.7977	0.559
15.8372	0.559
15.8767	0.559
15.9162	0.563
15.9557	0.564
