Infrared Spectrum: Calcium acetate, monohydrate
Formula: C4 H6 Ca O4  * H2 O
State: SOLID (1 mg / 650 mg KBr DISC)
Class: COBLENTZ III
Instrument: PERKIN-ELMER 521 (GRATING)
Instrument parameters: FILTERS AT 3150, 2500, 2000, 1150, 700, 410. GRATING CHANGES: 2000, 630
Sampling: TRANSMISSION
Resolution: 2
Origin: SOUTHERN RESEARCH INSTITUTE
1/CM	TRANSMITTANCE
253.105	0.1688
263.147	0.1856
273.19	0.2009
283.232	0.2166
293.275	0.2362
303.317	0.2613
313.36	0.3165
323.402	0.3787
333.445	0.4545
343.487	0.5627
353.53	0.6385
363.572	0.6896
373.615	0.7357
383.657	0.7651
393.7	0.792
403.742	0.8139
413.784	0.8332
423.827	0.8456
433.869	0.8526
443.912	0.8537
453.954	0.8397
463.997	0.7368
474.039	0.7265
484.082	0.7464
494.124	0.8307
504.167	0.8598
514.209	0.8726
524.252	0.8781
534.294	0.8802
544.337	0.8798
554.379	0.877
564.421	0.8718
574.464	0.8638
584.506	0.855
594.549	0.8503
604.591	0.823
614.634	0.6327
624.676	0.6938
634.719	0.8191
644.761	0.5259
654.804	0.6875
664.846	0.6291
674.889	0.4971
684.931	0.7876
694.974	0.8616
705.016	0.8747
715.058	0.8828
725.101	0.8902
735.143	0.898
745.186	0.9055
755.228	0.9129
765.271	0.92
775.313	0.9271
785.356	0.934
795.398	0.9379
805.441	0.9413
815.483	0.9426
825.526	0.9421
835.568	0.9418
845.61	0.9423
855.653	0.9445
865.695	0.9506
875.738	0.9593
885.78	0.9674
895.823	0.9735
905.865	0.9755
915.908	0.967
925.95	0.956
935.993	0.9529
946.035	0.8488
956.078	0.9045
966.12	0.9696
976.163	0.9692
986.205	0.9537
996.247	0.9187
1006.29	0.8582
1016.33	0.791
1026.37	0.6356
1036.42	0.6999
1046.46	0.8239
1056.5	0.7564
1066.54	0.8978
1076.59	0.9454
1086.63	0.9597
1096.67	0.9684
1106.71	0.9741
1116.76	0.9833
1126.8	0.9792
1136.84	0.9838
1146.88	0.9867
1156.93	0.9882
1166.97	0.9894
1177.01	0.9893
1187.05	0.9888
1197.1	0.9883
1207.14	0.9865
1217.18	0.982
1227.22	0.9716
1237.27	0.967
1247.31	0.9679
1257.35	0.9655
1267.39	0.9563
1277.44	0.9453
1287.48	0.9323
1297.52	0.9166
1307.56	0.8934
1317.61	0.8663
1327.65	0.833
1337.69	0.785
1347.73	0.6863
1357.78	0.7089
1367.82	0.689
1377.86	0.6244
1387.9	0.5475
1397.95	0.42
1407.99	0.2597
1418.03	0.1753
1428.07	0.1658
1438.12	0.1568
1448.16	0.1187
1458.2	0.1918
1468.24	0.2527
1478.29	0.4079
1488.33	0.4385
1498.37	0.3535
1508.41	0.2685
1518.46	0.1721
1528.5	0.1
1538.54	0.0917
1548.58	0.0962
1558.63	0.1029
1568.67	0.1156
1578.71	0.1648
1588.75	0.2153
1598.8	0.1629
1608.84	0.1062
1618.88	0.1892
1628.92	0.3377
1638.97	0.4631
1649.01	0.5522
1659.05	0.6025
1669.09	0.6323
1679.14	0.6591
1689.18	0.6847
1699.22	0.7088
1709.26	0.7324
1719.31	0.7542
1729.35	0.7728
1739.39	0.7881
1749.43	0.8002
1759.47	0.8124
1769.52	0.8209
1779.56	0.829
1789.6	0.8366
1799.64	0.8442
1809.69	0.8508
1819.73	0.8574
1829.77	0.8628
1839.81	0.866
1849.86	0.8693
1859.9	0.8718
1869.94	0.8742
1879.98	0.8766
1890.03	0.8778
1900.07	0.8789
1910.11	0.8801
1920.15	0.881
1930.2	0.8818
1940.24	0.8826
1950.28	0.8835
1960.32	0.8843
1970.37	0.8845
1980.41	0.8859
1990.45	0.8914
2000.49	0.8916
2010.54	0.8911
2020.58	0.8919
2030.62	0.8928
2040.66	0.8938
2050.71	0.8949
2060.75	0.896
2070.79	0.8967
2080.83	0.8973
2090.88	0.8979
2100.92	0.8985
2110.96	0.8991
2121	0.8999
2131.05	0.9006
2141.09	0.9004
2151.13	0.9001
2161.17	0.8998
2171.22	0.8995
2181.26	0.8992
2191.3	0.8988
2201.34	0.8984
2211.39	0.8979
2221.43	0.8975
2231.47	0.8971
2241.51	0.8981
2251.56	0.8994
2261.6	0.9018
2271.64	0.9037
2281.68	0.9056
2291.73	0.9075
2301.77	0.9094
2311.81	0.9092
2321.85	0.9065
2331.9	0.9051
2341.94	0.9059
2351.98	0.906
2362.02	0.9028
2372.07	0.902
2382.11	0.9023
2392.15	0.9027
2402.19	0.9029
2412.24	0.903
2422.28	0.9031
2432.32	0.9034
2442.36	0.9037
2452.41	0.8979
2462.45	0.8939
2472.49	0.8926
2482.53	0.8936
2492.57	0.8959
2502.62	0.8981
2512.66	0.9003
2522.7	0.9023
2532.74	0.9044
2542.79	0.9057
2552.83	0.9063
2562.87	0.9069
2572.91	0.9075
2582.96	0.9075
2593	0.9071
2603.04	0.9067
2613.08	0.9063
2623.13	0.906
2633.17	0.9051
2643.21	0.904
2653.25	0.9029
2663.3	0.9017
2673.34	0.9006
2683.38	0.8994
2693.42	0.8974
2703.47	0.8953
2713.51	0.8932
2723.55	0.891
2733.59	0.888
2743.64	0.8853
2753.68	0.8832
2763.72	0.8811
2773.76	0.8796
2783.81	0.8783
2793.85	0.8771
2803.89	0.8735
2813.93	0.8695
2823.98	0.8611
2834.02	0.8537
2844.06	0.8484
2854.1	0.846
2864.15	0.8407
2874.19	0.8338
2884.23	0.8247
2894.27	0.8132
2904.32	0.7951
2914.36	0.7532
2924.4	0.7405
2934.44	0.7528
2944.49	0.7465
2954.53	0.7327
2964.57	0.7195
2974.61	0.7069
2984.66	0.6951
2994.7	0.685
3004.74	0.6763
3014.78	0.6751
3024.83	0.6753
3034.87	0.6759
3044.91	0.6741
3054.95	0.6706
3065	0.6675
3075.04	0.6649
3085.08	0.661
3095.12	0.6564
3105.17	0.6519
3115.21	0.6515
3125.25	0.6445
3135.29	0.6395
3145.34	0.6356
3155.38	0.6357
3165.42	0.6352
3175.46	0.6378
3185.51	0.6404
3195.55	0.643
3205.59	0.6472
3215.63	0.6523
3225.67	0.6576
3235.72	0.6633
3245.76	0.6691
3255.8	0.6743
3265.84	0.679
3275.89	0.6838
3285.93	0.6884
3295.97	0.6881
3306.01	0.6836
3316.06	0.6775
3326.1	0.6714
3336.14	0.6649
3346.18	0.6593
3356.23	0.6538
3366.27	0.6497
3376.31	0.6458
3386.35	0.6433
3396.4	0.6412
3406.44	0.6422
3416.48	0.6434
3426.52	0.6451
3436.57	0.6472
3446.61	0.6496
3456.65	0.6521
3466.69	0.6532
3476.74	0.653
3486.78	0.6501
3496.82	0.6459
3506.86	0.6432
3516.91	0.6438
3526.95	0.6472
3536.99	0.6532
3547.03	0.6593
3557.08	0.6659
3567.12	0.6734
3577.16	0.6904
3587.2	0.7164
3597.25	0.7384
3607.29	0.7574
3617.33	0.7743
3627.37	0.7886
3637.42	0.7996
3647.46	0.8091
3657.5	0.8161
3667.54	0.8204
3677.59	0.8221
3687.63	0.8268
3697.67	0.8331
3707.71	0.8393
3717.76	0.8403
3727.8	0.8405
3737.84	0.8408
3747.88	0.8409
3757.93	0.841
3767.97	0.8411
3778.01	0.8413
3788.05	0.8417
3798.1	0.8421
3808.14	0.8425
3818.18	0.843
3828.22	0.8428
3838.27	0.8425
3848.31	0.8422
3858.35	0.8418
3868.39	0.8417
3878.44	0.8418
3888.48	0.8418
3898.52	0.8419
3908.56	0.8419
3918.61	0.842
3928.65	0.8422
3938.69	0.8423
3948.73	0.8422
3958.77	0.8419
3968.82	0.8418
3978.86	0.842
3988.9	0.8418
3998.94	0.841
4008.99	0.8402
