Infrared Spectrum: 4,7,13,16-TETRAOXA-1,10-DITHIACYCLOOCTADECANE-1,10-BIS-P-TOLYL-SULFONYLIMIDO- (Beta-FORM)
Formula: C26 H38 N2 O8 S4
State: SOLID (KBr PRESSING)
Melting point: 143-144 C
Class: COBLENTZ
Instrument: Not specified, most likely a prism, grating, or hybrid spectrometer.
Sampling: TRANSMISSION
Resolution: 4
Origin: EASTMAN KODAK COMPANY, RESEARCH LABORATORIES, ROCHESTER, N.Y.
MICROMETERS	TRANSMITTANCE
2.029	0.777
2.06417	0.783
2.09935	0.798
2.13452	0.802
2.1697	0.793
2.20487	0.79
2.24004	0.786
2.27522	0.786
2.31039	0.797
2.34557	0.802
2.38074	0.802
2.41592	0.798
2.45109	0.795
2.48626	0.798
2.52144	0.807
2.55661	0.818
2.59179	0.8
2.62696	0.814
2.66213	0.807
2.69731	0.802
2.73248	0.756
2.76766	0.699
2.80283	0.601
2.83801	0.566
2.87318	0.54
2.90835	0.534
2.94353	0.548
2.9787	0.596
3.01388	0.65
3.04905	0.65
3.08422	0.697
3.1194	0.709
3.15457	0.688
3.18975	0.77
3.22492	0.76
3.2601	0.762
3.29527	0.741
3.33044	0.734
3.36562	0.655
3.40079	0.606
3.43597	0.531
3.47114	0.529
3.50631	0.638
3.54149	0.722
3.57666	0.751
3.61184	0.781
3.64701	0.797
3.68219	0.818
3.71736	0.818
3.75253	0.832
3.78771	0.844
3.82288	0.844
3.85806	0.842
3.89323	0.851
3.9284	0.847
3.96358	0.854
3.99875	0.856
4.03393	0.863
4.0691	0.851
4.10428	0.856
4.13945	0.853
4.17462	0.853
4.2098	0.856
4.24497	0.858
4.28015	0.851
4.31532	0.853
4.35049	0.86
4.38567	0.865
4.42084	0.865
4.45602	0.86
4.49119	0.853
4.52636	0.853
4.56154	0.863
4.59671	0.865
4.63189	0.865
4.66706	0.863
4.70224	0.867
4.73741	0.874
4.77258	0.865
4.80776	0.861
4.84293	0.858
4.87811	0.858
4.91328	0.858
4.94845	0.854
4.98363	0.858
5.0188	0.853
5.05398	0.854
5.08915	0.851
5.12433	0.84
5.1595	0.837
5.19467	0.83
5.22985	0.833
5.26502	0.854
5.3002	0.853
5.33537	0.865
5.37054	0.865
5.40572	0.867
5.44089	0.853
5.47607	0.858
5.51124	0.84
5.54642	0.846
5.58159	0.844
5.61676	0.849
5.65194	0.851
5.68711	0.844
5.72229	0.832
5.75746	0.814
5.79263	0.79
5.82781	0.79
5.86298	0.798
5.89816	0.8
5.93333	0.805
5.96851	0.793
6.00368	0.776
6.03885	0.756
6.07403	0.734
6.1092	0.69
6.14438	0.671
6.17955	0.683
6.21472	0.653
6.2499	0.573
6.28507	0.692
6.32025	0.751
6.35542	0.725
6.3906	0.739
6.42577	0.716
6.46094	0.746
6.49612	0.725
6.53129	0.734
6.56647	0.734
6.60164	0.722
6.63681	0.681
6.67199	0.613
6.70716	0.526
6.74234	0.54
6.77751	0.536
6.81269	0.629
6.84786	0.599
6.88303	0.548
6.91821	0.562
6.95338	0.65
6.98856	0.615
7.02373	0.606
7.0589	0.571
7.09408	0.541
7.12925	0.484
7.16443	0.501
7.1996	0.571
7.23477	0.592
7.26995	0.611
7.30512	0.55
7.3403	0.534
7.37547	0.496
7.41065	0.431
7.44582	0.629
7.48099	0.571
7.51617	0.524
7.55134	0.568
7.58652	0.547
7.62169	0.491
7.65686	0.428
7.69204	0.326
7.72721	0.244
7.76239	0.241
7.79756	0.194
7.83274	0.164
7.86791	0.183
7.90308	0.277
7.93826	0.388
7.97343	0.442
8.00861	0.477
8.04378	0.519
8.07895	0.54
8.11413	0.552
8.1493	0.601
8.18448	0.611
8.21965	0.604
8.25483	0.587
8.29	0.561
8.32517	0.524
8.36035	0.505
8.39552	0.493
8.4307	0.5
8.46587	0.473
8.50104	0.47
8.53622	0.344
8.57139	0.316
8.60657	0.332
8.64174	0.258
8.67692	0.19
8.71209	0.104
8.74726	0.087
8.78244	0.075
8.81761	0.09
8.85279	0.096
8.88796	0.129
8.92313	0.129
8.95831	0.127
8.99348	0.136
9.02866	0.152
9.06383	0.19
9.09901	0.201
9.13418	0.138
9.16935	0.12
9.20453	0.174
9.2397	0.263
9.27488	0.272
9.31005	0.272
9.34522	0.279
9.3804	0.318
9.41557	0.332
9.45075	0.388
9.48592	0.393
9.52109	0.395
9.55627	0.388
9.59144	0.358
9.62662	0.37
9.66179	0.382
9.69697	0.377
9.73214	0.351
9.76731	0.3
9.80249	0.368
9.83766	0.419
9.87284	0.445
9.90801	0.421
9.94318	0.361
9.97836	0.321
10.0135	0.29
10.0487	0.283
10.0839	0.281
10.1191	0.251
10.1542	0.234
10.1894	0.218
10.2246	0.202
10.2598	0.192
10.2949	0.185
10.3301	0.176
10.3653	0.178
10.4004	0.181
10.4356	0.204
10.4708	0.229
10.506	0.272
10.5411	0.318
10.5763	0.335
10.6115	0.372
10.6467	0.421
10.6818	0.456
10.717	0.473
10.7522	0.489
10.7874	0.494
10.8225	0.5
10.8577	0.482
10.8929	0.468
10.9281	0.465
10.9632	0.459
10.9984	0.466
11.0336	0.461
11.0688	0.468
11.1039	0.463
11.1391	0.468
11.1743	0.5
11.2095	0.512
11.2446	0.529
11.2798	0.536
11.315	0.545
11.3502	0.548
11.3853	0.552
11.4205	0.562
11.4557	0.571
11.4908	0.58
11.526	0.583
11.5612	0.582
11.5964	0.576
11.6315	0.587
11.6667	0.592
11.7019	0.583
11.7371	0.575
11.7722	0.573
11.8074	0.569
11.8426	0.569
11.8778	0.562
11.9129	0.573
11.9481	0.576
11.9833	0.555
12.0185	0.508
12.0536	0.456
12.0888	0.382
12.124	0.319
12.1592	0.309
12.1943	0.318
12.2295	0.326
12.2647	0.318
12.2999	0.367
12.335	0.382
12.3702	0.386
12.4054	0.396
12.4405	0.402
12.4757	0.409
12.5109	0.459
12.5461	0.479
12.5812	0.5
12.6164	0.52
12.6516	0.517
12.6868	0.517
12.7219	0.517
12.7571	0.522
12.7923	0.51
12.8275	0.5
12.8626	0.484
12.8978	0.461
12.933	0.419
12.9682	0.384
13.0033	0.344
13.0385	0.318
13.0737	0.286
13.1089	0.265
13.144	0.236
13.1792	0.223
13.2144	0.222
13.2496	0.244
13.2847	0.246
13.3199	0.274
13.3551	0.295
13.3903	0.325
13.4254	0.346
13.4606	0.358
13.4958	0.372
13.5309	0.391
13.5661	0.402
13.6013	0.426
13.6365	0.41
13.6716	0.419
13.7068	0.442
13.742	0.426
13.7772	0.447
13.8123	0.442
13.8475	0.447
13.8827	0.445
13.9179	0.444
13.953	0.431
13.9882	0.421
14.0234	0.4
14.0586	0.375
14.0937	0.36
14.1289	0.374
14.1641	0.386
14.1993	0.386
14.2344	0.391
14.2696	0.396
14.3048	0.403
14.34	0.389
14.3751	0.396
14.4103	0.398
14.4455	0.396
14.4807	0.4
14.5158	0.405
14.551	0.395
14.5862	0.409
14.6213	0.409
14.6565	0.405
14.6917	0.407
14.7269	0.409
14.762	0.41
14.7972	0.407
14.8324	0.403
14.8676	0.407
14.9027	0.416
14.9379	0.449
14.9731	0.337
15.0083	0.286
15.0434	0.314
15.0786	0.307
15.1138	0.288
15.149	0.265
15.1841	0.277
15.2193	0.293
15.2545	0.284
15.2897	0.297
15.3248	0.305
15.36	0.305
15.3952	0.316
15.4304	0.316
15.4655	0.326
15.5007	0.335
15.5359	0.347
15.571	0.346
15.6062	0.347
15.6414	0.377
15.6766	0.386
15.7117	0.395
15.7469	0.386
15.7821	0.377
15.8173	0.388
15.8524	0.398
15.8876	0.412
15.9228	0.412
15.958	0.412
