Infrared Spectrum: POTASSIUM METABISULFITE
Formula: K2 S2 O5
State: SOLID (NUJOL MULL)
Class: COBLENTZ
Instrument: Not specified, most likely a prism, grating, or hybrid spectrometer.
Sampling: TRANSMISSION
Resolution: 4
Origin: MELLON INSTITUTE
MICROMETERS	TRANSMITTANCE
2.023	0.802
2.06288	0.809
2.10276	0.807
2.14264	0.807
2.18252	0.809
2.2224	0.809
2.26228	0.802
2.30216	0.8
2.34204	0.802
2.38192	0.8
2.4218	0.802
2.46168	0.805
2.50156	0.809
2.54144	0.81
2.58132	0.809
2.6212	0.81
2.66108	0.805
2.70096	0.81
2.74084	0.804
2.78072	0.797
2.8206	0.788
2.86048	0.785
2.90036	0.78
2.94024	0.783
2.98012	0.788
3.02	0.788
3.05988	0.79
3.09976	0.792
3.13964	0.797
3.17952	0.795
3.2194	0.797
3.25928	0.795
3.29916	0.757
3.33904	0.489
3.37892	0.276
3.4188	0.415
3.45868	0.455
3.49856	0.643
3.53844	0.78
3.57832	0.807
3.6182	0.814
3.65808	0.815
3.69796	0.815
3.73784	0.817
3.77771	0.819
3.81759	0.819
3.85747	0.82
3.89735	0.825
3.93723	0.825
3.97711	0.824
4.01699	0.825
4.05687	0.827
4.09675	0.827
4.13663	0.825
4.17651	0.825
4.21639	0.82
4.25627	0.812
4.29615	0.802
4.33603	0.802
4.37591	0.819
4.41579	0.817
4.45567	0.815
4.49555	0.814
4.53543	0.814
4.57531	0.815
4.61519	0.817
4.65507	0.815
4.69495	0.814
4.73483	0.815
4.77471	0.819
4.81459	0.819
4.85447	0.817
4.89435	0.817
4.93423	0.82
4.97411	0.822
5.01399	0.829
5.05387	0.832
5.09375	0.835
5.13363	0.835
5.17351	0.837
5.21339	0.84
5.25327	0.839
5.29315	0.842
5.33303	0.84
5.37291	0.845
5.41279	0.839
5.45267	0.842
5.49255	0.84
5.53243	0.842
5.57231	0.852
5.61219	0.852
5.65207	0.855
5.69195	0.86
5.73183	0.864
5.77171	0.864
5.81159	0.865
5.85147	0.864
5.89135	0.876
5.93123	0.874
5.97111	0.872
6.01099	0.882
6.05087	0.879
6.09075	0.864
6.13063	0.871
6.17051	0.877
6.21039	0.886
6.25027	0.891
6.29015	0.887
6.33003	0.882
6.36991	0.886
6.40979	0.889
6.44967	0.892
6.48955	0.892
6.52943	0.887
6.56931	0.879
6.60919	0.874
6.64907	0.876
6.68895	0.881
6.72883	0.877
6.76871	0.832
6.80859	0.735
6.84847	0.716
6.88835	0.73
6.92823	0.785
6.96811	0.822
7.00799	0.849
7.04787	0.86
7.08775	0.876
7.12763	0.879
7.16751	0.877
7.20739	0.829
7.24727	0.792
7.28714	0.82
7.32702	0.844
7.3669	0.862
7.40678	0.865
7.44666	0.865
7.48654	0.877
7.52642	0.879
7.5663	0.877
7.60618	0.877
7.64606	0.874
7.68594	0.864
7.72582	0.862
7.7657	0.862
7.80558	0.867
7.84546	0.862
7.88534	0.854
7.92522	0.835
7.9651	0.81
8.00498	0.809
8.04486	0.807
8.08474	0.804
8.12462	0.782
8.1645	0.76
8.20438	0.73
8.24426	0.653
8.28414	0.512
8.32402	0.378
8.3639	0.278
8.40378	0.209
8.44366	0.169
8.48354	0.144
8.52342	0.139
8.5633	0.167
8.60318	0.266
8.64306	0.383
8.68294	0.541
8.72282	0.613
8.7627	0.654
8.80258	0.675
8.84246	0.685
8.88234	0.675
8.92222	0.631
8.9621	0.557
9.00198	0.487
9.04186	0.447
9.08174	0.463
9.12162	0.53
9.1615	0.542
9.20138	0.505
9.24126	0.489
9.28114	0.554
9.32102	0.629
9.3609	0.711
9.40078	0.718
9.44066	0.633
9.48054	0.644
9.52042	0.721
9.5603	0.775
9.60018	0.802
9.64006	0.822
9.67994	0.837
9.71982	0.842
9.7597	0.849
9.79958	0.85
9.83946	0.849
9.87934	0.845
9.91922	0.839
9.9591	0.807
9.99898	0.783
10.0389	0.74
10.0787	0.629
10.1186	0.485
10.1585	0.343
10.1984	0.249
10.2383	0.214
10.2781	0.209
10.318	0.244
10.3579	0.363
10.3978	0.537
10.4377	0.649
10.4775	0.725
10.5174	0.772
10.5573	0.8
10.5972	0.817
10.6371	0.837
10.6769	0.852
10.7168	0.865
10.7567	0.869
10.7966	0.872
10.8365	0.881
10.8763	0.889
10.9162	0.896
10.9561	0.904
10.996	0.906
11.0359	0.911
11.0757	0.916
11.1156	0.914
11.1555	0.916
11.1954	0.912
11.2353	0.916
11.2751	0.924
11.315	0.924
11.3549	0.929
11.3948	0.929
11.4347	0.926
11.4745	0.931
11.5144	0.931
11.5543	0.936
11.5942	0.943
11.6341	0.941
11.6739	0.943
11.7138	0.943
11.7537	0.946
11.7936	0.944
11.8335	0.946
11.8733	0.946
11.9132	0.953
11.9531	0.954
11.993	0.958
12.0329	0.959
12.0727	0.958
12.1126	0.961
12.1525	0.964
12.1924	0.961
12.2323	0.961
12.2721	0.954
12.312	0.954
12.3519	0.958
12.3918	0.954
12.4317	0.953
12.4715	0.956
12.5114	0.963
12.5513	0.961
12.5912	0.959
12.631	0.953
12.6709	0.954
12.7108	0.956
12.7507	0.954
12.7906	0.951
12.8304	0.954
12.8703	0.943
12.9102	0.939
12.9501	0.941
12.99	0.944
13.0298	0.946
13.0697	0.936
13.1096	0.934
13.1495	0.932
13.1894	0.926
13.2292	0.931
13.2691	0.927
13.309	0.929
13.3489	0.927
13.3888	0.926
13.4286	0.922
13.4685	0.919
13.5084	0.916
13.5483	0.911
13.5882	0.904
13.628	0.902
13.6679	0.901
13.7078	0.891
13.7477	0.891
13.7876	0.881
13.8274	0.877
13.8673	0.874
13.9072	0.876
13.9471	0.869
13.987	0.865
14.0268	0.867
14.0667	0.86
14.1066	0.854
14.1465	0.852
14.1864	0.852
14.2262	0.845
14.2661	0.834
14.306	0.835
14.3459	0.83
14.3858	0.824
14.4256	0.819
14.4655	0.809
14.5054	0.805
14.5453	0.798
14.5852	0.792
14.625	0.785
14.6649	0.782
14.7048	0.775
14.7447	0.765
14.7846	0.758
14.8244	0.758
14.8643	0.735
14.9042	0.706
14.9441	0.681
14.984	0.631
15.0238	0.582
15.0637	0.567
15.1036	0.559
15.1435	0.556
15.1834	0.561
15.2232	0.574
15.2631	0.592
15.303	0.614
15.3429	0.624
15.3828	0.641
15.4226	0.646
15.4625	0.648
15.5024	0.654
15.5423	0.658
15.5822	0.653
15.622	0.656
15.6619	0.656
15.7018	0.651
15.7417	0.651
15.7816	0.646
15.8214	0.653
15.8613	0.646
15.9012	0.648
15.9411	0.644
15.981	0.653
