Infrared Spectrum: Methyl niobate(V)
Formula: C5 H15 Nb O5
State: SOLID (SPLIT MULL, DRY BOX UNDER N2), FLUOROLUBE FOR 3800-1330 CM^-^1, NUJOL FOR 1330-400 CM^-^1
Class: COBLENTZ III
Instrument: BECKMAN IR-9 (GRATING)
Instrument parameters: ORDER CHANGES: 670, 1200, 2000 CM^-^1
Sampling: TRANSMISSION
Resolution: 2
Origin: DOW CHEMICAL COMPANY
1/CM	TRANSMITTANCE
3800	0.7304
3791	0.7305
3782	0.7307
3773	0.7308
3764	0.7317
3755	0.7326
3746	0.7337
3737	0.7348
3728	0.7358
3719	0.7369
3710	0.7382
3701	0.7393
3692	0.7405
3683	0.7415
3674	0.7428
3665	0.744
3656	0.7451
3647	0.7465
3638	0.748
3629	0.7493
3620	0.7507
3611	0.7519
3602	0.7534
3593	0.7492
3584	0.7461
3575	0.7508
3566	0.7531
3557	0.7528
3548	0.7524
3539	0.7518
3530	0.751
3521	0.7499
3512	0.7489
3503	0.7478
3494	0.7468
3485	0.7457
3476	0.7447
3467	0.7437
3458	0.743
3449	0.7426
3440	0.7425
3431	0.7424
3422	0.7432
3413	0.7441
3404	0.7449
3395	0.7458
3386	0.7469
3377	0.7481
3368	0.7492
3359	0.7501
3350	0.751
3341	0.7517
3332	0.7521
3323	0.7525
3314	0.7528
3305	0.753
3296	0.7531
3287	0.7533
3278	0.7546
3269	0.7562
3260	0.7587
3251	0.7608
3242	0.7639
3233	0.7671
3224	0.7703
3215	0.774
3206	0.7781
3197	0.7815
3188	0.7849
3179	0.7868
3170	0.7857
3161	0.7826
3152	0.7784
3143	0.7819
3134	0.7867
3125	0.7893
3116	0.7915
3107	0.7924
3098	0.7928
3089	0.7928
3080	0.7924
3071	0.7915
3062	0.7896
3053	0.7869
3044	0.7825
3035	0.7775
3026	0.7719
3017	0.766
3008	0.7558
2999	0.735
2990	0.7058
2981	0.6801
2972	0.6511
2963	0.6099
2954	0.5572
2945	0.5174
2936	0.4549
2927	0.3374
2918	0.2934
2909	0.3953
2900	0.5079
2891	0.5444
2882	0.5844
2873	0.6307
2864	0.6775
2855	0.7196
2846	0.7189
2837	0.663
2828	0.3358
2819	0.2889
2810	0.4869
2801	0.6595
2792	0.7315
2783	0.7626
2774	0.7786
2765	0.7883
2756	0.7961
2747	0.8012
2738	0.8057
2729	0.809
2720	0.8124
2711	0.8153
2702	0.8182
2693	0.8208
2684	0.823
2675	0.8251
2666	0.8265
2657	0.8278
2648	0.8291
2639	0.8293
2630	0.8289
2621	0.8277
2612	0.8265
2603	0.8256
2594	0.8277
2585	0.8298
2576	0.8321
2567	0.8344
2558	0.8361
2549	0.8377
2540	0.8394
2531	0.8407
2522	0.842
2513	0.8433
2504	0.8442
2495	0.8448
2486	0.8455
2477	0.8459
2468	0.846
2459	0.8462
2450	0.8463
2441	0.8465
2432	0.8468
2423	0.8467
2414	0.8466
2405	0.8463
2396	0.8466
2387	0.8518
2378	0.8573
2369	0.8566
2360	0.8525
2351	0.8502
2342	0.848
2333	0.8466
2324	0.8446
2315	0.8411
2306	0.8378
2297	0.8387
2288	0.8401
2279	0.8417
2270	0.8431
2261	0.8438
2252	0.8446
2243	0.8453
2234	0.846
2225	0.8466
2216	0.8471
2207	0.8475
2198	0.8481
2189	0.8488
2180	0.8495
2171	0.8503
2162	0.851
2153	0.8518
2144	0.8525
2135	0.8532
2126	0.8539
2117	0.854
2108	0.8541
2099	0.8544
2090	0.8543
2081	0.8527
2072	0.8508
2063	0.8497
2054	0.8491
2045	0.8484
2036	0.8491
2027	0.85
2018	0.8515
2009	0.8533
2000	0.8594
1991	0.8771
1982	0.8843
1973	0.8873
1964	0.8888
1955	0.8899
1946	0.8904
1937	0.8907
1928	0.8909
1919	0.8915
1910	0.8928
1901	0.8938
1892	0.8933
1883	0.8928
1874	0.8924
1865	0.8918
1856	0.8915
1847	0.8913
1838	0.8913
1829	0.8912
1820	0.8903
1811	0.8895
1802	0.8913
1793	0.891
1784	0.8907
1775	0.8905
1766	0.8903
1757	0.8907
1748	0.8907
1739	0.8905
1730	0.8895
1721	0.8881
1712	0.8855
1703	0.8823
1694	0.8775
1685	0.8728
1676	0.8698
1667	0.8674
1658	0.867
1649	0.8678
1640	0.869
1631	0.8713
1622	0.8742
1613	0.8761
1604	0.878
1595	0.8785
1586	0.8777
1577	0.8766
1568	0.8744
1559	0.8712
1550	0.8668
1541	0.8632
1532	0.8601
1523	0.8562
1514	0.8523
1505	0.8474
1496	0.8406
1487	0.8324
1478	0.8193
1469	0.7908
1460	0.7494
1451	0.7464
1442	0.7384
1433	0.7561
1424	0.8095
1415	0.8188
1406	0.8255
1397	0.8312
1388	0.8358
1379	0.8398
1370	0.8409
1361	0.8342
1352	0.8176
1343	0.8169
1334	0.8232
1325	0.8237
1316	0.8202
1307	0.8195
1298	0.8214
1289	0.8233
1280	0.8243
1271	0.8228
1262	0.8192
1253	0.8143
1244	0.806
1235	0.7932
1226	0.7787
1217	0.7641
1208	0.744
1199	0.6983
1190	0.6377
1181	0.57
1172	0.3974
1163	0.2009
1154	0.1794
1145	0.1554
1136	0.0726
1127	0.0531
1118	0.0455
1109	0.0519
1100	0.0745
1091	0.1489
1082	0.2313
1073	0.3001
1064	0.3588
1055	0.3837
1046	0.3576
1037	0.2684
1028	0.2432
1019	0.328
1010	0.5178
1001	0.6525
992	0.7178
983	0.7551
974	0.763
965	0.7647
956	0.7543
947	0.7258
938	0.6797
929	0.6367
920	0.5953
911	0.5469
902	0.5017
893	0.4632
884	0.4315
875	0.405
866	0.3816
857	0.3648
848	0.3552
839	0.3444
830	0.333
821	0.3134
812	0.2889
803	0.262
794	0.2334
785	0.1944
776	0.1557
767	0.1203
758	0.0833
749	0.0618
740	0.0515
731	0.052
722	0.0674
713	0.105
704	0.1513
695	0.1869
686	0.2216
677	0.2366
668	0.2419
659	0.2534
650	0.2657
641	0.2761
632	0.2858
623	0.2929
614	0.2937
605	0.2859
596	0.2675
587	0.2288
578	0.1614
569	0.082
560	0.0754
551	0.0783
542	0.077
533	0.0768
524	0.0832
515	0.1163
506	0.1758
497	0.2592
488	0.3264
479	0.3784
470	0.411
461	0.428
452	0.4354
443	0.4368
434	0.432
425	0.4194
416	0.4077
407	0.3982
