Infrared Spectrum: SODIUM NITRATE
Formula: N O3 Na
State: SOLID (1 mg / 650 mg KBr DISC)
Class: COBLENTZ III
Instrument: PERKIN-ELMER 521 (GRATING)
Instrument parameters: FILTERS AT 3130, 2475, 2000, 1150, 700, 410. GRATING CHANGES: 2000, 620 CM^-^1
Sampling: TRANSMISSION
Resolution: 2
Origin: SOUTHERN RESEARCH INSTITUTE (W.C. COBURN, JR.)
1/CM	TRANSMITTANCE
256.53	0.394
266.225	0.4692
275.921	0.5474
285.616	0.6101
295.311	0.6653
305.006	0.6973
314.702	0.7213
324.397	0.7475
334.092	0.766
343.788	0.8044
353.483	0.8309
363.178	0.8484
372.874	0.8593
382.569	0.8672
392.264	0.878
401.959	0.884
411.655	0.887
421.35	0.888
431.045	0.888
440.741	0.891
450.436	0.8971
460.131	0.9025
469.827	0.905
479.522	0.91
489.217	0.913
498.912	0.913
508.608	0.913
518.303	0.913
527.998	0.911
537.694	0.91
547.389	0.911
557.084	0.913
566.779	0.914
576.475	0.9176
586.17	0.9206
595.865	0.921
605.561	0.921
615.256	0.922
624.951	0.9256
634.647	0.929
644.342	0.9352
654.037	0.9402
663.732	0.944
673.428	0.947
683.123	0.947
692.818	0.947
702.514	0.9484
712.209	0.949
721.904	0.949
731.6	0.949
741.295	0.95
750.99	0.95
760.685	0.95
770.381	0.949
780.076	0.947
789.771	0.946
799.467	0.944
809.162	0.9381
818.857	0.9163
828.552	0.5689
838.248	0.9207
847.943	0.929
857.638	0.929
867.334	0.929
877.029	0.927
886.724	0.925
896.42	0.924
906.115	0.922
915.81	0.921
925.505	0.917
935.201	0.911
944.896	0.909
954.591	0.9051
964.287	0.9
973.982	0.895
983.677	0.8883
993.373	0.884
1003.07	0.88
1012.76	0.8765
1022.46	0.8712
1032.15	0.8667
1041.85	0.863
1051.54	0.861
1061.24	0.858
1070.93	0.856
1080.63	0.854
1090.33	0.85
1100.02	0.844
1109.72	0.84
1119.41	0.8333
1129.11	0.8268
1138.8	0.8215
1148.5	0.815
1158.19	0.8076
1167.89	0.799
1177.58	0.7928
1187.28	0.785
1196.97	0.7739
1206.67	0.7619
1216.36	0.7451
1226.06	0.7291
1235.75	0.7125
1245.45	0.686
1255.15	0.6583
1264.84	0.6356
1274.54	0.6069
1284.23	0.5747
1293.93	0.542
1303.62	0.4935
1313.32	0.4428
1323.01	0.3689
1332.71	0.2903
1342.4	0.2067
1352.1	0.1553
1361.79	0.1208
1371.49	0.1124
1381.18	0.108
1390.88	0.1581
1400.57	0.2664
1410.27	0.3278
1419.97	0.3957
1429.66	0.4556
1439.36	0.5059
1449.05	0.5435
1458.75	0.5839
1468.44	0.6253
1478.14	0.6511
1487.83	0.6719
1497.53	0.6908
1507.22	0.7078
1516.92	0.7228
1526.61	0.737
1536.31	0.7472
1546	0.7555
1555.7	0.764
1565.4	0.7718
1575.09	0.778
1584.79	0.7843
1594.48	0.786
1604.18	0.786
1613.87	0.786
1623.57	0.79
1633.26	0.7988
1642.96	0.8097
1652.65	0.8258
1662.35	0.8397
1672.04	0.8446
1681.74	0.8515
1691.43	0.8599
1701.13	0.865
1710.82	0.867
1720.52	0.8733
1730.22	0.877
1739.91	0.881
1749.61	0.884
1759.3	0.887
1769	0.887
1778.69	0.8415
1788.39	0.778
1798.08	0.8844
1807.78	0.892
1817.47	0.8971
1827.17	0.902
1836.86	0.903
1846.56	0.905
1856.25	0.906
1865.95	0.906
1875.64	0.907
1885.34	0.907
1895.04	0.909
1904.73	0.911
1914.43	0.913
1924.12	0.913
1933.82	0.911
1943.51	0.911
1953.21	0.911
1962.9	0.914
1972.6	0.914
1982.29	0.914
1991.99	0.9107
2001.68	0.911
2011.38	0.911
2021.07	0.9108
2030.77	0.91
2040.46	0.909
2050.16	0.91
2059.86	0.91
2069.55	0.91
2079.25	0.91
2088.94	0.906
2098.64	0.909
2108.33	0.9102
2118.03	0.911
2127.72	0.911
2137.42	0.9114
2147.11	0.914
2156.81	0.9162
2166.5	0.918
2176.2	0.92
2185.89	0.92
2195.59	0.921
2205.28	0.921
2214.98	0.922
2224.68	0.922
2234.37	0.922
2244.07	0.922
2253.76	0.922
2263.46	0.922
2273.15	0.922
2282.85	0.922
2292.54	0.922
2302.24	0.922
2311.93	0.922
2321.63	0.922
2331.32	0.921
2341.02	0.921
2350.71	0.9208
2360.41	0.92
2370.1	0.92
2379.8	0.92
2389.5	0.92
2399.19	0.9126
2408.89	0.8956
2418.58	0.861
2428.28	0.862
2437.97	0.8634
2447.67	0.8704
2457.36	0.8802
2467.06	0.8832
2476.75	0.8854
2486.45	0.8872
2496.14	0.8924
2505.84	0.898
2515.53	0.9022
2525.23	0.9062
2534.92	0.907
2544.62	0.907
2554.32	0.907
2564.01	0.909
2573.71	0.909
2583.4	0.909
2593.1	0.909
2602.79	0.909
2612.49	0.909
2622.18	0.909
2631.88	0.907
2641.57	0.909
2651.27	0.907
2660.96	0.907
2670.66	0.907
2680.35	0.907
2690.05	0.907
2699.74	0.907
2709.44	0.907
2719.14	0.906
2728.83	0.903
2738.53	0.8976
2748.22	0.8866
2757.92	0.8882
2767.61	0.898
2777.31	0.898
2787	0.898
2796.7	0.8936
2806.39	0.8878
2816.09	0.8848
2825.78	0.883
2835.48	0.8796
2845.17	0.876
2854.87	0.883
2864.56	0.888
2874.26	0.888
2883.96	0.885
2893.65	0.884
2903.35	0.881
2913.04	0.88
2922.74	0.883
2932.43	0.8842
2942.13	0.888
2951.82	0.891
2961.52	0.8982
2971.21	0.902
2980.91	0.902
2990.6	0.902
3000.3	0.902
3009.99	0.902
3019.69	0.902
3029.38	0.902
3039.08	0.902
3048.78	0.9
3058.47	0.899
3068.17	0.899
3077.86	0.898
3087.56	0.896
3097.25	0.8948
3106.95	0.892
3116.64	0.891
3126.34	0.888
3136.03	0.885
3145.73	0.8838
3155.42	0.881
3165.12	0.878
3174.81	0.876
3184.51	0.874
3194.2	0.8728
3203.9	0.87
3213.6	0.8668
3223.29	0.8628
3232.99	0.861
3242.68	0.858
3252.38	0.856
3262.07	0.854
3271.77	0.852
3281.46	0.851
3291.16	0.8478
3300.85	0.844
3310.55	0.84
3320.24	0.836
3329.94	0.832
3339.63	0.8258
3349.33	0.819
3359.02	0.8136
3368.72	0.8068
3378.42	0.8
3388.11	0.7946
3397.81	0.7888
3407.5	0.782
3417.2	0.778
3426.89	0.777
3436.59	0.777
3446.28	0.7772
3455.98	0.779
3465.67	0.782
3475.37	0.784
3485.06	0.788
3494.76	0.7922
3504.45	0.796
3514.15	0.8014
3523.84	0.808
3533.54	0.815
3543.24	0.8234
3552.93	0.8304
3562.63	0.8374
3572.32	0.845
3582.02	0.852
3591.71	0.8564
3601.41	0.8634
3611.1	0.8732
3620.8	0.8814
3630.49	0.8854
3640.19	0.889
3649.88	0.891
3659.58	0.892
3669.27	0.892
3678.97	0.894
3688.66	0.894
3698.36	0.895
3708.06	0.898
3717.75	0.898
3727.45	0.899
3737.14	0.899
3746.84	0.9
3756.53	0.9
3766.23	0.9
3775.92	0.9
3785.62	0.9
3795.31	0.9
3805.01	0.9
3814.7	0.9
3824.4	0.899
3834.09	0.899
3843.79	0.899
3853.49	0.899
3863.18	0.899
3872.88	0.899
3882.57	0.899
3892.27	0.899
3901.96	0.8988
3911.66	0.898
3921.35	0.899
3931.05	0.899
3940.74	0.899
3950.44	0.8988
3960.13	0.898
3969.83	0.898
3979.52	0.898
3989.22	0.896
3998.91	0.896
4008.61	0.896
