Infrared Spectrum: 1,2-CYCLOBUTANE, BIS-(METHYLAMINE)-
Formula: C6 H14 N2
State: SOLUTION (10% CCl4 FOR 3800-455 CM^-^1) VS SOLVENT
Class: COBLENTZ III
Instrument: DOW KBr FOREPRISM-GRATING
Instrument parameters: BLAZED AT 3.5, 12.0, 20.0 MICRON AND CHANGED AT 5.0, 7.5, 14.9 MICRON
Sampling: TRANSMISSION
Path length: 0.010 CM
Resolution: 2
Origin: DOW CHEMICAL COMPANY
1/CM	TRANSMITTANCE
457	0.7739
466	0.7778
475	0.7774
484	0.7749
493	0.7739
502	0.7765
511	0.7854
520	0.7987
529	0.8094
538	0.8137
547	0.814
556	0.8121
565	0.8004
574	0.7874
583	0.7947
592	0.7824
601	0.7743
610	0.7607
619	0.7384
628	0.7428
637	0.7736
646	0.7945
655	0.786
664	0.7838
673	0.798
682	0.7861
691	0.7591
700	0.7301
709	0.6955
718	0.601
727	0.4523
736	0.0316
745	0.037
754	0.0487
763	0.0629
772	0.0736
781	0.0818
790	0.0889
799	0.0966
808	0.1018
817	0.1056
826	0.1065
835	0.128
844	0.1672
853	0.2138
862	0.2654
871	0.3021
880	0.3202
889	0.355
898	0.3962
907	0.4155
916	0.4379
925	0.4824
934	0.4806
943	0.534
952	0.6038
961	0.6492
970	0.6926
979	0.7621
988	0.7756
997	0.7696
1006	0.7278
1015	0.6788
1024	0.6074
1033	0.5692
1042	0.7191
1051	0.7375
1060	0.7262
1069	0.7133
1078	0.6853
1087	0.6962
1096	0.7091
1105	0.6933
1114	0.7118
1123	0.7665
1132	0.8325
1141	0.8486
1150	0.8517
1159	0.8575
1168	0.8647
1177	0.8658
1186	0.884
1195	0.8865
1204	0.875
1213	0.8407
1222	0.85
1231	0.8383
1240	0.8358
1249	0.8225
1258	0.838
1267	0.8488
1276	0.8182
1285	0.7906
1294	0.7678
1303	0.7707
1312	0.7731
1321	0.7761
1330	0.7658
1339	0.7324
1348	0.735
1357	0.7114
1366	0.7201
1375	0.6562
1384	0.5725
1393	0.6345
1402	0.8594
1411	0.8921
1420	0.883
1429	0.8491
1438	0.6841
1447	0.6854
1456	0.6096
1465	0.6189
1474	0.803
1483	0.8324
1492	0.8321
1501	0.8213
1510	0.8031
1519	0.7799
1528	0.7511
1537	0.7192
1546	0.6845
1555	0.6468
1564	0.6119
1573	0.572
1582	0.5299
1591	0.4982
1600	0.4727
1609	0.4552
1618	0.456
1627	0.5198
1636	0.5955
1645	0.6645
1654	0.7254
1663	0.7644
1672	0.8291
1681	0.8683
1690	0.8928
1699	0.9138
1708	0.9304
1717	0.9375
1726	0.9444
1735	0.9509
1744	0.9562
1753	0.9595
1762	0.9598
1771	0.9583
1780	0.9552
1789	0.9524
1798	0.9502
1807	0.9474
1816	0.9443
1825	0.9424
1834	0.9406
1843	0.9393
1852	0.939
1861	0.9399
1870	0.9416
1879	0.9415
1888	0.941
1897	0.9411
1906	0.9418
1915	0.9425
1924	0.9421
1933	0.9421
1942	0.9425
1951	0.9432
1960	0.9436
1969	0.9437
1978	0.9438
1987	0.9444
1996	0.9643
2005	0.9678
2014	0.9674
2023	0.9664
2032	0.9653
2041	0.9646
2050	0.9639
2059	0.9628
2068	0.9617
2077	0.9606
2086	0.9596
2095	0.9582
2104	0.9567
2113	0.9551
2122	0.9539
2131	0.9528
2140	0.9523
2149	0.9521
2158	0.9527
2167	0.9553
2176	0.958
2185	0.9591
2194	0.9592
2203	0.9586
2212	0.9588
2221	0.9592
2230	0.9605
2239	0.9614
2248	0.9624
2257	0.9644
2266	0.9662
2275	0.9667
2284	0.9651
2293	0.9643
2302	0.972
2311	0.9775
2320	0.9758
2329	0.9717
2338	0.9678
2347	0.9646
2356	0.9618
2365	0.9599
2374	0.9578
2383	0.9562
2392	0.9546
2401	0.9528
2410	0.9508
2419	0.9487
2428	0.9467
2437	0.945
2446	0.9433
2455	0.9415
2464	0.9398
2473	0.9381
2482	0.9364
2491	0.9347
2500	0.933
2509	0.9305
2518	0.928
2527	0.9255
2536	0.9228
2545	0.9195
2554	0.9162
2563	0.9128
2572	0.9088
2581	0.9045
2590	0.9001
2599	0.8944
2608	0.8886
2617	0.8809
2626	0.8724
2635	0.86
2644	0.8464
2653	0.8316
2662	0.8284
2671	0.8335
2680	0.8355
2689	0.832
2698	0.8211
2707	0.7997
2716	0.7756
2725	0.7522
2734	0.7254
2743	0.6858
2752	0.6842
2761	0.7239
2770	0.7251
2779	0.7022
2788	0.659
2797	0.606
2806	0.5
2815	0.3654
2824	0.2403
2833	0.161
2842	0.1559
2851	0.0798
2860	0.0789
2869	0.1531
2878	0.1392
2887	0.101
2896	0.0498
2905	0.0505
2914	0.0507
2923	0.0437
2932	0.0397
2941	0.0846
2950	0.0731
2959	0.058
2968	0.0619
2977	0.1273
2986	0.435
2995	0.5548
3004	0.6784
3013	0.7503
3022	0.769
3031	0.7841
3040	0.7925
3049	0.7956
3058	0.7976
3067	0.7984
3076	0.7978
3085	0.7955
3094	0.7918
3103	0.7858
3112	0.7791
3121	0.7699
3130	0.7572
3139	0.7422
3148	0.726
3157	0.7086
3166	0.6905
3175	0.6834
3184	0.6849
3193	0.6905
3202	0.6924
3211	0.6867
3220	0.6744
3229	0.6582
3238	0.6372
3247	0.6099
3256	0.5804
3265	0.5575
3274	0.5512
3283	0.5567
3292	0.5716
3301	0.5942
3310	0.6198
3319	0.6426
3328	0.6555
3337	0.6462
3346	0.6243
3355	0.5999
3364	0.5785
3373	0.563
3382	0.5686
3391	0.6352
3400	0.7241
3409	0.7591
3418	0.775
3427	0.7858
3436	0.8
3445	0.8124
3454	0.8246
3463	0.8368
3472	0.8481
3481	0.8578
3490	0.8675
3499	0.8763
3508	0.885
3517	0.8941
3526	0.9037
3535	0.9132
3544	0.9225
3553	0.9305
3562	0.9368
3571	0.9418
3580	0.9464
3589	0.9518
3598	0.9563
3607	0.9591
3616	0.9608
3625	0.9611
3634	0.9604
3643	0.9484
3652	0.9293
3661	0.9025
3670	0.912
3679	0.953
3688	0.9674
3697	0.9735
3706	0.9771
3715	0.9786
3724	0.9795
3733	0.98
3742	0.9803
3751	0.9805
3760	0.9806
3769	0.982
3778	0.9835
3787	0.9848
3796	0.9863
