Infrared Spectrum: ISOPHTHALIC ACID, 5-POTASSIUM SULFO, DIMETHYL ESTER
Formula: C10 H9 K O S
State: SOLID (PELLET)
Class: COBLENTZ
Instrument: Not specified, most likely a prism, grating, or hybrid spectrometer.
Sampling: TRANSMISSION
Resolution: 4
Origin: TENNESSEE EASTMAN COMPANY, RESEARCH LABORATORIES
MICROMETERS	TRANSMITTANCE
2.033	0.759
2.073	0.762
2.113	0.762
2.15301	0.769
2.19301	0.772
2.23301	0.774
2.27301	0.78
2.31301	0.789
2.35302	0.792
2.39302	0.794
2.43302	0.802
2.47302	0.807
2.51302	0.813
2.55303	0.817
2.59303	0.82
2.63303	0.823
2.67303	0.828
2.71303	0.825
2.75304	0.699
2.79304	0.538
2.83304	0.446
2.87304	0.383
2.91304	0.338
2.95305	0.352
2.99305	0.425
3.03305	0.521
3.07305	0.584
3.11305	0.631
3.15306	0.671
3.19306	0.707
3.23306	0.72
3.27306	0.569
3.31306	0.617
3.35307	0.649
3.39307	0.49
3.43307	0.7
3.47307	0.75
3.51307	0.724
3.55308	0.828
3.59308	0.855
3.63308	0.858
3.67308	0.863
3.71308	0.877
3.75309	0.887
3.79309	0.89
3.83309	0.89
3.87309	0.89
3.91309	0.887
3.9531	0.885
3.9931	0.89
4.0331	0.9
4.0731	0.903
4.1131	0.903
4.15311	0.903
4.19311	0.92
4.23311	0.933
4.27311	0.933
4.31311	0.928
4.35312	0.925
4.39312	0.925
4.43312	0.925
4.47312	0.936
4.51312	0.955
4.55313	0.956
4.59313	0.958
4.63313	0.958
4.67313	0.956
4.71313	0.93
4.75314	0.918
4.79314	0.928
4.83314	0.936
4.87314	0.943
4.91314	0.945
4.95315	0.946
4.99315	0.948
5.03315	0.95
5.07315	0.945
5.11315	0.933
5.15316	0.928
5.19316	0.941
5.23316	0.943
5.27316	0.938
5.31316	0.897
5.35317	0.885
5.39317	0.853
5.43317	0.853
5.47317	0.857
5.51317	0.857
5.55318	0.85
5.59318	0.803
5.63318	0.755
5.67318	0.619
5.71318	0.292
5.75319	0.034
5.79319	0.034
5.83319	0.119
5.87319	0.333
5.91319	0.463
5.9532	0.586
5.9932	0.654
6.0332	0.669
6.0732	0.651
6.1132	0.637
6.15321	0.644
6.19321	0.619
6.23321	0.495
6.27321	0.694
6.31321	0.752
6.35322	0.823
6.39322	0.84
6.43322	0.86
6.47322	0.832
6.51322	0.838
6.55323	0.843
6.59323	0.843
6.63323	0.843
6.67323	0.847
6.71323	0.828
6.75324	0.78
6.79324	0.599
6.83324	0.405
6.87324	0.141
6.91324	0.068
6.95325	0.121
6.99325	0.269
7.03325	0.642
7.07325	0.71
7.11325	0.755
7.15326	0.772
7.19326	0.775
7.23326	0.774
7.27326	0.752
7.31326	0.715
7.35327	0.664
7.39327	0.583
7.43327	0.491
7.47327	0.289
7.51327	0.069
7.55328	0.038
7.59328	0.043
7.63328	0.089
7.67328	0.315
7.71328	0.431
7.75329	0.445
7.79329	0.418
7.83329	0.313
7.87329	0.177
7.91329	0.078
7.9533	0.043
7.9933	0.038
8.0333	0.036
8.0733	0.034
8.1133	0.034
8.15331	0.034
8.19331	0.034
8.23331	0.034
8.27331	0.034
8.31331	0.034
8.35332	0.039
8.39332	0.094
8.43332	0.204
8.47332	0.302
8.51332	0.342
8.55333	0.34
8.59333	0.234
8.63333	0.109
8.67333	0.054
8.71333	0.043
8.75334	0.049
8.79334	0.134
8.83334	0.27
8.87334	0.187
8.91334	0.099
8.95335	0.129
8.99335	0.209
9.03335	0.215
9.07335	0.149
9.11336	0.355
9.15336	0.584
9.19336	0.642
9.23336	0.684
9.27336	0.696
9.31337	0.667
9.35337	0.541
9.39337	0.305
9.43337	0.063
9.47337	0.061
9.51338	0.064
9.55338	0.397
9.59338	0.652
9.63338	0.691
9.67338	0.712
9.71339	0.714
9.75339	0.705
9.79339	0.661
9.83339	0.612
9.87339	0.563
9.9134	0.486
9.9534	0.335
9.9934	0.176
10.0334	0.106
10.0734	0.096
10.1134	0.172
10.1534	0.393
10.1934	0.541
10.2334	0.544
10.2734	0.491
10.3134	0.465
10.3534	0.398
10.3934	0.495
10.4334	0.692
10.4734	0.732
10.5134	0.785
10.5534	0.833
10.5934	0.853
10.6334	0.862
10.6734	0.835
10.7134	0.659
10.7534	0.727
10.7934	0.82
10.8334	0.794
10.8734	0.533
10.9134	0.687
10.9534	0.855
10.9934	0.897
11.0335	0.906
11.0735	0.911
11.1135	0.911
11.1535	0.9
11.1935	0.818
11.2335	0.684
11.2735	0.712
11.3135	0.802
11.3535	0.762
11.3935	0.657
11.4335	0.727
11.4735	0.843
11.5135	0.887
11.5535	0.897
11.5935	0.895
11.6335	0.88
11.6735	0.784
11.7135	0.717
11.7535	0.777
11.7935	0.84
11.8335	0.875
11.8735	0.893
11.9135	0.905
11.9535	0.908
11.9935	0.911
12.0335	0.915
12.0735	0.93
12.1135	0.936
12.1535	0.94
12.1935	0.943
12.2335	0.946
12.2735	0.946
12.3135	0.948
12.3535	0.951
12.3935	0.955
12.4335	0.955
12.4735	0.955
12.5135	0.955
12.5535	0.953
12.5935	0.945
12.6335	0.921
12.6735	0.87
12.7135	0.79
12.7535	0.762
12.7935	0.79
12.8335	0.799
12.8735	0.782
12.9135	0.712
12.9535	0.526
12.9935	0.3
13.0336	0.287
13.0736	0.41
13.1136	0.355
13.1536	0.171
13.1936	0.076
13.2336	0.073
13.2736	0.249
13.3136	0.548
13.3536	0.629
13.3936	0.669
13.4336	0.752
13.4736	0.812
13.5136	0.848
13.5536	0.863
13.5936	0.872
13.6336	0.873
13.6736	0.865
13.7136	0.78
13.7536	0.539
13.7936	0.431
13.8336	0.398
13.8736	0.481
13.9136	0.727
13.9536	0.825
13.9936	0.863
14.0336	0.877
14.0736	0.882
14.1136	0.885
14.1536	0.887
14.1936	0.887
14.2336	0.888
14.2736	0.888
14.3136	0.885
14.3536	0.885
14.3936	0.883
14.4336	0.873
14.4736	0.855
14.5136	0.842
14.5536	0.82
14.5936	0.797
14.6336	0.777
14.6736	0.725
14.7136	0.634
14.7536	0.508
14.7936	0.383
14.8336	0.327
14.8736	0.358
14.9136	0.451
14.9536	0.518
14.9936	0.534
15.0337	0.571
15.0737	0.591
15.1137	0.593
15.1537	0.591
15.1937	0.591
15.2337	0.591
15.2737	0.588
15.3137	0.583
15.3537	0.569
15.3937	0.549
15.4337	0.523
15.4737	0.495
15.5137	0.455
15.5537	0.401
15.5937	0.34
15.6337	0.285
15.6737	0.249
15.7137	0.237
15.7537	0.229
15.7937	0.225
15.8337	0.224
15.8737	0.224
15.9137	0.224
15.9537	0.224
15.9937	0.224
