Infrared Spectrum: ESTRADIOL DIBENZOATE
Formula: C34 H36 O4
State: SOLUTION (2.2% IN CS2)
Melting point: 169-173 C (CORR.)
Class: COBLENTZ
Instrument: Not specified, most likely a prism, grating, or hybrid spectrometer.
Sampling: TRANSMISSION
Path length: 0.1 CM
Resolution: 4
Origin: DEPARTMENT OF PHARMACOLOGY, THE STATE UNIVERSITY OF IOWA, IOWA
MICROMETERS	TRANSMITTANCE
2.071	0.615
2.10795	0.613
2.14489	0.612
2.18184	0.609
2.21879	0.609
2.25573	0.606
2.29268	0.606
2.32962	0.606
2.36657	0.604
2.40352	0.604
2.44046	0.604
2.47741	0.606
2.51436	0.607
2.5513	0.61
2.58825	0.61
2.62519	0.613
2.66214	0.613
2.69909	0.612
2.73603	0.609
2.77298	0.609
2.80993	0.606
2.84687	0.602
2.88382	0.594
2.92076	0.593
2.95771	0.593
2.99466	0.596
3.0316	0.597
3.06855	0.597
3.1055	0.597
3.14244	0.597
3.17939	0.594
3.21633	0.59
3.25328	0.536
3.29023	0.49
3.32717	0.474
3.36412	0.338
3.40107	0.251
3.43801	0.235
3.47496	0.279
3.5119	0.318
3.54885	0.464
3.5858	0.513
3.62274	0.552
3.65969	0.586
3.69664	0.59
3.73358	0.59
3.77053	0.593
3.80747	0.594
3.84442	0.597
3.88137	0.6
3.91831	0.602
3.95526	0.606
3.99221	0.609
4.02915	0.609
4.0661	0.609
4.10304	0.61
4.13999	0.612
4.17694	0.612
4.21388	0.612
4.25083	0.61
4.28778	0.609
4.32472	0.609
4.36167	0.607
4.39861	0.607
4.43556	0.607
4.47251	0.609
4.50945	0.609
4.5464	0.61
4.58335	0.61
4.62029	0.612
4.65724	0.613
4.69418	0.612
4.73113	0.61
4.76808	0.61
4.80502	0.609
4.84197	0.61
4.87892	0.615
4.91586	0.619
4.95281	0.619
4.98975	0.619
5.0267	0.615
5.06365	0.609
5.10059	0.599
5.13754	0.6
5.17449	0.607
5.21143	0.603
5.24838	0.596
5.28532	0.593
5.32227	0.602
5.35922	0.607
5.39616	0.613
5.43311	0.61
5.47006	0.606
5.507	0.574
5.54395	0.571
5.58089	0.564
5.61784	0.541
5.65479	0.52
5.69173	0.424
5.72868	0.238
5.76563	0.156
5.80257	0.153
5.83952	0.156
5.87646	0.305
5.91341	0.424
5.95036	0.465
5.9873	0.489
6.02425	0.519
6.0612	0.528
6.09814	0.528
6.13509	0.526
6.17203	0.525
6.20898	0.523
6.24593	0.523
6.28287	0.522
6.31982	0.519
6.35677	0.52
6.39371	0.52
6.43066	0.519
6.4676	0.518
6.50455	0.516
6.5415	0.516
6.57844	0.516
6.61539	0.515
6.65234	0.515
6.68928	0.513
6.72623	0.512
6.76317	0.512
6.80012	0.513
6.83707	0.513
6.87401	0.513
6.91096	0.512
6.94791	0.51
6.98485	0.51
7.0218	0.509
7.05874	0.506
7.09569	0.502
7.13264	0.5
7.16958	0.496
7.20653	0.483
7.24348	0.463
7.28042	0.447
7.31737	0.448
7.35431	0.451
7.39126	0.455
7.42821	0.461
7.46515	0.454
7.5021	0.441
7.53905	0.425
7.57599	0.415
7.61294	0.37
7.64988	0.247
7.68683	0.286
7.72378	0.289
7.76072	0.23
7.79767	0.176
7.83462	0.157
7.87156	0.137
7.90851	0.121
7.94545	0.115
7.9824	0.111
8.01935	0.114
8.05629	0.121
8.09324	0.136
8.13019	0.15
8.16713	0.164
8.20408	0.153
8.24103	0.143
8.27797	0.144
8.31492	0.162
8.35186	0.28
8.38881	0.366
8.42576	0.396
8.4627	0.412
8.49965	0.315
8.5366	0.201
8.57354	0.201
8.61049	0.298
8.64743	0.319
8.68438	0.315
8.72133	0.218
8.75827	0.241
8.79522	0.276
8.83217	0.287
8.86911	0.285
8.90606	0.267
8.943	0.201
8.97995	0.166
9.0169	0.162
9.05384	0.172
9.09079	0.191
9.12774	0.237
9.16468	0.27
9.20163	0.29
9.23857	0.261
9.27552	0.241
9.31247	0.219
9.34941	0.224
9.38636	0.206
9.42331	0.191
9.46025	0.172
9.4972	0.196
9.53414	0.289
9.57109	0.328
9.60804	0.377
9.64498	0.377
9.68193	0.369
9.71888	0.332
9.75582	0.24
9.79277	0.202
9.82971	0.295
9.86666	0.357
9.90361	0.392
9.94055	0.389
9.9775	0.371
10.0144	0.354
10.0514	0.337
10.0883	0.36
10.1253	0.396
10.1622	0.422
10.1992	0.444
10.2361	0.447
10.2731	0.452
10.31	0.464
10.347	0.471
10.3839	0.477
10.4209	0.48
10.4578	0.492
10.4947	0.51
10.5317	0.518
10.5686	0.522
10.6056	0.528
10.6425	0.529
10.6795	0.526
10.7164	0.52
10.7534	0.496
10.7903	0.489
10.8273	0.489
10.8642	0.492
10.9012	0.487
10.9381	0.471
10.975	0.486
11.012	0.499
11.0489	0.499
11.0859	0.494
11.1228	0.487
11.1598	0.458
11.1967	0.395
11.2337	0.369
11.2706	0.364
11.3076	0.379
11.3445	0.396
11.3815	0.408
11.4184	0.421
11.4553	0.428
11.4923	0.434
11.5292	0.438
11.5662	0.441
11.6031	0.442
11.6401	0.444
11.677	0.445
11.714	0.445
11.7509	0.448
11.7879	0.448
11.8248	0.451
11.8618	0.461
11.8987	0.479
11.9357	0.493
11.9726	0.505
12.0095	0.513
12.0465	0.518
12.0834	0.518
12.1204	0.516
12.1573	0.513
12.1943	0.51
12.2312	0.505
12.2682	0.493
12.3051	0.486
12.3421	0.484
12.379	0.492
12.416	0.503
12.4529	0.507
12.4898	0.51
12.5268	0.513
12.5637	0.518
12.6007	0.523
12.6376	0.529
12.6746	0.532
12.7115	0.523
12.7485	0.494
12.7854	0.494
12.8224	0.497
12.8593	0.503
12.8963	0.513
12.9332	0.551
12.9701	0.57
13.0071	0.581
13.044	0.593
13.081	0.597
13.1179	0.599
13.1549	0.599
13.1918	0.606
13.2288	0.607
13.2657	0.607
13.3027	0.607
13.3396	0.606
13.3766	0.599
13.4135	0.591
13.4504	0.584
13.4874	0.575
13.5243	0.571
13.5613	0.57
13.5982	0.568
13.6352	0.568
13.6721	0.568
13.7091	0.567
13.746	0.565
13.783	0.562
13.8199	0.554
13.8569	0.538
13.8938	0.523
13.9307	0.461
13.9677	0.387
14.0046	0.334
14.0416	0.253
14.0785	0.199
14.1155	0.178
14.1524	0.169
14.1894	0.156
14.2263	0.147
14.2633	0.154
14.3002	0.199
14.3372	0.266
14.3741	0.315
14.4111	0.37
14.448	0.397
14.4849	0.409
14.5219	0.406
14.5588	0.395
14.5958	0.38
14.6327	0.379
14.6697	0.396
14.7066	0.416
14.7436	0.458
14.7805	0.493
14.8175	0.519
14.8544	0.538
14.8914	0.554
14.9283	0.558
14.9652	0.565
15.0022	0.587
15.0391	0.591
15.0761	0.594
15.113	0.596
15.15	0.597
15.1869	0.597
