Infrared Spectrum: INDENE, 1,4,5,6,7,8,8-HEPTACHLORO-3Alpha,4,7,7Alpha-TETRAHYDRO-4,7-METHANO-
Formula: C10 H5 Cl7
State: SOLUTION (10% CCl4 FOR 3800-1330, 10% CS2 FOR 1330-450 CM^-^1)
Melting point: 95 C
Class: COBLENTZ III
Instrument: DOW KBr FOREPRISM-GRATING
Instrument parameters: BLAZED AT 3.5, 12.0, 20.0 MICRON AND CHANGED AT 5.0, 7.5, 14.9 MICRON
Sampling: TRANSMISSION
Path length: 0.011 CM, 0.011 CM
Resolution: 4
Origin: DOW CHEMICAL COMPANY
1/CM	TRANSMITTANCE
450.951	0.93
460.077	0.976
469.202	1
478.328	1.019
487.453	1.042
496.579	1.055
505.704	1.063
514.83	1.065
523.955	1.058
533.081	1.042
542.206	1.023
551.332	0.541
560.457	0.992
569.583	1.055
578.708	1.069
587.834	1.078
596.959	1.081
606.085	1.081
615.21	1.076
624.336	0.953
633.461	1.051
642.587	1.019
651.713	0.8542
660.838	0.4308
669.964	0.98
679.089	0.975
688.215	0.8625
697.34	1.031
706.466	1.026
715.591	0.946
724.717	0.5131
733.842	0.9319
742.968	0.8109
752.093	0.989
761.219	0.95
770.344	0.2932
779.47	0.893
788.595	0.12
797.721	0.6989
806.846	1
815.972	1.003
825.097	0.8882
834.223	0.317
843.349	0.841
852.474	0.582
861.6	0.831
870.725	0.893
879.851	0.916
888.976	0.865
898.102	0.667
907.227	0.4042
916.353	0.811
925.478	0.987
934.604	1.001
943.729	1.01
952.855	1.012
961.98	1.01
971.106	0.9908
980.231	0.994
989.357	0.904
998.482	0.687
1007.61	0.9549
1016.73	0.959
1025.86	0.843
1034.98	0.603
1044.11	0.463
1053.24	0.744
1062.36	0.495
1071.49	0.667
1080.61	0.845
1089.74	0.492
1098.86	0.5641
1107.99	0.7699
1117.11	0.699
1126.24	0.991
1135.37	1.007
1144.49	1.007
1153.62	0.975
1162.74	0.829
1171.87	0.6321
1180.99	0.953
1190.12	1.001
1199.24	1.01
1208.37	0.872
1217.5	0.948
1226.62	0.9119
1235.75	0.8428
1244.87	0.923
1254	0.248
1263.12	0.7582
1272.25	0.9321
1281.37	0.957
1290.5	0.861
1299.62	0.95
1308.75	0.815
1317.88	0.989
1327	1.014
1336.13	1.007
1345.25	0.959
1354.38	0.724
1363.5	0.998
1372.63	1.017
1381.75	1.023
1390.88	1.024
1400.01	1.021
1409.13	1.015
1418.26	1.017
1427.38	1.021
1436.51	1.024
1445.63	1.023
1454.76	1.017
1463.88	1.014
1473.01	1.005
1482.14	0.991
1491.26	0.955
1500.39	0.9209
1509.51	0.834
1518.64	0.79
1527.76	0.746
1536.89	0.6109
1546.01	0.536
1555.14	0.555
1564.26	0.637
1573.39	0.699
1582.52	0.726
1591.64	0.765
1600.77	0.6191
1609.89	0.493
1619.02	0.948
1628.14	0.989
1637.27	1.017
1646.39	1.031
1655.52	1.033
1664.65	1.033
1673.77	1.031
1682.9	1.03
1692.02	1.026
1701.15	1.026
1710.27	1.005
1719.4	1.014
1728.52	1.026
1737.65	1.026
1746.78	1.026
1755.9	1.026
1765.03	1.026
1774.15	1.019
1783.28	1.021
1792.4	1.028
1801.53	1.026
1810.65	1.026
1819.78	1.024
1828.91	1.026
1838.03	1.024
1847.16	1.026
1856.28	1.024
1865.41	1.019
1874.53	1.024
1883.66	1.021
1892.78	1.015
1901.91	1.024
1911.03	1.019
1920.16	1.028
1929.29	1.023
1938.41	1.028
1947.54	1.031
1956.66	1.03
1965.79	1.024
1974.91	1.024
1984.04	1.021
1993.16	1.023
2002.29	1.012
2011.42	1.023
2020.54	0.9964
2029.67	1.024
2038.79	1.024
2047.92	1.03
2057.04	1.021
2066.17	1.024
2075.29	1.028
2084.42	1.028
2093.55	1.028
2102.67	1.028
2111.8	1.0261
2120.92	1.028
2130.05	1.0299
2139.17	1.028
2148.3	1.026
2157.42	1.026
2166.55	1.024
2175.68	1.024
2184.8	1.023
2193.93	1.0211
2203.05	1.021
2212.18	1.021
2221.3	1.019
2230.43	1.019
2239.55	1.019
2248.68	1.0191
2257.8	1.0151
2266.93	1.0072
2276.06	1.0031
2285.18	0.9981
2294.31	0.9961
2303.43	0.996
2312.56	0.994
2321.68	0.9979
2330.81	1.0009
2339.93	1.005
2349.06	1.008
2358.19	1.012
2367.31	1.014
2376.44	1.015
2385.56	1.0152
2394.69	1.017
2403.81	1.0188
2412.94	1.017
2422.06	1.017
2431.19	1.0152
2440.32	1.017
2449.44	1.017
2458.57	1.015
2467.69	1.015
2476.82	1.015
2485.94	1.017
2495.07	1.015
2504.19	1.0105
2513.32	1.014
2522.44	1.0118
2531.57	1.0149
2540.7	1.0141
2549.82	1.012
2558.95	1.012
2568.07	1.0103
2577.2	1.01
2586.32	1.012
2595.45	1.012
2604.57	1.0135
2613.7	1.0137
2622.83	1.014
2631.95	1.014
2641.08	1.014
2650.2	1.014
2659.33	1.012
2668.45	1.012
2677.58	1.012
2686.7	1.012
2695.83	1.012
2704.96	1.012
2714.08	1.01
2723.21	1.01
2732.33	1.01
2741.46	1.012
2750.58	1.012
2759.71	1.01
2768.83	1.01
2777.96	1.012
2787.09	1.008
2796.21	1.0117
2805.34	1.0103
2814.46	1.01
2823.59	1.0097
2832.71	1.01
2841.84	1.01
2850.96	1.0078
2860.09	1.0096
2869.21	1.01
2878.34	1.01
2887.47	1.01
2896.59	1.0072
2905.72	1.0018
2914.84	0.9984
2923.97	1.0008
2933.09	0.9784
2942.22	0.973
2951.34	0.975
2960.47	0.9694
2969.6	0.986
2978.72	0.998
2987.85	0.998
2996.97	1
3006.1	1.001
3015.22	1.003
3024.35	1.001
3033.47	1.001
3042.6	1.0002
3051.73	0.9933
3060.85	0.9842
3069.98	0.969
3079.1	0.9811
3088.23	0.9995
3097.35	1.001
3106.48	1.0045
3115.6	1.0065
3124.73	1.008
3133.86	1.008
3142.98	1.0078
3152.11	1.008
3161.23	1.008
3170.36	1.008
3179.48	1.0095
3188.61	1.008
3197.73	1.008
3206.86	1.012
3215.98	1.017
3225.11	1.017
3234.24	1.017
3243.36	1.019
3252.49	1.019
3261.61	1.017
3270.74	1.019
3279.86	1.019
3288.99	1.023
3298.11	1.023
3307.24	1.021
3316.37	1.021
3325.49	1.0195
3334.62	1.021
3343.74	1.019
3352.87	1.021
3361.99	1.0204
3371.12	1.019
3380.24	1.017
3389.37	1.019
3398.5	1.019
3407.62	1.019
3416.75	1.0196
3425.87	1.019
3435	1.019
3444.12	1.015
3453.25	1.0126
3462.37	1.012
3471.5	1.012
3480.62	1.014
3489.75	1.014
3498.88	1.012
3508	1.012
3517.13	1.012
3526.25	1.01
3535.38	1.012
3544.5	1.012
3553.63	1.01
3562.75	1.01
3571.88	1.0107
3581.01	1.012
3590.13	1.008
3599.26	1.005
3608.38	1.005
3617.51	1.005
3626.63	1.005
3635.76	1.005
3644.88	1.005
3654.01	1.005
3663.14	1.005
3672.26	1.005
3681.39	1.005
3690.51	1.005
3699.64	1.005
3708.76	1.005
3717.89	1.005
3727.01	1.0037
3736.14	1.003
3745.27	1.003
3754.39	1.003
3763.52	1.003
3772.64	1.003
3781.77	1.001
