Infrared Spectrum: Phthalimide, N-[3-(hydroxymethyl)Cyclopentyl]-, cis-
Formula: C14 H15 N O3
State: SOLID (1 mg / 650 mg KBr DISC)
Class: COBLENTZ III
Instrument: PERKIN-ELMER 221 (GRATING)
Instrument parameters: FILTER AT 980 CM^-^1. GRATING 4000-1428 CM^-^1, NaCl PRISM 1428-650 CM^-^1
Sampling: TRANSMISSION
Resolution: 2
Origin: SOUTHERN RESEARCH INSTITUTE
1/CM	TRANSMITTANCE
638	0.8281
647.027	0.9329
656.054	0.9566
665.08	0.9554
674.107	0.9503
683.134	0.9436
692.161	0.8879
701.187	0.8334
710.214	0.5059
719.241	0.4407
728.268	0.8633
737.294	0.9464
746.321	0.9657
755.348	0.9665
764.375	0.9633
773.402	0.9568
782.428	0.9456
791.455	0.8782
800.482	0.881
809.509	0.961
818.535	0.9621
827.562	0.958
836.589	0.9515
845.616	0.9398
854.642	0.9293
863.669	0.927
872.696	0.9016
881.723	0.8269
890.75	0.8928
899.776	0.9564
908.803	0.9541
917.83	0.9469
926.857	0.9367
935.883	0.9242
944.91	0.8976
953.937	0.8547
962.964	0.8669
971.99	0.8617
981.017	0.9615
990.044	0.8666
999.071	0.8483
1008.1	0.8248
1017.12	0.7949
1026.15	0.7482
1035.18	0.7346
1044.2	0.7358
1053.23	0.616
1062.26	0.7113
1071.28	0.6982
1080.31	0.6753
1089.34	0.7989
1098.37	0.7779
1107.39	0.7103
1116.42	0.7957
1125.45	0.8902
1134.47	0.9013
1143.5	0.8888
1152.53	0.8627
1161.55	0.8709
1170.58	0.8879
1179.61	0.8609
1188.63	0.8557
1197.66	0.8909
1206.69	0.8928
1215.71	0.8799
1224.74	0.8714
1233.77	0.8703
1242.79	0.8695
1251.82	0.868
1260.85	0.866
1269.87	0.8622
1278.9	0.8421
1287.93	0.8383
1296.95	0.8429
1305.98	0.8466
1315.01	0.8281
1324.03	0.7872
1333.06	0.7149
1342.09	0.7523
1351.11	0.7163
1360.14	0.6388
1369.17	0.5159
1378.2	0.3483
1387.22	0.4009
1396.25	0.5843
1405.28	0.7342
1414.3	0.8481
1423.33	0.8885
1432.36	0.8951
1441.38	0.8854
1450.41	0.8514
1459.44	0.7457
1468.46	0.7637
1477.49	0.9084
1486.52	0.9452
1495.54	0.9441
1504.57	0.9383
1513.6	0.9309
1522.62	0.9216
1531.65	0.9134
1540.68	0.9063
1549.7	0.8987
1558.73	0.8899
1567.76	0.8796
1576.78	0.8661
1585.81	0.8451
1594.84	0.8178
1603.86	0.7916
1612.89	0.7896
1621.92	0.7979
1630.94	0.7899
1639.97	0.7758
1649	0.7601
1658.02	0.7306
1667.05	0.6721
1676.08	0.6064
1685.11	0.5138
1694.13	0.3675
1703.16	0.136
1712.19	0.1908
1721.21	0.3736
1730.24	0.5563
1739.27	0.7336
1748.29	0.7571
1757.32	0.6925
1766.35	0.5829
1775.37	0.7106
1784.4	0.8886
1793.43	0.9277
1802.45	0.9465
1811.48	0.9528
1820.51	0.9574
1829.53	0.9607
1838.56	0.9633
1847.59	0.9638
1856.61	0.9637
1865.64	0.9619
1874.67	0.9615
1883.69	0.9614
1892.72	0.9613
1901.75	0.961
1910.77	0.9604
1919.8	0.9597
1928.83	0.9591
1937.85	0.9586
1946.88	0.9581
1955.91	0.9576
1964.94	0.9569
1973.96	0.9562
1982.99	0.9555
1992.02	0.9547
2001.04	0.954
2010.07	0.9532
2019.1	0.9524
2028.12	0.9516
2037.15	0.9507
2046.18	0.9499
2055.2	0.9492
2064.23	0.9486
2073.26	0.948
2082.28	0.9474
2091.31	0.9468
2100.34	0.9463
2109.36	0.9459
2118.39	0.9455
2127.42	0.9451
2136.44	0.9446
2145.47	0.9442
2154.5	0.9437
2163.52	0.9431
2172.55	0.9424
2181.58	0.9417
2190.6	0.9409
2199.63	0.9402
2208.66	0.9395
2217.68	0.9382
2226.71	0.9367
2235.74	0.9352
2244.77	0.9336
2253.79	0.9324
2262.82	0.9314
2271.85	0.9303
2280.87	0.9292
2289.9	0.9282
2298.93	0.9275
2307.95	0.9268
2316.98	0.9262
2326.01	0.9256
2335.03	0.9244
2344.06	0.9229
2353.09	0.9215
2362.11	0.92
2371.14	0.9186
2380.17	0.9168
2389.19	0.9149
2398.22	0.913
2407.25	0.911
2416.27	0.909
2425.3	0.9071
2434.33	0.9052
2443.35	0.9033
2452.38	0.9022
2461.41	0.9012
2470.43	0.9003
2479.46	0.8993
2488.49	0.8983
2497.51	0.8972
2506.54	0.8961
2515.57	0.895
2524.59	0.8939
2533.62	0.8928
2542.65	0.8915
2551.68	0.89
2560.7	0.8886
2569.73	0.8871
2578.76	0.8856
2587.78	0.8835
2596.81	0.8812
2605.84	0.8789
2614.86	0.8765
2623.89	0.8745
2632.92	0.8727
2641.94	0.8708
2650.97	0.8703
2660	0.8708
2669.02	0.8713
2678.05	0.8718
2687.08	0.8723
2696.1	0.8709
2705.13	0.8694
2714.16	0.8684
2723.18	0.8674
2732.21	0.8664
2741.24	0.8647
2750.26	0.8628
2759.29	0.8597
2768.32	0.8557
2777.34	0.8501
2786.37	0.8434
2795.4	0.8418
2804.42	0.8439
2813.45	0.845
2822.48	0.8382
2831.51	0.8217
2840.53	0.7984
2849.56	0.7646
2858.59	0.7208
2867.61	0.682
2876.64	0.6953
2885.67	0.7394
2894.69	0.7556
2903.72	0.7484
2912.75	0.7255
2921.77	0.6994
2930.8	0.6814
2939.83	0.6753
2948.85	0.6753
2957.88	0.6763
2966.91	0.6935
2975.93	0.7839
2984.96	0.8459
2993.99	0.8574
3003.01	0.859
3012.04	0.8562
3021.07	0.8506
3030.09	0.8458
3039.12	0.8428
3048.15	0.842
3057.17	0.8426
3066.2	0.844
3075.23	0.8451
3084.25	0.8426
3093.28	0.842
3102.31	0.8456
3111.33	0.847
3120.36	0.8467
3129.39	0.8459
3138.42	0.8445
3147.44	0.8427
3156.47	0.8407
3165.5	0.8384
3174.52	0.8359
3183.55	0.8335
3192.58	0.8311
3201.6	0.8287
3210.63	0.8259
3219.66	0.8231
3228.68	0.8203
3237.71	0.816
3246.74	0.8117
3255.76	0.8073
3264.79	0.8021
3273.82	0.7968
3282.84	0.7916
3291.87	0.7866
3300.9	0.7815
3309.92	0.7763
3318.95	0.7713
3327.98	0.7662
3337	0.7607
3346.03	0.7545
3355.06	0.7478
3364.08	0.7395
3373.11	0.7311
3382.14	0.722
3391.16	0.7141
3400.19	0.7074
3409.22	0.7009
3418.25	0.6943
3427.27	0.6872
3436.3	0.6811
3445.33	0.6784
3454.35	0.679
3463.38	0.6798
3472.41	0.6775
3481.43	0.67
3490.46	0.6574
3499.49	0.6404
3508.51	0.6187
3517.54	0.5862
3526.57	0.5465
3535.59	0.5546
3544.62	0.5642
3553.65	0.5549
3562.67	0.5542
3571.7	0.5955
3580.73	0.7305
3589.75	0.7644
3598.78	0.7851
3607.81	0.8062
3616.83	0.827
3625.86	0.8385
3634.89	0.8434
3643.91	0.8468
3652.94	0.8487
3661.97	0.8492
3670.99	0.8497
3680.02	0.8501
3689.05	0.8495
3698.07	0.8489
3707.1	0.8481
3716.13	0.8473
3725.16	0.8454
3734.18	0.8441
3743.21	0.8437
3752.24	0.8443
3761.26	0.8459
3770.29	0.8464
3779.32	0.8457
3788.34	0.8447
3797.37	0.8405
3806.4	0.8355
3815.42	0.832
3824.45	0.8297
3833.48	0.8288
3842.5	0.828
3851.53	0.8276
3860.56	0.8272
3869.58	0.8272
3878.61	0.8275
3887.64	0.8277
3896.66	0.8279
3905.69	0.8282
3914.72	0.8285
3923.74	0.8289
3932.77	0.8294
3941.8	0.8301
3950.82	0.8308
3959.85	0.8308
3968.88	0.8306
3977.9	0.8314
3986.93	0.8322
3995.96	0.8331
4004.99	0.8339
