Infrared Spectrum: SUCCINIC ACID, DIAMMONIUM SALT
Formula: C4 H12 N2 O4
State: SOLID (SPLIT MULL), FLUOROLUBE FOR 3800-1330 CM^-^1, NUJOL FOR 1330-450 CM^-^1
Class: COBLENTZ III
Instrument: DOW KBr FOREPRISM-GRATING
Instrument parameters: BLAZED AT 3.5, 12.0, 20.0 MICRON AND CHANGED AT 5.0, 7.5, 14.9 MICRON
Sampling: TRANSMISSION
Resolution: 2
Origin: DOW CHEMICAL COMPANY
1/CM	TRANSMITTANCE
457	0.7353
466	0.7345
475	0.7331
484	0.7378
493	0.7518
502	0.7617
511	0.7625
520	0.7697
529	0.7917
538	0.7997
547	0.793
556	0.6989
565	0.7657
574	0.7215
583	0.8234
592	0.8583
601	0.8665
610	0.869
619	0.8691
628	0.8678
637	0.8612
646	0.8412
655	0.7862
664	0.5166
673	0.39
682	0.7646
691	0.8221
700	0.8384
709	0.8489
718	0.8257
727	0.808
736	0.8374
745	0.8486
754	0.8547
763	0.8575
772	0.8575
781	0.8553
790	0.8518
799	0.8255
808	0.6008
817	0.7939
826	0.8444
835	0.8533
844	0.8544
853	0.857
862	0.8628
871	0.8628
880	0.8581
889	0.8527
898	0.849
907	0.8448
916	0.8288
925	0.6705
934	0.8232
943	0.852
952	0.8491
961	0.8458
970	0.8418
979	0.8397
988	0.8405
997	0.841
1006	0.8412
1015	0.841
1024	0.8403
1033	0.839
1042	0.8368
1051	0.8341
1060	0.8307
1069	0.8271
1078	0.8217
1087	0.8281
1096	0.834
1105	0.8371
1114	0.8388
1123	0.8401
1132	0.8334
1141	0.8194
1150	0.8171
1159	0.7911
1168	0.8132
1177	0.8038
1186	0.8092
1195	0.8024
1204	0.7815
1213	0.7319
1222	0.2837
1231	0.725
1240	0.8153
1249	0.8097
1258	0.7982
1267	0.789
1276	0.7768
1285	0.7601
1294	0.7418
1303	0.7225
1312	0.6983
1321	0.6718
1330	0.6438
1339	0.2511
1348	0.225
1357	0.1966
1366	0.1625
1375	0.1205
1384	0.0756
1393	0.0657
1402	0.0756
1411	0.0889
1420	0.1255
1429	0.2664
1438	0.386
1447	0.3409
1456	0.2772
1465	0.1887
1474	0.1782
1483	0.2288
1492	0.2783
1501	0.2869
1510	0.2574
1519	0.2185
1528	0.1754
1537	0.1223
1546	0.0904
1555	0.083
1564	0.0772
1573	0.0845
1582	0.1162
1591	0.153
1600	0.2575
1609	0.3553
1618	0.4446
1627	0.5233
1636	0.5684
1645	0.6223
1654	0.6535
1663	0.6721
1672	0.6865
1681	0.695
1690	0.6718
1699	0.5797
1708	0.6114
1717	0.6996
1726	0.6751
1735	0.7461
1744	0.7644
1753	0.7711
1762	0.7731
1771	0.7718
1780	0.7671
1789	0.7617
1798	0.7568
1807	0.7512
1816	0.7454
1825	0.7372
1834	0.7283
1843	0.7193
1852	0.7103
1861	0.6941
1870	0.6764
1879	0.6622
1888	0.6595
1897	0.6598
1906	0.6591
1915	0.6582
1924	0.6544
1933	0.6491
1942	0.6504
1951	0.6565
1960	0.6689
1969	0.6833
1978	0.6965
1987	0.7083
1996	0.7181
2005	0.7254
2014	0.731
2023	0.7354
2032	0.7351
2041	0.7294
2050	0.7234
2059	0.7172
2068	0.7099
2077	0.7006
2086	0.6905
2095	0.6801
2104	0.6694
2113	0.6585
2122	0.6475
2131	0.6358
2140	0.6214
2149	0.6083
2158	0.5996
2167	0.5944
2176	0.5936
2185	0.6008
2194	0.6126
2203	0.6244
2212	0.6378
2221	0.6484
2230	0.6499
2239	0.648
2248	0.6458
2257	0.6426
2266	0.6381
2275	0.6317
2284	0.6243
2293	0.6167
2302	0.6086
2311	0.6004
2320	0.592
2329	0.5835
2338	0.5788
2347	0.5738
2356	0.5655
2365	0.5624
2374	0.5579
2383	0.5506
2392	0.5431
2401	0.5355
2410	0.5276
2419	0.5189
2428	0.5112
2437	0.5038
2446	0.4959
2455	0.4875
2464	0.4791
2473	0.4704
2482	0.4616
2491	0.4528
2500	0.4452
2509	0.4376
2518	0.4301
2527	0.4223
2536	0.4144
2545	0.4064
2554	0.3971
2563	0.3875
2572	0.3771
2581	0.3666
2590	0.3544
2599	0.3416
2608	0.3277
2617	0.3137
2626	0.3003
2635	0.2876
2644	0.2749
2653	0.2635
2662	0.2531
2671	0.242
2680	0.2307
2689	0.2199
2698	0.2098
2707	0.2023
2716	0.1966
2725	0.1917
2734	0.1892
2743	0.1911
2752	0.1937
2761	0.1972
2770	0.2014
2779	0.2076
2788	0.214
2797	0.2039
2806	0.1984
2815	0.1931
2824	0.1898
2833	0.1899
2842	0.1873
2851	0.1978
2860	0.2057
2869	0.2123
2878	0.219
2887	0.2253
2896	0.2307
2905	0.2412
2914	0.2415
2923	0.237
2932	0.2384
2941	0.2326
2950	0.2148
2959	0.208
2968	0.2431
2977	0.2394
2986	0.2359
2995	0.2327
3004	0.2297
3013	0.2268
3022	0.224
3031	0.2202
3040	0.2161
3049	0.211
3058	0.2053
3067	0.1979
3076	0.1895
3085	0.1878
3094	0.1944
3103	0.2077
3112	0.2208
3121	0.2262
3130	0.2291
3139	0.2305
3148	0.2442
3157	0.2566
3166	0.2763
3175	0.2868
3184	0.2868
3193	0.2949
3202	0.3168
3211	0.3595
3220	0.4184
3229	0.4628
3238	0.5049
3247	0.5405
3256	0.5749
3265	0.6144
3274	0.6611
3283	0.6992
3292	0.7315
3301	0.7518
3310	0.7703
3319	0.7901
3328	0.8115
3337	0.8316
3346	0.8451
3355	0.8573
3364	0.8665
3373	0.873
3382	0.8762
3391	0.8784
3400	0.8794
3409	0.8798
3418	0.8796
3427	0.8789
3436	0.8775
3445	0.8758
3454	0.8739
3463	0.8714
3472	0.869
3481	0.8671
3490	0.8652
3499	0.8633
3508	0.8614
3517	0.8596
3526	0.8582
3535	0.8567
3544	0.8553
3553	0.8538
3562	0.8524
3571	0.8441
3580	0.8468
3589	0.8475
3598	0.8395
3607	0.8433
3616	0.8409
3625	0.8375
3634	0.8352
3643	0.8331
3652	0.8311
3661	0.8293
3670	0.8275
3679	0.8255
3688	0.8232
3697	0.8208
3706	0.8182
3715	0.8158
3724	0.8135
3733	0.8111
3742	0.8089
3751	0.8065
3760	0.8043
3769	0.8018
3778	0.7997
3787	0.7972
3796	0.7951
