Infrared Spectrum: L-CYSTEINEAMIDE HYDROCHLORIDE
Formula: C3 H8 N2 S O  * H Cl
State: SOLID (MINERAL OIL MULL)
Melting point: 187-188 C
Class: COBLENTZ
Instrument: Not specified, most likely a prism, grating, or hybrid spectrometer.
Sampling: TRANSMISSION
Resolution: 4
Origin: ARTHUR D. LITTLE, INC.
MICROMETERS	TRANSMITTANCE
2.463	0.921
2.49589	0.921
2.52878	0.926
2.56168	0.934
2.59457	0.939
2.62746	0.932
2.66035	0.917
2.69325	0.896
2.72614	0.877
2.75903	0.84
2.79192	0.793
2.82481	0.737
2.85771	0.65
2.8906	0.486
2.92349	0.316
2.95638	0.157
2.98927	0.045
3.02217	0.044
3.05506	0.056
3.08795	0.066
3.12084	0.063
3.15374	0.036
3.18663	0.043
3.21952	0.055
3.25241	0.05
3.2853	0.036
3.3182	0.031
3.35109	0.018
3.38398	0.027
3.41687	0.027
3.44977	0.031
3.48266	0.057
3.51555	0.109
3.54844	0.196
3.58133	0.198
3.61423	0.201
3.64712	0.236
3.68001	0.292
3.7129	0.316
3.74579	0.359
3.77869	0.368
3.81158	0.371
3.84447	0.403
3.87736	0.5
3.91026	0.602
3.94315	0.655
3.97604	0.663
4.00893	0.688
4.04182	0.719
4.07472	0.744
4.10761	0.776
4.1405	0.804
4.17339	0.825
4.20629	0.851
4.23918	0.863
4.27207	0.87
4.30496	0.865
4.33785	0.883
4.37075	0.903
4.40364	0.909
4.43653	0.906
4.46942	0.909
4.50231	0.924
4.53521	0.926
4.5681	0.929
4.60099	0.925
4.63388	0.925
4.66678	0.93
4.69967	0.93
4.73256	0.915
4.76545	0.897
4.79834	0.884
4.83124	0.875
4.86413	0.867
4.89702	0.855
4.92991	0.838
4.96281	0.816
4.9957	0.802
5.02859	0.793
5.06148	0.792
5.09437	0.802
5.12727	0.81
5.16016	0.825
5.19305	0.85
5.22594	0.876
5.25883	0.895
5.29173	0.902
5.32462	0.905
5.35751	0.903
5.3904	0.899
5.4233	0.893
5.45619	0.887
5.48908	0.875
5.52197	0.839
5.55486	0.816
5.58776	0.774
5.62065	0.745
5.65354	0.71
5.68643	0.632
5.71933	0.521
5.75222	0.444
5.78511	0.319
5.818	0.151
5.85089	0.099
5.88379	0.039
5.91668	0.031
5.94957	0.081
5.98246	0.246
6.01535	0.449
6.04825	0.468
6.08114	0.276
6.11403	0.18
6.14692	0.129
6.17982	0.148
6.21271	0.242
6.2456	0.246
6.27849	0.208
6.31138	0.277
6.34428	0.454
6.37717	0.62
6.41006	0.665
6.44295	0.696
6.47585	0.693
6.50874	0.612
6.54163	0.493
6.57452	0.362
6.60741	0.264
6.64031	0.208
6.6732	0.139
6.70609	0.046
6.73898	0.03
6.77187	0.032
6.80477	0.037
6.83766	0.064
6.87055	0.084
6.90344	0.089
6.93634	0.159
6.96923	0.304
7.00212	0.265
7.03501	0.194
7.0679	0.252
7.1008	0.388
7.13369	0.444
7.16658	0.455
7.19947	0.421
7.23237	0.382
7.26526	0.403
7.29815	0.43
7.33104	0.453
7.36393	0.45
7.39683	0.405
7.42972	0.319
7.46261	0.26
7.4955	0.338
7.52839	0.351
7.56129	0.322
7.59418	0.302
7.62707	0.254
7.65996	0.262
7.69286	0.393
7.72575	0.468
7.75864	0.498
7.79153	0.542
7.82442	0.561
7.85732	0.577
7.89021	0.61
7.9231	0.671
7.95599	0.691
7.98889	0.706
8.02178	0.728
8.05467	0.737
8.08756	0.737
8.12045	0.731
8.15335	0.681
8.18624	0.644
8.21913	0.698
8.25202	0.725
8.28491	0.755
8.31781	0.771
8.3507	0.784
8.38359	0.791
8.41648	0.772
8.44938	0.75
8.48227	0.705
8.51516	0.651
8.54805	0.632
8.58094	0.557
8.61384	0.45
8.64673	0.407
8.67962	0.411
8.71251	0.529
8.74541	0.526
8.7783	0.491
8.81119	0.513
8.84408	0.632
8.87697	0.75
8.90987	0.796
8.94276	0.806
8.97565	0.806
9.00854	0.787
9.04143	0.737
9.07433	0.663
9.10722	0.588
9.14011	0.578
9.173	0.596
9.2059	0.646
9.23879	0.651
9.27168	0.599
9.30457	0.484
9.33746	0.363
9.37036	0.3
9.40325	0.318
9.43614	0.472
9.46903	0.64
9.50193	0.73
9.53482	0.759
9.56771	0.78
9.6006	0.805
9.63349	0.829
9.66639	0.851
9.69928	0.861
9.73217	0.868
9.76506	0.882
9.79795	0.894
9.83085	0.896
9.86374	0.895
9.89663	0.894
9.92952	0.886
9.96242	0.874
9.99531	0.829
10.0282	0.816
10.0611	0.795
10.094	0.764
10.1269	0.746
10.1598	0.793
10.1927	0.842
10.2256	0.861
10.2584	0.867
10.2913	0.873
10.3242	0.875
10.3571	0.878
10.39	0.881
10.4229	0.881
10.4558	0.875
10.4887	0.847
10.5216	0.791
10.5545	0.701
10.5874	0.553
10.6203	0.46
10.6532	0.544
10.686	0.632
10.7189	0.703
10.7518	0.747
10.7847	0.805
10.8176	0.846
10.8505	0.875
10.8834	0.899
10.9163	0.907
10.9492	0.914
10.9821	0.92
11.015	0.921
11.0479	0.92
11.0807	0.92
11.1136	0.923
11.1465	0.924
11.1794	0.924
11.2123	0.924
11.2452	0.922
11.2781	0.919
11.311	0.914
11.3439	0.911
11.3768	0.908
11.4097	0.908
11.4426	0.908
11.4755	0.903
11.5083	0.894
11.5412	0.873
11.5741	0.847
11.607	0.828
11.6399	0.808
11.6728	0.804
11.7057	0.803
11.7386	0.803
11.7715	0.795
11.8044	0.76
11.8373	0.705
11.8702	0.636
11.9031	0.585
11.9359	0.517
11.9688	0.485
12.0017	0.469
12.0346	0.497
12.0675	0.562
12.1004	0.655
12.1333	0.732
12.1662	0.769
12.1991	0.793
12.232	0.818
12.2649	0.827
12.2978	0.839
12.3307	0.844
12.3635	0.843
12.3964	0.838
12.4293	0.829
12.4622	0.818
12.4951	0.8
12.528	0.788
12.5609	0.768
12.5938	0.742
12.6267	0.707
12.6596	0.662
12.6925	0.631
12.7254	0.608
12.7583	0.611
12.7911	0.634
12.824	0.67
12.8569	0.689
12.8898	0.707
12.9227	0.716
12.9556	0.72
12.9885	0.72
13.0214	0.72
13.0543	0.72
13.0872	0.72
13.1201	0.722
13.153	0.744
13.1858	0.76
13.2187	0.766
13.2516	0.77
13.2845	0.774
13.3174	0.774
13.3503	0.766
13.3832	0.759
13.4161	0.747
13.449	0.735
13.4819	0.728
13.5148	0.721
13.5477	0.711
13.5806	0.703
13.6134	0.681
13.6463	0.664
13.6792	0.649
13.7121	0.633
13.745	0.628
13.7779	0.622
13.8108	0.608
13.8437	0.6
13.8766	0.599
13.9095	0.597
13.9424	0.593
13.9753	0.584
14.0082	0.574
14.041	0.558
14.0739	0.544
14.1068	0.536
14.1397	0.525
14.1726	0.516
14.2055	0.501
14.2384	0.482
14.2713	0.462
14.3042	0.443
14.3371	0.417
14.37	0.397
14.4029	0.373
14.4358	0.342
14.4686	0.318
14.5015	0.298
14.5344	0.278
14.5673	0.26
14.6002	0.23
14.6331	0.22
14.666	0.212
14.6989	0.204
14.7318	0.196
14.7647	0.183
14.7976	0.175
14.8305	0.173
14.8633	0.171
14.8962	0.17
14.9291	0.167
14.962	0.163
14.9949	0.159
