Infrared Spectrum: RAW SIENNA
Formula: O3 Fe2
State: SOLID (1 mg / 300 mg CsI PELLET)
Class: COBLENTZ
Instrument: Not specified, most likely a grating spectrometer.
Sampling: TRANSMISSION
Resolution: 4
Origin: DESOTO CHEMICAL COATINGS, INC.
1/CM	TRANSMITTANCE
198.668	0.922
209.327	0.921
219.986	0.929
230.644	0.951
241.303	0.966
251.962	0.962
262.621	0.943
273.279	0.8221
283.938	0.614
294.597	0.58
305.256	0.598
315.914	0.648
326.573	0.684
337.232	0.693
347.891	0.655
358.549	0.618
369.208	0.594
379.867	0.521
390.526	0.505
401.185	0.377
411.843	0.272
422.502	0.219
433.161	0.2
443.82	0.22
454.478	0.213
465.137	0.143
475.796	0.14
486.455	0.241
497.113	0.312
507.772	0.354
518.431	0.37
529.09	0.3081
539.749	0.274
550.407	0.358
561.066	0.402
571.725	0.443
582.384	0.47
593.042	0.475
603.701	0.482
614.36	0.506
625.019	0.558
635.677	0.613
646.336	0.656
656.995	0.669
667.654	0.669
678.312	0.665
688.971	0.671
699.63	0.663
710.289	0.684
720.948	0.776
731.606	0.81
742.265	0.807
752.924	0.776
763.583	0.751
774.241	0.727
784.9	0.66
795.559	0.602
806.218	0.597
816.876	0.676
827.535	0.74
838.194	0.763
848.853	0.778
859.512	0.772
870.17	0.733
880.829	0.657
891.488	0.57
902.147	0.4951
912.805	0.43
923.464	0.4809
934.123	0.569
944.782	0.602
955.44	0.644
966.099	0.636
976.758	0.561
987.417	0.471
998.075	0.348
1008.73	0.1811
1019.39	0.193
1030.05	0.181
1040.71	0.181
1051.37	0.283
1062.03	0.352
1072.69	0.375
1083.35	0.352
1094	0.316
1104.66	0.298
1115.32	0.3709
1125.98	0.5019
1136.64	0.602
1147.3	0.675
1157.96	0.72
1168.62	0.752
1179.27	0.784
1189.93	0.826
1200.59	0.851
1211.25	0.874
1221.91	0.893
1232.57	0.902
1243.23	0.911
1253.89	0.918
1264.54	0.922
1275.2	0.929
1285.86	0.933
1296.52	0.939
1307.18	0.941
1317.84	0.945
1328.5	0.945
1339.16	0.946
1349.81	0.947
1360.47	0.947
1371.13	0.951
1381.79	0.95
1392.45	0.951
1403.11	0.951
1413.77	0.951
1424.43	0.951
1435.08	0.951
1445.74	0.953
1456.4	0.954
1467.06	0.957
1477.72	0.959
1488.38	0.962
1499.04	0.959
1509.7	0.961
1520.36	0.961
1531.01	0.958
1541.67	0.957
1552.33	0.957
1562.99	0.953
1573.65	0.947
1584.31	0.941
1594.97	0.926
1605.63	0.901
1616.28	0.886
1626.94	0.882
1637.6	0.891
1648.26	0.902
1658.92	0.913
1669.58	0.914
1680.24	0.923
1690.9	0.929
1701.55	0.933
1712.21	0.937
1722.87	0.938
1733.53	0.941
1744.19	0.943
1754.85	0.945
1765.51	0.939
1776.17	0.942
1786.82	0.938
1797.48	0.939
1808.14	0.937
1818.8	0.941
1829.46	0.943
1840.12	0.945
1850.78	0.947
1861.44	0.95
1872.09	0.95
1882.75	0.95
1893.41	0.946
1904.07	0.946
1914.73	0.947
1925.39	0.947
1936.05	0.947
1946.71	0.946
1957.36	0.947
1968.02	0.95
1978.68	0.949
1989.34	0.95
2000	0.947
2010.66	0.946
2021.32	0.9409
2031.98	0.938
2042.63	0.941
2053.29	0.942
2063.95	0.942
2074.61	0.941
2085.27	0.942
2095.93	0.943
2106.59	0.942
2117.25	0.9434
2127.9	0.943
2138.56	0.943
2149.22	0.9423
2159.88	0.945
2170.54	0.945
2181.2	0.945
2191.86	0.945
2202.52	0.9472
2213.17	0.9442
2223.83	0.9439
2234.49	0.9456
2245.15	0.945
2255.81	0.942
2266.47	0.9425
2277.13	0.9439
2287.79	0.9415
2298.44	0.942
2309.1	0.9398
2319.76	0.939
2330.42	0.9357
2341.08	0.9333
2351.74	0.931
2362.4	0.9324
2373.06	0.9261
2383.72	0.9245
2394.37	0.93
2405.03	0.933
2415.69	0.933
2426.35	0.9313
2437.01	0.929
2447.67	0.929
2458.33	0.927
2468.99	0.93
2479.64	0.929
2490.3	0.929
2500.96	0.929
2511.62	0.926
2522.28	0.922
2532.94	0.921
2543.6	0.922
2554.26	0.922
2564.91	0.9208
2575.57	0.918
2586.23	0.9179
2596.89	0.917
2607.55	0.915
2618.21	0.914
2628.87	0.9126
2639.53	0.91
2650.18	0.91
2660.84	0.907
2671.5	0.9057
2682.16	0.9027
2692.82	0.9003
2703.48	0.8986
2714.14	0.895
2724.8	0.894
2735.45	0.8922
2746.11	0.8895
2756.77	0.886
2767.43	0.8825
2778.09	0.8785
2788.75	0.876
2799.41	0.8729
2810.07	0.87
2820.72	0.8656
2831.38	0.8594
2842.04	0.8567
2852.7	0.8474
2863.36	0.8407
2874.02	0.84
2884.68	0.839
2895.34	0.8325
2905.99	0.83
2916.65	0.8244
2927.31	0.8116
2937.97	0.808
2948.63	0.806
2959.29	0.8021
2969.95	0.7981
2980.61	0.7941
2991.26	0.79
3001.92	0.7831
3012.58	0.7701
3023.24	0.766
3033.9	0.752
3044.56	0.7409
3055.22	0.7309
3065.88	0.7147
3076.53	0.6947
3087.19	0.6725
3097.85	0.6556
3108.51	0.6356
3119.17	0.6188
3129.83	0.6008
3140.49	0.5851
3151.15	0.5715
3161.81	0.5648
3172.46	0.5594
3183.12	0.557
3193.78	0.5567
3204.44	0.556
3215.1	0.557
3225.76	0.561
3236.42	0.5672
3247.08	0.5789
3257.73	0.5829
3268.39	0.5895
3279.05	0.5989
3289.71	0.6055
3300.37	0.6151
3311.03	0.621
3321.69	0.6237
3332.35	0.625
3343	0.629
3353.66	0.629
3364.32	0.6257
3374.98	0.625
3385.64	0.622
3396.3	0.6146
3406.96	0.61
3417.62	0.608
3428.27	0.605
3438.93	0.604
3449.59	0.602
3460.25	0.608
3470.91	0.6099
3481.57	0.6137
3492.23	0.6209
3502.89	0.6308
3513.54	0.6428
3524.2	0.6559
3534.86	0.6629
3545.52	0.677
3556.18	0.689
3566.84	0.7031
3577.5	0.7112
3588.16	0.721
3598.81	0.725
3609.47	0.7239
3620.13	0.6625
3630.79	0.6777
3641.45	0.7247
3652.11	0.729
3662.77	0.7294
3673.43	0.733
3684.08	0.7167
3694.74	0.5802
3705.4	0.6358
3716.06	0.7913
3726.72	0.8318
3737.38	0.8491
3748.04	0.859
3758.7	0.8602
3769.35	0.8649
3780.01	0.87
3790.67	0.87
3801.33	0.87
3811.99	0.87
3822.65	0.868
3833.31	0.87
3843.97	0.8688
3854.62	0.8692
3865.28	0.87
3875.94	0.868
3886.6	0.8677
3897.26	0.8677
3907.92	0.868
3918.58	0.867
3929.24	0.866
3939.89	0.867
3950.55	0.8662
3961.21	0.864
3971.87	0.866
3982.53	0.864
