Infrared Spectrum: SODIUM PERMANGANATE
Formula: Na Mn O4  * 3 H2 O
State: SOLID (NUJOL MULL)
Class: COBLENTZ
Instrument: Not specified, most likely a prism, grating, or hybrid spectrometer.
Sampling: TRANSMISSION
Resolution: 4
Origin: MELLON INSTITUTE
MICROMETERS	TRANSMITTANCE
1.999	0.85
2.03986	0.869
2.08073	0.883
2.12159	0.886
2.16246	0.888
2.20332	0.886
2.24419	0.884
2.28505	0.872
2.32592	0.872
2.36678	0.878
2.40765	0.886
2.44851	0.869
2.48938	0.852
2.53024	0.853
2.57111	0.872
2.61197	0.9
2.65284	0.907
2.6937	0.896
2.73456	0.838
2.77543	0.609
2.81629	0.429
2.85716	0.359
2.89802	0.41
2.93889	0.5
2.97975	0.565
3.02062	0.596
3.06148	0.647
3.10235	0.699
3.14321	0.742
3.18408	0.757
3.22494	0.768
3.26581	0.776
3.30667	0.721
3.34754	0.324
3.3884	0.159
3.42927	0.376
3.47013	0.328
3.51099	0.663
3.55186	0.838
3.59272	0.879
3.63359	0.888
3.67445	0.89
3.71532	0.89
3.75618	0.891
3.79705	0.893
3.83791	0.896
3.87878	0.902
3.91964	0.907
3.96051	0.908
4.00137	0.912
4.04224	0.912
4.0831	0.914
4.12397	0.914
4.16483	0.915
4.20569	0.902
4.24656	0.883
4.28742	0.886
4.32829	0.884
4.36915	0.898
4.41002	0.903
4.45088	0.9
4.49175	0.895
4.53261	0.895
4.57348	0.886
4.61434	0.883
4.65521	0.874
4.69607	0.864
4.73694	0.857
4.7778	0.845
4.81867	0.835
4.85953	0.828
4.90039	0.831
4.94126	0.838
4.98212	0.843
5.02299	0.838
5.06385	0.845
5.10472	0.865
5.14558	0.893
5.18645	0.905
5.22731	0.917
5.26818	0.92
5.30904	0.92
5.34991	0.92
5.39077	0.922
5.43164	0.922
5.4725	0.922
5.51337	0.92
5.55423	0.895
5.59509	0.929
5.63596	0.938
5.67682	0.951
5.71769	0.946
5.75855	0.929
5.79942	0.914
5.84028	0.926
5.88115	0.926
5.92201	0.92
5.96288	0.91
6.00374	0.908
6.04461	0.886
6.08547	0.697
6.12634	0.396
6.1672	0.395
6.20807	0.611
6.24893	0.759
6.2898	0.804
6.33066	0.841
6.37152	0.864
6.41239	0.867
6.45325	0.895
6.49412	0.903
6.53498	0.895
6.57585	0.908
6.61671	0.908
6.65758	0.926
6.69844	0.92
6.73931	0.903
6.78017	0.824
6.82104	0.656
6.8619	0.659
6.90277	0.747
6.94363	0.805
6.9845	0.881
7.02536	0.912
7.06622	0.927
7.10709	0.931
7.14795	0.932
7.18882	0.891
7.22968	0.798
7.27055	0.812
7.31141	0.855
7.35228	0.905
7.39314	0.912
7.43401	0.914
7.47487	0.926
7.51574	0.938
7.5566	0.932
7.59747	0.939
7.63833	0.934
7.6792	0.932
7.72006	0.939
7.76092	0.931
7.80179	0.936
7.84265	0.938
7.88352	0.927
7.92438	0.926
7.96525	0.929
8.00611	0.926
8.04698	0.926
8.08784	0.926
8.12871	0.926
8.16957	0.92
8.21044	0.917
8.2513	0.914
8.29217	0.912
8.33303	0.912
8.3739	0.912
8.41476	0.912
8.45562	0.908
8.49649	0.907
8.53735	0.902
8.57822	0.902
8.61908	0.895
8.65995	0.893
8.70081	0.888
8.74168	0.888
8.78254	0.888
8.82341	0.884
8.86427	0.888
8.90514	0.89
8.946	0.881
8.98687	0.883
9.02773	0.884
9.0686	0.888
9.10946	0.884
9.15033	0.886
9.19119	0.883
9.23205	0.883
9.27292	0.884
9.31378	0.884
9.35465	0.883
9.39551	0.886
9.43638	0.888
9.47724	0.888
9.51811	0.888
9.55897	0.886
9.59984	0.884
9.6407	0.884
9.68157	0.884
9.72243	0.884
9.7633	0.883
9.80416	0.881
9.84503	0.888
9.88589	0.89
9.92675	0.888
9.96762	0.883
10.0085	0.886
10.0493	0.886
10.0902	0.888
10.1311	0.876
10.1719	0.872
10.2128	0.864
10.2537	0.862
10.2945	0.853
10.3354	0.848
10.3763	0.84
10.4171	0.835
10.458	0.824
10.4989	0.819
10.5397	0.809
10.5806	0.793
10.6215	0.752
10.6623	0.694
10.7032	0.634
10.744	0.575
10.7849	0.5
10.8258	0.426
10.8666	0.369
10.9075	0.319
10.9484	0.288
10.9892	0.238
11.0301	0.207
11.071	0.194
11.1118	0.189
11.1527	0.187
11.1936	0.194
11.2344	0.216
11.2753	0.245
11.3162	0.288
11.357	0.336
11.3979	0.378
11.4387	0.422
11.4796	0.472
11.5205	0.513
11.5613	0.544
11.6022	0.579
11.6431	0.606
11.6839	0.635
11.7248	0.649
11.7657	0.668
11.8065	0.69
11.8474	0.704
11.8883	0.711
11.9291	0.719
11.97	0.743
12.0109	0.768
12.0517	0.783
12.0926	0.797
12.1334	0.802
12.1743	0.814
12.2152	0.821
12.256	0.826
12.2969	0.835
12.3378	0.84
12.3786	0.843
12.4195	0.848
12.4604	0.853
12.5012	0.86
12.5421	0.867
12.583	0.867
12.6238	0.876
12.6647	0.876
12.7056	0.876
12.7464	0.874
12.7873	0.874
12.8281	0.874
12.869	0.876
12.9099	0.874
12.9507	0.874
12.9916	0.878
13.0325	0.879
13.0733	0.878
13.1142	0.878
13.1551	0.878
13.1959	0.874
13.2368	0.874
13.2777	0.874
13.3185	0.874
13.3594	0.872
13.4003	0.869
13.4411	0.86
13.482	0.855
13.5228	0.85
13.5637	0.845
13.6046	0.841
13.6454	0.836
13.6863	0.836
13.7272	0.829
13.768	0.824
13.8089	0.823
13.8498	0.821
13.8906	0.819
13.9315	0.819
13.9724	0.817
14.0132	0.816
14.0541	0.81
14.095	0.809
14.1358	0.807
14.1767	0.804
14.2175	0.797
14.2584	0.792
14.2993	0.785
14.3401	0.776
14.381	0.773
14.4219	0.773
14.4627	0.766
14.5036	0.759
14.5445	0.754
14.5853	0.75
14.6262	0.745
14.6671	0.74
14.7079	0.73
14.7488	0.721
14.7897	0.718
14.8305	0.716
14.8714	0.713
14.9122	0.704
14.9531	0.694
14.994	0.694
15.0348	0.69
15.0757	0.685
15.1166	0.68
15.1574	0.676
15.1983	0.673
15.2392	0.668
15.28	0.663
15.3209	0.664
15.3618	0.663
15.4026	0.658
15.4435	0.656
15.4844	0.656
15.5252	0.652
15.5661	0.652
15.6069	0.647
15.6478	0.652
15.6887	0.651
15.7295	0.652
15.7704	0.654
15.8113	0.652
15.8521	0.654
15.893	0.656
15.9339	0.656
