Infrared Spectrum: HIPPURIC ACID SODIUM SALT
Formula: C9 H8 N O3 Na
State: SOLID (OIL MULL)
Class: COBLENTZ
Instrument: Not specified, most likely a prism, grating, or hybrid spectrometer.
Sampling: TRANSMISSION
Resolution: 4
Origin: WYANDOTTE CHEMICALS CORP., WYANDOTTE, MICHIGAN, USA
MICROMETERS	TRANSMITTANCE
2.042	0.791
2.08193	0.792
2.12185	0.797
2.16178	0.804
2.20171	0.792
2.24164	0.784
2.28156	0.792
2.32149	0.799
2.36142	0.8
2.40135	0.799
2.44127	0.814
2.4812	0.822
2.52113	0.829
2.56105	0.842
2.60098	0.844
2.64091	0.842
2.68084	0.842
2.72076	0.799
2.76069	0.776
2.80062	0.728
2.84055	0.671
2.88047	0.621
2.9204	0.568
2.96033	0.451
3.00026	0.336
3.04018	0.213
3.08011	0.228
3.12004	0.296
3.15996	0.441
3.19989	0.51
3.23982	0.419
3.27975	0.434
3.31967	0.469
3.3596	0.137
3.39953	0.039
3.43946	0.046
3.47938	0.089
3.51931	0.091
3.55924	0.61
3.59916	0.771
3.63909	0.837
3.67902	0.832
3.71895	0.852
3.75887	0.86
3.7988	0.87
3.83873	0.873
3.87866	0.883
3.91858	0.902
3.95851	0.922
3.99844	0.923
4.03836	0.925
4.07829	0.933
4.11822	0.935
4.15815	0.936
4.19807	0.935
4.238	0.932
4.27793	0.927
4.31786	0.945
4.35778	0.953
4.39771	0.97
4.43764	0.965
4.47757	0.96
4.51749	0.961
4.55742	0.961
4.59735	0.968
4.63727	0.978
4.6772	0.98
4.71713	0.98
4.75706	0.983
4.79698	0.99
4.83691	0.991
4.87684	0.991
4.91677	0.991
4.95669	0.99
4.99662	0.995
5.03655	0.993
5.07647	0.98
5.1164	0.97
5.15633	0.96
5.19626	0.981
5.23618	0.981
5.27611	0.965
5.31604	0.965
5.35597	0.983
5.39589	0.983
5.43582	0.978
5.47575	0.97
5.51567	0.951
5.5556	0.938
5.59553	0.933
5.63546	0.91
5.67538	0.908
5.71531	0.888
5.75524	0.839
5.79517	0.779
5.83509	0.721
5.87502	0.66
5.91495	0.587
5.95488	0.437
5.9948	0.041
6.03473	0.043
6.07466	0.034
6.11458	0.033
6.15451	0.033
6.19444	0.033
6.23437	0.034
6.27429	0.066
6.31422	0.041
6.35415	0.041
6.39408	0.033
6.434	0.038
6.47393	0.058
6.51386	0.099
6.55378	0.222
6.59371	0.318
6.63364	0.398
6.67357	0.177
6.71349	0.238
6.75342	0.26
6.79335	0.149
6.83328	0.145
6.8732	0.111
6.91313	0.129
6.95306	0.084
6.99299	0.053
7.03291	0.046
7.07284	0.041
7.11277	0.049
7.15269	0.071
7.19262	0.114
7.23255	0.17
7.27248	0.268
7.3124	0.388
7.35233	0.492
7.39226	0.467
7.43219	0.361
7.47211	0.33
7.51204	0.416
7.55197	0.338
7.59189	0.22
7.63182	0.164
7.67175	0.296
7.71168	0.276
7.7516	0.215
7.79153	0.298
7.83146	0.467
7.87139	0.459
7.91131	0.401
7.95124	0.462
7.99117	0.49
8.03109	0.595
8.07102	0.625
8.11095	0.585
8.15088	0.552
8.1908	0.699
8.23073	0.744
8.27066	0.752
8.31059	0.767
8.35051	0.761
8.39044	0.708
8.43037	0.691
8.4703	0.708
8.51022	0.681
8.55015	0.698
8.59008	0.719
8.63	0.737
8.66993	0.734
8.70986	0.787
8.74979	0.817
8.78971	0.832
8.82964	0.835
8.86957	0.84
8.9095	0.84
8.94942	0.832
8.98935	0.815
9.02928	0.796
9.0692	0.792
9.10913	0.797
9.14906	0.708
9.18899	0.62
9.22891	0.557
9.26884	0.6
9.30877	0.643
9.3487	0.633
9.38862	0.733
9.42855	0.767
9.46848	0.8
9.5084	0.832
9.54833	0.839
9.58826	0.842
9.62819	0.829
9.66811	0.752
9.70804	0.611
9.74797	0.704
9.7879	0.769
9.82782	0.81
9.86775	0.799
9.90768	0.656
9.94761	0.467
9.98753	0.489
10.0275	0.562
10.0674	0.704
10.1073	0.771
10.1472	0.807
10.1872	0.82
10.2271	0.799
10.267	0.782
10.307	0.797
10.3469	0.812
10.3868	0.809
10.4267	0.769
10.4667	0.721
10.5066	0.739
10.5465	0.764
10.5864	0.774
10.6264	0.767
10.6663	0.726
10.7062	0.663
10.7462	0.665
10.7861	0.661
10.826	0.666
10.8659	0.723
10.9059	0.734
10.9458	0.762
10.9857	0.81
11.0256	0.839
11.0656	0.854
11.1055	0.864
11.1454	0.865
11.1854	0.865
11.2253	0.865
11.2652	0.867
11.3051	0.868
11.3451	0.872
11.385	0.87
11.4249	0.865
11.4648	0.864
11.5048	0.854
11.5447	0.844
11.5846	0.84
11.6246	0.839
11.6645	0.824
11.7044	0.81
11.7443	0.781
11.7843	0.734
11.8242	0.655
11.8641	0.587
11.904	0.57
11.944	0.66
11.9839	0.747
12.0238	0.762
12.0638	0.796
12.1037	0.81
12.1436	0.812
12.1835	0.81
12.2235	0.752
12.2634	0.769
12.3033	0.786
12.3432	0.749
12.3832	0.701
12.4231	0.635
12.463	0.643
12.503	0.701
12.5429	0.716
12.5828	0.761
12.6227	0.796
12.6627	0.81
12.7026	0.812
12.7425	0.81
12.7824	0.8
12.8224	0.791
12.8623	0.781
12.9022	0.771
12.9422	0.757
12.9821	0.744
13.022	0.731
13.0619	0.726
13.1019	0.713
13.1418	0.698
13.1817	0.678
13.2216	0.655
13.2616	0.618
13.3015	0.573
13.3414	0.542
13.3814	0.53
13.4213	0.532
13.4612	0.532
13.5011	0.532
13.5411	0.517
13.581	0.5
13.6209	0.489
13.6608	0.472
13.7008	0.462
13.7407	0.439
13.7806	0.398
13.8206	0.333
13.8605	0.275
13.9004	0.235
13.9403	0.197
13.9803	0.144
14.0202	0.109
14.0601	0.101
14.1	0.107
14.14	0.112
14.1799	0.116
14.2198	0.122
14.2598	0.124
14.2997	0.127
14.3396	0.139
14.3795	0.154
14.4195	0.165
14.4594	0.162
14.4993	0.155
14.5392	0.17
14.5792	0.212
14.6191	0.266
14.659	0.298
14.699	0.33
14.7389	0.359
14.7788	0.376
14.8187	0.389
14.8587	0.404
14.8986	0.431
14.9385	0.451
14.9784	0.467
15.0184	0.485
15.0583	0.499
15.0982	0.502
15.1382	0.502
15.1781	0.505
15.218	0.505
15.2579	0.51
15.2979	0.514
15.3378	0.529
15.3777	0.543
15.4176	0.557
15.4576	0.573
15.4975	0.582
15.5374	0.595
15.5774	0.592
15.6173	0.603
15.6572	0.608
15.6971	0.608
15.7371	0.603
15.777	0.601
15.8169	0.598
15.8568	0.6
15.8968	0.592
15.9367	0.585
15.9766	0.583
