Infrared Spectrum: SODIUM CHLORATE
Formula: Na Cl O3
State: SOLID (NUJOL MULL)
Class: COBLENTZ
Instrument: Not specified, most likely a prism, grating, or hybrid spectrometer.
Sampling: TRANSMISSION
Resolution: 4
Origin: MELLON INSTITUTE
MICROMETERS	TRANSMITTANCE
2.051	0.822
2.09081	0.826
2.13062	0.826
2.17043	0.826
2.21023	0.822
2.25004	0.824
2.28985	0.816
2.32966	0.816
2.36947	0.822
2.40928	0.819
2.44909	0.824
2.48889	0.829
2.5287	0.832
2.56851	0.834
2.60832	0.824
2.64813	0.842
2.68794	0.831
2.72775	0.832
2.76755	0.829
2.80736	0.821
2.84717	0.812
2.88698	0.807
2.92679	0.807
2.9666	0.809
3.00641	0.812
3.04621	0.814
3.08602	0.816
3.12583	0.817
3.16564	0.821
3.20545	0.822
3.24526	0.819
3.28506	0.802
3.32487	0.714
3.36468	0.367
3.40449	0.265
3.4443	0.476
3.48411	0.431
3.52392	0.765
3.56372	0.834
3.60353	0.849
3.64334	0.851
3.68315	0.854
3.72296	0.849
3.76277	0.851
3.80258	0.854
3.84238	0.857
3.88219	0.862
3.922	0.861
3.96181	0.862
4.00162	0.866
4.04143	0.866
4.08124	0.866
4.12104	0.866
4.16085	0.866
4.20066	0.874
4.24047	0.866
4.28028	0.854
4.32009	0.844
4.3599	0.849
4.3997	0.852
4.43951	0.854
4.47932	0.854
4.51913	0.856
4.55894	0.852
4.59875	0.852
4.63856	0.852
4.67836	0.852
4.71817	0.852
4.75798	0.854
4.79779	0.854
4.8376	0.856
4.87741	0.857
4.91722	0.859
4.95702	0.859
4.99683	0.861
5.03664	0.864
5.07645	0.862
5.11626	0.862
5.15607	0.857
5.19588	0.854
5.23568	0.851
5.27549	0.842
5.3153	0.842
5.35511	0.836
5.39492	0.836
5.43473	0.844
5.47454	0.862
5.51434	0.867
5.55415	0.874
5.59396	0.877
5.63377	0.877
5.67358	0.882
5.71339	0.889
5.75319	0.896
5.793	0.896
5.83281	0.903
5.87262	0.903
5.91243	0.909
5.95224	0.901
5.99205	0.903
6.03185	0.906
6.07166	0.906
6.11147	0.904
6.15128	0.901
6.19109	0.901
6.2309	0.911
6.27071	0.913
6.31051	0.913
6.35032	0.911
6.39013	0.908
6.42994	0.903
6.46975	0.901
6.50956	0.901
6.54937	0.892
6.58917	0.901
6.62898	0.909
6.66879	0.909
6.7086	0.901
6.74841	0.891
6.78822	0.844
6.82803	0.742
6.86783	0.715
6.90764	0.735
6.94745	0.809
6.98726	0.851
7.02707	0.876
7.06688	0.882
7.10669	0.901
7.14649	0.903
7.1863	0.889
7.22611	0.831
7.26592	0.797
7.30573	0.832
7.34554	0.861
7.38535	0.881
7.42515	0.891
7.46496	0.889
7.50477	0.896
7.54458	0.899
7.58439	0.901
7.6242	0.901
7.66401	0.897
7.70381	0.897
7.74362	0.897
7.78343	0.899
7.82324	0.901
7.86305	0.899
7.90286	0.899
7.94266	0.897
7.98247	0.901
8.02228	0.899
8.06209	0.899
8.1019	0.901
8.14171	0.899
8.18152	0.901
8.22132	0.901
8.26113	0.897
8.30094	0.894
8.34075	0.894
8.38056	0.892
8.42037	0.891
8.46018	0.889
8.49998	0.889
8.53979	0.882
8.5796	0.877
8.61941	0.874
8.65922	0.871
8.69903	0.867
8.73884	0.864
8.77864	0.857
8.81845	0.854
8.85826	0.849
8.89807	0.851
8.93788	0.844
8.97769	0.832
9.0175	0.831
9.0573	0.827
9.09711	0.827
9.13692	0.824
9.17673	0.819
9.21654	0.814
9.25635	0.809
9.29616	0.804
9.33596	0.799
9.37577	0.79
9.41558	0.784
9.45539	0.77
9.4952	0.757
9.53501	0.74
9.57482	0.724
9.61462	0.692
9.65443	0.672
9.69424	0.622
9.73405	0.575
9.77386	0.493
9.81367	0.399
9.85348	0.322
9.89328	0.257
9.93309	0.21
9.9729	0.18
10.0127	0.147
10.0525	0.123
10.0923	0.115
10.1321	0.12
10.1719	0.142
10.2118	0.128
10.2516	0.108
10.2914	0.102
10.3312	0.095
10.371	0.091
10.4108	0.09
10.4506	0.118
10.4904	0.187
10.5302	0.26
10.57	0.354
10.6098	0.434
10.6496	0.356
10.6895	0.227
10.7293	0.209
10.7691	0.225
10.8089	0.295
10.8487	0.423
10.8885	0.501
10.9283	0.553
10.9681	0.598
11.0079	0.647
11.0477	0.677
11.0875	0.705
11.1273	0.722
11.1672	0.745
11.207	0.762
11.2468	0.774
11.2866	0.797
11.3264	0.811
11.3662	0.819
11.406	0.832
11.4458	0.837
11.4856	0.844
11.5254	0.837
11.5652	0.844
11.6051	0.851
11.6449	0.859
11.6847	0.862
11.7245	0.866
11.7643	0.872
11.8041	0.882
11.8439	0.896
11.8837	0.903
11.9235	0.904
11.9633	0.904
12.0031	0.908
12.0429	0.911
12.0828	0.914
12.1226	0.914
12.1624	0.916
12.2022	0.916
12.242	0.918
12.2818	0.918
12.3216	0.919
12.3614	0.921
12.4012	0.918
12.441	0.916
12.4808	0.921
12.5206	0.921
12.5605	0.919
12.6003	0.923
12.6401	0.926
12.6799	0.926
12.7197	0.929
12.7595	0.928
12.7993	0.929
12.8391	0.928
12.8789	0.928
12.9187	0.924
12.9585	0.921
12.9984	0.924
13.0382	0.921
13.078	0.919
13.1178	0.923
13.1576	0.918
13.1974	0.916
13.2372	0.916
13.277	0.916
13.3168	0.914
13.3566	0.916
13.3964	0.911
13.4362	0.911
13.4761	0.904
13.5159	0.908
13.5557	0.899
13.5955	0.903
13.6353	0.899
13.6751	0.894
13.7149	0.891
13.7547	0.884
13.7945	0.877
13.8343	0.874
13.8741	0.872
13.9139	0.867
13.9538	0.866
13.9936	0.867
14.0334	0.861
14.0732	0.857
14.113	0.854
14.1528	0.851
14.1926	0.851
14.2324	0.841
14.2722	0.836
14.312	0.831
14.3518	0.827
14.3916	0.822
14.4315	0.817
14.4713	0.811
14.5111	0.806
14.5509	0.802
14.5907	0.801
14.6305	0.799
14.6703	0.794
14.7101	0.789
14.7499	0.784
14.7897	0.774
14.8295	0.767
14.8694	0.764
14.9092	0.767
14.949	0.755
14.9888	0.749
15.0286	0.744
15.0684	0.737
15.1082	0.727
15.148	0.724
15.1878	0.717
15.2276	0.714
15.2674	0.71
15.3072	0.707
15.3471	0.7
15.3869	0.693
15.4267	0.69
15.4665	0.683
15.5063	0.68
15.5461	0.673
15.5859	0.67
15.6257	0.662
15.6655	0.647
15.7053	0.63
15.7451	0.613
15.7849	0.605
15.8248	0.6
15.8646	0.591
15.9044	0.593
15.9442	0.591
15.984	0.598
16.0238	0.602
