Infrared Spectrum: DIETHYLAMINE, HYDROCHLORIDE
Formula: C4 H12 Cl N
State: SOLID (KBr DISC)
Melting point: 228 C
Class: COBLENTZ III
Instrument: BECKMAN IR-9 (GRATING)
Instrument parameters: ORDER CHANGES: 670, 1200, 2000 CM^-^1
Sampling: TRANSMISSION
Resolution: 2
Origin: DOW CHEMICAL COMPANY
1/CM	TRANSMITTANCE
402	0.7314
411	0.7386
420	0.7811
429	0.8494
438	0.9134
447	0.9568
456	0.9859
465	1.0168
474	1.0386
483	1.0423
492	1.0361
501	1.0407
510	1.0457
519	1.0501
528	1.0546
537	1.058
546	1.0599
555	1.0612
564	1.0627
573	1.0646
582	1.0664
591	1.0677
600	1.0678
609	1.0678
618	1.068
627	1.0681
636	1.0683
645	1.0687
654	1.0703
663	1.0578
672	1.1041
681	1.1203
690	1.123
699	1.1232
708	1.1178
717	1.0961
726	1.0775
735	1.0666
744	1.0545
753	1.0348
762	1.0268
771	1.0178
780	0.9994
789	0.9427
798	0.7534
807	0.8368
816	0.9673
825	0.9897
834	0.992
843	0.9915
852	0.9899
861	0.9871
870	0.9818
879	0.9806
888	0.9814
897	0.9795
906	0.9721
915	0.961
924	0.955
933	0.9638
942	0.9668
951	0.9659
960	0.963
969	0.9583
978	0.9497
987	0.9409
996	0.9318
1005	0.9185
1014	0.898
1023	0.8615
1032	0.8135
1041	0.6385
1050	0.6871
1059	0.7335
1068	0.7704
1077	0.8192
1086	0.8581
1095	0.8808
1104	0.8917
1113	0.8988
1122	0.9016
1131	0.9094
1140	0.9178
1149	0.8739
1158	0.7281
1167	0.8643
1176	0.9098
1185	0.9202
1194	0.9204
1203	0.8956
1212	0.8723
1221	0.9041
1230	0.9062
1239	0.9061
1248	0.8978
1257	0.8989
1266	0.9009
1275	0.9031
1284	0.9048
1293	0.9044
1302	0.8958
1311	0.8825
1320	0.878
1329	0.8493
1338	0.8072
1347	0.8458
1356	0.8457
1365	0.8195
1374	0.6721
1383	0.7401
1392	0.5394
1401	0.7778
1410	0.8112
1419	0.8118
1428	0.785
1437	0.6639
1446	0.606
1455	0.5387
1464	0.5295
1473	0.6458
1482	0.6332
1491	0.7672
1500	0.7865
1509	0.7875
1518	0.7853
1527	0.7839
1536	0.7808
1545	0.783
1554	0.7908
1563	0.811
1572	0.808
1581	0.775
1590	0.7718
1599	0.784
1608	0.7928
1617	0.7897
1626	0.7839
1635	0.7745
1644	0.7588
1653	0.7507
1662	0.7818
1671	0.8128
1680	0.8316
1689	0.845
1698	0.848
1707	0.8494
1716	0.8518
1725	0.8568
1734	0.8633
1743	0.8698
1752	0.8777
1761	0.8827
1770	0.882
1779	0.8784
1788	0.8758
1797	0.8752
1806	0.8749
1815	0.8745
1824	0.8741
1833	0.8725
1842	0.8695
1851	0.8638
1860	0.8618
1869	0.8655
1878	0.8707
1887	0.8775
1896	0.8813
1905	0.8818
1914	0.886
1923	0.8883
1932	0.8889
1941	0.8895
1950	0.8901
1959	0.8907
1968	0.8913
1977	0.8918
1986	0.8933
1995	0.8927
2004	0.8828
2013	0.8814
2022	0.8824
2031	0.8823
2040	0.881
2049	0.8792
2058	0.8774
2067	0.8756
2076	0.8742
2085	0.8731
2094	0.8717
2103	0.8696
2112	0.8675
2121	0.8649
2130	0.862
2139	0.8612
2148	0.862
2157	0.8639
2166	0.865
2175	0.8651
2184	0.8645
2193	0.8636
2202	0.8627
2211	0.8616
2220	0.8583
2229	0.8533
2238	0.8471
2247	0.8402
2256	0.8378
2265	0.838
2274	0.8399
2283	0.8434
2292	0.8461
2301	0.8477
2310	0.8481
2319	0.8474
2328	0.8462
2337	0.8443
2346	0.8383
2355	0.8261
2364	0.8082
2373	0.654
2382	0.6382
2391	0.6861
2400	0.7297
2409	0.7451
2418	0.7576
2427	0.7636
2436	0.7617
2445	0.6928
2454	0.4912
2463	0.3676
2472	0.355
2481	0.4112
2490	0.5218
2499	0.6199
2508	0.6508
2517	0.6657
2526	0.6768
2535	0.6831
2544	0.6889
2553	0.7068
2562	0.7303
2571	0.7384
2580	0.739
2589	0.7318
2598	0.7201
2607	0.7097
2616	0.6988
2625	0.6861
2634	0.673
2643	0.6492
2652	0.6193
2661	0.5806
2670	0.5335
2679	0.4749
2688	0.4236
2697	0.3616
2706	0.309
2715	0.2804
2724	0.2588
2733	0.21
2742	0.1821
2751	0.1864
2760	0.1745
2769	0.1431
2778	0.1391
2787	0.2021
2796	0.2164
2805	0.1573
2814	0.1012
2823	0.0965
2832	0.1873
2841	0.2542
2850	0.2513
2859	0.2492
2868	0.2862
2877	0.3054
2886	0.3025
2895	0.2627
2904	0.2205
2913	0.2297
2922	0.2507
2931	0.2223
2940	0.1311
2949	0.0979
2958	0.0837
2967	0.0705
2976	0.0726
2985	0.1494
2994	0.1903
3003	0.2307
3012	0.2688
3021	0.3091
3030	0.3564
3039	0.4082
3048	0.459
3057	0.4899
3066	0.5218
3075	0.5519
3084	0.5782
3093	0.6007
3102	0.6174
3111	0.6365
3120	0.6542
3129	0.6655
3138	0.6694
3147	0.6699
3156	0.6704
3165	0.6721
3174	0.6747
3183	0.6819
3192	0.6931
3201	0.7018
3210	0.7051
3219	0.7075
3228	0.709
3237	0.7103
3246	0.7107
3255	0.7108
3264	0.7108
3273	0.7108
3282	0.7108
3291	0.7104
3300	0.7099
3309	0.7093
3318	0.7082
3327	0.7069
3336	0.7051
3345	0.7028
3354	0.7001
3363	0.6961
3372	0.6922
3381	0.6881
3390	0.684
3399	0.6808
3408	0.6786
3417	0.679
3426	0.6798
3435	0.6818
3444	0.6843
3453	0.6876
3462	0.6911
3471	0.6948
3480	0.6987
3489	0.7025
3498	0.7069
3507	0.7114
3516	0.7164
3525	0.7214
3534	0.7275
3543	0.7338
3552	0.7406
3561	0.7468
3570	0.7525
3579	0.7574
3588	0.7615
3597	0.7655
3606	0.7684
3615	0.7711
3624	0.7737
3633	0.7757
3642	0.7776
3651	0.7795
3660	0.7801
3669	0.7808
3678	0.7815
3687	0.7819
3696	0.7825
3705	0.783
3714	0.7832
3723	0.783
3732	0.7828
3741	0.7825
3750	0.7821
3759	0.7818
3768	0.7815
3777	0.7808
3786	0.7798
3795	0.7789
