Infrared Spectrum: Alpha,Alpha-DICHLOROPROPIONIC ACID, POTASSIUM SALT
Formula: C3 H3 Cl2 K O2
State: SOLID (MINERAL OIL MULL)
Class: COBLENTZ
Instrument: Not specified, most likely a prism, grating, or hybrid spectrometer.
Sampling: TRANSMISSION
Resolution: 4
Origin: DOW CHEMICAL COMPANY
MICROMETERS	TRANSMITTANCE
2.061	0.802
2.10196	0.807
2.14292	0.81
2.18387	0.814
2.22483	0.81
2.26579	0.804
2.30675	0.807
2.34771	0.814
2.38867	0.814
2.42962	0.814
2.47058	0.819
2.51154	0.821
2.5525	0.821
2.59346	0.822
2.63441	0.829
2.67537	0.809
2.71633	0.763
2.75729	0.638
2.79825	0.58
2.83921	0.505
2.88016	0.47
2.92112	0.48
2.96208	0.483
3.00304	0.516
3.044	0.538
3.08495	0.563
3.12591	0.604
3.16687	0.655
3.20783	0.684
3.24879	0.696
3.28975	0.686
3.3307	0.586
3.37166	0.281
3.41262	0.197
3.45358	0.311
3.49454	0.371
3.53549	0.72
3.57645	0.781
3.61741	0.802
3.65837	0.8
3.69933	0.812
3.74029	0.816
3.78124	0.822
3.8222	0.826
3.86316	0.831
3.90412	0.833
3.94508	0.839
3.98603	0.839
4.02699	0.846
4.06795	0.848
4.10891	0.851
4.14987	0.851
4.19083	0.833
4.23178	0.85
4.27274	0.868
4.3137	0.865
4.35466	0.863
4.39562	0.863
4.43657	0.863
4.47753	0.865
4.51849	0.863
4.55945	0.863
4.60041	0.863
4.64137	0.858
4.68232	0.856
4.72328	0.858
4.76424	0.862
4.8052	0.868
4.84616	0.865
4.88711	0.868
4.92807	0.87
4.96903	0.872
5.00999	0.877
5.05095	0.872
5.09191	0.875
5.13286	0.872
5.17382	0.875
5.21478	0.872
5.25574	0.877
5.2967	0.872
5.33765	0.872
5.37861	0.873
5.41957	0.872
5.46053	0.872
5.50149	0.863
5.54244	0.858
5.5834	0.846
5.62436	0.827
5.66532	0.804
5.70628	0.778
5.74724	0.758
5.78819	0.741
5.82915	0.706
5.87011	0.674
5.91107	0.613
5.95203	0.5
5.99298	0.385
6.03394	0.282
6.0749	0.226
6.11586	0.185
6.15682	0.165
6.19778	0.228
6.23873	0.344
6.27969	0.454
6.32065	0.548
6.36161	0.611
6.40257	0.671
6.44352	0.706
6.48448	0.729
6.52544	0.742
6.5664	0.752
6.60736	0.763
6.64832	0.77
6.68927	0.756
6.73023	0.715
6.77119	0.596
6.81215	0.468
6.85311	0.463
6.89406	0.488
6.93502	0.565
6.97598	0.7
7.01694	0.71
7.0579	0.708
7.09886	0.66
7.13981	0.594
7.18077	0.497
7.22173	0.332
7.26269	0.431
7.30365	0.374
7.3446	0.369
7.38556	0.533
7.42652	0.633
7.46748	0.701
7.50844	0.741
7.5494	0.73
7.59035	0.749
7.63131	0.756
7.67227	0.759
7.71323	0.766
7.75419	0.768
7.79514	0.77
7.8361	0.773
7.87706	0.778
7.91802	0.778
7.95898	0.778
7.99994	0.778
8.04089	0.775
8.08185	0.775
8.12281	0.776
8.16377	0.781
8.20473	0.781
8.24568	0.781
8.28664	0.787
8.3276	0.798
8.36856	0.807
8.40952	0.809
8.45048	0.809
8.49143	0.802
8.53239	0.798
8.57335	0.797
8.61431	0.798
8.65527	0.802
8.69622	0.8
8.73718	0.763
8.77814	0.752
8.8191	0.771
8.86006	0.787
8.90102	0.795
8.94197	0.798
8.98293	0.795
9.02389	0.783
9.06485	0.768
9.10581	0.746
9.14676	0.696
9.18772	0.626
9.22868	0.492
9.26964	0.413
9.3106	0.482
9.35156	0.487
9.39251	0.398
9.43347	0.546
9.47443	0.674
9.51539	0.737
9.55635	0.775
9.5973	0.781
9.63826	0.792
9.67922	0.798
9.72018	0.802
9.76114	0.807
9.8021	0.812
9.84305	0.812
9.88401	0.819
9.92497	0.819
9.96593	0.819
10.0069	0.812
10.0478	0.802
10.0888	0.804
10.1298	0.809
10.1707	0.814
10.2117	0.816
10.2526	0.812
10.2936	0.81
10.3346	0.819
10.3755	0.821
10.4165	0.821
10.4574	0.822
10.4984	0.822
10.5393	0.826
10.5803	0.826
10.6213	0.827
10.6622	0.827
10.7032	0.827
10.7441	0.829
10.7851	0.831
10.826	0.833
10.867	0.833
10.908	0.833
10.9489	0.838
10.9899	0.838
11.0308	0.838
11.0718	0.834
11.1128	0.829
11.1537	0.821
11.1947	0.81
11.2356	0.788
11.2766	0.763
11.3175	0.746
11.3585	0.72
11.3995	0.715
11.4404	0.747
11.4814	0.78
11.5223	0.8
11.5633	0.81
11.6043	0.814
11.6452	0.814
11.6862	0.814
11.7271	0.809
11.7681	0.8
11.809	0.795
11.85	0.797
11.891	0.798
11.9319	0.798
11.9729	0.792
12.0138	0.788
12.0548	0.78
12.0958	0.761
12.1367	0.744
12.1777	0.732
12.2186	0.752
12.2596	0.759
12.3005	0.758
12.3415	0.742
12.3825	0.708
12.4234	0.654
12.4644	0.686
12.5053	0.739
12.5463	0.752
12.5873	0.758
12.6282	0.752
12.6692	0.751
12.7101	0.747
12.7511	0.744
12.792	0.741
12.833	0.734
12.874	0.724
12.9149	0.718
12.9559	0.713
12.9968	0.712
13.0378	0.705
13.0787	0.698
13.1197	0.691
13.1607	0.683
13.2016	0.674
13.2426	0.662
13.2835	0.652
13.3245	0.64
13.3655	0.626
13.4064	0.613
13.4474	0.599
13.4883	0.579
13.5293	0.558
13.5702	0.533
13.6112	0.502
13.6522	0.459
13.6931	0.415
13.7341	0.378
13.775	0.364
13.816	0.383
13.857	0.41
13.8979	0.431
13.9389	0.442
13.9798	0.451
14.0208	0.458
14.0617	0.456
14.1027	0.434
14.1437	0.402
14.1846	0.379
14.2256	0.374
14.2665	0.396
14.3075	0.425
14.3485	0.451
14.3894	0.468
14.4304	0.478
14.4713	0.482
14.5123	0.482
14.5532	0.482
14.5942	0.478
14.6352	0.473
14.6761	0.468
14.7171	0.463
14.758	0.458
14.799	0.451
14.84	0.448
14.8809	0.437
14.9219	0.429
14.9628	0.419
15.0038	0.402
15.0447	0.388
15.0857	0.374
15.1267	0.361
15.1676	0.349
15.2086	0.335
15.2495	0.321
15.2905	0.306
15.3314	0.294
15.3724	0.282
15.4134	0.274
15.4543	0.269
15.4953	0.267
15.5362	0.267
15.5772	0.272
15.6182	0.279
15.6591	0.286
15.7001	0.291
15.741	0.294
15.782	0.298
15.8229	0.299
