Infrared Spectrum: 2-(O-CHLOROPHENYL)BENZOXAZONE-4
Formula: C14 H10 N O2 Cl
State: SOLUTION (7% CHCl3)
Class: COBLENTZ
Instrument: Not specified, most likely a prism, grating, or hybrid spectrometer.
Sampling: TRANSMISSION
Path length: 0.009 CM
Resolution: 4
MICROMETERS	TRANSMITTANCE
2.031	0.982
2.06688	0.982
2.10277	0.975
2.13865	0.971
2.17454	0.971
2.21042	0.973
2.24631	0.971
2.28219	0.971
2.31808	0.964
2.35396	0.966
2.38984	0.957
2.42573	0.954
2.46161	0.955
2.4975	0.955
2.53338	0.955
2.56927	0.955
2.60515	0.955
2.64104	0.954
2.67692	0.957
2.7128	0.95
2.74869	0.954
2.78457	0.955
2.82046	0.938
2.85634	0.918
2.89223	0.895
2.92811	0.646
2.964	0.826
2.99988	0.86
3.03576	0.849
3.07165	0.825
3.10753	0.8
3.14342	0.793
3.1793	0.818
3.21519	0.83
3.25107	0.787
3.28696	0.782
3.32284	0.692
3.35872	0.795
3.39461	0.858
3.43049	0.855
3.46638	0.851
3.50226	0.871
3.53815	0.892
3.57403	0.901
3.60991	0.908
3.6458	0.915
3.68168	0.92
3.71757	0.925
3.75345	0.927
3.78934	0.927
3.82522	0.925
3.86111	0.924
3.89699	0.924
3.93287	0.924
3.96876	0.92
4.00464	0.92
4.04053	0.918
4.07641	0.915
4.1123	0.913
4.14818	0.911
4.18407	0.913
4.21995	0.922
4.25583	0.927
4.29172	0.927
4.3276	0.924
4.36349	0.92
4.39937	0.925
4.43526	0.925
4.47114	0.927
4.50703	0.929
4.54291	0.929
4.57879	0.929
4.61468	0.927
4.65056	0.927
4.68645	0.929
4.72233	0.927
4.75822	0.922
4.7941	0.922
4.82999	0.922
4.86587	0.924
4.90175	0.922
4.93764	0.924
4.97352	0.925
5.00941	0.924
5.04529	0.92
5.08118	0.913
5.11706	0.901
5.15295	0.904
5.18883	0.893
5.22471	0.908
5.2606	0.911
5.29648	0.911
5.33237	0.915
5.36825	0.915
5.40414	0.908
5.44002	0.902
5.47591	0.901
5.51179	0.893
5.54767	0.899
5.58356	0.908
5.61944	0.901
5.65533	0.904
5.69121	0.901
5.7271	0.895
5.76298	0.869
5.79887	0.812
5.83475	0.708
5.87063	0.401
5.90652	0.079
5.9424	0.017
5.97829	0.072
6.01417	0.381
6.05006	0.609
6.08594	0.715
6.12183	0.734
6.15771	0.59
6.19359	0.323
6.22948	0.542
6.26536	0.644
6.30125	0.673
6.33713	0.643
6.37302	0.805
6.4089	0.86
6.44478	0.871
6.48067	0.876
6.51655	0.878
6.55244	0.867
6.58832	0.853
6.62421	0.837
6.66009	0.825
6.69598	0.756
6.73186	0.636
6.76774	0.388
6.80363	0.134
6.83951	0.151
6.8754	0.503
6.91128	0.383
6.94717	0.416
6.98305	0.284
7.01894	0.226
7.05482	0.461
7.0907	0.648
7.12659	0.71
7.16247	0.717
7.19836	0.671
7.23424	0.616
7.27013	0.563
7.30601	0.475
7.3419	0.57
7.37778	0.68
7.41366	0.678
7.44955	0.556
7.48543	0.372
7.52132	0.176
7.5572	0.259
7.59309	0.438
7.62897	0.586
7.66486	0.628
7.70074	0.742
7.73662	0.78
7.77251	0.793
7.80839	0.706
7.84428	0.68
7.88016	0.745
7.91605	0.793
7.95193	0.777
7.98782	0.734
8.0237	0.69
8.05958	0.701
8.09547	0.669
8.13135	0.604
8.16724	0.544
8.20312	0.54
8.23901	0.553
8.27489	0.561
8.31078	0.561
8.34666	0.646
8.38254	0.749
8.41843	0.798
8.45431	0.828
8.4902	0.853
8.52608	0.86
8.56197	0.862
8.59785	0.851
8.63374	0.807
8.66962	0.793
8.7055	0.742
8.74139	0.673
8.77727	0.556
8.81316	0.625
8.84904	0.659
8.88493	0.775
8.92081	0.8
8.9567	0.814
8.99258	0.802
9.02846	0.775
9.06435	0.731
9.10023	0.712
9.13612	0.712
9.172	0.687
9.20789	0.643
9.24377	0.625
9.27965	0.701
9.31554	0.752
9.35142	0.772
9.38731	0.784
9.42319	0.761
9.45908	0.681
9.49496	0.644
9.53085	0.731
9.56673	0.768
9.60261	0.717
9.6385	0.676
9.67438	0.703
9.71027	0.577
9.74615	0.542
9.78204	0.754
9.81792	0.807
9.85381	0.814
9.88969	0.779
9.92557	0.669
9.96146	0.664
9.99734	0.68
10.0332	0.692
10.0691	0.681
10.105	0.68
10.1409	0.685
10.1768	0.715
10.2127	0.749
10.2485	0.786
10.2844	0.823
10.3203	0.851
10.3562	0.863
10.3921	0.865
10.428	0.853
10.4638	0.814
10.4997	0.789
10.5356	0.798
10.5715	0.846
10.6074	0.869
10.6433	0.876
10.6791	0.879
10.715	0.883
10.7509	0.885
10.7868	0.885
10.8227	0.876
10.8586	0.874
10.8945	0.874
10.9303	0.874
10.9662	0.865
11.0021	0.853
11.038	0.839
11.0739	0.812
11.1098	0.782
11.1456	0.747
11.1815	0.704
11.2174	0.667
11.2533	0.673
11.2892	0.706
11.3251	0.765
11.361	0.798
11.3968	0.823
11.4327	0.848
11.4686	0.844
11.5045	0.84
11.5404	0.833
11.5763	0.819
11.6121	0.807
11.648	0.844
11.6839	0.849
11.7198	0.848
11.7557	0.844
11.7916	0.826
11.8274	0.766
11.8633	0.775
11.8992	0.8
11.9351	0.821
11.971	0.865
12.0069	0.874
12.0428	0.874
12.0786	0.871
12.1145	0.867
12.1504	0.862
12.1863	0.86
12.2222	0.86
12.2581	0.862
12.2939	0.862
12.3298	0.86
12.3657	0.855
12.4016	0.849
12.4375	0.849
12.4734	0.856
12.5093	0.855
12.5451	0.856
12.581	0.86
12.6169	0.865
12.6528	0.872
12.6887	0.872
12.7246	0.872
12.7604	0.871
12.7963	0.874
12.8322	0.874
12.8681	0.874
12.904	0.878
12.9399	0.881
12.9758	0.885
13.0116	0.885
13.0475	0.885
13.0834	0.885
13.1193	0.885
13.1552	0.885
13.1911	0.885
13.2269	0.885
13.2628	0.885
13.2987	0.885
13.3346	0.885
13.3705	0.883
13.4064	0.883
13.4422	0.885
13.4781	0.888
13.514	0.89
13.5499	0.892
13.5858	0.89
13.6217	0.883
13.6576	0.879
13.6934	0.876
13.7293	0.867
13.7652	0.849
13.8011	0.833
13.837	0.821
13.8729	0.782
13.9087	0.745
13.9446	0.726
13.9805	0.712
14.0164	0.713
14.0523	0.719
14.0882	0.72
14.1241	0.719
14.1599	0.706
14.1958	0.696
14.2317	0.687
14.2676	0.683
14.3035	0.685
14.3394	0.69
14.3752	0.685
14.4111	0.662
14.447	0.593
14.4829	0.57
14.5188	0.607
14.5547	0.657
14.5906	0.724
14.6264	0.754
14.6623	0.78
14.6982	0.787
14.7341	0.812
14.77	0.839
14.8059	0.844
14.8417	0.846
14.8776	0.846
14.9135	0.844
14.9494	0.839
14.9853	0.832
15.0212	0.796
15.057	0.765
15.0929	0.786
15.1288	0.807
15.1647	0.842
15.2006	0.86
15.2365	0.867
15.2724	0.867
15.3082	0.867
15.3441	0.867
15.38	0.869
15.4159	0.869
