Infrared Spectrum: N,N,N',N'-TETRAMETHYL-P-PHENYLENEDIAMINE DIHYDROCHLORIDE
Formula: C10 H18 Cl2 N2
State: SOLID (MINERAL OIL MULL)
Class: COBLENTZ
Instrument: Not specified, most likely a prism, grating, or hybrid spectrometer.
Sampling: TRANSMISSION
Resolution: 4
Origin: WYANDOTTE CHEMICALS CORP., WYANDOTTE, MICHIGAN, USA
MICROMETERS	TRANSMITTANCE
2.116	0.421
2.15696	0.421
2.19791	0.421
2.23887	0.421
2.27983	0.426
2.32078	0.443
2.36174	0.462
2.4027	0.479
2.44365	0.503
2.48461	0.522
2.52557	0.527
2.56652	0.549
2.60748	0.564
2.64844	0.585
2.6894	0.595
2.73035	0.598
2.77131	0.596
2.81227	0.591
2.85322	0.583
2.89418	0.576
2.93514	0.568
2.97609	0.522
3.01705	0.532
3.05801	0.561
3.09896	0.6
3.13992	0.571
3.18088	0.501
3.22183	0.459
3.26279	0.236
3.30375	0.074
3.3447	0.025
3.38566	0.027
3.42662	0.032
3.46757	0.03
3.50853	0.027
3.54949	0.25
3.59044	0.406
3.6314	0.43
3.67236	0.345
3.71331	0.268
3.75427	0.209
3.79523	0.158
3.83619	0.113
3.87714	0.1
3.9181	0.093
3.95906	0.074
4.00001	0.064
4.04097	0.057
4.08193	0.085
4.12288	0.045
4.16384	0.035
4.2048	0.034
4.24575	0.028
4.28671	0.044
4.32767	0.057
4.36862	0.049
4.40958	0.04
4.45054	0.039
4.49149	0.04
4.53245	0.049
4.57341	0.057
4.61436	0.071
4.65532	0.079
4.69628	0.112
4.73723	0.137
4.77819	0.156
4.81915	0.205
4.86011	0.238
4.90106	0.277
4.94202	0.295
4.98298	0.328
5.02393	0.355
5.06489	0.363
5.10585	0.377
5.1468	0.414
5.18776	0.399
5.22872	0.435
5.26967	0.476
5.31063	0.488
5.35159	0.508
5.39254	0.511
5.4335	0.493
5.47446	0.51
5.51541	0.489
5.55637	0.522
5.59733	0.549
5.63828	0.539
5.67924	0.564
5.7202	0.557
5.76115	0.573
5.80211	0.556
5.84307	0.549
5.88402	0.527
5.92498	0.547
5.96594	0.574
6.0069	0.566
6.04785	0.615
6.08881	0.619
6.12977	0.602
6.17072	0.596
6.21168	0.595
6.25264	0.603
6.29359	0.603
6.33455	0.608
6.37551	0.615
6.41646	0.539
6.45742	0.53
6.49838	0.421
6.53933	0.088
6.58029	0.034
6.62125	0.09
6.6622	0.137
6.70316	0.056
6.74412	0.039
6.78507	0.025
6.82603	0.034
6.86699	0.052
6.90794	0.178
6.9489	0.299
6.98986	0.234
7.03081	0.255
7.07177	0.355
7.11273	0.231
7.15369	0.272
7.19464	0.229
7.2356	0.117
7.27656	0.241
7.31751	0.348
7.35847	0.399
7.39943	0.418
7.44038	0.44
7.48134	0.469
7.5223	0.484
7.56325	0.493
7.60421	0.494
7.64517	0.467
7.68612	0.488
7.72708	0.535
7.76804	0.578
7.80899	0.6
7.84995	0.613
7.89091	0.634
7.93186	0.637
7.97282	0.617
8.01378	0.658
8.05473	0.692
8.09569	0.715
8.13665	0.732
8.17761	0.736
8.21856	0.736
8.25952	0.736
8.30048	0.67
8.34143	0.253
8.38239	0.173
8.42335	0.314
8.4643	0.501
8.50526	0.564
8.54622	0.562
8.58717	0.472
8.62813	0.268
8.66909	0.161
8.71004	0.056
8.751	0.26
8.79196	0.457
8.83291	0.554
8.87387	0.539
8.91483	0.215
8.95578	0.321
8.99674	0.5
9.0377	0.591
9.07865	0.622
9.11961	0.646
9.16057	0.658
9.20152	0.666
9.24248	0.668
9.28344	0.675
9.3244	0.658
9.36535	0.602
9.40631	0.664
9.44727	0.71
9.48822	0.702
9.52918	0.7
9.57014	0.69
9.61109	0.702
9.65205	0.71
9.69301	0.69
9.73396	0.568
9.77492	0.248
9.81588	0.465
9.85683	0.562
9.89779	0.556
9.93875	0.431
9.9797	0.163
10.0207	0.049
10.0616	0.173
10.1026	0.374
10.1435	0.484
10.1845	0.437
10.2254	0.477
10.2664	0.547
10.3074	0.608
10.3483	0.666
10.3893	0.705
10.4302	0.739
10.4712	0.763
10.5121	0.763
10.5531	0.753
10.5941	0.761
10.635	0.782
10.676	0.797
10.7169	0.816
10.7579	0.823
10.7988	0.836
10.8398	0.846
10.8808	0.846
10.9217	0.826
10.9627	0.78
11.0036	0.581
11.0446	0.153
11.0855	0.095
11.1265	0.311
11.1675	0.506
11.2084	0.619
11.2494	0.698
11.2903	0.751
11.3313	0.775
11.3722	0.795
11.4132	0.812
11.4541	0.816
11.4951	0.809
11.5361	0.78
11.577	0.715
11.618	0.573
11.6589	0.345
11.6999	0.134
11.7408	0.13
11.7818	0.321
11.8228	0.52
11.8637	0.632
11.9047	0.719
11.9456	0.772
11.9866	0.801
12.0275	0.831
12.0685	0.846
12.1095	0.863
12.1504	0.884
12.1914	0.892
12.2323	0.899
12.2733	0.908
12.3142	0.909
12.3552	0.914
12.3962	0.913
12.4371	0.916
12.4781	0.918
12.519	0.923
12.56	0.925
12.6009	0.926
12.6419	0.923
12.6829	0.923
12.7238	0.925
12.7648	0.918
12.8057	0.914
12.8467	0.914
12.8876	0.913
12.9286	0.909
12.9695	0.908
13.0105	0.908
13.0515	0.909
13.0924	0.916
13.1334	0.92
13.1743	0.914
13.2153	0.918
13.2562	0.914
13.2972	0.913
13.3382	0.911
13.3791	0.906
13.4201	0.899
13.461	0.884
13.502	0.865
13.5429	0.858
13.5839	0.843
13.6249	0.836
13.6658	0.833
13.7068	0.821
13.7477	0.811
13.7887	0.795
13.8296	0.772
13.8706	0.767
13.9116	0.787
13.9525	0.84
13.9935	0.882
14.0344	0.918
14.0754	0.93
14.1163	0.948
14.1573	0.95
14.1983	0.95
14.2392	0.937
14.2802	0.918
14.3211	0.899
14.3621	0.875
14.403	0.816
14.444	0.724
14.485	0.598
14.5259	0.488
14.5669	0.442
14.6078	0.498
14.6488	0.569
14.6897	0.636
14.7307	0.704
14.7716	0.729
14.8126	0.751
14.8536	0.758
14.8945	0.765
14.9355	0.763
14.9764	0.727
15.0174	0.651
15.0583	0.559
15.0993	0.556
15.1403	0.615
15.1812	0.67
15.2222	0.707
15.2631	0.704
15.3041	0.698
15.345	0.693
15.386	0.685
15.427	0.671
15.4679	0.654
15.5089	0.639
15.5498	0.63
15.5908	0.624
15.6317	0.607
15.6727	0.591
15.7137	0.571
15.7546	0.556
15.7956	0.549
15.8365	0.535
15.8775	0.518
15.9184	0.501
15.9594	0.484
