Infrared Spectrum: 2,2'-DITHIODIPYRIDINE-1,1'-DIOXIDE
Formula: C10 H8 N2 O2 S2
State: SOLID (MINERAL OIL MULL)
Class: COBLENTZ
Instrument: Not specified, most likely a prism, grating, or hybrid spectrometer.
Sampling: TRANSMISSION
Resolution: 4
Origin: WYANDOTTE CHEMICALS CORP., WYANDOTTE, MICHIGAN, USA
MICROMETERS	TRANSMITTANCE
2.019	0.381
2.0562	0.373
2.0934	0.367
2.1306	0.367
2.1678	0.365
2.205	0.362
2.2422	0.361
2.2794	0.361
2.3166	0.361
2.3538	0.362
2.391	0.365
2.4282	0.373
2.4654	0.37
2.5026	0.37
2.5398	0.376
2.577	0.381
2.6142	0.39
2.6514	0.409
2.6886	0.41
2.7258	0.41
2.763	0.409
2.8002	0.41
2.8374	0.407
2.8746	0.401
2.9118	0.398
2.949	0.393
2.9862	0.378
3.0234	0.379
3.0606	0.381
3.0978	0.39
3.135	0.393
3.1722	0.365
3.2094	0.334
3.2466	0.243
3.2838	0.209
3.321	0.182
3.3582	0.086
3.3954	0.046
3.4326	0.049
3.4698	0.054
3.507	0.072
3.5442	0.248
3.5814	0.387
3.6186	0.437
3.6558	0.449
3.693	0.44
3.7302	0.46
3.7674	0.466
3.8046	0.48
3.8418	0.494
3.879	0.502
3.9162	0.51
3.9534	0.52
3.9906	0.531
4.0278	0.524
4.065	0.497
4.1022	0.482
4.1394	0.503
4.1766	0.531
4.2138	0.542
4.251	0.516
4.2882	0.52
4.3254	0.53
4.3626	0.573
4.3998	0.598
4.437	0.593
4.4742	0.596
4.5114	0.587
4.5486	0.603
4.5858	0.607
4.623	0.61
4.6602	0.613
4.6974	0.618
4.7346	0.646
4.7718	0.649
4.809	0.652
4.8462	0.646
4.8834	0.631
4.9206	0.637
4.9578	0.648
4.995	0.662
5.0322	0.679
5.0694	0.654
5.1066	0.624
5.1438	0.638
5.181	0.658
5.2182	0.638
5.2554	0.672
5.2926	0.691
5.3298	0.691
5.367	0.685
5.4042	0.706
5.4414	0.693
5.4786	0.719
5.5158	0.737
5.553	0.717
5.5902	0.686
5.6274	0.71
5.6646	0.747
5.7018	0.722
5.739	0.747
5.7762	0.728
5.8134	0.697
5.8506	0.724
5.8878	0.747
5.925	0.742
5.9622	0.755
5.9994	0.776
6.0366	0.767
6.0738	0.751
6.111	0.71
6.1482	0.762
6.1854	0.818
6.2226	0.834
6.2598	0.708
6.297	0.815
6.3342	0.852
6.3714	0.778
6.4086	0.525
6.4458	0.621
6.483	0.747
6.5202	0.734
6.5574	0.823
6.5946	0.86
6.6318	0.893
6.669	0.862
6.7062	0.742
6.7434	0.362
6.7806	0.057
6.8178	0.054
6.855	0.113
6.8922	0.221
6.9294	0.333
6.9666	0.418
7.0038	0.184
7.041	0.161
7.0782	0.252
7.1154	0.297
7.1526	0.305
7.1898	0.302
7.227	0.274
7.2642	0.389
7.3014	0.499
7.3386	0.648
7.3758	0.697
7.413	0.744
7.4502	0.77
7.4874	0.818
7.5246	0.838
7.5618	0.857
7.599	0.869
7.6362	0.917
7.6734	0.937
7.7106	0.933
7.7478	0.962
7.785	0.959
7.8222	0.734
7.8594	0.353
7.8966	0.249
7.9338	0.246
7.971	0.189
8.0082	0.168
8.0454	0.241
8.0826	0.277
8.1198	0.179
8.157	0.178
8.1942	0.248
8.2314	0.248
8.2686	0.209
8.3058	0.306
8.343	0.427
8.3802	0.525
8.4174	0.603
8.4546	0.638
8.4918	0.671
8.529	0.68
8.5662	0.658
8.6034	0.612
8.6406	0.587
8.6778	0.565
8.715	0.564
8.7522	0.37
8.7894	0.299
8.8266	0.353
8.8638	0.474
8.901	0.525
8.9382	0.528
8.9754	0.555
9.0126	0.651
9.0498	0.686
9.087	0.733
9.1242	0.731
9.1614	0.539
9.1986	0.382
9.2358	0.342
9.273	0.489
9.3102	0.603
9.3474	0.657
9.3846	0.711
9.4218	0.759
9.459	0.787
9.4962	0.801
9.5334	0.736
9.5706	0.527
9.6078	0.454
9.645	0.548
9.6822	0.666
9.7194	0.744
9.7566	0.781
9.7938	0.835
9.831	0.862
9.8682	0.883
9.9054	0.899
9.9426	0.91
9.9798	0.897
10.017	0.877
10.0542	0.908
10.0914	0.939
10.1286	0.92
10.1658	0.928
10.203	0.955
10.2402	0.967
10.2774	0.975
10.3146	0.996
10.3518	1.003
10.389	1.004
10.4262	1.01
10.4634	1.007
10.5006	1.003
10.5378	0.993
10.575	1.012
10.6122	1.01
10.6494	0.989
10.6866	0.865
10.7238	0.894
10.761	1.012
10.7982	1.017
10.8354	1.015
10.8726	1.01
10.9098	1.007
10.947	0.996
10.9842	0.99
11.0214	0.998
11.0586	1
11.0958	0.998
11.133	0.992
11.1702	1.007
11.2074	1.006
11.2446	1.001
11.2818	0.996
11.319	0.998
11.3562	0.986
11.3934	0.986
11.4306	0.944
11.4678	0.936
11.505	0.885
11.5422	0.795
11.5794	0.703
11.6166	0.703
11.6538	0.846
11.691	0.95
11.7282	0.982
11.7654	0.981
11.8026	0.919
11.8398	0.803
11.877	0.517
11.9142	0.226
11.9514	0.137
11.9886	0.15
12.0258	0.266
12.063	0.4
12.1002	0.508
12.1374	0.598
12.1746	0.651
12.2118	0.702
12.249	0.733
12.2862	0.747
12.3234	0.759
12.3606	0.773
12.3978	0.798
12.435	0.818
12.4722	0.827
12.5094	0.834
12.5466	0.851
12.5838	0.86
12.621	0.869
12.6582	0.868
12.6954	0.868
12.7326	0.84
12.7698	0.795
12.807	0.724
12.8442	0.609
12.8814	0.466
12.9186	0.334
12.9558	0.224
12.993	0.145
13.0302	0.131
13.0674	0.13
13.1046	0.097
13.1418	0.1
13.179	0.139
13.2162	0.203
13.2534	0.288
13.2906	0.367
13.3278	0.455
13.365	0.52
13.4022	0.576
13.4394	0.617
13.4766	0.651
13.5138	0.68
13.551	0.699
13.5882	0.72
13.6254	0.742
13.6626	0.764
13.6998	0.792
13.737	0.81
13.7742	0.818
13.8114	0.841
13.8486	0.846
13.8858	0.862
13.923	0.872
13.9602	0.908
13.9974	0.93
14.0346	0.941
14.0718	0.93
14.109	0.82
14.1462	0.601
14.1834	0.458
14.2206	0.344
14.2578	0.249
14.295	0.212
14.3322	0.238
14.3694	0.331
14.4066	0.444
14.4438	0.55
14.481	0.615
14.5182	0.671
14.5554	0.711
14.5926	0.734
14.6298	0.758
14.667	0.764
14.7042	0.786
14.7414	0.789
14.7786	0.79
14.8158	0.789
14.853	0.779
14.8902	0.779
14.9274	0.782
14.9646	0.767
15.0018	0.724
15.039	0.657
15.0762	0.618
15.1134	0.648
15.1506	0.677
15.1878	0.702
15.225	0.716
15.2622	0.72
15.2994	0.717
15.3366	0.706
15.3738	0.688
15.411	0.675
15.4482	0.665
15.4854	0.655
15.5226	0.637
15.5598	0.629
15.597	0.613
15.6342	0.6
15.6714	0.581
15.7086	0.57
15.7458	0.548
15.783	0.53
15.8202	0.514
15.8574	0.499
15.8946	0.486
15.9318	0.471
15.969	0.458
