Infrared Spectrum: BUTYLAMINE HYDROFLUORIDE
Formula: C4 H12 F N
State: SOLID (OIL MULL)
Class: COBLENTZ III
Instrument: BAIRD (GRATING)
Instrument parameters: NaCl PRISM
Sampling: TRANSMISSION
Resolution: 2
Origin: WYANDOTTE CHEMICALS CORP.
1/CM	TRANSMITTANCE
3968.25	0.928
3959.34	0.9285
3950.43	0.9289
3941.51	0.929
3932.6	0.9291
3923.69	0.9293
3914.78	0.9293
3905.87	0.9294
3896.95	0.9291
3888.04	0.9286
3879.13	0.928
3870.22	0.9275
3861.3	0.9273
3852.39	0.9271
3843.48	0.9268
3834.57	0.9267
3825.66	0.9277
3816.74	0.9289
3807.83	0.9304
3798.92	0.9331
3790.01	0.9362
3781.1	0.9393
3772.18	0.9418
3763.27	0.9437
3754.36	0.9452
3745.45	0.9451
3736.54	0.9448
3727.62	0.9431
3718.71	0.9387
3709.8	0.9368
3700.89	0.9354
3691.98	0.9341
3683.06	0.9335
3674.15	0.933
3665.24	0.9324
3656.33	0.9319
3647.41	0.9314
3638.5	0.9307
3629.59	0.9297
3620.68	0.9287
3611.77	0.9275
3602.85	0.9266
3593.94	0.9252
3585.03	0.9228
3576.12	0.9199
3567.21	0.917
3558.29	0.9139
3549.38	0.9111
3540.47	0.9089
3531.56	0.9067
3522.65	0.9046
3513.73	0.9025
3504.82	0.9006
3495.91	0.8988
3487	0.8969
3478.09	0.8952
3469.17	0.8933
3460.26	0.8915
3451.35	0.8896
3442.44	0.8876
3433.52	0.8858
3424.61	0.8837
3415.7	0.8816
3406.79	0.8794
3397.88	0.8768
3388.96	0.8736
3380.05	0.8703
3371.14	0.8668
3362.23	0.8618
3353.32	0.855
3344.4	0.8473
3335.49	0.8387
3326.58	0.8285
3317.67	0.8175
3308.76	0.8035
3299.84	0.789
3290.93	0.7738
3282.02	0.7597
3273.11	0.7477
3264.19	0.7356
3255.28	0.7223
3246.37	0.7071
3237.46	0.69
3228.55	0.6697
3219.63	0.65
3210.72	0.6275
3201.81	0.6007
3192.9	0.5791
3183.99	0.5441
3175.07	0.5016
3166.16	0.4813
3157.25	0.4611
3148.34	0.4428
3139.43	0.4258
3130.51	0.3952
3121.6	0.3502
3112.69	0.3161
3103.78	0.2923
3094.87	0.2744
3085.95	0.2476
3077.04	0.2199
3068.13	0.192
3059.22	0.1634
3050.3	0.1352
3041.39	0.1202
3032.48	0.1103
3023.57	0.1024
3014.66	0.0935
3005.74	0.0842
2996.83	0.0748
2987.92	0.0642
2979.01	0.0528
2970.1	0.0435
2961.18	0.0359
2952.27	0.0318
2943.36	0.0299
2934.45	0.0314
2925.54	0.0326
2916.62	0.0339
2907.71	0.0351
2898.8	0.0363
2889.89	0.0372
2880.98	0.0381
2872.06	0.0393
2863.15	0.0411
2854.24	0.0438
2845.33	0.0492
2836.41	0.0586
2827.5	0.07
2818.59	0.084
2809.68	0.0946
2800.77	0.0997
2791.85	0.1027
2782.94	0.1049
2774.03	0.107
2765.12	0.1089
2756.21	0.1107
2747.29	0.1123
2738.38	0.114
2729.47	0.115
2720.56	0.116
2711.65	0.1163
2702.73	0.1167
2693.82	0.1153
2684.91	0.1093
2676	0.1031
2667.09	0.1042
2658.17	0.1088
2649.26	0.1143
2640.35	0.1184
2631.44	0.1209
2622.52	0.1194
2613.61	0.1139
2604.7	0.1076
2595.79	0.1022
2586.88	0.099
2577.96	0.0958
2569.05	0.0923
2560.14	0.0894
2551.23	0.0873
2542.32	0.0859
2533.4	0.0861
2524.49	0.0869
2515.58	0.0899
2506.67	0.093
2497.76	0.0954
2488.84	0.0972
2479.93	0.0994
2471.02	0.102
2462.11	0.1052
2453.19	0.1116
2444.28	0.1233
2435.37	0.1283
2426.46	0.1344
2417.55	0.1416
2408.63	0.1488
2399.72	0.1568
2390.81	0.1703
2381.9	0.1852
2372.99	0.1987
2364.07	0.2125
2355.16	0.2294
2346.25	0.2461
2337.34	0.2625
2328.43	0.2831
2319.51	0.3203
2310.6	0.3429
2301.69	0.3583
2292.78	0.3679
2283.87	0.3744
2274.95	0.3762
2266.04	0.3656
2257.13	0.3407
2248.22	0.3078
2239.3	0.2696
2230.39	0.221
2221.48	0.1793
2212.57	0.172
2203.66	0.1791
2194.74	0.2017
2185.83	0.2318
2176.92	0.2681
2168.01	0.2942
2159.1	0.3218
2150.18	0.3499
2141.27	0.3809
2132.36	0.4227
2123.45	0.4583
2114.54	0.4585
2105.62	0.47
2096.71	0.489
2087.8	0.5035
2078.89	0.5134
2069.98	0.526
2061.06	0.5395
2052.15	0.5523
2043.24	0.5594
2034.33	0.5613
2025.41	0.5648
2016.5	0.5712
2007.59	0.5876
1998.68	0.6079
1989.77	0.6162
1980.85	0.6076
1971.94	0.6128
1963.03	0.6445
1954.12	0.6689
1945.21	0.682
1936.29	0.6927
1927.38	0.7003
1918.47	0.6957
1909.56	0.6959
1900.65	0.7109
1891.73	0.7259
1882.82	0.7348
1873.91	0.7392
1865	0.7408
1856.08	0.74
1847.17	0.733
1838.26	0.7245
1829.35	0.7189
1820.44	0.7295
1811.52	0.7308
1802.61	0.7373
1793.7	0.7508
1784.79	0.7592
1775.88	0.7599
1766.96	0.7556
1758.05	0.741
1749.14	0.7234
1740.23	0.7204
1731.32	0.7133
1722.4	0.6991
1713.49	0.69
1704.58	0.6898
1695.67	0.6721
1686.76	0.6311
1677.84	0.5692
1668.93	0.4088
1660.02	0.2337
1651.11	0.284
1642.19	0.3642
1633.28	0.3952
1624.37	0.4159
1615.46	0.4349
1606.55	0.4504
1597.63	0.4408
1588.72	0.3301
1579.81	0.347
1570.9	0.4383
1561.99	0.471
1553.07	0.4722
1544.16	0.4593
1535.25	0.5007
1526.34	0.5288
1517.43	0.5465
1508.51	0.4674
1499.6	0.4601
1490.69	0.5197
1481.78	0.3688
1472.87	0.3808
1463.95	0.4218
1455.04	0.5643
1446.13	0.666
1437.22	0.7058
1428.3	0.7121
1419.39	0.6109
1410.48	0.5271
1401.57	0.6217
1392.66	0.6372
1383.74	0.5925
1374.83	0.7043
1365.92	0.7305
1357.01	0.687
1348.1	0.737
1339.18	0.7449
1330.27	0.7477
1321.36	0.7261
1312.45	0.6956
1303.54	0.7349
1294.62	0.7251
1285.71	0.7147
1276.8	0.7194
1267.89	0.736
1258.98	0.7461
1250.06	0.7371
1241.15	0.7283
1232.24	0.7208
1223.33	0.6903
1214.41	0.6401
1205.5	0.6286
1196.59	0.6441
1187.68	0.6667
1178.77	0.689
1169.85	0.7245
1160.94	0.7633
1152.03	0.7921
1143.12	0.8123
1134.21	0.8176
1125.29	0.8104
1116.38	0.8027
1107.47	0.7932
1098.56	0.7436
1089.65	0.6946
1080.73	0.6476
1071.82	0.6501
1062.91	0.7252
1054	0.7099
1045.08	0.6711
1036.17	0.6429
1027.26	0.6835
1018.35	0.6938
1009.44	0.7414
1000.52	0.7776
991.612	0.8021
982.7	0.8086
973.788	0.8028
964.876	0.7932
955.964	0.7988
947.052	0.7846
938.14	0.765
929.228	0.6508
920.316	0.6904
911.404	0.724
902.492	0.7856
893.579	0.7784
884.667	0.8271
875.755	0.8282
866.843	0.8444
857.931	0.8589
849.019	0.861
840.107	0.8582
831.195	0.8649
822.283	0.8601
813.371	0.8481
804.459	0.8052
795.546	0.7812
786.634	0.7734
777.722	0.7876
768.81	0.7815
759.898	0.7199
750.986	0.6567
742.074	0.4443
733.162	0.6177
724.25	0.7274
715.338	0.7521
706.426	0.776
697.513	0.7938
688.601	0.8034
679.689	0.7928
670.777	0.7791
661.865	0.703
652.953	0.7341
644.041	0.6912
635.129	0.6452
