Infrared Spectrum: CIS-3-CHLOROCROTONIC ACID
Formula: C4 H5 Cl O2
State: SOLUTION (10% CCl4 FOR 2.5-7.5, 10% CS2 FOR 7.5-15 MICRON)
Class: COBLENTZ
Instrument: Not specified, most likely a prism, grating, or hybrid spectrometer.
Sampling: TRANSMISSION
Path length: 0.01 CM, 0.01 CM
Resolution: 4
Origin: DOW CHEMICAL COMPANY
MICROMETERS	TRANSMITTANCE
2.042	0.9
2.08221	0.898
2.12242	0.895
2.16263	0.885
2.20283	0.878
2.24304	0.877
2.28325	0.88
2.32346	0.88
2.36367	0.88
2.40388	0.88
2.44409	0.88
2.4843	0.88
2.5245	0.882
2.56471	0.88
2.60492	0.883
2.64513	0.88
2.68534	0.878
2.72555	0.877
2.76576	0.855
2.80597	0.81
2.84617	0.799
2.88638	0.764
2.92659	0.698
2.9668	0.603
3.00701	0.507
3.04722	0.402
3.08743	0.291
3.12763	0.203
3.16784	0.149
3.20805	0.099
3.24826	0.081
3.28847	0.072
3.32868	0.071
3.36889	0.081
3.4091	0.081
3.4493	0.096
3.48951	0.111
3.52972	0.147
3.56993	0.223
3.61014	0.245
3.65035	0.215
3.69056	0.245
3.73077	0.271
3.77097	0.213
3.81118	0.225
3.85139	0.313
3.8916	0.286
3.93181	0.265
3.97202	0.427
4.01223	0.504
4.05243	0.519
4.09264	0.585
4.13285	0.626
4.17306	0.64
4.21327	0.641
4.25348	0.646
4.29369	0.681
4.3339	0.706
4.3741	0.726
4.41431	0.729
4.45452	0.741
4.49473	0.762
4.53494	0.776
4.57515	0.776
4.61536	0.766
4.65556	0.751
4.69577	0.744
4.73598	0.742
4.77619	0.749
4.8164	0.789
4.85661	0.789
4.89682	0.784
4.93703	0.777
4.97723	0.771
5.01744	0.771
5.05765	0.774
5.09786	0.769
5.13807	0.752
5.17828	0.739
5.21849	0.716
5.2587	0.698
5.2989	0.703
5.33911	0.714
5.37932	0.721
5.41953	0.713
5.45974	0.698
5.49995	0.688
5.54016	0.676
5.58036	0.671
5.62057	0.645
5.66078	0.615
5.70099	0.558
5.7412	0.412
5.78141	0.33
5.82162	0.182
5.86183	0.021
5.90203	0.014
5.94224	0.053
5.98245	0.19
6.02266	0.283
6.06287	0.162
6.10308	0.009
6.14329	0.028
6.1835	0.14
6.2237	0.313
6.26391	0.378
6.30412	0.399
6.34433	0.412
6.38454	0.399
6.42475	0.361
6.46496	0.378
6.50516	0.461
6.54537	0.51
6.58558	0.553
6.62579	0.592
6.666	0.62
6.70621	0.616
6.74642	0.593
6.78663	0.543
6.82683	0.477
6.86704	0.371
6.90725	0.197
6.94746	0.059
6.98767	0.024
7.02788	0.041
7.06809	0.096
7.1083	0.257
7.1485	0.426
7.18871	0.393
7.22892	0.213
7.26913	0.306
7.30934	0.525
7.34955	0.545
7.38976	0.514
7.42996	0.411
7.47017	0.273
7.51038	0.14
7.55059	0.063
7.5908	0.101
7.63101	0.265
7.67122	0.291
7.71143	0.145
7.75163	0.092
7.79184	0.192
7.83205	0.363
7.87226	0.451
7.91247	0.426
7.95268	0.31
7.99289	0.149
8.0331	0.003
8.0733	0.003
8.11351	0.026
8.15372	0.106
8.19393	0.253
8.23414	0.386
8.27435	0.489
8.31456	0.558
8.35476	0.611
8.39497	0.661
8.43518	0.683
8.47539	0.689
8.5156	0.698
8.55581	0.701
8.59602	0.711
8.63623	0.711
8.67643	0.688
8.71664	0.648
8.75685	0.641
8.79706	0.661
8.83727	0.666
8.87748	0.66
8.91769	0.628
8.95789	0.587
8.9981	0.512
9.03831	0.389
9.07852	0.205
9.11873	0.056
9.15894	0.024
9.19915	0.099
9.23936	0.258
9.27956	0.378
9.31977	0.537
9.35998	0.61
9.40019	0.653
9.4404	0.681
9.48061	0.693
9.52082	0.698
9.56103	0.698
9.60123	0.698
9.64144	0.698
9.68165	0.701
9.72186	0.704
9.76207	0.704
9.80228	0.696
9.84249	0.676
9.88269	0.65
9.9229	0.651
9.96311	0.678
10.0033	0.683
10.0435	0.689
10.0837	0.698
10.1239	0.698
10.1642	0.691
10.2044	0.681
10.2446	0.666
10.2848	0.645
10.325	0.623
10.3652	0.598
10.4054	0.563
10.4456	0.524
10.4858	0.48
10.526	0.432
10.5662	0.388
10.6065	0.326
10.6467	0.265
10.6869	0.222
10.7271	0.197
10.7673	0.169
10.8075	0.147
10.8477	0.131
10.8879	0.121
10.9281	0.112
10.9683	0.119
11.0085	0.149
11.0487	0.182
11.089	0.21
11.1292	0.232
11.1694	0.268
11.2096	0.286
11.2498	0.3
11.29	0.305
11.3302	0.3
11.3704	0.265
11.4106	0.213
11.4508	0.157
11.491	0.076
11.5313	0.028
11.5715	0.043
11.6117	0.137
11.6519	0.266
11.6921	0.354
11.7323	0.426
11.7725	0.477
11.8127	0.512
11.8529	0.557
11.8931	0.582
11.9333	0.611
11.9735	0.626
12.0138	0.638
12.054	0.645
12.0942	0.655
12.1344	0.66
12.1746	0.666
12.2148	0.669
12.255	0.669
12.2952	0.673
12.3354	0.676
12.3756	0.678
12.4158	0.681
12.4561	0.684
12.4963	0.689
12.5365	0.691
12.5767	0.694
12.6169	0.694
12.6571	0.698
12.6973	0.698
12.7375	0.696
12.7777	0.693
12.8179	0.689
12.8581	0.679
12.8983	0.671
12.9386	0.661
12.9788	0.655
13.019	0.655
13.0592	0.656
13.0994	0.661
13.1396	0.673
13.1798	0.686
13.22	0.693
13.2602	0.701
13.3004	0.709
13.3406	0.716
13.3809	0.718
13.4211	0.721
13.4613	0.718
13.5015	0.719
13.5417	0.718
13.5819	0.711
13.6221	0.703
13.6623	0.701
13.7025	0.694
13.7427	0.688
13.7829	0.674
13.8231	0.671
13.8634	0.669
13.9036	0.663
13.9438	0.663
13.984	0.66
14.0242	0.653
14.0644	0.655
14.1046	0.648
14.1448	0.643
14.185	0.636
14.2252	0.631
14.2654	0.626
14.3057	0.621
14.3459	0.611
14.3861	0.603
14.4263	0.593
14.4665	0.577
14.5067	0.558
14.5469	0.538
14.5871	0.504
14.6273	0.466
14.6675	0.414
14.7077	0.348
14.7479	0.238
14.7882	0.16
14.8284	0.081
14.8686	0.038
14.9088	0.013
14.949	0.018
14.9892	0.044
15.0294	0.076
15.0696	0.101
15.1098	0.14
15.15	0.184
15.1902	0.233
15.2305	0.268
15.2707	0.3
15.3109	0.323
15.3511	0.339
15.3913	0.353
15.4315	0.366
15.4717	0.376
15.5119	0.383
15.5521	0.384
15.5923	0.391
15.6325	0.398
15.6727	0.402
15.713	0.407
15.7532	0.409
15.7934	0.411
15.8336	0.411
15.8738	0.412
15.914	0.412
