Infrared Spectrum: COPPER SELENITE, DIHYDRATE
Formula: Cu Se O3  * 2 H2 O
State: SOLID (NUJOL MULL)
Class: COBLENTZ
Instrument: Not specified, most likely a prism, grating, or hybrid spectrometer.
Sampling: TRANSMISSION
Resolution: 4
Origin: MELLON INSTITUTE
MICROMETERS	TRANSMITTANCE
2.02	0.463
2.06084	0.476
2.10168	0.483
2.14252	0.49
2.18336	0.497
2.2242	0.5
2.26505	0.507
2.30589	0.514
2.34673	0.523
2.38757	0.53
2.42841	0.54
2.46925	0.554
2.51009	0.572
2.55093	0.59
2.59177	0.608
2.63261	0.634
2.67346	0.65
2.7143	0.658
2.75514	0.67
2.79598	0.675
2.83682	0.619
2.87766	0.602
2.9185	0.602
2.95934	0.605
3.00018	0.6
3.04102	0.586
3.08186	0.531
3.12271	0.48
3.16355	0.457
3.20439	0.44
3.24523	0.409
3.28607	0.344
3.32691	0.226
3.36775	0.097
3.40859	0.073
3.44943	0.065
3.49027	0.135
3.53112	0.229
3.57196	0.322
3.6128	0.377
3.65364	0.411
3.69448	0.444
3.73532	0.475
3.77616	0.504
3.817	0.533
3.85784	0.554
3.89868	0.569
3.93952	0.586
3.98037	0.602
4.02121	0.619
4.06205	0.632
4.10289	0.641
4.14373	0.648
4.18457	0.648
4.22541	0.644
4.26625	0.643
4.30709	0.641
4.34793	0.641
4.38878	0.643
4.42962	0.641
4.47046	0.641
4.5113	0.646
4.55214	0.651
4.59298	0.66
4.63382	0.667
4.67466	0.672
4.7155	0.679
4.75634	0.689
4.79718	0.699
4.83803	0.708
4.87887	0.716
4.91971	0.727
4.96055	0.742
5.00139	0.749
5.04223	0.761
5.08307	0.77
5.12391	0.775
5.16475	0.782
5.20559	0.79
5.24644	0.797
5.28728	0.799
5.32812	0.802
5.36896	0.804
5.4098	0.804
5.45064	0.804
5.49148	0.806
5.53232	0.811
5.57316	0.813
5.614	0.816
5.65485	0.819
5.69569	0.828
5.73653	0.842
5.77737	0.854
5.81821	0.864
5.85905	0.874
5.89989	0.878
5.94073	0.862
5.98157	0.806
6.02241	0.742
6.06325	0.751
6.1041	0.782
6.14494	0.804
6.18578	0.818
6.22662	0.825
6.26746	0.795
6.3083	0.753
6.34914	0.74
6.38998	0.739
6.43082	0.754
6.47166	0.77
6.51251	0.78
6.55335	0.789
6.59419	0.797
6.63503	0.804
6.67587	0.814
6.71671	0.79
6.75755	0.679
6.79839	0.531
6.83923	0.528
6.88007	0.615
6.92091	0.706
6.96176	0.799
7.0026	0.821
7.04344	0.85
7.08428	0.871
7.12512	0.866
7.16596	0.823
7.2068	0.711
7.24764	0.751
7.28848	0.802
7.32932	0.842
7.37017	0.871
7.41101	0.885
7.45185	0.898
7.49269	0.903
7.53353	0.91
7.57437	0.914
7.61521	0.915
7.65605	0.917
7.69689	0.919
7.73773	0.921
7.77857	0.924
7.81942	0.927
7.86026	0.931
7.9011	0.933
7.94194	0.934
7.98278	0.936
8.02362	0.938
8.06446	0.938
8.1053	0.939
8.14614	0.941
8.18698	0.943
8.22783	0.945
8.26867	0.945
8.30951	0.945
8.35035	0.945
8.39119	0.945
8.43203	0.941
8.47287	0.938
8.51371	0.931
8.55455	0.926
8.59539	0.921
8.63623	0.919
8.67708	0.917
8.71792	0.919
8.75876	0.917
8.7996	0.919
8.84044	0.919
8.88128	0.921
8.92212	0.921
8.96296	0.921
9.0038	0.919
9.04464	0.919
9.08549	0.921
9.12633	0.922
9.16717	0.924
9.20801	0.927
9.24885	0.929
9.28969	0.931
9.33053	0.933
9.37137	0.933
9.41221	0.934
9.45305	0.933
9.49389	0.933
9.53474	0.929
9.57558	0.924
9.61642	0.921
9.65726	0.917
9.6981	0.912
9.73894	0.912
9.77978	0.912
9.82062	0.912
9.86146	0.912
9.9023	0.912
9.94315	0.914
9.98399	0.914
10.0248	0.912
10.0657	0.91
10.1065	0.907
10.1474	0.902
10.1882	0.9
10.229	0.895
10.2699	0.886
10.3107	0.879
10.3516	0.866
10.3924	0.852
10.4332	0.84
10.4741	0.818
10.5149	0.787
10.5558	0.751
10.5966	0.722
10.6374	0.701
10.6783	0.686
10.7191	0.677
10.76	0.672
10.8008	0.67
10.8416	0.67
10.8825	0.67
10.9233	0.672
10.9642	0.675
11.005	0.679
11.0459	0.684
11.0867	0.691
11.1275	0.701
11.1684	0.713
11.2092	0.725
11.2501	0.737
11.2909	0.751
11.3317	0.761
11.3726	0.77
11.4134	0.778
11.4543	0.783
11.4951	0.79
11.5359	0.795
11.5768	0.799
11.6176	0.799
11.6585	0.801
11.6993	0.801
11.7401	0.802
11.781	0.802
11.8218	0.801
11.8627	0.795
11.9035	0.783
11.9444	0.771
11.9852	0.753
12.026	0.732
12.0669	0.708
12.1077	0.677
12.1486	0.65
12.1894	0.624
12.2302	0.598
12.2711	0.576
12.3119	0.56
12.3528	0.548
12.3936	0.531
12.4344	0.519
12.4753	0.502
12.5161	0.485
12.557	0.461
12.5978	0.433
12.6386	0.409
12.6795	0.384
12.7203	0.361
12.7612	0.337
12.802	0.317
12.8429	0.301
12.8837	0.295
12.9245	0.293
12.9654	0.293
13.0062	0.289
13.0471	0.289
13.0879	0.289
13.1287	0.291
13.1696	0.293
13.2104	0.293
13.2513	0.291
13.2921	0.289
13.3329	0.283
13.3738	0.276
13.4146	0.26
13.4555	0.245
13.4963	0.233
13.5371	0.219
13.578	0.207
13.6188	0.198
13.6597	0.186
13.7005	0.176
13.7414	0.168
13.7822	0.161
13.823	0.156
13.8639	0.152
13.9047	0.149
13.9456	0.149
13.9864	0.149
14.0272	0.149
14.0681	0.152
14.1089	0.161
14.1498	0.173
14.1906	0.185
14.2314	0.202
14.2723	0.222
14.3131	0.24
14.354	0.259
14.3948	0.279
14.4357	0.296
14.4765	0.31
14.5173	0.327
14.5582	0.339
14.599	0.349
14.6399	0.361
14.6807	0.372
14.7215	0.382
14.7624	0.392
14.8032	0.401
14.8441	0.408
14.8849	0.415
14.9257	0.418
14.9666	0.423
15.0074	0.427
15.0483	0.428
15.0891	0.432
15.1299	0.432
15.1708	0.435
15.2116	0.437
15.2525	0.439
15.2933	0.44
15.3342	0.44
15.375	0.442
15.4158	0.444
15.4567	0.445
15.4975	0.445
15.5384	0.445
15.5792	0.447
15.62	0.447
15.6609	0.449
15.7017	0.449
15.7426	0.451
15.7834	0.454
15.8242	0.454
15.8651	0.457
15.9059	0.459
15.9468	0.461
