Infrared Spectrum: ARGININE, MONOPICRATE
Formula: C12 H17 N7 O9
State: SOLID (KBr DISC)
Class: COBLENTZ III
Instrument: BECKMAN IR-4 (HYBRID PRISM-GRATING)
Sampling: TRANSMISSION
Resolution: 2
Origin: UNIVERSITY OF FLORIDA
1/CM	TRANSMITTANCE
668	0.8351
677	0.815
686	0.8061
695	0.7272
704	0.384
713	0.475
722	0.7266
731	0.6437
740	0.6189
749	0.4545
758	0.8023
767	0.8377
776	0.8381
785	0.7954
794	0.4324
803	0.8318
812	0.8672
821	0.8488
830	0.8389
839	0.8632
848	0.8772
857	0.8759
866	0.8659
875	0.8542
884	0.8418
893	0.8003
902	0.6457
911	0.3924
920	0.7414
929	0.7646
938	0.4418
947	0.7601
956	0.8285
965	0.8376
974	0.834
983	0.8303
992	0.821
1001	0.8066
1010	0.7999
1019	0.7904
1028	0.7759
1037	0.7613
1046	0.7472
1055	0.741
1064	0.7405
1073	0.6973
1082	0.4911
1091	0.632
1100	0.702
1109	0.7013
1118	0.6731
1127	0.6578
1136	0.6469
1145	0.5384
1154	0.3893
1163	0.4586
1172	0.5802
1181	0.5892
1190	0.59
1199	0.5576
1208	0.5014
1217	0.4719
1226	0.4328
1235	0.2987
1244	0.227
1253	0.1941
1262	0.132
1271	0.0507
1280	0.0271
1289	0.1714
1298	0.3847
1307	0.3893
1316	0.306
1325	0.181
1334	0.0813
1343	0.0237
1352	0.0285
1361	0.316
1370	0.2899
1379	0.2565
1388	0.499
1397	0.6183
1406	0.6504
1415	0.6486
1424	0.6257
1433	0.4988
1442	0.3172
1451	0.2984
1460	0.3922
1469	0.4463
1478	0.4512
1487	0.2785
1496	0.2013
1505	0.1879
1514	0.2132
1523	0.2533
1532	0.2729
1541	0.282
1550	0.2858
1559	0.2559
1568	0.1893
1577	0.1651
1586	0.2829
1595	0.3339
1604	0.2422
1613	0.1549
1622	0.1198
1631	0.0933
1640	0.0698
1649	0.0627
1658	0.0673
1667	0.0818
1676	0.0982
1685	0.152
1694	0.2539
1703	0.3042
1712	0.3809
1721	0.4177
1730	0.4399
1739	0.451
1748	0.4521
1757	0.4735
1766	0.5402
1775	0.607
1784	0.6797
1793	0.735
1802	0.7624
1811	0.7821
1820	0.793
1829	0.7991
1838	0.8029
1847	0.8054
1856	0.8066
1865	0.8006
1874	0.7891
1883	0.7815
1892	0.7851
1901	0.7922
1910	0.7959
1919	0.7976
1928	0.7982
1937	0.7976
1946	0.7966
1955	0.7952
1964	0.7931
1973	0.7898
1982	0.7865
1991	0.7825
2000	0.7804
2009	0.7799
2018	0.7824
2027	0.7841
2036	0.7835
2045	0.7823
2054	0.7816
2063	0.782
2072	0.783
2081	0.7847
2090	0.7867
2099	0.789
2108	0.7901
2117	0.7909
2126	0.7915
2135	0.7919
2144	0.7921
2153	0.792
2162	0.7916
2171	0.7909
2180	0.7899
2189	0.7887
2198	0.7869
2207	0.7852
2216	0.7827
2225	0.7797
2234	0.7767
2243	0.7723
2252	0.7678
2261	0.7622
2270	0.7589
2279	0.7583
2288	0.7578
2297	0.7573
2306	0.7567
2315	0.756
2324	0.7553
2333	0.7545
2342	0.7536
2351	0.7527
2360	0.7518
2369	0.7509
2378	0.7469
2387	0.7401
2396	0.7335
2405	0.7274
2414	0.7215
2423	0.7145
2432	0.7073
2441	0.7
2450	0.6908
2459	0.6838
2468	0.677
2477	0.6712
2486	0.6657
2495	0.6602
2504	0.6546
2513	0.6491
2522	0.6449
2531	0.6408
2540	0.6371
2549	0.6343
2558	0.6315
2567	0.6287
2576	0.6261
2585	0.6239
2594	0.6211
2603	0.6181
2612	0.6151
2621	0.612
2630	0.6087
2639	0.6055
2648	0.6019
2657	0.5977
2666	0.5937
2675	0.5896
2684	0.5856
2693	0.5817
2702	0.5778
2711	0.5736
2720	0.5687
2729	0.5639
2738	0.5589
2747	0.5533
2756	0.5478
2765	0.5421
2774	0.5352
2783	0.5283
2792	0.5203
2801	0.5107
2810	0.5007
2819	0.4895
2828	0.4786
2837	0.4668
2846	0.4506
2855	0.4349
2864	0.4197
2873	0.4072
2882	0.3969
2891	0.3875
2900	0.3771
2909	0.3644
2918	0.3541
2927	0.3446
2936	0.3378
2945	0.3319
2954	0.326
2963	0.3209
2972	0.3162
2981	0.3115
2990	0.3071
2999	0.3028
3008	0.2985
3017	0.295
3026	0.2926
3035	0.2903
3044	0.2883
3053	0.2862
3062	0.2831
3071	0.2789
3080	0.2692
3089	0.2549
3098	0.2453
3107	0.2449
3116	0.2461
3125	0.2496
3134	0.2539
3143	0.2571
3152	0.2573
3161	0.2564
3170	0.2537
3179	0.2505
3188	0.2471
3197	0.2431
3206	0.2393
3215	0.2369
3224	0.2376
3233	0.2386
3242	0.2394
3251	0.2407
3260	0.2417
3269	0.2423
3278	0.2431
3287	0.2432
3296	0.2426
3305	0.2413
3314	0.2393
3323	0.2363
3332	0.2308
3341	0.2257
3350	0.2212
3359	0.2172
3368	0.2133
3377	0.2091
3386	0.2049
3395	0.2013
3404	0.1993
3413	0.1982
3422	0.1985
3431	0.1991
3440	0.2
3449	0.2016
3458	0.2047
3467	0.2169
3476	0.2307
3485	0.2445
3494	0.2581
3503	0.2717
3512	0.2852
3521	0.2986
3530	0.3098
3539	0.318
3548	0.3259
3557	0.3338
3566	0.3424
3575	0.3522
3584	0.3668
3593	0.3815
3602	0.3923
3611	0.3995
3620	0.4077
3629	0.4194
3638	0.4398
3647	0.4516
3656	0.4619
3665	0.4731
3674	0.4843
3683	0.4957
3692	0.5063
3701	0.5159
3710	0.5245
3719	0.5325
3728	0.5404
3737	0.5487
3746	0.5558
3755	0.5601
3764	0.5637
3773	0.5667
3782	0.5697
3791	0.5736
3800	0.5791
3809	0.5847
3818	0.59
3827	0.5949
3836	0.5988
3845	0.6018
3854	0.6042
3863	0.6056
3872	0.6069
3881	0.6082
3890	0.6094
3899	0.6103
3908	0.611
3917	0.6117
3926	0.6125
3935	0.6131
3944	0.6137
3953	0.6144
3962	0.6151
3971	0.6157
3980	0.6163
3989	0.6169
3998	0.6175
