Infrared Spectrum: ACETAMIDINE, HYDROCHLORIDE
Formula: C2 H7 Cl N2
State: SOLID (SPLIT MULL)
Class: COBLENTZ III
Instrument: DOW KBr FOREPRISM-GRATING
Instrument parameters: BLAZED AT 3.5, 12.0, 20.0 MICRON AND CHANGED AT 5.0, 7.5, 14.9 MICRON
Sampling: TRANSMISSION
Resolution: 2
Origin: DOW CHEMICAL COMPANY
1/CM	TRANSMITTANCE
3820	0.8603
3811	0.861
3802	0.8618
3793	0.8627
3784	0.8636
3775	0.8647
3766	0.8658
3757	0.867
3748	0.8687
3739	0.8703
3730	0.872
3721	0.8735
3712	0.8748
3703	0.876
3694	0.8771
3685	0.8783
3676	0.8796
3667	0.8805
3658	0.8814
3649	0.8823
3640	0.8832
3631	0.8841
3622	0.8851
3613	0.8861
3604	0.8871
3595	0.8883
3586	0.8893
3577	0.8903
3568	0.8913
3559	0.8921
3550	0.8923
3541	0.8923
3532	0.8924
3523	0.892
3514	0.8916
3505	0.8908
3496	0.8892
3487	0.8875
3478	0.8845
3469	0.8806
3460	0.8762
3451	0.8706
3442	0.8583
3433	0.8448
3424	0.8176
3415	0.7848
3406	0.7398
3397	0.683
3388	0.6615
3379	0.6333
3370	0.5857
3361	0.4832
3352	0.4166
3343	0.3606
3334	0.3324
3325	0.304
3316	0.2908
3307	0.2794
3298	0.2681
3289	0.2511
3280	0.2329
3271	0.2084
3262	0.1939
3253	0.187
3244	0.1907
3235	0.2003
3226	0.2175
3217	0.2316
3208	0.2423
3199	0.2432
3190	0.245
3181	0.2489
3172	0.2523
3163	0.2523
3154	0.2488
3145	0.2416
3136	0.2346
3127	0.2263
3118	0.2116
3109	0.1886
3100	0.1534
3091	0.1306
3082	0.1089
3073	0.0943
3064	0.0931
3055	0.1359
3046	0.1885
3037	0.2431
3028	0.2746
3019	0.3027
3010	0.3289
3001	0.3742
2992	0.407
2983	0.4339
2974	0.4719
2965	0.4983
2956	0.5205
2947	0.541
2938	0.5683
2929	0.5921
2920	0.6112
2911	0.631
2902	0.6478
2893	0.6628
2884	0.6761
2875	0.6849
2866	0.695
2857	0.703
2848	0.7006
2839	0.6876
2830	0.6801
2821	0.6782
2812	0.69
2803	0.7025
2794	0.7094
2785	0.7086
2776	0.6968
2767	0.6961
2758	0.7105
2749	0.7187
2740	0.7237
2731	0.726
2722	0.7315
2713	0.7418
2704	0.754
2695	0.7633
2686	0.7697
2677	0.7761
2668	0.7768
2659	0.7728
2650	0.7694
2641	0.7722
2632	0.7765
2623	0.7807
2614	0.7849
2605	0.7887
2596	0.7924
2587	0.7964
2578	0.8008
2569	0.805
2560	0.8084
2551	0.8115
2542	0.8146
2533	0.8172
2524	0.8199
2515	0.8225
2506	0.825
2497	0.8262
2488	0.8274
2479	0.8288
2470	0.8314
2461	0.8341
2452	0.8345
2443	0.8314
2434	0.8311
2425	0.8346
2416	0.8381
2407	0.8398
2398	0.8403
2389	0.8408
2380	0.8413
2371	0.8417
2362	0.8424
2353	0.843
2344	0.8437
2335	0.8449
2326	0.8467
2317	0.8485
2308	0.8496
2299	0.8507
2290	0.8511
2281	0.8474
2272	0.8345
2263	0.8262
2254	0.8286
2245	0.8347
2236	0.8403
2227	0.8449
2218	0.8482
2209	0.8511
2200	0.8528
2191	0.8545
2182	0.856
2173	0.8571
2164	0.8575
2155	0.857
2146	0.8573
2137	0.8578
2128	0.8591
2119	0.8602
2110	0.8614
2101	0.8625
2092	0.8634
2083	0.8644
2074	0.8654
2065	0.866
2056	0.8665
2047	0.8668
2038	0.8678
2029	0.8696
2020	0.8714
2011	0.8721
2002	0.8694
1993	0.8671
1984	0.869
1975	0.8712
1966	0.8736
1957	0.8759
1948	0.8762
1939	0.8761
1930	0.8746
1921	0.8732
1912	0.8725
1903	0.8717
1894	0.8716
1885	0.872
1876	0.8724
1867	0.8725
1858	0.8724
1849	0.8725
1840	0.8744
1831	0.8759
1822	0.8764
1813	0.8737
1804	0.8727
1795	0.8717
1786	0.8699
1777	0.8677
1768	0.8666
1759	0.8637
1750	0.8558
1741	0.8586
1732	0.855
1723	0.8305
1714	0.7664
1705	0.4707
1696	0.2294
1687	0.0874
1678	0.1884
1669	0.5166
1660	0.6625
1651	0.7057
1642	0.7012
1633	0.6978
1624	0.7399
1615	0.7675
1606	0.7695
1597	0.7625
1588	0.7618
1579	0.7664
1570	0.7718
1561	0.7704
1552	0.7568
1543	0.7551
1534	0.7351
1525	0.6267
1516	0.4906
1507	0.5667
1498	0.6561
1489	0.6815
1480	0.6751
1471	0.6684
1462	0.6626
1453	0.6515
1444	0.6352
1435	0.568
1426	0.4768
1417	0.5586
1408	0.5932
1399	0.6264
1390	0.6486
1381	0.6022
1372	0.6472
1363	0.6644
1354	0.6778
1345	0.7038
1336	0.7303
1327	0.7355
1318	0.7394
1309	0.7511
1300	0.7611
1291	0.7708
1282	0.7818
1273	0.7937
1264	0.8032
1255	0.8103
1246	0.8169
1237	0.8217
1228	0.8252
1219	0.8283
1210	0.8304
1201	0.8323
1192	0.8339
1183	0.8355
1174	0.8368
1165	0.8349
1156	0.8304
1147	0.7987
1138	0.8293
1129	0.8384
1120	0.8408
1111	0.8212
1102	0.7775
1093	0.8275
1084	0.8357
1075	0.8383
1066	0.8358
1057	0.7981
1048	0.8453
1039	0.8524
1030	0.856
1021	0.8507
1012	0.8688
1003	0.8757
994	0.8794
985	0.8833
976	0.8874
967	0.8942
958	0.901
949	0.9056
940	0.9089
931	0.9107
922	0.9131
913	0.9161
904	0.9175
895	0.9141
886	0.9098
877	0.9055
868	0.8983
859	0.8902
850	0.8847
841	0.8791
832	0.8708
823	0.8613
814	0.8494
805	0.837
796	0.8069
787	0.754
778	0.6949
769	0.6207
760	0.452
751	0.3607
742	0.3054
733	0.2522
724	0.2635
715	0.5215
706	0.6076
697	0.6617
688	0.7306
679	0.7465
670	0.7507
661	0.7568
652	0.7699
643	0.7844
634	0.7978
625	0.8061
616	0.8134
607	0.8168
598	0.8244
589	0.8282
580	0.8305
571	0.8183
562	0.8245
553	0.8284
544	0.8136
535	0.7278
526	0.4245
517	0.7637
508	0.7956
499	0.7975
490	0.7924
481	0.7876
472	0.7835
463	0.7791
454	0.773
445	0.7139
436	0.7131
427	0.7821
418	0.7858
409	0.7904
400	0.7947
391	0.8042
382	0.8121
