Infrared Spectrum: 2-(2,2,4-TRIMETHYLPENTOXY)-3-(n-PENTYL) PYRAZINE
Formula: C17 H30 N2 O
State: LIQUID
Class: COBLENTZ
Instrument: Not specified, most likely a prism, grating, or hybrid spectrometer.
Sampling: TRANSMISSION
Path length: 0.003 CM
Resolution: 4
Origin: WYANDOTTE CHEMICALS CORP., WYANDOTTE, MICHIGAN, USA
MICROMETERS	TRANSMITTANCE
2.014	0.984
2.05489	0.979
2.09579	0.972
2.13668	0.96
2.17757	0.921
2.21847	0.907
2.25936	0.887
2.30026	0.902
2.34115	0.914
2.38204	0.914
2.42294	0.928
2.46383	0.923
2.50472	0.938
2.54562	0.94
2.58651	0.943
2.6274	0.953
2.6683	0.959
2.70919	0.955
2.75009	0.948
2.79098	0.93
2.83187	0.918
2.87277	0.906
2.91366	0.901
2.95455	0.88
2.99545	0.875
3.03634	0.873
3.07723	0.87
3.11813	0.832
3.15902	0.824
3.19991	0.829
3.24081	0.67
3.2817	0.631
3.3226	0.172
3.36349	0.059
3.40438	0.064
3.44528	0.073
3.48617	0.175
3.52706	0.501
3.56796	0.701
3.60885	0.767
3.64974	0.767
3.69064	0.779
3.73153	0.82
3.77243	0.832
3.81332	0.856
3.85421	0.865
3.89511	0.87
3.936	0.88
3.97689	0.899
4.01779	0.877
4.05868	0.868
4.09957	0.88
4.14047	0.889
4.18136	0.889
4.22226	0.89
4.26315	0.897
4.30404	0.894
4.34494	0.897
4.38583	0.911
4.42672	0.911
4.46762	0.914
4.50851	0.919
4.5494	0.916
4.5903	0.912
4.63119	0.911
4.67208	0.919
4.71298	0.918
4.75387	0.935
4.79477	0.941
4.83566	0.948
4.87655	0.948
4.91745	0.95
4.95834	0.933
4.99923	0.93
5.04013	0.933
5.08102	0.94
5.12191	0.935
5.16281	0.943
5.2037	0.935
5.2446	0.936
5.28549	0.921
5.32638	0.907
5.36728	0.94
5.40817	0.947
5.44906	0.948
5.48996	0.943
5.53085	0.931
5.57174	0.923
5.61264	0.88
5.65353	0.892
5.69443	0.928
5.73532	0.918
5.77621	0.887
5.81711	0.88
5.858	0.868
5.89889	0.832
5.93979	0.824
5.98068	0.822
6.02157	0.824
6.06247	0.822
6.10336	0.817
6.14425	0.819
6.18515	0.802
6.22604	0.755
6.26694	0.588
6.30783	0.609
6.34872	0.682
6.38962	0.486
6.43051	0.206
6.4714	0.131
6.5123	0.39
6.55319	0.643
6.59408	0.68
6.63498	0.668
6.67587	0.549
6.71677	0.221
6.75766	0.117
6.79855	0.095
6.83945	0.129
6.88034	0.151
6.92123	0.131
6.96213	0.066
7.00302	0.064
7.04391	0.063
7.08481	0.151
7.1257	0.269
7.1666	0.063
7.20749	0.063
7.24838	0.156
7.28928	0.098
7.33017	0.131
7.37106	0.081
7.41196	0.073
7.45285	0.08
7.49374	0.114
7.53464	0.1
7.57553	0.085
7.61642	0.11
7.65732	0.121
7.69821	0.139
7.73911	0.182
7.78	0.223
7.82089	0.283
7.86179	0.32
7.90268	0.39
7.94357	0.45
7.98447	0.373
8.02536	0.418
8.06625	0.493
8.10715	0.544
8.14804	0.569
8.18894	0.511
8.22983	0.387
8.27072	0.271
8.31162	0.341
8.35251	0.365
8.3934	0.296
8.4343	0.131
8.47519	0.08
8.51608	0.073
8.55698	0.08
8.59787	0.081
8.63877	0.122
8.67966	0.131
8.72055	0.15
8.76145	0.288
8.80234	0.433
8.84323	0.481
8.88413	0.501
8.92502	0.53
8.96591	0.522
9.00681	0.51
9.0477	0.489
9.0886	0.448
9.12949	0.43
9.17038	0.419
9.21128	0.43
9.25217	0.435
9.29306	0.44
9.33396	0.45
9.37485	0.433
9.41574	0.517
9.45664	0.6
9.49753	0.629
9.53842	0.6
9.57932	0.47
9.62021	0.372
9.66111	0.389
9.702	0.37
9.74289	0.25
9.78379	0.141
9.82468	0.11
9.86557	0.09
9.90647	0.09
9.94736	0.16
9.98825	0.249
10.0291	0.271
10.07	0.274
10.1109	0.293
10.1518	0.401
10.1927	0.477
10.2336	0.474
10.2745	0.44
10.3154	0.421
10.3563	0.46
10.3972	0.551
10.4381	0.619
10.479	0.651
10.5199	0.67
10.5608	0.692
10.6017	0.701
10.6426	0.687
10.6834	0.675
10.7243	0.699
10.7652	0.708
10.8061	0.665
10.847	0.633
10.8879	0.653
10.9288	0.682
10.9697	0.72
11.0106	0.709
11.0515	0.68
11.0924	0.65
11.1333	0.629
11.1742	0.648
11.2151	0.691
11.256	0.689
11.2969	0.674
11.3377	0.72
11.3786	0.735
11.4195	0.744
11.4604	0.711
11.5013	0.641
11.5422	0.549
11.5831	0.534
11.624	0.583
11.6649	0.629
11.7058	0.638
11.7467	0.602
11.7876	0.525
11.8285	0.435
11.8694	0.334
11.9103	0.254
11.9511	0.221
11.992	0.305
12.0329	0.481
12.0738	0.631
12.1147	0.713
12.1556	0.762
12.1965	0.795
12.2374	0.807
12.2783	0.82
12.3192	0.824
12.3601	0.834
12.401	0.831
12.4419	0.841
12.4828	0.841
12.5237	0.853
12.5646	0.849
12.6054	0.849
12.6463	0.839
12.6872	0.831
12.7281	0.819
12.769	0.812
12.8099	0.8
12.8508	0.8
12.8917	0.803
12.9326	0.791
12.9735	0.783
13.0144	0.771
13.0553	0.752
13.0962	0.74
13.1371	0.726
13.178	0.72
13.2188	0.715
13.2597	0.711
13.3006	0.711
13.3415	0.725
13.3824	0.721
13.4233	0.737
13.4642	0.733
13.5051	0.737
13.546	0.732
13.5869	0.73
13.6278	0.704
13.6687	0.692
13.7096	0.675
13.7505	0.66
13.7914	0.646
13.8323	0.651
13.8731	0.67
13.914	0.699
13.9549	0.728
13.9958	0.749
14.0367	0.766
14.0776	0.778
14.1185	0.796
14.1594	0.798
14.2003	0.803
14.2412	0.8
14.2821	0.793
14.323	0.798
14.3639	0.79
14.4048	0.788
14.4457	0.778
14.4866	0.771
14.5274	0.771
14.5683	0.762
14.6092	0.755
14.6501	0.757
14.691	0.745
14.7319	0.738
14.7728	0.728
14.8137	0.73
14.8546	0.715
14.8955	0.706
14.9364	0.699
14.9773	0.699
15.0182	0.679
15.0591	0.633
15.1	0.575
15.1408	0.578
15.1817	0.612
15.2226	0.629
15.2635	0.639
15.3044	0.645
15.3453	0.639
15.3862	0.629
15.4271	0.622
15.468	0.61
15.5089	0.602
15.5498	0.592
15.5907	0.59
15.6316	0.578
15.6725	0.568
15.7134	0.544
15.7543	0.54
15.7951	0.53
15.836	0.52
15.8769	0.513
15.9178	0.498
15.9587	0.488
