Infrared Spectrum: FERRIC OXALATE
Formula: Fe2 ( C2 O4)3  * 5 H2 O
State: SOLID (KBr DISC)
Class: COBLENTZ
Instrument: Not specified, most likely a prism, grating, or hybrid spectrometer.
Sampling: TRANSMISSION
Resolution: 4
MICROMETERS	TRANSMITTANCE
1.998	0.676
2.03591	0.676
2.07382	0.682
2.11174	0.691
2.14965	0.698
2.18756	0.71
2.22547	0.721
2.26338	0.734
2.3013	0.746
2.33921	0.756
2.37712	0.77
2.41503	0.78
2.45294	0.787
2.49085	0.796
2.52877	0.802
2.56668	0.808
2.60459	0.818
2.6425	0.836
2.68041	0.844
2.71833	0.856
2.75624	0.854
2.79415	0.698
2.83206	0.486
2.86997	0.415
2.90789	0.379
2.9458	0.353
2.98371	0.341
3.02162	0.357
3.05953	0.385
3.09744	0.403
3.13536	0.422
3.17327	0.436
3.21118	0.452
3.24909	0.461
3.287	0.476
3.32492	0.479
3.36283	0.492
3.40074	0.502
3.43865	0.517
3.47656	0.534
3.51448	0.551
3.55239	0.572
3.5903	0.591
3.62821	0.608
3.66612	0.624
3.70403	0.649
3.74195	0.661
3.77986	0.675
3.81777	0.689
3.85568	0.7
3.89359	0.713
3.93151	0.729
3.96942	0.747
4.00733	0.753
4.04524	0.765
4.08315	0.775
4.12107	0.778
4.15898	0.781
4.19689	0.789
4.2348	0.79
4.27271	0.789
4.31062	0.79
4.34854	0.798
4.38645	0.813
4.42436	0.826
4.46227	0.836
4.50018	0.847
4.5381	0.857
4.57601	0.866
4.61392	0.878
4.65183	0.884
4.68974	0.891
4.72766	0.9
4.76557	0.905
4.80348	0.912
4.84139	0.918
4.8793	0.924
4.91722	0.927
4.95513	0.931
4.99304	0.936
5.03095	0.937
5.06886	0.939
5.10677	0.933
5.14469	0.93
5.1826	0.93
5.22051	0.925
5.25842	0.919
5.29633	0.91
5.33425	0.905
5.37216	0.884
5.41007	0.872
5.44798	0.851
5.48589	0.823
5.52381	0.789
5.56172	0.761
5.59963	0.695
5.63754	0.642
5.67545	0.545
5.71336	0.427
5.75128	0.258
5.78919	0.241
5.8271	0.228
5.86501	0.225
5.90292	0.204
5.94084	0.167
5.97875	0.136
6.01666	0.132
6.05457	0.133
6.09248	0.142
6.1304	0.139
6.16831	0.129
6.20622	0.126
6.24413	0.148
6.28204	0.188
6.31995	0.232
6.35787	0.298
6.39578	0.336
6.43369	0.396
6.4716	0.424
6.50951	0.476
6.54743	0.507
6.58534	0.55
6.62325	0.563
6.66116	0.599
6.69907	0.615
6.73699	0.618
6.7749	0.615
6.81281	0.586
6.85072	0.568
6.88863	0.531
6.92655	0.517
6.96446	0.514
7.00237	0.516
7.04028	0.523
7.07819	0.532
7.1161	0.534
7.15402	0.534
7.19193	0.537
7.22984	0.554
7.26775	0.575
7.30566	0.586
7.34358	0.584
7.38149	0.551
7.4194	0.525
7.45731	0.554
7.49522	0.599
7.53314	0.59
7.57105	0.569
7.60896	0.553
7.64687	0.541
7.68478	0.528
7.72269	0.523
7.76061	0.507
7.79852	0.448
7.83643	0.39
7.87434	0.354
7.91225	0.351
7.95017	0.35
7.98808	0.366
8.02599	0.409
8.0639	0.446
8.10181	0.492
8.13973	0.525
8.17764	0.557
8.21555	0.59
8.25346	0.614
8.29137	0.639
8.32928	0.66
8.3672	0.673
8.40511	0.686
8.44302	0.698
8.48093	0.712
8.51884	0.719
8.55676	0.727
8.59467	0.734
8.63258	0.741
8.67049	0.747
8.7084	0.756
8.74632	0.764
8.78423	0.767
8.82214	0.771
8.86005	0.772
8.89796	0.775
8.93588	0.778
8.97379	0.78
9.0117	0.783
9.04961	0.787
9.08752	0.789
9.12543	0.789
9.16335	0.789
9.20126	0.79
9.23917	0.792
9.27708	0.793
9.31499	0.798
9.35291	0.804
9.39082	0.805
9.42873	0.808
9.46664	0.811
9.50455	0.816
9.54247	0.817
9.58038	0.82
9.61829	0.826
9.6562	0.826
9.69411	0.829
9.73202	0.832
9.76994	0.833
9.80785	0.836
9.84576	0.839
9.88367	0.842
9.92158	0.844
9.9595	0.847
9.99741	0.847
10.0353	0.847
10.0732	0.848
10.1111	0.85
10.1491	0.854
10.187	0.854
10.2249	0.856
10.2628	0.857
10.3007	0.859
10.3386	0.859
10.3765	0.86
10.4144	0.862
10.4524	0.862
10.4903	0.862
10.5282	0.862
10.5661	0.862
10.604	0.862
10.6419	0.862
10.6798	0.862
10.7177	0.854
10.7556	0.851
10.7936	0.841
10.8315	0.829
10.8694	0.816
10.9073	0.799
10.9452	0.789
10.9831	0.783
11.021	0.78
11.0589	0.778
11.0969	0.78
11.1348	0.78
11.1727	0.786
11.2106	0.79
11.2485	0.79
11.2864	0.792
11.3243	0.793
11.3622	0.792
11.4001	0.792
11.4381	0.792
11.476	0.79
11.5139	0.789
11.5518	0.783
11.5897	0.778
11.6276	0.777
11.6655	0.77
11.7034	0.762
11.7414	0.756
11.7793	0.747
11.8172	0.738
11.8551	0.734
11.893	0.731
11.9309	0.719
11.9688	0.709
12.0067	0.695
12.0446	0.678
12.0826	0.646
12.1205	0.624
12.1584	0.591
12.1963	0.56
12.2342	0.535
12.2721	0.51
12.31	0.491
12.3479	0.479
12.3859	0.471
12.4238	0.459
12.4617	0.454
12.4996	0.446
12.5375	0.443
12.5754	0.44
12.6133	0.44
12.6512	0.448
12.6892	0.47
12.7271	0.502
12.765	0.537
12.8029	0.563
12.8408	0.583
12.8787	0.6
12.9166	0.615
12.9545	0.618
12.9924	0.618
13.0304	0.614
13.0683	0.602
13.1062	0.58
13.1441	0.556
13.182	0.544
13.2199	0.544
13.2578	0.574
13.2957	0.617
13.3337	0.637
13.3716	0.649
13.4095	0.655
13.4474	0.658
13.4853	0.664
13.5232	0.666
13.5611	0.666
13.599	0.666
13.6369	0.666
13.6749	0.666
13.7128	0.667
13.7507	0.667
13.7886	0.666
13.8265	0.664
13.8644	0.664
13.9023	0.664
13.9402	0.663
13.9782	0.661
14.0161	0.66
14.054	0.66
14.0919	0.66
14.1298	0.66
14.1677	0.658
14.2056	0.657
14.2435	0.657
14.2815	0.657
14.3194	0.658
14.3573	0.658
14.3952	0.658
14.4331	0.66
14.471	0.66
14.5089	0.66
14.5468	0.66
14.5847	0.661
14.6227	0.661
14.6606	0.663
14.6985	0.666
14.7364	0.669
14.7743	0.669
14.8122	0.669
14.8501	0.669
14.888	0.669
14.926	0.672
