Infrared Spectrum: 2-Propanamine, 1-phenyl-, sulfate
Formula: C9 H15 N O4 S
State: SOLID (OIL MULL)
Class: COBLENTZ III
Instrument: PERKIN-ELMER 21 (GRATING)
Instrument parameters: NaCl PRISM
Sampling: TRANSMISSION
Resolution: 2
Origin: SMITH, KLINE & FRENCH LABS.
1/CM	TRANSMITTANCE
671	0.7145
680	0.7028
689	0.5653
698	0.2688
707	0.6508
716	0.691
725	0.6271
734	0.2787
743	0.4089
752	0.7101
761	0.7751
770	0.7886
779	0.7995
788	0.8129
797	0.8098
806	0.7947
815	0.79
824	0.7701
833	0.7554
842	0.7611
851	0.7519
860	0.7537
869	0.748
878	0.7349
887	0.7104
896	0.686
905	0.666
914	0.6527
923	0.6535
932	0.617
941	0.5973
950	0.565
959	0.5243
968	0.4781
977	0.4439
986	0.4457
995	0.3722
1004	0.3034
1013	0.2483
1022	0.194
1031	0.1618
1040	0.165
1049	0.0842
1058	0.1541
1067	0.1567
1076	0.0892
1085	0.1253
1094	0.1813
1103	0.2213
1112	0.2995
1121	0.3348
1130	0.3072
1139	0.2715
1148	0.2631
1157	0.3373
1166	0.4388
1175	0.5328
1184	0.6234
1193	0.659
1202	0.6553
1211	0.6336
1220	0.5378
1229	0.4374
1238	0.5695
1247	0.6374
1256	0.6249
1265	0.6805
1274	0.69
1283	0.699
1292	0.6833
1301	0.669
1310	0.6712
1319	0.6668
1328	0.6377
1337	0.5959
1346	0.5867
1355	0.5546
1364	0.2739
1373	0.1601
1382	0.1996
1391	0.3981
1400	0.6206
1409	0.6989
1418	0.6733
1427	0.6132
1436	0.3547
1445	0.1607
1454	0.0555
1463	0.0555
1472	0.201
1481	0.4477
1490	0.5914
1499	0.5679
1508	0.7072
1517	0.6859
1526	0.6501
1535	0.5773
1544	0.5546
1553	0.5481
1562	0.6223
1571	0.6747
1580	0.6914
1589	0.6815
1598	0.6669
1607	0.621
1616	0.5988
1625	0.5789
1634	0.5659
1643	0.5574
1652	0.6582
1661	0.6786
1670	0.7299
1679	0.7533
1688	0.773
1697	0.7809
1706	0.7793
1715	0.7897
1724	0.7935
1733	0.7939
1742	0.7888
1751	0.7863
1760	0.7885
1769	0.7941
1778	0.7939
1787	0.7937
1796	0.7945
1805	0.797
1814	0.798
1823	0.7971
1832	0.7956
1841	0.7941
1850	0.794
1859	0.7942
1868	0.785
1877	0.766
1886	0.7697
1895	0.7758
1904	0.7786
1913	0.7813
1922	0.7844
1931	0.7814
1940	0.7524
1949	0.7464
1958	0.7672
1967	0.7663
1976	0.7609
1985	0.7555
1994	0.75
2003	0.7447
2012	0.7391
2021	0.7337
2030	0.7287
2039	0.7238
2048	0.7189
2057	0.714
2066	0.7127
2075	0.7095
2084	0.6892
2093	0.6807
2102	0.6654
2111	0.6468
2120	0.6325
2129	0.6187
2138	0.6077
2147	0.5986
2156	0.5948
2165	0.5985
2174	0.6143
2183	0.6367
2192	0.6614
2201	0.6779
2210	0.6903
2219	0.7034
2228	0.7132
2237	0.7138
2246	0.7116
2255	0.7111
2264	0.7124
2273	0.7148
2282	0.7147
2291	0.7118
2300	0.7077
2309	0.7021
2318	0.696
2327	0.6897
2336	0.6816
2345	0.6687
2354	0.65
2363	0.6414
2372	0.6404
2381	0.6393
2390	0.638
2399	0.6343
2408	0.6289
2417	0.6223
2426	0.6199
2435	0.6137
2444	0.5974
2453	0.5781
2462	0.5587
2471	0.5511
2480	0.5441
2489	0.535
2498	0.4773
2507	0.4478
2516	0.4208
2525	0.3882
2534	0.3704
2543	0.3588
2552	0.35
2561	0.3443
2570	0.3452
2579	0.3483
2588	0.3495
2597	0.3386
2606	0.3181
2615	0.2994
2624	0.284
2633	0.2659
2642	0.265
2651	0.2669
2660	0.2724
2669	0.2756
2678	0.2755
2687	0.2708
2696	0.2559
2705	0.2368
2714	0.2227
2723	0.21
2732	0.204
2741	0.2013
2750	0.1998
2759	0.1984
2768	0.197
2777	0.1949
2786	0.1916
2795	0.1622
2804	0.0908
2813	0.065
2822	0.0436
2831	0.0265
2840	0.0157
2849	0.0116
2858	0.0104
2867	0.0091
2876	0.0091
2885	0.0092
2894	0.0096
2903	0.0126
2912	0.0168
2921	0.0176
2930	0.0177
2939	0.0177
2948	0.0181
2957	0.019
2966	0.0211
2975	0.0265
2984	0.054
2993	0.1102
3002	0.1333
3011	0.157
3020	0.1952
3029	0.2137
3038	0.2316
3047	0.2466
3056	0.2628
3065	0.2805
3074	0.2981
3083	0.3322
3092	0.3638
3101	0.3953
3110	0.4264
3119	0.4503
3128	0.4693
3137	0.496
3146	0.5171
3155	0.5318
3164	0.5406
3173	0.5484
3182	0.5566
3191	0.5665
3200	0.595
3209	0.6181
3218	0.6472
3227	0.6669
3236	0.6761
3245	0.6904
3254	0.6989
3263	0.7058
3272	0.7121
3281	0.7176
3290	0.7223
3299	0.7241
3308	0.7261
3317	0.7321
3326	0.7368
3335	0.7377
3344	0.7375
3353	0.7366
3362	0.7357
3371	0.7365
3380	0.7383
3389	0.7409
3398	0.7432
3407	0.7449
3416	0.7465
3425	0.7478
3434	0.7502
3443	0.7537
3452	0.7578
3461	0.7606
3470	0.7607
3479	0.76
3488	0.7593
3497	0.7586
3506	0.758
3515	0.7573
3524	0.7566
3533	0.7558
3542	0.7551
3551	0.7543
3560	0.7535
3569	0.7532
3578	0.7531
3587	0.7541
3596	0.756
3605	0.7581
3614	0.7605
3623	0.7613
3632	0.7609
3641	0.7605
3650	0.76
3659	0.7597
3668	0.7594
3677	0.7591
3686	0.7578
3695	0.7563
3704	0.7549
3713	0.7533
3722	0.7517
3731	0.7502
3740	0.7486
3749	0.7471
3758	0.7456
3767	0.744
3776	0.7426
3785	0.7412
3794	0.7398
3803	0.7386
3812	0.7379
3821	0.7373
3830	0.7372
3839	0.7372
3848	0.7373
3857	0.7373
3866	0.7373
3875	0.7375
3884	0.7379
3893	0.7383
3902	0.7386
3911	0.7388
3920	0.7387
3929	0.7387
3938	0.7385
3947	0.7375
3956	0.7362
3965	0.735
3974	0.733
3983	0.7306
3992	0.7284
