Infrared Spectrum: SODIUM TETRABORATE
Formula: Na2 B4 O7  * 10 H2 O
State: SOLID (NUJOL AND FLUOROLUBE MULLS)
Class: COBLENTZ
Instrument: Not specified, most likely a prism, grating, or hybrid spectrometer.
Sampling: TRANSMISSION
Resolution: 4
Origin: MELLON INSTITUTE
MICROMETERS	TRANSMITTANCE
2.042	0.919
2.08193	0.927
2.12185	0.932
2.16178	0.932
2.20171	0.936
2.24164	0.943
2.28156	0.949
2.32149	0.953
2.36142	0.954
2.40135	0.963
2.44127	0.963
2.4812	0.964
2.52113	0.969
2.56105	0.966
2.60098	0.968
2.64091	0.968
2.68084	0.963
2.72076	0.934
2.76069	0.785
2.80062	0.517
2.84055	0.319
2.88047	0.298
2.9204	0.246
2.96033	0.184
3.00026	0.184
3.04018	0.206
3.08011	0.241
3.12004	0.281
3.15996	0.324
3.19989	0.368
3.23982	0.417
3.27975	0.469
3.31967	0.517
3.3596	0.574
3.39953	0.633
3.43946	0.678
3.47938	0.711
3.51931	0.738
3.55924	0.763
3.59916	0.788
3.63909	0.819
3.67902	0.842
3.71895	0.849
3.75887	0.849
3.7988	0.849
3.83873	0.852
3.87866	0.864
3.91858	0.877
3.95851	0.881
3.99844	0.871
4.03836	0.862
4.07829	0.862
4.11822	0.869
4.15815	0.877
4.19807	0.886
4.238	0.882
4.27793	0.879
4.31786	0.876
4.35778	0.879
4.39771	0.886
4.43764	0.891
4.47757	0.894
4.51749	0.892
4.55742	0.894
4.59735	0.896
4.63727	0.901
4.6772	0.902
4.71713	0.906
4.75706	0.909
4.79698	0.914
4.83691	0.921
4.87684	0.922
4.91677	0.929
4.95669	0.932
4.99662	0.938
5.03655	0.941
5.07647	0.944
5.1164	0.946
5.15633	0.946
5.19626	0.948
5.23618	0.951
5.27611	0.954
5.31604	0.953
5.35597	0.954
5.39589	0.953
5.43582	0.948
5.47575	0.948
5.51567	0.944
5.5556	0.941
5.59553	0.939
5.63546	0.941
5.67538	0.941
5.71531	0.939
5.75524	0.934
5.79517	0.929
5.83509	0.897
5.87502	0.864
5.91495	0.772
5.95488	0.726
5.9948	0.706
6.03473	0.683
6.07466	0.683
6.11458	0.74
6.15451	0.837
6.19444	0.869
6.23437	0.886
6.27429	0.884
6.31422	0.876
6.35415	0.871
6.39408	0.847
6.434	0.839
6.47393	0.827
6.51386	0.809
6.55378	0.78
6.59371	0.715
6.63364	0.542
6.67357	0.44
6.71349	0.331
6.75342	0.311
6.79335	0.303
6.83328	0.294
6.8732	0.279
6.91313	0.249
6.95306	0.19
6.99299	0.154
7.03291	0.154
7.07284	0.17
7.11277	0.187
7.15269	0.204
7.19262	0.211
7.23255	0.206
7.27248	0.187
7.3124	0.152
7.35233	0.12
7.39226	0.112
7.43219	0.145
7.47211	0.201
7.51204	0.366
7.55197	0.497
7.59189	0.562
7.63182	0.591
7.67175	0.587
7.71168	0.554
7.7516	0.5
7.79153	0.455
7.83146	0.435
7.87139	0.43
7.91131	0.44
7.95124	0.435
7.99117	0.443
8.03109	0.475
8.07102	0.544
8.11095	0.576
8.15088	0.574
8.1908	0.581
8.23073	0.592
8.27066	0.597
8.31059	0.608
8.35051	0.611
8.39044	0.601
8.43037	0.566
8.4703	0.525
8.51022	0.499
8.55015	0.457
8.59008	0.42
8.63	0.383
8.66993	0.373
8.70986	0.351
8.74979	0.318
8.78971	0.286
8.82964	0.251
8.86957	0.237
8.9095	0.259
8.94942	0.318
8.98935	0.361
9.02928	0.383
9.0692	0.383
9.10913	0.375
9.14906	0.358
9.18899	0.341
9.22891	0.333
9.26884	0.328
9.30877	0.326
9.3487	0.328
9.38862	0.338
9.42855	0.361
9.46848	0.375
9.5084	0.373
9.54833	0.356
9.58826	0.328
9.62819	0.299
9.66811	0.271
9.70804	0.251
9.74797	0.234
9.7879	0.224
9.82782	0.216
9.86775	0.201
9.90768	0.179
9.94761	0.169
9.98753	0.165
10.0275	0.165
10.0674	0.175
10.1073	0.219
10.1472	0.283
10.1872	0.341
10.2271	0.437
10.267	0.489
10.307	0.546
10.3469	0.566
10.3868	0.567
10.4267	0.542
10.4667	0.494
10.5066	0.405
10.5465	0.34
10.5864	0.311
10.6264	0.313
10.6663	0.328
10.7062	0.373
10.7462	0.448
10.7861	0.522
10.826	0.556
10.8659	0.601
10.9059	0.636
10.9458	0.651
10.9857	0.664
11.0256	0.675
11.0656	0.685
11.1055	0.69
11.1454	0.691
11.1854	0.695
11.2253	0.696
11.2652	0.696
11.3051	0.696
11.3451	0.693
11.385	0.69
11.4249	0.685
11.4648	0.68
11.5048	0.673
11.5447	0.67
11.5846	0.663
11.6246	0.656
11.6645	0.651
11.7044	0.636
11.7443	0.616
11.7843	0.582
11.8242	0.53
11.8641	0.482
11.904	0.428
11.944	0.371
11.9839	0.304
12.0238	0.279
12.0638	0.259
12.1037	0.254
12.1436	0.256
12.1835	0.266
12.2235	0.281
12.2634	0.301
12.3033	0.328
12.3432	0.351
12.3832	0.376
12.4231	0.403
12.463	0.43
12.503	0.46
12.5429	0.482
12.5828	0.495
12.6227	0.517
12.6627	0.532
12.7026	0.544
12.7425	0.552
12.7824	0.556
12.8224	0.559
12.8623	0.559
12.9022	0.561
12.9422	0.564
12.9821	0.571
13.022	0.581
13.0619	0.586
13.1019	0.599
13.1418	0.609
13.1817	0.619
13.2216	0.638
13.2616	0.641
13.3015	0.646
13.3414	0.656
13.3814	0.659
13.4213	0.664
13.4612	0.67
13.5011	0.67
13.5411	0.671
13.581	0.668
13.6209	0.663
13.6608	0.658
13.7008	0.651
13.7407	0.639
13.7806	0.628
13.8206	0.619
13.8605	0.609
13.9004	0.594
13.9403	0.587
13.9803	0.581
14.0202	0.576
14.0601	0.571
14.1	0.569
14.14	0.571
14.1799	0.574
14.2198	0.577
14.2598	0.591
14.2997	0.596
14.3396	0.599
14.3795	0.604
14.4195	0.614
14.4594	0.618
14.4993	0.616
14.5392	0.623
14.5792	0.624
14.6191	0.623
14.659	0.618
14.699	0.614
14.7389	0.613
14.7788	0.609
14.8187	0.608
14.8587	0.608
14.8986	0.608
14.9385	0.611
14.9784	0.613
15.0184	0.613
15.0583	0.616
15.0982	0.618
15.1382	0.618
15.1781	0.619
15.218	0.623
15.2579	0.626
15.2979	0.628
15.3378	0.633
15.3777	0.636
15.4176	0.636
15.4576	0.638
15.4975	0.639
15.5374	0.643
15.5774	0.649
15.6173	0.651
15.6572	0.654
15.6971	0.658
15.7371	0.661
15.777	0.666
15.8169	0.671
15.8568	0.676
15.8968	0.68
15.9367	0.685
15.9766	0.688
