Infrared Spectrum: ZINC OXALATE
Formula: Zn C2 O4  * 2 H2 O
State: SOLID (KBr DISC)
Class: COBLENTZ
Instrument: Not specified, most likely a prism, grating, or hybrid spectrometer.
Sampling: TRANSMISSION
Resolution: 4
MICROMETERS	TRANSMITTANCE
1.996	0.903
2.03381	0.906
2.07163	0.907
2.10944	0.912
2.14726	0.916
2.18507	0.921
2.22289	0.922
2.2607	0.922
2.29852	0.925
2.33633	0.927
2.37415	0.928
2.41196	0.928
2.44978	0.93
2.48759	0.93
2.52541	0.93
2.56322	0.93
2.60104	0.93
2.63885	0.93
2.67667	0.93
2.71448	0.927
2.7523	0.9
2.79011	0.803
2.82792	0.625
2.86574	0.463
2.90355	0.325
2.94137	0.21
2.97918	0.151
3.017	0.254
3.05481	0.424
3.09263	0.517
3.13044	0.613
3.16826	0.668
3.20607	0.704
3.24389	0.735
3.2817	0.774
3.31952	0.823
3.35733	0.848
3.39515	0.855
3.43296	0.872
3.47078	0.894
3.50859	0.906
3.54641	0.912
3.58422	0.919
3.62204	0.924
3.65985	0.928
3.69766	0.936
3.73548	0.94
3.77329	0.943
3.81111	0.946
3.84892	0.946
3.88674	0.947
3.92455	0.949
3.96237	0.949
4.00018	0.95
4.038	0.949
4.07581	0.949
4.11363	0.949
4.15144	0.95
4.18926	0.95
4.22707	0.949
4.26489	0.947
4.3027	0.947
4.34052	0.95
4.37833	0.95
4.41615	0.95
4.45396	0.95
4.49177	0.95
4.52959	0.95
4.5674	0.949
4.60522	0.945
4.64303	0.942
4.68085	0.94
4.71866	0.939
4.75648	0.939
4.79429	0.939
4.83211	0.94
4.86992	0.94
4.90774	0.943
4.94555	0.945
4.98337	0.946
5.02118	0.949
5.059	0.947
5.09681	0.949
5.13463	0.943
5.17244	0.942
5.21026	0.942
5.24807	0.939
5.28589	0.939
5.3237	0.942
5.36151	0.942
5.39933	0.939
5.43714	0.94
5.47496	0.939
5.51277	0.933
5.55059	0.93
5.5884	0.928
5.62622	0.924
5.66403	0.909
5.70185	0.885
5.73966	0.86
5.77748	0.787
5.81529	0.726
5.85311	0.662
5.89092	0.606
5.92874	0.421
5.96655	0.297
6.00437	0.187
6.04218	0.135
6.08	0.086
6.11781	0.046
6.15562	0.038
6.19344	0.099
6.23125	0.3
6.26907	0.429
6.30688	0.526
6.3447	0.606
6.38251	0.664
6.42033	0.695
6.45814	0.731
6.49596	0.744
6.53377	0.78
6.57159	0.793
6.6094	0.809
6.64722	0.817
6.68503	0.824
6.72285	0.83
6.76066	0.833
6.79848	0.833
6.83629	0.833
6.87411	0.833
6.91192	0.824
6.94974	0.821
6.98755	0.817
7.02536	0.815
7.06318	0.814
7.10099	0.811
7.13881	0.814
7.17662	0.821
7.21444	0.82
7.25225	0.763
7.29007	0.597
7.32788	0.511
7.3657	0.58
7.40351	0.686
7.44133	0.711
7.47914	0.707
7.51696	0.609
7.55477	0.392
7.59259	0.343
7.6304	0.491
7.66822	0.671
7.70603	0.732
7.74385	0.787
7.78166	0.82
7.81947	0.842
7.85729	0.855
7.8951	0.867
7.93292	0.876
7.97073	0.881
8.00855	0.884
8.04636	0.885
8.08418	0.89
8.12199	0.894
8.15981	0.897
8.19762	0.897
8.23544	0.898
8.27325	0.901
8.31107	0.906
8.34888	0.909
8.3867	0.909
8.42451	0.909
8.46233	0.91
8.50014	0.91
8.53796	0.91
8.57577	0.91
8.61358	0.91
8.6514	0.912
8.68921	0.91
8.72703	0.912
8.76484	0.912
8.80266	0.912
8.84047	0.91
8.87829	0.909
8.9161	0.907
8.95392	0.907
8.99173	0.907
9.02955	0.909
9.06736	0.912
9.10518	0.915
9.14299	0.916
9.18081	0.922
9.21862	0.925
9.25644	0.925
9.29425	0.927
9.33207	0.927
9.36988	0.928
9.4077	0.928
9.44551	0.928
9.48332	0.931
9.52114	0.931
9.55895	0.93
9.59677	0.93
9.63458	0.93
9.6724	0.931
9.71021	0.931
9.74803	0.931
9.78584	0.931
9.82366	0.931
9.86147	0.933
9.89929	0.934
9.9371	0.936
9.97492	0.937
10.0127	0.939
10.0505	0.939
10.0884	0.939
10.1262	0.94
10.164	0.94
10.2018	0.939
10.2396	0.939
10.2774	0.94
10.3152	0.94
10.3531	0.94
10.3909	0.94
10.4287	0.942
10.4665	0.942
10.5043	0.942
10.5421	0.942
10.58	0.942
10.6178	0.942
10.6556	0.942
10.6934	0.94
10.7312	0.942
10.769	0.942
10.8068	0.942
10.8447	0.942
10.8825	0.942
10.9203	0.937
10.9581	0.934
10.9959	0.934
11.0337	0.936
11.0715	0.936
11.1094	0.936
11.1472	0.934
11.185	0.933
11.2228	0.931
11.2606	0.931
11.2984	0.93
11.3362	0.927
11.3741	0.922
11.4119	0.919
11.4497	0.919
11.4875	0.916
11.5253	0.909
11.5631	0.9
11.601	0.895
11.6388	0.887
11.6766	0.876
11.7144	0.86
11.7522	0.848
11.79	0.83
11.8278	0.805
11.8657	0.768
11.9035	0.732
11.9413	0.687
11.9791	0.649
12.0169	0.612
12.0547	0.588
12.0925	0.573
12.1304	0.567
12.1682	0.57
12.206	0.601
12.2438	0.635
12.2816	0.674
12.3194	0.701
12.3572	0.725
12.3951	0.734
12.4329	0.747
12.4707	0.753
12.5085	0.756
12.5463	0.756
12.5841	0.756
12.622	0.751
12.6598	0.747
12.6976	0.742
12.7354	0.742
12.7732	0.741
12.811	0.736
12.8488	0.734
12.8867	0.729
12.9245	0.723
12.9623	0.719
13.0001	0.713
13.0379	0.705
13.0757	0.702
13.1135	0.699
13.1514	0.696
13.1892	0.695
13.227	0.692
13.2648	0.69
13.3026	0.687
13.3404	0.689
13.3782	0.69
13.4161	0.692
13.4539	0.693
13.4917	0.693
13.5295	0.698
13.5673	0.702
13.6051	0.707
13.6429	0.711
13.6808	0.716
13.7186	0.72
13.7564	0.725
13.7942	0.729
13.832	0.734
13.8698	0.736
13.9077	0.741
13.9455	0.744
13.9833	0.747
14.0211	0.75
14.0589	0.751
14.0967	0.751
14.1345	0.753
14.1724	0.754
14.2102	0.756
14.248	0.759
14.2858	0.76
14.3236	0.762
14.3614	0.763
14.3992	0.765
14.4371	0.766
14.4749	0.766
14.5127	0.769
14.5505	0.771
14.5883	0.774
14.6261	0.778
14.6639	0.777
14.7018	0.777
14.7396	0.78
14.7774	0.781
14.8152	0.783
14.853	0.783
14.8908	0.781
