Infrared Spectrum: Calcium phosphate hydroxide
Formula: H2 O26 P6 Ca10
State: SOLID (1 mg / 100 mg, KBr DISC)
Class: COBLENTZ III
Instrument: BECKMAN IR-12 (GRATING)
Instrument parameters: GRATING
Sampling: TRANSMISSION
Resolution: 2
Origin: COLGATE-PALMOLIVE COMPANY (KELLENBACH)
1/CM	TRANSMITTANCE
203	0.1217
213	0.1095
223	0.0995
233	0.1021
243	0.1195
253	0.1434
263	0.1707
273	0.1505
283	0.1368
293	0.1283
303	0.1291
313	0.1472
323	0.2024
333	0.2266
343	0.2361
353	0.2381
363	0.2574
373	0.3357
383	0.4725
393	0.6127
403	0.6739
413	0.7361
423	0.7607
433	0.7729
443	0.787
453	0.7902
463	0.7823
473	0.7669
483	0.7583
493	0.7635
503	0.7751
513	0.7671
523	0.75
533	0.7167
543	0.6586
553	0.5056
563	0.2355
573	0.1697
583	0.3269
593	0.4148
603	0.2569
613	0.2455
623	0.4031
633	0.399
643	0.4587
653	0.5671
663	0.6757
673	0.7203
683	0.7587
693	0.7825
703	0.7981
713	0.8116
723	0.8222
733	0.831
743	0.838
753	0.8428
763	0.845
773	0.8471
783	0.8533
793	0.8573
803	0.8576
813	0.8495
823	0.837
833	0.8229
843	0.8158
853	0.8141
863	0.8144
873	0.8154
883	0.8199
893	0.8208
903	0.8183
913	0.8204
923	0.818
933	0.8092
943	0.7876
953	0.7276
963	0.6
973	0.6782
983	0.6415
993	0.5379
1003	0.3012
1013	0.0727
1023	0.0159
1033	0.0097
1043	0.0073
1053	0.0065
1063	0.0083
1073	0.0141
1083	0.0235
1093	0.0184
1103	0.0207
1113	0.0893
1123	0.2182
1133	0.3778
1143	0.5016
1153	0.5879
1163	0.6711
1173	0.7262
1183	0.7662
1193	0.7942
1203	0.8294
1213	0.8484
1223	0.8598
1233	0.8674
1243	0.876
1253	0.8839
1263	0.8912
1273	0.8966
1283	0.902
1293	0.9081
1303	0.9125
1313	0.9143
1323	0.9135
1333	0.9156
1343	0.9242
1353	0.9315
1363	0.9298
1373	0.929
1383	0.9293
1393	0.9252
1403	0.9205
1413	0.9151
1423	0.9147
1433	0.9186
1443	0.9164
1453	0.9028
1463	0.9108
1473	0.917
1483	0.9246
1493	0.9232
1503	0.927
1513	0.9237
1523	0.9174
1533	0.9171
1543	0.9124
1553	0.9213
1563	0.9201
1573	0.9214
1583	0.924
1593	0.9155
1603	0.9024
1613	0.8852
1623	0.862
1633	0.8434
1643	0.8443
1653	0.852
1663	0.8642
1673	0.8809
1683	0.8982
1693	0.906
1703	0.9125
1713	0.9225
1723	0.9281
1733	0.9293
1743	0.9289
1753	0.938
1763	0.954
1773	0.9493
1783	0.9553
1793	0.9485
1803	0.9465
1813	0.9461
1823	0.9472
1833	0.9491
1843	0.9537
1853	0.9574
1863	0.9582
1873	0.9558
1883	0.9529
1893	0.9512
1903	0.9501
1913	0.9493
1923	0.9479
1933	0.9462
1943	0.9448
1953	0.9457
1963	0.9398
1973	0.9289
1983	0.9179
1993	0.9056
2003	0.8884
2013	0.8873
2023	0.8872
2033	0.8867
2043	0.8862
2053	0.8852
2063	0.8825
2073	0.88
2083	0.8786
2093	0.8787
2103	0.879
2113	0.8792
2123	0.8795
2133	0.88
2143	0.8808
2153	0.8815
2163	0.8823
2173	0.8831
2183	0.8838
2193	0.8845
2203	0.885
2213	0.8854
2223	0.8858
2233	0.8861
2243	0.8863
2253	0.8865
2263	0.8851
2273	0.8821
2283	0.8776
2293	0.8712
2303	0.8621
2313	0.8523
2323	0.8464
2333	0.8465
2343	0.8464
2353	0.8478
2363	0.8557
2373	0.8706
2383	0.8747
2393	0.8766
2403	0.8781
2413	0.879
2423	0.8797
2433	0.8804
2443	0.8803
2453	0.8801
2463	0.88
2473	0.8798
2483	0.8794
2493	0.8788
2503	0.8782
2513	0.8776
2523	0.8769
2533	0.8762
2543	0.8752
2553	0.8743
2563	0.8733
2573	0.873
2583	0.8725
2593	0.8712
2603	0.8696
2613	0.8678
2623	0.8663
2633	0.8647
2643	0.8624
2653	0.8595
2663	0.8565
2673	0.8538
2683	0.8513
2693	0.849
2703	0.8491
2713	0.8491
2723	0.8476
2733	0.8455
2743	0.8431
2753	0.8412
2763	0.84
2773	0.8388
2783	0.8366
2793	0.8305
2803	0.8257
2813	0.8219
2823	0.8195
2833	0.817
2843	0.8168
2853	0.8161
2863	0.8125
2873	0.8084
2883	0.8045
2893	0.8007
2903	0.7971
2913	0.7935
2923	0.7901
2933	0.7868
2943	0.7835
2953	0.7805
2963	0.7789
2973	0.7774
2983	0.7774
2993	0.7776
3003	0.7765
3013	0.7747
3023	0.7707
3033	0.767
3043	0.7638
3053	0.7606
3063	0.7584
3073	0.7572
3083	0.7553
3093	0.7526
3103	0.749
3113	0.7453
3123	0.7413
3133	0.7365
3143	0.7326
3153	0.7308
3163	0.7282
3173	0.7239
3183	0.7184
3193	0.7133
3203	0.7081
3213	0.7027
3223	0.697
3233	0.6913
3243	0.6856
3253	0.6799
3263	0.6741
3273	0.6683
3283	0.6625
3293	0.6554
3303	0.648
3313	0.6405
3323	0.633
3333	0.6246
3343	0.6156
3353	0.6066
3363	0.6004
3373	0.5945
3383	0.5912
3393	0.5892
3403	0.5881
3413	0.5897
3423	0.5918
3433	0.5956
3443	0.6017
3453	0.6103
3463	0.6156
3473	0.6187
3483	0.6235
3493	0.633
3503	0.6456
3513	0.664
3523	0.673
3533	0.6816
3543	0.6691
3553	0.6514
3563	0.6926
3573	0.7474
3583	0.7774
3593	0.7913
3603	0.8079
3613	0.8264
3623	0.8434
3633	0.8606
3643	0.8844
3653	0.8829
3663	0.8818
3673	0.8925
3683	0.9029
3693	0.9023
3703	0.9017
3713	0.9
3723	0.8955
3733	0.8961
3743	0.8988
3753	0.9027
3763	0.9037
3773	0.9039
3783	0.9027
3793	0.9007
3803	0.8967
3813	0.8941
3823	0.8926
3833	0.8929
3843	0.8933
3853	0.8949
3863	0.897
3873	0.8992
3883	0.9025
3893	0.9044
3903	0.9033
3913	0.9012
3923	0.9036
3933	0.9051
3943	0.9046
3953	0.9044
3963	0.9042
3973	0.904
3983	0.9039
3993	0.9038
