Infrared Spectrum: METHANEARSONIC ACID, COPPER (II) SALT
Formula: C H3 As Cu O3
State: SOLID (KBr WAFER)
Melting point: 299-307 C (DECOMPOSE)
Class: COBLENTZ
Instrument: BECKMAN IR-4 (HYBRID PRISM-GRATING)
Sampling: TRANSMISSION
Resolution: 4
Origin: ANSUL CHEMICAL COMPANY, MARINETTE, WISCONSIN
MICROMETERS	TRANSMITTANCE
2.01	0.785
2.0449	0.795
2.0798	0.815
2.11469	0.822
2.14959	0.823
2.18449	0.808
2.21939	0.803
2.25428	0.8
2.28918	0.8
2.32408	0.791
2.35898	0.784
2.39387	0.78
2.42877	0.777
2.46367	0.765
2.49857	0.752
2.53347	0.726
2.56836	0.699
2.60326	0.67
2.63816	0.657
2.67306	0.6
2.70795	0.578
2.74285	0.518
2.77775	0.458
2.81265	0.41
2.84754	0.38
2.88244	0.37
2.91734	0.365
2.95224	0.382
2.98714	0.397
3.02203	0.418
3.05693	0.443
3.09183	0.458
3.12673	0.471
3.16162	0.504
3.19652	0.524
3.23142	0.548
3.26632	0.569
3.30121	0.581
3.33611	0.599
3.37101	0.627
3.40591	0.639
3.44081	0.651
3.4757	0.69
3.5106	0.707
3.5455	0.737
3.5804	0.759
3.61529	0.78
3.65019	0.8
3.68509	0.806
3.71999	0.822
3.75488	0.841
3.78978	0.846
3.82468	0.861
3.85958	0.871
3.89448	0.872
3.92937	0.878
3.96427	0.876
3.99917	0.873
4.03407	0.878
4.06896	0.878
4.10386	0.872
4.13876	0.871
4.17366	0.87
4.20856	0.87
4.24345	0.877
4.27835	0.89
4.31325	0.892
4.34815	0.891
4.38304	0.887
4.41794	0.883
4.45284	0.876
4.48774	0.872
4.52263	0.871
4.55753	0.867
4.59243	0.865
4.62733	0.863
4.66223	0.862
4.69712	0.858
4.73202	0.851
4.76692	0.847
4.80182	0.842
4.83671	0.841
4.87161	0.843
4.90651	0.842
4.94141	0.84
4.9763	0.836
5.0112	0.832
5.0461	0.831
5.081	0.831
5.1159	0.817
5.15079	0.817
5.18569	0.801
5.22059	0.799
5.25549	0.797
5.29038	0.801
5.32528	0.803
5.36018	0.803
5.39508	0.802
5.42997	0.803
5.46487	0.803
5.49977	0.8
5.53467	0.792
5.56957	0.789
5.60446	0.785
5.63936	0.777
5.67426	0.77
5.70916	0.751
5.74405	0.74
5.77895	0.732
5.81385	0.717
5.84875	0.7
5.88364	0.675
5.91854	0.661
5.95344	0.651
5.98834	0.64
6.02324	0.622
6.05813	0.619
6.09303	0.621
6.12793	0.625
6.16283	0.636
6.19772	0.649
6.23262	0.662
6.26752	0.68
6.30242	0.7
6.33731	0.714
6.37221	0.735
6.40711	0.75
6.44201	0.757
6.47691	0.766
6.5118	0.769
6.5467	0.774
6.5816	0.776
6.6165	0.777
6.65139	0.777
6.68629	0.779
6.72119	0.779
6.75609	0.775
6.79098	0.774
6.82588	0.77
6.86078	0.769
6.89568	0.766
6.93058	0.75
6.96547	0.737
7.00037	0.725
7.03527	0.712
7.07017	0.712
7.10506	0.727
7.13996	0.75
7.17486	0.769
7.20976	0.777
7.24465	0.781
7.27955	0.784
7.31445	0.784
7.34935	0.786
7.38425	0.786
7.41914	0.785
7.45404	0.786
7.48894	0.787
7.52384	0.789
7.55873	0.782
7.59363	0.779
7.62853	0.776
7.66343	0.764
7.69832	0.752
7.73322	0.742
7.76812	0.729
7.80302	0.717
7.83792	0.714
7.87281	0.716
7.90771	0.727
7.94261	0.739
7.97751	0.754
8.0124	0.761
8.0473	0.769
8.0822	0.772
8.1171	0.776
8.15199	0.779
8.18689	0.78
8.22179	0.784
8.25669	0.779
8.29159	0.775
8.32648	0.772
8.36138	0.774
8.39628	0.772
8.43118	0.772
8.46607	0.769
8.50097	0.762
8.53587	0.762
8.57077	0.756
8.60567	0.75
8.64056	0.741
8.67546	0.739
8.71036	0.737
8.74526	0.735
8.78015	0.73
8.81505	0.726
8.84995	0.725
8.88485	0.725
8.91974	0.722
8.95464	0.722
8.98954	0.727
9.02444	0.737
9.05934	0.74
9.09423	0.749
9.12913	0.75
9.16403	0.75
9.19893	0.749
9.23382	0.749
9.26872	0.747
9.30362	0.744
9.33852	0.746
9.37341	0.744
9.40831	0.744
9.44321	0.745
9.47811	0.744
9.51301	0.742
9.5479	0.74
9.5828	0.739
9.6177	0.739
9.6526	0.737
9.68749	0.739
9.72239	0.74
9.75729	0.737
9.79219	0.74
9.82708	0.739
9.86198	0.739
9.89688	0.739
9.93178	0.736
9.96668	0.736
10.0016	0.736
10.0365	0.734
10.0714	0.731
10.1063	0.73
10.1412	0.725
10.1761	0.722
10.211	0.719
10.2459	0.711
10.2808	0.707
10.3157	0.702
10.3505	0.7
10.3854	0.692
10.4203	0.689
10.4552	0.68
10.4901	0.672
10.525	0.669
10.5599	0.662
10.5948	0.651
10.6297	0.64
10.6646	0.63
10.6995	0.611
10.7344	0.593
10.7693	0.573
10.8042	0.55
10.8391	0.524
10.874	0.504
10.9089	0.473
10.9438	0.441
10.9787	0.411
11.0136	0.387
11.0485	0.358
11.0834	0.328
11.1183	0.299
11.1532	0.278
11.1881	0.257
11.223	0.233
11.2579	0.209
11.2928	0.193
11.3277	0.178
11.3626	0.168
11.3975	0.153
11.4324	0.151
11.4673	0.149
11.5022	0.142
11.5371	0.138
11.572	0.129
11.6069	0.128
11.6418	0.127
11.6767	0.124
11.7116	0.119
11.7465	0.117
11.7814	0.113
11.8163	0.112
11.8512	0.116
11.886	0.106
11.9209	0.103
11.9558	0.102
11.9907	0.102
12.0256	0.101
12.0605	0.099
12.0954	0.102
12.1303	0.102
12.1652	0.102
12.2001	0.102
12.235	0.102
12.2699	0.103
12.3048	0.108
12.3397	0.112
12.3746	0.116
12.4095	0.119
12.4444	0.124
12.4793	0.129
12.5142	0.133
12.5491	0.139
12.584	0.141
12.6189	0.143
12.6538	0.148
12.6887	0.154
12.7236	0.166
12.7585	0.171
12.7934	0.179
12.8283	0.191
12.8632	0.196
12.8981	0.203
12.933	0.21
12.9679	0.217
13.0028	0.22
13.0377	0.229
13.0726	0.232
13.1075	0.233
13.1424	0.239
13.1773	0.247
13.2122	0.253
13.2471	0.264
13.282	0.278
13.3169	0.299
13.3518	0.318
13.3866	0.332
13.4215	0.352
13.4564	0.369
13.4913	0.383
13.5262	0.4
13.5611	0.419
13.596	0.434
13.6309	0.443
13.6658	0.459
13.7007	0.47
13.7356	0.481
13.7705	0.489
13.8054	0.5
13.8403	0.505
13.8752	0.513
13.9101	0.521
13.945	0.53
13.9799	0.539
14.0148	0.545
14.0497	0.55
14.0846	0.553
14.1195	0.554
14.1544	0.56
14.1893	0.566
14.2242	0.574
14.2591	0.576
14.294	0.578
14.3289	0.581
14.3638	0.589
14.3987	0.595
14.4336	0.598
14.4685	0.6
14.5034	0.606
14.5383	0.609
14.5732	0.61
14.6081	0.611
14.643	0.619
14.6779	0.62
14.7128	0.62
14.7477	0.62
14.7826	0.621
14.8175	0.622
14.8524	0.621
14.8873	0.616
14.9221	0.611
14.957	0.611
14.9919	0.609
