Infrared Spectrum: 4,4'-BIS[7-(1-AMINO-8-HYDROXY-2,4-DISULFO)-NAPHTHYLAZO]-3,3'-BITOLYL TETRASODIUM SALT
Formula: C34 H24 N6 O14 S4 Na4
State: SOLID (MINERAL OIL MULL)
Class: COBLENTZ
Instrument: Not specified, most likely a prism, grating, or hybrid spectrometer.
Sampling: TRANSMISSION
Resolution: 4
Origin: WYANDOTTE CHEMICALS CORP., WYANDOTTE, MICHIGAN, USA
MICROMETERS	TRANSMITTANCE
2.019	0.33
2.05622	0.328
2.09343	0.337
2.13065	0.353
2.16786	0.358
2.20508	0.356
2.2423	0.353
2.27951	0.353
2.31673	0.356
2.35394	0.367
2.39116	0.378
2.42838	0.39
2.46559	0.392
2.50281	0.395
2.54002	0.403
2.57724	0.42
2.61446	0.429
2.65167	0.444
2.68889	0.423
2.7261	0.348
2.76332	0.279
2.80054	0.189
2.83775	0.161
2.87497	0.137
2.91218	0.128
2.9494	0.111
2.98662	0.113
3.02383	0.124
3.06105	0.134
3.09826	0.136
3.13548	0.133
3.1727	0.159
3.20991	0.176
3.24713	0.193
3.28434	0.178
3.32156	0.079
3.35877	0.029
3.39599	0.023
3.43321	0.031
3.47042	0.035
3.50764	0.051
3.54485	0.26
3.58207	0.39
3.61929	0.446
3.6565	0.443
3.69372	0.454
3.73093	0.468
3.76815	0.493
3.80537	0.5
3.84258	0.527
3.8798	0.547
3.91701	0.553
3.95423	0.575
3.99145	0.579
4.02866	0.598
4.06588	0.601
4.10309	0.609
4.14031	0.609
4.17753	0.613
4.21474	0.618
4.25196	0.581
4.28917	0.596
4.32639	0.618
4.36361	0.662
4.40082	0.68
4.43804	0.675
4.47525	0.668
4.51247	0.674
4.54969	0.674
4.5869	0.685
4.62412	0.689
4.66133	0.711
4.69855	0.725
4.73577	0.73
4.77298	0.742
4.8102	0.764
4.84741	0.765
4.88463	0.782
4.92185	0.8
4.95906	0.823
4.99628	0.821
5.03349	0.834
5.07071	0.863
5.10793	0.868
5.14514	0.879
5.18236	0.88
5.21957	0.897
5.25679	0.899
5.29401	0.916
5.33122	0.919
5.36844	0.917
5.40565	0.93
5.44287	0.924
5.48009	0.93
5.5173	0.959
5.55452	0.959
5.59173	0.964
5.62895	0.953
5.66617	0.956
5.70338	0.92
5.7406	0.911
5.77781	0.86
5.81503	0.796
5.85225	0.727
5.88946	0.686
5.92668	0.627
5.96389	0.579
6.00111	0.499
6.03832	0.465
6.07554	0.406
6.11276	0.306
6.14997	0.316
6.18719	0.325
6.2244	0.303
6.26162	0.212
6.29884	0.168
6.33605	0.133
6.37327	0.187
6.41048	0.201
6.4477	0.249
6.48492	0.33
6.52213	0.339
6.55935	0.28
6.59656	0.17
6.63378	0.111
6.671	0.106
6.70821	0.12
6.74543	0.086
6.78264	0.044
6.81986	0.049
6.85708	0.062
6.89429	0.117
6.93151	0.159
6.96872	0.156
7.00594	0.141
7.04316	0.145
7.08037	0.179
7.11759	0.221
7.1548	0.271
7.19202	0.181
7.22924	0.127
7.26645	0.251
7.30367	0.33
7.34088	0.482
7.3781	0.491
7.41532	0.448
7.45253	0.378
7.48975	0.32
7.52696	0.31
7.56418	0.28
7.6014	0.238
7.63861	0.269
7.67583	0.37
7.71304	0.449
7.75026	0.486
7.78748	0.472
7.82469	0.468
7.86191	0.458
7.89912	0.39
7.93634	0.319
7.97356	0.274
8.01077	0.196
8.04799	0.148
8.0852	0.127
8.12242	0.114
8.15964	0.114
8.19685	0.116
8.23407	0.116
8.27128	0.111
8.3085	0.117
8.34572	0.124
8.38293	0.122
8.42015	0.127
8.45736	0.136
8.49458	0.127
8.5318	0.13
8.56901	0.134
8.60623	0.13
8.64344	0.147
8.68066	0.172
8.71787	0.221
8.75509	0.28
8.79231	0.336
8.82952	0.367
8.86674	0.409
8.90395	0.396
8.94117	0.31
8.97839	0.282
9.0156	0.361
9.05282	0.389
9.09003	0.413
9.12725	0.423
9.16447	0.421
9.20168	0.417
9.2389	0.398
9.27611	0.317
9.31333	0.201
9.35055	0.159
9.38776	0.131
9.42498	0.124
9.46219	0.083
9.49941	0.066
9.53663	0.055
9.57384	0.065
9.61106	0.077
9.64827	0.089
9.68549	0.1
9.72271	0.094
9.75992	0.102
9.79714	0.133
9.83435	0.167
9.87157	0.212
9.90879	0.251
9.946	0.283
9.98322	0.331
10.0204	0.35
10.0576	0.356
10.0949	0.376
10.1321	0.401
10.1693	0.432
10.2065	0.462
10.2437	0.472
10.2809	0.491
10.3182	0.499
10.3554	0.516
10.3926	0.527
10.4298	0.541
10.467	0.555
10.5042	0.559
10.5415	0.576
10.5787	0.579
10.6159	0.582
10.6531	0.598
10.6903	0.582
10.7275	0.576
10.7648	0.572
10.802	0.578
10.8392	0.601
10.8764	0.627
10.9136	0.66
10.9508	0.682
10.988	0.705
11.0253	0.719
11.0625	0.728
11.0997	0.728
11.1369	0.731
11.1741	0.73
11.2113	0.727
11.2486	0.711
11.2858	0.688
11.323	0.662
11.3602	0.623
11.3974	0.612
11.4346	0.6
11.4719	0.567
11.5091	0.502
11.5463	0.497
11.5835	0.528
11.6207	0.586
11.6579	0.601
11.6952	0.603
11.7324	0.59
11.7696	0.589
11.8068	0.579
11.844	0.582
11.8812	0.586
11.9184	0.587
11.9557	0.587
11.9929	0.572
12.0301	0.579
12.0673	0.576
12.1045	0.565
12.1417	0.545
12.179	0.508
12.2162	0.458
12.2534	0.424
12.2906	0.424
12.3278	0.401
12.365	0.39
12.4023	0.376
12.4395	0.365
12.4767	0.379
12.5139	0.412
12.5511	0.421
12.5883	0.438
12.6256	0.451
12.6628	0.462
12.7	0.463
12.7372	0.466
12.7744	0.469
12.8116	0.471
12.8488	0.485
12.8861	0.497
12.9233	0.508
12.9605	0.527
12.9977	0.536
13.0349	0.542
13.0721	0.556
13.1094	0.561
13.1466	0.562
13.1838	0.575
13.221	0.562
13.2582	0.564
13.2954	0.558
13.3327	0.541
13.3699	0.513
13.4071	0.462
13.4443	0.412
13.4815	0.372
13.5187	0.364
13.556	0.387
13.5932	0.407
13.6304	0.438
13.6676	0.458
13.7048	0.469
13.742	0.48
13.7792	0.477
13.8165	0.466
13.8537	0.463
13.8909	0.466
13.9281	0.475
13.9653	0.468
14.0025	0.475
14.0398	0.493
14.077	0.502
14.1142	0.519
14.1514	0.52
14.1886	0.511
14.2258	0.502
14.2631	0.496
14.3003	0.477
14.3375	0.462
14.3747	0.426
14.4119	0.403
14.4491	0.362
14.4864	0.316
14.5236	0.297
14.5608	0.252
14.598	0.248
14.6352	0.234
14.6724	0.251
14.7096	0.257
14.7469	0.271
14.7841	0.3
14.8213	0.313
14.8585	0.322
14.8957	0.33
14.9329	0.325
14.9702	0.308
15.0074	0.3
15.0446	0.286
15.0818	0.266
15.119	0.246
15.1562	0.226
15.1935	0.22
15.2307	0.221
15.2679	0.226
15.3051	0.257
15.3423	0.271
15.3795	0.289
15.4167	0.302
15.454	0.32
15.4912	0.319
15.5284	0.316
15.5656	0.317
15.6028	0.313
15.64	0.313
15.6773	0.311
15.7145	0.31
15.7517	0.31
15.7889	0.311
15.8261	0.313
15.8633	0.317
15.9006	0.322
15.9378	0.341
15.975	0.342
