Infrared Spectrum: LEAD THIOCYANATE
Formula: Pb ( S C N)2
State: SOLID (NUJOL MULL)
Class: COBLENTZ
Instrument: Not specified, most likely a prism, grating, or hybrid spectrometer.
Sampling: TRANSMISSION
Resolution: 4
Origin: MELLON INSTITUTE
MICROMETERS	TRANSMITTANCE
2.03	0.445
2.07097	0.457
2.11194	0.468
2.15291	0.478
2.19388	0.485
2.23485	0.492
2.27582	0.5
2.31679	0.506
2.35777	0.514
2.39874	0.523
2.43971	0.531
2.48068	0.542
2.52165	0.55
2.56262	0.557
2.60359	0.566
2.64456	0.571
2.68553	0.581
2.7265	0.586
2.76747	0.59
2.80844	0.593
2.84941	0.597
2.89038	0.6
2.93135	0.614
2.97233	0.621
3.0133	0.621
3.05427	0.626
3.09524	0.629
3.13621	0.633
3.17718	0.64
3.21815	0.643
3.25912	0.631
3.30009	0.585
3.34106	0.213
3.38203	0.161
3.423	0.335
3.46397	0.294
3.50494	0.619
3.54591	0.685
3.58689	0.712
3.62786	0.719
3.66883	0.726
3.7098	0.734
3.75077	0.741
3.79174	0.746
3.83271	0.753
3.87368	0.76
3.91465	0.771
3.95562	0.774
3.99659	0.781
4.03756	0.784
4.07853	0.793
4.1195	0.796
4.16048	0.8
4.20145	0.798
4.24242	0.798
4.28339	0.798
4.32436	0.805
4.36533	0.814
4.4063	0.826
4.44727	0.829
4.48824	0.836
4.52921	0.838
4.57018	0.841
4.61115	0.851
4.65212	0.862
4.69309	0.876
4.73406	0.884
4.77504	0.841
4.81601	0.753
4.85698	0.75
4.89795	0.445
4.93892	0.321
4.97989	0.545
5.02086	0.65
5.06183	0.69
5.1028	0.728
5.14377	0.755
5.18474	0.776
5.22571	0.786
5.26668	0.795
5.30765	0.805
5.34862	0.817
5.3896	0.822
5.43057	0.827
5.47154	0.834
5.51251	0.838
5.55348	0.846
5.59445	0.848
5.63542	0.851
5.67639	0.857
5.71736	0.864
5.75833	0.862
5.7993	0.864
5.84027	0.867
5.88124	0.874
5.92221	0.872
5.96318	0.879
6.00416	0.886
6.04513	0.886
6.0861	0.888
6.12707	0.891
6.16804	0.895
6.20901	0.903
6.24998	0.895
6.29095	0.891
6.33192	0.884
6.37289	0.876
6.41386	0.869
6.45483	0.867
6.4958	0.86
6.53677	0.86
6.57774	0.865
6.61872	0.864
6.65969	0.876
6.70066	0.869
6.74163	0.848
6.7826	0.71
6.82357	0.619
6.86454	0.638
6.90551	0.695
6.94648	0.753
6.98745	0.808
7.02842	0.824
7.06939	0.841
7.11036	0.853
7.15133	0.857
7.1923	0.814
7.23328	0.748
7.27425	0.8
7.31522	0.838
7.35619	0.87
7.39716	0.879
7.43813	0.882
7.4791	0.9
7.52007	0.903
7.56104	0.903
7.60201	0.903
7.64298	0.903
7.68395	0.908
7.72492	0.912
7.76589	0.915
7.80687	0.92
7.84784	0.917
7.88881	0.917
7.92978	0.922
7.97075	0.922
8.01172	0.922
8.05269	0.929
8.09366	0.931
8.13463	0.931
8.1756	0.931
8.21657	0.932
8.25754	0.934
8.29851	0.934
8.33948	0.938
8.38045	0.939
8.42143	0.939
8.4624	0.938
8.50337	0.936
8.54434	0.936
8.58531	0.936
8.62628	0.934
8.66725	0.936
8.70822	0.936
8.74919	0.936
8.79016	0.939
8.83113	0.941
8.8721	0.944
8.91307	0.943
8.95404	0.934
8.99501	0.944
9.03599	0.946
9.07696	0.946
9.11793	0.946
9.1589	0.951
9.19987	0.951
9.24084	0.951
9.28181	0.953
9.32278	0.951
9.36375	0.951
9.40472	0.951
9.44569	0.955
9.48666	0.956
9.52763	0.956
9.5686	0.956
9.60957	0.955
9.65055	0.956
9.69152	0.958
9.73249	0.956
9.77346	0.956
9.81443	0.956
9.8554	0.956
9.89637	0.96
9.93734	0.963
9.97831	0.967
10.0193	0.969
10.0603	0.972
10.1012	0.967
10.1422	0.965
10.1832	0.965
10.2241	0.962
10.2651	0.96
10.3061	0.965
10.347	0.965
10.388	0.969
10.429	0.967
10.47	0.969
10.5109	0.963
10.5519	0.96
10.5929	0.955
10.6338	0.958
10.6748	0.958
10.7158	0.96
10.7568	0.963
10.7977	0.967
10.8387	0.972
10.8797	0.975
10.9206	0.977
10.9616	0.979
11.0026	0.979
11.0435	0.981
11.0845	0.986
11.1255	0.984
11.1665	0.982
11.2074	0.984
11.2484	0.987
11.2894	0.991
11.3303	0.993
11.3713	0.993
11.4123	0.994
11.4533	0.996
11.4942	0.998
11.5352	0.998
11.5762	0.998
11.6171	0.998
11.6581	0.998
11.6991	1
11.74	1.001
11.781	1.001
11.822	1.001
11.863	1.001
11.9039	0.996
11.9449	0.996
11.9859	1
12.0268	1.001
12.0678	1.003
12.1088	1.003
12.1498	1.003
12.1907	1.003
12.2317	1.003
12.2727	1.003
12.3136	1.003
12.3546	1.003
12.3956	1.001
12.4366	0.998
12.4775	0.994
12.5185	0.994
12.5595	0.993
12.6004	0.989
12.6414	0.987
12.6824	0.986
12.7233	0.979
12.7643	0.975
12.8053	0.972
12.8463	0.974
12.8872	0.972
12.9282	0.97
12.9692	0.972
13.0101	0.965
13.0511	0.96
13.0921	0.96
13.1331	0.943
13.174	0.931
13.215	0.925
13.256	0.931
13.2969	0.932
13.3379	0.929
13.3789	0.932
13.4198	0.931
13.4608	0.924
13.5018	0.922
13.5428	0.917
13.5837	0.913
13.6247	0.907
13.6657	0.907
13.7066	0.901
13.7476	0.895
13.7886	0.888
13.8296	0.876
13.8705	0.87
13.9115	0.867
13.9525	0.865
13.9934	0.865
14.0344	0.862
14.0754	0.857
14.1163	0.855
14.1573	0.851
14.1983	0.851
14.2393	0.843
14.2802	0.836
14.3212	0.831
14.3622	0.822
14.4031	0.815
14.4441	0.81
14.4851	0.803
14.5261	0.791
14.567	0.786
14.608	0.779
14.649	0.765
14.6899	0.753
14.7309	0.748
14.7719	0.738
14.8129	0.726
14.8538	0.721
14.8948	0.717
14.9358	0.709
14.9767	0.705
15.0177	0.702
15.0587	0.698
15.0996	0.693
15.1406	0.691
15.1816	0.685
15.2226	0.679
15.2635	0.672
15.3045	0.669
15.3455	0.662
15.3864	0.655
15.4274	0.648
15.4684	0.64
15.5094	0.635
15.5503	0.633
15.5913	0.629
15.6323	0.621
15.6732	0.619
15.7142	0.616
15.7552	0.611
15.7961	0.605
15.8371	0.605
15.8781	0.6
15.9191	0.595
15.96	0.595
16.001	0.593
