Infrared Spectrum: Coumarin-d6
Formula: C9 D6 O2
State: SOLUTION (10% CCl4 FOR 4000-1300, 10% CS2 FOR 1300-450 CM^-^1) VS SOLVENT
Class: COBLENTZ III
Instrument: CARY 90 (GRATING)
Instrument parameters: GRATING CHANGES: 3000, 2000, 1200 CM^-^1
Sampling: TRANSMISSION
Path length: 0.010 CM, 0.010 CM
Resolution: 2
Origin: WESTERN REGIONAL RES. USDA
1/CM	TRANSMITTANCE
474	0.4471
483	0.7044
492	0.7225
501	0.6843
510	0.6339
519	0.7536
528	0.7713
537	0.7753
546	0.7743
555	0.6875
564	0.764
573	0.7834
582	0.7787
591	0.3544
600	0.676
609	0.0751
618	0.4875
627	0.751
636	0.7084
645	0.7527
654	0.72
663	0.8
672	0.8197
681	0.8187
690	0.8109
699	0.6604
708	0.8004
717	0.7813
726	0.8039
735	0.7393
744	0.6743
753	0.6503
762	0.6217
771	0.0928
780	0.6624
789	0.7786
798	0.7336
807	0.342
816	0.7258
825	0.1865
834	0.7219
843	0.4123
852	0.7114
861	0.7633
870	0.809
879	0.8341
888	0.8175
897	0.8032
906	0.7088
915	0.315
924	0.7896
933	0.8069
942	0.8011
951	0.8357
960	0.8548
969	0.8572
978	0.8561
987	0.8526
996	0.8455
1005	0.8084
1014	0.6756
1023	0.1746
1032	0.0939
1041	0.7945
1050	0.8188
1059	0.8515
1068	0.852
1077	0.8505
1086	0.8495
1095	0.7855
1104	0.7783
1113	0.7483
1122	0.4957
1131	0.1651
1140	0.0398
1149	0.2956
1158	0.6905
1167	0.6182
1176	0.6983
1185	0.7773
1194	0.7698
1203	0.4562
1212	0.5599
1221	0.5831
1230	0.752
1239	0.6681
1248	0.7591
1257	0.2669
1266	0.5184
1275	0.7501
1284	0.6747
1293	0.6448
1302	0.7204
1311	0.657
1320	0.6104
1329	0.7351
1338	0.7951
1347	0.711
1356	0.4772
1365	0.1819
1374	0.7048
1383	0.7241
1392	0.7642
1401	0.74
1410	0.5418
1419	0.5332
1428	0.725
1437	0.7611
1446	0.8029
1455	0.7983
1464	0.8132
1473	0.8119
1482	0.8159
1491	0.8195
1500	0.7873
1509	0.7876
1518	0.8109
1527	0.7
1536	0.4727
1545	0.6374
1554	0.767
1563	0.7343
1572	0.5204
1581	0.0651
1590	0.1182
1599	0.0517
1608	0.2769
1617	0.3891
1626	0.5634
1635	0.7386
1644	0.7289
1653	0.7555
1662	0.7663
1671	0.7349
1680	0.6408
1689	0.5605
1698	0.4355
1707	0.3512
1716	0.1099
1725	0.0013
1734	0.0016
1743	0.0004
1752	0.0037
1761	0.1786
1770	0.4816
1779	0.6454
1788	0.7295
1797	0.7241
1806	0.7733
1815	0.7857
1824	0.7843
1833	0.7507
1842	0.7583
1851	0.7483
1860	0.7612
1869	0.8311
1878	0.8516
1887	0.8521
1896	0.8505
1905	0.8519
1914	0.8526
1923	0.8539
1932	0.8542
1941	0.855
1950	0.8496
1959	0.8535
1968	0.8561
1977	0.8602
1986	0.8656
1995	0.871
2004	0.8743
2013	0.8746
2022	0.8742
2031	0.8724
2040	0.8667
2049	0.8597
2058	0.8522
2067	0.8534
2076	0.8665
2085	0.8772
2094	0.8781
2103	0.8779
2112	0.8773
2121	0.8761
2130	0.8745
2139	0.8716
2148	0.8652
2157	0.8563
2166	0.8514
2175	0.8554
2184	0.8667
2193	0.8746
2202	0.8759
2211	0.8753
2220	0.8731
2229	0.8657
2238	0.8531
2247	0.8435
2256	0.8338
2265	0.7313
2274	0.6961
2283	0.7155
2292	0.7713
2301	0.7832
2310	0.812
2319	0.8266
2328	0.8504
2337	0.8278
2346	0.8019
2355	0.816
2364	0.849
2373	0.8619
2382	0.8666
2391	0.8669
2400	0.865
2409	0.8652
2418	0.8681
2427	0.87
2436	0.8712
2445	0.872
2454	0.874
2463	0.8784
2472	0.882
2481	0.8855
2490	0.8866
2499	0.8869
2508	0.8878
2517	0.889
2526	0.8888
2535	0.8869
2544	0.8843
2553	0.8815
2562	0.8811
2571	0.8835
2580	0.8885
2589	0.8918
2598	0.8933
2607	0.8935
2616	0.8938
2625	0.8938
2634	0.8936
2643	0.8918
2652	0.89
2661	0.8851
2670	0.8806
2679	0.8793
2688	0.8896
2697	0.8941
2706	0.8937
2715	0.8841
2724	0.8698
2733	0.8592
2742	0.8706
2751	0.8816
2760	0.8871
2769	0.8905
2778	0.8934
2787	0.8935
2796	0.8937
2805	0.8956
2814	0.9015
2823	0.8998
2832	0.8974
2841	0.8945
2850	0.8887
2859	0.882
2868	0.8777
2877	0.8738
2886	0.8764
2895	0.8816
2904	0.8869
2913	0.8877
2922	0.8846
2931	0.8837
2940	0.8873
2949	0.8911
2958	0.8941
2967	0.8959
2976	0.8963
2985	0.8944
2994	0.8927
3003	0.8917
3012	0.892
3021	0.893
3030	0.8937
3039	0.8942
3048	0.8948
3057	0.8953
3066	0.8955
3075	0.8951
3084	0.895
3093	0.8949
3102	0.8968
3111	0.8988
3120	0.9006
3129	0.9027
3138	0.9054
3147	0.9062
3156	0.9054
3165	0.9035
3174	0.9007
3183	0.8986
3192	0.8981
3201	0.9018
3210	0.9069
3219	0.9104
3228	0.9116
3237	0.9115
3246	0.9094
3255	0.9076
3264	0.9061
3273	0.9073
3282	0.9087
3291	0.9081
3300	0.9076
3309	0.9067
3318	0.9066
3327	0.909
3336	0.9123
3345	0.916
3354	0.9182
3363	0.9202
3372	0.92
3381	0.9188
3390	0.9175
3399	0.9148
3408	0.9113
3417	0.9046
3426	0.8929
3435	0.8781
3444	0.8621
3453	0.8491
3462	0.8461
3471	0.856
3480	0.8743
3489	0.8894
3498	0.9033
3507	0.9047
3516	0.9046
3525	0.904
3534	0.9032
3543	0.9027
3552	0.9025
3561	0.9024
3570	0.9039
3579	0.9054
3588	0.9083
3597	0.9125
3606	0.9149
3615	0.915
3624	0.9134
3633	0.9118
3642	0.9104
3651	0.909
3660	0.9073
3669	0.9055
3678	0.9034
3687	0.9024
3696	0.9077
3705	0.9122
3714	0.9148
3723	0.9149
3732	0.9143
3741	0.9133
3750	0.9133
3759	0.9136
3768	0.9142
3777	0.9149
3786	0.9156
3795	0.9162
