Infrared Spectrum: PURIN-8(9H)-ONE, 6-AMINO-7-(2-HYDROXYETHYL)-
Formula: C7 H9 N5 O2
State: SOLID (1 mg / 650 mg KBr DISC)
Class: COBLENTZ III
Instrument: PERKIN-ELMER 521 (GRATING)
Instrument parameters: FILTERS AT 3130, 2475, 2000, 1150, 700, 410 CM ^-^1, GRATING CHANGES AT 2000, 620 CM^-^1
Sampling: TRANSMISSION
Resolution: 4
Origin: SOUTHERN RESEARCH INST.
1/CM	TRANSMITTANCE
246.509	0.258
256.132	0.302
265.754	0.341
275.377	0.396
285	0.443
294.622	0.481
304.245	0.511
313.868	0.532
323.49	0.536
333.113	0.534
342.735	0.61
352.358	0.66
361.981	0.683
371.603	0.689
381.226	0.696
390.849	0.743
400.471	0.755
410.094	0.757
419.717	0.761
429.339	0.763
438.962	0.762
448.585	0.738
458.207	0.748
467.83	0.783
477.452	0.789
487.075	0.78
496.698	0.794
506.32	0.798
515.943	0.778
525.566	0.796
535.188	0.797
544.811	0.787
554.434	0.778
564.056	0.715
573.679	0.736
583.302	0.706
592.924	0.762
602.547	0.757
612.169	0.741
621.792	0.727
631.415	0.732
641.037	0.721
650.66	0.634
660.283	0.664
669.905	0.674
679.528	0.731
689.151	0.724
698.773	0.678
708.396	0.521
718.019	0.667
727.641	0.716
737.264	0.713
746.887	0.703
756.509	0.679
766.132	0.702
775.754	0.64
785.377	0.72
795	0.796
804.622	0.793
814.245	0.807
823.868	0.823
833.49	0.84
843.113	0.844
852.736	0.845
862.358	0.841
871.981	0.812
881.604	0.798
891.226	0.808
900.849	0.878
910.471	0.883
920.094	0.872
929.717	0.807
939.339	0.864
948.962	0.868
958.585	0.834
968.207	0.861
977.83	0.862
987.453	0.832
997.075	0.844
1006.7	0.853
1016.32	0.845
1025.94	0.83
1035.57	0.783
1045.19	0.625
1054.81	0.705
1064.43	0.724
1074.06	0.7
1083.68	0.844
1093.3	0.875
1102.92	0.875
1112.55	0.868
1122.17	0.845
1131.79	0.85
1141.41	0.853
1151.04	0.838
1160.66	0.819
1170.28	0.749
1179.91	0.791
1189.53	0.86
1199.15	0.854
1208.77	0.842
1218.4	0.834
1228.02	0.821
1237.64	0.809
1247.26	0.83
1256.89	0.816
1266.51	0.756
1276.13	0.629
1285.75	0.783
1295.38	0.833
1305	0.819
1314.62	0.803
1324.25	0.789
1333.87	0.768
1343.49	0.738
1353.11	0.673
1362.74	0.654
1372.36	0.587
1381.98	0.563
1391.6	0.619
1401.23	0.508
1410.85	0.654
1420.47	0.717
1430.09	0.698
1439.72	0.595
1449.34	0.608
1458.96	0.641
1468.58	0.49
1478.21	0.577
1487.83	0.732
1497.45	0.714
1507.08	0.748
1516.7	0.805
1526.32	0.801
1535.94	0.793
1545.57	0.774
1555.19	0.746
1564.81	0.714
1574.43	0.681
1584.06	0.632
1593.68	0.522
1603.3	0.419
1612.92	0.334
1622.55	0.335
1632.17	0.501
1641.79	0.556
1651.42	0.51
1661.04	0.419
1670.66	0.279
1680.28	0.36
1689.91	0.464
1699.53	0.339
1709.15	0.182
1718.77	0.33
1728.4	0.492
1738.02	0.628
1747.64	0.724
1757.26	0.775
1766.89	0.81
1776.51	0.849
1786.13	0.871
1795.75	0.883
1805.38	0.891
1815	0.899
1824.62	0.901
1834.25	0.904
1843.87	0.908
1853.49	0.911
1863.11	0.912
1872.74	0.912
1882.36	0.911
1891.98	0.911
1901.6	0.909
1911.23	0.909
1920.85	0.91
1930.47	0.91
1940.09	0.908
1949.72	0.908
1959.34	0.907
1968.96	0.906
1978.59	0.905
1988.21	0.904
1997.83	0.9
2007.45	0.899
2017.08	0.897
2026.7	0.897
2036.32	0.896
2045.94	0.895
2055.57	0.894
2065.19	0.894
2074.81	0.894
2084.43	0.894
2094.06	0.894
2103.68	0.894
2113.3	0.893
2122.92	0.893
2132.55	0.893
2142.17	0.893
2151.79	0.891
2161.42	0.889
2171.04	0.889
2180.66	0.887
2190.28	0.886
2199.91	0.884
2209.53	0.882
2219.15	0.881
2228.77	0.879
2238.4	0.878
2248.02	0.878
2257.64	0.878
2267.26	0.875
2276.89	0.873
2286.51	0.871
2296.13	0.869
2305.75	0.867
2315.38	0.867
2325	0.865
2334.62	0.864
2344.25	0.863
2353.87	0.863
2363.49	0.863
2373.11	0.862
2382.74	0.862
2392.36	0.861
2401.98	0.861
2411.6	0.86
2421.23	0.857
2430.85	0.856
2440.47	0.854
2450.09	0.852
2459.72	0.85
2469.34	0.847
2478.96	0.845
2488.59	0.841
2498.21	0.838
2507.83	0.835
2517.45	0.834
2527.08	0.832
2536.7	0.83
2546.32	0.823
2555.94	0.819
2565.57	0.812
2575.19	0.811
2584.81	0.808
2594.43	0.804
2604.06	0.797
2613.68	0.793
2623.3	0.788
2632.92	0.783
2642.55	0.775
2652.17	0.761
2661.79	0.752
2671.42	0.747
2681.04	0.741
2690.66	0.735
2700.28	0.727
2709.91	0.725
2719.53	0.724
2729.15	0.724
2738.77	0.723
2748.4	0.723
2758.02	0.716
2767.64	0.702
2777.26	0.689
2786.89	0.678
2796.51	0.676
2806.13	0.675
2815.76	0.675
2825.38	0.669
2835	0.652
2844.62	0.633
2854.25	0.625
2863.87	0.621
2873.49	0.619
2883.11	0.617
2892.74	0.612
2902.36	0.605
2911.98	0.589
2921.6	0.569
2931.23	0.564
2940.85	0.588
2950.47	0.588
2960.09	0.582
2969.72	0.574
2979.34	0.575
2988.96	0.578
2998.59	0.577
3008.21	0.571
3017.83	0.562
3027.45	0.548
3037.08	0.536
3046.7	0.528
3056.32	0.519
3065.94	0.516
3075.57	0.511
3085.19	0.495
3094.81	0.469
3104.43	0.426
3114.06	0.406
3123.68	0.411
3133.3	0.419
3142.93	0.447
3152.55	0.473
3162.17	0.492
3171.79	0.504
3181.42	0.509
3191.04	0.514
3200.66	0.518
3210.28	0.521
3219.91	0.53
3229.53	0.535
3239.15	0.538
3248.77	0.538
3258.4	0.536
3268.02	0.533
3277.64	0.522
3287.26	0.502
3296.89	0.492
3306.51	0.502
3316.13	0.527
3325.76	0.555
3335.38	0.58
3345	0.591
3354.62	0.604
3364.25	0.613
3373.87	0.621
3383.49	0.628
3393.11	0.634
3402.74	0.641
3412.36	0.646
3421.98	0.65
3431.6	0.655
3441.23	0.661
3450.85	0.668
3460.47	0.677
3470.09	0.688
3479.72	0.696
3489.34	0.703
3498.96	0.713
3508.59	0.724
3518.21	0.731
3527.83	0.742
3537.45	0.751
3547.08	0.758
3556.7	0.769
3566.32	0.777
3575.94	0.786
3585.57	0.797
3595.19	0.805
3604.81	0.816
3614.43	0.824
3624.06	0.831
3633.68	0.838
3643.3	0.847
3652.93	0.842
3662.55	0.85
3672.17	0.842
3681.79	0.841
3691.42	0.851
3701.04	0.856
3710.66	0.856
3720.28	0.856
3729.91	0.853
3739.53	0.849
3749.15	0.842
3758.77	0.85
3768.4	0.854
3778.02	0.856
3787.64	0.856
3797.26	0.853
