Infrared Spectrum: MAGNESIO ACETOACETIC ESTER
Formula: C12 H18 Mg O6
State: SOLID (KBr PELLET)
Class: COBLENTZ
Instrument: Not specified, most likely a grating spectrometer.
Sampling: TRANSMISSION
Resolution: 4
Origin: ABBOTT LABORATORIES
MICROMETERS	TRANSMITTANCE
2.007	0.682
2.04295	0.682
2.0789	0.682
2.11485	0.683
2.1508	0.685
2.18675	0.685
2.2227	0.685
2.25864	0.687
2.29459	0.682
2.33054	0.685
2.36649	0.69
2.40244	0.694
2.43839	0.696
2.47434	0.698
2.51029	0.699
2.54624	0.701
2.58219	0.706
2.61814	0.712
2.65409	0.712
2.69003	0.712
2.72598	0.71
2.76193	0.699
2.79788	0.696
2.83383	0.687
2.86978	0.68
2.90573	0.673
2.94168	0.68
2.97763	0.683
3.01358	0.682
3.04953	0.682
3.08548	0.687
3.12143	0.69
3.15737	0.692
3.19332	0.698
3.22927	0.696
3.26522	0.696
3.30117	0.63
3.33712	0.545
3.37307	0.611
3.40902	0.625
3.44497	0.646
3.48092	0.69
3.51687	0.703
3.55282	0.708
3.58876	0.715
3.62471	0.722
3.66066	0.724
3.69661	0.726
3.73256	0.733
3.76851	0.735
3.80446	0.738
3.84041	0.74
3.87636	0.747
3.91231	0.744
3.94826	0.737
3.98421	0.721
4.02016	0.719
4.0561	0.728
4.09205	0.73
4.128	0.726
4.16395	0.728
4.1999	0.738
4.23585	0.749
4.2718	0.747
4.30775	0.742
4.3437	0.731
4.37965	0.735
4.4156	0.737
4.45155	0.73
4.48749	0.73
4.52344	0.737
4.55939	0.733
4.59534	0.71
4.63129	0.705
4.66724	0.714
4.70319	0.714
4.73914	0.71
4.77509	0.715
4.81104	0.715
4.84699	0.71
4.88294	0.701
4.91889	0.698
4.95483	0.698
4.99078	0.689
5.02673	0.685
5.06268	0.682
5.09863	0.673
5.13458	0.66
5.17053	0.648
5.20648	0.648
5.24243	0.644
5.27838	0.63
5.31433	0.626
5.35028	0.619
5.38622	0.607
5.42217	0.598
5.45812	0.589
5.49407	0.582
5.53002	0.573
5.56597	0.561
5.60192	0.536
5.63787	0.522
5.67382	0.502
5.70977	0.497
5.74572	0.484
5.78167	0.472
5.81761	0.452
5.85356	0.433
5.88951	0.415
5.92546	0.394
5.96141	0.373
5.99736	0.341
6.03331	0.305
6.06926	0.255
6.10521	0.206
6.14116	0.179
6.17711	0.259
6.21306	0.323
6.24901	0.364
6.28495	0.317
6.3209	0.328
6.35685	0.351
6.3928	0.317
6.42875	0.266
6.4647	0.225
6.50065	0.2
6.5366	0.156
6.57255	0.168
6.6085	0.25
6.64445	0.282
6.6804	0.358
6.71634	0.406
6.75229	0.374
6.78824	0.449
6.82419	0.493
6.86014	0.484
6.89609	0.481
6.93204	0.415
6.96799	0.383
7.00394	0.339
7.03989	0.316
7.07584	0.291
7.11179	0.349
7.14774	0.44
7.18368	0.518
7.21963	0.587
7.25558	0.607
7.29153	0.507
7.32748	0.523
7.36343	0.536
7.39938	0.651
7.43533	0.674
7.47128	0.66
7.50723	0.611
7.54318	0.577
7.57913	0.529
7.61507	0.484
7.65102	0.442
7.68697	0.406
7.72292	0.369
7.75887	0.326
7.79482	0.285
7.83077	0.227
7.86672	0.175
7.90267	0.163
7.93862	0.165
7.97457	0.15
8.01052	0.158
8.04647	0.202
8.08241	0.246
8.11836	0.277
8.15431	0.323
8.19026	0.36
8.22621	0.401
8.26216	0.442
8.29811	0.486
8.33406	0.552
8.37001	0.591
8.40596	0.538
8.44191	0.438
8.47786	0.307
8.5138	0.2
8.54975	0.206
8.5857	0.28
8.62165	0.323
8.6576	0.357
8.69355	0.39
8.7295	0.413
8.76545	0.442
8.8014	0.456
8.83735	0.484
8.8733	0.507
8.90925	0.525
8.9452	0.552
8.98114	0.541
9.01709	0.545
9.05304	0.582
9.08899	0.619
9.12494	0.639
9.16089	0.655
9.19684	0.653
9.23279	0.609
9.26874	0.554
9.30469	0.499
9.34064	0.401
9.37659	0.316
9.41253	0.277
9.44848	0.298
9.48443	0.367
9.52038	0.438
9.55633	0.488
9.59228	0.527
9.62823	0.541
9.66418	0.44
9.70013	0.404
9.73608	0.365
9.77203	0.285
9.80798	0.264
9.84393	0.269
9.87987	0.326
9.91582	0.381
9.95177	0.431
9.98772	0.474
10.0237	0.515
10.0596	0.515
10.0956	0.447
10.1315	0.294
10.1675	0.278
10.2034	0.307
10.2394	0.314
10.2753	0.285
10.3113	0.28
10.3472	0.325
10.3832	0.355
10.4191	0.385
10.4551	0.406
10.491	0.426
10.527	0.451
10.5629	0.458
10.5989	0.472
10.6348	0.484
10.6708	0.502
10.7067	0.509
10.7427	0.518
10.7786	0.522
10.8146	0.529
10.8505	0.532
10.8865	0.538
10.9224	0.541
10.9584	0.55
10.9943	0.557
11.0302	0.563
11.0662	0.568
11.1021	0.573
11.1381	0.575
11.174	0.579
11.21	0.584
11.2459	0.587
11.2819	0.593
11.3178	0.593
11.3538	0.6
11.3897	0.603
11.4257	0.605
11.4616	0.602
11.4976	0.582
11.5335	0.522
11.5695	0.504
11.6054	0.539
11.6414	0.575
11.6773	0.595
11.7133	0.605
11.7492	0.616
11.7852	0.626
11.8211	0.634
11.8571	0.642
11.893	0.648
11.929	0.655
11.9649	0.66
12.0009	0.667
12.0368	0.671
12.0728	0.673
12.1087	0.678
12.1447	0.683
12.1806	0.687
12.2166	0.69
12.2525	0.689
12.2885	0.699
12.3244	0.71
12.3604	0.717
12.3963	0.719
12.4323	0.721
12.4682	0.705
12.5042	0.683
12.5401	0.619
12.5761	0.5
12.612	0.36
12.648	0.25
12.6839	0.204
12.7199	0.253
12.7558	0.328
12.7918	0.385
12.8277	0.426
12.8637	0.461
12.8996	0.476
12.9356	0.486
12.9715	0.502
13.0075	0.523
13.0434	0.547
13.0794	0.561
13.1153	0.577
13.1513	0.58
13.1872	0.593
13.2231	0.607
13.2591	0.623
13.295	0.632
13.331	0.641
13.3669	0.635
13.4029	0.529
13.4388	0.422
13.4748	0.381
13.5107	0.412
13.5467	0.468
13.5826	0.516
13.6186	0.545
13.6545	0.563
13.6905	0.58
13.7264	0.584
13.7624	0.591
13.7983	0.602
13.8343	0.603
13.8702	0.609
13.9062	0.612
13.9421	0.619
13.9781	0.619
14.014	0.626
14.05	0.628
14.0859	0.632
14.1219	0.634
14.1578	0.641
14.1938	0.642
14.2297	0.641
14.2657	0.644
14.3016	0.646
14.3376	0.646
14.3735	0.646
14.4095	0.644
14.4454	0.644
14.4814	0.644
14.5173	0.651
14.5533	0.65
14.5892	0.653
14.6252	0.653
14.6611	0.65
14.6971	0.642
14.733	0.644
14.769	0.648
14.8049	0.642
14.8409	0.641
14.8768	0.642
14.9128	0.648
14.9487	0.65
14.9847	0.65
15.0206	0.658
15.0566	0.662
15.0925	0.667
15.1285	0.66
15.1644	0.662
15.2004	0.658
15.2363	0.662
15.2723	0.667
15.3082	0.662
15.3442	0.671
15.3801	0.673
15.4161	0.669
15.452	0.673
