Infrared Spectrum: Piperazine, N,N'-dimethyl-, dihydrochloride, trans-
Formula: C6 H16 Cl2 N2
State: SOLID (KBr DISC, 0.9% WT.)
Class: COBLENTZ III
Instrument: PERKIN-ELMER 157
Sampling: TRANSMISSION
Resolution: 2
Origin: BRITISH PETROLEUM CO. LTD., ENGLAND
1/CM	TRANSMITTANCE
668	0.9509
677	0.9354
686	0.9226
695	0.9101
704	0.8983
713	0.878
722	0.864
731	0.8538
740	0.8436
749	0.8323
758	0.8264
767	0.8215
776	0.8134
785	0.8103
794	0.8007
803	0.7921
812	0.7879
821	0.762
830	0.5916
839	0.7688
848	0.778
857	0.7661
866	0.7462
875	0.7215
884	0.5105
893	0.5174
902	0.7072
911	0.6876
920	0.6454
929	0.5627
938	0.2641
947	0.1078
956	0.4388
965	0.121
974	0.5569
983	0.5762
992	0.2363
1001	0.365
1010	0.5433
1019	0.5788
1028	0.3588
1037	0.0389
1046	0.2124
1055	0.1933
1064	0.1915
1073	0.6101
1082	0.6207
1091	0.6084
1100	0.49
1109	0.1611
1118	0.0972
1127	0.2844
1136	0.1402
1145	0.648
1154	0.6734
1163	0.6806
1172	0.6864
1181	0.6868
1190	0.681
1199	0.6683
1208	0.6615
1217	0.6469
1226	0.6386
1235	0.6365
1244	0.6223
1253	0.6043
1262	0.5787
1271	0.5283
1280	0.416
1289	0.3014
1298	0.3488
1307	0.3687
1316	0.4776
1325	0.4163
1334	0.1771
1343	0.2854
1352	0.2065
1361	0.1987
1370	0.2438
1379	0.1088
1388	0.3862
1397	0.3401
1406	0.2491
1415	0.1083
1424	0.0967
1433	0.0502
1442	0.0644
1451	0.11
1460	0.1304
1469	0.1445
1478	0.1605
1487	0.4524
1496	0.4646
1505	0.4205
1514	0.3737
1523	0.2873
1532	0.3041
1541	0.2801
1550	0.2471
1559	0.3161
1568	0.3217
1577	0.2976
1586	0.3827
1595	0.4773
1604	0.4738
1613	0.4572
1622	0.4429
1631	0.4498
1640	0.477
1649	0.5081
1658	0.5154
1667	0.5199
1676	0.5235
1685	0.5258
1694	0.5253
1703	0.5244
1712	0.5252
1721	0.527
1730	0.528
1739	0.5232
1748	0.5171
1757	0.5171
1766	0.5169
1775	0.5151
1784	0.5094
1793	0.4988
1802	0.4801
1811	0.4739
1820	0.4735
1829	0.4614
1838	0.439
1847	0.4061
1856	0.3822
1865	0.3823
1874	0.3899
1883	0.4298
1892	0.4332
1901	0.4329
1910	0.4317
1919	0.4394
1928	0.4422
1937	0.437
1946	0.4166
1955	0.4072
1964	0.4036
1973	0.3955
1982	0.3882
1991	0.38
2000	0.3712
2009	0.3591
2018	0.3264
2027	0.2788
2036	0.2939
2045	0.3201
2054	0.3233
2063	0.314
2072	0.3114
2081	0.3293
2090	0.3393
2099	0.3409
2108	0.3372
2117	0.3277
2126	0.3166
2135	0.3025
2144	0.2904
2153	0.2874
2162	0.2773
2171	0.2384
2180	0.212
2189	0.2263
2198	0.2366
2207	0.2378
2216	0.2374
2225	0.236
2234	0.2302
2243	0.2084
2252	0.1981
2261	0.1891
2270	0.18
2279	0.1708
2288	0.1603
2297	0.151
2306	0.1411
2315	0.1125
2324	0.0885
2333	0.0724
2342	0.0599
2351	0.0538
2360	0.0482
2369	0.0433
2378	0.0388
2387	0.0339
2396	0.0292
2405	0.0256
2414	0.0252
2423	0.0272
2432	0.0316
2441	0.0383
2450	0.0317
2459	0.0148
2468	0.0111
2477	0.0099
2486	0.0098
2495	0.0097
2504	0.0096
2513	0.0094
2522	0.0093
2531	0.0092
2540	0.0091
2549	0.009
2558	0.0089
2567	0.0087
2576	0.0085
2585	0.0084
2594	0.0082
2603	0.008
2612	0.0079
2621	0.0078
2630	0.0077
2639	0.0076
2648	0.0075
2657	0.0073
2666	0.0073
2675	0.0073
2684	0.0073
2693	0.0073
2702	0.0073
2711	0.0073
2720	0.0072
2729	0.0072
2738	0.0072
2747	0.0072
2756	0.0072
2765	0.0072
2774	0.0072
2783	0.0073
2792	0.0073
2801	0.0075
2810	0.0077
2819	0.0078
2828	0.008
2837	0.0082
2846	0.0083
2855	0.0085
2864	0.0088
2873	0.009
2882	0.0094
2891	0.0097
2900	0.01
2909	0.0104
2918	0.0118
2927	0.017
2936	0.0212
2945	0.0227
2954	0.0233
2963	0.0237
2972	0.0241
2981	0.0246
2990	0.025
2999	0.0254
3008	0.0257
3017	0.0261
3026	0.0264
3035	0.0269
3044	0.0291
3053	0.0339
3062	0.0394
3071	0.0482
3080	0.0581
3089	0.068
3098	0.0779
3107	0.0866
3116	0.0947
3125	0.102
3134	0.1095
3143	0.1177
3152	0.1299
3161	0.1408
3170	0.149
3179	0.1618
3188	0.1711
3197	0.1864
3206	0.1903
3215	0.1912
3224	0.1919
3233	0.1922
3242	0.1924
3251	0.1926
3260	0.1925
3269	0.1923
3278	0.1922
3287	0.1921
3296	0.192
3305	0.1918
3314	0.1916
3323	0.1913
3332	0.1911
3341	0.1909
3350	0.1907
3359	0.1904
3368	0.19
3377	0.1896
3386	0.1892
3395	0.1888
3404	0.1885
3413	0.1883
3422	0.1881
3431	0.1879
3440	0.1877
3449	0.1875
3458	0.1875
3467	0.1875
3476	0.1877
3485	0.1878
3494	0.1879
3503	0.188
3512	0.1881
3521	0.1882
3530	0.1883
3539	0.1884
3548	0.1885
3557	0.1889
3566	0.1891
3575	0.1894
3584	0.1897
3593	0.19
3602	0.1903
3611	0.1906
3620	0.1909
3629	0.1912
3638	0.1914
3647	0.1918
3656	0.1916
3665	0.1911
3674	0.1904
3683	0.1891
3692	0.1879
3701	0.1866
3710	0.1852
3719	0.1839
3728	0.1824
3737	0.1806
3746	0.179
3755	0.1773
3764	0.1756
3773	0.1739
3782	0.1722
3791	0.1705
3800	0.1688
3809	0.1671
3818	0.1656
3827	0.1641
3836	0.1627
3845	0.1612
3854	0.1598
3863	0.1583
3872	0.1575
3881	0.1569
3890	0.1563
3899	0.1557
3908	0.1552
3917	0.1548
3926	0.1548
3935	0.1549
3944	0.154
3953	0.1517
3962	0.1495
3971	0.1481
3980	0.1466
3989	0.1451
3998	0.1441
