Infrared Spectrum: 3'-Aminoacetanilide hydrochloride
Formula: C8 H11 Cl N2 O
State: SOLID (SPLIT MULL)
Class: COBLENTZ III
Instrument: DOW KBr FOREPRISM-GRATING
Instrument parameters: BLAZED AT 3.5, 12.0, 20.0 MICRON AND CHANGED AT 5.0, 7.5, 14.9 MICRON
Sampling: TRANSMISSION
Resolution: 2
Origin: DOW CHEMICAL COMPANY
1/CM	TRANSMITTANCE
3816	0.6225
3807	0.6262
3798	0.6299
3789	0.6326
3780	0.636
3771	0.6396
3762	0.6433
3753	0.6471
3744	0.6515
3735	0.6558
3726	0.6601
3717	0.6641
3708	0.6675
3699	0.6721
3690	0.6776
3681	0.6817
3672	0.68
3663	0.6887
3654	0.6891
3645	0.6892
3636	0.6953
3627	0.7015
3618	0.7014
3609	0.699
3600	0.6904
3591	0.6593
3582	0.6683
3573	0.6787
3564	0.6851
3555	0.6886
3546	0.6908
3537	0.6911
3528	0.6893
3519	0.6806
3510	0.6641
3501	0.6446
3492	0.6153
3483	0.5698
3474	0.4595
3465	0.3673
3456	0.2796
3447	0.249
3438	0.2167
3429	0.1908
3420	0.1707
3411	0.1544
3402	0.1565
3393	0.184
3384	0.2098
3375	0.2552
3366	0.3158
3357	0.385
3348	0.4341
3339	0.4546
3330	0.4586
3321	0.4484
3312	0.4188
3303	0.3658
3294	0.325
3285	0.3065
3276	0.3128
3267	0.292
3258	0.2771
3249	0.3168
3240	0.3503
3231	0.3752
3222	0.3842
3213	0.3872
3204	0.3982
3195	0.4231
3186	0.4414
3177	0.4502
3168	0.4389
3159	0.4241
3150	0.4387
3141	0.4615
3132	0.4922
3123	0.49
3114	0.4587
3105	0.4306
3096	0.4474
3087	0.4431
3078	0.4573
3069	0.4816
3060	0.4979
3051	0.4848
3042	0.4771
3033	0.4797
3024	0.4859
3015	0.4794
3006	0.4591
2997	0.4387
2988	0.4223
2979	0.4066
2970	0.392
2961	0.3768
2952	0.361
2943	0.3405
2934	0.3175
2925	0.2919
2916	0.2667
2907	0.2428
2898	0.2121
2889	0.1767
2880	0.1442
2871	0.1187
2862	0.1116
2853	0.1113
2844	0.1148
2835	0.1298
2826	0.1445
2817	0.1573
2808	0.1649
2799	0.1725
2790	0.1834
2781	0.2001
2772	0.2274
2763	0.2561
2754	0.2788
2745	0.2971
2736	0.3134
2727	0.3184
2718	0.3209
2709	0.3232
2700	0.3262
2691	0.328
2682	0.3262
2673	0.3116
2664	0.284
2655	0.2254
2646	0.1835
2637	0.1756
2628	0.1768
2619	0.1798
2610	0.1862
2601	0.1948
2592	0.2031
2583	0.2155
2574	0.2311
2565	0.2479
2556	0.2684
2547	0.2887
2538	0.3065
2529	0.3229
2520	0.3389
2511	0.3528
2502	0.3668
2493	0.3807
2484	0.3941
2475	0.4054
2466	0.4168
2457	0.4283
2448	0.4403
2439	0.4522
2430	0.4633
2421	0.4729
2412	0.4759
2403	0.4789
2394	0.4893
2385	0.4995
2376	0.5107
2367	0.5216
2358	0.531
2349	0.5333
2340	0.5304
2331	0.5254
2322	0.5202
2313	0.5248
2304	0.538
2295	0.5496
2286	0.5608
2277	0.5706
2268	0.5773
2259	0.5823
2250	0.5869
2241	0.5917
2232	0.5984
2223	0.6058
2214	0.6134
2205	0.6208
2196	0.6265
2187	0.6326
2178	0.6389
2169	0.6468
2160	0.6538
2151	0.6574
2142	0.6551
2133	0.6537
2124	0.654
2115	0.648
2106	0.638
2097	0.6275
2088	0.6195
2079	0.6195
2070	0.6243
2061	0.6331
2052	0.6425
2043	0.6518
2034	0.6637
2025	0.6751
2016	0.6886
2007	0.6994
1998	0.711
1989	0.7128
1980	0.7171
1971	0.7243
1962	0.7372
1953	0.7488
1944	0.7432
1935	0.7562
1926	0.7651
1917	0.7705
1908	0.7784
1899	0.7889
1890	0.7948
1881	0.7946
1872	0.793
1863	0.7961
1854	0.803
1845	0.8202
1836	0.8251
1827	0.83
1818	0.8277
1809	0.8339
1800	0.8391
1791	0.8414
1782	0.8374
1773	0.8521
1764	0.8545
1755	0.8263
1746	0.8638
1737	0.8709
1728	0.8846
1719	0.8667
1710	0.8911
1701	0.8998
1692	0.8811
1683	0.8258
1674	0.5872
1665	0.3414
1656	0.1303
1647	0.126
1638	0.2131
1629	0.2874
1620	0.3337
1611	0.3274
1602	0.3475
1593	0.2454
1584	0.101
1575	0.3034
1566	0.3268
1557	0.0968
1548	0.2018
1539	0.189
1530	0.2223
1521	0.3266
1512	0.4302
1503	0.5339
1494	0.4983
1485	0.4039
1476	0.5254
1467	0.5701
1458	0.3426
1449	0.1662
1440	0.197
1431	0.1889
1422	0.2777
1413	0.3862
1404	0.4747
1395	0.5262
1386	0.5478
1377	0.2641
1368	0.4152
1359	0.4671
1350	0.4887
1341	0.4346
1332	0.2157
1323	0.3228
1314	0.3914
1305	0.1978
1296	0.3414
1287	0.3653
1278	0.4792
1269	0.2984
1260	0.4262
1251	0.4969
1242	0.6095
1233	0.6595
1224	0.6818
1215	0.6943
1206	0.7028
1197	0.7095
1188	0.7053
1179	0.6532
1170	0.3641
1161	0.468
1152	0.5896
1143	0.6499
1134	0.6776
1125	0.6786
1116	0.6846
1107	0.7038
1098	0.7141
1089	0.7082
1080	0.7143
1071	0.7196
1062	0.7215
1053	0.7199
1044	0.6878
1035	0.5893
1026	0.3882
1017	0.5742
1008	0.6885
999	0.5596
990	0.7441
981	0.7434
972	0.6965
963	0.4791
954	0.6669
945	0.75
936	0.7861
927	0.8015
918	0.8121
909	0.8246
900	0.8292
891	0.7519
882	0.3942
873	0.7531
864	0.8187
855	0.8487
846	0.8606
837	0.8677
828	0.871
819	0.8597
810	0.8368
801	0.7886
792	0.2861
783	0.2513
774	0.7349
765	0.7315
756	0.6136
747	0.5525
738	0.5426
729	0.6115
720	0.5771
711	0.7172
702	0.7315
693	0.5793
684	0.1944
675	0.7135
666	0.5448
657	0.7375
648	0.7999
639	0.7883
630	0.7461
621	0.6425
612	0.3712
603	0.5131
594	0.5477
585	0.5512
576	0.5118
567	0.4565
558	0.4838
549	0.4299
540	0.3618
531	0.3066
522	0.3318
513	0.4726
504	0.5042
495	0.5604
486	0.603
477	0.6187
468	0.6173
459	0.6109
450	0.5933
