Infrared Spectrum: MORLAND SALT
Formula: C5 H12 N9 S4 Cr
State: SOLID (MINERAL OIL MULL)
Class: COBLENTZ
Instrument: Not specified, most likely a prism, grating, or hybrid spectrometer.
Sampling: TRANSMISSION
Resolution: 4
Origin: WYANDOTTE CHEMICALS CORP., WYANDOTTE, MICHIGAN, USA
MICROMETERS	TRANSMITTANCE
2.028	0.217
2.06795	0.225
2.10789	0.223
2.14784	0.237
2.18779	0.235
2.22774	0.235
2.26768	0.232
2.30763	0.227
2.34758	0.232
2.38753	0.24
2.42747	0.245
2.46742	0.245
2.50737	0.25
2.54732	0.258
2.58726	0.277
2.62721	0.29
2.66716	0.302
2.70711	0.293
2.74705	0.282
2.787	0.258
2.82695	0.24
2.8669	0.212
2.90684	0.191
2.94679	0.16
2.98674	0.141
3.02669	0.078
3.06663	0.056
3.10658	0.035
3.14653	0.046
3.18648	0.073
3.22642	0.105
3.26637	0.115
3.30632	0.091
3.34627	0.038
3.38621	0.018
3.42616	0.016
3.46611	0.02
3.50606	0.036
3.546	0.18
3.58595	0.283
3.6259	0.333
3.66585	0.338
3.70579	0.355
3.74574	0.38
3.78569	0.398
3.82564	0.409
3.86558	0.417
3.90553	0.444
3.94548	0.454
3.98543	0.465
4.02537	0.477
4.06532	0.489
4.10527	0.499
4.14522	0.5
4.18516	0.51
4.22511	0.514
4.26506	0.49
4.30501	0.512
4.34495	0.537
4.3849	0.559
4.42485	0.585
4.4648	0.604
4.50474	0.626
4.54469	0.659
4.58464	0.664
4.62459	0.651
4.66453	0.585
4.70448	0.404
4.74443	0.163
4.78438	0.073
4.82432	0.036
4.86427	0.018
4.90422	0.031
4.94417	0.04
4.98411	0.081
5.02406	0.163
5.06401	0.24
5.10396	0.303
5.1439	0.342
5.18385	0.385
5.2238	0.407
5.26375	0.427
5.30369	0.45
5.34364	0.47
5.38359	0.485
5.42354	0.494
5.46348	0.499
5.50343	0.507
5.54338	0.522
5.58333	0.525
5.62327	0.522
5.66322	0.535
5.70317	0.524
5.74312	0.524
5.78306	0.522
5.82301	0.505
5.86296	0.494
5.9029	0.477
5.94285	0.437
5.9828	0.377
6.02275	0.292
6.06269	0.313
6.10264	0.318
6.14259	0.285
6.18254	0.232
6.22248	0.208
6.26243	0.277
6.30238	0.347
6.34233	0.387
6.38227	0.442
6.42222	0.434
6.46217	0.474
6.50212	0.484
6.54206	0.487
6.58201	0.489
6.62196	0.5
6.66191	0.479
6.70185	0.419
6.7418	0.287
6.78175	0.125
6.8217	0.075
6.86164	0.091
6.90159	0.168
6.94154	0.278
6.98149	0.38
7.02143	0.422
7.06138	0.427
7.10133	0.387
7.14128	0.385
7.18122	0.31
7.22117	0.181
7.26112	0.188
7.30107	0.31
7.34101	0.477
7.38096	0.515
7.42091	0.532
7.46086	0.562
7.5008	0.587
7.54075	0.584
7.5807	0.57
7.62065	0.477
7.66059	0.4
7.70054	0.335
7.74049	0.348
7.78044	0.292
7.82038	0.186
7.86033	0.138
7.90028	0.16
7.94023	0.233
7.98017	0.36
8.02012	0.509
8.06007	0.601
8.10002	0.642
8.13996	0.674
8.17991	0.701
8.21986	0.711
8.25981	0.721
8.29975	0.732
8.3397	0.742
8.37965	0.759
8.4196	0.762
8.45954	0.757
8.49949	0.747
8.53944	0.731
8.57939	0.726
8.61933	0.734
8.65928	0.746
8.69923	0.757
8.73918	0.774
8.77912	0.777
8.81907	0.789
8.85902	0.796
8.89897	0.791
8.93891	0.803
8.97886	0.813
9.01881	0.813
9.05876	0.811
9.0987	0.809
9.13865	0.809
9.1786	0.809
9.21855	0.809
9.25849	0.809
9.29844	0.809
9.33839	0.809
9.37834	0.809
9.41828	0.811
9.45823	0.814
9.49818	0.813
9.53813	0.814
9.57807	0.813
9.61802	0.813
9.65797	0.816
9.69791	0.819
9.73786	0.824
9.77781	0.826
9.81776	0.829
9.8577	0.846
9.89765	0.851
9.9376	0.851
9.97755	0.853
10.0175	0.854
10.0574	0.856
10.0974	0.856
10.1373	0.846
10.1773	0.834
10.2172	0.813
10.2572	0.801
10.2971	0.792
10.3371	0.787
10.377	0.781
10.417	0.776
10.4569	0.771
10.4969	0.762
10.5368	0.782
10.5768	0.792
10.6167	0.809
10.6567	0.819
10.6966	0.826
10.7365	0.833
10.7765	0.851
10.8164	0.881
10.8564	0.889
10.8963	0.889
10.9363	0.904
10.9762	0.923
11.0162	0.926
11.0561	0.926
11.0961	0.931
11.136	0.929
11.176	0.931
11.2159	0.926
11.2559	0.934
11.2958	0.938
11.3358	0.949
11.3757	0.953
11.4157	0.954
11.4556	0.954
11.4956	0.954
11.5355	0.953
11.5754	0.936
11.6154	0.929
11.6553	0.923
11.6953	0.903
11.7352	0.888
11.7752	0.858
11.8151	0.839
11.8551	0.831
11.895	0.831
11.935	0.839
11.9749	0.851
12.0149	0.859
12.0548	0.868
12.0948	0.878
12.1347	0.913
12.1747	0.926
12.2146	0.939
12.2546	0.944
12.2945	0.948
12.3344	0.954
12.3744	0.964
12.4143	0.969
12.4543	0.966
12.4942	0.963
12.5342	0.956
12.5741	0.949
12.6141	0.939
12.654	0.929
12.694	0.918
12.7339	0.908
12.7739	0.896
12.8138	0.869
12.8538	0.849
12.8937	0.834
12.9337	0.804
12.9736	0.791
13.0136	0.759
13.0535	0.727
13.0935	0.711
13.1334	0.677
13.1733	0.646
13.2133	0.614
13.2532	0.57
13.2932	0.535
13.3331	0.492
13.3731	0.459
13.413	0.415
13.453	0.372
13.4929	0.323
13.5329	0.298
13.5728	0.265
13.6128	0.232
13.6527	0.2
13.6927	0.178
13.7326	0.161
13.7726	0.15
13.8125	0.131
13.8525	0.12
13.8924	0.123
13.9323	0.128
13.9723	0.131
14.0122	0.153
14.0522	0.168
14.0921	0.188
14.1321	0.198
14.172	0.227
14.212	0.252
14.2519	0.272
14.2919	0.303
14.3318	0.328
14.3718	0.357
14.4117	0.382
14.4517	0.415
14.4916	0.454
14.5316	0.479
14.5715	0.492
14.6115	0.517
14.6514	0.542
14.6913	0.56
14.7313	0.587
14.7712	0.597
14.8112	0.606
14.8511	0.611
14.8911	0.626
14.931	0.629
14.971	0.629
15.0109	0.611
15.0509	0.595
15.0908	0.592
15.1308	0.611
15.1707	0.636
15.2107	0.636
15.2506	0.637
15.2906	0.634
15.3305	0.631
15.3705	0.626
15.4104	0.617
15.4504	0.611
15.4903	0.607
15.5302	0.606
15.5702	0.602
15.6101	0.592
15.6501	0.582
15.69	0.562
15.73	0.554
15.7699	0.545
15.8099	0.534
15.8498	0.535
15.8898	0.515
15.9297	0.505
15.9697	0.495
