Infrared Spectrum: IRON OXIDE, BLACK
Formula: Fe2 O3
State: SOLID (0.8 mg / 300 mg CsI PELLET)
Class: COBLENTZ
Instrument: Not specified, most likely a grating spectrometer.
Sampling: TRANSMISSION
Resolution: 4
Origin: DESOTO CHEMICAL COATINGS, INC.
1/CM	TRANSMITTANCE
200	0.952
210.643	0.96
221.286	0.964
231.929	0.964
242.572	0.956
253.215	0.949
263.858	0.937
274.501	0.916
285.144	0.905
295.787	0.886
306.43	0.872
317.073	0.854
327.716	0.833
338.359	0.8
349.002	0.696
359.645	0.55
370.288	0.4601
380.931	0.402
391.574	0.378
402.218	0.369
412.861	0.374
423.504	0.394
434.147	0.416
444.79	0.43
455.433	0.45
466.076	0.473
476.719	0.494
487.362	0.51
498.005	0.522
508.648	0.54
519.291	0.55
529.934	0.538
540.577	0.496
551.22	0.396
561.863	0.25
572.506	0.176
583.149	0.153
593.792	0.153
604.435	0.169
615.078	0.19
625.721	0.212
636.364	0.232
647.007	0.253
657.65	0.29
668.293	0.308
678.936	0.321
689.579	0.334
700.222	0.345
710.865	0.357
721.508	0.377
732.151	0.39
742.794	0.404
753.437	0.421
764.08	0.43
774.723	0.433
785.367	0.434
796.01	0.434
806.653	0.436
817.296	0.43
827.939	0.429
838.582	0.426
849.225	0.424
859.868	0.417
870.511	0.413
881.154	0.405
891.797	0.401
902.44	0.394
913.083	0.392
923.726	0.396
934.369	0.393
945.012	0.392
955.655	0.393
966.298	0.386
976.941	0.385
987.584	0.38
998.227	0.376
1008.87	0.374
1019.51	0.368
1030.16	0.362
1040.8	0.358
1051.44	0.361
1062.09	0.357
1072.73	0.357
1083.37	0.354
1094.01	0.354
1104.66	0.353
1115.3	0.353
1125.94	0.352
1136.59	0.353
1147.23	0.357
1157.87	0.36
1168.52	0.356
1179.16	0.353
1189.8	0.353
1200.44	0.352
1211.09	0.35
1221.73	0.349
1232.37	0.346
1243.02	0.345
1253.66	0.341
1264.3	0.34
1274.95	0.337
1285.59	0.336
1296.23	0.33
1306.87	0.325
1317.52	0.321
1328.16	0.317
1338.8	0.31
1349.45	0.309
1360.09	0.302
1370.73	0.298
1381.38	0.294
1392.02	0.293
1402.66	0.286
1413.31	0.28
1423.95	0.274
1434.59	0.27
1445.23	0.266
1455.88	0.262
1466.52	0.26
1477.16	0.257
1487.81	0.253
1498.45	0.25
1509.09	0.244
1519.74	0.241
1530.38	0.237
1541.02	0.233
1551.66	0.23
1562.31	0.228
1572.95	0.22
1583.59	0.212
1594.24	0.206
1604.88	0.201
1615.52	0.194
1626.17	0.19
1636.81	0.19
1647.45	0.19
1658.09	0.189
1668.74	0.188
1679.38	0.185
1690.02	0.182
1700.67	0.182
1711.31	0.176
1721.95	0.173
1732.6	0.173
1743.24	0.172
1753.88	0.172
1764.53	0.166
1775.17	0.162
1785.81	0.161
1796.45	0.156
1807.1	0.153
1817.74	0.149
1828.38	0.149
1839.03	0.142
1849.67	0.137
1860.31	0.134
1870.96	0.134
1881.6	0.129
1892.24	0.129
1902.88	0.126
1913.53	0.124
1924.17	0.124
1934.81	0.12
1945.46	0.12
1956.1	0.118
1966.74	0.116
1977.39	0.116
1988.03	0.114
1998.67	0.112
2009.31	0.1095
2019.96	0.106
2030.6	0.1045
2041.24	0.1029
2051.89	0.101
2062.53	0.098
2073.17	0.097
2083.82	0.0947
2094.46	0.093
2105.1	0.0907
2115.74	0.0866
2126.39	0.0843
2137.03	0.084
2147.67	0.081
2158.32	0.0802
2168.96	0.078
2179.6	0.076
2190.25	0.0744
2200.89	0.0732
2211.53	0.073
2222.18	0.07
2232.82	0.0681
2243.46	0.066
2254.1	0.0678
2264.75	0.065
2275.39	0.061
2286.03	0.06
2296.68	0.061
2307.32	0.058
2317.96	0.057
2328.61	0.058
2339.25	0.058
2349.89	0.057
2360.53	0.056
2371.18	0.058
2381.82	0.0557
2392.46	0.0517
2403.11	0.0498
2413.75	0.049
2424.39	0.049
2435.04	0.048
2445.68	0.0435
2456.32	0.044
2466.96	0.0417
2477.61	0.04
2488.25	0.04
2498.89	0.04
2509.54	0.04
2520.18	0.038
2530.82	0.038
2541.47	0.0372
2552.11	0.036
2562.75	0.036
2573.4	0.0347
2584.04	0.0325
2594.68	0.0325
2605.32	0.032
2615.97	0.03
2626.61	0.0309
2637.25	0.0254
2647.9	0.026
2658.54	0.025
2669.18	0.024
2679.83	0.025
2690.47	0.0247
2701.11	0.026
2711.75	0.024
2722.4	0.025
2733.04	0.0203
2743.68	0.02
2754.33	0.0218
2764.97	0.0225
2775.61	0.02
2786.26	0.0172
2796.9	0.016
2807.54	0.018
2818.18	0.018
2828.83	0.0171
2839.47	0.017
2850.11	0.017
2860.76	0.016
2871.4	0.016
2882.04	0.013
2892.69	0.014
2903.33	0.014
2913.97	0.014
2924.61	0.013
2935.26	0.01
2945.9	0.014
2956.54	0.012
2967.19	0.0118
2977.83	0.01
2988.47	0.012
2999.12	0.012
3009.76	0.0128
3020.4	0.01
3031.05	0.01
3041.69	0.01
3052.33	0.01
3062.97	0.0097
3073.62	0.009
3084.26	0.009
3094.9	0.0087
3105.55	0.008
3116.19	0.008
3126.83	0.008
3137.48	0.008
3148.12	0.006
3158.76	0.005
3169.4	0.008
3180.05	0.0095
3190.69	0.005
3201.33	0.005
3211.98	0.005
3222.62	0.0055
3233.26	0.004
3243.91	0.0046
3254.55	0.004
3265.19	0.004
3275.83	0.004
3286.48	0.002
3297.12	0.002
3307.76	0.001
3318.41	0.001
3329.05	0.001
3339.69	0.001
3350.34	0.001
3360.98	0.001
3371.62	0.001
3382.27	0.001
3392.91	0.001
3403.55	0.001
3414.19	0.001
3424.84	0.001
3435.48	0.001
3446.12	0.001
3456.77	0.001
3467.41	0.001
3478.05	0.001
3488.7	0.001
3499.34	0.001
3509.98	0.001
3520.62	0.001
3531.27	0.001
3541.91	0.001
3552.55	0.001
3563.2	0.001
3573.84	0.001
3584.48	0.001
3595.13	0.001
3605.77	0.001
3616.41	0.001
3627.05	0.001
3637.7	0.001
3648.34	0.001
3658.98	0.001
3669.63	0.001
3680.27	0.001
3690.91	0.001
3701.56	0.001
3712.2	0.001
3722.84	0.001
3733.49	0.001
3744.13	0.001
3754.77	0.001
3765.41	0.001
3776.06	0.001
3786.7	0.001
3797.34	0.001
3807.99	0.001
3818.63	0.001
3829.27	0.001
3839.92	0.001
3850.56	0.001
3861.2	0.001
3871.84	0.001
3882.49	0.001
3893.13	0.001
3903.77	0.001
3914.42	0.001
3925.06	0.001
3935.7	0.001
3946.35	0.001
3956.99	0.001
3967.63	0.001
3978.27	0.001
3988.92	0.001
