Infrared Spectrum: ADENINE, N-[2-[[2-(p-TOLYLTHIO)ETHYL]THIO]ETHYL]-
Formula: C16 H19 N5 S2
State: SOLID (0.8 mg / 650 mg KBr DISC)
Class: COBLENTZ III
Instrument: PERKIN-ELMER 21 (GRATING)
Instrument parameters: FILTER CHANGE AT 1025 CM^-^1
Sampling: TRANSMISSION
Resolution: 2
Origin: SOUTHERN RESEARCH INSTITUTE
1/CM	TRANSMITTANCE
618.868	0.637
628.094	0.6281
637.319	0.6124
646.545	0.606
655.771	0.6046
664.996	0.5974
674.222	0.5833
683.448	0.6113
692.674	0.6244
701.899	0.625
711.125	0.625
720.351	0.625
729.576	0.625
738.802	0.625
748.028	0.625
757.253	0.6564
766.479	0.6745
775.705	0.679
784.931	0.6616
794.156	0.593
803.382	0.577
812.608	0.6245
821.833	0.6756
831.059	0.6647
840.285	0.6435
849.51	0.6473
858.736	0.653
867.962	0.661
877.188	0.674
886.413	0.6612
895.639	0.6286
904.865	0.5878
914.09	0.624
923.316	0.571
932.542	0.5592
941.767	0.727
950.993	0.7507
960.219	0.7626
969.444	0.765
978.67	0.7618
987.896	0.748
997.122	0.744
1006.35	0.744
1015.57	0.734
1024.8	0.7348
1034.02	0.736
1043.25	0.737
1052.48	0.743
1061.7	0.744
1070.93	0.7396
1080.15	0.7219
1089.38	0.6726
1098.6	0.6766
1107.83	0.6934
1117.06	0.6608
1126.28	0.644
1135.51	0.6213
1144.73	0.5322
1153.96	0.5713
1163.18	0.6177
1172.41	0.644
1181.64	0.6646
1190.86	0.6635
1200.09	0.6388
1209.31	0.6613
1218.54	0.661
1227.76	0.6363
1236.99	0.5964
1246.22	0.5509
1255.44	0.4831
1264.67	0.6089
1273.89	0.6816
1283.12	0.6638
1292.34	0.6334
1301.57	0.604
1310.8	0.627
1320.02	0.604
1329.25	0.4491
1338.47	0.5241
1347.7	0.4146
1356.92	0.5918
1366.15	0.6419
1375.38	0.646
1384.6	0.6442
1393.83	0.5612
1403.05	0.5839
1412.28	0.59
1421.5	0.5545
1430.73	0.5214
1439.96	0.561
1449.18	0.5563
1458.41	0.4973
1467.63	0.58
1476.86	0.5762
1486.08	0.5383
1495.31	0.5007
1504.53	0.62
1513.76	0.6577
1522.99	0.6582
1532.21	0.6502
1541.44	0.6249
1550.66	0.6089
1559.89	0.5552
1569.11	0.4539
1578.34	0.3976
1587.57	0.507
1596.79	0.441
1606.02	0.3637
1615.24	0.2937
1624.47	0.2165
1633.69	0.1977
1642.92	0.3314
1652.15	0.4857
1661.37	0.6392
1670.6	0.736
1679.82	0.7702
1689.05	0.789
1698.27	0.792
1707.5	0.7916
1716.73	0.7851
1725.95	0.7778
1735.18	0.777
1744.4	0.777
1753.63	0.777
1762.85	0.775
1772.08	0.7701
1781.31	0.769
1790.53	0.767
1799.76	0.767
1808.98	0.767
1818.21	0.767
1827.43	0.77
1836.66	0.77
1845.89	0.7716
1855.11	0.775
1864.34	0.774
1873.56	0.773
1882.79	0.773
1892.01	0.773
1901.24	0.7748
1910.47	0.777
1919.69	0.778
1928.92	0.778
1938.14	0.778
1947.37	0.778
1956.59	0.777
1965.82	0.775
1975.05	0.775
1984.27	0.774
1993.5	0.774
2002.72	0.773
2011.95	0.7709
2021.17	0.77
2030.4	0.7699
2039.63	0.7659
2048.85	0.762
2058.08	0.761
2067.3	0.76
2076.53	0.757
2085.75	0.756
2094.98	0.754
2104.21	0.753
2113.43	0.7519
2122.66	0.7479
2131.88	0.745
2141.11	0.7439
2150.33	0.741
2159.56	0.739
2168.79	0.7369
2178.01	0.734
2187.24	0.7309
2196.46	0.724
2205.69	0.719
2214.91	0.7149
2224.14	0.711
2233.36	0.707
2242.59	0.7049
2251.82	0.7
2261.04	0.6959
2270.27	0.6868
2279.49	0.6709
2288.72	0.668
2297.94	0.6609
2307.17	0.6509
2316.4	0.645
2325.62	0.642
2334.85	0.641
2344.07	0.64
2353.3	0.638
2362.52	0.638
2371.75	0.638
2380.98	0.6359
2390.2	0.631
2399.43	0.625
2408.65	0.623
2417.88	0.6199
2427.1	0.614
2436.33	0.6079
2445.56	0.599
2454.78	0.595
2464.01	0.5909
2473.23	0.585
2482.46	0.581
2491.68	0.572
2500.91	0.5669
2510.14	0.5599
2519.36	0.555
2528.59	0.555
2537.81	0.5508
2547.04	0.544
2556.26	0.543
2565.49	0.542
2574.72	0.542
2583.94	0.543
2593.17	0.544
2602.39	0.544
2611.62	0.544
2620.84	0.544
2630.07	0.544
2639.3	0.544
2648.52	0.544
2657.75	0.544
2666.97	0.544
2676.2	0.544
2685.42	0.544
2694.65	0.546
2703.88	0.546
2713.1	0.5459
2722.33	0.544
2731.55	0.543
2740.78	0.541
2750	0.5379
2759.23	0.531
2768.46	0.5311
2777.68	0.534
2786.91	0.537
2796.13	0.538
2805.36	0.539
2814.58	0.539
2823.81	0.539
2833.04	0.539
2842.26	0.539
2851.49	0.539
2860.71	0.539
2869.94	0.5379
2879.16	0.5329
2888.39	0.5239
2897.62	0.5089
2906.84	0.4829
2916.07	0.474
2925.29	0.475
2934.52	0.479
2943.74	0.4881
2952.97	0.496
2962.19	0.501
2971.42	0.505
2980.65	0.505
2989.87	0.505
2999.1	0.505
3008.32	0.505
3017.55	0.504
3026.77	0.5091
3036	0.5181
3045.23	0.5263
3054.45	0.538
3063.68	0.5431
3072.9	0.564
3082.13	0.569
3091.35	0.5731
3100.58	0.5781
3109.81	0.5779
3119.03	0.576
3128.26	0.573
3137.48	0.5668
3146.71	0.56
3155.93	0.5601
3165.16	0.564
3174.39	0.5671
3183.61	0.569
3192.84	0.572
3202.06	0.577
3211.29	0.5811
3220.51	0.5841
3229.74	0.588
3238.97	0.593
3248.19	0.5971
3257.42	0.6101
3266.64	0.615
3275.87	0.623
3285.09	0.6271
3294.32	0.631
3303.55	0.6331
3312.77	0.636
3322	0.638
3331.22	0.64
3340.45	0.641
3349.67	0.64
3358.9	0.6359
3368.13	0.631
3377.35	0.6228
3386.58	0.6119
3395.8	0.599
3405.03	0.5928
3414.25	0.5849
3423.48	0.581
3432.71	0.581
3441.93	0.58
3451.16	0.5801
3460.38	0.584
3469.61	0.5861
3478.83	0.591
3488.06	0.594
3497.29	0.599
3506.51	0.601
3515.74	0.606
3524.96	0.612
3534.19	0.6151
3543.41	0.6191
3552.64	0.6271
3561.87	0.632
3571.09	0.6341
3580.32	0.642
3589.54	0.6471
3598.77	0.659
3607.99	0.664
3617.22	0.6811
3626.45	0.6931
3635.67	0.7041
3644.9	0.7131
3654.12	0.7192
3663.35	0.728
3672.57	0.7309
3681.8	0.734
3691.03	0.734
3700.25	0.734
3709.48	0.735
3718.7	0.736
3727.93	0.736
3737.15	0.736
3746.38	0.736
3755.6	0.737
3764.83	0.736
3774.06	0.736
3783.28	0.737
3792.51	0.736
3801.73	0.737
3810.96	0.7371
3820.18	0.735
3829.41	0.7319
3838.64	0.7259
3847.86	0.722
3857.09	0.7191
3866.31	0.719
3875.54	0.717
3884.76	0.7169
3893.99	0.714
3903.22	0.7129
3912.44	0.711
3921.67	0.71
3930.89	0.71
3940.12	0.709
3949.34	0.709
3958.57	0.71
