Infrared Spectrum: N^6-Carboxy-L-lysine, N-benzyl methyl ester, hydrochloride
Formula: C15 H23 Cl N2 O4
State: SOLID (SPLIT MULL)
Class: COBLENTZ III
Instrument: DOW KBr FOREPRISM-GRATING
Instrument parameters: BLAZED AT 3.5, 12.0, 20.0 MICRON AND CHANGED AT 5.0, 7.5, 14.9 MICRON
Sampling: TRANSMISSION
Resolution: 2
Origin: DOW CHEMICAL COMPANY
1/CM	TRANSMITTANCE
3800	0.6468
3791	0.6476
3782	0.6486
3773	0.6496
3764	0.6506
3755	0.6515
3746	0.6525
3737	0.6536
3728	0.6551
3719	0.6568
3710	0.6583
3701	0.6599
3692	0.6615
3683	0.663
3674	0.6646
3665	0.6661
3656	0.6675
3647	0.6691
3638	0.6707
3629	0.6721
3620	0.6737
3611	0.6755
3602	0.6772
3593	0.6791
3584	0.681
3575	0.6826
3566	0.6841
3557	0.6855
3548	0.6868
3539	0.6883
3530	0.6897
3521	0.691
3512	0.6922
3503	0.6936
3494	0.6953
3485	0.6971
3476	0.6981
3467	0.6991
3458	0.7018
3449	0.7061
3440	0.7106
3431	0.7147
3422	0.7168
3413	0.7176
3404	0.7171
3395	0.7111
3386	0.6926
3377	0.6462
3368	0.5615
3359	0.3923
3350	0.2701
3341	0.3082
3332	0.3774
3323	0.4466
3314	0.5094
3305	0.5491
3296	0.5844
3287	0.615
3278	0.6401
3269	0.6568
3260	0.6715
3251	0.6806
3242	0.6876
3233	0.6942
3224	0.696
3215	0.6964
3206	0.6931
3197	0.6891
3188	0.6946
3179	0.7007
3170	0.7038
3161	0.7054
3152	0.7035
3143	0.6989
3134	0.6888
3125	0.6768
3116	0.6621
3107	0.6418
3098	0.6141
3089	0.5746
3080	0.5698
3071	0.5191
3062	0.4822
3053	0.4459
3044	0.411
3035	0.3641
3026	0.3559
3017	0.3539
3008	0.3376
2999	0.3218
2990	0.315
2981	0.3122
2972	0.3074
2963	0.2603
2954	0.2414
2945	0.2417
2936	0.2413
2927	0.248
2918	0.257
2909	0.2585
2900	0.2531
2891	0.2347
2882	0.208
2873	0.1912
2864	0.1869
2855	0.1862
2846	0.1953
2837	0.2112
2828	0.2278
2819	0.2539
2810	0.2796
2801	0.3094
2792	0.3297
2783	0.3479
2774	0.3642
2765	0.3829
2756	0.397
2747	0.4049
2738	0.414
2729	0.4303
2720	0.4491
2711	0.4656
2702	0.4793
2693	0.4919
2684	0.502
2675	0.51
2666	0.5084
2657	0.5092
2648	0.4941
2639	0.4735
2630	0.4636
2621	0.4692
2612	0.4885
2603	0.509
2594	0.5278
2585	0.5366
2576	0.5424
2567	0.5522
2558	0.5655
2549	0.5794
2540	0.5943
2531	0.6091
2522	0.6203
2513	0.627
2504	0.6312
2495	0.6337
2486	0.638
2477	0.6435
2468	0.6495
2459	0.6541
2450	0.6587
2441	0.6631
2432	0.6674
2423	0.6712
2414	0.6739
2405	0.6765
2396	0.6786
2387	0.6811
2378	0.6822
2369	0.6798
2360	0.6778
2351	0.6767
2342	0.6765
2333	0.6765
2324	0.6815
2315	0.6875
2306	0.6924
2297	0.6971
2288	0.7018
2279	0.7064
2270	0.7114
2261	0.7187
2252	0.726
2243	0.7326
2234	0.7395
2225	0.7451
2216	0.7487
2207	0.7522
2198	0.7558
2189	0.7596
2180	0.7636
2171	0.7675
2162	0.7717
2153	0.7757
2144	0.7787
2135	0.7808
2126	0.783
2117	0.7847
2108	0.7861
2099	0.7875
2090	0.7892
2081	0.7908
2072	0.7928
2063	0.7925
2054	0.7888
2045	0.7843
2036	0.7786
2027	0.7718
2018	0.7678
2009	0.7638
2000	0.7736
1991	0.7828
1982	0.7892
1973	0.7957
1964	0.8097
1955	0.8214
1946	0.8277
1937	0.8342
1928	0.8388
1919	0.8431
1910	0.8471
1901	0.8505
1892	0.8525
1883	0.8564
1874	0.859
1865	0.8521
1856	0.8583
1847	0.8655
1838	0.8691
1829	0.8718
1820	0.8727
1811	0.8703
1802	0.868
1793	0.8701
1784	0.8742
1775	0.8786
1766	0.8811
1757	0.8691
1748	0.6059
1739	0.1972
1730	0.2421
1721	0.635
1712	0.6704
1703	0.2471
1694	0.0779
1685	0.1984
1676	0.4943
1667	0.6078
1658	0.6369
1649	0.6971
1640	0.7346
1631	0.7595
1622	0.7707
1613	0.7837
1604	0.7758
1595	0.7115
1586	0.5754
1577	0.6565
1568	0.6983
1559	0.6158
1550	0.2945
1541	0.1735
1532	0.252
1523	0.3339
1514	0.3446
1505	0.2994
1496	0.434
1487	0.5646
1478	0.5395
1469	0.6327
1460	0.4587
1451	0.4687
1442	0.5937
1433	0.5069
1424	0.6495
1415	0.6798
1406	0.6786
1397	0.637
1388	0.6799
1379	0.69
1370	0.659
1361	0.6642
1352	0.5445
1343	0.5367
1334	0.5538
1325	0.4499
1316	0.5789
1307	0.5141
1298	0.435
1289	0.411
1280	0.1385
1271	0.3464
1262	0.1941
1253	0.0688
1244	0.1277
1235	0.2764
1226	0.4655
1217	0.5828
1208	0.5612
1199	0.4964
1190	0.6146
1181	0.6438
1172	0.6484
1163	0.6104
1154	0.5531
1145	0.5554
1136	0.606
1127	0.7046
1118	0.6443
1109	0.6985
1100	0.7635
1091	0.7778
1082	0.7318
1073	0.7542
1064	0.7401
1055	0.7075
1046	0.5939
1037	0.7308
1028	0.6545
1019	0.5188
1010	0.5539
1001	0.6365
992	0.7522
983	0.7683
974	0.7682
965	0.7454
956	0.8057
947	0.8183
938	0.7593
929	0.7668
920	0.8248
911	0.8327
902	0.7614
893	0.8024
884	0.8494
875	0.8602
866	0.8621
857	0.8457
848	0.7261
839	0.8145
830	0.8474
821	0.857
812	0.8141
803	0.8297
794	0.8588
785	0.7378
776	0.7211
767	0.8201
758	0.7857
749	0.6914
740	0.4357
731	0.5784
722	0.6991
713	0.8126
704	0.775
695	0.7124
686	0.8837
677	0.8932
668	0.8881
659	0.8737
650	0.8431
641	0.8473
632	0.8431
623	0.8271
614	0.8067
605	0.7847
596	0.7638
587	0.7421
578	0.7186
569	0.7826
560	0.7962
551	0.8169
542	0.7801
533	0.8437
524	0.8721
515	0.8913
506	0.9023
497	0.9095
488	0.9148
479	0.9167
470	0.8768
461	0.8628
452	0.8613
443	0.922
434	0.9311
425	0.9318
416	0.9323
407	0.9354
398	0.9384
389	0.9427
