Infrared Spectrum: FERROCENE
Formula: C10 H10 Fe
State: SOLID (MINERAL OIL MULL)
Class: COBLENTZ
Instrument: Not specified, most likely a prism, grating, or hybrid spectrometer.
Sampling: TRANSMISSION
Resolution: 4
Origin: WYANDOTTE CHEMICALS CORP., WYANDOTTE, MICHIGAN, USA
MICROMETERS	TRANSMITTANCE
2.023	0.328
2.06289	0.333
2.10278	0.336
2.14267	0.331
2.18257	0.34
2.22246	0.341
2.26235	0.341
2.30224	0.353
2.34213	0.351
2.38202	0.346
2.42191	0.358
2.4618	0.361
2.5017	0.35
2.54159	0.353
2.58148	0.366
2.62137	0.385
2.66126	0.4
2.70115	0.403
2.74104	0.403
2.78093	0.4
2.82083	0.398
2.86072	0.401
2.90061	0.388
2.9405	0.386
2.98039	0.391
3.02028	0.39
3.06017	0.388
3.10006	0.398
3.13996	0.398
3.17985	0.385
3.21974	0.363
3.25963	0.273
3.29952	0.33
3.33941	0.238
3.3793	0.055
3.4192	0.031
3.45909	0.051
3.49898	0.075
3.53887	0.176
3.57876	0.508
3.61865	0.583
3.65854	0.588
3.69843	0.578
3.73833	0.573
3.77822	0.585
3.81811	0.591
3.858	0.598
3.89789	0.605
3.93778	0.61
3.97767	0.621
4.01756	0.63
4.05746	0.638
4.09735	0.636
4.13724	0.635
4.17713	0.64
4.21702	0.643
4.25691	0.645
4.2968	0.643
4.33669	0.643
4.37659	0.646
4.41648	0.668
4.45637	0.68
4.49626	0.683
4.53615	0.668
4.57604	0.68
4.61593	0.695
4.65583	0.703
4.69572	0.71
4.73561	0.72
4.7755	0.725
4.81539	0.73
4.85528	0.733
4.89517	0.736
4.93506	0.733
4.97496	0.748
5.01485	0.751
5.05474	0.751
5.09463	0.758
5.13452	0.761
5.17441	0.765
5.2143	0.768
5.25419	0.771
5.29409	0.776
5.33398	0.785
5.37387	0.783
5.41376	0.8
5.45365	0.796
5.49354	0.8
5.53343	0.81
5.57332	0.8
5.61322	0.75
5.65311	0.686
5.693	0.7
5.73289	0.696
5.77278	0.663
5.81267	0.648
5.85256	0.633
5.89246	0.625
5.93235	0.623
5.97224	0.625
6.01213	0.618
6.05202	0.591
6.09191	0.581
6.1318	0.603
6.17169	0.67
6.21159	0.683
6.25148	0.696
6.29137	0.703
6.33126	0.723
6.37115	0.721
6.41104	0.77
6.45093	0.756
6.49082	0.776
6.53072	0.763
6.57061	0.755
6.6105	0.735
6.65039	0.693
6.69028	0.613
6.73017	0.488
6.77006	0.246
6.80995	0.193
6.84985	0.241
6.88974	0.34
6.92963	0.461
6.96952	0.595
7.00941	0.641
7.0493	0.481
7.08919	0.388
7.12909	0.551
7.16898	0.631
7.20887	0.458
7.24876	0.38
7.28865	0.556
7.32854	0.651
7.36843	0.695
7.40832	0.72
7.44822	0.728
7.48811	0.755
7.528	0.798
7.56789	0.8
7.60778	0.801
7.64767	0.798
7.68756	0.813
7.72745	0.815
7.76735	0.828
7.80724	0.826
7.84713	0.816
7.88702	0.771
7.92691	0.721
7.9668	0.775
8.00669	0.826
8.04658	0.836
8.08648	0.84
8.12637	0.828
8.16626	0.863
8.20615	0.87
8.24604	0.885
8.28593	0.896
8.32582	0.906
8.36572	0.886
8.40561	0.866
8.4455	0.901
8.48539	0.901
8.52528	0.893
8.56517	0.898
8.60506	0.906
8.64495	0.915
8.68485	0.921
8.72474	0.946
8.76463	0.956
8.80452	0.963
8.84441	0.965
8.8843	0.951
8.92419	0.921
8.96408	0.71
9.00398	0.101
9.04387	0.458
9.08376	0.571
9.12365	0.683
9.16354	0.718
9.20343	0.741
9.24332	0.751
9.28321	0.753
9.32311	0.753
9.363	0.746
9.40289	0.725
9.44278	0.716
9.48267	0.716
9.52256	0.701
9.56245	0.703
9.60235	0.688
9.64224	0.73
9.68213	0.738
9.72202	0.71
9.76191	0.68
9.8018	0.693
9.84169	0.641
9.88158	0.456
9.92148	0.185
9.96137	0.071
10.0013	0.23
10.0411	0.425
10.081	0.595
10.1209	0.675
10.1608	0.745
10.2007	0.781
10.2406	0.805
10.2805	0.831
10.3204	0.851
10.3603	0.868
10.4002	0.876
10.4401	0.888
10.48	0.895
10.5198	0.903
10.5597	0.911
10.5996	0.915
10.6395	0.92
10.6794	0.925
10.7193	0.925
10.7592	0.925
10.7991	0.93
10.839	0.913
10.8789	0.92
10.9188	0.935
10.9586	0.945
10.9985	0.951
11.0384	0.96
11.0783	0.958
11.1182	0.951
11.1581	0.946
11.198	0.94
11.2379	0.93
11.2778	0.921
11.3177	0.893
11.3576	0.868
11.3975	0.881
11.4373	0.901
11.4772	0.896
11.5171	0.885
11.557	0.873
11.5969	0.848
11.6368	0.82
11.6767	0.785
11.7166	0.75
11.7565	0.753
11.7964	0.77
11.8363	0.768
11.8761	0.748
11.916	0.755
11.9559	0.755
11.9958	0.733
12.0357	0.663
12.0756	0.538
12.1155	0.385
12.1554	0.203
12.1953	0.081
12.2352	0.043
12.2751	0.038
12.315	0.065
12.3548	0.148
12.3947	0.261
12.4346	0.368
12.4745	0.443
12.5144	0.495
12.5543	0.511
12.5942	0.52
12.6341	0.503
12.674	0.478
12.7139	0.493
12.7538	0.523
12.7936	0.595
12.8335	0.688
12.8734	0.745
12.9133	0.793
12.9532	0.826
12.9931	0.851
13.033	0.875
13.0729	0.895
13.1128	0.903
13.1527	0.913
13.1926	0.923
13.2325	0.926
13.2723	0.938
13.3122	0.945
13.3521	0.955
13.392	0.968
13.4319	0.956
13.4718	0.953
13.5117	0.951
13.5516	0.941
13.5915	0.943
13.6314	0.948
13.6713	0.953
13.7111	0.961
13.751	0.97
13.7909	0.965
13.8308	0.97
13.8707	0.961
13.9106	0.981
13.9505	0.995
13.9904	1.001
14.0303	1.005
14.0702	1.006
14.1101	1.005
14.15	1.003
14.1898	1.003
14.2297	1.003
14.2696	1.003
14.3095	1.003
14.3494	1.003
14.3893	1.003
14.4292	1.003
14.4691	1.003
14.509	1.001
14.5489	1.001
14.5888	1
14.6286	0.995
14.6685	0.993
14.7084	0.988
14.7483	0.988
14.7882	0.985
14.8281	0.98
14.868	0.976
14.9079	0.971
14.9478	0.955
14.9877	0.923
15.0276	0.861
15.0675	0.841
15.1073	0.863
15.1472	0.895
15.1871	0.911
15.227	0.913
15.2669	0.898
15.3068	0.89
15.3467	0.886
15.3866	0.873
15.4265	0.866
15.4664	0.851
15.5063	0.838
15.5461	0.835
15.586	0.828
15.6259	0.816
15.6658	0.805
15.7057	0.791
15.7456	0.771
15.7855	0.755
15.8254	0.745
15.8653	0.73
15.9052	0.718
15.9451	0.706
15.985	0.68
