Infrared Spectrum: Imidazole, 4-(4-methylpiperidinoCarbonyl)-5-nitro-
Formula: C10 H14 N4 O3
State: SOLID (1 mg / 650 mg KBr DISC)
Class: COBLENTZ III
Instrument: PERKIN-ELMER 221 (GRATING)
Instrument parameters: FILTER AT 2490, 980 CM^-^1. GRATING 4000-1428 CM^-^1, NaCl PRISM 1428-650 CM^-^1
Sampling: TRANSMISSION
Resolution: 2
Origin: SOUTHERN RESEARCH INSTITUTE
1/CM	TRANSMITTANCE
644	0.8309
653	0.9274
662	0.9178
671	0.9108
680	0.9626
689	0.958
698	0.9458
707	0.9456
716	0.9746
725	0.9693
734	0.9319
743	0.8907
752	0.9764
761	0.9727
770	0.8635
779	0.9771
788	0.9774
797	0.9655
806	0.9364
815	0.8272
824	0.803
833	0.9189
842	0.8433
851	0.7762
860	0.909
869	0.8467
878	0.9314
887	0.9307
896	0.9202
905	0.9012
914	0.8833
923	0.8647
932	0.8385
941	0.8054
950	0.7347
959	0.6355
968	0.4174
977	0.7923
986	0.9246
995	0.9294
1004	0.8966
1013	0.8698
1022	0.9309
1031	0.9272
1040	0.896
1049	0.8937
1058	0.9098
1067	0.8927
1076	0.7418
1085	0.8432
1094	0.9104
1103	0.9185
1112	0.9091
1121	0.8995
1130	0.9024
1139	0.908
1148	0.894
1157	0.8739
1166	0.8753
1175	0.9077
1184	0.901
1193	0.8689
1202	0.7772
1211	0.6577
1220	0.7176
1229	0.7506
1238	0.5673
1247	0.6336
1256	0.7807
1265	0.6449
1274	0.7734
1283	0.7937
1292	0.8294
1301	0.6979
1310	0.747
1319	0.8135
1328	0.7771
1337	0.7666
1346	0.6218
1355	0.3332
1364	0.3012
1373	0.6096
1382	0.7865
1391	0.8355
1400	0.8332
1409	0.7681
1418	0.695
1427	0.6149
1436	0.486
1445	0.3905
1454	0.4204
1463	0.4519
1472	0.522
1481	0.5578
1490	0.5272
1499	0.5498
1508	0.3465
1517	0.3156
1526	0.5158
1535	0.7526
1544	0.8574
1553	0.8761
1562	0.8733
1571	0.8554
1580	0.8177
1589	0.7364
1598	0.7415
1607	0.7195
1616	0.5387
1625	0.3278
1634	0.2814
1643	0.3941
1652	0.4049
1661	0.3921
1670	0.5762
1679	0.7236
1688	0.7809
1697	0.8149
1706	0.8388
1715	0.8524
1724	0.8575
1733	0.8566
1742	0.8633
1751	0.877
1760	0.8815
1769	0.8823
1778	0.8817
1787	0.8794
1796	0.8754
1805	0.8713
1814	0.8687
1823	0.8676
1832	0.8681
1841	0.8706
1850	0.8733
1859	0.8758
1868	0.8783
1877	0.8808
1886	0.8844
1895	0.8885
1904	0.8927
1913	0.8975
1922	0.9024
1931	0.907
1940	0.911
1949	0.915
1958	0.9189
1967	0.9221
1976	0.9253
1985	0.9273
1994	0.9293
2003	0.9306
2012	0.9317
2021	0.9329
2030	0.9337
2039	0.9339
2048	0.934
2057	0.934
2066	0.9338
2075	0.9333
2084	0.9316
2093	0.9299
2102	0.9275
2111	0.9236
2120	0.9217
2129	0.922
2138	0.9203
2147	0.9183
2156	0.9154
2165	0.9126
2174	0.9097
2183	0.9068
2192	0.9042
2201	0.9018
2210	0.8995
2219	0.8971
2228	0.8941
2237	0.8908
2246	0.8875
2255	0.8842
2264	0.8807
2273	0.877
2282	0.8732
2291	0.869
2300	0.8635
2309	0.8579
2318	0.8508
2327	0.8431
2336	0.8353
2345	0.828
2354	0.8183
2363	0.8087
2372	0.8038
2381	0.7999
2390	0.797
2399	0.7918
2408	0.7842
2417	0.776
2426	0.7668
2435	0.7586
2444	0.7506
2453	0.7424
2462	0.7341
2471	0.7267
2480	0.7216
2489	0.7058
2498	0.6898
2507	0.6812
2516	0.6745
2525	0.6678
2534	0.6622
2543	0.6552
2552	0.6472
2561	0.6391
2570	0.6352
2579	0.6313
2588	0.6288
2597	0.6276
2606	0.6273
2615	0.6271
2624	0.6272
2633	0.6275
2642	0.6281
2651	0.6286
2660	0.6295
2669	0.6299
2678	0.6302
2687	0.6293
2696	0.628
2705	0.6258
2714	0.6234
2723	0.621
2732	0.6182
2741	0.6153
2750	0.6117
2759	0.608
2768	0.6043
2777	0.6009
2786	0.5989
2795	0.5992
2804	0.6018
2813	0.6068
2822	0.6113
2831	0.6177
2840	0.6087
2849	0.5883
2858	0.5845
2867	0.5701
2876	0.5874
2885	0.6011
2894	0.5953
2903	0.5809
2912	0.5501
2921	0.5072
2930	0.4984
2939	0.4994
2948	0.5008
2957	0.5028
2966	0.5154
2975	0.5582
2984	0.6179
2993	0.6395
3002	0.6544
3011	0.6918
3020	0.6993
3029	0.701
3038	0.703
3047	0.7053
3056	0.7078
3065	0.7132
3074	0.7209
3083	0.7283
3092	0.7346
3101	0.7388
3110	0.7418
3119	0.7441
3128	0.7441
3137	0.7451
3146	0.752
3155	0.764
3164	0.7837
3173	0.7953
3182	0.8009
3191	0.804
3200	0.8062
3209	0.808
3218	0.8092
3227	0.8094
3236	0.8093
3245	0.8089
3254	0.8083
3263	0.8076
3272	0.8071
3281	0.8066
3290	0.8061
3299	0.8055
3308	0.804
3317	0.8017
3326	0.7974
3335	0.791
3344	0.7829
3353	0.7753
3362	0.7705
3371	0.7661
3380	0.7579
3389	0.7545
3398	0.7464
3407	0.737
3416	0.7307
3425	0.7283
3434	0.7288
3443	0.7292
3452	0.7315
3461	0.7344
3470	0.7378
3479	0.7411
3488	0.7454
3497	0.7498
3506	0.7542
3515	0.7587
3524	0.7631
3533	0.7678
3542	0.774
3551	0.7808
3560	0.7887
3569	0.7993
3578	0.8098
3587	0.8199
3596	0.826
3605	0.8313
3614	0.8367
3623	0.8417
3632	0.8464
3641	0.8485
3650	0.8505
3659	0.8521
3668	0.8526
3677	0.8532
3686	0.8537
3695	0.8543
3704	0.8551
3713	0.856
3722	0.8569
3731	0.8566
3740	0.8563
3749	0.8561
3758	0.8559
3767	0.8557
3776	0.8555
3785	0.855
3794	0.8541
3803	0.8533
3812	0.8523
3821	0.8512
3830	0.8501
3839	0.8485
3848	0.8469
3857	0.8454
3866	0.8437
3875	0.842
3884	0.8403
3893	0.8388
3902	0.8381
3911	0.8373
3920	0.8365
3929	0.8363
3938	0.8361
3947	0.8365
3956	0.8374
3965	0.8383
3974	0.839
3983	0.8408
3992	0.8428
