Infrared Spectrum: 1,1'-BIS(1,1-DIMETHYL-3,3,3-TRIPHENYL DI-SILOXANYL) FERROCENE
Formula: C50 H50 Fe O2 Si4
State: SOLID (MINERAL OIL MULL)
Class: COBLENTZ
Instrument: Not specified, most likely a prism, grating, or hybrid spectrometer.
Sampling: TRANSMISSION
Resolution: 4
Origin: WYANDOTTE CHEMICALS CORP., WYANDOTTE, MICHIGAN, USA
MICROMETERS	TRANSMITTANCE
2.027	0.737
2.06683	0.742
2.10666	0.749
2.14649	0.752
2.18631	0.747
2.22614	0.747
2.26597	0.755
2.3058	0.759
2.34563	0.757
2.38546	0.767
2.42529	0.782
2.46511	0.789
2.50494	0.79
2.54477	0.8
2.5846	0.799
2.62443	0.808
2.66426	0.815
2.70409	0.82
2.74391	0.823
2.78374	0.825
2.82357	0.822
2.8634	0.82
2.90323	0.82
2.94306	0.818
2.98289	0.818
3.02271	0.818
3.06254	0.818
3.10237	0.805
3.1422	0.789
3.18203	0.765
3.22186	0.641
3.26169	0.569
3.30152	0.503
3.34134	0.111
3.38117	0.049
3.421	0.109
3.46083	0.174
3.50066	0.269
3.54049	0.74
3.58032	0.828
3.62014	0.87
3.65997	0.862
3.6998	0.865
3.73963	0.875
3.77946	0.888
3.81929	0.898
3.85912	0.903
3.89894	0.915
3.93877	0.925
3.9786	0.925
4.01843	0.931
4.05826	0.933
4.09809	0.936
4.13792	0.936
4.17774	0.936
4.21757	0.931
4.2574	0.916
4.29723	0.925
4.33706	0.926
4.37689	0.951
4.41672	0.956
4.45654	0.956
4.49637	0.956
4.5362	0.955
4.57603	0.955
4.61586	0.961
4.65569	0.961
4.69552	0.965
4.73534	0.97
4.77517	0.973
4.815	0.975
4.85483	0.973
4.89466	0.973
4.93449	0.976
4.97432	0.978
5.01414	0.978
5.05397	0.971
5.0938	0.955
5.13363	0.928
5.17346	0.948
5.21329	0.973
5.25312	0.961
5.29295	0.92
5.33277	0.933
5.3726	0.965
5.41243	0.971
5.45226	0.96
5.49209	0.915
5.53192	0.955
5.57175	0.971
5.61157	0.948
5.6514	0.916
5.69123	0.931
5.73106	0.938
5.77089	0.931
5.81072	0.892
5.85055	0.9
5.89037	0.91
5.9302	0.906
5.97003	0.87
6.00986	0.833
6.04969	0.858
6.08952	0.863
6.12935	0.833
6.16917	0.817
6.209	0.822
6.24883	0.775
6.28866	0.897
6.32849	0.875
6.36832	0.913
6.40815	0.93
6.44797	0.931
6.4878	0.935
6.52763	0.928
6.56746	0.93
6.60729	0.923
6.64712	0.892
6.68695	0.672
6.72677	0.73
6.7666	0.488
6.80643	0.4
6.84626	0.463
6.88609	0.568
6.92592	0.612
6.96575	0.224
7.00557	0.485
7.0454	0.77
7.08523	0.789
7.12506	0.802
7.16489	0.795
7.20472	0.546
7.24455	0.524
7.28438	0.631
7.3242	0.709
7.36403	0.79
7.40386	0.815
7.44369	0.848
7.48352	0.843
7.52335	0.858
7.56318	0.81
7.603	0.77
7.64283	0.77
7.68266	0.79
7.72249	0.845
7.76232	0.863
7.80215	0.867
7.84198	0.842
7.8818	0.735
7.92163	0.428
7.96146	0.275
8.00129	0.368
8.04112	0.757
8.08095	0.832
8.12078	0.853
8.1606	0.852
8.20043	0.857
8.24026	0.875
8.28009	0.88
8.31992	0.878
8.35975	0.845
8.39958	0.588
8.4394	0.538
8.47923	0.649
8.51906	0.358
8.55889	0.388
8.59872	0.7
8.63855	0.73
8.67838	0.747
8.7182	0.712
8.75803	0.692
8.79786	0.684
8.83769	0.619
8.87752	0.495
8.91735	0.114
8.95718	0.058
8.997	0.064
9.03683	0.333
9.07666	0.551
9.11649	0.481
9.15632	0.382
9.19615	0.325
9.23598	0.196
9.2758	0.083
9.31563	0.034
9.35546	0.029
9.39529	0.038
9.43512	0.064
9.47495	0.096
9.51478	0.189
9.55461	0.315
9.59443	0.345
9.63426	0.214
9.67409	0.343
9.71392	0.294
9.75375	0.338
9.79358	0.533
9.83341	0.604
9.87323	0.677
9.91306	0.737
9.95289	0.77
9.99272	0.598
10.0325	0.584
10.0724	0.772
10.1122	0.789
10.152	0.803
10.1919	0.83
10.2317	0.837
10.2715	0.837
10.3113	0.85
10.3512	0.865
10.391	0.873
10.4308	0.88
10.4707	0.882
10.5105	0.882
10.5503	0.882
10.5901	0.888
10.63	0.89
10.6698	0.892
10.7096	0.892
10.7495	0.893
10.7893	0.898
10.8291	0.897
10.8689	0.893
10.9088	0.88
10.9486	0.875
10.9884	0.892
11.0283	0.882
11.0681	0.857
11.1079	0.833
11.1477	0.813
11.1876	0.71
11.2274	0.679
11.2672	0.797
11.3071	0.84
11.3469	0.867
11.3867	0.877
11.4265	0.868
11.4664	0.749
11.5062	0.586
11.546	0.754
11.5859	0.805
11.6257	0.82
11.6655	0.815
11.7053	0.81
11.7452	0.792
11.785	0.787
11.8248	0.789
11.8647	0.754
11.9045	0.704
11.9443	0.692
11.9841	0.699
12.024	0.682
12.0638	0.601
12.1036	0.488
12.1435	0.297
12.1833	0.152
12.2231	0.151
12.2629	0.172
12.3028	0.162
12.3426	0.149
12.3824	0.179
12.4223	0.255
12.4621	0.375
12.5019	0.456
12.5418	0.514
12.5816	0.508
12.6214	0.455
12.6612	0.312
12.7011	0.119
12.7409	0.086
12.7807	0.202
12.8206	0.368
12.8604	0.531
12.9002	0.627
12.94	0.712
12.9799	0.762
13.0197	0.799
13.0595	0.807
13.0994	0.82
13.1392	0.823
13.179	0.827
13.2188	0.822
13.2587	0.805
13.2985	0.75
13.3383	0.607
13.3782	0.496
13.418	0.392
13.4578	0.436
13.4976	0.493
13.5375	0.468
13.5773	0.546
13.6171	0.689
13.657	0.764
13.6968	0.792
13.7366	0.803
13.7764	0.802
13.8163	0.785
13.8561	0.755
13.8959	0.72
13.9358	0.626
13.9756	0.503
14.0154	0.328
14.0552	0.129
14.0951	0.068
14.1349	0.074
14.1747	0.122
14.2146	0.196
14.2544	0.212
14.2942	0.152
14.334	0.109
14.3739	0.098
14.4137	0.151
14.4535	0.272
14.4934	0.435
14.5332	0.588
14.573	0.661
14.6128	0.707
14.6527	0.729
14.6925	0.752
14.7323	0.76
14.7722	0.764
14.812	0.755
14.8518	0.737
14.8916	0.681
14.9315	0.616
14.9713	0.568
15.0111	0.568
15.051	0.602
15.0908	0.684
15.1306	0.754
15.1704	0.794
15.2103	0.805
15.2501	0.813
15.2899	0.817
15.3298	0.808
15.3696	0.808
15.4094	0.803
15.4492	0.799
15.4891	0.787
15.5289	0.787
15.5687	0.78
15.6086	0.779
15.6484	0.77
15.6882	0.764
15.728	0.755
15.7679	0.747
15.8077	0.74
15.8475	0.729
15.8874	0.714
15.9272	0.696
15.967	0.671
