Infrared Spectrum: 1-CYANO-6(OR 8)-METHYL-2,3-PHTHALOYL-PYRROCOLINE
Formula: C18 H10 N2 O2
State: SOLID (KBr PRESSING)
Melting point: 278 C
Class: COBLENTZ
Instrument: Not specified, most likely a prism, grating, or hybrid spectrometer.
Sampling: TRANSMISSION
Resolution: 4
Origin: EASTMAN KODAK COMPANY, RESEARCH LABORATORIES, ROCHESTER, N.Y.
MICROMETERS	TRANSMITTANCE
2.013	0.483
2.05298	0.488
2.09296	0.491
2.13295	0.493
2.17293	0.5
2.21291	0.506
2.25289	0.509
2.29287	0.511
2.33286	0.518
2.37284	0.522
2.41282	0.527
2.4528	0.532
2.49278	0.536
2.53276	0.542
2.57275	0.549
2.61273	0.555
2.65271	0.562
2.69269	0.567
2.73267	0.568
2.77266	0.567
2.81264	0.554
2.85262	0.536
2.8926	0.522
2.93258	0.516
2.97257	0.526
3.01255	0.56
3.05253	0.57
3.09251	0.575
3.13249	0.583
3.17247	0.591
3.21246	0.588
3.25244	0.542
3.29242	0.554
3.3324	0.578
3.37238	0.59
3.41237	0.6
3.45235	0.59
3.49233	0.609
3.53231	0.618
3.57229	0.642
3.61228	0.645
3.65226	0.65
3.69224	0.655
3.73222	0.66
3.7722	0.665
3.81219	0.668
3.85217	0.67
3.89215	0.678
3.93213	0.686
3.97211	0.691
4.01209	0.696
4.05208	0.7
4.09206	0.7
4.13204	0.711
4.17202	0.716
4.212	0.719
4.25199	0.719
4.29197	0.719
4.33195	0.719
4.37193	0.731
4.41191	0.747
4.4519	0.731
4.49188	0.542
4.53186	0.704
4.57184	0.731
4.61182	0.742
4.65181	0.752
4.69179	0.755
4.73177	0.76
4.77175	0.763
4.81173	0.768
4.85171	0.77
4.8917	0.772
4.93168	0.777
4.97166	0.778
5.01164	0.778
5.05162	0.78
5.09161	0.778
5.13159	0.778
5.17157	0.778
5.21155	0.78
5.25153	0.788
5.29152	0.793
5.3315	0.793
5.37148	0.795
5.41146	0.8
5.45144	0.803
5.49142	0.804
5.53141	0.809
5.57139	0.809
5.61137	0.809
5.65135	0.811
5.69133	0.809
5.73132	0.809
5.7713	0.809
5.81128	0.809
5.85126	0.809
5.89124	0.808
5.93123	0.783
5.97121	0.554
6.01119	0.218
6.05117	0.322
6.09115	0.201
6.13114	0.277
6.17112	0.457
6.2111	0.57
6.25108	0.57
6.29106	0.326
6.33104	0.381
6.37103	0.508
6.41101	0.606
6.45099	0.632
6.49097	0.655
6.53095	0.65
6.57094	0.572
6.61092	0.409
6.6509	0.321
6.69088	0.291
6.73086	0.421
6.77085	0.539
6.81083	0.518
6.85081	0.572
6.89079	0.596
6.93077	0.618
6.97076	0.659
7.01074	0.67
7.05072	0.681
7.0907	0.68
7.13068	0.655
7.17066	0.55
7.21065	0.414
7.25063	0.29
7.29061	0.459
7.33059	0.626
7.37057	0.711
7.41056	0.722
7.45054	0.75
7.49052	0.677
7.5305	0.66
7.57048	0.711
7.61047	0.632
7.65045	0.568
7.69043	0.603
7.73041	0.552
7.77039	0.47
7.81037	0.632
7.85036	0.721
7.89034	0.734
7.93032	0.636
7.9703	0.46
8.01028	0.472
8.05027	0.091
8.09025	0.104
8.13023	0.144
8.17021	0.244
8.21019	0.555
8.25018	0.647
8.29016	0.709
8.33014	0.724
8.37012	0.742
8.4101	0.752
8.45009	0.749
8.49007	0.755
8.53005	0.75
8.57003	0.581
8.61001	0.608
8.64999	0.655
8.68998	0.616
8.72996	0.54
8.76994	0.665
8.80992	0.736
8.8499	0.752
8.88989	0.78
8.92987	0.76
8.96985	0.744
9.00983	0.775
9.04981	0.796
9.0898	0.816
9.12978	0.819
9.16976	0.795
9.20974	0.747
9.24972	0.768
9.28971	0.795
9.32969	0.801
9.36967	0.809
9.40965	0.795
9.44963	0.652
9.48961	0.663
9.5296	0.749
9.56958	0.78
9.60956	0.772
9.64954	0.755
9.68952	0.765
9.72951	0.767
9.76949	0.777
9.80947	0.785
9.84945	0.744
9.88943	0.693
9.92942	0.719
9.9694	0.773
10.0094	0.795
10.0494	0.806
10.0893	0.809
10.1293	0.816
10.1693	0.795
10.2093	0.644
10.2493	0.46
10.2893	0.568
10.3292	0.714
10.3692	0.77
10.4092	0.786
10.4492	0.796
10.4892	0.803
10.5291	0.809
10.5691	0.809
10.6091	0.783
10.6491	0.654
10.6891	0.567
10.7291	0.677
10.769	0.768
10.809	0.783
10.849	0.798
10.889	0.821
10.929	0.842
10.9689	0.847
11.0089	0.852
11.0489	0.857
11.0889	0.857
11.1289	0.857
11.1689	0.857
11.2088	0.852
11.2488	0.803
11.2888	0.803
11.3288	0.837
11.3688	0.852
11.4087	0.86
11.4487	0.86
11.4887	0.86
11.5287	0.86
11.5687	0.859
11.6087	0.86
11.6486	0.862
11.6886	0.867
11.7286	0.872
11.7686	0.877
11.8086	0.877
11.8485	0.878
11.8885	0.878
11.9285	0.88
11.9685	0.88
12.0085	0.88
12.0485	0.877
12.0884	0.85
12.1284	0.811
12.1684	0.796
12.2084	0.795
12.2484	0.798
12.2883	0.798
12.3283	0.793
12.3683	0.788
12.4083	0.786
12.4483	0.791
12.4883	0.796
12.5282	0.786
12.5682	0.722
12.6082	0.659
12.6482	0.659
12.6882	0.668
12.7281	0.613
12.7681	0.54
12.8081	0.596
12.8481	0.677
12.8881	0.729
12.9281	0.763
12.968	0.795
13.008	0.829
13.048	0.854
13.088	0.862
13.128	0.87
13.1679	0.873
13.2079	0.877
13.2479	0.877
13.2879	0.872
13.3279	0.86
13.3679	0.837
13.4078	0.808
13.4478	0.811
13.4878	0.844
13.5278	0.86
13.5678	0.86
13.6077	0.836
13.6477	0.819
13.6877	0.847
13.7277	0.868
13.7677	0.875
13.8077	0.872
13.8476	0.849
13.8876	0.775
13.9276	0.647
13.9676	0.509
14.0076	0.388
14.0476	0.28
14.0875	0.285
14.1275	0.431
14.1675	0.629
14.2075	0.736
14.2475	0.767
14.2874	0.701
14.3274	0.603
14.3674	0.557
14.4074	0.621
14.4474	0.711
14.4874	0.786
14.5273	0.827
14.5673	0.84
14.6073	0.85
14.6473	0.857
14.6873	0.863
14.7272	0.868
14.7672	0.875
14.8072	0.878
14.8472	0.878
14.8872	0.878
14.9272	0.878
14.9671	0.873
15.0071	0.857
15.0471	0.826
15.0871	0.827
15.1271	0.852
15.167	0.87
15.207	0.875
15.247	0.877
15.287	0.877
15.327	0.878
15.367	0.878
15.4069	0.878
15.4469	0.878
15.4869	0.878
15.5269	0.877
15.5669	0.877
15.6068	0.875
15.6468	0.872
15.6868	0.87
15.7268	0.868
15.7668	0.868
15.8068	0.867
15.8467	0.865
15.8867	0.862
15.9267	0.857
15.9667	0.849
