Infrared Spectrum: Quinoline, picrate
Formula: C15 H10 N4 O7
State: SOLID (KBr DISC)
Class: COBLENTZ III
Instrument: BECKMAN IR-4 (HYBRID PRISM-GRATING)
Sampling: TRANSMISSION
Resolution: 2
Origin: UNIVERSITY OF FLORIDA
1/CM	TRANSMITTANCE
668	0.6855
677	0.6716
686	0.6448
695	0.6013
704	0.5361
713	0.3921
722	0.5871
731	0.6673
740	0.5358
749	0.6331
758	0.6701
767	0.5925
776	0.6591
785	0.541
794	0.6575
803	0.6521
812	0.5133
821	0.3286
830	0.6483
839	0.6653
848	0.7032
857	0.7057
866	0.6841
875	0.6775
884	0.6871
893	0.6675
902	0.5839
911	0.5164
920	0.6379
929	0.5682
938	0.5824
947	0.5815
956	0.685
965	0.6823
974	0.6769
983	0.6873
992	0.6634
1001	0.6307
1010	0.6448
1019	0.6227
1028	0.5991
1037	0.6065
1046	0.6192
1055	0.6006
1064	0.6159
1073	0.6025
1082	0.4416
1091	0.6148
1100	0.6559
1109	0.6505
1118	0.6307
1127	0.5889
1136	0.4848
1145	0.6031
1154	0.5628
1163	0.5098
1172	0.468
1181	0.6233
1190	0.6224
1199	0.6003
1208	0.5574
1217	0.5447
1226	0.4752
1235	0.4002
1244	0.4856
1253	0.4799
1262	0.4218
1271	0.3187
1280	0.2122
1289	0.1771
1298	0.314
1307	0.3512
1316	0.2913
1325	0.2117
1334	0.147
1343	0.1666
1352	0.121
1361	0.2796
1370	0.4483
1379	0.2892
1388	0.4814
1397	0.6086
1406	0.5618
1415	0.5793
1424	0.4945
1433	0.6006
1442	0.5445
1451	0.4448
1460	0.5788
1469	0.6294
1478	0.624
1487	0.595
1496	0.4647
1505	0.4034
1514	0.4151
1523	0.4853
1532	0.4994
1541	0.4999
1550	0.499
1559	0.4809
1568	0.4092
1577	0.352
1586	0.2741
1595	0.4278
1604	0.4824
1613	0.4084
1622	0.3405
1631	0.309
1640	0.292
1649	0.1877
1658	0.1588
1667	0.1759
1676	0.2759
1685	0.4863
1694	0.5428
1703	0.6183
1712	0.6861
1721	0.7054
1730	0.7278
1739	0.7514
1748	0.7708
1757	0.7857
1766	0.7864
1775	0.7871
1784	0.7887
1793	0.7921
1802	0.7956
1811	0.798
1820	0.7974
1829	0.7941
1838	0.7905
1847	0.7886
1856	0.7869
1865	0.7819
1874	0.7746
1883	0.7705
1892	0.7686
1901	0.7681
1910	0.7691
1919	0.7734
1928	0.7759
1937	0.7764
1946	0.7748
1955	0.7714
1964	0.7678
1973	0.7658
1982	0.7616
1991	0.7555
2000	0.7531
2009	0.7515
2018	0.7507
2027	0.7501
2036	0.7496
2045	0.7496
2054	0.7496
2063	0.7495
2072	0.7493
2081	0.7473
2090	0.7446
2099	0.7407
2108	0.7391
2117	0.7383
2126	0.7391
2135	0.7399
2144	0.7415
2153	0.7433
2162	0.7449
2171	0.7461
2180	0.7469
2189	0.7455
2198	0.7426
2207	0.7405
2216	0.7385
2225	0.7374
2234	0.7377
2243	0.7381
2252	0.7376
2261	0.7366
2270	0.7355
2279	0.734
2288	0.7321
2297	0.7299
2306	0.7278
2315	0.7259
2324	0.7239
2333	0.7223
2342	0.7211
2351	0.7199
2360	0.7187
2369	0.7179
2378	0.717
2387	0.7161
2396	0.7149
2405	0.7137
2414	0.7125
2423	0.7099
2432	0.7069
2441	0.7035
2450	0.6982
2459	0.6909
2468	0.6844
2477	0.679
2486	0.674
2495	0.6693
2504	0.6648
2513	0.6614
2522	0.658
2531	0.6548
2540	0.6523
2549	0.6499
2558	0.6475
2567	0.6448
2576	0.6418
2585	0.6389
2594	0.6346
2603	0.63
2612	0.6249
2621	0.6195
2630	0.6141
2639	0.6089
2648	0.604
2657	0.5991
2666	0.5943
2675	0.5889
2684	0.5832
2693	0.5774
2702	0.5718
2711	0.5663
2720	0.5608
2729	0.5553
2738	0.55
2747	0.5451
2756	0.5403
2765	0.5357
2774	0.531
2783	0.5258
2792	0.5199
2801	0.5144
2810	0.5095
2819	0.5048
2828	0.5001
2837	0.4957
2846	0.4924
2855	0.4905
2864	0.4896
2873	0.4895
2882	0.4896
2891	0.4896
2900	0.4897
2909	0.4903
2918	0.4913
2927	0.4931
2936	0.4954
2945	0.4992
2954	0.5047
2963	0.5109
2972	0.5167
2981	0.5198
2990	0.522
2999	0.5247
3008	0.5274
3017	0.5286
3026	0.5298
3035	0.5315
3044	0.5346
3053	0.5438
3062	0.5518
3071	0.5587
3080	0.5629
3089	0.5646
3098	0.5664
3107	0.5687
3116	0.5734
3125	0.5775
3134	0.5785
3143	0.5783
3152	0.5758
3161	0.5673
3170	0.5589
3179	0.5514
3188	0.5441
3197	0.5388
3206	0.5379
3215	0.5379
3224	0.5391
3233	0.5458
3242	0.5534
3251	0.5625
3260	0.5718
3269	0.5897
3278	0.6008
3287	0.6096
3296	0.62
3305	0.6291
3314	0.6356
3323	0.641
3332	0.645
3341	0.6483
3350	0.6512
3359	0.6527
3368	0.6535
3377	0.6543
3386	0.6551
3395	0.6559
3404	0.6567
3413	0.6576
3422	0.6589
3431	0.6612
3440	0.6634
3449	0.666
3458	0.6687
3467	0.6705
3476	0.6714
3485	0.6724
3494	0.6731
3503	0.6736
3512	0.6741
3521	0.6746
3530	0.675
3539	0.675
3548	0.6751
3557	0.6751
3566	0.6751
3575	0.6752
3584	0.6752
3593	0.6752
3602	0.6752
3611	0.6752
3620	0.6752
3629	0.6752
3638	0.6752
3647	0.6752
3656	0.6752
3665	0.6754
3674	0.6756
3683	0.6758
3692	0.6759
3701	0.6761
3710	0.6763
3719	0.6767
3728	0.6773
3737	0.6778
3746	0.6783
3755	0.6788
3764	0.6794
3773	0.6799
3782	0.6805
3791	0.6812
3800	0.6818
3809	0.6824
3818	0.683
3827	0.6836
3836	0.6842
3845	0.6848
3854	0.6854
3863	0.686
3872	0.6866
3881	0.6872
3890	0.6878
3899	0.6884
3908	0.6889
3917	0.6891
3926	0.6893
3935	0.6896
3944	0.6898
3953	0.69
3962	0.6903
3971	0.6904
3980	0.6906
3989	0.6906
3998	0.6906
