Infrared Spectrum: SODIUM o-TOLIDINEDIAZO-BIS(NAPHTHYLAMINE-SULFONATE)
Formula: C34 H26 N6 O6 S2 Na2
State: SOLID (MINERAL OIL MULL)
Class: COBLENTZ
Instrument: Not specified, most likely a prism, grating, or hybrid spectrometer.
Sampling: TRANSMISSION
Resolution: 4
Origin: WYANDOTTE CHEMICALS CORP., WYANDOTTE, MICHIGAN, USA
MICROMETERS	TRANSMITTANCE
2.012	0.385
2.0492	0.397
2.08641	0.409
2.12361	0.416
2.16081	0.431
2.19801	0.428
2.23522	0.42
2.27242	0.416
2.30962	0.414
2.34682	0.419
2.38403	0.427
2.42123	0.42
2.45843	0.431
2.49563	0.428
2.53284	0.453
2.57004	0.475
2.60724	0.476
2.64445	0.49
2.68165	0.513
2.71885	0.498
2.75605	0.454
2.79326	0.381
2.83046	0.301
2.86766	0.24
2.90486	0.203
2.94207	0.181
2.97927	0.163
3.01647	0.149
3.05367	0.144
3.09088	0.145
3.12808	0.156
3.16528	0.159
3.20249	0.172
3.23969	0.177
3.27689	0.19
3.31409	0.184
3.3513	0.099
3.3885	0.071
3.4257	0.065
3.4629	0.066
3.50011	0.066
3.53731	0.099
3.57451	0.262
3.61171	0.386
3.64892	0.434
3.68612	0.444
3.72332	0.462
3.76052	0.487
3.79773	0.495
3.83493	0.518
3.87213	0.52
3.90934	0.532
3.94654	0.548
3.98374	0.569
4.02094	0.599
4.05815	0.607
4.09535	0.597
4.13255	0.602
4.16975	0.599
4.20696	0.605
4.24416	0.611
4.28136	0.597
4.31856	0.619
4.35577	0.656
4.39297	0.689
4.43017	0.7
4.46738	0.683
4.50458	0.689
4.54178	0.692
4.57898	0.698
4.61619	0.703
4.65339	0.714
4.69059	0.726
4.72779	0.739
4.765	0.748
4.8022	0.763
4.8394	0.768
4.8766	0.776
4.91381	0.791
4.95101	0.807
4.98821	0.809
5.02542	0.818
5.06262	0.83
5.09982	0.847
5.13702	0.861
5.17423	0.864
5.21143	0.866
5.24863	0.868
5.28583	0.875
5.32304	0.878
5.36024	0.899
5.39744	0.925
5.43464	0.93
5.47185	0.925
5.50905	0.919
5.54625	0.951
5.58346	0.962
5.62066	0.987
5.65786	0.989
5.69506	0.998
5.73227	0.95
5.76947	0.835
5.80667	0.788
5.84387	0.809
5.88108	0.812
5.91828	0.813
5.95548	0.787
5.99268	0.726
6.02989	0.631
6.06709	0.596
6.10429	0.529
6.1415	0.413
6.1787	0.198
6.2159	0.194
6.2531	0.169
6.29031	0.248
6.32751	0.375
6.36471	0.417
6.40191	0.406
6.43912	0.392
6.47632	0.498
6.51352	0.604
6.55072	0.627
6.58793	0.586
6.62513	0.503
6.66233	0.493
6.69954	0.526
6.73674	0.402
6.77394	0.245
6.81114	0.093
6.84835	0.086
6.88555	0.091
6.92275	0.18
6.95995	0.315
6.99716	0.392
7.03436	0.428
7.07156	0.529
7.10876	0.527
7.14597	0.47
7.18317	0.335
7.22037	0.177
7.25757	0.093
7.29478	0.121
7.33198	0.173
7.36918	0.281
7.40639	0.433
7.44359	0.517
7.48079	0.576
7.51799	0.621
7.5552	0.664
7.5924	0.701
7.6296	0.686
7.6668	0.653
7.70401	0.635
7.74121	0.647
7.77841	0.672
7.81561	0.687
7.85282	0.641
7.89002	0.586
7.92722	0.49
7.96443	0.574
8.00163	0.583
8.03883	0.459
8.07603	0.341
8.11324	0.267
8.15044	0.26
8.18764	0.26
8.22484	0.262
8.26205	0.262
8.29925	0.218
8.33645	0.17
8.37365	0.128
8.41086	0.099
8.44806	0.097
8.48526	0.091
8.52247	0.091
8.55967	0.091
8.59687	0.094
8.63407	0.104
8.67128	0.131
8.70848	0.158
8.74568	0.194
8.78288	0.217
8.82009	0.228
8.85729	0.229
8.89449	0.183
8.93169	0.187
8.9689	0.192
9.0061	0.208
9.0433	0.253
9.08051	0.301
9.11771	0.304
9.15491	0.279
9.19211	0.267
9.22932	0.271
9.26652	0.296
9.30372	0.324
9.34092	0.363
9.37813	0.372
9.41533	0.327
9.45253	0.211
9.48973	0.119
9.52694	0.069
9.56414	0.051
9.60134	0.045
9.63855	0.046
9.67575	0.06
9.71295	0.085
9.75015	0.102
9.78736	0.131
9.82456	0.155
9.86176	0.192
9.89896	0.217
9.93617	0.237
9.97337	0.267
10.0106	0.295
10.0478	0.312
10.085	0.333
10.1222	0.354
10.1594	0.381
10.1966	0.417
10.2338	0.447
10.271	0.47
10.3082	0.495
10.3454	0.504
10.3826	0.51
10.4198	0.526
10.457	0.551
10.4942	0.572
10.5314	0.583
10.5686	0.59
10.6058	0.571
10.643	0.604
10.6802	0.656
10.7174	0.687
10.7546	0.69
10.7918	0.704
10.829	0.714
10.8662	0.689
10.9034	0.687
10.9406	0.76
10.9778	0.812
11.015	0.86
11.0522	0.902
11.0894	0.917
11.1267	0.942
11.1639	0.942
11.2011	0.934
11.2383	0.919
11.2755	0.875
11.3127	0.807
11.3499	0.732
11.3871	0.661
11.4243	0.611
11.4615	0.611
11.4987	0.658
11.5359	0.669
11.5731	0.687
11.6103	0.737
11.6475	0.77
11.6847	0.796
11.7219	0.832
11.7591	0.85
11.7963	0.868
11.8335	0.881
11.8707	0.895
11.9079	0.891
11.9451	0.861
11.9823	0.832
12.0195	0.756
12.0567	0.672
12.0939	0.656
12.1311	0.664
12.1683	0.661
12.2055	0.627
12.2427	0.618
12.2799	0.639
12.3171	0.658
12.3543	0.659
12.3915	0.663
12.4287	0.72
12.4659	0.779
12.5031	0.822
12.5404	0.85
12.5776	0.878
12.6148	0.891
12.652	0.886
12.6892	0.863
12.7264	0.79
12.7636	0.673
12.8008	0.616
12.838	0.664
12.8752	0.72
12.9124	0.767
12.9496	0.784
12.9868	0.798
13.024	0.784
13.0612	0.754
13.0984	0.725
13.1356	0.658
13.1728	0.604
13.21	0.523
13.2472	0.38
13.2844	0.253
13.3216	0.197
13.3588	0.208
13.396	0.288
13.4332	0.383
13.4704	0.445
13.5076	0.479
13.5448	0.509
13.582	0.501
13.6192	0.479
13.6564	0.45
13.6936	0.445
13.7308	0.461
13.768	0.473
13.8052	0.498
13.8424	0.52
13.8796	0.537
13.9169	0.541
13.9541	0.555
13.9913	0.582
14.0285	0.577
14.0657	0.569
14.1029	0.577
14.1401	0.566
14.1773	0.56
14.2145	0.543
14.2517	0.523
14.2889	0.5
14.3261	0.492
14.3633	0.518
14.4005	0.534
14.4377	0.545
14.4749	0.532
14.5121	0.484
14.5493	0.44
14.5865	0.437
14.6237	0.462
14.6609	0.493
14.6981	0.513
14.7353	0.529
14.7725	0.531
14.8097	0.527
14.8469	0.506
14.8841	0.486
14.9213	0.447
14.9585	0.419
14.9957	0.406
15.0329	0.383
15.0701	0.392
15.1073	0.409
15.1445	0.444
15.1817	0.47
15.2189	0.481
15.2561	0.49
15.2933	0.503
15.3306	0.503
15.3678	0.501
15.405	0.496
15.4422	0.487
15.4794	0.447
15.5166	0.411
15.5538	0.381
15.591	0.355
15.6282	0.34
15.6654	0.335
15.7026	0.33
15.7398	0.329
15.777	0.326
15.8142	0.332
15.8514	0.336
15.8886	0.355
15.9258	0.361
15.963	0.368
16.0002	0.383
