Infrared Spectrum: POTASSIUM SELENATE
Formula: K2 Se O4
State: SOLID (NUJOL MULL)
Class: COBLENTZ
Instrument: Not specified, most likely a prism, grating, or hybrid spectrometer.
Sampling: TRANSMISSION
Resolution: 4
Origin: MELLON INSTITUTE
MICROMETERS	TRANSMITTANCE
2.043	0.91
2.08374	0.914
2.12448	0.919
2.16522	0.922
2.20595	0.926
2.24669	0.924
2.28743	0.912
2.32817	0.89
2.36891	0.897
2.40965	0.902
2.45039	0.907
2.49113	0.921
2.53186	0.931
2.5726	0.931
2.61334	0.931
2.65408	0.953
2.69482	0.936
2.73556	0.95
2.7763	0.929
2.81703	0.915
2.85777	0.902
2.89851	0.893
2.93925	0.879
2.97999	0.85
3.02073	0.864
3.06147	0.869
3.10221	0.876
3.14294	0.867
3.18368	0.871
3.22442	0.871
3.26516	0.852
3.3059	0.759
3.34664	0.267
3.38738	0.058
3.42811	0.099
3.46885	0.111
3.50959	0.303
3.55033	0.636
3.59107	0.74
3.63181	0.77
3.67255	0.797
3.71328	0.821
3.75402	0.84
3.79476	0.854
3.8355	0.866
3.87624	0.893
3.91698	0.9
3.95772	0.903
3.99846	0.897
4.03919	0.883
4.07993	0.879
4.12067	0.843
4.16141	0.807
4.20215	0.802
4.24289	0.814
4.28363	0.821
4.32436	0.835
4.3651	0.866
4.40584	0.905
4.44658	0.907
4.48732	0.91
4.52806	0.915
4.5688	0.919
4.60954	0.924
4.65027	0.926
4.69101	0.929
4.73175	0.929
4.77249	0.933
4.81323	0.933
4.85397	0.934
4.89471	0.929
4.93544	0.934
4.97618	0.943
5.01692	0.948
5.05766	0.95
5.0984	0.955
5.13914	0.953
5.17988	0.96
5.22062	0.962
5.26135	0.951
5.30209	0.953
5.34283	0.951
5.38357	0.95
5.42431	0.939
5.46505	0.943
5.50579	0.939
5.54652	0.931
5.58726	0.938
5.628	0.927
5.66874	0.927
5.70948	0.876
5.75022	0.891
5.79096	0.915
5.8317	0.921
5.87243	0.902
5.91317	0.902
5.95391	0.905
5.99465	0.897
6.03539	0.89
6.07613	0.867
6.11687	0.849
6.1576	0.838
6.19834	0.83
6.23908	0.818
6.27982	0.799
6.32056	0.775
6.3613	0.749
6.40204	0.735
6.44277	0.704
6.48351	0.689
6.52425	0.667
6.56499	0.655
6.60573	0.636
6.64647	0.603
6.68721	0.555
6.72795	0.504
6.76868	0.44
6.80942	0.281
6.85016	0.195
6.8909	0.188
6.93164	0.195
6.97238	0.212
7.01312	0.234
7.05385	0.222
7.09459	0.198
7.13533	0.169
7.17607	0.152
7.21681	0.128
7.25755	0.108
7.29829	0.137
7.33903	0.178
7.37976	0.21
7.4205	0.241
7.46124	0.271
7.50198	0.303
7.54272	0.339
7.58346	0.368
7.6242	0.404
7.66493	0.433
7.70567	0.461
7.74641	0.487
7.78715	0.512
7.82789	0.548
7.86863	0.569
7.90937	0.591
7.95011	0.605
7.99084	0.629
8.03158	0.65
8.07232	0.663
8.11306	0.679
8.1538	0.699
8.19454	0.716
8.23528	0.73
8.27601	0.735
8.31675	0.744
8.35749	0.758
8.39823	0.77
8.43897	0.777
8.47971	0.787
8.52045	0.797
8.56119	0.801
8.60192	0.799
8.64266	0.799
8.6834	0.799
8.72414	0.787
8.76488	0.778
8.80562	0.792
8.84636	0.801
8.88709	0.804
8.92783	0.799
8.96857	0.797
9.00931	0.787
9.05005	0.801
9.09079	0.814
9.13153	0.816
9.17226	0.807
9.213	0.797
9.25374	0.799
9.29448	0.809
9.33522	0.828
9.37596	0.84
9.4167	0.852
9.45744	0.862
9.49817	0.878
9.53891	0.886
9.57965	0.893
9.62039	0.895
9.66113	0.897
9.70187	0.902
9.74261	0.903
9.78334	0.907
9.82408	0.91
9.86482	0.914
9.90556	0.915
9.9463	0.915
9.98704	0.921
10.0278	0.924
10.0685	0.924
10.1093	0.924
10.15	0.924
10.1907	0.924
10.2315	0.921
10.2722	0.919
10.3129	0.922
10.3537	0.926
10.3944	0.922
10.4352	0.924
10.4759	0.924
10.5166	0.926
10.5574	0.926
10.5981	0.926
10.6389	0.922
10.6796	0.917
10.7203	0.914
10.7611	0.903
10.8018	0.891
10.8425	0.885
10.8833	0.879
10.924	0.866
10.9648	0.837
11.0055	0.807
11.0462	0.761
11.087	0.727
11.1277	0.706
11.1685	0.699
11.2092	0.713
11.2499	0.735
11.2907	0.766
11.3314	0.775
11.3722	0.78
11.4129	0.766
11.4536	0.77
11.4944	0.789
11.5351	0.804
11.5758	0.807
11.6166	0.799
11.6573	0.785
11.6981	0.79
11.7388	0.804
11.7795	0.83
11.8203	0.845
11.861	0.854
11.9018	0.861
11.9425	0.867
11.9832	0.866
12.024	0.847
12.0647	0.775
12.1054	0.624
12.1462	0.557
12.1869	0.656
12.2277	0.783
12.2684	0.821
12.3091	0.831
12.3499	0.83
12.3906	0.835
12.4314	0.854
12.4721	0.879
12.5128	0.9
12.5536	0.914
12.5943	0.927
12.6351	0.939
12.6758	0.948
12.7165	0.955
12.7573	0.96
12.798	0.963
12.8387	0.963
12.8795	0.963
12.9202	0.963
12.961	0.965
13.0017	0.965
13.0424	0.969
13.0832	0.97
13.1239	0.97
13.1647	0.97
13.2054	0.97
13.2461	0.96
13.2869	0.96
13.3276	0.962
13.3683	0.96
13.4091	0.953
13.4498	0.941
13.4906	0.931
13.5313	0.926
13.572	0.922
13.6128	0.915
13.6535	0.912
13.6943	0.9
13.735	0.886
13.7757	0.876
13.8165	0.864
13.8572	0.852
13.8979	0.852
13.9387	0.861
13.9794	0.869
14.0202	0.878
14.0609	0.886
14.1016	0.886
14.1424	0.886
14.1831	0.878
14.2239	0.873
14.2646	0.864
14.3053	0.854
14.3461	0.849
14.3868	0.838
14.4276	0.831
14.4683	0.821
14.509	0.807
14.5498	0.799
14.5905	0.789
14.6312	0.782
14.672	0.77
14.7127	0.756
14.7535	0.753
14.7942	0.749
14.8349	0.742
14.8757	0.734
14.9164	0.734
14.9572	0.73
14.9979	0.732
15.0386	0.725
15.0794	0.72
15.1201	0.72
15.1608	0.711
15.2016	0.706
15.2423	0.699
15.2831	0.694
15.3238	0.686
15.3645	0.675
15.4053	0.672
15.446	0.663
15.4868	0.656
15.5275	0.655
15.5682	0.651
15.609	0.648
15.6497	0.644
15.6904	0.643
15.7312	0.641
15.7719	0.643
15.8127	0.644
15.8534	0.643
15.8941	0.643
15.9349	0.643
15.9756	0.644
