Infrared Spectrum: BARIUM CAPRYLATE
Formula: C16 H30 O4 Ba
State: SOLID (KBr DISC)
Class: COBLENTZ
Instrument: Not specified, most likely a prism, grating, or hybrid spectrometer.
Sampling: TRANSMISSION
Resolution: 4
MICROMETERS	TRANSMITTANCE
2.02	0.3
2.06004	0.3
2.10008	0.307
2.14013	0.318
2.18017	0.33
2.22021	0.342
2.26025	0.36
2.3003	0.37
2.34034	0.38
2.38038	0.398
2.42042	0.41
2.46046	0.422
2.50051	0.432
2.54055	0.454
2.58059	0.469
2.62063	0.48
2.66068	0.484
2.70072	0.475
2.74076	0.452
2.7808	0.427
2.82084	0.404
2.86089	0.404
2.90093	0.417
2.94097	0.447
2.98101	0.475
3.02105	0.494
3.0611	0.515
3.10114	0.529
3.14118	0.549
3.18122	0.557
3.22127	0.559
3.26131	0.54
3.30135	0.439
3.34139	0.138
3.38143	0.058
3.42148	0.222
3.46152	0.195
3.50156	0.465
3.5416	0.621
3.58165	0.657
3.62169	0.671
3.66173	0.686
3.70177	0.699
3.74181	0.704
3.78186	0.717
3.8219	0.729
3.86194	0.739
3.90198	0.749
3.94203	0.759
3.98207	0.762
4.02211	0.766
4.06215	0.769
4.10219	0.782
4.14224	0.787
4.18228	0.796
4.22232	0.803
4.26236	0.811
4.30241	0.816
4.34245	0.824
4.38249	0.833
4.42253	0.839
4.46257	0.849
4.50262	0.853
4.54266	0.861
4.5827	0.866
4.62274	0.869
4.66278	0.876
4.70283	0.881
4.74287	0.886
4.78291	0.888
4.82295	0.889
4.863	0.893
4.90304	0.896
4.94308	0.904
4.98312	0.908
5.02316	0.916
5.06321	0.916
5.10325	0.918
5.14329	0.924
5.18333	0.928
5.22338	0.931
5.26342	0.936
5.30346	0.939
5.3435	0.939
5.38354	0.943
5.42359	0.951
5.46363	0.951
5.50367	0.954
5.54371	0.946
5.58376	0.949
5.6238	0.934
5.66384	0.918
5.70388	0.896
5.74392	0.861
5.78397	0.861
5.82401	0.859
5.86405	0.879
5.90409	0.896
5.94414	0.883
5.98418	0.879
6.02422	0.836
6.06426	0.823
6.1043	0.789
6.14435	0.779
6.18439	0.777
6.22443	0.752
6.26447	0.716
6.30451	0.626
6.34456	0.51
6.3846	0.397
6.42464	0.25
6.46468	0.135
6.50473	0.033
6.54477	0.016
6.58481	0.011
6.62485	0.025
6.66489	0.126
6.70494	0.355
6.74498	0.382
6.78502	0.156
6.82506	0.161
6.86511	0.076
6.90515	0.031
6.94519	0.046
6.98523	0.131
7.02527	0.136
7.06532	0.065
7.10536	0.303
7.1454	0.445
7.18544	0.368
7.22549	0.338
7.26553	0.432
7.30557	0.444
7.34561	0.557
7.38565	0.657
7.4257	0.639
7.46574	0.674
7.50578	0.757
7.54582	0.791
7.58587	0.751
7.62591	0.611
7.66595	0.642
7.70599	0.714
7.74603	0.771
7.78608	0.746
7.82612	0.732
7.86616	0.811
7.9062	0.813
7.94624	0.751
7.98629	0.823
8.02633	0.846
8.06637	0.804
8.10641	0.819
8.14646	0.856
8.1865	0.873
8.22654	0.804
8.26658	0.746
8.30662	0.818
8.34667	0.856
8.38671	0.868
8.42675	0.854
8.46679	0.854
8.50684	0.878
8.54688	0.886
8.58692	0.891
8.62696	0.891
8.667	0.889
8.70705	0.889
8.74709	0.891
8.78713	0.894
8.82717	0.893
8.86722	0.868
8.90726	0.813
8.9473	0.706
8.98734	0.716
9.02738	0.808
9.06743	0.843
9.10747	0.863
9.14751	0.868
9.18755	0.873
9.2276	0.869
9.26764	0.854
9.30768	0.836
9.34772	0.806
9.38776	0.794
9.42781	0.821
9.46785	0.843
9.50789	0.843
9.54793	0.816
9.58797	0.818
9.62802	0.833
9.66806	0.824
9.7081	0.808
9.74814	0.811
9.78819	0.834
9.82823	0.849
9.86827	0.863
9.90831	0.874
9.94835	0.874
9.9884	0.878
10.0284	0.883
10.0685	0.894
10.1085	0.899
10.1486	0.904
10.1886	0.909
10.2287	0.911
10.2687	0.918
10.3087	0.918
10.3488	0.916
10.3888	0.913
10.4289	0.913
10.4689	0.913
10.5089	0.913
10.549	0.914
10.589	0.914
10.6291	0.894
10.6691	0.836
10.7092	0.731
10.7492	0.679
10.7892	0.797
10.8293	0.853
10.8693	0.883
10.9094	0.886
10.9494	0.874
10.9895	0.896
11.0295	0.911
11.0695	0.913
11.1096	0.913
11.1496	0.914
11.1897	0.908
11.2297	0.896
11.2697	0.901
11.3098	0.911
11.3498	0.921
11.3899	0.924
11.4299	0.928
11.47	0.928
11.51	0.928
11.55	0.926
11.5901	0.923
11.6301	0.906
11.6702	0.884
11.7102	0.889
11.7503	0.904
11.7903	0.909
11.8303	0.911
11.8704	0.908
11.9104	0.898
11.9505	0.894
11.9905	0.893
12.0305	0.888
12.0706	0.888
12.1106	0.888
12.1507	0.886
12.1907	0.884
12.2308	0.884
12.2708	0.884
12.3108	0.893
12.3509	0.893
12.3909	0.893
12.431	0.891
12.471	0.891
12.5111	0.889
12.5511	0.888
12.5911	0.884
12.6312	0.886
12.6712	0.884
12.7113	0.883
12.7513	0.874
12.7914	0.866
12.8314	0.849
12.8714	0.824
12.9115	0.771
12.9515	0.736
12.9916	0.746
13.0316	0.803
13.0716	0.816
13.1117	0.819
13.1517	0.818
13.1918	0.808
13.2318	0.804
13.2719	0.803
13.3119	0.804
13.3519	0.803
13.392	0.799
13.432	0.796
13.4721	0.791
13.5121	0.791
13.5522	0.782
13.5922	0.762
13.6322	0.741
13.6723	0.714
13.7123	0.686
13.7524	0.634
13.7924	0.542
13.8324	0.48
13.8725	0.465
13.9125	0.52
13.9526	0.562
13.9926	0.579
14.0327	0.585
14.0727	0.589
14.1127	0.594
14.1528	0.597
14.1928	0.599
14.2329	0.599
14.2729	0.599
14.313	0.594
14.353	0.594
14.393	0.604
14.4331	0.632
14.4731	0.669
14.5132	0.694
14.5532	0.714
14.5932	0.722
14.6333	0.731
14.6733	0.734
14.7134	0.736
14.7534	0.741
14.7935	0.742
14.8335	0.742
14.8735	0.742
14.9136	0.742
14.9536	0.742
14.9937	0.744
15.0337	0.732
15.0738	0.727
15.1138	0.724
15.1538	0.722
15.1939	0.721
15.2339	0.717
15.274	0.714
15.314	0.709
15.3541	0.702
15.3941	0.702
15.4341	0.699
15.4742	0.699
15.5142	0.694
15.5543	0.692
15.5943	0.694
15.6343	0.692
15.6744	0.691
15.7144	0.689
15.7545	0.686
15.7945	0.682
15.8346	0.676
15.8746	0.674
15.9146	0.674
15.9547	0.671
15.9947	0.672
