Infrared Spectrum: 1-CYCLOPENTADIENYL-3-(P-BIPHENYLYL)-1,1,3,3-TETRAMETHYL DISILOXANE
Formula: C21 H26 Si2 O
State: LIQUID
Class: COBLENTZ
Instrument: Not specified, most likely a prism, grating, or hybrid spectrometer.
Sampling: TRANSMISSION
Path length: 0.003 CM
Resolution: 4
Origin: WYANDOTTE CHEMICALS CORP., WYANDOTTE, MICHIGAN, USA
MICROMETERS	TRANSMITTANCE
2.04	0.96
2.07973	0.95
2.11947	0.956
2.1592	0.96
2.19894	0.945
2.23867	0.933
2.27841	0.961
2.31814	0.948
2.35787	0.946
2.39761	0.911
2.43734	0.943
2.47708	0.965
2.51681	0.935
2.55655	0.953
2.59628	0.96
2.63601	0.93
2.67575	0.92
2.71548	0.93
2.75522	0.945
2.79495	0.968
2.83469	0.975
2.87442	0.975
2.91415	0.978
2.95389	0.978
2.99362	0.98
3.03336	0.975
3.07309	0.97
3.11282	0.965
3.15256	0.94
3.19229	0.905
3.23203	0.682
3.27176	0.352
3.3115	0.434
3.35123	0.564
3.39096	0.281
3.4307	0.635
3.47043	0.592
3.51017	0.821
3.5499	0.886
3.58964	0.906
3.62937	0.948
3.6691	0.963
3.70884	0.965
3.74857	0.981
3.78831	0.971
3.82804	0.981
3.86778	0.981
3.90751	0.981
3.94724	0.98
3.98698	0.993
4.02671	0.976
4.06645	0.975
4.10618	0.988
4.14592	0.983
4.18565	0.988
4.22538	0.986
4.26512	0.966
4.30485	0.968
4.34459	0.971
4.38432	0.976
4.42406	0.981
4.46379	0.983
4.50352	0.978
4.54326	0.978
4.58299	0.976
4.62273	0.98
4.66246	0.978
4.70219	0.98
4.74193	0.976
4.78166	0.971
4.8214	0.976
4.86113	0.981
4.90087	0.98
4.9406	0.976
4.98033	0.97
5.02007	0.975
5.0598	0.976
5.09954	0.968
5.13927	0.943
5.17901	0.883
5.21874	0.853
5.25847	0.846
5.29821	0.908
5.33794	0.891
5.37768	0.908
5.41741	0.96
5.45715	0.965
5.49688	0.928
5.53661	0.88
5.57635	0.865
5.61608	0.913
5.65582	0.911
5.69555	0.908
5.73529	0.885
5.77502	0.893
5.81475	0.895
5.85449	0.908
5.89422	0.905
5.93396	0.896
5.97369	0.835
6.01343	0.858
6.05316	0.873
6.09289	0.816
6.13263	0.722
6.17236	0.675
6.2121	0.262
6.25183	0.544
6.29156	0.763
6.3313	0.818
6.37103	0.833
6.41077	0.801
6.4505	0.65
6.49024	0.813
6.52997	0.841
6.5697	0.811
6.60944	0.76
6.64917	0.757
6.68891	0.534
6.72864	0.232
6.76838	0.655
6.80811	0.615
6.84784	0.725
6.88758	0.585
6.92731	0.658
6.96705	0.728
7.00678	0.712
7.04652	0.617
7.08625	0.445
7.12598	0.455
7.16572	0.485
7.20545	0.342
7.24519	0.331
7.28492	0.613
7.32466	0.633
7.36439	0.747
7.40412	0.728
7.44386	0.589
7.48359	0.73
7.52333	0.752
7.56306	0.767
7.6028	0.725
7.64253	0.758
7.68226	0.768
7.722	0.722
7.76173	0.673
7.80147	0.682
7.8412	0.608
7.88094	0.434
7.92067	0.076
7.9604	0.019
8.00014	0.033
8.03987	0.204
8.07961	0.537
8.11934	0.682
8.15907	0.732
8.19881	0.752
8.23854	0.775
8.27828	0.733
8.31801	0.71
8.35775	0.727
8.39748	0.755
8.43721	0.76
8.47695	0.722
8.51668	0.76
8.55642	0.743
8.59615	0.71
8.63589	0.65
8.67562	0.633
8.71535	0.605
8.75509	0.53
8.79482	0.415
8.83456	0.271
8.87429	0.059
8.91403	0.021
8.95376	0.033
8.99349	0.071
9.03323	0.073
9.07296	0.033
9.1127	0.026
9.15243	0.023
9.19217	0.018
9.2319	0.018
9.27163	0.018
9.31137	0.014
9.3511	0.009
9.39084	0.011
9.43057	0.016
9.47031	0.018
9.51004	0.018
9.54977	0.016
9.58951	0.008
9.62924	0.016
9.66898	0.018
9.70871	0.026
9.74844	0.034
9.78818	0.038
9.82791	0.066
9.86765	0.084
9.90738	0.118
9.94712	0.041
9.98685	0.188
10.0266	0.144
10.0663	0.098
10.1061	0.124
10.1458	0.094
10.1855	0.064
10.2253	0.041
10.265	0.033
10.3047	0.036
10.3445	0.061
10.3842	0.126
10.4239	0.216
10.4637	0.217
10.5034	0.106
10.5431	0.029
10.5829	0.066
10.6226	0.234
10.6623	0.417
10.7021	0.51
10.7418	0.562
10.7815	0.567
10.8213	0.595
10.861	0.602
10.9007	0.575
10.9405	0.514
10.9802	0.422
11.0199	0.329
11.0597	0.274
11.0994	0.367
11.1391	0.344
11.1789	0.339
11.2186	0.399
11.2583	0.469
11.2981	0.484
11.3378	0.465
11.3775	0.415
11.4173	0.347
11.457	0.324
11.4968	0.286
11.5365	0.219
11.5762	0.159
11.616	0.111
11.6557	0.073
11.6954	0.039
11.7352	0.033
11.7749	0.029
11.8146	0.031
11.8544	0.033
11.8941	0.029
11.9338	0.028
11.9736	0.023
12.0133	0.018
12.053	0.016
12.0928	0.018
12.1325	0.018
12.1722	0.019
12.212	0.019
12.2517	0.021
12.2914	0.023
12.3312	0.024
12.3709	0.026
12.4106	0.028
12.4504	0.026
12.4901	0.021
12.5298	0.018
12.5696	0.018
12.6093	0.018
12.649	0.019
12.6888	0.019
12.7285	0.018
12.7682	0.018
12.808	0.021
12.8477	0.026
12.8875	0.041
12.9272	0.073
12.9669	0.121
13.0067	0.136
13.0464	0.106
13.0861	0.044
13.1259	0.026
13.1656	0.021
13.2053	0.021
13.2451	0.023
13.2848	0.029
13.3245	0.048
13.3643	0.078
13.404	0.089
13.4437	0.079
13.4835	0.081
13.5232	0.098
13.5629	0.128
13.6027	0.149
13.6424	0.183
13.6821	0.206
13.7219	0.204
13.7616	0.176
13.8013	0.136
13.8411	0.104
13.8808	0.089
13.9205	0.101
13.9603	0.121
14	0.149
14.0397	0.164
14.0795	0.169
14.1192	0.163
14.1589	0.143
14.1987	0.109
14.2384	0.079
14.2781	0.056
14.3179	0.046
14.3576	0.044
14.3974	0.046
14.4371	0.049
14.4768	0.051
14.5166	0.058
14.5563	0.073
14.596	0.086
14.6358	0.089
14.6755	0.098
14.7152	0.106
14.755	0.113
14.7947	0.146
14.8344	0.166
14.8742	0.209
14.9139	0.232
14.9536	0.244
14.9934	0.257
15.0331	0.274
15.0728	0.284
15.1126	0.301
15.1523	0.317
15.192	0.341
15.2318	0.352
15.2715	0.354
15.3112	0.356
15.351	0.364
15.3907	0.394
15.4304	0.429
15.4702	0.449
15.5099	0.452
15.5496	0.44
15.5894	0.419
15.6291	0.399
15.6688	0.4
15.7086	0.404
15.7483	0.409
15.7881	0.425
15.8278	0.44
15.8675	0.457
15.9073	0.454
15.947	0.454
