Infrared Spectrum: M-TOLUIDINE, N-(P-METHOXYBENZYLIDENE)-4-(P-METHOXYPHENYLAZO)-, HYDROGEN TETRAFLUOROBORATE
Formula: C22 H22 B F4 N3 O2
State: SOLID (KBr DISC)
Class: COBLENTZ III
Instrument: UNICAM SP-200
Sampling: TRANSMISSION
Resolution: 4
Origin: HUNGARIAN ACAD. OF SCI., VIA SCIENTIFIC DOC. CENTRE LTD.
1/CM	TRANSMITTANCE
650.795	0.842
661.919	0.856
673.043	0.856
684.168	0.863
695.292	0.863
706.416	0.857
717.54	0.849
728.664	0.845
739.789	0.828
750.913	0.839
762.037	0.774
773.161	0.821
784.285	0.825
795.41	0.795
806.534	0.735
817.658	0.726
828.782	0.631
839.906	0.291
851.031	0.484
862.155	0.7369
873.279	0.765
884.403	0.73
895.527	0.705
906.652	0.696
917.776	0.733
928.9	0.741
940.024	0.714
951.148	0.688
962.273	0.668
973.397	0.593
984.521	0.495
995.645	0.402
1006.77	0.317
1017.89	0.242
1029.02	0.167
1040.14	0.168
1051.27	0.201
1062.39	0.165
1073.51	0.171
1084.64	0.148
1095.76	0.2
1106.89	0.2
1118.01	0.247
1129.14	0.349
1140.26	0.208
1151.38	0.228
1162.51	0.371
1173.63	0.064
1184.76	0.196
1195.88	0.626
1207.01	0.607
1218.13	0.576
1229.25	0.556
1240.38	0.31
1251.5	0.129
1262.63	0.273
1273.75	0.247
1284.87	0.167
1296	0.3171
1307.12	0.501
1318.25	0.397
1329.37	0.45
1340.5	0.454
1351.62	0.649
1362.74	0.648
1373.87	0.352
1384.99	0.417
1396.12	0.603
1407.24	0.554
1418.36	0.418
1429.49	0.485
1440.61	0.415
1451.74	0.477
1462.86	0.498
1473.99	0.482
1485.11	0.561
1496.23	0.501
1507.36	0.28
1518.48	0.387
1529.61	0.579
1540.73	0.686
1551.86	0.628
1562.98	0.437
1574.1	0.218
1585.23	0.071
1596.35	0.083
1607.48	0.174
1618.6	0.5489
1629.72	0.682
1640.85	0.459
1651.97	0.2911
1663.1	0.596
1674.22	0.702
1685.35	0.742
1696.47	0.766
1707.59	0.774
1718.72	0.782
1729.84	0.784
1740.97	0.786
1752.09	0.793
1763.22	0.791
1774.34	0.791
1785.46	0.794
1796.59	0.798
1807.71	0.795
1818.84	0.797
1829.96	0.802
1841.08	0.797
1852.21	0.792
1863.33	0.784
1874.46	0.776
1885.58	0.77
1896.71	0.761
1907.83	0.765
1918.95	0.762
1930.08	0.761
1941.2	0.759
1952.33	0.764
1963.45	0.762
1974.58	0.759
1985.7	0.761
1996.82	0.758
2007.95	0.7485
2019.07	0.745
2030.2	0.7434
2041.32	0.7418
2052.44	0.736
2063.57	0.736
2074.69	0.7343
2085.82	0.7353
2096.94	0.739
2108.07	0.74
2119.19	0.7391
2130.31	0.7376
2141.44	0.736
2152.56	0.7325
2163.69	0.731
2174.81	0.7255
2185.93	0.724
2197.06	0.725
2208.18	0.724
2219.31	0.7203
2230.43	0.7188
2241.56	0.718
2252.68	0.7165
2263.8	0.7114
2274.93	0.709
2286.05	0.708
2297.18	0.7066
2308.3	0.706
2319.43	0.7035
2330.55	0.701
2341.67	0.6975
2352.8	0.6919
2363.92	0.6932
2375.05	0.6929
2386.17	0.6796
2397.29	0.674
2408.42	0.676
2419.54	0.6727
2430.67	0.6702
2441.79	0.6667
2452.92	0.6624
2464.04	0.6516
2475.16	0.6441
2486.29	0.6385
2497.41	0.637
2508.54	0.6309
2519.66	0.6258
2530.79	0.6144
2541.91	0.5916
2553.03	0.5863
2564.16	0.5782
2575.28	0.5668
2586.41	0.5597
2597.53	0.558
2608.65	0.55
2619.78	0.5461
2630.9	0.53
2642.03	0.5251
2653.15	0.5195
2664.28	0.5089
2675.4	0.497
2686.52	0.4855
2697.65	0.4764
2708.77	0.4717
2719.9	0.465
2731.02	0.4632
2742.14	0.4673
2753.27	0.4723
2764.39	0.4722
2775.52	0.4636
2786.64	0.4516
2797.77	0.44
2808.89	0.442
2820.01	0.446
2831.14	0.4491
2842.26	0.4571
2853.39	0.4498
2864.51	0.4369
2875.64	0.428
2886.76	0.4226
2897.88	0.4202
2909.01	0.4228
2920.13	0.4283
2931.26	0.431
2942.38	0.4364
2953.5	0.4389
2964.63	0.4444
2975.75	0.444
2986.88	0.44
2998	0.438
3009.13	0.4386
3020.25	0.4471
3031.37	0.4566
3042.5	0.4703
3053.62	0.4794
3064.75	0.486
3075.87	0.487
3087	0.4883
3098.12	0.49
3109.24	0.4873
3120.37	0.483
3131.49	0.4786
3142.62	0.475
3153.74	0.461
3164.86	0.4651
3175.99	0.472
3187.11	0.4772
3198.24	0.4823
3209.36	0.4872
3220.49	0.4958
3231.61	0.5022
3242.73	0.504
3253.86	0.5027
3264.98	0.5
3276.11	0.5014
3287.23	0.5039
3298.36	0.5079
3309.48	0.511
3320.6	0.5165
3331.73	0.5201
3342.85	0.5226
3353.98	0.525
3365.1	0.5296
3376.22	0.5352
3387.35	0.537
3398.47	0.536
3409.6	0.5322
3420.72	0.531
3431.85	0.5338
3442.97	0.536
3454.09	0.536
3465.22	0.5366
3476.34	0.535
3487.47	0.534
3498.59	0.529
3509.71	0.529
3520.84	0.5301
3531.96	0.5326
3543.09	0.5246
3554.21	0.518
3565.34	0.5168
3576.46	0.516
3587.58	0.513
3598.71	0.5199
3609.83	0.518
3620.96	0.5142
3632.08	0.51
3643.21	0.514
3654.33	0.5185
3665.45	0.516
3676.58	0.516
3687.7	0.5139
3698.83	0.5077
3709.95	0.5038
3721.07	0.502
3732.2	0.504
3743.32	0.504
3754.45	0.5034
3765.57	0.502
3776.7	0.5006
3787.82	0.4991
3798.94	0.4955
3810.07	0.495
3821.19	0.497
3832.32	0.495
3843.44	0.4902
3854.57	0.4859
3865.69	0.485
3876.81	0.4858
3887.94	0.4833
3899.06	0.483
3910.19	0.4822
3921.31	0.4817
3932.43	0.481
3943.56	0.4798
3954.68	0.4811
3965.81	0.473
3976.93	0.47
3988.06	0.4715
3999.18	0.473
4010.3	0.474
4021.43	0.4739
4032.55	0.4693
4043.68	0.467
4054.8	0.465
4065.93	0.4647
4077.05	0.463
4088.17	0.463
4099.3	0.463
4110.42	0.463
4121.55	0.4621
4132.67	0.4595
4143.79	0.458
4154.92	0.4575
4166.04	0.4559
4177.17	0.452
4188.29	0.451
4199.42	0.451
4210.54	0.4528
4221.66	0.451
4232.79	0.4497
4243.91	0.447
4255.04	0.443
4266.16	0.4402
4277.28	0.4356
4288.41	0.435
4299.53	0.435
4310.66	0.432
4321.78	0.431
4332.91	0.429
4344.03	0.4284
4355.15	0.428
4366.28	0.427
4377.4	0.426
4388.53	0.4257
4399.65	0.426
4410.78	0.4242
4421.9	0.4237
4433.02	0.4211
4444.15	0.42
4455.27	0.421
4466.4	0.4215
4477.52	0.423
4488.64	0.424
4499.77	0.4229
4510.89	0.422
4522.02	0.4178
4533.14	0.4133
4544.27	0.4118
4555.39	0.41
4566.51	0.41
4577.64	0.4092
4588.76	0.409
4599.89	0.408
4611.01	0.407
4622.14	0.4031
4633.26	0.397
4644.38	0.395
4655.51	0.3981
4666.63	0.3991
4677.76	0.4
4688.88	0.3987
4700	0.396
4711.13	0.395
4722.25	0.3958
4733.38	0.396
4744.5	0.3968
4755.63	0.3956
4766.75	0.3921
4777.87	0.389
4789	0.389
4800.12	0.387
4811.25	0.387
4822.37	0.385
4833.49	0.383
4844.62	0.3814
4855.74	0.3808
4866.87	0.38
4877.99	0.3798
4889.12	0.379
4900.24	0.378
4911.36	0.378
4922.49	0.378
4933.61	0.3771
4944.74	0.376
4955.86	0.374
4966.99	0.373
