Infrared Spectrum: 2-(p-NONYLPHENOXY)-3-METHYL-6-TRIDECYL PYRAZINE
Formula: C33 H54 N2 O
State: LIQUID
Class: COBLENTZ
Instrument: Not specified, most likely a prism, grating, or hybrid spectrometer.
Sampling: TRANSMISSION
Path length: 0.0015 CM
Resolution: 4
Origin: WYANDOTTE CHEMICALS CORP., WYANDOTTE, MICHIGAN, USA
MICROMETERS	TRANSMITTANCE
2.048	1
2.08886	0.991
2.12971	0.991
2.17057	0.972
2.21142	0.929
2.25228	0.928
2.29314	0.933
2.33399	0.943
2.37485	0.936
2.4157	0.952
2.45656	0.952
2.49742	0.955
2.53827	0.97
2.57913	0.974
2.61998	0.982
2.66084	0.981
2.7017	0.981
2.74255	0.981
2.78341	0.976
2.82426	0.964
2.86512	0.953
2.90598	0.94
2.94683	0.933
2.98769	0.922
3.02854	0.916
3.0694	0.91
3.11026	0.902
3.15111	0.89
3.19197	0.885
3.23282	0.827
3.27368	0.643
3.31454	0.582
3.35539	0.092
3.39625	0.059
3.4371	0.082
3.47796	0.118
3.51882	0.179
3.55967	0.678
3.60053	0.797
3.64138	0.832
3.68224	0.825
3.7231	0.856
3.76395	0.863
3.80481	0.88
3.84566	0.888
3.88652	0.91
3.92738	0.91
3.96823	0.912
4.00909	0.912
4.04994	0.919
4.0908	0.919
4.13166	0.912
4.17251	0.91
4.21337	0.91
4.25422	0.909
4.29508	0.929
4.33594	0.943
4.37679	0.94
4.41765	0.926
4.4585	0.933
4.49936	0.941
4.54022	0.945
4.58107	0.943
4.62193	0.946
4.66278	0.95
4.70364	0.943
4.74449	0.941
4.78535	0.943
4.82621	0.94
4.86706	0.929
4.90792	0.921
4.94877	0.929
4.98963	0.926
5.03049	0.934
5.07134	0.938
5.1122	0.941
5.15305	0.95
5.19391	0.94
5.23477	0.941
5.27562	0.933
5.31648	0.905
5.35733	0.905
5.39819	0.933
5.43905	0.94
5.4799	0.94
5.52076	0.94
5.56161	0.934
5.60247	0.921
5.64333	0.91
5.68418	0.892
5.72504	0.9
5.76589	0.905
5.80675	0.898
5.84761	0.893
5.88846	0.893
5.92932	0.878
5.97017	0.847
6.01103	0.821
6.05189	0.813
6.09274	0.821
6.1336	0.811
6.17445	0.702
6.21531	0.715
6.25617	0.676
6.29702	0.66
6.33788	0.756
6.37873	0.755
6.41959	0.616
6.46045	0.501
6.5013	0.577
6.54216	0.587
6.58301	0.26
6.62387	0.148
6.66473	0.405
6.70558	0.5
6.74644	0.376
6.78729	0.097
6.82815	0.089
6.86901	0.143
6.90986	0.176
6.95072	0.243
6.99157	0.366
7.03243	0.465
7.07329	0.402
7.11414	0.431
7.155	0.371
7.19585	0.176
7.23671	0.059
7.27757	0.054
7.31842	0.063
7.35928	0.104
7.40013	0.181
7.44099	0.239
7.48185	0.349
7.5227	0.464
7.56356	0.462
7.60441	0.404
7.64527	0.357
7.68613	0.345
7.72698	0.321
7.76784	0.311
7.80869	0.357
7.84955	0.4
7.89041	0.452
7.93126	0.464
7.97212	0.467
8.01297	0.469
8.05383	0.422
8.09469	0.325
8.13554	0.22
8.1764	0.119
8.21725	0.061
8.25811	0.101
8.29897	0.287
8.33982	0.433
8.38068	0.448
8.42153	0.296
8.46239	0.114
8.50325	0.07
8.5441	0.116
8.58496	0.251
8.62581	0.267
8.66667	0.243
8.70753	0.364
8.74838	0.477
8.78924	0.553
8.83009	0.626
8.87095	0.65
8.91181	0.599
8.95266	0.554
8.99352	0.566
9.03437	0.625
9.07523	0.631
9.11609	0.631
9.15694	0.636
9.1978	0.648
9.23865	0.652
9.27951	0.66
9.32037	0.686
9.36122	0.703
9.40208	0.715
9.44293	0.726
9.48379	0.732
9.52465	0.731
9.5655	0.719
9.60636	0.698
9.64721	0.671
9.68807	0.638
9.72893	0.582
9.76978	0.496
9.81064	0.356
9.85149	0.261
9.89235	0.482
9.9332	0.58
9.97406	0.647
10.0149	0.698
10.0558	0.729
10.0966	0.751
10.1375	0.76
10.1783	0.761
10.2192	0.755
10.2601	0.75
10.3009	0.753
10.3418	0.77
10.3826	0.768
10.4235	0.773
10.4643	0.78
10.5052	0.789
10.546	0.799
10.5869	0.811
10.6278	0.813
10.6686	0.809
10.7095	0.803
10.7503	0.806
10.7912	0.809
10.832	0.809
10.8729	0.811
10.9137	0.813
10.9546	0.816
10.9955	0.818
11.0363	0.809
11.0772	0.801
11.118	0.784
11.1589	0.768
11.1997	0.734
11.2406	0.7
11.2815	0.69
11.3223	0.671
11.3632	0.681
11.404	0.724
11.4449	0.772
11.4857	0.796
11.5266	0.796
11.5674	0.785
11.6083	0.756
11.6492	0.712
11.69	0.652
11.7309	0.594
11.7717	0.547
11.8126	0.496
11.8534	0.455
11.8943	0.419
11.9351	0.404
11.976	0.402
12.0169	0.424
12.0577	0.479
12.0986	0.541
12.1394	0.592
12.1803	0.631
12.2211	0.66
12.262	0.674
12.3029	0.691
12.3437	0.708
12.3846	0.724
12.4254	0.736
12.4663	0.743
12.5071	0.748
12.548	0.743
12.5888	0.724
12.6297	0.724
12.6706	0.731
12.7114	0.741
12.7523	0.744
12.7931	0.741
12.834	0.743
12.8748	0.751
12.9157	0.761
12.9565	0.772
12.9974	0.775
13.0383	0.78
13.0791	0.784
13.12	0.784
13.1608	0.782
13.2017	0.784
13.2425	0.782
13.2834	0.78
13.3243	0.78
13.3651	0.773
13.406	0.77
13.4468	0.76
13.4877	0.751
13.5285	0.743
13.5694	0.736
13.6102	0.729
13.6511	0.722
13.692	0.71
13.7328	0.696
13.7737	0.681
13.8145	0.655
13.8554	0.636
13.8962	0.619
13.9371	0.628
13.9779	0.669
14.0188	0.705
14.0597	0.729
14.1005	0.755
14.1414	0.765
14.1822	0.789
14.2231	0.791
14.2639	0.797
14.3048	0.799
14.3457	0.803
14.3865	0.801
14.4274	0.801
14.4682	0.791
14.5091	0.791
14.5499	0.784
14.5908	0.777
14.6316	0.765
14.6725	0.768
14.7134	0.758
14.7542	0.75
14.7951	0.748
14.8359	0.755
14.8768	0.755
14.9176	0.751
14.9585	0.751
14.9993	0.75
15.0402	0.719
15.0811	0.707
15.1219	0.724
15.1628	0.734
15.2036	0.734
15.2445	0.732
15.2853	0.724
15.3262	0.715
15.3671	0.714
15.4079	0.708
15.4488	0.707
15.4896	0.7
15.5305	0.693
15.5713	0.688
15.6122	0.688
15.653	0.684
15.6939	0.678
15.7348	0.674
15.7756	0.666
15.8165	0.659
15.8573	0.648
15.8982	0.648
15.939	0.642
15.9799	0.636
