Infrared Spectrum: Urea,1- (4'-tert-butyl-2'-chlorophenyl)-
Formula: C11 H15 Cl N2 O
State: SOLID (NUJOL MULL)
Class: COBLENTZ III
Instrument: BECKMAN IR-4 (HYBRID PRISM-GRATING)
Instrument parameters: NaCl PRISM
Sampling: TRANSMISSION
Resolution: 2
Origin: MONSANTO (J. FREEMAN)
1/CM	TRANSMITTANCE
626	0.7581
635	0.7832
644	0.8019
653	0.7317
662	0.7096
671	0.7965
680	0.7332
689	0.678
698	0.8366
707	0.8224
716	0.6333
725	0.8263
734	0.8566
743	0.8727
752	0.8735
761	0.8023
770	0.4322
779	0.7726
788	0.8747
797	0.8826
806	0.877
815	0.8287
824	0.2675
833	0.7415
842	0.84
851	0.808
860	0.8139
869	0.7026
878	0.5707
887	0.5363
896	0.7838
905	0.8247
914	0.828
923	0.7845
932	0.7964
941	0.8079
950	0.7864
959	0.8077
968	0.8082
977	0.8098
986	0.8177
995	0.8157
1004	0.8067
1013	0.7833
1022	0.7697
1031	0.7749
1040	0.7729
1049	0.735
1058	0.5154
1067	0.4818
1076	0.7578
1085	0.7869
1094	0.7881
1103	0.7503
1112	0.5696
1121	0.5369
1130	0.6564
1139	0.6375
1148	0.6456
1157	0.6515
1166	0.6784
1175	0.6948
1184	0.7372
1193	0.733
1202	0.6891
1211	0.6688
1220	0.7307
1229	0.7328
1238	0.7259
1247	0.7069
1256	0.6624
1265	0.511
1274	0.2092
1283	0.408
1292	0.5514
1301	0.2787
1310	0.3499
1319	0.5949
1328	0.6009
1337	0.5521
1346	0.4585
1355	0.2749
1364	0.0646
1373	0.1233
1382	0.2549
1391	0.1555
1400	0.2527
1409	0.5516
1418	0.7007
1427	0.7098
1436	0.609
1445	0.4703
1454	0.3335
1463	0.259
1472	0.2606
1481	0.4024
1490	0.421
1499	0.303
1508	0.1452
1517	0.0929
1526	0.0676
1535	0.0227
1544	0.0458
1553	0.2575
1562	0.2795
1571	0.1173
1580	0.0579
1589	0.0336
1598	0.0813
1607	0.0621
1616	0.2435
1625	0.2885
1634	0.4093
1643	0.3501
1652	0.1723
1661	0.0156
1670	0.0028
1679	0.0694
1688	0.2427
1697	0.3698
1706	0.5957
1715	0.7416
1724	0.7997
1733	0.8594
1742	0.8577
1751	0.8464
1760	0.8475
1769	0.8889
1778	0.8884
1787	0.8853
1796	0.8942
1805	0.9063
1814	0.9155
1823	0.9213
1832	0.9262
1841	0.9312
1850	0.9352
1859	0.9375
1868	0.9386
1877	0.9385
1886	0.9362
1895	0.9286
1904	0.9171
1913	0.9068
1922	0.9231
1931	0.9436
1940	0.9454
1949	0.9432
1958	0.9406
1967	0.9393
1976	0.9387
1985	0.9385
1994	0.9393
2003	0.935
2012	0.9306
2021	0.9259
2030	0.9232
2039	0.9261
2048	0.9304
2057	0.9367
2066	0.9345
2075	0.9321
2084	0.9304
2093	0.9324
2102	0.9351
2111	0.9336
2120	0.931
2129	0.9277
2138	0.9242
2147	0.9218
2156	0.9201
2165	0.9196
2174	0.9196
2183	0.9194
2192	0.9192
2201	0.9193
2210	0.9194
2219	0.9196
2228	0.92
2237	0.9206
2246	0.9209
2255	0.9212
2264	0.9205
2273	0.9195
2282	0.9186
2291	0.9177
2300	0.9188
2309	0.9201
2318	0.922
2327	0.9239
2336	0.9266
2345	0.9296
2354	0.9329
2363	0.9363
2372	0.9394
2381	0.9384
2390	0.9197
2399	0.9095
2408	0.9026
2417	0.9013
2426	0.901
2435	0.9006
2444	0.9001
2453	0.8995
2462	0.8989
2471	0.8968
2480	0.8943
2489	0.8917
2498	0.8891
2507	0.8862
2516	0.8834
2525	0.8803
2534	0.877
2543	0.8734
2552	0.8712
2561	0.8702
2570	0.8691
2579	0.8652
2588	0.8613
2597	0.8579
2606	0.8545
2615	0.8511
2624	0.8483
2633	0.846
2642	0.8442
2651	0.8431
2660	0.8429
2669	0.8426
2678	0.8419
2687	0.8383
2696	0.8345
2705	0.8307
2714	0.8267
2723	0.8203
2732	0.8139
2741	0.8077
2750	0.8043
2759	0.8011
2768	0.7984
2777	0.788
2786	0.7741
2795	0.7518
2804	0.7261
2813	0.702
2822	0.6778
2831	0.6399
2840	0.5949
2849	0.427
2858	0.2211
2867	0.0832
2876	0.0718
2885	0.0592
2894	0.0444
2903	0.0297
2912	0.0194
2921	0.011
2930	0.0062
2939	0.0037
2948	0.003
2957	0.0111
2966	0.089
2975	0.1756
2984	0.2616
2993	0.3471
3002	0.4322
3011	0.5166
3020	0.5967
3029	0.6164
3038	0.6231
3047	0.6273
3056	0.6314
3065	0.6373
3074	0.6422
3083	0.643
3092	0.6419
3101	0.6395
3110	0.6356
3119	0.6297
3128	0.6195
3137	0.5998
3146	0.5645
3155	0.5109
3164	0.4574
3173	0.4044
3182	0.3516
3191	0.2952
3200	0.2585
3209	0.2438
3218	0.2306
3227	0.2144
3236	0.1962
3245	0.18
3254	0.1699
3263	0.1606
3272	0.1348
3281	0.1081
3290	0.0826
3299	0.0804
3308	0.083
3317	0.1102
3326	0.1539
3335	0.1973
3344	0.2404
3353	0.2834
3362	0.3071
3371	0.3068
3380	0.2967
3389	0.2663
3398	0.2361
3407	0.2061
3416	0.1762
3425	0.1465
3434	0.117
3443	0.1239
3452	0.2105
3461	0.301
3470	0.3912
3479	0.4808
3488	0.57
3497	0.6562
3506	0.6833
3515	0.7018
3524	0.7274
3533	0.756
3542	0.7783
3551	0.7951
3560	0.812
3569	0.8211
3578	0.8232
3587	0.8246
3596	0.8254
3605	0.8264
3614	0.8273
3623	0.8282
3632	0.8299
3641	0.8318
3650	0.8336
3659	0.8355
3668	0.8368
3677	0.8363
3686	0.8365
3695	0.8353
3704	0.8338
3713	0.8333
3722	0.8328
3731	0.8324
3740	0.8322
3749	0.832
3758	0.8318
3767	0.8316
3776	0.8306
3785	0.8288
3794	0.8266
3803	0.825
3812	0.8233
3821	0.8218
3830	0.8204
3839	0.819
3848	0.8176
3857	0.8159
3866	0.8141
3875	0.8124
3884	0.8108
3893	0.8092
3902	0.8078
3911	0.8071
3920	0.8067
3929	0.8063
3938	0.806
3947	0.8057
3956	0.8057
3965	0.8057
3974	0.8056
3983	0.805
3992	0.8044
