Infrared Spectrum: 1,2-Propanediamine dihydrochloride
Formula: C3 H12 Cl2 N2
State: SOLID (KBr DISC, 0.9% WT.)
Class: COBLENTZ III
Instrument: PERKIN-ELMER 157
Sampling: TRANSMISSION
Resolution: 2
Origin: BRITISH PETROLEUM CO. LTD., ENGLAND
1/CM	TRANSMITTANCE
667	0.7972
676	0.7937
685	0.7728
694	0.7534
703	0.7714
712	0.7703
721	0.7655
730	0.7603
739	0.7383
748	0.7341
757	0.7365
766	0.7288
775	0.722
784	0.6813
793	0.564
802	0.3435
811	0.7479
820	0.7509
829	0.728
838	0.6892
847	0.6088
856	0.3458
865	0.2698
874	0.5409
883	0.7198
892	0.7665
901	0.7476
910	0.6937
919	0.613
928	0.6867
937	0.7033
946	0.6902
955	0.6652
964	0.6201
973	0.5596
982	0.3537
991	0.3216
1000	0.5199
1009	0.4817
1018	0.2975
1027	0.0556
1036	0.1172
1045	0.2124
1054	0.37
1063	0.3146
1072	0.3177
1081	0.5047
1090	0.5798
1099	0.6022
1108	0.6049
1117	0.6028
1126	0.5759
1135	0.5097
1144	0.3383
1153	0.2144
1162	0.4534
1171	0.5573
1180	0.5525
1189	0.5398
1198	0.4789
1207	0.3689
1216	0.2699
1225	0.4388
1234	0.5458
1243	0.5552
1252	0.5446
1261	0.5407
1270	0.5323
1279	0.5227
1288	0.5012
1297	0.4638
1306	0.2778
1315	0.3526
1324	0.4464
1333	0.4233
1342	0.3243
1351	0.3974
1360	0.3755
1369	0.3215
1378	0.2024
1387	0.2019
1396	0.1393
1405	0.2768
1414	0.3534
1423	0.3185
1432	0.2166
1441	0.1491
1450	0.1063
1459	0.1304
1468	0.0687
1477	0.0484
1486	0.0622
1495	0.0747
1504	0.0528
1513	0.0591
1522	0.1173
1531	0.1503
1540	0.0903
1549	0.0413
1558	0.048
1567	0.1057
1576	0.1093
1585	0.0625
1594	0.0475
1603	0.0659
1612	0.1434
1621	0.2126
1630	0.2663
1639	0.3616
1648	0.4356
1657	0.4587
1666	0.5261
1675	0.5584
1684	0.5828
1693	0.5843
1702	0.605
1711	0.6078
1720	0.6089
1729	0.6091
1738	0.6086
1747	0.6069
1756	0.5994
1765	0.5809
1774	0.5715
1783	0.5584
1792	0.5485
1801	0.5423
1810	0.5282
1819	0.5027
1828	0.4751
1837	0.4397
1846	0.4315
1855	0.4106
1864	0.3748
1873	0.3619
1882	0.3455
1891	0.3292
1900	0.3142
1909	0.3045
1918	0.3027
1927	0.2957
1936	0.2911
1945	0.2998
1954	0.3122
1963	0.3223
1972	0.3438
1981	0.3526
1990	0.3803
1999	0.3924
2008	0.4055
2017	0.4366
2026	0.453
2035	0.4546
2044	0.4549
2053	0.4581
2062	0.4699
2071	0.484
2080	0.4903
2089	0.4932
2098	0.497
2107	0.5001
2116	0.4954
2125	0.4904
2134	0.4852
2143	0.4833
2152	0.482
2161	0.4731
2170	0.4635
2179	0.4535
2188	0.4442
2197	0.4376
2206	0.4327
2215	0.4281
2224	0.4227
2233	0.4137
2242	0.411
2251	0.3992
2260	0.3858
2269	0.3758
2278	0.3681
2287	0.3643
2296	0.3524
2305	0.3209
2314	0.3091
2323	0.2966
2332	0.2904
2341	0.2872
2350	0.2834
2359	0.2818
2368	0.2801
2377	0.2754
2386	0.2696
2395	0.2627
2404	0.253
2413	0.2402
2422	0.2227
2431	0.1976
2440	0.1613
2449	0.1389
2458	0.1275
2467	0.1157
2476	0.0994
2485	0.0862
2494	0.0843
2503	0.0816
2512	0.0702
2521	0.0669
2530	0.066
2539	0.0646
2548	0.0613
2557	0.0566
2566	0.0519
2575	0.048
2584	0.0454
2593	0.0439
2602	0.0434
2611	0.0432
2620	0.0422
2629	0.0402
2638	0.0363
2647	0.0321
2656	0.0272
2665	0.0215
2674	0.0157
2683	0.013
2692	0.0123
2701	0.012
2710	0.0117
2719	0.0109
2728	0.0098
2737	0.0081
2746	0.0065
2755	0.005
2764	0.0045
2773	0.0045
2782	0.0045
2791	0.0044
2800	0.0044
2809	0.0043
2818	0.0043
2827	0.0042
2836	0.0043
2845	0.0044
2854	0.0044
2863	0.0044
2872	0.0045
2881	0.0047
2890	0.0048
2899	0.005
2908	0.0052
2917	0.0054
2926	0.0058
2935	0.0061
2944	0.0064
2953	0.0067
2962	0.0072
2971	0.0078
2980	0.0083
2989	0.0088
2998	0.0096
3007	0.0104
3016	0.0112
3025	0.0116
3034	0.012
3043	0.0122
3052	0.0123
3061	0.0123
3070	0.0128
3079	0.0155
3088	0.0201
3097	0.0232
3106	0.0258
3115	0.0279
3124	0.0297
3133	0.0303
3142	0.0308
3151	0.0323
3160	0.0362
3169	0.0461
3178	0.0655
3187	0.0757
3196	0.0836
3205	0.0904
3214	0.0964
3223	0.1022
3232	0.1078
3241	0.1108
3250	0.1129
3259	0.1135
3268	0.1129
3277	0.1117
3286	0.1093
3295	0.1067
3304	0.104
3313	0.1012
3322	0.0979
3331	0.0947
3340	0.0919
3349	0.0896
3358	0.0878
3367	0.0872
3376	0.0869
3385	0.0871
3394	0.0876
3403	0.0887
3412	0.0908
3421	0.094
3430	0.0978
3439	0.1014
3448	0.1048
3457	0.1104
3466	0.1227
3475	0.145
3484	0.1552
3493	0.1693
3502	0.2215
3511	0.2375
3520	0.2548
3529	0.2762
3538	0.2975
3547	0.3188
3556	0.3398
3565	0.3608
3574	0.3817
3583	0.3994
3592	0.4141
3601	0.4277
3610	0.4362
3619	0.4436
3628	0.4506
3637	0.4579
3646	0.4631
3655	0.4657
3664	0.4661
3673	0.4664
3682	0.4668
3691	0.4669
3700	0.4671
3709	0.4672
3718	0.4673
3727	0.4674
3736	0.4674
3745	0.4672
3754	0.4669
3763	0.4668
3772	0.4638
3781	0.4587
3790	0.4578
3799	0.4575
3808	0.4571
3817	0.4557
3826	0.45
3835	0.4467
3844	0.4438
3853	0.4411
3862	0.4386
3871	0.4375
3880	0.4367
3889	0.4363
3898	0.4359
3907	0.4356
3916	0.4352
3925	0.4347
3934	0.4342
3943	0.4335
3952	0.4303
3961	0.4264
3970	0.4243
3979	0.4223
3988	0.4204
3997	0.4189
