Infrared Spectrum: Chromium, tricarbonyl(mesitylene)-
Formula: C12 H12 Cr O3
State: SOLID (SPLIT MULL), FLUOROLUBE FOR 3800-1330 CM^-^1, NUJOL FOR 1330-470 CM^-^1
Class: COBLENTZ III
Instrument: DOW KBr FOREPRISM-GRATING
Instrument parameters: BLAZED AT 3.5, 12.0, 20.0 MICRON AND CHANGED AT 5.0, 7.5, 14.9 MICRON
Sampling: TRANSMISSION
Resolution: 2
Origin: DOW CHEMICAL COMPANY
1/CM	TRANSMITTANCE
3796	0.6451
3787	0.6447
3778	0.6447
3769	0.6457
3760	0.6483
3751	0.6501
3742	0.6518
3733	0.6538
3724	0.6551
3715	0.6553
3706	0.6534
3697	0.6475
3688	0.649
3679	0.6517
3670	0.6539
3661	0.6558
3652	0.6578
3643	0.6596
3634	0.6612
3625	0.663
3616	0.6644
3607	0.6657
3598	0.6671
3589	0.6683
3580	0.6694
3571	0.6705
3562	0.6715
3553	0.6725
3544	0.6732
3535	0.6738
3526	0.6744
3517	0.6749
3508	0.6751
3499	0.6755
3490	0.6757
3481	0.6761
3472	0.6769
3463	0.6778
3454	0.6787
3445	0.6794
3436	0.6801
3427	0.6808
3418	0.6815
3409	0.6824
3400	0.6833
3391	0.6845
3382	0.6857
3373	0.6861
3364	0.6864
3355	0.6867
3346	0.6871
3337	0.6878
3328	0.6888
3319	0.6898
3310	0.6903
3301	0.6906
3292	0.6908
3283	0.6911
3274	0.6912
3265	0.6914
3256	0.6918
3247	0.6931
3238	0.6945
3229	0.6957
3220	0.6968
3211	0.6978
3202	0.699
3193	0.7
3184	0.7011
3175	0.7021
3166	0.7032
3157	0.704
3148	0.7048
3139	0.7057
3130	0.7067
3121	0.7071
3112	0.7075
3103	0.7071
3094	0.6994
3085	0.6971
3076	0.7
3067	0.7065
3058	0.7068
3049	0.7047
3040	0.7065
3031	0.7097
3022	0.7136
3013	0.7157
3004	0.7147
2995	0.7018
2986	0.6864
2977	0.6861
2968	0.6903
2959	0.6956
2950	0.7015
2941	0.7003
2932	0.686
2923	0.6914
2914	0.7011
2905	0.7105
2896	0.7134
2887	0.7157
2878	0.7161
2869	0.7142
2860	0.7162
2851	0.7208
2842	0.7253
2833	0.7289
2824	0.731
2815	0.7331
2806	0.7348
2797	0.7361
2788	0.7376
2779	0.7385
2770	0.7386
2761	0.7398
2752	0.7414
2743	0.7431
2734	0.7449
2725	0.7467
2716	0.7484
2707	0.7501
2698	0.7518
2689	0.7535
2680	0.7551
2671	0.7568
2662	0.7584
2653	0.7599
2644	0.7614
2635	0.7628
2626	0.7644
2617	0.7651
2608	0.7657
2599	0.7661
2590	0.7667
2581	0.7672
2572	0.7681
2563	0.7688
2554	0.7695
2545	0.7705
2536	0.7715
2527	0.7724
2518	0.7733
2509	0.774
2500	0.7747
2491	0.7751
2482	0.7757
2473	0.7757
2464	0.7758
2455	0.7762
2446	0.7758
2437	0.7728
2428	0.7733
2419	0.7751
2410	0.7764
2401	0.7765
2392	0.7758
2383	0.7751
2374	0.7742
2365	0.7731
2356	0.7718
2347	0.7715
2338	0.7711
2329	0.7711
2320	0.773
2311	0.7754
2302	0.779
2293	0.7828
2284	0.7875
2275	0.7925
2266	0.7975
2257	0.8024
2248	0.8078
2239	0.8131
2230	0.8174
2221	0.8213
2212	0.8253
2203	0.8292
2194	0.8332
2185	0.8363
2176	0.8391
2167	0.8418
2158	0.8454
2149	0.8489
2140	0.8525
2131	0.856
2122	0.8592
2113	0.8621
2104	0.8653
2095	0.8683
2086	0.8706
2077	0.8725
2068	0.8745
2059	0.8764
2050	0.8793
2041	0.881
2032	0.8821
2023	0.8737
2014	0.8574
2005	0.8452
1996	0.8072
1987	0.7228
1978	0.4125
1969	0.2111
1960	0.1388
1951	0.1653
1942	0.4331
1933	0.5484
1924	0.5643
1915	0.5017
1906	0.2405
1897	0.0596
1888	0.0608
1879	0.0518
1870	0.0824
1861	0.2025
1852	0.2639
1843	0.3609
1834	0.4074
1825	0.4902
1816	0.5445
1807	0.5762
1798	0.6025
1789	0.627
1780	0.643
1771	0.6645
1762	0.6782
1753	0.6762
1744	0.6919
1735	0.7087
1726	0.7224
1717	0.7348
1708	0.7465
1699	0.7574
1690	0.7649
1681	0.7724
1672	0.78
1663	0.7871
1654	0.7936
1645	0.7996
1636	0.8033
1627	0.8049
1618	0.806
1609	0.8062
1600	0.8055
1591	0.8006
1582	0.7948
1573	0.7917
1564	0.7875
1555	0.7868
1546	0.788
1537	0.7589
1528	0.7644
1519	0.7718
1510	0.7799
1501	0.7856
1492	0.7856
1483	0.7867
1474	0.7885
1465	0.7708
1456	0.6228
1447	0.6825
1438	0.7208
1429	0.7484
1420	0.7634
1411	0.7769
1402	0.7856
1393	0.7839
1384	0.6786
1375	0.7317
1366	0.7668
1357	0.7731
1348	0.7733
1339	0.7847
1330	0.8151
1321	0.8191
1312	0.8185
1303	0.7096
1294	0.7932
1285	0.808
1276	0.8105
1267	0.8105
1258	0.8267
1249	0.8328
1240	0.8354
1231	0.8391
1222	0.8341
1213	0.8387
1204	0.8389
1195	0.8402
1186	0.8448
1177	0.8461
1168	0.84
1159	0.8188
1150	0.8238
1141	0.8492
1132	0.8512
1123	0.8516
1114	0.852
1105	0.8499
1096	0.8449
1087	0.8397
1078	0.8349
1069	0.8345
1060	0.8273
1051	0.8122
1042	0.7812
1033	0.6819
1024	0.7906
1015	0.8055
1006	0.7722
997	0.7978
988	0.8207
979	0.8218
970	0.8143
961	0.8162
952	0.8207
943	0.8244
934	0.8281
925	0.8297
916	0.8316
907	0.8344
898	0.8316
889	0.8087
880	0.8307
871	0.8392
862	0.8182
853	0.8301
844	0.8371
835	0.8375
826	0.8434
817	0.8452
808	0.8464
799	0.8474
790	0.847
781	0.8466
772	0.8457
763	0.8443
754	0.8407
745	0.8298
736	0.8175
727	0.8015
718	0.7995
709	0.8228
700	0.8336
691	0.8261
682	0.7081
673	0.4175
664	0.7601
655	0.8065
646	0.818
637	0.3111
628	0.6767
619	0.7656
610	0.8032
601	0.8142
592	0.8185
583	0.8139
574	0.8126
565	0.8125
556	0.7268
547	0.7293
538	0.7896
529	0.8081
520	0.7958
511	0.7755
502	0.7336
493	0.7601
484	0.7278
475	0.7612
466	0.7798
