Infrared Spectrum: Oxadiazole, 1,2,4-, 5Beta-diethylaminoethyl-3-phenyl-, phosphate
Formula: C14 H22 N3 O5 P
State: SOLID (OIL MULL)
Class: COBLENTZ III
Instrument: PERKIN-ELMER 21 (GRATING)
Instrument parameters: NaCl PRISM
Sampling: TRANSMISSION
Resolution: 2
Origin: SMITH KLINE & FRENCH LABS.
1/CM	TRANSMITTANCE
666	0.8693
675	0.8793
684	0.9041
693	0.6351
702	0.9324
711	0.7692
720	0.2978
729	0.8726
738	0.9573
747	0.9298
756	0.9236
765	0.8915
774	0.6143
783	0.6314
792	0.7831
801	0.8708
810	0.7797
819	0.7352
828	0.7342
837	0.5615
846	0.6578
855	0.6117
864	0.5254
873	0.4637
882	0.593
891	0.5347
900	0.4293
909	0.3014
918	0.4257
927	0.3214
936	0.2687
945	0.2032
954	0.1896
963	0.2177
972	0.2704
981	0.3508
990	0.3936
999	0.422
1008	0.4173
1017	0.3034
1026	0.2793
1035	0.2641
1044	0.1856
1053	0.1774
1062	0.2282
1071	0.2571
1080	0.2963
1089	0.3467
1098	0.3416
1107	0.3021
1116	0.2983
1125	0.3001
1134	0.3001
1143	0.3254
1152	0.4095
1161	0.4792
1170	0.5405
1179	0.6534
1188	0.7658
1197	0.7291
1206	0.5936
1215	0.6482
1224	0.5624
1233	0.4829
1242	0.4714
1251	0.4971
1260	0.5229
1269	0.5383
1278	0.5561
1287	0.5244
1296	0.6236
1305	0.6197
1314	0.7743
1323	0.7754
1332	0.6673
1341	0.7151
1350	0.7031
1359	0.4644
1368	0.2987
1377	0.2966
1386	0.5641
1395	0.7327
1404	0.6038
1413	0.6787
1422	0.6688
1431	0.4961
1440	0.4124
1449	0.1696
1458	0.1333
1467	0.1628
1476	0.2626
1485	0.4047
1494	0.4783
1503	0.4828
1512	0.5769
1521	0.664
1530	0.6724
1539	0.7434
1548	0.7488
1557	0.7
1566	0.6101
1575	0.4745
1584	0.5167
1593	0.5926
1602	0.3356
1611	0.6302
1620	0.757
1629	0.7572
1638	0.7447
1647	0.7314
1656	0.7203
1665	0.7292
1674	0.7192
1683	0.7102
1692	0.7109
1701	0.7039
1710	0.7087
1719	0.7078
1728	0.7205
1737	0.731
1746	0.7323
1755	0.7324
1764	0.7331
1773	0.7345
1782	0.737
1791	0.7426
1800	0.7514
1809	0.7644
1818	0.7713
1827	0.7735
1836	0.7781
1845	0.7882
1854	0.7883
1863	0.7879
1872	0.787
1881	0.786
1890	0.7843
1899	0.7815
1908	0.7687
1917	0.763
1926	0.7619
1935	0.7595
1944	0.7513
1953	0.7417
1962	0.7314
1971	0.7203
1980	0.7104
1989	0.7018
1998	0.6951
2007	0.6883
2016	0.6815
2025	0.6726
2034	0.6585
2043	0.6401
2052	0.628
2061	0.6181
2070	0.6085
2079	0.5964
2088	0.5857
2097	0.5764
2106	0.567
2115	0.5579
2124	0.5498
2133	0.5417
2142	0.5337
2151	0.5255
2160	0.5181
2169	0.5101
2178	0.5025
2187	0.4996
2196	0.4887
2205	0.4799
2214	0.471
2223	0.4589
2232	0.4516
2241	0.4449
2250	0.4383
2259	0.4326
2268	0.4257
2277	0.4186
2286	0.4109
2295	0.4022
2304	0.3929
2313	0.3804
2322	0.3653
2331	0.3619
2340	0.3619
2349	0.3626
2358	0.3639
2367	0.3676
2376	0.3731
2385	0.38
2394	0.387
2403	0.3935
2412	0.3992
2421	0.4049
2430	0.4137
2439	0.4233
2448	0.4331
2457	0.4439
2466	0.4585
2475	0.477
2484	0.4938
2493	0.5073
2502	0.5197
2511	0.5353
2520	0.5517
2529	0.5566
2538	0.5577
2547	0.5568
2556	0.5555
2565	0.5557
2574	0.5536
2583	0.5392
2592	0.5174
2601	0.5054
2610	0.5023
2619	0.5003
2628	0.4988
2637	0.4976
2646	0.4963
2655	0.4937
2664	0.4914
2673	0.4918
2682	0.4946
2691	0.499
2700	0.499
2709	0.4973
2718	0.4981
2727	0.5021
2736	0.5083
2745	0.5145
2754	0.5173
2763	0.518
2772	0.5171
2781	0.5079
2790	0.4922
2799	0.4701
2808	0.438
2817	0.3748
2826	0.3296
2835	0.3117
2844	0.1934
2853	0.0759
2862	0.0287
2871	0.0285
2880	0.0296
2889	0.0315
2898	0.0341
2907	0.0402
2916	0.0472
2925	0.0568
2934	0.0692
2943	0.0695
2952	0.0671
2961	0.0659
2970	0.1007
2979	0.2163
2988	0.2468
2997	0.3378
3006	0.3939
3015	0.4496
3024	0.5011
3033	0.5211
3042	0.547
3051	0.5866
3060	0.6194
3069	0.635
3078	0.6594
3087	0.6769
3096	0.6904
3105	0.7058
3114	0.7213
3123	0.7334
3132	0.7436
3141	0.7524
3150	0.7611
3159	0.7695
3168	0.7777
3177	0.7844
3186	0.791
3195	0.7975
3204	0.8062
3213	0.8159
3222	0.8227
3231	0.8264
3240	0.83
3249	0.8336
3258	0.8371
3267	0.8406
3276	0.8439
3285	0.8645
3294	0.8695
3303	0.8715
3312	0.8732
3321	0.8739
3330	0.8746
3339	0.8754
3348	0.8761
3357	0.8767
3366	0.8773
3375	0.8779
3384	0.8784
3393	0.879
3402	0.8796
3411	0.8802
3420	0.8807
3429	0.8811
3438	0.8816
3447	0.8821
3456	0.8825
3465	0.8843
3474	0.887
3483	0.8895
3492	0.8915
3501	0.8909
3510	0.889
3519	0.8865
3528	0.8836
3537	0.8828
3546	0.883
3555	0.8834
3564	0.8837
3573	0.8847
3582	0.8859
3591	0.8871
3600	0.8882
3609	0.8894
3618	0.892
3627	0.8906
3636	0.8909
3645	0.8913
3654	0.8908
3663	0.89
3672	0.8892
3681	0.8881
3690	0.8858
3699	0.8834
3708	0.8815
3717	0.8804
3726	0.8791
3735	0.878
3744	0.8773
3753	0.8769
3762	0.8764
3771	0.8759
3780	0.8755
3789	0.875
3798	0.8745
3807	0.8736
3816	0.8726
3825	0.8717
3834	0.8681
3843	0.8648
3852	0.863
3861	0.8616
3870	0.8604
3879	0.8593
3888	0.8583
3897	0.8572
3906	0.8565
3915	0.856
3924	0.8556
3933	0.8551
3942	0.8547
3951	0.8543
3960	0.8539
3969	0.8535
3978	0.8523
3987	0.85
3996	0.8478
