Infrared Spectrum: 1-(1'-ACENAPHTHYL)-4-METHYL-PIPERAZINE
Formula: C17 H20 N2
State: SOLUTION (7% CHCl3)
Class: COBLENTZ
Instrument: Not specified, most likely a prism, grating, or hybrid spectrometer.
Sampling: TRANSMISSION
Path length: 0.01 CM
Resolution: 4
MICROMETERS	TRANSMITTANCE
2.06	0.982
2.09973	0.972
2.13947	0.977
2.1792	0.97
2.21893	0.969
2.25867	0.969
2.2984	0.966
2.33813	0.962
2.37787	0.961
2.4176	0.969
2.45733	0.949
2.49706	0.944
2.5368	0.941
2.57653	0.946
2.61626	0.953
2.656	0.953
2.69573	0.953
2.73546	0.953
2.7752	0.953
2.81493	0.972
2.85466	0.943
2.8944	0.946
2.93413	0.944
2.97386	0.927
3.0136	0.902
3.05333	0.894
3.09306	0.888
3.13279	0.878
3.17253	0.867
3.21226	0.862
3.25199	0.87
3.29173	0.857
3.33146	0.763
3.37119	0.737
3.41093	0.542
3.45066	0.312
3.49039	0.398
3.53013	0.501
3.56986	0.427
3.60959	0.347
3.64933	0.597
3.68906	0.666
3.72879	0.763
3.76852	0.809
3.80826	0.823
3.84799	0.878
3.88772	0.898
3.92746	0.896
3.96719	0.888
4.00692	0.875
4.04666	0.852
4.08639	0.844
4.12612	0.877
4.16586	0.902
4.20559	0.914
4.24532	0.92
4.28506	0.925
4.32479	0.943
4.36452	0.936
4.40426	0.917
4.44399	0.915
4.48372	0.922
4.52345	0.922
4.56319	0.92
4.60292	0.919
4.64265	0.925
4.68239	0.92
4.72212	0.922
4.76185	0.927
4.80159	0.927
4.84132	0.923
4.88105	0.923
4.92079	0.92
4.96052	0.927
5.00025	0.93
5.03999	0.93
5.07972	0.92
5.11945	0.927
5.15918	0.92
5.19892	0.911
5.23865	0.888
5.27838	0.906
5.31812	0.919
5.35785	0.917
5.39758	0.912
5.43732	0.911
5.47705	0.915
5.51678	0.922
5.55652	0.915
5.59625	0.919
5.63598	0.907
5.67572	0.909
5.71545	0.912
5.75518	0.912
5.79491	0.912
5.83465	0.902
5.87438	0.912
5.91411	0.907
5.95385	0.898
5.99358	0.906
6.03331	0.904
6.07305	0.902
6.11278	0.901
6.15251	0.896
6.19225	0.872
6.23198	0.833
6.27171	0.737
6.31145	0.822
6.35118	0.88
6.39091	0.901
6.43065	0.906
6.47038	0.922
6.51011	0.922
6.54984	0.925
6.58958	0.919
6.62931	0.914
6.66904	0.904
6.70878	0.864
6.74851	0.77
6.78824	0.868
6.82798	0.862
6.86771	0.644
6.90744	0.572
6.94718	0.543
6.98691	0.731
7.02664	0.781
7.06638	0.762
7.10611	0.778
7.14584	0.833
7.18557	0.878
7.22531	0.886
7.26504	0.881
7.30477	0.789
7.34451	0.632
7.38424	0.648
7.42397	0.766
7.46371	0.694
7.50344	0.553
7.54317	0.715
7.58291	0.673
7.62264	0.797
7.66237	0.826
7.70211	0.82
7.74184	0.815
7.78157	0.723
7.8213	0.412
7.86104	0.464
7.90077	0.642
7.9405	0.684
7.98024	0.736
8.01997	0.75
8.0597	0.773
8.09944	0.776
8.13917	0.768
8.1789	0.765
8.21864	0.797
8.25837	0.813
8.2981	0.826
8.33784	0.844
8.37757	0.854
8.4173	0.851
8.45704	0.804
8.49677	0.655
8.5365	0.503
8.57623	0.569
8.61597	0.723
8.6557	0.733
8.69543	0.598
8.73517	0.524
8.7749	0.493
8.81463	0.406
8.85437	0.402
8.8941	0.548
8.93383	0.71
8.97357	0.773
9.0133	0.779
9.05303	0.778
9.09277	0.788
9.1325	0.805
9.17223	0.813
9.21196	0.794
9.2517	0.779
9.29143	0.815
9.33116	0.783
9.3709	0.818
9.41063	0.898
9.45036	0.92
9.4901	0.917
9.52983	0.894
9.56956	0.838
9.6093	0.851
9.64903	0.909
9.68876	0.925
9.7285	0.928
9.76823	0.865
9.80796	0.817
9.84769	0.81
9.88743	0.663
9.92716	0.352
9.96689	0.517
10.0066	0.705
10.0464	0.783
10.0861	0.786
10.1258	0.815
10.1656	0.855
10.2053	0.877
10.245	0.889
10.2848	0.898
10.3245	0.867
10.3642	0.834
10.404	0.867
10.4437	0.883
10.4834	0.898
10.5232	0.904
10.5629	0.906
10.6026	0.907
10.6424	0.894
10.6821	0.834
10.7218	0.839
10.7616	0.877
10.8013	0.885
10.841	0.888
10.8808	0.883
10.9205	0.888
10.9602	0.888
11	0.888
11.0397	0.878
11.0794	0.86
11.1192	0.86
11.1589	0.88
11.1986	0.893
11.2384	0.904
11.2781	0.912
11.3178	0.912
11.3576	0.909
11.3973	0.898
11.437	0.902
11.4768	0.901
11.5165	0.912
11.5562	0.904
11.596	0.912
11.6357	0.899
11.6754	0.898
11.7152	0.854
11.7549	0.844
11.7946	0.865
11.8344	0.865
11.8741	0.859
11.9138	0.872
11.9536	0.886
11.9933	0.893
12.033	0.885
12.0728	0.877
12.1125	0.855
12.1522	0.749
12.1919	0.438
12.2317	0.323
12.2714	0.498
12.3111	0.677
12.3509	0.788
12.3906	0.834
12.4303	0.872
12.4701	0.868
12.5098	0.857
12.5495	0.862
12.5893	0.862
12.629	0.872
12.6687	0.886
12.7085	0.896
12.7482	0.907
12.7879	0.92
12.8277	0.957
12.8674	0.975
12.9071	0.995
12.9469	1.008
12.9866	1.008
13.0263	1.008
13.0661	1.006
13.1058	1.006
13.1455	1.006
13.1853	1.006
13.225	1.006
13.2647	1.006
13.3045	1.006
13.3442	1.006
13.3839	1.006
13.4237	1.006
13.4634	1.008
13.5031	1.008
13.5429	1.008
13.5826	1.006
13.6223	1.006
13.6621	1.004
13.7018	1.004
13.7415	1.004
13.7813	1.004
13.821	1.006
13.8607	1.006
13.9005	1.006
13.9402	1.006
13.9799	1.001
14.0197	0.998
14.0594	0.991
14.0991	0.975
14.1389	0.966
14.1786	0.966
14.2183	0.956
14.2581	0.949
14.2978	0.93
14.3375	0.914
14.3773	0.911
14.417	0.902
14.4567	0.886
14.4965	0.88
14.5362	0.889
14.5759	0.898
14.6157	0.901
14.6554	0.906
14.6951	0.914
14.7349	0.92
14.7746	0.923
14.8143	0.936
14.8541	0.951
14.8938	0.964
14.9335	0.959
14.9733	0.964
15.013	0.97
15.0527	0.974
15.0925	0.966
15.1322	0.867
15.1719	0.708
15.2117	0.632
15.2514	0.656
15.2911	0.728
15.3309	0.8
15.3706	0.851
15.4103	0.875
15.4501	0.883
15.4898	0.893
15.5295	0.893
