Infrared Spectrum: 2-tert-Butyl-5-methylisoxazolium perchlorate
Formula: C8 H14 Cl N O5
State: SOLID (SPLIT MULL), FLUOROLUBE FOR 3800-1330 CM^-^1, NUJOL FOR 1330-400 CM^-^1
Class: COBLENTZ III
Instrument: DOW KBr FOREPRISM-GRATING
Instrument parameters: BLAZED AT 3.5, 12.0, 20.0 MICRON AND CHANGED AT 5.0, 7.5, 14.9 MICRON
Sampling: TRANSMISSION
Resolution: 2
Origin: DOW CHEMICAL COMPANY
1/CM	TRANSMITTANCE
383	0.7235
392	0.7274
401	0.7312
410	0.7354
419	0.7398
428	0.7449
437	0.7498
446	0.7547
455	0.7604
464	0.7645
473	0.7675
482	0.7697
491	0.7631
500	0.7806
509	0.7905
518	0.7906
527	0.7921
536	0.7938
545	0.7947
554	0.7941
563	0.7868
572	0.7765
581	0.8068
590	0.8061
599	0.7949
608	0.7661
617	0.4786
626	0.3293
635	0.7165
644	0.801
653	0.8205
662	0.8318
671	0.8391
680	0.8403
689	0.8383
698	0.8342
707	0.8264
716	0.8089
725	0.7932
734	0.8119
743	0.8164
752	0.8217
761	0.824
770	0.8223
779	0.8188
788	0.8142
797	0.8046
806	0.778
815	0.6817
824	0.5722
833	0.6685
842	0.7601
851	0.7841
860	0.7899
869	0.7903
878	0.7888
887	0.7838
896	0.7742
905	0.7605
914	0.7181
923	0.6753
932	0.7049
941	0.7225
950	0.7147
959	0.7482
968	0.7431
977	0.6753
986	0.7143
995	0.7325
1004	0.655
1013	0.719
1022	0.7086
1031	0.6604
1040	0.5451
1049	0.5635
1058	0.5036
1067	0.2634
1076	0.1124
1085	0.0135
1094	0.0084
1103	0.015
1112	0.1169
1121	0.2665
1130	0.2879
1139	0.4882
1148	0.6339
1157	0.6848
1166	0.7001
1175	0.6975
1184	0.6953
1193	0.6619
1202	0.5393
1211	0.3564
1220	0.4302
1229	0.5915
1238	0.5323
1247	0.5262
1256	0.4315
1265	0.5808
1274	0.701
1283	0.7258
1292	0.7289
1301	0.7301
1310	0.7369
1319	0.7392
1328	0.7344
1337	0.7215
1346	0.7201
1355	0.7681
1364	0.7768
1373	0.7375
1382	0.2813
1391	0.723
1400	0.5902
1409	0.6835
1418	0.7388
1427	0.7422
1436	0.6998
1445	0.5708
1454	0.4618
1463	0.5849
1472	0.6304
1481	0.5295
1490	0.626
1499	0.5268
1508	0.272
1517	0.0714
1526	0.5486
1535	0.7899
1544	0.8051
1553	0.8056
1562	0.8108
1571	0.8032
1580	0.7608
1589	0.6382
1598	0.3078
1607	0.8495
1616	0.855
1625	0.8546
1634	0.8563
1643	0.8587
1652	0.8606
1661	0.8611
1670	0.8607
1679	0.8594
1688	0.8568
1697	0.8545
1706	0.8534
1715	0.8531
1724	0.8536
1733	0.8541
1742	0.8551
1751	0.8571
1760	0.8597
1769	0.8617
1778	0.8623
1787	0.8631
1796	0.8637
1805	0.8641
1814	0.8625
1823	0.8621
1832	0.8623
1841	0.8621
1850	0.8621
1859	0.8623
1868	0.8618
1877	0.8613
1886	0.8625
1895	0.8646
1904	0.8625
1913	0.8615
1922	0.8605
1931	0.8593
1940	0.8581
1949	0.8559
1958	0.855
1967	0.8532
1976	0.8491
1985	0.8397
1994	0.8298
2003	0.7692
2012	0.7622
2021	0.7553
2030	0.7569
2039	0.7642
2048	0.7815
2057	0.7932
2066	0.7954
2075	0.7958
2084	0.7958
2093	0.7955
2102	0.7951
2111	0.7946
2120	0.794
2129	0.7933
2138	0.7915
2147	0.7897
2156	0.7871
2165	0.7846
2174	0.7819
2183	0.7799
2192	0.7778
2201	0.7758
2210	0.779
2219	0.7801
2228	0.7793
2237	0.7783
2246	0.7769
2255	0.7756
2264	0.774
2273	0.7724
2282	0.7725
2291	0.7718
2300	0.771
2309	0.7701
2318	0.7701
2327	0.7746
2336	0.7792
2345	0.7815
2354	0.7825
2363	0.7826
2372	0.7832
2381	0.7839
2390	0.7815
2399	0.7798
2408	0.779
2417	0.7787
2426	0.7795
2435	0.7803
2444	0.7808
2453	0.7808
2462	0.7807
2471	0.7804
2480	0.7817
2489	0.7824
2498	0.7835
2507	0.7844
2516	0.7851
2525	0.7858
2534	0.7864
2543	0.7868
2552	0.7875
2561	0.7861
2570	0.784
2579	0.7807
2588	0.7787
2597	0.7775
2606	0.7778
2615	0.7786
2624	0.7801
2633	0.7804
2642	0.7806
2651	0.7803
2660	0.7799
2669	0.7795
2678	0.7784
2687	0.7769
2696	0.7758
2705	0.7746
2714	0.7736
2723	0.7725
2732	0.7714
2741	0.7703
2750	0.7692
2759	0.7678
2768	0.766
2777	0.7641
2786	0.7622
2795	0.7601
2804	0.7578
2813	0.7556
2822	0.7528
2831	0.7495
2840	0.7449
2849	0.7408
2858	0.7394
2867	0.7358
2876	0.7222
2885	0.7104
2894	0.709
2903	0.7082
2912	0.7019
2921	0.6835
2930	0.6743
2939	0.6688
2948	0.6607
2957	0.6606
2966	0.6607
2975	0.6551
2984	0.6271
2993	0.5612
3002	0.5615
3011	0.6541
3020	0.6886
3029	0.7001
3038	0.7022
3047	0.7008
3056	0.6969
3065	0.6817
3074	0.6581
3083	0.6354
3092	0.6342
3101	0.6317
3110	0.5889
3119	0.5142
3128	0.4396
3137	0.365
3146	0.3349
3155	0.431
3164	0.5819
3173	0.6597
3182	0.6386
3191	0.6607
3200	0.7331
3209	0.7381
3218	0.7396
3227	0.7405
3236	0.7408
3245	0.741
3254	0.7411
3263	0.7408
3272	0.7403
3281	0.7396
3290	0.7389
3299	0.7382
3308	0.7374
3317	0.7364
3326	0.7333
3335	0.7306
3344	0.7304
3353	0.7301
3362	0.7298
3371	0.7295
3380	0.7293
3389	0.7288
3398	0.7282
3407	0.7274
3416	0.7258
3425	0.7239
3434	0.7221
3443	0.7214
3452	0.7208
3461	0.7205
3470	0.7204
3479	0.7201
3488	0.7201
3497	0.7196
3506	0.7193
3515	0.7188
3524	0.7185
3533	0.718
3542	0.7175
3551	0.7171
3560	0.7167
3569	0.7165
3578	0.7164
3587	0.7171
3596	0.7183
3605	0.7183
3614	0.7181
3623	0.7176
3632	0.7175
3641	0.7174
3650	0.7172
3659	0.7171
3668	0.7168
3677	0.716
3686	0.7147
3695	0.7125
3704	0.7101
3713	0.7096
3722	0.7097
3731	0.71
3740	0.7091
3749	0.7074
3758	0.7054
3767	0.7049
3776	0.7048
3785	0.7046
