Infrared Spectrum: 1-Phenylcyclopentanecarboxylic acid, 2-diethyl-aminoethyl ester, 1,2-ethanedisulfonate
Formula: C38 H60 N2 O10 S2
State: SOLID (OIL MULL)
Class: COBLENTZ III
Instrument: PERKIN-ELMER 21 (GRATING)
Instrument parameters: NaCl PRISM
Sampling: TRANSMISSION
Resolution: 2
Origin: SMITH KLINE & FRENCH LABS.
1/CM	TRANSMITTANCE
4000	0.5715
3991	0.5738
3982	0.576
3973	0.5783
3964	0.5806
3955	0.5829
3946	0.5852
3937	0.5876
3928	0.5899
3919	0.5923
3910	0.5953
3901	0.5984
3892	0.6012
3883	0.6042
3874	0.6072
3865	0.6101
3856	0.6125
3847	0.6147
3838	0.6166
3829	0.6174
3820	0.6179
3811	0.6181
3802	0.6184
3793	0.6187
3784	0.6192
3775	0.6205
3766	0.6219
3757	0.6232
3748	0.6247
3739	0.626
3730	0.6275
3721	0.6291
3712	0.6307
3703	0.6324
3694	0.6339
3685	0.6356
3676	0.6372
3667	0.6388
3658	0.6403
3649	0.6418
3640	0.6435
3631	0.6454
3622	0.6471
3613	0.6491
3604	0.6505
3595	0.6507
3586	0.6508
3577	0.6521
3568	0.6539
3559	0.6568
3550	0.6586
3541	0.6591
3532	0.659
3523	0.6588
3514	0.6586
3505	0.6585
3496	0.6583
3487	0.6581
3478	0.6578
3469	0.6575
3460	0.6574
3451	0.6571
3442	0.6564
3433	0.6558
3424	0.6551
3415	0.6548
3406	0.6547
3397	0.6545
3388	0.6543
3379	0.6541
3370	0.654
3361	0.6548
3352	0.6572
3343	0.661
3334	0.6648
3325	0.6668
3316	0.6671
3307	0.6669
3298	0.6665
3289	0.6675
3280	0.6691
3271	0.6728
3262	0.6764
3253	0.6786
3244	0.6794
3235	0.6793
3226	0.6782
3217	0.6775
3208	0.6769
3199	0.6762
3190	0.6754
3181	0.6738
3172	0.6718
3163	0.6688
3154	0.6655
3145	0.6622
3136	0.6592
3127	0.6561
3118	0.6531
3109	0.6482
3100	0.6415
3091	0.629
3082	0.6147
3073	0.5836
3064	0.5543
3055	0.5367
3046	0.5175
3037	0.4957
3028	0.4592
3019	0.402
3010	0.3578
3001	0.3314
2992	0.2909
2983	0.2404
2974	0.1895
2965	0.1385
2956	0.0871
2947	0.0601
2938	0.0558
2929	0.0535
2920	0.052
2911	0.0505
2902	0.05
2893	0.0495
2884	0.0493
2875	0.0493
2866	0.0504
2857	0.0549
2848	0.0626
2839	0.0651
2830	0.0872
2821	0.1787
2812	0.2749
2803	0.3718
2794	0.4653
2785	0.5058
2776	0.5514
2767	0.556
2758	0.5581
2749	0.5657
2740	0.5704
2731	0.5702
2722	0.5072
2713	0.4887
2704	0.4779
2695	0.4699
2686	0.4579
2677	0.4126
2668	0.3847
2659	0.3438
2650	0.3304
2641	0.32
2632	0.3168
2623	0.3177
2614	0.3212
2605	0.3259
2596	0.342
2587	0.3676
2578	0.3997
2569	0.4099
2560	0.4162
2551	0.4231
2542	0.4303
2533	0.4375
2524	0.446
2515	0.4497
2506	0.4515
2497	0.4484
2488	0.433
2479	0.4204
2470	0.4201
2461	0.4439
2452	0.485
2443	0.5212
2434	0.5489
2425	0.5734
2416	0.5879
2407	0.6015
2398	0.6306
2389	0.6486
2380	0.6624
2371	0.6734
2362	0.6862
2353	0.6918
2344	0.693
2335	0.6969
2326	0.7035
2317	0.7115
2308	0.7219
2299	0.7338
2290	0.7462
2281	0.7592
2272	0.7686
2263	0.7736
2254	0.7803
2245	0.7888
2236	0.7985
2227	0.8071
2218	0.816
2209	0.8228
2200	0.8244
2191	0.8245
2182	0.828
2173	0.8353
2164	0.8371
2155	0.8373
2146	0.8405
2137	0.8505
2128	0.8628
2119	0.8721
2110	0.876
2101	0.8764
2092	0.8765
2083	0.8773
2074	0.8781
2065	0.8789
2056	0.8795
2047	0.8803
2038	0.8823
2029	0.8878
2020	0.8925
2011	0.8978
2002	0.901
1993	0.8999
1984	0.8912
1975	0.8845
1966	0.8883
1957	0.8897
1948	0.9054
1939	0.9095
1930	0.9145
1921	0.9197
1912	0.9201
1903	0.9161
1894	0.9286
1885	0.9207
1876	0.9188
1867	0.9338
1858	0.9438
1849	0.9481
1840	0.944
1831	0.9395
1822	0.9102
1813	0.9159
1804	0.9257
1795	0.9171
1786	0.9086
1777	0.9039
1768	0.8688
1759	0.7831
1750	0.688
1741	0.5428
1732	0.2899
1723	0.0767
1714	0.2821
1705	0.4034
1696	0.5207
1687	0.62
1678	0.6619
1669	0.7006
1660	0.7319
1651	0.7608
1642	0.7811
1633	0.8007
1624	0.8193
1615	0.8321
1606	0.8008
1597	0.6547
1588	0.7767
1579	0.7808
1570	0.8175
1561	0.8332
1552	0.8253
1543	0.827
1534	0.8338
1525	0.821
1516	0.8032
1507	0.7395
1498	0.5287
1489	0.3239
1480	0.3181
1471	0.1786
1462	0.1038
1453	0.0874
1444	0.1191
1435	0.2661
1426	0.5198
1417	0.7086
1408	0.7304
1399	0.6086
1390	0.566
1381	0.303
1372	0.2715
1363	0.5057
1354	0.6112
1345	0.6757
1336	0.6995
1327	0.6282
1318	0.5681
1309	0.5943
1300	0.4707
1291	0.565
1282	0.6138
1273	0.5525
1264	0.3059
1255	0.2678
1246	0.1259
1237	0.0525
1228	0.0826
1219	0.2057
1210	0.2574
1201	0.2908
1192	0.0777
1183	0.0956
1174	0.0833
1165	0.0508
1156	0.0713
1147	0.1059
1138	0.1101
1129	0.1927
1120	0.2993
1111	0.4114
1102	0.528
1093	0.5741
1084	0.386
1075	0.5442
1066	0.472
1057	0.5253
1048	0.5501
1039	0.408
1030	0.1904
1021	0.0567
1012	0.1235
1003	0.3216
994	0.4332
985	0.5798
976	0.6269
967	0.578
958	0.6564
949	0.6671
940	0.7154
931	0.7343
922	0.7221
913	0.6681
904	0.7572
895	0.6772
886	0.7753
877	0.7875
868	0.8206
859	0.8265
850	0.7771
841	0.7841
832	0.8105
823	0.7142
814	0.7254
805	0.6968
796	0.7544
787	0.7339
778	0.6984
769	0.3666
760	0.4516
751	0.4765
742	0.5343
733	0.3958
724	0.6625
715	0.7143
706	0.6698
697	0.2654
688	0.6895
679	0.7146
670	0.6946
661	0.658
