Infrared Spectrum: MORPHINE, ETHYL-, HYDROCHLORIDE,DIHYDRATE
Formula: C19 H24 Cl N O3  * 2 H2 O
State: SOLID (1.2 mg / 250 mg KBr DISC)
Melting point: 123 C DECOMP.
Class: COBLENTZ III
Instrument: PERKIN-ELMER 21 (GRATING)
Instrument parameters: FILTER AT ABOUT 10 MICRONS
Sampling: TRANSMISSION
Resolution: 2
Origin: BUREAU OF CUSTOMS
1/CM	TRANSMITTANCE
4000	0.8681
3991	0.869
3982	0.87
3973	0.871
3964	0.8715
3955	0.8716
3946	0.8716
3937	0.8718
3928	0.8721
3919	0.873
3910	0.8738
3901	0.8747
3892	0.8756
3883	0.8767
3874	0.8782
3865	0.8799
3856	0.8815
3847	0.8832
3838	0.8848
3829	0.8865
3820	0.888
3811	0.8896
3802	0.8906
3793	0.8908
3784	0.8909
3775	0.8906
3766	0.8901
3757	0.8898
3748	0.8901
3739	0.8903
3730	0.8905
3721	0.8911
3712	0.8908
3703	0.8875
3694	0.8765
3685	0.856
3676	0.8347
3667	0.8169
3658	0.7875
3649	0.7417
3640	0.6939
3631	0.6458
3622	0.5976
3613	0.549
3604	0.5002
3595	0.4512
3586	0.402
3577	0.3524
3568	0.3027
3559	0.2527
3550	0.2137
3541	0.2153
3532	0.2261
3523	0.2445
3514	0.2632
3505	0.2769
3496	0.2871
3487	0.2924
3478	0.2944
3469	0.2939
3460	0.2902
3451	0.2833
3442	0.2705
3433	0.2585
3424	0.2531
3415	0.2501
3406	0.2475
3397	0.2453
3388	0.2434
3379	0.2419
3370	0.2403
3361	0.2395
3352	0.2396
3343	0.241
3334	0.2537
3325	0.2777
3316	0.3017
3307	0.3254
3298	0.3396
3289	0.3541
3280	0.3709
3271	0.3864
3262	0.3947
3253	0.4009
3244	0.4064
3235	0.4119
3226	0.4188
3217	0.4366
3208	0.4553
3199	0.4742
3190	0.4933
3181	0.5123
3172	0.5315
3163	0.5509
3154	0.5703
3145	0.5898
3136	0.6095
3127	0.6293
3118	0.6438
3109	0.6453
3100	0.6446
3091	0.6374
3082	0.6026
3073	0.5659
3064	0.529
3055	0.4958
3046	0.4928
3037	0.5078
3028	0.5303
3019	0.5522
3010	0.5507
3001	0.547
2992	0.5301
2983	0.5242
2974	0.5042
2965	0.4893
2956	0.4833
2947	0.5022
2938	0.5292
2929	0.5564
2920	0.5837
2911	0.5997
2902	0.6042
2893	0.6053
2884	0.6023
2875	0.598
2866	0.5919
2857	0.5868
2848	0.5857
2839	0.5859
2830	0.5845
2821	0.577
2812	0.541
2803	0.5014
2794	0.4615
2785	0.4212
2776	0.4088
2767	0.4084
2758	0.4173
2749	0.4428
2740	0.4683
2731	0.4739
2722	0.4753
2713	0.4795
2704	0.4857
2695	0.4956
2686	0.5062
2677	0.5172
2668	0.5282
2659	0.5397
2650	0.5514
2641	0.5701
2632	0.5896
2623	0.6026
2614	0.6103
2605	0.6131
2596	0.6145
2587	0.6177
2578	0.6234
2569	0.632
2560	0.6384
2551	0.6447
2542	0.6601
2533	0.6817
2524	0.6996
2515	0.7154
2506	0.7295
2497	0.7435
2488	0.7574
2479	0.7697
2470	0.7797
2461	0.7897
2452	0.7983
2443	0.8068
2434	0.8168
2425	0.827
2416	0.834
2407	0.8396
2398	0.8448
2389	0.8462
2380	0.8461
2371	0.8461
2362	0.8461
2353	0.8471
2344	0.8494
2335	0.8545
2326	0.8618
2317	0.8731
2308	0.8818
2299	0.8894
2290	0.8936
2281	0.8977
2272	0.9012
2263	0.9042
2254	0.9068
2245	0.909
2236	0.9111
2227	0.9128
2218	0.9143
2209	0.9157
2200	0.9166
2191	0.9168
2182	0.9171
2173	0.9157
2164	0.9139
2155	0.9118
2146	0.9087
2137	0.9054
2128	0.9018
2119	0.8978
2110	0.8952
2101	0.8939
2092	0.8959
2083	0.8983
2074	0.9013
2065	0.9028
2056	0.9032
2047	0.9025
2038	0.9028
2029	0.9037
2020	0.9052
2011	0.9071
2002	0.9101
1993	0.914
1984	0.9181
1975	0.9221
1966	0.9261
1957	0.9287
1948	0.9313
1939	0.9341
1930	0.9367
1921	0.9388
1912	0.9412
1903	0.9437
1894	0.9418
1885	0.9398
1876	0.939
1867	0.9407
1858	0.9424
1849	0.9439
1840	0.9451
1831	0.9464
1822	0.9466
1813	0.9462
1804	0.9448
1795	0.9431
1786	0.9413
1777	0.9393
1768	0.9366
1759	0.9336
1750	0.9294
1741	0.927
1732	0.924
1723	0.9191
1714	0.9103
1705	0.8974
1696	0.8828
1687	0.864
1678	0.8303
1669	0.7736
1660	0.5338
1651	0.4148
1642	0.5307
1633	0.6507
1624	0.6408
1615	0.6308
1606	0.7355
1597	0.7128
1588	0.7854
1579	0.8534
1570	0.865
1561	0.8786
1552	0.8652
1543	0.8373
1534	0.7475
1525	0.5228
1516	0.2177
1507	0.2231
1498	0.5129
1489	0.3879
1480	0.4369
1471	0.4373
1462	0.3227
1453	0.4946
1444	0.5436
1435	0.6172
1426	0.6319
1417	0.6925
1408	0.5043
1399	0.4328
1390	0.6355
1381	0.5416
1372	0.6183
1363	0.5986
1354	0.6737
1345	0.7331
1336	0.7255
1327	0.6137
1318	0.7424
1309	0.7169
1300	0.6397
1291	0.4292
1282	0.3238
1273	0.2857
1264	0.5447
1255	0.552
1246	0.606
1237	0.7243
1228	0.7296
1219	0.7657
1210	0.6418
1201	0.6994
1192	0.3479
1183	0.5725
1174	0.5344
1165	0.5898
1156	0.6788
1147	0.7237
1138	0.3766
1129	0.423
1120	0.3772
1111	0.5823
1102	0.725
1093	0.5467
1084	0.5504
1075	0.3245
1066	0.2248
1057	0.3472
1048	0.3183
1039	0.5442
1030	0.6112
1021	0.5106
1012	0.7461
1003	0.7987
994	0.8125
985	0.7017
976	0.4099
967	0.6961
958	0.4937
949	0.6969
940	0.5679
931	0.7284
922	0.7575
913	0.8355
904	0.8574
895	0.7849
886	0.8571
877	0.743
868	0.7325
859	0.7738
850	0.8154
841	0.4641
832	0.779
823	0.8418
814	0.7871
805	0.493
796	0.6029
787	0.5654
778	0.7583
769	0.794
760	0.5786
751	0.8017
742	0.8359
733	0.8178
724	0.6888
715	0.7684
706	0.5991
697	0.7149
688	0.646
679	0.5939
670	0.6618
661	0.6244
652	0.612
