Infrared Spectrum: ZINC OXIDE (FRENCH PROCESS)
Formula: O Zn
State: SOLID (0.5 mg / 300 mg CsI DISC)
Class: COBLENTZ III
Instrument: BECKMAN IR-12 (GRATING)
Instrument parameters: GRATING BLAZED AT 3330, 1330, 445, 220 CM^-^1
Sampling: TRANSMISSION
Resolution: 4
Origin: DESOTO, INC.
1/CM	TRANSMITTANCE
201.333	0.868
212	0.873
222.666	0.88
233.333	0.884
244	0.882
254.667	0.88
265.333	0.878
276	0.881
286.667	0.882
297.333	0.884
308	0.874
318.667	0.861
329.334	0.85
340	0.838
350.667	0.836
361.334	0.829
372	0.817
382.667	0.794
393.334	0.731
404.001	0.556
414.667	0.384
425.334	0.2301
436.001	0.175
446.667	0.175
457.334	0.187
468.001	0.189
478.668	0.19
489.334	0.198
500.001	0.238
510.668	0.304
521.334	0.306
532.001	0.3499
542.668	0.5949
553.335	0.743
564.001	0.824
574.668	0.873
585.335	0.9
596.001	0.91
606.668	0.92
617.335	0.925
628.002	0.933
638.668	0.938
649.335	0.941
660.002	0.937
670.668	0.941
681.335	0.949
692.002	0.95
702.669	0.953
713.335	0.956
724.002	0.96
734.669	0.964
745.335	0.965
756.002	0.968
766.669	0.972
777.336	0.97
788.002	0.97
798.669	0.969
809.336	0.973
820.002	0.972
830.669	0.973
841.336	0.972
852.003	0.972
862.669	0.968
873.336	0.968
884.003	0.968
894.669	0.968
905.336	0.969
916.003	0.969
926.67	0.969
937.336	0.97
948.003	0.969
958.67	0.969
969.336	0.969
980.003	0.97
990.67	0.969
1001.34	0.965
1012	0.964
1022.67	0.964
1033.34	0.964
1044	0.961
1054.67	0.961
1065.34	0.962
1076	0.96
1086.67	0.96
1097.34	0.961
1108	0.961
1118.67	0.964
1129.34	0.965
1140	0.965
1150.67	0.965
1161.34	0.966
1172	0.966
1182.67	0.969
1193.34	0.969
1204	0.968
1214.67	0.969
1225.34	0.969
1236	0.97
1246.67	0.969
1257.34	0.969
1268	0.97
1278.67	0.97
1289.34	0.97
1300	0.969
1310.67	0.968
1321.34	0.969
1332	0.97
1342.67	0.968
1353.34	0.969
1364	0.966
1374.67	0.966
1385.34	0.965
1396.01	0.965
1406.67	0.965
1417.34	0.964
1428.01	0.964
1438.67	0.965
1449.34	0.964
1460.01	0.962
1470.67	0.962
1481.34	0.965
1492.01	0.964
1502.67	0.966
1513.34	0.966
1524.01	0.965
1534.67	0.964
1545.34	0.961
1556.01	0.962
1566.67	0.961
1577.34	0.958
1588.01	0.953
1598.67	0.948
1609.34	0.937
1620.01	0.932
1630.67	0.94
1641.34	0.942
1652.01	0.952
1662.67	0.952
1673.34	0.956
1684.01	0.956
1694.67	0.956
1705.34	0.956
1716.01	0.958
1726.67	0.958
1737.34	0.96
1748.01	0.96
1758.67	0.961
1769.34	0.964
1780.01	0.964
1790.67	0.964
1801.34	0.962
1812.01	0.96
1822.67	0.962
1833.34	0.96
1844.01	0.96
1854.67	0.96
1865.34	0.96
1876.01	0.96
1886.67	0.958
1897.34	0.958
1908.01	0.957
1918.67	0.958
1929.34	0.958
1940.01	0.958
1950.67	0.957
1961.34	0.958
1972.01	0.956
1982.67	0.956
1993.34	0.958
2004.01	0.956
2014.67	0.954
2025.34	0.954
2036.01	0.954
2046.67	0.9534
2057.34	0.953
2068.01	0.953
2078.67	0.953
2089.34	0.953
2100.01	0.953
2110.67	0.952
2121.34	0.952
2132.01	0.952
2142.68	0.952
2153.34	0.952
2164.01	0.952
2174.68	0.952
2185.34	0.952
2196.01	0.952
2206.68	0.952
2217.34	0.9517
2228.01	0.95
2238.68	0.95
2249.34	0.949
2260.01	0.949
2270.68	0.95
2281.34	0.95
2292.01	0.95
2302.68	0.948
2313.34	0.949
2324.01	0.95
2334.68	0.95
2345.34	0.949
2356.01	0.949
2366.68	0.9529
2377.34	0.9499
2388.01	0.9489
2398.68	0.946
2409.34	0.948
2420.01	0.948
2430.68	0.9463
2441.34	0.945
2452.01	0.944
2462.68	0.9442
2473.34	0.945
2484.01	0.9452
2494.68	0.945
2505.34	0.9453
2516.01	0.945
2526.68	0.944
2537.34	0.945
2548.01	0.945
2558.68	0.9453
2569.34	0.9433
2580.01	0.9427
2590.68	0.941
2601.34	0.9404
2612.01	0.9406
2622.68	0.938
2633.34	0.938
2644.01	0.938
2654.68	0.94
2665.34	0.939
2676.01	0.938
2686.68	0.94
2697.34	0.9389
2708.01	0.938
2718.68	0.9374
2729.34	0.936
2740.01	0.9366
2750.68	0.937
2761.34	0.9366
2772.01	0.937
2782.68	0.933
2793.34	0.936
2804.01	0.936
2814.68	0.936
2825.34	0.9323
2836.01	0.9267
2846.68	0.9212
2857.34	0.9196
2868.01	0.922
2878.68	0.9248
2889.35	0.925
2900.01	0.924
2910.68	0.9183
2921.35	0.9091
2932.01	0.9099
2942.68	0.9139
2953.35	0.916
2964.01	0.918
2974.68	0.92
2985.35	0.922
2996.01	0.922
3006.68	0.921
3017.35	0.921
3028.01	0.9221
3038.68	0.9239
3049.35	0.9221
3060.01	0.9238
3070.68	0.922
3081.35	0.9209
3092.01	0.9223
3102.68	0.921
3113.35	0.92
3124.01	0.918
3134.68	0.9178
3145.35	0.918
3156.01	0.918
3166.68	0.917
3177.35	0.9155
3188.01	0.913
3198.68	0.913
3209.35	0.9127
3220.01	0.91
3230.68	0.91
3241.35	0.909
3252.01	0.9072
3262.68	0.905
3273.35	0.904
3284.01	0.9031
3294.68	0.9016
3305.35	0.9
3316.01	0.898
3326.68	0.895
3337.35	0.892
3348.01	0.8885
3358.68	0.8829
3369.35	0.8774
3380.01	0.8724
3390.68	0.8668
3401.35	0.8592
3412.01	0.8524
3422.68	0.848
3433.35	0.845
3444.01	0.844
3454.68	0.842
3465.35	0.842
3476.01	0.844
3486.68	0.8447
3497.35	0.8475
3508.01	0.8515
3518.68	0.8556
3529.35	0.86
3540.01	0.8618
3550.68	0.8658
3561.35	0.8717
3572.01	0.8766
3582.68	0.8809
3593.35	0.8849
3604.02	0.889
3614.68	0.8958
3625.35	0.898
3636.02	0.9
3646.68	0.9
3657.35	0.9
3668.02	0.9
3678.68	0.9
3689.35	0.9
3700.02	0.9
3710.68	0.9
3721.35	0.9
3732.02	0.9
3742.68	0.9
3753.35	0.901
3764.02	0.901
3774.68	0.901
3785.35	0.9
3796.02	0.9
3806.68	0.9
3817.35	0.9
3828.02	0.898
3838.68	0.898
3849.35	0.898
3860.02	0.898
3870.68	0.8973
3881.35	0.8963
3892.02	0.898
3902.68	0.898
3913.35	0.8966
3924.02	0.8952
3934.68	0.894
3945.35	0.894
3956.02	0.894
3966.68	0.892
