Infrared Spectrum: Pregn-4-ene-3,20-dione, 9Alpha-fluoro-11,17Alpha,21-trihydroxy-, 21- acetate
Formula: C23 H31 F O
State: SOLID (NUJOL MULL) VS NUJOL
Class: COBLENTZ III
Instrument: PERKIN-ELMER 21 (GRATING)
Resolution: 2
Origin: THE SQUIBB INSTITUTE FOR MEDICAL RESEARCH
1/CM	TRANSMITTANCE
663	0.6047
672	0.672
681	0.6523
690	0.8178
699	0.8192
708	0.84
717	0.8695
726	0.89
735	0.8859
744	0.8364
753	0.8769
762	0.7658
771	0.7058
780	0.6581
789	0.8764
798	0.8797
807	0.7745
816	0.9179
825	0.8958
834	0.8879
843	0.6936
852	0.781
861	0.8079
870	0.6543
879	0.3951
888	0.4417
897	0.4394
906	0.5986
915	0.6809
924	0.6604
933	0.6057
942	0.6992
951	0.668
960	0.7279
969	0.7683
978	0.734
987	0.5414
996	0.7764
1005	0.7007
1014	0.6386
1023	0.679
1032	0.4658
1041	0.0947
1050	0.403
1059	0.5861
1068	0.6661
1077	0.4543
1086	0.3268
1095	0.6167
1104	0.6211
1113	0.6042
1122	0.4209
1131	0.2909
1140	0.5632
1149	0.578
1158	0.4603
1167	0.4294
1176	0.3716
1185	0.5042
1194	0.5045
1203	0.4968
1212	0.486
1221	0.4319
1230	0.2118
1239	0.1028
1248	0.1379
1257	0.3153
1266	0.0297
1275	0.1081
1284	0.1577
1293	0.3216
1302	0.5287
1311	0.5251
1320	0.6528
1329	0.6155
1338	0.4623
1347	0.3519
1356	0.1649
1365	0.1883
1374	0.2229
1383	0.456
1392	0.5589
1401	0.4637
1410	0.3277
1419	0.3672
1428	0.3742
1437	0.2755
1446	0.2526
1455	0.2687
1464	0.3878
1473	0.559
1482	0.5876
1491	0.7847
1500	0.8319
1509	0.8514
1518	0.8625
1527	0.866
1536	0.8671
1545	0.8648
1554	0.8611
1563	0.8582
1572	0.853
1581	0.8362
1590	0.8182
1599	0.7874
1608	0.7055
1617	0.6044
1626	0.4279
1635	0.3474
1644	0.1108
1653	0.0194
1662	0.04
1671	0.1929
1680	0.473
1689	0.5559
1698	0.5194
1707	0.2342
1716	0.0608
1725	0.1116
1734	0.1262
1743	0.0974
1752	0.3752
1761	0.6538
1770	0.8155
1779	0.8905
1788	0.9205
1797	0.9359
1806	0.9457
1815	0.9568
1824	0.9657
1833	0.9724
1842	0.9777
1851	0.9794
1860	0.9798
1869	0.9803
1878	0.981
1887	0.9813
1896	0.9816
1905	0.9815
1914	0.9811
1923	0.9806
1932	0.9799
1941	0.9792
1950	0.9786
1959	0.9781
1968	0.9779
1977	0.9765
1986	0.975
1995	0.9722
2004	0.9697
2013	0.9675
2022	0.9672
2031	0.9682
2040	0.9691
2049	0.9695
2058	0.968
2067	0.9638
2076	0.9574
2085	0.9535
2094	0.9538
2103	0.9544
2112	0.9549
2121	0.9551
2130	0.9551
2139	0.955
2148	0.9549
2157	0.9541
2166	0.9525
2175	0.9511
2184	0.9491
2193	0.947
2202	0.9445
2211	0.942
2220	0.9392
2229	0.9364
2238	0.9336
2247	0.9307
2256	0.927
2265	0.9234
2274	0.9196
2283	0.9157
2292	0.9118
2301	0.908
2310	0.904
2319	0.9005
2328	0.9012
2337	0.9031
2346	0.9052
2355	0.908
2364	0.9104
2373	0.9118
2382	0.9134
2391	0.9156
2400	0.9169
2409	0.9158
2418	0.9143
2427	0.912
2436	0.9096
2445	0.9072
2454	0.9048
2463	0.9024
2472	0.8996
2481	0.8969
2490	0.8941
2499	0.8912
2508	0.8881
2517	0.885
2526	0.8819
2535	0.8788
2544	0.8758
2553	0.8727
2562	0.8697
2571	0.8667
2580	0.8625
2589	0.858
2598	0.8535
2607	0.849
2616	0.8446
2625	0.8402
2634	0.8357
2643	0.8313
2652	0.8268
2661	0.8224
2670	0.8186
2679	0.8149
2688	0.8134
2697	0.8127
2706	0.8133
2715	0.8141
2724	0.8149
2733	0.8157
2742	0.8167
2751	0.8158
2760	0.8081
2769	0.7949
2778	0.7746
2787	0.7442
2796	0.7082
2805	0.5953
2814	0.4808
2823	0.3664
2832	0.3299
2841	0.3236
2850	0.3219
2859	0.3202
2868	0.319
2877	0.3188
2886	0.3191
2895	0.3197
2904	0.3206
2913	0.3217
2922	0.3234
2931	0.3258
2940	0.3308
2949	0.3372
2958	0.3449
2967	0.3536
2976	0.3627
2985	0.4299
2994	0.5299
3003	0.6085
3012	0.6698
3021	0.7111
3030	0.7336
3039	0.7462
3048	0.7528
3057	0.7557
3066	0.7568
3075	0.7567
3084	0.756
3093	0.7547
3102	0.7527
3111	0.7502
3120	0.7468
3129	0.7428
3138	0.7385
3147	0.7331
3156	0.7271
3165	0.7195
3174	0.7116
3183	0.7021
3192	0.6923
3201	0.6776
3210	0.6628
3219	0.649
3228	0.6328
3237	0.6084
3246	0.5394
3255	0.5074
3264	0.452
3273	0.4151
3282	0.3719
3291	0.3288
3300	0.286
3309	0.2434
3318	0.201
3327	0.1589
3336	0.1365
3345	0.1333
3354	0.1333
3363	0.1404
3372	0.148
3381	0.1492
3390	0.1478
3399	0.1375
3408	0.1256
3417	0.1136
3426	0.1035
3435	0.1034
3444	0.1044
3453	0.1443
3462	0.2109
3471	0.2771
3480	0.343
3489	0.4086
3498	0.4738
3507	0.5387
3516	0.6032
3525	0.6675
3534	0.7458
3543	0.7882
3552	0.8063
3561	0.8225
3570	0.8465
3579	0.8645
3588	0.87
3597	0.8713
3606	0.8714
3615	0.8712
3624	0.871
3633	0.8706
3642	0.87
3651	0.8691
3660	0.8683
3669	0.8673
3678	0.8662
3687	0.8651
3696	0.8638
3705	0.8624
3714	0.8611
3723	0.8595
3732	0.8577
3741	0.8559
3750	0.8542
3759	0.8522
3768	0.8503
3777	0.8484
3786	0.8465
3795	0.8445
3804	0.8425
3813	0.8405
3822	0.8384
3831	0.8364
3840	0.8344
3849	0.8324
3858	0.8304
3867	0.8284
3876	0.8264
3885	0.8246
3894	0.8229
3903	0.8213
3912	0.8198
3921	0.8182
3930	0.8167
3939	0.8152
3948	0.8137
3957	0.812
3966	0.8103
3975	0.8086
3984	0.807
3993	0.8053
