Infrared Spectrum: TITANIUM CALCIUM (RUTILE)
Formula: Ti O2  * Ca S O4
State: SOLID (0.3 mg / 300 mg CsI PELLET)
Class: COBLENTZ
Instrument: Not specified, most likely a grating spectrometer.
Sampling: TRANSMISSION
Resolution: 4
Origin: DESOTO CHEMICAL COATINGS, INC.
1/CM	TRANSMITTANCE
202.663	0.739
213.314	0.742
223.965	0.735
234.616	0.712
245.267	0.648
255.917	0.448
266.568	0.39
277.219	0.385
287.87	0.389
298.521	0.414
309.172	0.448
319.823	0.5
330.474	0.537
341.125	0.557
351.775	0.563
362.426	0.557
373.077	0.5779
383.728	0.598
394.379	0.577
405.03	0.565
415.681	0.565
426.332	0.561
436.982	0.582
447.633	0.625
458.284	0.648
468.935	0.646
479.586	0.635
490.237	0.621
500.888	0.61
511.539	0.597
522.19	0.591
532.84	0.598
543.491	0.609
554.142	0.619
564.793	0.618
575.444	0.623
586.095	0.617
596.746	0.3204
607.397	0.539
618.048	0.38
628.698	0.557
639.349	0.547
650	0.542
660.651	0.537
671.302	0.4781
681.953	0.317
692.604	0.5829
703.255	0.627
713.905	0.642
724.556	0.666
735.207	0.687
745.858	0.712
756.509	0.751
767.16	0.797
777.811	0.833
788.462	0.868
799.113	0.888
809.763	0.905
820.414	0.916
831.065	0.928
841.716	0.936
852.367	0.944
863.018	0.949
873.669	0.95
884.32	0.953
894.971	0.953
905.621	0.954
916.272	0.953
926.923	0.957
937.574	0.958
948.225	0.957
958.876	0.958
969.527	0.96
980.178	0.96
990.829	0.958
1001.48	0.957
1012.13	0.953
1022.78	0.938
1033.43	0.941
1044.08	0.934
1054.73	0.926
1065.38	0.914
1076.04	0.898
1086.69	0.852
1097.34	0.7041
1107.99	0.405
1118.64	0.1631
1129.29	0.1389
1139.94	0.199
1150.59	0.14
1161.24	0.085
1171.89	0.1799
1182.54	0.248
1193.2	0.3999
1203.85	0.613
1214.5	0.753
1225.15	0.8089
1235.8	0.853
1246.45	0.881
1257.1	0.897
1267.75	0.909
1278.4	0.913
1289.05	0.92
1299.7	0.922
1310.36	0.932
1321.01	0.938
1331.66	0.94
1342.31	0.94
1352.96	0.945
1363.61	0.949
1374.26	0.948
1384.91	0.95
1395.56	0.949
1406.21	0.949
1416.86	0.945
1427.51	0.95
1438.17	0.953
1448.82	0.956
1459.47	0.954
1470.12	0.957
1480.77	0.96
1491.42	0.962
1502.07	0.964
1512.72	0.964
1523.37	0.968
1534.02	0.965
1544.67	0.96
1555.33	0.96
1565.98	0.96
1576.63	0.96
1587.28	0.952
1597.93	0.948
1608.58	0.928
1619.23	0.91
1629.88	0.913
1640.53	0.922
1651.18	0.938
1661.83	0.945
1672.49	0.95
1683.14	0.953
1693.79	0.958
1704.44	0.961
1715.09	0.961
1725.74	0.961
1736.39	0.961
1747.04	0.962
1757.69	0.965
1768.34	0.968
1778.99	0.968
1789.64	0.969
1800.3	0.968
1810.95	0.966
1821.6	0.968
1832.25	0.969
1842.9	0.968
1853.55	0.966
1864.2	0.968
1874.85	0.968
1885.5	0.968
1896.15	0.965
1906.8	0.965
1917.46	0.968
1928.11	0.968
1938.76	0.968
1949.41	0.965
1960.06	0.965
1970.71	0.968
1981.36	0.964
1992.01	0.968
2002.66	0.965
2013.31	0.96
2023.96	0.954
2034.62	0.953
2045.27	0.952
2055.92	0.948
2066.57	0.945
2077.22	0.94
2087.87	0.9299
2098.52	0.924
2109.17	0.929
2119.82	0.938
2130.47	0.944
2141.12	0.9409
2151.78	0.938
2162.43	0.94
2173.08	0.942
2183.73	0.9441
2194.38	0.946
2205.03	0.948
2215.68	0.948
2226.33	0.948
2236.98	0.9478
2247.63	0.9449
2258.28	0.942
2268.93	0.9422
2279.59	0.9451
2290.24	0.946
2300.89	0.946
2311.54	0.944
2322.19	0.9451
2332.84	0.9463
2343.49	0.9481
2354.14	0.9492
2364.79	0.95
2375.44	0.952
2386.09	0.952
2396.75	0.9488
2407.4	0.945
2418.05	0.944
2428.7	0.942
2439.35	0.942
2450	0.941
2460.65	0.941
2471.3	0.941
2481.95	0.941
2492.6	0.941
2503.25	0.941
2513.91	0.941
2524.56	0.94
2535.21	0.94
2545.86	0.94
2556.51	0.94
2567.16	0.94
2577.81	0.94
2588.46	0.941
2599.11	0.941
2609.76	0.941
2620.41	0.94
2631.06	0.9395
2641.72	0.938
2652.37	0.938
2663.02	0.9377
2673.67	0.937
2684.32	0.938
2694.97	0.934
2705.62	0.936
2716.27	0.934
2726.92	0.933
2737.57	0.9314
2748.22	0.9307
2758.88	0.932
2769.53	0.933
2780.18	0.9327
2790.83	0.932
2801.48	0.93
2812.13	0.928
2822.78	0.926
2833.43	0.9256
2844.08	0.924
2854.73	0.9216
2865.38	0.9192
2876.04	0.9188
2886.69	0.92
2897.34	0.92
2907.99	0.918
2918.64	0.914
2929.29	0.9096
2939.94	0.908
2950.59	0.91
2961.24	0.912
2971.89	0.9124
2982.54	0.914
2993.19	0.9149
3003.85	0.916
3014.5	0.917
3025.15	0.9151
3035.8	0.914
3046.45	0.914
3057.1	0.913
3067.75	0.912
3078.4	0.912
3089.05	0.912
3099.7	0.911
3110.35	0.9095
3121.01	0.909
3131.66	0.908
3142.31	0.906
3152.96	0.9045
3163.61	0.902
3174.26	0.9005
3184.91	0.9
3195.56	0.898
3206.21	0.898
3216.86	0.897
3227.51	0.896
3238.17	0.8935
3248.82	0.892
3259.47	0.8894
3270.12	0.888
3280.77	0.8854
3291.42	0.884
3302.07	0.8809
3312.72	0.8774
3323.37	0.8754
3334.02	0.8684
3344.67	0.8634
3355.33	0.8554
3365.98	0.8462
3376.63	0.8364
3387.28	0.8302
3397.93	0.8222
3408.58	0.8138
3419.23	0.8011
3429.88	0.7937
3440.53	0.7884
3451.18	0.785
3461.83	0.784
3472.48	0.7846
3483.14	0.787
3493.79	0.7887
3504.44	0.7927
3515.09	0.7967
3525.74	0.8007
3536.39	0.8063
3547.04	0.8164
3557.69	0.8237
3568.34	0.8304
3578.99	0.8364
3589.64	0.8437
3600.3	0.8524
3610.95	0.8624
3621.6	0.8687
3632.25	0.8757
3642.9	0.8794
3653.55	0.8835
3664.2	0.886
3674.85	0.886
3685.5	0.888
3696.15	0.888
3706.8	0.888
3717.46	0.888
3728.11	0.888
3738.76	0.888
3749.41	0.886
3760.06	0.886
3770.71	0.886
3781.36	0.885
3792.01	0.885
3802.66	0.884
3813.31	0.882
3823.96	0.882
3834.61	0.882
3845.27	0.882
3855.92	0.882
3866.57	0.881
3877.22	0.881
3887.87	0.88
3898.52	0.878
3909.17	0.88
3919.82	0.878
3930.47	0.878
3941.12	0.878
3951.77	0.878
3962.43	0.878
3973.08	0.878
3983.73	0.878
