Infrared Spectrum: LEAD METABORATE
Formula: Pb ( B O2)2  * H2 O
State: SOLID (NUJOL MULL)
Class: COBLENTZ
Instrument: Not specified, most likely a prism, grating, or hybrid spectrometer.
Sampling: TRANSMISSION
Resolution: 4
Origin: MELLON INSTITUTE
MICROMETERS	TRANSMITTANCE
2.035	0.826
2.07493	0.824
2.11485	0.829
2.15478	0.832
2.19471	0.832
2.23464	0.831
2.27456	0.834
2.31449	0.831
2.35442	0.832
2.39434	0.834
2.43427	0.836
2.4742	0.841
2.51413	0.846
2.55405	0.847
2.59398	0.852
2.63391	0.856
2.67384	0.857
2.71376	0.857
2.75369	0.849
2.79362	0.827
2.83354	0.797
2.87347	0.777
2.9134	0.757
2.95333	0.749
2.99325	0.74
3.03318	0.739
3.07311	0.74
3.11303	0.739
3.15296	0.74
3.19289	0.75
3.23282	0.762
3.27274	0.757
3.31267	0.581
3.3526	0.379
3.39252	0.471
3.43245	0.526
3.47238	0.603
3.51231	0.804
3.55223	0.869
3.59216	0.881
3.63209	0.887
3.67201	0.891
3.71194	0.896
3.75187	0.896
3.7918	0.897
3.83172	0.897
3.87165	0.901
3.91158	0.903
3.95151	0.906
3.99143	0.908
4.03136	0.908
4.07129	0.908
4.11121	0.908
4.15114	0.906
4.19107	0.904
4.231	0.909
4.27092	0.908
4.31085	0.903
4.35078	0.908
4.3907	0.908
4.43063	0.908
4.47056	0.908
4.51049	0.906
4.55041	0.906
4.59034	0.906
4.63027	0.906
4.67019	0.906
4.71012	0.906
4.75005	0.906
4.78998	0.906
4.8299	0.906
4.86983	0.908
4.90976	0.908
4.94969	0.908
4.98961	0.911
5.02954	0.914
5.06947	0.918
5.10939	0.919
5.14932	0.919
5.18925	0.919
5.22918	0.921
5.2691	0.923
5.30903	0.926
5.34896	0.928
5.38888	0.928
5.42881	0.929
5.46874	0.931
5.50867	0.933
5.54859	0.934
5.58852	0.936
5.62845	0.938
5.66837	0.939
5.7083	0.941
5.74823	0.941
5.78816	0.944
5.82808	0.944
5.86801	0.944
5.90794	0.943
5.94787	0.941
5.98779	0.939
6.02772	0.934
6.06765	0.934
6.10757	0.933
6.1475	0.936
6.18743	0.939
6.22736	0.941
6.26728	0.939
6.30721	0.931
6.34714	0.929
6.38706	0.929
6.42699	0.928
6.46692	0.929
6.50685	0.924
6.54677	0.923
6.5867	0.921
6.62663	0.918
6.66655	0.918
6.70648	0.901
6.74641	0.869
6.78634	0.769
6.82626	0.745
6.86619	0.747
6.90612	0.752
6.94604	0.754
6.98597	0.747
7.0259	0.734
7.06583	0.72
7.10575	0.71
7.14568	0.688
7.18561	0.653
7.22554	0.653
7.26546	0.658
7.30539	0.663
7.34532	0.667
7.38524	0.665
7.42517	0.663
7.4651	0.663
7.50503	0.672
7.54495	0.685
7.58488	0.698
7.62481	0.714
7.66473	0.735
7.70466	0.752
7.74459	0.772
7.78452	0.784
7.82444	0.792
7.86437	0.799
7.9043	0.809
7.94422	0.817
7.98415	0.822
8.02408	0.827
8.06401	0.834
8.10393	0.839
8.14386	0.844
8.18379	0.847
8.22372	0.849
8.26364	0.847
8.30357	0.846
8.3435	0.844
8.38342	0.842
8.42335	0.841
8.46328	0.837
8.50321	0.836
8.54313	0.831
8.58306	0.822
8.62299	0.811
8.66291	0.801
8.70284	0.797
8.74277	0.797
8.7827	0.79
8.82262	0.782
8.86255	0.772
8.90248	0.765
8.9424	0.759
8.98233	0.752
9.02226	0.742
9.06219	0.727
9.10211	0.717
9.14204	0.709
9.18197	0.7
9.2219	0.692
9.26182	0.683
9.30175	0.673
9.34168	0.663
9.3816	0.658
9.42153	0.652
9.46146	0.648
9.50139	0.642
9.54131	0.633
9.58124	0.63
9.62117	0.628
9.66109	0.623
9.70102	0.618
9.74095	0.615
9.78088	0.617
9.8208	0.612
9.86073	0.608
9.90066	0.608
9.94058	0.608
9.98051	0.61
10.0204	0.608
10.0604	0.607
10.1003	0.607
10.1402	0.605
10.1801	0.605
10.2201	0.607
10.26	0.607
10.2999	0.608
10.3399	0.608
10.3798	0.608
10.4197	0.608
10.4596	0.607
10.4996	0.605
10.5395	0.603
10.5794	0.603
10.6193	0.605
10.6593	0.607
10.6992	0.608
10.7391	0.61
10.7791	0.613
10.819	0.617
10.8589	0.62
10.8988	0.623
10.9388	0.627
10.9787	0.63
11.0186	0.638
11.0585	0.645
11.0985	0.648
11.1384	0.652
11.1783	0.653
11.2183	0.662
11.2582	0.67
11.2981	0.675
11.338	0.68
11.378	0.685
11.4179	0.69
11.4578	0.697
11.4977	0.704
11.5377	0.714
11.5776	0.722
11.6175	0.725
11.6575	0.732
11.6974	0.74
11.7373	0.747
11.7772	0.752
11.8172	0.755
11.8571	0.764
11.897	0.77
11.9369	0.78
11.9769	0.789
12.0168	0.797
12.0567	0.799
12.0967	0.802
12.1366	0.811
12.1765	0.821
12.2164	0.824
12.2564	0.829
12.2963	0.832
12.3362	0.836
12.3761	0.836
12.4161	0.837
12.456	0.839
12.4959	0.842
12.5359	0.844
12.5758	0.849
12.6157	0.852
12.6556	0.854
12.6956	0.856
12.7355	0.857
12.7754	0.859
12.8153	0.861
12.8553	0.861
12.8952	0.861
12.9351	0.862
12.9751	0.864
13.015	0.866
13.0549	0.867
13.0948	0.867
13.1348	0.869
13.1747	0.869
13.2146	0.869
13.2545	0.869
13.2945	0.867
13.3344	0.866
13.3743	0.864
13.4143	0.861
13.4542	0.857
13.4941	0.854
13.534	0.847
13.574	0.844
13.6139	0.839
13.6538	0.837
13.6937	0.829
13.7337	0.826
13.7736	0.824
13.8135	0.819
13.8534	0.816
13.8934	0.809
13.9333	0.802
13.9732	0.801
14.0132	0.799
14.0531	0.797
14.093	0.794
14.1329	0.789
14.1729	0.785
14.2128	0.784
14.2527	0.78
14.2926	0.774
14.3326	0.769
14.3725	0.765
14.4124	0.76
14.4524	0.762
14.4923	0.76
14.5322	0.754
14.5721	0.752
14.6121	0.752
14.652	0.752
14.6919	0.75
14.7318	0.747
14.7718	0.745
14.8117	0.747
14.8516	0.747
14.8916	0.745
14.9315	0.74
14.9714	0.737
15.0113	0.734
15.0513	0.73
15.0912	0.729
15.1311	0.727
15.171	0.724
15.211	0.722
15.2509	0.722
15.2908	0.72
15.3308	0.72
15.3707	0.72
15.4106	0.719
15.4505	0.72
15.4905	0.72
15.5304	0.722
15.5703	0.722
15.6102	0.725
15.6502	0.725
15.6901	0.725
15.73	0.724
15.77	0.724
15.8099	0.724
15.8498	0.725
15.8897	0.727
15.9297	0.732
15.9696	0.735
