Infrared Spectrum: OUABAIN
Formula: C29 H44 O12  * 8 H2 O
State: SOLID (KBr DISC) VS KBr
Melting point: 190 C
Class: COBLENTZ III
Instrument: PERKIN-ELMER 21 (GRATING)
Instrument parameters: FILTER AT ABOUT 10 MICRONS
Sampling: TRANSMISSION
Path length: 0.055 CM (THICKNESS)
Resolution: 2
1/CM	TRANSMITTANCE
4000	0.9521
3991	0.9514
3982	0.9508
3973	0.9503
3964	0.9497
3955	0.9492
3946	0.9486
3937	0.948
3928	0.9475
3919	0.947
3910	0.9467
3901	0.9465
3892	0.9463
3883	0.9461
3874	0.9458
3865	0.9456
3856	0.9454
3847	0.9452
3838	0.945
3829	0.9448
3820	0.9445
3811	0.9447
3802	0.9454
3793	0.946
3784	0.9467
3775	0.9475
3766	0.9484
3757	0.9487
3748	0.9487
3739	0.9482
3730	0.9475
3721	0.9468
3712	0.946
3703	0.9452
3694	0.9444
3685	0.9435
3676	0.9425
3667	0.9415
3658	0.9404
3649	0.9392
3640	0.9375
3631	0.935
3622	0.9317
3613	0.9261
3604	0.9168
3595	0.8983
3586	0.875
3577	0.8497
3568	0.8243
3559	0.8071
3550	0.7808
3541	0.7486
3532	0.6621
3523	0.5485
3514	0.491
3505	0.4541
3496	0.437
3487	0.4162
3478	0.3955
3469	0.3746
3460	0.3534
3451	0.3321
3442	0.3071
3433	0.2723
3424	0.2501
3415	0.2251
3406	0.2191
3397	0.2118
3388	0.2061
3379	0.2029
3370	0.2008
3361	0.2001
3352	0.1994
3343	0.2
3334	0.2034
3325	0.2108
3316	0.2217
3307	0.2357
3298	0.2496
3289	0.2622
3280	0.2759
3271	0.2938
3262	0.3085
3253	0.3221
3244	0.3359
3235	0.3509
3226	0.3668
3217	0.3866
3208	0.4079
3199	0.4289
3190	0.4435
3181	0.4673
3172	0.4931
3163	0.5191
3154	0.5451
3145	0.5712
3136	0.5977
3127	0.6243
3118	0.651
3109	0.6778
3100	0.7044
3091	0.7267
3082	0.7461
3073	0.7646
3064	0.7761
3055	0.7861
3046	0.7937
3037	0.8025
3028	0.8112
3019	0.8175
3010	0.8204
3001	0.8209
2992	0.8183
2983	0.8008
2974	0.7554
2965	0.7096
2956	0.6634
2947	0.617
2938	0.5703
2929	0.5234
2920	0.489
2911	0.4841
2902	0.482
2893	0.4855
2884	0.5214
2875	0.5556
2866	0.577
2857	0.599
2848	0.6334
2839	0.6718
2830	0.7108
2821	0.7498
2812	0.8049
2803	0.8242
2794	0.8362
2785	0.8438
2776	0.8511
2767	0.8574
2758	0.8625
2749	0.8675
2740	0.8713
2731	0.875
2722	0.8775
2713	0.88
2704	0.8821
2695	0.8841
2686	0.886
2677	0.8878
2668	0.8905
2659	0.893
2650	0.8957
2641	0.8983
2632	0.9009
2623	0.9035
2614	0.9061
2605	0.9087
2596	0.911
2587	0.913
2578	0.915
2569	0.9168
2560	0.9189
2551	0.9204
2542	0.9216
2533	0.9223
2524	0.9225
2515	0.9227
2506	0.923
2497	0.924
2488	0.9252
2479	0.9263
2470	0.9278
2461	0.9297
2452	0.9313
2443	0.9331
2434	0.9351
2425	0.9374
2416	0.9397
2407	0.9418
2398	0.9442
2389	0.9461
2380	0.9481
2371	0.9495
2362	0.9506
2353	0.9515
2344	0.9524
2335	0.9528
2326	0.9531
2317	0.9516
2308	0.9496
2299	0.9478
2290	0.9468
2281	0.9483
2272	0.9499
2263	0.9509
2254	0.9518
2245	0.9525
2236	0.9532
2227	0.9528
2218	0.9518
2209	0.9503
2200	0.9486
2191	0.9473
2182	0.9471
2173	0.9468
2164	0.947
2155	0.9487
2146	0.9509
2137	0.9504
2128	0.9486
2119	0.9477
2110	0.9473
2101	0.9468
2092	0.9465
2083	0.9461
2074	0.9455
2065	0.9446
2056	0.9438
2047	0.9437
2038	0.9446
2029	0.9468
2020	0.95
2011	0.9511
2002	0.9513
1993	0.9512
1984	0.951
1975	0.9512
1966	0.9514
1957	0.9508
1948	0.9502
1939	0.9496
1930	0.9495
1921	0.9494
1912	0.949
1903	0.9481
1894	0.9471
1885	0.9468
1876	0.9468
1867	0.9467
1858	0.9462
1849	0.9413
1840	0.9345
1831	0.931
1822	0.919
1813	0.9012
1804	0.8789
1795	0.8602
1786	0.8332
1777	0.8022
1768	0.7955
1759	0.6747
1750	0.4372
1741	0.2307
1732	0.2163
1723	0.2861
1714	0.346
1705	0.4862
1696	0.6897
1687	0.7646
1678	0.7898
1669	0.7921
1660	0.7796
1651	0.7767
1642	0.7493
1633	0.6941
1624	0.6469
1615	0.6861
1606	0.795
1597	0.8499
1588	0.8702
1579	0.8842
1570	0.8936
1561	0.9008
1552	0.9015
1543	0.8994
1534	0.9028
1525	0.8991
1516	0.8955
1507	0.8828
1498	0.8578
1489	0.8224
1480	0.7582
1471	0.7011
1462	0.6394
1453	0.6171
1444	0.5596
1435	0.5694
1426	0.5809
1417	0.585
1408	0.5927
1399	0.601
1390	0.5956
1381	0.583
1372	0.586
1363	0.608
1354	0.5884
1345	0.5792
1336	0.5998
1327	0.6295
1318	0.631
1309	0.6317
1300	0.6325
1291	0.6321
1282	0.6345
1273	0.6394
1264	0.63
1255	0.6282
1246	0.6426
1237	0.6751
1228	0.6822
1219	0.6724
1210	0.655
1201	0.6317
1192	0.6465
1183	0.6408
1174	0.6178
1165	0.6102
1156	0.6028
1147	0.5024
1138	0.4165
1129	0.3993
1120	0.381
1111	0.4034
1102	0.3855
1093	0.3498
1084	0.3607
1075	0.2824
1066	0.2638
1057	0.2407
1048	0.1635
1039	0.1774
1030	0.2683
1021	0.3291
1012	0.5014
1003	0.556
994	0.5793
985	0.5026
976	0.5399
967	0.6465
958	0.6381
949	0.6858
940	0.7419
931	0.7408
922	0.7091
913	0.6382
904	0.6054
895	0.684
886	0.7055
877	0.6925
868	0.7151
859	0.7321
850	0.7655
841	0.7162
832	0.6611
823	0.671
814	0.7239
805	0.7648
796	0.7415
787	0.7519
778	0.7631
769	0.7525
760	0.7367
751	0.7215
742	0.7067
733	0.7103
724	0.6942
715	0.6668
706	0.6448
697	0.6348
688	0.6297
679	0.6084
670	0.5938
661	0.5904
