Infrared Spectrum: Triazolo[4,5-d]pyrimidin-7-ol,3H-v-, 5-amino-3-(2',3'-o-isopropylidene-Beta-D-ribofuranosyl)-, 5'-diphenyl phosphate (keto form)
Formula: C24 H25 N6 O8 P
State: SOLID (0.9 mg / 650 mg KBr DISC)
Class: COBLENTZ III
Instrument: PERKIN-ELMER 21 (GRATING)
Instrument parameters: FILTER CHANGE ABOUT 1020 CM^-^1
Sampling: TRANSMISSION
Resolution: 2
Origin: SOUTHERN RESEARCH INSTITUTE
1/CM	TRANSMITTANCE
601.741	0.657
610.79	0.6574
619.838	0.6572
628.887	0.6542
637.935	0.6478
646.984	0.637
656.033	0.6157
665.081	0.5845
674.13	0.5533
683.179	0.5075
692.227	0.5752
701.276	0.674
710.324	0.6634
719.373	0.6469
728.422	0.6258
737.47	0.5892
746.519	0.4702
755.568	0.4423
764.616	0.4437
773.665	0.4514
782.713	0.5183
791.762	0.5951
800.811	0.6519
809.859	0.6421
818.908	0.6164
827.957	0.6132
837.005	0.6155
846.054	0.6063
855.102	0.5668
864.151	0.5548
873.2	0.6527
882.248	0.6869
891.297	0.6711
900.346	0.6451
909.394	0.6344
918.443	0.6159
927.491	0.5221
936.54	0.3924
945.589	0.2894
954.637	0.2487
963.686	0.2705
972.735	0.3024
981.783	0.4889
990.832	0.492
999.88	0.4676
1008.93	0.352
1017.98	0.3252
1027.03	0.2907
1036.07	0.3106
1045.12	0.3221
1054.17	0.3529
1063.22	0.3677
1072.27	0.3814
1081.32	0.4292
1090.37	0.4531
1099.42	0.4547
1108.46	0.4613
1117.51	0.5005
1126.56	0.5213
1135.61	0.6177
1144.66	0.619
1153.71	0.484
1162.76	0.4004
1171.8	0.4791
1180.85	0.3785
1189.9	0.2886
1198.95	0.4152
1208	0.4203
1217.05	0.3745
1226.1	0.4139
1235.14	0.5015
1244.19	0.4902
1253.24	0.4613
1262.29	0.4089
1271.34	0.4015
1280.39	0.4048
1289.44	0.4241
1298.49	0.4999
1307.53	0.5918
1316.58	0.6741
1325.63	0.7239
1334.68	0.7245
1343.73	0.6976
1352.78	0.6456
1361.83	0.5566
1370.87	0.5081
1379.92	0.5136
1388.97	0.5719
1398.02	0.7143
1407.07	0.7628
1416.12	0.7907
1425.17	0.8003
1434.21	0.7908
1443.26	0.7658
1452.31	0.6952
1461.36	0.7064
1470.41	0.717
1479.46	0.6715
1488.51	0.3813
1497.55	0.4646
1506.6	0.7113
1515.65	0.7024
1524.7	0.5893
1533.75	0.5312
1542.8	0.6388
1551.85	0.6452
1560.9	0.4818
1569.94	0.2815
1578.99	0.2234
1588.04	0.2215
1597.09	0.2772
1606.14	0.4361
1615.19	0.476
1624.24	0.3494
1633.28	0.2678
1642.33	0.2759
1651.38	0.3841
1660.43	0.5007
1669.48	0.574
1678.53	0.547
1687.58	0.4099
1696.62	0.3182
1705.67	0.2778
1714.72	0.2782
1723.77	0.4036
1732.82	0.496
1741.87	0.579
1750.92	0.7092
1759.96	0.766
1769.01	0.7798
1778.06	0.7968
1787.11	0.8159
1796.16	0.8373
1805.21	0.8541
1814.26	0.8678
1823.31	0.8779
1832.35	0.8823
1841.4	0.8816
1850.45	0.8782
1859.5	0.8788
1868.55	0.8824
1877.6	0.8845
1886.65	0.8854
1895.69	0.8845
1904.74	0.8831
1913.79	0.8812
1922.84	0.8795
1931.89	0.8786
1940.94	0.879
1949.99	0.8808
1959.03	0.8831
1968.08	0.8854
1977.13	0.8878
1986.18	0.8903
1995.23	0.8926
2004.28	0.8935
2013.33	0.8943
2022.37	0.8968
2031.42	0.8996
2040.47	0.9022
2049.52	0.9044
2058.57	0.9065
2067.62	0.9078
2076.67	0.909
2085.72	0.9103
2094.76	0.9105
2103.81	0.9107
2112.86	0.9109
2121.91	0.9109
2130.96	0.9109
2140.01	0.9113
2149.06	0.9116
2158.1	0.9111
2167.15	0.9106
2176.2	0.9103
2185.25	0.91
2194.3	0.9095
2203.35	0.9091
2212.4	0.9088
2221.44	0.9084
2230.49	0.9081
2239.54	0.9077
2248.59	0.9072
2257.64	0.9067
2266.69	0.9062
2275.74	0.9066
2284.79	0.9071
2293.83	0.9076
2302.88	0.908
2311.93	0.9082
2320.98	0.9084
2330.03	0.9089
2339.08	0.9096
2348.13	0.9102
2357.17	0.9107
2366.22	0.91
2375.27	0.9066
2384.32	0.9038
2393.37	0.9032
2402.42	0.9033
2411.47	0.9035
2420.51	0.9033
2429.56	0.9035
2438.61	0.9036
2447.66	0.9034
2456.71	0.9032
2465.76	0.9032
2474.81	0.9033
2483.85	0.9024
2492.9	0.9014
2501.95	0.8997
2511	0.8988
2520.05	0.8982
2529.1	0.8979
2538.15	0.8977
2547.2	0.8964
2556.24	0.8951
2565.29	0.8939
2574.34	0.8929
2583.39	0.8931
2592.44	0.8932
2601.49	0.8942
2610.54	0.8956
2619.58	0.8966
2628.63	0.8958
2637.68	0.8941
2646.73	0.892
2655.78	0.8893
2664.83	0.8847
2673.88	0.8795
2682.92	0.8741
2691.97	0.8684
2701.02	0.862
2710.07	0.8556
2719.12	0.8502
2728.17	0.8447
2737.22	0.8389
2746.26	0.8333
2755.31	0.8279
2764.36	0.8226
2773.41	0.818
2782.46	0.8142
2791.51	0.8107
2800.56	0.8078
2809.61	0.8058
2818.65	0.8053
2827.7	0.8049
2836.75	0.8035
2845.8	0.7991
2854.85	0.7913
2863.9	0.7836
2872.95	0.7746
2881.99	0.7642
2891.04	0.7532
2900.09	0.7421
2909.14	0.7219
2918.19	0.6958
2927.24	0.6759
2936.29	0.6686
2945.33	0.6694
2954.38	0.6709
2963.43	0.6737
2972.48	0.6739
2981.53	0.6737
2990.58	0.6748
2999.63	0.6833
3008.67	0.6937
3017.72	0.6968
3026.77	0.695
3035.82	0.6901
3044.87	0.6828
3053.92	0.6734
3062.97	0.6633
3072.02	0.6568
3081.06	0.6553
3090.11	0.6537
3099.16	0.6523
3108.21	0.6493
3117.26	0.643
3126.31	0.633
3135.36	0.6179
3144.4	0.5999
3153.45	0.5832
3162.5	0.5663
3171.55	0.5554
3180.6	0.5484
3189.65	0.5448
3198.7	0.5423
3207.74	0.5403
3216.79	0.5393
3225.84	0.5397
3234.89	0.5418
3243.94	0.5457
3252.99	0.5509
3262.04	0.5583
3271.09	0.5664
3280.13	0.5717
3289.18	0.573
3298.23	0.5712
3307.28	0.5601
3316.33	0.5406
3325.38	0.5205
3334.43	0.5012
3343.47	0.4875
3352.52	0.4867
3361.57	0.4883
3370.62	0.4909
3379.67	0.4952
3388.72	0.5004
3397.77	0.5063
3406.81	0.5115
3415.86	0.5149
3424.91	0.5176
3433.96	0.5187
3443.01	0.5191
3452.06	0.5216
3461.11	0.5271
3470.15	0.5359
3479.2	0.5485
3488.25	0.5674
3497.3	0.5888
3506.35	0.6097
3515.4	0.626
3524.45	0.6471
3533.5	0.667
3542.54	0.6846
3551.59	0.702
3560.64	0.72
3569.69	0.7359
3578.74	0.753
3587.79	0.7636
3596.84	0.7722
3605.88	0.7794
3614.93	0.7862
3623.98	0.7931
3633.03	0.8007
3642.08	0.8144
3651.13	0.8323
3660.18	0.8455
3669.22	0.8556
3678.27	0.864
3687.32	0.8712
3696.37	0.8744
3705.42	0.8806
3714.47	0.8816
3723.52	0.883
3732.56	0.884
3741.61	0.8849
3750.66	0.8859
3759.71	0.8873
3768.76	0.8887
3777.81	0.8907
3786.86	0.8935
3795.91	0.8961
3804.95	0.8961
3814	0.8961
3823.05	0.8963
3832.1	0.8956
3841.15	0.893
3850.2	0.8895
3859.25	0.8868
3868.29	0.8858
3877.34	0.8858
3886.39	0.8869
3895.44	0.8878
3904.49	0.888
3913.54	0.888
3922.59	0.888
3931.63	0.888
3940.68	0.8852
3949.73	0.8807
3958.78	0.8768
3967.83	0.8751
3976.88	0.8752
3985.93	0.8756
3994.97	0.8756
4004.02	0.8756
4013.07	0.8756
