Infrared Spectrum: CARAMIPHEN ETHANEDISULFONATE
Formula: C38 H60 N2 O10 S2
State: SOLID (KBr DISC) VS KBr
Melting point: 115-116 C
Class: COBLENTZ III
Instrument: PERKIN-ELMER 21 (GRATING)
Instrument parameters: FILTER AT ABOUT 10 MICRONS
Sampling: TRANSMISSION
Resolution: 2
1/CM	TRANSMITTANCE
4000	0.9525
3991	0.9532
3982	0.9539
3973	0.9546
3964	0.9553
3955	0.956
3946	0.9568
3937	0.9575
3928	0.9583
3919	0.9591
3910	0.9599
3901	0.9607
3892	0.9612
3883	0.9615
3874	0.9618
3865	0.9621
3856	0.9625
3847	0.9627
3838	0.9628
3829	0.9631
3820	0.9633
3811	0.9635
3802	0.9637
3793	0.9639
3784	0.964
3775	0.9642
3766	0.9643
3757	0.9644
3748	0.9645
3739	0.9646
3730	0.9647
3721	0.9646
3712	0.9645
3703	0.9643
3694	0.9642
3685	0.964
3676	0.9637
3667	0.9631
3658	0.9621
3649	0.961
3640	0.9575
3631	0.954
3622	0.95
3613	0.946
3604	0.9418
3595	0.9375
3586	0.9332
3577	0.9287
3568	0.9243
3559	0.9196
3550	0.9149
3541	0.9101
3532	0.9051
3523	0.8999
3514	0.8947
3505	0.8896
3496	0.8845
3487	0.8795
3478	0.8746
3469	0.8706
3460	0.8671
3451	0.8658
3442	0.8653
3433	0.8654
3424	0.8658
3415	0.8681
3406	0.8713
3397	0.8765
3388	0.8818
3379	0.888
3370	0.8937
3361	0.8977
3352	0.9016
3343	0.9051
3334	0.9078
3325	0.9106
3316	0.913
3307	0.9151
3298	0.9173
3289	0.9194
3280	0.9209
3271	0.9217
3262	0.9225
3253	0.923
3244	0.9232
3235	0.9234
3226	0.9236
3217	0.9234
3208	0.9233
3199	0.9234
3190	0.9237
3181	0.924
3172	0.9244
3163	0.9244
3154	0.9221
3145	0.9195
3136	0.9127
3127	0.904
3118	0.8931
3109	0.8823
3100	0.8713
3091	0.8603
3082	0.8468
3073	0.8318
3064	0.81
3055	0.7703
3046	0.7547
3037	0.7312
3028	0.6882
3019	0.6414
3010	0.5934
3001	0.5683
2992	0.5574
2983	0.5431
2974	0.5373
2965	0.5364
2956	0.5374
2947	0.5443
2938	0.5566
2929	0.571
2920	0.5912
2911	0.6302
2902	0.6344
2893	0.6362
2884	0.6421
2875	0.6557
2866	0.7111
2857	0.7745
2848	0.7892
2839	0.7901
2830	0.7889
2821	0.7807
2812	0.7584
2803	0.7467
2794	0.7468
2785	0.7532
2776	0.7558
2767	0.7544
2758	0.7499
2749	0.7401
2740	0.696
2731	0.6801
2722	0.6636
2713	0.6506
2704	0.6335
2695	0.6114
2686	0.5862
2677	0.5505
2668	0.5026
2659	0.4537
2650	0.4062
2641	0.3864
2632	0.3847
2623	0.3849
2614	0.3862
2605	0.3993
2596	0.4234
2587	0.4557
2578	0.5079
2569	0.5323
2560	0.5553
2551	0.5752
2542	0.5853
2533	0.5893
2524	0.5918
2515	0.5925
2506	0.5892
2497	0.5784
2488	0.573
2479	0.5749
2470	0.635
2461	0.6819
2452	0.7322
2443	0.7621
2434	0.7808
2425	0.804
2416	0.8246
2407	0.8394
2398	0.8531
2389	0.8627
2380	0.8717
2371	0.8789
2362	0.8861
2353	0.8934
2344	0.9003
2335	0.9068
2326	0.9136
2317	0.9188
2308	0.9239
2299	0.9262
2290	0.9281
2281	0.9289
2272	0.9296
2263	0.9303
2254	0.9311
2245	0.9325
2236	0.9345
2227	0.9371
2218	0.9398
2209	0.9423
2200	0.9445
2191	0.9468
2182	0.949
2173	0.9509
2164	0.9528
2155	0.9548
2146	0.9554
2137	0.9556
2128	0.9552
2119	0.9533
2110	0.9514
2101	0.9496
2092	0.9498
2083	0.9501
2074	0.9505
2065	0.951
2056	0.9516
2047	0.9521
2038	0.9523
2029	0.9521
2020	0.9511
2011	0.9498
2002	0.9475
1993	0.9454
1984	0.9448
1975	0.9445
1966	0.9458
1957	0.9471
1948	0.9493
1939	0.9511
1930	0.9524
1921	0.9516
1912	0.9502
1903	0.9496
1894	0.9496
1885	0.9459
1876	0.9492
1867	0.9523
1858	0.9527
1849	0.9525
1840	0.9481
1831	0.938
1822	0.9299
1813	0.9321
1804	0.9336
1795	0.9345
1786	0.932
1777	0.9268
1768	0.9
1759	0.8418
1750	0.6349
1741	0.3312
1732	0.1119
1723	0.5371
1714	0.808
1705	0.8398
1696	0.8652
1687	0.8907
1678	0.9083
1669	0.9144
1660	0.9164
1651	0.9098
1642	0.9078
1633	0.9075
1624	0.9081
1615	0.9057
1606	0.8541
1597	0.8742
1588	0.8964
1579	0.9148
1570	0.9299
1561	0.9308
1552	0.9253
1543	0.9247
1534	0.9171
1525	0.9143
1516	0.8818
1507	0.8099
1498	0.605
1489	0.6062
1480	0.6012
1471	0.6032
1462	0.5757
1453	0.5034
1444	0.5888
1435	0.7225
1426	0.8202
1417	0.8475
1408	0.8431
1399	0.7714
1390	0.7198
1381	0.768
1372	0.8534
1363	0.8285
1354	0.7882
1345	0.86
1336	0.8605
1327	0.7711
1318	0.7486
1309	0.6941
1300	0.6285
1291	0.7591
1282	0.7518
1273	0.6501
1264	0.4623
1255	0.2719
1246	0.1186
1237	0.0956
1228	0.2584
1219	0.3594
1210	0.1694
1201	0.1582
1192	0.1178
1183	0.1983
1174	0.2561
1165	0.1213
1156	0.2357
1147	0.3809
1138	0.4905
1129	0.5235
1120	0.6417
1111	0.7439
1102	0.8081
1093	0.8097
1084	0.7644
1075	0.5972
1066	0.7151
1057	0.7076
1048	0.3427
1039	0.366
1030	0.4016
1021	0.3157
1012	0.5162
1003	0.5548
994	0.7501
985	0.8628
976	0.8775
967	0.8464
958	0.8656
949	0.9031
940	0.9221
931	0.893
922	0.9021
913	0.9049
904	0.8727
895	0.8618
886	0.9228
877	0.9146
868	0.9417
859	0.9433
850	0.9283
841	0.8847
832	0.8761
823	0.8839
814	0.9139
805	0.9008
796	0.8982
787	0.8221
778	0.5841
769	0.5189
760	0.7419
751	0.7901
742	0.7868
733	0.7474
724	0.7086
715	0.8925
706	0.8587
697	0.5435
688	0.8675
679	0.9186
670	0.9289
