Infrared Spectrum: 1-OXO-2-(3-PHENYLRHODANIN-5-YLIDENE)-3-PYRIDINIUM-4-NAPHTHOXIDE
Formula: C24 H14 N2 O3 S2
State: SOLID (KBr PRESSING)
Melting point: 240 C
Class: COBLENTZ
Instrument: Not specified, most likely a prism, grating, or hybrid spectrometer.
Sampling: TRANSMISSION
Resolution: 4
Origin: EASTMAN KODAK COMPANY, RESEARCH LABORATORIES, ROCHESTER, N.Y.
MICROMETERS	TRANSMITTANCE
2.02	0.382
2.05994	0.387
2.09989	0.392
2.13983	0.395
2.17977	0.401
2.21971	0.41
2.25966	0.411
2.2996	0.425
2.33954	0.429
2.37949	0.434
2.41943	0.443
2.45937	0.449
2.49931	0.453
2.53926	0.457
2.5792	0.464
2.61914	0.481
2.65909	0.489
2.69903	0.49
2.73897	0.494
2.77891	0.482
2.81886	0.438
2.8588	0.401
2.89874	0.387
2.93869	0.387
2.97863	0.416
3.01857	0.461
3.05851	0.477
3.09846	0.495
3.1384	0.505
3.17834	0.517
3.21829	0.502
3.25823	0.487
3.29817	0.459
3.33811	0.527
3.37806	0.551
3.418	0.55
3.45794	0.565
3.49789	0.581
3.53783	0.581
3.57777	0.593
3.61771	0.612
3.65766	0.622
3.6976	0.627
3.73754	0.632
3.77749	0.632
3.81743	0.644
3.85737	0.645
3.89731	0.652
3.93726	0.657
3.9772	0.665
4.01714	0.668
4.05709	0.68
4.09703	0.691
4.13697	0.691
4.17691	0.7
4.21686	0.698
4.2568	0.701
4.29674	0.703
4.33669	0.719
4.37663	0.728
4.41657	0.736
4.45651	0.742
4.49646	0.747
4.5364	0.751
4.57634	0.754
4.61629	0.757
4.65623	0.759
4.69617	0.762
4.73611	0.761
4.77606	0.767
4.816	0.775
4.85594	0.775
4.89589	0.78
4.93583	0.784
4.97577	0.78
5.01571	0.785
5.05566	0.795
5.0956	0.797
5.13554	0.799
5.17549	0.802
5.21543	0.807
5.25537	0.812
5.29531	0.822
5.33526	0.83
5.3752	0.823
5.41514	0.838
5.45509	0.846
5.49503	0.851
5.53497	0.85
5.57491	0.851
5.61486	0.856
5.6548	0.869
5.69474	0.868
5.73469	0.855
5.77463	0.845
5.81457	0.83
5.85451	0.831
5.89446	0.825
5.9344	0.792
5.97434	0.718
6.01429	0.589
6.05423	0.441
6.09417	0.334
6.13411	0.433
6.17406	0.438
6.214	0.588
6.25394	0.499
6.29389	0.329
6.33383	0.462
6.37377	0.616
6.41371	0.504
6.45366	0.397
6.4936	0.401
6.53354	0.492
6.57349	0.551
6.61343	0.591
6.65337	0.482
6.69331	0.196
6.73326	0.237
6.7732	0.383
6.81314	0.172
6.85309	0.116
6.89303	0.189
6.93297	0.395
6.97291	0.546
7.01286	0.637
7.0528	0.69
7.09274	0.718
7.13269	0.734
7.17263	0.733
7.21257	0.726
7.25251	0.682
7.29246	0.617
7.3324	0.565
7.37234	0.441
7.41229	0.276
7.45223	0.219
7.49217	0.22
7.53211	0.291
7.57206	0.431
7.612	0.477
7.65194	0.457
7.69189	0.578
7.73183	0.611
7.77177	0.471
7.81171	0.177
7.85166	0.144
7.8916	0.326
7.93154	0.429
7.97149	0.41
8.01143	0.26
8.05137	0.136
8.09131	0.102
8.13126	0.09
8.1712	0.141
8.21114	0.357
8.25109	0.461
8.29103	0.467
8.33097	0.5
8.37091	0.616
8.41086	0.663
8.4508	0.673
8.49074	0.64
8.53069	0.546
8.57063	0.56
8.61057	0.489
8.65051	0.388
8.69046	0.375
8.7304	0.286
8.77034	0.205
8.81029	0.144
8.85023	0.113
8.89017	0.161
8.93011	0.299
8.97006	0.456
9.01	0.543
9.04994	0.593
9.08989	0.581
9.12983	0.594
9.16977	0.626
9.20971	0.688
9.24966	0.713
9.2896	0.698
9.32954	0.672
9.36949	0.647
9.40943	0.53
9.44937	0.484
9.48931	0.568
9.52926	0.66
9.5692	0.686
9.60914	0.714
9.64909	0.744
9.68903	0.728
9.72897	0.606
9.76891	0.594
9.80886	0.512
9.8488	0.464
9.88874	0.499
9.92869	0.553
9.96863	0.599
10.0086	0.652
10.0485	0.703
10.0885	0.733
10.1284	0.761
10.1683	0.772
10.2083	0.785
10.2482	0.794
10.2882	0.787
10.3281	0.794
10.3681	0.802
10.408	0.815
10.4479	0.823
10.4879	0.838
10.5278	0.836
10.5678	0.823
10.6077	0.8
10.6477	0.82
10.6876	0.841
10.7275	0.864
10.7675	0.869
10.8074	0.879
10.8474	0.884
10.8873	0.878
10.9273	0.815
10.9672	0.83
11.0071	0.861
11.0471	0.889
11.087	0.892
11.127	0.892
11.1669	0.902
11.2069	0.901
11.2468	0.901
11.2867	0.822
11.3267	0.663
11.3666	0.747
11.4066	0.831
11.4465	0.876
11.4865	0.904
11.5264	0.909
11.5663	0.906
11.6063	0.873
11.6462	0.84
11.6862	0.84
11.7261	0.831
11.7661	0.812
11.806	0.822
11.8459	0.841
11.8859	0.871
11.9258	0.879
11.9658	0.874
12.0057	0.843
12.0457	0.775
12.0856	0.731
12.1255	0.723
12.1655	0.696
12.2054	0.686
12.2454	0.775
12.2853	0.853
12.3253	0.856
12.3652	0.858
12.4051	0.851
12.4451	0.873
12.485	0.906
12.525	0.915
12.5649	0.914
12.6049	0.899
12.6448	0.873
12.6847	0.833
12.7247	0.84
12.7646	0.881
12.8046	0.873
12.8445	0.868
12.8845	0.846
12.9244	0.799
12.9643	0.741
13.0043	0.736
13.0442	0.795
13.0842	0.812
13.1241	0.78
13.1641	0.634
13.204	0.551
13.2439	0.66
13.2839	0.754
13.3238	0.805
13.3638	0.84
13.4037	0.85
13.4437	0.84
13.4836	0.82
13.5235	0.84
13.5635	0.859
13.6034	0.881
13.6434	0.896
13.6833	0.901
13.7233	0.889
13.7632	0.831
13.8031	0.655
13.8431	0.485
13.883	0.453
13.923	0.512
13.9629	0.538
14.0029	0.495
14.0428	0.428
14.0827	0.543
14.1227	0.701
14.1626	0.771
14.2026	0.766
14.2425	0.696
14.2825	0.586
14.3224	0.489
14.3623	0.527
14.4023	0.626
14.4422	0.711
14.4822	0.716
14.5221	0.655
14.5621	0.642
14.602	0.665
14.6419	0.708
14.6819	0.739
14.7218	0.749
14.7618	0.751
14.8017	0.714
14.8417	0.63
14.8816	0.571
14.9215	0.566
14.9615	0.599
15.0014	0.655
15.0414	0.746
15.0813	0.787
15.1213	0.815
15.1612	0.822
15.2011	0.825
15.2411	0.828
15.281	0.828
15.321	0.83
15.3609	0.828
15.4009	0.82
15.4408	0.808
15.4807	0.799
15.5207	0.772
15.5606	0.754
15.6006	0.749
15.6405	0.744
15.6805	0.749
15.7204	0.754
15.7603	0.757
15.8003	0.749
15.8402	0.746
15.8802	0.741
15.9201	0.738
15.9601	0.723
16	0.7
