Infrared Spectrum: Aniline, 2-tert-butyl-N-sec-butyl-
Formula: C14 H23 N
State: LIQUID (NEAT)
Class: COBLENTZ III
Instrument: BECKMAN IR-4 (HYBRID PRISM-GRATING)
Instrument parameters: NaCl PRISM
Sampling: TRANSMISSION
Path length: CAPILLARY
Resolution: 2
Origin: MONSANTO (J. FREEMAN)
1/CM	TRANSMITTANCE
627	0.7786
636	0.7854
645	0.774
654	0.7535
663	0.7567
672	0.7742
681	0.7814
690	0.7911
699	0.7735
708	0.7953
717	0.7867
726	0.6969
735	0.2926
744	0.1317
753	0.4707
762	0.7761
771	0.7672
780	0.7718
789	0.8642
798	0.8644
807	0.8389
816	0.7478
825	0.8604
834	0.8447
843	0.7912
852	0.8989
861	0.9411
870	0.9547
879	0.9602
888	0.9594
897	0.9546
906	0.9436
915	0.8915
924	0.7497
933	0.8261
942	0.8654
951	0.9017
960	0.893
969	0.8509
978	0.8618
987	0.8886
996	0.7677
1005	0.6582
1014	0.7395
1023	0.7965
1032	0.7732
1041	0.7661
1050	0.4095
1059	0.7265
1068	0.8843
1077	0.864
1086	0.8251
1095	0.7489
1104	0.7195
1113	0.6027
1122	0.648
1131	0.746
1140	0.7086
1149	0.4684
1158	0.3746
1167	0.3024
1176	0.5121
1185	0.5771
1194	0.5895
1203	0.8217
1212	0.8276
1221	0.7042
1230	0.4853
1239	0.5089
1248	0.4482
1257	0.3506
1266	0.3592
1275	0.4743
1284	0.4567
1293	0.5034
1302	0.3308
1311	0.2309
1320	0.4053
1329	0.6476
1338	0.6579
1347	0.6641
1356	0.6243
1365	0.402
1374	0.3665
1383	0.5878
1392	0.5121
1401	0.6795
1410	0.6871
1419	0.5742
1428	0.4476
1437	0.3235
1446	0.166
1455	0.2346
1464	0.3412
1473	0.3996
1482	0.3784
1491	0.3937
1500	0.266
1509	0.1704
1518	0.2712
1527	0.4842
1536	0.6233
1545	0.7646
1554	0.7904
1563	0.5841
1572	0.3679
1581	0.4146
1590	0.3937
1599	0.2488
1608	0.644
1617	0.7768
1626	0.8283
1635	0.8696
1644	0.8768
1653	0.8508
1662	0.8515
1671	0.8863
1680	0.9104
1689	0.9177
1698	0.9293
1707	0.9402
1716	0.9498
1725	0.955
1734	0.9519
1743	0.9399
1752	0.9271
1761	0.9214
1770	0.9271
1779	0.9345
1788	0.93
1797	0.9283
1806	0.9358
1815	0.946
1824	0.9439
1833	0.9316
1842	0.9253
1851	0.9215
1860	0.9097
1869	0.8912
1878	0.8856
1887	0.9205
1896	0.9209
1905	0.9145
1914	0.9104
1923	0.921
1932	0.9394
1941	0.9449
1950	0.9508
1959	0.957
1968	0.9593
1977	0.9607
1986	0.9631
1995	0.9609
2004	0.961
2013	0.9598
2022	0.9586
2031	0.9572
2040	0.9559
2049	0.9546
2058	0.9533
2067	0.9523
2076	0.9515
2085	0.9502
2094	0.9485
2103	0.9467
2112	0.9452
2121	0.944
2130	0.9442
2139	0.9451
2148	0.9462
2157	0.9469
2166	0.9477
2175	0.9485
2184	0.949
2193	0.9493
2202	0.9495
2211	0.9499
2220	0.9501
2229	0.9505
2238	0.9503
2247	0.9487
2256	0.9465
2265	0.944
2274	0.9415
2283	0.9397
2292	0.9408
2301	0.9442
2310	0.9476
2319	0.952
2328	0.9561
2337	0.9597
2346	0.9624
2355	0.9615
2364	0.9542
2373	0.9426
2382	0.9315
2391	0.9266
2400	0.9256
2409	0.926
2418	0.9262
2427	0.9265
2436	0.9265
2445	0.9264
2454	0.9261
2463	0.925
2472	0.9237
2481	0.9212
2490	0.9159
2499	0.9102
2508	0.9038
2517	0.899
2526	0.8952
2535	0.892
2544	0.8896
2553	0.8875
2562	0.8857
2571	0.8839
2580	0.8822
2589	0.8806
2598	0.8794
2607	0.8816
2616	0.8843
2625	0.8866
2634	0.8872
2643	0.8865
2652	0.8858
2661	0.8846
2670	0.8833
2679	0.8814
2688	0.8763
2697	0.8697
2706	0.8628
2715	0.8563
2724	0.8521
2733	0.8487
2742	0.8467
2751	0.8456
2760	0.8434
2769	0.8352
2778	0.8229
2787	0.8091
2796	0.7798
2805	0.7607
2814	0.7401
2823	0.6792
2832	0.5461
2841	0.4501
2850	0.3546
2859	0.2801
2868	0.2855
2877	0.2932
2886	0.2873
2895	0.263
2904	0.2384
2913	0.2137
2922	0.2042
2931	0.1828
2940	0.1453
2949	0.1296
2958	0.1527
2967	0.2691
2976	0.3879
2985	0.506
2994	0.6024
3003	0.6042
3012	0.6052
3021	0.5963
3030	0.5872
3039	0.5808
3048	0.5957
3057	0.639
3066	0.6821
3075	0.725
3084	0.7677
3093	0.8101
3102	0.8327
3111	0.8369
3120	0.8388
3129	0.8403
3138	0.8419
3147	0.8463
3156	0.854
3165	0.8612
3174	0.8642
3183	0.8654
3192	0.8664
3201	0.867
3210	0.8674
3219	0.8674
3228	0.8672
3237	0.8668
3246	0.8663
3255	0.8658
3264	0.865
3273	0.8641
3282	0.8628
3291	0.8613
3300	0.8596
3309	0.8576
3318	0.8555
3327	0.8528
3336	0.8501
3345	0.8477
3354	0.8453
3363	0.8428
3372	0.8283
3381	0.7981
3390	0.768
3399	0.7381
3408	0.7083
3417	0.6787
3426	0.6493
3435	0.62
3444	0.5968
3453	0.5971
3462	0.6668
3471	0.737
3480	0.809
3489	0.8351
3498	0.8425
3507	0.8473
3516	0.8518
3525	0.8546
3534	0.857
3543	0.8592
3552	0.8606
3561	0.8616
3570	0.8625
3579	0.8628
3588	0.8629
3597	0.8622
3606	0.8613
3615	0.86
3624	0.859
3633	0.8587
3642	0.8588
3651	0.8602
3660	0.8619
3669	0.8637
3678	0.8648
3687	0.8657
3696	0.8652
3705	0.8639
3714	0.862
3723	0.8598
3732	0.8576
3741	0.8554
3750	0.8534
3759	0.8521
3768	0.8508
3777	0.8496
3786	0.8482
3795	0.8469
3804	0.8455
3813	0.844
3822	0.8425
3831	0.8413
3840	0.8401
3849	0.8389
3858	0.8378
3867	0.8365
3876	0.8354
3885	0.8343
3894	0.8331
3903	0.8319
3912	0.8308
3921	0.8296
3930	0.8285
3939	0.8273
3948	0.8261
3957	0.8249
3966	0.8237
3975	0.8226
3984	0.8215
3993	0.8203
