Infrared Spectrum: 4',5'-DIIODOFLUORESCEIN
Formula: C20 H10 I2 O5
State: SOLID (MINERAL OIL MULL)
Class: COBLENTZ
Instrument: Not specified, most likely a prism, grating, or hybrid spectrometer.
Sampling: TRANSMISSION
Resolution: 4
Origin: WYANDOTTE CHEMICALS CORP., WYANDOTTE, MICHIGAN, USA
MICROMETERS	TRANSMITTANCE
2.06	0.634
2.09975	0.647
2.1395	0.654
2.17925	0.659
2.21901	0.659
2.25876	0.671
2.29851	0.684
2.33826	0.697
2.37801	0.71
2.41776	0.719
2.45751	0.725
2.49727	0.729
2.53702	0.737
2.57677	0.772
2.61652	0.74
2.65627	0.789
2.69602	0.777
2.73577	0.735
2.77553	0.732
2.81528	0.712
2.85503	0.672
2.89478	0.627
2.93453	0.606
2.97428	0.584
3.01403	0.536
3.05379	0.463
3.09354	0.363
3.13329	0.322
3.17304	0.307
3.21279	0.315
3.25254	0.318
3.29229	0.335
3.33205	0.282
3.3718	0.058
3.41155	0.048
3.4513	0.071
3.49105	0.076
3.5308	0.167
3.57055	0.397
3.61031	0.453
3.65006	0.478
3.68981	0.483
3.72956	0.529
3.76931	0.543
3.80906	0.546
3.84881	0.543
3.88857	0.533
3.92832	0.553
3.96807	0.574
4.00782	0.598
4.04757	0.612
4.08732	0.626
4.12707	0.639
4.16683	0.652
4.20658	0.666
4.24633	0.681
4.28608	0.659
4.32583	0.699
4.36558	0.757
4.40533	0.828
4.44509	0.83
4.48484	0.843
4.52459	0.862
4.56434	0.872
4.60409	0.888
4.64384	0.898
4.68359	0.913
4.72335	0.931
4.7631	0.95
4.80285	0.955
4.8426	0.96
4.88235	0.973
4.9221	0.978
4.96185	0.976
5.00161	0.976
5.04136	0.985
5.08111	0.978
5.12086	0.983
5.16061	0.978
5.20036	0.97
5.24011	0.968
5.27987	0.973
5.31962	0.961
5.35937	0.97
5.39912	0.981
5.43887	0.968
5.47862	0.98
5.51837	0.963
5.55813	0.955
5.59788	0.926
5.63763	0.863
5.67738	0.742
5.71713	0.622
5.75688	0.578
5.79663	0.589
5.83639	0.646
5.87614	0.629
5.91589	0.588
5.95564	0.372
5.99539	0.205
6.03514	0.332
6.07489	0.607
6.11465	0.483
6.1544	0.295
6.19415	0.39
6.2339	0.177
6.27365	0.079
6.3134	0.102
6.35315	0.156
6.39291	0.224
6.43266	0.282
6.47241	0.352
6.51216	0.48
6.55191	0.387
6.59166	0.187
6.63141	0.078
6.67117	0.058
6.71092	0.114
6.75067	0.071
6.79042	0.063
6.83017	0.081
6.86992	0.094
6.90967	0.142
6.94943	0.212
6.98918	0.29
7.02893	0.295
7.06868	0.239
7.10843	0.289
7.14818	0.357
7.18793	0.35
7.22769	0.204
7.26744	0.2
7.30719	0.275
7.34694	0.332
7.38669	0.44
7.42644	0.526
7.46619	0.481
7.50595	0.353
7.5457	0.37
7.58545	0.239
7.6252	0.102
7.66495	0.157
7.7047	0.23
7.74445	0.232
7.78421	0.269
7.82396	0.303
7.86371	0.279
7.90346	0.282
7.94321	0.29
7.98296	0.302
8.02271	0.297
8.06247	0.272
8.10222	0.235
8.14197	0.21
8.18172	0.202
8.22147	0.186
8.26122	0.177
8.30097	0.191
8.34073	0.247
8.38048	0.274
8.42023	0.22
8.45998	0.275
8.49973	0.353
8.53948	0.383
8.57923	0.397
8.61899	0.425
8.65874	0.496
8.69849	0.433
8.73824	0.43
8.77799	0.433
8.81774	0.466
8.85749	0.491
8.89725	0.421
8.937	0.343
8.97675	0.25
9.0165	0.161
9.05625	0.411
9.096	0.559
9.13575	0.584
9.17551	0.428
9.21526	0.388
9.25501	0.563
9.29476	0.632
9.33451	0.687
9.37426	0.722
9.41401	0.737
9.45377	0.747
9.49352	0.737
9.53327	0.667
9.57302	0.568
9.61277	0.578
9.65252	0.674
9.69227	0.74
9.73203	0.765
9.77178	0.775
9.81153	0.779
9.85128	0.777
9.89103	0.787
9.93078	0.79
9.97053	0.799
10.0103	0.78
10.05	0.75
10.0898	0.74
10.1295	0.735
10.1693	0.735
10.209	0.732
10.2488	0.725
10.2885	0.702
10.3283	0.694
10.368	0.642
10.4078	0.627
10.4476	0.666
10.4873	0.654
10.5271	0.589
10.5668	0.504
10.6066	0.526
10.6463	0.578
10.6861	0.548
10.7258	0.523
10.7656	0.594
10.8053	0.656
10.8451	0.687
10.8848	0.699
10.9246	0.705
10.9643	0.709
11.0041	0.719
11.0438	0.714
11.0836	0.715
11.1233	0.71
11.1631	0.712
11.2028	0.715
11.2426	0.7
11.2823	0.647
11.3221	0.583
11.3618	0.606
11.4016	0.644
11.4413	0.669
11.4811	0.682
11.5208	0.7
11.5606	0.709
11.6003	0.715
11.6401	0.72
11.6798	0.724
11.7196	0.715
11.7593	0.694
11.7991	0.676
11.8389	0.702
11.8786	0.725
11.9184	0.729
11.9581	0.727
11.9979	0.702
12.0376	0.657
12.0774	0.556
12.1171	0.353
12.1569	0.4
12.1966	0.549
12.2364	0.541
12.2761	0.632
12.3159	0.659
12.3556	0.644
12.3954	0.573
12.4351	0.493
12.4749	0.383
12.5146	0.32
12.5544	0.375
12.5941	0.478
12.6339	0.591
12.6736	0.656
12.7134	0.702
12.7531	0.71
12.7929	0.704
12.8326	0.699
12.8724	0.627
12.9121	0.468
12.9519	0.352
12.9916	0.436
13.0314	0.438
13.0711	0.327
13.1109	0.325
13.1506	0.36
13.1904	0.4
13.2302	0.47
13.2699	0.556
13.3097	0.619
13.3494	0.639
13.3892	0.642
13.4289	0.626
13.4687	0.566
13.5084	0.503
13.5482	0.475
13.5879	0.493
13.6277	0.541
13.6674	0.579
13.7072	0.591
13.7469	0.599
13.7867	0.611
13.8264	0.622
13.8662	0.622
13.9059	0.617
13.9457	0.626
13.9854	0.631
14.0252	0.624
14.0649	0.602
14.1047	0.536
14.1444	0.463
14.1842	0.392
14.2239	0.416
14.2637	0.495
14.3034	0.573
14.3432	0.599
14.3829	0.607
14.4227	0.614
14.4624	0.624
14.5022	0.642
14.5419	0.659
14.5817	0.686
14.6215	0.705
14.6612	0.712
14.701	0.717
14.7407	0.72
14.7805	0.714
14.8202	0.705
14.86	0.689
14.8997	0.679
14.9395	0.672
14.9792	0.671
15.019	0.657
15.0587	0.627
15.0985	0.626
15.1382	0.654
15.178	0.674
15.2177	0.669
15.2575	0.641
15.2972	0.611
15.337	0.573
15.3767	0.551
15.4165	0.541
15.4562	0.541
15.496	0.541
15.5357	0.538
15.5755	0.521
15.6152	0.496
15.655	0.475
15.6947	0.478
15.7345	0.488
15.7742	0.498
15.814	0.516
15.8537	0.521
15.8935	0.528
15.9332	0.533
15.973	0.536
