Infrared Spectrum: OXAMIDE, N-[3-[(2-MERCAPTOETHYL)AMINO]PROPYL]-N'-(3-PYRIDYL)-, DIHYDROCHLORIDE
Formula: C12 H20 Cl2 N4 O2 S
State: SOLID (1 mg / 650 mg KBr DISC)
Class: COBLENTZ III
Instrument: PERKIN-ELMER 521 (GRATING)
Instrument parameters: FILTER CHANGE AT 3150, 2500, 2000, 1150, 700, 410 CM^-^1, GRATING CHANGES AT 2000, 630 CM^-^1
Sampling: TRANSMISSION
Resolution: 4
Origin: SOUTHERN RESEARCH INSTITUTE
1/CM	TRANSMITTANCE
255.422	0.263
264.458	0.329
273.494	0.403
282.53	0.447
291.567	0.524
300.603	0.568
309.639	0.613
318.675	0.645
327.711	0.668
336.747	0.69
345.784	0.703
354.82	0.668
363.856	0.654
372.892	0.744
381.928	0.797
390.964	0.819
400	0.826
409.037	0.832
418.073	0.828
427.109	0.81
436.145	0.845
445.181	0.848
454.217	0.827
463.254	0.794
472.29	0.752
481.326	0.694
490.362	0.774
499.398	0.795
508.434	0.852
517.471	0.749
526.507	0.842
535.543	0.869
544.579	0.845
553.615	0.727
562.651	0.713
571.687	0.849
580.724	0.876
589.76	0.828
598.796	0.806
607.832	0.829
616.868	0.567
625.904	0.799
634.941	0.869
643.977	0.856
653.013	0.841
662.049	0.824
671.085	0.72
680.121	0.459
689.157	0.843
698.194	0.828
707.23	0.795
716.266	0.756
725.302	0.694
734.338	0.618
743.374	0.546
752.411	0.466
761.447	0.491
770.483	0.581
779.519	0.535
788.555	0.69
797.591	0.75
806.627	0.692
815.664	0.596
824.7	0.551
833.736	0.791
842.772	0.774
851.808	0.695
860.844	0.8
869.881	0.857
878.917	0.847
887.953	0.821
896.989	0.755
906.025	0.842
915.061	0.871
924.098	0.868
933.134	0.857
942.17	0.823
951.206	0.805
960.242	0.777
969.278	0.719
978.314	0.783
987.351	0.791
996.387	0.752
1005.42	0.641
1014.46	0.718
1023.5	0.702
1032.53	0.701
1041.57	0.756
1050.6	0.766
1059.64	0.784
1068.68	0.78
1077.71	0.796
1086.75	0.796
1095.78	0.791
1104.82	0.765
1113.86	0.771
1122.89	0.784
1131.93	0.789
1140.97	0.78
1150	0.761
1159.04	0.73
1168.07	0.658
1177.11	0.589
1186.15	0.598
1195.18	0.365
1204.22	0.513
1213.25	0.63
1222.29	0.716
1231.33	0.678
1240.36	0.628
1249.4	0.657
1258.44	0.603
1267.47	0.624
1276.51	0.64
1285.54	0.639
1294.58	0.671
1303.62	0.643
1312.65	0.614
1321.69	0.624
1330.72	0.611
1339.76	0.554
1348.8	0.495
1357.83	0.405
1366.87	0.313
1375.91	0.173
1384.94	0.396
1393.98	0.585
1403.01	0.532
1412.05	0.468
1421.09	0.404
1430.12	0.336
1439.16	0.313
1448.19	0.239
1457.23	0.188
1466.27	0.359
1475.3	0.534
1484.34	0.552
1493.38	0.427
1502.41	0.3
1511.45	0.117
1520.48	0.084
1529.52	0.21
1538.56	0.332
1547.59	0.219
1556.63	0.155
1565.66	0.359
1574.7	0.551
1583.74	0.563
1592.77	0.612
1601.81	0.563
1610.85	0.551
1619.88	0.677
1628.92	0.652
1637.95	0.596
1646.99	0.532
1656.03	0.303
1665.06	0.097
1674.1	0.12
1683.13	0.37
1692.17	0.609
1701.21	0.56
1710.24	0.604
1719.28	0.702
1728.32	0.818
1737.35	0.854
1746.39	0.852
1755.42	0.845
1764.46	0.817
1773.5	0.798
1782.53	0.801
1791.57	0.808
1800.6	0.813
1809.64	0.807
1818.68	0.792
1827.71	0.78
1836.75	0.765
1845.79	0.743
1854.82	0.724
1863.86	0.711
1872.89	0.683
1881.93	0.65
1890.97	0.626
1900	0.631
1909.04	0.633
1918.07	0.612
1927.11	0.578
1936.15	0.543
1945.18	0.487
1954.22	0.458
1963.26	0.51
1972.29	0.567
1981.33	0.576
1990.36	0.546
1999.4	0.498
2008.44	0.461
2017.47	0.481
2026.51	0.513
2035.54	0.511
2044.58	0.464
2053.62	0.432
2062.65	0.386
2071.69	0.374
2080.73	0.384
2089.76	0.384
2098.8	0.45
2107.83	0.531
2116.87	0.635
2125.91	0.679
2134.94	0.698
2143.98	0.695
2153.01	0.683
2162.05	0.662
2171.09	0.638
2180.12	0.611
2189.16	0.582
2198.2	0.549
2207.23	0.525
2216.27	0.509
2225.3	0.477
2234.34	0.459
2243.38	0.438
2252.41	0.441
2261.45	0.448
2270.48	0.455
2279.52	0.464
2288.56	0.467
2297.59	0.466
2306.63	0.462
2315.67	0.464
2324.7	0.469
2333.74	0.474
2342.77	0.478
2351.81	0.482
2360.85	0.486
2369.88	0.487
2378.92	0.487
2387.95	0.486
2396.99	0.486
2406.03	0.484
2415.06	0.483
2424.1	0.481
2433.14	0.478
2442.17	0.473
2451.21	0.467
2460.24	0.462
2469.28	0.459
2478.32	0.459
2487.35	0.464
2496.39	0.471
2505.42	0.485
2514.46	0.5
2523.5	0.515
2532.53	0.527
2541.57	0.53
2550.61	0.528
2559.64	0.527
2568.68	0.528
2577.71	0.528
2586.75	0.528
2595.79	0.526
2604.82	0.522
2613.86	0.52
2622.89	0.521
2631.93	0.523
2640.97	0.525
2650	0.527
2659.04	0.526
2668.08	0.522
2677.11	0.516
2686.15	0.503
2695.18	0.495
2704.22	0.484
2713.26	0.477
2722.29	0.463
2731.33	0.445
2740.36	0.429
2749.4	0.415
2758.44	0.408
2767.47	0.41
2776.51	0.419
2785.55	0.425
2794.58	0.434
2803.62	0.445
2812.65	0.452
2821.69	0.457
2830.73	0.465
2839.76	0.471
2848.8	0.473
2857.83	0.477
2866.87	0.482
2875.91	0.488
2884.94	0.493
2893.98	0.49
2903.02	0.467
2912.05	0.439
2921.09	0.406
2930.12	0.374
2939.16	0.371
2948.2	0.357
2957.23	0.346
2966.27	0.34
2975.3	0.342
2984.34	0.352
2993.38	0.363
3002.41	0.377
3011.45	0.378
3020.49	0.383
3029.52	0.402
3038.56	0.396
3047.59	0.339
3056.63	0.34
3065.67	0.409
3074.7	0.457
3083.74	0.513
3092.77	0.526
3101.81	0.542
3110.85	0.547
3119.88	0.524
3128.92	0.526
3137.96	0.576
3146.99	0.574
3156.03	0.563
3165.06	0.545
3174.1	0.524
3183.14	0.507
3192.17	0.49
3201.21	0.463
3210.24	0.426
3219.28	0.393
3228.32	0.36
3237.35	0.329
3246.39	0.305
3255.43	0.275
3264.46	0.24
3273.5	0.235
3282.53	0.291
3291.57	0.382
3300.61	0.465
3309.64	0.567
3318.68	0.636
3327.71	0.67
3336.75	0.695
3345.79	0.712
3354.82	0.723
3363.86	0.729
3372.9	0.733
3381.93	0.734
3390.97	0.733
3400	0.732
3409.04	0.732
3418.08	0.733
3427.11	0.734
3436.15	0.735
3445.18	0.736
3454.22	0.738
3463.26	0.74
3472.29	0.744
3481.33	0.747
3490.37	0.75
3499.4	0.754
3508.44	0.757
3517.47	0.762
3526.51	0.768
3535.55	0.774
3544.58	0.781
3553.62	0.787
3562.65	0.793
3571.69	0.8
3580.73	0.805
3589.76	0.81
3598.8	0.815
3607.84	0.821
3616.87	0.828
3625.91	0.834
3634.94	0.837
3643.98	0.837
3653.02	0.836
3662.05	0.835
3671.09	0.833
3680.12	0.834
3689.16	0.835
3698.2	0.837
3707.23	0.837
3716.27	0.836
3725.31	0.834
3734.34	0.832
3743.38	0.83
3752.41	0.83
3761.45	0.83
3770.49	0.83
3779.52	0.829
3788.56	0.828
3797.59	0.826
3806.63	0.824
