Infrared Spectrum: Alloxantin, dihydrate
Formula: C8 H6 N4 O8  * 2 H2 O
State: SOLID (SPLIT MULL), FLUOROLUBE FOR 3800-1330 CM^-^1, NUJOL FOR 1330-400 CM^-^1
Class: COBLENTZ II
Instrument: DOW KBr FOREPRISM-GRATING
Instrument parameters: BLAZED AT 3.5, 12.0, 20.0 MICRON AND CHANGED AT 5.0, 7.5, 14.9 MICRON
Sampling: TRANSMISSION
Resolution: 2
Origin: DOW CHEMICAL COMPANY
1/CM	TRANSMITTANCE
383	0.6436
392	0.6379
401	0.631
410	0.6315
419	0.658
428	0.6701
437	0.5279
446	0.3905
455	0.4459
464	0.7269
473	0.8604
482	0.8653
491	0.8112
500	0.6653
509	0.3689
518	0.6638
527	0.7096
536	0.6484
545	0.5656
554	0.4915
563	0.4733
572	0.5255
581	0.6229
590	0.681
599	0.7017
608	0.7393
617	0.7758
626	0.815
635	0.8343
644	0.8375
653	0.8638
662	0.8803
671	0.8841
680	0.8886
689	0.9065
698	0.7425
707	0.8409
716	0.7318
725	0.6661
734	0.6803
743	0.5521
752	0.5919
761	0.4807
770	0.5628
779	0.7154
788	0.7618
797	0.796
806	0.7908
815	0.7626
824	0.7146
833	0.6415
842	0.5242
851	0.4309
860	0.4939
869	0.689
878	0.7904
887	0.8257
896	0.8454
905	0.8635
914	0.8535
923	0.8124
932	0.8558
941	0.8465
950	0.8207
959	0.7798
968	0.7508
977	0.6252
986	0.7385
995	0.8331
1004	0.8325
1013	0.7751
1022	0.6639
1031	0.8168
1040	0.8318
1049	0.8285
1058	0.8221
1067	0.8167
1076	0.8151
1085	0.8216
1094	0.8235
1103	0.8115
1112	0.7935
1121	0.7689
1130	0.7287
1139	0.6818
1148	0.5689
1157	0.4376
1166	0.18
1175	0.1644
1184	0.6268
1193	0.741
1202	0.7614
1211	0.7344
1220	0.6501
1229	0.5276
1238	0.3489
1247	0.462
1256	0.6222
1265	0.6837
1274	0.6703
1283	0.6386
1292	0.592
1301	0.5137
1310	0.443
1319	0.342
1328	0.2158
1337	0.1283
1346	0.1109
1355	0.1542
1364	0.2641
1373	0.437
1382	0.5244
1391	0.454
1400	0.3139
1409	0.3437
1418	0.3872
1427	0.2359
1436	0.5297
1445	0.6565
1454	0.6129
1463	0.6443
1472	0.7569
1481	0.786
1490	0.7962
1499	0.7897
1508	0.7791
1517	0.7625
1526	0.7411
1535	0.7388
1544	0.7604
1553	0.7501
1562	0.7286
1571	0.6968
1580	0.6496
1589	0.5749
1598	0.4662
1607	0.2565
1616	0.2694
1625	0.5143
1634	0.5952
1643	0.612
1652	0.584
1661	0.5427
1670	0.4943
1679	0.3973
1688	0.3067
1697	0.2156
1706	0.131
1715	0.0682
1724	0.0831
1733	0.0856
1742	0.0716
1751	0.0716
1760	0.1223
1769	0.2903
1778	0.4795
1787	0.6017
1796	0.7087
1805	0.7686
1814	0.8042
1823	0.8164
1832	0.8268
1841	0.8371
1850	0.8497
1859	0.8616
1868	0.8727
1877	0.8794
1886	0.8823
1895	0.8828
1904	0.8837
1913	0.8851
1922	0.8865
1931	0.8885
1940	0.8903
1949	0.9044
1958	1.0223
1967	0.8873
1976	0.8845
1985	0.879
1994	0.8323
2003	0.9796
2012	0.9117
2021	0.9112
2030	0.9515
2039	0.8991
2048	0.8944
2057	0.8928
2066	0.8932
2075	0.8935
2084	0.891
2093	0.8878
2102	0.8845
2111	0.8805
2120	0.8778
2129	0.8753
2138	0.8733
2147	0.8707
2156	0.8678
2165	0.8641
2174	0.8607
2183	0.8575
2192	0.8555
2201	0.8549
2210	0.8545
2219	0.8533
2228	0.8495
2237	0.8428
2246	0.8345
2255	0.8271
2264	0.8228
2273	0.8184
2282	0.813
2291	0.8078
2300	0.8032
2309	0.7987
2318	0.7939
2327	0.7878
2336	0.7845
2345	0.7878
2354	0.7847
2363	0.7869
2372	0.7946
2381	0.8039
2390	0.8046
2399	0.8018
2408	0.7988
2417	0.7958
2426	0.7936
2435	0.7912
2444	0.7904
2453	0.7908
2462	0.7915
2471	0.7933
2480	0.7951
2489	0.7962
2498	0.7968
2507	0.7964
2516	0.7955
2525	0.7938
2534	0.7912
2543	0.7871
2552	0.7838
2561	0.7801
2570	0.7761
2579	0.7721
2588	0.7684
2597	0.7644
2606	0.7604
2615	0.7561
2624	0.7515
2633	0.7465
2642	0.7414
2651	0.7358
2660	0.7285
2669	0.7212
2678	0.7139
2687	0.7061
2696	0.6975
2705	0.6886
2714	0.6798
2723	0.6701
2732	0.6598
2741	0.6492
2750	0.6385
2759	0.623
2768	0.6062
2777	0.5888
2786	0.5698
2795	0.5483
2804	0.527
2813	0.5073
2822	0.4904
2831	0.4695
2840	0.466
2849	0.4876
2858	0.5196
2867	0.5397
2876	0.5521
2885	0.5816
2894	0.6084
2903	0.615
2912	0.6124
2921	0.6049
2930	0.5871
2939	0.5677
2948	0.553
2957	0.536
2966	0.5215
2975	0.5046
2984	0.4874
2993	0.4712
3002	0.4582
3011	0.4493
3020	0.4445
3029	0.4449
3038	0.453
3047	0.4628
3056	0.4742
3065	0.4865
3074	0.4855
3083	0.4796
3092	0.4739
3101	0.468
3110	0.4614
3119	0.4544
3128	0.4476
3137	0.444
3146	0.4445
3155	0.4423
3164	0.43
3173	0.4156
3182	0.3973
3191	0.3762
3200	0.3478
3209	0.3123
3218	0.2705
3227	0.1984
3236	0.1546
3245	0.1506
3254	0.2322
3263	0.3362
3272	0.4
3281	0.4342
3290	0.4389
3299	0.4287
3308	0.4037
3317	0.373
3326	0.3696
3335	0.4106
3344	0.4495
3353	0.4908
3362	0.5287
3371	0.5584
3380	0.5886
3389	0.6066
3398	0.624
3407	0.6396
3416	0.6558
3425	0.67
3434	0.6803
3443	0.6843
3452	0.6825
3461	0.6782
3470	0.674
3479	0.6697
3488	0.6658
3497	0.66
3506	0.6475
3515	0.606
3524	0.5084
3533	0.4309
3542	0.4136
3551	0.5748
3560	0.5996
3569	0.4982
3578	0.3812
3587	0.3055
3596	0.3225
3605	0.4673
3614	0.6083
3623	0.7243
3632	0.7515
3641	0.7668
3650	0.7832
3659	0.7999
3668	0.8053
3677	0.8054
3686	0.8042
3695	0.8019
3704	0.7995
3713	0.7967
3722	0.7943
3731	0.7918
3740	0.7895
3749	0.7869
3758	0.7846
3767	0.7821
3776	0.7791
3785	0.7757
3794	0.7728
