Infrared Spectrum: LEVARTERENOL BITARTRATE
Formula: C12 H17 N O9  * H2 O
State: SOLID (1.0 mg / 200 mg KBr DISC)
Class: COBLENTZ III
Instrument: PERKIN-ELMER 21 (GRATING)
Instrument parameters: FILTER AT ABOUT 10 MICRONS
Sampling: TRANSMISSION
Resolution: 2
1/CM	TRANSMITTANCE
4000	0.7688
3991	0.768
3982	0.7674
3973	0.7667
3964	0.766
3955	0.7653
3946	0.7646
3937	0.7638
3928	0.7632
3919	0.7625
3910	0.7617
3901	0.7608
3892	0.7601
3883	0.7593
3874	0.7585
3865	0.7575
3856	0.7568
3847	0.756
3838	0.755
3829	0.7539
3820	0.7528
3811	0.7518
3802	0.7507
3793	0.7497
3784	0.7486
3775	0.7475
3766	0.7461
3757	0.7446
3748	0.743
3739	0.7415
3730	0.74
3721	0.7383
3712	0.7365
3703	0.7348
3694	0.7331
3685	0.7312
3676	0.7291
3667	0.7257
3658	0.7221
3649	0.7188
3640	0.7151
3631	0.71
3622	0.7045
3613	0.6992
3604	0.6936
3595	0.683
3586	0.6706
3577	0.6534
3568	0.6382
3559	0.6248
3550	0.5936
3541	0.5681
3532	0.5297
3523	0.4974
3514	0.4086
3505	0.3907
3496	0.3771
3487	0.3636
3478	0.3452
3469	0.3205
3460	0.2816
3451	0.2376
3442	0.2172
3433	0.2034
3424	0.1915
3415	0.1817
3406	0.174
3397	0.1629
3388	0.1548
3379	0.1468
3370	0.1388
3361	0.1307
3352	0.1226
3343	0.1164
3334	0.1112
3325	0.1044
3316	0.0971
3307	0.0875
3298	0.0777
3289	0.0722
3280	0.0673
3271	0.0647
3262	0.065
3253	0.0663
3244	0.0679
3235	0.0707
3226	0.0753
3217	0.0807
3208	0.087
3199	0.0942
3190	0.1008
3181	0.1061
3172	0.1115
3163	0.1168
3154	0.1223
3145	0.1284
3136	0.1346
3127	0.1408
3118	0.1466
3109	0.1519
3100	0.1574
3091	0.1628
3082	0.1683
3073	0.1725
3064	0.1765
3055	0.1807
3046	0.185
3037	0.1896
3028	0.1946
3019	0.1999
3010	0.2056
3001	0.2149
2992	0.2246
2983	0.2344
2974	0.2427
2965	0.25
2956	0.2552
2947	0.2605
2938	0.2669
2929	0.2744
2920	0.2832
2911	0.2916
2902	0.2997
2893	0.3072
2884	0.314
2875	0.3209
2866	0.3289
2857	0.3378
2848	0.3482
2839	0.3604
2830	0.37
2821	0.3789
2812	0.3878
2803	0.3979
2794	0.4107
2785	0.4233
2776	0.4337
2767	0.4438
2758	0.454
2749	0.4642
2740	0.4724
2731	0.4799
2722	0.485
2713	0.488
2704	0.4908
2695	0.4932
2686	0.495
2677	0.4969
2668	0.4996
2659	0.5031
2650	0.5093
2641	0.5155
2632	0.5215
2623	0.5274
2614	0.5321
2605	0.5359
2596	0.5385
2587	0.5402
2578	0.5414
2569	0.5424
2560	0.5427
2551	0.543
2542	0.543
2533	0.5438
2524	0.5452
2515	0.5468
2506	0.5482
2497	0.5497
2488	0.5512
2479	0.5524
2470	0.5536
2461	0.5553
2452	0.5576
2443	0.5616
2434	0.567
2425	0.5724
2416	0.5743
2407	0.5759
2398	0.5787
2389	0.5822
2380	0.5901
2371	0.5989
2362	0.6039
2353	0.607
2344	0.6089
2335	0.6105
2326	0.6131
2317	0.6162
2308	0.6214
2299	0.6297
2290	0.6374
2281	0.645
2272	0.6508
2263	0.6556
2254	0.6593
2245	0.6628
2236	0.6656
2227	0.668
2218	0.6695
2209	0.6708
2200	0.6733
2191	0.6765
2182	0.6786
2173	0.6801
2164	0.6807
2155	0.6801
2146	0.6794
2137	0.6778
2128	0.6757
2119	0.6722
2110	0.6672
2101	0.66
2092	0.6497
2083	0.6431
2074	0.6352
2065	0.6249
2056	0.6148
2047	0.6055
2038	0.5976
2029	0.5904
2020	0.5842
2011	0.5785
2002	0.5727
1993	0.5662
1984	0.5595
1975	0.5526
1966	0.5457
1957	0.5382
1948	0.5299
1939	0.5217
1930	0.5132
1921	0.5045
1912	0.4939
1903	0.4841
1894	0.4753
1885	0.4678
1876	0.4617
1867	0.456
1858	0.4549
1849	0.4573
1840	0.4629
1831	0.4704
1822	0.4757
1813	0.4785
1804	0.4791
1795	0.4776
1786	0.4704
1777	0.4537
1768	0.4403
1759	0.4255
1750	0.398
1741	0.3724
1732	0.3544
1723	0.3475
1714	0.3562
1705	0.3875
1696	0.4177
1687	0.451
1678	0.476
1669	0.4828
1660	0.4621
1651	0.445
1642	0.4012
1633	0.3418
1624	0.2963
1615	0.2224
1606	0.1933
1597	0.1967
1588	0.214
1579	0.2167
1570	0.2217
1561	0.2322
1552	0.2552
1543	0.2669
1534	0.2432
1525	0.2048
1516	0.2055
1507	0.2376
1498	0.2813
1489	0.3084
1480	0.3241
1471	0.3314
1462	0.3173
1453	0.2659
1444	0.2252
1435	0.2207
1426	0.2347
1417	0.2026
1408	0.1604
1399	0.1579
1390	0.165
1381	0.2034
1372	0.2484
1363	0.2862
1354	0.3104
1345	0.3032
1336	0.2621
1327	0.2739
1318	0.3116
1309	0.1804
1300	0.0963
1291	0.0981
1282	0.1078
1273	0.1218
1264	0.1088
1255	0.092
1246	0.1288
1237	0.1674
1228	0.2171
1219	0.2318
1210	0.1279
1201	0.1526
1192	0.1927
1183	0.2354
1174	0.2806
1165	0.3044
1156	0.3019
1147	0.3716
1138	0.3155
1129	0.1677
1120	0.2427
1111	0.2457
1102	0.2896
1093	0.359
1084	0.4082
1075	0.2296
1066	0.1878
1057	0.2895
1048	0.3399
1039	0.3447
1030	0.3897
1021	0.4682
1012	0.501
1003	0.4674
994	0.4465
985	0.4867
976	0.5415
967	0.5478
958	0.57
949	0.5818
940	0.5852
931	0.5862
922	0.5965
913	0.6234
904	0.5156
895	0.5605
886	0.5939
877	0.5404
868	0.55
859	0.5799
850	0.6188
841	0.5065
832	0.5929
823	0.5491
814	0.5162
805	0.5635
796	0.5412
787	0.3812
778	0.5445
769	0.561
760	0.5642
751	0.581
742	0.593
733	0.581
724	0.5626
715	0.5425
706	0.4978
697	0.4089
688	0.2881
679	0.1942
670	0.2408
661	0.4364
652	0.5041
