Infrared Spectrum: 3,4-DICHLORO-Alpha-METHOXYBENZYLPENICILLIN, POTASSIUM SALT
Formula: C17 H17 Cl2 N2 O5 S K
State: SOLID (MULL)
Class: COBLENTZ III
Instrument: PERKIN-ELMER 21 (GRATING)
Instrument parameters: NaCl PRISM
Sampling: TRANSMISSION
Resolution: 2
Origin: SMITH KLINE & FRENCH LABS.
1/CM	TRANSMITTANCE
666	0.5842
675	0.6754
684	0.6487
693	0.7349
702	0.714
711	0.6859
720	0.4997
729	0.6752
738	0.7077
747	0.702
756	0.5598
765	0.4517
774	0.7368
783	0.7283
792	0.3844
801	0.6821
810	0.7742
819	0.7774
828	0.6928
837	0.7797
846	0.782
855	0.7885
864	0.7359
873	0.7303
882	0.6529
891	0.5791
900	0.7103
909	0.5541
918	0.727
927	0.717
936	0.6941
945	0.6239
954	0.5891
963	0.6583
972	0.6437
981	0.5085
990	0.5814
999	0.4894
1008	0.4765
1017	0.5606
1026	0.3942
1035	0.686
1044	0.6983
1053	0.6914
1062	0.6726
1071	0.6173
1080	0.3999
1089	0.3337
1098	0.1959
1107	0.4413
1116	0.4405
1125	0.5379
1134	0.4974
1143	0.4171
1152	0.4887
1161	0.5649
1170	0.5383
1179	0.4315
1188	0.3881
1197	0.3191
1206	0.5465
1215	0.5555
1224	0.5176
1233	0.4358
1242	0.4353
1251	0.4733
1260	0.513
1269	0.4298
1278	0.4293
1287	0.2616
1296	0.1007
1305	0.1925
1314	0.2782
1323	0.3533
1332	0.4224
1341	0.4672
1350	0.421
1359	0.2657
1368	0.1943
1377	0.2134
1386	0.2896
1395	0.3109
1404	0.2235
1413	0.3968
1422	0.3595
1431	0.2381
1440	0.117
1449	0.086
1458	0.0753
1467	0.1723
1476	0.2674
1485	0.2393
1494	0.1125
1503	0.1471
1512	0.292
1521	0.4317
1530	0.5762
1539	0.5866
1548	0.5123
1557	0.4894
1566	0.4304
1575	0.3656
1584	0.2506
1593	0.091
1602	0.0853
1611	0.2176
1620	0.5078
1629	0.6472
1638	0.6488
1647	0.6338
1656	0.5547
1665	0.4443
1674	0.1552
1683	0.0894
1692	0.5434
1701	0.6629
1710	0.6465
1719	0.5813
1728	0.5171
1737	0.4181
1746	0.2697
1755	0.1062
1764	0.135
1773	0.2413
1782	0.3979
1791	0.6785
1800	0.7731
1809	0.7947
1818	0.802
1827	0.8257
1836	0.8496
1845	0.8479
1854	0.8499
1863	0.8507
1872	0.8434
1881	0.849
1890	0.8635
1899	0.8668
1908	0.8674
1917	0.8646
1926	0.8609
1935	0.8587
1944	0.8621
1953	0.8593
1962	0.8522
1971	0.8487
1980	0.8518
1989	0.8427
1998	0.839
2007	0.8387
2016	0.8387
2025	0.8384
2034	0.8364
2043	0.8313
2052	0.8246
2061	0.8276
2070	0.8317
2079	0.8285
2088	0.8258
2097	0.8242
2106	0.8233
2115	0.8223
2124	0.8214
2133	0.8215
2142	0.8223
2151	0.8225
2160	0.8215
2169	0.8188
2178	0.8155
2187	0.8102
2196	0.805
2205	0.8
2214	0.7952
2223	0.7905
2232	0.7866
2241	0.7838
2250	0.7816
2259	0.7801
2268	0.7786
2277	0.7782
2286	0.7782
2295	0.7787
2304	0.7794
2313	0.7802
2322	0.7804
2331	0.7798
2340	0.7785
2349	0.7736
2358	0.7692
2367	0.7655
2376	0.7653
2385	0.7652
2394	0.7651
2403	0.7649
2412	0.7647
2421	0.7646
2430	0.7663
2439	0.7658
2448	0.7632
2457	0.758
2466	0.745
2475	0.7347
2484	0.727
2493	0.7209
2502	0.7169
2511	0.7131
2520	0.7092
2529	0.7046
2538	0.7002
2547	0.6925
2556	0.6771
2565	0.6662
2574	0.6618
2583	0.6579
2592	0.6542
2601	0.6522
2610	0.6505
2619	0.65
2628	0.6499
2637	0.6494
2646	0.6483
2655	0.6444
2664	0.6336
2673	0.6245
2682	0.6214
2691	0.6223
2700	0.6236
2709	0.616
2718	0.5868
2727	0.5387
2736	0.4954
2745	0.4486
2754	0.4119
2763	0.3865
2772	0.3059
2781	0.2124
2790	0.1317
2799	0.0986
2808	0.0706
2817	0.071
2826	0.0727
2835	0.0741
2844	0.0755
2853	0.077
2862	0.0784
2871	0.0797
2880	0.0809
2889	0.0825
2898	0.0917
2907	0.1113
2916	0.1704
2925	0.2391
2934	0.3074
2943	0.3739
2952	0.4068
2961	0.4505
2970	0.4773
2979	0.5024
2988	0.5213
2997	0.5343
3006	0.5438
3015	0.5493
3024	0.5494
3033	0.5486
3042	0.5478
3051	0.5469
3060	0.5453
3069	0.5439
3078	0.5423
3087	0.5408
3096	0.5392
3105	0.5374
3114	0.5354
3123	0.5335
3132	0.5312
3141	0.5281
3150	0.525
3159	0.5219
3168	0.5183
3177	0.5144
3186	0.5105
3195	0.5062
3204	0.5016
3213	0.497
3222	0.4909
3231	0.4829
3240	0.4748
3249	0.4667
3258	0.4582
3267	0.4515
3276	0.4517
3285	0.4571
3294	0.4846
3303	0.5159
3312	0.5484
3321	0.5803
3330	0.5913
3339	0.5913
3348	0.5913
3357	0.5912
3366	0.591
3375	0.5906
3384	0.5902
3393	0.5896
3402	0.5888
3411	0.5881
3420	0.5869
3429	0.5857
3438	0.5846
3447	0.5833
3456	0.5817
3465	0.58
3474	0.5784
3483	0.5769
3492	0.5753
3501	0.5738
3510	0.5723
3519	0.5708
3528	0.5693
3537	0.5678
3546	0.5663
3555	0.5648
3564	0.5623
3573	0.5598
3582	0.5573
3591	0.5549
3600	0.5526
3609	0.5504
3618	0.5488
3627	0.5475
3636	0.5462
3645	0.5452
3654	0.5443
3663	0.5436
3672	0.5431
3681	0.5429
3690	0.5427
3699	0.5424
3708	0.5423
3717	0.5421
3726	0.5419
3735	0.5417
3744	0.5412
3753	0.5407
3762	0.5402
3771	0.5397
3780	0.5387
3789	0.5373
3798	0.5357
3807	0.5343
3816	0.5331
3825	0.5318
3834	0.531
3843	0.5303
3852	0.5297
3861	0.5288
3870	0.5278
3879	0.5269
3888	0.5261
3897	0.5249
3906	0.5236
3915	0.5222
3924	0.5201
3933	0.5176
3942	0.5146
3951	0.5113
3960	0.508
3969	0.5048
3978	0.5019
3987	0.4989
3996	0.4972
