Infrared Spectrum: 1-HYDROXY-2(1H)-PYRIDINETHIONE, COPPER SALT
Formula: C10 H10 N2 O2 S2 Cu
State: SOLID (MINERAL OIL MULL)
Class: COBLENTZ
Instrument: Not specified, most likely a prism, grating, or hybrid spectrometer.
Sampling: TRANSMISSION
Resolution: 4
Origin: WYANDOTTE CHEMICALS CORP., WYANDOTTE, MICHIGAN, USA
MICROMETERS	TRANSMITTANCE
2.012	0.219
2.04927	0.23
2.08654	0.25
2.12381	0.269
2.16108	0.28
2.19835	0.289
2.23562	0.292
2.27288	0.305
2.31015	0.33
2.34742	0.342
2.38469	0.353
2.42196	0.364
2.45923	0.38
2.4965	0.397
2.53377	0.409
2.57104	0.434
2.60831	0.443
2.64558	0.456
2.68285	0.473
2.72012	0.482
2.75739	0.489
2.79465	0.501
2.83192	0.501
2.86919	0.503
2.90646	0.507
2.94373	0.51
2.981	0.517
3.01827	0.528
3.05554	0.537
3.09281	0.548
3.13008	0.543
3.16735	0.528
3.20462	0.52
3.24189	0.404
3.27916	0.4
3.31642	0.347
3.35369	0.07
3.39096	0.024
3.42823	0.026
3.4655	0.031
3.50277	0.04
3.54004	0.202
3.57731	0.492
3.61458	0.604
3.65185	0.621
3.68912	0.616
3.72639	0.641
3.76366	0.658
3.80093	0.676
3.83819	0.691
3.87546	0.708
3.91273	0.736
3.95	0.758
3.98727	0.766
4.02454	0.783
4.06181	0.791
4.09908	0.78
4.13635	0.766
4.17362	0.785
4.21089	0.803
4.24816	0.786
4.28543	0.777
4.32269	0.794
4.35996	0.822
4.39723	0.842
4.4345	0.848
4.47177	0.853
4.50904	0.858
4.54631	0.872
4.58358	0.889
4.62085	0.9
4.65812	0.903
4.69539	0.898
4.73266	0.917
4.76993	0.925
4.8072	0.928
4.84446	0.929
4.88173	0.933
4.919	0.933
4.95627	0.933
4.99354	0.929
5.03081	0.9
5.06808	0.928
5.10535	0.939
5.14262	0.95
5.17989	0.953
5.21716	0.9
5.25443	0.911
5.2917	0.912
5.32897	0.901
5.36623	0.942
5.4035	0.961
5.44077	0.962
5.47804	0.97
5.51531	0.959
5.55258	0.943
5.58985	0.901
5.62712	0.968
5.66439	0.968
5.70166	0.968
5.73893	0.968
5.7762	0.968
5.81347	0.94
5.85073	0.911
5.888	0.939
5.92527	0.933
5.96254	0.925
5.99981	0.914
6.03708	0.903
6.07435	0.911
6.11162	0.895
6.14889	0.836
6.18616	0.612
6.22343	0.471
6.2607	0.808
6.29797	0.873
6.33524	0.9
6.3725	0.838
6.40977	0.445
6.44704	0.151
6.48431	0.616
6.52158	0.797
6.55885	0.859
6.59612	0.858
6.63339	0.823
6.67066	0.632
6.70793	0.59
6.7452	0.475
6.78247	0.096
6.81974	0.034
6.85701	0.096
6.89427	0.228
6.93154	0.369
6.96881	0.454
7.00608	0.403
7.04335	0.14
7.08062	0.447
7.11789	0.661
7.15516	0.732
7.19243	0.626
7.2297	0.334
7.26697	0.272
7.30424	0.456
7.34151	0.637
7.37878	0.691
7.41604	0.719
7.45331	0.739
7.49058	0.777
7.52785	0.802
7.56512	0.808
7.60239	0.806
7.63966	0.799
7.67693	0.814
7.7142	0.817
7.75147	0.819
7.78874	0.817
7.82601	0.8
7.86328	0.707
7.90054	0.501
7.93781	0.764
7.97508	0.813
8.01235	0.808
8.04962	0.749
8.08689	0.487
8.12416	0.347
8.16143	0.565
8.1987	0.54
8.23597	0.526
8.27324	0.526
8.31051	0.436
8.34778	0.06
8.38505	0.138
8.42231	0.587
8.45958	0.651
8.49685	0.521
8.53412	0.191
8.57139	0.077
8.60866	0.151
8.64593	0.194
8.6832	0.087
8.72047	0.116
8.75774	0.356
8.79501	0.506
8.83228	0.57
8.86955	0.591
8.90682	0.59
8.94408	0.602
8.98135	0.619
9.01862	0.657
9.05589	0.674
9.09316	0.676
9.13043	0.403
9.1677	0.278
9.20497	0.644
9.24224	0.669
9.27951	0.727
9.31678	0.757
9.35405	0.767
9.39132	0.785
9.42859	0.799
9.46585	0.811
9.50312	0.814
9.54039	0.803
9.57766	0.797
9.61493	0.775
9.6522	0.7
9.68947	0.649
9.72674	0.738
9.76401	0.781
9.80128	0.813
9.83855	0.825
9.87582	0.838
9.91309	0.852
9.95035	0.862
9.98762	0.869
10.0249	0.869
10.0622	0.87
10.0994	0.881
10.1367	0.878
10.174	0.872
10.2112	0.869
10.2485	0.861
10.2858	0.855
10.323	0.847
10.3603	0.861
10.3976	0.872
10.4349	0.878
10.4721	0.875
10.5094	0.858
10.5467	0.799
10.5839	0.436
10.6212	0.647
10.6585	0.833
10.6957	0.862
10.733	0.878
10.7703	0.884
10.8075	0.886
10.8448	0.884
10.8821	0.889
10.9194	0.894
10.9566	0.919
10.9939	0.928
11.0312	0.934
11.0684	0.939
11.1057	0.942
11.143	0.943
11.1802	0.943
11.2175	0.94
11.2548	0.937
11.292	0.937
11.3293	0.942
11.3666	0.943
11.4039	0.948
11.4411	0.95
11.4784	0.953
11.5157	0.953
11.5529	0.953
11.5902	0.957
11.6275	0.957
11.6647	0.959
11.702	0.956
11.7393	0.934
11.7765	0.867
11.8138	0.785
11.8511	0.853
11.8884	0.845
11.9256	0.761
11.9629	0.633
12.0002	0.49
12.0374	0.33
12.0747	0.267
12.112	0.406
12.1492	0.637
12.1865	0.791
12.2238	0.862
12.261	0.909
12.2983	0.928
12.3356	0.942
12.3729	0.943
12.4101	0.95
12.4474	0.95
12.4847	0.95
12.5219	0.951
12.5592	0.95
12.5965	0.947
12.6337	0.943
12.671	0.943
12.7083	0.937
12.7456	0.934
12.7828	0.929
12.8201	0.909
12.8574	0.895
12.8946	0.866
12.9319	0.822
12.9692	0.774
13.0064	0.696
13.0437	0.615
13.081	0.524
13.1182	0.341
13.1555	0.163
13.1928	0.063
13.2301	0.034
13.2673	0.038
13.3046	0.073
13.3419	0.25
13.3791	0.448
13.4164	0.604
13.4537	0.682
13.4909	0.738
13.5282	0.772
13.5655	0.791
13.6027	0.811
13.64	0.819
13.6773	0.822
13.7146	0.825
13.7518	0.825
13.7891	0.813
13.8264	0.795
13.8636	0.785
13.9009	0.772
13.9382	0.772
13.9754	0.772
14.0127	0.714
14.05	0.59
14.0872	0.376
14.1245	0.205
14.1618	0.2
14.1991	0.37
14.2363	0.565
14.2736	0.627
14.3109	0.602
14.3481	0.615
14.3854	0.739
14.4227	0.859
14.4599	0.919
14.4972	0.939
14.5345	0.942
14.5717	0.943
14.609	0.948
14.6463	0.948
14.6836	0.951
14.7208	0.95
14.7581	0.947
14.7954	0.943
14.8326	0.937
14.8699	0.923
14.9072	0.92
14.9444	0.917
14.9817	0.894
15.019	0.836
15.0562	0.781
15.0935	0.766
15.1308	0.792
15.1681	0.813
15.2053	0.825
15.2426	0.822
15.2799	0.813
15.3171	0.8
15.3544	0.788
15.3917	0.775
15.4289	0.758
15.4662	0.738
15.5035	0.718
15.5407	0.708
15.578	0.69
15.6153	0.66
15.6526	0.647
15.6898	0.618
15.7271	0.59
15.7644	0.574
15.8016	0.562
15.8389	0.538
15.8762	0.515
15.9134	0.487
15.9507	0.465
15.988	0.448
