Infrared Spectrum: 3-THIOMORPHOLINEMETHANOL, S-HYDROGENTHIOSULFATE
Formula: C5 H11 N O3 S3
State: SOLID (1 mg / 650 mg KBr DISC)
Class: COBLENTZ III
Instrument: PERKIN-ELMER 221 (GRATING)
Instrument parameters: FILTER AT 980 CM^-^1. GRATING 4000-1428 CM^-^1, NaCl PRISM 1428-650 CM^-^1
Resolution: 2
Origin: SOUTHERN RESEARCH INSTITUTE
1/CM	TRANSMITTANCE
638	0.3221
647	0.4906
656	0.6847
665	0.7221
674	0.7631
683	0.8697
692	0.8132
701	0.8297
710	0.9116
719	0.9045
728	0.8879
737	0.8614
746	0.8398
755	0.8273
764	0.7548
773	0.7602
782	0.7848
791	0.738
800	0.7664
809	0.7149
818	0.7689
827	0.752
836	0.7256
845	0.6996
854	0.6331
863	0.6294
872	0.6793
881	0.6476
890	0.6242
899	0.6428
908	0.6285
917	0.5954
926	0.5538
935	0.4468
944	0.5282
953	0.4365
962	0.576
971	0.5327
980	0.5077
989	0.419
998	0.3356
1007	0.2523
1016	0.1657
1025	0.1009
1034	0.292
1043	0.5604
1052	0.6439
1061	0.5943
1070	0.5111
1079	0.6295
1088	0.6188
1097	0.5748
1106	0.534
1115	0.4717
1124	0.387
1133	0.4064
1142	0.377
1151	0.3078
1160	0.248
1169	0.2197
1178	0.1405
1187	0.1125
1196	0.1655
1205	0.1846
1214	0.2347
1223	0.1881
1232	0.1549
1241	0.1788
1250	0.3212
1259	0.3968
1268	0.5422
1277	0.5271
1286	0.4578
1295	0.4779
1304	0.6192
1313	0.7611
1322	0.7824
1331	0.7198
1340	0.7583
1349	0.8299
1358	0.7887
1367	0.6996
1376	0.6617
1385	0.4664
1394	0.5394
1403	0.471
1412	0.4524
1421	0.5042
1430	0.593
1439	0.566
1448	0.5993
1457	0.5872
1466	0.6333
1475	0.7527
1484	0.7952
1493	0.8103
1502	0.8293
1511	0.8349
1520	0.8298
1529	0.8215
1538	0.8064
1547	0.7907
1556	0.76
1565	0.7363
1574	0.7005
1583	0.6293
1592	0.4785
1601	0.3745
1610	0.5548
1619	0.6857
1628	0.7569
1637	0.7894
1646	0.8032
1655	0.8492
1664	0.8609
1673	0.8786
1682	0.8773
1691	0.8779
1700	0.8835
1709	0.8791
1718	0.8694
1727	0.8651
1736	0.8737
1745	0.8702
1754	0.8657
1763	0.8656
1772	0.8677
1781	0.8603
1790	0.8629
1799	0.8629
1808	0.8556
1817	0.8522
1826	0.8504
1835	0.8525
1844	0.8566
1853	0.8579
1862	0.8545
1871	0.8523
1880	0.8498
1889	0.8467
1898	0.8435
1907	0.8364
1916	0.825
1925	0.8197
1934	0.8179
1943	0.8162
1952	0.8138
1961	0.8117
1970	0.8094
1979	0.8079
1988	0.8061
1997	0.802
2006	0.7959
2015	0.789
2024	0.781
2033	0.7711
2042	0.75
2051	0.7358
2060	0.7372
2069	0.7578
2078	0.7775
2087	0.7777
2096	0.7764
2105	0.7737
2114	0.7692
2123	0.7523
2132	0.7379
2141	0.7352
2150	0.7352
2159	0.7401
2168	0.7457
2177	0.7459
2186	0.7412
2195	0.7323
2204	0.7206
2213	0.714
2222	0.7207
2231	0.7247
2240	0.7244
2249	0.7237
2258	0.7227
2267	0.722
2276	0.7212
2285	0.7203
2294	0.7176
2303	0.7145
2312	0.7055
2321	0.6954
2330	0.6886
2339	0.6843
2348	0.6808
2357	0.6725
2366	0.6662
2375	0.6628
2384	0.6584
2393	0.6459
2402	0.6312
2411	0.6151
2420	0.6008
2429	0.5866
2438	0.5728
2447	0.5527
2456	0.5442
2465	0.5536
2474	0.5896
2483	0.5894
2492	0.5873
2501	0.5987
2510	0.6105
2519	0.6072
2528	0.5965
2537	0.5837
2546	0.5746
2555	0.5663
2564	0.5553
2573	0.5441
2582	0.5346
2591	0.531
2600	0.5302
2609	0.5259
2618	0.5121
2627	0.5083
2636	0.5046
2645	0.4849
2654	0.4758
2663	0.466
2672	0.4624
2681	0.4772
2690	0.4746
2699	0.4653
2708	0.455
2717	0.4445
2726	0.4244
2735	0.4022
2744	0.3824
2753	0.3681
2762	0.3488
2771	0.3388
2780	0.3318
2789	0.3247
2798	0.3211
2807	0.3199
2816	0.3252
2825	0.3352
2834	0.3427
2843	0.3474
2852	0.3878
2861	0.3997
2870	0.4159
2879	0.4109
2888	0.3836
2897	0.3836
2906	0.4052
2915	0.4088
2924	0.4095
2933	0.3876
2942	0.3529
2951	0.3267
2960	0.3163
2969	0.2904
2978	0.288
2987	0.2888
2996	0.2895
3005	0.2908
3014	0.2975
3023	0.3077
3032	0.3155
3041	0.332
3050	0.3413
3059	0.352
3068	0.3675
3077	0.3823
3086	0.3976
3095	0.4159
3104	0.4388
3113	0.4523
3122	0.4962
3131	0.5255
3140	0.5462
3149	0.5794
3158	0.6106
3167	0.6226
3176	0.6405
3185	0.6439
3194	0.6406
3203	0.6329
3212	0.6483
3221	0.7105
3230	0.7282
3239	0.7326
3248	0.7333
3257	0.7315
3266	0.7284
3275	0.7252
3284	0.7207
3293	0.7081
3302	0.696
3311	0.6864
3320	0.6788
3329	0.6717
3338	0.6649
3347	0.6524
3356	0.641
3365	0.6289
3374	0.6088
3383	0.5971
3392	0.591
3401	0.5875
3410	0.5866
3419	0.588
3428	0.5899
3437	0.5925
3446	0.5962
3455	0.6006
3464	0.6056
3473	0.6113
3482	0.6146
3491	0.6164
3500	0.622
3509	0.6259
3518	0.6286
3527	0.6346
3536	0.6412
3545	0.6476
3554	0.6532
3563	0.6591
3572	0.6702
3581	0.671
3590	0.6952
3599	0.7002
3608	0.7032
3617	0.7156
3626	0.7197
3635	0.7204
3644	0.7205
3653	0.7234
3662	0.725
3671	0.7228
3680	0.7223
3689	0.7224
3698	0.7212
3707	0.72
3716	0.7188
3725	0.7176
3734	0.7142
3743	0.7144
3752	0.7171
3761	0.719
3770	0.7188
3779	0.7179
3788	0.7167
3797	0.7143
3806	0.7117
3815	0.7082
3824	0.7027
3833	0.7005
3842	0.7
3851	0.6997
3860	0.6998
3869	0.7001
3878	0.7
3887	0.6993
3896	0.6987
