Infrared Spectrum: 3-(N-METHYLANILINO)-2,5-DIMETHYL PYRAZINE
Formula: C13 H15 N3
State: LIQUID
Class: COBLENTZ
Instrument: Not specified, most likely a prism, grating, or hybrid spectrometer.
Sampling: TRANSMISSION
Path length: 0.0015 CM
Resolution: 4
Origin: WYANDOTTE CHEMICALS CORP., WYANDOTTE, MICHIGAN, USA
MICROMETERS	TRANSMITTANCE
2.053	0.97
2.09281	0.968
2.13262	0.966
2.17243	0.942
2.21225	0.938
2.25206	0.943
2.29187	0.947
2.33168	0.95
2.37149	0.92
2.4113	0.937
2.45111	0.948
2.49093	0.951
2.53074	0.958
2.57055	0.965
2.61036	0.963
2.65017	0.968
2.68998	0.951
2.72979	0.96
2.76961	0.955
2.80942	0.943
2.84923	0.92
2.88904	0.885
2.92885	0.839
2.96866	0.824
3.00847	0.779
3.04829	0.804
3.0881	0.836
3.12791	0.842
3.16772	0.836
3.20753	0.738
3.24734	0.45
3.28715	0.471
3.32697	0.44
3.36678	0.399
3.40659	0.355
3.4464	0.498
3.48621	0.602
3.52602	0.67
3.56583	0.788
3.60565	0.85
3.64546	0.849
3.68527	0.89
3.72508	0.902
3.76489	0.895
3.8047	0.895
3.84451	0.899
3.88433	0.885
3.92414	0.882
3.96395	0.903
4.00376	0.908
4.04357	0.908
4.08338	0.895
4.12319	0.882
4.16301	0.879
4.20282	0.882
4.24263	0.862
4.28244	0.882
4.32225	0.903
4.36206	0.908
4.40187	0.913
4.44169	0.917
4.4815	0.92
4.52131	0.922
4.56112	0.925
4.60093	0.933
4.64074	0.928
4.68055	0.94
4.72037	0.918
4.76018	0.915
4.79999	0.923
4.8398	0.917
4.87961	0.903
4.91942	0.915
4.95923	0.928
4.99905	0.925
5.03886	0.915
5.07867	0.915
5.11848	0.903
5.15829	0.855
5.1981	0.841
5.23791	0.88
5.27773	0.89
5.31754	0.89
5.35735	0.872
5.39716	0.875
5.43697	0.887
5.47678	0.889
5.51659	0.857
5.55641	0.862
5.59622	0.847
5.63603	0.85
5.67584	0.841
5.71565	0.824
5.75546	0.817
5.79527	0.822
5.83509	0.822
5.8749	0.814
5.91471	0.804
5.95452	0.776
5.99433	0.741
6.03414	0.735
6.07395	0.697
6.11377	0.639
6.15358	0.334
6.19339	0.089
6.2332	0.216
6.27301	0.273
6.31282	0.341
6.35263	0.387
6.39245	0.394
6.43226	0.284
6.47207	0.072
6.51188	0.061
6.55169	0.096
6.5915	0.124
6.63131	0.049
6.67113	0.064
6.71094	0.149
6.75075	0.145
6.79056	0.094
6.83037	0.059
6.87018	0.046
6.90999	0.049
6.94981	0.048
6.98962	0.102
7.02943	0.268
7.06924	0.264
7.10905	0.149
7.14886	0.056
7.18867	0.046
7.22849	0.048
7.2683	0.048
7.30811	0.092
7.34792	0.264
7.38773	0.41
7.42754	0.423
7.46735	0.385
7.50717	0.369
7.54698	0.389
7.58679	0.314
7.6266	0.221
7.66641	0.211
7.70622	0.294
7.74603	0.296
7.78585	0.296
7.82566	0.215
7.86547	0.168
7.90528	0.14
7.94509	0.173
7.9849	0.382
8.02471	0.496
8.06453	0.539
8.10434	0.529
8.14415	0.594
8.18396	0.625
8.22377	0.579
8.26358	0.438
8.30339	0.235
8.34321	0.142
8.38302	0.114
8.42283	0.066
8.46264	0.082
8.50245	0.162
8.54226	0.326
8.58207	0.41
8.62189	0.365
8.6617	0.387
8.70151	0.326
8.74132	0.203
8.78113	0.076
8.82094	0.059
8.86075	0.137
8.90057	0.178
8.94038	0.261
8.98019	0.402
9.02	0.516
9.05981	0.592
9.09962	0.629
9.13943	0.627
9.17925	0.577
9.21906	0.518
9.25887	0.528
9.29868	0.609
9.33849	0.645
9.3783	0.622
9.41811	0.552
9.45793	0.513
9.49774	0.604
9.53755	0.632
9.57736	0.619
9.61717	0.513
9.65698	0.359
9.69679	0.259
9.73661	0.298
9.77642	0.471
9.81623	0.557
9.85604	0.538
9.89585	0.456
9.93566	0.253
9.97547	0.208
10.0153	0.248
10.0551	0.25
10.0949	0.36
10.1347	0.511
10.1745	0.559
10.2143	0.597
10.2542	0.65
10.294	0.688
10.3338	0.706
10.3736	0.708
10.4134	0.692
10.4532	0.682
10.493	0.637
10.5328	0.637
10.5726	0.64
10.6125	0.685
10.6523	0.73
10.6921	0.763
10.7319	0.789
10.7717	0.799
10.8115	0.811
10.8513	0.812
10.8911	0.809
10.9309	0.802
10.9708	0.784
11.0106	0.75
11.0504	0.71
11.0902	0.677
11.13	0.675
11.1698	0.668
11.2096	0.672
11.2494	0.677
11.2893	0.672
11.3291	0.658
11.3689	0.635
11.4087	0.622
11.4485	0.622
11.4883	0.627
11.5281	0.66
11.5679	0.685
11.6077	0.723
11.6476	0.754
11.6874	0.776
11.7272	0.791
11.767	0.798
11.8068	0.781
11.8466	0.763
11.8864	0.753
11.9262	0.743
11.966	0.723
12.0059	0.687
12.0457	0.665
12.0855	0.675
12.1253	0.72
12.1651	0.751
12.2049	0.786
12.2447	0.812
12.2845	0.831
12.3243	0.836
12.3642	0.836
12.404	0.829
12.4438	0.831
12.4836	0.839
12.5234	0.847
12.5632	0.852
12.603	0.852
12.6428	0.844
12.6827	0.826
12.7225	0.773
12.7623	0.72
12.8021	0.642
12.8419	0.581
12.8817	0.567
12.9215	0.615
12.9613	0.622
13.0011	0.534
13.041	0.341
13.0808	0.246
13.1206	0.203
13.1604	0.2
13.2002	0.183
13.24	0.137
13.2798	0.097
13.3196	0.082
13.3594	0.124
13.3993	0.23
13.4391	0.382
13.4789	0.524
13.5187	0.624
13.5585	0.68
13.5983	0.71
13.6381	0.745
13.6779	0.759
13.7177	0.768
13.7576	0.768
13.7974	0.764
13.8372	0.75
13.877	0.748
13.9168	0.721
13.9566	0.715
13.9964	0.706
14.0362	0.695
14.0761	0.655
14.1159	0.589
14.1557	0.463
14.1955	0.344
14.2353	0.223
14.2751	0.162
14.3149	0.135
14.3547	0.139
14.3945	0.149
14.4344	0.19
14.4742	0.228
14.514	0.261
14.5538	0.321
14.5936	0.394
14.6334	0.49
14.6732	0.582
14.713	0.657
14.7528	0.7
14.7927	0.738
14.8325	0.75
14.8723	0.754
14.9121	0.761
14.9519	0.766
14.9917	0.748
15.0315	0.736
15.0713	0.725
15.1111	0.748
15.151	0.763
15.1908	0.769
15.2306	0.774
15.2704	0.781
15.3102	0.776
15.35	0.766
15.3898	0.766
15.4296	0.764
15.4695	0.759
15.5093	0.754
15.5491	0.748
15.5889	0.741
15.6287	0.733
15.6685	0.725
15.7083	0.715
15.7481	0.698
15.7879	0.683
15.8278	0.675
15.8676	0.66
15.9074	0.658
15.9472	0.665
15.987	0.68
