Infrared Spectrum: MAGNESIUM THIOSULFATE
Formula: Mg S2 O3  * 6 H2 O
State: SOLID (NUJOL MULL)
Class: COBLENTZ
Instrument: Not specified, most likely a prism, grating, or hybrid spectrometer.
Sampling: TRANSMISSION
Resolution: 4
Origin: MELLON INSTITUTE
MICROMETERS	TRANSMITTANCE
2.018	0.948
2.05783	0.958
2.09766	0.966
2.13749	0.976
2.17731	0.984
2.21714	0.988
2.25697	0.988
2.2968	0.986
2.33663	0.978
2.37646	0.981
2.41629	0.974
2.45611	0.964
2.49594	0.963
2.53577	0.956
2.5756	0.936
2.61543	0.918
2.65526	0.901
2.69509	0.871
2.73491	0.809
2.77474	0.683
2.81457	0.498
2.8544	0.309
2.89423	0.242
2.93406	0.234
2.97389	0.209
3.01371	0.207
3.05354	0.209
3.09337	0.185
3.1332	0.178
3.17303	0.192
3.21286	0.225
3.25269	0.279
3.29252	0.319
3.33234	0.319
3.37217	0.219
3.412	0.279
3.45183	0.391
3.49166	0.449
3.53149	0.724
3.57132	0.772
3.61114	0.794
3.65097	0.804
3.6908	0.816
3.73063	0.824
3.77046	0.829
3.81029	0.837
3.85012	0.842
3.88994	0.846
3.92977	0.851
3.9696	0.851
4.00943	0.851
4.04926	0.851
4.08909	0.846
4.12892	0.837
4.16874	0.824
4.20857	0.814
4.2484	0.804
4.28823	0.799
4.32806	0.797
4.36789	0.792
4.40772	0.789
4.44754	0.787
4.48737	0.785
4.5272	0.79
4.56703	0.797
4.60686	0.801
4.64669	0.807
4.68652	0.811
4.72634	0.811
4.76617	0.812
4.806	0.814
4.84583	0.821
4.88566	0.826
4.92549	0.827
4.96532	0.834
5.00514	0.837
5.04497	0.841
5.0848	0.846
5.12463	0.851
5.16446	0.856
5.20429	0.861
5.24412	0.861
5.28395	0.861
5.32377	0.861
5.3636	0.857
5.40343	0.857
5.44326	0.859
5.48309	0.859
5.52292	0.859
5.56275	0.859
5.60257	0.862
5.6424	0.859
5.68223	0.861
5.72206	0.861
5.76189	0.856
5.80172	0.851
5.84155	0.842
5.88137	0.819
5.9212	0.775
5.96103	0.675
6.00086	0.633
6.04069	0.5
6.08052	0.461
6.12035	0.558
6.16017	0.622
6.2	0.69
6.23983	0.717
6.27966	0.732
6.31949	0.737
6.35932	0.735
6.39915	0.735
6.43897	0.734
6.4788	0.739
6.51863	0.739
6.55846	0.737
6.59829	0.74
6.63812	0.747
6.67795	0.752
6.71777	0.76
6.7576	0.764
6.79743	0.73
6.83726	0.675
6.87709	0.668
6.91692	0.678
6.95675	0.705
6.99657	0.755
7.0364	0.77
7.07623	0.789
7.11606	0.804
7.15589	0.812
7.19572	0.806
7.23555	0.764
7.27538	0.76
7.3152	0.769
7.35503	0.795
7.39486	0.807
7.43469	0.811
7.47452	0.817
7.51435	0.821
7.55418	0.824
7.594	0.827
7.63383	0.827
7.67366	0.829
7.71349	0.832
7.75332	0.832
7.79315	0.832
7.83298	0.834
7.8728	0.834
7.91263	0.831
7.95246	0.836
7.99229	0.836
8.03212	0.834
8.07195	0.832
8.11178	0.829
8.1516	0.827
8.19143	0.826
8.23126	0.824
8.27109	0.822
8.31092	0.816
8.35075	0.809
8.39058	0.802
8.4304	0.784
8.47023	0.767
8.51006	0.729
8.54989	0.687
8.58972	0.615
8.62955	0.525
8.66938	0.453
8.7092	0.386
8.74903	0.326
8.78886	0.284
8.82869	0.26
8.86852	0.252
8.90835	0.247
8.94818	0.247
8.988	0.247
9.02783	0.254
9.06766	0.27
9.10749	0.295
9.14732	0.332
9.18715	0.364
9.22698	0.406
9.2668	0.449
9.30663	0.479
9.34646	0.511
9.38629	0.538
9.42612	0.561
9.46595	0.588
9.50578	0.612
9.54561	0.637
9.58543	0.658
9.62526	0.672
9.66509	0.68
9.70492	0.677
9.74475	0.652
9.78458	0.591
9.82441	0.508
9.86423	0.443
9.90406	0.408
9.94389	0.396
9.98372	0.389
10.0235	0.389
10.0634	0.406
10.1032	0.429
10.143	0.464
10.1829	0.505
10.2227	0.541
10.2625	0.575
10.3023	0.603
10.3422	0.63
10.382	0.653
10.4218	0.683
10.4617	0.702
10.5015	0.719
10.5413	0.735
10.5811	0.75
10.621	0.759
10.6608	0.767
10.7006	0.777
10.7405	0.787
10.7803	0.792
10.8201	0.801
10.8599	0.804
10.8998	0.812
10.9396	0.822
10.9794	0.832
11.0193	0.837
11.0591	0.844
11.0989	0.851
11.1387	0.854
11.1786	0.857
11.2184	0.861
11.2582	0.862
11.2981	0.866
11.3379	0.869
11.3777	0.872
11.4175	0.876
11.4574	0.879
11.4972	0.882
11.537	0.886
11.5769	0.889
11.6167	0.891
11.6565	0.892
11.6963	0.896
11.7362	0.901
11.776	0.903
11.8158	0.904
11.8557	0.906
11.8955	0.906
11.9353	0.908
11.9751	0.909
12.015	0.911
12.0548	0.911
12.0946	0.913
12.1345	0.913
12.1743	0.914
12.2141	0.914
12.2539	0.914
12.2938	0.914
12.3336	0.914
12.3734	0.914
12.4133	0.914
12.4531	0.914
12.4929	0.914
12.5328	0.914
12.5726	0.914
12.6124	0.913
12.6522	0.913
12.6921	0.909
12.7319	0.906
12.7717	0.904
12.8116	0.903
12.8514	0.904
12.8912	0.903
12.931	0.897
12.9709	0.894
13.0107	0.891
13.0505	0.887
13.0904	0.882
13.1302	0.877
13.17	0.872
13.2098	0.866
13.2497	0.859
13.2895	0.854
13.3293	0.842
13.3692	0.837
13.409	0.831
13.4488	0.819
13.4886	0.812
13.5285	0.802
13.5683	0.789
13.6081	0.772
13.648	0.755
13.6878	0.735
13.7276	0.719
13.7674	0.702
13.8073	0.68
13.8471	0.665
13.8869	0.647
13.9268	0.633
13.9666	0.615
14.0064	0.598
14.0462	0.585
14.0861	0.571
14.1259	0.563
14.1657	0.556
14.2056	0.55
14.2454	0.541
14.2852	0.531
14.325	0.53
14.3649	0.526
14.4047	0.521
14.4445	0.516
14.4844	0.516
14.5242	0.513
14.564	0.51
14.6038	0.505
14.6437	0.505
14.6835	0.503
14.7233	0.503
14.7632	0.501
14.803	0.5
14.8428	0.5
14.8826	0.5
14.9225	0.498
14.9623	0.494
15.0021	0.493
15.042	0.493
15.0818	0.494
15.1216	0.496
15.1614	0.496
15.2013	0.5
15.2411	0.503
15.2809	0.505
15.3208	0.506
15.3606	0.508
15.4004	0.51
15.4402	0.511
15.4801	0.515
15.5199	0.516
15.5597	0.518
15.5996	0.52
15.6394	0.52
15.6792	0.523
15.719	0.528
15.7589	0.533
15.7987	0.538
15.8385	0.541
15.8784	0.545
15.9182	0.548
15.958	0.55
