Infrared Spectrum: Purine, 6-chloro-2-hydrazino-
Formula: C5 H5 Cl N6
State: SOLID (0.9 mg / 655 mg KBr DISC)
Class: COBLENTZ III
Instrument: PERKIN-ELMER 21 (GRATING)
Instrument parameters: FILTER CHANGE ABOUT 1075 CM^-^1
Sampling: TRANSMISSION
Resolution: 2
Origin: SOUTHERN RESEARCH INSTITUTE
1/CM	TRANSMITTANCE
634.72	0.6079
643.757	0.6307
652.794	0.6314
661.832	0.5711
670.869	0.5263
679.906	0.5336
688.943	0.5761
697.98	0.5753
707.017	0.5996
716.055	0.6288
725.092	0.6402
734.129	0.6439
743.166	0.6422
752.203	0.6376
761.241	0.6273
770.278	0.5961
779.315	0.5132
788.352	0.4761
797.389	0.5734
806.427	0.556
815.464	0.5507
824.501	0.5614
833.538	0.5841
842.575	0.6108
851.612	0.6144
860.65	0.611
869.687	0.6039
878.724	0.588
887.761	0.5486
896.798	0.4914
905.836	0.3546
914.873	0.1814
923.91	0.1156
932.947	0.2217
941.984	0.3324
951.022	0.4214
960.059	0.5462
969.096	0.5997
978.133	0.6503
987.17	0.6854
996.207	0.7104
1005.24	0.7324
1014.28	0.7423
1023.32	0.741
1032.36	0.7362
1041.39	0.7242
1050.43	0.7043
1059.47	0.6777
1068.5	0.5683
1077.54	0.4123
1086.58	0.6137
1095.62	0.6368
1104.65	0.6094
1113.69	0.5702
1122.73	0.4944
1131.77	0.3174
1140.8	0.2349
1149.84	0.4315
1158.88	0.5697
1167.91	0.5337
1176.95	0.4589
1185.99	0.3188
1195.03	0.4744
1204.06	0.5717
1213.1	0.5171
1222.14	0.4112
1231.17	0.3292
1240.21	0.2332
1249.25	0.1223
1258.29	0.5851
1267.32	0.6146
1276.36	0.6132
1285.4	0.5899
1294.43	0.495
1303.47	0.384
1312.51	0.3369
1321.55	0.3798
1330.58	0.4166
1339.62	0.3701
1348.66	0.4584
1357.69	0.4721
1366.73	0.4344
1375.77	0.2275
1384.81	0.1814
1393.84	0.3955
1402.88	0.3789
1411.92	0.3156
1420.96	0.1406
1429.99	0.1467
1439.03	0.3121
1448.07	0.4532
1457.1	0.5375
1466.14	0.547
1475.18	0.5127
1484.22	0.4691
1493.25	0.5176
1502.29	0.5406
1511.33	0.5422
1520.36	0.4927
1529.4	0.5077
1538.44	0.4967
1547.48	0.4591
1556.51	0.4236
1565.55	0.3934
1574.59	0.3136
1583.62	0.217
1592.66	0.1366
1601.7	0.0959
1610.74	0.104
1619.77	0.1541
1628.81	0.24
1637.85	0.2694
1646.88	0.1945
1655.92	0.1077
1664.96	0.0793
1674	0.1726
1683.03	0.4962
1692.07	0.6514
1701.11	0.6922
1710.15	0.7169
1719.18	0.7334
1728.22	0.7498
1737.26	0.7643
1746.29	0.7747
1755.33	0.7855
1764.37	0.7958
1773.41	0.8053
1782.44	0.8135
1791.48	0.8167
1800.52	0.8138
1809.55	0.798
1818.59	0.7975
1827.63	0.8101
1836.67	0.8205
1845.7	0.8268
1854.74	0.8307
1863.78	0.8343
1872.81	0.837
1881.85	0.8391
1890.89	0.8396
1899.93	0.8401
1908.96	0.8406
1918	0.8407
1927.04	0.8407
1936.07	0.8405
1945.11	0.8396
1954.15	0.8379
1963.19	0.8362
1972.22	0.8334
1981.26	0.8313
1990.3	0.8312
1999.34	0.8322
2008.37	0.8332
2017.41	0.8341
2026.45	0.8345
2035.48	0.8345
2044.52	0.834
2053.56	0.8332
2062.6	0.8322
2071.63	0.8317
2080.67	0.8316
2089.71	0.8305
2098.74	0.8293
2107.78	0.828
2116.82	0.826
2125.86	0.8241
2134.89	0.8225
2143.93	0.821
2152.97	0.8195
2162	0.8181
2171.04	0.8164
2180.08	0.8148
2189.12	0.8109
2198.15	0.8079
2207.19	0.8066
2216.23	0.8049
2225.26	0.8026
2234.3	0.8018
2243.34	0.8034
2252.38	0.8033
2261.41	0.8018
2270.45	0.799
2279.49	0.7959
2288.53	0.7923
2297.56	0.7884
2306.6	0.7845
2315.64	0.7791
2324.67	0.7767
2333.71	0.7765
2342.75	0.7769
2351.79	0.7777
2360.82	0.7768
2369.86	0.7737
2378.9	0.7715
2387.93	0.7656
2396.97	0.7628
2406.01	0.7633
2415.05	0.7624
2424.08	0.7609
2433.12	0.7555
2442.16	0.7436
2451.19	0.735
2460.23	0.7269
2469.27	0.7211
2478.31	0.7176
2487.34	0.7139
2496.38	0.7105
2505.42	0.7057
2514.45	0.7002
2523.49	0.6954
2532.53	0.6913
2541.57	0.6884
2550.6	0.6861
2559.64	0.6857
2568.68	0.6808
2577.72	0.6745
2586.75	0.6683
2595.79	0.6623
2604.83	0.6564
2613.86	0.6505
2622.9	0.6447
2631.94	0.639
2640.98	0.6333
2650.01	0.6271
2659.05	0.6195
2668.09	0.6118
2677.12	0.6042
2686.16	0.5965
2695.2	0.5881
2704.24	0.5794
2713.27	0.5716
2722.31	0.5639
2731.35	0.5473
2740.38	0.527
2749.42	0.507
2758.46	0.4845
2767.5	0.4557
2776.53	0.4336
2785.57	0.4249
2794.61	0.4163
2803.64	0.4127
2812.68	0.4124
2821.72	0.4117
2830.76	0.4076
2839.79	0.3983
2848.83	0.3865
2857.87	0.3702
2866.91	0.3571
2875.94	0.3481
2884.98	0.3397
2894.02	0.3303
2903.05	0.319
2912.09	0.3067
2921.13	0.2932
2930.17	0.2793
2939.2	0.2673
2948.24	0.2562
2957.28	0.2453
2966.31	0.2343
2975.35	0.2249
2984.39	0.2159
2993.43	0.206
3002.46	0.196
3011.5	0.1872
3020.54	0.1807
3029.57	0.1771
3038.61	0.1738
3047.65	0.1702
3056.69	0.1662
3065.72	0.1622
3074.76	0.1593
3083.8	0.159
3092.83	0.1613
3101.87	0.1647
3110.91	0.1712
3119.95	0.1776
3128.98	0.1786
3138.02	0.1742
3147.06	0.1723
3156.1	0.173
3165.13	0.1766
3174.17	0.1857
3183.21	0.1959
3192.24	0.2117
3201.28	0.232
3210.32	0.2544
3219.36	0.2802
3228.39	0.3065
3237.43	0.3326
3246.47	0.3793
3255.5	0.4016
3264.54	0.4325
3273.58	0.4487
3282.62	0.4589
3291.65	0.4637
3300.69	0.4592
3309.73	0.4482
3318.76	0.4325
3327.8	0.4179
3336.84	0.4254
3345.88	0.474
3354.91	0.5294
3363.95	0.5588
3372.99	0.5695
3382.02	0.5768
3391.06	0.5825
3400.1	0.5882
3409.14	0.5944
3418.17	0.6014
3427.21	0.6097
3436.25	0.6169
3445.29	0.6222
3454.32	0.6318
3463.36	0.6442
3472.4	0.6522
3481.43	0.6587
3490.47	0.6652
3499.51	0.6789
3508.55	0.6889
3517.58	0.6934
3526.62	0.6979
3535.66	0.7045
3544.69	0.7153
3553.73	0.727
3562.77	0.7367
3571.81	0.7434
3580.84	0.7525
3589.88	0.7637
3598.92	0.774
3607.95	0.7786
3616.99	0.7829
3626.03	0.793
3635.07	0.7928
3644.1	0.7929
3653.14	0.7937
3662.18	0.7957
3671.21	0.7972
3680.25	0.7978
3689.29	0.7989
3698.33	0.8006
3707.36	0.8024
3716.4	0.8043
3725.44	0.8064
3734.48	0.8084
3743.51	0.8085
3752.55	0.8075
3761.59	0.8058
3770.62	0.8038
3779.66	0.8025
3788.7	0.8008
3797.74	0.7984
3806.77	0.7944
3815.81	0.7931
3824.85	0.7926
3833.88	0.7925
3842.92	0.7931
3851.96	0.7929
3861	0.7925
