Infrared Spectrum: SODIUM 5-ETHYL-5-(1-METHYLBUTYL) BARBITURATE
Formula: C11 H19 N2 O3 Na
State: SOLID (NUJOL MULL)
Class: COBLENTZ
Instrument: Not specified, most likely a grating spectrometer.
Sampling: TRANSMISSION
Resolution: 4
Origin: ABBOTT LABORATORIES
MICROMETERS	TRANSMITTANCE
2.054	0.873
2.08785	0.871
2.12171	0.874
2.15556	0.873
2.18941	0.878
2.22327	0.878
2.25712	0.874
2.29098	0.874
2.32483	0.866
2.35868	0.854
2.39254	0.848
2.42639	0.854
2.46024	0.858
2.4941	0.853
2.52795	0.851
2.56181	0.863
2.59566	0.868
2.62951	0.868
2.66337	0.868
2.69722	0.864
2.73107	0.869
2.76493	0.854
2.79878	0.848
2.83263	0.821
2.86649	0.813
2.90034	0.801
2.9342	0.789
2.96805	0.769
3.0019	0.747
3.03576	0.722
3.06961	0.704
3.10346	0.672
3.13732	0.589
3.17117	0.535
3.20503	0.525
3.23888	0.545
3.27273	0.555
3.30659	0.532
3.34044	0.539
3.37429	0.355
3.40815	0.133
3.442	0.031
3.47586	0.028
3.50971	0.125
3.54356	0.136
3.57742	0.505
3.61127	0.684
3.64512	0.749
3.67898	0.771
3.71283	0.782
3.74668	0.797
3.78054	0.803
3.81439	0.811
3.84825	0.819
3.8821	0.821
3.91595	0.829
3.94981	0.839
3.98366	0.844
4.01751	0.848
4.05137	0.849
4.08522	0.849
4.11908	0.851
4.15293	0.856
4.18678	0.859
4.22064	0.859
4.25449	0.869
4.28834	0.881
4.3222	0.881
4.35605	0.864
4.3899	0.861
4.42376	0.859
4.45761	0.861
4.49147	0.863
4.52532	0.861
4.55917	0.863
4.59303	0.863
4.62688	0.861
4.66073	0.861
4.69459	0.863
4.72844	0.863
4.7623	0.859
4.79615	0.861
4.83	0.861
4.86386	0.864
4.89771	0.866
4.93156	0.866
4.96542	0.866
4.99927	0.868
5.03313	0.869
5.06698	0.869
5.10083	0.869
5.13469	0.871
5.16854	0.868
5.20239	0.864
5.23625	0.866
5.2701	0.861
5.30395	0.861
5.33781	0.856
5.37166	0.858
5.40552	0.854
5.43937	0.851
5.47322	0.849
5.50708	0.846
5.54093	0.833
5.57478	0.823
5.60864	0.813
5.64249	0.808
5.67635	0.796
5.7102	0.774
5.74405	0.737
5.77791	0.682
5.81176	0.567
5.84561	0.415
5.87947	0.23
5.91332	0.213
5.94717	0.312
5.98103	0.315
6.01488	0.202
6.04874	0.128
6.08259	0.175
6.11644	0.368
6.1503	0.499
6.18415	0.482
6.218	0.353
6.25186	0.18
6.28571	0.081
6.31957	0.075
6.35342	0.081
6.38727	0.08
6.42113	0.078
6.45498	0.086
6.48883	0.165
6.52269	0.243
6.55654	0.425
6.5904	0.53
6.62425	0.601
6.6581	0.629
6.69196	0.656
6.72581	0.667
6.75966	0.652
6.79352	0.584
6.82737	0.424
6.86122	0.255
6.89508	0.22
6.92893	0.215
6.96279	0.186
6.99664	0.23
7.03049	0.275
7.06435	0.32
7.0982	0.397
7.13205	0.479
7.16591	0.515
7.19976	0.522
7.23362	0.44
7.26747	0.313
7.30132	0.282
7.33518	0.262
7.36903	0.218
7.40288	0.183
7.43674	0.176
7.47059	0.181
7.50444	0.212
7.5383	0.327
7.57215	0.365
7.60601	0.32
7.63986	0.25
7.67371	0.225
7.70757	0.257
7.74142	0.315
7.77527	0.352
7.80913	0.392
7.84298	0.42
7.87684	0.397
7.91069	0.337
7.94454	0.348
7.9784	0.38
8.01225	0.482
8.0461	0.55
8.07996	0.636
8.11381	0.674
8.14767	0.712
8.18152	0.746
8.21537	0.764
8.24923	0.772
8.28308	0.781
8.31693	0.789
8.35079	0.796
8.38464	0.797
8.41849	0.803
8.45235	0.803
8.4862	0.799
8.52006	0.774
8.55391	0.717
8.58776	0.697
8.62162	0.697
8.65547	0.699
8.68932	0.704
8.72318	0.707
8.75703	0.742
8.79089	0.781
8.82474	0.797
8.85859	0.804
8.89245	0.813
8.9263	0.816
8.96015	0.814
8.99401	0.808
9.02786	0.806
9.06171	0.794
9.09557	0.796
9.12942	0.797
9.16328	0.786
9.19713	0.771
9.23098	0.764
9.26484	0.766
9.29869	0.782
9.33254	0.791
9.3664	0.792
9.40025	0.791
9.43411	0.786
9.46796	0.779
9.50181	0.776
9.53567	0.776
9.56952	0.781
9.60337	0.791
9.63723	0.796
9.67108	0.796
9.70494	0.801
9.73879	0.803
9.77264	0.799
9.8065	0.792
9.84035	0.791
9.8742	0.792
9.90806	0.797
9.94191	0.804
9.97576	0.808
10.0096	0.816
10.0435	0.823
10.0773	0.821
10.1112	0.823
10.145	0.824
10.1789	0.821
10.2127	0.816
10.2466	0.813
10.2804	0.806
10.3143	0.803
10.3482	0.797
10.382	0.797
10.4159	0.794
10.4497	0.779
10.4836	0.776
10.5174	0.774
10.5513	0.767
10.5851	0.766
10.619	0.764
10.6528	0.769
10.6867	0.784
10.7205	0.792
10.7544	0.796
10.7883	0.797
10.8221	0.799
10.856	0.796
10.8898	0.777
10.9237	0.774
10.9575	0.777
10.9914	0.784
11.0252	0.789
11.0591	0.791
11.0929	0.792
11.1268	0.792
11.1606	0.792
11.1945	0.792
11.2284	0.789
11.2622	0.784
11.2961	0.771
11.3299	0.774
11.3638	0.761
11.3976	0.747
11.4315	0.741
11.4653	0.732
11.4992	0.722
11.533	0.712
11.5669	0.706
11.6007	0.706
11.6346	0.696
11.6684	0.694
11.7023	0.692
11.7362	0.692
11.77	0.691
11.8039	0.692
11.8377	0.692
11.8716	0.694
11.9054	0.699
11.9393	0.711
11.9731	0.712
12.007	0.717
12.0408	0.721
12.0747	0.721
12.1085	0.726
12.1424	0.732
12.1763	0.736
12.2101	0.737
12.244	0.737
12.2778	0.737
12.3117	0.739
12.3455	0.742
12.3794	0.742
12.4132	0.742
12.4471	0.741
12.4809	0.734
12.5148	0.724
12.5486	0.716
12.5825	0.709
12.6164	0.696
12.6502	0.689
12.6841	0.679
12.7179	0.671
12.7518	0.667
12.7856	0.672
12.8195	0.696
12.8533	0.727
12.8872	0.739
12.921	0.739
12.9549	0.734
12.9887	0.722
13.0226	0.709
13.0565	0.707
13.0903	0.704
13.1242	0.697
13.158	0.659
13.1919	0.637
13.2257	0.624
13.2596	0.621
13.2934	0.626
13.3273	0.639
13.3611	0.651
13.395	0.661
13.4288	0.662
13.4627	0.669
13.4965	0.669
13.5304	0.679
13.5643	0.691
13.5981	0.696
13.632	0.699
13.6658	0.704
13.6997	0.706
13.7335	0.704
13.7674	0.697
13.8012	0.696
13.8351	0.697
13.8689	0.696
13.9028	0.694
13.9366	0.697
13.9705	0.702
14.0044	0.709
14.0382	0.707
14.0721	0.709
14.1059	0.709
14.1398	0.709
14.1736	0.704
14.2075	0.704
14.2413	0.704
14.2752	0.704
14.309	0.704
14.3429	0.704
14.3767	0.706
14.4106	0.706
14.4445	0.706
14.4783	0.707
14.5122	0.707
14.546	0.707
14.5799	0.706
14.6137	0.704
14.6476	0.701
14.6814	0.699
14.7153	0.696
14.7491	0.694
14.783	0.689
14.8168	0.686
14.8507	0.679
14.8846	0.676
14.9184	0.672
14.9523	0.667
14.9861	0.667
15.02	0.664
15.0538	0.661
15.0877	0.651
15.1215	0.647
15.1554	0.641
15.1892	0.636
15.2231	0.627
15.2569	0.614
15.2908	0.609
15.3246	0.602
15.3585	0.594
15.3924	0.59
15.4262	0.589
15.4601	0.584
15.4939	0.579
