Infrared Spectrum: N-PHENYL-N-BENZYL BENZENESULFONAMIDE
Formula: C19 H17 N O2 S
State: SOLID (1.0% IN KBr PELLET)
Class: COBLENTZ
Instrument: Not specified, most likely a prism, grating, or hybrid spectrometer.
Sampling: TRANSMISSION
Path length: 0.0355 CM THICK
Resolution: 4
Origin: ANDERSON PHYSICAL LABORATORY
1/CM	TRANSMITTANCE
677.46	0.658
685.866	0.2642
694.272	0.364
702.678	0.304
711.084	0.5647
719.49	0.7521
727.896	0.228
736.302	0.3939
744.708	0.852
753.114	0.7259
761.52	0.6379
769.926	0.9188
778.332	0.7172
786.738	0.6638
795.144	0.961
803.55	0.949
811.956	0.888
820.362	0.874
828.768	0.879
837.174	0.871
845.58	0.852
853.986	0.8261
862.392	0.7
870.798	0.4462
879.204	0.3049
887.61	0.7159
896.016	0.853
904.422	0.894
912.828	0.898
921.234	0.904
929.64	0.859
938.046	0.8919
946.452	0.91
954.858	0.91
963.264	0.894
971.67	0.88
980.076	0.828
988.482	0.847
996.888	0.814
1005.29	0.752
1013.7	0.719
1022.11	0.743
1030.51	0.553
1038.92	0.5999
1047.32	0.714
1055.73	0.594
1064.14	0.3521
1072.54	0.258
1080.95	0.488
1089.35	0.549
1097.76	0.197
1106.17	0.5259
1114.57	0.701
1122.98	0.72
1131.38	0.723
1139.79	0.679
1148.2	0.489
1156.6	0.197
1165.01	0.1
1173.41	0.2531
1181.82	0.4758
1190.23	0.5905
1198.63	0.791
1207.04	0.811
1215.44	0.74
1223.85	0.686
1232.26	0.892
1240.66	0.907
1249.07	0.913
1257.47	0.898
1265.88	0.855
1274.29	0.7371
1282.69	0.7459
1291.1	0.75
1299.5	0.685
1307.91	0.723
1316.32	0.686
1324.72	0.737
1333.13	0.589
1341.53	0.477
1349.94	0.3559
1358.35	0.1559
1366.75	0.329
1375.16	0.7129
1383.56	0.861
1391.97	0.908
1400.38	0.898
1408.78	0.883
1417.19	0.886
1425.59	0.9
1434	0.895
1442.41	0.8311
1450.81	0.5342
1459.22	0.525
1467.62	0.835
1476.03	0.862
1484.44	0.773
1492.84	0.629
1501.25	0.646
1509.65	0.805
1518.06	0.905
1526.47	0.935
1534.87	0.934
1543.28	0.92
1551.68	0.908
1560.09	0.9
1568.5	0.892
1576.9	0.886
1585.31	0.81
1593.71	0.747
1602.12	0.773
1610.53	0.831
1618.93	0.859
1627.34	0.861
1635.74	0.858
1644.15	0.861
1652.56	0.865
1660.96	0.874
1669.37	0.88
1677.77	0.877
1686.18	0.871
1694.59	0.885
1702.99	0.891
1711.4	0.895
1719.8	0.894
1728.21	0.898
1736.62	0.895
1745.02	0.891
1753.43	0.886
1761.83	0.873
1770.24	0.859
1778.65	0.867
1787.05	0.886
1795.46	0.888
1803.86	0.867
1812.27	0.856
1820.68	0.861
1829.08	0.871
1837.49	0.88
1845.89	0.883
1854.3	0.886
1862.71	0.886
1871.11	0.877
1879.52	0.865
1887.92	0.852
1896.33	0.825
1904.74	0.853
1913.14	0.867
1921.55	0.864
1929.95	0.87
1938.36	0.874
1946.77	0.868
1955.17	0.861
1963.58	0.838
1971.98	0.828
1980.39	0.841
1988.8	0.847
1997.2	0.849
2005.61	0.854
2014.01	0.8639
2022.42	0.871
2030.83	0.874
2039.23	0.874
2047.64	0.8733
2056.04	0.87
2064.45	0.87
2072.86	0.868
2081.26	0.867
2089.67	0.867
2098.07	0.865
2106.48	0.865
2114.89	0.865
2123.29	0.865
2131.7	0.8648
2140.1	0.8632
2148.51	0.8614
2156.92	0.861
2165.32	0.8589
2173.73	0.8573
2182.13	0.8554
2190.54	0.855
2198.95	0.855
2207.35	0.855
2215.76	0.855
2224.16	0.853
2232.57	0.852
2240.98	0.849
2249.38	0.8423
2257.79	0.8372
2266.19	0.835
2274.6	0.837
2283.01	0.8391
2291.41	0.841
2299.82	0.841
2308.22	0.8407
2316.63	0.8359
2325.04	0.8287
2333.44	0.825
2341.85	0.8185
2350.25	0.8165
2358.66	0.8145
2367.06	0.814
2375.47	0.8163
2383.88	0.819
2392.28	0.8222
2400.69	0.825
2409.09	0.826
2417.5	0.826
2425.91	0.823
2434.31	0.822
2442.72	0.8186
2451.12	0.817
2459.53	0.817
2467.94	0.817
2476.34	0.816
2484.75	0.814
2493.15	0.814
2501.56	0.8131
2509.97	0.8079
2518.37	0.807
2526.78	0.807
2535.18	0.807
2543.59	0.805
2552	0.804
2560.4	0.8028
2568.81	0.802
2577.21	0.8009
2585.62	0.7993
2594.03	0.798
2602.43	0.797
2610.84	0.795
2619.24	0.7947
2627.65	0.794
2636.06	0.7924
2644.46	0.7919
2652.87	0.791
2661.27	0.7899
2669.68	0.789
2678.09	0.788
2686.49	0.7874
2694.9	0.786
2703.3	0.785
2711.71	0.783
2720.12	0.782
2728.52	0.781
2736.93	0.7793
2745.33	0.777
2753.74	0.777
2762.15	0.7765
2770.55	0.774
2778.96	0.7711
2787.36	0.768
2795.77	0.7566
2804.18	0.755
2812.58	0.7531
2820.99	0.752
2829.39	0.7511
2837.8	0.75
2846.21	0.7432
2854.61	0.734
2863.02	0.7243
2871.42	0.7177
2879.83	0.717
2888.24	0.716
2896.64	0.7118
2905.05	0.7061
2913.45	0.6947
2921.86	0.6826
2930.27	0.6794
2938.67	0.6965
2947.08	0.7148
2955.48	0.7221
2963.89	0.7227
2972.3	0.7178
2980.7	0.7135
2989.11	0.7075
2997.51	0.6931
3005.92	0.6854
3014.33	0.6675
3022.73	0.6372
3031.14	0.6067
3039.54	0.5929
3047.95	0.5948
3056.36	0.6019
3064.76	0.5953
3073.17	0.5906
3081.57	0.6187
3089.98	0.6443
3098.39	0.6641
3106.79	0.68
3115.2	0.6925
3123.6	0.702
3132.01	0.7107
3140.42	0.714
3148.82	0.714
3157.23	0.714
3165.63	0.7138
3174.04	0.7121
3182.45	0.7103
3190.85	0.7081
3199.26	0.707
3207.66	0.7037
3216.07	0.702
3224.48	0.7001
3232.88	0.6978
3241.29	0.6932
3249.69	0.6897
3258.1	0.6862
3266.51	0.6796
3274.91	0.6752
3283.32	0.673
3291.72	0.6712
3300.13	0.67
3308.54	0.668
3316.94	0.6658
3325.35	0.6614
3333.75	0.6547
3342.16	0.648
3350.57	0.64
3358.97	0.6325
3367.38	0.6214
3375.78	0.6127
3384.19	0.6063
3392.6	0.6024
3401	0.5968
3409.41	0.5895
3417.81	0.5808
3426.22	0.572
3434.63	0.562
3443.03	0.5613
3451.44	0.563
3459.84	0.564
3468.25	0.567
3476.66	0.5685
3485.06	0.5745
3493.47	0.5812
3501.87	0.583
3510.28	0.5852
3518.69	0.5894
3527.09	0.5947
3535.5	0.6
3543.9	0.6042
3552.31	0.6075
3560.72	0.6121
3569.12	0.6159
3577.53	0.6192
3585.93	0.6239
3594.34	0.628
3602.75	0.6319
3611.15	0.6342
3619.56	0.6363
3627.96	0.6407
3636.37	0.6439
3644.78	0.6473
3653.18	0.6508
3661.59	0.6543
3669.99	0.656
3678.4	0.6581
3686.81	0.661
3695.21	0.662
3703.62	0.664
3712.02	0.664
3720.43	0.664
3728.84	0.664
3737.24	0.664
3745.65	0.662
3754.05	0.661
3762.46	0.656
3770.87	0.655
3779.27	0.6581
3787.68	0.6643
3796.08	0.665
3804.49	0.665
3812.9	0.662
3821.3	0.6587
3829.71	0.657
3838.11	0.6552
3846.52	0.653
3854.93	0.652
3863.33	0.65
3871.74	0.65
3880.14	0.65
3888.55	0.65
3896.96	0.652
3905.36	0.653
3913.77	0.652
3922.17	0.6464
3930.58	0.643
3938.99	0.6488
3947.39	0.653
3955.8	0.6546
3964.2	0.6496
3972.61	0.644
3981.02	0.6382
3989.42	0.6367
