Infrared Spectrum: L-SERINE, METHYL ESTER, HYDROCHLORIDE
Formula: C4 H10 Cl N O3
State: SOLID (SPLIT MULL)
Class: COBLENTZ III
Instrument: DOW KBr FOREPRISM-GRATING
Instrument parameters: GRATING BLAZED AT 3.5, 12.0, 20.0 MICRONS AND CHANGED AT 5.0, 7.5, 14.9 MICRONS
Sampling: TRANSMISSION
Resolution: 4
Origin: DOW CHEMICAL COMPANY
1/CM	TRANSMITTANCE
379.869	1.052
388.622	1.052
397.374	1.052
406.127	1.046
414.88	1.042
423.633	1.035
432.385	1.028
441.138	1.02
449.891	1.005
458.644	0.953
467.396	0.832
476.149	0.839
484.902	0.914
493.655	0.918
502.407	0.9
511.16	0.876
519.913	0.836
528.665	0.786
537.418	0.749
546.171	0.709
554.924	0.616
563.676	0.529
572.429	0.473
581.182	0.409
589.935	0.544
598.687	0.698
607.44	0.779
616.193	0.8
624.945	0.872
633.698	0.914
642.451	0.931
651.204	0.943
659.956	0.949
668.709	0.96
677.462	0.965
686.215	0.966
694.967	0.965
703.72	0.946
712.473	0.896
721.226	0.777
729.978	0.845
738.731	0.891
747.484	0.925
756.236	0.942
764.989	0.942
773.742	0.94
782.495	0.935
791.247	0.891
800	0.83
808.753	0.961
817.506	0.958
826.258	0.949
835.011	0.921
843.764	0.785
852.516	0.914
861.269	0.922
870.022	0.929
878.775	0.914
887.527	0.867
896.28	0.707
905.033	0.678
913.786	0.884
922.538	0.877
931.291	0.855
940.044	0.828
948.797	0.786
957.549	0.687
966.302	0.37
975.055	0.539
983.807	0.639
992.56	0.795
1001.31	0.76
1010.07	0.709
1018.82	0.609
1027.57	0.394
1036.32	0.129
1045.08	0.177
1053.83	0.568
1062.58	0.646
1071.33	0.628
1080.09	0.547
1088.84	0.381
1097.59	0.189
1106.35	0.572
1115.1	0.592
1123.85	0.502
1132.6	0.491
1141.36	0.603
1150.11	0.561
1158.86	0.385
1167.61	0.585
1176.37	0.66
1185.12	0.607
1193.87	0.629
1202.63	0.592
1211.38	0.51
1220.13	0.398
1228.88	0.279
1237.64	0.158
1246.39	0.096
1255.14	0.083
1263.89	0.122
1272.65	0.294
1281.4	0.442
1290.15	0.463
1298.91	0.25
1307.66	0.488
1316.41	0.627
1325.16	0.707
1333.92	0.69
1342.67	0.524
1351.42	0.667
1360.17	0.768
1368.93	0.742
1377.68	0.669
1386.43	0.599
1395.19	0.784
1403.94	0.79
1412.69	0.764
1421.44	0.724
1430.2	0.484
1438.95	0.584
1447.7	0.459
1456.45	0.649
1465.21	0.66
1473.96	0.458
1482.71	0.751
1491.47	0.707
1500.22	0.548
1508.97	0.324
1517.72	0.273
1526.48	0.742
1535.23	0.859
1543.98	0.87
1552.73	0.863
1561.49	0.826
1570.24	0.763
1578.99	0.591
1587.75	0.603
1596.5	0.438
1605.25	0.801
1614	0.892
1622.76	0.896
1631.51	0.894
1640.26	0.888
1649.02	0.883
1657.77	0.873
1666.52	0.861
1675.27	0.845
1684.03	0.819
1692.78	0.786
1701.53	0.738
1710.28	0.705
1719.04	0.606
1727.79	0.437
1736.54	0.232
1745.3	0.152
1754.05	0.239
1762.8	0.734
1771.55	0.924
1780.31	0.965
1789.06	0.966
1797.81	0.955
1806.56	0.953
1815.32	0.961
1824.07	0.968
1832.82	0.972
1841.58	0.964
1850.33	0.957
1859.08	0.943
1867.83	0.931
1876.59	0.916
1885.34	0.907
1894.09	0.9
1902.84	0.881
1911.6	0.858
1920.35	0.839
1929.1	0.834
1937.86	0.848
1946.61	0.874
1955.36	0.895
1964.11	0.909
1972.87	0.917
1981.62	0.932
1990.37	0.933
1999.12	0.921
2007.88	0.9135
2016.63	0.9095
2025.38	0.905
2034.14	0.8985
2042.89	0.8945
2051.64	0.8915
2060.39	0.8875
2069.15	0.8773
2077.9	0.8696
2086.65	0.8639
2095.4	0.8709
2104.16	0.8711
2112.91	0.8666
2121.66	0.8603
2130.42	0.8528
2139.17	0.8446
2147.92	0.8434
2156.67	0.851
2165.43	0.851
2174.18	0.8422
2182.93	0.834
2191.68	0.8286
2200.44	0.823
2209.19	0.8267
2217.94	0.8313
2226.7	0.8226
2235.45	0.8183
2244.2	0.8147
2252.95	0.806
2261.71	0.795
2270.46	0.7943
2279.21	0.7887
2287.96	0.7841
2296.72	0.779
2305.47	0.773
2314.22	0.7614
2322.98	0.759
2331.73	0.759
2340.48	0.7614
2349.23	0.7552
2357.99	0.749
2366.74	0.752
2375.49	0.749
2384.24	0.7447
2393	0.7417
2401.75	0.7378
2410.5	0.7323
2419.26	0.7255
2428.01	0.724
2436.76	0.724
2445.51	0.72
2454.27	0.7126
2463.02	0.7044
2471.77	0.684
2480.52	0.6704
2489.28	0.6636
2498.03	0.6716
2506.78	0.687
2515.54	0.6777
2524.29	0.6645
2533.04	0.645
2541.79	0.6032
2550.55	0.5502
2559.3	0.5811
2568.05	0.618
2576.8	0.6056
2585.56	0.5796
2594.31	0.543
2603.06	0.539
2611.82	0.5286
2620.57	0.5075
2629.32	0.4779
2638.07	0.4888
2646.83	0.5057
2655.58	0.4623
2664.33	0.4749
2673.08	0.5377
2681.84	0.548
2690.59	0.5369
2699.34	0.5138
2708.1	0.4918
2716.85	0.4799
2725.6	0.462
2734.35	0.459
2743.11	0.4579
2751.86	0.46
2760.61	0.478
2769.36	0.471
2778.12	0.4519
2786.87	0.423
2795.62	0.389
2804.38	0.376
2813.13	0.359
2821.88	0.3381
2830.63	0.3172
2839.39	0.2862
2848.14	0.2681
2856.89	0.2481
2865.64	0.2252
2874.4	0.2171
2883.15	0.2062
2891.9	0.1962
2900.66	0.1841
2909.41	0.17
2918.16	0.1699
2926.91	0.1758
2935.67	0.1846
2944.42	0.1948
2953.17	0.2085
2961.92	0.2237
2970.68	0.2289
2979.43	0.2356
2988.18	0.2496
2996.94	0.2606
3005.69	0.2799
3014.44	0.2869
3023.19	0.284
3031.95	0.2838
3040.7	0.2937
3049.45	0.3162
3058.2	0.3278
3066.96	0.3337
3075.71	0.3406
3084.46	0.3533
3093.22	0.3773
3101.97	0.4482
3110.72	0.4906
3119.47	0.5281
3128.23	0.5713
3136.98	0.6163
3145.73	0.6398
3154.48	0.6382
3163.24	0.6491
3171.99	0.6766
3180.74	0.6908
3189.5	0.689
3198.25	0.699
3207	0.713
3215.75	0.718
3224.51	0.715
3233.26	0.712
3242.01	0.709
3250.76	0.7021
3259.52	0.6832
3268.27	0.6442
3277.02	0.6078
3285.78	0.5645
3294.53	0.5202
3303.28	0.4531
3312.03	0.3922
3320.79	0.3276
3329.54	0.2607
3338.29	0.2121
3347.04	0.1764
3355.8	0.2092
3364.55	0.2875
3373.3	0.402
3382.06	0.4953
3390.81	0.549
3399.56	0.6073
3408.31	0.6906
3417.07	0.7349
3425.82	0.7676
3434.57	0.793
3443.32	0.8134
3452.08	0.8313
3460.83	0.8517
3469.58	0.856
3478.34	0.851
3487.09	0.8687
3495.84	0.8916
3504.59	0.9007
3513.35	0.907
3522.1	0.91
3530.85	0.913
3539.6	0.914
3548.36	0.916
3557.11	0.917
3565.86	0.917
3574.62	0.918
3583.37	0.918
3592.12	0.92
3600.87	0.922
3609.63	0.921
3618.38	0.921
3627.13	0.922
3635.89	0.922
3644.64	0.922
3653.39	0.921
3662.14	0.92
3670.9	0.9175
3679.65	0.917
3688.4	0.914
3697.15	0.913
3705.91	0.91
3714.66	0.9066
3723.41	0.902
3732.17	0.8986
3740.92	0.8956
3749.67	0.892
3758.42	0.891
3767.18	0.889
3775.93	0.8862
3784.68	0.8819
3793.43	0.878
