Infrared Spectrum: ACETAMIDE, N-2-CYCLOHEXYL-4-METHYLPHENYL-
Formula: C15 H21 N O
State: SOLID (NUJOL MULL)
Class: COBLENTZ III
Instrument: BECKMAN IR-4 (HYBRID PRISM-GRATING)
Instrument parameters: NaCl PRISM
Sampling: TRANSMISSION
Resolution: 2
Origin: MONSANTO (J. FREEMAN)
MICROMETERS	TRANSMITTANCE
0.994	0.768
1.03689	0.7729
1.07978	0.7817
1.12268	0.7918
1.16557	0.8009
1.20846	0.8105
1.25135	0.8177
1.29424	0.8256
1.33713	0.833
1.38003	0.84
1.42292	0.844
1.46581	0.848
1.5087	0.853
1.55159	0.855
1.59448	0.854
1.63738	0.861
1.68027	0.8665
1.72316	0.872
1.76605	0.876
1.80894	0.881
1.85183	0.884
1.89473	0.888
1.93762	0.8918
1.98051	0.8929
2.0234	0.894
2.06629	0.897
2.10918	0.899
2.15208	0.903
2.19497	0.902
2.23786	0.8884
2.28075	0.8705
2.32364	0.8843
2.36653	0.8897
2.40943	0.8943
2.45232	0.9002
2.49521	0.9053
2.5381	0.909
2.58099	0.912
2.62388	0.914
2.66678	0.9151
2.70967	0.916
2.75256	0.914
2.79545	0.9073
2.83834	0.905
2.88123	0.905
2.92413	0.903
2.96702	0.8786
3.00991	0.7728
3.0528	0.3625
3.09569	0.4254
3.13858	0.6542
3.18148	0.7517
3.22437	0.7886
3.26726	0.6878
3.31015	0.612
3.35304	0.2107
3.39593	0.0379
3.43883	0.2011
3.48172	0.1541
3.52461	0.7079
3.5675	0.8155
3.61039	0.8707
3.65328	0.8767
3.69618	0.8812
3.73907	0.8817
3.78196	0.8916
3.82485	0.8985
3.86774	0.9056
3.91063	0.918
3.95353	0.92
3.99642	0.922
4.03931	0.9246
4.0822	0.93
4.12509	0.9297
4.16799	0.9244
4.21088	0.927
4.25377	0.928
4.29666	0.9302
4.33955	0.932
4.38244	0.932
4.42534	0.933
4.46823	0.9348
4.51112	0.937
4.55401	0.938
4.5969	0.939
4.63979	0.9362
4.68269	0.943
4.72558	0.943
4.76847	0.943
4.81136	0.943
4.85425	0.945
4.89714	0.943
4.94004	0.943
4.98293	0.947
5.02582	0.9434
5.06871	0.947
5.1116	0.947
5.15449	0.949
5.19739	0.946
5.24028	0.944
5.28317	0.94
5.32606	0.9433
5.36895	0.9452
5.41184	0.946
5.45474	0.946
5.49763	0.9442
5.54052	0.943
5.58341	0.943
5.6263	0.943
5.66919	0.9408
5.71209	0.939
5.75498	0.939
5.79787	0.9399
5.84076	0.9209
5.88365	0.8989
5.92654	0.8568
5.96944	0.6363
6.01233	0.1047
6.05522	0.2464
6.09811	0.5192
6.141	0.764
6.18389	0.7529
6.22679	0.7722
6.26968	0.8353
6.31257	0.8003
6.35546	0.8292
6.39835	0.8093
6.44124	0.7168
6.48414	0.4203
6.52703	0.2459
6.56992	0.2357
6.61281	0.3977
6.6557	0.5018
6.69859	0.5837
6.74149	0.6158
6.78438	0.5095
6.82727	0.3526
6.87016	0.348
6.91305	0.3716
6.95594	0.4986
6.99884	0.5945
7.04173	0.6683
7.08462	0.6905
7.12751	0.7043
7.1704	0.715
7.2133	0.66
7.25619	0.4207
7.29908	0.4098
7.34197	0.6208
7.38486	0.7492
7.42775	0.7508
7.47065	0.768
7.51354	0.78
7.55643	0.7471
7.59932	0.7399
7.64221	0.6925
7.6851	0.5046
7.728	0.5518
7.77089	0.7095
7.81378	0.7753
7.85667	0.8059
7.89956	0.7848
7.94245	0.8034
7.98535	0.8604
8.02824	0.8644
8.07113	0.869
8.11402	0.8785
8.15691	0.9006
8.1998	0.8965
8.2427	0.8942
8.28559	0.9103
8.32848	0.9235
8.37137	0.9304
8.41426	0.934
8.45715	0.9257
8.50005	0.9159
8.54294	0.933
8.58583	0.932
8.62872	0.9328
8.67161	0.9175
8.7145	0.9163
8.7574	0.9257
8.80029	0.9142
8.84318	0.9384
8.88607	0.9453
8.92896	0.95
8.97185	0.95
9.01475	0.95
9.05764	0.95
9.10053	0.9398
9.14342	0.945
9.18631	0.945
9.2292	0.943
9.2721	0.94
9.31499	0.939
9.35788	0.9403
9.40077	0.944
9.44366	0.9427
9.48655	0.937
9.52945	0.9298
9.57234	0.9115
9.61523	0.8993
9.65812	0.8563
9.70101	0.8599
9.7439	0.8974
9.7868	0.8979
9.82969	0.8629
9.87258	0.7883
9.91547	0.7871
9.95836	0.8656
10.0013	0.9017
10.0441	0.911
10.087	0.9087
10.1299	0.907
10.1728	0.9038
10.2157	0.8729
10.2586	0.7507
10.3015	0.8151
10.3444	0.9054
10.3873	0.9206
10.4302	0.9304
10.4731	0.9323
10.516	0.9328
10.5588	0.9161
10.6017	0.8658
10.6446	0.8925
10.6875	0.9178
10.7304	0.9058
10.7733	0.9115
10.8162	0.9283
10.8591	0.938
10.902	0.937
10.9449	0.9396
10.9878	0.946
11.0307	0.946
11.0735	0.946
11.1164	0.9448
11.1593	0.9372
11.2022	0.9022
11.2451	0.8936
11.288	0.9178
11.3309	0.935
11.3738	0.9376
11.4167	0.9233
11.4596	0.8556
11.5025	0.8594
11.5454	0.9348
11.5882	0.949
11.6311	0.951
11.674	0.9407
11.7169	0.9402
11.7598	0.9452
11.8027	0.9467
11.8456	0.9397
11.8885	0.9254
11.9314	0.8954
11.9743	0.9096
12.0172	0.9307
12.0601	0.939
12.1029	0.941
12.1458	0.9398
12.1887	0.9278
12.2316	0.9082
12.2745	0.8732
12.3174	0.6731
12.3603	0.5312
12.4032	0.6312
12.4461	0.7862
12.489	0.763
12.5319	0.6452
12.5748	0.7492
12.6176	0.8652
12.6605	0.9125
12.7034	0.9307
12.7463	0.943
12.7892	0.945
12.8321	0.945
12.875	0.944
12.9179	0.9425
12.9608	0.94
13.0037	0.939
13.0466	0.937
13.0895	0.934
13.1323	0.933
13.1752	0.9299
13.2181	0.92
13.261	0.9145
13.3039	0.9038
13.3468	0.9062
13.3897	0.911
13.4326	0.906
13.4755	0.8967
13.5184	0.888
13.5613	0.8818
13.6042	0.8747
13.647	0.8659
13.6899	0.8599
13.7328	0.8488
13.7757	0.8395
13.8186	0.8336
13.8615	0.822
13.9044	0.8138
13.9473	0.812
13.9902	0.8172
14.0331	0.8205
14.076	0.8263
14.1189	0.831
14.1617	0.8384
14.2046	0.8434
14.2475	0.8532
14.2904	0.86
14.3333	0.8651
14.3762	0.8712
14.4191	0.8762
14.462	0.8872
14.5049	0.8892
14.5478	0.9001
14.5907	0.904
14.6336	0.904
14.6764	0.9074
14.7193	0.9113
14.7622	0.912
14.8051	0.912
14.848	0.911
14.8909	0.914
14.9338	0.9113
14.9767	0.916
15.0196	0.917
15.0625	0.917
15.1054	0.9148
15.1483	0.9112
15.1911	0.912
15.234	0.9087
15.2769	0.9007
15.3198	0.893
15.3627	0.8817
15.4056	0.88
15.4485	0.877
15.4914	0.8716
15.5343	0.8658
15.5772	0.864
15.6201	0.8693
15.663	0.8742
15.7058	0.876
15.7487	0.8804
15.7916	0.8882
15.8345	0.893
15.8774	0.8991
15.9203	0.9032
15.9632	0.904
