Infrared Spectrum: GUANIDINE, CHROMATE
Formula: C2 H12 Cr N6 O4
State: SOLID (SPLIT MULL), FLUOROLUBE FOR 3800-1330 CM^-^1, NUJOL FOR 1330-400 CM^-^1
Class: COBLENTZ III
Instrument: BECKMAN IR-9 (GRATING)
Instrument parameters: ORDER CHANGES: 670, 1200, 2000 CM^-^1
Sampling: TRANSMISSION
Resolution: 2
Origin: DOW CHEMICAL COMPANY
1/CM	TRANSMITTANCE
402	0.5248
411	0.5292
420	0.537
429	0.5396
438	0.5406
447	0.5649
456	0.5809
465	0.5667
474	0.5374
483	0.5015
492	0.4537
501	0.398
510	0.3013
519	0.2673
528	0.2612
537	0.2347
546	0.2393
555	0.2942
564	0.3205
573	0.365
582	0.3959
591	0.4192
600	0.4276
609	0.4207
618	0.3922
627	0.3564
636	0.3216
645	0.2852
654	0.2578
663	0.2495
672	0.2551
681	0.2796
690	0.3182
699	0.3696
708	0.421
717	0.4702
726	0.5018
735	0.5737
744	0.5253
753	0.5047
762	0.5603
771	0.6154
780	0.6574
789	0.6868
798	0.6901
807	0.6758
816	0.6199
825	0.5195
834	0.2737
843	0.2591
852	0.0928
861	0.0401
870	0.0577
879	0.0362
888	0.0417
897	0.0592
906	0.0634
915	0.36
924	0.6093
933	0.639
942	0.6293
951	0.626
960	0.6775
969	0.8033
978	0.8409
987	0.8518
996	0.8539
1005	0.8433
1014	0.8182
1023	0.8421
1032	0.839
1041	0.8283
1050	0.8161
1059	0.8034
1068	0.7887
1077	0.7754
1086	0.7641
1095	0.7528
1104	0.7415
1113	0.7315
1122	0.7207
1131	0.7156
1140	0.705
1149	0.6882
1158	0.6867
1167	0.7118
1176	0.7328
1185	0.7508
1194	0.7708
1203	0.7908
1212	0.7955
1221	0.7969
1230	0.7967
1239	0.8034
1248	0.8051
1257	0.8057
1266	0.8067
1275	0.8071
1284	0.8121
1293	0.8118
1302	0.8071
1311	0.8065
1320	0.8143
1329	0.6837
1338	0.5579
1347	0.5486
1356	0.5998
1365	0.6293
1374	0.6426
1383	0.6501
1392	0.6553
1401	0.6614
1410	0.664
1419	0.6651
1428	0.6671
1437	0.6719
1446	0.6757
1455	0.6768
1464	0.6755
1473	0.6726
1482	0.6674
1491	0.6583
1500	0.6414
1509	0.6229
1518	0.5904
1527	0.5497
1536	0.5001
1545	0.4384
1554	0.3898
1563	0.3718
1572	0.3834
1581	0.4731
1590	0.4969
1599	0.4673
1608	0.4108
1617	0.2823
1626	0.1889
1635	0.0717
1644	0.0437
1653	0.0433
1662	0.0743
1671	0.0959
1680	0.1338
1689	0.1792
1698	0.233
1707	0.4342
1716	0.6554
1725	0.746
1734	0.7965
1743	0.8158
1752	0.8323
1761	0.8425
1770	0.8464
1779	0.8475
1788	0.8481
1797	0.8478
1806	0.8478
1815	0.8475
1824	0.8491
1833	0.8493
1842	0.8488
1851	0.8481
1860	0.8465
1869	0.8448
1878	0.8432
1887	0.841
1896	0.8385
1905	0.8357
1914	0.8328
1923	0.8295
1932	0.8258
1941	0.822
1950	0.818
1959	0.8139
1968	0.8093
1977	0.8045
1986	0.7986
1995	0.793
2004	0.7892
2013	0.7868
2022	0.7847
2031	0.7821
2040	0.7798
2049	0.7771
2058	0.7741
2067	0.77
2076	0.7641
2085	0.7581
2094	0.7518
2103	0.7441
2112	0.738
2121	0.7322
2130	0.7265
2139	0.72
2148	0.7125
2157	0.7048
2166	0.6956
2175	0.6856
2184	0.6747
2193	0.6672
2202	0.6622
2211	0.6617
2220	0.6614
2229	0.6611
2238	0.6593
2247	0.6553
2256	0.6508
2265	0.6458
2274	0.6419
2283	0.6388
2292	0.6357
2301	0.6335
2310	0.6314
2319	0.6293
2328	0.6291
2337	0.629
2346	0.6289
2355	0.63
2364	0.6308
2373	0.6312
2382	0.6219
2391	0.6135
2400	0.6094
2409	0.6058
2418	0.603
2427	0.6004
2436	0.5975
2445	0.5942
2454	0.591
2463	0.5869
2472	0.5828
2481	0.5786
2490	0.5746
2499	0.5705
2508	0.5666
2517	0.5624
2526	0.5576
2535	0.5527
2544	0.5479
2553	0.5425
2562	0.537
2571	0.5312
2580	0.5239
2589	0.5166
2598	0.5082
2607	0.499
2616	0.4898
2625	0.4812
2634	0.4728
2643	0.4643
2652	0.4546
2661	0.4446
2670	0.4346
2679	0.4243
2688	0.4138
2697	0.4044
2706	0.3956
2715	0.3896
2724	0.3852
2733	0.382
2742	0.3793
2751	0.3749
2760	0.3671
2769	0.3564
2778	0.3448
2787	0.3356
2796	0.3293
2805	0.3238
2814	0.3214
2823	0.3209
2832	0.32
2841	0.3191
2850	0.317
2859	0.3089
2868	0.3001
2877	0.2913
2886	0.2831
2895	0.275
2904	0.2653
2913	0.2542
2922	0.2432
2931	0.2325
2940	0.2218
2949	0.2097
2958	0.1973
2967	0.1839
2976	0.1703
2985	0.1578
2994	0.1463
3003	0.1348
3012	0.1207
3021	0.1052
3030	0.0891
3039	0.0751
3048	0.0645
3057	0.0552
3066	0.0491
3075	0.0432
3084	0.0386
3093	0.0349
3102	0.0333
3111	0.0325
3120	0.0327
3129	0.0339
3138	0.0358
3147	0.0376
3156	0.0397
3165	0.0427
3174	0.046
3183	0.0497
3192	0.0536
3201	0.0572
3210	0.0608
3219	0.0625
3228	0.0639
3237	0.0651
3246	0.0647
3255	0.0641
3264	0.0631
3273	0.0617
3282	0.0596
3291	0.0568
3300	0.0537
3309	0.0491
3318	0.0439
3327	0.0401
3336	0.0372
3345	0.0376
3354	0.0439
3363	0.0542
3372	0.0724
3381	0.1101
3390	0.1598
3399	0.1839
3408	0.2084
3417	0.2237
3426	0.2315
3435	0.2279
3444	0.1934
3453	0.1521
3462	0.1382
3471	0.2694
3480	0.4204
3489	0.639
3498	0.6865
3507	0.7235
3516	0.7508
3525	0.7708
3534	0.7801
3543	0.7828
3552	0.781
3561	0.7771
3570	0.771
3579	0.7617
3588	0.7543
3597	0.7561
3606	0.7528
3615	0.7458
3624	0.7368
3633	0.7295
3642	0.7222
3651	0.715
3660	0.7075
3669	0.7
3678	0.6925
3687	0.6858
3696	0.6796
3705	0.6735
3714	0.6672
3723	0.6611
3732	0.6551
3741	0.6491
3750	0.6421
3759	0.6352
3768	0.6286
3777	0.6224
3786	0.6162
3795	0.61
