Infrared Spectrum: ALUMINUM SILICATE
Formula: O7 Al2 Si2  * 2 H2 O
State: SOLID (0.5 mg / 300 mg CsI DISC)
Class: COBLENTZ III
Instrument: BECKMAN IR-12 (GRATING)
Instrument parameters: GRATING BLAZED AT 3330, 1330, 445, 220 CM^-^1
Sampling: TRANSMISSION
Resolution: 4
Origin: DESOTO CHEMICAL COATINGS, INC.
1/CM	TRANSMITTANCE
198.669	0.674
209.32	0.68
219.971	0.689
230.622	0.7
241.273	0.706
251.924	0.709
262.574	0.712
273.225	0.69
283.876	0.645
294.527	0.639
305.178	0.653
315.829	0.661
326.48	0.646
337.131	0.602
347.782	0.508
358.433	0.519
369.084	0.572
379.735	0.59
390.385	0.613
401.036	0.615
411.687	0.531
422.338	0.471
432.989	0.41
443.64	0.522
454.291	0.564
464.942	0.342
475.593	0.2948
486.244	0.5519
496.895	0.635
507.545	0.639
518.196	0.552
528.847	0.2813
539.498	0.202
550.149	0.307
560.8	0.425
571.451	0.511
582.102	0.5949
592.753	0.641
603.404	0.67
614.055	0.701
624.706	0.734
635.356	0.749
646.007	0.748
656.658	0.737
667.309	0.729
677.96	0.713
688.611	0.68
699.262	0.621
709.913	0.6579
720.564	0.775
731.215	0.829
741.866	0.832
752.516	0.797
763.167	0.779
773.818	0.807
784.469	0.832
795.12	0.824
805.771	0.831
816.422	0.879
827.073	0.9
837.724	0.908
848.375	0.908
859.026	0.899
869.677	0.886
880.327	0.862
890.978	0.808
901.629	0.7001
912.28	0.4021
922.931	0.4769
933.582	0.575
944.233	0.602
954.884	0.7039
965.535	0.751
976.186	0.759
986.837	0.69
997.487	0.4089
1008.14	0.1191
1018.79	0.1979
1029.44	0.133
1040.09	0.137
1050.74	0.289
1061.39	0.4349
1072.04	0.48
1082.69	0.445
1093.35	0.334
1104	0.261
1114.65	0.305
1125.3	0.5229
1135.95	0.673
1146.6	0.753
1157.25	0.8
1167.9	0.831
1178.55	0.856
1189.2	0.88
1199.85	0.899
1210.51	0.908
1221.16	0.922
1231.81	0.927
1242.46	0.937
1253.11	0.942
1263.76	0.95
1274.41	0.953
1285.06	0.957
1295.71	0.959
1306.36	0.961
1317.01	0.967
1327.67	0.965
1338.32	0.963
1348.97	0.963
1359.62	0.965
1370.27	0.966
1380.92	0.965
1391.57	0.966
1402.22	0.967
1412.87	0.966
1423.52	0.966
1434.17	0.967
1444.83	0.967
1455.48	0.967
1466.13	0.967
1476.78	0.97
1487.43	0.97
1498.08	0.97
1508.73	0.97
1519.38	0.971
1530.03	0.969
1540.68	0.97
1551.33	0.967
1561.99	0.966
1572.64	0.962
1583.29	0.955
1593.94	0.941
1604.59	0.918
1615.24	0.9
1625.89	0.9
1636.54	0.91
1647.19	0.922
1657.84	0.93
1668.5	0.938
1679.15	0.946
1689.8	0.954
1700.45	0.955
1711.1	0.959
1721.75	0.959
1732.4	0.963
1743.05	0.965
1753.7	0.967
1764.35	0.969
1775	0.967
1785.66	0.969
1796.31	0.967
1806.96	0.966
1817.61	0.966
1828.26	0.966
1838.91	0.965
1849.56	0.969
1860.21	0.967
1870.86	0.966
1881.51	0.967
1892.16	0.966
1902.82	0.966
1913.47	0.963
1924.12	0.965
1934.77	0.961
1945.42	0.962
1956.07	0.963
1966.72	0.963
1977.37	0.966
1988.02	0.963
1998.67	0.967
2009.32	0.964
2019.98	0.9575
2030.63	0.955
2041.28	0.954
2051.93	0.953
2062.58	0.953
2073.23	0.954
2083.88	0.9542
2094.53	0.9544
2105.18	0.9518
2115.83	0.951
2126.48	0.9528
2137.14	0.955
2147.79	0.9557
2158.44	0.9517
2169.09	0.953
2179.74	0.955
2190.39	0.9556
2201.04	0.955
2211.69	0.955
2222.34	0.955
2232.99	0.955
2243.64	0.953
2254.3	0.954
2264.95	0.9515
2275.6	0.953
2286.25	0.954
2296.9	0.954
2307.55	0.955
2318.2	0.955
2328.85	0.9514
2339.5	0.949
2350.15	0.9433
2360.8	0.942
2371.46	0.939
2382.11	0.938
2392.76	0.9467
2403.41	0.949
2414.06	0.949
2424.71	0.949
2435.36	0.949
2446.01	0.9472
2456.66	0.947
2467.31	0.946
2477.96	0.946
2488.62	0.946
2499.27	0.946
2509.92	0.946
2520.57	0.946
2531.22	0.946
2541.87	0.946
2552.52	0.946
2563.17	0.945
2573.82	0.943
2584.47	0.9421
2595.12	0.942
2605.78	0.941
2616.43	0.942
2627.08	0.9461
2637.73	0.9447
2648.38	0.941
2659.03	0.9411
2669.68	0.941
2680.33	0.939
2690.98	0.939
2701.63	0.9388
2712.28	0.938
2722.94	0.9382
2733.59	0.935
2744.24	0.939
2754.89	0.937
2765.54	0.935
2776.19	0.935
2786.84	0.9342
2797.49	0.9373
2808.14	0.9347
2818.79	0.931
2829.44	0.9324
2840.1	0.93
2850.75	0.9257
2861.4	0.923
2872.05	0.923
2882.7	0.922
2893.35	0.922
2904	0.9216
2914.65	0.919
2925.3	0.9176
2935.95	0.912
2946.6	0.9144
2957.26	0.917
2967.91	0.917
2978.56	0.9158
2989.21	0.918
2999.86	0.9199
3010.51	0.915
3021.16	0.918
3031.81	0.9131
3042.46	0.911
3053.11	0.913
3063.76	0.9115
3074.42	0.91
3085.07	0.908
3095.72	0.908
3106.37	0.904
3117.02	0.903
3127.67	0.9024
3138.32	0.8984
3148.97	0.898
3159.62	0.8944
3170.27	0.891
3180.92	0.8888
3191.58	0.887
3202.23	0.8834
3212.88	0.8784
3223.53	0.8743
3234.18	0.872
3244.83	0.8687
3255.48	0.866
3266.13	0.86
3276.78	0.8566
3287.43	0.851
3298.08	0.8433
3308.74	0.8393
3319.39	0.829
3330.04	0.8175
3340.69	0.808
3351.34	0.7944
3361.99	0.7823
3372.64	0.7694
3383.29	0.7566
3393.94	0.7416
3404.59	0.7327
3415.24	0.7215
3425.9	0.7135
3436.55	0.7023
3447.2	0.6971
3457.85	0.6943
3468.5	0.693
3479.15	0.693
3489.8	0.694
3500.45	0.6969
3511.1	0.7009
3521.75	0.7079
3532.4	0.7119
3543.06	0.718
3553.71	0.726
3564.36	0.7359
3575.01	0.742
3585.66	0.749
3596.31	0.753
3606.96	0.748
3617.61	0.5612
3628.26	0.6475
3638.91	0.693
3649.56	0.6796
3660.22	0.6594
3670.87	0.67
3681.52	0.6435
3692.17	0.388
3702.82	0.4783
3713.47	0.7273
3724.12	0.8252
3734.77	0.8528
3745.42	0.8716
3756.07	0.8823
3766.72	0.8883
3777.38	0.892
3788.03	0.8942
3798.68	0.8952
3809.33	0.8964
3819.98	0.899
3830.63	0.899
3841.28	0.899
3851.93	0.899
3862.58	0.899
3873.23	0.899
3883.88	0.899
3894.54	0.9
3905.19	0.9
3915.84	0.9
3926.49	0.9
3937.14	0.9
3947.79	0.9
3958.44	0.9
3969.09	0.9
3979.74	0.9
