Infrared Spectrum: 3',3'',5',5''-TETRABROMOPHENOL SULFONE PHTHALEIN, SODIUM SALT
Formula: C19 H9 Br4 O5 S Na
State: SOLID (MULL)
Class: COBLENTZ
Instrument: Not specified, most likely a prism, grating, or hybrid spectrometer.
Sampling: TRANSMISSION
Resolution: 4
Origin: WYANDOTTE CHEMICALS CORP., WYANDOTTE, MICHIGAN, USA
MICROMETERS	TRANSMITTANCE
2.007	0.245
2.04594	0.249
2.08487	0.257
2.12381	0.268
2.16274	0.279
2.20168	0.283
2.24062	0.284
2.27955	0.286
2.31849	0.294
2.35742	0.305
2.39636	0.305
2.4353	0.32
2.47423	0.334
2.51317	0.339
2.5521	0.352
2.59104	0.37
2.62997	0.385
2.66891	0.417
2.70785	0.42
2.74678	0.368
2.78572	0.33
2.82465	0.281
2.86359	0.252
2.90253	0.229
2.94146	0.207
2.9804	0.199
3.01933	0.19
3.05827	0.2
3.09721	0.213
3.13614	0.218
3.17508	0.223
3.21401	0.245
3.25295	0.26
3.29189	0.241
3.33082	0.226
3.36976	0.105
3.40869	0.042
3.44763	0.045
3.48657	0.043
3.5255	0.051
3.56444	0.129
3.60337	0.42
3.64231	0.498
3.68125	0.509
3.72018	0.501
3.75912	0.522
3.79805	0.525
3.83699	0.545
3.87592	0.556
3.91486	0.58
3.9538	0.6
3.99273	0.613
4.03167	0.634
4.0706	0.639
4.10954	0.642
4.14848	0.647
4.18741	0.656
4.22635	0.66
4.26528	0.666
4.30422	0.674
4.34316	0.694
4.38209	0.705
4.42103	0.724
4.45996	0.728
4.4989	0.731
4.53784	0.739
4.57677	0.745
4.61571	0.757
4.65464	0.758
4.69358	0.757
4.73252	0.77
4.77145	0.781
4.81039	0.781
4.84932	0.797
4.88826	0.809
4.92719	0.812
4.96613	0.82
5.00507	0.823
5.044	0.834
5.08294	0.843
5.12187	0.852
5.16081	0.855
5.19975	0.86
5.23868	0.87
5.27762	0.878
5.31655	0.883
5.35549	0.886
5.39443	0.885
5.43336	0.904
5.4723	0.906
5.51123	0.899
5.55017	0.914
5.58911	0.909
5.62804	0.932
5.66698	0.92
5.70591	0.922
5.74485	0.923
5.78379	0.949
5.82272	0.944
5.86166	0.93
5.90059	0.948
5.93953	0.927
5.97847	0.902
6.0174	0.822
6.05634	0.656
6.09527	0.446
6.13421	0.223
6.17314	0.239
6.21208	0.288
6.25102	0.284
6.28995	0.449
6.32889	0.202
6.36782	0.365
6.40676	0.584
6.4457	0.601
6.48463	0.493
6.52357	0.42
6.5625	0.394
6.60144	0.381
6.64038	0.432
6.67931	0.341
6.71825	0.362
6.75718	0.173
6.79612	0.067
6.83506	0.051
6.87399	0.085
6.91293	0.161
6.95186	0.32
6.9908	0.495
7.02974	0.616
7.06867	0.647
7.10761	0.632
7.14654	0.559
7.18548	0.474
7.22442	0.297
7.26335	0.16
7.30229	0.325
7.34122	0.469
7.38016	0.608
7.41909	0.632
7.45803	0.616
7.49697	0.469
7.5359	0.233
7.57484	0.252
7.61377	0.137
7.65271	0.122
7.69165	0.186
7.73058	0.297
7.76952	0.302
7.80845	0.299
7.84739	0.441
7.88633	0.525
7.92526	0.5
7.9642	0.412
8.00313	0.309
8.04207	0.26
8.08101	0.207
8.11994	0.16
8.15888	0.148
8.19781	0.142
8.23675	0.145
8.27569	0.142
8.31462	0.132
8.35356	0.148
8.39249	0.184
8.43143	0.258
8.47036	0.317
8.5093	0.347
8.54824	0.354
8.58717	0.322
8.62611	0.286
8.66504	0.226
8.70398	0.187
8.74292	0.124
8.78185	0.152
8.82079	0.234
8.85972	0.288
8.89866	0.349
8.9376	0.414
8.97653	0.469
9.01547	0.524
9.0544	0.545
9.09334	0.483
9.13228	0.325
9.17121	0.31
9.21015	0.427
9.24908	0.537
9.28802	0.595
9.32696	0.632
9.36589	0.65
9.40483	0.677
9.44376	0.707
9.4827	0.716
9.52164	0.655
9.56057	0.503
9.59951	0.597
9.63844	0.627
9.67738	0.498
9.71631	0.21
9.75525	0.147
9.79419	0.276
9.83312	0.449
9.87206	0.601
9.91099	0.677
9.94993	0.724
9.98887	0.747
10.0278	0.771
10.0667	0.773
10.1057	0.766
10.1446	0.755
10.1835	0.72
10.2225	0.59
10.2614	0.42
10.3004	0.378
10.3393	0.412
10.3782	0.542
10.4172	0.613
10.4561	0.661
10.495	0.69
10.534	0.71
10.5729	0.718
10.6118	0.639
10.6508	0.441
10.6897	0.318
10.7286	0.485
10.7676	0.624
10.8065	0.677
10.8455	0.702
10.8844	0.711
10.9233	0.72
10.9623	0.76
11.0012	0.776
11.0401	0.771
11.0791	0.713
11.118	0.634
11.1569	0.686
11.1959	0.755
11.2348	0.792
11.2738	0.784
11.3127	0.742
11.3516	0.674
11.3906	0.676
11.4295	0.742
11.4684	0.805
11.5074	0.841
11.5463	0.864
11.5852	0.875
11.6242	0.877
11.6631	0.881
11.702	0.872
11.741	0.849
11.7799	0.755
11.8189	0.629
11.8578	0.694
11.8967	0.783
11.9357	0.828
11.9746	0.859
12.0135	0.888
12.0525	0.889
12.0914	0.886
12.1303	0.877
12.1693	0.849
12.2082	0.867
12.2472	0.883
12.2861	0.904
12.325	0.901
12.364	0.912
12.4029	0.919
12.4418	0.914
12.4808	0.92
12.5197	0.914
12.5586	0.912
12.5976	0.912
12.6365	0.92
12.6754	0.917
12.7144	0.911
12.7533	0.904
12.7923	0.902
12.8312	0.883
12.8701	0.857
12.9091	0.786
12.948	0.645
12.9869	0.55
13.0259	0.532
13.0648	0.524
13.1037	0.53
13.1427	0.622
13.1816	0.684
13.2205	0.707
13.2595	0.65
13.2984	0.556
13.3374	0.533
13.3763	0.506
13.4152	0.444
13.4542	0.402
13.4931	0.404
13.532	0.485
13.571	0.569
13.6099	0.634
13.6488	0.679
13.6878	0.705
13.7267	0.721
13.7657	0.724
13.8046	0.705
13.8435	0.658
13.8825	0.58
13.9214	0.516
13.9603	0.48
13.9993	0.459
14.0382	0.443
14.0771	0.49
14.1161	0.542
14.155	0.555
14.1939	0.537
14.2329	0.514
14.2718	0.512
14.3108	0.563
14.3497	0.605
14.3886	0.619
14.4276	0.597
14.4665	0.567
14.5054	0.584
14.5444	0.626
14.5833	0.681
14.6222	0.724
14.6612	0.752
14.7001	0.762
14.7391	0.77
14.778	0.771
14.8169	0.77
14.8559	0.77
14.8948	0.775
14.9337	0.77
14.9727	0.765
15.0116	0.744
15.0505	0.705
15.0895	0.687
15.1284	0.699
15.1673	0.718
15.2063	0.723
15.2452	0.721
15.2842	0.71
15.3231	0.702
15.362	0.694
15.401	0.676
15.4399	0.665
15.4788	0.65
15.5178	0.626
15.5567	0.588
15.5956	0.564
15.6346	0.561
15.6735	0.571
15.7124	0.59
15.7514	0.597
15.7903	0.597
15.8293	0.588
15.8682	0.579
15.9071	0.566
15.9461	0.553
15.985	0.535
