Infrared Spectrum: DI(2-ETHYLBUTYL)-3,4-DIPHENYL ADIPATE
Formula: C30 H42 O4
Class: COBLENTZ
Instrument: Not specified, most likely a prism, grating, or hybrid spectrometer.
Sampling: TRANSMISSION
Path length: 0.0031 CM
Resolution: 4
MICROMETERS	TRANSMITTANCE
2.027	0.174
2.06823	0.177
2.10946	0.177
2.15069	0.187
2.19191	0.192
2.23314	0.204
2.27437	0.209
2.3156	0.226
2.35683	0.237
2.39806	0.242
2.43928	0.257
2.48051	0.278
2.52174	0.288
2.56297	0.308
2.6042	0.325
2.64543	0.339
2.68666	0.349
2.72788	0.354
2.76911	0.358
2.81034	0.361
2.85157	0.363
2.8928	0.322
2.93403	0.368
2.97526	0.387
3.01648	0.399
3.05771	0.404
3.09894	0.412
3.14017	0.407
3.1814	0.399
3.22263	0.327
3.26385	0.244
3.30508	0.22
3.34631	0.095
3.38754	0.02
3.42877	0.015
3.47	0.052
3.51123	0.102
3.55245	0.409
3.59368	0.488
3.63491	0.535
3.67614	0.53
3.71737	0.546
3.7586	0.575
3.79982	0.593
3.84105	0.605
3.88228	0.6
3.92351	0.631
3.96474	0.65
4.00597	0.65
4.0472	0.656
4.08842	0.684
4.12965	0.692
4.17088	0.682
4.21211	0.682
4.25334	0.733
4.29457	0.75
4.3358	0.74
4.37702	0.728
4.41825	0.738
4.45948	0.752
4.50071	0.766
4.54194	0.762
4.58317	0.769
4.62439	0.762
4.66562	0.786
4.70685	0.786
4.74808	0.8
4.78931	0.795
4.83054	0.788
4.87177	0.8
4.91299	0.81
4.95422	0.82
4.99545	0.807
5.03668	0.813
5.07791	0.754
5.11914	0.723
5.16037	0.798
5.20159	0.817
5.24282	0.798
5.28405	0.757
5.32528	0.745
5.36651	0.827
5.40774	0.81
5.44896	0.812
5.49019	0.749
5.53142	0.682
5.57265	0.672
5.61388	0.624
5.65511	0.556
5.69634	0.431
5.73756	0.255
5.77879	0.092
5.82002	0.018
5.86125	0.02
5.90248	0.129
5.94371	0.401
5.98493	0.539
6.02616	0.701
6.06739	0.718
6.10862	0.774
6.14985	0.802
6.19108	0.819
6.23231	0.498
6.27353	0.79
6.31476	0.764
6.35599	0.841
6.39722	0.808
6.43845	0.825
6.47968	0.865
6.52091	0.865
6.56213	0.834
6.60336	0.807
6.64459	0.658
6.68582	0.182
6.72705	0.382
6.76828	0.192
6.8095	0.255
6.85073	0.035
6.89196	0.1
6.93319	0.127
6.97442	0.177
7.01565	0.467
7.05688	0.585
7.0981	0.558
7.13933	0.441
7.18056	0.225
7.22179	0.047
7.26302	0.059
7.30425	0.279
7.34547	0.175
7.3867	0.395
7.42793	0.22
7.46916	0.114
7.51039	0.366
7.55162	0.622
7.59285	0.646
7.63407	0.518
7.6753	0.45
7.71653	0.459
7.75776	0.349
7.79899	0.116
7.84022	0.064
7.88145	0.124
7.92267	0.068
7.9639	0.034
8.00513	0.023
8.04636	0.015
8.08759	0.015
8.12882	0.029
8.17004	0.04
8.21127	0.087
8.2525	0.208
8.29373	0.372
8.33496	0.443
8.37619	0.237
8.41742	0.232
8.45864	0.382
8.49987	0.469
8.5411	0.426
8.58233	0.315
8.62356	0.221
8.66479	0.088
8.70601	0.046
8.74724	0.027
8.78847	0.018
8.8297	0.056
8.87093	0.155
8.91216	0.286
8.95339	0.339
8.99461	0.43
9.03584	0.496
9.07707	0.626
9.1183	0.706
9.15953	0.762
9.20076	0.742
9.24199	0.638
9.28321	0.37
9.32444	0.479
9.36567	0.68
9.4069	0.721
9.44813	0.585
9.48936	0.426
9.53058	0.428
9.57181	0.414
9.61304	0.389
9.65427	0.339
9.6955	0.245
9.73673	0.146
9.77796	0.225
9.81918	0.428
9.86041	0.602
9.90164	0.668
9.94287	0.627
9.9841	0.556
10.0253	0.679
10.0666	0.612
10.1078	0.464
10.149	0.378
10.1902	0.457
10.2315	0.598
10.2727	0.583
10.3139	0.643
10.3552	0.701
10.3964	0.619
10.4376	0.452
10.4788	0.315
10.5201	0.46
10.5613	0.612
10.6025	0.551
10.6438	0.389
10.685	0.288
10.7262	0.365
10.7674	0.462
10.8087	0.462
10.8499	0.52
10.8911	0.583
10.9324	0.489
10.9736	0.36
11.0148	0.542
11.056	0.699
11.0973	0.812
11.1385	0.856
11.1797	0.906
11.221	0.933
11.2622	0.952
11.3034	0.964
11.3446	0.965
11.3859	0.947
11.4271	0.93
11.4683	0.952
11.5096	0.965
11.5508	0.979
11.592	0.984
11.6332	0.984
11.6745	0.962
11.7157	0.938
11.7569	0.926
11.7982	0.933
11.8394	0.916
11.8806	0.861
11.9218	0.752
11.9631	0.585
12.0043	0.482
12.0455	0.602
12.0868	0.745
12.128	0.848
12.1692	0.873
12.2104	0.885
12.2517	0.875
12.2929	0.841
12.3341	0.795
12.3754	0.755
12.4166	0.699
12.4578	0.61
12.499	0.501
12.5403	0.395
12.5815	0.339
12.6227	0.351
12.6639	0.402
12.7052	0.476
12.7464	0.496
12.7876	0.44
12.8289	0.261
12.8701	0.138
12.9113	0.126
12.9525	0.232
12.9938	0.401
13.035	0.295
13.0762	0.192
13.1175	0.192
13.1587	0.332
13.1999	0.426
13.2411	0.496
13.2824	0.53
13.3236	0.532
13.3648	0.544
13.4061	0.607
13.4473	0.715
13.4885	0.837
13.5297	0.897
13.571	0.923
13.6122	0.94
13.6534	0.955
13.6947	0.959
13.7359	0.96
13.7771	0.955
13.8183	0.936
13.8596	0.924
13.9008	0.904
13.942	0.882
13.9833	0.827
14.0245	0.721
14.0657	0.612
14.1069	0.447
14.1482	0.252
14.1894	0.119
14.2306	0.064
14.2719	0.051
14.3131	0.042
14.3543	0.087
14.3955	0.349
14.4368	0.53
14.478	0.662
14.5192	0.749
14.5605	0.812
14.6017	0.836
14.6429	0.851
14.6841	0.875
14.7254	0.875
14.7666	0.873
14.8078	0.877
14.8491	0.878
14.8903	0.866
14.9315	0.87
14.9727	0.899
15.014	0.914
15.0552	0.911
15.0964	0.89
15.1377	0.89
15.1789	0.894
15.2201	0.902
15.2613	0.907
15.3026	0.899
15.3438	0.899
15.385	0.897
15.4263	0.887
15.4675	0.873
15.5087	0.851
15.5499	0.824
15.5912	0.808
15.6324	0.795
15.6736	0.776
15.7149	0.761
15.7561	0.745
15.7973	0.706
15.8385	0.67
15.8798	0.629
15.921	0.588
15.9622	0.576
16.0035	0.563
