Infrared Spectrum: m-ACETOTOLUIDINE, 4'-tert-BUTYL-
Formula: C13 H19 N O
State: SOLID (MULL)
Class: COBLENTZ III
Instrument: BECKMAN IR-4 (HYBRID PRISM-GRATING)
Instrument parameters: NaCl PRISM
Sampling: TRANSMISSION
Resolution: 2
Origin: MONSANTO (J. FREEMAN)
1/CM	TRANSMITTANCE
3960.4	0.8186
3951.51	0.8198
3942.62	0.8208
3933.72	0.8217
3924.83	0.8225
3915.94	0.8233
3907.05	0.8242
3898.16	0.8251
3889.27	0.826
3880.37	0.8268
3871.48	0.8276
3862.59	0.8286
3853.7	0.8291
3844.81	0.8294
3835.92	0.8299
3827.02	0.8303
3818.13	0.8307
3809.24	0.8312
3800.35	0.8316
3791.46	0.832
3782.57	0.832
3773.67	0.8321
3764.78	0.8321
3755.89	0.8323
3747	0.8324
3738.11	0.8325
3729.22	0.8325
3720.32	0.8325
3711.43	0.8327
3702.54	0.8328
3693.65	0.8325
3684.76	0.8324
3675.87	0.8324
3666.97	0.8321
3658.08	0.832
3649.19	0.8318
3640.3	0.8322
3631.41	0.8327
3622.52	0.8331
3613.62	0.8335
3604.73	0.8339
3595.84	0.8338
3586.95	0.8337
3578.06	0.8335
3569.17	0.8333
3560.27	0.8332
3551.38	0.8328
3542.49	0.8321
3533.6	0.8313
3524.71	0.8305
3515.82	0.8298
3506.92	0.8285
3498.03	0.8256
3489.14	0.8225
3480.25	0.8195
3471.36	0.8132
3462.47	0.8035
3453.57	0.7918
3444.68	0.7679
3435.79	0.7336
3426.9	0.6428
3418.01	0.6236
3409.12	0.6073
3400.22	0.5808
3391.33	0.5407
3382.44	0.5001
3373.55	0.4593
3364.66	0.4183
3355.77	0.3769
3346.87	0.3355
3337.98	0.2938
3329.09	0.252
3320.2	0.2241
3311.31	0.2238
3302.42	0.2234
3293.52	0.4334
3284.63	0.5331
3275.74	0.5341
3266.85	0.5215
3257.96	0.5053
3249.07	0.489
3240.17	0.4813
3231.28	0.5788
3222.39	0.579
3213.5	0.5758
3204.61	0.5649
3195.72	0.5537
3186.82	0.5425
3177.93	0.5313
3169.04	0.5257
3160.15	0.5479
3151.26	0.5749
3142.37	0.6006
3133.47	0.606
3124.58	0.6069
3115.69	0.606
3106.8	0.5819
3097.91	0.5493
3089.02	0.5166
3080.12	0.4835
3071.23	0.4504
3062.34	0.417
3053.45	0.3834
3044.56	0.3496
3035.67	0.3156
3026.77	0.2815
3017.88	0.2472
3008.99	0.2126
3000.1	0.1777
2991.21	0.1428
2982.32	0.1077
2973.42	0.0723
2964.53	0.0367
2955.64	0.0085
2946.75	0.0071
2937.86	0.0072
2928.97	0.0091
2920.07	0.0146
2911.18	0.025
2902.29	0.038
2893.4	0.0528
2884.51	0.0641
2875.62	0.0709
2866.72	0.0786
2857.83	0.424
2848.94	0.739
2840.05	0.7711
2831.16	0.803
2822.27	0.8093
2813.37	0.8093
2804.48	0.8095
2795.59	0.8098
2786.7	0.811
2777.81	0.8128
2768.92	0.8167
2760.02	0.8195
2751.13	0.8198
2742.24	0.8204
2733.35	0.8231
2724.46	0.8258
2715.57	0.8285
2706.67	0.8313
2697.78	0.8341
2688.89	0.8371
2680	0.8403
2671.11	0.8434
2662.22	0.8465
2653.32	0.8496
2644.43	0.8527
2635.54	0.8557
2626.65	0.8587
2617.76	0.8617
2608.87	0.8647
2599.97	0.8675
2591.08	0.8704
2582.19	0.8734
2573.3	0.8767
2564.41	0.8802
2555.52	0.8837
2546.62	0.8853
2537.73	0.8868
2528.84	0.8875
2519.95	0.8877
2511.06	0.8878
2502.17	0.8881
2493.27	0.8884
2484.38	0.8888
2475.49	0.8891
2466.6	0.8896
2457.71	0.8899
2448.82	0.8904
2439.92	0.8909
2431.03	0.8913
2422.14	0.8918
2413.25	0.8925
2404.36	0.8933
2395.47	0.8941
2386.57	0.8949
2377.68	0.8956
2368.79	0.8965
2359.9	0.8973
2351.01	0.8982
2342.12	0.8991
2333.22	0.9
2324.33	0.9009
2315.44	0.9023
2306.55	0.9035
2297.66	0.9048
2288.77	0.9062
2279.87	0.9074
2270.98	0.909
2262.09	0.9106
2253.2	0.9123
2244.31	0.9139
2235.42	0.9156
2226.52	0.9168
2217.63	0.9183
2208.74	0.9196
2199.85	0.9207
2190.96	0.9217
2182.07	0.9228
2173.17	0.9239
2164.28	0.925
2155.39	0.926
2146.5	0.9267
2137.61	0.9274
2128.72	0.9281
2119.82	0.9288
2110.93	0.9295
2102.04	0.9302
2093.15	0.9307
2084.26	0.9313
2075.36	0.9318
2066.47	0.9324
2057.58	0.933
2048.69	0.9336
2039.8	0.9341
2030.91	0.9345
2022.01	0.9349
2013.12	0.9353
2004.23	0.9358
1995.34	0.9361
1986.45	0.9364
1977.56	0.9368
1968.66	0.9371
1959.77	0.9375
1950.88	0.9382
1941.99	0.9335
1933.1	0.9223
1924.21	0.9177
1915.31	0.925
1906.42	0.9327
1897.53	0.9361
1888.64	0.9379
1879.75	0.9388
1870.86	0.9389
1861.96	0.9385
1853.07	0.9374
1844.18	0.9362
1835.29	0.9345
1826.4	0.9328
1817.51	0.9311
1808.61	0.9289
1799.72	0.9267
1790.83	0.9252
1781.94	0.9239
1773.05	0.9235
1764.16	0.9266
1755.26	0.9334
1746.37	0.9374
1737.48	0.9276
1728.59	0.9067
1719.7	0.8296
1710.81	0.6986
1701.91	0.5002
1693.02	0.2989
1684.13	0.1243
1675.24	0.2288
1666.35	0.0734
1657.46	0.259
1648.56	0.5661
1639.67	0.4139
1630.78	0.2484
1621.89	0.0856
1613	0.1615
1604.11	0.2736
1595.21	0.6433
1586.32	0.6634
1577.43	0.6197
1568.54	0.3821
1559.65	0.1078
1550.76	0.1256
1541.86	0.298
1532.97	0.2785
1524.08	0.4003
1515.19	0.2883
1506.3	0.3037
1497.41	0.4143
1488.51	0.3322
1479.62	0.2379
1470.73	0.161
1461.84	0.1971
1452.95	0.3036
1444.06	0.4561
1435.16	0.6107
1426.27	0.6661
1417.38	0.6412
1408.49	0.4705
1399.6	0.2901
1390.71	0.1757
1381.81	0.1998
1372.92	0.4408
1364.03	0.6878
1355.14	0.6907
1346.25	0.5649
1337.36	0.4144
1328.46	0.396
1319.57	0.6779
1310.68	0.7764
1301.79	0.6025
1292.9	0.5607
1284.01	0.7241
1275.11	0.4762
1266.22	0.3942
1257.33	0.7525
1248.44	0.8316
1239.55	0.8525
1230.66	0.8707
1221.76	0.8881
1212.87	0.8775
1203.98	0.8374
1195.09	0.8345
1186.2	0.9017
1177.31	0.901
1168.41	0.9013
1159.52	0.9109
1150.63	0.9161
1141.74	0.8195
1132.85	0.853
1123.96	0.934
1115.06	0.9422
1106.17	0.9451
1097.28	0.9425
1088.39	0.9276
1079.5	0.8281
1070.61	0.9191
1061.71	0.9126
1052.82	0.8843
1043.93	0.7748
1035.04	0.7035
1026.15	0.7936
1017.26	0.8776
1008.36	0.7719
999.472	0.7962
990.581	0.8878
981.689	0.8947
972.797	0.8549
963.906	0.9177
955.014	0.9283
946.122	0.93
937.231	0.9324
928.339	0.8762
919.447	0.8831
910.556	0.9421
901.664	0.9475
892.772	0.9458
883.881	0.9342
874.989	0.6325
866.097	0.657
857.206	0.9287
848.314	0.9485
839.422	0.9476
830.531	0.8721
821.639	0.4626
812.747	0.8661
803.856	0.9366
794.964	0.934
786.072	0.9045
777.181	0.7825
768.289	0.8222
759.397	0.6874
750.505	0.5153
741.614	0.5892
732.722	0.7487
723.83	0.6818
714.939	0.804
706.047	0.9053
697.155	0.9468
688.264	0.9593
679.372	0.9553
670.48	0.9584
661.589	0.961
652.697	0.948
643.805	0.9453
634.914	0.946
