Infrared Spectrum: Penicillin G Procaine
Formula: C29 H38 N4 O6 S
State: SOLID (1.2 mg / 400 mg KBr DISC)
Class: COBLENTZ III
Instrument: PERKIN-ELMER 21 (GRATING)
Resolution: 2
Origin: THE SQUIBB INSTITUTE FOR MEDICAL RESEARCH
1/CM	TRANSMITTANCE
663	0.657
672	0.7661
681	0.7693
690	0.6597
699	0.5276
708	0.6954
717	0.6893
726	0.5341
735	0.5732
744	0.7594
753	0.7723
762	0.742
771	0.5278
780	0.5191
789	0.7621
798	0.7821
807	0.84
816	0.8373
825	0.8841
834	0.8747
843	0.6629
852	0.7767
861	0.8626
870	0.7986
879	0.856
888	0.8938
897	0.9017
906	0.8979
915	0.8658
924	0.8586
933	0.8778
942	0.874
951	0.881
960	0.8741
969	0.8471
978	0.8629
987	0.792
996	0.7716
1005	0.7153
1014	0.7132
1023	0.6157
1032	0.6767
1041	0.7694
1050	0.6971
1059	0.671
1068	0.6016
1077	0.5886
1086	0.6188
1095	0.5636
1104	0.4837
1113	0.3305
1122	0.2682
1131	0.627
1140	0.6283
1149	0.5808
1158	0.5104
1167	0.3256
1176	0.1947
1185	0.6657
1194	0.7538
1203	0.7339
1212	0.6096
1221	0.6226
1230	0.6299
1239	0.4959
1248	0.4476
1257	0.2757
1266	0.1257
1275	0.1015
1284	0.2974
1293	0.4292
1302	0.3855
1311	0.308
1320	0.2768
1329	0.4117
1338	0.5768
1347	0.5721
1356	0.4717
1365	0.4883
1374	0.5111
1383	0.4191
1392	0.3619
1401	0.3138
1410	0.4976
1419	0.6769
1428	0.6886
1437	0.5703
1446	0.4901
1455	0.4586
1464	0.4728
1473	0.4808
1482	0.6818
1491	0.5696
1500	0.5542
1509	0.5409
1518	0.4409
1527	0.4873
1536	0.4544
1545	0.3352
1554	0.3271
1563	0.4008
1572	0.4464
1581	0.4438
1590	0.2777
1599	0.0937
1608	0.0591
1617	0.1253
1626	0.2559
1635	0.346
1644	0.2908
1653	0.2476
1662	0.2441
1671	0.4117
1680	0.4264
1689	0.2565
1698	0.1233
1707	0.3849
1716	0.5466
1725	0.7402
1734	0.7385
1743	0.7203
1752	0.6846
1761	0.6247
1770	0.3687
1779	0.1452
1788	0.1398
1797	0.4193
1806	0.7003
1815	0.7673
1824	0.7988
1833	0.8683
1842	0.9293
1851	0.9547
1860	0.9629
1869	0.9675
1878	0.9709
1887	0.9737
1896	0.9739
1905	0.9738
1914	0.9714
1923	0.9676
1932	0.9654
1941	0.9686
1950	0.9711
1959	0.9728
1968	0.9735
1977	0.9735
1986	0.9723
1995	0.9698
2004	0.9665
2013	0.9631
2022	0.9599
2031	0.9575
2040	0.9555
2049	0.9538
2058	0.952
2067	0.95
2076	0.9473
2085	0.9434
2094	0.9393
2103	0.9348
2112	0.9302
2121	0.9268
2130	0.9236
2139	0.921
2148	0.9207
2157	0.9201
2166	0.9159
2175	0.9114
2184	0.907
2193	0.9025
2202	0.8981
2211	0.8938
2220	0.8895
2229	0.8853
2238	0.881
2247	0.8768
2256	0.8726
2265	0.8672
2274	0.863
2283	0.8591
2292	0.8556
2301	0.8528
2310	0.8515
2319	0.8508
2328	0.8506
2337	0.8504
2346	0.8503
2355	0.8502
2364	0.8503
2373	0.8509
2382	0.8488
2391	0.8382
2400	0.8305
2409	0.8298
2418	0.8291
2427	0.8283
2436	0.8271
2445	0.8244
2454	0.8222
2463	0.8225
2472	0.8233
2481	0.8243
2490	0.8254
2499	0.8266
2508	0.8277
2517	0.8293
2526	0.8311
2535	0.8323
2544	0.8335
2553	0.8339
2562	0.8327
2571	0.8277
2580	0.8194
2589	0.8098
2598	0.8065
2607	0.806
2616	0.8067
2625	0.8081
2634	0.8096
2643	0.8112
2652	0.8136
2661	0.8163
2670	0.8207
2679	0.8249
2688	0.8289
2697	0.8324
2706	0.8341
2715	0.8354
2724	0.835
2733	0.8344
2742	0.8337
2751	0.8313
2760	0.8282
2769	0.8246
2778	0.82
2787	0.8144
2796	0.8082
2805	0.8019
2814	0.7957
2823	0.7895
2832	0.7834
2841	0.7773
2850	0.7712
2859	0.7651
2868	0.7591
2877	0.7523
2886	0.745
2895	0.7377
2904	0.7302
2913	0.7225
2922	0.7104
2931	0.6898
2940	0.6667
2949	0.6476
2958	0.6274
2967	0.6068
2976	0.6058
2985	0.6094
2994	0.6169
3003	0.6234
3012	0.6222
3021	0.6216
3030	0.6227
3039	0.6675
3048	0.7207
3057	0.759
3066	0.7784
3075	0.7843
3084	0.7847
3093	0.782
3102	0.778
3111	0.7723
3120	0.7566
3129	0.7326
3138	0.7087
3147	0.685
3156	0.6614
3165	0.6379
3174	0.6146
3183	0.5914
3192	0.5673
3201	0.5489
3210	0.5385
3219	0.534
3228	0.5427
3237	0.5774
3246	0.612
3255	0.618
3264	0.6181
3273	0.6166
3282	0.6078
3291	0.5949
3300	0.582
3309	0.5692
3318	0.5628
3327	0.5634
3336	0.5648
3345	0.5879
3354	0.6338
3363	0.6779
3372	0.6967
3381	0.704
3390	0.7092
3399	0.7135
3408	0.7166
3417	0.7189
3426	0.7204
3435	0.7227
3444	0.7182
3453	0.7094
3462	0.7006
3471	0.692
3480	0.6833
3489	0.679
3498	0.6863
3507	0.7358
3516	0.7909
3525	0.8457
3534	0.9003
3543	0.9699
3552	0.9858
3561	0.9969
3570	1.0052
3579	1.013
3588	1.019
3597	1.0247
3606	1.0288
3615	1.0312
3624	1.0318
3633	1.0323
3642	1.032
3651	1.0314
3660	1.0302
3669	1.0296
3678	1.0291
3687	1.0288
3696	1.0285
3705	1.0286
3714	1.0288
3723	1.0291
3732	1.0294
3741	1.0296
3750	1.0297
3759	1.0297
3768	1.0291
3777	1.0286
3786	1.0281
3795	1.0275
3804	1.0268
3813	1.0262
3822	1.0258
3831	1.0254
3840	1.025
3849	1.0245
3858	1.0241
3867	1.0235
3876	1.023
3885	1.0225
3894	1.0219
3903	1.0212
3912	1.0206
3921	1.0199
3930	1.019
3939	1.0179
3948	1.0168
3957	1.0156
3966	1.0143
3975	1.0129
3984	1.0117
3993	1.0108
