Infrared Spectrum: FERRIC OXIDE (PURE RED OXIDE)
Formula: O3 Fe2
State: SOLID (0.8 mg / 300 mg CsI PELLET)
Class: COBLENTZ
Instrument: Not specified, most likely a grating spectrometer.
Sampling: TRANSMISSION
Resolution: 4
Origin: DESOTO CHEMICAL COATINGS, INC.
1/CM	TRANSMITTANCE
198.672	0.842
209.299	0.843
219.927	0.844
230.554	0.838
241.181	0.83
251.809	0.824
262.436	0.824
273.063	0.814
283.691	0.792
294.318	0.774
304.945	0.756
315.573	0.727
326.2	0.5822
336.827	0.2901
347.455	0.259
358.082	0.362
368.709	0.5369
379.337	0.576
389.964	0.545
400.591	0.55
411.219	0.576
421.846	0.601
432.473	0.643
443.101	0.5561
453.728	0.387
464.355	0.241
474.983	0.216
485.61	0.3859
496.237	0.557
506.865	0.624
517.492	0.544
528.12	0.2922
538.747	0.18
549.374	0.183
560.002	0.256
570.629	0.342
581.256	0.4509
591.884	0.495
602.511	0.518
613.138	0.529
623.766	0.537
634.393	0.561
645.02	0.6369
655.648	0.745
666.275	0.812
676.902	0.843
687.53	0.877
698.157	0.894
708.784	0.906
719.412	0.925
730.039	0.937
740.666	0.947
751.294	0.955
761.921	0.963
772.548	0.961
783.176	0.957
793.803	0.937
804.43	0.929
815.058	0.947
825.685	0.959
836.312	0.97
846.94	0.973
857.567	0.971
868.194	0.967
878.822	0.957
889.449	0.935
900.076	0.903
910.704	0.923
921.331	0.943
931.958	0.963
942.586	0.967
953.213	0.971
963.84	0.974
974.468	0.975
985.095	0.979
995.722	0.981
1006.35	0.981
1016.98	0.977
1027.6	0.973
1038.23	0.967
1048.86	0.966
1059.49	0.967
1070.11	0.967
1080.74	0.97
1091.37	0.97
1102	0.963
1112.62	0.966
1123.25	0.966
1133.88	0.963
1144.51	0.966
1155.13	0.97
1165.76	0.977
1176.39	0.977
1187.01	0.981
1197.64	0.981
1208.27	0.977
1218.9	0.981
1229.52	0.982
1240.15	0.985
1250.78	0.986
1261.41	0.987
1272.03	0.989
1282.66	0.99
1293.29	0.99
1303.92	0.987
1314.54	0.986
1325.17	0.986
1335.8	0.989
1346.42	0.987
1357.05	0.986
1367.68	0.983
1378.31	0.983
1388.93	0.983
1399.56	0.983
1410.19	0.983
1420.82	0.982
1431.44	0.981
1442.07	0.981
1452.7	0.981
1463.33	0.981
1473.95	0.979
1484.58	0.979
1495.21	0.979
1505.83	0.979
1516.46	0.979
1527.09	0.978
1537.72	0.977
1548.34	0.974
1558.97	0.973
1569.6	0.973
1580.23	0.969
1590.85	0.963
1601.48	0.957
1612.11	0.941
1622.74	0.935
1633.36	0.942
1643.99	0.949
1654.62	0.957
1665.24	0.962
1675.87	0.967
1686.5	0.971
1697.13	0.971
1707.75	0.973
1718.38	0.974
1729.01	0.974
1739.64	0.973
1750.26	0.974
1760.89	0.977
1771.52	0.974
1782.15	0.973
1792.77	0.971
1803.4	0.971
1814.03	0.971
1824.65	0.971
1835.28	0.971
1845.91	0.973
1856.54	0.973
1867.16	0.973
1877.79	0.969
1888.42	0.97
1899.05	0.971
1909.67	0.967
1920.3	0.967
1930.93	0.97
1941.56	0.969
1952.18	0.966
1962.81	0.966
1973.44	0.967
1984.06	0.963
1994.69	0.962
2005.32	0.962
2015.95	0.963
2026.57	0.962
2037.2	0.959
2047.83	0.958
2058.46	0.957
2069.08	0.955
2079.71	0.954
2090.34	0.9549
2100.97	0.954
2111.59	0.953
2122.22	0.953
2132.85	0.951
2143.48	0.951
2154.1	0.95
2164.73	0.95
2175.36	0.949
2185.98	0.949
2196.61	0.947
2207.24	0.9488
2217.87	0.946
2228.49	0.945
2239.12	0.9451
2249.75	0.9429
2260.38	0.9425
2271	0.942
2281.63	0.942
2292.26	0.941
2302.89	0.943
2313.51	0.941
2324.14	0.937
2334.77	0.9372
2345.39	0.941
2356.02	0.941
2366.65	0.938
2377.28	0.9338
2387.9	0.933
2398.53	0.9332
2409.16	0.934
2419.79	0.934
2430.41	0.934
2441.04	0.934
2451.67	0.933
2462.3	0.933
2472.92	0.933
2483.55	0.933
2494.18	0.9324
2504.8	0.931
2515.43	0.931
2526.06	0.9307
2536.69	0.93
2547.31	0.929
2557.94	0.927
2568.57	0.927
2579.2	0.926
2589.82	0.925
2600.45	0.925
2611.08	0.923
2621.71	0.923
2632.33	0.922
2642.96	0.922
2653.59	0.922
2664.21	0.922
2674.84	0.921
2685.47	0.921
2696.1	0.921
2706.72	0.919
2717.35	0.919
2727.98	0.918
2738.61	0.917
2749.23	0.915
2759.86	0.914
2770.49	0.913
2781.12	0.911
2791.74	0.9105
2802.37	0.91
2813	0.909
2823.62	0.907
2834.25	0.906
2844.88	0.904
2855.51	0.902
2866.13	0.899
2876.76	0.898
2887.39	0.897
2898.02	0.8945
2908.64	0.893
2919.27	0.893
2929.9	0.893
2940.53	0.891
2951.15	0.891
2961.78	0.89
2972.41	0.89
2983.03	0.89
2993.66	0.8894
3004.29	0.889
3014.92	0.889
3025.54	0.8864
3036.17	0.8854
3046.8	0.8824
3057.43	0.879
3068.05	0.8743
3078.68	0.8703
3089.31	0.8663
3099.94	0.8623
3110.56	0.8553
3121.19	0.8503
3131.82	0.846
3142.44	0.8423
3153.07	0.8383
3163.7	0.836
3174.33	0.835
3184.95	0.835
3195.58	0.835
3206.21	0.835
3216.84	0.834
3227.46	0.834
3238.09	0.832
3248.72	0.832
3259.35	0.832
3269.97	0.832
3280.6	0.831
3291.23	0.831
3301.86	0.828
3312.48	0.8244
3323.11	0.822
3333.74	0.818
3344.36	0.8124
3354.99	0.8072
3365.62	0.8022
3376.25	0.7952
3386.87	0.7902
3397.5	0.7843
3408.13	0.7763
3418.76	0.7711
3429.38	0.767
3440.01	0.764
3450.64	0.763
3461.27	0.7639
3471.89	0.766
3482.52	0.7679
3493.15	0.77
3503.77	0.7738
3514.4	0.778
3525.03	0.7839
3535.66	0.7909
3546.28	0.7959
3556.91	0.8029
3567.54	0.808
3578.17	0.815
3588.79	0.8219
3599.42	0.8299
3610.05	0.836
3620.68	0.842
3631.3	0.85
3641.93	0.856
3652.56	0.86
3663.18	0.862
3673.81	0.862
3684.44	0.86
3695.07	0.86
3705.69	0.862
3716.32	0.863
3726.95	0.859
3737.58	0.859
3748.2	0.86
3758.83	0.86
3769.46	0.86
3780.09	0.86
3790.71	0.859
3801.34	0.858
3811.97	0.856
3822.59	0.854
3833.22	0.8519
3843.85	0.851
3854.48	0.852
3865.1	0.854
3875.73	0.854
3886.36	0.854
3896.99	0.8518
3907.61	0.851
3918.24	0.8508
3928.87	0.85
3939.5	0.848
3950.12	0.8478
3960.75	0.847
3971.38	0.846
3982	0.844
