Infrared Spectrum: YTTRIUM OXALATE
Formula: Y2 ( C2 O4)3  * 9 H2 O
State: SOLID (KBr DISC)
Class: COBLENTZ
Instrument: Not specified, most likely a prism, grating, or hybrid spectrometer.
Sampling: TRANSMISSION
Resolution: 4
MICROMETERS	TRANSMITTANCE
2.006	0.947
2.04391	0.949
2.08182	0.949
2.11974	0.95
2.15765	0.95
2.19556	0.95
2.23347	0.952
2.27138	0.955
2.30929	0.956
2.34721	0.958
2.38512	0.959
2.42303	0.961
2.46094	0.961
2.49885	0.962
2.53677	0.962
2.57468	0.964
2.61259	0.964
2.6505	0.965
2.68841	0.965
2.72632	0.968
2.76424	0.964
2.80215	0.866
2.84006	0.775
2.87797	0.67
2.91588	0.575
2.9538	0.533
2.99171	0.527
3.02962	0.539
3.06753	0.585
3.10544	0.627
3.14336	0.671
3.18127	0.705
3.21918	0.75
3.25709	0.789
3.295	0.824
3.33291	0.849
3.37083	0.864
3.40874	0.872
3.44665	0.882
3.48456	0.898
3.52247	0.912
3.56039	0.919
3.5983	0.93
3.63621	0.936
3.67412	0.943
3.71203	0.95
3.74994	0.956
3.78786	0.961
3.82577	0.961
3.86368	0.964
3.90159	0.971
3.9395	0.974
3.97742	0.976
4.01533	0.976
4.05324	0.977
4.09115	0.98
4.12906	0.98
4.16697	0.98
4.20489	0.98
4.2428	0.982
4.28071	0.982
4.31862	0.98
4.35653	0.98
4.39445	0.982
4.43236	0.982
4.47027	0.982
4.50818	0.982
4.54609	0.983
4.584	0.983
4.62192	0.982
4.65983	0.983
4.69774	0.983
4.73565	0.983
4.77356	0.983
4.81148	0.983
4.84939	0.985
4.8873	0.985
4.92521	0.985
4.96312	0.985
5.00103	0.986
5.03895	0.986
5.07686	0.986
5.11477	0.986
5.15268	0.986
5.19059	0.986
5.22851	0.982
5.26642	0.979
5.30433	0.98
5.34224	0.98
5.38015	0.98
5.41807	0.979
5.45598	0.977
5.49389	0.971
5.5318	0.964
5.56971	0.962
5.60762	0.952
5.64554	0.943
5.68345	0.924
5.72136	0.898
5.75927	0.869
5.79718	0.734
5.8351	0.65
5.87301	0.551
5.91092	0.445
5.94883	0.371
5.98674	0.236
6.02465	0.187
6.06257	0.179
6.10048	0.169
6.13839	0.175
6.1763	0.251
6.21421	0.352
6.25213	0.476
6.29004	0.572
6.32795	0.628
6.36586	0.708
6.40377	0.739
6.44168	0.778
6.4796	0.8
6.51751	0.832
6.55542	0.843
6.59333	0.854
6.63124	0.866
6.66916	0.885
6.70707	0.885
6.74498	0.87
6.78289	0.863
6.8208	0.861
6.85871	0.869
6.89663	0.888
6.93454	0.897
6.97245	0.904
7.01036	0.909
7.04827	0.912
7.08619	0.919
7.1241	0.921
7.16201	0.922
7.19992	0.922
7.23783	0.913
7.27574	0.879
7.31366	0.832
7.35157	0.78
7.38948	0.772
7.42739	0.771
7.4653	0.772
7.50322	0.739
7.54113	0.674
7.57904	0.592
7.61695	0.586
7.65486	0.607
7.69278	0.624
7.73069	0.695
7.7686	0.778
7.80651	0.839
7.84442	0.876
7.88233	0.895
7.92025	0.906
7.95816	0.913
7.99607	0.915
8.03398	0.918
8.07189	0.921
8.10981	0.925
8.14772	0.927
8.18563	0.927
8.22354	0.93
8.26145	0.93
8.29936	0.933
8.33728	0.934
8.37519	0.937
8.4131	0.939
8.45101	0.94
8.48892	0.94
8.52684	0.94
8.56475	0.94
8.60266	0.94
8.64057	0.94
8.67848	0.94
8.71639	0.942
8.75431	0.942
8.79222	0.942
8.83013	0.942
8.86804	0.942
8.90595	0.943
8.94387	0.945
8.98178	0.943
9.01969	0.945
9.0576	0.945
9.09551	0.945
9.13342	0.945
9.17134	0.945
9.20925	0.943
9.24716	0.943
9.28507	0.943
9.32298	0.943
9.3609	0.943
9.39881	0.945
9.43672	0.945
9.47463	0.945
9.51254	0.945
9.55045	0.946
9.58837	0.945
9.62628	0.945
9.66419	0.945
9.7021	0.945
9.74001	0.945
9.77793	0.946
9.81584	0.945
9.85375	0.946
9.89166	0.945
9.92957	0.945
9.96749	0.945
10.0054	0.943
10.0433	0.945
10.0812	0.945
10.1191	0.946
10.157	0.947
10.195	0.947
10.2329	0.947
10.2708	0.947
10.3087	0.949
10.3466	0.949
10.3845	0.95
10.4224	0.952
10.4603	0.952
10.4983	0.952
10.5362	0.952
10.5741	0.952
10.612	0.952
10.6499	0.953
10.6878	0.953
10.7257	0.955
10.7636	0.953
10.8015	0.953
10.8395	0.95
10.8774	0.947
10.9153	0.947
10.9532	0.946
10.9911	0.946
11.029	0.946
11.0669	0.947
11.1048	0.947
11.1428	0.947
11.1807	0.949
11.2186	0.947
11.2565	0.947
11.2944	0.947
11.3323	0.949
11.3702	0.949
11.4081	0.949
11.446	0.949
11.484	0.95
11.5219	0.95
11.5598	0.947
11.5977	0.945
11.6356	0.945
11.6735	0.943
11.7114	0.943
11.7493	0.943
11.7873	0.942
11.8252	0.942
11.8631	0.94
11.901	0.939
11.9389	0.937
11.9768	0.934
12.0147	0.93
12.0526	0.918
12.0905	0.912
12.1285	0.898
12.1664	0.881
12.2043	0.852
12.2422	0.806
12.2801	0.769
12.318	0.726
12.3559	0.701
12.3938	0.676
12.4318	0.665
12.4697	0.656
12.5076	0.655
12.5455	0.662
12.5834	0.696
12.6213	0.75
12.6592	0.789
12.6971	0.817
12.735	0.838
12.773	0.851
12.8109	0.858
12.8488	0.864
12.8867	0.87
12.9246	0.878
12.9625	0.881
13.0004	0.884
13.0383	0.882
13.0763	0.882
13.1142	0.882
13.1521	0.884
13.19	0.884
13.2279	0.882
13.2658	0.882
13.3037	0.881
13.3416	0.881
13.3796	0.879
13.4175	0.876
13.4554	0.875
13.4933	0.873
13.5312	0.873
13.5691	0.872
13.607	0.87
13.6449	0.869
13.6828	0.869
13.7208	0.869
13.7587	0.867
13.7966	0.869
13.8345	0.869
13.8724	0.869
13.9103	0.867
13.9482	0.866
13.9861	0.864
14.0241	0.863
14.062	0.863
14.0999	0.864
14.1378	0.863
14.1757	0.863
14.2136	0.863
14.2515	0.863
14.2894	0.861
14.3273	0.86
14.3653	0.858
14.4032	0.857
14.4411	0.858
14.479	0.858
14.5169	0.857
14.5548	0.857
14.5927	0.857
14.6306	0.857
14.6686	0.857
14.7065	0.857
14.7444	0.857
14.7823	0.857
14.8202	0.855
14.8581	0.854
14.896	0.852
14.9339	0.855
