Infrared Spectrum: SODIUM CARBOXY METHYL METHYL CELLULOSE
Formula: C14 H21 Na O12 X2
State: SOLID (KBr PELLET)
Class: COBLENTZ
Instrument: Not specified, most likely a prism, grating, or hybrid spectrometer.
Sampling: TRANSMISSION
Resolution: 4
Origin: WYANDOTTE CHEMICALS CORP., WYANDOTTE, MICHIGAN, USA
MICROMETERS	TRANSMITTANCE
2.007	0.863
2.04786	0.858
2.08871	0.856
2.12957	0.852
2.17042	0.849
2.21128	0.841
2.25213	0.851
2.29299	0.844
2.33384	0.832
2.3747	0.823
2.41556	0.815
2.45641	0.798
2.49727	0.788
2.53812	0.788
2.57898	0.788
2.61983	0.788
2.66069	0.764
2.70155	0.731
2.7424	0.683
2.78326	0.598
2.82411	0.475
2.86497	0.382
2.90582	0.335
2.94668	0.304
2.98753	0.314
3.02839	0.4
3.06925	0.48
3.1101	0.55
3.15096	0.611
3.19181	0.661
3.23267	0.697
3.27352	0.712
3.31438	0.712
3.35524	0.649
3.39609	0.588
3.43695	0.565
3.4778	0.591
3.51866	0.647
3.55951	0.695
3.60037	0.835
3.64122	0.887
3.68208	0.9
3.72294	0.914
3.76379	0.924
3.80465	0.947
3.8455	0.95
3.88636	0.947
3.92721	0.947
3.96807	0.943
4.00892	0.947
4.04978	0.948
4.09064	0.94
4.13149	0.943
4.17235	0.945
4.2132	0.95
4.25406	0.948
4.29491	0.943
4.33577	0.929
4.37663	0.923
4.41748	0.919
4.45834	0.935
4.49919	0.921
4.54005	0.919
4.5809	0.909
4.62176	0.9
4.66261	0.899
4.70347	0.897
4.74433	0.89
4.78518	0.888
4.82604	0.87
4.86689	0.866
4.90775	0.858
4.9486	0.854
4.98946	0.861
5.03032	0.849
5.07117	0.847
5.11203	0.839
5.15288	0.842
5.19374	0.844
5.23459	0.847
5.27545	0.837
5.3163	0.822
5.35716	0.815
5.39802	0.805
5.43887	0.798
5.47973	0.793
5.52058	0.782
5.56144	0.769
5.60229	0.755
5.64315	0.74
5.684	0.721
5.72486	0.699
5.76572	0.678
5.80657	0.641
5.84743	0.606
5.88828	0.581
5.92914	0.555
5.96999	0.524
6.01085	0.464
6.05171	0.403
6.09256	0.345
6.13342	0.319
6.17427	0.317
6.21513	0.345
6.25598	0.41
6.29684	0.55
6.33769	0.68
6.37855	0.752
6.41941	0.829
6.46026	0.832
6.50112	0.822
6.54197	0.803
6.58283	0.76
6.62368	0.723
6.66454	0.682
6.7054	0.632
6.74625	0.577
6.78711	0.548
6.82796	0.524
6.86882	0.514
6.90967	0.504
6.95053	0.499
6.99138	0.494
7.03224	0.488
7.0731	0.499
7.11395	0.524
7.15481	0.574
7.19566	0.598
7.23652	0.572
7.27737	0.576
7.31823	0.593
7.35908	0.603
7.39994	0.591
7.4408	0.565
7.48165	0.548
7.52251	0.543
7.56336	0.548
7.60422	0.569
7.64507	0.594
7.68593	0.623
7.72679	0.656
7.76764	0.671
7.8085	0.682
7.84935	0.675
7.89021	0.652
7.93106	0.654
7.97192	0.646
8.01277	0.642
8.05363	0.62
8.09449	0.606
8.13534	0.593
8.1762	0.564
8.21705	0.524
8.25791	0.504
8.29876	0.49
8.33962	0.485
8.38048	0.487
8.42133	0.48
8.46219	0.463
8.50304	0.432
8.5439	0.403
8.58475	0.386
8.62561	0.374
8.66646	0.36
8.70732	0.355
8.74818	0.352
8.78903	0.341
8.82989	0.321
8.87074	0.3
8.9116	0.29
8.95245	0.285
8.99331	0.276
9.03416	0.287
9.07502	0.287
9.11588	0.294
9.15673	0.285
9.19759	0.276
9.23844	0.27
9.2793	0.261
9.32015	0.256
9.36101	0.252
9.40187	0.249
9.44272	0.244
9.48358	0.249
9.52443	0.268
9.56529	0.273
9.60614	0.285
9.647	0.3
9.68785	0.304
9.72871	0.304
9.76957	0.319
9.81042	0.333
9.85128	0.348
9.89213	0.353
9.93299	0.372
9.97384	0.384
10.0147	0.405
10.0556	0.417
10.0964	0.435
10.1373	0.464
10.1781	0.49
10.219	0.521
10.2598	0.553
10.3007	0.582
10.3415	0.603
10.3824	0.613
10.4233	0.63
10.4641	0.618
10.505	0.615
10.5458	0.6
10.5867	0.593
10.6275	0.582
10.6684	0.593
10.7092	0.603
10.7501	0.608
10.791	0.63
10.8318	0.637
10.8727	0.647
10.9135	0.651
10.9544	0.658
10.9952	0.663
11.0361	0.678
11.0769	0.7
11.1178	0.717
11.1587	0.731
11.1995	0.747
11.2404	0.743
11.2812	0.753
11.3221	0.767
11.3629	0.798
11.4038	0.829
11.4446	0.858
11.4855	0.87
11.5264	0.89
11.5672	0.912
11.6081	0.921
11.6489	0.926
11.6898	0.931
11.7306	0.923
11.7715	0.924
11.8123	0.926
11.8532	0.933
11.8941	0.931
11.9349	0.941
11.9758	0.947
12.0166	0.955
12.0575	0.958
12.0983	0.972
12.1392	0.97
12.18	0.972
12.2209	0.977
12.2618	0.986
12.3026	0.986
12.3435	0.982
12.3843	0.984
12.4252	0.988
12.466	0.988
12.5069	0.989
12.5477	0.993
12.5886	0.989
12.6295	0.994
12.6703	0.988
12.7112	0.988
12.752	0.986
12.7929	0.982
12.8337	0.977
12.8746	0.982
12.9154	0.979
12.9563	0.974
12.9972	0.979
13.038	0.97
13.0789	0.972
13.1197	0.962
13.1606	0.964
13.2014	0.96
13.2423	0.958
13.2831	0.953
13.324	0.947
13.3649	0.941
13.4057	0.933
13.4466	0.929
13.4874	0.919
13.5283	0.919
13.5691	0.912
13.61	0.904
13.6508	0.897
13.6917	0.892
13.7326	0.88
13.7734	0.873
13.8143	0.866
13.8551	0.87
13.896	0.852
13.9368	0.856
13.9777	0.849
14.0185	0.842
14.0594	0.851
14.1003	0.835
14.1411	0.832
14.182	0.832
14.2228	0.835
14.2637	0.83
14.3045	0.813
14.3454	0.817
14.3862	0.83
14.4271	0.839
14.468	0.835
14.5088	0.839
14.5497	0.832
14.5905	0.832
14.6314	0.835
14.6722	0.829
14.7131	0.82
14.754	0.817
14.7948	0.8
14.8357	0.805
14.8765	0.793
14.9174	0.796
14.9582	0.777
14.9991	0.748
15.0399	0.729
15.0808	0.729
15.1217	0.75
15.1625	0.765
15.2034	0.752
15.2442	0.76
15.2851	0.76
15.3259	0.752
15.3668	0.752
15.4076	0.741
15.4485	0.738
15.4894	0.726
15.5302	0.729
15.5711	0.728
15.6119	0.719
15.6528	0.716
15.6936	0.702
15.7345	0.692
15.7753	0.683
15.8162	0.683
15.8571	0.68
15.8979	0.673
15.9388	0.661
