Infrared Spectrum: ADENINE, 3-BENZYL-N,N-DIMETHYL-, HYDROCHLORIDE
Formula: C14 H16 Cl N5
State: SOLID (0.7 mg / 650 mg KBr DISC)
Class: COBLENTZ III
Instrument: PERKIN-ELMER 221 (GRATING)
Instrument parameters: FILTER CHANGES AT 2490, 980 CM^-^1, GRATING FOR 4000-1428 CM^-^1, NaCl PRISM FOR 1428-650 CM^-^1
Sampling: TRANSMISSION
Resolution: 4
Origin: SOUTHERN RESEARCH INST.
1/CM	TRANSMITTANCE
600.553	0.779
610.177	0.777
619.801	0.779
629.425	0.844
639.049	0.868
648.673	0.865
658.296	0.861
667.92	0.851
677.544	0.815
687.168	0.694
696.792	0.424
706.416	0.842
716.04	0.865
725.664	0.799
735.288	0.434
744.912	0.864
754.536	0.877
764.159	0.713
773.783	0.574
783.407	0.603
793.031	0.855
802.655	0.847
812.279	0.795
821.903	0.742
831.527	0.66
841.151	0.61
850.775	0.731
860.398	0.806
870.022	0.851
879.646	0.843
889.27	0.82
898.894	0.735
908.518	0.594
918.142	0.656
927.766	0.849
937.39	0.626
947.014	0.805
956.638	0.82
966.261	0.617
975.885	0.843
985.509	0.828
995.133	0.805
1004.76	0.786
1014.38	0.721
1024	0.558
1033.63	0.564
1043.25	0.738
1052.88	0.768
1062.5	0.702
1072.12	0.628
1081.75	0.671
1091.37	0.727
1101	0.725
1110.62	0.581
1120.24	0.672
1129.87	0.717
1139.49	0.586
1149.12	0.356
1158.74	0.547
1168.36	0.696
1177.99	0.704
1187.61	0.762
1197.24	0.805
1206.86	0.723
1216.48	0.763
1226.11	0.688
1235.73	0.624
1245.35	0.75
1254.98	0.725
1264.6	0.654
1274.23	0.725
1283.85	0.733
1293.47	0.731
1303.1	0.693
1312.72	0.668
1322.35	0.625
1331.97	0.483
1341.59	0.412
1351.22	0.621
1360.84	0.552
1370.47	0.488
1380.09	0.373
1389.71	0.248
1399.34	0.295
1408.96	0.3
1418.59	0.259
1428.21	0.41
1437.83	0.491
1447.46	0.511
1457.08	0.379
1466.7	0.544
1476.33	0.482
1485.95	0.727
1495.58	0.675
1505.2	0.694
1514.82	0.79
1524.45	0.745
1534.07	0.722
1543.7	0.683
1553.32	0.612
1562.94	0.548
1572.57	0.586
1582.19	0.516
1591.82	0.432
1601.44	0.388
1611.06	0.372
1620.69	0.25
1630.31	0.111
1639.93	0.078
1649.56	0.174
1659.18	0.305
1668.81	0.398
1678.43	0.536
1688.05	0.667
1697.68	0.772
1707.3	0.85
1716.93	0.902
1726.55	0.93
1736.17	0.934
1745.8	0.931
1755.42	0.929
1765.05	0.935
1774.67	0.936
1784.29	0.933
1793.92	0.929
1803.54	0.883
1813.17	0.873
1822.79	0.915
1832.41	0.931
1842.04	0.931
1851.66	0.928
1861.28	0.916
1870.91	0.906
1880.53	0.899
1890.16	0.893
1899.78	0.885
1909.4	0.876
1919.03	0.867
1928.65	0.85
1938.28	0.835
1947.9	0.773
1957.52	0.847
1967.15	0.848
1976.77	0.845
1986.4	0.84
1996.02	0.834
2005.64	0.83
2015.27	0.827
2024.89	0.824
2034.52	0.822
2044.14	0.819
2053.76	0.815
2063.39	0.809
2073.01	0.804
2082.63	0.799
2092.26	0.794
2101.88	0.79
2111.51	0.785
2121.13	0.782
2130.75	0.779
2140.38	0.778
2150	0.776
2159.63	0.772
2169.25	0.77
2178.87	0.766
2188.5	0.758
2198.12	0.753
2207.75	0.75
2217.37	0.746
2226.99	0.743
2236.62	0.736
2246.24	0.73
2255.86	0.722
2265.49	0.716
2275.11	0.71
2284.74	0.705
2294.36	0.694
2303.98	0.687
2313.61	0.682
2323.23	0.674
2332.86	0.666
2342.48	0.66
2352.1	0.65
2361.73	0.644
2371.35	0.639
2380.98	0.633
2390.6	0.626
2400.22	0.615
2409.85	0.604
2419.47	0.592
2429.1	0.584
2438.72	0.574
2448.34	0.565
2457.97	0.557
2467.59	0.548
2477.21	0.518
2486.84	0.537
2496.46	0.504
2506.09	0.498
2515.71	0.485
2525.33	0.479
2534.96	0.462
2544.58	0.443
2554.21	0.423
2563.83	0.412
2573.45	0.41
2583.08	0.416
2592.7	0.407
2602.33	0.388
2611.95	0.377
2621.57	0.364
2631.2	0.347
2640.82	0.341
2650.45	0.338
2660.07	0.339
2669.69	0.343
2679.32	0.353
2688.94	0.369
2698.56	0.394
2708.19	0.396
2717.81	0.4
2727.44	0.406
2737.06	0.416
2746.68	0.434
2756.31	0.458
2765.93	0.482
2775.56	0.498
2785.18	0.516
2794.8	0.544
2804.43	0.546
2814.05	0.542
2823.68	0.539
2833.3	0.534
2842.92	0.528
2852.55	0.523
2862.17	0.509
2871.8	0.499
2881.42	0.499
2891.04	0.501
2900.67	0.5
2910.29	0.484
2919.91	0.476
2929.54	0.481
2939.16	0.511
2948.79	0.531
2958.41	0.529
2968.03	0.507
2977.66	0.546
2987.28	0.56
2996.91	0.546
3006.53	0.538
3016.15	0.591
3025.78	0.603
3035.4	0.575
3045.03	0.601
3054.65	0.633
3064.27	0.635
3073.9	0.656
3083.52	0.668
3093.14	0.668
3102.77	0.667
3112.39	0.646
3122.02	0.604
3131.64	0.664
3141.26	0.709
3150.89	0.71
3160.51	0.709
3170.14	0.708
3179.76	0.707
3189.38	0.705
3199.01	0.701
3208.63	0.697
3218.26	0.694
3227.88	0.69
3237.5	0.686
3247.13	0.683
3256.75	0.681
3266.38	0.678
3276	0.675
3285.62	0.671
3295.25	0.667
3304.87	0.663
3314.49	0.659
3324.12	0.654
3333.74	0.649
3343.37	0.644
3352.99	0.634
3362.61	0.625
3372.24	0.616
3381.86	0.601
3391.49	0.596
3401.11	0.593
3410.73	0.59
3420.36	0.588
3429.98	0.585
3439.61	0.583
3449.23	0.581
3458.85	0.579
3468.48	0.578
3478.1	0.578
3487.73	0.58
3497.35	0.582
3506.97	0.585
3516.6	0.587
3526.22	0.588
3535.84	0.591
3545.47	0.603
3555.09	0.608
3564.72	0.612
3574.34	0.618
3583.96	0.621
3593.59	0.625
3603.21	0.629
3612.84	0.633
3622.46	0.637
3632.08	0.641
3641.71	0.643
3651.33	0.645
3660.96	0.645
3670.58	0.645
3680.2	0.645
3689.83	0.644
3699.45	0.643
3709.07	0.641
3718.7	0.639
3728.32	0.637
3737.95	0.635
3747.57	0.634
3757.19	0.634
3766.82	0.635
3776.44	0.636
3786.07	0.634
3795.69	0.632
3805.31	0.63
3814.94	0.629
3824.56	0.626
3834.19	0.622
3843.81	0.619
3853.43	0.618
3863.06	0.617
3872.68	0.616
3882.31	0.616
3891.93	0.615
3901.55	0.615
3911.18	0.615
3920.8	0.615
3930.42	0.614
3940.05	0.614
3949.67	0.614
3959.3	0.614
3968.92	0.613
3978.54	0.612
3988.17	0.611
3997.79	0.611
4007.42	0.611
