Infrared Spectrum: PICRIC ACID, SODIUM SALT
Formula: C6 H2 N3 O7 Na
State: SOLID (KBr PELLET)
Class: COBLENTZ
Instrument: Not specified, most likely a prism, grating, or hybrid spectrometer.
Sampling: TRANSMISSION
Resolution: 4
Origin: TENNESSEE EASTMAN COMPANY, RESEARCH LABORATORIES
MICROMETERS	TRANSMITTANCE
2.19	0.876
2.2308	0.879
2.27159	0.879
2.31239	0.881
2.35319	0.886
2.39399	0.891
2.43478	0.895
2.47558	0.897
2.51638	0.898
2.55717	0.898
2.59797	0.897
2.63877	0.898
2.67956	0.903
2.72036	0.876
2.76116	0.682
2.80196	0.727
2.84275	0.771
2.88355	0.795
2.92435	0.797
2.96514	0.818
3.00594	0.838
3.04674	0.849
3.08753	0.859
3.12833	0.866
3.16913	0.878
3.20993	0.855
3.25072	0.725
3.29152	0.881
3.33232	0.891
3.37311	0.862
3.41391	0.85
3.45471	0.879
3.49551	0.878
3.5363	0.89
3.5771	0.903
3.6179	0.919
3.65869	0.921
3.69949	0.927
3.74029	0.931
3.78108	0.933
3.82188	0.934
3.86268	0.938
3.90348	0.936
3.94427	0.938
3.98507	0.934
4.02587	0.931
4.06666	0.931
4.10746	0.934
4.14826	0.939
4.18905	0.943
4.22985	0.955
4.27065	0.95
4.31145	0.943
4.35224	0.941
4.39304	0.948
4.43384	0.946
4.47463	0.945
4.51543	0.95
4.55623	0.951
4.59703	0.955
4.63782	0.955
4.67862	0.957
4.71942	0.951
4.76021	0.951
4.80101	0.955
4.84181	0.957
4.8826	0.957
4.9234	0.958
4.9642	0.958
5.005	0.957
5.04579	0.955
5.08659	0.957
5.12739	0.963
5.16818	0.96
5.20898	0.96
5.24978	0.963
5.29057	0.953
5.33137	0.941
5.37217	0.95
5.41297	0.958
5.45376	0.958
5.49456	0.958
5.53536	0.962
5.57615	0.96
5.61695	0.958
5.65775	0.957
5.69855	0.95
5.73934	0.945
5.78014	0.939
5.82094	0.931
5.86173	0.917
5.90253	0.905
5.94333	0.893
5.98412	0.847
6.02492	0.641
6.06572	0.149
6.10652	0.193
6.14731	0.301
6.18811	0.452
6.22891	0.639
6.2697	0.758
6.3105	0.789
6.3513	0.583
6.39209	0.248
6.43289	0.399
6.47369	0.629
6.51449	0.687
6.55528	0.66
6.59608	0.689
6.63688	0.602
6.67767	0.346
6.71847	0.6
6.75927	0.68
6.80007	0.806
6.84086	0.833
6.88166	0.811
6.92246	0.674
6.96325	0.409
7.00405	0.629
7.04485	0.804
7.08564	0.823
7.12644	0.83
7.16724	0.828
7.20804	0.794
7.24883	0.619
7.28963	0.379
7.33043	0.476
7.37122	0.43
7.41202	0.106
7.45282	0.104
7.49362	0.077
7.53441	0.205
7.57521	0.452
7.61601	0.619
7.6568	0.698
7.6976	0.646
7.7384	0.519
7.77919	0.255
7.81999	0.241
7.86079	0.339
7.90159	0.557
7.94238	0.68
7.98318	0.711
8.02398	0.759
8.06477	0.809
8.10557	0.862
8.14637	0.902
8.18716	0.922
8.22796	0.931
8.26876	0.936
8.30956	0.946
8.35035	0.95
8.39115	0.948
8.43195	0.953
8.47274	0.95
8.51354	0.909
8.55434	0.79
8.59514	0.749
8.63593	0.857
8.67673	0.927
8.71753	0.948
8.75832	0.957
8.79912	0.963
8.83992	0.974
8.88071	0.975
8.92151	0.974
8.96231	0.965
9.00311	0.972
9.0439	0.972
9.0847	0.972
9.1255	0.963
9.16629	0.895
9.20709	0.825
9.24789	0.768
9.28868	0.905
9.32948	0.939
9.37028	0.946
9.41108	0.948
9.45187	0.948
9.49267	0.946
9.53347	0.936
9.57426	0.929
9.61506	0.929
9.65586	0.929
9.69666	0.929
9.73745	0.924
9.77825	0.919
9.81905	0.917
9.85984	0.922
9.90064	0.934
9.94144	0.938
9.98223	0.941
10.023	0.946
10.0638	0.95
10.1046	0.953
10.1454	0.957
10.1862	0.957
10.227	0.953
10.2678	0.951
10.3086	0.957
10.3494	0.967
10.3902	0.967
10.431	0.965
10.4718	0.958
10.5126	0.941
10.5534	0.927
10.5942	0.885
10.635	0.864
10.6758	0.898
10.7166	0.801
10.7574	0.747
10.7982	0.866
10.839	0.919
10.8798	0.914
10.9206	0.799
10.9614	0.725
11.0022	0.775
11.043	0.862
11.0838	0.914
11.1246	0.936
11.1653	0.945
11.2061	0.95
11.2469	0.953
11.2877	0.955
11.3285	0.958
11.3693	0.96
11.4101	0.963
11.4509	0.965
11.4917	0.965
11.5325	0.965
11.5733	0.965
11.6141	0.967
11.6549	0.969
11.6957	0.972
11.7365	0.972
11.7773	0.97
11.8181	0.969
11.8589	0.962
11.8997	0.957
11.9405	0.951
11.9813	0.958
12.0221	0.97
12.0629	0.972
12.1037	0.97
12.1445	0.969
12.1853	0.97
12.2261	0.975
12.2669	0.977
12.3077	0.979
12.3485	0.979
12.3893	0.979
12.4301	0.974
12.4709	0.975
12.5117	0.969
12.5524	0.948
12.5932	0.833
12.634	0.62
12.6748	0.828
12.7156	0.939
12.7564	0.953
12.7972	0.962
12.838	0.967
12.8788	0.97
12.9196	0.97
12.9604	0.97
13.0012	0.97
13.042	0.967
13.0828	0.969
13.1236	0.962
13.1644	0.955
13.2052	0.941
13.246	0.91
13.2868	0.837
13.3276	0.756
13.3684	0.739
13.4092	0.819
13.45	0.886
13.4908	0.917
13.5316	0.931
13.5724	0.931
13.6132	0.922
13.654	0.907
13.6948	0.857
13.7356	0.782
13.7764	0.768
13.8172	0.814
13.858	0.83
13.8988	0.783
13.9395	0.71
13.9803	0.668
14.0211	0.701
14.0619	0.749
14.1027	0.794
14.1435	0.819
14.1843	0.849
14.2251	0.876
14.2659	0.89
14.3067	0.898
14.3475	0.909
14.3883	0.915
14.4291	0.919
14.4699	0.915
14.5107	0.917
14.5515	0.907
14.5923	0.89
14.6331	0.876
14.6739	0.85
14.7147	0.835
14.7555	0.833
14.7963	0.85
14.8371	0.866
14.8779	0.876
14.9187	0.876
14.9595	0.874
15.0003	0.852
15.0411	0.837
15.0819	0.835
15.1227	0.838
15.1635	0.83
15.2043	0.826
15.2451	0.818
15.2858	0.813
15.3266	0.807
15.3674	0.797
15.4082	0.794
15.449	0.789
15.4898	0.778
15.5306	0.777
15.5714	0.777
15.6122	0.77
15.653	0.768
15.6938	0.765
15.7346	0.759
15.7754	0.758
15.8162	0.746
15.857	0.744
15.8978	0.746
15.9386	0.746
