Infrared Spectrum: 1-CYCLOPENTADIENYL-3-CHLORO-1,1,3,3-TETRAMETHYL DISILOXANE
Formula: C9 H17 Cl O Si2
State: LIQUID
Class: COBLENTZ
Instrument: Not specified, most likely a prism, grating, or hybrid spectrometer.
Sampling: TRANSMISSION
Path length: CAPILLARY
Resolution: 4
Origin: WYANDOTTE CHEMICALS CORP., WYANDOTTE, MICHIGAN, USA
MICROMETERS	TRANSMITTANCE
2.06	0.925
2.09981	0.932
2.13962	0.933
2.17943	0.935
2.21923	0.933
2.25904	0.933
2.29885	0.935
2.33866	0.937
2.37847	0.938
2.41828	0.938
2.45809	0.938
2.4979	0.938
2.5377	0.938
2.57751	0.942
2.61732	0.942
2.65713	0.938
2.69694	0.937
2.73675	0.943
2.77656	0.947
2.81636	0.938
2.85617	0.94
2.89598	0.942
2.93579	0.94
2.9756	0.938
3.01541	0.937
3.05522	0.935
3.09503	0.935
3.13483	0.935
3.17464	0.93
3.21445	0.904
3.25426	0.849
3.29407	0.909
3.33388	0.852
3.37369	0.768
3.41349	0.867
3.4533	0.864
3.49311	0.905
3.53292	0.927
3.57273	0.937
3.61254	0.943
3.65235	0.952
3.69215	0.958
3.73196	0.96
3.77177	0.961
3.81158	0.963
3.85139	0.963
3.8912	0.963
3.93101	0.963
3.97082	0.965
4.01062	0.97
4.05043	0.97
4.09024	0.966
4.13005	0.963
4.16986	0.96
4.20967	0.96
4.24948	0.965
4.28928	0.98
4.32909	0.973
4.3689	0.97
4.40871	0.968
4.44852	0.966
4.48833	0.971
4.52814	0.973
4.56795	0.973
4.60775	0.971
4.64756	0.968
4.68737	0.97
4.72718	0.968
4.76699	0.968
4.8068	0.975
4.84661	0.973
4.88641	0.97
4.92622	0.973
4.96603	0.976
5.00584	0.975
5.04565	0.973
5.08546	0.973
5.12527	0.97
5.16508	0.965
5.20488	0.961
5.24469	0.965
5.2845	0.97
5.32431	0.973
5.36412	0.975
5.40393	0.973
5.44374	0.973
5.48354	0.966
5.52335	0.961
5.56316	0.963
5.60297	0.965
5.64278	0.965
5.68259	0.963
5.7224	0.961
5.76221	0.96
5.80201	0.958
5.84182	0.957
5.88163	0.953
5.92144	0.952
5.96125	0.95
6.00106	0.937
6.04087	0.923
6.08067	0.902
6.12048	0.895
6.16029	0.917
6.2001	0.932
6.23991	0.938
6.27972	0.945
6.31953	0.932
6.35934	0.935
6.39914	0.932
6.43895	0.94
6.47876	0.932
6.51857	0.937
6.55838	0.93
6.59819	0.933
6.638	0.925
6.6778	0.919
6.71761	0.909
6.75742	0.917
6.79723	0.879
6.83704	0.889
6.87685	0.894
6.91666	0.9
6.95646	0.894
6.99627	0.882
7.03608	0.839
7.07589	0.801
7.1157	0.803
7.15551	0.846
7.19532	0.877
7.23513	0.842
7.27493	0.885
7.31474	0.877
7.35455	0.909
7.39436	0.914
7.43417	0.884
7.47398	0.907
7.51379	0.927
7.55359	0.93
7.5934	0.93
7.63321	0.925
7.67302	0.909
7.71283	0.895
7.75264	0.869
7.79245	0.854
7.83226	0.79
7.87206	0.641
7.91187	0.267
7.95168	0.231
7.99149	0.485
8.0313	0.768
8.07111	0.849
8.11092	0.884
8.15072	0.899
8.19053	0.9
8.23034	0.907
8.27015	0.902
8.30996	0.899
8.34977	0.902
8.38958	0.907
8.42939	0.919
8.46919	0.91
8.509	0.897
8.54881	0.889
8.58862	0.877
8.62843	0.854
8.66824	0.836
8.70805	0.813
8.74785	0.778
8.78766	0.74
8.82747	0.694
8.86728	0.638
8.90709	0.565
8.9469	0.509
8.98671	0.456
9.02652	0.366
9.06632	0.305
9.10613	0.256
9.14594	0.219
9.18575	0.195
9.22556	0.152
9.26537	0.143
9.30518	0.138
9.34498	0.14
9.38479	0.153
9.4246	0.181
9.46441	0.216
9.50422	0.266
9.54403	0.317
9.58384	0.373
9.62365	0.436
9.66345	0.497
9.70326	0.563
9.74307	0.618
9.78288	0.664
9.82269	0.692
9.8625	0.685
9.90231	0.727
9.94211	0.74
9.98192	0.72
10.0217	0.662
10.0615	0.608
10.1013	0.55
10.1412	0.492
10.181	0.452
10.2208	0.451
10.2606	0.507
10.3004	0.588
10.3402	0.666
10.38	0.742
10.4198	0.752
10.4596	0.709
10.4994	0.588
10.5392	0.482
10.5791	0.596
10.6189	0.738
10.6587	0.798
10.6985	0.828
10.7383	0.834
10.7781	0.839
10.8179	0.849
10.8577	0.847
10.8975	0.839
10.9373	0.828
10.9771	0.793
11.0169	0.72
11.0568	0.74
11.0966	0.765
11.1364	0.757
11.1762	0.755
11.216	0.781
11.2558	0.79
11.2956	0.786
11.3354	0.773
11.3752	0.752
11.415	0.73
11.4548	0.712
11.4947	0.671
11.5345	0.642
11.5743	0.591
11.6141	0.54
11.6539	0.492
11.6937	0.467
11.7335	0.476
11.7733	0.494
11.8131	0.514
11.8529	0.522
11.8927	0.514
11.9325	0.494
11.9724	0.452
12.0122	0.38
12.052	0.33
12.0918	0.292
12.1316	0.287
12.1714	0.294
12.2112	0.29
12.251	0.271
12.2908	0.269
12.3306	0.274
12.3704	0.252
12.4103	0.203
12.4501	0.163
12.4899	0.135
12.5297	0.135
12.5695	0.155
12.6093	0.214
12.6491	0.289
12.6889	0.393
12.7287	0.469
12.7685	0.522
12.8083	0.57
12.8481	0.629
12.888	0.676
12.9278	0.699
12.9676	0.704
13.0074	0.669
13.0472	0.621
13.087	0.542
13.1268	0.507
13.1666	0.545
13.2064	0.611
13.2462	0.659
13.286	0.69
13.3259	0.695
13.3657	0.672
13.4055	0.647
13.4453	0.633
13.4851	0.651
13.5249	0.694
13.5647	0.723
13.6045	0.735
13.6443	0.732
13.6841	0.72
13.7239	0.695
13.7637	0.666
13.8036	0.636
13.8434	0.624
13.8832	0.628
13.923	0.651
13.9628	0.671
14.0026	0.674
14.0424	0.666
14.0822	0.652
14.122	0.624
14.1618	0.591
14.2016	0.537
14.2414	0.5
14.2813	0.489
14.3211	0.504
14.3609	0.519
14.4007	0.547
14.4405	0.568
14.4803	0.578
14.5201	0.585
14.5599	0.578
14.5997	0.581
14.6395	0.576
14.6793	0.591
14.7192	0.609
14.759	0.646
14.7988	0.68
14.8386	0.697
14.8784	0.714
14.9182	0.72
14.958	0.717
14.9978	0.712
15.0376	0.702
15.0774	0.705
15.1172	0.72
15.157	0.733
15.1969	0.745
15.2367	0.752
15.2765	0.755
15.3163	0.763
15.3561	0.748
15.3959	0.742
15.4357	0.742
15.4755	0.737
15.5153	0.752
15.5551	0.76
15.5949	0.768
15.6348	0.776
15.6746	0.775
15.7144	0.776
15.7542	0.775
15.794	0.773
15.8338	0.771
15.8736	0.766
15.9134	0.766
15.9532	0.763
15.993	0.755
