Infrared Spectrum: 1,1'-DIBENZYL FERROCENE
Formula: C24 H22 Fe
State: SOLID (MINERAL OIL MULL)
Melting point: 102-103 C
Class: COBLENTZ
Instrument: Not specified, most likely a prism, grating, or hybrid spectrometer.
Sampling: TRANSMISSION
Resolution: 4
Origin: WYANDOTTE CHEMICALS CORP., WYANDOTTE, MICHIGAN, USA
MICROMETERS	TRANSMITTANCE
2.014	0.265
2.05486	0.277
2.09571	0.284
2.13657	0.282
2.17742	0.285
2.21828	0.291
2.25913	0.297
2.29999	0.301
2.34084	0.304
2.3817	0.315
2.42256	0.318
2.46341	0.323
2.50427	0.32
2.54512	0.33
2.58598	0.335
2.62683	0.347
2.66769	0.359
2.70854	0.359
2.7494	0.368
2.79026	0.364
2.83111	0.373
2.87197	0.371
2.91282	0.371
2.95368	0.371
2.99453	0.381
3.03539	0.386
3.07624	0.395
3.1171	0.397
3.15796	0.392
3.19881	0.388
3.23967	0.335
3.28052	0.294
3.32138	0.26
3.36223	0.147
3.40309	0.054
3.44394	0.053
3.4848	0.119
3.52566	0.171
3.56651	0.479
3.60737	0.501
3.64822	0.511
3.68908	0.511
3.72993	0.51
3.77079	0.532
3.81164	0.53
3.8525	0.541
3.89336	0.551
3.93421	0.553
3.97507	0.566
4.01592	0.57
4.05678	0.573
4.09763	0.575
4.13849	0.58
4.17934	0.582
4.2202	0.585
4.26106	0.578
4.30191	0.589
4.34277	0.59
4.38362	0.601
4.42448	0.607
4.46533	0.609
4.50619	0.611
4.54704	0.616
4.5879	0.623
4.62876	0.63
4.66961	0.631
4.71047	0.642
4.75132	0.654
4.79218	0.659
4.83303	0.666
4.87389	0.662
4.91474	0.664
4.9556	0.669
4.99646	0.674
5.03731	0.684
5.07817	0.688
5.11902	0.674
5.15988	0.667
5.20073	0.659
5.24159	0.69
5.28244	0.696
5.3233	0.688
5.36416	0.691
5.40501	0.695
5.44587	0.698
5.48672	0.715
5.52758	0.698
5.56843	0.696
5.60929	0.691
5.65014	0.693
5.691	0.69
5.73186	0.681
5.77271	0.684
5.81357	0.698
5.85442	0.693
5.89528	0.695
5.93613	0.676
5.97699	0.678
6.01784	0.686
6.0587	0.696
6.09956	0.693
6.14041	0.734
6.18127	0.755
6.22212	0.513
6.26298	0.676
6.30383	0.652
6.34469	0.732
6.38554	0.736
6.4264	0.744
6.46726	0.756
6.50811	0.777
6.54897	0.779
6.58982	0.803
6.63068	0.813
6.67153	0.301
6.71239	0.5
6.75324	0.527
6.7941	0.299
6.83496	0.301
6.87581	0.193
6.91667	0.441
6.95752	0.583
6.99838	0.623
7.03923	0.662
7.08009	0.712
7.12094	0.72
7.1618	0.654
7.20266	0.604
7.24351	0.551
7.28437	0.561
7.32522	0.59
7.36608	0.734
7.40693	0.744
7.44779	0.751
7.48864	0.755
7.5295	0.739
7.57036	0.732
7.61121	0.753
7.65207	0.76
7.69292	0.763
7.73378	0.734
7.77463	0.7
7.81549	0.683
7.85634	0.753
7.8972	0.751
7.93806	0.738
7.97891	0.77
8.01977	0.773
8.06062	0.729
8.10148	0.777
8.14233	0.761
8.18319	0.65
8.22404	0.751
8.2649	0.792
8.30576	0.803
8.34661	0.773
8.38747	0.792
8.42832	0.811
8.46918	0.794
8.51003	0.796
8.55089	0.816
8.59174	0.827
8.6326	0.813
8.67346	0.804
8.71431	0.828
8.75517	0.794
8.79602	0.784
8.83688	0.821
8.87773	0.772
8.91859	0.813
8.95944	0.833
9.0003	0.825
9.04116	0.816
9.08201	0.823
9.12287	0.823
9.16372	0.816
9.20458	0.828
9.24543	0.803
9.28629	0.705
9.32714	0.561
9.368	0.623
9.40886	0.773
9.44971	0.806
9.49057	0.792
9.53142	0.602
9.57228	0.751
9.61313	0.573
9.65399	0.303
9.69484	0.553
9.7357	0.44
9.77656	0.323
9.81741	0.428
9.85827	0.703
9.89912	0.785
9.93998	0.796
9.98083	0.724
10.0217	0.779
10.0625	0.823
10.1034	0.839
10.1443	0.837
10.1851	0.801
10.226	0.784
10.2668	0.833
10.3077	0.828
10.3485	0.839
10.3894	0.835
10.4302	0.837
10.4711	0.839
10.512	0.852
10.5528	0.839
10.5937	0.852
10.6345	0.863
10.6754	0.851
10.7162	0.832
10.7571	0.784
10.7979	0.703
10.8388	0.707
10.8797	0.568
10.9205	0.647
10.9614	0.772
11.0022	0.794
11.0431	0.782
11.0839	0.808
11.1248	0.84
11.1656	0.845
11.2065	0.859
11.2474	0.856
11.2882	0.856
11.3291	0.852
11.3699	0.83
11.4108	0.852
11.4516	0.849
11.4925	0.78
11.5333	0.703
11.5742	0.75
11.6151	0.815
11.6559	0.832
11.6968	0.854
11.7376	0.863
11.7785	0.868
11.8193	0.866
11.8602	0.849
11.901	0.785
11.9419	0.803
11.9828	0.837
12.0236	0.823
12.0645	0.684
12.1053	0.308
12.1462	0.224
12.187	0.248
12.2279	0.383
12.2687	0.455
12.3096	0.477
12.3505	0.489
12.3913	0.505
12.4322	0.559
12.473	0.625
12.5139	0.683
12.5547	0.714
12.5956	0.731
12.6364	0.773
12.6773	0.787
12.7182	0.806
12.759	0.809
12.7999	0.818
12.8407	0.811
12.8816	0.791
12.9224	0.708
12.9633	0.585
13.0041	0.623
13.045	0.75
13.0859	0.794
13.1267	0.806
13.1676	0.806
13.2084	0.799
13.2493	0.773
13.2901	0.715
13.331	0.635
13.3718	0.597
13.4127	0.669
13.4536	0.736
13.4944	0.763
13.5353	0.76
13.5761	0.767
13.617	0.755
13.6578	0.748
13.6987	0.732
13.7395	0.705
13.7804	0.657
13.8213	0.568
13.8621	0.405
13.903	0.267
13.9438	0.181
13.9847	0.227
14.0255	0.366
14.0664	0.446
14.1072	0.426
14.1481	0.304
14.189	0.181
14.2298	0.113
14.2707	0.109
14.3115	0.19
14.3524	0.356
14.3932	0.484
14.4341	0.51
14.4749	0.46
14.5158	0.429
14.5567	0.501
14.5975	0.607
14.6384	0.698
14.6792	0.719
14.7201	0.712
14.7609	0.707
14.8018	0.712
14.8426	0.732
14.8835	0.746
14.9244	0.753
14.9652	0.758
15.0061	0.756
15.0469	0.724
15.0878	0.686
15.1286	0.669
15.1695	0.707
15.2103	0.724
15.2512	0.738
15.2921	0.734
15.3329	0.732
15.3738	0.715
15.4146	0.712
15.4555	0.705
15.4963	0.695
15.5372	0.688
15.578	0.678
15.6189	0.666
15.6598	0.664
15.7006	0.647
15.7415	0.643
15.7823	0.63
15.8232	0.616
15.864	0.599
15.9049	0.575
15.9457	0.571
15.9866	0.561
