Infrared Spectrum: DICHLOROCYANURIC ACID, SODIUM SALT
Formula: C3 Cl2 N3 Na O3
State: SOLID (ARNEEL C MULL)
Class: COBLENTZ
Instrument: PERKIN-ELMER
Sampling: TRANSMISSION
Resolution: 4
MICROMETERS	TRANSMITTANCE
2.024	0.877
2.06074	0.877
2.09748	0.879
2.13423	0.879
2.17097	0.883
2.20771	0.888
2.24445	0.888
2.28119	0.892
2.31793	0.892
2.35468	0.891
2.39142	0.889
2.42816	0.892
2.4649	0.889
2.50164	0.889
2.53838	0.892
2.57513	0.892
2.61187	0.898
2.64861	0.898
2.68535	0.895
2.72209	0.856
2.75884	0.761
2.79558	0.794
2.83232	0.785
2.86906	0.82
2.9058	0.846
2.94254	0.86
2.97929	0.866
3.01603	0.859
3.05277	0.852
3.08951	0.846
3.12625	0.845
3.16299	0.846
3.19974	0.856
3.23648	0.851
3.27322	0.852
3.30996	0.859
3.3467	0.848
3.38345	0.828
3.42019	0.82
3.45693	0.83
3.49367	0.84
3.53041	0.859
3.56715	0.863
3.6039	0.866
3.64064	0.871
3.67738	0.877
3.71412	0.882
3.75086	0.882
3.7876	0.885
3.82435	0.886
3.86109	0.889
3.89783	0.888
3.93457	0.891
3.97131	0.892
4.00806	0.892
4.0448	0.894
4.08154	0.897
4.11828	0.895
4.15502	0.897
4.19176	0.898
4.22851	0.897
4.26525	0.891
4.30199	0.891
4.33873	0.894
4.37547	0.895
4.41221	0.898
4.44896	0.897
4.4857	0.897
4.52244	0.898
4.55918	0.905
4.59592	0.906
4.63267	0.909
4.66941	0.909
4.70615	0.906
4.74289	0.905
4.77963	0.906
4.81637	0.908
4.85312	0.909
4.88986	0.906
4.9266	0.905
4.96334	0.906
5.00008	0.909
5.03683	0.909
5.07357	0.909
5.11031	0.908
5.14705	0.908
5.18379	0.906
5.22053	0.906
5.25728	0.906
5.29402	0.905
5.33076	0.903
5.3675	0.905
5.40424	0.903
5.44098	0.9
5.47773	0.891
5.51447	0.877
5.55121	0.851
5.58795	0.83
5.62469	0.782
5.66144	0.709
5.69818	0.637
5.73492	0.6
5.77166	0.499
5.8084	0.442
5.84514	0.359
5.88189	0.315
5.91863	0.267
5.95537	0.343
5.99211	0.393
6.02885	0.292
6.06559	0.245
6.10234	0.238
6.13908	0.208
6.17582	0.189
6.21256	0.223
6.2493	0.321
6.28605	0.436
6.32279	0.528
6.35953	0.635
6.39627	0.666
6.43301	0.713
6.46975	0.736
6.5065	0.759
6.54324	0.776
6.57998	0.782
6.61672	0.745
6.65346	0.742
6.6902	0.776
6.72695	0.79
6.76369	0.79
6.80043	0.764
6.83717	0.758
6.87391	0.739
6.91066	0.71
6.9474	0.609
6.98414	0.474
7.02088	0.493
7.05762	0.562
7.09436	0.624
7.13111	0.692
7.16785	0.732
7.20459	0.768
7.24133	0.776
7.27807	0.771
7.31481	0.761
7.35156	0.727
7.3883	0.661
7.42504	0.592
7.46178	0.545
7.49852	0.534
7.53527	0.531
7.57201	0.471
7.60875	0.457
7.64549	0.327
7.68223	0.254
7.71897	0.287
7.75572	0.434
7.79246	0.601
7.8292	0.686
7.86594	0.741
7.90268	0.782
7.93942	0.803
7.97617	0.813
8.01291	0.813
8.04965	0.787
8.08639	0.784
8.12313	0.82
8.15988	0.834
8.19662	0.845
8.23336	0.846
8.2701	0.852
8.30684	0.854
8.34358	0.852
8.38033	0.854
8.41707	0.859
8.45381	0.866
8.49055	0.869
8.52729	0.871
8.56403	0.866
8.60078	0.859
8.63752	0.857
8.67426	0.86
8.711	0.866
8.74774	0.872
8.78449	0.88
8.82123	0.885
8.85797	0.883
8.89471	0.889
8.93145	0.889
8.96819	0.889
9.00494	0.892
9.04168	0.894
9.07842	0.892
9.11516	0.892
9.1519	0.894
9.18864	0.892
9.22539	0.894
9.26213	0.897
9.29887	0.897
9.33561	0.882
9.37235	0.871
9.4091	0.788
9.44584	0.831
9.48258	0.851
9.51932	0.863
9.55606	0.874
9.5928	0.888
9.62955	0.9
9.66629	0.908
9.70303	0.911
9.73977	0.909
9.77651	0.911
9.81325	0.911
9.85	0.911
9.88674	0.911
9.92348	0.906
9.96022	0.909
9.99696	0.909
10.0337	0.912
10.0704	0.911
10.1072	0.906
10.1439	0.908
10.1807	0.908
10.2174	0.908
10.2542	0.908
10.2909	0.909
10.3276	0.906
10.3644	0.908
10.4011	0.909
10.4379	0.914
10.4746	0.908
10.5113	0.911
10.5481	0.911
10.5848	0.911
10.6216	0.911
10.6583	0.914
10.6951	0.914
10.7318	0.911
10.7685	0.914
10.8053	0.911
10.842	0.911
10.8788	0.911
10.9155	0.911
10.9522	0.911
10.989	0.909
11.0257	0.911
11.0625	0.912
11.0992	0.915
11.136	0.914
11.1727	0.914
11.2094	0.914
11.2462	0.909
11.2829	0.909
11.3197	0.909
11.3564	0.911
11.3932	0.912
11.4299	0.912
11.4666	0.911
11.5034	0.909
11.5401	0.908
11.5769	0.909
11.6136	0.908
11.6503	0.906
11.6871	0.908
11.7238	0.908
11.7606	0.905
11.7973	0.905
11.8341	0.906
11.8708	0.906
11.9075	0.901
11.9443	0.905
11.981	0.906
12.0178	0.906
12.0545	0.908
12.0912	0.901
12.128	0.905
12.1647	0.905
12.2015	0.903
12.2382	0.897
12.275	0.891
12.3117	0.892
12.3484	0.892
12.3852	0.889
12.4219	0.879
12.4587	0.856
12.4954	0.842
12.5321	0.849
12.5689	0.856
12.6056	0.859
12.6424	0.825
12.6791	0.704
12.7159	0.66
12.7526	0.705
12.7893	0.787
12.8261	0.826
12.8628	0.839
12.8996	0.849
12.9363	0.851
12.973	0.859
13.0098	0.871
13.0465	0.877
13.0833	0.889
13.12	0.892
13.1568	0.872
13.1935	0.851
13.2302	0.762
13.267	0.728
13.3037	0.733
13.3405	0.618
13.3772	0.503
13.4139	0.566
13.4507	0.664
13.4874	0.751
13.5242	0.803
13.5609	0.817
13.5977	0.849
13.6344	0.871
13.6711	0.869
13.7079	0.785
13.7446	0.683
13.7814	0.721
13.8181	0.802
13.8548	0.842
13.8916	0.83
13.9283	0.822
13.9651	0.796
14.0018	0.787
14.0386	0.823
14.0753	0.866
14.112	0.898
14.1488	0.908
14.1855	0.912
14.2223	0.92
14.259	0.931
14.2958	0.941
14.3325	0.947
14.3692	0.95
14.406	0.961
14.4427	0.966
14.4795	0.969
14.5162	0.969
14.5529	0.972
14.5897	0.972
14.6264	0.981
14.6632	0.984
14.6999	0.989
14.7367	0.989
14.7734	0.995
14.8101	1.004
14.8469	1.007
14.8836	1.015
14.9204	1.021
14.9571	1.024
14.9938	1.019
15.0306	1.019
15.0673	1.021
15.1041	1.03
15.1408	1.032
15.1776	1.03
15.2143	1.03
15.251	1.032
15.2878	1.03
15.3245	1.03
15.3613	1.032
15.398	1.032
15.4347	1.032
15.4715	1.032
15.5082	1.032
