Infrared Spectrum: CYCLOHEXANE-1,3-DIONE, 5,5-DIMETHYL-2-(3'-CARBETHOXYPROPYL)-
Formula: C14 H22 O4
State: SOLID (0.8 mg / 650 mg KBr DISC)
Melting point: 114 C
Class: COBLENTZ III
Instrument: PERKIN-ELMER 21 (GRATING)
Instrument parameters: FILTER CHANGE AT 1070 CM^-^1
Sampling: TRANSMISSION
Resolution: 2
Origin: SOUTHERN RESEARCH INSTITUTE
1/CM	TRANSMITTANCE
694.852	0.967
704.052	0.946
713.253	0.927
722.453	0.907
731.654	0.844
740.854	0.868
750.055	0.853
759.255	0.789
768.456	0.873
777.656	0.864
786.857	0.853
796.057	0.853
805.258	0.844
814.458	0.844
823.659	0.844
832.859	0.839
842.06	0.823
851.26	0.7501
860.46	0.739
869.661	0.715
878.861	0.626
888.062	0.6839
897.262	0.723
906.463	0.725
915.663	0.6851
924.864	0.7069
934.064	0.773
943.265	0.79
952.465	0.785
961.666	0.748
970.866	0.677
980.067	0.581
989.267	0.752
998.468	0.718
1007.67	0.6691
1016.87	0.55
1026.07	0.453
1035.27	0.4378
1044.47	0.6599
1053.67	0.638
1062.87	0.58
1072.07	0.4551
1081.27	0.342
1090.47	0.439
1099.67	0.4879
1108.87	0.4591
1118.07	0.322
1127.27	0.0892
1136.47	0.0639
1145.68	0.2919
1154.88	0.457
1164.08	0.418
1173.28	0.419
1182.48	0.567
1191.68	0.571
1200.88	0.536
1210.08	0.465
1219.28	0.3431
1228.48	0.2521
1237.68	0.097
1246.88	0.0441
1256.08	0.317
1265.28	0.21
1274.48	0.071
1283.68	0.2851
1292.88	0.248
1302.08	0.073
1311.28	0.2938
1320.48	0.34
1329.68	0.231
1338.88	0.101
1348.09	0.022
1357.29	0.06
1366.49	0.042
1375.69	0.01
1384.89	0.05
1394.09	0.167
1403.29	0.1652
1412.49	0.148
1421.69	0.182
1430.89	0.281
1440.09	0.297
1449.29	0.33
1458.49	0.4
1467.69	0.5017
1476.89	0.569
1486.09	0.586
1495.29	0.581
1504.49	0.51
1513.69	0.423
1522.89	0.261
1532.09	0.106
1541.3	0.019
1550.5	0.06
1559.7	0.1398
1568.9	0.2839
1578.1	0.447
1587.3	0.5529
1596.5	0.6469
1605.7	0.656
1614.9	0.63
1624.1	0.5021
1633.3	0.572
1642.5	0.744
1651.7	0.776
1660.9	0.778
1670.1	0.768
1679.3	0.6901
1688.5	0.5631
1697.7	0.48
1706.9	0.352
1716.1	0.1361
1725.3	0.1009
1734.51	0.382
1743.71	0.6277
1752.91	0.717
1762.11	0.772
1771.31	0.798
1780.51	0.817
1789.71	0.828
1798.91	0.846
1808.11	0.852
1817.31	0.857
1826.51	0.861
1835.71	0.865
1844.91	0.869
1854.11	0.873
1863.31	0.875
1872.51	0.876
1881.71	0.881
1890.91	0.889
1900.11	0.894
1909.31	0.894
1918.51	0.894
1927.72	0.894
1936.92	0.897
1946.12	0.898
1955.32	0.9
1964.52	0.902
1973.72	0.902
1982.92	0.901
1992.12	0.898
2001.32	0.897
2010.52	0.9
2019.72	0.902
2028.92	0.901
2038.12	0.9
2047.32	0.9
2056.52	0.9
2065.72	0.898
2074.92	0.897
2084.12	0.8961
2093.32	0.894
2102.52	0.893
2111.72	0.89
2120.92	0.885
2130.13	0.8773
2139.33	0.875
2148.53	0.871
2157.73	0.8641
2166.93	0.86
2176.13	0.857
2185.33	0.8512
2194.53	0.8462
2203.73	0.838
2212.93	0.8302
2222.13	0.822
2231.33	0.8154
2240.53	0.8062
2249.73	0.7944
2258.93	0.7866
2268.13	0.7762
2277.33	0.7655
2286.53	0.7527
2295.73	0.7392
2304.93	0.711
2314.13	0.6905
2323.34	0.6738
2332.54	0.6618
2341.74	0.6503
2350.94	0.6433
2360.14	0.6353
2369.34	0.628
2378.54	0.6239
2387.74	0.6143
2396.94	0.6013
2406.14	0.574
2415.34	0.5537
2424.54	0.5287
2433.74	0.5111
2442.94	0.4867
2452.14	0.4754
2461.34	0.4634
2470.54	0.4578
2479.74	0.4488
2488.94	0.442
2498.14	0.435
2507.34	0.4314
2516.55	0.4243
2525.75	0.41
2534.95	0.4002
2544.15	0.3855
2553.35	0.3715
2562.55	0.365
2571.75	0.3595
2580.95	0.3484
2590.15	0.337
2599.35	0.331
2608.55	0.33
2617.75	0.328
2626.95	0.329
2636.15	0.3315
2645.35	0.3444
2654.55	0.3539
2663.75	0.3644
2672.95	0.3818
2682.15	0.4022
2691.35	0.4207
2700.55	0.4333
2709.76	0.4464
2718.96	0.4652
2728.16	0.4764
2737.36	0.4943
2746.56	0.511
2755.76	0.511
2764.96	0.511
2774.16	0.5066
2783.36	0.4927
2792.56	0.48
2801.76	0.4623
2810.96	0.4417
2820.16	0.4204
2829.36	0.3874
2838.56	0.3493
2847.76	0.3164
2856.96	0.313
2866.16	0.311
2875.36	0.3052
2884.56	0.2869
2893.76	0.2675
2902.97	0.2333
2912.17	0.227
2921.37	0.227
2930.57	0.227
2939.77	0.2312
2948.97	0.2495
2958.17	0.2946
2967.37	0.3424
2976.57	0.3754
2985.77	0.4052
2994.97	0.4319
3004.17	0.4533
3013.37	0.4552
3022.57	0.461
3031.77	0.464
3040.97	0.464
3050.17	0.4653
3059.37	0.4732
3068.57	0.4801
3077.77	0.4921
3086.97	0.5098
3096.17	0.5324
3105.38	0.5489
3114.58	0.5775
3123.78	0.6001
3132.98	0.6281
3142.18	0.635
3151.38	0.646
3160.58	0.6531
3169.78	0.664
3178.98	0.672
3188.18	0.681
3197.38	0.69
3206.58	0.697
3215.78	0.701
3224.98	0.705
3234.18	0.7139
3243.38	0.721
3252.58	0.728
3261.78	0.731
3270.98	0.731
3280.18	0.728
3289.38	0.727
3298.59	0.725
3307.79	0.722
3316.99	0.7171
3326.19	0.7112
3335.39	0.703
3344.59	0.6933
3353.79	0.69
3362.99	0.6823
3372.19	0.6711
3381.39	0.6613
3390.59	0.6533
3399.79	0.647
3408.99	0.644
3418.19	0.6468
3427.39	0.65
3436.59	0.6638
3445.79	0.6728
3454.99	0.6848
3464.19	0.6996
3473.39	0.706
3482.59	0.7098
3491.8	0.7288
3501	0.7423
3510.2	0.7557
3519.4	0.7665
3528.6	0.7767
3537.8	0.7882
3547	0.7977
3556.2	0.8107
3565.4	0.8201
3574.6	0.8371
3583.8	0.848
3593	0.858
3602.2	0.874
3611.4	0.8817
3620.6	0.8887
3629.8	0.8936
3639	0.9006
3648.2	0.905
3657.4	0.907
3666.6	0.9168
3675.8	0.919
3685.01	0.9216
3694.21	0.923
3703.41	0.93
3712.61	0.931
3721.81	0.931
3731.01	0.931
3740.21	0.931
3749.41	0.931
3758.61	0.931
3767.81	0.9331
3777.01	0.934
3786.21	0.934
3795.41	0.934
3804.61	0.934
3813.81	0.934
3823.01	0.934
3832.21	0.934
3841.41	0.934
3850.61	0.934
3859.81	0.934
3869.01	0.934
3878.21	0.934
3887.42	0.934
3896.62	0.934
3905.82	0.934
3915.02	0.934
3924.22	0.934
3933.42	0.934
3942.62	0.9344
3951.82	0.935
3961.02	0.935
3970.22	0.934
3979.42	0.934
3988.62	0.932
3997.82	0.932
4007.02	0.931
4016.22	0.93
4025.42	0.9294
4034.62	0.9277
4043.82	0.927
4053.02	0.926
