Infrared Spectrum: MERCAPTOACETHYDRAZIDE HYDRAZINIUM SALT
Formula: C2 H10 N4 S O
State: SOLID (MINERAL OIL MULL)
Melting point: 76-78 C
Class: COBLENTZ
Instrument: Not specified, most likely a prism, grating, or hybrid spectrometer.
Sampling: TRANSMISSION
Resolution: 4
Origin: ARTHUR D. LITTLE, INC.
MICROMETERS	TRANSMITTANCE
2.505	0.694
2.5412	0.701
2.5774	0.707
2.6136	0.702
2.6498	0.693
2.686	0.675
2.7222	0.657
2.7584	0.645
2.7946	0.636
2.8308	0.629
2.867	0.617
2.9032	0.593
2.9394	0.53
2.9756	0.412
3.0118	0.202
3.048	0.123
3.0842	0.156
3.1204	0.205
3.1566	0.222
3.1928	0.281
3.229	0.267
3.2652	0.208
3.3014	0.232
3.3376	0.175
3.3738	0.113
3.41	0.072
3.4462	0.07
3.4824	0.073
3.5186	0.145
3.5548	0.163
3.591	0.164
3.6272	0.131
3.6634	0.173
3.6996	0.198
3.7358	0.196
3.772	0.192
3.8082	0.157
3.8444	0.108
3.8806	0.109
3.9168	0.15
3.953	0.211
3.9892	0.267
4.0254	0.336
4.0616	0.388
4.0978	0.44
4.134	0.489
4.1702	0.534
4.2064	0.541
4.2426	0.534
4.2788	0.534
4.315	0.564
4.3512	0.586
4.38741	0.598
4.42361	0.599
4.45981	0.61
4.49601	0.619
4.53221	0.629
4.56841	0.652
4.60461	0.658
4.64081	0.654
4.67701	0.646
4.71321	0.641
4.74941	0.637
4.78561	0.617
4.82181	0.59
4.85801	0.592
4.89421	0.608
4.93041	0.62
4.96661	0.624
5.00281	0.617
5.03901	0.611
5.07521	0.605
5.11141	0.619
5.14761	0.642
5.18381	0.655
5.22001	0.664
5.25621	0.672
5.29241	0.669
5.32861	0.693
5.36481	0.697
5.40101	0.7
5.43721	0.7
5.47341	0.699
5.50961	0.696
5.54581	0.7
5.58201	0.696
5.61821	0.691
5.65441	0.681
5.69061	0.663
5.72681	0.649
5.76301	0.634
5.79921	0.619
5.83541	0.599
5.87161	0.577
5.90781	0.551
5.94401	0.507
5.98021	0.429
6.01641	0.354
6.05261	0.257
6.08881	0.208
6.12501	0.108
6.16121	0.067
6.19741	0.09
6.23361	0.179
6.26981	0.255
6.30601	0.286
6.34221	0.31
6.37841	0.33
6.41461	0.268
6.45081	0.279
6.48701	0.294
6.52321	0.318
6.55941	0.359
6.59561	0.428
6.63181	0.444
6.66801	0.462
6.70421	0.464
6.74041	0.457
6.77661	0.369
6.81281	0.326
6.84901	0.32
6.88521	0.334
6.92141	0.305
6.95761	0.334
6.99381	0.447
7.03001	0.463
7.06621	0.489
7.10241	0.499
7.13861	0.504
7.17481	0.498
7.21101	0.435
7.24721	0.429
7.28341	0.482
7.31961	0.517
7.35581	0.543
7.39201	0.541
7.42821	0.516
7.46441	0.472
7.50061	0.376
7.53681	0.342
7.57301	0.335
7.60921	0.432
7.64541	0.503
7.68161	0.525
7.71781	0.545
7.75401	0.571
7.79021	0.577
7.82641	0.576
7.86261	0.56
7.89881	0.51
7.93501	0.47
7.97121	0.441
8.00741	0.516
8.04361	0.56
8.07981	0.584
8.11601	0.598
8.15222	0.594
8.18842	0.589
8.22462	0.601
8.26082	0.62
8.29702	0.634
8.33322	0.629
8.36942	0.602
8.40562	0.558
8.44182	0.474
8.47802	0.38
8.51422	0.395
8.55042	0.503
8.58662	0.575
8.62282	0.59
8.65902	0.608
8.69522	0.611
8.73142	0.613
8.76762	0.582
8.80382	0.53
8.84002	0.413
8.87622	0.353
8.91242	0.338
8.94862	0.359
8.98482	0.37
9.02102	0.327
9.05722	0.338
9.09342	0.362
9.12962	0.521
9.16582	0.57
9.20202	0.582
9.23822	0.602
9.27442	0.619
9.31062	0.63
9.34682	0.634
9.38302	0.643
9.41922	0.651
9.45542	0.655
9.49162	0.654
9.52782	0.652
9.56402	0.647
9.60022	0.614
9.63642	0.58
9.67262	0.525
9.70882	0.419
9.74502	0.353
9.78122	0.265
9.81742	0.243
9.85362	0.336
9.88982	0.501
9.92602	0.546
9.96222	0.58
9.99842	0.595
10.0346	0.612
10.0708	0.629
10.107	0.638
10.1432	0.646
10.1794	0.651
10.2156	0.652
10.2518	0.652
10.288	0.648
10.3242	0.63
10.3604	0.608
10.3966	0.456
10.4328	0.296
10.469	0.251
10.5052	0.357
10.5414	0.517
10.5776	0.542
10.6138	0.559
10.65	0.537
10.6862	0.505
10.7224	0.453
10.7586	0.44
10.7948	0.474
10.831	0.563
10.8672	0.586
10.9034	0.612
10.9396	0.629
10.9758	0.635
11.012	0.64
11.0482	0.643
11.0844	0.648
11.1206	0.654
11.1568	0.66
11.193	0.663
11.2292	0.664
11.2654	0.664
11.3016	0.663
11.3378	0.661
11.374	0.659
11.4102	0.651
11.4464	0.632
11.4826	0.622
11.5188	0.619
11.555	0.623
11.5912	0.629
11.6274	0.632
11.6636	0.635
11.6998	0.642
11.736	0.651
11.7722	0.659
11.8084	0.661
11.8446	0.661
11.8808	0.66
11.917	0.659
11.9532	0.657
11.9894	0.654
12.0256	0.653
12.0618	0.653
12.098	0.652
12.1342	0.652
12.1704	0.652
12.2066	0.652
12.2428	0.645
12.279	0.634
12.3152	0.619
12.3514	0.617
12.3876	0.613
12.4238	0.599
12.46	0.59
12.4962	0.596
12.5324	0.607
12.5686	0.629
12.6048	0.635
12.641	0.637
12.6772	0.643
12.7134	0.643
12.7496	0.642
12.7858	0.642
12.822	0.64
12.8582	0.636
12.8944	0.631
12.9306	0.626
12.9668	0.623
13.003	0.62
13.0392	0.617
13.0754	0.614
13.1116	0.612
13.1478	0.611
13.184	0.601
13.2202	0.589
13.2564	0.582
13.2926	0.578
13.3288	0.577
13.365	0.563
13.4012	0.542
13.4374	0.54
13.4736	0.527
13.5098	0.512
13.546	0.5
13.5822	0.489
13.6184	0.481
13.6546	0.475
13.6908	0.466
13.727	0.464
13.7632	0.464
13.7994	0.465
13.8356	0.466
13.8718	0.466
13.908	0.466
13.9442	0.465
13.9804	0.441
14.0166	0.357
14.0528	0.293
14.089	0.274
14.1252	0.277
14.1614	0.353
14.1976	0.389
14.2338	0.415
14.27	0.43
14.3062	0.446
14.3424	0.465
14.3786	0.476
14.4148	0.487
14.451	0.496
14.4872	0.507
14.5234	0.516
14.5596	0.522
14.5958	0.528
14.632	0.531
14.6682	0.533
14.7044	0.534
14.7406	0.534
14.7768	0.531
14.813	0.53
14.8492	0.528
14.8854	0.527
14.9216	0.521
14.9578	0.517
14.994	0.511
