Infrared Spectrum: 1-CARBOXY-1'-CARBETHOXY FERROCENE
Formula: C14 H14 O4 Fe
State: SOLID (MINERAL OIL MULL)
Melting point: 144-145 C
Class: COBLENTZ
Instrument: Not specified, most likely a prism, grating, or hybrid spectrometer.
Sampling: TRANSMISSION
Resolution: 4
Origin: WYANDOTTE CHEMICALS CORP., WYANDOTTE, MICHIGAN, USA
MICROMETERS	TRANSMITTANCE
2.014	0.664
2.05478	0.679
2.09555	0.698
2.13633	0.698
2.17711	0.698
2.21788	0.691
2.25866	0.7
2.29944	0.725
2.34021	0.73
2.38099	0.739
2.42177	0.739
2.46254	0.746
2.50332	0.761
2.5441	0.781
2.58487	0.787
2.62565	0.792
2.66643	0.798
2.7072	0.795
2.74798	0.8
2.78876	0.797
2.82953	0.79
2.87031	0.78
2.91109	0.78
2.95186	0.77
2.99264	0.771
3.03342	0.747
3.07419	0.72
3.11497	0.667
3.15575	0.604
3.19652	0.499
3.2373	0.451
3.27808	0.417
3.31885	0.187
3.35963	0.03
3.40041	0.032
3.44118	0.061
3.48196	0.059
3.52274	0.245
3.56351	0.419
3.60429	0.453
3.64507	0.483
3.68584	0.522
3.72662	0.448
3.7674	0.425
3.80817	0.442
3.84895	0.516
3.88973	0.429
3.9305	0.451
3.97128	0.495
4.01206	0.558
4.05283	0.614
4.09361	0.62
4.13439	0.65
4.17516	0.681
4.21594	0.708
4.25672	0.666
4.29749	0.7
4.33827	0.756
4.37905	0.833
4.41982	0.841
4.4606	0.843
4.50138	0.851
4.54215	0.87
4.58293	0.88
4.62371	0.884
4.66448	0.908
4.70526	0.914
4.74604	0.921
4.78681	0.93
4.82759	0.94
4.86837	0.955
4.90914	0.95
4.94992	0.93
4.9907	0.913
5.03147	0.928
5.07225	0.933
5.11303	0.959
5.1538	0.954
5.19458	0.94
5.23536	0.926
5.27613	0.899
5.31691	0.884
5.35769	0.913
5.39846	0.923
5.43924	0.916
5.48002	0.896
5.52079	0.872
5.56157	0.833
5.60235	0.853
5.64312	0.867
5.6839	0.892
5.72468	0.797
5.76545	0.417
5.80623	0.028
5.84701	0.114
5.88778	0.321
5.92856	0.083
5.96934	0.034
6.01011	0.148
6.05089	0.437
6.09167	0.604
6.13244	0.672
6.17322	0.732
6.214	0.788
6.25477	0.831
6.29555	0.862
6.33633	0.846
6.3771	0.86
6.41788	0.862
6.45866	0.843
6.49943	0.816
6.54021	0.819
6.58099	0.814
6.62176	0.778
6.66254	0.488
6.70332	0.049
6.74409	0.081
6.78487	0.129
6.82565	0.194
6.86642	0.275
6.9072	0.415
6.94798	0.684
6.98875	0.788
7.02953	0.756
7.07031	0.509
7.11108	0.402
7.15186	0.551
7.19264	0.32
7.23341	0.284
7.27419	0.231
7.31497	0.425
7.35574	0.522
7.39652	0.649
7.4373	0.766
7.47807	0.8
7.51885	0.798
7.55963	0.708
7.6004	0.432
7.64118	0.11
7.68196	0.042
7.72273	0.136
7.76351	0.17
7.80429	0.039
7.84506	0.161
7.88584	0.419
7.92662	0.596
7.96739	0.669
8.00817	0.751
8.04895	0.802
8.08972	0.85
8.1305	0.879
8.17128	0.875
8.21205	0.752
8.25283	0.879
8.29361	0.904
8.33438	0.894
8.37516	0.85
8.41594	0.824
8.45671	0.741
8.49749	0.391
8.53827	0.141
8.57904	0.34
8.61982	0.611
8.6606	0.722
8.70137	0.735
8.74215	0.541
8.78293	0.091
8.8237	0.083
8.86448	0.362
8.90526	0.606
8.94603	0.764
8.98681	0.821
9.02759	0.87
9.06836	0.804
9.10914	0.674
9.14992	0.557
9.19069	0.72
9.23147	0.822
9.27225	0.875
9.31302	0.872
9.3538	0.693
9.39458	0.77
9.43535	0.691
9.47613	0.897
9.51691	0.899
9.55768	0.722
9.59846	0.678
9.63924	0.657
9.68001	0.361
9.72079	0.509
9.76157	0.741
9.80234	0.856
9.84312	0.884
9.8839	0.877
9.92467	0.717
9.96545	0.473
10.0062	0.611
10.047	0.754
10.0878	0.792
10.1286	0.807
10.1693	0.809
10.2101	0.798
10.2509	0.776
10.2917	0.746
10.3324	0.715
10.3732	0.678
10.414	0.659
10.4548	0.623
10.4955	0.587
10.5363	0.553
10.5771	0.531
10.6179	0.54
10.6587	0.574
10.6994	0.625
10.7402	0.695
10.781	0.752
10.8218	0.79
10.8625	0.756
10.9033	0.551
10.9441	0.5
10.9849	0.567
11.0256	0.708
11.0664	0.747
11.1072	0.827
11.148	0.814
11.1887	0.87
11.2295	0.911
11.2703	0.919
11.3111	0.89
11.3519	0.851
11.3926	0.901
11.4334	0.93
11.4742	0.901
11.515	0.919
11.5557	0.936
11.5965	0.865
11.6373	0.798
11.6781	0.882
11.7188	0.909
11.7596	0.851
11.8004	0.637
11.8412	0.56
11.882	0.681
11.9227	0.77
11.9635	0.555
12.0043	0.628
12.0451	0.497
12.0858	0.298
12.1266	0.436
12.1674	0.449
12.2082	0.555
12.2489	0.746
12.2897	0.812
12.3305	0.841
12.3713	0.851
12.412	0.86
12.4528	0.88
12.4936	0.897
12.5344	0.913
12.5752	0.925
12.6159	0.938
12.6567	0.935
12.6975	0.926
12.7383	0.89
12.779	0.817
12.8198	0.696
12.8606	0.381
12.9014	0.499
12.9421	0.77
12.9829	0.829
13.0237	0.843
13.0645	0.797
13.1053	0.701
13.146	0.567
13.1868	0.596
13.2276	0.7
13.2684	0.706
13.3091	0.701
13.3499	0.621
13.3907	0.456
13.4315	0.446
13.4722	0.626
13.513	0.747
13.5538	0.81
13.5946	0.836
13.6353	0.85
13.6761	0.85
13.7169	0.851
13.7577	0.853
13.7985	0.865
13.8392	0.863
13.88	0.863
13.9208	0.872
13.9616	0.88
14.0023	0.901
14.0431	0.906
14.0839	0.918
14.1247	0.923
14.1654	0.93
14.2062	0.93
14.247	0.93
14.2878	0.931
14.3286	0.931
14.3693	0.926
14.4101	0.916
14.4509	0.919
14.4917	0.904
14.5324	0.914
14.5732	0.914
14.614	0.911
14.6548	0.913
14.6955	0.908
14.7363	0.902
14.7771	0.899
14.8179	0.897
14.8586	0.897
14.8994	0.901
14.9402	0.894
14.981	0.889
15.0218	0.85
15.0625	0.805
15.1033	0.809
15.1441	0.87
15.1849	0.875
15.2256	0.868
15.2664	0.858
15.3072	0.843
15.348	0.829
15.3887	0.817
15.4295	0.807
15.4703	0.798
15.5111	0.785
15.5519	0.775
15.5926	0.778
15.6334	0.766
15.6742	0.751
15.715	0.744
15.7557	0.734
15.7965	0.718
15.8373	0.712
15.8781	0.7
15.9188	0.686
15.9596	0.674
