Infrared Spectrum: MALONIC ACID DITHALLOUS SALT
Formula: C3 H2 O4 Tl2
State: SOLID (MINERAL OIL MULL)
Melting point: 159-163 C
Class: COBLENTZ
Instrument: Not specified, most likely a prism, grating, or hybrid spectrometer.
Sampling: TRANSMISSION
Resolution: 4
Origin: WYANDOTTE CHEMICALS CORP., WYANDOTTE, MICHIGAN, USA
MICROMETERS	TRANSMITTANCE
2.046	0.572
2.08583	0.577
2.12566	0.58
2.16549	0.584
2.20532	0.585
2.24515	0.585
2.28498	0.587
2.32481	0.594
2.36464	0.595
2.40447	0.599
2.4443	0.599
2.48413	0.6
2.52396	0.603
2.56379	0.61
2.60362	0.612
2.64345	0.607
2.68328	0.612
2.72311	0.605
2.76294	0.599
2.80277	0.579
2.8426	0.56
2.88243	0.542
2.92226	0.529
2.96209	0.522
3.00192	0.509
3.04175	0.514
3.08158	0.537
3.12141	0.549
3.16124	0.56
3.20106	0.585
3.24089	0.605
3.28072	0.628
3.32055	0.632
3.36038	0.592
3.40021	0.153
3.44004	0.091
3.47987	0.181
3.5197	0.244
3.55953	0.329
3.59936	0.642
3.63919	0.668
3.67902	0.675
3.71885	0.677
3.75868	0.69
3.79851	0.692
3.83834	0.693
3.87817	0.705
3.918	0.713
3.95783	0.727
3.99766	0.733
4.03749	0.742
4.07732	0.735
4.11715	0.738
4.15698	0.745
4.19681	0.752
4.23664	0.762
4.27647	0.762
4.3163	0.745
4.35613	0.76
4.39596	0.775
4.43579	0.8
4.47562	0.8
4.51545	0.805
4.55528	0.811
4.59511	0.821
4.63494	0.825
4.67477	0.83
4.7146	0.836
4.75443	0.845
4.79426	0.85
4.83409	0.863
4.87392	0.866
4.91375	0.87
4.95358	0.875
4.99341	0.881
5.03324	0.885
5.07307	0.888
5.1129	0.893
5.15273	0.9
5.19256	0.906
5.23239	0.908
5.27222	0.913
5.31205	0.92
5.35188	0.928
5.39171	0.931
5.43154	0.935
5.47136	0.94
5.51119	0.948
5.55102	0.956
5.59085	0.961
5.63068	0.965
5.67051	0.966
5.71034	0.966
5.75017	0.966
5.79	0.965
5.82983	0.958
5.86966	0.951
5.90949	0.933
5.94932	0.905
5.98915	0.886
6.02898	0.84
6.06881	0.79
6.10864	0.722
6.14847	0.623
6.1883	0.445
6.22813	0.261
6.26796	0.212
6.30779	0.123
6.34762	0.056
6.38745	0.036
6.42728	0.036
6.46711	0.033
6.50694	0.036
6.54677	0.039
6.5866	0.056
6.62643	0.101
6.66626	0.161
6.70609	0.216
6.74592	0.289
6.78575	0.309
6.82558	0.281
6.86541	0.311
6.90524	0.362
6.94507	0.417
6.9849	0.439
7.02473	0.44
7.06456	0.404
7.10439	0.344
7.14422	0.331
7.18405	0.311
7.22388	0.201
7.26371	0.184
7.30354	0.241
7.34337	0.281
7.3832	0.261
7.42303	0.189
7.46286	0.134
7.50269	0.123
7.54252	0.184
7.58235	0.309
7.62218	0.405
7.66201	0.48
7.70183	0.54
7.74166	0.59
7.78149	0.623
7.82132	0.657
7.86115	0.678
7.90098	0.678
7.94081	0.615
7.98064	0.357
8.02047	0.143
8.0603	0.217
8.10013	0.396
8.13996	0.525
8.17979	0.59
8.21962	0.625
8.25945	0.642
8.29928	0.655
8.33911	0.642
8.37894	0.615
8.41877	0.587
8.4586	0.587
8.49843	0.608
8.53826	0.648
8.57809	0.683
8.61792	0.732
8.65775	0.75
8.69758	0.768
8.73741	0.79
8.77724	0.803
8.81707	0.813
8.8569	0.818
8.89673	0.818
8.93656	0.816
8.97639	0.82
9.01622	0.821
9.05605	0.818
9.09588	0.815
9.13571	0.815
9.17554	0.813
9.21537	0.811
9.2552	0.81
9.29503	0.808
9.33486	0.805
9.37469	0.805
9.41452	0.811
9.45435	0.811
9.49418	0.816
9.53401	0.816
9.57384	0.818
9.61367	0.828
9.6535	0.83
9.69333	0.831
9.73316	0.836
9.77299	0.841
9.81282	0.845
9.85265	0.85
9.89248	0.853
9.93231	0.856
9.97213	0.858
10.012	0.865
10.0518	0.868
10.0916	0.866
10.1315	0.868
10.1713	0.868
10.2111	0.866
10.2509	0.861
10.2908	0.851
10.3306	0.84
10.3704	0.813
10.4103	0.773
10.4501	0.772
10.4899	0.79
10.5298	0.797
10.5696	0.806
10.6094	0.826
10.6492	0.836
10.6891	0.845
10.7289	0.845
10.7687	0.84
10.8086	0.825
10.8484	0.797
10.8882	0.755
10.9281	0.747
10.9679	0.768
11.0077	0.81
11.0475	0.846
11.0874	0.856
11.1272	0.868
11.167	0.878
11.2069	0.881
11.2467	0.881
11.2865	0.885
11.3263	0.886
11.3662	0.89
11.406	0.893
11.4458	0.896
11.4857	0.896
11.5255	0.896
11.5653	0.896
11.6052	0.898
11.645	0.898
11.6848	0.898
11.7246	0.898
11.7645	0.896
11.8043	0.896
11.8441	0.898
11.884	0.896
11.9238	0.896
11.9636	0.898
12.0035	0.898
12.0433	0.898
12.0831	0.896
12.1229	0.896
12.1628	0.891
12.2026	0.891
12.2424	0.885
12.2823	0.878
12.3221	0.865
12.3619	0.838
12.4018	0.798
12.4416	0.788
12.4814	0.78
12.5212	0.768
12.5611	0.76
12.6009	0.747
12.6407	0.727
12.6806	0.72
12.7204	0.72
12.7602	0.728
12.8001	0.75
12.8399	0.768
12.8797	0.79
12.9195	0.806
12.9594	0.815
12.9992	0.828
13.039	0.833
13.0789	0.841
13.1187	0.845
13.1585	0.848
13.1984	0.851
13.2382	0.85
13.278	0.855
13.3178	0.858
13.3577	0.86
13.3975	0.861
13.4373	0.861
13.4772	0.858
13.517	0.855
13.5568	0.853
13.5966	0.858
13.6365	0.855
13.6763	0.85
13.7161	0.85
13.756	0.851
13.7958	0.85
13.8356	0.846
13.8755	0.841
13.9153	0.838
13.9551	0.838
13.9949	0.845
14.0348	0.843
14.0746	0.836
14.1144	0.826
14.1543	0.815
14.1941	0.797
14.2339	0.767
14.2738	0.722
14.3136	0.657
14.3534	0.575
14.3932	0.485
14.4331	0.4
14.4729	0.347
14.5127	0.316
14.5526	0.297
14.5924	0.304
14.6322	0.381
14.6721	0.477
14.7119	0.574
14.7517	0.645
14.7915	0.682
14.8314	0.717
14.8712	0.732
14.911	0.745
14.9509	0.755
14.9907	0.75
15.0305	0.717
15.0704	0.7
15.1102	0.72
15.15	0.742
15.1898	0.75
15.2297	0.745
15.2695	0.733
15.3093	0.723
15.3492	0.718
15.389	0.71
15.4288	0.7
15.4687	0.688
15.5085	0.678
15.5483	0.67
15.5881	0.665
15.628	0.655
15.6678	0.645
15.7076	0.637
15.7475	0.628
15.7873	0.618
15.8271	0.608
15.8669	0.6
15.9068	0.589
15.9466	0.574
