Infrared Spectrum: Phosphorothioic acid, S-2-aminopentyl ester, sodium salt
Formula: C5 H13 N Na O3 P S
State: SOLID (1 mg / 650 mg KBr DISC)
Class: COBLENTZ III
Instrument: PERKIN-ELMER 221 (GRATING)
Instrument parameters: FILTER AT 980 CM^-^1. GRATING 4000-1428 CM^-^1, NaCl PRISM 1428-650 CM^-^1
Resolution: 2
Origin: SOUTHERN RESEARCH INSTITUTE
1/CM	TRANSMITTANCE
625	0.7616
634	0.8056
643	0.8288
652	0.845
661	0.8564
670	0.8631
679	0.8665
688	0.8688
697	0.8725
706	0.8664
715	0.8048
724	0.8312
733	0.8698
742	0.862
751	0.8403
760	0.8106
769	0.8807
778	0.8825
787	0.8787
796	0.8741
805	0.8673
814	0.8355
823	0.853
832	0.865
841	0.8623
850	0.8376
859	0.8228
868	0.8373
877	0.8275
886	0.8028
895	0.7809
904	0.794
913	0.7851
922	0.78
931	0.7606
940	0.7455
949	0.6823
958	0.4663
967	0.2082
976	0.336
985	0.7593
994	0.7233
1003	0.6724
1012	0.6478
1021	0.6498
1030	0.6564
1039	0.6097
1048	0.5316
1057	0.4736
1066	0.388
1075	0.2362
1084	0.1071
1093	0.0673
1102	0.0727
1111	0.1344
1120	0.1873
1129	0.2523
1138	0.3289
1147	0.4536
1156	0.5256
1165	0.613
1174	0.6656
1183	0.6837
1192	0.6821
1201	0.7141
1210	0.733
1219	0.7153
1228	0.7353
1237	0.7681
1246	0.7626
1255	0.7651
1264	0.7452
1273	0.7713
1282	0.8225
1291	0.8254
1300	0.835
1309	0.8466
1318	0.8541
1327	0.8504
1336	0.8431
1345	0.8342
1354	0.8408
1363	0.8452
1372	0.8174
1381	0.7797
1390	0.7938
1399	0.8426
1408	0.8182
1417	0.8352
1426	0.8461
1435	0.8409
1444	0.7974
1453	0.7292
1462	0.7287
1471	0.8416
1480	0.8565
1489	0.8511
1498	0.8415
1507	0.8246
1516	0.7973
1525	0.7647
1534	0.7102
1543	0.6456
1552	0.4989
1561	0.4657
1570	0.5973
1579	0.7337
1588	0.7401
1597	0.7353
1606	0.721
1615	0.6931
1624	0.6465
1633	0.6286
1642	0.6378
1651	0.5701
1660	0.5434
1669	0.628
1678	0.7253
1687	0.798
1696	0.8188
1705	0.8295
1714	0.8384
1723	0.847
1732	0.8532
1741	0.8628
1750	0.8669
1759	0.8695
1768	0.8697
1777	0.8688
1786	0.8676
1795	0.8669
1804	0.8664
1813	0.8656
1822	0.8649
1831	0.8644
1840	0.8636
1849	0.8626
1858	0.8613
1867	0.86
1876	0.858
1885	0.8559
1894	0.8535
1903	0.851
1912	0.8479
1921	0.8449
1930	0.8421
1939	0.8379
1948	0.8287
1957	0.8194
1966	0.817
1975	0.8161
1984	0.8158
1993	0.8136
2002	0.8054
2011	0.7934
2020	0.7812
2029	0.7743
2038	0.7671
2047	0.7607
2056	0.758
2065	0.7545
2074	0.7469
2083	0.7394
2092	0.7288
2101	0.7177
2110	0.708
2119	0.6982
2128	0.6867
2137	0.6749
2146	0.663
2155	0.651
2164	0.6383
2173	0.6241
2182	0.607
2191	0.5882
2200	0.5682
2209	0.5509
2218	0.5506
2227	0.5583
2236	0.577
2245	0.6158
2254	0.6501
2263	0.6818
2272	0.6917
2281	0.6921
2290	0.6915
2299	0.6888
2308	0.6848
2317	0.6795
2326	0.6731
2335	0.6658
2344	0.6532
2353	0.6431
2362	0.6347
2371	0.6271
2380	0.6209
2389	0.6152
2398	0.6087
2407	0.5993
2416	0.5873
2425	0.5726
2434	0.5574
2443	0.5428
2452	0.529
2461	0.5172
2470	0.5113
2479	0.5135
2488	0.4928
2497	0.4894
2506	0.4759
2515	0.4749
2524	0.4753
2533	0.4762
2542	0.4777
2551	0.4798
2560	0.4832
2569	0.4785
2578	0.4626
2587	0.4577
2596	0.4597
2605	0.4657
2614	0.4746
2623	0.4857
2632	0.4957
2641	0.5039
2650	0.5094
2659	0.5087
2668	0.5028
2677	0.495
2686	0.4913
2695	0.4903
2704	0.4835
2713	0.477
2722	0.4749
2731	0.476
2740	0.4812
2749	0.4874
2758	0.4876
2767	0.4804
2776	0.4675
2785	0.46
2794	0.4544
2803	0.4503
2812	0.4462
2821	0.4433
2830	0.4398
2839	0.4269
2848	0.4097
2857	0.3885
2866	0.3688
2875	0.3636
2884	0.3651
2893	0.3663
2902	0.3622
2911	0.3433
2920	0.315
2929	0.3012
2938	0.3103
2947	0.3224
2956	0.2889
2965	0.2522
2974	0.3212
2983	0.379
2992	0.3948
3001	0.4072
3010	0.4157
3019	0.4415
3028	0.454
3037	0.483
3046	0.4987
3055	0.5073
3064	0.5186
3073	0.5407
3082	0.5534
3091	0.562
3100	0.57
3109	0.5781
3118	0.5884
3127	0.6044
3136	0.6338
3145	0.6494
3154	0.6622
3163	0.6726
3172	0.6823
3181	0.6892
3190	0.6949
3199	0.7001
3208	0.7052
3217	0.7136
3226	0.7203
3235	0.7266
3244	0.7329
3253	0.7383
3262	0.7431
3271	0.7457
3280	0.7481
3289	0.7501
3298	0.7518
3307	0.7526
3316	0.7524
3325	0.751
3334	0.749
3343	0.7459
3352	0.7422
3361	0.7381
3370	0.733
3379	0.7285
3388	0.7256
3397	0.725
3406	0.7255
3415	0.7267
3424	0.7283
3433	0.7303
3442	0.7325
3451	0.7347
3460	0.7371
3469	0.7396
3478	0.7424
3487	0.7455
3496	0.7486
3505	0.7518
3514	0.7553
3523	0.7595
3532	0.7641
3541	0.771
3550	0.7756
3559	0.7784
3568	0.7848
3577	0.7939
3586	0.8026
3595	0.807
3604	0.8143
3613	0.8198
3622	0.8247
3631	0.8287
3640	0.8314
3649	0.8323
3658	0.8326
3667	0.8324
3676	0.832
3685	0.8328
3694	0.8351
3703	0.8361
3712	0.837
3721	0.8378
3730	0.8386
3739	0.8391
3748	0.8389
3757	0.8363
3766	0.8353
3775	0.8357
3784	0.8363
3793	0.8362
3802	0.8362
3811	0.8365
3820	0.837
3829	0.8376
3838	0.8384
3847	0.8393
3856	0.8398
3865	0.8401
3874	0.8399
3883	0.8399
3892	0.84
