Infrared Spectrum: MONOIODODECABORANE
Formula: B10 H13 I
State: SOLUTION (CH2Cl2)
Class: COBLENTZ
Instrument: Not specified, most likely a prism, grating, or hybrid spectrometer.
Sampling: TRANSMISSION
Resolution: 4
Origin: KALLERY CHEMICAL COMPANY
MICROMETERS	TRANSMITTANCE
2.054	0.897
2.09442	0.899
2.13485	0.901
2.17527	0.901
2.2157	0.901
2.25612	0.899
2.29655	0.899
2.33697	0.899
2.3774	0.901
2.41782	0.901
2.45825	0.903
2.49867	0.903
2.5391	0.903
2.57952	0.904
2.61995	0.904
2.66037	0.906
2.7008	0.909
2.74123	0.916
2.78165	0.919
2.82207	0.914
2.8625	0.911
2.90292	0.906
2.94335	0.903
2.98377	0.899
3.0242	0.899
3.06462	0.901
3.10505	0.901
3.14547	0.903
3.1859	0.903
3.22632	0.903
3.26675	0.904
3.30717	0.908
3.3476	0.908
3.38802	0.926
3.42845	0.938
3.46887	0.939
3.5093	0.941
3.54972	0.939
3.59015	0.933
3.63057	0.924
3.671	0.918
3.71142	0.908
3.75185	0.891
3.79227	0.705
3.8327	0.2
3.87312	0.227
3.91355	0.566
3.95397	0.852
3.9944	0.891
4.03482	0.903
4.07525	0.908
4.11567	0.911
4.1561	0.911
4.19652	0.913
4.23695	0.909
4.27737	0.906
4.3178	0.903
4.35822	0.903
4.39865	0.903
4.43907	0.908
4.4795	0.911
4.51992	0.911
4.56035	0.913
4.60077	0.913
4.6412	0.909
4.68162	0.908
4.72205	0.904
4.76248	0.906
4.8029	0.914
4.84333	0.916
4.88375	0.916
4.92417	0.914
4.9646	0.914
5.00502	0.914
5.04545	0.909
5.08587	0.904
5.1263	0.899
5.16672	0.891
5.20715	0.874
5.24757	0.864
5.288	0.841
5.32842	0.877
5.36885	0.881
5.40927	0.897
5.4497	0.901
5.49012	0.903
5.53055	0.903
5.57097	0.906
5.6114	0.908
5.65182	0.911
5.69225	0.913
5.73267	0.914
5.7731	0.916
5.81352	0.918
5.85395	0.919
5.89438	0.918
5.9348	0.914
5.97523	0.908
6.01565	0.903
6.05607	0.903
6.0965	0.899
6.13692	0.899
6.17735	0.901
6.21777	0.894
6.2582	0.847
6.29862	0.809
6.33905	0.795
6.37947	0.777
6.4199	0.752
6.46032	0.727
6.50075	0.678
6.54117	0.6
6.5816	0.52
6.62202	0.578
6.66245	0.665
6.70287	0.682
6.7433	0.697
6.78372	0.719
6.82415	0.749
6.86458	0.799
6.905	0.822
6.94543	0.831
6.98585	0.832
7.02628	0.834
7.0667	0.837
7.10712	0.847
7.14755	0.864
7.18797	0.876
7.2284	0.891
7.26882	0.908
7.30925	0.914
7.34967	0.931
7.3901	0.929
7.43052	0.928
7.47095	0.926
7.51137	0.926
7.5518	0.923
7.59222	0.919
7.63265	0.916
7.67307	0.911
7.7135	0.911
7.75392	0.913
7.79435	0.913
7.83477	0.916
7.8752	0.914
7.91562	0.916
7.95605	0.916
7.99648	0.919
8.0369	0.921
8.07733	0.923
8.11775	0.923
8.15817	0.926
8.1986	0.928
8.23902	0.929
8.27945	0.929
8.31987	0.929
8.3603	0.929
8.40072	0.929
8.44115	0.929
8.48157	0.928
8.522	0.926
8.56242	0.926
8.60285	0.921
8.64327	0.909
8.6837	0.909
8.72412	0.911
8.76455	0.911
8.80497	0.911
8.8454	0.914
8.88582	0.916
8.92625	0.919
8.96667	0.924
9.0071	0.926
9.04753	0.926
9.08795	0.924
9.12838	0.924
9.1688	0.924
9.20922	0.924
9.24965	0.926
9.29007	0.929
9.3305	0.931
9.37092	0.934
9.41135	0.936
9.45177	0.933
9.4922	0.929
9.53262	0.923
9.57305	0.916
9.61347	0.916
9.6539	0.923
9.69432	0.931
9.73475	0.941
9.77517	0.976
9.8156	1.01
9.85602	0.998
9.89645	0.919
9.93687	0.74
9.9773	0.678
10.0177	0.772
10.0581	0.839
10.0986	0.884
10.139	0.903
10.1794	0.904
10.2198	0.903
10.2603	0.897
10.3007	0.889
10.3411	0.872
10.3815	0.844
10.422	0.814
10.4624	0.77
10.5028	0.722
10.5433	0.724
10.5837	0.799
10.6241	0.856
10.6645	0.861
10.705	0.846
10.7454	0.816
10.7858	0.734
10.8262	0.596
10.8666	0.668
10.9071	0.734
10.9475	0.745
10.9879	0.742
11.0283	0.73
11.0688	0.729
11.1092	0.729
11.1496	0.732
11.19	0.737
11.2305	0.735
11.2709	0.725
11.3113	0.687
11.3517	0.617
11.3922	0.627
11.4326	0.682
11.473	0.645
11.5134	0.588
11.5539	0.538
11.5943	0.675
11.6347	0.777
11.6752	0.812
11.7156	0.836
11.756	0.846
11.7964	0.849
11.8369	0.839
11.8773	0.817
11.9177	0.787
11.9581	0.75
11.9985	0.727
12.039	0.698
12.0794	0.663
12.1198	0.625
12.1602	0.633
12.2007	0.727
12.2411	0.822
12.2815	0.852
12.3219	0.862
12.3624	0.854
12.4028	0.844
12.4432	0.837
12.4836	0.831
12.5241	0.801
12.5645	0.742
12.6049	0.662
12.6453	0.633
12.6858	0.627
12.7262	0.623
12.7666	0.623
12.8071	0.625
12.8475	0.628
12.8879	0.63
12.9283	0.633
12.9688	0.64
13.0092	0.65
13.0496	0.652
13.09	0.652
13.1304	0.65
13.1709	0.653
13.2113	0.657
13.2517	0.658
13.2921	0.66
13.3326	0.66
13.373	0.66
13.4134	0.662
13.4538	0.662
13.4943	0.662
13.5347	0.662
13.5751	0.663
13.6155	0.662
13.656	0.663
13.6964	0.663
13.7368	0.665
13.7772	0.667
13.8177	0.668
13.8581	0.67
13.8985	0.672
13.939	0.672
13.9794	0.673
14.0198	0.677
14.0602	0.675
14.1006	0.675
14.1411	0.678
14.1815	0.683
14.2219	0.685
14.2623	0.685
14.3028	0.685
14.3432	0.685
14.3836	0.685
14.424	0.687
14.4645	0.688
14.5049	0.69
14.5453	0.692
14.5857	0.695
14.6262	0.698
14.6666	0.7
14.707	0.705
14.7474	0.709
14.7879	0.717
14.8283	0.727
14.8687	0.742
14.9091	0.76
14.9496	0.775
14.99	0.779
15.0304	0.782
15.0709	0.785
15.1113	0.789
15.1517	0.792
15.1921	0.797
15.2325	0.829
15.273	0.866
15.3134	0.884
15.3538	0.899
15.3942	0.913
15.4347	0.926
15.4751	0.938
15.5155	0.941
