Infrared Spectrum: Hexadecane-1-sulfonic acid, sodium salt
Formula: C16 H33 O3 S Na
State: SOLID (SPLIT MULL), FLUOROLUBE FOR 3800-1330 CM^-^1, NUJOL FOR 1330-400 CM^-^1
Class: COBLENTZ III
Instrument: DOW KBr FOREPRISM-GRATING
Instrument parameters: BLAZED AT 3.5, 12.0, 20.0 MICRON AND CHANGED AT 5.0, 7.5, 14.9 MICRON
Sampling: TRANSMISSION
Resolution: 2
Origin: DOW CHEMICAL COMPANY
1/CM	TRANSMITTANCE
3794	0.8112
3785	0.8121
3776	0.8132
3767	0.8138
3758	0.8143
3749	0.8147
3740	0.8146
3731	0.8145
3722	0.8146
3713	0.8146
3704	0.8147
3695	0.8151
3686	0.8157
3677	0.8161
3668	0.8168
3659	0.8172
3650	0.8175
3641	0.8176
3632	0.8174
3623	0.8167
3614	0.8155
3605	0.8118
3596	0.8067
3587	0.8037
3578	0.8028
3569	0.8
3560	0.7961
3551	0.7904
3542	0.7858
3533	0.7846
3524	0.7834
3515	0.7818
3506	0.7784
3497	0.7728
3488	0.7637
3479	0.7498
3470	0.7348
3461	0.7188
3452	0.7068
3443	0.7003
3434	0.6938
3425	0.6885
3416	0.6897
3407	0.7061
3398	0.7298
3389	0.746
3380	0.7593
3371	0.7687
3362	0.7778
3353	0.7862
3344	0.7934
3335	0.7991
3326	0.8041
3317	0.8068
3308	0.8095
3299	0.8118
3290	0.8143
3281	0.8171
3272	0.8206
3263	0.824
3254	0.8275
3245	0.8308
3236	0.8341
3227	0.8373
3218	0.8403
3209	0.8428
3200	0.8453
3191	0.8478
3182	0.8501
3173	0.8524
3164	0.8547
3155	0.8563
3146	0.8574
3137	0.8585
3128	0.859
3119	0.8587
3110	0.8584
3101	0.8574
3092	0.8562
3083	0.8549
3074	0.8532
3065	0.851
3056	0.8489
3047	0.8464
3038	0.8438
3029	0.8411
3020	0.8363
3011	0.8313
3002	0.8238
2993	0.8124
2984	0.7738
2975	0.6645
2966	0.4599
2957	0.3057
2948	0.4044
2939	0.2354
2930	0.061
2921	0.0212
2912	0.0236
2903	0.1634
2894	0.2375
2885	0.3089
2876	0.3737
2867	0.3768
2858	0.1313
2849	0.049
2840	0.3293
2831	0.4962
2822	0.6076
2813	0.6569
2804	0.6884
2795	0.7133
2786	0.7325
2777	0.7488
2768	0.7638
2759	0.7768
2750	0.7842
2741	0.7872
2732	0.7911
2723	0.7965
2714	0.804
2705	0.8107
2696	0.814
2687	0.815
2678	0.8148
2669	0.8145
2660	0.8137
2651	0.8128
2642	0.8131
2633	0.8144
2624	0.8171
2615	0.8221
2606	0.8273
2597	0.8306
2588	0.8328
2579	0.8349
2570	0.837
2561	0.8391
2552	0.8402
2543	0.8413
2534	0.8421
2525	0.8425
2516	0.8428
2507	0.843
2498	0.8433
2489	0.8434
2480	0.8433
2471	0.8432
2462	0.8431
2453	0.842
2444	0.841
2435	0.8393
2426	0.8374
2417	0.8354
2408	0.8334
2399	0.8313
2390	0.8305
2381	0.8309
2372	0.8324
2363	0.8321
2354	0.829
2345	0.8244
2336	0.8202
2327	0.8172
2318	0.8145
2309	0.8119
2300	0.81
2291	0.8084
2282	0.8075
2273	0.8078
2264	0.8096
2255	0.8125
2246	0.8161
2237	0.8202
2228	0.8248
2219	0.8293
2210	0.8328
2201	0.8367
2192	0.8407
2183	0.848
2174	0.8512
2165	0.8486
2156	0.8502
2147	0.8517
2138	0.8528
2129	0.8541
2120	0.8559
2111	0.8578
2102	0.86
2093	0.8621
2084	0.8644
2075	0.8666
2066	0.8671
2057	0.8683
2048	0.8691
2039	0.8693
2030	0.8698
2021	0.8702
2012	0.8706
2003	0.8709
1994	0.8701
1985	0.8615
1976	0.8609
1967	0.8606
1958	0.8588
1949	0.8568
1940	0.8551
1931	0.8558
1922	0.8578
1913	0.8577
1904	0.8563
1895	0.8539
1886	0.855
1877	0.8559
1868	0.8568
1859	0.8578
1850	0.8587
1841	0.8592
1832	0.8598
1823	0.8601
1814	0.8605
1805	0.8609
1796	0.8608
1787	0.8606
1778	0.8604
1769	0.8604
1760	0.8603
1751	0.8603
1742	0.8604
1733	0.8604
1724	0.8599
1715	0.8592
1706	0.8578
1697	0.8554
1688	0.8518
1679	0.8474
1670	0.8407
1661	0.8182
1652	0.7942
1643	0.7808
1634	0.8053
1625	0.8208
1616	0.8273
1607	0.8318
1598	0.8341
1589	0.8315
1580	0.8296
1571	0.8289
1562	0.8291
1553	0.829
1544	0.8288
1535	0.8286
1526	0.8284
1517	0.8281
1508	0.8238
1499	0.8167
1490	0.8076
1481	0.7754
1472	0.2948
1463	0.5845
1454	0.6983
1445	0.7454
1436	0.7586
1427	0.758
1418	0.7264
1409	0.7441
1400	0.7604
1391	0.7596
1382	0.7342
1373	0.7321
1364	0.7435
1355	0.7521
1346	0.7505
1337	0.7405
1328	0.7489
1319	0.7607
1310	0.7399
1301	0.7139
1292	0.6849
1283	0.6835
1274	0.7033
1265	0.6012
1256	0.6143
1247	0.4367
1238	0.3177
1229	0.3157
1220	0.2639
1211	0.1975
1202	0.1008
1193	0.0884
1184	0.1634
1175	0.1027
1166	0.0602
1157	0.2411
1148	0.4714
1139	0.6269
1130	0.7041
1121	0.7462
1112	0.769
1103	0.7844
1094	0.7765
1085	0.7211
1076	0.6346
1067	0.2645
1058	0.5428
1049	0.6219
1040	0.5333
1031	0.7907
1022	0.828
1013	0.8344
1004	0.834
995	0.819
986	0.846
977	0.8413
968	0.8394
959	0.8432
950	0.8475
941	0.8524
932	0.8584
923	0.8668
914	0.87
905	0.8771
896	0.8725
887	0.8715
878	0.8895
869	0.8912
860	0.892
851	0.8931
842	0.8937
833	0.8935
824	0.8878
815	0.8787
806	0.7441
797	0.7369
788	0.7711
779	0.8584
770	0.8332
761	0.8661
752	0.8559
743	0.8135
734	0.758
725	0.4843
716	0.8167
707	0.864
698	0.8828
689	0.8947
680	0.9021
671	0.907
662	0.9091
653	0.9099
644	0.907
635	0.8924
626	0.611
617	0.659
608	0.7662
599	0.862
590	0.8767
581	0.8781
572	0.8736
563	0.7808
554	0.6993
545	0.6183
536	0.5541
527	0.7941
518	0.8246
509	0.8497
500	0.8667
491	0.8625
482	0.8353
473	0.833
464	0.8335
455	0.8328
446	0.8323
437	0.8312
428	0.8299
419	0.8291
410	0.8295
401	0.8306
