Infrared Spectrum: 2,2',6,6'-(DIMETHYLAMINOMETHYL)-4,4'-DIPHENOL
Formula: C24 H38 N4 O2
State: SOLID (MINERAL OIL MULL)
Class: COBLENTZ
Instrument: Not specified, most likely a prism, grating, or hybrid spectrometer.
Sampling: TRANSMISSION
Resolution: 4
Origin: DOW CHEMICAL COMPANY
MICROMETERS	TRANSMITTANCE
2.034	0.676
2.07478	0.686
2.11555	0.693
2.15633	0.699
2.19711	0.704
2.23788	0.698
2.27866	0.696
2.31944	0.706
2.36021	0.715
2.40099	0.723
2.44177	0.733
2.48254	0.74
2.52332	0.747
2.5641	0.747
2.60487	0.757
2.64565	0.76
2.68643	0.762
2.7272	0.763
2.76798	0.763
2.80876	0.765
2.84953	0.767
2.89031	0.763
2.93108	0.76
2.97186	0.755
3.01264	0.75
3.05341	0.741
3.09419	0.723
3.13497	0.708
3.17574	0.698
3.21652	0.684
3.2573	0.661
3.29807	0.591
3.33885	0.394
3.37963	0.089
3.4204	0.097
3.46118	0.146
3.50196	0.209
3.54273	0.323
3.58351	0.323
3.62429	0.413
3.66506	0.516
3.70584	0.556
3.74662	0.578
3.78739	0.595
3.82817	0.62
3.86895	0.652
3.90972	0.671
3.9505	0.691
3.99128	0.718
4.03205	0.735
4.07283	0.747
4.11361	0.757
4.15438	0.765
4.19516	0.76
4.23594	0.775
4.27671	0.802
4.31749	0.812
4.35827	0.821
4.39904	0.821
4.43982	0.819
4.4806	0.822
4.52137	0.827
4.56215	0.833
4.60292	0.841
4.6437	0.846
4.68448	0.851
4.72525	0.854
4.76603	0.854
4.80681	0.863
4.84758	0.863
4.88836	0.866
4.92914	0.861
4.96991	0.871
5.01069	0.873
5.05147	0.876
5.09224	0.875
5.13302	0.876
5.1738	0.88
5.21457	0.88
5.25535	0.876
5.29613	0.88
5.3369	0.873
5.37768	0.878
5.41846	0.87
5.45923	0.871
5.50001	0.87
5.54079	0.868
5.58156	0.866
5.62234	0.861
5.66312	0.863
5.70389	0.86
5.74467	0.868
5.78545	0.87
5.82622	0.868
5.867	0.866
5.90778	0.86
5.94855	0.865
5.98933	0.863
6.03011	0.865
6.07088	0.875
6.11166	0.851
6.15244	0.745
6.19321	0.602
6.23399	0.743
6.27476	0.812
6.31554	0.848
6.35632	0.866
6.39709	0.865
6.43787	0.865
6.47865	0.863
6.51942	0.861
6.5602	0.851
6.60098	0.829
6.64175	0.787
6.68253	0.699
6.72331	0.537
6.76408	0.187
6.80486	0.094
6.84564	0.158
6.88641	0.256
6.92719	0.381
6.96797	0.556
7.00874	0.566
7.04952	0.59
7.0903	0.64
7.13107	0.691
7.17185	0.688
7.21263	0.605
7.2534	0.573
7.29418	0.549
7.33496	0.622
7.37573	0.637
7.41651	0.785
7.45729	0.822
7.49806	0.831
7.53884	0.829
7.57962	0.811
7.62039	0.765
7.66117	0.698
7.70195	0.5
7.74272	0.367
7.7835	0.451
7.82428	0.664
7.86505	0.62
7.90583	0.5
7.9466	0.453
7.98738	0.581
8.02816	0.688
8.06893	0.602
8.10971	0.431
8.15049	0.622
8.19126	0.775
8.23204	0.819
8.27282	0.827
8.31359	0.838
8.35437	0.816
8.39515	0.762
8.43592	0.625
8.4767	0.605
8.51748	0.784
8.55825	0.821
8.59903	0.822
8.63981	0.775
8.68058	0.743
8.72136	0.738
8.76214	0.834
8.80291	0.868
8.84369	0.876
8.88447	0.875
8.92524	0.868
8.96602	0.86
9.0068	0.836
9.04757	0.817
9.08835	0.758
9.12913	0.797
9.1699	0.784
9.21068	0.725
9.25146	0.846
9.29223	0.866
9.33301	0.87
9.37379	0.868
9.41456	0.858
9.45534	0.817
9.49612	0.704
9.53689	0.543
9.57767	0.576
9.61844	0.575
9.65922	0.431
9.7	0.359
9.74077	0.482
9.78155	0.477
9.82233	0.63
9.8631	0.792
9.90388	0.839
9.94466	0.854
9.98543	0.841
10.0262	0.763
10.067	0.733
10.1078	0.785
10.1485	0.851
10.1893	0.868
10.2301	0.839
10.2709	0.779
10.3116	0.767
10.3524	0.809
10.3932	0.858
10.434	0.876
10.4748	0.88
10.5155	0.887
10.5563	0.876
10.5971	0.875
10.6379	0.875
10.6786	0.87
10.7194	0.866
10.7602	0.861
10.801	0.853
10.8417	0.829
10.8825	0.809
10.9233	0.777
10.9641	0.73
11.0048	0.726
11.0456	0.758
11.0864	0.768
11.1272	0.762
11.168	0.767
11.2087	0.762
11.2495	0.733
11.2903	0.654
11.3311	0.51
11.3718	0.49
11.4126	0.681
11.4534	0.752
11.4942	0.779
11.5349	0.789
11.5757	0.79
11.6165	0.77
11.6573	0.752
11.6981	0.691
11.7388	0.571
11.7796	0.453
11.8204	0.347
11.8612	0.303
11.9019	0.344
11.9427	0.521
11.9835	0.608
12.0243	0.661
12.065	0.693
12.1058	0.715
12.1466	0.73
12.1874	0.753
12.2281	0.765
12.2689	0.779
12.3097	0.785
12.3505	0.789
12.3913	0.792
12.432	0.794
12.4728	0.795
12.5136	0.797
12.5544	0.801
12.5951	0.801
12.6359	0.804
12.6767	0.806
12.7175	0.811
12.7582	0.812
12.799	0.814
12.8398	0.816
12.8806	0.816
12.9213	0.812
12.9621	0.801
13.0029	0.779
13.0437	0.76
13.0845	0.768
13.1252	0.78
13.166	0.79
13.2068	0.804
13.2476	0.806
13.2883	0.804
13.3291	0.797
13.3699	0.779
13.4107	0.76
13.4514	0.758
13.4922	0.772
13.533	0.78
13.5738	0.779
13.6146	0.772
13.6553	0.762
13.6961	0.745
13.7369	0.72
13.7777	0.703
13.8184	0.718
13.8592	0.738
13.9	0.748
13.9408	0.757
13.9815	0.758
14.0223	0.76
14.0631	0.76
14.1039	0.758
14.1446	0.755
14.1854	0.75
14.2262	0.747
14.267	0.743
14.3078	0.738
14.3485	0.735
14.3893	0.73
14.4301	0.721
14.4709	0.716
14.5116	0.706
14.5524	0.704
14.5932	0.698
14.634	0.691
14.6747	0.681
14.7155	0.674
14.7563	0.667
14.7971	0.657
14.8378	0.64
14.8786	0.615
14.9194	0.596
14.9602	0.593
15.001	0.6
15.0417	0.596
15.0825	0.591
15.1233	0.585
15.1641	0.58
15.2048	0.576
15.2456	0.569
15.2864	0.559
15.3272	0.554
15.3679	0.546
15.4087	0.536
15.4495	0.524
15.4903	0.507
15.531	0.489
15.5718	0.473
15.6126	0.458
15.6534	0.448
15.6942	0.446
15.7349	0.446
15.7757	0.445
15.8165	0.445
15.8573	0.441
15.898	0.44
15.9388	0.438
