Infrared Spectrum: VINYL PHOSPHONIC ACID, DISODIUM SALT
Formula: C2 H3 O3 P Na2
State: SOLID (MINERAL OIL MULL)
Class: COBLENTZ
Instrument: Not specified, most likely a prism, grating, or hybrid spectrometer.
Sampling: TRANSMISSION
Resolution: 4
Origin: DOW CHEMICAL COMPANY
MICROMETERS	TRANSMITTANCE
2.034	0.877
2.07516	0.87
2.11632	0.875
2.15747	0.875
2.19863	0.877
2.23979	0.869
2.28095	0.863
2.32211	0.863
2.36327	0.86
2.40442	0.85
2.44558	0.85
2.48674	0.852
2.5279	0.846
2.56906	0.836
2.61022	0.818
2.65137	0.799
2.69253	0.746
2.73369	0.656
2.77485	0.498
2.81601	0.309
2.85717	0.234
2.89832	0.205
2.93948	0.2
2.98064	0.207
3.0218	0.227
3.06296	0.263
3.10412	0.311
3.14527	0.372
3.18643	0.426
3.22759	0.486
3.26875	0.528
3.30991	0.54
3.35107	0.437
3.39222	0.215
3.43338	0.241
3.47454	0.374
3.5157	0.687
3.55686	0.795
3.59802	0.823
3.63917	0.829
3.68033	0.836
3.72149	0.845
3.76265	0.853
3.80381	0.863
3.84497	0.869
3.88612	0.872
3.92728	0.872
3.96844	0.87
4.0096	0.863
4.05076	0.865
4.09192	0.858
4.13307	0.843
4.17423	0.838
4.21539	0.833
4.25655	0.829
4.29771	0.824
4.33887	0.824
4.38002	0.824
4.42118	0.821
4.46234	0.821
4.5035	0.821
4.54466	0.819
4.58582	0.821
4.62697	0.824
4.66813	0.829
4.70929	0.84
4.75045	0.846
4.79161	0.857
4.83277	0.862
4.87392	0.863
4.91508	0.865
4.95624	0.867
4.9974	0.867
5.03856	0.874
5.07972	0.874
5.12087	0.874
5.16203	0.869
5.20319	0.865
5.24435	0.87
5.28551	0.872
5.32667	0.872
5.36782	0.872
5.40898	0.87
5.45014	0.865
5.4913	0.862
5.53246	0.853
5.57362	0.843
5.61477	0.836
5.65593	0.826
5.69709	0.819
5.73825	0.806
5.77941	0.787
5.82057	0.77
5.86172	0.753
5.90288	0.727
5.94404	0.664
5.9852	0.593
6.02636	0.544
6.06752	0.522
6.10867	0.578
6.14983	0.639
6.19099	0.698
6.23215	0.726
6.27331	0.738
6.31447	0.741
6.35562	0.741
6.39678	0.738
6.43794	0.727
6.4791	0.717
6.52026	0.709
6.56142	0.692
6.60257	0.663
6.64373	0.613
6.68489	0.549
6.72605	0.493
6.76721	0.431
6.80837	0.306
6.84952	0.304
6.89068	0.362
6.93184	0.442
6.973	0.552
7.01416	0.557
7.05532	0.52
7.09647	0.579
7.13763	0.598
7.17879	0.585
7.21995	0.542
7.26111	0.583
7.30227	0.634
7.34342	0.678
7.38458	0.692
7.42574	0.705
7.4669	0.714
7.50806	0.721
7.54922	0.722
7.59037	0.722
7.63153	0.721
7.67269	0.712
7.71385	0.714
7.75501	0.727
7.79617	0.732
7.83732	0.738
7.87848	0.739
7.91964	0.739
7.9608	0.748
8.00196	0.743
8.04312	0.741
8.08427	0.741
8.12543	0.741
8.16659	0.734
8.20775	0.726
8.24891	0.715
8.29007	0.71
8.33122	0.7
8.37238	0.695
8.41354	0.69
8.4547	0.688
8.49586	0.687
8.53702	0.687
8.57817	0.687
8.61933	0.687
8.66049	0.687
8.70165	0.681
8.74281	0.676
8.78397	0.666
8.82512	0.647
8.86628	0.629
8.90744	0.608
8.9486	0.583
8.98976	0.554
9.03092	0.515
9.07207	0.481
9.11323	0.43
9.15439	0.358
9.19555	0.319
9.23671	0.263
9.27787	0.227
9.31902	0.2
9.36018	0.178
9.40134	0.164
9.4425	0.156
9.48366	0.153
9.52482	0.163
9.56597	0.188
9.60713	0.231
9.64829	0.28
9.68945	0.328
9.73061	0.355
9.77177	0.343
9.81292	0.377
9.85408	0.435
9.89524	0.479
9.9364	0.486
9.97756	0.51
10.0187	0.551
10.0599	0.564
10.101	0.566
10.1422	0.552
10.1833	0.53
10.2245	0.474
10.2657	0.403
10.3068	0.299
10.348	0.28
10.3891	0.352
10.4303	0.508
10.4715	0.6
10.5126	0.642
10.5538	0.671
10.5949	0.69
10.6361	0.709
10.6772	0.722
10.7184	0.734
10.7596	0.741
10.8007	0.748
10.8419	0.748
10.883	0.75
10.9242	0.75
10.9654	0.751
11.0065	0.748
11.0477	0.746
11.0888	0.748
11.13	0.751
11.1711	0.751
11.2123	0.751
11.2535	0.751
11.2946	0.744
11.3358	0.738
11.3769	0.724
11.4181	0.698
11.4593	0.664
11.5004	0.634
11.5416	0.63
11.5827	0.663
11.6239	0.693
11.665	0.714
11.7062	0.721
11.7474	0.719
11.7885	0.719
11.8297	0.727
11.8708	0.727
11.912	0.727
11.9532	0.726
11.9943	0.719
12.0355	0.715
12.0766	0.712
12.1178	0.704
12.1589	0.698
12.2001	0.693
12.2413	0.687
12.2824	0.68
12.3236	0.673
12.3647	0.664
12.4059	0.658
12.4471	0.649
12.4882	0.641
12.5294	0.63
12.5705	0.622
12.6117	0.612
12.6528	0.602
12.694	0.593
12.7352	0.583
12.7763	0.573
12.8175	0.566
12.8586	0.557
12.8998	0.551
12.941	0.545
12.9821	0.537
13.0233	0.527
13.0644	0.52
13.1056	0.515
13.1467	0.511
13.1879	0.501
13.2291	0.496
13.2702	0.488
13.3114	0.482
13.3525	0.477
13.3937	0.469
13.4349	0.46
13.476	0.447
13.5172	0.43
13.5583	0.416
13.5995	0.396
13.6406	0.374
13.6818	0.348
13.723	0.326
13.7641	0.311
13.8053	0.302
13.8464	0.306
13.8876	0.324
13.9288	0.348
13.9699	0.37
14.0111	0.399
14.0522	0.413
14.0934	0.425
14.1345	0.428
14.1757	0.428
14.2169	0.426
14.258	0.421
14.2992	0.416
14.3403	0.411
14.3815	0.399
14.4227	0.389
14.4638	0.38
14.505	0.367
14.5461	0.358
14.5873	0.348
14.6284	0.34
14.6696	0.331
14.7108	0.323
14.7519	0.312
14.7931	0.304
14.8342	0.299
14.8754	0.292
14.9166	0.282
14.9577	0.277
14.9989	0.268
15.04	0.258
15.0812	0.251
15.1223	0.248
15.1635	0.241
15.2047	0.236
15.2458	0.231
15.287	0.226
15.3281	0.222
15.3693	0.215
15.4105	0.21
15.4516	0.205
15.4928	0.202
15.5339	0.197
15.5751	0.193
15.6162	0.188
15.6574	0.185
15.6986	0.183
15.7397	0.178
15.7809	0.175
15.822	0.173
