Infrared Spectrum: CHLOROFORM, DEUTERO-
Formula: C Cl3 D
State: SOLUTION (5% CCl4 FOR 3800-1330, 5% CS2 FOR 1330-420 CM^-^1)
Class: COBLENTZ III
Instrument: DOW KBr FOREPRISM-GRATING
Instrument parameters: BLAZED AT 3.5, 12.0, 20.0 MICRON AND CHANGED AT 5.0, 7.5, 14.9 MICRON
Path length: 0.011 CM, 0.011 CM
Resolution: 2
Origin: DOW CHEMICAL COMPANY
1/CM	TRANSMITTANCE
3756	0.9327
3747	0.9309
3738	0.9306
3729	0.9287
3720	0.9282
3711	0.9284
3702	0.9323
3693	0.9345
3684	0.9293
3675	0.9276
3666	0.9271
3657	0.9271
3648	0.9271
3639	0.9265
3630	0.9275
3621	0.9291
3612	0.9305
3603	0.9309
3594	0.9322
3585	0.9314
3576	0.93
3567	0.9294
3558	0.9316
3549	0.9329
3540	0.9335
3531	0.9335
3522	0.9304
3513	0.9296
3504	0.9291
3495	0.9284
3486	0.9278
3477	0.9274
3468	0.928
3459	0.9285
3450	0.929
3441	0.9294
3432	0.9299
3423	0.9303
3414	0.9307
3405	0.931
3396	0.9309
3387	0.9307
3378	0.9306
3369	0.9304
3360	0.9306
3351	0.9313
3342	0.9334
3333	0.9323
3324	0.9329
3315	0.9332
3306	0.9354
3297	0.9339
3288	0.9343
3279	0.9364
3270	0.9367
3261	0.9368
3252	0.9371
3243	0.9373
3234	0.9375
3225	0.9364
3216	0.938
3207	0.9363
3198	0.9369
3189	0.9372
3180	0.9356
3171	0.9351
3162	0.9347
3153	0.9324
3144	0.9292
3135	0.9328
3126	0.9334
3117	0.9338
3108	0.9341
3099	0.9375
3090	0.9404
3081	0.934
3072	0.9363
3063	0.9322
3054	0.9326
3045	0.9347
3036	0.9409
3027	0.9327
3018	0.9329
3009	0.9303
3000	0.9289
2991	0.929
2982	0.9288
2973	0.9309
2964	0.9334
2955	0.9339
2946	0.9345
2937	0.9369
2928	0.9356
2919	0.934
2910	0.9344
2901	0.9342
2892	0.934
2883	0.9336
2874	0.9333
2865	0.9333
2856	0.9334
2847	0.9319
2838	0.9334
2829	0.9329
2820	0.9332
2811	0.9315
2802	0.9331
2793	0.9331
2784	0.9328
2775	0.9325
2766	0.9323
2757	0.9319
2748	0.9315
2739	0.9309
2730	0.9304
2721	0.93
2712	0.93
2703	0.9301
2694	0.9303
2685	0.9302
2676	0.9299
2667	0.9295
2658	0.9296
2649	0.9293
2640	0.9292
2631	0.9291
2622	0.9307
2613	0.9307
2604	0.9306
2595	0.9305
2586	0.9311
2577	0.9315
2568	0.9319
2559	0.9319
2550	0.9319
2541	0.9318
2532	0.9319
2523	0.9322
2514	0.9326
2505	0.933
2496	0.9334
2487	0.9338
2478	0.936
2469	0.9364
2460	0.9367
2451	0.9368
2442	0.9366
2433	0.9366
2424	0.9366
2415	0.9359
2406	0.9372
2397	0.9362
2388	0.9375
2379	0.9411
2370	0.9394
2361	0.9244
2352	0.9385
2343	0.9433
2334	0.9414
2325	0.9408
2316	0.9369
2307	0.9328
2298	0.9335
2289	0.9342
2280	0.9313
2271	0.926
2262	0.921
2253	0.8859
2244	0.9295
2235	0.9337
2226	0.9359
2217	0.9357
2208	0.937
2199	0.9371
2190	0.9354
2181	0.9355
2172	0.9373
2163	0.9357
2154	0.9358
2145	0.9359
2136	0.9361
2127	0.936
2118	0.9363
2109	0.9364
2100	0.9365
2091	0.9365
2082	0.9365
2073	0.9368
2064	0.9371
2055	0.9392
2046	0.9415
2037	0.9432
2028	0.9417
2019	0.9282
2010	0.9316
2001	0.9331
1992	0.9293
1983	0.9276
1974	0.9226
1965	0.9239
1956	0.9455
1947	0.9235
1938	0.9243
1929	0.9242
1920	0.9237
1911	0.922
1902	0.9221
1893	0.9215
1884	0.9194
1875	0.9202
1866	0.9195
1857	0.9202
1848	0.9182
1839	0.9169
1830	0.914
1821	0.9138
1812	0.9158
1803	0.913
1794	0.9157
1785	0.9196
1776	0.9197
1767	0.92
1758	0.9235
1749	0.9248
1740	0.9248
1731	0.9245
1722	0.9238
1713	0.9259
1704	0.931
1695	0.9273
1686	0.9262
1677	0.9262
1668	0.9267
1659	0.9249
1650	0.924
1641	0.9236
1632	0.9233
1623	0.9259
1614	0.9355
1605	0.9399
1596	0.8916
1587	0.8962
1578	0.8948
1569	0.8539
1560	0.852
1551	0.8464
1542	0.8579
1533	0.8852
1524	0.8893
1515	0.8944
1506	0.9018
1497	0.8959
1488	0.9062
1479	0.9218
1470	0.9117
1461	0.9177
1452	0.9278
1443	0.9348
1434	0.9344
1425	0.9353
1416	0.9359
1407	0.9405
1398	0.9406
1389	0.9395
1380	0.9325
1371	0.9299
1362	0.9399
1353	0.9379
1344	0.9364
1335	0.9323
1326	0.9317
1317	0.9287
1308	0.9293
1299	0.9271
1290	0.9279
1281	0.9292
1272	0.9306
1263	0.9324
1254	0.9311
1245	0.9287
1236	0.9403
1227	0.9459
1218	0.9451
1209	0.9457
1200	0.9503
1191	0.9499
1182	0.9348
1173	0.9425
1164	0.9444
1155	0.9455
1146	0.9438
1137	0.9497
1128	0.9496
1119	0.9521
1110	0.9494
1101	0.9318
1092	0.9293
1083	0.9348
1074	0.934
1065	0.9379
1056	0.9381
1047	0.9389
1038	0.9401
1029	0.9398
1020	0.9383
1011	0.9392
1002	0.9324
993	0.9272
984	0.9295
975	0.9307
966	0.9303
957	0.9271
948	0.9185
939	0.9041
930	0.8745
921	0.7455
912	0.0836
903	0.184
894	0.719
885	0.8105
876	0.8706
867	0.8861
858	0.9049
849	0.9221
840	0.9331
831	0.9286
822	0.9305
813	0.9333
804	0.939
795	0.9385
786	0.9267
777	0.9141
768	0.8935
759	0.7886
750	0.6948
741	0.0392
732	0.0002
723	0.3984
714	0.6709
705	0.8166
696	0.8733
687	0.9034
678	0.9175
669	0.9323
660	0.8927
651	0.7606
642	0.8694
633	0.9173
624	0.9385
615	0.9426
606	0.9453
597	0.9499
588	0.951
579	0.9402
570	0.9341
561	0.9316
552	0.9294
543	0.9279
534	0.9302
525	0.9335
516	0.9302
507	0.9246
498	0.9158
489	0.905
480	0.8922
471	0.879
462	0.8669
453	0.8568
444	0.8488
435	0.8423
426	0.8379
417	0.8385
