Infrared Spectrum: ETHANOL, 2,2'-(5-CHLORO-2-ETHOXY PHENYLIMIDO) DI
Formula: C12 H18 Cl N O3
State: SOLID (NUJOL MULL)
Class: COBLENTZ
Instrument: Not specified, most likely a prism, grating, or hybrid spectrometer.
Sampling: TRANSMISSION
Resolution: 4
Origin: TENNESSEE EASTMAN COMPANY, RESEARCH LABORATORIES
MICROMETERS	TRANSMITTANCE
2.035	0.751
2.07466	0.751
2.11431	0.751
2.15397	0.755
2.19363	0.755
2.23328	0.75
2.27294	0.723
2.3126	0.733
2.35225	0.738
2.39191	0.745
2.43157	0.746
2.47122	0.746
2.51088	0.751
2.55054	0.766
2.59019	0.77
2.62985	0.775
2.66951	0.781
2.70916	0.78
2.74882	0.738
2.78848	0.655
2.82814	0.558
2.86779	0.395
2.90745	0.253
2.94711	0.17
2.98676	0.121
3.02642	0.075
3.06608	0.043
3.10573	0.036
3.14539	0.043
3.18505	0.051
3.2247	0.128
3.26436	0.236
3.30402	0.303
3.34367	0.138
3.38333	0.038
3.42299	0.02
3.46264	0.02
3.5023	0.12
3.54196	0.343
3.58161	0.448
3.62127	0.5
3.66093	0.498
3.70058	0.53
3.74024	0.553
3.7799	0.613
3.81955	0.641
3.85921	0.648
3.89887	0.678
3.93852	0.69
3.97818	0.671
4.01784	0.705
4.05749	0.725
4.09715	0.738
4.13681	0.76
4.17647	0.766
4.21612	0.778
4.25578	0.785
4.29544	0.785
4.33509	0.788
4.37475	0.788
4.41441	0.793
4.45406	0.8
4.49372	0.801
4.53338	0.801
4.57303	0.803
4.61269	0.805
4.65235	0.813
4.692	0.816
4.73166	0.816
4.77132	0.816
4.81097	0.818
4.85063	0.815
4.89029	0.815
4.92994	0.815
4.9696	0.82
5.00926	0.82
5.04891	0.803
5.08857	0.8
5.12823	0.793
5.16788	0.805
5.20754	0.821
5.2472	0.823
5.28685	0.823
5.32651	0.821
5.36617	0.81
5.40582	0.8
5.44548	0.813
5.48514	0.82
5.5248	0.823
5.56445	0.82
5.60411	0.818
5.64377	0.82
5.68342	0.818
5.72308	0.803
5.76274	0.79
5.80239	0.79
5.84205	0.801
5.88171	0.803
5.92136	0.795
5.96102	0.775
6.00068	0.76
6.04033	0.76
6.07999	0.756
6.11965	0.751
6.1593	0.75
6.19896	0.715
6.23862	0.543
6.27827	0.34
6.31793	0.51
6.35759	0.621
6.39724	0.653
6.4369	0.671
6.47656	0.636
6.51621	0.583
6.55587	0.441
6.59553	0.321
6.63518	0.1
6.67484	0.073
6.7145	0.031
6.75415	0.04
6.79381	0.02
6.83347	0.036
6.87313	0.095
6.91278	0.151
6.95244	0.22
6.9921	0.248
7.03175	0.223
7.07141	0.201
7.11107	0.186
7.15072	0.188
7.19038	0.081
7.23004	0.193
7.26969	0.278
7.30935	0.3
7.34901	0.303
7.38866	0.235
7.42832	0.16
7.46798	0.3
7.50763	0.398
7.54729	0.42
7.58695	0.423
7.6266	0.318
7.66626	0.225
7.70592	0.218
7.74557	0.123
7.78523	0.031
7.82489	0.121
7.86454	0.211
7.9042	0.2
7.94386	0.183
7.98351	0.151
8.02317	0.053
8.06283	0.011
8.10248	0.015
8.14214	0.101
8.1818	0.221
8.22146	0.281
8.26111	0.295
8.30077	0.293
8.34043	0.158
8.38008	0.283
8.41974	0.448
8.4594	0.495
8.49905	0.486
8.53871	0.44
8.57837	0.376
8.61802	0.208
8.65768	0.098
8.69734	0.11
8.73699	0.1
8.77665	0.101
8.81631	0.141
8.85596	0.158
8.89562	0.155
8.93528	0.128
8.97493	0.09
9.01459	0.166
9.05425	0.213
9.0939	0.196
9.13356	0.116
9.17322	0.053
9.21287	0.031
9.25253	0.058
9.29219	0.056
9.33184	0.053
9.3715	0.063
9.41116	0.07
9.45081	0.065
9.49047	0.058
9.53013	0.041
9.56979	0.038
9.60944	0.06
9.6491	0.095
9.68876	0.108
9.72841	0.11
9.76807	0.155
9.80773	0.263
9.84738	0.333
9.88704	0.37
9.9267	0.401
9.96635	0.426
10.006	0.443
10.0457	0.458
10.0853	0.478
10.125	0.493
10.1646	0.506
10.2043	0.536
10.244	0.553
10.2836	0.568
10.3233	0.58
10.3629	0.583
10.4026	0.581
10.4422	0.573
10.4819	0.551
10.5215	0.518
10.5612	0.491
10.6009	0.453
10.6405	0.393
10.6802	0.323
10.7198	0.248
10.7595	0.21
10.7991	0.221
10.8388	0.225
10.8785	0.266
10.9181	0.245
10.9578	0.145
10.9974	0.118
11.0371	0.273
11.0767	0.326
11.1164	0.326
11.1561	0.298
11.1957	0.29
11.2354	0.301
11.275	0.301
11.3147	0.273
11.3543	0.22
11.394	0.176
11.4337	0.145
11.4733	0.126
11.513	0.125
11.5526	0.108
11.5923	0.143
11.6319	0.26
11.6716	0.308
11.7113	0.336
11.7509	0.355
11.7906	0.371
11.8302	0.388
11.8699	0.403
11.9095	0.413
11.9492	0.415
11.9888	0.415
12.0285	0.413
12.0682	0.426
12.1078	0.436
12.1475	0.438
12.1871	0.438
12.2268	0.436
12.2664	0.405
12.3061	0.29
12.3458	0.146
12.3854	0.068
12.4251	0.038
12.4647	0.055
12.5044	0.163
12.544	0.27
12.5837	0.32
12.6234	0.36
12.663	0.391
12.7027	0.431
12.7423	0.456
12.782	0.49
12.8216	0.501
12.8613	0.506
12.901	0.513
12.9406	0.518
12.9803	0.521
13.0199	0.521
13.0596	0.52
13.0992	0.513
13.1389	0.501
13.1786	0.495
13.2182	0.478
13.2579	0.438
13.2975	0.425
13.3372	0.426
13.3768	0.425
13.4165	0.398
13.4561	0.338
13.4958	0.301
13.5355	0.31
13.5751	0.366
13.6148	0.425
13.6544	0.448
13.6941	0.463
13.7337	0.47
13.7734	0.478
13.8131	0.49
13.8527	0.493
13.8924	0.496
13.932	0.498
13.9717	0.501
14.0113	0.501
14.051	0.501
14.0907	0.501
14.1303	0.501
14.17	0.501
14.2096	0.501
14.2493	0.501
14.2889	0.501
14.3286	0.501
14.3683	0.501
14.4079	0.5
14.4476	0.5
14.4872	0.5
14.5269	0.498
14.5665	0.498
14.6062	0.496
14.6459	0.495
14.6855	0.493
14.7252	0.491
14.7648	0.486
14.8045	0.483
14.8441	0.471
14.8838	0.465
14.9234	0.46
14.9631	0.456
15.0028	0.451
15.0424	0.428
15.0821	0.396
15.1217	0.351
15.1614	0.31
15.201	0.258
15.2407	0.221
15.2804	0.206
15.32	0.206
15.3597	0.218
15.3993	0.25
15.439	0.275
15.4786	0.295
15.5183	0.305
15.558	0.313
15.5976	0.32
15.6373	0.326
15.6769	0.333
15.7166	0.338
15.7562	0.345
15.7959	0.35
15.8356	0.356
15.8752	0.361
15.9149	0.365
15.9545	0.368
15.9942	0.368
