Infrared Spectrum: POTASSIUM SULFITE
Formula: K2 S O3  * 2 H2 O
State: SOLID (NUJOL MULL)
Class: COBLENTZ
Instrument: Not specified, most likely a prism, grating, or hybrid spectrometer.
Sampling: TRANSMISSION
Resolution: 4
Origin: MELLON INSTITUTE
MICROMETERS	TRANSMITTANCE
2.041	0.929
2.08095	0.931
2.12091	0.928
2.16086	0.928
2.20081	0.928
2.24077	0.924
2.28072	0.911
2.32067	0.903
2.36062	0.903
2.40058	0.904
2.44053	0.904
2.48048	0.916
2.52044	0.913
2.56039	0.913
2.60034	0.918
2.6403	0.911
2.68025	0.914
2.7202	0.903
2.76015	0.872
2.80011	0.832
2.84006	0.779
2.88001	0.749
2.91997	0.735
2.95992	0.739
2.99987	0.752
3.03983	0.77
3.07978	0.789
3.11973	0.804
3.15968	0.819
3.19964	0.831
3.23959	0.834
3.27954	0.809
3.3195	0.543
3.35945	0.15
3.3994	0.155
3.43936	0.247
3.47931	0.413
3.51926	0.744
3.55921	0.851
3.59917	0.884
3.63912	0.892
3.67907	0.894
3.71903	0.899
3.75898	0.899
3.79893	0.901
3.83889	0.908
3.87884	0.913
3.91879	0.918
3.95874	0.923
3.9987	0.926
4.03865	0.926
4.0786	0.926
4.11856	0.926
4.15851	0.926
4.19846	0.913
4.23842	0.892
4.27837	0.891
4.31832	0.889
4.35827	0.897
4.39823	0.909
4.43818	0.913
4.47813	0.911
4.51809	0.911
4.55804	0.911
4.59799	0.911
4.63795	0.908
4.6779	0.904
4.71785	0.904
4.7578	0.903
4.79776	0.901
4.83771	0.903
4.87766	0.904
4.91762	0.914
4.95757	0.918
4.99752	0.923
5.03748	0.928
5.07743	0.926
5.11738	0.923
5.15733	0.918
5.19729	0.911
5.23724	0.904
5.27719	0.901
5.31715	0.901
5.3571	0.906
5.39705	0.918
5.43701	0.923
5.47696	0.928
5.51691	0.934
5.55686	0.936
5.59682	0.944
5.63677	0.944
5.67672	0.946
5.71668	0.949
5.75663	0.948
5.79658	0.949
5.83654	0.951
5.87649	0.951
5.91644	0.944
5.95639	0.943
5.99635	0.938
6.0363	0.931
6.07625	0.928
6.11621	0.934
6.15616	0.939
6.19611	0.953
6.23607	0.959
6.27602	0.966
6.31597	0.964
6.35592	0.956
6.39588	0.954
6.43583	0.953
6.47578	0.961
6.51574	0.961
6.55569	0.958
6.59564	0.964
6.6356	0.959
6.67555	0.964
6.7155	0.951
6.75546	0.872
6.79541	0.727
6.83536	0.6
6.87531	0.607
6.91527	0.682
6.95522	0.772
6.99517	0.854
7.03513	0.876
7.07508	0.906
7.11503	0.924
7.15499	0.924
7.19494	0.851
7.23489	0.757
7.27484	0.782
7.3148	0.819
7.35475	0.856
7.3947	0.881
7.43466	0.894
7.47461	0.909
7.51456	0.921
7.55452	0.926
7.59447	0.928
7.63442	0.924
7.67437	0.924
7.71433	0.924
7.75428	0.924
7.79423	0.919
7.83419	0.914
7.87414	0.909
7.91409	0.899
7.95405	0.887
7.994	0.869
8.03395	0.851
8.0739	0.827
8.11386	0.799
8.15381	0.744
8.19376	0.658
8.23372	0.526
8.27367	0.428
8.31362	0.299
8.35358	0.247
8.39353	0.214
8.43348	0.177
8.47343	0.168
8.51339	0.165
8.55334	0.172
8.59329	0.198
8.63325	0.202
8.6732	0.198
8.71315	0.178
8.75311	0.15
8.79306	0.127
8.83301	0.108
8.87296	0.091
8.91292	0.08
8.95287	0.073
8.99282	0.068
9.03278	0.063
9.07273	0.058
9.11268	0.061
9.15264	0.07
9.19259	0.103
9.23254	0.182
9.27249	0.302
9.31245	0.397
9.3524	0.51
9.39235	0.573
9.43231	0.612
9.47226	0.638
9.51221	0.66
9.55217	0.673
9.59212	0.68
9.63207	0.677
9.67202	0.652
9.71198	0.615
9.75193	0.56
9.79188	0.496
9.83184	0.397
9.87179	0.309
9.91174	0.252
9.9517	0.197
9.99165	0.162
10.0316	0.137
10.0716	0.12
10.1115	0.107
10.1515	0.096
10.1914	0.086
10.2314	0.08
10.2713	0.075
10.3113	0.07
10.3512	0.065
10.3912	0.061
10.4311	0.058
10.4711	0.056
10.511	0.056
10.551	0.053
10.5909	0.053
10.6309	0.056
10.6708	0.075
10.7108	0.122
10.7508	0.187
10.7907	0.299
10.8307	0.397
10.8706	0.481
10.9106	0.558
10.9505	0.613
10.9905	0.657
11.0304	0.7
11.0704	0.742
11.1103	0.769
11.1503	0.782
11.1902	0.801
11.2302	0.809
11.2701	0.817
11.3101	0.826
11.3501	0.842
11.39	0.852
11.43	0.859
11.4699	0.864
11.5099	0.872
11.5498	0.881
11.5898	0.887
11.6297	0.889
11.6697	0.891
11.7096	0.897
11.7496	0.903
11.7895	0.908
11.8295	0.914
11.8694	0.919
11.9094	0.923
11.9493	0.924
11.9893	0.929
12.0293	0.929
12.0692	0.933
12.1092	0.936
12.1491	0.938
12.1891	0.939
12.229	0.939
12.269	0.941
12.3089	0.943
12.3489	0.946
12.3888	0.948
12.4288	0.949
12.4687	0.951
12.5087	0.953
12.5486	0.953
12.5886	0.953
12.6285	0.951
12.6685	0.953
12.7085	0.953
12.7484	0.953
12.7884	0.951
12.8283	0.951
12.8683	0.953
12.9082	0.953
12.9482	0.953
12.9881	0.953
13.0281	0.953
13.068	0.954
13.108	0.954
13.1479	0.953
13.1879	0.951
13.2278	0.949
13.2678	0.949
13.3077	0.953
13.3477	0.951
13.3877	0.948
13.4276	0.944
13.4676	0.939
13.5075	0.939
13.5475	0.936
13.5874	0.933
13.6274	0.929
13.6673	0.928
13.7073	0.926
13.7472	0.923
13.7872	0.923
13.8271	0.919
13.8671	0.914
13.907	0.913
13.947	0.913
13.9869	0.916
14.0269	0.919
14.0669	0.921
14.1068	0.921
14.1468	0.919
14.1867	0.914
14.2267	0.913
14.2666	0.913
14.3066	0.911
14.3465	0.908
14.3865	0.904
14.4264	0.899
14.4664	0.894
14.5063	0.889
14.5463	0.886
14.5862	0.882
14.6262	0.877
14.6662	0.872
14.7061	0.867
14.7461	0.861
14.786	0.856
14.826	0.849
14.8659	0.841
14.9059	0.836
14.9458	0.832
14.9858	0.827
15.0257	0.821
15.0657	0.816
15.1056	0.809
15.1456	0.804
15.1855	0.799
15.2255	0.792
15.2654	0.78
15.3054	0.772
15.3454	0.759
15.3853	0.75
15.4253	0.735
15.4652	0.72
15.5052	0.707
15.5451	0.69
15.5851	0.672
15.625	0.653
15.665	0.637
15.7049	0.62
15.7449	0.612
15.7848	0.602
15.8248	0.596
15.8647	0.59
15.9047	0.59
15.9446	0.596
15.9846	0.6
