Infrared Spectrum: 2-NAPHTHYLAMINE-6-SULFONIC ACID, SODIUM SALT
Formula: C10 H8 N O3 S Na
State: SOLID (MINERAL OIL MULL)
Class: COBLENTZ
Instrument: Not specified, most likely a prism, grating, or hybrid spectrometer.
Sampling: TRANSMISSION
Resolution: 4
Origin: DOW CHEMICAL COMPANY
MICROMETERS	TRANSMITTANCE
2.013	0.626
2.05315	0.637
2.09331	0.649
2.13346	0.652
2.17361	0.666
2.21377	0.671
2.25392	0.674
2.29408	0.677
2.33423	0.687
2.37438	0.701
2.41454	0.711
2.45469	0.722
2.49484	0.737
2.535	0.746
2.57515	0.757
2.61531	0.766
2.65546	0.779
2.69561	0.782
2.73577	0.774
2.77592	0.732
2.81607	0.632
2.85623	0.497
2.89638	0.467
2.93653	0.472
2.97669	0.482
3.01684	0.554
3.057	0.557
3.09715	0.52
3.1373	0.46
3.17746	0.38
3.21761	0.305
3.25776	0.28
3.29792	0.293
3.33807	0.247
3.37823	0.035
3.41838	0.033
3.45853	0.091
3.49869	0.217
3.53884	0.465
3.57899	0.52
3.61915	0.564
3.6593	0.567
3.69945	0.574
3.73961	0.569
3.77976	0.569
3.81992	0.53
3.86007	0.569
3.90022	0.639
3.94038	0.681
3.98053	0.716
4.02068	0.747
4.06084	0.766
4.10099	0.776
4.14115	0.787
4.1813	0.791
4.22145	0.797
4.26161	0.804
4.30176	0.811
4.34191	0.819
4.38207	0.828
4.42222	0.828
4.46238	0.826
4.50253	0.833
4.54268	0.833
4.58284	0.834
4.62299	0.838
4.66314	0.849
4.7033	0.849
4.74345	0.858
4.7836	0.861
4.82376	0.868
4.86391	0.864
4.90407	0.868
4.94422	0.868
4.98437	0.866
5.02453	0.869
5.06468	0.871
5.10483	0.864
5.14499	0.854
5.18514	0.859
5.2253	0.868
5.26545	0.878
5.3056	0.879
5.34576	0.884
5.38591	0.891
5.42606	0.899
5.46622	0.899
5.50637	0.896
5.54652	0.894
5.58668	0.883
5.62683	0.898
5.66699	0.906
5.70714	0.908
5.74729	0.908
5.78745	0.908
5.8276	0.899
5.86775	0.889
5.90791	0.884
5.94806	0.858
5.98822	0.797
6.02837	0.744
6.06852	0.717
6.10868	0.717
6.14883	0.711
6.18898	0.672
6.22914	0.704
6.26929	0.699
6.30944	0.666
6.3496	0.671
6.38975	0.696
6.42991	0.704
6.47006	0.686
6.51021	0.57
6.55037	0.454
6.59052	0.402
6.63067	0.544
6.67083	0.669
6.71098	0.707
6.75114	0.589
6.79129	0.405
6.83144	0.38
6.8716	0.507
6.91175	0.626
6.9519	0.724
6.99206	0.759
7.03221	0.784
7.07236	0.823
7.11252	0.831
7.15267	0.804
7.19283	0.702
7.23298	0.587
7.27313	0.619
7.31329	0.714
7.35344	0.779
7.39359	0.769
7.43375	0.741
7.4739	0.839
7.51406	0.846
7.55421	0.836
7.59436	0.828
7.63452	0.821
7.67467	0.821
7.71482	0.821
7.75498	0.818
7.79513	0.764
7.83529	0.716
7.87544	0.704
7.91559	0.629
7.95575	0.611
7.9959	0.564
8.03605	0.439
8.07621	0.29
8.11636	0.141
8.15651	0.105
8.19667	0.155
8.23682	0.228
8.27698	0.233
8.31713	0.196
8.35728	0.125
8.39744	0.103
8.43759	0.153
8.47774	0.228
8.5179	0.28
8.55805	0.327
8.59821	0.388
8.63836	0.43
8.67851	0.46
8.71867	0.467
8.75882	0.425
8.79897	0.402
8.83913	0.4
8.87928	0.5
8.91943	0.601
8.95959	0.651
8.99974	0.661
9.0399	0.594
9.08005	0.378
9.1202	0.141
9.16036	0.23
9.20051	0.472
9.24066	0.614
9.28082	0.674
9.32097	0.716
9.36113	0.732
9.40128	0.757
9.44143	0.767
9.48159	0.771
9.52174	0.767
9.56189	0.721
9.60205	0.542
9.6422	0.233
9.68235	0.155
9.72251	0.345
9.76266	0.555
9.80282	0.681
9.84297	0.756
9.88312	0.794
9.92328	0.818
9.96343	0.829
10.0036	0.834
10.0437	0.839
10.0839	0.848
10.124	0.851
10.1642	0.856
10.2044	0.856
10.2445	0.839
10.2847	0.801
10.3248	0.776
10.365	0.786
10.4051	0.804
10.4453	0.836
10.4854	0.848
10.5256	0.854
10.5657	0.859
10.6059	0.861
10.646	0.861
10.6862	0.861
10.7264	0.863
10.7665	0.863
10.8067	0.861
10.8468	0.853
10.887	0.839
10.9271	0.774
10.9673	0.614
11.0074	0.606
11.0476	0.752
11.0877	0.776
11.1279	0.689
11.168	0.649
11.2082	0.751
11.2483	0.796
11.2885	0.811
11.3287	0.823
11.3688	0.826
11.409	0.836
11.4491	0.851
11.4893	0.859
11.5294	0.863
11.5696	0.868
11.6097	0.869
11.6499	0.869
11.69	0.871
11.7302	0.871
11.7703	0.871
11.8105	0.871
11.8507	0.869
11.8908	0.863
11.931	0.853
11.9711	0.831
12.0113	0.769
12.0514	0.599
12.0916	0.419
12.1317	0.395
12.1719	0.577
12.212	0.674
12.2522	0.694
12.2923	0.702
12.3325	0.717
12.3727	0.736
12.4128	0.754
12.453	0.777
12.4931	0.813
12.5333	0.829
12.5734	0.838
12.6136	0.838
12.6537	0.838
12.6939	0.839
12.734	0.838
12.7742	0.833
12.8143	0.828
12.8545	0.824
12.8947	0.819
12.9348	0.816
12.975	0.808
13.0151	0.804
13.0553	0.808
13.0954	0.803
13.1356	0.797
13.1757	0.791
13.2159	0.781
13.256	0.772
13.2962	0.757
13.3363	0.731
13.3765	0.707
13.4166	0.702
13.4568	0.706
13.497	0.719
13.5371	0.729
13.5773	0.726
13.6174	0.719
13.6576	0.714
13.6977	0.701
13.7379	0.691
13.778	0.681
13.8182	0.672
13.8583	0.657
13.8985	0.656
13.9386	0.649
13.9788	0.647
14.019	0.641
14.0591	0.631
14.0993	0.622
14.1394	0.616
14.1796	0.604
14.2197	0.592
14.2599	0.579
14.3	0.565
14.3402	0.549
14.3803	0.539
14.4205	0.524
14.4606	0.505
14.5008	0.49
14.541	0.465
14.5811	0.447
14.6213	0.414
14.6614	0.382
14.7016	0.337
14.7417	0.293
14.7819	0.252
14.822	0.217
14.8622	0.196
14.9023	0.186
14.9425	0.186
14.9826	0.215
15.0228	0.27
15.0629	0.308
15.1031	0.33
15.1433	0.34
15.1834	0.335
15.2236	0.298
15.2637	0.258
15.3039	0.237
15.344	0.228
15.3842	0.245
15.4243	0.28
15.4645	0.317
15.5046	0.345
15.5448	0.362
15.5849	0.372
15.6251	0.373
15.6653	0.375
15.7054	0.377
15.7456	0.38
15.7857	0.38
15.8259	0.38
15.866	0.377
