Infrared Spectrum: SODIUM PYROPHOSPHATE
Formula: O7 P2 Na4
State: SOLID (1.3 mg / 400 mg KBr PELLET)
Class: COBLENTZ III
Instrument: PERKIN-ELMER 421 (GRATING)
Instrument parameters: GRATING CHANGE AT 1999 CM^-^1
Sampling: TRANSMISSION
Resolution: 4
Origin: PROCTER AND GAMBLE CO.
1/CM	TRANSMITTANCE
497.627	0.764
506.667	0.76
515.706	0.758
524.746	0.748
533.785	0.715
542.825	0.63
551.864	0.344
560.904	0.174
569.943	0.197
578.983	0.286
588.023	0.598
597.062	0.779
606.102	0.807
615.141	0.741
624.181	0.875
633.22	0.891
642.26	0.896
651.299	0.899
660.339	0.9
669.379	0.9
678.418	0.896
687.458	0.892
696.497	0.868
705.537	0.872
714.576	0.841
723.616	0.732
732.655	0.344
741.695	0.733
750.735	0.866
759.774	0.885
768.814	0.895
777.853	0.897
786.893	0.896
795.932	0.896
804.972	0.892
814.011	0.896
823.051	0.887
832.09	0.875
841.13	0.86
850.17	0.831
859.209	0.813
868.249	0.771
877.288	0.692
886.328	0.559
895.367	0.344
904.407	0.17
913.446	0.079
922.486	0.043
931.526	0.146
940.565	0.366
949.605	0.559
958.644	0.665
967.684	0.712
976.723	0.711
985.763	0.321
994.802	0.741
1003.84	0.797
1012.88	0.771
1021.92	0.616
1030.96	0.653
1040	0.779
1049.04	0.774
1058.08	0.758
1067.12	0.724
1076.16	0.673
1085.2	0.606
1094.24	0.485
1103.28	0.303
1112.32	0.1
1121.36	0.009
1130.4	0.01
1139.44	0.012
1148.47	0.012
1157.51	0.017
1166.55	0.1
1175.59	0.309
1184.63	0.479
1193.67	0.565
1202.71	0.663
1211.75	0.701
1220.79	0.727
1229.83	0.747
1238.87	0.76
1247.91	0.775
1256.95	0.79
1265.99	0.801
1275.03	0.809
1284.07	0.814
1293.11	0.822
1302.15	0.83
1311.19	0.833
1320.23	0.837
1329.27	0.837
1338.31	0.841
1347.35	0.844
1356.38	0.844
1365.42	0.845
1374.46	0.842
1383.5	0.845
1392.54	0.849
1401.58	0.852
1410.62	0.853
1419.66	0.853
1428.7	0.85
1437.74	0.852
1446.78	0.841
1455.82	0.848
1464.86	0.852
1473.9	0.853
1482.94	0.852
1491.98	0.852
1501.02	0.856
1510.06	0.857
1519.1	0.858
1528.14	0.858
1537.18	0.861
1546.22	0.862
1555.25	0.858
1564.29	0.857
1573.33	0.856
1582.37	0.856
1591.41	0.846
1600.45	0.841
1609.49	0.834
1618.53	0.831
1627.57	0.84
1636.61	0.846
1645.65	0.846
1654.69	0.854
1663.73	0.857
1672.77	0.858
1681.81	0.86
1690.85	0.865
1699.89	0.868
1708.93	0.864
1717.97	0.858
1727.01	0.861
1736.05	0.864
1745.09	0.87
1754.13	0.873
1763.16	0.881
1772.2	0.883
1781.24	0.884
1790.28	0.881
1799.32	0.884
1808.36	0.884
1817.4	0.881
1826.44	0.881
1835.48	0.884
1844.52	0.884
1853.56	0.884
1862.6	0.885
1871.64	0.884
1880.68	0.885
1889.72	0.884
1898.76	0.888
1907.8	0.885
1916.84	0.884
1925.88	0.887
1934.92	0.885
1943.96	0.885
1953	0.889
1962.03	0.888
1971.07	0.884
1980.11	0.889
1989.15	0.887
1998.19	0.856
2007.23	0.8854
2016.27	0.8894
2025.31	0.891
2034.35	0.891
2043.39	0.889
2052.43	0.8877
2061.47	0.8864
2070.51	0.8847
2079.55	0.884
2088.59	0.881
2097.63	0.88
2106.67	0.881
2115.71	0.884
2124.75	0.885
2133.79	0.885
2142.83	0.885
2151.87	0.887
2160.9	0.889
2169.94	0.889
2178.98	0.891
2188.02	0.891
2197.06	0.89
2206.1	0.891
2215.14	0.891
2224.18	0.892
2233.22	0.892
2242.26	0.892
2251.3	0.892
2260.34	0.892
2269.38	0.889
2278.42	0.891
2287.46	0.892
2296.5	0.892
2305.54	0.892
2314.58	0.892
2323.62	0.892
2332.66	0.893
2341.7	0.893
2350.74	0.893
2359.78	0.893
2368.81	0.895
2377.85	0.895
2386.89	0.895
2395.93	0.895
2404.97	0.8934
2414.01	0.893
2423.05	0.893
2432.09	0.892
2441.13	0.893
2450.17	0.8969
2459.21	0.899
2468.25	0.9009
2477.29	0.9048
2486.33	0.9043
2495.37	0.889
2504.41	0.892
2513.45	0.891
2522.49	0.892
2531.53	0.892
2540.57	0.892
2549.61	0.891
2558.65	0.893
2567.68	0.892
2576.72	0.891
2585.76	0.889
2594.8	0.892
2603.84	0.889
2612.88	0.891
2621.92	0.889
2630.96	0.891
2640	0.889
2649.04	0.889
2658.08	0.889
2667.12	0.8912
2676.16	0.8912
2685.2	0.8894
2694.24	0.889
2703.28	0.8905
2712.32	0.889
2721.36	0.889
2730.4	0.889
2739.44	0.891
2748.48	0.891
2757.52	0.8887
2766.56	0.887
2775.59	0.885
2784.63	0.885
2793.67	0.885
2802.71	0.887
2811.75	0.885
2820.79	0.883
2829.83	0.8766
2838.87	0.8671
2847.91	0.8615
2856.95	0.864
2865.99	0.866
2875.03	0.8685
2884.07	0.868
2893.11	0.8629
2902.15	0.8538
2911.19	0.8388
2920.23	0.834
2929.27	0.8366
2938.31	0.8514
2947.35	0.86
2956.39	0.861
2965.43	0.8653
2974.46	0.8697
2983.5	0.872
2992.54	0.87
3001.58	0.869
3010.62	0.869
3019.66	0.869
3028.7	0.869
3037.74	0.869
3046.78	0.869
3055.82	0.8698
3064.86	0.869
3073.9	0.868
3082.94	0.868
3091.98	0.866
3101.02	0.8652
3110.06	0.8651
3119.1	0.865
3128.14	0.865
3137.18	0.865
3146.22	0.8611
3155.26	0.86
3164.3	0.86
3173.33	0.858
3182.37	0.857
3191.41	0.857
3200.45	0.857
3209.49	0.854
3218.53	0.854
3227.57	0.854
3236.61	0.853
3245.65	0.852
3254.69	0.852
3263.73	0.8499
3272.77	0.845
3281.81	0.845
3290.85	0.844
3299.89	0.8419
3308.93	0.8418
3317.97	0.841
3327.01	0.8378
3336.05	0.837
3345.09	0.836
3354.13	0.833
3363.17	0.831
3372.21	0.831
3381.24	0.83
3390.28	0.83
3399.32	0.8303
3408.36	0.83
3417.4	0.829
3426.44	0.829
3435.48	0.831
3444.52	0.831
3453.56	0.8318
3462.6	0.831
3471.64	0.833
3480.68	0.834
3489.72	0.836
3498.76	0.836
3507.8	0.8405
3516.84	0.845
3525.88	0.846
3534.92	0.848
3543.96	0.848
3553	0.848
3562.04	0.8495
3571.08	0.853
3580.11	0.853
3589.15	0.856
3598.19	0.858
3607.23	0.8574
3616.27	0.857
3625.31	0.8573
3634.35	0.861
3643.39	0.858
3652.43	0.8594
3661.47	0.865
3670.51	0.862
3679.55	0.8647
3688.59	0.864
3697.63	0.861
3706.67	0.858
3715.71	0.857
3724.75	0.8562
3733.79	0.856
3742.83	0.858
3751.87	0.86
3760.91	0.858
3769.95	0.8634
3778.99	0.864
3788.02	0.865
3797.06	0.864
3806.1	0.868
3815.14	0.8651
3824.18	0.8601
3833.22	0.8609
3842.26	0.86
3851.3	0.8599
3860.34	0.86
3869.38	0.857
3878.42	0.858
3887.46	0.861
3896.5	0.86
3905.54	0.861
3914.58	0.861
3923.62	0.8598
3932.66	0.857
3941.7	0.857
3950.74	0.856
3959.78	0.856
3968.82	0.857
3977.86	0.8568
3986.89	0.856
3995.93	0.8544
