Infrared Spectrum: SODIUM HEPTAFLUOZIRCONATE IV
Formula: Na3 Zr F7
State: SOLID (MINERAL OIL MULL)
Class: COBLENTZ
Instrument: Not specified, most likely a prism, grating, or hybrid spectrometer.
Sampling: TRANSMISSION
Resolution: 4
Origin: WYANDOTTE CHEMICALS CORP., WYANDOTTE, MICHIGAN, USA
MICROMETERS	TRANSMITTANCE
2	0.811
2.04094	0.805
2.08187	0.801
2.12281	0.801
2.16374	0.803
2.20468	0.808
2.24561	0.808
2.28655	0.81
2.32748	0.808
2.36842	0.808
2.40935	0.811
2.45029	0.813
2.49123	0.815
2.53216	0.817
2.5731	0.825
2.61403	0.83
2.65497	0.834
2.6959	0.835
2.73684	0.839
2.77777	0.839
2.81871	0.841
2.85964	0.839
2.90058	0.832
2.94151	0.82
2.98245	0.81
3.02339	0.805
3.06432	0.803
3.10526	0.805
3.14619	0.805
3.18713	0.803
3.22806	0.805
3.269	0.803
3.30993	0.788
3.35087	0.675
3.3918	0.304
3.43274	0.123
3.47368	0.071
3.51461	0.087
3.55555	0.181
3.59648	0.511
3.63742	0.699
3.67835	0.748
3.71929	0.762
3.76022	0.779
3.80116	0.794
3.84209	0.811
3.88303	0.82
3.92396	0.832
3.9649	0.849
4.00584	0.856
4.04677	0.861
4.08771	0.866
4.12864	0.87
4.16958	0.871
4.21051	0.871
4.25145	0.873
4.29238	0.878
4.33332	0.888
4.37425	0.902
4.41519	0.907
4.45613	0.907
4.49706	0.907
4.538	0.907
4.57893	0.912
4.61987	0.914
4.6608	0.917
4.70174	0.917
4.74267	0.921
4.78361	0.923
4.82454	0.924
4.86548	0.924
4.90641	0.924
4.94735	0.926
4.98829	0.928
5.02922	0.931
5.07016	0.935
5.11109	0.931
5.15203	0.935
5.19296	0.933
5.2339	0.938
5.27483	0.938
5.31577	0.936
5.3567	0.938
5.39764	0.938
5.43858	0.94
5.47951	0.94
5.52045	0.941
5.56138	0.948
5.60232	0.95
5.64325	0.95
5.68419	0.95
5.72512	0.943
5.76606	0.929
5.80699	0.914
5.84793	0.905
5.88886	0.897
5.9298	0.868
5.97074	0.847
6.01167	0.849
6.05261	0.854
6.09354	0.859
6.13448	0.858
6.17541	0.863
6.21635	0.873
6.25728	0.888
6.29822	0.895
6.33915	0.899
6.38009	0.904
6.42103	0.911
6.46196	0.909
6.5029	0.905
6.54383	0.899
6.58477	0.895
6.6257	0.894
6.66664	0.887
6.70757	0.846
6.74851	0.776
6.78944	0.463
6.83038	0.335
6.87131	0.369
6.91225	0.492
6.95319	0.62
6.99412	0.753
7.03506	0.822
7.07599	0.847
7.11693	0.854
7.15786	0.847
7.1988	0.8
7.23973	0.664
7.28067	0.519
7.3216	0.652
7.36254	0.736
7.40348	0.777
7.44441	0.791
7.48535	0.801
7.52628	0.822
7.56722	0.837
7.60815	0.841
7.64909	0.834
7.69002	0.834
7.73096	0.835
7.77189	0.839
7.81283	0.841
7.85376	0.841
7.8947	0.837
7.93564	0.839
7.97657	0.837
8.01751	0.827
8.05844	0.822
8.09938	0.803
8.14031	0.796
8.18125	0.789
8.22218	0.788
8.26312	0.786
8.30405	0.782
8.34499	0.791
8.38593	0.803
8.42686	0.803
8.4678	0.801
8.50873	0.801
8.54967	0.798
8.5906	0.798
8.63154	0.796
8.67247	0.791
8.71341	0.794
8.75434	0.794
8.79528	0.793
8.83621	0.786
8.87715	0.784
8.91809	0.784
8.95902	0.769
8.99996	0.764
9.04089	0.758
9.08183	0.758
9.12276	0.758
9.1637	0.765
9.20463	0.776
9.24557	0.777
9.2865	0.779
9.32744	0.779
9.36838	0.781
9.40931	0.793
9.45025	0.798
9.49118	0.8
9.53212	0.796
9.57305	0.793
9.61399	0.788
9.65492	0.784
9.69586	0.784
9.73679	0.779
9.77773	0.777
9.81866	0.777
9.8596	0.782
9.90054	0.793
9.94147	0.805
9.98241	0.811
10.0233	0.813
10.0643	0.817
10.1052	0.817
10.1461	0.815
10.1871	0.815
10.228	0.81
10.269	0.808
10.3099	0.806
10.3508	0.806
10.3918	0.806
10.4327	0.806
10.4736	0.801
10.5146	0.808
10.5555	0.81
10.5964	0.806
10.6374	0.806
10.6783	0.81
10.7192	0.805
10.7602	0.806
10.8011	0.805
10.8421	0.803
10.883	0.801
10.9239	0.805
10.9649	0.805
11.0058	0.806
11.0467	0.808
11.0877	0.806
11.1286	0.808
11.1695	0.815
11.2105	0.806
11.2514	0.806
11.2923	0.81
11.3333	0.813
11.3742	0.811
11.4151	0.813
11.4561	0.817
11.497	0.817
11.538	0.817
11.5789	0.823
11.6198	0.82
11.6608	0.82
11.7017	0.815
11.7426	0.813
11.7836	0.81
11.8245	0.813
11.8654	0.817
11.9064	0.815
11.9473	0.811
11.9882	0.815
12.0292	0.811
12.0701	0.811
12.111	0.81
12.152	0.808
12.1929	0.813
12.2339	0.81
12.2748	0.808
12.3157	0.801
12.3567	0.796
12.3976	0.789
12.4385	0.772
12.4795	0.757
12.5204	0.747
12.5613	0.738
12.6023	0.723
12.6432	0.705
12.6841	0.671
12.7251	0.637
12.766	0.601
12.807	0.567
12.8479	0.535
12.8888	0.502
12.9298	0.464
12.9707	0.446
13.0116	0.418
13.0526	0.394
13.0935	0.37
13.1344	0.343
13.1754	0.324
13.2163	0.299
13.2572	0.287
13.2982	0.273
13.3391	0.254
13.38	0.247
13.421	0.242
13.4619	0.239
13.5029	0.241
13.5438	0.258
13.5847	0.285
13.6257	0.316
13.6666	0.338
13.7075	0.362
13.7485	0.398
13.7894	0.423
13.8303	0.446
13.8713	0.471
13.9122	0.494
13.9531	0.519
13.9941	0.552
14.035	0.584
14.0759	0.611
14.1169	0.632
14.1578	0.649
14.1988	0.676
14.2397	0.685
14.2806	0.697
14.3216	0.704
14.3625	0.714
14.4034	0.719
14.4444	0.728
14.4853	0.736
14.5262	0.736
14.5672	0.731
14.6081	0.731
14.649	0.735
14.69	0.736
14.7309	0.738
14.7719	0.738
14.8128	0.735
14.8537	0.735
14.8947	0.736
14.9356	0.733
14.9765	0.733
15.0175	0.728
15.0584	0.721
15.0993	0.714
15.1403	0.712
15.1812	0.712
15.2221	0.711
15.2631	0.711
15.304	0.709
15.3449	0.709
15.3859	0.709
15.4268	0.711
15.4678	0.711
15.5087	0.707
15.5496	0.705
15.5906	0.705
15.6315	0.704
15.6724	0.699
15.7134	0.694
15.7543	0.692
15.7952	0.685
15.8362	0.682
15.8771	0.682
15.918	0.68
15.959	0.678
