Infrared Spectrum: Glutaranilic acid, 3-[( phenylcarbamoyl)methyl]-
Formula: C19 H20 N2 O4
State: SOLID (OIL MULL)
Melting point: 212 C
Class: COBLENTZ III
Instrument: PERKIN-ELMER 21 (GRATING)
Instrument parameters: FILTER CHANGE ABOUT 1075 CM^-^1
Sampling: TRANSMISSION
Path length: 0.0025 CM
Resolution: 2
Origin: SOUTHERN RESEARCH INSTITUTE
1/CM	TRANSMITTANCE
611	0.7587
620.04	0.7651
629.08	0.7737
638.119	0.7804
647.159	0.7566
656.199	0.7068
665.239	0.6851
674.278	0.6704
683.318	0.3287
692.358	0.7141
701.398	0.6725
710.438	0.563
719.477	0.4824
728.517	0.3345
737.557	0.4834
746.597	0.6128
755.636	0.7094
764.676	0.8167
773.716	0.8644
782.756	0.8687
791.796	0.8648
800.835	0.859
809.875	0.8496
818.915	0.8336
827.955	0.8194
836.994	0.8131
846.034	0.8095
855.074	0.7996
864.114	0.7666
873.154	0.6451
882.193	0.677
891.233	0.6626
900.273	0.6357
909.313	0.6337
918.352	0.6798
927.392	0.7083
936.432	0.7196
945.472	0.7187
954.512	0.7075
963.551	0.6885
972.591	0.6584
981.631	0.7615
990.671	0.7675
999.71	0.769
1008.75	0.7621
1017.79	0.7511
1026.83	0.7481
1035.87	0.7128
1044.91	0.6578
1053.95	0.7394
1062.99	0.7306
1072.03	0.74
1081.07	0.753
1090.11	0.7596
1099.15	0.7662
1108.19	0.7595
1117.23	0.7511
1126.27	0.7275
1135.31	0.6941
1144.35	0.6597
1153.39	0.6447
1162.43	0.6254
1171.47	0.4478
1180.51	0.6883
1189.55	0.6921
1198.59	0.6721
1207.63	0.6402
1216.67	0.5678
1225.7	0.3651
1234.74	0.5697
1243.78	0.4799
1252.82	0.5314
1261.86	0.5501
1270.9	0.544
1279.94	0.4763
1288.98	0.4291
1298.02	0.345
1307.06	0.3424
1316.1	0.4757
1325.14	0.424
1334.18	0.4495
1343.22	0.4358
1352.26	0.4041
1361.3	0.1793
1370.34	0.0765
1379.38	0.2189
1388.42	0.5175
1397.46	0.5403
1406.5	0.4676
1415.54	0.4346
1424.58	0.291
1433.62	0.143
1442.66	0.0292
1451.7	0.0198
1460.74	0.0229
1469.78	0.1013
1478.82	0.3802
1487.86	0.4771
1496.9	0.412
1505.94	0.5771
1514.98	0.5631
1524.02	0.4728
1533.06	0.2458
1542.1	0.1766
1551.14	0.6193
1560.18	0.7007
1569.22	0.7
1578.26	0.6698
1587.3	0.4619
1596.34	0.3115
1605.38	0.5617
1614.42	0.5655
1623.46	0.5377
1632.5	0.4228
1641.53	0.3003
1650.57	0.0813
1659.61	0.1102
1668.65	0.3154
1677.69	0.2881
1686.73	0.1395
1695.77	0.2273
1704.81	0.4865
1713.85	0.6416
1722.89	0.7415
1731.93	0.7792
1740.97	0.8047
1750.01	0.8285
1759.05	0.8446
1768.09	0.8546
1777.13	0.8633
1786.17	0.8713
1795.21	0.8804
1804.25	0.8825
1813.29	0.8847
1822.33	0.8856
1831.37	0.8849
1840.41	0.8842
1849.45	0.8848
1858.49	0.8876
1867.53	0.8917
1876.57	0.893
1885.61	0.8932
1894.65	0.8921
1903.69	0.8912
1912.73	0.8906
1921.77	0.89
1930.81	0.8896
1939.85	0.8894
1948.89	0.8895
1957.93	0.8895
1966.97	0.8891
1976.01	0.8887
1985.05	0.8876
1994.09	0.8864
2003.13	0.885
2012.17	0.8835
2021.21	0.8821
2030.25	0.8806
2039.29	0.8796
2048.32	0.8803
2057.36	0.8804
2066.4	0.8767
2075.44	0.8737
2084.48	0.8711
2093.52	0.8688
2102.56	0.8665
2111.6	0.8642
2120.64	0.862
2129.68	0.8598
2138.72	0.8578
2147.76	0.856
2156.8	0.8553
2165.84	0.8563
2174.88	0.8574
2183.92	0.8572
2192.96	0.8546
2202	0.8517
2211.04	0.8472
2220.08	0.8428
2229.12	0.8386
2238.16	0.8353
2247.2	0.8332
2256.24	0.8311
2265.28	0.8285
2274.32	0.826
2283.36	0.8234
2292.4	0.8207
2301.44	0.819
2310.48	0.8186
2319.52	0.8187
2328.56	0.8199
2337.6	0.8189
2346.64	0.8135
2355.68	0.8059
2364.72	0.8006
2373.76	0.7976
2382.8	0.7943
2391.84	0.7906
2400.88	0.7871
2409.92	0.7839
2418.96	0.7818
2428	0.7793
2437.04	0.7787
2446.08	0.7762
2455.11	0.7682
2464.15	0.7579
2473.19	0.748
2482.23	0.7388
2491.27	0.7295
2500.31	0.7195
2509.35	0.7089
2518.39	0.6982
2527.43	0.6866
2536.47	0.6749
2545.51	0.6642
2554.55	0.6544
2563.59	0.6428
2572.63	0.6301
2581.67	0.6174
2590.71	0.6051
2599.75	0.5937
2608.79	0.5857
2617.83	0.5787
2626.87	0.5717
2635.91	0.5649
2644.95	0.5582
2653.99	0.5541
2663.03	0.5501
2672.07	0.5463
2681.11	0.5427
2690.15	0.5389
2699.19	0.5344
2708.23	0.5295
2717.27	0.5254
2726.31	0.5236
2735.35	0.5196
2744.39	0.5097
2753.43	0.4921
2762.47	0.4548
2771.51	0.4041
2780.55	0.3108
2789.59	0.2544
2798.63	0.1895
2807.67	0.0566
2816.71	0.0183
2825.75	0.011
2834.79	0.0112
2843.83	0.0119
2852.87	0.0097
2861.9	0.0047
2870.94	0.0035
2879.98	0.0036
2889.02	0.0042
2898.06	0.0049
2907.1	0.0077
2916.14	0.0101
2925.18	0.0131
2934.22	0.0192
2943.26	0.0372
2952.3	0.0538
2961.34	0.0915
2970.38	0.1464
2979.42	0.2285
2988.46	0.282
2997.5	0.3127
3006.54	0.3297
3015.58	0.3423
3024.62	0.3529
3033.66	0.3654
3042.7	0.3776
3051.74	0.391
3060.78	0.404
3069.82	0.4198
3078.86	0.4408
3087.9	0.4567
3096.94	0.4568
3105.98	0.4558
3115.02	0.4546
3124.06	0.4587
3133.1	0.4642
3142.14	0.4589
3151.18	0.4463
3160.22	0.4374
3169.26	0.4343
3178.3	0.4315
3187.34	0.4211
3196.38	0.4022
3205.42	0.3605
3214.46	0.3106
3223.5	0.2667
3232.54	0.2306
3241.58	0.2061
3250.62	0.192
3259.66	0.1969
3268.7	0.2097
3277.73	0.2344
3286.77	0.2912
3295.81	0.3767
3304.85	0.4295
3313.89	0.4941
3322.93	0.609
3331.97	0.6784
3341.01	0.7152
3350.05	0.7324
3359.09	0.7495
3368.13	0.758
3377.17	0.7656
3386.21	0.7713
3395.25	0.7759
3404.29	0.7802
3413.33	0.7812
3422.37	0.7814
3431.41	0.7813
3440.45	0.7814
3449.49	0.7815
3458.53	0.7835
3467.57	0.7831
3476.61	0.7822
3485.65	0.7845
3494.69	0.781
3503.73	0.7776
3512.77	0.7755
3521.81	0.7744
3530.85	0.7733
3539.89	0.772
3548.93	0.7707
3557.97	0.7695
3567.01	0.7683
3576.05	0.7671
3585.09	0.766
3594.13	0.7647
3603.17	0.7634
3612.21	0.7623
3621.25	0.7598
3630.29	0.7544
3639.33	0.7516
3648.37	0.7494
3657.41	0.7473
3666.45	0.7464
3675.49	0.7456
3684.52	0.7443
3693.56	0.7424
3702.6	0.7405
3711.64	0.7386
3720.68	0.7368
3729.72	0.7351
3738.76	0.7334
3747.8	0.7316
3756.84	0.7299
3765.88	0.7282
3774.92	0.7264
3783.96	0.7247
3793	0.7229
3802.04	0.7212
3811.08	0.7195
3820.12	0.7178
3829.16	0.7165
3838.2	0.7155
3847.24	0.7146
3856.28	0.7137
3865.32	0.7113
3874.36	0.7086
3883.4	0.706
3892.44	0.7036
3901.48	0.7013
3910.52	0.6991
3919.56	0.6976
3928.6	0.6965
3937.64	0.6954
3946.68	0.6931
3955.72	0.6906
3964.76	0.688
3973.8	0.6862
3982.84	0.6853
3991.88	0.6848
4000.92	0.6851
4009.96	0.6862
4019	0.688
4028.04	0.6924
4037.08	0.697
4046.12	0.7037
4055.16	0.7134
4064.2	0.7322
