Infrared Spectrum: 4-BENZOXAZONE, 2-(2'-DIMETHYLAMINO-1',1'-DIMETHYLETHYL)-
Formula: C14 H20 N2 O2
State: SOLUTION (7% CHCl3)
Class: COBLENTZ
Instrument: Not specified, most likely a prism, grating, or hybrid spectrometer.
Sampling: TRANSMISSION
Path length: 0.009 CM
Resolution: 4
MICROMETERS	TRANSMITTANCE
2.027	0.981
2.06106	0.983
2.09513	0.978
2.12919	0.979
2.16325	0.981
2.19732	0.973
2.23138	0.976
2.26544	0.973
2.29951	0.971
2.33357	0.969
2.36763	0.963
2.4017	0.959
2.43576	0.958
2.46983	0.951
2.50389	0.944
2.53795	0.951
2.57202	0.956
2.60608	0.958
2.64014	0.958
2.67421	0.958
2.70827	0.958
2.74233	0.958
2.7764	0.959
2.81046	0.956
2.84452	0.958
2.87859	0.966
2.91265	0.936
2.94671	0.922
2.98078	0.887
3.01484	0.86
3.0489	0.865
3.08297	0.857
3.11703	0.832
3.15109	0.787
3.18516	0.716
3.21922	0.663
3.25329	0.631
3.28735	0.631
3.32141	0.646
3.35548	0.654
3.38954	0.663
3.4236	0.388
3.45767	0.423
3.49173	0.527
3.52579	0.561
3.55986	0.579
3.59392	0.542
3.62798	0.514
3.66205	0.648
3.69611	0.574
3.73017	0.745
3.76424	0.844
3.7983	0.864
3.83236	0.886
3.86643	0.902
3.90049	0.906
3.93455	0.914
3.96862	0.916
4.00268	0.917
4.03675	0.917
4.07081	0.917
4.10487	0.914
4.13894	0.902
4.173	0.896
4.20706	0.896
4.24113	0.907
4.27519	0.924
4.30925	0.931
4.34332	0.944
4.37738	0.948
4.41144	0.941
4.44551	0.931
4.47957	0.922
4.51363	0.932
4.5477	0.931
4.58176	0.931
4.61582	0.929
4.64989	0.927
4.68395	0.929
4.71801	0.929
4.75208	0.927
4.78614	0.929
4.82021	0.929
4.85427	0.922
4.88833	0.917
4.9224	0.927
4.95646	0.929
4.99052	0.929
5.02459	0.929
5.05865	0.927
5.09271	0.927
5.12678	0.927
5.16084	0.924
5.1949	0.916
5.22897	0.919
5.26303	0.909
5.29709	0.907
5.33116	0.917
5.36522	0.917
5.39928	0.916
5.43335	0.914
5.46741	0.914
5.50147	0.914
5.53554	0.911
5.5696	0.907
5.60367	0.902
5.63773	0.904
5.67179	0.911
5.70586	0.911
5.73992	0.909
5.77398	0.902
5.80805	0.897
5.84211	0.886
5.87617	0.864
5.91024	0.844
5.9443	0.807
5.97836	0.683
6.01243	0.41
6.04649	0.189
6.08055	0.07
6.11462	0.011
6.14868	0.023
6.18274	0.42
6.21681	0.581
6.25087	0.557
6.28494	0.398
6.319	0.313
6.35306	0.73
6.38713	0.777
6.42119	0.698
6.45525	0.787
6.48932	0.844
6.52338	0.85
6.55744	0.859
6.59151	0.864
6.62557	0.857
6.65963	0.849
6.6937	0.83
6.72776	0.802
6.76182	0.75
6.79589	0.676
6.82995	0.504
6.86401	0.289
6.89808	0.165
6.93214	0.078
6.9662	0.13
7.00027	0.261
7.03433	0.428
7.0684	0.333
7.10246	0.309
7.13652	0.423
7.17059	0.554
7.20465	0.619
7.23871	0.675
7.27278	0.596
7.30684	0.46
7.3409	0.597
7.37497	0.641
7.40903	0.628
7.44309	0.579
7.47716	0.685
7.51122	0.67
7.54528	0.505
7.57935	0.324
7.61341	0.355
7.64747	0.376
7.68154	0.398
7.7156	0.603
7.74966	0.659
7.78373	0.69
7.81779	0.758
7.85186	0.792
7.88592	0.809
7.91998	0.814
7.95405	0.815
7.98811	0.795
8.02217	0.731
8.05624	0.651
8.0903	0.587
8.12436	0.591
8.15843	0.624
8.19249	0.604
8.22655	0.5
8.26062	0.469
8.29468	0.495
8.32874	0.522
8.36281	0.534
8.39687	0.542
8.43093	0.581
8.465	0.767
8.49906	0.82
8.53312	0.819
8.56719	0.807
8.60125	0.83
8.63532	0.849
8.66938	0.844
8.70344	0.834
8.73751	0.745
8.77157	0.675
8.80563	0.654
8.8397	0.643
8.87376	0.5
8.90782	0.541
8.94189	0.725
8.97595	0.792
9.01001	0.809
9.04408	0.782
9.07814	0.68
9.1122	0.509
9.14627	0.42
9.18033	0.475
9.21439	0.596
9.24846	0.611
9.28252	0.628
9.31658	0.733
9.35065	0.8
9.38471	0.825
9.41878	0.84
9.45284	0.86
9.4869	0.867
9.52097	0.872
9.55503	0.871
9.58909	0.857
9.62316	0.832
9.65722	0.768
9.69128	0.639
9.72535	0.482
9.75941	0.43
9.79347	0.358
9.82754	0.313
9.8616	0.494
9.89566	0.74
9.92973	0.763
9.96379	0.705
9.99785	0.663
10.0319	0.532
10.066	0.465
10.1	0.601
10.1341	0.728
10.1682	0.78
10.2022	0.768
10.2363	0.77
10.2704	0.804
10.3044	0.844
10.3385	0.85
10.3726	0.859
10.4066	0.864
10.4407	0.871
10.4747	0.876
10.5088	0.884
10.5429	0.869
10.5769	0.844
10.611	0.827
10.6451	0.832
10.6791	0.847
10.7132	0.864
10.7473	0.874
10.7813	0.881
10.8154	0.882
10.8494	0.872
10.8835	0.859
10.9176	0.85
10.9516	0.854
10.9857	0.864
11.0198	0.869
11.0538	0.872
11.0879	0.869
11.1219	0.852
11.156	0.825
11.1901	0.752
11.2241	0.703
11.2582	0.767
11.2923	0.82
11.3263	0.854
11.3604	0.867
11.3945	0.871
11.4285	0.874
11.4626	0.877
11.4966	0.876
11.5307	0.881
11.5648	0.862
11.5988	0.817
11.6329	0.778
11.667	0.798
11.701	0.817
11.7351	0.782
11.7692	0.658
11.8032	0.532
11.8373	0.584
11.8713	0.638
11.9054	0.609
11.9395	0.586
11.9735	0.633
12.0076	0.745
12.0417	0.778
12.0757	0.804
12.1098	0.822
12.1439	0.83
12.1779	0.847
12.212	0.85
12.246	0.857
12.2801	0.852
12.3142	0.85
12.3482	0.844
12.3823	0.839
12.4164	0.832
12.4504	0.822
12.4845	0.822
12.5186	0.815
12.5526	0.795
12.5867	0.75
12.6207	0.72
12.6548	0.731
12.6889	0.758
12.7229	0.777
12.757	0.792
12.7911	0.802
12.8251	0.809
12.8592	0.825
12.8933	0.84
12.9273	0.847
12.9614	0.847
12.9954	0.847
13.0295	0.85
13.0636	0.855
13.0976	0.862
13.1317	0.872
13.1658	0.876
13.1998	0.881
13.2339	0.886
13.2679	0.886
13.302	0.884
13.3361	0.889
13.3701	0.897
13.4042	0.901
13.4383	0.907
13.4723	0.914
13.5064	0.922
13.5405	0.926
13.5745	0.924
13.6086	0.934
13.6426	0.939
13.6767	0.938
13.7108	0.939
13.7448	0.941
13.7789	0.939
13.813	0.948
13.847	0.943
13.8811	0.939
13.9152	0.934
13.9492	0.926
13.9833	0.912
14.0173	0.889
14.0514	0.855
14.0855	0.842
14.1195	0.83
14.1536	0.824
14.1877	0.82
14.2217	0.812
14.2558	0.8
14.2899	0.795
14.3239	0.795
14.358	0.792
14.392	0.787
14.4261	0.78
14.4602	0.767
14.4942	0.753
14.5283	0.737
14.5624	0.723
14.5964	0.73
14.6305	0.74
14.6646	0.76
14.6986	0.777
14.7327	0.807
14.7667	0.832
14.8008	0.864
14.8349	0.877
14.8689	0.884
14.903	0.894
14.9371	0.899
14.9711	0.907
15.0052	0.906
15.0392	0.909
15.0733	0.902
15.1074	0.879
15.1414	0.839
15.1755	0.773
15.2096	0.73
15.2436	0.747
15.2777	0.788
15.3118	0.832
15.3458	0.86
15.3799	0.872
15.4139	0.882
15.448	0.884
15.4821	0.884
