Infrared Spectrum: 4-CHLOROANILINOMETHANE SULFONIC ACID, SODIUM SALT
Formula: C7 H7 Cl N Na O3 S
State: SOLID (MINERAL OIL MULL)
Class: COBLENTZ
Instrument: Not specified, most likely a prism, grating, or hybrid spectrometer.
Sampling: TRANSMISSION
Resolution: 4
Origin: DOW CHEMICAL COMPANY
MICROMETERS	TRANSMITTANCE
2.022	0.491
2.06114	0.495
2.10027	0.504
2.13941	0.511
2.17854	0.519
2.21768	0.521
2.25681	0.522
2.29595	0.521
2.33509	0.524
2.37422	0.534
2.41336	0.543
2.45249	0.55
2.49163	0.556
2.53077	0.563
2.5699	0.571
2.60904	0.579
2.64817	0.589
2.68731	0.589
2.72644	0.602
2.76558	0.595
2.80472	0.495
2.84385	0.501
2.88299	0.517
2.92212	0.366
2.96126	0.436
3.0004	0.514
3.03953	0.543
3.07867	0.55
3.1178	0.56
3.15694	0.566
3.19607	0.574
3.23521	0.574
3.27435	0.563
3.31348	0.538
3.35262	0.425
3.39175	0.12
3.43089	0.04
3.47003	0.095
3.50916	0.141
3.5483	0.506
3.58743	0.636
3.62657	0.676
3.6657	0.676
3.70484	0.676
3.74398	0.688
3.78311	0.694
3.82225	0.702
3.86138	0.709
3.90052	0.727
3.93965	0.737
3.97879	0.756
4.01793	0.759
4.05706	0.761
4.0962	0.761
4.13533	0.762
4.17447	0.761
4.21361	0.761
4.25274	0.764
4.29188	0.771
4.33101	0.777
4.37015	0.782
4.40928	0.79
4.44842	0.788
4.48756	0.788
4.52669	0.792
4.56583	0.797
4.60496	0.8
4.6441	0.803
4.68324	0.81
4.72237	0.811
4.76151	0.816
4.80064	0.819
4.83978	0.819
4.87891	0.821
4.91805	0.827
4.95719	0.831
4.99632	0.839
5.03546	0.84
5.07459	0.844
5.11373	0.847
5.15286	0.852
5.192	0.858
5.23114	0.86
5.27027	0.86
5.30941	0.86
5.34854	0.857
5.38768	0.857
5.42682	0.866
5.46595	0.87
5.50509	0.873
5.54422	0.871
5.58336	0.871
5.62249	0.878
5.66163	0.878
5.70077	0.871
5.7399	0.868
5.77904	0.875
5.81817	0.879
5.85731	0.878
5.89645	0.875
5.93558	0.87
5.97472	0.853
6.01385	0.8
6.05299	0.732
6.09212	0.626
6.13126	0.649
6.1704	0.74
6.20953	0.688
6.24867	0.498
6.2878	0.652
6.32694	0.782
6.36608	0.834
6.40521	0.844
6.44435	0.857
6.48348	0.849
6.52262	0.797
6.56175	0.662
6.60089	0.399
6.64003	0.342
6.67916	0.538
6.7183	0.566
6.75743	0.532
6.79657	0.392
6.8357	0.282
6.87484	0.396
6.91398	0.501
6.95311	0.595
6.99225	0.722
7.03138	0.797
7.07052	0.816
7.10966	0.798
7.14879	0.801
7.18793	0.761
7.22706	0.586
7.2662	0.537
7.30533	0.675
7.34447	0.753
7.38361	0.779
7.42274	0.764
7.46188	0.754
7.50101	0.673
7.54015	0.637
7.57929	0.67
7.61842	0.733
7.65756	0.775
7.69669	0.741
7.73583	0.798
7.77496	0.8
7.8141	0.753
7.85324	0.675
7.89237	0.516
7.93151	0.556
7.97064	0.663
8.00978	0.581
8.04892	0.467
8.08805	0.603
8.12719	0.642
8.16632	0.662
8.20546	0.634
8.24459	0.534
8.28373	0.448
8.32287	0.316
8.362	0.173
8.40114	0.131
8.44027	0.116
8.47941	0.112
8.51854	0.11
8.55768	0.165
8.59682	0.259
8.63595	0.357
8.67509	0.444
8.71422	0.521
8.75336	0.574
8.7925	0.586
8.83163	0.529
8.87077	0.521
8.9099	0.618
8.94904	0.654
8.98817	0.681
9.02731	0.704
9.06645	0.73
9.10558	0.754
9.14472	0.724
9.18385	0.672
9.22299	0.737
9.26213	0.787
9.30126	0.801
9.3404	0.805
9.37953	0.8
9.41867	0.79
9.4578	0.756
9.49694	0.65
9.53608	0.396
9.57521	0.24
9.61435	0.248
9.65348	0.297
9.69262	0.488
9.73175	0.621
9.77089	0.689
9.81003	0.74
9.84916	0.761
9.8883	0.766
9.92743	0.78
9.96657	0.762
10.0057	0.779
10.0448	0.81
10.084	0.823
10.1231	0.831
10.1622	0.834
10.2014	0.834
10.2405	0.836
10.2797	0.837
10.3188	0.84
10.3579	0.85
10.3971	0.862
10.4362	0.871
10.4753	0.879
10.5145	0.887
10.5536	0.892
10.5927	0.892
10.6319	0.9
10.671	0.9
10.7102	0.9
10.7493	0.892
10.7884	0.886
10.8276	0.897
10.8667	0.902
10.9058	0.904
10.945	0.909
10.9841	0.91
11.0232	0.912
11.0624	0.91
11.1015	0.91
11.1406	0.907
11.1798	0.905
11.2189	0.905
11.2581	0.907
11.2972	0.902
11.3363	0.902
11.3755	0.902
11.4146	0.907
11.4537	0.902
11.4929	0.902
11.532	0.902
11.5711	0.902
11.6103	0.9
11.6494	0.899
11.6885	0.892
11.7277	0.891
11.7668	0.884
11.806	0.875
11.8451	0.871
11.8842	0.866
11.9234	0.868
11.9625	0.87
12.0016	0.86
12.0408	0.834
12.0799	0.78
12.119	0.72
12.1582	0.6
12.1973	0.459
12.2364	0.316
12.2756	0.402
12.3147	0.602
12.3539	0.683
12.393	0.712
12.4321	0.74
12.4713	0.754
12.5104	0.774
12.5495	0.813
12.5887	0.842
12.6278	0.85
12.6669	0.857
12.7061	0.857
12.7452	0.857
12.7843	0.858
12.8235	0.862
12.8626	0.863
12.9018	0.863
12.9409	0.862
12.98	0.862
13.0192	0.857
13.0583	0.842
13.0974	0.829
13.1366	0.813
13.1757	0.797
13.2148	0.787
13.254	0.795
13.2931	0.811
13.3322	0.826
13.3714	0.834
13.4105	0.839
13.4497	0.844
13.4888	0.844
13.5279	0.844
13.5671	0.844
13.6062	0.844
13.6453	0.845
13.6845	0.845
13.7236	0.842
13.7627	0.837
13.8019	0.834
13.841	0.831
13.8802	0.842
13.9193	0.862
13.9584	0.875
13.9976	0.886
14.0367	0.892
14.0758	0.9
14.115	0.904
14.1541	0.904
14.1932	0.9
14.2324	0.897
14.2715	0.899
14.3106	0.904
14.3498	0.912
14.3889	0.918
14.4281	0.923
14.4672	0.923
14.5063	0.923
14.5455	0.926
14.5846	0.93
14.6237	0.931
14.6629	0.931
14.702	0.93
14.7411	0.922
14.7803	0.92
14.8194	0.917
14.8585	0.909
14.8977	0.9
14.9368	0.891
14.976	0.883
15.0151	0.879
15.0542	0.87
15.0934	0.855
15.1325	0.845
15.1716	0.837
15.2108	0.831
15.2499	0.823
15.289	0.811
15.3282	0.798
15.3673	0.774
15.4064	0.748
15.4456	0.706
15.4847	0.657
15.5239	0.615
15.563	0.581
15.6021	0.569
15.6413	0.568
15.6804	0.574
15.7195	0.589
15.7587	0.602
15.7978	0.623
15.8369	0.642
15.8761	0.644
