Infrared Spectrum: Cyclopropanamine, 2-phenyl-,sulfate (2 to1), cis-
Formula: C18 H24 N2 O4 S
State: SOLID (OIL MULL)
Class: COBLENTZ III
Instrument: PERKIN-ELMER 21 (GRATING)
Instrument parameters: NaCl PRISM
Sampling: TRANSMISSION
Resolution: 2
Origin: SMITH KLINE & FRENCH LABS.
1/CM	TRANSMITTANCE
663	0.7049
672	0.7058
681	0.6602
690	0.2796
699	0.3937
708	0.7153
717	0.7324
726	0.7164
735	0.5323
744	0.1844
753	0.4813
762	0.7797
771	0.8084
780	0.8228
789	0.8314
798	0.8055
807	0.7166
816	0.8099
825	0.8171
834	0.8003
843	0.7875
852	0.7815
861	0.7644
870	0.7064
879	0.5075
888	0.6504
897	0.6847
906	0.5483
915	0.4958
924	0.6242
933	0.5676
942	0.4745
951	0.3715
960	0.1218
969	0.5257
978	0.5559
987	0.4437
996	0.2665
1005	0.1763
1014	0.0692
1023	0.0501
1032	0.0603
1041	0.0847
1050	0.228
1059	0.3427
1068	0.3928
1077	0.274
1086	0.1836
1095	0.0984
1104	0.1013
1113	0.0783
1122	0.1382
1131	0.2095
1140	0.2049
1149	0.106
1158	0.1931
1167	0.371
1176	0.4512
1185	0.4242
1194	0.4302
1203	0.5458
1212	0.6581
1221	0.709
1230	0.6576
1239	0.6325
1248	0.7209
1257	0.7609
1266	0.7679
1275	0.7674
1284	0.7729
1293	0.7658
1302	0.7631
1311	0.7679
1320	0.766
1329	0.7505
1338	0.683
1347	0.6704
1356	0.68
1365	0.5489
1374	0.3695
1383	0.5572
1392	0.7267
1401	0.6704
1410	0.7324
1419	0.7392
1428	0.6133
1437	0.3164
1446	0.2429
1455	0.1389
1464	0.1107
1473	0.4911
1482	0.6436
1491	0.5808
1500	0.6332
1509	0.6884
1518	0.6832
1527	0.6328
1536	0.5209
1545	0.4552
1554	0.3528
1563	0.3542
1572	0.3376
1581	0.2929
1590	0.449
1599	0.4786
1608	0.5025
1617	0.4689
1626	0.3975
1635	0.4277
1644	0.5749
1653	0.7065
1662	0.741
1671	0.7598
1680	0.7743
1689	0.7787
1698	0.7794
1707	0.779
1716	0.7825
1725	0.798
1734	0.7985
1743	0.7976
1752	0.7971
1761	0.7988
1770	0.8062
1779	0.8109
1788	0.8069
1797	0.8016
1806	0.797
1815	0.7921
1824	0.7854
1833	0.779
1842	0.7751
1851	0.7712
1860	0.7687
1869	0.7668
1878	0.7651
1887	0.7647
1896	0.7654
1905	0.7646
1914	0.7549
1923	0.7421
1932	0.725
1941	0.7087
1950	0.7119
1959	0.7148
1968	0.7126
1977	0.7071
1986	0.7039
1995	0.7067
2004	0.7066
2013	0.7044
2022	0.6965
2031	0.6873
2040	0.6773
2049	0.6675
2058	0.6586
2067	0.6495
2076	0.6387
2085	0.629
2094	0.6246
2103	0.6249
2112	0.6317
2121	0.639
2130	0.6463
2139	0.6534
2148	0.6624
2157	0.6729
2166	0.6829
2175	0.6869
2184	0.689
2193	0.6929
2202	0.6936
2211	0.6909
2220	0.6874
2229	0.6828
2238	0.678
2247	0.6733
2256	0.6674
2265	0.6615
2274	0.6553
2283	0.649
2292	0.642
2301	0.6317
2310	0.6213
2319	0.6068
2328	0.5893
2337	0.576
2346	0.5643
2355	0.5551
2364	0.5517
2373	0.5481
2382	0.5413
2391	0.5246
2400	0.4989
2409	0.482
2418	0.4616
2427	0.4353
2436	0.418
2445	0.399
2454	0.3839
2463	0.3742
2472	0.3556
2481	0.3346
2490	0.3162
2499	0.2995
2508	0.2784
2517	0.2527
2526	0.2292
2535	0.2223
2544	0.2155
2553	0.2082
2562	0.2012
2571	0.1986
2580	0.1958
2589	0.1932
2598	0.1905
2607	0.1877
2616	0.1814
2625	0.1604
2634	0.1439
2643	0.1373
2652	0.1342
2661	0.1338
2670	0.1349
2679	0.1383
2688	0.1433
2697	0.1499
2706	0.1638
2715	0.1792
2724	0.1874
2733	0.1882
2742	0.1871
2751	0.1767
2760	0.1637
2769	0.1483
2778	0.1332
2787	0.1187
2796	0.0995
2805	0.0834
2814	0.0678
2823	0.0532
2832	0.0433
2841	0.0409
2850	0.0402
2859	0.0396
2868	0.0392
2877	0.0387
2886	0.0383
2895	0.0378
2904	0.038
2913	0.0382
2922	0.0395
2931	0.0479
2940	0.0599
2949	0.0745
2958	0.102
2967	0.1341
2976	0.1658
2985	0.178
2994	0.1825
3003	0.1861
3012	0.1894
3021	0.1962
3030	0.2128
3039	0.2207
3048	0.225
3057	0.2318
3066	0.2683
3075	0.2979
3084	0.3082
3093	0.3156
3102	0.3187
3111	0.3215
3120	0.3242
3129	0.3368
3138	0.3577
3147	0.3747
3156	0.3888
3165	0.4156
3174	0.4422
3183	0.4824
3192	0.5186
3201	0.5378
3210	0.5564
3219	0.5839
3228	0.6122
3237	0.6361
3246	0.6502
3255	0.6639
3264	0.676
3273	0.6842
3282	0.6875
3291	0.6901
3300	0.6913
3309	0.6921
3318	0.6927
3327	0.6931
3336	0.693
3345	0.6927
3354	0.6925
3363	0.6923
3372	0.6926
3381	0.693
3390	0.6935
3399	0.6941
3408	0.6949
3417	0.6964
3426	0.699
3435	0.7016
3444	0.7045
3453	0.7062
3462	0.7066
3471	0.707
3480	0.7075
3489	0.7078
3498	0.7082
3507	0.7087
3516	0.709
3525	0.7094
3534	0.7099
3543	0.7098
3552	0.7094
3561	0.7091
3570	0.7078
3579	0.7062
3588	0.7046
3597	0.7032
3606	0.7016
3615	0.7002
3624	0.6986
3633	0.6972
3642	0.6957
3651	0.6943
3660	0.693
3669	0.6916
3678	0.6902
3687	0.6889
3696	0.6879
3705	0.6873
3714	0.6867
3723	0.6861
3732	0.6854
3741	0.6848
3750	0.6843
3759	0.6837
3768	0.6832
3777	0.6826
3786	0.6821
3795	0.6816
3804	0.6811
3813	0.6803
3822	0.6785
3831	0.6766
3840	0.6748
3849	0.673
3858	0.6712
3867	0.6692
3876	0.6673
3885	0.6655
3894	0.6636
3903	0.6617
3912	0.6598
3921	0.6579
3930	0.6553
3939	0.6527
3948	0.65
3957	0.6474
3966	0.6447
3975	0.6421
3984	0.6395
3993	0.6369
