Infrared Spectrum: 2-PROPANAMINE, 2,N-DIMETHYL-1-PHENYL-, SULFATE
Formula: C22 H36 N2 O4 S
State: SOLID (OIL MULL)
Class: COBLENTZ III
Instrument: PERKIN-ELMER 521 (GRATING)
Instrument parameters: FILTERS AT 3130, 2475, 2000, 1150, 700, 410. GRATING CHANGES: 1999, 690 CM^-^1
Sampling: TRANSMISSION
Resolution: 2
Origin: SMITH KLINE & FRENCH LABS.
1/CM	TRANSMITTANCE
315	0.3613
325	0.3778
335	0.4456
345	0.5506
355	0.575
365	0.6489
375	0.6818
385	0.7359
395	0.7327
405	0.709
415	0.8078
425	0.7781
435	0.7827
445	0.8478
455	0.8592
465	0.8546
475	0.7478
485	0.8663
495	0.8196
505	0.8718
515	0.8905
525	0.8885
535	0.8866
545	0.8803
555	0.8657
565	0.8705
575	0.8595
585	0.8364
595	0.7481
605	0.4523
615	0.3518
625	0.8335
635	0.8755
645	0.8763
655	0.8685
665	0.86
675	0.8302
685	0.6758
695	0.5277
705	0.3953
715	0.7106
725	0.8182
735	0.8339
745	0.8306
755	0.6696
765	0.787
775	0.8727
785	0.8754
795	0.8736
805	0.871
815	0.8855
825	0.8858
835	0.8787
845	0.8729
855	0.8719
865	0.8718
875	0.8709
885	0.8606
895	0.8626
905	0.8222
915	0.8583
925	0.8545
935	0.8491
945	0.8395
955	0.8307
965	0.8127
975	0.7099
985	0.8045
995	0.7545
1005	0.6771
1015	0.7264
1025	0.5784
1035	0.6522
1045	0.6308
1055	0.5667
1065	0.4207
1075	0.3131
1085	0.2349
1095	0.1775
1105	0.1769
1115	0.1922
1125	0.1991
1135	0.2241
1145	0.2664
1155	0.3168
1165	0.4181
1175	0.4665
1185	0.5926
1195	0.6232
1205	0.641
1215	0.6593
1225	0.6603
1235	0.642
1245	0.6028
1255	0.7027
1265	0.6924
1275	0.7181
1285	0.7211
1295	0.7184
1305	0.7244
1315	0.7125
1325	0.6533
1335	0.6123
1345	0.6904
1355	0.6573
1365	0.5312
1375	0.3931
1385	0.5093
1395	0.6635
1405	0.7217
1415	0.6636
1425	0.6315
1435	0.4798
1445	0.324
1455	0.2685
1465	0.2935
1475	0.4347
1485	0.6212
1495	0.7284
1505	0.7877
1515	0.7899
1525	0.7822
1535	0.7703
1545	0.7672
1555	0.7629
1565	0.726
1575	0.4845
1585	0.5235
1595	0.7122
1605	0.7747
1615	0.7754
1625	0.7765
1635	0.7656
1645	0.7957
1655	0.7911
1665	0.7936
1675	0.792
1685	0.7967
1695	0.8175
1705	0.7896
1715	0.7864
1725	0.7691
1735	0.7645
1745	0.7802
1755	0.7928
1765	0.817
1775	0.8191
1785	0.8175
1795	0.8112
1805	0.8051
1815	0.803
1825	0.8034
1835	0.8057
1845	0.8046
1855	0.7963
1865	0.7873
1875	0.7567
1885	0.7952
1895	0.797
1905	0.796
1915	0.7825
1925	0.7482
1935	0.7409
1945	0.7567
1955	0.7861
1965	0.7861
1975	0.779
1985	0.7674
1995	0.7789
2005	0.7509
2015	0.7553
2025	0.7651
2035	0.7688
2045	0.7656
2055	0.7592
2065	0.7461
2075	0.7401
2085	0.7367
2095	0.7485
2105	0.7514
2115	0.7504
2125	0.7491
2135	0.748
2145	0.747
2155	0.7439
2165	0.7396
2175	0.7361
2185	0.7337
2195	0.7323
2205	0.7314
2215	0.7322
2225	0.7348
2235	0.7336
2245	0.7125
2255	0.7032
2265	0.7045
2275	0.6978
2285	0.6891
2295	0.6826
2305	0.6756
2315	0.6644
2325	0.6533
2335	0.6399
2345	0.6283
2355	0.615
2365	0.5984
2375	0.5667
2385	0.5175
2395	0.4948
2405	0.4198
2415	0.3061
2425	0.2653
2435	0.4736
2445	0.5762
2455	0.6237
2465	0.6272
2475	0.6204
2485	0.6056
2495	0.5809
2505	0.5786
2515	0.5836
2525	0.567
2535	0.5289
2545	0.5025
2555	0.4843
2565	0.458
2575	0.462
2585	0.5024
2595	0.5063
2605	0.488
2615	0.4573
2625	0.4266
2635	0.396
2645	0.3655
2655	0.3391
2665	0.2786
2675	0.2472
2685	0.2498
2695	0.2577
2705	0.2166
2715	0.1818
2725	0.1654
2735	0.1621
2745	0.155
2755	0.1469
2765	0.1512
2775	0.1652
2785	0.1852
2795	0.1918
2805	0.1869
2815	0.1675
2825	0.1569
2835	0.1412
2845	0.1408
2855	0.1427
2865	0.1435
2875	0.1411
2885	0.1382
2895	0.1382
2905	0.1404
2915	0.144
2925	0.1458
2935	0.1472
2945	0.1487
2955	0.1521
2965	0.1785
2975	0.2709
2985	0.3448
2995	0.4061
3005	0.444
3015	0.4471
3025	0.4905
3035	0.5689
3045	0.5823
3055	0.597
3065	0.6015
3075	0.6031
3085	0.6501
3095	0.6693
3105	0.6699
3115	0.67
3125	0.6711
3135	0.6706
3145	0.6218
3155	0.6227
3165	0.6626
3175	0.6623
3185	0.6613
3195	0.6565
3205	0.6528
3215	0.6532
3225	0.6504
3235	0.6379
3245	0.6335
3255	0.6313
3265	0.6291
3275	0.6267
3285	0.6235
3295	0.6197
3305	0.6156
3315	0.6128
3325	0.6059
3335	0.5988
3345	0.5933
3355	0.5883
3365	0.5834
3375	0.5788
3385	0.5747
3395	0.5698
3405	0.5659
3415	0.5662
3425	0.5666
3435	0.5677
3445	0.5693
3455	0.5709
3465	0.5725
3475	0.5743
3485	0.577
3495	0.5797
3505	0.5824
3515	0.5851
3525	0.5879
3535	0.5922
3545	0.5968
3555	0.6035
3565	0.6107
3575	0.6172
3585	0.6224
3595	0.6259
3605	0.6284
3615	0.6307
3625	0.6327
3635	0.6346
3645	0.6364
3655	0.6374
3665	0.6383
3675	0.638
3685	0.6373
3695	0.636
3705	0.6348
3715	0.6337
3725	0.6324
3735	0.6305
3745	0.6286
3755	0.6269
3765	0.6264
3775	0.626
3785	0.6254
3795	0.6246
3805	0.6235
3815	0.6221
3825	0.6206
3835	0.6191
3845	0.617
3855	0.6148
3865	0.6123
3875	0.6094
3885	0.6069
3895	0.6048
3905	0.6031
3915	0.6016
3925	0.5999
3935	0.5988
3945	0.598
3955	0.5969
3965	0.5965
3975	0.5965
3985	0.5998
3995	0.6046
