Infrared Spectrum: 1,1'-BIS-[3-(P-BIPHENYLYL)-1,1,3,3-TETRAMETHYL DISILOXANYL] FERROCENE
Formula: C42 H50 O2 Si4 Fe
State: SOLID (MINERAL OIL MULL)
Class: COBLENTZ
Instrument: Not specified, most likely a prism, grating, or hybrid spectrometer.
Sampling: TRANSMISSION
Resolution: 4
Origin: WYANDOTTE CHEMICALS CORP., WYANDOTTE, MICHIGAN, USA
MICROMETERS	TRANSMITTANCE
2.04	0.547
2.07971	0.557
2.11943	0.563
2.15914	0.568
2.19886	0.571
2.23857	0.581
2.27829	0.586
2.318	0.595
2.35771	0.601
2.39743	0.604
2.43714	0.611
2.47686	0.623
2.51657	0.633
2.55629	0.646
2.596	0.651
2.63572	0.656
2.67543	0.657
2.71514	0.659
2.75486	0.664
2.79457	0.672
2.83429	0.672
2.874	0.669
2.91372	0.671
2.95343	0.674
2.99314	0.68
3.03286	0.684
3.07257	0.685
3.11229	0.682
3.152	0.676
3.19172	0.667
3.23143	0.575
3.27115	0.585
3.31086	0.418
3.35057	0.12
3.39029	0.041
3.43	0.117
3.46972	0.173
3.50943	0.209
3.54915	0.723
3.58886	0.752
3.62857	0.788
3.66829	0.791
3.708	0.8
3.74772	0.806
3.78743	0.814
3.82715	0.824
3.86686	0.829
3.90658	0.842
3.94629	0.851
3.986	0.852
4.02572	0.857
4.06543	0.856
4.10515	0.866
4.14486	0.862
4.18458	0.866
4.22429	0.866
4.264	0.842
4.30372	0.862
4.34343	0.88
4.38315	0.905
4.42286	0.897
4.46258	0.895
4.50229	0.895
4.54201	0.897
4.58172	0.904
4.62143	0.907
4.66115	0.909
4.70086	0.919
4.74058	0.922
4.78029	0.927
4.82001	0.93
4.85972	0.93
4.89943	0.93
4.93915	0.93
4.97886	0.93
5.01858	0.938
5.05829	0.937
5.09801	0.943
5.13772	0.933
5.17743	0.925
5.21715	0.93
5.25686	0.895
5.29658	0.933
5.33629	0.933
5.37601	0.945
5.41572	0.96
5.45544	0.958
5.49515	0.95
5.53486	0.952
5.57458	0.935
5.61429	0.948
5.65401	0.933
5.69372	0.928
5.73344	0.933
5.77315	0.917
5.81286	0.882
5.85258	0.902
5.89229	0.937
5.93201	0.928
5.97172	0.904
6.01144	0.902
6.05115	0.933
6.09087	0.943
6.13058	0.947
6.17029	0.91
6.21001	0.591
6.24972	0.806
6.28944	0.869
6.32915	0.928
6.36887	0.922
6.40858	0.92
6.44829	0.861
6.48801	0.938
6.52772	0.925
6.56744	0.922
6.60715	0.904
6.64687	0.897
6.68658	0.71
6.7263	0.618
6.76601	0.57
6.80572	0.438
6.84544	0.487
6.88515	0.542
6.92487	0.714
6.96458	0.808
7.0043	0.676
7.04401	0.757
7.08372	0.714
7.12344	0.757
7.16315	0.8
7.20287	0.54
7.24258	0.525
7.2823	0.646
7.32201	0.737
7.36173	0.854
7.40144	0.866
7.44115	0.876
7.48087	0.895
7.52058	0.912
7.5603	0.872
7.60001	0.892
7.63973	0.88
7.67944	0.871
7.71915	0.907
7.75887	0.917
7.79858	0.899
7.8383	0.889
7.87801	0.839
7.91773	0.598
7.95744	0.195
7.99716	0.153
8.03687	0.586
8.07658	0.828
8.1163	0.885
8.15601	0.912
8.19573	0.92
8.23544	0.93
8.27516	0.932
8.31487	0.928
8.35458	0.93
8.3943	0.919
8.43401	0.714
8.47373	0.768
8.51344	0.664
8.55316	0.219
8.59287	0.596
8.63258	0.768
8.6723	0.844
8.71201	0.894
8.75173	0.912
8.79144	0.904
8.83116	0.849
8.87087	0.576
8.91059	0.209
8.9503	0.557
8.99001	0.638
9.02973	0.761
9.06944	0.806
9.10916	0.803
9.14887	0.8
9.18859	0.775
9.2283	0.709
9.26801	0.671
9.30773	0.712
9.34744	0.695
9.38716	0.662
9.42687	0.614
9.46659	0.497
9.5063	0.494
9.54602	0.424
9.58573	0.287
9.62544	0.117
9.66516	0.143
9.70487	0.067
9.74459	0.039
9.7843	0.061
9.82402	0.029
9.86373	0.054
9.90344	0.12
9.94316	0.241
9.98287	0.393
10.0226	0.446
10.0623	0.514
10.102	0.583
10.1417	0.641
10.1814	0.727
10.2212	0.773
10.2609	0.798
10.3006	0.791
10.3403	0.77
10.38	0.849
10.4197	0.877
10.4594	0.892
10.4992	0.874
10.5389	0.89
10.5786	0.91
10.6183	0.917
10.658	0.923
10.6977	0.927
10.7374	0.937
10.7772	0.94
10.8169	0.947
10.8566	0.938
10.8963	0.93
10.936	0.919
10.9757	0.925
11.0154	0.938
11.0552	0.928
11.0949	0.917
11.1346	0.864
11.1743	0.758
11.214	0.568
11.2537	0.735
11.2934	0.839
11.3332	0.857
11.3729	0.841
11.4126	0.757
11.4523	0.629
11.492	0.538
11.5317	0.646
11.5714	0.735
11.6112	0.755
11.6509	0.758
11.6906	0.76
11.7303	0.733
11.77	0.664
11.8097	0.6
11.8494	0.472
11.8892	0.345
11.9289	0.256
11.9686	0.143
12.0083	0.069
12.048	0.057
12.0877	0.033
12.1274	0.044
12.1672	0.066
12.2069	0.094
12.2466	0.161
12.2863	0.272
12.326	0.35
12.3657	0.35
12.4054	0.285
12.4452	0.155
12.4849	0.057
12.5246	0.042
12.5643	0.102
12.604	0.183
12.6437	0.201
12.6835	0.084
12.7232	0.046
12.7629	0.097
12.8026	0.233
12.8423	0.376
12.882	0.492
12.9217	0.566
12.9615	0.581
13.0012	0.5
13.0409	0.314
13.0806	0.1
13.1203	0.087
13.16	0.138
13.1997	0.29
13.2395	0.53
13.2792	0.702
13.3189	0.775
13.3586	0.819
13.3983	0.844
13.438	0.851
13.4777	0.849
13.5175	0.859
13.5572	0.876
13.5969	0.884
13.6366	0.882
13.6763	0.861
13.716	0.819
13.7557	0.68
13.7955	0.573
13.8352	0.661
13.8749	0.788
13.9146	0.836
13.9543	0.872
13.994	0.885
14.0337	0.895
14.0735	0.897
14.1132	0.89
14.1529	0.867
14.1926	0.8
14.2323	0.671
14.272	0.547
14.3117	0.396
14.3515	0.319
14.3912	0.32
14.4309	0.449
14.4706	0.57
14.5103	0.664
14.55	0.743
14.5897	0.781
14.6295	0.806
14.6692	0.819
14.7089	0.824
14.7486	0.819
14.7883	0.801
14.828	0.757
14.8677	0.689
14.9075	0.583
14.9472	0.454
14.9869	0.386
15.0266	0.4
15.0663	0.52
15.106	0.652
15.1457	0.727
15.1855	0.766
15.2252	0.791
15.2649	0.801
15.3046	0.801
15.3443	0.801
15.384	0.791
15.4237	0.783
15.4635	0.76
15.5032	0.738
15.5429	0.704
15.5826	0.672
15.6223	0.674
15.662	0.689
15.7017	0.707
15.7415	0.712
15.7812	0.709
15.8209	0.707
15.8606	0.699
15.9003	0.687
15.94	0.672
15.9797	0.662
