Infrared Spectrum: OCTANOIC ACID, LITHIUM SALT
Formula: C8 H15 Li O2
State: SOLID (OIL MULL)
Class: COBLENTZ III
Instrument: BAIRD (GRATING)
Instrument parameters: NaCl PRISM
Sampling: TRANSMISSION
Resolution: 2
Origin: WYANDOTTE CHEMICALS CORP.
1/CM	TRANSMITTANCE
4000	0.8902
3991	0.8902
3982	0.8903
3973	0.8901
3964	0.8899
3955	0.8897
3946	0.8895
3937	0.8895
3928	0.8895
3919	0.8894
3910	0.8894
3901	0.8894
3892	0.8897
3883	0.8902
3874	0.8908
3865	0.892
3856	0.8939
3847	0.8959
3838	0.8978
3829	0.9001
3820	0.9025
3811	0.905
3802	0.9071
3793	0.9086
3784	0.9101
3775	0.9113
3766	0.911
3757	0.9106
3748	0.9102
3739	0.9098
3730	0.9091
3721	0.9083
3712	0.9075
3703	0.9063
3694	0.9044
3685	0.9025
3676	0.9004
3667	0.8982
3658	0.8959
3649	0.8927
3640	0.8875
3631	0.8814
3622	0.8748
3613	0.8682
3604	0.8651
3595	0.8649
3586	0.8658
3577	0.8664
3568	0.8666
3559	0.8667
3550	0.8666
3541	0.8663
3532	0.8659
3523	0.8655
3514	0.8648
3505	0.8637
3496	0.8625
3487	0.8615
3478	0.8599
3469	0.8581
3460	0.8563
3451	0.8543
3442	0.8518
3433	0.8493
3424	0.8468
3415	0.8444
3406	0.842
3397	0.8394
3388	0.8366
3379	0.8334
3370	0.8301
3361	0.8267
3352	0.8234
3343	0.821
3334	0.8194
3325	0.8191
3316	0.8194
3307	0.8204
3298	0.8214
3289	0.8214
3280	0.8208
3271	0.82
3262	0.8186
3253	0.8171
3244	0.8151
3235	0.8125
3226	0.8089
3217	0.8025
3208	0.7942
3199	0.7889
3190	0.7847
3181	0.7812
3172	0.7784
3163	0.7758
3154	0.7737
3145	0.7715
3136	0.7692
3127	0.7668
3118	0.763
3109	0.7583
3100	0.7497
3091	0.7365
3082	0.7207
3073	0.7044
3064	0.6818
3055	0.6611
3046	0.6375
3037	0.5933
3028	0.5238
3019	0.4534
3010	0.3825
3001	0.3112
2992	0.2395
2983	0.1673
2974	0.0946
2965	0.0361
2956	0.0326
2947	0.0318
2938	0.0329
2929	0.0342
2920	0.0356
2911	0.0374
2902	0.0392
2893	0.0417
2884	0.0438
2875	0.0447
2866	0.0453
2857	0.0455
2848	0.0502
2839	0.0917
2830	0.255
2821	0.3853
2812	0.5108
2803	0.5581
2794	0.631
2785	0.6646
2776	0.6839
2767	0.699
2758	0.715
2749	0.7243
2740	0.7237
2731	0.7203
2722	0.7191
2713	0.7271
2704	0.7408
2695	0.7482
2686	0.748
2677	0.7471
2668	0.7461
2659	0.7462
2650	0.7472
2641	0.7554
2632	0.7671
2623	0.7701
2614	0.771
2605	0.7717
2596	0.773
2587	0.7753
2578	0.7785
2569	0.7831
2560	0.7884
2551	0.7945
2542	0.8008
2533	0.8081
2524	0.813
2515	0.8161
2506	0.8154
2497	0.8139
2488	0.8132
2479	0.8139
2470	0.8148
2461	0.8156
2452	0.8164
2443	0.8171
2434	0.8181
2425	0.8185
2416	0.819
2407	0.8195
2398	0.8199
2389	0.8193
2380	0.8182
2371	0.8161
2362	0.8142
2353	0.8124
2344	0.8122
2335	0.8158
2326	0.8203
2317	0.8232
2308	0.8259
2299	0.8278
2290	0.8292
2281	0.8298
2272	0.8297
2263	0.828
2254	0.8242
2245	0.8204
2236	0.82
2227	0.8251
2218	0.8281
2209	0.8285
2200	0.8284
2191	0.8275
2182	0.8271
2173	0.8274
2164	0.8275
2155	0.8277
2146	0.8278
2137	0.8281
2128	0.8287
2119	0.8298
2110	0.8308
2101	0.8339
2092	0.837
2083	0.8387
2074	0.8402
2065	0.841
2056	0.841
2047	0.8411
2038	0.8409
2029	0.8396
2020	0.8384
2011	0.8375
2002	0.8367
1993	0.8361
1984	0.8377
1975	0.841
1966	0.8448
1957	0.8432
1948	0.8421
1939	0.8416
1930	0.8428
1921	0.8406
1912	0.8368
1903	0.8349
1894	0.8332
1885	0.8316
1876	0.8301
1867	0.8289
1858	0.8277
1849	0.8265
1840	0.8252
1831	0.824
1822	0.821
1813	0.8172
1804	0.8092
1795	0.7945
1786	0.7828
1777	0.7747
1768	0.7628
1759	0.7532
1750	0.7445
1741	0.7367
1732	0.7238
1723	0.713
1714	0.6911
1705	0.6669
1696	0.6422
1687	0.6152
1678	0.5796
1669	0.5251
1660	0.4762
1651	0.4335
1642	0.3262
1633	0.2312
1624	0.1482
1615	0.0939
1606	0.045
1597	0.0285
1588	0.0338
1579	0.0371
1570	0.0423
1561	0.0741
1552	0.2045
1543	0.2549
1534	0.3432
1525	0.3993
1516	0.4319
1507	0.4351
1498	0.3908
1489	0.2944
1480	0.0718
1471	0.0503
1462	0.0365
1453	0.0393
1444	0.1006
1435	0.1827
1426	0.1578
1417	0.1595
1408	0.2484
1399	0.35
1390	0.2758
1381	0.2424
1372	0.3532
1363	0.4691
1354	0.4388
1345	0.4784
1336	0.5617
1327	0.5722
1318	0.4782
1309	0.537
1300	0.5616
1291	0.5833
1282	0.5712
1273	0.6088
1264	0.5805
1255	0.6568
1246	0.6578
1237	0.639
1228	0.6634
1219	0.5345
1210	0.67
1201	0.6922
1192	0.6641
1183	0.6975
1174	0.7067
1165	0.7135
1156	0.7249
1147	0.7361
1138	0.7318
1129	0.6778
1120	0.4917
1111	0.6586
1102	0.7161
1093	0.7239
1084	0.7132
1075	0.6868
1066	0.6699
1057	0.7165
1048	0.6803
1039	0.6944
1030	0.6696
1021	0.7043
1012	0.7081
1003	0.6814
994	0.7308
985	0.7418
976	0.7353
967	0.7328
958	0.7301
949	0.6962
940	0.6187
931	0.6693
922	0.6868
913	0.6543
904	0.7301
895	0.7131
886	0.7101
877	0.7044
868	0.6858
859	0.6722
850	0.6678
841	0.653
832	0.6088
823	0.6586
814	0.6661
805	0.6595
796	0.6464
787	0.5984
778	0.4856
769	0.5776
760	0.584
751	0.5483
742	0.4901
733	0.4215
724	0.2663
715	0.3734
706	0.4008
697	0.4154
688	0.4332
679	0.4382
670	0.4398
661	0.4441
652	0.4547
643	0.471
634	0.4944
