Infrared Spectrum: MERCURIC OXALATE
Formula: Hg C2 O4
State: SOLID (KBr DISC)
Class: COBLENTZ
Instrument: Not specified, most likely a prism, grating, or hybrid spectrometer.
Sampling: TRANSMISSION
Resolution: 4
MICROMETERS	TRANSMITTANCE
1.964	0.545
2.00227	0.547
2.04053	0.56
2.0788	0.572
2.11707	0.59
2.15534	0.603
2.1936	0.617
2.23187	0.624
2.27014	0.633
2.3084	0.645
2.34667	0.654
2.38494	0.669
2.42321	0.679
2.46147	0.685
2.49974	0.695
2.53801	0.706
2.57628	0.716
2.61454	0.727
2.65281	0.729
2.69108	0.741
2.72934	0.744
2.76761	0.728
2.80588	0.692
2.84415	0.651
2.88241	0.627
2.92068	0.609
2.95895	0.615
2.99721	0.643
3.03548	0.675
3.07375	0.704
3.11202	0.741
3.15028	0.767
3.18855	0.79
3.22682	0.799
3.26508	0.807
3.30335	0.814
3.34162	0.818
3.37989	0.832
3.41815	0.836
3.45642	0.838
3.49469	0.851
3.53296	0.859
3.57122	0.864
3.60949	0.867
3.64776	0.87
3.68602	0.872
3.72429	0.873
3.76256	0.873
3.80083	0.873
3.83909	0.878
3.87736	0.887
3.91563	0.888
3.95389	0.891
3.99216	0.894
4.03043	0.897
4.0687	0.902
4.10696	0.908
4.14523	0.91
4.1835	0.913
4.22176	0.913
4.26003	0.915
4.2983	0.913
4.33657	0.918
4.37483	0.924
4.4131	0.925
4.45137	0.928
4.48964	0.93
4.5279	0.93
4.56617	0.931
4.60444	0.933
4.6427	0.933
4.68097	0.934
4.71924	0.936
4.75751	0.937
4.79577	0.939
4.83404	0.94
4.87231	0.943
4.91057	0.943
4.94884	0.946
4.98711	0.948
5.02538	0.949
5.06364	0.951
5.10191	0.952
5.14018	0.952
5.17844	0.949
5.21671	0.946
5.25498	0.94
5.29325	0.94
5.33151	0.94
5.36978	0.94
5.40805	0.939
5.44632	0.936
5.48458	0.934
5.52285	0.925
5.56112	0.915
5.59938	0.899
5.63765	0.902
5.67592	0.903
5.71419	0.894
5.75245	0.878
5.79072	0.83
5.82899	0.764
5.86725	0.646
5.90552	0.485
5.94379	0.316
5.98206	0.16
6.02032	0.083
6.05859	0.054
6.09686	0.051
6.13513	0.054
6.17339	0.071
6.21166	0.164
6.24993	0.28
6.28819	0.403
6.32646	0.522
6.36473	0.615
6.403	0.672
6.44126	0.732
6.47953	0.761
6.5178	0.796
6.55606	0.813
6.59433	0.83
6.6326	0.842
6.67087	0.853
6.70913	0.859
6.7474	0.867
6.78567	0.873
6.82393	0.881
6.8622	0.888
6.90047	0.894
6.93874	0.897
6.977	0.899
7.01527	0.9
7.05354	0.9
7.09181	0.9
7.13007	0.9
7.16834	0.885
7.20661	0.753
7.24487	0.698
7.28314	0.796
7.32141	0.866
7.35968	0.897
7.39794	0.908
7.43621	0.908
7.47448	0.902
7.51274	0.876
7.55101	0.839
7.58928	0.768
7.62755	0.661
7.66581	0.664
7.70408	0.543
7.74235	0.215
7.78061	0.108
7.81888	0.115
7.85715	0.103
7.89542	0.091
7.93368	0.194
7.97195	0.406
8.01022	0.633
8.04849	0.735
8.08675	0.786
8.12502	0.814
8.16329	0.838
8.20155	0.848
8.23982	0.862
8.27809	0.869
8.31636	0.882
8.35462	0.896
8.39289	0.909
8.43116	0.918
8.46942	0.924
8.50769	0.927
8.54596	0.93
8.58423	0.931
8.62249	0.933
8.66076	0.934
8.69903	0.934
8.73729	0.937
8.77556	0.939
8.81383	0.94
8.8521	0.942
8.89036	0.942
8.92863	0.943
8.9669	0.943
9.00517	0.945
9.04343	0.951
9.0817	0.954
9.11997	0.955
9.15823	0.956
9.1965	0.956
9.23477	0.956
9.27304	0.956
9.3113	0.956
9.34957	0.956
9.38784	0.958
9.4261	0.958
9.46437	0.958
9.50264	0.958
9.54091	0.959
9.57917	0.959
9.61744	0.959
9.65571	0.961
9.69397	0.961
9.73224	0.961
9.77051	0.962
9.80878	0.962
9.84704	0.964
9.88531	0.964
9.92358	0.964
9.96185	0.964
10.0001	0.964
10.0384	0.964
10.0766	0.962
10.1149	0.962
10.1532	0.962
10.1914	0.962
10.2297	0.962
10.268	0.962
10.3063	0.962
10.3445	0.962
10.3828	0.962
10.4211	0.962
10.4593	0.961
10.4976	0.961
10.5359	0.961
10.5741	0.961
10.6124	0.961
10.6507	0.961
10.6889	0.961
10.7272	0.961
10.7655	0.961
10.8037	0.961
10.842	0.961
10.8803	0.961
10.9185	0.959
10.9568	0.961
10.9951	0.961
11.0333	0.962
11.0716	0.962
11.1099	0.962
11.1481	0.962
11.1864	0.962
11.2247	0.962
11.2629	0.961
11.3012	0.959
11.3395	0.959
11.3777	0.958
11.416	0.956
11.4543	0.958
11.4925	0.958
11.5308	0.958
11.5691	0.958
11.6073	0.958
11.6456	0.958
11.6839	0.958
11.7221	0.958
11.7604	0.958
11.7987	0.956
11.8369	0.958
11.8752	0.955
11.9135	0.955
11.9517	0.955
11.99	0.954
12.0283	0.954
12.0665	0.954
12.1048	0.954
12.1431	0.954
12.1813	0.954
12.2196	0.954
12.2579	0.952
12.2961	0.952
12.3344	0.951
12.3727	0.951
12.4109	0.948
12.4492	0.943
12.4875	0.939
12.5257	0.934
12.564	0.927
12.6023	0.915
12.6405	0.884
12.6788	0.796
12.7171	0.534
12.7554	0.222
12.7936	0.192
12.8319	0.262
12.8702	0.534
12.9084	0.732
12.9467	0.798
12.985	0.807
13.0232	0.816
13.0615	0.85
13.0998	0.875
13.138	0.89
13.1763	0.9
13.2146	0.908
13.2528	0.913
13.2911	0.916
13.3294	0.919
13.3676	0.924
13.4059	0.925
13.4442	0.925
13.4824	0.925
13.5207	0.927
13.559	0.927
13.5972	0.927
13.6355	0.927
13.6738	0.925
13.712	0.925
13.7503	0.925
13.7886	0.925
13.8268	0.925
13.8651	0.927
13.9034	0.927
13.9416	0.927
13.9799	0.927
14.0182	0.927
14.0564	0.927
14.0947	0.928
14.133	0.927
14.1712	0.927
14.2095	0.927
14.2478	0.927
14.286	0.927
14.3243	0.927
14.3626	0.925
14.4008	0.924
14.4391	0.922
14.4774	0.922
14.5156	0.921
14.5539	0.921
14.5922	0.919
14.6304	0.918
14.6687	0.916
14.707	0.915
14.7452	0.913
14.7835	0.912
14.8218	0.91
14.86	0.908
14.8983	0.908
14.9366	0.905
14.9748	0.905
15.0131	0.902
15.0514	0.902
15.0897	0.9
15.1279	0.899
15.1662	0.897
15.2045	0.896
15.2427	0.896
15.281	0.896
