Infrared Spectrum: 1,1'-ETHYLENE-BIS-PYRIDINIUM BROMIDE
Formula: C12 H14 N2 Br2
State: SOLID (MINERAL OIL MULL)
Melting point: 290 C DECOMPOSES
Class: COBLENTZ
Instrument: Not specified, most likely a prism, grating, or hybrid spectrometer.
Sampling: TRANSMISSION
Resolution: 4
Origin: WYANDOTTE CHEMICALS CORP., WYANDOTTE, MICHIGAN, USA
MICROMETERS	TRANSMITTANCE
2.044	0.842
2.08381	0.849
2.12363	0.847
2.16344	0.851
2.20326	0.847
2.24307	0.854
2.28288	0.849
2.3227	0.854
2.36251	0.857
2.40233	0.857
2.44214	0.854
2.48196	0.849
2.52177	0.862
2.56158	0.874
2.6014	0.884
2.64121	0.896
2.68103	0.919
2.72084	0.934
2.76065	0.941
2.80047	0.943
2.84028	0.936
2.8801	0.923
2.91991	0.908
2.95973	0.891
2.99954	0.889
3.03935	0.891
3.07917	0.911
3.11898	0.949
3.1588	0.968
3.19861	0.986
3.23842	0.891
3.27824	0.849
3.31805	0.578
3.35787	0.249
3.39768	0.113
3.4375	0.103
3.47731	0.128
3.51712	0.14
3.55694	0.187
3.59675	0.285
3.63657	0.331
3.67638	0.334
3.71619	0.306
3.75601	0.344
3.79582	0.372
3.83564	0.369
3.87545	0.381
3.91527	0.389
3.95508	0.397
3.99489	0.399
4.03471	0.413
4.07452	0.424
4.11434	0.438
4.15415	0.439
4.19396	0.439
4.23378	0.439
4.27359	0.431
4.31341	0.431
4.35322	0.443
4.39304	0.463
4.43285	0.488
4.47266	0.489
4.51248	0.5
4.55229	0.505
4.59211	0.51
4.63192	0.513
4.67173	0.523
4.71155	0.528
4.75136	0.528
4.79118	0.536
4.83099	0.551
4.87081	0.558
4.91062	0.565
4.95043	0.558
4.99025	0.525
5.03006	0.526
5.06988	0.535
5.10969	0.558
5.1495	0.506
5.18932	0.468
5.22913	0.535
5.26895	0.58
5.30876	0.558
5.34858	0.573
5.38839	0.545
5.4282	0.543
5.46802	0.536
5.50783	0.595
5.54765	0.628
5.58746	0.635
5.62727	0.645
5.66709	0.655
5.7069	0.662
5.74672	0.633
5.78653	0.662
5.82635	0.667
5.86616	0.672
5.90597	0.683
5.94579	0.7
5.9856	0.677
6.02542	0.596
6.06523	0.531
6.10504	0.24
6.14486	0.461
6.18467	0.615
6.22449	0.657
6.2643	0.623
6.30412	0.399
6.34393	0.632
6.38374	0.64
6.42356	0.692
6.46337	0.698
6.50319	0.759
6.543	0.782
6.58281	0.799
6.62263	0.52
6.66244	0.137
6.70226	0.048
6.74207	0.127
6.78189	0.178
6.8217	0.173
6.86151	0.155
6.90133	0.132
6.94114	0.19
6.98096	0.183
7.02077	0.392
7.06058	0.563
7.1004	0.603
7.14021	0.623
7.18003	0.622
7.21984	0.515
7.25966	0.327
7.29947	0.209
7.33928	0.423
7.3791	0.558
7.41891	0.643
7.45873	0.662
7.49854	0.66
7.53835	0.655
7.57817	0.546
7.61798	0.215
7.6578	0.354
7.69761	0.556
7.73743	0.632
7.77724	0.665
7.81705	0.69
7.85687	0.705
7.89668	0.71
7.9365	0.724
7.97631	0.734
8.01612	0.762
8.05594	0.784
8.09575	0.745
8.13557	0.474
8.17538	0.306
8.2152	0.688
8.25501	0.774
8.29482	0.814
8.33464	0.54
8.37445	0.086
8.41427	0.244
8.45408	0.471
8.49389	0.565
8.53371	0.578
8.57352	0.56
8.61334	0.498
8.65315	0.458
8.69297	0.433
8.73278	0.489
8.77259	0.627
8.81241	0.673
8.85222	0.697
8.89204	0.704
8.93185	0.725
8.97166	0.745
9.01148	0.754
9.05129	0.755
9.09111	0.663
9.13092	0.588
9.17074	0.687
9.21055	0.74
9.25036	0.75
9.29018	0.752
9.32999	0.742
9.36981	0.63
9.40962	0.6
9.44943	0.693
9.48925	0.719
9.52906	0.729
9.56888	0.744
9.60869	0.782
9.64851	0.797
9.68832	0.802
9.72813	0.801
9.76795	0.779
9.80776	0.744
9.84758	0.782
9.88739	0.812
9.9272	0.831
9.96702	0.842
10.0068	0.841
10.0466	0.734
10.0865	0.717
10.1263	0.797
10.1661	0.819
10.2059	0.824
10.2457	0.802
10.2855	0.745
10.3253	0.785
10.3652	0.829
10.405	0.841
10.4448	0.852
10.4846	0.859
10.5244	0.861
10.5642	0.862
10.604	0.869
10.6439	0.874
10.6837	0.874
10.7235	0.874
10.7633	0.881
10.8031	0.886
10.8429	0.892
10.8827	0.897
10.9226	0.906
10.9624	0.923
11.0022	0.928
11.042	0.931
11.0818	0.934
11.1216	0.934
11.1614	0.938
11.2013	0.934
11.2411	0.914
11.2809	0.869
11.3207	0.866
11.3605	0.891
11.4003	0.903
11.4401	0.906
11.48	0.908
11.5198	0.911
11.5596	0.911
11.5994	0.916
11.6392	0.918
11.679	0.921
11.7188	0.928
11.7587	0.931
11.7985	0.921
11.8383	0.924
11.8781	0.919
11.9179	0.923
11.9577	0.919
11.9975	0.923
12.0374	0.928
12.0772	0.924
12.117	0.923
12.1568	0.928
12.1966	0.929
12.2364	0.926
12.2762	0.924
12.3161	0.921
12.3559	0.909
12.3957	0.841
12.4355	0.749
12.4753	0.831
12.5151	0.854
12.5549	0.856
12.5948	0.836
12.6346	0.802
12.6744	0.725
12.7142	0.607
12.754	0.453
12.7938	0.254
12.8336	0.132
12.8735	0.091
12.9133	0.083
12.9531	0.165
12.9929	0.299
13.0327	0.551
13.0725	0.707
13.1123	0.795
13.1522	0.856
13.192	0.894
13.2318	0.918
13.2716	0.941
13.3114	0.943
13.3512	0.958
13.391	0.966
13.4309	0.966
13.4707	0.963
13.5105	0.958
13.5503	0.951
13.5901	0.941
13.6299	0.941
13.6697	0.936
13.7095	0.934
13.7494	0.931
13.7892	0.934
13.829	0.929
13.8688	0.918
13.9086	0.914
13.9484	0.913
13.9882	0.919
14.0281	0.914
14.0679	0.906
14.1077	0.882
14.1475	0.864
14.1873	0.834
14.2271	0.812
14.2669	0.802
14.3068	0.784
14.3466	0.779
14.3864	0.769
14.4262	0.735
14.466	0.687
14.5058	0.618
14.5456	0.545
14.5855	0.466
14.6253	0.349
14.6651	0.252
14.7049	0.177
14.7447	0.138
14.7845	0.113
14.8243	0.113
14.8642	0.142
14.904	0.193
14.9438	0.275
14.9836	0.347
15.0234	0.408
15.0632	0.461
15.103	0.561
15.1429	0.655
15.1827	0.712
15.2225	0.755
15.2623	0.784
15.3021	0.797
15.3419	0.804
15.3817	0.806
15.4216	0.806
15.4614	0.782
15.5012	0.759
15.541	0.732
15.5808	0.719
15.6206	0.722
15.6604	0.727
15.7003	0.73
15.7401	0.725
15.7799	0.714
15.8197	0.685
15.8595	0.672
15.8993	0.655
15.9391	0.643
15.979	0.628
