Infrared Spectrum: RED LEAD
Formula: Pb3 O4
State: SOLID (1.2 mg / 300 mg CsI DISC)
Class: COBLENTZ
Instrument: Not specified, most likely a grating spectrometer.
Sampling: TRANSMISSION
Resolution: 4
Origin: DESOTO CHEMICAL COATINGS, INC.
1/CM	TRANSMITTANCE
200	0.768
210.643	0.764
221.286	0.772
231.929	0.775
242.572	0.772
253.215	0.772
263.858	0.767
274.501	0.749
285.144	0.705
295.787	0.666
306.43	0.672
317.073	0.645
327.716	0.4761
338.359	0.439
349.002	0.543
359.646	0.559
370.289	0.3562
380.932	0.1951
391.575	0.2299
402.218	0.396
412.861	0.493
423.504	0.4881
434.147	0.2861
444.79	0.223
455.433	0.208
466.076	0.231
476.719	0.3169
487.362	0.444
498.005	0.544
508.648	0.55
519.291	0.527
529.934	0.4711
540.577	0.5219
551.22	0.697
561.863	0.799
572.506	0.838
583.149	0.866
593.792	0.892
604.435	0.91
615.078	0.919
625.721	0.927
636.364	0.933
647.007	0.938
657.65	0.937
668.293	0.933
678.937	0.938
689.58	0.942
700.223	0.951
710.866	0.955
721.509	0.959
732.152	0.961
742.795	0.965
753.438	0.97
764.081	0.969
774.724	0.971
785.367	0.969
796.01	0.97
806.653	0.971
817.296	0.973
827.939	0.974
838.582	0.971
849.225	0.973
859.868	0.973
870.511	0.974
881.154	0.973
891.797	0.977
902.44	0.977
913.083	0.975
923.726	0.974
934.369	0.977
945.012	0.977
955.655	0.974
966.298	0.974
976.941	0.974
987.584	0.974
998.228	0.971
1008.87	0.973
1019.51	0.967
1030.16	0.962
1040.8	0.962
1051.44	0.961
1062.09	0.962
1072.73	0.959
1083.37	0.959
1094.01	0.959
1104.66	0.961
1115.3	0.962
1125.94	0.962
1136.59	0.962
1147.23	0.963
1157.87	0.966
1168.52	0.967
1179.16	0.966
1189.8	0.969
1200.45	0.967
1211.09	0.97
1221.73	0.969
1232.37	0.97
1243.02	0.966
1253.66	0.967
1264.3	0.969
1274.95	0.962
1285.59	0.962
1296.23	0.959
1306.88	0.959
1317.52	0.953
1328.16	0.953
1338.8	0.954
1349.45	0.951
1360.09	0.953
1370.73	0.953
1381.38	0.949
1392.02	0.945
1402.66	0.939
1413.31	0.929
1423.95	0.927
1434.59	0.93
1445.23	0.926
1455.88	0.926
1466.52	0.929
1477.16	0.931
1487.81	0.939
1498.45	0.939
1509.09	0.938
1519.74	0.939
1530.38	0.935
1541.02	0.935
1551.67	0.931
1562.31	0.931
1572.95	0.93
1583.59	0.931
1594.24	0.923
1604.88	0.91
1615.52	0.902
1626.17	0.899
1636.81	0.906
1647.45	0.921
1658.1	0.927
1668.74	0.931
1679.38	0.933
1690.02	0.931
1700.67	0.935
1711.31	0.942
1721.95	0.945
1732.6	0.945
1743.24	0.946
1753.88	0.943
1764.53	0.943
1775.17	0.946
1785.81	0.946
1796.46	0.943
1807.1	0.942
1817.74	0.942
1828.38	0.941
1839.03	0.942
1849.67	0.939
1860.31	0.937
1870.96	0.935
1881.6	0.933
1892.24	0.929
1902.89	0.931
1913.53	0.93
1924.17	0.93
1934.81	0.927
1945.46	0.929
1956.1	0.925
1966.74	0.926
1977.39	0.923
1988.03	0.922
1998.67	0.921
2009.32	0.921
2019.96	0.9185
2030.6	0.9159
2041.24	0.914
2051.89	0.914
2062.53	0.9129
2073.17	0.911
2083.82	0.911
2094.46	0.91
2105.1	0.911
2115.75	0.9104
2126.39	0.91
2137.03	0.908
2147.68	0.907
2158.32	0.907
2168.96	0.907
2179.6	0.907
2190.25	0.9063
2200.89	0.904
2211.53	0.904
2222.18	0.9032
2232.82	0.903
2243.46	0.9004
2254.11	0.899
2264.75	0.899
2275.39	0.899
2286.03	0.898
2296.68	0.8952
2307.32	0.894
2317.96	0.892
2328.61	0.891
2339.25	0.8901
2349.89	0.89
2360.54	0.888
2371.18	0.888
2381.82	0.887
2392.46	0.886
2403.11	0.884
2413.75	0.883
2424.39	0.883
2435.04	0.882
2445.68	0.88
2456.32	0.88
2466.97	0.879
2477.61	0.878
2488.25	0.878
2498.9	0.878
2509.54	0.878
2520.18	0.875
2530.82	0.874
2541.47	0.872
2552.11	0.8697
2562.75	0.866
2573.4	0.867
2584.04	0.866
2594.68	0.8638
2605.33	0.863
2615.97	0.862
2626.61	0.8598
2637.25	0.859
2647.9	0.8587
2658.54	0.856
2669.18	0.855
2679.83	0.854
2690.47	0.8517
2701.11	0.8507
2711.76	0.848
2722.4	0.846
2733.04	0.8437
2743.69	0.842
2754.33	0.84
2764.97	0.839
2775.61	0.838
2786.26	0.8372
2796.9	0.835
2807.54	0.835
2818.19	0.834
2828.83	0.831
2839.47	0.8245
2850.12	0.822
2860.76	0.82
2871.4	0.819
2882.04	0.819
2892.69	0.8179
2903.33	0.817
2913.97	0.8124
2924.62	0.8053
2935.26	0.799
2945.9	0.8
2956.55	0.801
2967.19	0.8022
2977.83	0.803
2988.47	0.803
2999.12	0.803
3009.76	0.8016
3020.4	0.801
3031.05	0.8
3041.69	0.799
3052.33	0.797
3062.98	0.795
3073.62	0.792
3084.26	0.791
3094.91	0.789
3105.55	0.788
3116.19	0.7842
3126.83	0.7802
3137.48	0.78
3148.12	0.779
3158.76	0.777
3169.41	0.775
3180.05	0.773
3190.69	0.769
3201.34	0.7681
3211.98	0.763
3222.62	0.76
3233.26	0.759
3243.91	0.7521
3254.55	0.751
3265.19	0.748
3275.84	0.746
3286.48	0.741
3297.12	0.74
3307.77	0.734
3318.41	0.7319
3329.05	0.7249
3339.69	0.7197
3350.34	0.7087
3360.98	0.6998
3371.62	0.6889
3382.27	0.6807
3392.91	0.6686
3403.55	0.6566
3414.2	0.6487
3424.84	0.6365
3435.48	0.63
3446.13	0.6286
3456.77	0.626
3467.41	0.623
3478.05	0.625
3488.7	0.626
3499.34	0.6275
3509.98	0.63
3520.63	0.6333
3531.27	0.6373
3541.91	0.6423
3552.56	0.649
3563.2	0.6556
3573.84	0.6667
3584.48	0.6733
3595.13	0.6787
3605.77	0.6854
3616.41	0.6934
3627.06	0.698
3637.7	0.7004
3648.34	0.702
3658.99	0.705
3669.63	0.705
3680.27	0.7045
3690.92	0.7031
3701.56	0.701
3712.2	0.7
3722.84	0.701
3733.49	0.7
3744.13	0.698
3754.77	0.6965
3765.42	0.694
3776.06	0.692
3786.7	0.69
3797.35	0.6884
3807.99	0.6868
3818.63	0.686
3829.27	0.685
3839.92	0.6844
3850.56	0.682
3861.2	0.681
3871.85	0.6803
3882.49	0.6746
3893.13	0.676
3903.78	0.673
3914.42	0.6767
3925.06	0.6733
3935.7	0.67
3946.35	0.669
3956.99	0.669
3967.63	0.6664
3978.28	0.666
3988.92	0.668
