Infrared Spectrum: 1,4-BUTANEDISULFONIC ACID, 1,4-DITHIO-, S,S'-BIS(2-AMINOETHYL ESTER), DIHYDROBROMIDE
Formula: C8 H22 Br2 N2 O4 S4
State: SOLID (1 mg / 650 mg, KBr DISC)
Class: COBLENTZ III
Instrument: PERKIN-ELMER 221 (GRATING)
Instrument parameters: FILTER AT 980 CM^-^1. GRATING 4000-1428 CM^-^1, NaCl PRISM 1428-650 CM^-^1
Sampling: TRANSMISSION
Resolution: 2
Origin: SOUTHERN RESEARCH INSTITUTE
1/CM	TRANSMITTANCE
649.372	0.959
658.113	0.956
666.854	0.951
675.595	0.945
684.336	0.94
693.076	0.9352
701.817	0.9217
710.558	0.9011
719.299	0.8535
728.04	0.6779
736.781	0.7534
745.522	0.7181
754.263	0.4437
763.004	0.7565
771.745	0.9355
780.485	0.972
789.226	0.975
797.967	0.9743
806.708	0.9717
815.449	0.968
824.19	0.965
832.931	0.9608
841.672	0.9558
850.413	0.9408
859.154	0.9284
867.894	0.8127
876.635	0.9358
885.376	0.952
894.117	0.95
902.858	0.9401
911.599	0.906
920.34	0.81
929.081	0.7522
937.822	0.8105
946.562	0.9498
955.303	0.959
964.044	0.9543
972.785	0.9447
981.526	0.9282
990.267	0.9134
999.008	0.8945
1007.75	0.854
1016.49	0.8709
1025.23	0.884
1033.97	0.885
1042.71	0.883
1051.45	0.8757
1060.19	0.8458
1068.94	0.7211
1077.68	0.7445
1086.42	0.7322
1095.16	0.6267
1103.9	0.6972
1112.64	0.4884
1121.38	0.3033
1130.12	0.5258
1138.86	0.6992
1147.6	0.8793
1156.34	0.9209
1165.08	0.926
1173.83	0.9252
1182.57	0.9185
1191.31	0.8938
1200.05	0.8224
1208.79	0.6895
1217.53	0.9216
1226.27	0.9198
1235.01	0.9039
1243.75	0.885
1252.49	0.8311
1261.23	0.7566
1269.98	0.8565
1278.72	0.7701
1287.46	0.6613
1296.2	0.7291
1304.94	0.5341
1313.68	0.342
1322.42	0.717
1331.16	0.6814
1339.9	0.7322
1348.64	0.9192
1357.38	0.936
1366.13	0.9189
1374.87	0.8912
1383.61	0.8282
1392.35	0.7658
1401.09	0.9086
1409.83	0.936
1418.57	0.935
1427.31	0.9302
1436.05	0.9117
1444.79	0.8775
1453.53	0.7231
1462.28	0.7527
1471.02	0.8121
1479.76	0.6087
1488.5	0.8235
1497.24	0.8968
1505.98	0.9259
1514.72	0.927
1523.46	0.922
1532.2	0.9217
1540.94	0.9187
1549.68	0.914
1558.43	0.9098
1567.17	0.8933
1575.91	0.8517
1584.65	0.7673
1593.39	0.8294
1602.13	0.889
1610.87	0.889
1619.61	0.888
1628.35	0.885
1637.09	0.8889
1645.83	0.8938
1654.58	0.896
1663.32	0.8988
1672.06	0.9037
1680.8	0.906
1689.54	0.908
1698.28	0.909
1707.02	0.91
1715.76	0.911
1724.5	0.911
1733.24	0.913
1741.98	0.914
1750.73	0.914
1759.47	0.914
1768.21	0.913
1776.95	0.909
1785.69	0.91
1794.43	0.9088
1803.17	0.906
1811.91	0.906
1820.65	0.906
1829.39	0.905
1838.13	0.906
1846.87	0.904
1855.62	0.8911
1864.36	0.893
1873.1	0.894
1881.84	0.895
1890.58	0.895
1899.32	0.8932
1908.06	0.891
1916.8	0.89
1925.54	0.8866
1934.28	0.881
1943.02	0.877
1951.77	0.874
1960.51	0.874
1969.25	0.866
1977.99	0.8575
1986.73	0.834
1995.47	0.8226
2004.21	0.7955
2012.95	0.7763
2021.69	0.7596
2030.43	0.7811
2039.17	0.7999
2047.92	0.8134
2056.66	0.823
2065.4	0.834
2074.14	0.8377
2082.88	0.8511
2091.62	0.859
2100.36	0.8644
2109.1	0.868
2117.84	0.869
2126.58	0.869
2135.32	0.868
2144.07	0.867
2152.81	0.867
2161.55	0.868
2170.29	0.8686
2179.03	0.8636
2187.77	0.8569
2196.51	0.855
2205.25	0.858
2213.99	0.8546
2222.73	0.8513
2231.47	0.8476
2240.22	0.847
2248.96	0.844
2257.7	0.839
2266.44	0.838
2275.18	0.837
2283.92	0.837
2292.66	0.837
2301.4	0.837
2310.14	0.832
2318.88	0.8266
2327.62	0.8186
2336.37	0.8116
2345.11	0.808
2353.85	0.807
2362.59	0.8023
2371.33	0.7926
2380.07	0.7826
2388.81	0.7477
2397.55	0.7179
2406.29	0.7171
2415.03	0.7657
2423.77	0.7887
2432.51	0.792
2441.26	0.792
2450	0.788
2458.74	0.7826
2467.48	0.776
2476.22	0.7666
2484.96	0.7687
2493.7	0.7619
2502.44	0.7396
2511.18	0.7085
2519.92	0.7034
2528.66	0.708
2537.41	0.703
2546.15	0.7044
2554.89	0.7207
2563.63	0.727
2572.37	0.729
2581.11	0.7245
2589.85	0.6996
2598.59	0.6856
2607.33	0.6884
2616.07	0.6967
2624.81	0.6956
2633.56	0.694
2642.3	0.6886
2651.04	0.6725
2659.78	0.6526
2668.52	0.6476
2677.26	0.6433
2686	0.6326
2694.74	0.6165
2703.48	0.5795
2712.22	0.5288
2720.96	0.509
2729.71	0.5476
2738.45	0.573
2747.19	0.5806
2755.93	0.572
2764.67	0.5506
2773.41	0.5446
2782.15	0.5363
2790.89	0.5179
2799.63	0.504
2808.37	0.501
2817.11	0.4954
2825.86	0.4806
2834.6	0.4393
2843.34	0.4066
2852.08	0.4006
2860.82	0.3943
2869.56	0.3776
2878.3	0.3496
2887.04	0.3316
2895.78	0.3283
2904.52	0.3199
2913.26	0.3036
2922.01	0.303
2930.75	0.2985
2939.49	0.2633
2948.23	0.2459
2956.97	0.2481
2965.71	0.26
2974.45	0.263
2983.19	0.2674
2991.93	0.285
3000.67	0.2707
3009.41	0.2872
3018.16	0.3141
3026.9	0.3362
3035.64	0.3635
3044.38	0.3898
3053.12	0.4235
3061.86	0.455
3070.6	0.4891
3079.34	0.5238
3088.08	0.5469
3096.82	0.5841
3105.56	0.6217
3114.3	0.637
3123.05	0.6825
3131.79	0.7047
3140.53	0.7191
3149.27	0.7447
3158.01	0.7564
3166.75	0.757
3175.49	0.757
3184.23	0.757
3192.97	0.7604
3201.71	0.763
3210.45	0.7654
3219.2	0.7757
3227.94	0.7917
3236.68	0.8047
3245.42	0.8114
3254.16	0.812
3262.9	0.812
3271.64	0.812
3280.38	0.812
3289.12	0.809
3297.86	0.8026
3306.6	0.797
3315.35	0.795
3324.09	0.7893
3332.83	0.7843
3341.57	0.78
3350.31	0.7766
3359.05	0.7699
3367.79	0.76
3376.53	0.7546
3385.27	0.7496
3394.01	0.745
3402.75	0.7346
3411.5	0.727
3420.24	0.724
3428.98	0.7216
3437.72	0.722
3446.46	0.722
3455.2	0.722
3463.94	0.722
3472.68	0.722
3481.42	0.724
3490.16	0.725
3498.9	0.726
3507.65	0.729
3516.39	0.732
3525.13	0.736
3533.87	0.74
3542.61	0.7427
3551.35	0.746
3560.09	0.7504
3568.83	0.7544
3577.57	0.7577
3586.31	0.7614
3595.05	0.7654
3603.8	0.7704
3612.54	0.775
3621.28	0.778
3630.02	0.7824
3638.76	0.786
3647.5	0.787
3656.24	0.788
3664.98	0.788
3673.72	0.788
3682.46	0.79
3691.2	0.79
3699.95	0.79
3708.69	0.788
3717.43	0.788
3726.17	0.787
3734.91	0.787
3743.65	0.787
3752.39	0.788
3761.13	0.79
3769.87	0.79
3778.61	0.786
3787.35	0.785
3796.09	0.783
3804.84	0.781
3813.58	0.78
3822.32	0.778
3831.06	0.777
3839.8	0.776
3848.54	0.775
3857.28	0.773
3866.02	0.772
3874.76	0.771
3883.5	0.771
3892.24	0.771
3900.99	0.77
3909.73	0.768
3918.47	0.768
3927.21	0.767
3935.95	0.766
3944.69	0.766
3953.43	0.7613
3962.17	0.76
3970.91	0.76
3979.65	0.76
3988.39	0.7596
3997.14	0.759
4005.88	0.757
4014.62	0.757
4023.36	0.757
4032.1	0.757
4040.84	0.7594
