Infrared Spectrum: CALCIO ACETOACETIC ESTER
Formula: C12 H18 Ca O6
State: SOLID (KBr PELLET)
Class: COBLENTZ
Instrument: Not specified, most likely a grating spectrometer.
Sampling: TRANSMISSION
Resolution: 4
Origin: ABBOTT LABORATORIES
MICROMETERS	TRANSMITTANCE
2	0.685
2.03604	0.687
2.07209	0.689
2.10813	0.69
2.14417	0.692
2.18022	0.694
2.21626	0.696
2.2523	0.696
2.28834	0.694
2.32439	0.696
2.36043	0.699
2.39647	0.703
2.43252	0.703
2.46856	0.703
2.5046	0.712
2.54065	0.719
2.57669	0.722
2.61273	0.722
2.64878	0.73
2.68482	0.731
2.72086	0.712
2.75691	0.717
2.79295	0.706
2.82899	0.694
2.86503	0.692
2.90108	0.69
2.93712	0.694
2.97316	0.701
3.00921	0.71
3.04525	0.703
3.08129	0.71
3.11734	0.717
3.15338	0.719
3.18942	0.719
3.22547	0.719
3.26151	0.719
3.29755	0.685
3.3336	0.486
3.36964	0.571
3.40568	0.596
3.44172	0.625
3.47777	0.682
3.51381	0.714
3.54985	0.722
3.5859	0.731
3.62194	0.735
3.65798	0.746
3.69403	0.747
3.73007	0.751
3.76611	0.754
3.80216	0.76
3.8382	0.763
3.87424	0.765
3.91029	0.769
3.94633	0.767
3.98237	0.761
4.01841	0.742
4.05446	0.74
4.0905	0.754
4.12654	0.758
4.16259	0.749
4.19863	0.756
4.23467	0.763
4.27072	0.77
4.30676	0.776
4.3428	0.761
4.37885	0.76
4.41489	0.765
4.45093	0.765
4.48698	0.765
4.52302	0.765
4.55906	0.765
4.5951	0.763
4.63115	0.742
4.66719	0.742
4.70323	0.749
4.73928	0.749
4.77532	0.747
4.81136	0.744
4.84741	0.747
4.88345	0.738
4.91949	0.73
4.95554	0.737
4.99158	0.733
5.02762	0.71
5.06366	0.717
5.09971	0.71
5.13575	0.696
5.17179	0.678
5.20784	0.669
5.24388	0.68
5.27992	0.669
5.31597	0.658
5.35201	0.65
5.38805	0.644
5.4241	0.634
5.46014	0.618
5.49618	0.611
5.53223	0.598
5.56827	0.586
5.60431	0.566
5.64035	0.55
5.6764	0.527
5.71244	0.5
5.74848	0.479
5.78453	0.463
5.82057	0.447
5.85661	0.42
5.89266	0.399
5.9287	0.369
5.96474	0.333
6.00079	0.289
6.03683	0.238
6.07287	0.156
6.10892	0.101
6.14496	0.076
6.181	0.181
6.21704	0.252
6.25309	0.287
6.28913	0.301
6.32517	0.246
6.36122	0.307
6.39726	0.312
6.4333	0.225
6.46935	0.163
6.50539	0.133
6.54143	0.108
6.57748	0.078
6.61352	0.072
6.64956	0.108
6.68561	0.211
6.72165	0.259
6.75769	0.266
6.79373	0.335
6.82978	0.36
6.86582	0.33
6.90186	0.332
6.93791	0.326
6.97395	0.312
7.00999	0.282
7.04604	0.179
7.08208	0.145
7.11812	0.211
7.15417	0.289
7.19021	0.367
7.22625	0.397
7.2623	0.46
7.29834	0.481
7.33438	0.468
7.37042	0.504
7.40647	0.531
7.44251	0.634
7.47855	0.671
7.5146	0.687
7.55064	0.685
7.58668	0.664
7.62273	0.628
7.65877	0.584
7.69481	0.525
7.73086	0.465
7.7669	0.412
7.80294	0.358
7.83899	0.301
7.87503	0.236
7.91107	0.177
7.94711	0.127
7.98316	0.074
8.0192	0.053
8.05524	0.026
8.09129	0.033
8.12733	0.097
8.16337	0.156
8.19942	0.204
8.23546	0.25
8.2715	0.296
8.30755	0.351
8.34359	0.44
8.37963	0.532
8.41567	0.564
8.45172	0.426
8.48776	0.264
8.5238	0.085
8.55985	0.104
8.59589	0.17
8.63193	0.218
8.66798	0.255
8.70402	0.301
8.74006	0.341
8.77611	0.374
8.81215	0.404
8.84819	0.436
8.88424	0.461
8.92028	0.488
8.95632	0.506
8.99236	0.504
9.02841	0.468
9.06445	0.518
9.10049	0.563
9.13654	0.591
9.17258	0.619
9.20862	0.639
9.24467	0.626
9.28071	0.554
9.31675	0.452
9.3528	0.339
9.38884	0.223
9.42488	0.191
9.46093	0.229
9.49697	0.285
9.53301	0.36
9.56905	0.42
9.6051	0.477
9.64114	0.502
9.67718	0.511
9.71323	0.433
9.74927	0.38
9.78531	0.273
9.82136	0.19
9.8574	0.209
9.89344	0.253
9.92949	0.33
9.96553	0.394
10.0016	0.449
10.0376	0.5
10.0737	0.55
10.1097	0.573
10.1457	0.513
10.1818	0.321
10.2178	0.168
10.2539	0.175
10.2899	0.222
10.326	0.25
10.362	0.2
10.398	0.206
10.4341	0.262
10.4701	0.312
10.5062	0.341
10.5422	0.373
10.5783	0.396
10.6143	0.419
10.6503	0.44
10.6864	0.451
10.7224	0.463
10.7585	0.477
10.7945	0.493
10.8306	0.504
10.8666	0.509
10.9026	0.515
10.9387	0.52
10.9747	0.527
11.0108	0.531
11.0468	0.536
11.0829	0.545
11.1189	0.548
11.155	0.554
11.191	0.552
11.227	0.561
11.2631	0.571
11.2991	0.571
11.3352	0.58
11.3712	0.586
11.4073	0.589
11.4433	0.593
11.4793	0.58
11.5154	0.582
11.5514	0.568
11.5875	0.52
11.6235	0.488
11.6596	0.511
11.6956	0.554
11.7316	0.58
11.7677	0.596
11.8037	0.612
11.8398	0.625
11.8758	0.63
11.9119	0.639
11.9479	0.65
11.9839	0.657
12.02	0.667
12.056	0.673
12.0921	0.68
12.1281	0.687
12.1642	0.692
12.2002	0.696
12.2362	0.699
12.2723	0.703
12.3083	0.708
12.3444	0.706
12.3804	0.708
12.4165	0.719
12.4525	0.728
12.4885	0.733
12.5246	0.73
12.5606	0.689
12.5967	0.593
12.6327	0.44
12.6688	0.209
12.7048	0.131
12.7408	0.177
12.7769	0.257
12.8129	0.321
12.849	0.376
12.885	0.442
12.9211	0.488
12.9571	0.513
12.9932	0.538
13.0292	0.536
13.0652	0.522
13.1013	0.516
13.1373	0.532
13.1734	0.541
13.2094	0.555
13.2455	0.579
13.2815	0.6
13.3175	0.618
13.3536	0.637
13.3896	0.648
13.4257	0.648
13.4617	0.547
13.4978	0.374
13.5338	0.296
13.5698	0.376
13.6059	0.436
13.6419	0.479
13.678	0.513
13.714	0.532
13.7501	0.548
13.7861	0.559
13.8221	0.568
13.8582	0.579
13.8942	0.582
13.9303	0.589
13.9663	0.598
14.0024	0.603
14.0384	0.612
14.0744	0.611
14.1105	0.621
14.1465	0.625
14.1826	0.626
14.2186	0.625
14.2547	0.628
14.2907	0.635
14.3267	0.635
14.3628	0.637
14.3988	0.637
14.4349	0.648
14.4709	0.651
14.507	0.642
14.543	0.65
14.579	0.651
14.6151	0.651
14.6511	0.65
14.6872	0.651
14.7232	0.651
14.7593	0.653
14.7953	0.651
14.8313	0.657
14.8674	0.657
14.9034	0.657
14.9395	0.657
14.9755	0.655
15.0116	0.666
15.0476	0.669
15.0837	0.666
15.1197	0.666
15.1557	0.667
15.1918	0.667
15.2278	0.669
15.2639	0.669
15.2999	0.667
15.336	0.667
15.372	0.673
15.408	0.669
15.4441	0.673
