Infrared Spectrum: GLYCOLIC ACID, SODIUM SALT
Formula: C2 H3 Na O3
State: SOLID (OIL MULL)
Class: COBLENTZ III
Instrument: BAIRD (GRATING)
Instrument parameters: NaCl PRISM
Sampling: TRANSMISSION
Path length: CAPILLARY
Resolution: 2
Origin: WYANDOTTE CHEMICALS CORP.
1/CM	TRANSMITTANCE
4000	0.9528
3991	0.9553
3982	0.9598
3973	0.9637
3964	0.9658
3955	0.9678
3946	0.9697
3937	0.9716
3928	0.9725
3919	0.9735
3910	0.9734
3901	0.9713
3892	0.9671
3883	0.9625
3874	0.9596
3865	0.9588
3856	0.9587
3847	0.9598
3838	0.9616
3829	0.9643
3820	0.966
3811	0.9664
3802	0.9668
3793	0.9673
3784	0.9668
3775	0.9666
3766	0.9661
3757	0.9656
3748	0.9646
3739	0.9628
3730	0.9611
3721	0.9593
3712	0.9575
3703	0.9544
3694	0.9506
3685	0.9468
3676	0.9423
3667	0.9374
3658	0.9324
3649	0.9271
3640	0.9177
3631	0.9078
3622	0.8996
3613	0.8925
3604	0.8852
3595	0.8775
3586	0.8701
3577	0.8621
3568	0.8541
3559	0.8445
3550	0.8325
3541	0.8207
3532	0.8105
3523	0.8001
3514	0.7893
3505	0.7775
3496	0.7675
3487	0.7605
3478	0.7533
3469	0.746
3460	0.7357
3451	0.7238
3442	0.7086
3433	0.6924
3424	0.6708
3415	0.6553
3406	0.6403
3397	0.6224
3388	0.6091
3379	0.5972
3370	0.585
3361	0.5723
3352	0.5446
3343	0.4887
3334	0.4692
3325	0.4533
3316	0.4372
3307	0.421
3298	0.4047
3289	0.3849
3280	0.3612
3271	0.3382
3262	0.3119
3253	0.287
3244	0.2653
3235	0.2474
3226	0.2332
3217	0.2164
3208	0.1944
3199	0.175
3190	0.1634
3181	0.1539
3172	0.1431
3163	0.1322
3154	0.1223
3145	0.1131
3136	0.1054
3127	0.0968
3118	0.0884
3109	0.0818
3100	0.0811
3091	0.0806
3082	0.0797
3073	0.0771
3064	0.072
3055	0.0644
3046	0.0622
3037	0.0642
3028	0.0668
3019	0.0677
3010	0.066
3001	0.0617
2992	0.0519
2983	0.0383
2974	0.0183
2965	0.0171
2956	0.0166
2947	0.016
2938	0.0154
2929	0.0152
2920	0.015
2911	0.0149
2902	0.015
2893	0.0151
2884	0.0156
2875	0.0193
2866	0.0253
2857	0.0331
2848	0.0435
2839	0.0564
2830	0.0694
2821	0.085
2812	0.1083
2803	0.1338
2794	0.1514
2785	0.1686
2776	0.1861
2767	0.1948
2758	0.191
2749	0.1604
2740	0.1407
2731	0.1666
2722	0.1973
2713	0.2282
2704	0.2361
2695	0.2355
2686	0.2366
2677	0.2029
2668	0.1659
2659	0.1572
2650	0.2053
2641	0.2823
2632	0.3191
2623	0.3504
2614	0.3818
2605	0.4136
2596	0.4262
2587	0.4218
2578	0.388
2569	0.3541
2560	0.3396
2551	0.3866
2542	0.4252
2533	0.4406
2524	0.4585
2515	0.4752
2506	0.4921
2497	0.5138
2488	0.5312
2479	0.5499
2470	0.5705
2461	0.5958
2452	0.6143
2443	0.6282
2434	0.6407
2425	0.6511
2416	0.661
2407	0.67
2398	0.6765
2389	0.6791
2380	0.6787
2371	0.6561
2362	0.65
2353	0.6521
2344	0.6649
2335	0.6781
2326	0.6843
2317	0.6886
2308	0.7061
2299	0.7308
2290	0.7454
2281	0.7622
2272	0.7718
2263	0.7788
2254	0.7883
2245	0.7971
2236	0.8054
2227	0.8133
2218	0.822
2209	0.8342
2200	0.8458
2191	0.8465
2182	0.8407
2173	0.8362
2164	0.8413
2155	0.8407
2146	0.8341
2137	0.8405
2128	0.8583
2119	0.8607
2110	0.8421
2101	0.806
2092	0.8207
2083	0.8588
2074	0.8631
2065	0.8667
2056	0.8778
2047	0.8816
2038	0.8812
2029	0.8805
2020	0.8809
2011	0.8851
2002	0.8932
1993	0.8961
1984	0.891
1975	0.8654
1966	0.8558
1957	0.8573
1948	0.8585
1939	0.8548
1930	0.8477
1921	0.8425
1912	0.8398
1903	0.8184
1894	0.7784
1885	0.7603
1876	0.7489
1867	0.7445
1858	0.7355
1849	0.7187
1840	0.7005
1831	0.6781
1822	0.6517
1813	0.6235
1804	0.5915
1795	0.5529
1786	0.5134
1777	0.4877
1768	0.4365
1759	0.401
1750	0.3647
1741	0.3334
1732	0.3025
1723	0.27
1714	0.2318
1705	0.2122
1696	0.1608
1687	0.1287
1678	0.1133
1669	0.1212
1660	0.1057
1651	0.0539
1642	0.0354
1633	0.028
1624	0.0234
1615	0.0208
1606	0.0208
1597	0.0237
1588	0.0306
1579	0.0441
1570	0.0729
1561	0.0946
1552	0.1154
1543	0.1454
1534	0.1564
1525	0.1713
1516	0.1559
1507	0.0892
1498	0.0656
1489	0.113
1480	0.0959
1471	0.0563
1462	0.0758
1453	0.0624
1444	0.0584
1435	0.1374
1426	0.1957
1417	0.2272
1408	0.1189
1399	0.0243
1390	0.0193
1381	0.0246
1372	0.0629
1363	0.1571
1354	0.256
1345	0.3562
1336	0.4347
1327	0.4788
1318	0.4475
1309	0.2049
1300	0.0326
1291	0.0363
1282	0.1107
1273	0.2179
1264	0.3275
1255	0.4168
1246	0.4567
1237	0.4118
1228	0.5934
1219	0.6081
1210	0.6086
1201	0.653
1192	0.6782
1183	0.7078
1174	0.7189
1165	0.7362
1156	0.7615
1147	0.8105
1138	0.8485
1129	0.8533
1120	0.8637
1111	0.8478
1102	0.8424
1093	0.7588
1084	0.5248
1075	0.0588
1066	0.0286
1057	0.0947
1048	0.2547
1039	0.3672
1030	0.4525
1021	0.3855
1012	0.616
1003	0.6656
994	0.6658
985	0.6708
976	0.6628
967	0.6651
958	0.6704
949	0.6644
940	0.6575
931	0.6515
922	0.6401
913	0.5143
904	0.4217
895	0.4825
886	0.4298
877	0.3407
868	0.1981
859	0.0891
850	0.0642
841	0.143
832	0.2956
823	0.5001
814	0.6268
805	0.7008
796	0.7151
787	0.7483
778	0.8133
769	0.8846
760	0.9354
751	0.9484
742	0.9328
733	0.8563
724	0.7168
715	0.5534
706	0.2597
697	0.1214
688	0.2985
679	0.5496
670	0.7021
661	0.7432
652	0.7645
643	0.7358
634	0.6864
625	0.6239
