Infrared Spectrum: Ammonium compounds, substituted: ethyl tripropyl- nitrate
Formula: C11 H26 N2 O3
State: SOLID (SPLIT MULL), FLUOROLUBE FOR 3800-1330 CM^-^1, NUJOL FOR 1330-450 CM^-^1
Class: COBLENTZ III
Instrument: DOW KBr FOREPRISM-GRATING
Instrument parameters: BLAZED AT 3.5, 12.0, 20.0 MICRON AND CHANGED AT 5.0, 7.5, 14.9 MICRON
Sampling: TRANSMISSION
Resolution: 2
Origin: DOW CHEMICAL COMPANY
1/CM	TRANSMITTANCE
3800	0.794
3791	0.7941
3782	0.7941
3773	0.7942
3764	0.7943
3755	0.7945
3746	0.7964
3737	0.7995
3728	0.8
3719	0.7975
3710	0.7967
3701	0.7974
3692	0.7985
3683	0.7995
3674	0.8005
3665	0.8005
3656	0.8004
3647	0.8004
3638	0.8004
3629	0.8001
3620	0.7997
3611	0.7991
3602	0.7986
3593	0.7978
3584	0.7975
3575	0.7969
3566	0.7965
3557	0.7961
3548	0.7957
3539	0.7954
3530	0.7951
3521	0.7949
3512	0.7947
3503	0.7945
3494	0.7943
3485	0.794
3476	0.7935
3467	0.7928
3458	0.7924
3449	0.7918
3440	0.7912
3431	0.7911
3422	0.791
3413	0.7908
3404	0.7908
3395	0.7907
3386	0.7906
3377	0.7904
3368	0.7903
3359	0.7901
3350	0.7901
3341	0.79
3332	0.7899
3323	0.7898
3314	0.7906
3305	0.7915
3296	0.7924
3287	0.7932
3278	0.7941
3269	0.7947
3260	0.7953
3251	0.7958
3242	0.7964
3233	0.7969
3224	0.7975
3215	0.7978
3206	0.7983
3197	0.7987
3188	0.7991
3179	0.7995
3170	0.7997
3161	0.7998
3152	0.7999
3143	0.7999
3134	0.7993
3125	0.7985
3116	0.7975
3107	0.7967
3098	0.7958
3089	0.795
3080	0.7943
3071	0.7928
3062	0.7903
3053	0.7871
3044	0.7818
3035	0.774
3026	0.7603
3017	0.7408
3008	0.7112
2999	0.6562
2990	0.5722
2981	0.5004
2972	0.4428
2963	0.5971
2954	0.6222
2945	0.6209
2936	0.6455
2927	0.6689
2918	0.6875
2909	0.706
2900	0.7121
2891	0.6865
2882	0.6411
2873	0.7135
2864	0.7472
2855	0.7601
2846	0.7707
2837	0.7789
2828	0.7864
2819	0.7917
2810	0.7961
2801	0.7997
2792	0.8033
2783	0.8067
2774	0.8095
2765	0.811
2756	0.8108
2747	0.8096
2738	0.8092
2729	0.8105
2720	0.8121
2711	0.8128
2702	0.8135
2693	0.8145
2684	0.8154
2675	0.8162
2666	0.8175
2657	0.8188
2648	0.8202
2639	0.8215
2630	0.823
2621	0.8245
2612	0.8261
2603	0.827
2594	0.828
2585	0.8289
2576	0.8299
2567	0.8309
2558	0.8315
2549	0.8321
2540	0.8327
2531	0.8333
2522	0.8339
2513	0.8344
2504	0.8351
2495	0.8357
2486	0.8363
2477	0.8368
2468	0.8374
2459	0.8378
2450	0.8383
2441	0.838
2432	0.8378
2423	0.8373
2414	0.8363
2405	0.835
2396	0.8308
2387	0.825
2378	0.8204
2369	0.8193
2360	0.8216
2351	0.8242
2342	0.8268
2333	0.8296
2324	0.8325
2315	0.8353
2306	0.8382
2297	0.8409
2288	0.8436
2279	0.8463
2270	0.8489
2261	0.8515
2252	0.854
2243	0.8565
2234	0.8587
2225	0.8609
2216	0.8631
2207	0.8653
2198	0.8677
2189	0.8702
2180	0.8739
2171	0.8778
2162	0.8771
2153	0.8778
2144	0.8784
2135	0.8789
2126	0.8796
2117	0.8801
2108	0.8808
2099	0.8813
2090	0.8818
2081	0.8823
2072	0.8827
2063	0.883
2054	0.8831
2045	0.883
2036	0.8854
2027	0.8874
2018	0.8884
2009	0.8874
2000	0.881
1991	0.8781
1982	0.8775
1973	0.8774
1964	0.8775
1955	0.8782
1946	0.8788
1937	0.8791
1928	0.8794
1919	0.8795
1910	0.8796
1901	0.8792
1892	0.8797
1883	0.8801
1874	0.8799
1865	0.8796
1856	0.8794
1847	0.8792
1838	0.879
1829	0.879
1820	0.8788
1811	0.8786
1802	0.8784
1793	0.8778
1784	0.8771
1775	0.8762
1766	0.8764
1757	0.8754
1748	0.8554
1739	0.8556
1730	0.8699
1721	0.8714
1712	0.8723
1703	0.8725
1694	0.8725
1685	0.8721
1676	0.8718
1667	0.8723
1658	0.8725
1649	0.8725
1640	0.8727
1631	0.8725
1622	0.873
1613	0.8734
1604	0.8741
1595	0.8738
1586	0.8735
1577	0.8731
1568	0.8733
1559	0.8735
1550	0.8734
1541	0.8724
1532	0.8705
1523	0.8655
1514	0.8567
1505	0.7554
1496	0.6718
1487	0.6828
1478	0.6758
1469	0.6812
1460	0.6678
1451	0.7443
1442	0.7855
1433	0.7864
1424	0.775
1415	0.7382
1406	0.7178
1397	0.6393
1388	0.5735
1379	0.4996
1370	0.4127
1361	0.1611
1352	0.0815
1343	0.0742
1334	0.0996
1325	0.2158
1316	0.289
1307	0.3816
1298	0.5526
1289	0.6227
1280	0.6645
1271	0.6926
1262	0.7214
1253	0.7421
1244	0.7589
1235	0.7725
1226	0.7765
1217	0.7798
1208	0.7815
1199	0.7815
1190	0.7575
1181	0.7265
1172	0.7181
1163	0.753
1154	0.7634
1145	0.7825
1136	0.7875
1127	0.7921
1118	0.7994
1109	0.7986
1100	0.7847
1091	0.7703
1082	0.7732
1073	0.8017
1064	0.8011
1055	0.7946
1046	0.7921
1037	0.7525
1028	0.7291
1019	0.7415
1010	0.799
1001	0.811
992	0.8014
983	0.7442
974	0.7415
965	0.708
956	0.7325
947	0.7906
938	0.8057
929	0.8101
920	0.8094
911	0.809
902	0.8165
893	0.8174
884	0.8206
875	0.8195
866	0.8183
857	0.8192
848	0.8126
839	0.8045
830	0.7833
821	0.8119
812	0.7888
803	0.8011
794	0.8266
785	0.8342
776	0.818
767	0.784
758	0.746
749	0.7837
740	0.8034
731	0.8125
722	0.8035
713	0.8313
704	0.8391
695	0.847
686	0.8503
677	0.8514
668	0.8506
659	0.8505
650	0.8547
641	0.847
632	0.8517
623	0.8477
614	0.8471
605	0.8496
596	0.8515
587	0.8525
578	0.8537
569	0.8546
560	0.8565
551	0.8587
542	0.8609
533	0.8621
524	0.8586
515	0.8588
506	0.8593
497	0.8593
488	0.8585
479	0.8571
470	0.8554
