Infrared Spectrum: Urea, 1-(2'-tert-butylphenyl)-3,3-dimethyl-
Formula: C13 H20 N2 O
State: SOLID (NUJOL MULL)
Class: COBLENTZ III
Instrument: BECKMAN IR-4 (HYBRID PRISM-GRATING)
Instrument parameters: NaCl PRISM
Sampling: TRANSMISSION
Resolution: 2
Origin: MONSANTO (J. FREEMAN)
1/CM	TRANSMITTANCE
627	0.6785
636	0.7298
645	0.7365
654	0.6891
663	0.6123
672	0.6589
681	0.6979
690	0.7334
699	0.7685
708	0.5743
717	0.6481
726	0.7107
735	0.7304
744	0.2954
753	0.1789
762	0.6592
771	0.852
780	0.8974
789	0.8913
798	0.9192
807	0.9231
816	0.8759
825	0.8888
834	0.8335
843	0.8802
852	0.8985
861	0.9208
870	0.9148
879	0.9296
888	0.9253
897	0.9175
906	0.8406
915	0.8351
924	0.8604
933	0.8607
942	0.842
951	0.8502
960	0.8861
969	0.8731
978	0.8842
987	0.8925
996	0.8897
1005	0.8836
1014	0.8353
1023	0.8589
1032	0.872
1041	0.7611
1050	0.5333
1059	0.7681
1068	0.8055
1077	0.7658
1086	0.4974
1095	0.7582
1104	0.7874
1113	0.7818
1122	0.7662
1131	0.7242
1140	0.7793
1149	0.7743
1158	0.7433
1167	0.7339
1176	0.7553
1185	0.7361
1194	0.6513
1203	0.5201
1212	0.5542
1221	0.4034
1230	0.1309
1239	0.1739
1248	0.3532
1257	0.276
1266	0.4624
1275	0.5119
1284	0.4419
1293	0.3045
1302	0.6458
1311	0.6638
1320	0.6058
1329	0.7407
1338	0.7459
1347	0.7396
1356	0.6156
1365	0.4024
1374	0.4933
1383	0.4761
1392	0.6118
1401	0.702
1410	0.7168
1419	0.7194
1428	0.6108
1437	0.3681
1446	0.2165
1455	0.2243
1464	0.1885
1473	0.1981
1482	0.1788
1491	0.1646
1500	0.406
1509	0.4104
1518	0.2647
1527	0.1725
1536	0.0883
1545	0.0587
1554	0.0614
1563	0.107
1572	0.4331
1581	0.4784
1590	0.5384
1599	0.3825
1608	0.4477
1617	0.5763
1626	0.5064
1635	0.3657
1644	0.0733
1653	0.0403
1662	0.2004
1671	0.5472
1680	0.6692
1689	0.7058
1698	0.7468
1707	0.8544
1716	0.8935
1725	0.9044
1734	0.9106
1743	0.9119
1752	0.9116
1761	0.9113
1770	0.9108
1779	0.9103
1788	0.9097
1797	0.9101
1806	0.9117
1815	0.9133
1824	0.9155
1833	0.9176
1842	0.9188
1851	0.9208
1860	0.9203
1869	0.9178
1878	0.914
1887	0.91
1896	0.9065
1905	0.9032
1914	0.9023
1923	0.9056
1932	0.9078
1941	0.9052
1950	0.9068
1959	0.9141
1968	0.9214
1977	0.921
1986	0.9207
1995	0.9203
2004	0.9194
2013	0.9183
2022	0.9168
2031	0.9158
2040	0.9149
2049	0.9151
2058	0.9164
2067	0.9169
2076	0.9158
2085	0.9143
2094	0.9121
2103	0.91
2112	0.9078
2121	0.9057
2130	0.9037
2139	0.9023
2148	0.902
2157	0.9018
2166	0.9014
2175	0.9011
2184	0.9007
2193	0.9004
2202	0.9001
2211	0.8994
2220	0.8984
2229	0.8974
2238	0.8964
2247	0.894
2256	0.8916
2265	0.8888
2274	0.8858
2283	0.8852
2292	0.8861
2301	0.8873
2310	0.8888
2319	0.8903
2328	0.8917
2337	0.893
2346	0.8943
2355	0.895
2364	0.8918
2373	0.8851
2382	0.8816
2391	0.8788
2400	0.8782
2409	0.8779
2418	0.878
2427	0.878
2436	0.8772
2445	0.8763
2454	0.8749
2463	0.8723
2472	0.8696
2481	0.8669
2490	0.864
2499	0.8607
2508	0.8569
2517	0.8531
2526	0.8492
2535	0.8453
2544	0.8414
2553	0.8373
2562	0.8331
2571	0.8292
2580	0.827
2589	0.825
2598	0.8231
2607	0.8214
2616	0.8196
2625	0.8173
2634	0.8148
2643	0.8105
2652	0.8062
2661	0.8015
2670	0.7968
2679	0.7922
2688	0.7871
2697	0.7819
2706	0.7764
2715	0.769
2724	0.7616
2733	0.7561
2742	0.7554
2751	0.7551
2760	0.7553
2769	0.7557
2778	0.7523
2787	0.7439
2796	0.7262
2805	0.6881
2814	0.6643
2823	0.6211
2832	0.5555
2841	0.4909
2850	0.4594
2859	0.3652
2868	0.2614
2877	0.1584
2886	0.0559
2895	0.0208
2904	0.0445
2913	0.0653
2922	0.0618
2931	0.0464
2940	0.0311
2949	0.0157
2958	0.0059
2967	0.0052
2976	0.0058
2985	0.0085
2994	0.0431
3003	0.1321
3012	0.2653
3021	0.3977
3030	0.5305
3039	0.5489
3048	0.5507
3057	0.5519
3066	0.5737
3075	0.6101
3084	0.6304
3093	0.6395
3102	0.6465
3111	0.651
3120	0.6539
3129	0.6531
3138	0.6485
3147	0.6351
3156	0.6239
3165	0.6114
3174	0.6001
3183	0.5857
3192	0.5739
3201	0.5615
3210	0.5444
3219	0.5161
3228	0.4889
3237	0.4534
3246	0.4191
3255	0.385
3264	0.3512
3273	0.3175
3282	0.2839
3291	0.2546
3300	0.2549
3309	0.2806
3318	0.3107
3327	0.3214
3336	0.3104
3345	0.2891
3354	0.488
3363	0.5053
3372	0.5499
3381	0.6038
3390	0.6315
3399	0.654
3408	0.6681
3417	0.6789
3426	0.6946
3435	0.7109
3444	0.7175
3453	0.7218
3462	0.7251
3471	0.7271
3480	0.7288
3489	0.7301
3498	0.7309
3507	0.7316
3516	0.7323
3525	0.7329
3534	0.7334
3543	0.734
3552	0.7345
3561	0.7345
3570	0.7347
3579	0.7348
3588	0.735
3597	0.735
3606	0.7352
3615	0.7353
3624	0.7355
3633	0.7356
3642	0.7357
3651	0.7359
3660	0.7359
3669	0.7361
3678	0.7363
3687	0.7364
3696	0.7367
3705	0.7369
3714	0.7371
3723	0.737
3732	0.7361
3741	0.7349
3750	0.7332
3759	0.7314
3768	0.7297
3777	0.7279
3786	0.7262
3795	0.7262
3804	0.7265
3813	0.7268
3822	0.7272
3831	0.7281
3840	0.7277
3849	0.7258
3858	0.7238
3867	0.7217
3876	0.7196
3885	0.7174
3894	0.7151
3903	0.7127
3912	0.7106
3921	0.7087
3930	0.7066
3939	0.7047
3948	0.7029
3957	0.7012
3966	0.6996
3975	0.698
3984	0.6964
3993	0.6947
