Infrared Spectrum: PHENTOLAMINE, METHANE SULFONATE
Formula: C18 H23 N3 O4 S
State: SOLID (1 mg / 200 mg KBr DISC)
Melting point: 177-181 C
Class: COBLENTZ III
Instrument: PERKIN-ELMER 21 (GRATING)
Instrument parameters: FILTER AT ABOUT 10 MICRONS
Sampling: TRANSMISSION
Resolution: 2
1/CM	TRANSMITTANCE
4000	0.8789
3991	0.8804
3982	0.882
3973	0.884
3964	0.8862
3955	0.8874
3946	0.8877
3937	0.8882
3928	0.8882
3919	0.8882
3910	0.8883
3901	0.8887
3892	0.8893
3883	0.8897
3874	0.8902
3865	0.8912
3856	0.8925
3847	0.8938
3838	0.8952
3829	0.8965
3820	0.898
3811	0.8998
3802	0.9018
3793	0.9037
3784	0.9056
3775	0.9075
3766	0.9094
3757	0.9111
3748	0.9128
3739	0.9143
3730	0.9152
3721	0.9162
3712	0.917
3703	0.9175
3694	0.918
3685	0.9182
3676	0.9186
3667	0.9188
3658	0.9193
3649	0.9198
3640	0.92
3631	0.92
3622	0.9198
3613	0.9195
3604	0.9171
3595	0.9121
3586	0.9078
3577	0.9048
3568	0.9023
3559	0.8995
3550	0.8949
3541	0.8901
3532	0.8839
3523	0.8768
3514	0.8703
3505	0.864
3496	0.8575
3487	0.849
3478	0.8396
3469	0.8247
3460	0.8051
3451	0.7868
3442	0.7687
3433	0.7376
3424	0.7105
3415	0.6853
3406	0.6348
3397	0.6048
3388	0.5747
3379	0.5444
3370	0.5191
3361	0.4907
3352	0.4576
3343	0.4375
3334	0.4212
3325	0.4064
3316	0.3829
3307	0.3539
3298	0.3293
3289	0.3181
3280	0.3072
3271	0.2953
3262	0.2803
3253	0.2676
3244	0.2612
3235	0.256
3226	0.2521
3217	0.249
3208	0.2465
3199	0.2444
3190	0.2429
3181	0.2425
3172	0.2448
3163	0.2481
3154	0.2534
3145	0.2613
3136	0.2716
3127	0.2844
3118	0.3006
3109	0.3194
3100	0.34
3091	0.3568
3082	0.3716
3073	0.3856
3064	0.4012
3055	0.4153
3046	0.431
3037	0.4458
3028	0.457
3019	0.4605
3010	0.4614
3001	0.4658
2992	0.4843
2983	0.4977
2974	0.511
2965	0.5242
2956	0.536
2947	0.5478
2938	0.5578
2929	0.574
2920	0.5919
2911	0.605
2902	0.6166
2893	0.6258
2884	0.6359
2875	0.6581
2866	0.6801
2857	0.6876
2848	0.6906
2839	0.6936
2830	0.6978
2821	0.7045
2812	0.7149
2803	0.7268
2794	0.7365
2785	0.7431
2776	0.7475
2767	0.7515
2758	0.7539
2749	0.756
2740	0.7578
2731	0.7596
2722	0.7621
2713	0.7651
2704	0.7681
2695	0.7708
2686	0.7734
2677	0.776
2668	0.779
2659	0.7828
2650	0.7908
2641	0.7958
2632	0.7945
2623	0.7897
2614	0.7888
2605	0.7951
2596	0.8036
2587	0.8119
2578	0.8205
2569	0.8304
2560	0.8375
2551	0.8403
2542	0.8446
2533	0.8518
2524	0.8571
2515	0.8604
2506	0.8618
2497	0.8616
2488	0.8609
2479	0.8657
2470	0.8727
2461	0.8777
2452	0.8794
2443	0.8815
2434	0.8889
2425	0.8978
2416	0.9015
2407	0.9035
2398	0.904
2389	0.9044
2380	0.9046
2371	0.9046
2362	0.9045
2353	0.9045
2344	0.9045
2335	0.9054
2326	0.9111
2317	0.9112
2308	0.912
2299	0.9133
2290	0.9206
2281	0.9256
2272	0.9298
2263	0.9334
2254	0.9362
2245	0.9427
2236	0.9492
2227	0.9503
2218	0.9511
2209	0.9513
2200	0.95
2191	0.9457
2182	0.9487
2173	0.958
2164	0.9678
2155	0.9714
2146	0.9725
2137	0.9723
2128	0.9718
2119	0.9714
2110	0.9709
2101	0.97
2092	0.9692
2083	0.9688
2074	0.9688
2065	0.9694
2056	0.9717
2047	0.9749
2038	0.978
2029	0.9778
2020	0.9755
2011	0.9773
2002	0.9784
1993	0.9801
1984	0.9818
1975	0.9831
1966	0.985
1957	0.9782
1948	0.9714
1939	0.9728
1930	0.9684
1921	0.9482
1912	0.9563
1903	0.9734
1894	0.9855
1885	0.9895
1876	0.9903
1867	0.9912
1858	0.994
1849	0.9953
1840	0.9953
1831	0.9947
1822	0.9864
1813	0.981
1804	0.9805
1795	0.9835
1786	0.9868
1777	0.9882
1768	0.9881
1759	0.985
1750	0.9791
1741	0.977
1732	0.9765
1723	0.9706
1714	0.9595
1705	0.9427
1696	0.9353
1687	0.9118
1678	0.8855
1669	0.8574
1660	0.8017
1651	0.7351
1642	0.6049
1633	0.33
1624	0.1636
1615	0.1455
1606	0.0997
1597	0.1776
1588	0.3857
1579	0.5062
1570	0.6768
1561	0.7264
1552	0.7854
1543	0.7875
1534	0.7448
1525	0.4515
1516	0.2093
1507	0.3743
1498	0.5216
1489	0.617
1480	0.6568
1471	0.5528
1462	0.5012
1453	0.6356
1444	0.7425
1435	0.7311
1426	0.5236
1417	0.5377
1408	0.6081
1399	0.5677
1390	0.5347
1381	0.521
1372	0.5529
1363	0.6152
1354	0.5905
1345	0.5854
1336	0.5875
1327	0.456
1318	0.4791
1309	0.4793
1300	0.372
1291	0.3424
1282	0.5279
1273	0.5914
1264	0.5209
1255	0.2533
1246	0.2071
1237	0.1635
1228	0.1552
1219	0.1066
1210	0.0513
1201	0.1319
1192	0.1591
1183	0.2127
1174	0.2301
1165	0.1315
1156	0.0694
1147	0.0958
1138	0.2585
1129	0.403
1120	0.531
1111	0.5255
1102	0.5756
1093	0.6811
1084	0.7425
1075	0.7641
1066	0.7922
1057	0.6306
1048	0.3031
1039	0.1031
1030	0.4334
1021	0.6077
1012	0.6565
1003	0.6441
994	0.4908
985	0.6915
976	0.7597
967	0.8051
958	0.8158
949	0.7594
940	0.3847
931	0.6483
922	0.7765
913	0.8349
904	0.8532
895	0.8664
886	0.8731
877	0.867
868	0.8596
859	0.8248
850	0.7107
841	0.496
832	0.5746
823	0.5296
814	0.7231
805	0.7482
796	0.7158
787	0.6078
778	0.4894
769	0.2412
760	0.3259
751	0.408
742	0.4485
733	0.4458
724	0.5168
715	0.5816
706	0.6315
697	0.5843
688	0.5946
679	0.6841
670	0.7407
661	0.7758
