Infrared Spectrum: POTASSIUM HEXAFLUOTITANATE
Formula: K2 Ti F6
State: SOLID (MINERAL OIL MULL)
Class: COBLENTZ
Instrument: Not specified, most likely a prism, grating, or hybrid spectrometer.
Sampling: TRANSMISSION
Resolution: 4
Origin: WYANDOTTE CHEMICALS CORP., WYANDOTTE, MICHIGAN, USA
MICROMETERS	TRANSMITTANCE
2.02	0.931
2.0609	0.941
2.10179	0.943
2.14269	0.947
2.18359	0.953
2.22449	0.938
2.26538	0.914
2.30628	0.902
2.34718	0.901
2.38807	0.902
2.42897	0.901
2.46987	0.912
2.51077	0.926
2.55166	0.936
2.59256	0.943
2.63346	0.953
2.67436	0.962
2.71525	0.964
2.75615	0.962
2.79705	0.962
2.83794	0.96
2.87884	0.953
2.91974	0.941
2.96064	0.933
3.00153	0.926
3.04243	0.919
3.08333	0.914
3.12422	0.906
3.16512	0.897
3.20602	0.882
3.24692	0.873
3.28781	0.829
3.32871	0.658
3.36961	0.244
3.41051	0.1
3.4514	0.063
3.4923	0.052
3.5332	0.052
3.57409	0.187
3.61499	0.414
3.65589	0.54
3.69679	0.59
3.73768	0.627
3.77858	0.653
3.81948	0.68
3.86037	0.708
3.90127	0.735
3.94217	0.761
3.98307	0.788
4.02396	0.81
4.06486	0.824
4.10576	0.832
4.14666	0.843
4.18755	0.848
4.22845	0.854
4.26935	0.849
4.31024	0.853
4.35114	0.861
4.39204	0.875
4.43294	0.878
4.47383	0.875
4.51473	0.875
4.55563	0.875
4.59652	0.873
4.63742	0.87
4.67832	0.866
4.71922	0.863
4.76011	0.853
4.80101	0.843
4.84191	0.846
4.88281	0.863
4.9237	0.883
4.9646	0.899
5.0055	0.904
5.04639	0.906
5.08729	0.909
5.12819	0.911
5.16909	0.916
5.20998	0.914
5.25088	0.911
5.29178	0.909
5.33267	0.909
5.37357	0.909
5.41447	0.906
5.45537	0.902
5.49626	0.897
5.53716	0.894
5.57806	0.89
5.61896	0.882
5.65985	0.872
5.70075	0.854
5.74165	0.822
5.78254	0.798
5.82344	0.769
5.86434	0.742
5.90524	0.723
5.94613	0.682
5.98703	0.655
6.02793	0.622
6.06882	0.604
6.10972	0.58
6.15062	0.552
6.19152	0.546
6.23241	0.546
6.27331	0.569
6.31421	0.604
6.35511	0.641
6.396	0.668
6.4369	0.684
6.4778	0.694
6.51869	0.703
6.55959	0.704
6.60049	0.696
6.64139	0.679
6.68228	0.648
6.72318	0.587
6.76408	0.424
6.80497	0.145
6.84587	0.088
6.88677	0.1
6.92767	0.196
6.96856	0.346
7.00946	0.51
7.05036	0.6
7.09126	0.636
7.13215	0.651
7.17305	0.641
7.21395	0.484
7.25484	0.238
7.29574	0.23
7.33664	0.331
7.37754	0.448
7.41843	0.484
7.45933	0.5
7.50023	0.525
7.54112	0.556
7.58202	0.571
7.62292	0.564
7.66382	0.556
7.70471	0.554
7.74561	0.561
7.78651	0.569
7.8274	0.569
7.8683	0.571
7.9092	0.573
7.9501	0.576
7.99099	0.58
8.03189	0.581
8.07279	0.578
8.11369	0.569
8.15458	0.558
8.19548	0.547
8.23638	0.523
8.27727	0.508
8.31817	0.511
8.35907	0.518
8.39997	0.518
8.44086	0.508
8.48176	0.488
8.52266	0.459
8.56355	0.436
8.60445	0.452
8.64535	0.469
8.68625	0.469
8.72714	0.467
8.76804	0.465
8.80894	0.465
8.84984	0.464
8.89073	0.457
8.93163	0.45
8.97253	0.438
9.01342	0.435
9.05432	0.435
9.09522	0.435
9.13612	0.433
9.17701	0.43
9.21791	0.421
9.25881	0.407
9.2997	0.399
9.3406	0.397
9.3815	0.385
9.4224	0.377
9.46329	0.366
9.50419	0.348
9.54509	0.334
9.58599	0.327
9.62688	0.313
9.66778	0.307
9.70868	0.298
9.74957	0.3
9.79047	0.302
9.83137	0.307
9.87227	0.336
9.91316	0.351
9.95406	0.383
9.99496	0.412
10.0359	0.438
10.0768	0.45
10.1176	0.47
10.1585	0.484
10.1994	0.491
10.2403	0.494
10.2812	0.494
10.3221	0.493
10.363	0.494
10.4039	0.498
10.4448	0.501
10.4857	0.501
10.5266	0.501
10.5675	0.501
10.6084	0.5
10.6493	0.496
10.6902	0.491
10.7311	0.488
10.772	0.482
10.8129	0.482
10.8538	0.481
10.8947	0.481
10.9356	0.481
10.9765	0.477
11.0174	0.474
11.0583	0.47
11.0992	0.47
11.1401	0.477
11.181	0.481
11.2219	0.479
11.2628	0.47
11.3037	0.47
11.3446	0.47
11.3855	0.472
11.4264	0.476
11.4673	0.472
11.5082	0.465
11.5491	0.462
11.5899	0.46
11.6308	0.46
11.6717	0.457
11.7126	0.45
11.7535	0.447
11.7944	0.441
11.8353	0.435
11.8762	0.43
11.9171	0.43
11.958	0.43
11.9989	0.433
12.0398	0.431
12.0807	0.43
12.1216	0.426
12.1625	0.423
12.2034	0.421
12.2443	0.416
12.2852	0.418
12.3261	0.418
12.367	0.414
12.4079	0.411
12.4488	0.406
12.4897	0.401
12.5306	0.394
12.5715	0.38
12.6124	0.378
12.6533	0.37
12.6942	0.365
12.7351	0.358
12.776	0.344
12.8169	0.332
12.8578	0.325
12.8987	0.32
12.9396	0.315
12.9805	0.307
13.0214	0.302
13.0622	0.293
13.1031	0.288
13.144	0.284
13.1849	0.279
13.2258	0.273
13.2667	0.266
13.3076	0.259
13.3485	0.247
13.3894	0.24
13.4303	0.232
13.4712	0.226
13.5121	0.221
13.553	0.211
13.5939	0.204
13.6348	0.197
13.6757	0.194
13.7166	0.191
13.7575	0.189
13.7984	0.184
13.8393	0.177
13.8802	0.172
13.9211	0.172
13.962	0.17
14.0029	0.168
14.0438	0.168
14.0847	0.168
14.1256	0.167
14.1665	0.168
14.2074	0.17
14.2483	0.167
14.2892	0.165
14.3301	0.165
14.371	0.162
14.4119	0.165
14.4528	0.163
14.4937	0.16
14.5345	0.16
14.5754	0.16
14.6163	0.156
14.6572	0.155
14.6981	0.156
14.739	0.162
14.7799	0.165
14.8208	0.167
14.8617	0.167
14.9026	0.17
14.9435	0.168
14.9844	0.168
15.0253	0.184
15.0662	0.215
15.1071	0.237
15.148	0.233
15.1889	0.223
15.2298	0.218
15.2707	0.221
15.3116	0.23
15.3525	0.249
15.3934	0.262
15.4343	0.264
15.4752	0.273
15.5161	0.295
15.557	0.315
15.5979	0.329
15.6388	0.337
15.6797	0.349
15.7206	0.36
15.7615	0.372
15.8024	0.378
15.8433	0.39
15.8842	0.402
15.9251	0.43
15.966	0.452
