Infrared Spectrum: Ethanol, 2-[2-(9H-purin-6-ylamino)ethylthio]-
Formula: C9 H13 N5 O S
State: SOLID (0.8 mg / 650 mg KBr DISC)
Class: COBLENTZ III
Instrument: PERKIN-ELMER 21 (GRATING)
Instrument parameters: FILTER CHANGE ABOUT 1025 CM^-^1
Sampling: TRANSMISSION
Resolution: 2
Origin: SOUTHERN RESEARCH INSTITUTE
1/CM	TRANSMITTANCE
599.824	0.7432
608.849	0.7413
617.875	0.7338
626.9	0.7182
635.925	0.7052
644.951	0.6996
653.976	0.7018
663.002	0.6856
672.027	0.6494
681.052	0.6493
690.078	0.7243
699.103	0.7085
708.128	0.6841
717.154	0.6611
726.179	0.6309
735.205	0.61
744.23	0.578
753.255	0.5954
762.281	0.6546
771.306	0.6884
780.331	0.6908
789.357	0.645
798.382	0.6247
807.408	0.6218
816.433	0.6163
825.458	0.6147
834.484	0.6121
843.509	0.5772
852.534	0.6544
861.56	0.6789
870.585	0.6618
879.611	0.6378
888.636	0.6109
897.661	0.5747
906.687	0.5823
915.712	0.6393
924.737	0.5036
933.763	0.5167
942.788	0.6598
951.814	0.7405
960.839	0.761
969.864	0.7518
978.89	0.7182
987.915	0.6817
996.94	0.6738
1005.97	0.6587
1014.99	0.6521
1024.02	0.6279
1033.04	0.5826
1042.07	0.4354
1051.09	0.4379
1060.12	0.6148
1069.14	0.6351
1078.17	0.7278
1087.19	0.738
1096.22	0.7318
1105.24	0.703
1114.27	0.6671
1123.3	0.6271
1132.32	0.5599
1141.35	0.3995
1150.37	0.413
1159.4	0.4738
1168.42	0.5384
1177.45	0.6875
1186.47	0.7029
1195.5	0.6937
1204.52	0.6738
1213.55	0.6293
1222.57	0.5422
1231.6	0.4926
1240.63	0.4417
1249.65	0.3221
1258.68	0.4076
1267.7	0.6954
1276.73	0.6417
1285.75	0.5766
1294.78	0.5203
1303.8	0.5099
1312.83	0.4961
1321.85	0.3707
1330.88	0.3904
1339.9	0.3114
1348.93	0.3497
1357.96	0.5057
1366.98	0.559
1376.01	0.5788
1385.03	0.5078
1394.06	0.4584
1403.08	0.4618
1412.11	0.4504
1421.13	0.4239
1430.16	0.384
1439.18	0.3461
1448.21	0.3688
1457.23	0.369
1466.26	0.4075
1475.29	0.3941
1484.31	0.4239
1493.34	0.6029
1502.36	0.6213
1511.39	0.6295
1520.41	0.617
1529.44	0.589
1538.46	0.5331
1547.49	0.5178
1556.51	0.3683
1565.54	0.3094
1574.56	0.3872
1583.59	0.4058
1592.62	0.3403
1601.64	0.2537
1610.67	0.167
1619.69	0.0803
1628.72	0.0809
1637.74	0.1435
1646.77	0.2531
1655.79	0.3686
1664.82	0.4842
1673.84	0.5845
1682.87	0.6995
1691.89	0.7543
1700.92	0.7832
1709.95	0.804
1718.97	0.8085
1728	0.8093
1737.02	0.8099
1746.05	0.8108
1755.07	0.8112
1764.1	0.8123
1773.12	0.8153
1782.15	0.8178
1791.17	0.8193
1800.2	0.82
1809.22	0.8199
1818.25	0.8187
1827.27	0.816
1836.3	0.8144
1845.33	0.814
1854.35	0.8158
1863.38	0.8195
1872.4	0.8167
1881.43	0.8118
1890.45	0.8113
1899.48	0.8122
1908.5	0.8142
1917.53	0.816
1926.55	0.817
1935.58	0.817
1944.6	0.8163
1953.63	0.8152
1962.66	0.8138
1971.68	0.8086
1980.71	0.8038
1989.73	0.8001
1998.76	0.7969
2007.78	0.7936
2016.81	0.7904
2025.83	0.787
2034.86	0.7834
2043.88	0.7797
2052.91	0.776
2061.93	0.7733
2070.96	0.7711
2079.99	0.7695
2089.01	0.768
2098.04	0.7682
2107.06	0.7662
2116.09	0.7636
2125.11	0.76
2134.14	0.756
2143.16	0.7522
2152.19	0.7485
2161.21	0.7441
2170.24	0.7385
2179.26	0.733
2188.29	0.7278
2197.32	0.7228
2206.34	0.7177
2215.37	0.7131
2224.39	0.7084
2233.42	0.7026
2242.44	0.6962
2251.47	0.6899
2260.49	0.6818
2269.52	0.6724
2278.54	0.6613
2287.57	0.6529
2296.59	0.6432
2305.62	0.6321
2314.65	0.6249
2323.67	0.6206
2332.7	0.6184
2341.72	0.617
2350.75	0.6158
2359.77	0.6153
2368.8	0.6142
2377.82	0.6058
2386.85	0.5939
2395.87	0.5779
2404.9	0.5634
2413.92	0.5511
2422.95	0.5451
2431.98	0.5393
2441	0.5354
2450.03	0.5317
2459.05	0.5286
2468.08	0.5216
2477.1	0.5136
2486.13	0.5054
2495.15	0.497
2504.18	0.4873
2513.2	0.4761
2522.23	0.4632
2531.25	0.4482
2540.28	0.4319
2549.3	0.4239
2558.33	0.4174
2567.36	0.4109
2576.38	0.4082
2585.41	0.4067
2594.43	0.4056
2603.46	0.4047
2612.48	0.4042
2621.51	0.4039
2630.53	0.4035
2639.56	0.4032
2648.58	0.4018
2657.61	0.3981
2666.63	0.3914
2675.66	0.3859
2684.69	0.3857
2693.71	0.3872
2702.74	0.3857
2711.76	0.3764
2720.79	0.3672
2729.81	0.3579
2738.84	0.3463
2747.86	0.3346
2756.89	0.3231
2765.91	0.3123
2774.94	0.3039
2783.96	0.301
2792.99	0.3001
2802.02	0.2992
2811.04	0.2985
2820.07	0.2983
2829.09	0.2983
2838.12	0.299
2847.14	0.2997
2856.17	0.3002
2865.19	0.3005
2874.22	0.2994
2883.24	0.293
2892.27	0.2829
2901.29	0.2738
2910.32	0.2683
2919.35	0.2656
2928.37	0.2649
2937.4	0.2664
2946.42	0.2691
2955.45	0.2732
2964.47	0.2746
2973.5	0.2749
2982.52	0.2757
2991.55	0.2753
3000.57	0.2745
3009.6	0.275
3018.62	0.2816
3027.65	0.2933
3036.68	0.3053
3045.7	0.318
3054.73	0.3313
3063.75	0.344
3072.78	0.3578
3081.8	0.3667
3090.83	0.3706
3099.85	0.372
3108.88	0.3722
3117.9	0.372
3126.93	0.3725
3135.95	0.373
3144.98	0.3735
3154.01	0.3734
3163.03	0.374
3172.06	0.3775
3181.08	0.3815
3190.11	0.3861
3199.13	0.3902
3208.16	0.3931
3217.18	0.3953
3226.21	0.4008
3235.23	0.4063
3244.26	0.4118
3253.28	0.4178
3262.31	0.4239
3271.33	0.4301
3280.36	0.4388
3289.39	0.4488
3298.41	0.4611
3307.44	0.475
3316.46	0.4872
3325.49	0.4973
3334.51	0.5042
3343.54	0.5065
3352.56	0.507
3361.59	0.5075
3370.61	0.5072
3379.64	0.5077
3388.66	0.5078
3397.69	0.5081
3406.72	0.5083
3415.74	0.5088
3424.77	0.5102
3433.79	0.5176
3442.82	0.5294
3451.84	0.5434
3460.87	0.5592
3469.89	0.5753
3478.92	0.5944
3487.94	0.6031
3496.97	0.6134
3505.99	0.6214
3515.02	0.6289
3524.05	0.6373
3533.07	0.6466
3542.1	0.6568
3551.12	0.6675
3560.15	0.6816
3569.17	0.6951
3578.2	0.6993
3587.22	0.7058
3596.25	0.7155
3605.27	0.7279
3614.3	0.7375
3623.32	0.7421
3632.35	0.7455
3641.38	0.7482
3650.4	0.7502
3659.43	0.7515
3668.45	0.7526
3677.48	0.7532
3686.5	0.7536
3695.53	0.7534
3704.55	0.7531
3713.58	0.7529
3722.6	0.7529
3731.63	0.7528
3740.65	0.753
3749.68	0.7531
3758.71	0.7528
3767.73	0.752
3776.76	0.7513
3785.78	0.7503
3794.81	0.7493
3803.83	0.7482
3812.86	0.7463
3821.88	0.7444
3830.91	0.7414
3839.93	0.7376
3848.96	0.733
3857.98	0.7275
3867.01	0.7244
3876.04	0.7223
3885.06	0.7207
3894.09	0.7195
3903.11	0.7197
3912.14	0.72
3921.16	0.7197
3930.19	0.7194
3939.21	0.7186
3948.24	0.7176
3957.26	0.716
3966.29	0.714
3975.31	0.7106
3984.34	0.7078
3993.36	0.7031
4002.39	0.6961
