Infrared Spectrum: HISTAMINE DIHYDROCHLORIDE
Formula: C5 H11 Cl2 N3
State: SOLID (1 mg / 200 mg KCl DISC) VS KCl
Melting point: 244-246 C
Class: COBLENTZ III
Instrument: PERKIN-ELMER 21 (GRATING)
Instrument parameters: FILTER AT ABOUT 10 MICRONS
Sampling: TRANSMISSION
Path length: 0.055 CM (THICKNESS)
Resolution: 2
1/CM	TRANSMITTANCE
4000	0.669
3991	0.671
3982	0.6731
3973	0.6751
3964	0.6774
3955	0.6795
3946	0.6812
3937	0.6832
3928	0.685
3919	0.6868
3910	0.6887
3901	0.6906
3892	0.6925
3883	0.6943
3874	0.6962
3865	0.6982
3856	0.7001
3847	0.7024
3838	0.7044
3829	0.7065
3820	0.7086
3811	0.7107
3802	0.7128
3793	0.715
3784	0.7171
3775	0.7194
3766	0.7225
3757	0.7258
3748	0.7292
3739	0.7325
3730	0.7358
3721	0.7394
3712	0.7433
3703	0.7472
3694	0.7512
3685	0.7551
3676	0.7588
3667	0.7625
3658	0.7658
3649	0.7686
3640	0.7715
3631	0.7746
3622	0.7764
3613	0.7765
3604	0.7765
3595	0.7758
3586	0.775
3577	0.7732
3568	0.7708
3559	0.7665
3550	0.7619
3541	0.7556
3532	0.7449
3523	0.7351
3514	0.7284
3505	0.7217
3496	0.7151
3487	0.7072
3478	0.6986
3469	0.69
3460	0.6833
3451	0.6768
3442	0.6703
3433	0.6628
3424	0.6555
3415	0.6496
3406	0.6449
3397	0.6412
3388	0.6386
3379	0.6376
3370	0.6366
3361	0.6357
3352	0.6347
3343	0.6335
3334	0.6322
3325	0.6303
3316	0.626
3307	0.6218
3298	0.611
3289	0.5988
3280	0.5787
3271	0.5592
3262	0.5356
3253	0.5038
3244	0.4808
3235	0.4519
3226	0.4229
3217	0.3936
3208	0.3643
3199	0.3347
3190	0.305
3181	0.2751
3172	0.2451
3163	0.2148
3154	0.1899
3145	0.1825
3136	0.1782
3127	0.1678
3118	0.1341
3109	0.1006
3100	0.0687
3091	0.0592
3082	0.055
3073	0.0534
3064	0.0528
3055	0.0568
3046	0.0635
3037	0.0696
3028	0.0729
3019	0.0734
3010	0.0702
3001	0.0662
2992	0.0622
2983	0.0586
2974	0.0553
2965	0.0521
2956	0.0503
2947	0.0498
2938	0.0496
2929	0.0513
2920	0.054
2911	0.0569
2902	0.059
2893	0.0588
2884	0.0572
2875	0.0556
2866	0.054
2857	0.0528
2848	0.0516
2839	0.0515
2830	0.0519
2821	0.0535
2812	0.0555
2803	0.0592
2794	0.063
2785	0.0671
2776	0.0731
2767	0.081
2758	0.091
2749	0.0989
2740	0.1074
2731	0.1179
2722	0.1378
2713	0.1539
2704	0.1644
2695	0.1753
2686	0.186
2677	0.1956
2668	0.2036
2659	0.2053
2650	0.207
2641	0.2092
2632	0.2232
2623	0.2392
2614	0.2434
2605	0.2482
2596	0.255
2587	0.2633
2578	0.2846
2569	0.3096
2560	0.3382
2551	0.3564
2542	0.3591
2533	0.3746
2524	0.3979
2515	0.4165
2506	0.4204
2497	0.4287
2488	0.4377
2479	0.4343
2470	0.3782
2461	0.361
2452	0.3988
2443	0.4378
2434	0.4694
2425	0.4918
2416	0.5074
2407	0.5227
2398	0.5374
2389	0.5492
2380	0.5562
2371	0.5602
2362	0.5606
2353	0.5626
2344	0.565
2335	0.5706
2326	0.5775
2317	0.5855
2308	0.5931
2299	0.6005
2290	0.6078
2281	0.6178
2272	0.6281
2263	0.6359
2254	0.6436
2245	0.6506
2236	0.6576
2227	0.6642
2218	0.6703
2209	0.6765
2200	0.6819
2191	0.6871
2182	0.6922
2173	0.6965
2164	0.7008
2155	0.7053
2146	0.7098
2137	0.7143
2128	0.7183
2119	0.7158
2110	0.7155
2101	0.7206
2092	0.7255
2083	0.7278
2074	0.7297
2065	0.7317
2056	0.7345
2047	0.7375
2038	0.7408
2029	0.7443
2020	0.7461
2011	0.7472
2002	0.7484
1993	0.7492
1984	0.7481
1975	0.7474
1966	0.7484
1957	0.7498
1948	0.7515
1939	0.7522
1930	0.7517
1921	0.7474
1912	0.7415
1903	0.7381
1894	0.7368
1885	0.7386
1876	0.7403
1867	0.7433
1858	0.7464
1849	0.7491
1840	0.7518
1831	0.7541
1822	0.7546
1813	0.7547
1804	0.754
1795	0.7534
1786	0.749
1777	0.7344
1768	0.7189
1759	0.7118
1750	0.7128
1741	0.7178
1732	0.7161
1723	0.7085
1714	0.6995
1705	0.69
1696	0.6811
1687	0.6653
1678	0.6246
1669	0.6042
1660	0.6012
1651	0.5974
1642	0.5855
1633	0.3816
1624	0.3795
1615	0.4527
1606	0.4209
1597	0.4124
1588	0.467
1579	0.5216
1570	0.5432
1561	0.5407
1552	0.5332
1543	0.5449
1534	0.2401
1525	0.337
1516	0.5814
1507	0.6593
1498	0.6938
1489	0.6387
1480	0.3216
1471	0.4162
1462	0.5979
1453	0.4267
1444	0.3758
1435	0.3945
1426	0.5841
1417	0.5946
1408	0.5759
1399	0.6379
1390	0.6851
1381	0.7257
1372	0.7517
1363	0.7622
1354	0.7362
1345	0.7006
1336	0.741
1327	0.7374
1318	0.7378
1309	0.7819
1300	0.7892
1291	0.7768
1282	0.7958
1273	0.7889
1264	0.7687
1255	0.7775
1246	0.7589
1237	0.4802
1228	0.7132
1219	0.7598
1210	0.7925
1201	0.8075
1192	0.8115
1183	0.7506
1174	0.7865
1165	0.751
1156	0.6888
1147	0.5322
1138	0.7111
1129	0.7682
1120	0.7776
1111	0.6273
1102	0.725
1093	0.4743
1084	0.6486
1075	0.7588
1066	0.7991
1057	0.8151
1048	0.8197
1039	0.7965
1030	0.605
1021	0.7699
1012	0.8299
1003	0.8458
994	0.8514
985	0.7555
976	0.8258
967	0.793
958	0.3906
949	0.6961
940	0.7728
931	0.7693
922	0.7536
913	0.6258
904	0.6047
895	0.7028
886	0.7868
877	0.7826
868	0.6451
859	0.2474
850	0.2702
841	0.5326
832	0.6182
823	0.448
814	0.4155
805	0.3827
796	0.5299
787	0.6411
778	0.6287
769	0.7217
760	0.7645
751	0.7896
742	0.8031
733	0.7365
724	0.7947
715	0.8254
706	0.8386
697	0.8446
688	0.8478
679	0.8497
670	0.848
661	0.8503
