Infrared Spectrum: SODIUM ACETATE
Formula: C2 H3 O2 Na
State: SOLID (KCl PELLET)
Class: COBLENTZ
Instrument: Not specified, most likely a prism, grating, or hybrid spectrometer.
Sampling: TRANSMISSION
Resolution: 4
Origin: BELL TELEPHONE LABORATORIES- F. VRATNY
MICROMETERS	TRANSMITTANCE
2.046	0.156
2.08582	0.158
2.12564	0.158
2.16545	0.16
2.20527	0.168
2.24509	0.17
2.28491	0.17
2.32473	0.172
2.36454	0.18
2.40436	0.185
2.44418	0.189
2.484	0.185
2.52382	0.189
2.56363	0.192
2.60345	0.198
2.64327	0.2
2.68309	0.201
2.7229	0.2
2.76272	0.193
2.80254	0.168
2.84236	0.132
2.88218	0.1
2.92199	0.058
2.96181	0.033
3.00163	0.036
3.04145	0.064
3.08127	0.074
3.12108	0.088
3.1609	0.109
3.20072	0.12
3.24054	0.144
3.28036	0.153
3.32017	0.15
3.35999	0.105
3.39981	0.121
3.43963	0.137
3.47945	0.201
3.51926	0.23
3.55908	0.242
3.5989	0.26
3.63872	0.278
3.67854	0.28
3.71835	0.285
3.75817	0.292
3.79799	0.3
3.83781	0.306
3.87763	0.309
3.91744	0.309
3.95726	0.313
3.99708	0.309
4.0369	0.301
4.07671	0.312
4.11653	0.316
4.15635	0.318
4.19617	0.322
4.23599	0.326
4.2758	0.332
4.31562	0.333
4.35544	0.33
4.39526	0.329
4.43508	0.33
4.47489	0.336
4.51471	0.342
4.55453	0.342
4.59435	0.341
4.63417	0.35
4.67398	0.352
4.7138	0.352
4.75362	0.353
4.79344	0.357
4.83326	0.358
4.87307	0.365
4.91289	0.368
4.95271	0.37
4.99253	0.372
5.03235	0.369
5.07216	0.37
5.11198	0.377
5.1518	0.374
5.19162	0.381
5.23144	0.384
5.27125	0.386
5.31107	0.384
5.35089	0.385
5.39071	0.385
5.43052	0.378
5.47034	0.381
5.51016	0.381
5.54998	0.381
5.5898	0.374
5.62961	0.37
5.66943	0.354
5.70925	0.348
5.74907	0.321
5.78889	0.309
5.8287	0.272
5.86852	0.254
5.90834	0.234
5.94816	0.202
5.98798	0.164
6.02779	0.15
6.06761	0.094
6.10743	0.05
6.14725	0.002
6.18707	0
6.22688	0
6.2667	0
6.30652	0
6.34634	0
6.38616	0
6.42597	0
6.46579	0.002
6.50561	0.006
6.54543	0.029
6.58524	0.053
6.62506	0.07
6.66488	0.085
6.7047	0.092
6.74452	0.092
6.78433	0.072
6.82415	0.037
6.86397	0
6.90379	0
6.94361	0.001
6.98342	0
7.02324	0
7.06306	0
7.10288	0.002
7.1427	0.016
7.18251	0.037
7.22233	0.086
7.26215	0.146
7.30197	0.178
7.34179	0.214
7.3816	0.232
7.42142	0.24
7.46124	0.256
7.50106	0.296
7.54088	0.321
7.58069	0.352
7.62051	0.357
7.66033	0.36
7.70015	0.37
7.73997	0.382
7.77978	0.412
7.8196	0.42
7.85942	0.421
7.89924	0.424
7.93905	0.424
7.97887	0.42
8.01869	0.422
8.05851	0.438
8.09833	0.444
8.13814	0.456
8.17796	0.458
8.21778	0.464
8.2576	0.466
8.29742	0.47
8.33723	0.473
8.37705	0.476
8.41687	0.477
8.45669	0.48
8.49651	0.48
8.53632	0.48
8.57614	0.48
8.61596	0.48
8.65578	0.48
8.6956	0.478
8.73541	0.482
8.77523	0.484
8.81505	0.482
8.85487	0.481
8.89469	0.476
8.9345	0.477
8.97432	0.477
9.01414	0.476
9.05396	0.476
9.09378	0.476
9.13359	0.476
9.17341	0.473
9.21323	0.466
9.25305	0.452
9.29286	0.44
9.33268	0.41
9.3725	0.348
9.41232	0.284
9.45214	0.194
9.49195	0.146
9.53177	0.138
9.57159	0.186
9.61141	0.257
9.65123	0.3
9.69104	0.312
9.73086	0.292
9.77068	0.234
9.8105	0.166
9.85032	0.12
9.89013	0.118
9.92995	0.173
9.96977	0.266
10.0096	0.336
10.0494	0.398
10.0892	0.429
10.129	0.449
10.1689	0.464
10.2087	0.48
10.2485	0.481
10.2883	0.5
10.3281	0.52
10.3679	0.529
10.4078	0.544
10.4476	0.55
10.4874	0.552
10.5272	0.55
10.567	0.56
10.6069	0.56
10.6467	0.55
10.6865	0.54
10.7263	0.437
10.7661	0.198
10.8059	0.156
10.8458	0.365
10.8856	0.465
10.9254	0.506
10.9652	0.545
11.005	0.557
11.0449	0.56
11.0847	0.562
11.1245	0.565
11.1643	0.568
11.2041	0.572
11.2439	0.574
11.2838	0.576
11.3236	0.574
11.3634	0.576
11.4032	0.576
11.443	0.576
11.4829	0.574
11.5227	0.573
11.5625	0.573
11.6023	0.572
11.6421	0.566
11.6819	0.56
11.7218	0.556
11.7616	0.552
11.8014	0.545
11.8412	0.538
11.881	0.536
11.9208	0.53
11.9607	0.53
12.0005	0.53
12.0403	0.528
12.0801	0.517
12.1199	0.504
12.1598	0.494
12.1996	0.485
12.2394	0.48
12.2792	0.478
12.319	0.478
12.3588	0.474
12.3987	0.473
12.4385	0.473
12.4783	0.473
12.5181	0.474
12.5579	0.474
12.5978	0.476
12.6376	0.478
12.6774	0.478
12.7172	0.478
12.757	0.482
12.7968	0.492
12.8367	0.489
12.8765	0.49
12.9163	0.494
12.9561	0.5
12.9959	0.494
13.0358	0.493
13.0756	0.5
13.1154	0.502
13.1552	0.504
13.195	0.509
13.2348	0.509
13.2747	0.521
13.3145	0.521
13.3543	0.521
13.3941	0.522
13.4339	0.525
13.4737	0.532
13.5136	0.533
13.5534	0.534
13.5932	0.536
13.633	0.54
13.6728	0.54
13.7127	0.54
13.7525	0.541
13.7923	0.548
13.8321	0.546
13.8719	0.544
13.9117	0.546
13.9516	0.55
13.9914	0.548
14.0312	0.546
14.071	0.54
14.1108	0.54
14.1507	0.542
14.1905	0.542
14.2303	0.544
14.2701	0.54
14.3099	0.538
14.3497	0.534
14.3896	0.536
14.4294	0.533
14.4692	0.534
14.509	0.534
14.5488	0.534
14.5887	0.53
14.6285	0.53
14.6683	0.521
14.7081	0.521
14.7479	0.517
14.7877	0.51
14.8276	0.504
14.8674	0.501
14.9072	0.496
14.947	0.458
14.9868	0.452
15.0266	0.446
15.0665	0.43
15.1063	0.402
15.1461	0.342
15.1859	0.265
15.2257	0.176
15.2656	0.138
15.3054	0.116
15.3452	0.113
15.385	0.128
15.4248	0.172
