Infrared Spectrum: SODIUM BISULFITE
Formula: Na H S O3
State: SOLID (COCONITRILE MULL)
Class: COBLENTZ
Instrument: PERKIN-ELMER
Sampling: TRANSMISSION
Resolution: 4
MICROMETERS	TRANSMITTANCE
2.018	0.806
2.05467	0.806
2.09135	0.812
2.12802	0.812
2.16469	0.814
2.20136	0.818
2.23804	0.821
2.27471	0.829
2.31138	0.831
2.34805	0.831
2.38473	0.837
2.4214	0.838
2.45807	0.844
2.49474	0.841
2.53142	0.843
2.56809	0.843
2.60476	0.844
2.64143	0.849
2.67811	0.849
2.71478	0.857
2.75145	0.85
2.78812	0.847
2.8248	0.841
2.86147	0.85
2.89814	0.841
2.93481	0.849
2.97149	0.849
3.00816	0.855
3.04483	0.86
3.0815	0.864
3.11818	0.869
3.15485	0.867
3.19152	0.869
3.22819	0.87
3.26487	0.872
3.30154	0.872
3.33821	0.877
3.37488	0.878
3.41156	0.74
3.44823	0.646
3.4849	0.829
3.52157	0.795
3.55825	0.884
3.59492	0.91
3.63159	0.91
3.66826	0.904
3.70494	0.904
3.74161	0.904
3.77828	0.901
3.81495	0.897
3.85163	0.9
3.8883	0.901
3.92497	0.897
3.96164	0.9
3.99832	0.903
4.03499	0.9
4.07166	0.898
4.10833	0.909
4.14501	0.903
4.18168	0.903
4.21835	0.901
4.25502	0.901
4.2917	0.901
4.32837	0.901
4.36504	0.901
4.40171	0.901
4.43839	0.901
4.47506	0.904
4.51173	0.903
4.5484	0.904
4.58508	0.904
4.62175	0.898
4.65842	0.895
4.69509	0.897
4.73177	0.9
4.76844	0.91
4.80511	0.904
4.84178	0.898
4.87846	0.898
4.91513	0.895
4.9518	0.895
4.98847	0.903
5.02515	0.91
5.06182	0.91
5.09849	0.91
5.13516	0.909
5.17184	0.907
5.20851	0.904
5.24518	0.907
5.28185	0.91
5.31853	0.912
5.3552	0.913
5.39187	0.912
5.42854	0.913
5.46522	0.912
5.50189	0.912
5.53856	0.912
5.57523	0.912
5.61191	0.912
5.64858	0.912
5.68525	0.913
5.72192	0.909
5.7586	0.913
5.79527	0.915
5.83194	0.913
5.86862	0.915
5.90529	0.915
5.94196	0.917
5.97863	0.912
6.01531	0.907
6.05198	0.906
6.08865	0.906
6.12532	0.906
6.162	0.906
6.19867	0.912
6.23534	0.91
6.27201	0.912
6.30869	0.913
6.34536	0.913
6.38203	0.917
6.4187	0.92
6.45538	0.918
6.49205	0.92
6.52872	0.913
6.56539	0.913
6.60207	0.913
6.63874	0.918
6.67541	0.913
6.71208	0.915
6.74876	0.918
6.78543	0.92
6.8221	0.913
6.85877	0.92
6.89545	0.924
6.93212	0.924
6.96879	0.918
7.00546	0.915
7.04214	0.918
7.07881	0.915
7.11548	0.913
7.15215	0.912
7.18883	0.912
7.2255	0.913
7.26217	0.915
7.29884	0.912
7.33552	0.91
7.37219	0.909
7.40886	0.907
7.44553	0.901
7.48221	0.898
7.51888	0.897
7.55555	0.894
7.59222	0.889
7.6289	0.883
7.66557	0.881
7.70224	0.877
7.73891	0.872
7.77559	0.864
7.81226	0.85
7.84893	0.826
7.8856	0.777
7.92228	0.768
7.95895	0.78
7.99562	0.777
8.03229	0.758
8.06897	0.723
8.10564	0.669
8.14231	0.648
8.17898	0.589
8.21566	0.457
8.25233	0.308
8.289	0.196
8.32567	0.132
8.36235	0.102
8.39902	0.096
8.43569	0.089
8.47236	0.084
8.50904	0.082
8.54571	0.092
8.58238	0.181
8.61905	0.287
8.65573	0.362
8.6924	0.427
8.72907	0.494
8.76574	0.608
8.80242	0.649
8.83909	0.678
8.87576	0.692
8.91243	0.678
8.94911	0.677
8.98578	0.697
9.02245	0.74
9.05912	0.757
9.0958	0.752
9.13247	0.72
9.16914	0.589
9.20581	0.457
9.24249	0.45
9.27916	0.399
9.31583	0.307
9.3525	0.284
9.38918	0.271
9.42585	0.279
9.46252	0.305
9.49919	0.447
9.53587	0.645
9.57254	0.715
9.60921	0.751
9.64589	0.777
9.68256	0.78
9.71923	0.777
9.7559	0.775
9.79258	0.752
9.82925	0.725
9.86592	0.682
9.90259	0.646
9.93927	0.603
9.97594	0.554
10.0126	0.48
10.0493	0.419
10.086	0.308
10.1226	0.231
10.1593	0.173
10.196	0.139
10.2326	0.133
10.2693	0.149
10.306	0.208
10.3427	0.324
10.3793	0.457
10.416	0.56
10.4527	0.648
10.4894	0.688
10.526	0.729
10.5627	0.764
10.5994	0.792
10.636	0.812
10.6727	0.821
10.7094	0.834
10.7461	0.849
10.7827	0.857
10.8194	0.863
10.8561	0.87
10.8928	0.87
10.9294	0.872
10.9661	0.877
11.0028	0.883
11.0394	0.884
11.0761	0.884
11.1128	0.892
11.1495	0.894
11.1861	0.894
11.2228	0.892
11.2595	0.894
11.2961	0.894
11.3328	0.898
11.3695	0.901
11.4062	0.898
11.4428	0.901
11.4795	0.912
11.5162	0.912
11.5529	0.91
11.5895	0.913
11.6262	0.912
11.6629	0.912
11.6995	0.912
11.7362	0.913
11.7729	0.913
11.8096	0.917
11.8462	0.912
11.8829	0.913
11.9196	0.917
11.9563	0.913
11.9929	0.92
12.0296	0.924
12.0663	0.921
12.1029	0.92
12.1396	0.92
12.1763	0.924
12.213	0.923
12.2496	0.923
12.2863	0.927
12.323	0.921
12.3597	0.921
12.3963	0.924
12.433	0.923
12.4697	0.924
12.5063	0.926
12.543	0.923
12.5797	0.923
12.6164	0.926
12.653	0.923
12.6897	0.923
12.7264	0.923
12.763	0.924
12.7997	0.926
12.8364	0.924
12.8731	0.926
12.9097	0.923
12.9464	0.924
12.9831	0.923
13.0198	0.924
13.0564	0.923
13.0931	0.923
13.1298	0.923
13.1664	0.921
13.2031	0.92
13.2398	0.921
13.2765	0.923
13.3131	0.924
13.3498	0.923
13.3865	0.924
13.4232	0.929
13.4598	0.926
13.4965	0.926
13.5332	0.924
13.5698	0.93
13.6065	0.926
13.6432	0.924
13.6799	0.926
13.7165	0.93
13.7532	0.927
13.7899	0.927
13.8266	0.926
13.8632	0.924
13.8999	0.929
13.9366	0.924
13.9732	0.924
14.0099	0.923
14.0466	0.926
14.0833	0.921
14.1199	0.92
14.1566	0.918
14.1933	0.926
14.23	0.923
14.2666	0.926
14.3033	0.923
14.34	0.923
14.3766	0.921
14.4133	0.92
14.45	0.92
14.4867	0.92
14.5233	0.92
14.56	0.918
14.5967	0.92
14.6333	0.921
14.67	0.918
14.7067	0.917
14.7434	0.917
14.78	0.91
14.8167	0.906
14.8534	0.897
14.8901	0.892
14.9267	0.874
14.9634	0.852
15.0001	0.78
15.0367	0.701
15.0734	0.628
15.1101	0.589
15.1468	0.572
