Infrared Spectrum: TRIHEXYPHENIDYL HYDROCHLORIDE
Formula: C20 H32 Cl N O
State: SOLID (1 mg / 200 mg KCl DISC) VS KCl
Melting point: 258.5 C DECOMP.
Class: COBLENTZ
Instrument: PERKIN-ELMER 21 (GRATING)
Instrument parameters: FILTER AT ABOUT 10 MICRONS
Sampling: TRANSMISSION
Path length: 0.055 CM (THICKNESS)
Resolution: 2
1/CM	TRANSMITTANCE
4000	0.8728
3991	0.8753
3982	0.8774
3973	0.8781
3964	0.8784
3955	0.8786
3946	0.8787
3937	0.8789
3928	0.8807
3919	0.8832
3910	0.885
3901	0.8854
3892	0.8857
3883	0.8859
3874	0.8862
3865	0.8865
3856	0.8868
3847	0.8871
3838	0.8881
3829	0.8892
3820	0.8903
3811	0.8914
3802	0.8928
3793	0.8942
3784	0.8957
3775	0.8968
3766	0.8981
3757	0.8991
3748	0.9002
3739	0.9011
3730	0.9021
3721	0.9031
3712	0.904
3703	0.905
3694	0.9058
3685	0.9066
3676	0.9071
3667	0.9071
3658	0.9073
3649	0.9074
3640	0.9071
3631	0.9067
3622	0.9062
3613	0.9056
3604	0.9039
3595	0.9023
3586	0.9004
3577	0.8983
3568	0.8961
3559	0.8937
3550	0.889
3541	0.8836
3532	0.8761
3523	0.8686
3514	0.859
3505	0.8488
3496	0.8366
3487	0.823
3478	0.8047
3469	0.7853
3460	0.7675
3451	0.7547
3442	0.7399
3433	0.7211
3424	0.7032
3415	0.6904
3406	0.6789
3397	0.6665
3388	0.6533
3379	0.6372
3370	0.619
3361	0.5995
3352	0.5524
3343	0.5234
3334	0.4993
3325	0.4809
3316	0.4792
3307	0.4806
3298	0.4904
3289	0.5121
3280	0.546
3271	0.5804
3262	0.6148
3253	0.6494
3244	0.6842
3235	0.7155
3226	0.7317
3217	0.7415
3208	0.7501
3199	0.7604
3190	0.7718
3181	0.7853
3172	0.8025
3163	0.8158
3154	0.8256
3145	0.8307
3136	0.8355
3127	0.8398
3118	0.8421
3109	0.8436
3100	0.8443
3091	0.8444
3082	0.8434
3073	0.8373
3064	0.833
3055	0.8301
3046	0.8285
3037	0.8268
3028	0.8253
3019	0.8218
3010	0.8136
3001	0.7969
2992	0.7649
2983	0.7211
2974	0.6377
2965	0.5481
2956	0.458
2947	0.3673
2938	0.2881
2929	0.2884
2920	0.3115
2911	0.3707
2902	0.4304
2893	0.4904
2884	0.5507
2875	0.563
2866	0.5475
2857	0.516
2848	0.5052
2839	0.56
2830	0.6201
2821	0.6806
2812	0.7408
2803	0.754
2794	0.7571
2785	0.7572
2776	0.7536
2767	0.7436
2758	0.7315
2749	0.7203
2740	0.706
2731	0.6868
2722	0.6665
2713	0.6496
2704	0.6336
2695	0.6177
2686	0.6059
2677	0.5919
2668	0.556
2659	0.5145
2650	0.4726
2641	0.441
2632	0.4481
2623	0.4818
2614	0.516
2605	0.5507
2596	0.5855
2587	0.5891
2578	0.5791
2569	0.5598
2560	0.5304
2551	0.5017
2542	0.4948
2533	0.4986
2524	0.5281
2515	0.5618
2506	0.6001
2497	0.621
2488	0.6303
2479	0.6404
2470	0.6518
2461	0.6648
2452	0.6783
2443	0.7056
2434	0.724
2425	0.7291
2416	0.7337
2407	0.7381
2398	0.7418
2389	0.7485
2380	0.7564
2371	0.7622
2362	0.7686
2353	0.7758
2344	0.786
2335	0.7968
2326	0.8072
2317	0.8236
2308	0.8471
2299	0.8605
2290	0.8664
2281	0.87
2272	0.8742
2263	0.8785
2254	0.883
2245	0.8877
2236	0.8938
2227	0.9007
2218	0.9084
2209	0.9163
2200	0.9211
2191	0.9241
2182	0.9261
2173	0.9275
2164	0.9294
2155	0.9318
2146	0.9386
2137	0.9421
2128	0.9433
2119	0.9444
2110	0.9452
2101	0.9461
2092	0.9471
2083	0.9483
2074	0.9499
2065	0.9521
2056	0.9556
2047	0.9612
2038	0.9628
2029	0.9645
2020	0.9661
2011	0.9674
2002	0.9686
1993	0.9689
1984	0.9691
1975	0.9684
1966	0.9614
1957	0.959
1948	0.9597
1939	0.9654
1930	0.9698
1921	0.971
1912	0.9711
1903	0.9685
1894	0.9659
1885	0.9663
1876	0.9689
1867	0.974
1858	0.9768
1849	0.977
1840	0.9743
1831	0.9723
1822	0.9716
1813	0.971
1804	0.9733
1795	0.9762
1786	0.9791
1777	0.9799
1768	0.9771
1759	0.9774
1750	0.9775
1741	0.9774
1732	0.9781
1723	0.9788
1714	0.9768
1705	0.9732
1696	0.9698
1687	0.9618
1678	0.9505
1669	0.9463
1660	0.9521
1651	0.9494
1642	0.9499
1633	0.9524
1624	0.9545
1615	0.9527
1606	0.9352
1597	0.9464
1588	0.9648
1579	0.9735
1570	0.9764
1561	0.9717
1552	0.9696
1543	0.9699
1534	0.9698
1525	0.9693
1516	0.9658
1507	0.9414
1498	0.8397
1489	0.872
1480	0.8035
1471	0.7117
1462	0.6791
1453	0.5093
1444	0.5224
1435	0.7021
1426	0.7811
1417	0.8268
1408	0.8363
1399	0.7714
1390	0.7834
1381	0.8365
1372	0.8441
1363	0.8171
1354	0.8311
1345	0.8637
1336	0.8618
1327	0.8505
1318	0.8061
1309	0.8315
1300	0.8207
1291	0.8435
1282	0.8602
1273	0.8553
1264	0.8362
1255	0.8443
1246	0.8133
1237	0.8306
1228	0.853
1219	0.8875
1210	0.881
1201	0.7364
1192	0.7571
1183	0.8103
1174	0.7965
1165	0.863
1156	0.8621
1147	0.8837
1138	0.8667
1129	0.8708
1120	0.8365
1111	0.8387
1102	0.843
1093	0.8647
1084	0.8367
1075	0.7981
1066	0.7897
1057	0.8506
1048	0.8674
1039	0.8318
1030	0.8238
1021	0.8988
1012	0.9085
1003	0.8831
994	0.9353
985	0.8932
976	0.8627
967	0.623
958	0.8005
949	0.8386
940	0.7984
931	0.8128
922	0.9121
913	0.9038
904	0.9384
895	0.8665
886	0.9287
877	0.9341
868	0.9655
859	0.9064
850	0.9286
841	0.9712
832	0.9778
823	0.9761
814	0.9715
805	0.9637
796	0.9651
787	0.962
778	0.9288
769	0.8261
760	0.7921
751	0.8523
742	0.9313
733	0.9483
724	0.9385
715	0.8788
706	0.603
697	0.6646
688	0.8955
679	0.8913
670	0.8408
