Infrared Spectrum: Aniline, 2-tert-butyl-N-Beta-cyanoethyl-
Formula: C13 H18 N2
State: SOLID (NUJOL MULL)
Class: COBLENTZ III
Instrument: BECKMAN IR-4 (HYBRID PRISM-GRATING)
Instrument parameters: NaCl PRISM
Sampling: TRANSMISSION
Resolution: 2
Origin: MONSANTO (J. FREEMAN)
1/CM	TRANSMITTANCE
626	0.9293
635	0.9762
644	0.9992
653	1.0117
662	1.0264
671	1.02
680	0.9962
689	1.0095
698	0.9998
707	0.9832
716	0.9409
725	0.9009
734	0.7836
743	0.2399
752	0.6237
761	0.7347
770	0.903
779	0.9346
788	0.9473
797	0.9541
806	0.9699
815	0.9667
824	0.9706
833	0.9459
842	0.9477
851	0.9518
860	0.9726
869	0.9716
878	0.9706
887	0.9675
896	0.9639
905	0.9615
914	0.9317
923	0.9124
932	0.9089
941	0.9334
950	0.9404
959	0.9427
968	0.9433
977	0.9383
986	0.9334
995	0.8815
1004	0.9083
1013	0.927
1022	0.932
1031	0.8715
1040	0.8934
1049	0.9047
1058	0.6931
1067	0.8881
1076	0.8691
1085	0.9255
1094	0.9041
1103	0.7763
1112	0.7709
1121	0.9255
1130	0.9236
1139	0.8178
1148	0.7954
1157	0.9028
1166	0.8984
1175	0.8879
1184	0.8957
1193	0.8075
1202	0.7569
1211	0.8359
1220	0.8826
1229	0.8616
1238	0.7817
1247	0.6599
1256	0.5891
1265	0.4327
1274	0.7362
1283	0.7375
1292	0.5675
1301	0.5763
1310	0.6342
1319	0.6409
1328	0.6056
1337	0.8367
1346	0.8542
1355	0.8518
1364	0.8348
1373	0.6588
1382	0.3528
1391	0.6398
1400	0.7161
1409	0.823
1418	0.6954
1427	0.6438
1436	0.6178
1445	0.3421
1454	0.337
1463	0.2554
1472	0.3093
1481	0.4061
1490	0.439
1499	0.6274
1508	0.4182
1517	0.2677
1526	0.4369
1535	0.6059
1544	0.8101
1553	0.8786
1562	0.8807
1571	0.7767
1580	0.4955
1589	0.7164
1598	0.6228
1607	0.5527
1616	0.8231
1625	0.9107
1634	0.9276
1643	0.9314
1652	0.9316
1661	0.9276
1670	0.925
1679	0.9306
1688	0.9368
1697	0.9376
1706	0.9384
1715	0.94
1724	0.9407
1733	0.9401
1742	0.9367
1751	0.9306
1760	0.9237
1769	0.9239
1778	0.923
1787	0.9165
1796	0.9119
1805	0.9097
1814	0.9082
1823	0.9063
1832	0.9002
1841	0.8911
1850	0.8889
1859	0.8889
1868	0.8848
1877	0.8753
1886	0.881
1895	0.8849
1904	0.8797
1913	0.8682
1922	0.8854
1931	0.8891
1940	0.8888
1949	0.8876
1958	0.886
1967	0.8843
1976	0.8825
1985	0.8804
1994	0.8783
2003	0.8762
2012	0.8741
2021	0.8721
2030	0.87
2039	0.8679
2048	0.8657
2057	0.8637
2066	0.8618
2075	0.8601
2084	0.8584
2093	0.8564
2102	0.8542
2111	0.8518
2120	0.8491
2129	0.8465
2138	0.8438
2147	0.8411
2156	0.8384
2165	0.8357
2174	0.8312
2183	0.8261
2192	0.8213
2201	0.8172
2210	0.814
2219	0.8076
2228	0.7664
2237	0.6847
2246	0.6382
2255	0.7331
2264	0.8227
2273	0.8305
2282	0.8306
2291	0.8289
2300	0.8268
2309	0.8239
2318	0.821
2327	0.8182
2336	0.8159
2345	0.8137
2354	0.8116
2363	0.8093
2372	0.8079
2381	0.8065
2390	0.8051
2399	0.8035
2408	0.8018
2417	0.8001
2426	0.7984
2435	0.7967
2444	0.7946
2453	0.7925
2462	0.7905
2471	0.7884
2480	0.7864
2489	0.7843
2498	0.7817
2507	0.7791
2516	0.7766
2525	0.774
2534	0.7715
2543	0.7689
2552	0.766
2561	0.7632
2570	0.7604
2579	0.7575
2588	0.7547
2597	0.7523
2606	0.7498
2615	0.7474
2624	0.7451
2633	0.7428
2642	0.7405
2651	0.7387
2660	0.7371
2669	0.7354
2678	0.7336
2687	0.7318
2696	0.7301
2705	0.7287
2714	0.7273
2723	0.726
2732	0.7249
2741	0.7238
2750	0.7232
2759	0.7225
2768	0.722
2777	0.7218
2786	0.7182
2795	0.7017
2804	0.6767
2813	0.647
2822	0.608
2831	0.5499
2840	0.5293
2849	0.5161
2858	0.135
2867	0.1358
2876	0.1356
2885	0.1179
2894	0.087
2903	0.0563
2912	0.0339
2921	0.0295
2930	0.0294
2939	0.0683
2948	0.1257
2957	0.1828
2966	0.2394
2975	0.2957
2984	0.3517
2993	0.4073
3002	0.4624
3011	0.5036
3020	0.5225
3029	0.5288
3038	0.532
3047	0.5329
3056	0.5329
3065	0.5334
3074	0.5352
3083	0.5424
3092	0.57
3101	0.5911
3110	0.5971
3119	0.6009
3128	0.603
3137	0.6043
3146	0.6052
3155	0.6057
3164	0.6057
3173	0.6052
3182	0.6048
3191	0.6044
3200	0.6041
3209	0.6036
3218	0.6029
3227	0.6021
3236	0.6005
3245	0.5987
3254	0.5965
3263	0.5938
3272	0.5905
3281	0.5871
3290	0.5836
3299	0.5803
3308	0.577
3317	0.5737
3326	0.5699
3335	0.5659
3344	0.5618
3353	0.5565
3362	0.5511
3371	0.5448
3380	0.5381
3389	0.5307
3398	0.5223
3407	0.5135
3416	0.5041
3425	0.4946
3434	0.4838
3443	0.4514
3452	0.3974
3461	0.365
3470	0.365
3479	0.3875
3488	0.4363
3497	0.4848
3506	0.5331
3515	0.5772
3524	0.5863
3533	0.5889
3542	0.5896
3551	0.5897
3560	0.589
3569	0.588
3578	0.587
3587	0.586
3596	0.5844
3605	0.5828
3614	0.581
3623	0.5793
3632	0.5775
3641	0.5757
3650	0.574
3659	0.5722
3668	0.5704
3677	0.5686
3686	0.5667
3695	0.5648
3704	0.5629
3713	0.5609
3722	0.559
3731	0.557
3740	0.5551
3749	0.5533
3758	0.5515
3767	0.5498
3776	0.548
3785	0.5462
3794	0.5445
3803	0.5428
3812	0.541
3821	0.5393
3830	0.5375
3839	0.5357
3848	0.534
3857	0.5323
3866	0.5306
3875	0.5289
3884	0.5274
3893	0.5257
3902	0.5242
3911	0.5226
3920	0.5211
3929	0.5197
3938	0.5183
3947	0.5169
3956	0.5155
3965	0.5142
3974	0.5128
3983	0.5114
3992	0.5099
