Infrared Spectrum: 10-{3-[1-[2-(2-HYDROXYETHOXY)ETHYL]-4-PIPERAZINYL]PROPYL}-2-TRIFLUOROMETHYL-PHENOTHIAZINE, DIHYDROCHLORIDE
Formula: C24 H32 Cl2 F3 N3 O2 S
State: SOLID (KBr DISC)
Class: COBLENTZ III
Instrument: Not specified, most likely a prism spectrometer.
Instrument parameters: NaCl PRISM
Sampling: TRANSMISSION
Resolution: 2
Origin: SMITH KLINE & FRENCH LABS.
MICROMETERS	TRANSMITTANCE
2.009	0.456
2.04333	0.46
2.07766	0.465
2.11199	0.481
2.14632	0.478
2.18065	0.479
2.21498	0.479
2.24931	0.488
2.28364	0.488
2.31797	0.493
2.3523	0.498
2.38662	0.5
2.42095	0.506
2.45528	0.509
2.48961	0.517
2.52394	0.527
2.55827	0.527
2.5926	0.527
2.62693	0.53
2.66126	0.551
2.69559	0.555
2.72992	0.561
2.76425	0.563
2.79858	0.545
2.83291	0.488
2.86724	0.453
2.90157	0.415
2.9359	0.373
2.97023	0.332
3.00456	0.246
3.03889	0.25
3.07321	0.34
3.10754	0.439
3.14187	0.489
3.1762	0.516
3.21053	0.54
3.24486	0.554
3.27919	0.556
3.31352	0.54
3.34785	0.534
3.38218	0.43
3.41651	0.396
3.45084	0.364
3.48517	0.365
3.5195	0.364
3.55383	0.424
3.58816	0.461
3.62249	0.486
3.65682	0.5
3.69115	0.483
3.72548	0.478
3.75981	0.458
3.79413	0.43
3.82846	0.405
3.86279	0.392
3.89712	0.382
3.93145	0.351
3.96578	0.329
4.00011	0.308
4.03444	0.298
4.06877	0.298
4.1031	0.251
4.13743	0.239
4.17176	0.224
4.20609	0.221
4.24042	0.219
4.27475	0.219
4.30908	0.23
4.34341	0.244
4.37774	0.26
4.41207	0.27
4.4464	0.306
4.48072	0.354
4.51505	0.394
4.54938	0.415
4.58371	0.441
4.61804	0.477
4.65237	0.5
4.6867	0.53
4.72103	0.545
4.75536	0.58
4.78969	0.583
4.82402	0.611
4.85835	0.62
4.89268	0.645
4.92701	0.648
4.96134	0.663
4.99567	0.676
5.03	0.681
5.06433	0.693
5.09866	0.69
5.13299	0.699
5.16732	0.697
5.20164	0.708
5.23597	0.716
5.2703	0.708
5.30463	0.699
5.33896	0.729
5.37329	0.736
5.40762	0.747
5.44195	0.75
5.47628	0.758
5.51061	0.759
5.54494	0.759
5.57927	0.758
5.6136	0.755
5.64793	0.752
5.68226	0.75
5.71659	0.752
5.75092	0.753
5.78525	0.752
5.81958	0.747
5.85391	0.746
5.88823	0.755
5.92256	0.758
5.95689	0.748
5.99122	0.743
6.02555	0.739
6.05988	0.722
6.09421	0.709
6.12854	0.707
6.16287	0.699
6.1972	0.685
6.23153	0.609
6.26586	0.511
6.30019	0.619
6.33452	0.674
6.36885	0.639
6.40318	0.612
6.43751	0.671
6.47184	0.729
6.50617	0.732
6.5405	0.739
6.57483	0.731
6.60915	0.724
6.64348	0.693
6.67781	0.626
6.71214	0.511
6.74647	0.504
6.7808	0.465
6.81513	0.329
6.84946	0.239
6.88379	0.266
6.91812	0.27
6.95245	0.243
6.98678	0.352
7.02111	0.267
7.05544	0.201
7.08977	0.26
7.1241	0.38
7.15843	0.37
7.19276	0.398
7.22709	0.483
7.26142	0.518
7.29575	0.528
7.33007	0.56
7.3644	0.597
7.39873	0.582
7.43306	0.438
7.46739	0.351
7.50172	0.229
7.53605	0.227
7.57038	0.238
7.60471	0.218
7.63904	0.25
7.67337	0.375
7.7077	0.426
7.74203	0.462
7.77636	0.444
7.81069	0.442
7.84502	0.469
7.87935	0.405
7.91368	0.38
7.94801	0.409
7.98234	0.415
8.01666	0.278
8.05099	0.245
8.08532	0.245
8.11965	0.287
8.15398	0.37
8.18831	0.448
8.22264	0.527
8.25697	0.513
8.2913	0.486
8.32563	0.551
8.35996	0.594
8.39429	0.601
8.42862	0.578
8.46295	0.539
8.49728	0.441
8.53161	0.33
8.56594	0.253
8.60027	0.246
8.6346	0.246
8.66893	0.267
8.70326	0.318
8.73758	0.24
8.77191	0.229
8.80624	0.247
8.84057	0.238
8.8749	0.202
8.90923	0.165
8.94356	0.108
8.97789	0.104
9.01222	0.119
9.04655	0.127
9.08088	0.218
9.11521	0.258
9.14954	0.304
9.18387	0.349
9.2182	0.334
9.25253	0.264
9.28686	0.21
9.32119	0.234
9.35552	0.252
9.38985	0.273
9.42417	0.285
9.4585	0.277
9.49283	0.291
9.52716	0.329
9.56149	0.371
9.59582	0.425
9.63015	0.453
9.66448	0.448
9.69881	0.454
9.73314	0.482
9.76747	0.484
9.8018	0.495
9.83613	0.503
9.87046	0.527
9.90479	0.544
9.93912	0.566
9.97345	0.589
10.0078	0.612
10.0421	0.622
10.0764	0.641
10.1108	0.656
10.1451	0.662
10.1794	0.668
10.2138	0.673
10.2481	0.681
10.2824	0.618
10.3167	0.573
10.3511	0.574
10.3854	0.595
10.4197	0.602
10.4541	0.602
10.4884	0.616
10.5227	0.648
10.557	0.645
10.5914	0.629
10.6257	0.577
10.66	0.541
10.6944	0.487
10.7287	0.469
10.763	0.51
10.7974	0.595
10.8317	0.63
10.866	0.629
10.9003	0.566
10.9347	0.506
10.969	0.5
11.0033	0.538
11.0377	0.609
11.072	0.643
11.1063	0.671
11.1407	0.691
11.175	0.701
11.2093	0.684
11.2436	0.639
11.278	0.586
11.3123	0.595
11.3466	0.595
11.381	0.591
11.4153	0.612
11.4496	0.63
11.4839	0.63
11.5183	0.607
11.5526	0.577
11.5869	0.601
11.6213	0.63
11.6556	0.625
11.6899	0.639
11.7243	0.699
11.7586	0.75
11.7929	0.771
11.8272	0.786
11.8616	0.783
11.8959	0.76
11.9302	0.726
11.9646	0.739
11.9989	0.759
12.0332	0.782
12.0675	0.772
12.1019	0.726
12.1362	0.567
12.1705	0.454
12.2049	0.45
12.2392	0.488
12.2735	0.605
12.3079	0.657
12.3422	0.704
12.3765	0.727
12.4108	0.748
12.4452	0.776
12.4795	0.789
12.5138	0.792
12.5482	0.795
12.5825	0.8
12.6168	0.805
12.6511	0.821
12.6855	0.821
12.7198	0.817
12.7541	0.821
12.7885	0.821
12.8228	0.816
12.8571	0.815
12.8915	0.815
12.9258	0.804
12.9601	0.799
12.9944	0.77
13.0288	0.736
13.0631	0.707
13.0974	0.709
13.1318	0.712
13.1661	0.684
13.2004	0.607
13.2348	0.504
13.2691	0.399
13.3034	0.371
13.3377	0.38
13.3721	0.369
13.4064	0.354
13.4407	0.411
13.4751	0.506
13.5094	0.6
13.5437	0.63
13.578	0.652
13.6124	0.682
13.6467	0.681
13.681	0.68
13.7154	0.684
13.7497	0.69
13.784	0.721
13.8184	0.713
13.8527	0.645
13.887	0.642
13.9213	0.691
13.9557	0.736
13.99	0.771
14.0243	0.793
14.0587	0.801
14.093	0.804
14.1273	0.808
14.1616	0.811
14.196	0.818
14.2303	0.808
14.2646	0.792
14.299	0.755
14.3333	0.722
14.3676	0.732
14.402	0.773
14.4363	0.795
14.4706	0.803
14.5049	0.808
14.5393	0.812
14.5736	0.805
14.6079	0.803
14.6423	0.804
14.6766	0.798
14.7109	0.789
14.7452	0.776
14.7796	0.766
