Infrared Spectrum: 9H-Purine, 2-amino-9-Beta-D-ribofuranosyl-,
Formula: C10 H13 N5 O4
State: SOLID (0.8/650 mg KBr DISC)
Class: COBLENTZ III
Instrument: PERKIN-ELMER 21 (GRATING)
Instrument parameters: FILTER CHANGE ABOUT1070 CM^-^1
Resolution: 2
Origin: SOUTHERN RESEARCH INSTITUTE
1/CM	TRANSMITTANCE
619.543	0.5681
627.549	0.5797
635.555	0.5891
643.562	0.5987
651.568	0.6029
659.574	0.6021
667.58	0.5969
675.586	0.5902
683.592	0.5821
691.599	0.5799
699.605	0.5815
707.611	0.5813
715.617	0.5701
723.623	0.5596
731.629	0.5528
739.636	0.5523
747.642	0.556
755.648	0.5653
763.654	0.5743
771.66	0.5679
779.667	0.5404
787.673	0.368
795.679	0.3549
803.685	0.5635
811.691	0.5797
819.697	0.5819
827.704	0.5768
835.71	0.5687
843.716	0.5349
851.722	0.4836
859.728	0.4541
867.734	0.4731
875.741	0.4999
883.747	0.4919
891.753	0.4669
899.759	0.466
907.765	0.5263
915.771	0.5667
923.778	0.5688
931.784	0.537
939.79	0.4942
947.796	0.4516
955.802	0.4187
963.809	0.4247
971.815	0.4597
979.821	0.4885
987.827	0.4964
995.833	0.4915
1003.84	0.4642
1011.85	0.41
1019.85	0.3527
1027.86	0.313
1035.86	0.2913
1043.87	0.2799
1051.88	0.2846
1059.88	0.2984
1067.89	0.2794
1075.89	0.2995
1083.9	0.2794
1091.91	0.2978
1099.91	0.2979
1107.92	0.2986
1115.93	0.3044
1123.93	0.321
1131.94	0.3477
1139.94	0.4851
1147.95	0.5975
1155.96	0.632
1163.96	0.623
1171.97	0.5617
1179.98	0.4715
1187.98	0.4062
1195.99	0.3748
1203.99	0.3778
1212	0.384
1220.01	0.4029
1228.01	0.4882
1236.02	0.5078
1244.02	0.5
1252.03	0.483
1260.04	0.4864
1268.04	0.4848
1276.05	0.4622
1284.06	0.4101
1292.06	0.3653
1300.07	0.3964
1308.07	0.4745
1316.08	0.4722
1324.09	0.4572
1332.09	0.4438
1340.1	0.4522
1348.1	0.4503
1356.11	0.4394
1364.12	0.4211
1372.12	0.4203
1380.13	0.4458
1388.14	0.4343
1396.14	0.3901
1404.15	0.3459
1412.15	0.296
1420.16	0.2107
1428.17	0.16
1436.17	0.2067
1444.18	0.3196
1452.19	0.4193
1460.19	0.3945
1468.2	0.3373
1476.2	0.3311
1484.21	0.3985
1492.22	0.5059
1500.22	0.4573
1508.23	0.3729
1516.23	0.4309
1524.24	0.5561
1532.25	0.6318
1540.25	0.6329
1548.26	0.5865
1556.27	0.4917
1564.27	0.4204
1572.28	0.2052
1580.28	0.1878
1588.29	0.3401
1596.3	0.2904
1604.3	0.1849
1612.31	0.1302
1620.31	0.1527
1628.32	0.1944
1636.33	0.2402
1644.33	0.3283
1652.34	0.3931
1660.35	0.5266
1668.35	0.5789
1676.36	0.6341
1684.36	0.6716
1692.37	0.7014
1700.38	0.7215
1708.38	0.7402
1716.39	0.7541
1724.4	0.7603
1732.4	0.7751
1740.41	0.7814
1748.41	0.7898
1756.42	0.7977
1764.43	0.8073
1772.43	0.8169
1780.44	0.8232
1788.44	0.8282
1796.45	0.832
1804.46	0.8341
1812.46	0.8373
1820.47	0.8405
1828.48	0.8408
1836.48	0.8401
1844.49	0.8377
1852.49	0.8328
1860.5	0.8321
1868.51	0.8317
1876.51	0.8285
1884.52	0.822
1892.52	0.8192
1900.53	0.8188
1908.54	0.8189
1916.54	0.8192
1924.55	0.819
1932.56	0.8185
1940.56	0.8179
1948.57	0.8173
1956.57	0.8157
1964.58	0.814
1972.59	0.8123
1980.59	0.811
1988.6	0.8095
1996.61	0.8072
2004.61	0.8021
2012.62	0.796
2020.62	0.7956
2028.63	0.7951
2036.64	0.7947
2044.64	0.7938
2052.65	0.7924
2060.65	0.7912
2068.66	0.789
2076.67	0.7869
2084.67	0.7847
2092.68	0.7826
2100.69	0.7804
2108.69	0.7782
2116.7	0.7761
2124.7	0.7739
2132.71	0.7718
2140.72	0.7696
2148.72	0.7677
2156.73	0.7675
2164.73	0.7668
2172.74	0.7619
2180.75	0.7569
2188.75	0.7538
2196.76	0.7532
2204.77	0.7537
2212.77	0.7543
2220.78	0.7551
2228.78	0.755
2236.79	0.7543
2244.8	0.7532
2252.8	0.7519
2260.81	0.75
2268.82	0.746
2276.82	0.7407
2284.83	0.7325
2292.83	0.7212
2300.84	0.7116
2308.85	0.7047
2316.85	0.7005
2324.86	0.6992
2332.86	0.6983
2340.87	0.6981
2348.88	0.6983
2356.88	0.6988
2364.89	0.6995
2372.9	0.6997
2380.9	0.6963
2388.91	0.6917
2396.91	0.6861
2404.92	0.6809
2412.93	0.6769
2420.93	0.6733
2428.94	0.6695
2436.94	0.6657
2444.95	0.6619
2452.96	0.6583
2460.96	0.6548
2468.97	0.6513
2476.98	0.6471
2484.98	0.6423
2492.99	0.6373
2500.99	0.6318
2509	0.6264
2517.01	0.6216
2525.01	0.6174
2533.02	0.6129
2541.03	0.608
2549.03	0.6021
2557.04	0.5961
2565.04	0.59
2573.05	0.583
2581.06	0.5751
2589.06	0.567
2597.07	0.5592
2605.07	0.5521
2613.08	0.5459
2621.09	0.5406
2629.09	0.5373
2637.1	0.5301
2645.11	0.5236
2653.11	0.5196
2661.12	0.5153
2669.12	0.5111
2677.13	0.5074
2685.14	0.5036
2693.14	0.4998
2701.15	0.4976
2709.15	0.4961
2717.16	0.495
2725.17	0.4919
2733.17	0.4868
2741.18	0.4816
2749.19	0.4754
2757.19	0.469
2765.2	0.4625
2773.2	0.4549
2781.21	0.447
2789.22	0.4381
2797.22	0.4302
2805.23	0.423
2813.24	0.4167
2821.24	0.4121
2829.25	0.4087
2837.25	0.4077
2845.26	0.4072
2853.27	0.4062
2861.27	0.4021
2869.28	0.3981
2877.28	0.3955
2885.29	0.3961
2893.3	0.3952
2901.3	0.3977
2909.31	0.4048
2917.32	0.4132
2925.32	0.4206
2933.33	0.4263
2941.33	0.4291
2949.34	0.4286
2957.35	0.4262
2965.35	0.4199
2973.36	0.4096
2981.36	0.399
2989.37	0.3887
2997.38	0.3787
3005.38	0.3711
3013.39	0.3623
3021.4	0.3539
3029.4	0.3446
3037.41	0.3346
3045.41	0.3244
3053.42	0.3153
3061.43	0.3058
3069.43	0.2957
3077.44	0.2874
3085.44	0.2801
3093.45	0.2745
3101.46	0.2694
3109.46	0.2643
3117.47	0.2592
3125.48	0.2531
3133.48	0.246
3141.49	0.2397
3149.49	0.2375
3157.5	0.2359
3165.51	0.2366
3173.51	0.2373
3181.52	0.2381
3189.53	0.2389
3197.53	0.2392
3205.54	0.2393
3213.54	0.2394
3221.55	0.2394
3229.56	0.2394
3237.56	0.236
3245.57	0.2308
3253.57	0.2245
3261.58	0.2178
3269.59	0.2103
3277.59	0.2026
3285.6	0.1965
3293.61	0.1921
3301.61	0.1892
3309.62	0.188
3317.62	0.1884
3325.63	0.1902
3333.64	0.1917
3341.64	0.1963
3349.65	0.1975
3357.65	0.1996
3365.66	0.2026
3373.67	0.2078
3381.67	0.212
3389.68	0.2159
3397.69	0.2204
3405.69	0.224
3413.7	0.2292
3421.7	0.2376
3429.71	0.2485
3437.72	0.2636
3445.72	0.2814
3453.73	0.3017
3461.74	0.3226
3469.74	0.3509
3477.75	0.3819
3485.75	0.4125
3493.76	0.4431
3501.77	0.4702
3509.77	0.4999
3517.78	0.5171
3525.78	0.547
3533.79	0.5766
3541.8	0.6056
3549.8	0.6383
3557.81	0.6652
3565.82	0.6864
3573.82	0.7093
3581.83	0.7328
3589.83	0.7539
3597.84	0.7673
3605.85	0.7777
3613.85	0.787
3621.86	0.7934
3629.86	0.7966
3637.87	0.799
3645.88	0.8002
3653.88	0.8006
3661.89	0.801
3669.9	0.8012
3677.9	0.8017
3685.91	0.8021
3693.91	0.8025
3701.92	0.8027
3709.93	0.8028
3717.93	0.8028
3725.94	0.8026
3733.95	0.8024
3741.95	0.8016
3749.96	0.8006
3757.96	0.7995
3765.97	0.7977
3773.98	0.7957
3781.98	0.7925
3789.99	0.7907
3797.99	0.7892
