Infrared Spectrum: CHLORTETRACYCLINE HYDROCHLORIDE
Formula: C22 H24 Cl2 N2 O8
State: SOLID (1.05 mg / 200 mg KCl DISC) VS KCl
Melting point: 210 C DECOMP.
Class: COBLENTZ III
Instrument: PERKIN-ELMER 21 (GRATING)
Instrument parameters: FILTER AT ABOUT 10 MICRONS
Sampling: TRANSMISSION
Path length: 0.055 CM (THICKNESS)
Resolution: 2
1/CM	TRANSMITTANCE
4000	0.9035
3991	0.9055
3982	0.9076
3973	0.9098
3964	0.9118
3955	0.9127
3946	0.9136
3937	0.9144
3928	0.9151
3919	0.9149
3910	0.9145
3901	0.9141
3892	0.9136
3883	0.9131
3874	0.9126
3865	0.9122
3856	0.9118
3847	0.9121
3838	0.9128
3829	0.9135
3820	0.914
3811	0.9147
3802	0.9157
3793	0.9167
3784	0.9175
3775	0.9188
3766	0.9197
3757	0.9208
3748	0.9221
3739	0.9233
3730	0.9245
3721	0.9257
3712	0.928
3703	0.9327
3694	0.9352
3685	0.9378
3676	0.9389
3667	0.939
3658	0.938
3649	0.9368
3640	0.9354
3631	0.9343
3622	0.933
3613	0.9317
3604	0.9302
3595	0.9287
3586	0.927
3577	0.9254
3568	0.9233
3559	0.9214
3550	0.9194
3541	0.9172
3532	0.9141
3523	0.9089
3514	0.9025
3505	0.8957
3496	0.884
3487	0.8718
3478	0.8593
3469	0.8468
3460	0.8346
3451	0.8233
3442	0.8119
3433	0.8005
3424	0.7886
3415	0.7765
3406	0.7646
3397	0.7231
3388	0.6897
3379	0.651
3370	0.6123
3361	0.5735
3352	0.5348
3343	0.496
3334	0.4692
3325	0.4657
3316	0.4635
3307	0.4624
3298	0.4632
3289	0.4676
3280	0.4747
3271	0.4871
3262	0.502
3253	0.5225
3244	0.5403
3235	0.5572
3226	0.571
3217	0.5844
3208	0.597
3199	0.6089
3190	0.6197
3181	0.6281
3172	0.6329
3163	0.6342
3154	0.6344
3145	0.6328
3136	0.6297
3127	0.6148
3118	0.6014
3109	0.5942
3100	0.5866
3091	0.5797
3082	0.5734
3073	0.5673
3064	0.5637
3055	0.5627
3046	0.5631
3037	0.5656
3028	0.5674
3019	0.5674
3010	0.5675
3001	0.5679
2992	0.5691
2983	0.5725
2974	0.5774
2965	0.5845
2956	0.5943
2947	0.6027
2938	0.6107
2929	0.6189
2920	0.6271
2911	0.6348
2902	0.6415
2893	0.6463
2884	0.6473
2875	0.6484
2866	0.6482
2857	0.648
2848	0.6475
2839	0.6467
2830	0.6457
2821	0.6448
2812	0.6437
2803	0.6424
2794	0.6409
2785	0.6387
2776	0.6347
2767	0.6322
2758	0.6297
2749	0.6279
2740	0.6289
2731	0.6302
2722	0.6313
2713	0.6307
2704	0.6292
2695	0.6264
2686	0.6222
2677	0.6168
2668	0.6085
2659	0.6023
2650	0.5982
2641	0.5952
2632	0.593
2623	0.5918
2614	0.5914
2605	0.5924
2596	0.5951
2587	0.5985
2578	0.6029
2569	0.6084
2560	0.6142
2551	0.6199
2542	0.6259
2533	0.633
2524	0.6376
2515	0.6414
2506	0.6447
2497	0.648
2488	0.6521
2479	0.6568
2470	0.6615
2461	0.6677
2452	0.674
2443	0.682
2434	0.6918
2425	0.7037
2416	0.7116
2407	0.7179
2398	0.7225
2389	0.7248
2380	0.7268
2371	0.7284
2362	0.73
2353	0.7325
2344	0.7351
2335	0.74
2326	0.7506
2317	0.772
2308	0.7804
2299	0.7852
2290	0.7926
2281	0.8003
2272	0.8086
2263	0.8139
2254	0.814
2245	0.8139
2236	0.8142
2227	0.8149
2218	0.8184
2209	0.8216
2200	0.8244
2191	0.827
2182	0.8282
2173	0.8288
2164	0.8288
2155	0.8295
2146	0.8325
2137	0.8366
2128	0.8408
2119	0.8445
2110	0.8482
2101	0.8517
2092	0.8552
2083	0.8583
2074	0.8614
2065	0.8642
2056	0.8669
2047	0.8692
2038	0.8715
2029	0.874
2020	0.8767
2011	0.8792
2002	0.8817
1993	0.884
1984	0.886
1975	0.8868
1966	0.8891
1957	0.8913
1948	0.8906
1939	0.8899
1930	0.89
1921	0.8933
1912	0.896
1903	0.8984
1894	0.9007
1885	0.9039
1876	0.9074
1867	0.911
1858	0.9148
1849	0.9182
1840	0.9221
1831	0.9245
1822	0.9238
1813	0.9223
1804	0.9221
1795	0.9229
1786	0.9231
1777	0.9232
1768	0.9235
1759	0.9133
1750	0.8877
1741	0.8379
1732	0.8185
1723	0.7874
1714	0.6846
1705	0.58
1696	0.4739
1687	0.3666
1678	0.3449
1669	0.3448
1660	0.3637
1651	0.3788
1642	0.3743
1633	0.3352
1624	0.3089
1615	0.3248
1606	0.3663
1597	0.3719
1588	0.341
1579	0.3266
1570	0.3744
1561	0.3791
1552	0.3901
1543	0.4035
1534	0.406
1525	0.4044
1516	0.423
1507	0.4736
1498	0.5412
1489	0.5514
1480	0.5665
1471	0.5239
1462	0.4803
1453	0.3873
1444	0.3469
1435	0.4613
1426	0.5262
1417	0.4893
1408	0.5138
1399	0.5251
1390	0.4748
1381	0.4635
1372	0.4637
1363	0.3826
1354	0.397
1345	0.4638
1336	0.4625
1327	0.4353
1318	0.4418
1309	0.382
1300	0.4698
1291	0.502
1282	0.5008
1273	0.4945
1264	0.456
1255	0.5217
1246	0.6215
1237	0.6484
1228	0.4858
1219	0.5005
1210	0.5211
1201	0.4554
1192	0.4583
1183	0.5281
1174	0.6264
1165	0.6715
1156	0.6
1147	0.5659
1138	0.5289
1129	0.5572
1120	0.5568
1111	0.6656
1102	0.6816
1093	0.6771
1084	0.7174
1075	0.7117
1066	0.6878
1057	0.7044
1048	0.5645
1039	0.4512
1030	0.6426
1021	0.747
1012	0.7483
1003	0.6615
994	0.778
985	0.8339
976	0.8488
967	0.5998
958	0.7089
949	0.728
940	0.6828
931	0.7522
922	0.8323
913	0.8745
904	0.8933
895	0.9171
886	0.9198
877	0.9237
868	0.8081
859	0.68
850	0.7168
841	0.6956
832	0.7063
823	0.8238
814	0.8682
805	0.84
796	0.7179
787	0.7533
778	0.7774
769	0.6694
760	0.7415
751	0.8675
742	0.8893
733	0.8151
724	0.8853
715	0.883
706	0.7886
697	0.6052
688	0.682
679	0.7871
670	0.6876
