Infrared Spectrum: FORMAMIDE, N-(6-AMINO-3,4-DIHYDRO-4-OXO-5-PYRIMIDINYL)-N-BENZYL-
Formula: C12 H12 N4 O2
State: SOLID (1 mg / 650 mg KBr DISC)
Class: COBLENTZ III
Instrument: PERKIN-ELMER 521 (GRATING)
Instrument parameters: FILTER CHANGES AT 3130, 2475, 2000, 1150, 700, 410 CM^-^1, GRATING CHANGES AT 2000, 620 CM^-^1
Sampling: TRANSMISSION
Resolution: 4
Origin: SOUTHERN RESEARCH INST.
1/CM	TRANSMITTANCE
274.419	0.512
284.012	0.517
293.605	0.54
303.198	0.57
312.791	0.589
322.384	0.633
331.977	0.652
341.57	0.671
351.163	0.692
360.756	0.698
370.349	0.701
379.942	0.706
389.536	0.709
399.129	0.698
408.722	0.718
418.315	0.73
427.908	0.699
437.501	0.725
447.094	0.708
456.687	0.697
466.28	0.73
475.873	0.719
485.466	0.69
495.059	0.692
504.652	0.727
514.245	0.747
523.838	0.738
533.431	0.718
543.024	0.673
552.617	0.694
562.21	0.721
571.803	0.696
581.396	0.66
590.989	0.701
600.583	0.686
610.176	0.661
619.769	0.675
629.362	0.687
638.955	0.688
648.548	0.706
658.141	0.721
667.734	0.749
677.327	0.763
686.92	0.73
696.513	0.63
706.106	0.695
715.699	0.755
725.292	0.715
734.885	0.696
744.478	0.734
754.071	0.792
763.664	0.804
773.257	0.757
782.85	0.719
792.443	0.676
802.036	0.735
811.63	0.748
821.223	0.728
830.816	0.747
840.409	0.765
850.002	0.771
859.595	0.785
869.188	0.757
878.781	0.757
888.374	0.809
897.967	0.808
907.56	0.798
917.153	0.8
926.746	0.801
936.339	0.795
945.932	0.783
955.525	0.779
965.118	0.774
974.711	0.76
984.304	0.668
993.897	0.641
1003.49	0.718
1013.08	0.758
1022.68	0.772
1032.27	0.784
1041.86	0.796
1051.46	0.794
1061.05	0.788
1070.64	0.755
1080.23	0.724
1089.83	0.787
1099.42	0.776
1109.01	0.727
1118.61	0.706
1128.2	0.742
1137.79	0.762
1147.39	0.765
1156.98	0.761
1166.57	0.743
1176.17	0.72
1185.76	0.692
1195.35	0.667
1204.94	0.638
1214.54	0.633
1224.13	0.648
1233.72	0.674
1243.32	0.66
1252.91	0.649
1262.5	0.66
1272.1	0.689
1281.69	0.691
1291.28	0.677
1300.87	0.682
1310.47	0.689
1320.06	0.683
1329.65	0.681
1339.25	0.652
1348.84	0.604
1358.43	0.541
1368.03	0.527
1377.62	0.603
1387.21	0.688
1396.81	0.696
1406.4	0.648
1415.99	0.669
1425.58	0.643
1435.18	0.591
1444.77	0.529
1454.36	0.499
1463.96	0.531
1473.55	0.58
1483.14	0.653
1492.74	0.732
1502.33	0.712
1511.92	0.767
1521.51	0.741
1531.11	0.692
1540.7	0.596
1550.29	0.474
1559.89	0.501
1569.48	0.601
1579.07	0.57
1588.67	0.473
1598.26	0.328
1607.85	0.235
1617.45	0.157
1627.04	0.124
1636.63	0.151
1646.22	0.194
1655.82	0.207
1665.41	0.206
1675	0.241
1684.6	0.348
1694.19	0.45
1703.78	0.585
1713.38	0.673
1722.97	0.731
1732.56	0.758
1742.15	0.791
1751.75	0.812
1761.34	0.83
1770.93	0.846
1780.53	0.858
1790.12	0.861
1799.71	0.865
1809.31	0.87
1818.9	0.874
1828.49	0.879
1838.09	0.884
1847.68	0.887
1857.27	0.888
1866.86	0.889
1876.46	0.89
1886.05	0.89
1895.64	0.89
1905.24	0.889
1914.83	0.888
1924.42	0.885
1934.02	0.88
1943.61	0.877
1953.2	0.878
1962.79	0.881
1972.39	0.883
1981.98	0.883
1991.57	0.874
2001.17	0.871
2010.76	0.872
2020.35	0.872
2029.95	0.872
2039.54	0.872
2049.13	0.872
2058.73	0.872
2068.32	0.871
2077.91	0.872
2087.5	0.872
2097.1	0.871
2106.69	0.871
2116.28	0.871
2125.88	0.87
2135.47	0.87
2145.06	0.87
2154.66	0.87
2164.25	0.869
2173.84	0.869
2183.43	0.867
2193.03	0.865
2202.62	0.865
2212.21	0.863
2221.81	0.862
2231.4	0.861
2240.99	0.861
2250.59	0.861
2260.18	0.86
2269.77	0.859
2279.37	0.859
2288.96	0.858
2298.55	0.858
2308.14	0.856
2317.74	0.854
2327.33	0.853
2336.92	0.851
2346.52	0.851
2356.11	0.851
2365.7	0.851
2375.3	0.85
2384.89	0.85
2394.48	0.849
2404.07	0.848
2413.67	0.847
2423.26	0.846
2432.85	0.845
2442.45	0.843
2452.04	0.841
2461.63	0.839
2471.23	0.837
2480.82	0.835
2490.41	0.832
2500.01	0.832
2509.6	0.831
2519.19	0.828
2528.78	0.825
2538.38	0.821
2547.97	0.818
2557.56	0.816
2567.16	0.813
2576.75	0.811
2586.34	0.808
2595.94	0.805
2605.53	0.799
2615.12	0.794
2624.72	0.79
2634.31	0.786
2643.9	0.783
2653.49	0.78
2663.09	0.78
2672.68	0.781
2682.27	0.781
2691.87	0.78
2701.46	0.779
2711.05	0.775
2720.65	0.772
2730.24	0.763
2739.83	0.759
2749.42	0.753
2759.02	0.75
2768.61	0.746
2778.2	0.744
2787.8	0.742
2797.39	0.74
2806.98	0.735
2816.58	0.726
2826.17	0.719
2835.76	0.712
2845.36	0.698
2854.95	0.7
2864.54	0.699
2874.13	0.697
2883.73	0.691
2893.32	0.688
2902.91	0.685
2912.51	0.682
2922.1	0.685
2931.69	0.687
2941.29	0.686
2950.88	0.679
2960.47	0.672
2970.06	0.663
2979.66	0.655
2989.25	0.651
2998.84	0.656
3008.44	0.657
3018.03	0.639
3027.62	0.621
3037.22	0.615
3046.81	0.596
3056.4	0.589
3066	0.587
3075.59	0.585
3085.18	0.584
3094.77	0.578
3104.37	0.56
3113.96	0.558
3123.55	0.548
3133.15	0.518
3142.74	0.494
3152.33	0.475
3161.93	0.468
3171.52	0.47
3181.11	0.482
3190.7	0.498
3200.3	0.523
3209.89	0.558
3219.48	0.586
3229.08	0.615
3238.67	0.629
3248.26	0.641
3257.86	0.641
3267.45	0.63
3277.04	0.617
3286.64	0.599
3296.23	0.577
3305.82	0.555
3315.41	0.531
3325.01	0.498
3334.6	0.483
3344.19	0.492
3353.79	0.493
3363.38	0.502
3372.97	0.568
3382.57	0.583
3392.16	0.597
3401.75	0.632
3411.34	0.652
3420.94	0.662
3430.53	0.665
3440.12	0.667
3449.72	0.67
3459.31	0.673
3468.9	0.68
3478.5	0.682
3488.09	0.697
3497.68	0.707
3507.28	0.725
3516.87	0.732
3526.46	0.746
3536.05	0.754
3545.65	0.766
3555.24	0.776
3564.83	0.781
3574.43	0.793
3584.02	0.802
3593.61	0.813
3603.21	0.823
3612.8	0.83
3622.39	0.837
3631.98	0.842
3641.58	0.846
3651.17	0.848
3660.76	0.848
3670.36	0.849
3679.95	0.85
3689.54	0.851
3699.14	0.853
3708.73	0.854
3718.32	0.852
3727.92	0.85
3737.51	0.85
3747.1	0.85
3756.69	0.852
3766.29	0.854
3775.88	0.855
3785.47	0.854
