Infrared Spectrum: 4H,6H-m-DIOXINO[4',5':5,6]PYRANO[4,3-d]-4-OXAZOLIN-2-ONE, HEXAHYDRO-4-METHOXY-1,8-DIPHENYL-
Formula: C21 H21 N O6
State: SOLID (0.9 mg / 650 mg KBr DISC)
Class: COBLENTZ III
Instrument: PERKIN-ELMER 21 (GRATING)
Instrument parameters: FILTER CHANGE AT 1070 CM^-^1
Sampling: TRANSMISSION
Resolution: 2
Origin: SOUTHERN RESEARCH INSTITUTE
1/CM	TRANSMITTANCE
656.678	0.949
665.754	0.7962
674.83	0.9227
683.907	0.8304
692.983	0.3267
702.059	0.8917
711.135	0.98
720.211	0.963
729.287	0.9249
738.364	0.8333
747.44	0.6169
756.516	0.2799
765.592	0.416
774.668	0.7252
783.745	0.8263
792.821	0.5883
801.897	0.6126
810.973	0.9017
820.049	0.9468
829.125	0.9473
838.202	0.945
847.278	0.943
856.354	0.937
865.43	0.9136
874.506	0.878
883.583	0.8764
892.659	0.8322
901.735	0.6621
910.811	0.4743
919.887	0.641
928.964	0.7003
938.04	0.8291
947.116	0.7444
956.192	0.5596
965.268	0.4839
974.344	0.335
983.421	0.316
992.497	0.386
1001.57	0.3577
1010.65	0.432
1019.73	0.3905
1028.8	0.1898
1037.88	0.4604
1046.95	0.3054
1056.03	0.3068
1065.11	0.483
1074.18	0.3383
1083.26	0.2328
1092.33	0.1056
1101.41	0.1563
1110.49	0.3683
1119.56	0.1014
1128.64	0.08
1137.72	0.153
1146.79	0.4852
1155.87	0.5104
1164.94	0.522
1174.02	0.526
1183.1	0.5362
1192.17	0.4863
1201.25	0.2799
1210.33	0.193
1219.4	0.4772
1228.48	0.6066
1237.55	0.7979
1246.63	0.8252
1255.71	0.773
1264.78	0.6203
1273.86	0.5444
1282.93	0.5489
1292.01	0.5921
1301.09	0.453
1310.16	0.4163
1319.24	0.64
1328.32	0.625
1337.39	0.626
1346.47	0.5044
1355.54	0.3801
1364.62	0.5205
1373.7	0.4367
1382.77	0.2664
1391.85	0.2759
1400.93	0.3148
1410	0.551
1419.08	0.6181
1428.15	0.7607
1437.23	0.7808
1446.31	0.75
1455.38	0.642
1464.46	0.5595
1473.53	0.7287
1482.61	0.809
1491.69	0.6092
1500.76	0.3923
1509.84	0.7344
1518.92	0.8817
1527.99	0.913
1537.07	0.918
1546.14	0.918
1555.22	0.9157
1564.3	0.9106
1573.37	0.8928
1582.45	0.8615
1591.52	0.6484
1600.6	0.5719
1609.68	0.8493
1618.75	0.853
1627.83	0.86
1636.91	0.8703
1645.98	0.8849
1655.06	0.896
1664.13	0.9052
1673.21	0.906
1682.29	0.905
1691.36	0.8997
1700.44	0.8895
1709.52	0.8481
1718.59	0.8018
1727.67	0.7331
1736.74	0.6624
1745.82	0.5206
1754.9	0.3123
1763.97	0.0507
1773.05	0.1283
1782.12	0.4646
1791.2	0.7456
1800.28	0.8388
1809.35	0.8654
1818.43	0.9169
1827.51	0.949
1836.58	0.9586
1845.66	0.957
1854.73	0.957
1863.81	0.95
1872.89	0.949
1881.96	0.949
1891.04	0.9545
1900.12	0.966
1909.19	0.968
1918.27	0.97
1927.34	0.9695
1936.42	0.963
1945.5	0.959
1954.57	0.9556
1963.65	0.952
1972.72	0.9581
1981.8	0.959
1990.88	0.959
1999.95	0.966
2009.03	0.967
2018.11	0.9739
2027.18	0.972
2036.26	0.972
2045.33	0.9721
2054.41	0.976
2063.49	0.978
2072.56	0.979
2081.64	0.979
2090.71	0.978
2099.79	0.979
2108.87	0.979
2117.94	0.981
2127.02	0.98
2136.1	0.98
2145.17	0.983
2154.25	0.983
2163.32	0.984
2172.4	0.983
2181.48	0.984
2190.55	0.989
2199.63	0.99
2208.71	0.99
2217.78	0.99
2226.86	0.987
2235.93	0.9851
2245.01	0.984
2254.09	0.983
2263.16	0.979
2272.24	0.978
2281.31	0.974
2290.39	0.97
2299.47	0.953
2308.54	0.945
2317.62	0.941
2326.7	0.941
2335.77	0.943
2344.85	0.944
2353.92	0.9459
2363	0.9649
2372.08	0.975
2381.15	0.979
2390.23	0.978
2399.31	0.978
2408.38	0.978
2417.46	0.978
2426.53	0.978
2435.61	0.979
2444.69	0.979
2453.76	0.979
2462.84	0.978
2471.91	0.975
2480.99	0.971
2490.07	0.967
2499.14	0.9631
2508.22	0.9591
2517.3	0.957
2526.37	0.957
2535.45	0.956
2544.52	0.954
2553.6	0.954
2562.68	0.953
2571.75	0.953
2580.83	0.949
2589.91	0.945
2598.98	0.94
2608.06	0.94
2617.13	0.937
2626.21	0.937
2635.29	0.937
2644.36	0.935
2653.44	0.934
2662.51	0.934
2671.59	0.935
2680.67	0.935
2689.74	0.935
2698.82	0.932
2707.9	0.927
2716.97	0.921
2726.05	0.921
2735.12	0.9191
2744.2	0.913
2753.28	0.913
2762.35	0.9101
2771.43	0.908
2780.5	0.9021
2789.58	0.8862
2798.66	0.86
2807.73	0.8211
2816.81	0.7942
2825.89	0.7731
2834.96	0.7671
2844.04	0.7383
2853.11	0.715
2862.19	0.7189
2871.27	0.72
2880.34	0.716
2889.42	0.6993
2898.5	0.6593
2907.57	0.6579
2916.65	0.7078
2925.72	0.7428
2934.8	0.7629
2943.88	0.777
2952.95	0.777
2962.03	0.7858
2971.1	0.822
2980.18	0.822
2989.26	0.824
2998.33	0.8329
3007.41	0.835
3016.49	0.836
3025.56	0.834
3034.64	0.829
3043.71	0.827
3052.79	0.834
3061.87	0.839
3070.94	0.8558
3080.02	0.8786
3089.1	0.8899
3098.17	0.897
3107.25	0.902
3116.32	0.909
3125.4	0.912
3134.48	0.912
3143.55	0.91
3152.63	0.908
3161.7	0.905
3170.78	0.901
3179.86	0.899
3188.93	0.896
3198.01	0.893
3207.09	0.892
3216.16	0.892
3225.24	0.888
3234.31	0.8821
3243.39	0.8801
3252.47	0.879
3261.54	0.877
3270.62	0.874
3279.7	0.871
3288.77	0.869
3297.85	0.865
3306.92	0.856
3316	0.847
3325.08	0.834
3334.15	0.8241
3343.23	0.817
3352.3	0.809
3361.38	0.799
3370.46	0.791
3379.53	0.787
3388.61	0.777
3397.69	0.768
3406.76	0.7651
3415.84	0.765
3424.91	0.765
3433.99	0.767
3443.07	0.771
3452.14	0.772
3461.22	0.774
3470.29	0.7759
3479.37	0.777
3488.45	0.781
3497.52	0.786
3506.6	0.794
3515.68	0.8069
3524.75	0.8199
3533.83	0.826
3542.9	0.835
3551.98	0.844
3561.06	0.8509
3570.13	0.8599
3579.21	0.869
3588.29	0.884
3597.36	0.893
3606.44	0.9
3615.51	0.904
3624.59	0.915
3633.67	0.923
3642.74	0.924
3651.82	0.924
3660.89	0.926
3669.97	0.926
3679.05	0.926
3688.12	0.928
3697.2	0.931
3706.28	0.932
3715.35	0.9339
3724.43	0.934
3733.5	0.934
3742.58	0.934
3751.66	0.936
3760.73	0.936
3769.81	0.936
3778.89	0.937
3787.96	0.937
3797.04	0.939
3806.11	0.939
3815.19	0.939
3824.27	0.94
3833.34	0.939
3842.42	0.937
3851.49	0.936
3860.57	0.936
3869.65	0.936
3878.72	0.936
3887.8	0.936
3896.88	0.937
3905.95	0.9389
3915.03	0.939
3924.1	0.939
3933.18	0.939
3942.26	0.936
3951.33	0.931
3960.41	0.926
3969.48	0.923
3978.56	0.923
3987.64	0.937
3996.71	0.936
4005.79	0.936
4014.87	0.936
4023.94	0.931
4033.02	0.923
4042.09	0.909
4051.17	0.8971
4060.25	0.893
