Infrared Spectrum: ETHYL ETHER, COMPOUND WITH BF3
Formula: C4 H10 B F3 O
State: LIQUID (NEAT)
Class: COBLENTZ III
Instrument: BECKMAN IR-9 (GRATING)
Instrument parameters: ORDER CHANGES AT 670, 1200, 2000 CM^-^1
Sampling: TRANSMISSION
Path length: CAPILLARY
Resolution: 4
Origin: DOW CHEMICAL COMPANY
1/CM	TRANSMITTANCE
396.478	0.633
405.284	0.628
414.089	0.675
422.895	0.699
431.701	0.748
440.507	0.8
449.312	0.846
458.118	0.875
466.924	0.906
475.73	0.933
484.535	0.942
493.341	0.929
502.147	0.846
510.952	0.885
519.758	0.874
528.564	0.866
537.37	0.863
546.175	0.897
554.981	0.922
563.787	0.92
572.592	0.911
581.398	0.9
590.204	0.895
599.01	0.875
607.815	0.853
616.621	0.827
625.427	0.783
634.233	0.684
643.038	0.496
651.844	0.24
660.65	0.081
669.455	0.057
678.261	0.1
687.067	0.42
695.873	0.76
704.678	0.857
713.484	0.891
722.29	0.889
731.096	0.852
739.901	0.766
748.707	0.48
757.513	0.063
766.318	0.019
775.124	0.111
783.93	0.448
792.736	0.619
801.541	0.606
810.347	0.668
819.153	0.526
827.959	0.118
836.764	0.126
845.57	0.409
854.376	0.619
863.181	0.664
871.987	0.322
880.793	0.023
889.599	0.122
898.404	0.371
907.21	0.376
916.016	0.696
924.821	0.787
933.627	0.817
942.433	0.82
951.239	0.811
960.044	0.795
968.85	0.775
977.656	0.74
986.462	0.663
995.267	0.485
1004.07	0.257
1012.88	0.155
1021.68	0.137
1030.49	0.242
1039.3	0.395
1048.1	0.499
1056.91	0.54
1065.71	0.569
1074.52	0.59
1083.32	0.594
1092.13	0.508
1100.94	0.486
1109.74	0.59
1118.55	0.59
1127.35	0.539
1136.16	0.412
1144.96	0.2
1153.77	0.056
1162.58	0.026
1171.38	0.017
1180.19	0.019
1188.99	0.028
1197.8	0.015
1206.6	0.006
1215.41	0.005
1224.22	0.015
1233.02	0.088
1241.83	0.186
1250.63	0.183
1259.44	0.231
1268.24	0.357
1277.05	0.506
1285.86	0.644
1294.66	0.598
1303.47	0.768
1312.27	0.812
1321.08	0.776
1329.88	0.718
1338.69	0.731
1347.5	0.804
1356.3	0.824
1365.11	0.758
1373.91	0.784
1382.72	0.586
1391.52	0.511
1400.33	0.459
1409.14	0.726
1417.94	0.823
1426.75	0.845
1435.55	0.84
1444.36	0.775
1453.16	0.6
1461.97	0.704
1470.78	0.616
1479.58	0.591
1488.39	0.615
1497.19	0.835
1506	0.892
1514.81	0.922
1523.61	0.936
1532.42	0.947
1541.22	0.954
1550.03	0.965
1558.83	0.968
1567.64	0.977
1576.45	0.983
1585.25	0.987
1594.06	0.99
1602.86	0.991
1611.67	0.991
1620.47	0.99
1629.28	0.987
1638.09	0.984
1646.89	0.983
1655.7	0.98
1664.5	0.986
1673.31	0.988
1682.11	0.993
1690.92	0.998
1699.73	0.998
1708.53	1
1717.34	1.001
1726.14	1.002
1734.95	1.001
1743.75	1
1752.56	0.998
1761.37	0.997
1770.17	0.994
1778.98	0.99
1787.78	0.991
1796.59	0.994
1805.39	0.997
1814.2	1
1823.01	1
1831.81	1
1840.62	1
1849.42	0.998
1858.23	0.998
1867.03	0.997
1875.84	0.993
1884.65	0.99
1893.45	0.987
1902.26	0.984
1911.06	0.988
1919.87	0.99
1928.67	0.991
1937.48	0.993
1946.29	0.995
1955.09	0.995
1963.9	0.993
1972.7	0.991
1981.51	0.991
1990.31	0.99
1999.12	0.991
2007.93	0.99
2016.73	0.99
2025.54	0.9875
2034.34	0.984
2043.15	0.983
2051.95	0.9865
2060.76	0.99
2069.57	0.995
2078.37	0.995
2087.18	0.994
2095.98	0.9945
2104.79	0.998
2113.59	1.0005
2122.4	1.002
2131.21	1.0029
2140.01	1.004
2148.82	1.004
2157.62	1.004
2166.43	1.004
2175.23	1.002
2184.04	1.002
2192.85	1.002
2201.65	1.001
2210.46	1.001
2219.26	1.001
2228.07	1.001
2236.87	1
2245.68	0.998
2254.49	0.995
2263.29	0.994
2272.1	0.991
2280.9	0.991
2289.71	0.99
2298.51	0.988
2307.32	0.987
2316.13	0.986
2324.93	0.987
2333.74	0.9866
2342.54	0.9852
2351.35	0.982
2360.15	0.9782
2368.96	0.976
2377.77	0.976
2386.57	0.975
2395.38	0.968
2404.18	0.966
2412.99	0.969
2421.79	0.9697
2430.6	0.9714
2439.41	0.977
2448.21	0.979
2457.02	0.977
2465.82	0.976
2474.63	0.9743
2483.43	0.9703
2492.24	0.969
2501.05	0.9697
2509.85	0.9757
2518.66	0.979
2527.46	0.983
2536.27	0.986
2545.07	0.99
2553.88	0.99
2562.69	0.99
2571.49	0.991
2580.3	0.991
2589.1	0.9907
2597.91	0.99
2606.71	0.988
2615.52	0.988
2624.33	0.988
2633.13	0.988
2641.94	0.987
2650.74	0.987
2659.55	0.987
2668.35	0.987
2677.16	0.9867
2685.97	0.984
2694.77	0.984
2703.58	0.9837
2712.38	0.983
2721.19	0.982
2730	0.9815
2738.8	0.98
2747.61	0.9767
2756.41	0.9753
2765.22	0.979
2774.02	0.9767
2782.83	0.9727
2791.64	0.968
2800.44	0.971
2809.25	0.971
2818.05	0.9675
2826.86	0.9603
2835.66	0.9518
2844.47	0.9415
2853.28	0.9358
2862.08	0.933
2870.89	0.92
2879.69	0.8847
2888.5	0.8714
2897.3	0.8784
2906.11	0.8645
2914.92	0.8111
2923.72	0.7914
2932.53	0.7954
2941.33	0.7618
2950.14	0.7202
2958.94	0.7874
2967.75	0.7974
2976.56	0.7251
2985.36	0.5987
2994.17	0.5173
3002.97	0.5306
3011.78	0.6948
3020.58	0.7599
3029.39	0.7835
3038.2	0.8359
3047	0.8965
3055.81	0.9365
3064.61	0.948
3073.42	0.955
3082.22	0.9583
3091.03	0.9623
3099.84	0.966
3108.64	0.968
3117.45	0.969
3126.25	0.9711
3135.06	0.973
3143.86	0.972
3152.67	0.972
3161.48	0.972
3170.28	0.971
3179.09	0.9708
3187.89	0.968
3196.7	0.966
3205.5	0.966
3214.31	0.966
3223.12	0.966
3231.92	0.9662
3240.73	0.969
3249.53	0.969
3258.34	0.971
3267.14	0.972
3275.95	0.972
3284.76	0.972
3293.56	0.972
3302.37	0.9719
3311.17	0.9708
3319.98	0.9689
3328.78	0.968
3337.59	0.965
3346.4	0.962
3355.2	0.961
3364.01	0.9599
3372.81	0.957
3381.62	0.955
3390.42	0.954
3399.23	0.953
3408.04	0.953
3416.84	0.953
3425.65	0.954
3434.45	0.954
3443.26	0.955
3452.06	0.958
3460.87	0.96
3469.68	0.962
3478.48	0.964
3487.29	0.966
3496.09	0.969
3504.9	0.972
3513.7	0.975
3522.51	0.977
3531.32	0.98
3540.12	0.982
3548.93	0.983
3557.73	0.986
3566.54	0.988
3575.34	0.991
3584.15	0.993
3592.96	0.995
3601.76	0.995
3610.57	0.995
3619.37	0.997
3628.18	0.998
3636.98	1
3645.79	1.001
3654.6	1.004
3663.4	1.005
3672.21	1.006
3681.01	1.008
3689.82	1.009
3698.62	1.009
3707.43	1.009
3716.24	1.008
3725.04	1.006
3733.85	1.005
3742.65	1.005
3751.46	1.005
3760.26	1.005
3769.07	1.005
3777.88	1.005
3786.68	1.004
3795.49	1.004
