Infrared Spectrum: 2-PYRIMIDINESULFONIC ACID, 4,6-DIAMINOTHIO-, S-TRICHLOROMETHYL ESTER
Formula: C5 H5 Cl3 N4 O2 S2
State: SOLID (0.8 mg / 650 mg KBr DISC)
Class: COBLENTZ III
Instrument: PERKIN-ELMER 221 (GRATING)
Instrument parameters: FILTERS CHANGE AT 2490, 980 CM^-^1, GRATING FOR 4000-1428 CM^-^1, NaCl PRISM FOR 1428-650 CM^-^1
Sampling: TRANSMISSION
Resolution: 4
Origin: SOUTHERN RESEARCH INSTITUTE
1/CM	TRANSMITTANCE
650.433	0.791
659.603	0.771
668.772	0.651
677.942	0.674
687.112	0.734
696.281	0.782
705.451	0.786
714.621	0.786
723.79	0.773
732.96	0.737
742.129	0.665
751.299	0.533
760.469	0.623
769.638	0.657
778.808	0.55
787.978	0.657
797.147	0.599
806.317	0.542
815.487	0.69
824.656	0.716
833.826	0.646
842.996	0.67
852.165	0.746
861.335	0.769
870.505	0.773
879.674	0.771
888.844	0.768
898.013	0.762
907.183	0.757
916.353	0.75
925.522	0.751
934.692	0.753
943.862	0.752
953.031	0.741
962.201	0.72
971.371	0.714
980.54	0.674
989.71	0.57
998.88	0.732
1008.05	0.731
1017.22	0.724
1026.39	0.712
1035.56	0.705
1044.73	0.7
1053.9	0.697
1063.07	0.698
1072.24	0.699
1081.41	0.696
1090.58	0.677
1099.75	0.667
1108.92	0.657
1118.08	0.638
1127.25	0.616
1136.42	0.529
1145.59	0.295
1154.76	0.569
1163.93	0.638
1173.1	0.68
1182.27	0.688
1191.44	0.685
1200.61	0.677
1209.78	0.667
1218.95	0.653
1228.12	0.645
1237.29	0.641
1246.46	0.629
1255.63	0.618
1264.8	0.632
1273.97	0.654
1283.14	0.647
1292.31	0.621
1301.48	0.652
1310.65	0.682
1319.82	0.678
1328.99	0.623
1338.16	0.441
1347.33	0.403
1356.5	0.616
1365.67	0.716
1374.84	0.75
1384	0.757
1393.17	0.763
1402.34	0.769
1411.51	0.773
1420.68	0.773
1429.85	0.739
1439.02	0.722
1448.19	0.715
1457.36	0.699
1466.53	0.654
1475.7	0.525
1484.87	0.349
1494.04	0.372
1503.21	0.575
1512.38	0.636
1521.55	0.665
1530.72	0.662
1539.89	0.655
1549.06	0.64
1558.23	0.625
1567.4	0.606
1576.57	0.554
1585.74	0.363
1594.91	0.147
1604.08	0.357
1613.25	0.407
1622.42	0.169
1631.59	0.083
1640.75	0.113
1649.92	0.224
1659.09	0.311
1668.26	0.364
1677.43	0.431
1686.6	0.521
1695.77	0.635
1704.94	0.7
1714.11	0.712
1723.28	0.731
1732.45	0.747
1741.62	0.756
1750.79	0.774
1759.96	0.795
1769.13	0.811
1778.3	0.814
1787.47	0.815
1796.64	0.817
1805.81	0.818
1814.98	0.818
1824.15	0.817
1833.32	0.816
1842.49	0.815
1851.66	0.815
1860.83	0.815
1870	0.813
1879.17	0.811
1888.34	0.811
1897.5	0.811
1906.67	0.811
1915.84	0.807
1925.01	0.801
1934.18	0.797
1943.35	0.793
1952.52	0.786
1961.69	0.784
1970.86	0.782
1980.03	0.782
1989.2	0.783
1998.37	0.78
2007.54	0.769
2016.71	0.778
2025.88	0.779
2035.05	0.776
2044.22	0.789
2053.39	0.795
2062.56	0.798
2071.73	0.799
2080.9	0.8
2090.07	0.8
2099.24	0.8
2108.41	0.8
2117.58	0.801
2126.75	0.801
2135.92	0.801
2145.09	0.802
2154.25	0.803
2163.42	0.803
2172.59	0.803
2181.76	0.803
2190.93	0.802
2200.1	0.802
2209.27	0.801
2218.44	0.801
2227.61	0.801
2236.78	0.8
2245.95	0.8
2255.12	0.799
2264.29	0.798
2273.46	0.797
2282.63	0.795
2291.8	0.794
2300.97	0.792
2310.14	0.789
2319.31	0.782
2328.48	0.78
2337.65	0.782
2346.82	0.785
2355.99	0.788
2365.16	0.79
2374.33	0.792
2383.5	0.792
2392.67	0.792
2401.84	0.792
2411.01	0.791
2420.17	0.79
2429.34	0.789
2438.51	0.789
2447.68	0.789
2456.85	0.789
2466.02	0.786
2475.19	0.784
2484.36	0.782
2493.53	0.78
2502.7	0.778
2511.87	0.776
2521.04	0.776
2530.21	0.772
2539.38	0.769
2548.55	0.765
2557.72	0.763
2566.89	0.763
2576.06	0.762
2585.23	0.76
2594.4	0.76
2603.57	0.759
2612.74	0.756
2621.91	0.753
2631.08	0.75
2640.25	0.748
2649.42	0.747
2658.59	0.745
2667.76	0.743
2676.92	0.741
2686.09	0.739
2695.26	0.737
2704.43	0.734
2713.6	0.733
2722.77	0.731
2731.94	0.729
2741.11	0.728
2750.28	0.728
2759.45	0.726
2768.62	0.725
2777.79	0.725
2786.96	0.723
2796.13	0.721
2805.3	0.718
2814.47	0.715
2823.64	0.714
2832.81	0.71
2841.98	0.709
2851.15	0.707
2860.32	0.706
2869.49	0.705
2878.66	0.702
2887.83	0.699
2897	0.696
2906.17	0.694
2915.34	0.693
2924.51	0.692
2933.67	0.693
2942.84	0.695
2952.01	0.696
2961.18	0.696
2970.35	0.694
2979.52	0.693
2988.69	0.69
2997.86	0.686
3007.03	0.681
3016.2	0.677
3025.37	0.676
3034.54	0.666
3043.71	0.654
3052.88	0.644
3062.05	0.632
3071.22	0.623
3080.39	0.614
3089.56	0.603
3098.73	0.586
3107.9	0.555
3117.07	0.537
3126.24	0.514
3135.41	0.495
3144.58	0.469
3153.75	0.453
3162.92	0.437
3172.09	0.399
3181.26	0.367
3190.42	0.332
3199.59	0.298
3208.76	0.313
3217.93	0.368
3227.1	0.437
3236.27	0.472
3245.44	0.485
3254.61	0.476
3263.78	0.464
3272.95	0.428
3282.12	0.376
3291.29	0.325
3300.46	0.301
3309.63	0.306
3318.8	0.329
3327.97	0.354
3337.14	0.42
3346.31	0.475
3355.48	0.507
3364.65	0.524
3373.82	0.528
3382.99	0.53
3392.16	0.535
3401.33	0.539
3410.5	0.54
3419.67	0.539
3428.84	0.536
3438.01	0.531
3447.18	0.52
3456.34	0.502
3465.51	0.45
3474.68	0.368
3483.85	0.397
3493.02	0.507
3502.19	0.596
3511.36	0.636
3520.53	0.668
3529.7	0.683
3538.87	0.69
3548.04	0.7
3557.21	0.712
3566.38	0.718
3575.55	0.725
3584.72	0.736
3593.89	0.744
3603.06	0.757
3612.23	0.764
3621.4	0.771
3630.57	0.777
3639.74	0.79
3648.91	0.795
3658.08	0.797
3667.25	0.798
3676.42	0.798
3685.59	0.798
3694.76	0.798
3703.93	0.798
3713.09	0.798
3722.26	0.799
3731.43	0.799
3740.6	0.799
3749.77	0.799
3758.94	0.799
3768.11	0.798
3777.28	0.798
3786.45	0.797
3795.62	0.795
3804.79	0.795
3813.96	0.794
3823.13	0.793
3832.3	0.792
3841.47	0.792
3850.64	0.792
3859.81	0.791
3868.98	0.791
3878.15	0.791
3887.32	0.79
3896.49	0.79
3905.66	0.791
3914.83	0.79
3924	0.789
3933.17	0.789
3942.34	0.791
3951.51	0.792
3960.68	0.792
3969.84	0.79
3979.01	0.789
3988.18	0.788
3997.35	0.786
4006.52	0.786
