Infrared Spectrum: Alpha,Alpha-DICHLOROPROPIONIC ACID, MORPHOLINE SALT
Formula: C7 H13 Cl2 N O3
State: SOLID (MINERAL OIL MULL)
Class: COBLENTZ
Instrument: Not specified, most likely a prism, grating, or hybrid spectrometer.
Sampling: TRANSMISSION
Resolution: 4
Origin: DOW CHEMICAL COMPANY
MICROMETERS	TRANSMITTANCE
2.027	0.89
2.0681	0.89
2.1092	0.89
2.1503	0.894
2.19139	0.889
2.23249	0.877
2.27359	0.88
2.31469	0.889
2.35579	0.89
2.39689	0.892
2.43799	0.892
2.47908	0.899
2.52018	0.904
2.56128	0.908
2.60238	0.902
2.64348	0.904
2.68458	0.879
2.72567	0.819
2.76677	0.701
2.80787	0.592
2.84897	0.526
2.89007	0.487
2.93117	0.488
2.97227	0.524
3.01336	0.565
3.05446	0.582
3.09556	0.591
3.13666	0.594
3.17776	0.57
3.21886	0.526
3.25996	0.456
3.30105	0.364
3.34215	0.252
3.38325	0.189
3.42435	0.211
3.46545	0.231
3.50655	0.25
3.54764	0.32
3.58874	0.315
3.62984	0.291
3.67094	0.323
3.71204	0.367
3.75314	0.386
3.79424	0.442
3.83533	0.507
3.87643	0.512
3.91753	0.456
3.95863	0.42
3.99973	0.407
4.04083	0.449
4.08193	0.531
4.12302	0.586
4.16412	0.62
4.20522	0.638
4.24632	0.662
4.28742	0.701
4.32852	0.729
4.36962	0.739
4.41071	0.737
4.45181	0.734
4.49291	0.751
4.53401	0.771
4.57511	0.79
4.61621	0.807
4.6573	0.81
4.6984	0.814
4.7395	0.827
4.7806	0.829
4.8217	0.827
4.8628	0.843
4.9039	0.86
4.94499	0.867
4.98609	0.867
5.02719	0.86
5.06829	0.867
5.10939	0.867
5.15049	0.858
5.19159	0.855
5.23268	0.865
5.27378	0.868
5.31488	0.877
5.35598	0.884
5.39708	0.887
5.43818	0.884
5.47928	0.884
5.52037	0.872
5.56147	0.855
5.60257	0.827
5.64367	0.795
5.68477	0.761
5.72587	0.715
5.76696	0.679
5.80806	0.676
5.84916	0.664
5.89026	0.637
5.93136	0.568
5.97246	0.432
6.01356	0.27
6.05465	0.211
6.09575	0.143
6.13685	0.136
6.17795	0.17
6.21905	0.224
6.26015	0.32
6.30125	0.403
6.34234	0.495
6.38344	0.546
6.42454	0.608
6.46564	0.633
6.50674	0.672
6.54784	0.684
6.58893	0.698
6.63003	0.708
6.67113	0.705
6.71223	0.65
6.75333	0.594
6.79443	0.449
6.83553	0.369
6.87662	0.311
6.91772	0.381
6.95882	0.509
6.99992	0.577
7.04102	0.597
7.08212	0.568
7.12322	0.514
7.16431	0.465
7.20541	0.33
7.24651	0.247
7.28761	0.383
7.32871	0.24
7.36981	0.19
7.41091	0.281
7.452	0.449
7.4931	0.529
7.5342	0.517
7.5753	0.499
7.6164	0.531
7.6575	0.553
7.69859	0.654
7.73969	0.688
7.78079	0.696
7.82189	0.689
7.86299	0.698
7.90409	0.701
7.94519	0.7
7.98628	0.667
8.02738	0.594
8.06848	0.531
8.10958	0.664
8.15068	0.712
8.19178	0.722
8.23288	0.724
8.27397	0.71
8.31507	0.695
8.35617	0.695
8.39727	0.717
8.43837	0.715
8.47947	0.729
8.52057	0.751
8.56166	0.768
8.60276	0.776
8.64386	0.776
8.68496	0.758
8.72606	0.705
8.76716	0.659
8.80825	0.662
8.84935	0.664
8.89045	0.633
8.93155	0.526
8.97265	0.325
9.01375	0.172
9.05485	0.195
9.09594	0.376
9.13704	0.54
9.17814	0.56
9.21924	0.483
9.26034	0.413
9.30144	0.371
9.34254	0.369
9.38363	0.458
9.42473	0.553
9.46583	0.587
9.50693	0.522
9.54803	0.424
9.58913	0.48
9.63022	0.642
9.67132	0.708
9.71242	0.744
9.75352	0.751
9.79462	0.747
9.83572	0.761
9.87682	0.795
9.91791	0.805
9.95901	0.805
10.0001	0.795
10.0412	0.785
10.0823	0.78
10.1234	0.783
10.1645	0.797
10.2056	0.81
10.2467	0.819
10.2878	0.819
10.3289	0.809
10.37	0.798
10.4111	0.788
10.4522	0.78
10.4933	0.776
10.5344	0.773
10.5755	0.77
10.6166	0.776
10.6577	0.785
10.6988	0.792
10.7399	0.802
10.781	0.812
10.8221	0.821
10.8632	0.831
10.9043	0.836
10.9454	0.841
10.9865	0.843
11.0276	0.85
11.0687	0.85
11.1098	0.844
11.1509	0.833
11.192	0.809
11.2331	0.749
11.2742	0.666
11.3153	0.567
11.3564	0.499
11.3975	0.41
11.4386	0.349
11.4797	0.482
11.5208	0.662
11.5619	0.735
11.603	0.78
11.6441	0.798
11.6852	0.812
11.7262	0.817
11.7673	0.817
11.8084	0.816
11.8495	0.804
11.8906	0.798
11.9317	0.807
11.9728	0.81
12.0139	0.798
12.055	0.739
12.0961	0.717
12.1372	0.749
12.1783	0.77
12.2194	0.775
12.2605	0.742
12.3016	0.751
12.3427	0.776
12.3838	0.788
12.4249	0.79
12.466	0.79
12.5071	0.79
12.5482	0.79
12.5893	0.79
12.6304	0.788
12.6715	0.79
12.7126	0.788
12.7537	0.787
12.7948	0.781
12.8359	0.78
12.877	0.776
12.9181	0.773
12.9592	0.77
13.0003	0.766
13.0414	0.761
13.0825	0.756
13.1236	0.749
13.1647	0.741
13.2058	0.727
13.2469	0.717
13.288	0.705
13.3291	0.695
13.3702	0.681
13.4113	0.669
13.4524	0.657
13.4935	0.64
13.5346	0.621
13.5757	0.601
13.6168	0.579
13.6579	0.555
13.699	0.522
13.7401	0.487
13.7812	0.437
13.8223	0.378
13.8634	0.318
13.9045	0.267
13.9456	0.248
13.9867	0.264
14.0278	0.311
14.0689	0.361
14.11	0.408
14.1511	0.448
14.1922	0.477
14.2333	0.492
14.2744	0.504
14.3155	0.511
14.3566	0.514
14.3977	0.517
14.4388	0.511
14.4798	0.509
14.5209	0.507
14.562	0.5
14.6031	0.494
14.6442	0.487
14.6853	0.48
14.7264	0.477
14.7675	0.468
14.8086	0.461
14.8497	0.451
14.8908	0.441
14.9319	0.431
14.973	0.425
15.0141	0.412
15.0552	0.395
15.0963	0.373
15.1374	0.354
15.1785	0.339
15.2196	0.325
15.2607	0.31
15.3018	0.299
15.3429	0.294
15.384	0.289
15.4251	0.287
15.4662	0.289
15.5073	0.298
15.5484	0.303
15.5895	0.308
15.6306	0.313
15.6717	0.316
15.7128	0.318
15.7539	0.32
15.795	0.32
15.8361	0.32
