Infrared Spectrum: Phenethylguanidine, nitrate
Formula: C9 H14 N4 O3
State: SOLID (SPLIT MULL)
Class: COBLENTZ III
Instrument: DOW KBr FOREPRISM-GRATING
Instrument parameters: BLAZED AT 3.5, 12.0, 20.0 MICRON AND CHANGED AT 5.0, 7.5, 14.9 MICRON
Sampling: TRANSMISSION
Resolution: 2
Origin: DOW CHEMICAL COMPANY
1/CM	TRANSMITTANCE
3800	0.8149
3791	0.8174
3782	0.8206
3773	0.8236
3764	0.8267
3755	0.8298
3746	0.8327
3737	0.8353
3728	0.8381
3719	0.8408
3710	0.8436
3701	0.8466
3692	0.8497
3683	0.8528
3674	0.8562
3665	0.8594
3656	0.8628
3647	0.8663
3638	0.8701
3629	0.8738
3620	0.8771
3611	0.8803
3602	0.8836
3593	0.8864
3584	0.8891
3575	0.8917
3566	0.8942
3557	0.8973
3548	0.9009
3539	0.9045
3530	0.9078
3521	0.9113
3512	0.9136
3503	0.914
3494	0.9113
3485	0.9021
3476	0.8805
3467	0.8334
3458	0.784
3449	0.7049
3440	0.605
3431	0.4166
3422	0.2981
3413	0.1937
3404	0.1636
3395	0.171
3386	0.2004
3377	0.2524
3368	0.2839
3359	0.2921
3350	0.282
3341	0.259
3332	0.2437
3323	0.2388
3314	0.2467
3305	0.2684
3296	0.2855
3287	0.2951
3278	0.2984
3269	0.2823
3260	0.2695
3251	0.2719
3242	0.2779
3233	0.2758
3224	0.2597
3215	0.195
3206	0.1341
3197	0.1123
3188	0.1041
3179	0.1159
3170	0.1684
3161	0.2883
3152	0.3416
3143	0.395
3134	0.4332
3125	0.4603
3116	0.4801
3107	0.492
3098	0.4993
3089	0.5041
3080	0.5072
3071	0.4847
3062	0.4925
3053	0.491
3044	0.5404
3035	0.5471
3026	0.4148
3017	0.5057
3008	0.5618
2999	0.5826
2990	0.5936
2981	0.626
2972	0.6518
2963	0.6672
2954	0.6695
2945	0.6835
2936	0.6818
2927	0.6345
2918	0.6458
2909	0.6639
2900	0.6743
2891	0.6846
2882	0.7011
2873	0.7184
2864	0.7221
2855	0.7012
2846	0.7037
2837	0.7268
2828	0.7419
2819	0.7546
2810	0.7665
2801	0.7778
2792	0.7882
2783	0.7899
2774	0.7861
2765	0.7839
2756	0.7821
2747	0.7818
2738	0.7845
2729	0.7894
2720	0.7943
2711	0.7992
2702	0.8042
2693	0.8091
2684	0.8141
2675	0.819
2666	0.824
2657	0.8289
2648	0.8339
2639	0.8373
2630	0.8432
2621	0.8573
2612	0.8563
2603	0.8568
2594	0.8592
2585	0.8617
2576	0.865
2567	0.8682
2558	0.8715
2549	0.8747
2540	0.8768
2531	0.879
2522	0.8812
2513	0.883
2504	0.8844
2495	0.8846
2486	0.8849
2477	0.8848
2468	0.8839
2459	0.8811
2450	0.879
2441	0.8802
2432	0.8751
2423	0.8682
2414	0.8709
2405	0.8751
2396	0.8791
2387	0.868
2378	0.8583
2369	0.8575
2360	0.861
2351	0.8657
2342	0.8716
2333	0.8789
2324	0.885
2315	0.8868
2306	0.8882
2297	0.8893
2288	0.8905
2279	0.8917
2270	0.8938
2261	0.8959
2252	0.8986
2243	0.9025
2234	0.9066
2225	0.9106
2216	0.9148
2207	0.9189
2198	0.9227
2189	0.9255
2180	0.9284
2171	0.9312
2162	0.934
2153	0.9365
2144	0.939
2135	0.9414
2126	0.9439
2117	0.9464
2108	0.9489
2099	0.9513
2090	0.9544
2081	0.9578
2072	0.9613
2063	0.9652
2054	0.9691
2045	0.972
2036	0.9746
2027	0.9771
2018	0.9797
2009	0.9825
2000	0.9868
1991	0.9846
1982	0.9816
1973	0.9825
1964	0.9833
1955	0.9775
1946	0.9808
1937	0.9685
1928	0.9771
1919	0.9873
1910	0.9905
1901	0.9927
1892	0.9947
1883	0.986
1874	0.9873
1865	0.9874
1856	0.9815
1847	0.9974
1838	0.9982
1829	0.9988
1820	0.9987
1811	0.9975
1802	0.994
1793	0.9827
1784	0.9928
1775	0.9878
1766	0.9525
1757	0.962
1748	0.9868
1739	0.9856
1730	0.9809
1721	0.9665
1712	0.9033
1703	0.8212
1694	0.6297
1685	0.3304
1676	0.054
1667	0.0754
1658	0.0891
1649	0.1515
1640	0.383
1631	0.22
1622	0.1395
1613	0.393
1604	0.5139
1595	0.6212
1586	0.6926
1577	0.7458
1568	0.783
1559	0.8093
1550	0.8324
1541	0.848
1532	0.8605
1523	0.8682
1514	0.8701
1505	0.8684
1496	0.6318
1487	0.8118
1478	0.8088
1469	0.5887
1460	0.6828
1451	0.581
1442	0.7053
1433	0.7101
1424	0.6698
1415	0.4528
1406	0.1307
1397	0.0685
1388	0.1882
1379	0.3298
1370	0.2795
1361	0.2153
1352	0.0981
1343	0.0669
1334	0.0669
1325	0.1032
1316	0.2584
1307	0.3382
1298	0.2237
1289	0.3743
1280	0.4988
1271	0.5781
1262	0.6155
1253	0.6401
1244	0.6572
1235	0.6692
1226	0.6784
1217	0.6793
1208	0.6458
1199	0.5837
1190	0.5421
1181	0.4474
1172	0.529
1163	0.6469
1154	0.6978
1145	0.715
1136	0.7235
1127	0.7317
1118	0.7347
1109	0.7291
1100	0.7165
1091	0.6986
1082	0.6835
1073	0.7054
1064	0.738
1055	0.7558
1046	0.6965
1037	0.7739
1028	0.7285
1019	0.7571
1010	0.8125
1001	0.8452
992	0.8695
983	0.883
974	0.8732
965	0.8877
956	0.8915
947	0.9045
938	0.9171
929	0.9178
920	0.9181
911	0.9375
902	0.936
893	0.9423
884	0.9594
875	0.9651
866	0.9689
857	0.9733
848	0.9757
839	0.9671
830	0.9598
821	0.7519
812	0.9178
803	0.9674
794	0.9637
785	0.9536
776	0.9249
767	0.9043
758	0.8778
749	0.7561
740	0.6276
731	0.6188
722	0.5853
713	0.645
704	0.6765
695	0.446
686	0.7126
677	0.7051
668	0.6853
659	0.6778
650	0.6601
641	0.6181
632	0.5623
623	0.4596
614	0.4056
605	0.3564
596	0.3484
587	0.3612
578	0.3799
569	0.4152
560	0.5166
551	0.6344
542	0.7026
533	0.7526
524	0.7696
515	0.7535
506	0.7843
497	0.7855
488	0.7846
479	0.7992
470	0.8119
461	0.8221
