Infrared Spectrum: ORNITHINE, MONOPICRATE
Formula: C11 H15 N5 O9
State: SOLID (KBr DISC)
Class: COBLENTZ III
Instrument: BECKMAN IR-4 (HYBRID PRISM-GRATING)
Sampling: TRANSMISSION
Resolution: 2
Origin: UNIVERSITY OF FLORIDA
1/CM	TRANSMITTANCE
668	0.5816
677	0.5722
686	0.5659
695	0.5323
704	0.3696
713	0.4936
722	0.5891
731	0.5338
740	0.5051
749	0.3965
758	0.6175
767	0.6548
776	0.6353
785	0.608
794	0.3036
803	0.673
812	0.6718
821	0.6587
830	0.6547
839	0.6479
848	0.6064
857	0.6593
866	0.6426
875	0.5925
884	0.5904
893	0.6193
902	0.4627
911	0.563
920	0.648
929	0.595
938	0.3567
947	0.6337
956	0.6676
965	0.6617
974	0.6489
983	0.6555
992	0.6431
1001	0.6204
1010	0.6231
1019	0.6165
1028	0.6206
1037	0.5611
1046	0.5754
1055	0.6063
1064	0.5909
1073	0.5591
1082	0.4197
1091	0.5204
1100	0.5107
1109	0.4841
1118	0.5779
1127	0.5704
1136	0.5346
1145	0.4121
1154	0.4424
1163	0.4276
1172	0.5667
1181	0.577
1190	0.5562
1199	0.5285
1208	0.5066
1217	0.4799
1226	0.4281
1235	0.3345
1244	0.2675
1253	0.2598
1262	0.1753
1271	0.0739
1280	0.0878
1289	0.3363
1298	0.4117
1307	0.3631
1316	0.2894
1325	0.1732
1334	0.0614
1343	0.0409
1352	0.2169
1361	0.3318
1370	0.2769
1379	0.4016
1388	0.5702
1397	0.5708
1406	0.4821
1415	0.3888
1424	0.379
1433	0.3363
1442	0.2388
1451	0.2701
1460	0.3032
1469	0.2515
1478	0.1191
1487	0.0922
1496	0.1052
1505	0.2023
1514	0.2872
1523	0.3486
1532	0.376
1541	0.3916
1550	0.3503
1559	0.2947
1568	0.2074
1577	0.2212
1586	0.2235
1595	0.2192
1604	0.227
1613	0.1903
1622	0.1504
1631	0.1084
1640	0.103
1649	0.1104
1658	0.2058
1667	0.3586
1676	0.4162
1685	0.4839
1694	0.5575
1703	0.5732
1712	0.6149
1721	0.6284
1730	0.6737
1739	0.6843
1748	0.6892
1757	0.6963
1766	0.7064
1775	0.7124
1784	0.7163
1793	0.7204
1802	0.7207
1811	0.7204
1820	0.7199
1829	0.7199
1838	0.7201
1847	0.7181
1856	0.7103
1865	0.699
1874	0.6897
1883	0.6943
1892	0.7051
1901	0.7127
1910	0.714
1919	0.714
1928	0.7135
1937	0.7124
1946	0.7098
1955	0.7058
1964	0.701
1973	0.6956
1982	0.691
1991	0.6866
2000	0.6831
2009	0.6797
2018	0.6773
2027	0.6761
2036	0.6748
2045	0.6753
2054	0.6759
2063	0.6744
2072	0.6723
2081	0.67
2090	0.6676
2099	0.6676
2108	0.6676
2117	0.6697
2126	0.6721
2135	0.6757
2144	0.6796
2153	0.6832
2162	0.6858
2171	0.6876
2180	0.6884
2189	0.6885
2198	0.687
2207	0.6856
2216	0.6826
2225	0.6792
2234	0.6764
2243	0.6741
2252	0.6723
2261	0.6714
2270	0.6706
2279	0.6697
2288	0.6691
2297	0.6684
2306	0.6679
2315	0.6672
2324	0.6671
2333	0.6671
2342	0.6671
2351	0.666
2360	0.664
2369	0.6592
2378	0.6535
2387	0.6473
2396	0.641
2405	0.6346
2414	0.6282
2423	0.6218
2432	0.6163
2441	0.6111
2450	0.606
2459	0.601
2468	0.596
2477	0.5906
2486	0.5849
2495	0.5797
2504	0.5756
2513	0.5713
2522	0.5662
2531	0.5613
2540	0.5571
2549	0.5529
2558	0.5492
2567	0.5468
2576	0.5443
2585	0.5423
2594	0.5402
2603	0.5366
2612	0.5314
2621	0.5255
2630	0.5195
2639	0.5133
2648	0.5069
2657	0.5009
2666	0.496
2675	0.4947
2684	0.4934
2693	0.4921
2702	0.4912
2711	0.4904
2720	0.4897
2729	0.4855
2738	0.4763
2747	0.4683
2756	0.4615
2765	0.4547
2774	0.4479
2783	0.4411
2792	0.4335
2801	0.4257
2810	0.4179
2819	0.4102
2828	0.4026
2837	0.3949
2846	0.3857
2855	0.3764
2864	0.3672
2873	0.3579
2882	0.3475
2891	0.3371
2900	0.3271
2909	0.3171
2918	0.3083
2927	0.2998
2936	0.2914
2945	0.2828
2954	0.2747
2963	0.2682
2972	0.2616
2981	0.2534
2990	0.2443
2999	0.2344
3008	0.2267
3017	0.2195
3026	0.2098
3035	0.2014
3044	0.1961
3053	0.1924
3062	0.1947
3071	0.1958
3080	0.1985
3089	0.2033
3098	0.2126
3107	0.2256
3116	0.2445
3125	0.2807
3134	0.314
3143	0.3462
3152	0.3784
3161	0.3934
3170	0.4143
3179	0.433
3188	0.453
3197	0.4814
3206	0.5025
3215	0.5159
3224	0.5271
3233	0.5384
3242	0.5503
3251	0.5609
3260	0.5672
3269	0.5737
3278	0.58
3287	0.5866
3296	0.5933
3305	0.5992
3314	0.6036
3323	0.6079
3332	0.6099
3341	0.6115
3350	0.6127
3359	0.6129
3368	0.613
3377	0.6132
3386	0.6129
3395	0.6122
3404	0.6116
3413	0.6109
3422	0.6105
3431	0.61
3440	0.6096
3449	0.6094
3458	0.6103
3467	0.6111
3476	0.6132
3485	0.6153
3494	0.6172
3503	0.6189
3512	0.6206
3521	0.6222
3530	0.6239
3539	0.6257
3548	0.6276
3557	0.6295
3566	0.6315
3575	0.6334
3584	0.6355
3593	0.6374
3602	0.6389
3611	0.6404
3620	0.6419
3629	0.6433
3638	0.6448
3647	0.6461
3656	0.6474
3665	0.6487
3674	0.6502
3683	0.6518
3692	0.6533
3701	0.6549
3710	0.6564
3719	0.6579
3728	0.6594
3737	0.6609
3746	0.6622
3755	0.6634
3764	0.6645
3773	0.6652
3782	0.6657
3791	0.6663
3800	0.6669
3809	0.6671
3818	0.6671
3827	0.6672
3836	0.6672
3845	0.6672
3854	0.6671
3863	0.6671
3872	0.6669
3881	0.6667
3890	0.6664
3899	0.6662
3908	0.6659
3917	0.6657
3926	0.6653
3935	0.6649
3944	0.6645
3953	0.6641
3962	0.6637
3971	0.6633
3980	0.6629
3989	0.6624
3998	0.6619
