Infrared Spectrum: POTASSIUM THIOCYANATE
Formula: K S C N
State: SOLID (NUJOL MULL)
Class: COBLENTZ
Instrument: Not specified, most likely a prism, grating, or hybrid spectrometer.
Sampling: TRANSMISSION
Resolution: 4
Origin: MELLON INSTITUTE
MICROMETERS	TRANSMITTANCE
2.016	0.686
2.05702	0.687
2.09804	0.691
2.13905	0.692
2.18007	0.696
2.22109	0.699
2.26211	0.703
2.30312	0.711
2.34414	0.713
2.38516	0.711
2.42618	0.711
2.4672	0.716
2.50821	0.72
2.54923	0.727
2.59025	0.734
2.63127	0.74
2.67228	0.737
2.7133	0.73
2.75432	0.708
2.79534	0.675
2.83635	0.644
2.87737	0.634
2.91839	0.624
2.95941	0.624
3.00043	0.627
3.04144	0.636
3.08246	0.644
3.12348	0.662
3.1645	0.691
3.20551	0.716
3.24653	0.735
3.28755	0.732
3.32857	0.636
3.36959	0.409
3.4106	0.432
3.45162	0.449
3.49264	0.535
3.53366	0.78
3.57467	0.84
3.61569	0.861
3.65671	0.874
3.69773	0.881
3.73874	0.885
3.77976	0.886
3.82078	0.89
3.8618	0.89
3.90282	0.891
3.94383	0.893
3.98485	0.895
4.02587	0.897
4.06689	0.897
4.1079	0.898
4.14892	0.898
4.18994	0.898
4.23096	0.897
4.27198	0.895
4.31299	0.895
4.35401	0.898
4.39503	0.898
4.43605	0.898
4.47706	0.9
4.51808	0.9
4.5591	0.902
4.60012	0.905
4.64113	0.907
4.68215	0.905
4.72317	0.902
4.76419	0.873
4.80521	0.782
4.84622	0.667
4.88724	0.554
4.92826	0.548
4.96928	0.552
5.01029	0.572
5.05131	0.583
5.09233	0.614
5.13335	0.648
5.17437	0.679
5.21538	0.704
5.2564	0.722
5.29742	0.74
5.33844	0.758
5.37945	0.768
5.42047	0.773
5.46149	0.778
5.50251	0.785
5.54352	0.795
5.58454	0.804
5.62556	0.813
5.66658	0.819
5.7076	0.825
5.74861	0.838
5.78963	0.843
5.83065	0.847
5.87167	0.847
5.91268	0.847
5.9537	0.842
5.99472	0.826
6.03574	0.801
6.07676	0.761
6.11777	0.73
6.15879	0.728
6.19981	0.785
6.24083	0.826
6.28184	0.843
6.32286	0.85
6.36388	0.855
6.4049	0.859
6.44591	0.869
6.48693	0.873
6.52795	0.874
6.56897	0.878
6.60999	0.881
6.651	0.881
6.69202	0.878
6.73304	0.857
6.77406	0.783
6.81507	0.696
6.85609	0.701
6.89711	0.747
6.93813	0.794
6.97915	0.826
7.02016	0.861
7.06118	0.879
7.1022	0.885
7.14322	0.873
7.18423	0.837
7.22525	0.799
7.26627	0.813
7.30729	0.843
7.3483	0.871
7.38932	0.885
7.43034	0.886
7.47136	0.89
7.51238	0.893
7.55339	0.897
7.59441	0.898
7.63543	0.898
7.67645	0.898
7.71746	0.898
7.75848	0.9
7.7995	0.9
7.84052	0.902
7.88154	0.903
7.92255	0.903
7.96357	0.903
8.00459	0.903
8.04561	0.907
8.08662	0.909
8.12764	0.914
8.16866	0.915
8.20968	0.915
8.25069	0.915
8.29171	0.917
8.33273	0.919
8.37375	0.919
8.41477	0.921
8.45578	0.921
8.4968	0.922
8.53782	0.922
8.57884	0.922
8.61985	0.922
8.66087	0.922
8.70189	0.921
8.74291	0.921
8.78393	0.922
8.82494	0.922
8.86596	0.926
8.90698	0.927
8.948	0.927
8.98901	0.927
9.03003	0.927
9.07105	0.927
9.11207	0.929
9.15308	0.931
9.1941	0.934
9.23512	0.934
9.27614	0.936
9.31716	0.938
9.35817	0.938
9.39919	0.938
9.44021	0.938
9.48123	0.939
9.52224	0.941
9.56326	0.943
9.60428	0.945
9.6453	0.946
9.68632	0.946
9.72733	0.946
9.76835	0.948
9.80937	0.948
9.85039	0.948
9.8914	0.948
9.93242	0.95
9.97344	0.95
10.0145	0.953
10.0555	0.955
10.0965	0.96
10.1375	0.96
10.1785	0.958
10.2195	0.955
10.2606	0.948
10.3016	0.934
10.3426	0.933
10.3836	0.933
10.4246	0.933
10.4657	0.933
10.5067	0.929
10.5477	0.926
10.5887	0.927
10.6297	0.931
10.6707	0.933
10.7118	0.933
10.7528	0.934
10.7938	0.936
10.8348	0.939
10.8758	0.945
10.9168	0.95
10.9579	0.951
10.9989	0.955
11.0399	0.957
11.0809	0.96
11.1219	0.962
11.163	0.965
11.204	0.969
11.245	0.97
11.286	0.97
11.327	0.972
11.368	0.974
11.4091	0.974
11.4501	0.974
11.4911	0.974
11.5321	0.974
11.5731	0.977
11.6141	0.977
11.6552	0.979
11.6962	0.982
11.7372	0.984
11.7782	0.987
11.8192	0.989
11.8603	0.989
11.9013	0.989
11.9423	0.991
11.9833	0.993
12.0243	0.994
12.0653	0.996
12.1064	0.998
12.1474	0.998
12.1884	1
12.2294	1.001
12.2704	1.001
12.3114	1.001
12.3525	1.001
12.3935	1.001
12.4345	1.001
12.4755	1.001
12.5165	1.001
12.5576	1.001
12.5986	1.001
12.6396	1
12.6806	0.998
12.7216	0.996
12.7626	0.993
12.8037	0.987
12.8447	0.982
12.8857	0.979
12.9267	0.975
12.9677	0.97
13.0088	0.962
13.0498	0.958
13.0908	0.958
13.1318	0.955
13.1728	0.95
13.2138	0.941
13.2549	0.903
13.2959	0.843
13.3369	0.807
13.3779	0.797
13.4189	0.799
13.4599	0.806
13.501	0.821
13.542	0.835
13.583	0.845
13.624	0.85
13.665	0.852
13.7061	0.852
13.7471	0.852
13.7881	0.85
13.8291	0.85
13.8701	0.85
13.9111	0.849
13.9522	0.847
13.9932	0.845
14.0342	0.84
14.0752	0.837
14.1162	0.831
14.1572	0.826
14.1983	0.821
14.2393	0.814
14.2803	0.806
14.3213	0.801
14.3623	0.792
14.4034	0.785
14.4444	0.782
14.4854	0.777
14.5264	0.773
14.5674	0.768
14.6084	0.761
14.6495	0.751
14.6905	0.742
14.7315	0.74
14.7725	0.737
14.8135	0.735
14.8545	0.73
14.8956	0.725
14.9366	0.722
14.9776	0.716
15.0186	0.713
15.0596	0.708
15.1007	0.703
15.1417	0.699
15.1827	0.696
15.2237	0.689
15.2647	0.686
15.3057	0.682
15.3468	0.679
15.3878	0.674
15.4288	0.67
15.4698	0.668
15.5108	0.665
15.5519	0.665
15.5929	0.663
15.6339	0.66
15.6749	0.66
15.7159	0.66
15.7569	0.658
15.798	0.658
15.839	0.662
15.88	0.663
15.921	0.662
15.962	0.663
