Infrared Spectrum: 1,2-PROPANEDIOL, 1-NITRATE-
Formula: C3 H5 N O4
State: LIQUID (NEAT)
Class: COBLENTZ III
Instrument: BAIRD (GRATING)
Instrument parameters: NaCl PRISM
Sampling: TRANSMISSION
Path length: CAPILLARY
Resolution: 2
Origin: WYANDOTTE CHEMICALS CORP.
1/CM	TRANSMITTANCE
4000	0.9627
3991	0.9631
3982	0.9634
3973	0.9638
3964	0.9643
3955	0.9644
3946	0.9628
3937	0.9604
3928	0.9591
3919	0.9578
3910	0.9573
3901	0.9571
3892	0.9573
3883	0.9575
3874	0.9578
3865	0.9581
3856	0.9577
3847	0.9566
3838	0.9551
3829	0.9518
3820	0.9481
3811	0.9431
3802	0.9373
3793	0.9305
3784	0.9237
3775	0.9174
3766	0.9112
3757	0.9025
3748	0.8935
3739	0.8831
3730	0.871
3721	0.8547
3712	0.8364
3703	0.8227
3694	0.8121
3685	0.7954
3676	0.7758
3667	0.7553
3658	0.7414
3649	0.7319
3640	0.7284
3631	0.7261
3622	0.7249
3613	0.7236
3604	0.7208
3595	0.714
3586	0.7021
3577	0.6919
3568	0.6765
3559	0.6589
3550	0.6411
3541	0.6235
3532	0.6057
3523	0.5877
3514	0.5621
3505	0.5501
3496	0.5409
3487	0.5301
3478	0.5178
3469	0.5053
3460	0.4924
3451	0.4759
3442	0.4641
3433	0.4559
3424	0.4473
3415	0.4379
3406	0.4316
3397	0.4253
3388	0.4206
3379	0.4173
3370	0.4144
3361	0.4116
3352	0.4103
3343	0.4109
3334	0.4154
3325	0.4351
3316	0.4559
3307	0.4769
3298	0.4979
3289	0.5191
3280	0.5403
3271	0.5618
3262	0.5833
3253	0.605
3244	0.6248
3235	0.64
3226	0.6681
3217	0.7021
3208	0.725
3199	0.7449
3190	0.7618
3181	0.7776
3172	0.7925
3163	0.8076
3154	0.8223
3145	0.8356
3136	0.8452
3127	0.8541
3118	0.8592
3109	0.8638
3100	0.8675
3091	0.8687
3082	0.8675
3073	0.8571
3064	0.8064
3055	0.7491
3046	0.6915
3037	0.6732
3028	0.6815
3019	0.6948
3010	0.6991
3001	0.6939
2992	0.6912
2983	0.6989
2974	0.7101
2965	0.7208
2956	0.7198
2947	0.7154
2938	0.7108
2929	0.7144
2920	0.7356
2911	0.7649
2902	0.7943
2893	0.8227
2884	0.8417
2875	0.8562
2866	0.8683
2857	0.8775
2848	0.8871
2839	0.8956
2830	0.9012
2821	0.9034
2812	0.9059
2803	0.9088
2794	0.9115
2785	0.9144
2776	0.9171
2767	0.92
2758	0.9228
2749	0.9256
2740	0.9284
2731	0.9307
2722	0.932
2713	0.9334
2704	0.9347
2695	0.9361
2686	0.9375
2677	0.9387
2668	0.9401
2659	0.9413
2650	0.9425
2641	0.9438
2632	0.9451
2623	0.9463
2614	0.9471
2605	0.9478
2596	0.9486
2587	0.9492
2578	0.95
2569	0.9505
2560	0.9509
2551	0.9515
2542	0.9518
2533	0.9521
2524	0.9521
2515	0.9518
2506	0.9515
2497	0.9517
2488	0.9518
2479	0.9524
2470	0.9533
2461	0.9541
2452	0.9555
2443	0.9568
2434	0.9578
2425	0.9585
2416	0.9585
2407	0.9581
2398	0.9561
2389	0.9496
2380	0.9457
2371	0.9548
2362	0.9678
2353	0.9767
2344	0.9825
2335	0.9871
2326	0.9892
2317	0.9892
2308	0.9839
2299	0.9796
2290	0.9763
2281	0.9733
2272	0.9716
2263	0.9706
2254	0.97
2245	0.9697
2236	0.9696
2227	0.9699
2218	0.9704
2209	0.971
2200	0.9717
2191	0.9721
2182	0.9707
2173	0.9695
2164	0.9685
2155	0.9682
2146	0.9682
2137	0.9687
2128	0.9693
2119	0.9701
2110	0.9709
2101	0.9715
2092	0.972
2083	0.9724
2074	0.9725
2065	0.9728
2056	0.9728
2047	0.9727
2038	0.9716
2029	0.9702
2020	0.968
2011	0.9656
2002	0.9637
1993	0.9644
1984	0.9659
1975	0.967
1966	0.9675
1957	0.9673
1948	0.9653
1939	0.9615
1930	0.9583
1921	0.956
1912	0.9555
1903	0.9553
1894	0.9563
1885	0.9568
1876	0.957
1867	0.9565
1858	0.9556
1849	0.9538
1840	0.9514
1831	0.9468
1822	0.9423
1813	0.9375
1804	0.9306
1795	0.9257
1786	0.9253
1777	0.9223
1768	0.9108
1759	0.8968
1750	0.8812
1741	0.8718
1732	0.8633
1723	0.8518
1714	0.8375
1705	0.8182
1696	0.7742
1687	0.6622
1678	0.445
1669	0.1796
1660	0.0587
1651	0.0459
1642	0.0628
1633	0.2238
1624	0.5776
1615	0.7272
1606	0.7748
1597	0.8041
1588	0.8199
1579	0.8289
1570	0.8375
1561	0.8488
1552	0.8518
1543	0.8504
1534	0.8448
1525	0.8462
1516	0.8456
1507	0.8209
1498	0.7769
1489	0.6987
1480	0.592
1471	0.5888
1462	0.6408
1453	0.6675
1444	0.6647
1435	0.6832
1426	0.6911
1417	0.6842
1408	0.6386
1399	0.5552
1390	0.6295
1381	0.6789
1372	0.6774
1363	0.637
1354	0.6169
1345	0.6281
1336	0.6309
1327	0.6276
1318	0.5734
1309	0.4416
1300	0.2087
1291	0.0469
1282	0.0916
1273	0.4586
1264	0.6058
1255	0.6584
1246	0.7105
1237	0.7575
1228	0.8015
1219	0.837
1210	0.8575
1201	0.8696
1192	0.8756
1183	0.8693
1174	0.8459
1165	0.7168
1156	0.6444
1147	0.6217
1138	0.678
1129	0.694
1120	0.6787
1111	0.7043
1102	0.7006
1093	0.6253
1084	0.5022
1075	0.458
1066	0.4274
1057	0.3553
1048	0.3989
1039	0.6896
1030	0.7795
1021	0.7718
1012	0.6137
1003	0.4377
994	0.4933
985	0.6853
976	0.6986
967	0.7447
958	0.7435
949	0.7338
940	0.6817
931	0.6044
922	0.5501
913	0.3684
904	0.304
895	0.2622
886	0.1596
877	0.1796
868	0.222
859	0.207
850	0.2793
841	0.4878
832	0.6508
823	0.7724
814	0.8101
805	0.8307
796	0.8414
787	0.8368
778	0.8207
769	0.7681
760	0.5676
751	0.7138
742	0.7731
733	0.7341
724	0.7318
715	0.6914
706	0.6053
697	0.6339
688	0.7008
679	0.7248
670	0.7238
661	0.7265
652	0.7251
643	0.7221
634	0.7307
