Infrared Spectrum: 2-PROPANE SULFONIC ACID, SODIUM SALT
Formula: C3 H7 O3 S Na
State: SOLID (MINERAL OIL MULL)
Class: COBLENTZ
Instrument: Not specified, most likely a prism, grating, or hybrid spectrometer.
Sampling: TRANSMISSION
Resolution: 4
Origin: WYANDOTTE CHEMICALS CORP., WYANDOTTE, MICHIGAN, USA
MICROMETERS	TRANSMITTANCE
2.041	0.81
2.08181	0.824
2.12263	0.831
2.16344	0.836
2.20426	0.831
2.24507	0.822
2.28589	0.816
2.3267	0.812
2.36752	0.807
2.40833	0.802
2.44915	0.8
2.48996	0.79
2.53078	0.792
2.57159	0.792
2.6124	0.776
2.65322	0.749
2.69403	0.643
2.73485	0.403
2.77566	0.274
2.81648	0.177
2.85729	0.19
2.89811	0.357
2.93892	0.477
2.97974	0.577
3.02055	0.689
3.06137	0.752
3.10218	0.776
3.14299	0.77
3.18381	0.785
3.22462	0.81
3.26544	0.812
3.30625	0.712
3.34707	0.325
3.38788	0.132
3.4287	0.071
3.46951	0.054
3.51033	0.052
3.55114	0.19
3.59196	0.465
3.63277	0.618
3.67358	0.703
3.7144	0.735
3.75521	0.763
3.79603	0.785
3.83684	0.805
3.87766	0.826
3.91847	0.843
3.95929	0.863
4.0001	0.877
4.04092	0.889
4.08173	0.897
4.12255	0.901
4.16336	0.901
4.20417	0.901
4.24499	0.894
4.2858	0.879
4.32662	0.889
4.36743	0.897
4.40825	0.906
4.44906	0.918
4.48988	0.909
4.53069	0.887
4.57151	0.889
4.61232	0.885
4.65314	0.88
4.69395	0.902
4.73476	0.93
4.77558	0.943
4.81639	0.943
4.85721	0.938
4.89802	0.936
4.93884	0.935
4.97965	0.931
5.02047	0.926
5.06128	0.919
5.1021	0.911
5.14291	0.901
5.18373	0.901
5.22454	0.902
5.26535	0.909
5.30617	0.923
5.34698	0.931
5.3878	0.935
5.42861	0.933
5.46943	0.926
5.51024	0.921
5.55106	0.931
5.59187	0.923
5.63269	0.916
5.6735	0.902
5.71432	0.88
5.75513	0.844
5.79595	0.812
5.83676	0.783
5.87757	0.739
5.91839	0.689
5.9592	0.649
6.00002	0.572
6.04083	0.465
6.08165	0.286
6.12246	0.105
6.16328	0.086
6.20409	0.27
6.24491	0.541
6.28572	0.664
6.32654	0.73
6.36735	0.749
6.40816	0.773
6.44898	0.785
6.48979	0.792
6.53061	0.788
6.57142	0.783
6.61224	0.763
6.65305	0.749
6.69387	0.695
6.73468	0.56
6.7755	0.291
6.81631	0.081
6.85713	0.109
6.89794	0.165
6.93875	0.298
6.97957	0.495
7.02038	0.57
7.0612	0.599
7.10201	0.609
7.14283	0.575
7.18364	0.431
7.22446	0.379
7.26527	0.267
7.30609	0.241
7.3469	0.398
7.38772	0.458
7.42853	0.458
7.46934	0.444
7.51016	0.429
7.55097	0.398
7.59179	0.376
7.6326	0.333
7.67342	0.291
7.71423	0.231
7.75505	0.141
7.79586	0.103
7.83668	0.158
7.87749	0.209
7.91831	0.187
7.95912	0.155
7.99993	0.107
8.04075	0.073
8.08156	0.057
8.12238	0.045
8.16319	0.035
8.20401	0.03
8.24482	0.023
8.28564	0.023
8.32645	0.027
8.36727	0.022
8.40808	0.025
8.4489	0.027
8.48971	0.028
8.53052	0.028
8.57134	0.025
8.61215	0.022
8.65297	0.025
8.69378	0.025
8.7346	0.022
8.77541	0.022
8.81623	0.022
8.85704	0.027
8.89786	0.035
8.93867	0.032
8.97949	0.032
9.0203	0.044
9.06111	0.051
9.10193	0.056
9.14274	0.059
9.18356	0.059
9.22437	0.057
9.26519	0.056
9.306	0.047
9.34682	0.042
9.38763	0.039
9.42845	0.039
9.46926	0.037
9.51008	0.03
9.55089	0.027
9.5917	0.027
9.63252	0.027
9.67333	0.027
9.71415	0.04
9.75496	0.069
9.79578	0.109
9.83659	0.17
9.87741	0.231
9.91822	0.296
9.95904	0.357
9.99985	0.407
10.0407	0.437
10.0815	0.47
10.1223	0.49
10.1631	0.502
10.2039	0.521
10.2447	0.528
10.2856	0.528
10.3264	0.528
10.3672	0.519
10.408	0.531
10.4488	0.567
10.4896	0.592
10.5304	0.611
10.5713	0.621
10.6121	0.632
10.6529	0.637
10.6937	0.626
10.7345	0.608
10.7753	0.62
10.8161	0.643
10.857	0.657
10.8978	0.683
10.9386	0.698
10.9794	0.703
11.0202	0.718
11.061	0.722
11.1018	0.722
11.1427	0.705
11.1835	0.672
11.2243	0.63
11.2651	0.632
11.3059	0.679
11.3467	0.727
11.3875	0.758
11.4284	0.764
11.4692	0.778
11.51	0.787
11.5508	0.787
11.5916	0.793
11.6324	0.798
11.6733	0.804
11.7141	0.805
11.7549	0.805
11.7957	0.802
11.8365	0.802
11.8773	0.802
11.9181	0.805
11.959	0.807
11.9998	0.807
12.0406	0.807
12.0814	0.807
12.1222	0.807
12.163	0.809
12.2038	0.809
12.2447	0.807
12.2855	0.802
12.3263	0.797
12.3671	0.792
12.4079	0.787
12.4487	0.78
12.4895	0.775
12.5304	0.763
12.5712	0.759
12.612	0.758
12.6528	0.751
12.6936	0.744
12.7344	0.737
12.7752	0.722
12.8161	0.72
12.8569	0.71
12.8977	0.701
12.9385	0.688
12.9793	0.683
13.0201	0.672
13.0609	0.657
13.1018	0.64
13.1426	0.63
13.1834	0.62
13.2242	0.603
13.265	0.579
13.3058	0.551
13.3466	0.529
13.3875	0.502
13.4283	0.458
13.4691	0.42
13.5099	0.383
13.5507	0.332
13.5915	0.282
13.6324	0.226
13.6732	0.16
13.714	0.105
13.7548	0.074
13.7956	0.063
13.8364	0.059
13.8772	0.057
13.9181	0.061
13.9589	0.083
13.9997	0.109
14.0405	0.141
14.0813	0.195
14.1221	0.253
14.1629	0.332
14.2038	0.425
14.2446	0.495
14.2854	0.551
14.3262	0.597
14.367	0.635
14.4078	0.657
14.4486	0.695
14.4895	0.708
14.5303	0.715
14.5711	0.725
14.6119	0.735
14.6527	0.735
14.6935	0.734
14.7343	0.734
14.7752	0.729
14.816	0.727
14.8568	0.72
14.8976	0.718
14.9384	0.715
14.9792	0.715
15.02	0.696
15.0609	0.691
15.1017	0.679
15.1425	0.676
15.1833	0.669
15.2241	0.66
15.2649	0.652
15.3058	0.642
15.3466	0.638
15.3874	0.637
15.4282	0.628
15.469	0.626
15.5098	0.621
15.5506	0.616
15.5915	0.603
15.6323	0.599
15.6731	0.596
15.7139	0.591
15.7547	0.586
15.7955	0.577
15.8363	0.574
15.8772	0.572
15.918	0.567
15.9588	0.56
15.9996	0.56
