Infrared Spectrum: Phenol, p-(2-aminopropyl)-, hydrobromide
Formula: C9 H14 Br N O
State: SOLID (SPLIT MULL), FLUOROLUBE FOR 3800-1330 CM^-^1, NUJOL FOR 1330-400 CM^-^1
Class: COBLENTZ III
Instrument: DOW KBr FOREPRISM-GRATING
Instrument parameters: BLAZED AT 3.5, 12.0, 20.0 MICRON AND CHANGED AT 5.0, 7.5, 14.9 MICRON
Sampling: TRANSMISSION
Resolution: 2
Origin: DOW CHEMICAL COMPANY
1/CM	TRANSMITTANCE
381	0.5675
390	0.5733
399	0.5735
408	0.572
417	0.5697
426	0.5679
435	0.5438
444	0.5301
453	0.6387
462	0.6549
471	0.6607
480	0.6631
489	0.6574
498	0.655
507	0.6183
516	0.4276
525	0.5472
534	0.5379
543	0.504
552	0.4553
561	0.1319
570	0.358
579	0.4619
588	0.5832
597	0.6499
606	0.7048
615	0.7484
624	0.7751
633	0.7947
642	0.7932
651	0.8342
660	0.8437
669	0.8589
678	0.8637
687	0.8714
696	0.8675
705	0.8487
714	0.6692
723	0.7556
732	0.7968
741	0.8266
750	0.846
759	0.8453
768	0.7926
777	0.3774
786	0.4985
795	0.7984
804	0.4032
813	0.3888
822	0.7585
831	0.7565
840	0.4551
849	0.2127
858	0.5515
867	0.795
876	0.8135
885	0.768
894	0.7772
903	0.8082
912	0.7948
921	0.748
930	0.7664
939	0.6554
948	0.763
957	0.7224
966	0.4338
975	0.671
984	0.7558
993	0.7419
1002	0.5889
1011	0.7521
1020	0.7554
1029	0.7547
1038	0.7497
1047	0.7424
1056	0.721
1065	0.663
1074	0.4149
1083	0.5964
1092	0.6487
1101	0.2594
1110	0.6253
1119	0.4382
1128	0.4479
1137	0.6635
1146	0.6642
1155	0.6381
1164	0.6065
1173	0.5172
1182	0.1744
1191	0.3151
1200	0.0861
1209	0.0516
1218	0.0906
1227	0.2962
1236	0.1646
1245	0.3249
1254	0.2032
1263	0.1813
1272	0.5112
1281	0.6348
1290	0.6008
1299	0.639
1308	0.5644
1317	0.5342
1326	0.611
1335	0.5912
1344	0.5402
1353	0.5996
1362	0.6338
1371	0.6154
1380	0.6662
1389	0.4905
1398	0.7041
1407	0.6996
1416	0.6811
1425	0.6542
1434	0.6056
1443	0.473
1452	0.5726
1461	0.631
1470	0.5929
1479	0.4708
1488	0.1708
1497	0.3203
1506	0.5752
1515	0.2723
1524	0.6633
1533	0.7537
1542	0.7521
1551	0.7475
1560	0.7378
1569	0.7118
1578	0.6719
1587	0.6055
1596	0.473
1605	0.5467
1614	0.3966
1623	0.7099
1632	0.7536
1641	0.7595
1650	0.7611
1659	0.7578
1668	0.7558
1677	0.7593
1686	0.7618
1695	0.7617
1704	0.7614
1713	0.7597
1722	0.7578
1731	0.7556
1740	0.7534
1749	0.7508
1758	0.7467
1767	0.7376
1776	0.73
1785	0.7294
1794	0.7308
1803	0.7335
1812	0.7353
1821	0.7365
1830	0.7344
1839	0.7292
1848	0.723
1857	0.7168
1866	0.7106
1875	0.7035
1884	0.6958
1893	0.6969
1902	0.6951
1911	0.685
1920	0.6814
1929	0.6728
1938	0.6782
1947	0.675
1956	0.6718
1965	0.6785
1974	0.6835
1983	0.6841
1992	0.6976
2001	0.72
2010	0.7258
2019	0.7257
2028	0.7225
2037	0.7204
2046	0.7214
2055	0.7212
2064	0.7211
2073	0.7219
2082	0.7203
2091	0.7164
2100	0.7134
2109	0.7119
2118	0.7115
2127	0.7112
2136	0.7104
2145	0.7084
2154	0.7057
2163	0.7017
2172	0.6968
2181	0.6921
2190	0.6881
2199	0.6851
2208	0.6854
2217	0.6818
2226	0.6775
2235	0.6725
2244	0.6693
2253	0.6661
2262	0.6631
2271	0.6592
2280	0.656
2289	0.6528
2298	0.649
2307	0.6446
2316	0.6379
2325	0.6342
2334	0.6331
2343	0.6332
2352	0.634
2361	0.6336
2370	0.6319
2379	0.6281
2388	0.6229
2397	0.6172
2406	0.6117
2415	0.6108
2424	0.6117
2433	0.6068
2442	0.59
2451	0.5782
2460	0.5937
2469	0.5915
2478	0.5762
2487	0.5805
2496	0.6058
2505	0.6039
2514	0.6014
2523	0.5985
2532	0.5936
2541	0.5842
2550	0.5701
2559	0.5532
2568	0.5422
2577	0.5445
2586	0.5707
2595	0.5719
2604	0.5705
2613	0.5747
2622	0.5816
2631	0.5765
2640	0.568
2649	0.5604
2658	0.5506
2667	0.5314
2676	0.5272
2685	0.5348
2694	0.5368
2703	0.5292
2712	0.5209
2721	0.5184
2730	0.5184
2739	0.5101
2748	0.4988
2757	0.4807
2766	0.4625
2775	0.4481
2784	0.4467
2793	0.4412
2802	0.4274
2811	0.424
2820	0.4214
2829	0.4058
2838	0.3872
2847	0.3666
2856	0.3456
2865	0.3236
2874	0.3018
2883	0.2812
2892	0.2564
2901	0.2162
2910	0.1804
2919	0.1654
2928	0.1794
2937	0.1932
2946	0.2249
2955	0.2378
2964	0.2262
2973	0.2028
2982	0.1792
2991	0.1671
3000	0.1731
3009	0.1841
3018	0.1981
3027	0.2653
3036	0.3122
3045	0.352
3054	0.3862
3063	0.3966
3072	0.403
3081	0.4073
3090	0.4114
3099	0.4082
3108	0.3977
3117	0.3768
3126	0.3484
3135	0.3196
3144	0.2952
3153	0.3408
3162	0.3882
3171	0.4114
3180	0.4162
3189	0.4095
3198	0.4172
3207	0.4092
3216	0.4305
3225	0.4553
3234	0.4594
3243	0.4518
3252	0.4397
3261	0.4252
3270	0.4112
3279	0.397
3288	0.3828
3297	0.3682
3306	0.3528
3315	0.3364
3324	0.3225
3333	0.308
3342	0.3084
3351	0.3139
3360	0.3289
3369	0.356
3378	0.3889
3387	0.4132
3396	0.4357
3405	0.4632
3414	0.487
3423	0.5042
3432	0.5119
3441	0.5146
3450	0.5185
3459	0.5229
3468	0.5302
3477	0.5384
3486	0.5475
3495	0.5552
3504	0.5605
3513	0.5631
3522	0.5646
3531	0.5646
3540	0.5643
3549	0.5634
3558	0.5623
3567	0.5609
3576	0.5589
3585	0.5568
3594	0.5548
3603	0.553
3612	0.5512
3621	0.5495
3630	0.5478
3639	0.5458
3648	0.5437
3657	0.5415
3666	0.5394
3675	0.5372
3684	0.5353
3693	0.5333
3702	0.5314
3711	0.5295
3720	0.5285
3729	0.5273
3738	0.5262
3747	0.5251
3756	0.5241
3765	0.523
3774	0.522
3783	0.5209
