Infrared Spectrum: 2,2'-DIHYDROXYAZONAPHTHALENE-4-SULFONIC ACID, ZINC SALT
Formula: C40 H26 N4 O10 S2 Zn
State: SOLID (MINERAL OIL MULL)
Class: COBLENTZ
Instrument: Not specified, most likely a prism, grating, or hybrid spectrometer.
Sampling: TRANSMISSION
Resolution: 4
Origin: WYANDOTTE CHEMICALS CORP., WYANDOTTE, MICHIGAN, USA
MICROMETERS	TRANSMITTANCE
2.027	0.201
2.06784	0.203
2.10868	0.213
2.14951	0.223
2.19035	0.23
2.23119	0.232
2.27203	0.237
2.31287	0.244
2.3537	0.262
2.39454	0.273
2.43538	0.281
2.47622	0.293
2.51706	0.302
2.55789	0.32
2.59873	0.327
2.63957	0.346
2.68041	0.358
2.72125	0.349
2.76208	0.325
2.80292	0.291
2.84376	0.264
2.8846	0.249
2.92544	0.24
2.96627	0.233
3.00711	0.232
3.04795	0.237
3.08879	0.252
3.12963	0.255
3.17046	0.264
3.2113	0.271
3.25214	0.271
3.29298	0.25
3.33382	0.191
3.37465	0.037
3.41549	0.023
3.45633	0.049
3.49717	0.058
3.53801	0.201
3.57885	0.436
3.61968	0.469
3.66052	0.476
3.70136	0.472
3.7422	0.481
3.78304	0.491
3.82387	0.505
3.86471	0.515
3.90555	0.529
3.94639	0.535
3.98723	0.544
4.02806	0.552
4.0689	0.564
4.10974	0.569
4.15058	0.578
4.19142	0.585
4.23225	0.588
4.27309	0.568
4.31393	0.59
4.35477	0.612
4.39561	0.636
4.43644	0.641
4.47728	0.641
4.51812	0.645
4.55896	0.65
4.5998	0.658
4.64063	0.662
4.68147	0.663
4.72231	0.679
4.76315	0.679
4.80399	0.648
4.84482	0.675
4.88566	0.708
4.9265	0.716
4.96734	0.723
5.00818	0.737
5.04901	0.742
5.08985	0.749
5.13069	0.755
5.17153	0.764
5.21237	0.778
5.2532	0.779
5.29404	0.79
5.33488	0.802
5.37572	0.81
5.41656	0.825
5.45739	0.822
5.49823	0.829
5.53907	0.836
5.57991	0.836
5.62075	0.853
5.66158	0.86
5.70242	0.863
5.74326	0.863
5.7841	0.877
5.82494	0.873
5.86577	0.848
5.90661	0.829
5.94745	0.793
5.98829	0.755
6.02913	0.713
6.06996	0.696
6.1108	0.662
6.15164	0.556
6.19248	0.581
6.23332	0.47
6.27416	0.493
6.31499	0.58
6.35583	0.59
6.39667	0.489
6.43751	0.452
6.47835	0.583
6.51918	0.619
6.56002	0.634
6.60086	0.51
6.6417	0.476
6.68254	0.556
6.72337	0.525
6.76421	0.36
6.80505	0.134
6.84589	0.158
6.88673	0.244
6.92756	0.303
6.9684	0.392
7.00924	0.452
7.05008	0.479
7.09092	0.469
7.13175	0.474
7.17259	0.518
7.21343	0.441
7.25427	0.329
7.29511	0.414
7.33594	0.522
7.37678	0.54
7.41762	0.515
7.45846	0.51
7.4993	0.53
7.54013	0.585
7.58097	0.607
7.62181	0.61
7.66265	0.627
7.70349	0.617
7.74432	0.556
7.78516	0.5
7.826	0.479
7.86684	0.568
7.90768	0.598
7.94851	0.501
7.98935	0.424
8.03019	0.412
8.07103	0.404
8.11187	0.373
8.1527	0.339
8.19354	0.3
8.23438	0.273
8.27522	0.276
8.31606	0.271
8.35689	0.254
8.39773	0.24
8.43857	0.235
8.47941	0.23
8.52025	0.233
8.56108	0.245
8.60192	0.257
8.64276	0.271
8.6836	0.257
8.72444	0.257
8.76527	0.269
8.80611	0.313
8.84695	0.336
8.88779	0.351
8.92863	0.378
8.96947	0.401
9.0103	0.441
9.05114	0.47
9.09198	0.52
9.13282	0.564
9.17366	0.598
9.21449	0.633
9.25533	0.658
9.29617	0.636
9.33701	0.542
9.37785	0.43
9.41868	0.283
9.45952	0.226
9.50036	0.187
9.5412	0.186
9.58204	0.262
9.62287	0.356
9.66371	0.46
9.70455	0.571
9.74539	0.634
9.78623	0.66
9.82706	0.665
9.8679	0.648
9.90874	0.658
9.94958	0.72
9.99042	0.766
10.0313	0.779
10.0721	0.767
10.1129	0.735
10.1538	0.706
10.1946	0.703
10.2354	0.706
10.2763	0.737
10.3171	0.781
10.358	0.807
10.3988	0.832
10.4396	0.843
10.4805	0.858
10.5213	0.863
10.5621	0.872
10.603	0.87
10.6438	0.873
10.6847	0.88
10.7255	0.901
10.7663	0.926
10.8072	0.94
10.848	0.941
10.8889	0.947
10.9297	0.95
10.9705	0.952
11.0114	0.955
11.0522	0.953
11.093	0.938
11.1339	0.938
11.1747	0.919
11.2156	0.906
11.2564	0.894
11.2972	0.89
11.3381	0.885
11.3789	0.878
11.4197	0.897
11.4606	0.93
11.5014	0.928
11.5423	0.93
11.5831	0.928
11.6239	0.923
11.6648	0.93
11.7056	0.935
11.7465	0.938
11.7873	0.943
11.8281	0.945
11.869	0.943
11.9098	0.936
11.9506	0.923
11.9915	0.902
12.0323	0.858
12.0732	0.807
12.114	0.762
12.1548	0.74
12.1957	0.723
12.2365	0.726
12.2773	0.737
12.3182	0.776
12.359	0.802
12.3999	0.848
12.4407	0.873
12.4815	0.897
12.5224	0.918
12.5632	0.928
12.604	0.923
12.6449	0.923
12.6857	0.923
12.7266	0.901
12.7674	0.868
12.8082	0.831
12.8491	0.808
12.8899	0.776
12.9308	0.769
12.9716	0.759
13.0124	0.738
13.0533	0.737
13.0941	0.735
13.1349	0.718
13.1758	0.699
13.2166	0.677
13.2575	0.65
13.2983	0.626
13.3391	0.6
13.38	0.581
13.4208	0.569
13.4616	0.554
13.5025	0.554
13.5433	0.578
13.5842	0.638
13.625	0.704
13.6658	0.744
13.7067	0.766
13.7475	0.779
13.7884	0.781
13.8292	0.778
13.87	0.767
13.9109	0.767
13.9517	0.773
13.9925	0.781
14.0334	0.784
14.0742	0.786
14.1151	0.79
14.1559	0.802
14.1967	0.808
14.2376	0.808
14.2784	0.805
14.3192	0.802
14.3601	0.798
14.4009	0.796
14.4418	0.796
14.4826	0.795
14.5234	0.783
14.5643	0.774
14.6051	0.766
14.646	0.75
14.6868	0.732
14.7276	0.704
14.7685	0.687
14.8093	0.67
14.8501	0.639
14.891	0.61
14.9318	0.578
14.9727	0.534
15.0135	0.493
15.0543	0.445
15.0952	0.407
15.136	0.395
15.1768	0.392
15.2177	0.389
15.2585	0.389
15.2994	0.401
15.3402	0.411
15.381	0.421
15.4219	0.428
15.4627	0.433
15.5035	0.428
15.5444	0.426
15.5852	0.421
15.6261	0.414
15.6669	0.406
15.7077	0.397
15.7486	0.397
15.7894	0.387
15.8303	0.389
15.8711	0.383
15.9119	0.375
15.9528	0.37
