Infrared Spectrum: BISMUTH OXALATE
Formula: Bi2 ( C2 O4)3
State: SOLID (KBr DISC)
Class: COBLENTZ
Instrument: Not specified, most likely a prism, grating, or hybrid spectrometer.
Sampling: TRANSMISSION
Resolution: 4
MICROMETERS	TRANSMITTANCE
2.041	0.456
2.07882	0.46
2.11663	0.469
2.15445	0.472
2.19226	0.475
2.23008	0.48
2.26789	0.487
2.30571	0.493
2.34353	0.497
2.38134	0.505
2.41916	0.513
2.45697	0.518
2.49479	0.524
2.53261	0.528
2.57042	0.533
2.60824	0.543
2.64605	0.555
2.68387	0.561
2.72168	0.572
2.7595	0.584
2.79732	0.586
2.83513	0.539
2.87295	0.477
2.91076	0.425
2.94858	0.397
2.98639	0.378
3.02421	0.381
3.06203	0.393
3.09984	0.409
3.13766	0.422
3.17547	0.435
3.21329	0.441
3.2511	0.449
3.28892	0.453
3.32674	0.465
3.36455	0.474
3.40237	0.475
3.44018	0.481
3.478	0.487
3.51582	0.496
3.55363	0.508
3.59145	0.519
3.62926	0.528
3.66708	0.536
3.70489	0.543
3.74271	0.549
3.78053	0.556
3.81834	0.561
3.85616	0.567
3.89397	0.569
3.93179	0.574
3.9696	0.581
4.00742	0.584
4.04524	0.587
4.08305	0.592
4.12087	0.596
4.15868	0.599
4.1965	0.602
4.23431	0.603
4.27213	0.603
4.30995	0.603
4.34776	0.608
4.38558	0.615
4.42339	0.621
4.46121	0.627
4.49903	0.633
4.53684	0.639
4.57466	0.643
4.61247	0.652
4.65029	0.659
4.6881	0.664
4.72592	0.668
4.76374	0.677
4.80155	0.681
4.83937	0.69
4.87718	0.703
4.915	0.712
4.95281	0.721
4.99063	0.733
5.02845	0.74
5.06626	0.758
5.10408	0.77
5.14189	0.779
5.17971	0.784
5.21753	0.789
5.25534	0.793
5.29316	0.796
5.33097	0.807
5.36879	0.821
5.4066	0.824
5.44442	0.824
5.48224	0.821
5.52005	0.808
5.55787	0.784
5.59568	0.758
5.6335	0.73
5.67131	0.698
5.70913	0.664
5.74695	0.624
5.78476	0.577
5.82258	0.541
5.86039	0.499
5.89821	0.421
5.93602	0.381
5.97384	0.346
6.01166	0.326
6.04947	0.31
6.08729	0.294
6.1251	0.278
6.16292	0.266
6.20074	0.254
6.23855	0.253
6.27637	0.253
6.31418	0.266
6.352	0.294
6.38981	0.319
6.42763	0.347
6.46545	0.365
6.50326	0.384
6.54108	0.409
6.57889	0.424
6.61671	0.437
6.65452	0.452
6.69234	0.466
6.73016	0.48
6.76797	0.487
6.80579	0.493
6.8436	0.478
6.88142	0.477
6.91923	0.477
6.95705	0.481
6.99487	0.49
7.03268	0.497
7.0705	0.509
7.10831	0.521
7.14613	0.527
7.18395	0.536
7.22176	0.549
7.25958	0.559
7.29739	0.564
7.33521	0.562
7.37302	0.561
7.41084	0.55
7.44866	0.544
7.48647	0.544
7.52429	0.543
7.5621	0.536
7.59992	0.5
7.63773	0.462
7.67555	0.45
7.71337	0.45
7.75118	0.458
7.789	0.475
7.82681	0.49
7.86463	0.506
7.90244	0.518
7.94026	0.53
7.97808	0.536
8.01589	0.543
8.05371	0.549
8.09152	0.553
8.12934	0.555
8.16716	0.558
8.20497	0.558
8.24279	0.562
8.2806	0.565
8.31842	0.568
8.35623	0.571
8.39405	0.574
8.43187	0.578
8.46968	0.584
8.5075	0.586
8.54531	0.587
8.58313	0.589
8.62094	0.592
8.65876	0.593
8.69658	0.594
8.73439	0.597
8.77221	0.599
8.81002	0.602
8.84784	0.605
8.88566	0.605
8.92347	0.606
8.96129	0.608
8.9991	0.609
9.03692	0.611
9.07473	0.612
9.11255	0.615
9.15037	0.617
9.18818	0.62
9.226	0.622
9.26381	0.624
9.30163	0.627
9.33944	0.627
9.37726	0.628
9.41508	0.633
9.45289	0.637
9.49071	0.639
9.52852	0.64
9.56634	0.645
9.60415	0.649
9.64197	0.652
9.67979	0.653
9.7176	0.658
9.75542	0.665
9.79323	0.667
9.83105	0.668
9.86887	0.671
9.90668	0.674
9.9445	0.678
9.98231	0.678
10.0201	0.683
10.0579	0.687
10.0958	0.693
10.1336	0.696
10.1714	0.698
10.2092	0.699
10.247	0.703
10.2848	0.706
10.3227	0.709
10.3605	0.714
10.3983	0.718
10.4361	0.721
10.4739	0.724
10.5117	0.726
10.5495	0.729
10.5874	0.731
10.6252	0.733
10.663	0.736
10.7008	0.737
10.7386	0.742
10.7764	0.745
10.8143	0.748
10.8521	0.751
10.8899	0.752
10.9277	0.756
10.9655	0.758
11.0033	0.759
11.0412	0.761
11.079	0.761
11.1168	0.761
11.1546	0.761
11.1924	0.761
11.2302	0.761
11.268	0.762
11.3059	0.764
11.3437	0.764
11.3815	0.764
11.4193	0.765
11.4571	0.767
11.4949	0.767
11.5328	0.767
11.5706	0.767
11.6084	0.765
11.6462	0.761
11.684	0.756
11.7218	0.752
11.7597	0.751
11.7975	0.748
11.8353	0.743
11.8731	0.736
11.9109	0.727
11.9487	0.72
11.9865	0.712
12.0244	0.705
12.0622	0.698
12.1	0.689
12.1378	0.68
12.1756	0.668
12.2134	0.662
12.2513	0.652
12.2891	0.637
12.3269	0.631
12.3647	0.621
12.4025	0.609
12.4403	0.597
12.4782	0.58
12.516	0.556
12.5538	0.536
12.5916	0.522
12.6294	0.513
12.6672	0.515
12.705	0.534
12.7429	0.549
12.7807	0.564
12.8185	0.58
12.8563	0.593
12.8941	0.608
12.9319	0.612
12.9698	0.621
13.0076	0.628
13.0454	0.633
13.0832	0.639
13.121	0.639
13.1588	0.642
13.1967	0.649
13.2345	0.649
13.2723	0.65
13.3101	0.652
13.3479	0.653
13.3857	0.655
13.4235	0.656
13.4614	0.655
13.4992	0.655
13.537	0.653
13.5748	0.653
13.6126	0.655
13.6504	0.655
13.6883	0.656
13.7261	0.656
13.7639	0.656
13.8017	0.653
13.8395	0.652
13.8773	0.652
13.9152	0.652
13.953	0.652
13.9908	0.65
14.0286	0.65
14.0664	0.649
14.1042	0.648
14.142	0.648
14.1799	0.646
14.2177	0.646
14.2555	0.648
14.2933	0.645
14.3311	0.645
14.3689	0.645
14.4068	0.645
14.4446	0.645
14.4824	0.643
14.5202	0.645
14.558	0.643
14.5958	0.64
14.6337	0.639
14.6715	0.637
14.7093	0.636
14.7471	0.634
14.7849	0.634
14.8227	0.631
14.8605	0.631
14.8984	0.633
14.9362	0.63
14.974	0.625
15.0118	0.627
