Infrared Spectrum: Acetic acid, (ethylenedinitrilo)-tetra-, cerium sodium salt, hydrate
Formula: C10 H12 Ce Na N2 O8  * 8 H2 O
State: SOLID (SPLIT MULL)
Class: COBLENTZ III
Instrument: DOW KBr FOREPRISM-GRATING
Instrument parameters: BLAZED AT 3.5, 12.0, 20.0 MICRON AND CHANGED AT 5.0, 7.5, 14.9 MICRON
Sampling: TRANSMISSION
Resolution: 2
Origin: DOW CHEMICAL COMPANY
1/CM	TRANSMITTANCE
458	0.5211
467	0.5204
476	0.5035
485	0.4795
494	0.4564
503	0.4277
512	0.4201
521	0.418
530	0.4191
539	0.4224
548	0.4257
557	0.4172
566	0.4002
575	0.3789
584	0.3573
593	0.3323
602	0.3335
611	0.3255
620	0.2949
629	0.3035
638	0.2909
647	0.2783
656	0.2812
665	0.3163
674	0.3539
683	0.3479
692	0.3284
701	0.2982
710	0.256
719	0.2012
728	0.1933
737	0.224
746	0.3037
755	0.3737
764	0.4518
773	0.5179
782	0.5695
791	0.605
800	0.6372
809	0.6206
818	0.5434
827	0.6272
836	0.7037
845	0.6742
854	0.5798
863	0.5974
872	0.6392
881	0.5943
890	0.7622
899	0.8395
908	0.7216
917	0.3639
926	0.2878
935	0.3662
944	0.6046
953	0.6449
962	0.7091
971	0.7347
980	0.6998
989	0.6607
998	0.6893
1007	0.8296
1016	0.9225
1025	0.6955
1034	0.7181
1043	0.8817
1052	0.8796
1061	0.9363
1070	0.9611
1079	0.889
1088	0.6382
1097	0.3746
1106	0.4341
1115	0.7104
1124	0.7542
1133	0.9514
1142	0.976
1151	0.9728
1160	0.9536
1169	0.9004
1178	0.9309
1187	0.9667
1196	0.9582
1205	0.9374
1214	0.8887
1223	0.8338
1232	0.7555
1241	0.5676
1250	0.5808
1259	0.5413
1268	0.5502
1277	0.5742
1286	0.5603
1295	0.5056
1304	0.3141
1313	0.15
1322	0.1842
1331	0.1636
1340	0.1943
1349	0.372
1358	0.4282
1367	0.3689
1376	0.3119
1385	0.2634
1394	0.2111
1403	0.1643
1412	0.1678
1421	0.2207
1430	0.3115
1439	0.3727
1448	0.3766
1457	0.4627
1466	0.5496
1475	0.5829
1484	0.5785
1493	0.5561
1502	0.5082
1511	0.4559
1520	0.3984
1529	0.3176
1538	0.2455
1547	0.155
1556	0.098
1565	0.0595
1574	0.0441
1583	0.0367
1592	0.0359
1601	0.0396
1610	0.0522
1619	0.0724
1628	0.1017
1637	0.1496
1646	0.2117
1655	0.3097
1664	0.3522
1673	0.4128
1682	0.5067
1691	0.603
1700	0.7323
1709	0.7845
1718	0.8343
1727	0.8674
1736	0.8963
1745	0.9218
1754	0.9393
1763	0.9512
1772	0.9603
1781	0.963
1790	0.9677
1799	0.9686
1808	0.9692
1817	0.9704
1826	0.9716
1835	0.9716
1844	0.9726
1853	0.9721
1862	0.9707
1871	0.9685
1880	0.9662
1889	0.9639
1898	0.9622
1907	0.9603
1916	0.9581
1925	0.9564
1934	0.9544
1943	0.9521
1952	0.9494
1961	0.9628
1970	0.9444
1979	0.9421
1988	0.9349
1997	0.9279
2006	0.9222
2015	0.9185
2024	0.915
2033	0.9115
2042	0.9071
2051	0.9028
2060	0.8988
2069	0.8947
2078	0.8907
2087	0.8865
2096	0.8824
2105	0.8782
2114	0.8741
2123	0.8701
2132	0.8661
2141	0.8621
2150	0.8582
2159	0.8543
2168	0.8509
2177	0.848
2186	0.8452
2195	0.8425
2204	0.8397
2213	0.8367
2222	0.8334
2231	0.8299
2240	0.8259
2249	0.8217
2258	0.8176
2267	0.8132
2276	0.8087
2285	0.8051
2294	0.8022
2303	0.8002
2312	0.7985
2321	0.7968
2330	0.7951
2339	0.7948
2348	0.7951
2357	0.7949
2366	0.7944
2375	0.7952
2384	0.7963
2393	0.7973
2402	0.7978
2411	0.7983
2420	0.7988
2429	0.7991
2438	0.7995
2447	0.7989
2456	0.7976
2465	0.7962
2474	0.7949
2483	0.7934
2492	0.792
2501	0.7905
2510	0.7892
2519	0.7878
2528	0.7862
2537	0.7841
2546	0.782
2555	0.7797
2564	0.7765
2573	0.7732
2582	0.7699
2591	0.7661
2600	0.7623
2609	0.7585
2618	0.7543
2627	0.7487
2636	0.7432
2645	0.7375
2654	0.732
2663	0.726
2672	0.7199
2681	0.7138
2690	0.7077
2699	0.7012
2708	0.6946
2717	0.688
2726	0.6813
2735	0.6744
2744	0.667
2753	0.6588
2762	0.6507
2771	0.6415
2780	0.6307
2789	0.6197
2798	0.6045
2807	0.5888
2816	0.5708
2825	0.5544
2834	0.539
2843	0.5214
2852	0.5068
2861	0.5004
2870	0.4903
2879	0.4791
2888	0.4689
2897	0.4591
2906	0.4512
2915	0.4512
2924	0.4542
2933	0.4549
2942	0.4501
2951	0.4421
2960	0.4373
2969	0.4376
2978	0.446
2987	0.444
2996	0.4369
3005	0.4278
3014	0.4189
3023	0.4098
3032	0.4005
3041	0.3908
3050	0.381
3059	0.3713
3068	0.3618
3077	0.3546
3086	0.3473
3095	0.3398
3104	0.3324
3113	0.3249
3122	0.3176
3131	0.3111
3140	0.3047
3149	0.2989
3158	0.2935
3167	0.2883
3176	0.2838
3185	0.2814
3194	0.2797
3203	0.279
3212	0.279
3221	0.2791
3230	0.2799
3239	0.281
3248	0.2821
3257	0.2834
3266	0.2849
3275	0.2864
3284	0.2881
3293	0.2896
3302	0.2911
3311	0.2922
3320	0.2927
3329	0.2931
3338	0.2928
3347	0.2924
3356	0.2929
3365	0.2938
3374	0.2966
3383	0.3021
3392	0.309
3401	0.3204
3410	0.3303
3419	0.3398
3428	0.3514
3437	0.3635
3446	0.3784
3455	0.3936
3464	0.4074
3473	0.4218
3482	0.4399
3491	0.4576
3500	0.475
3509	0.4907
3518	0.5051
3527	0.5203
3536	0.5374
3545	0.5546
3554	0.5768
3563	0.6004
3572	0.6288
3581	0.6526
3590	0.677
3599	0.7089
3608	0.7374
3617	0.7634
3626	0.7894
3635	0.8083
3644	0.8254
3653	0.8384
3662	0.8434
3671	0.842
3680	0.8401
3689	0.8375
3698	0.8336
3707	0.8292
3716	0.8254
3725	0.8212
3734	0.8169
3743	0.8129
3752	0.809
3761	0.8049
3770	0.8009
3779	0.7966
3788	0.792
3797	0.7874
