Infrared Spectrum: POTASSIUM BICARBONATE
Formula: K H C O3
State: SOLID (FLUOROLUBE MULL FOR HIGH FREQUENCY REGION AND DRY POWDER FOR LOW FREQUENCY REGION)
Class: COBLENTZ
Instrument: Not specified, most likely a prism, grating, or hybrid spectrometer.
Sampling: TRANSMISSION
Resolution: 4
Origin: MELLON INSTITUTE
MICROMETERS	TRANSMITTANCE
2.049	0.874
2.08976	0.874
2.13053	0.878
2.17129	0.891
2.21206	0.897
2.25282	0.9
2.29359	0.909
2.33435	0.917
2.37512	0.919
2.41588	0.929
2.45665	0.938
2.49741	0.945
2.53818	0.95
2.57894	0.957
2.61971	0.963
2.66047	0.967
2.70124	0.97
2.742	0.97
2.78277	0.972
2.82353	0.975
2.8643	0.975
2.90506	0.981
2.94583	0.977
2.98659	0.974
3.02736	0.962
3.06812	0.936
3.10889	0.9
3.14965	0.859
3.19042	0.807
3.23118	0.759
3.27195	0.722
3.31271	0.65
3.35348	0.612
3.39424	0.612
3.43501	0.644
3.47577	0.675
3.51654	0.701
3.5573	0.687
3.59807	0.614
3.63883	0.583
3.6796	0.562
3.72036	0.533
3.76113	0.516
3.80189	0.507
3.84266	0.504
3.88342	0.514
3.92419	0.535
3.96495	0.552
4.00572	0.569
4.04648	0.591
4.08725	0.61
4.12801	0.636
4.16878	0.658
4.20954	0.641
4.25031	0.653
4.29107	0.655
4.33184	0.672
4.3726	0.701
4.41337	0.72
4.45413	0.768
4.4949	0.794
4.53566	0.809
4.57643	0.826
4.61719	0.842
4.65796	0.859
4.69872	0.867
4.73949	0.869
4.78025	0.871
4.82102	0.876
4.86178	0.879
4.90255	0.879
4.94331	0.879
4.98408	0.881
5.02484	0.883
5.06561	0.888
5.10637	0.895
5.14714	0.893
5.1879	0.886
5.22867	0.876
5.26943	0.864
5.3102	0.866
5.35096	0.867
5.39173	0.866
5.43249	0.867
5.47326	0.883
5.51402	0.9
5.55479	0.915
5.59555	0.938
5.63632	0.946
5.67708	0.946
5.71785	0.948
5.75861	0.943
5.79938	0.881
5.84014	0.835
5.8809	0.632
5.92167	0.463
5.96243	0.416
6.0032	0.319
6.04396	0.259
6.08473	0.243
6.12549	0.222
6.16626	0.265
6.20702	0.442
6.24779	0.523
6.28855	0.581
6.32932	0.617
6.37008	0.665
6.41085	0.682
6.45161	0.711
6.49238	0.739
6.53314	0.742
6.57391	0.763
6.61467	0.775
6.65544	0.801
6.6962	0.806
6.73697	0.801
6.77773	0.754
6.8185	0.701
6.85926	0.548
6.90003	0.459
6.94079	0.403
6.98156	0.339
7.02232	0.286
7.06309	0.253
7.10385	0.224
7.14462	0.228
7.18538	0.262
7.22615	0.312
7.26691	0.31
7.30768	0.32
7.34844	0.413
7.38921	0.449
7.42997	0.475
7.47074	0.499
7.5115	0.524
7.55227	0.554
7.59303	0.562
7.6338	0.578
7.67456	0.598
7.71533	0.617
7.75609	0.644
7.79686	0.675
7.83762	0.701
7.87839	0.72
7.91915	0.742
7.95992	0.759
8.00068	0.78
8.04145	0.785
8.08221	0.794
8.12298	0.802
8.16374	0.811
8.20451	0.818
8.24527	0.818
8.28604	0.823
8.3268	0.83
8.36757	0.833
8.40833	0.838
8.4491	0.84
8.48986	0.849
8.53063	0.854
8.57139	0.859
8.61216	0.864
8.65292	0.867
8.69369	0.873
8.73445	0.873
8.77522	0.873
8.81598	0.874
8.85675	0.876
8.89751	0.879
8.93828	0.881
8.97904	0.885
9.01981	0.886
9.06057	0.89
9.10134	0.891
9.1421	0.895
9.18287	0.897
9.22363	0.897
9.2644	0.897
9.30516	0.893
9.34593	0.897
9.38669	0.902
9.42746	0.902
9.46822	0.902
9.50899	0.902
9.54975	0.903
9.59052	0.903
9.63128	0.903
9.67204	0.903
9.71281	0.888
9.75357	0.874
9.79434	0.847
9.8351	0.754
9.87587	0.629
9.91663	0.608
9.9574	0.619
9.99816	0.627
10.0389	0.627
10.0797	0.62
10.1205	0.622
10.1612	0.626
10.202	0.632
10.2428	0.639
10.2835	0.653
10.3243	0.686
10.365	0.704
10.4058	0.735
10.4466	0.758
10.4873	0.782
10.5281	0.802
10.5689	0.818
10.6096	0.837
10.6504	0.854
10.6912	0.855
10.7319	0.862
10.7727	0.871
10.8135	0.876
10.8542	0.883
10.895	0.893
10.9358	0.898
10.9765	0.903
11.0173	0.909
11.0581	0.91
11.0988	0.914
11.1396	0.919
11.1803	0.926
11.2211	0.926
11.2619	0.926
11.3026	0.929
11.3434	0.933
11.3842	0.938
11.4249	0.941
11.4657	0.943
11.5065	0.948
11.5472	0.95
11.588	0.953
11.6288	0.951
11.6695	0.953
11.7103	0.955
11.7511	0.955
11.7918	0.953
11.8326	0.919
11.8734	0.813
11.9141	0.653
11.9549	0.542
11.9956	0.526
12.0364	0.567
12.0772	0.698
12.1179	0.771
12.1587	0.838
12.1995	0.883
12.2402	0.907
12.281	0.919
12.3218	0.922
12.3625	0.926
12.4033	0.933
12.4441	0.938
12.4848	0.945
12.5256	0.948
12.5664	0.951
12.6071	0.953
12.6479	0.957
12.6887	0.958
12.7294	0.958
12.7702	0.96
12.8109	0.962
12.8517	0.962
12.8925	0.962
12.9332	0.962
12.974	0.96
13.0148	0.958
13.0555	0.957
13.0963	0.958
13.1371	0.958
13.1778	0.958
13.2186	0.958
13.2594	0.955
13.3001	0.955
13.3409	0.953
13.3817	0.953
13.4224	0.946
13.4632	0.943
13.5039	0.945
13.5447	0.938
13.5855	0.931
13.6262	0.931
13.667	0.929
13.7078	0.921
13.7485	0.914
13.7893	0.91
13.8301	0.897
13.8708	0.878
13.9116	0.854
13.9524	0.802
13.9931	0.742
14.0339	0.667
14.0747	0.603
14.1154	0.545
14.1562	0.519
14.197	0.519
14.2377	0.559
14.2785	0.603
14.3192	0.643
14.36	0.672
14.4008	0.686
14.4415	0.704
14.4823	0.718
14.5231	0.723
14.5638	0.727
14.6046	0.723
14.6454	0.725
14.6861	0.716
14.7269	0.713
14.7677	0.699
14.8084	0.667
14.8492	0.662
14.89	0.655
14.9307	0.651
14.9715	0.641
15.0123	0.638
15.053	0.632
15.0938	0.631
15.1345	0.631
15.1753	0.632
15.2161	0.632
15.2568	0.627
15.2976	0.626
15.3384	0.624
15.3791	0.619
15.4199	0.615
15.4607	0.612
15.5014	0.607
15.5422	0.603
15.583	0.598
15.6237	0.598
15.6645	0.593
15.7053	0.59
15.746	0.584
15.7868	0.583
15.8276	0.581
15.8683	0.576
15.9091	0.574
15.9498	0.572
15.9906	0.567
