Infrared Spectrum: 1,2-Dodecanediamine dihydrochloride
Formula: C12 H30 Cl2 N2
State: SOLID (KBr DISC, 0.8% WT.)
Class: COBLENTZ III
Instrument: PERKIN-ELMER 157
Sampling: TRANSMISSION
Resolution: 2
Origin: BRITISH PETROLEUM CO. LTD., ENGLAND
1/CM	TRANSMITTANCE
668	0.921
677	0.9171
686	0.8937
695	0.8677
704	0.8291
713	0.7262
722	0.3448
731	0.5957
740	0.6418
749	0.8074
758	0.7687
767	0.6467
776	0.2534
785	0.5479
794	0.7926
803	0.7994
812	0.7914
821	0.7581
830	0.5793
839	0.7584
848	0.7802
857	0.7795
866	0.7674
875	0.7463
884	0.7144
893	0.6009
902	0.2095
911	0.5448
920	0.2459
929	0.4883
938	0.6304
947	0.7002
956	0.7223
965	0.7021
974	0.3798
983	0.597
992	0.5215
1001	0.1359
1010	0.33
1019	0.4907
1028	0.642
1037	0.6685
1046	0.6403
1055	0.611
1064	0.5489
1073	0.4971
1082	0.4288
1091	0.7105
1100	0.7109
1109	0.6897
1118	0.626
1127	0.3205
1136	0.3024
1145	0.4811
1154	0.5653
1163	0.6889
1172	0.6946
1181	0.6637
1190	0.384
1199	0.6592
1208	0.5841
1217	0.622
1226	0.7462
1235	0.7419
1244	0.727
1253	0.5463
1262	0.6826
1271	0.6642
1280	0.5515
1289	0.7009
1298	0.6291
1307	0.5304
1316	0.6489
1325	0.647
1334	0.6308
1343	0.6262
1352	0.6282
1361	0.6254
1370	0.6399
1379	0.6129
1388	0.5974
1397	0.4189
1406	0.3732
1415	0.5806
1424	0.5773
1433	0.5297
1442	0.449
1451	0.371
1460	0.1629
1469	0.0378
1478	0.0376
1487	0.0396
1496	0.2064
1505	0.2225
1514	0.2514
1523	0.3706
1532	0.5003
1541	0.5551
1550	0.5607
1559	0.5484
1568	0.5008
1577	0.4225
1586	0.333
1595	0.2696
1604	0.1646
1613	0.3145
1622	0.4056
1631	0.5057
1640	0.5456
1649	0.6084
1658	0.6611
1667	0.6773
1676	0.6877
1685	0.6967
1694	0.7059
1703	0.7055
1712	0.7043
1721	0.7055
1730	0.7141
1739	0.7396
1748	0.7539
1757	0.7562
1766	0.7569
1775	0.7569
1784	0.7571
1793	0.7574
1802	0.7565
1811	0.7581
1820	0.7583
1829	0.7583
1838	0.7582
1847	0.7559
1856	0.7463
1865	0.7418
1874	0.7242
1883	0.7102
1892	0.7066
1901	0.7011
1910	0.696
1919	0.692
1928	0.6896
1937	0.6865
1946	0.68
1955	0.673
1964	0.6644
1973	0.6548
1982	0.6448
1991	0.6319
2000	0.6148
2009	0.5756
2018	0.5151
2027	0.4719
2036	0.4295
2045	0.3814
2054	0.3808
2063	0.3874
2072	0.3989
2081	0.4277
2090	0.4713
2099	0.5145
2108	0.5543
2117	0.5813
2126	0.6137
2135	0.6421
2144	0.6701
2153	0.7073
2162	0.7132
2171	0.7418
2180	0.7588
2189	0.7602
2198	0.7603
2207	0.758
2216	0.7527
2225	0.7506
2234	0.7451
2243	0.7361
2252	0.7324
2261	0.7352
2270	0.7389
2279	0.7415
2288	0.7417
2297	0.7376
2306	0.7304
2315	0.7204
2324	0.6946
2333	0.6649
2342	0.6355
2351	0.6059
2360	0.5823
2369	0.5658
2378	0.5639
2387	0.5677
2396	0.5826
2405	0.5881
2414	0.5864
2423	0.5535
2432	0.5208
2441	0.4884
2450	0.4533
2459	0.4466
2468	0.442
2477	0.4384
2486	0.4374
2495	0.4369
2504	0.4323
2513	0.4201
2522	0.4071
2531	0.3951
2540	0.3945
2549	0.3979
2558	0.4016
2567	0.405
2576	0.4019
2585	0.376
2594	0.3495
2603	0.2951
2612	0.268
2621	0.2586
2630	0.2513
2639	0.2378
2648	0.2185
2657	0.2104
2666	0.2073
2675	0.205
2684	0.2032
2693	0.1959
2702	0.1755
2711	0.1622
2720	0.1361
2729	0.1309
2738	0.1132
2747	0.0875
2756	0.0628
2765	0.052
2774	0.0448
2783	0.04
2792	0.0382
2801	0.0365
2810	0.0327
2819	0.0153
2828	0.0078
2837	0.0054
2846	0.0045
2855	0.0041
2864	0.004
2873	0.004
2882	0.0039
2891	0.0039
2900	0.0039
2909	0.004
2918	0.0042
2927	0.0043
2936	0.0047
2945	0.005
2954	0.0054
2963	0.0058
2972	0.0065
2981	0.0073
2990	0.0089
2999	0.0104
3008	0.0116
3017	0.0127
3026	0.0133
3035	0.0139
3044	0.0147
3053	0.0154
3062	0.0161
3071	0.0168
3080	0.0177
3089	0.0197
3098	0.0224
3107	0.0253
3116	0.0289
3125	0.0354
3134	0.0419
3143	0.0483
3152	0.0551
3161	0.062
3170	0.0677
3179	0.0746
3188	0.0855
3197	0.097
3206	0.1105
3215	0.1302
3224	0.1405
3233	0.1997
3242	0.2383
3251	0.2541
3260	0.2856
3269	0.3158
3278	0.3687
3287	0.3905
3296	0.4023
3305	0.4066
3314	0.4091
3323	0.4101
3332	0.4096
3341	0.3999
3350	0.3857
3359	0.3686
3368	0.3486
3377	0.3368
3386	0.3184
3395	0.3098
3404	0.3019
3413	0.2984
3422	0.2985
3431	0.2992
3440	0.3019
3449	0.3144
3458	0.3294
3467	0.3506
3476	0.3767
3485	0.4027
3494	0.4285
3503	0.4542
3512	0.4798
3521	0.5053
3530	0.5306
3539	0.5558
3548	0.5802
3557	0.593
3566	0.6056
3575	0.6191
3584	0.6317
3593	0.6478
3602	0.6688
3611	0.6924
3620	0.7113
3629	0.7236
3638	0.7298
3647	0.7516
3656	0.7579
3665	0.7597
3674	0.7606
3683	0.7612
3692	0.7617
3701	0.7621
3710	0.7623
3719	0.7624
3728	0.7626
3737	0.7628
3746	0.7628
3755	0.7629
3764	0.763
3773	0.763
3782	0.7631
3791	0.7631
3800	0.7631
3809	0.7632
3818	0.7633
3827	0.7633
3836	0.7634
3845	0.7633
3854	0.7632
3863	0.7631
3872	0.763
3881	0.7629
3890	0.7628
3899	0.7628
3908	0.7627
3917	0.7627
3926	0.7626
3935	0.7625
3944	0.7624
3953	0.7624
3962	0.7623
3971	0.7622
3980	0.7622
3989	0.7621
3998	0.7621
