Infrared Spectrum: Cedrenol (mixed isomers)
Formula: C15 H24 O
State: SOLID (2 mg / 200 mg (1%) KBr DISC)
Class: COBLENTZ
Instrument: BECKMAN IR-12 (GRATING)
Instrument parameters: GRATINGS BLAZED AT 3, 7.5, 22.5, 45 MICRON; FILTERS AT 200, 300, 500, 800, 1100, 1800, 2900, 4000
Sampling: TRANSMISSION
Resolution: 2
Origin: COLGATE-PALMOLIVE COMPANY (KELLENBACH)
1/CM	TRANSMITTANCE
203	0.0883
213	0.0659
223	0.0354
233	0.0702
243	0.1814
253	0.2881
263	0.431
273	0.5356
283	0.545
293	0.6076
303	0.6432
313	0.6467
323	0.6624
333	0.6388
343	0.6721
353	0.696
363	0.7269
373	0.7269
383	0.7197
393	0.7695
403	0.7729
413	0.7955
423	0.7558
433	0.77
443	0.7949
453	0.8108
463	0.7908
473	0.7768
483	0.8204
493	0.8246
503	0.8214
513	0.8105
523	0.8163
533	0.814
543	0.7802
553	0.7873
563	0.7662
573	0.7704
583	0.8011
593	0.8085
603	0.8002
613	0.7545
623	0.8012
633	0.8001
643	0.7895
653	0.7629
663	0.5438
673	0.5334
683	0.7169
693	0.7429
703	0.7357
713	0.7359
723	0.7331
733	0.7354
743	0.7222
753	0.714
763	0.7665
773	0.753
783	0.7331
793	0.7141
803	0.7213
813	0.7442
823	0.7556
833	0.7833
843	0.7228
853	0.8121
863	0.7549
873	0.715
883	0.6433
893	0.1294
903	0.6629
913	0.797
923	0.7674
933	0.8277
943	0.7422
953	0.8426
963	0.7596
973	0.7671
983	0.7104
993	0.4916
1003	0.4951
1013	0.7281
1023	0.575
1033	0.7413
1043	0.5563
1053	0.2463
1063	0.274
1073	0.3279
1083	0.2878
1093	0.3768
1103	0.5545
1113	0.7382
1123	0.7517
1133	0.5534
1143	0.5343
1153	0.7847
1163	0.6928
1173	0.6038
1183	0.7785
1193	0.7444
1203	0.8096
1213	0.8419
1223	0.8199
1233	0.7199
1243	0.794
1253	0.7984
1263	0.469
1273	0.6241
1283	0.7304
1293	0.6547
1303	0.7238
1313	0.6265
1323	0.6735
1333	0.7499
1343	0.6669
1353	0.7423
1363	0.5132
1373	0.6118
1383	0.5781
1393	0.492
1403	0.6128
1413	0.5836
1423	0.4957
1433	0.414
1443	0.3153
1453	0.1732
1463	0.2449
1473	0.3848
1483	0.6324
1493	0.7256
1503	0.7467
1513	0.7765
1523	0.7851
1533	0.797
1543	0.7967
1553	0.8081
1563	0.8072
1573	0.8279
1583	0.8386
1593	0.8179
1603	0.812
1613	0.7869
1623	0.7535
1633	0.6186
1643	0.4519
1653	0.7353
1663	0.815
1673	0.8333
1683	0.8312
1693	0.8531
1703	0.8517
1713	0.8608
1723	0.8708
1733	0.8655
1743	0.8709
1753	0.887
1763	0.8862
1773	0.8863
1783	0.8201
1793	0.8033
1803	0.8854
1813	0.8904
1823	0.8918
1833	0.894
1843	0.8914
1853	0.8993
1863	0.9012
1873	0.9067
1883	0.9008
1893	0.9014
1903	0.9037
1913	0.8993
1923	0.9056
1933	0.9075
1943	0.9073
1953	0.9067
1963	0.9053
1973	0.9037
1983	0.902
1993	0.898
2003	0.8754
2013	0.8702
2023	0.8662
2033	0.863
2043	0.8607
2053	0.859
2063	0.8576
2073	0.8565
2083	0.859
2093	0.8585
2103	0.8557
2113	0.8534
2123	0.8512
2133	0.8516
2143	0.8553
2153	0.8588
2163	0.8616
2173	0.8612
2183	0.8581
2193	0.8548
2203	0.8556
2213	0.8548
2223	0.8558
2233	0.859
2243	0.8593
2253	0.8579
2263	0.8554
2273	0.8529
2283	0.85
2293	0.8467
2303	0.8431
2313	0.8393
2323	0.8353
2333	0.8305
2343	0.8239
2353	0.8175
2363	0.8178
2373	0.8326
2383	0.8465
2393	0.8455
2403	0.8442
2413	0.8432
2423	0.8423
2433	0.8416
2443	0.8411
2453	0.8387
2463	0.833
2473	0.824
2483	0.8171
2493	0.8152
2503	0.8183
2513	0.8169
2523	0.8105
2533	0.8056
2543	0.7974
2553	0.7861
2563	0.7785
2573	0.7821
2583	0.7882
2593	0.7855
2603	0.7812
2613	0.7817
2623	0.7855
2633	0.7778
2643	0.7643
2653	0.7497
2663	0.7357
2673	0.7216
2683	0.7112
2693	0.7108
2703	0.7164
2713	0.7156
2723	0.7016
2733	0.7186
2743	0.7242
2753	0.7235
2763	0.7205
2773	0.7096
2783	0.688
2793	0.6571
2803	0.594
2813	0.5258
2823	0.463
2833	0.2807
2843	0.1775
2853	0.1704
2863	0.0499
2873	0.0623
2883	0.1065
2893	0.0892
2903	0.0439
2913	0.0654
2923	0.0457
2933	0.0211
2943	0.0143
2953	0.0118
2963	0.0686
2973	0.2696
2983	0.3867
2993	0.5352
3003	0.5628
3013	0.5667
3023	0.5525
3033	0.5313
3043	0.5093
3053	0.4841
3063	0.455
3073	0.4073
3083	0.2978
3093	0.3473
3103	0.3187
3113	0.2857
3123	0.2598
3133	0.2314
3143	0.2102
3153	0.1948
3163	0.1811
3173	0.1684
3183	0.1574
3193	0.1473
3203	0.1382
3213	0.1306
3223	0.1241
3233	0.1188
3243	0.1153
3253	0.1145
3263	0.1195
3273	0.1362
3283	0.1525
3293	0.178
3303	0.1999
3313	0.2255
3323	0.2634
3333	0.2938
3343	0.332
3353	0.3604
3363	0.3885
3373	0.4116
3383	0.4332
3393	0.4569
3403	0.4768
3413	0.4927
3423	0.5078
3433	0.5247
3443	0.5415
3453	0.561
3463	0.5798
3473	0.5938
3483	0.6076
3493	0.6211
3503	0.6348
3513	0.648
3523	0.6611
3533	0.674
3543	0.6865
3553	0.6988
3563	0.711
3573	0.7231
3583	0.7357
3593	0.7473
3603	0.7564
3613	0.766
3623	0.7761
3633	0.7862
3643	0.7956
3653	0.8035
3663	0.8056
3673	0.8052
3683	0.8124
3693	0.8166
3703	0.8144
3713	0.8104
3723	0.806
3733	0.8015
3743	0.8008
3753	0.8081
3763	0.8203
3773	0.8231
3783	0.8232
3793	0.8203
3803	0.8156
3813	0.8091
3823	0.8042
3833	0.8021
3843	0.8015
3853	0.8013
3863	0.8018
3873	0.8029
3883	0.8039
3893	0.8047
3903	0.8055
3913	0.8053
3923	0.8048
3933	0.8052
3943	0.8062
3953	0.8071
3963	0.8081
3973	0.809
3983	0.8093
3993	0.8097
