Infrared Spectrum: Barbituric acid, 5-hydroxy-5-thiosemicarbazido-
Formula: C5 H7 N5 O4 S
State: SOLID (0.6 mg / 650 mg KBr DISC)
Class: COBLENTZ III
Instrument: PERKIN-ELMER 21 (GRATING)
Instrument parameters: FILTER CHANGE ABOUT 1090 CM^-^1
Sampling: TRANSMISSION
Resolution: 2
Origin: SOUTHERN RESEARCH INSTITUTE
1/CM	TRANSMITTANCE
603.55	0.6789
612.58	0.6751
621.611	0.6614
630.641	0.6573
639.671	0.6792
648.702	0.745
657.732	0.7678
666.762	0.79
675.793	0.7909
684.823	0.7748
693.854	0.7532
702.884	0.7021
711.914	0.6725
720.945	0.498
729.975	0.4523
739.005	0.6019
748.036	0.7342
757.066	0.7805
766.096	0.7812
775.127	0.7585
784.157	0.7491
793.187	0.757
802.218	0.7294
811.248	0.6574
820.278	0.6477
829.309	0.5794
838.339	0.5967
847.37	0.6461
856.4	0.5744
865.43	0.5185
874.461	0.5568
883.491	0.5856
892.521	0.6086
901.552	0.6568
910.582	0.7263
919.612	0.762
928.643	0.7799
937.673	0.7868
946.703	0.787
955.734	0.7864
964.764	0.7857
973.794	0.7769
982.825	0.751
991.855	0.7166
1000.89	0.6499
1009.92	0.6574
1018.95	0.6622
1027.98	0.6509
1037.01	0.5938
1046.04	0.5645
1055.07	0.5962
1064.1	0.5984
1073.13	0.5705
1082.16	0.5531
1091.19	0.5552
1100.22	0.6123
1109.25	0.616
1118.28	0.6031
1127.31	0.57
1136.34	0.5365
1145.37	0.5206
1154.4	0.4728
1163.43	0.2957
1172.46	0.2524
1181.49	0.5372
1190.52	0.6173
1199.55	0.6276
1208.58	0.6195
1217.61	0.5929
1226.64	0.5413
1235.67	0.4436
1244.71	0.4157
1253.74	0.4981
1262.77	0.5893
1271.8	0.5755
1280.83	0.5597
1289.86	0.5686
1298.89	0.6025
1307.92	0.6696
1316.95	0.6829
1325.98	0.6756
1335.01	0.6168
1344.04	0.5478
1353.07	0.5131
1362.1	0.5256
1371.13	0.4288
1380.16	0.3011
1389.19	0.3701
1398.22	0.4935
1407.25	0.4469
1416.28	0.3
1425.31	0.3643
1434.34	0.6188
1443.37	0.611
1452.4	0.5436
1461.43	0.4856
1470.46	0.486
1479.49	0.5594
1488.52	0.5821
1497.55	0.6832
1506.59	0.7549
1515.62	0.7584
1524.65	0.7302
1533.68	0.6927
1542.71	0.621
1551.74	0.5202
1560.77	0.4747
1569.8	0.5843
1578.83	0.6109
1587.86	0.5698
1596.89	0.4658
1605.92	0.2569
1614.95	0.2503
1623.98	0.4911
1633.01	0.5818
1642.04	0.5889
1651.07	0.5719
1660.1	0.5189
1669.13	0.4329
1678.16	0.3377
1687.19	0.2414
1696.22	0.1759
1705.25	0.1289
1714.28	0.1086
1723.31	0.1418
1732.34	0.2496
1741.37	0.2778
1750.4	0.3185
1759.44	0.3864
1768.47	0.5285
1777.5	0.6019
1786.53	0.6761
1795.56	0.7051
1804.59	0.7331
1813.62	0.748
1822.65	0.761
1831.68	0.777
1840.71	0.792
1849.74	0.8044
1858.77	0.8148
1867.8	0.8201
1876.83	0.8261
1885.86	0.8333
1894.89	0.8349
1903.92	0.8355
1912.95	0.8386
1921.98	0.8451
1931.01	0.8489
1940.04	0.8494
1949.07	0.8529
1958.1	0.8581
1967.13	0.8593
1976.16	0.8596
1985.19	0.859
1994.22	0.8583
2003.25	0.8577
2012.29	0.8564
2021.32	0.8529
2030.35	0.8479
2039.38	0.8447
2048.41	0.8437
2057.44	0.8419
2066.47	0.8358
2075.5	0.8302
2084.53	0.8283
2093.56	0.8301
2102.59	0.8342
2111.62	0.8432
2120.65	0.8475
2129.68	0.8472
2138.71	0.8415
2147.74	0.8391
2156.77	0.8371
2165.8	0.8356
2174.83	0.8375
2183.86	0.8394
2192.89	0.8385
2201.92	0.8375
2210.95	0.8377
2219.98	0.8381
2229.01	0.8387
2238.04	0.8389
2247.07	0.8367
2256.1	0.8346
2265.14	0.8323
2274.17	0.8299
2283.2	0.8266
2292.23	0.8233
2301.26	0.8199
2310.29	0.8179
2319.32	0.8167
2328.35	0.8152
2337.38	0.8061
2346.41	0.7972
2355.44	0.7899
2364.47	0.7882
2373.5	0.7947
2382.53	0.8004
2391.56	0.794
2400.59	0.7878
2409.62	0.7875
2418.65	0.7821
2427.68	0.7728
2436.71	0.7689
2445.74	0.7669
2454.77	0.7602
2463.8	0.7546
2472.83	0.7522
2481.86	0.7523
2490.89	0.7531
2499.92	0.7523
2508.95	0.749
2517.98	0.7448
2527.02	0.7404
2536.05	0.736
2545.08	0.7326
2554.11	0.727
2563.14	0.7172
2572.17	0.7141
2581.2	0.7064
2590.23	0.6986
2599.26	0.694
2608.29	0.6849
2617.32	0.6805
2626.35	0.6735
2635.38	0.6603
2644.41	0.6483
2653.44	0.638
2662.47	0.6285
2671.5	0.6209
2680.53	0.6184
2689.56	0.6209
2698.59	0.6059
2707.62	0.586
2716.65	0.5689
2725.68	0.5451
2734.71	0.526
2743.74	0.5091
2752.77	0.477
2761.8	0.4476
2770.83	0.4156
2779.87	0.3877
2788.9	0.383
2797.93	0.3926
2806.96	0.4002
2815.99	0.4042
2825.02	0.4076
2834.05	0.4247
2843.08	0.4376
2852.11	0.4464
2861.14	0.4634
2870.17	0.4881
2879.2	0.5131
2888.23	0.5341
2897.26	0.5398
2906.29	0.5323
2915.32	0.5112
2924.35	0.4889
2933.38	0.4728
2942.41	0.457
2951.44	0.4424
2960.47	0.4244
2969.5	0.3963
2978.53	0.3844
2987.56	0.3877
2996.59	0.3923
3005.62	0.3871
3014.65	0.3917
3023.68	0.4057
3032.72	0.4176
3041.75	0.4448
3050.78	0.4605
3059.81	0.4722
3068.84	0.4903
3077.87	0.5076
3086.9	0.5279
3095.93	0.5352
3104.96	0.5686
3113.99	0.5943
3123.02	0.5948
3132.05	0.5865
3141.08	0.5694
3150.11	0.5485
3159.14	0.5148
3168.17	0.5006
3177.2	0.4799
3186.23	0.4522
3195.26	0.4172
3204.29	0.3875
3213.32	0.3484
3222.35	0.3178
3231.38	0.309
3240.41	0.3165
3249.44	0.3422
3258.47	0.4084
3267.5	0.4444
3276.53	0.4481
3285.56	0.4366
3294.6	0.4164
3303.63	0.3798
3312.66	0.3303
3321.69	0.3129
3330.72	0.3467
3339.75	0.3483
3348.78	0.327
3357.81	0.3109
3366.84	0.2862
3375.87	0.2487
3384.9	0.2423
3393.93	0.2562
3402.96	0.2901
3411.99	0.3321
3421.02	0.3485
3430.05	0.3477
3439.08	0.327
3448.11	0.2975
3457.14	0.2881
3466.17	0.284
3475.2	0.2809
3484.23	0.2934
3493.26	0.3235
3502.29	0.3416
3511.32	0.3744
3520.35	0.4249
3529.38	0.4587
3538.41	0.4841
3547.45	0.504
3556.48	0.5304
3565.51	0.557
3574.54	0.5877
3583.57	0.6286
3592.6	0.6569
3601.63	0.6795
3610.66	0.7008
3619.69	0.7208
3628.72	0.739
3637.75	0.7557
3646.78	0.7727
3655.81	0.7863
3664.84	0.7993
3673.87	0.811
3682.9	0.8204
3691.93	0.8292
3700.96	0.8371
3709.99	0.8423
3719.02	0.8447
3728.05	0.8461
3737.08	0.8469
3746.11	0.8464
3755.14	0.8567
3764.17	0.8577
3773.2	0.8534
3782.23	0.8573
3791.26	0.8596
3800.3	0.8569
3809.33	0.8543
3818.36	0.8518
3827.39	0.8472
3836.42	0.8502
3845.45	0.851
3854.48	0.8487
3863.51	0.8498
3872.54	0.8466
3881.57	0.8395
3890.6	0.8393
3899.63	0.8356
3908.66	0.8375
3917.69	0.8439
3926.72	0.8391
3935.75	0.8348
3944.78	0.8312
3953.81	0.8262
3962.84	0.8305
3971.87	0.8348
3980.9	0.8361
3989.93	0.8345
3998.96	0.8292
4007.99	0.8188
