Infrared Spectrum: 2,4-Quinolinediol, 4-sodium salt- (primarily keto form)
Formula: C9 H6 N Na O2
State: SOLID (SPLIT MULL), FLUOROLUBE FOR 3800-1330 CM^-^1, NUJOL FOR 1330-460 CM^-^1
Class: COBLENTZ III
Instrument: DOW KBr FOREPRISM-GRATING
Instrument parameters: BLAZED AT 3.5, 12.0, 20.0 MICRON AND CHANGED AT 5.0, 7.5, 14.9 MICRON
Sampling: TRANSMISSION
Resolution: 2
Origin: DOW CHEMICAL COMPANY
1/CM	TRANSMITTANCE
3824	0.5932
3815	0.5939
3806	0.5947
3797	0.596
3788	0.5978
3779	0.5997
3770	0.6018
3761	0.6046
3752	0.6072
3743	0.6087
3734	0.6094
3725	0.6099
3716	0.6104
3707	0.611
3698	0.6132
3689	0.6167
3680	0.6178
3671	0.6178
3662	0.6171
3653	0.6153
3644	0.6137
3635	0.6123
3626	0.6115
3617	0.6109
3608	0.6106
3599	0.6098
3590	0.6001
3581	0.6029
3572	0.6044
3563	0.6039
3554	0.6028
3545	0.6003
3536	0.5975
3527	0.594
3518	0.5904
3509	0.5859
3500	0.581
3491	0.5754
3482	0.5696
3473	0.5638
3464	0.5583
3455	0.5521
3446	0.5401
3437	0.5304
3428	0.5246
3419	0.5186
3410	0.5129
3401	0.5073
3392	0.5018
3383	0.4952
3374	0.4884
3365	0.4815
3356	0.4749
3347	0.4685
3338	0.461
3329	0.4505
3320	0.4386
3311	0.426
3302	0.4133
3293	0.4026
3284	0.3932
3275	0.3823
3266	0.3764
3257	0.3729
3248	0.3724
3239	0.3777
3230	0.3818
3221	0.3847
3212	0.3822
3203	0.3757
3194	0.3571
3185	0.3334
3176	0.3167
3167	0.3065
3158	0.3015
3149	0.3069
3140	0.3209
3131	0.3373
3122	0.3523
3113	0.3643
3104	0.3732
3095	0.3804
3086	0.385
3077	0.3862
3068	0.3862
3059	0.3941
3050	0.421
3041	0.4334
3032	0.4382
3023	0.4195
3014	0.4205
3005	0.4243
2996	0.3928
2987	0.3859
2978	0.3932
2969	0.408
2960	0.4198
2951	0.4322
2942	0.446
2933	0.4572
2924	0.4684
2915	0.4797
2906	0.4884
2897	0.4925
2888	0.496
2879	0.499
2870	0.5017
2861	0.5068
2852	0.5245
2843	0.5415
2834	0.5493
2825	0.5512
2816	0.5419
2807	0.5356
2798	0.5464
2789	0.5599
2780	0.5724
2771	0.5839
2762	0.591
2753	0.599
2744	0.6084
2735	0.6166
2726	0.6247
2717	0.6315
2708	0.633
2699	0.6383
2690	0.643
2681	0.6449
2672	0.6436
2663	0.6426
2654	0.6435
2645	0.6443
2636	0.6517
2627	0.6599
2618	0.6661
2609	0.6685
2600	0.671
2591	0.6734
2582	0.6765
2573	0.6817
2564	0.6871
2555	0.6925
2546	0.6968
2537	0.7015
2528	0.7044
2519	0.7058
2510	0.7067
2501	0.7071
2492	0.7076
2483	0.7093
2474	0.7117
2465	0.7148
2456	0.7165
2447	0.7181
2438	0.7197
2429	0.7211
2420	0.7221
2411	0.7233
2402	0.7244
2393	0.7256
2384	0.7268
2375	0.728
2366	0.729
2357	0.73
2348	0.731
2339	0.7319
2330	0.7332
2321	0.7343
2312	0.7356
2303	0.7375
2294	0.7396
2285	0.7408
2276	0.7422
2267	0.7442
2258	0.7465
2249	0.7493
2240	0.7533
2231	0.7597
2222	0.7668
2213	0.7718
2204	0.7739
2195	0.7744
2186	0.7746
2177	0.776
2168	0.7776
2159	0.7796
2150	0.7821
2141	0.7845
2132	0.7875
2123	0.7907
2114	0.794
2105	0.7972
2096	0.8007
2087	0.804
2078	0.8075
2069	0.8111
2060	0.8147
2051	0.8182
2042	0.8218
2033	0.8254
2024	0.8284
2015	0.8309
2006	0.8328
1997	0.835
1988	0.8361
1979	0.8399
1970	0.8438
1961	0.8621
1952	0.8463
1943	0.8432
1934	0.8413
1925	0.843
1916	0.843
1907	0.8391
1898	0.8495
1889	0.856
1880	0.8601
1871	0.8624
1862	0.8631
1853	0.8638
1844	0.8644
1835	0.8644
1826	0.8599
1817	0.8578
1808	0.8603
1799	0.862
1790	0.8671
1781	0.8744
1772	0.8784
1763	0.8775
1754	0.8721
1745	0.8695
1736	0.8696
1727	0.8693
1718	0.8436
1709	0.8402
1700	0.846
1691	0.8328
1682	0.6922
1673	0.4675
1664	0.4394
1655	0.2096
1646	0.0732
1637	0.0544
1628	0.1169
1619	0.3029
1610	0.2862
1601	0.0634
1592	0.177
1583	0.3089
1574	0.4379
1565	0.5023
1556	0.5288
1547	0.5882
1538	0.5673
1529	0.289
1520	0.3964
1511	0.5776
1502	0.3762
1493	0.2675
1484	0.5043
1475	0.6888
1466	0.1437
1457	0.3337
1448	0.4616
1439	0.6654
1430	0.7017
1421	0.6617
1412	0.2839
1403	0.1928
1394	0.1158
1385	0.2893
1376	0.4839
1367	0.5567
1358	0.3334
1349	0.5066
1340	0.364
1331	0.554
1322	0.6942
1313	0.7276
1304	0.7371
1295	0.7399
1286	0.7343
1277	0.7261
1268	0.3738
1259	0.1094
1250	0.2853
1241	0.0867
1232	0.4694
1223	0.6561
1214	0.7137
1205	0.743
1196	0.7667
1187	0.7836
1178	0.7871
1169	0.7958
1160	0.8075
1151	0.7465
1142	0.7276
1133	0.8011
1124	0.8172
1115	0.8216
1106	0.818
1097	0.8118
1088	0.8168
1079	0.8196
1070	0.816
1061	0.8239
1052	0.8256
1043	0.8243
1034	0.7031
1025	0.8137
1016	0.829
1007	0.8314
998	0.8096
989	0.8001
980	0.8205
971	0.8121
962	0.8065
953	0.8041
944	0.7975
935	0.7914
926	0.8112
917	0.8151
908	0.8018
899	0.776
890	0.7732
881	0.7301
872	0.7257
863	0.7337
854	0.7068
845	0.7051
836	0.6846
827	0.6356
818	0.5007
809	0.4129
800	0.5059
791	0.5753
782	0.5952
773	0.5857
764	0.4797
755	0.5719
746	0.3834
737	0.6458
728	0.3686
719	0.6446
710	0.6947
701	0.7111
692	0.7185
683	0.4617
674	0.6754
665	0.6993
656	0.6546
647	0.7328
638	0.7432
629	0.7032
620	0.7433
611	0.7493
602	0.7525
593	0.743
584	0.7157
575	0.466
566	0.6391
557	0.7151
548	0.72
539	0.7042
530	0.6906
521	0.7187
512	0.7165
503	0.3224
494	0.6867
485	0.7308
476	0.7235
467	0.5142
