Infrared Spectrum: HEXANAL, 4-OXO-6-METHYLPYRIMIDIN-2-YLHYDRAZONE (KETO FORM)
Formula: C11 H18 N4 O
State: SOLID (SPLIT MULL), FLUOROLUBE FOR 3800-1330 CM^-^1, NUJOL FOR 1330-400 CM^-^1
Melting point: 170 C
Class: COBLENTZ III
Instrument: BECKMAN IR-9 (GRATING)
Instrument parameters: ORDER CHANGES: 670, 1200, 2000 CM^-^1
Sampling: TRANSMISSION
Resolution: 2
Origin: DOW CHEMICAL COMPANY
1/CM	TRANSMITTANCE
400	0.683
408.772	0.663
417.544	0.661
426.316	0.691
435.088	0.74
443.86	0.786
452.632	0.797
461.403	0.8
470.175	0.875
478.947	0.911
487.719	0.939
496.491	0.943
505.263	0.911
514.035	0.752
522.807	0.915
531.579	0.937
540.351	0.965
549.123	0.96
557.895	0.956
566.667	0.887
575.439	0.851
584.21	0.655
592.982	0.933
601.754	0.934
610.526	0.96
619.298	0.862
628.07	0.948
636.842	0.979
645.614	0.984
654.386	0.978
663.158	0.974
671.93	0.98
680.702	0.972
689.474	0.963
698.246	0.941
707.017	0.713
715.789	0.868
724.561	0.799
733.333	0.811
742.105	0.807
750.877	0.76
759.649	0.706
768.421	0.877
777.193	0.879
785.965	0.868
794.737	0.864
803.509	0.86
812.281	0.823
821.053	0.534
829.824	0.852
838.596	0.77
847.368	0.793
856.14	0.882
864.912	0.879
873.684	0.868
882.456	0.881
891.228	0.883
900	0.866
908.772	0.829
917.544	0.795
926.316	0.718
935.088	0.605
943.86	0.653
952.631	0.62
961.403	0.575
970.175	0.613
978.947	0.651
987.719	0.719
996.491	0.851
1005.26	0.885
1014.03	0.87
1022.81	0.837
1031.58	0.831
1040.35	0.774
1049.12	0.702
1057.89	0.655
1066.67	0.724
1075.44	0.838
1084.21	0.883
1092.98	0.89
1101.75	0.87
1110.53	0.86
1119.3	0.796
1128.07	0.602
1136.84	0.68
1145.61	0.71
1154.39	0.717
1163.16	0.808
1171.93	0.687
1180.7	0.83
1189.47	0.874
1198.25	0.702
1207.02	0.743
1215.79	0.887
1224.56	0.874
1233.33	0.803
1242.11	0.859
1250.88	0.889
1259.65	0.889
1268.42	0.837
1277.19	0.77
1285.96	0.821
1294.74	0.79
1303.51	0.759
1312.28	0.621
1321.05	0.542
1329.82	0.23
1338.6	0.132
1347.37	0.221
1356.14	0.262
1364.91	0.434
1373.68	0.542
1382.46	0.5
1391.23	0.599
1400	0.601
1408.77	0.51
1417.54	0.471
1426.32	0.405
1435.09	0.419
1443.86	0.409
1452.63	0.355
1461.4	0.307
1470.18	0.362
1478.95	0.465
1487.72	0.495
1496.49	0.498
1505.26	0.478
1514.03	0.445
1522.81	0.394
1531.58	0.341
1540.35	0.329
1549.12	0.322
1557.89	0.285
1566.67	0.233
1575.44	0.271
1584.21	0.319
1592.98	0.239
1601.75	0.099
1610.53	0.045
1619.3	0.143
1628.07	0.17
1636.84	0.162
1645.61	0.218
1654.39	0.184
1663.16	0.095
1671.93	0.021
1680.7	0.03
1689.47	0.184
1698.25	0.441
1707.02	0.599
1715.79	0.688
1724.56	0.792
1733.33	0.83
1742.1	0.841
1750.88	0.845
1759.65	0.856
1768.42	0.872
1777.19	0.887
1785.96	0.889
1794.74	0.886
1803.51	0.879
1812.28	0.872
1821.05	0.859
1829.82	0.848
1838.6	0.845
1847.37	0.848
1856.14	0.852
1864.91	0.857
1873.68	0.864
1882.46	0.87
1891.23	0.877
1900	0.878
1908.77	0.872
1917.54	0.872
1926.32	0.875
1935.09	0.879
1943.86	0.882
1952.63	0.882
1961.4	0.883
1970.18	0.885
1978.95	0.885
1987.72	0.883
1996.49	0.881
2005.26	0.875
2014.03	0.87
2022.81	0.866
2031.58	0.862
2040.35	0.859
2049.12	0.8559
2057.89	0.852
2066.67	0.849
2075.44	0.846
2084.21	0.8448
2092.98	0.841
2101.75	0.838
2110.53	0.834
2119.3	0.83
2128.07	0.825
2136.84	0.823
2145.61	0.8202
2154.39	0.8156
2163.16	0.8075
2171.93	0.8
2180.7	0.795
2189.47	0.7925
2198.25	0.7884
2207.02	0.7832
2215.79	0.778
2224.56	0.7711
2233.33	0.7593
2242.1	0.755
2250.88	0.7456
2259.65	0.741
2268.42	0.7345
2277.19	0.7282
2285.96	0.724
2294.74	0.7142
2303.51	0.7101
2312.28	0.707
2321.05	0.7061
2329.82	0.704
2338.6	0.704
2347.37	0.704
2356.14	0.696
2364.91	0.706
2373.68	0.6989
2382.46	0.6736
2391.23	0.6608
2400	0.6539
2408.77	0.6478
2417.54	0.6416
2426.32	0.6358
2435.09	0.6288
2443.86	0.6215
2452.63	0.6084
2461.4	0.603
2470.17	0.599
2478.95	0.5933
2487.72	0.588
2496.49	0.5782
2505.26	0.5697
2514.03	0.5591
2522.81	0.552
2531.58	0.5445
2540.35	0.5345
2549.12	0.5239
2557.89	0.5124
2566.67	0.5032
2575.44	0.4917
2584.21	0.4807
2592.98	0.4699
2601.75	0.4596
2610.53	0.4443
2619.3	0.4315
2628.07	0.4192
2636.84	0.4096
2645.61	0.3983
2654.39	0.3891
2663.16	0.386
2671.93	0.383
2680.7	0.381
2689.47	0.3661
2698.25	0.357
2707.02	0.3489
2715.79	0.334
2724.56	0.3269
2733.33	0.3177
2742.1	0.3119
2750.88	0.3097
2759.65	0.3068
2768.42	0.304
2777.19	0.301
2785.96	0.3
2794.74	0.297
2803.51	0.299
2812.28	0.3003
2821.05	0.303
2829.82	0.3034
2838.6	0.3018
2847.37	0.295
2856.14	0.2966
2864.91	0.2871
2873.68	0.301
2882.46	0.3565
2891.23	0.3574
2900	0.3484
2908.77	0.3306
2917.54	0.3091
2926.32	0.2781
2935.09	0.312
2943.86	0.3471
2952.63	0.2204
2961.4	0.2882
2970.17	0.3595
2978.95	0.4524
2987.72	0.4853
2996.49	0.4947
3005.26	0.5092
3014.03	0.5209
3022.81	0.5377
3031.58	0.5576
3040.35	0.5789
3049.12	0.59
3057.89	0.599
3066.67	0.606
3075.44	0.6131
3084.21	0.6211
3092.98	0.628
3101.75	0.629
3110.53	0.631
3119.3	0.633
3128.07	0.6367
3136.84	0.648
3145.61	0.6588
3154.39	0.6683
3163.16	0.6723
3171.93	0.676
3180.7	0.677
3189.47	0.6838
3198.24	0.6967
3207.02	0.7088
3215.79	0.7194
3224.56	0.727
3233.33	0.73
3242.1	0.73
3250.88	0.73
3259.65	0.73
3268.42	0.73
3277.19	0.733
3285.96	0.739
3294.74	0.743
3303.51	0.745
3312.28	0.745
3321.05	0.745
3329.82	0.745
3338.6	0.745
3347.37	0.744
3356.14	0.743
3364.91	0.741
3373.68	0.741
3382.46	0.741
3391.23	0.74
3400	0.74
3408.77	0.741
3417.54	0.74
3426.32	0.739
3435.09	0.737
3443.86	0.736
3452.63	0.736
3461.4	0.734
3470.17	0.733
3478.95	0.733
3487.72	0.734
3496.49	0.734
3505.26	0.733
3514.03	0.733
3522.81	0.732
3531.58	0.73
3540.35	0.73
3549.12	0.73
3557.89	0.73
3566.67	0.729
3575.44	0.728
3584.21	0.728
3592.98	0.728
3601.75	0.728
3610.53	0.728
3619.3	0.728
3628.07	0.728
3636.84	0.726
3645.61	0.725
3654.39	0.724
3663.16	0.7212
3671.93	0.719
3680.7	0.719
3689.47	0.718
3698.24	0.718
3707.02	0.717
3715.79	0.717
3724.56	0.715
3733.33	0.714
3742.1	0.711
3750.88	0.711
3759.65	0.707
3768.42	0.7059
3777.19	0.704
3785.96	0.704
