Infrared Spectrum: 1,8-Octanediamine dihydrochloride
Formula: C8 H22 Cl2 N2
State: SOLID (KBr DISC, 0.8% WT.)
Class: COBLENTZ III
Instrument: PERKIN-ELMER 157
Sampling: TRANSMISSION
Resolution: 2
Origin: BRITISH PETROLEUM CO. LTD., ENGLAND
1/CM	TRANSMITTANCE
668	0.9701
677	0.948
686	0.9268
695	0.9113
704	0.89
713	0.8607
722	0.7858
731	0.5397
740	0.8095
749	0.8027
758	0.5902
767	0.7036
776	0.8274
785	0.8376
794	0.8366
803	0.8362
812	0.826
821	0.8069
830	0.7734
839	0.628
848	0.6138
857	0.7972
866	0.8022
875	0.8
884	0.7949
893	0.7773
902	0.7647
911	0.7321
920	0.6824
929	0.5405
938	0.4141
947	0.2603
956	0.5196
965	0.2611
974	0.5448
983	0.4758
992	0.5613
1001	0.6304
1010	0.6829
1019	0.6762
1028	0.3408
1037	0.4495
1046	0.5931
1055	0.6637
1064	0.6888
1073	0.7273
1082	0.7313
1091	0.7294
1100	0.701
1109	0.6221
1118	0.5448
1127	0.3705
1136	0.1361
1145	0.2972
1154	0.5734
1163	0.5911
1172	0.6669
1181	0.7378
1190	0.7454
1199	0.7401
1208	0.7004
1217	0.5987
1226	0.4587
1235	0.4542
1244	0.6898
1253	0.6977
1262	0.6874
1271	0.6617
1280	0.5776
1289	0.5522
1298	0.5723
1307	0.4133
1316	0.5784
1325	0.6375
1334	0.6433
1343	0.6278
1352	0.6438
1361	0.6076
1370	0.5058
1379	0.5065
1388	0.3711
1397	0.5544
1406	0.6077
1415	0.592
1424	0.5704
1433	0.5244
1442	0.481
1451	0.4173
1460	0.3398
1469	0.2556
1478	0.121
1487	0.1609
1496	0.1642
1505	0.0966
1514	0.1287
1523	0.2069
1532	0.2173
1541	0.1659
1550	0.1055
1559	0.0951
1568	0.0977
1577	0.1095
1586	0.1092
1595	0.1251
1604	0.1629
1613	0.2642
1622	0.3416
1631	0.3972
1640	0.4744
1649	0.5588
1658	0.5907
1667	0.6245
1676	0.6459
1685	0.66
1694	0.6743
1703	0.6839
1712	0.6923
1721	0.6959
1730	0.6972
1739	0.6972
1748	0.6962
1757	0.6947
1766	0.6914
1775	0.6876
1784	0.6852
1793	0.6742
1802	0.6597
1811	0.6502
1820	0.6467
1829	0.6351
1838	0.6247
1847	0.6165
1856	0.6124
1865	0.6124
1874	0.615
1883	0.6244
1892	0.6301
1901	0.6487
1910	0.658
1919	0.6685
1928	0.6801
1937	0.6941
1946	0.6965
1955	0.6981
1964	0.6987
1973	0.699
1982	0.7041
1991	0.7126
2000	0.7211
2009	0.7271
2018	0.7306
2027	0.7329
2036	0.7349
2045	0.737
2054	0.739
2063	0.7421
2072	0.7479
2081	0.7471
2090	0.7427
2099	0.7413
2108	0.7403
2117	0.7395
2126	0.7384
2135	0.737
2144	0.7354
2153	0.7343
2162	0.7338
2171	0.7282
2180	0.7221
2189	0.7184
2198	0.7125
2207	0.7073
2216	0.7024
2225	0.699
2234	0.6977
2243	0.6974
2252	0.6971
2261	0.6904
2270	0.6795
2279	0.6654
2288	0.6557
2297	0.6511
2306	0.6502
2315	0.6469
2324	0.6348
2333	0.6129
2342	0.5988
2351	0.5938
2360	0.5843
2369	0.5821
2378	0.5811
2387	0.5741
2396	0.5553
2405	0.5199
2414	0.4835
2423	0.461
2432	0.4522
2441	0.4497
2450	0.4341
2459	0.4018
2468	0.3795
2477	0.3709
2486	0.3636
2495	0.3549
2504	0.3474
2513	0.3427
2522	0.3429
2531	0.3442
2540	0.3468
2549	0.3534
2558	0.3583
2567	0.3586
2576	0.3564
2585	0.3497
2594	0.34
2603	0.3189
2612	0.2963
2621	0.2823
2630	0.2688
2639	0.2569
2648	0.2455
2657	0.2357
2666	0.2271
2675	0.2192
2684	0.2114
2693	0.2022
2702	0.191
2711	0.1691
2720	0.1575
2729	0.1474
2738	0.1377
2747	0.1294
2756	0.1217
2765	0.1137
2774	0.1052
2783	0.0961
2792	0.0855
2801	0.0731
2810	0.0601
2819	0.0498
2828	0.0428
2837	0.0375
2846	0.0342
2855	0.032
2864	0.0306
2873	0.0297
2882	0.0288
2891	0.0283
2900	0.0278
2909	0.0276
2918	0.0276
2927	0.0276
2936	0.0277
2945	0.0278
2954	0.0279
2963	0.0281
2972	0.0282
2981	0.0282
2990	0.0282
2999	0.0283
3008	0.0284
3017	0.0287
3026	0.0289
3035	0.0292
3044	0.0296
3053	0.03
3062	0.0304
3071	0.0307
3080	0.031
3089	0.0313
3098	0.0317
3107	0.032
3116	0.0327
3125	0.0344
3134	0.0377
3143	0.043
3152	0.0489
3161	0.0552
3170	0.0641
3179	0.074
3188	0.0909
3197	0.0988
3206	0.1159
3215	0.1536
3224	0.1682
3233	0.1882
3242	0.201
3251	0.2202
3260	0.2538
3269	0.284
3278	0.303
3287	0.3218
3296	0.3406
3305	0.3787
3314	0.3945
3323	0.4038
3332	0.4112
3341	0.4183
3350	0.4251
3359	0.4301
3368	0.4336
3377	0.4366
3386	0.4396
3395	0.4425
3404	0.4451
3413	0.4479
3422	0.4509
3431	0.454
3440	0.4576
3449	0.4739
3458	0.4929
3467	0.5013
3476	0.5099
3485	0.5184
3494	0.5263
3503	0.5357
3512	0.5576
3521	0.5758
3530	0.6034
3539	0.6231
3548	0.63
3557	0.6368
3566	0.6433
3575	0.6497
3584	0.6579
3593	0.6665
3602	0.6749
3611	0.6832
3620	0.6909
3629	0.6944
3638	0.6967
3647	0.6979
3656	0.6985
3665	0.6991
3674	0.6996
3683	0.6999
3692	0.7001
3701	0.7003
3710	0.7005
3719	0.7005
3728	0.7007
3737	0.7008
3746	0.7008
3755	0.7009
3764	0.7009
3773	0.7008
3782	0.7008
3791	0.7004
3800	0.699
3809	0.6965
3818	0.6941
3827	0.6916
3836	0.6891
3845	0.687
3854	0.686
3863	0.6851
3872	0.6843
3881	0.6838
3890	0.6833
3899	0.6827
3908	0.6822
3917	0.6817
3926	0.6813
3935	0.6808
3944	0.6804
3953	0.6799
3962	0.6792
3971	0.6785
3980	0.6778
3989	0.6772
3998	0.6768
