Infrared Spectrum: POTASSIUM PHOSPHATE, TRIBASIC
Formula: K3 P O4
State: SOLID (NUJOL MULL)
Class: COBLENTZ
Instrument: Not specified, most likely a prism, grating, or hybrid spectrometer.
Sampling: TRANSMISSION
Resolution: 4
Origin: MELLON INSTITUTE
MICROMETERS	TRANSMITTANCE
2.029	0.908
2.0689	0.911
2.10881	0.911
2.14871	0.919
2.18861	0.928
2.22851	0.936
2.26842	0.936
2.30832	0.929
2.34822	0.933
2.38813	0.938
2.42803	0.936
2.46793	0.933
2.50783	0.936
2.54774	0.931
2.58764	0.923
2.62754	0.919
2.66745	0.909
2.70735	0.901
2.74725	0.873
2.78715	0.804
2.82706	0.671
2.86696	0.54
2.90686	0.409
2.94677	0.347
2.98667	0.313
3.02657	0.282
3.06647	0.262
3.10638	0.252
3.14628	0.242
3.18618	0.24
3.22609	0.242
3.26599	0.242
3.30589	0.248
3.34579	0.175
3.3857	0.085
3.4256	0.123
3.4655	0.178
3.50541	0.248
3.54531	0.442
3.58521	0.51
3.62511	0.565
3.66502	0.602
3.70492	0.642
3.74482	0.686
3.78473	0.711
3.82463	0.737
3.86453	0.757
3.90443	0.777
3.94434	0.787
3.98424	0.797
4.02414	0.799
4.06405	0.799
4.10395	0.799
4.14385	0.797
4.18375	0.791
4.22366	0.782
4.26356	0.777
4.30346	0.772
4.34337	0.774
4.38327	0.787
4.42317	0.806
4.46307	0.814
4.50298	0.824
4.54288	0.833
4.58278	0.839
4.62269	0.858
4.66259	0.881
4.70249	0.894
4.74239	0.904
4.7823	0.914
4.8222	0.921
4.8621	0.924
4.90201	0.929
4.94191	0.936
4.98181	0.941
5.02171	0.948
5.06162	0.949
5.10152	0.951
5.14142	0.951
5.18133	0.949
5.22123	0.949
5.26113	0.951
5.30103	0.951
5.34094	0.949
5.38084	0.951
5.42074	0.949
5.46065	0.943
5.50055	0.943
5.54045	0.938
5.58035	0.938
5.62026	0.933
5.66016	0.924
5.70006	0.918
5.73997	0.911
5.77987	0.903
5.81977	0.898
5.85967	0.888
5.89958	0.879
5.93948	0.863
5.97938	0.844
6.01929	0.834
6.05919	0.826
6.09909	0.823
6.13899	0.823
6.1789	0.821
6.2188	0.821
6.2587	0.821
6.29861	0.814
6.33851	0.814
6.37841	0.814
6.41831	0.813
6.45822	0.818
6.49812	0.824
6.53802	0.823
6.57793	0.829
6.61783	0.834
6.65773	0.839
6.69763	0.841
6.73754	0.828
6.77744	0.787
6.81734	0.686
6.85725	0.641
6.89715	0.629
6.93705	0.644
6.97695	0.686
7.01686	0.732
7.05676	0.757
7.09666	0.794
7.13657	0.819
7.17647	0.821
7.21637	0.797
7.25627	0.764
7.29618	0.777
7.33608	0.828
7.37598	0.871
7.41589	0.903
7.45579	0.913
7.49569	0.931
7.53559	0.949
7.5755	0.958
7.6154	0.963
7.6553	0.964
7.69521	0.973
7.73511	0.981
7.77501	0.986
7.81491	0.993
7.85482	0.998
7.89472	1.001
7.93462	1.003
7.97453	1.003
8.01443	1.005
8.05433	1.005
8.09423	1.006
8.13414	1.006
8.17404	1.005
8.21394	1.003
8.25385	1.001
8.29375	1.003
8.33365	1.003
8.37355	1
8.41346	1
8.45336	0.989
8.49326	0.978
8.53317	0.968
8.57307	0.958
8.61297	0.951
8.65287	0.939
8.69278	0.926
8.73268	0.913
8.77258	0.904
8.81249	0.891
8.85239	0.876
8.89229	0.859
8.93219	0.836
8.9721	0.816
9.012	0.786
9.0519	0.751
9.09181	0.709
9.13171	0.669
9.17161	0.632
9.21151	0.587
9.25142	0.549
9.29132	0.502
9.33122	0.464
9.37113	0.434
9.41103	0.404
9.45093	0.373
9.49083	0.343
9.53074	0.325
9.57064	0.3
9.61054	0.27
9.65045	0.253
9.69035	0.243
9.73025	0.23
9.77015	0.222
9.81006	0.217
9.84996	0.215
9.88986	0.215
9.92977	0.213
9.96967	0.213
10.0096	0.207
10.0495	0.207
10.0894	0.205
10.1293	0.203
10.1692	0.203
10.2091	0.207
10.249	0.208
10.2889	0.215
10.3288	0.227
10.3687	0.243
10.4086	0.273
10.4485	0.312
10.4884	0.352
10.5283	0.393
10.5682	0.43
10.6081	0.459
10.648	0.477
10.6879	0.5
10.7278	0.53
10.7677	0.554
10.8076	0.575
10.8475	0.599
10.8874	0.614
10.9273	0.637
10.9672	0.656
11.0071	0.676
11.047	0.699
11.0869	0.704
11.1269	0.717
11.1668	0.722
11.2067	0.732
11.2466	0.737
11.2865	0.742
11.3264	0.751
11.3663	0.751
11.4062	0.752
11.4461	0.754
11.486	0.752
11.5259	0.754
11.5658	0.754
11.6057	0.754
11.6456	0.754
11.6855	0.752
11.7254	0.752
11.7653	0.751
11.8052	0.746
11.8451	0.744
11.885	0.742
11.9249	0.742
11.9648	0.742
12.0047	0.742
12.0446	0.744
12.0845	0.744
12.1244	0.744
12.1643	0.742
12.2042	0.744
12.2441	0.742
12.284	0.742
12.3239	0.741
12.3638	0.736
12.4037	0.732
12.4436	0.731
12.4835	0.731
12.5235	0.731
12.5634	0.731
12.6033	0.729
12.6432	0.727
12.6831	0.722
12.723	0.721
12.7629	0.717
12.8028	0.717
12.8427	0.717
12.8826	0.716
12.9225	0.716
12.9624	0.716
13.0023	0.716
13.0422	0.714
13.0821	0.714
13.122	0.714
13.1619	0.714
13.2018	0.714
13.2417	0.714
13.2816	0.714
13.3215	0.714
13.3614	0.714
13.4013	0.714
13.4412	0.714
13.4811	0.712
13.521	0.706
13.5609	0.702
13.6008	0.702
13.6407	0.704
13.6806	0.702
13.7205	0.702
13.7604	0.702
13.8003	0.701
13.8402	0.699
13.8801	0.699
13.9201	0.696
13.96	0.696
13.9999	0.692
14.0398	0.691
14.0797	0.689
14.1196	0.689
14.1595	0.689
14.1994	0.689
14.2393	0.691
14.2792	0.691
14.3191	0.692
14.359	0.696
14.3989	0.699
14.4388	0.702
14.4787	0.702
14.5186	0.707
14.5585	0.712
14.5984	0.714
14.6383	0.716
14.6782	0.714
14.7181	0.716
14.758	0.716
14.7979	0.711
14.8378	0.709
14.8777	0.709
14.9176	0.712
14.9575	0.711
14.9974	0.709
15.0373	0.711
15.0772	0.707
15.1171	0.707
15.157	0.701
15.1969	0.701
15.2368	0.702
15.2767	0.702
15.3167	0.701
15.3566	0.699
15.3965	0.699
15.4364	0.699
15.4763	0.697
15.5162	0.696
15.5561	0.694
15.596	0.692
15.6359	0.691
15.6758	0.691
15.7157	0.689
15.7556	0.687
15.7955	0.687
15.8354	0.689
15.8753	0.689
15.9152	0.689
15.9551	0.687
15.995	0.687
