Infrared Spectrum: 2,8-DIMETHYLAMINO-DIBENZO[b,e]PYRIDINE HYDROCHLORIDE
Formula: C17 H19 N3  * H Cl
State: SOLID (MINERAL OIL MULL)
Class: COBLENTZ
Instrument: Not specified, most likely a prism, grating, or hybrid spectrometer.
Sampling: TRANSMISSION
Resolution: 4
Origin: WYANDOTTE CHEMICALS CORP., WYANDOTTE, MICHIGAN, USA
MICROMETERS	TRANSMITTANCE
2.019	0.134
2.05613	0.136
2.09327	0.147
2.1304	0.157
2.16753	0.159
2.20467	0.15
2.2418	0.154
2.27894	0.145
2.31607	0.145
2.3532	0.148
2.39034	0.153
2.42747	0.154
2.4646	0.156
2.50174	0.16
2.53887	0.168
2.576	0.184
2.61314	0.195
2.65027	0.204
2.68741	0.196
2.72454	0.191
2.76167	0.198
2.79881	0.178
2.83594	0.153
2.87307	0.143
2.91021	0.125
2.94734	0.125
2.98447	0.137
3.02161	0.126
3.05874	0.125
3.09588	0.12
3.13301	0.12
3.17014	0.119
3.20728	0.105
3.24441	0.089
3.28154	0.082
3.31868	0.066
3.35581	0.029
3.39294	0.021
3.43008	0.018
3.46721	0.024
3.50435	0.029
3.54148	0.06
3.57861	0.113
3.61575	0.16
3.65288	0.196
3.69001	0.188
3.72715	0.162
3.76428	0.14
3.80141	0.157
3.83855	0.187
3.87568	0.202
3.91282	0.224
3.94995	0.246
3.98708	0.269
4.02422	0.291
4.06135	0.294
4.09848	0.306
4.13562	0.295
4.17275	0.314
4.20988	0.34
4.24702	0.348
4.28415	0.337
4.32128	0.366
4.35842	0.394
4.39555	0.428
4.43269	0.433
4.46982	0.428
4.50695	0.438
4.54409	0.445
4.58122	0.455
4.61835	0.464
4.65549	0.472
4.69262	0.486
4.72975	0.498
4.76689	0.509
4.80402	0.53
4.84116	0.532
4.87829	0.543
4.91542	0.551
4.95256	0.561
4.98969	0.572
5.02682	0.577
5.06396	0.597
5.10109	0.606
5.13822	0.614
5.17536	0.616
5.21249	0.625
5.24963	0.636
5.28676	0.659
5.32389	0.66
5.36103	0.673
5.39816	0.688
5.43529	0.712
5.47243	0.735
5.50956	0.741
5.54669	0.778
5.58383	0.795
5.62096	0.825
5.6581	0.818
5.69523	0.873
5.73236	0.86
5.7695	0.904
5.80663	0.911
5.84376	0.961
5.8809	0.924
5.91803	0.86
5.95516	0.744
5.9923	0.53
6.02943	0.168
6.06657	0.044
6.1037	0.066
6.14083	0.133
6.17797	0.151
6.2151	0.068
6.25223	0.068
6.28937	0.128
6.3265	0.178
6.36363	0.148
6.40077	0.178
6.4379	0.148
6.47504	0.14
6.51217	0.125
6.5493	0.131
6.58644	0.116
6.62357	0.1
6.6607	0.108
6.69784	0.13
6.73497	0.114
6.7721	0.065
6.80924	0.035
6.84637	0.043
6.88351	0.057
6.92064	0.099
6.95777	0.173
6.99491	0.218
7.03204	0.27
7.06917	0.253
7.10631	0.249
7.14344	0.312
7.18057	0.264
7.21771	0.055
7.25484	0.046
7.29198	0.109
7.32911	0.113
7.36624	0.072
7.40338	0.086
7.44051	0.128
7.47764	0.179
7.51478	0.21
7.55191	0.243
7.58904	0.263
7.62618	0.269
7.66331	0.298
7.70045	0.311
7.73758	0.312
7.77471	0.348
7.81185	0.38
7.84898	0.289
7.88611	0.343
7.92325	0.391
7.96038	0.303
7.99751	0.32
8.03465	0.379
8.07178	0.39
8.10892	0.366
8.14605	0.369
8.18318	0.424
8.22032	0.467
8.25745	0.509
8.29458	0.547
8.33172	0.561
8.36885	0.515
8.40598	0.461
8.44312	0.273
8.48025	0.099
8.51738	0.055
8.55452	0.054
8.59165	0.08
8.62879	0.099
8.66592	0.137
8.70305	0.204
8.74019	0.258
8.77732	0.244
8.81445	0.219
8.85159	0.244
8.88872	0.25
8.92585	0.224
8.96299	0.195
9.00012	0.281
9.03726	0.321
9.07439	0.351
9.11152	0.368
9.14866	0.377
9.18579	0.391
9.22292	0.397
9.26006	0.402
9.29719	0.397
9.33432	0.365
9.37146	0.328
9.40859	0.346
9.44573	0.382
9.48286	0.422
9.51999	0.452
9.55713	0.482
9.59426	0.495
9.63139	0.51
9.66853	0.517
9.70566	0.53
9.74279	0.537
9.77993	0.555
9.81706	0.572
9.8542	0.577
9.89133	0.588
9.92846	0.577
9.9656	0.543
10.0027	0.535
10.0399	0.578
10.077	0.597
10.1141	0.603
10.1513	0.599
10.1884	0.565
10.2255	0.52
10.2627	0.534
10.2998	0.547
10.3369	0.524
10.3741	0.507
10.4112	0.552
10.4483	0.582
10.4855	0.582
10.5226	0.561
10.5597	0.547
10.5969	0.58
10.634	0.582
10.6711	0.532
10.7083	0.496
10.7454	0.568
10.7825	0.566
10.8197	0.47
10.8568	0.346
10.8939	0.368
10.9311	0.439
10.9682	0.47
11.0053	0.417
11.0425	0.461
11.0796	0.558
11.1167	0.589
11.1539	0.6
11.191	0.585
11.2281	0.566
11.2653	0.594
11.3024	0.64
11.3395	0.662
11.3767	0.682
11.4138	0.688
11.4509	0.673
11.4881	0.642
11.5252	0.583
11.5623	0.517
11.5995	0.518
11.6366	0.602
11.6737	0.674
11.7109	0.701
11.748	0.696
11.7851	0.696
11.8223	0.642
11.8594	0.605
11.8965	0.56
11.9337	0.487
11.9708	0.385
12.0079	0.321
12.0451	0.309
12.0822	0.314
12.1193	0.32
12.1565	0.348
12.1936	0.383
12.2307	0.419
12.2679	0.433
12.305	0.425
12.3421	0.402
12.3793	0.363
12.4164	0.351
12.4535	0.464
12.4907	0.586
12.5278	0.645
12.565	0.664
12.6021	0.654
12.6392	0.651
12.6764	0.588
12.7135	0.465
12.7506	0.456
12.7878	0.611
12.8249	0.681
12.862	0.701
12.8992	0.73
12.9363	0.736
12.9734	0.741
13.0106	0.747
13.0477	0.749
13.0848	0.763
13.122	0.767
13.1591	0.772
13.1962	0.755
13.2334	0.716
13.2705	0.687
13.3076	0.662
13.3448	0.653
13.3819	0.648
13.419	0.673
13.4562	0.691
13.4933	0.696
13.5304	0.698
13.5676	0.701
13.6047	0.701
13.6418	0.702
13.679	0.699
13.7161	0.69
13.7532	0.69
13.7904	0.691
13.8275	0.69
13.8646	0.681
13.9018	0.684
13.9389	0.691
13.976	0.715
14.0132	0.733
14.0503	0.761
14.0874	0.777
14.1246	0.778
14.1617	0.764
14.1988	0.738
14.236	0.647
14.2731	0.551
14.3102	0.482
14.3474	0.421
14.3845	0.428
14.4216	0.495
14.4588	0.594
14.4959	0.643
14.533	0.681
14.5702	0.705
14.6073	0.721
14.6444	0.724
14.6816	0.732
14.7187	0.739
14.7558	0.741
14.793	0.735
14.8301	0.736
14.8672	0.736
14.9044	0.739
14.9415	0.733
14.9786	0.702
15.0158	0.645
15.0529	0.628
15.09	0.659
15.1272	0.688
15.1643	0.691
15.2014	0.684
15.2386	0.651
15.2757	0.645
15.3128	0.616
15.35	0.582
15.3871	0.563
15.4242	0.521
15.4614	0.523
15.4985	0.517
15.5356	0.521
15.5728	0.517
15.6099	0.501
15.647	0.49
15.6842	0.476
15.7213	0.469
15.7584	0.464
15.7956	0.452
15.8327	0.442
15.8698	0.422
15.907	0.405
15.9441	0.4
15.9812	0.396
