Infrared Spectrum: CUPRIC ACETATE, HYDRATE
Formula: C4 H6 O4 Cu  * H2 O
State: SOLID (MINERAL OIL MULL)
Class: COBLENTZ
Instrument: Not specified, most likely a prism, grating, or hybrid spectrometer.
Sampling: TRANSMISSION
Resolution: 4
Origin: BELL TELEPHONE LABORATORIES- F. VRATNY
MICROMETERS	TRANSMITTANCE
2.086	0.724
2.11915	0.724
2.15229	0.727
2.18544	0.731
2.21858	0.733
2.25173	0.719
2.28487	0.688
2.31802	0.689
2.35117	0.703
2.38431	0.707
2.41746	0.716
2.4506	0.719
2.48375	0.721
2.51689	0.733
2.55004	0.747
2.58318	0.762
2.61633	0.764
2.64948	0.789
2.68262	0.794
2.71577	0.81
2.74891	0.789
2.78206	0.747
2.8152	0.572
2.84835	0.36
2.8815	0.201
2.91464	0.141
2.94779	0.161
2.98093	0.121
3.01408	0.214
3.04722	0.282
3.08037	0.251
3.11352	0.364
3.14666	0.426
3.17981	0.455
3.21295	0.515
3.2461	0.535
3.27924	0.539
3.31239	0.505
3.34553	0.386
3.37868	0.182
3.41183	0.069
3.44497	0.045
3.47812	0.03
3.51126	0.022
3.54441	0.21
3.57755	0.535
3.6107	0.635
3.64385	0.684
3.67699	0.68
3.71014	0.681
3.74328	0.688
3.77643	0.696
3.80957	0.708
3.84272	0.72
3.87587	0.724
3.90901	0.735
3.94216	0.753
3.9753	0.762
4.00845	0.761
4.04159	0.752
4.07474	0.741
4.10788	0.749
4.14103	0.758
4.17418	0.758
4.20732	0.757
4.24047	0.754
4.27361	0.758
4.30676	0.765
4.3399	0.752
4.37305	0.75
4.4062	0.752
4.43934	0.752
4.47249	0.75
4.50563	0.762
4.53878	0.768
4.57192	0.768
4.60507	0.772
4.63822	0.778
4.67136	0.781
4.70451	0.798
4.73765	0.8
4.7708	0.806
4.80394	0.809
4.83709	0.808
4.87024	0.805
4.90338	0.805
4.93653	0.809
4.96967	0.809
5.00282	0.809
5.03596	0.804
5.06911	0.808
5.10225	0.81
5.1354	0.81
5.16855	0.813
5.20169	0.817
5.23484	0.818
5.26798	0.81
5.30113	0.814
5.33427	0.812
5.36742	0.805
5.40057	0.809
5.43371	0.804
5.46686	0.8
5.5	0.793
5.53315	0.789
5.56629	0.772
5.59944	0.761
5.63259	0.76
5.66573	0.749
5.69888	0.739
5.73202	0.711
5.76517	0.692
5.79831	0.673
5.83146	0.663
5.8646	0.612
5.89775	0.569
5.9309	0.507
5.96404	0.41
5.99719	0.312
6.03033	0.243
6.06348	0.198
6.09662	0.074
6.12977	0.022
6.16292	0.007
6.19606	0.007
6.22921	0.011
6.26235	0.018
6.2955	0.042
6.32864	0.13
6.36179	0.159
6.39494	0.201
6.42808	0.239
6.46123	0.278
6.49437	0.308
6.52752	0.33
6.56066	0.34
6.59381	0.336
6.62695	0.335
6.6601	0.334
6.69325	0.322
6.72639	0.275
6.75954	0.167
6.79268	0.069
6.82583	0.021
6.85897	0.011
6.89212	0.009
6.92527	0.011
6.95841	0.015
6.99156	0.021
7.0247	0.025
7.05785	0.115
7.09099	0.157
7.12414	0.219
7.15729	0.247
7.19043	0.209
7.22358	0.15
7.25672	0.21
7.28987	0.259
7.32301	0.288
7.35616	0.268
7.3893	0.344
7.42245	0.41
7.4556	0.438
7.48874	0.456
7.52189	0.463
7.55503	0.474
7.58818	0.475
7.62132	0.482
7.65447	0.487
7.68762	0.501
7.72076	0.511
7.75391	0.524
7.78705	0.537
7.8202	0.545
7.85334	0.544
7.88649	0.557
7.91964	0.567
7.95278	0.569
7.98593	0.571
8.01907	0.572
8.05222	0.579
8.08536	0.595
8.11851	0.599
8.15165	0.6
8.1848	0.599
8.21795	0.6
8.25109	0.603
8.28424	0.605
8.31738	0.611
8.35053	0.613
8.38367	0.62
8.41682	0.612
8.44997	0.611
8.48311	0.607
8.51626	0.599
8.5494	0.597
8.58255	0.597
8.61569	0.599
8.64884	0.599
8.68199	0.599
8.71513	0.6
8.74828	0.609
8.78142	0.62
8.81457	0.625
8.84771	0.621
8.88086	0.619
8.91401	0.619
8.94715	0.629
8.9803	0.636
9.01344	0.641
9.04659	0.633
9.07973	0.635
9.11288	0.632
9.14602	0.631
9.17917	0.632
9.21232	0.629
9.24546	0.632
9.27861	0.632
9.31175	0.624
9.3449	0.615
9.37804	0.599
9.41119	0.531
9.44434	0.43
9.47748	0.402
9.51063	0.426
9.54377	0.476
9.57692	0.49
9.61006	0.432
9.64321	0.372
9.67636	0.432
9.7095	0.494
9.74265	0.567
9.77579	0.589
9.80894	0.609
9.84208	0.617
9.87523	0.62
9.90837	0.632
9.94152	0.633
9.97467	0.639
10.0078	0.641
10.041	0.645
10.0741	0.652
10.1072	0.661
10.1404	0.66
10.1735	0.652
10.2067	0.641
10.2398	0.641
10.273	0.647
10.3061	0.649
10.3393	0.652
10.3724	0.652
10.4056	0.655
10.4387	0.655
10.4719	0.656
10.505	0.657
10.5381	0.661
10.5713	0.657
10.6044	0.655
10.6376	0.661
10.6707	0.66
10.7039	0.657
10.737	0.66
10.7702	0.669
10.8033	0.679
10.8365	0.679
10.8696	0.679
10.9027	0.685
10.9359	0.681
10.969	0.685
11.0022	0.692
11.0353	0.693
11.0685	0.693
11.1016	0.691
11.1348	0.695
11.1679	0.689
11.2011	0.693
11.2342	0.692
11.2673	0.704
11.3005	0.708
11.3336	0.709
11.3668	0.7
11.3999	0.708
11.4331	0.705
11.4662	0.705
11.4994	0.705
11.5325	0.705
11.5657	0.707
11.5988	0.709
11.6319	0.708
11.6651	0.707
11.6982	0.705
11.7314	0.704
11.7645	0.705
11.7977	0.708
11.8308	0.709
11.864	0.709
11.8971	0.712
11.9303	0.713
11.9634	0.705
11.9966	0.708
12.0297	0.712
12.0628	0.713
12.096	0.716
12.1291	0.725
12.1623	0.716
12.1954	0.723
12.2286	0.719
12.2617	0.716
12.2949	0.721
12.328	0.72
12.3612	0.72
12.3943	0.719
12.4274	0.72
12.4606	0.723
12.4937	0.721
12.5269	0.72
12.56	0.719
12.5932	0.716
12.6263	0.716
12.6595	0.713
12.6926	0.708
12.7258	0.707
12.7589	0.704
12.792	0.7
12.8252	0.697
12.8583	0.697
12.8915	0.693
12.9246	0.691
12.9578	0.688
12.9909	0.68
13.0241	0.683
13.0572	0.688
13.0904	0.684
13.1235	0.683
13.1566	0.673
13.1898	0.671
13.2229	0.669
13.2561	0.667
13.2892	0.663
13.3224	0.656
13.3555	0.643
13.3887	0.639
13.4218	0.636
13.455	0.629
13.4881	0.608
13.5213	0.597
13.5544	0.596
13.5875	0.591
13.6207	0.58
13.6538	0.573
13.687	0.568
13.7201	0.564
13.7533	0.539
13.7864	0.528
13.8196	0.524
13.8527	0.523
13.8859	0.519
13.919	0.513
13.9521	0.512
13.9853	0.505
14.0184	0.492
14.0516	0.466
14.0847	0.448
14.1179	0.408
14.151	0.371
14.1842	0.334
14.2173	0.278
14.2505	0.242
14.2836	0.189
14.3167	0.151
14.3499	0.129
14.383	0.113
14.4162	0.11
14.4493	0.113
14.4825	0.119
14.5156	0.13
14.5488	0.154
14.5819	0.166
14.6151	0.243
14.6482	0.288
14.6813	0.327
14.7145	0.378
14.7476	0.411
14.7808	0.439
14.8139	0.468
14.8471	0.491
14.8802	0.517
14.9134	0.548
14.9465	0.537
14.9797	0.539
15.0128	0.551
15.046	0.565
15.0791	0.572
15.1122	0.58
15.1454	0.581
15.1785	0.588
15.2117	0.591
15.2448	0.587
15.278	0.585
