Infrared Spectrum: O-NITRO CARBANILIC ACID, L-MENTHYL ESTER
Formula: C17 H24 N2 O4
State: SOLID (2.0 mg / 100 mg KBr)
Class: COBLENTZ
Instrument: Not specified, most likely a grating spectrometer.
Sampling: TRANSMISSION
Resolution: 4
Origin: CITRUS EXPERIMENT STATION, UNIVERSITY OF FLORIDA (G. EDWARDS)
MICROMETERS	TRANSMITTANCE
2.033	0.874
2.06618	0.877
2.09935	0.876
2.13253	0.88
2.1657	0.882
2.19888	0.881
2.23206	0.877
2.26523	0.88
2.29841	0.884
2.33158	0.888
2.36476	0.888
2.39794	0.892
2.43111	0.894
2.46429	0.9
2.49746	0.901
2.53064	0.902
2.56381	0.904
2.59699	0.905
2.63017	0.904
2.66334	0.905
2.69652	0.902
2.72969	0.901
2.76287	0.9
2.79605	0.897
2.82922	0.893
2.8624	0.882
2.89557	0.865
2.92875	0.85
2.96193	0.845
2.9951	0.802
3.02828	0.593
3.06145	0.754
3.09463	0.87
3.12781	0.87
3.16098	0.872
3.19416	0.876
3.22733	0.864
3.26051	0.86
3.29369	0.88
3.32686	0.892
3.36004	0.87
3.39321	0.6
3.42639	0.415
3.45957	0.466
3.49274	0.593
3.52592	0.627
3.55909	0.886
3.59227	0.91
3.62544	0.92
3.65862	0.92
3.6918	0.924
3.72497	0.93
3.75815	0.929
3.79132	0.929
3.8245	0.929
3.85768	0.93
3.89085	0.938
3.92403	0.94
3.9572	0.941
3.99038	0.944
4.02356	0.94
4.05673	0.941
4.08991	0.938
4.12308	0.937
4.15626	0.94
4.18944	0.941
4.22261	0.942
4.25579	0.944
4.28896	0.945
4.32214	0.945
4.35532	0.945
4.38849	0.945
4.42167	0.942
4.45484	0.942
4.48802	0.942
4.52119	0.942
4.55437	0.942
4.58755	0.948
4.62072	0.949
4.6539	0.95
4.68707	0.952
4.72025	0.952
4.75343	0.952
4.7866	0.952
4.81978	0.952
4.85295	0.952
4.88613	0.95
4.91931	0.95
4.95248	0.949
4.98566	0.949
5.01883	0.949
5.05201	0.942
5.08519	0.94
5.11836	0.94
5.15154	0.936
5.18471	0.942
5.21789	0.94
5.25107	0.942
5.28424	0.942
5.31742	0.942
5.35059	0.933
5.38377	0.929
5.41694	0.922
5.45012	0.909
5.4833	0.893
5.51647	0.91
5.54965	0.9
5.58282	0.88
5.616	0.862
5.64918	0.816
5.68235	0.727
5.71553	0.287
5.7487	0.123
5.78188	0.183
5.81506	0.593
5.84823	0.687
5.88141	0.79
5.91458	0.83
5.94776	0.852
5.98094	0.85
6.01411	0.848
6.04729	0.817
6.08046	0.801
6.11364	0.772
6.14682	0.715
6.17999	0.491
6.21317	0.371
6.24634	0.587
6.27952	0.466
6.3127	0.226
6.34587	0.628
6.37905	0.743
6.41222	0.672
6.4454	0.635
6.47857	0.492
6.51175	0.38
6.54493	0.118
6.5781	0.087
6.61128	0.09
6.64445	0.153
6.67763	0.355
6.71081	0.458
6.74398	0.6
6.77716	0.659
6.81033	0.593
6.84351	0.459
6.87669	0.23
6.90986	0.299
6.94304	0.363
6.97621	0.315
7.00939	0.395
7.04257	0.491
7.07574	0.609
7.10892	0.641
7.14209	0.679
7.17527	0.692
7.20845	0.659
7.24162	0.603
7.2748	0.632
7.30797	0.637
7.34115	0.611
7.37432	0.603
7.4075	0.214
7.44068	0.167
7.47385	0.318
7.50703	0.418
7.5402	0.529
7.57338	0.587
7.60656	0.39
7.63973	0.467
7.67291	0.468
7.70608	0.454
7.73926	0.404
7.77244	0.366
7.80561	0.291
7.83879	0.201
7.87196	0.218
7.90514	0.299
7.93832	0.382
7.97149	0.422
8.00467	0.375
8.03784	0.198
8.07102	0.174
8.1042	0.258
8.13737	0.411
8.17055	0.583
8.20372	0.579
8.2369	0.494
8.27007	0.371
8.30325	0.258
8.33643	0.242
8.3696	0.375
8.40278	0.525
8.43595	0.573
8.46913	0.509
8.50231	0.495
8.53548	0.615
8.56866	0.633
8.60183	0.561
8.63501	0.504
8.66819	0.454
8.70136	0.491
8.73454	0.412
8.76771	0.548
8.80089	0.688
8.83407	0.723
8.86724	0.707
8.90042	0.721
8.93359	0.727
8.96677	0.737
8.99995	0.741
9.03312	0.737
9.0663	0.736
9.09947	0.744
9.13265	0.711
9.16583	0.629
9.199	0.515
9.23218	0.474
9.26535	0.565
9.29853	0.619
9.3317	0.691
9.36488	0.732
9.39806	0.758
9.43123	0.744
9.46441	0.695
9.49758	0.671
9.53076	0.637
9.56394	0.5
9.59711	0.388
9.63029	0.308
9.66346	0.344
9.69664	0.456
9.72982	0.611
9.76299	0.672
9.79617	0.757
9.82934	0.792
9.86252	0.816
9.8957	0.828
9.92887	0.826
9.96205	0.828
9.99522	0.829
10.0284	0.844
10.0616	0.854
10.0948	0.857
10.1279	0.85
10.1611	0.805
10.1943	0.754
10.2275	0.681
10.2606	0.709
10.2938	0.761
10.327	0.728
10.3602	0.663
10.3933	0.661
10.4265	0.687
10.4597	0.736
10.4929	0.761
10.526	0.773
10.5592	0.785
10.5924	0.812
10.6256	0.844
10.6587	0.862
10.6919	0.869
10.7251	0.868
10.7583	0.86
10.7914	0.848
10.8246	0.809
10.8578	0.812
10.891	0.837
10.9241	0.848
10.9573	0.853
10.9905	0.864
11.0237	0.88
11.0569	0.888
11.09	0.888
11.1232	0.874
11.1564	0.86
11.1896	0.854
11.2227	0.85
11.2559	0.842
11.2891	0.809
11.3223	0.798
11.3554	0.817
11.3886	0.848
11.4218	0.866
11.455	0.864
11.4881	0.845
11.5213	0.792
11.5545	0.677
11.5877	0.663
11.6208	0.691
11.654	0.712
11.6872	0.765
11.7204	0.801
11.7535	0.814
11.7867	0.84
11.8199	0.848
11.8531	0.852
11.8863	0.853
11.9194	0.846
11.9526	0.83
11.9858	0.777
12.019	0.7
12.0521	0.687
12.0853	0.745
12.1185	0.793
12.1517	0.837
12.1848	0.861
12.218	0.865
12.2512	0.869
12.2844	0.874
12.3175	0.888
12.3507	0.889
12.3839	0.89
12.4171	0.89
12.4502	0.89
12.4834	0.886
12.5166	0.885
12.5498	0.878
12.5829	0.872
12.6161	0.861
12.6493	0.841
12.6825	0.809
12.7156	0.753
12.7488	0.628
12.782	0.588
12.8152	0.648
12.8484	0.707
12.8815	0.768
12.9147	0.816
12.9479	0.822
12.9811	0.812
13.0142	0.786
13.0474	0.728
13.0806	0.685
13.1138	0.703
13.1469	0.735
13.1801	0.785
13.2133	0.821
13.2465	0.832
13.2796	0.83
13.3128	0.812
13.346	0.78
13.3792	0.711
13.4123	0.664
13.4455	0.636
13.4787	0.564
13.5119	0.443
13.545	0.242
13.5782	0.275
13.6114	0.403
13.6446	0.572
13.6778	0.671
13.7109	0.732
13.7441	0.781
13.7773	0.801
13.8105	0.818
13.8436	0.83
13.8768	0.833
13.91	0.836
13.9432	0.837
13.9763	0.836
14.0095	0.836
14.0427	0.836
14.0759	0.84
14.109	0.836
14.1422	0.833
14.1754	0.826
14.2086	0.824
14.2417	0.812
14.2749	0.808
14.3081	0.797
14.3413	0.788
14.3744	0.781
14.4076	0.766
14.4408	0.748
14.474	0.725
14.5071	0.707
14.5403	0.7
14.5735	0.708
14.6067	0.716
14.6399	0.711
14.673	0.704
14.7062	0.695
14.7394	0.699
14.7726	0.712
14.8057	0.729
14.8389	0.739
14.8721	0.748
14.9053	0.749
14.9384	0.749
14.9716	0.75
15.0048	0.756
15.038	0.76
