Infrared Spectrum: Chlorpheniramine
Formula: C20 H23 Cl N2 O4
State: SOLID (NUJOL MULL)
Melting point: 130-135 C
Class: COBLENTZ III
Instrument: PERKIN-ELMER 21 (GRATING)
Resolution: 2
Origin: THE SQUIBB INSTITUTE FOR MEDICAL RESEARCH
1/CM	TRANSMITTANCE
658	0.7282
667	0.8698
676	0.9834
685	0.9911
694	0.9983
703	1.0044
712	0.9968
721	0.9866
730	0.9945
739	0.9548
748	0.863
757	0.722
766	0.4239
775	0.7979
784	0.7842
793	0.9654
802	0.9184
811	0.8951
820	0.9288
829	0.8473
838	0.7458
847	0.8943
856	0.883
865	0.3225
874	0.7725
883	0.5308
892	0.7881
901	0.9195
910	0.9406
919	0.9173
928	0.8979
937	0.8442
946	0.7167
955	0.8127
964	0.7473
973	0.6358
982	0.757
991	0.676
1000	0.5959
1009	0.5021
1018	0.6495
1027	0.5983
1036	0.531
1045	0.4548
1054	0.4509
1063	0.4269
1072	0.3881
1081	0.3418
1090	0.3169
1099	0.3109
1108	0.3551
1117	0.4374
1126	0.4816
1135	0.4977
1144	0.4878
1153	0.4915
1162	0.5498
1171	0.5353
1180	0.5157
1189	0.5749
1198	0.5451
1207	0.5851
1216	0.7598
1225	0.7787
1234	0.7619
1243	0.8868
1252	0.9052
1261	0.9139
1270	0.9066
1279	0.9111
1288	0.8544
1297	0.7817
1306	0.8302
1315	0.7305
1324	0.7584
1333	0.652
1342	0.5165
1351	0.2817
1360	0.2821
1369	0.4411
1378	0.4429
1387	0.5087
1396	0.6413
1405	0.6069
1414	0.5702
1423	0.5529
1432	0.2332
1441	0.37
1450	0.2253
1459	0.1813
1468	0.1548
1477	0.1149
1486	0.1323
1495	0.1913
1504	0.2802
1513	0.3855
1522	0.4206
1531	0.4316
1540	0.5117
1549	0.5211
1558	0.4525
1567	0.3436
1576	0.294
1585	0.1997
1594	0.2109
1603	0.3886
1612	0.4847
1621	0.4264
1630	0.5308
1639	0.6625
1648	0.6982
1657	0.8437
1666	0.8545
1675	0.8527
1684	0.805
1693	0.7295
1702	0.7041
1711	0.7179
1720	0.7963
1729	0.914
1738	0.9864
1747	0.992
1756	0.9882
1765	0.9759
1774	0.9651
1783	0.9571
1792	0.9395
1801	0.9278
1810	0.9225
1819	0.9193
1828	0.9193
1837	0.922
1846	0.9261
1855	0.9292
1864	0.931
1873	0.9323
1882	0.9331
1891	0.9324
1900	0.9286
1909	0.9252
1918	0.9251
1927	0.9257
1936	0.9243
1945	0.9217
1954	0.9208
1963	0.926
1972	0.9317
1981	0.937
1990	0.9435
1999	0.9483
2008	0.9521
2017	0.9542
2026	0.9541
2035	0.9533
2044	0.9519
2053	0.9502
2062	0.9481
2071	0.9456
2080	0.9423
2089	0.9376
2098	0.9333
2107	0.9294
2116	0.9253
2125	0.9209
2134	0.9164
2143	0.9121
2152	0.9068
2161	0.9015
2170	0.8962
2179	0.8897
2188	0.8831
2197	0.8765
2206	0.8674
2215	0.8582
2224	0.8501
2233	0.8422
2242	0.8298
2251	0.8175
2260	0.8059
2269	0.7933
2278	0.78
2287	0.764
2296	0.7451
2305	0.7243
2314	0.7057
2323	0.695
2332	0.6893
2341	0.6848
2350	0.6812
2359	0.6787
2368	0.6754
2377	0.6705
2386	0.6668
2395	0.6638
2404	0.6611
2413	0.6609
2422	0.6616
2431	0.6631
2440	0.6659
2449	0.6712
2458	0.6772
2467	0.6832
2476	0.6883
2485	0.6932
2494	0.6981
2503	0.7032
2512	0.7084
2521	0.713
2530	0.7174
2539	0.7218
2548	0.725
2557	0.726
2566	0.7273
2575	0.7281
2584	0.7288
2593	0.7307
2602	0.7375
2611	0.7497
2620	0.7558
2629	0.7601
2638	0.7639
2647	0.7668
2656	0.7685
2665	0.7702
2674	0.7718
2683	0.7741
2692	0.783
2701	0.7934
2710	0.8051
2719	0.8179
2728	0.8282
2737	0.8371
2746	0.841
2755	0.8432
2764	0.8451
2773	0.8466
2782	0.8479
2791	0.8478
2800	0.8435
2809	0.8358
2818	0.8264
2827	0.8187
2836	0.8111
2845	0.8035
2854	0.7977
2863	0.7923
2872	0.789
2881	0.786
2890	0.7843
2899	0.7826
2908	0.7813
2917	0.7804
2926	0.7795
2935	0.778
2944	0.7765
2953	0.7749
2962	0.7731
2971	0.7705
2980	0.7683
2989	0.7676
2998	0.7696
3007	0.7714
3016	0.7772
3025	0.7844
3034	0.7927
3043	0.8023
3052	0.8133
3061	0.8358
3070	0.8777
3079	0.9029
3088	0.9302
3097	0.9457
3106	0.954
3115	0.9591
3124	0.9636
3133	0.9665
3142	0.9694
3151	0.9714
3160	0.973
3169	0.9746
3178	0.9751
3187	0.9752
3196	0.9752
3205	0.9749
3214	0.9746
3223	0.9743
3232	0.9738
3241	0.9732
3250	0.9725
3259	0.9719
3268	0.9712
3277	0.9706
3286	0.9699
3295	0.9692
3304	0.9685
3313	0.9678
3322	0.9671
3331	0.9664
3340	0.9657
3349	0.9652
3358	0.9646
3367	0.9641
3376	0.9635
3385	0.9632
3394	0.9629
3403	0.9626
3412	0.9623
3421	0.962
3430	0.9617
3439	0.9614
3448	0.9612
3457	0.9609
3466	0.9606
3475	0.9602
3484	0.96
3493	0.9597
3502	0.9594
3511	0.9592
3520	0.9584
3529	0.9576
3538	0.9568
3547	0.9559
3556	0.9547
3565	0.9533
3574	0.9518
3583	0.9504
3592	0.949
3601	0.9481
3610	0.9473
3619	0.9465
3628	0.9457
3637	0.9449
3646	0.9445
3655	0.9442
3664	0.944
3673	0.9437
3682	0.9434
3691	0.9431
3700	0.9429
3709	0.9426
3718	0.942
3727	0.9413
3736	0.9405
3745	0.9398
3754	0.939
3763	0.9382
3772	0.9371
3781	0.9361
3790	0.9351
3799	0.9341
3808	0.9332
3817	0.9322
3826	0.9313
3835	0.9304
3844	0.9295
3853	0.9286
3862	0.9276
3871	0.9267
3880	0.9258
3889	0.925
3898	0.9241
3907	0.9232
3916	0.9223
3925	0.9214
3934	0.9205
3943	0.9197
3952	0.9188
3961	0.9179
3970	0.9171
3979	0.9163
3988	0.9155
3997	0.9146
