Infrared Spectrum: FUCHSIN REN BASIC
Formula: C20 H20 Cl N3
State: SOLID (MINERAL OIL MULL)
Class: COBLENTZ
Instrument: Not specified, most likely a prism, grating, or hybrid spectrometer.
Sampling: TRANSMISSION
Resolution: 4
Origin: WYANDOTTE CHEMICALS CORP., WYANDOTTE, MICHIGAN, USA
MICROMETERS	TRANSMITTANCE
2.012	0.246
2.04919	0.244
2.08637	0.248
2.12356	0.248
2.16075	0.249
2.19793	0.258
2.23512	0.251
2.27231	0.251
2.30949	0.243
2.34668	0.243
2.38387	0.249
2.42105	0.249
2.45824	0.268
2.49543	0.271
2.53261	0.266
2.5698	0.271
2.60699	0.277
2.64417	0.283
2.68136	0.303
2.71855	0.297
2.75573	0.283
2.79292	0.289
2.83011	0.286
2.86729	0.282
2.90448	0.258
2.94167	0.24
2.97885	0.229
3.01604	0.2
3.05323	0.175
3.09041	0.189
3.1276	0.182
3.16479	0.156
3.20197	0.145
3.23916	0.137
3.27635	0.141
3.31353	0.119
3.35072	0.063
3.38791	0.023
3.42509	0.021
3.46228	0.021
3.49947	0.027
3.53665	0.035
3.57384	0.151
3.61103	0.213
3.64821	0.238
3.6854	0.227
3.72259	0.231
3.75977	0.246
3.79696	0.26
3.83415	0.269
3.87133	0.272
3.90852	0.286
3.94571	0.3
3.98289	0.31
4.02008	0.313
4.05727	0.324
4.09445	0.331
4.13164	0.337
4.16883	0.342
4.20602	0.35
4.2432	0.356
4.28039	0.345
4.31758	0.348
4.35476	0.367
4.39195	0.395
4.42914	0.4
4.46632	0.401
4.50351	0.407
4.5407	0.418
4.57788	0.415
4.61507	0.424
4.65226	0.434
4.68944	0.44
4.72663	0.444
4.76382	0.46
4.801	0.479
4.83819	0.497
4.87538	0.488
4.91256	0.502
4.94975	0.516
4.98694	0.53
5.02412	0.533
5.06131	0.522
5.0985	0.537
5.13568	0.567
5.17287	0.579
5.21006	0.592
5.24724	0.598
5.28443	0.627
5.32162	0.648
5.3588	0.671
5.39599	0.68
5.43318	0.699
5.47036	0.722
5.50755	0.73
5.54474	0.753
5.58192	0.778
5.61911	0.823
5.6563	0.827
5.69348	0.877
5.73067	0.894
5.76786	0.919
5.80504	0.891
5.84223	0.874
5.87942	0.782
5.9166	0.632
5.95379	0.53
5.99098	0.472
6.02816	0.379
6.06535	0.286
6.10254	0.297
6.13972	0.344
6.17691	0.319
6.2141	0.134
6.25128	0.094
6.28847	0.097
6.32566	0.125
6.36284	0.139
6.40003	0.148
6.43722	0.139
6.4744	0.137
6.51159	0.155
6.54878	0.168
6.58596	0.193
6.62315	0.237
6.66034	0.262
6.69752	0.268
6.73471	0.218
6.7719	0.099
6.80908	0.046
6.84627	0.063
6.88346	0.091
6.92064	0.195
6.95783	0.348
6.99502	0.409
7.0322	0.398
7.06939	0.324
7.10658	0.257
7.14376	0.227
7.18095	0.184
7.21814	0.082
7.25532	0.041
7.29251	0.058
7.3297	0.079
7.36688	0.103
7.40407	0.102
7.44126	0.093
7.47844	0.096
7.51563	0.096
7.55282	0.102
7.59	0.12
7.62719	0.141
7.66438	0.168
7.70156	0.151
7.73875	0.12
7.77594	0.119
7.81312	0.144
7.85031	0.161
7.8875	0.187
7.92468	0.203
7.96187	0.21
7.99906	0.24
8.03624	0.249
8.07343	0.272
8.11062	0.299
8.1478	0.317
8.18499	0.35
8.22218	0.39
8.25936	0.421
8.29655	0.477
8.33374	0.568
8.37093	0.618
8.40811	0.536
8.4453	0.269
8.48249	0.131
8.51967	0.099
8.55686	0.097
8.59405	0.103
8.63123	0.124
8.66842	0.141
8.70561	0.151
8.74279	0.161
8.77998	0.176
8.81717	0.198
8.85435	0.203
8.89154	0.212
8.92873	0.221
8.96591	0.224
9.0031	0.232
9.04029	0.237
9.07747	0.241
9.11466	0.238
9.15185	0.243
9.18903	0.24
9.22622	0.244
9.26341	0.243
9.30059	0.255
9.33778	0.26
9.37497	0.269
9.41215	0.288
9.44934	0.297
9.48653	0.296
9.52371	0.293
9.5609	0.297
9.59809	0.306
9.63527	0.31
9.67246	0.314
9.70965	0.32
9.74683	0.324
9.78402	0.32
9.82121	0.32
9.85839	0.317
9.89558	0.328
9.93277	0.348
9.96995	0.362
10.0071	0.384
10.0443	0.381
10.0815	0.382
10.1187	0.389
10.1559	0.4
10.1931	0.407
10.2303	0.41
10.2674	0.4
10.3046	0.407
10.3418	0.401
10.379	0.407
10.4162	0.384
10.4534	0.4
10.4906	0.429
10.5278	0.448
10.5649	0.458
10.6021	0.469
10.6393	0.482
10.6765	0.486
10.7137	0.5
10.7509	0.516
10.7881	0.517
10.8252	0.53
10.8624	0.53
10.8996	0.497
10.9368	0.451
10.974	0.389
11.0112	0.299
11.0484	0.297
11.0856	0.35
11.1227	0.4
11.1599	0.438
11.1971	0.448
11.2343	0.469
11.2715	0.488
11.3087	0.499
11.3459	0.508
11.383	0.531
11.4202	0.525
11.4574	0.531
11.4946	0.541
11.5318	0.544
11.569	0.55
11.6062	0.547
11.6434	0.517
11.6805	0.485
11.7177	0.441
11.7549	0.367
11.7921	0.325
11.8293	0.266
11.8665	0.227
11.9037	0.229
11.9408	0.258
11.978	0.293
12.0152	0.336
12.0524	0.35
12.0896	0.347
12.1268	0.333
12.164	0.328
12.2012	0.32
12.2383	0.336
12.2755	0.348
12.3127	0.368
12.3499	0.387
12.3871	0.401
12.4243	0.417
12.4615	0.437
12.4986	0.443
12.5358	0.441
12.573	0.449
12.6102	0.455
12.6474	0.448
12.6846	0.449
12.7218	0.451
12.759	0.448
12.7961	0.449
12.8333	0.438
12.8705	0.44
12.9077	0.431
12.9449	0.424
12.9821	0.427
13.0193	0.421
13.0564	0.418
13.0936	0.384
13.1308	0.351
13.168	0.356
13.2052	0.367
13.2424	0.37
13.2796	0.376
13.3168	0.373
13.3539	0.364
13.3911	0.368
13.4283	0.361
13.4655	0.359
13.5027	0.358
13.5399	0.355
13.5771	0.337
13.6142	0.31
13.6514	0.302
13.6886	0.3
13.7258	0.313
13.763	0.317
13.8002	0.327
13.8374	0.327
13.8746	0.33
13.9117	0.331
13.9489	0.337
13.9861	0.351
14.0233	0.361
14.0605	0.361
14.0977	0.362
14.1349	0.368
14.172	0.373
14.2092	0.372
14.2464	0.376
14.2836	0.376
14.3208	0.378
14.358	0.378
14.3952	0.379
14.4324	0.375
14.4695	0.376
14.5067	0.378
14.5439	0.375
14.5811	0.376
14.6183	0.375
14.6555	0.373
14.6927	0.368
14.7299	0.365
14.767	0.362
14.8042	0.364
14.8414	0.358
14.8786	0.356
14.9158	0.356
14.953	0.356
14.9902	0.351
15.0273	0.344
15.0645	0.302
15.1017	0.285
15.1389	0.285
15.1761	0.296
15.2133	0.305
15.2505	0.319
15.2877	0.32
15.3248	0.319
15.362	0.31
15.3992	0.31
15.4364	0.306
15.4736	0.305
15.5108	0.302
15.548	0.3
15.5851	0.299
15.6223	0.297
15.6595	0.297
15.6967	0.299
15.7339	0.291
15.7711	0.297
15.8083	0.299
15.8455	0.291
15.8826	0.291
15.9198	0.291
15.957	0.288
