Infrared Spectrum: POTASSIUM PERSULFATE
Formula: O8 S2 K2
State: SOLID (SPLIT MULL: FLUOROLUBE FOR 3800-1330 CM^-^1, NUJOL FOR 1330-400 CM^-^1)
Class: COBLENTZ III
Instrument: DOW KBr FOREPRISM-GRATING
Instrument parameters: BLAZED AT 3.5, 12.0, 20.0 MICRON AND CHANGED AT 5.0, 7.5, 14.9 MICRON
Sampling: TRANSMISSION
Resolution: 4
Origin: DOW CHEMICAL COMPANY
1/CM	TRANSMITTANCE
386.22	0.834
394.753	0.833
403.287	0.824
411.82	0.805
420.354	0.788
428.887	0.776
437.421	0.772
445.954	0.794
454.488	0.79
463.021	0.79
471.555	0.79
480.088	0.781
488.622	0.768
497.155	0.751
505.689	0.734
514.222	0.714
522.756	0.694
531.289	0.644
539.823	0.601
548.356	0.499
556.89	0.183
565.423	0.2519
573.957	0.686
582.49	0.618
591.024	0.2462
599.557	0.694
608.091	0.675
616.624	0.67
625.158	0.621
633.691	0.58
642.225	0.539
650.758	0.502
659.292	0.449
667.825	0.347
676.359	0.2681
684.892	0.205
693.426	0.189
701.959	0.196
710.493	0.227
719.026	0.302
727.56	0.4
736.093	0.5
744.627	0.6169
753.16	0.694
761.694	0.707
770.227	0.72
778.761	0.722
787.294	0.726
795.828	0.732
804.361	0.738
812.895	0.738
821.428	0.742
829.962	0.732
838.495	0.723
847.029	0.714
855.562	0.711
864.096	0.711
872.629	0.706
881.163	0.695
889.696	0.694
898.23	0.692
906.763	0.688
915.297	0.682
923.83	0.679
932.364	0.673
940.897	0.666
949.431	0.661
957.964	0.648
966.498	0.642
975.031	0.633
983.565	0.624
992.098	0.617
1000.63	0.605
1009.17	0.592
1017.7	0.576
1026.23	0.55
1034.77	0.514
1043.3	0.447
1051.83	0.327
1060.37	0.11
1068.9	0.228
1077.43	0.451
1085.97	0.502
1094.5	0.521
1103.03	0.508
1111.57	0.493
1120.1	0.485
1128.63	0.496
1137.17	0.496
1145.7	0.488
1154.23	0.48
1162.77	0.465
1171.3	0.446
1179.84	0.429
1188.37	0.423
1196.9	0.41
1205.44	0.398
1213.97	0.373
1222.5	0.353
1231.04	0.322
1239.57	0.271
1248.1	0.202
1256.64	0.138
1265.17	0.094
1273.7	0.094
1282.24	0.115
1290.77	0.1
1299.3	0.093
1307.84	0.125
1316.37	0.174
1324.9	0.276
1333.44	0.338
1341.97	0.438
1350.51	0.5339
1359.04	0.618
1367.57	0.663
1376.11	0.704
1384.64	0.729
1393.17	0.779
1401.71	0.782
1410.24	0.79
1418.77	0.778
1427.31	0.782
1435.84	0.815
1444.37	0.841
1452.91	0.868
1461.44	0.884
1469.97	0.901
1478.51	0.912
1487.04	0.918
1495.57	0.924
1504.11	0.933
1512.64	0.939
1521.18	0.945
1529.71	0.949
1538.24	0.954
1546.78	0.958
1555.31	0.958
1563.84	0.96
1572.38	0.961
1580.91	0.96
1589.44	0.963
1597.98	0.961
1606.51	0.958
1615.04	0.958
1623.58	0.96
1632.11	0.963
1640.64	0.96
1649.18	0.96
1657.71	0.958
1666.24	0.958
1674.78	0.961
1683.31	0.961
1691.85	0.964
1700.38	0.967
1708.91	0.967
1717.45	0.967
1725.98	0.967
1734.51	0.964
1743.05	0.963
1751.58	0.958
1760.11	0.955
1768.65	0.951
1777.18	0.948
1785.71	0.946
1794.25	0.945
1802.78	0.942
1811.31	0.94
1819.85	0.94
1828.38	0.939
1836.91	0.936
1845.45	0.936
1853.98	0.935
1862.52	0.933
1871.05	0.933
1879.58	0.933
1888.12	0.933
1896.65	0.932
1905.18	0.929
1913.72	0.929
1922.25	0.927
1930.78	0.926
1939.32	0.924
1947.85	0.923
1956.38	0.92
1964.92	0.92
1973.45	0.917
1981.98	0.914
1990.52	0.912
1999.05	0.915
2007.58	0.912
2016.12	0.914
2024.65	0.911
2033.19	0.9098
2041.72	0.909
2050.25	0.906
2058.79	0.9011
2067.32	0.8973
2075.85	0.896
2084.39	0.895
2092.92	0.8935
2101.45	0.887
2109.99	0.886
2118.52	0.884
2127.05	0.8786
2135.59	0.877
2144.12	0.88
2152.65	0.88
2161.19	0.88
2169.72	0.8738
2178.25	0.871
2186.79	0.8679
2195.32	0.867
2203.85	0.865
2212.39	0.867
2220.92	0.864
2229.46	0.858
2237.99	0.8521
2246.52	0.8482
2255.06	0.846
2263.59	0.841
2272.12	0.841
2280.66	0.8403
2289.19	0.8311
2297.72	0.8225
2306.26	0.8134
2314.79	0.8213
2323.32	0.825
2331.86	0.827
2340.39	0.827
2348.92	0.831
2357.46	0.8317
2365.99	0.8313
2374.52	0.833
2383.06	0.833
2391.59	0.834
2400.13	0.836
2408.66	0.837
2417.19	0.838
2425.73	0.838
2434.26	0.838
2442.79	0.837
2451.33	0.8379
2459.86	0.838
2468.39	0.838
2476.93	0.8372
2485.46	0.836
2493.99	0.836
2502.53	0.834
2511.06	0.834
2519.59	0.8344
2528.13	0.834
2536.66	0.834
2545.19	0.834
2553.73	0.833
2562.26	0.831
2570.8	0.831
2579.33	0.8309
2587.86	0.83
2596.4	0.828
2604.93	0.828
2613.46	0.828
2622	0.828
2630.53	0.827
2639.06	0.825
2647.6	0.825
2656.13	0.8231
2664.66	0.8191
2673.2	0.8171
2681.73	0.815
2690.26	0.813
2698.8	0.812
2707.33	0.8113
2715.86	0.809
2724.4	0.807
2732.93	0.806
2741.47	0.8045
2750	0.802
2758.53	0.799
2767.07	0.799
2775.6	0.797
2784.13	0.796
2792.67	0.794
2801.2	0.796
2809.73	0.7958
2818.27	0.7882
2826.8	0.7779
2835.33	0.768
2843.87	0.766
2852.4	0.768
2860.93	0.769
2869.47	0.7701
2878	0.765
2886.53	0.759
2895.07	0.7482
2903.6	0.74
2912.14	0.738
2920.67	0.74
2929.2	0.741
2937.74	0.741
2946.27	0.7444
2954.8	0.7533
2963.34	0.757
2971.87	0.7592
2980.4	0.7593
2988.94	0.7556
2997.47	0.7533
3006	0.7509
3014.54	0.748
3023.07	0.7468
3031.6	0.7428
3040.14	0.741
3048.67	0.741
3057.2	0.738
3065.74	0.734
3074.27	0.731
3082.81	0.729
3091.34	0.728
3099.87	0.726
3108.41	0.725
3116.94	0.723
3125.47	0.722
3134.01	0.7183
3142.54	0.7143
3151.07	0.711
3159.61	0.709
3168.14	0.707
3176.67	0.703
3185.21	0.701
3193.74	0.701
3202.27	0.692
3210.81	0.6867
3219.34	0.6787
3227.87	0.6731
3236.41	0.6628
3244.94	0.6588
3253.48	0.655
3262.01	0.657
3270.54	0.6581
3279.08	0.661
3287.61	0.663
3296.14	0.6724
3304.68	0.679
3313.21	0.6839
3321.74	0.6889
3330.28	0.692
3338.81	0.6919
3347.34	0.692
3355.88	0.692
3364.41	0.694
3372.94	0.694
3381.48	0.694
3390.01	0.694
3398.54	0.6918
3407.08	0.692
3415.61	0.691
3424.15	0.691
3432.68	0.691
3441.21	0.692
3449.75	0.6919
3458.28	0.691
3466.81	0.692
3475.35	0.691
3483.88	0.691
3492.41	0.69
3500.95	0.688
3509.48	0.686
3518.01	0.686
3526.55	0.686
3535.08	0.686
3543.61	0.686
3552.15	0.686
3560.68	0.686
3569.21	0.686
3577.75	0.6857
3586.28	0.685
3594.82	0.6845
3603.35	0.683
3611.88	0.683
3620.42	0.683
3628.95	0.683
3637.48	0.683
3646.02	0.683
3654.55	0.682
3663.08	0.68
3671.62	0.68
3680.15	0.68
3688.68	0.68
3697.22	0.679
3705.75	0.677
3714.28	0.676
3722.82	0.6765
3731.35	0.675
3739.88	0.6739
3748.42	0.673
3756.95	0.673
3765.49	0.6721
3774.02	0.672
3782.55	0.6703
3791.09	0.672
