Infrared Spectrum: POTASSIUM PERIODATE
Formula: K I O4
State: SOLID (NUJOL MULL)
Class: COBLENTZ
Instrument: Not specified, most likely a prism, grating, or hybrid spectrometer.
Sampling: TRANSMISSION
Resolution: 4
Origin: MELLON INSTITUTE
MICROMETERS	TRANSMITTANCE
2.076	0.815
2.11705	0.816
2.15809	0.815
2.19914	0.813
2.24018	0.816
2.28123	0.821
2.32227	0.823
2.36332	0.828
2.40436	0.833
2.44541	0.837
2.48645	0.842
2.5275	0.844
2.56854	0.847
2.60959	0.849
2.65063	0.852
2.69168	0.854
2.73272	0.856
2.77377	0.856
2.81481	0.856
2.85586	0.856
2.8969	0.856
2.93795	0.856
2.979	0.857
3.02004	0.857
3.06109	0.857
3.10213	0.859
3.14318	0.861
3.18422	0.863
3.22527	0.859
3.26631	0.847
3.30736	0.616
3.3484	0.296
3.38945	0.308
3.43049	0.441
3.47154	0.595
3.51258	0.837
3.55363	0.873
3.59467	0.886
3.63572	0.893
3.67676	0.893
3.71781	0.893
3.75885	0.897
3.7999	0.897
3.84095	0.897
3.88199	0.898
3.92304	0.898
3.96408	0.898
4.00513	0.898
4.04617	0.9
4.08722	0.898
4.12826	0.898
4.16931	0.898
4.21035	0.898
4.2514	0.898
4.29244	0.898
4.33349	0.9
4.37453	0.9
4.41558	0.898
4.45662	0.898
4.49767	0.898
4.53871	0.897
4.57976	0.897
4.6208	0.897
4.66185	0.897
4.7029	0.895
4.74394	0.895
4.78499	0.893
4.82603	0.893
4.86708	0.893
4.90812	0.893
4.94917	0.893
4.99021	0.893
5.03126	0.895
5.0723	0.895
5.11335	0.897
5.15439	0.897
5.19544	0.897
5.23648	0.897
5.27753	0.898
5.31857	0.898
5.35962	0.898
5.40066	0.9
5.44171	0.9
5.48275	0.9
5.5238	0.9
5.56485	0.902
5.60589	0.904
5.64694	0.905
5.68798	0.905
5.72903	0.907
5.77007	0.907
5.81112	0.907
5.85216	0.907
5.89321	0.905
5.93425	0.904
5.9753	0.898
6.01634	0.895
6.05739	0.883
6.09843	0.881
6.13948	0.898
6.18052	0.904
6.22157	0.909
6.26261	0.91
6.30366	0.902
6.34471	0.9
6.38575	0.9
6.4268	0.904
6.46784	0.905
6.50889	0.907
6.54993	0.904
6.59098	0.902
6.63202	0.902
6.67307	0.898
6.71411	0.878
6.75516	0.799
6.7962	0.684
6.83725	0.69
6.87829	0.739
6.91934	0.801
6.96038	0.849
7.00143	0.881
7.04247	0.895
7.08352	0.897
7.12456	0.895
7.16561	0.876
7.20666	0.804
7.2477	0.809
7.28875	0.859
7.32979	0.88
7.37084	0.892
7.41188	0.895
7.45293	0.898
7.49397	0.902
7.53502	0.902
7.57606	0.904
7.61711	0.904
7.65815	0.904
7.6992	0.905
7.74024	0.905
7.78129	0.909
7.82233	0.909
7.86338	0.909
7.90442	0.91
7.94547	0.91
7.98651	0.912
8.02756	0.912
8.06861	0.914
8.10965	0.914
8.1507	0.914
8.19174	0.914
8.23279	0.914
8.27383	0.914
8.31488	0.912
8.35592	0.912
8.39697	0.912
8.43801	0.912
8.47906	0.916
8.5201	0.914
8.56115	0.914
8.60219	0.914
8.64324	0.914
8.68428	0.912
8.72533	0.912
8.76637	0.912
8.80742	0.912
8.84846	0.909
8.88951	0.909
8.93056	0.905
8.9716	0.904
9.01265	0.909
9.05369	0.91
9.09474	0.912
9.13578	0.916
9.17683	0.916
9.21787	0.916
9.25892	0.914
9.29996	0.914
9.34101	0.912
9.38205	0.912
9.4231	0.912
9.46414	0.914
9.50519	0.914
9.54623	0.914
9.58728	0.916
9.62832	0.919
9.66937	0.921
9.71041	0.921
9.75146	0.922
9.79251	0.922
9.83355	0.924
9.8746	0.924
9.91564	0.924
9.95669	0.924
9.99773	0.922
10.0388	0.922
10.0798	0.921
10.1209	0.921
10.1619	0.921
10.203	0.921
10.244	0.921
10.285	0.921
10.3261	0.919
10.3671	0.919
10.4082	0.917
10.4492	0.917
10.4903	0.917
10.5313	0.919
10.5724	0.919
10.6134	0.919
10.6545	0.919
10.6955	0.914
10.7365	0.912
10.7776	0.912
10.8186	0.912
10.8597	0.91
10.9007	0.907
10.9418	0.905
10.9828	0.905
11.0239	0.905
11.0649	0.909
11.106	0.912
11.147	0.919
11.188	0.919
11.2291	0.921
11.2701	0.916
11.3112	0.897
11.3522	0.857
11.3933	0.681
11.4343	0.498
11.4754	0.253
11.5164	0.184
11.5575	0.131
11.5985	0.102
11.6395	0.092
11.6806	0.08
11.7216	0.071
11.7627	0.061
11.8037	0.054
11.8448	0.063
11.8858	0.232
11.9269	0.424
11.9679	0.529
12.0089	0.609
12.05	0.693
12.091	0.746
12.1321	0.797
12.1731	0.811
12.2142	0.832
12.2552	0.847
12.2963	0.854
12.3373	0.863
12.3784	0.871
12.4194	0.876
12.4604	0.881
12.5015	0.886
12.5425	0.892
12.5836	0.897
12.6246	0.898
12.6657	0.9
12.7067	0.898
12.7478	0.898
12.7888	0.898
12.8299	0.898
12.8709	0.897
12.9119	0.898
12.953	0.898
12.994	0.898
13.0351	0.9
13.0761	0.9
13.1172	0.9
13.1582	0.9
13.1993	0.9
13.2403	0.898
13.2814	0.9
13.3224	0.898
13.3634	0.898
13.4045	0.898
13.4455	0.898
13.4866	0.895
13.5276	0.892
13.5687	0.888
13.6097	0.883
13.6508	0.881
13.6918	0.878
13.7328	0.873
13.7739	0.873
13.8149	0.871
13.856	0.868
13.897	0.868
13.9381	0.866
13.9791	0.868
14.0202	0.866
14.0612	0.863
14.1023	0.859
14.1433	0.857
14.1843	0.854
14.2254	0.851
14.2664	0.849
14.3075	0.849
14.3485	0.844
14.3896	0.84
14.4306	0.837
14.4717	0.833
14.5127	0.83
14.5538	0.825
14.5948	0.823
14.6358	0.821
14.6769	0.82
14.7179	0.816
14.759	0.813
14.8	0.808
14.8411	0.803
14.8821	0.801
14.9232	0.797
14.9642	0.796
15.0053	0.791
15.0463	0.789
15.0873	0.785
15.1284	0.782
15.1694	0.779
15.2105	0.773
15.2515	0.772
15.2926	0.772
15.3336	0.768
15.3747	0.768
15.4157	0.765
15.4567	0.763
15.4978	0.761
15.5388	0.76
15.5799	0.758
15.6209	0.756
15.662	0.756
15.703	0.756
15.7441	0.755
15.7851	0.755
15.8262	0.756
15.8672	0.756
15.9082	0.76
15.9493	0.76
15.9903	0.76
