Infrared Spectrum: 4-[3-(2-TRIFLUOROMETHYL-10-PHENOTHIAZINYL)PROPYL]-1-PIPERAZINEETHANOL, ACETATE, DIHYDROCHLORIDE
Formula: C24 H30 Cl2 F3 N3 O2 S
State: SOLID (KBr DISC)
Class: COBLENTZ III
Instrument: Not specified, most likely a prism spectrometer.
Instrument parameters: NaCl PRISM
Sampling: TRANSMISSION
Resolution: 2
Origin: SMITH KLINE & FRENCH LABS.
MICROMETERS	TRANSMITTANCE
1.997	0.715
2.03124	0.717
2.06549	0.721
2.09973	0.727
2.13398	0.738
2.16822	0.744
2.20247	0.748
2.23671	0.75
2.27096	0.745
2.3052	0.732
2.33945	0.742
2.37369	0.756
2.40794	0.757
2.44218	0.757
2.47643	0.761
2.51067	0.767
2.54492	0.774
2.57916	0.778
2.61341	0.779
2.64765	0.791
2.6819	0.8
2.71614	0.803
2.75039	0.806
2.78463	0.797
2.81888	0.782
2.85312	0.754
2.88737	0.726
2.92161	0.722
2.95586	0.716
2.9901	0.731
3.02435	0.766
3.05859	0.795
3.09284	0.812
3.12708	0.825
3.16132	0.828
3.19557	0.832
3.22981	0.83
3.26406	0.799
3.2983	0.792
3.33255	0.763
3.36679	0.667
3.40104	0.587
3.43528	0.553
3.46953	0.633
3.50377	0.642
3.53802	0.68
3.57226	0.768
3.60651	0.782
3.64075	0.789
3.675	0.799
3.70924	0.771
3.74349	0.759
3.77773	0.703
3.81198	0.654
3.84622	0.634
3.88047	0.605
3.91471	0.572
3.94896	0.533
3.9832	0.473
4.01745	0.434
4.05169	0.446
4.08594	0.406
4.12018	0.328
4.15443	0.248
4.18867	0.208
4.22292	0.196
4.25716	0.197
4.2914	0.199
4.32565	0.202
4.35989	0.208
4.39414	0.217
4.42838	0.222
4.46263	0.223
4.49687	0.236
4.53112	0.251
4.56536	0.253
4.59961	0.291
4.63385	0.335
4.6681	0.372
4.70234	0.405
4.73659	0.45
4.77083	0.483
4.80508	0.507
4.83932	0.546
4.87357	0.579
4.90781	0.607
4.94206	0.653
4.9763	0.688
5.01055	0.72
5.04479	0.733
5.07904	0.756
5.11328	0.765
5.14753	0.784
5.18177	0.786
5.21602	0.811
5.25026	0.825
5.28451	0.834
5.31875	0.83
5.35299	0.852
5.38724	0.878
5.42148	0.893
5.45573	0.894
5.48997	0.898
5.52422	0.914
5.55846	0.914
5.59271	0.895
5.62695	0.865
5.6612	0.751
5.69544	0.588
5.72969	0.248
5.76393	0.157
5.79818	0.453
5.83242	0.645
5.86667	0.754
5.90091	0.771
5.93516	0.834
5.9694	0.86
6.00365	0.883
6.03789	0.892
6.07214	0.893
6.10638	0.881
6.14063	0.893
6.17487	0.901
6.20912	0.769
6.24336	0.6
6.27761	0.763
6.31185	0.814
6.3461	0.819
6.38034	0.751
6.41459	0.835
6.44883	0.893
6.48307	0.9
6.51732	0.903
6.55156	0.914
6.58581	0.904
6.62005	0.888
6.6543	0.774
6.68854	0.627
6.72279	0.587
6.75703	0.548
6.79128	0.381
6.82552	0.193
6.85977	0.215
6.89401	0.214
6.92826	0.214
6.9625	0.282
6.99675	0.249
7.03099	0.177
7.06524	0.236
7.09948	0.417
7.13373	0.49
7.16797	0.437
7.20222	0.236
7.23646	0.266
7.27071	0.364
7.30495	0.501
7.3392	0.501
7.37344	0.456
7.40769	0.461
7.44193	0.406
7.47618	0.169
7.51042	0.152
7.54467	0.219
7.57891	0.25
7.61315	0.209
7.6474	0.249
7.68164	0.324
7.71589	0.443
7.75013	0.422
7.78438	0.443
7.81862	0.378
7.85287	0.296
7.88711	0.248
7.92136	0.256
7.9556	0.393
7.98985	0.3
8.02409	0.175
8.05834	0.196
8.09258	0.2
8.12683	0.119
8.16107	0.076
8.19532	0.098
8.22956	0.236
8.26381	0.245
8.29805	0.248
8.3323	0.422
8.36654	0.512
8.40079	0.575
8.43503	0.553
8.46928	0.501
8.50352	0.427
8.53777	0.291
8.57201	0.193
8.60626	0.2
8.6405	0.274
8.67475	0.378
8.70899	0.271
8.74323	0.228
8.77748	0.302
8.81172	0.286
8.84597	0.221
8.88021	0.192
8.91446	0.156
8.9487	0.093
8.98295	0.1
9.01719	0.119
9.05144	0.164
9.08568	0.24
9.11993	0.355
9.15417	0.409
9.18842	0.335
9.22266	0.225
9.25691	0.198
9.29115	0.193
9.3254	0.308
9.35964	0.317
9.39389	0.276
9.42813	0.309
9.46238	0.361
9.49662	0.318
9.53087	0.25
9.56511	0.26
9.59936	0.291
9.6336	0.312
9.66785	0.347
9.70209	0.412
9.73634	0.445
9.77058	0.46
9.80483	0.492
9.83907	0.498
9.87331	0.538
9.90756	0.595
9.9418	0.601
9.97605	0.605
10.0103	0.634
10.0445	0.662
10.0788	0.681
10.113	0.699
10.1473	0.713
10.1815	0.72
10.2158	0.71
10.25	0.662
10.2843	0.572
10.3185	0.525
10.3527	0.592
10.387	0.645
10.4212	0.675
10.4555	0.713
10.4897	0.738
10.524	0.745
10.5582	0.745
10.5925	0.688
10.6267	0.555
10.6609	0.446
10.6952	0.29
10.7294	0.299
10.7637	0.453
10.7979	0.566
10.8322	0.623
10.8664	0.646
10.9007	0.645
10.9349	0.615
10.9691	0.548
11.0034	0.575
11.0376	0.573
11.0719	0.635
11.1061	0.686
11.1404	0.715
11.1746	0.739
11.2089	0.742
11.2431	0.739
11.2774	0.708
11.3116	0.604
11.3458	0.543
11.3801	0.606
11.4143	0.69
11.4486	0.717
11.4828	0.726
11.5171	0.71
11.5513	0.65
11.5856	0.475
11.6198	0.508
11.654	0.64
11.6883	0.715
11.7225	0.759
11.7568	0.792
11.791	0.818
11.8253	0.825
11.8595	0.825
11.8938	0.824
11.928	0.809
11.9623	0.744
11.9965	0.703
12.0307	0.709
12.065	0.669
12.0992	0.6
12.1335	0.51
12.1677	0.26
12.202	0.272
12.2362	0.446
12.2705	0.581
12.3047	0.671
12.3389	0.714
12.3732	0.75
12.4074	0.766
12.4417	0.789
12.4759	0.8
12.5102	0.824
12.5444	0.838
12.5787	0.84
12.6129	0.849
12.6471	0.859
12.6814	0.863
12.7156	0.869
12.7499	0.87
12.7841	0.869
12.8184	0.868
12.8526	0.864
12.8869	0.864
12.9211	0.864
12.9554	0.848
12.9896	0.789
13.0238	0.716
13.0581	0.656
13.0923	0.648
13.1266	0.665
13.1608	0.677
13.1951	0.601
13.2293	0.427
13.2636	0.274
13.2978	0.231
13.332	0.301
13.3663	0.348
13.4005	0.279
13.4348	0.266
13.469	0.427
13.5033	0.527
13.5375	0.618
13.5718	0.662
13.606	0.715
13.6402	0.725
13.6745	0.692
13.7087	0.604
13.743	0.627
13.7772	0.686
13.8115	0.57
13.8457	0.531
13.88	0.647
13.9142	0.711
13.9485	0.75
13.9827	0.774
14.0169	0.789
14.0512	0.802
14.0854	0.809
14.1197	0.823
14.1539	0.828
14.1882	0.83
14.2224	0.83
14.2567	0.801
14.2909	0.742
14.3251	0.727
14.3594	0.749
14.3936	0.779
14.4279	0.807
14.4621	0.841
14.4964	0.849
14.5306	0.849
14.5649	0.852
14.5991	0.855
14.6333	0.858
14.6676	0.858
14.7018	0.846
14.7361	0.83
14.7703	0.829
14.8046	0.841
14.8388	0.857
14.8731	0.861
14.9073	0.861
14.9416	0.861
14.9758	0.852
15.01	0.852
15.0443	0.86
15.0785	0.83
