Infrared Spectrum: 4-ImidazoleCarboxylic acid, 5-amino-, butyl ester, monohydrochloride
Formula: C8 H14 Cl N3 O2
State: SOLID (1 mg / 650 mg KBr DISC)
Class: COBLENTZ III
Instrument: PERKIN-ELMER 521 (GRATING)
Instrument parameters: FILTERS AT 3130, 2475, 2000, 1150, 700, 410. GRATING CHANGES: 2000, 630 CM^-^1
Sampling: TRANSMISSION
Resolution: 2
Origin: SOUTHERN RESEARCH INSTITUTE
1/CM	TRANSMITTANCE
250	0.3242
260.032	0.4026
270.064	0.4518
280.096	0.4902
290.128	0.5229
300.16	0.5248
310.192	0.4641
320.224	0.5235
330.256	0.6367
340.288	0.7017
350.32	0.6831
360.352	0.5756
370.384	0.6226
380.416	0.7653
390.448	0.7505
400.48	0.748
410.512	0.7406
420.544	0.7233
430.576	0.7016
440.608	0.6885
450.64	0.6595
460.672	0.6123
470.704	0.5641
480.736	0.5041
490.768	0.4291
500.8	0.4205
510.832	0.4603
520.864	0.512
530.896	0.5859
540.928	0.5802
550.96	0.4762
560.992	0.6267
571.024	0.6655
581.056	0.7018
591.088	0.7214
601.12	0.6677
611.152	0.4032
621.184	0.7346
631.216	0.7731
641.248	0.7993
651.28	0.8039
661.312	0.7994
671.344	0.7988
681.376	0.7881
691.408	0.7715
701.44	0.747
711.472	0.5814
721.504	0.8029
731.536	0.7715
741.568	0.7425
751.6	0.7116
761.632	0.4212
771.664	0.6657
781.696	0.7054
791.728	0.6601
801.76	0.5847
811.792	0.4924
821.824	0.4797
831.856	0.5088
841.888	0.4574
851.92	0.4648
861.952	0.6341
871.984	0.6919
882.016	0.6711
892.048	0.5979
902.08	0.4722
912.112	0.6253
922.144	0.5254
932.176	0.405
942.208	0.4412
952.24	0.6516
962.272	0.6696
972.304	0.6987
982.336	0.6424
992.368	0.6217
1002.4	0.6368
1012.43	0.6187
1022.46	0.6132
1032.5	0.6114
1042.53	0.6014
1052.56	0.5802
1062.59	0.5685
1072.62	0.6153
1082.66	0.599
1092.69	0.5655
1102.72	0.4897
1112.75	0.3772
1122.78	0.2867
1132.82	0.2176
1142.85	0.3431
1152.88	0.3893
1162.91	0.3886
1172.94	0.2822
1182.98	0.2614
1193.01	0.532
1203.04	0.7011
1213.07	0.6781
1223.1	0.497
1233.14	0.3973
1243.17	0.7486
1253.2	0.7351
1263.23	0.7114
1273.26	0.7358
1283.3	0.6948
1293.33	0.5843
1303.36	0.4132
1313.39	0.2737
1323.42	0.2291
1333.46	0.2827
1343.49	0.5544
1353.52	0.5039
1363.55	0.2733
1373.58	0.6238
1383.62	0.7316
1393.65	0.668
1403.68	0.6071
1413.71	0.6038
1423.74	0.4107
1433.78	0.2433
1443.81	0.4127
1453.84	0.4437
1463.87	0.515
1473.9	0.7349
1483.94	0.7534
1493.97	0.7364
1504	0.6918
1514.03	0.5758
1524.06	0.3328
1534.1	0.4573
1544.13	0.4698
1554.16	0.4754
1564.19	0.6283
1574.22	0.5883
1584.26	0.4777
1594.29	0.3608
1604.32	0.4256
1614.35	0.3027
1624.38	0.2088
1634.42	0.1096
1644.45	0.0431
1654.48	0.0811
1664.51	0.2684
1674.54	0.2969
1684.58	0.2607
1694.61	0.1377
1704.64	0.0678
1714.67	0.1705
1724.7	0.3242
1734.74	0.4702
1744.77	0.5179
1754.8	0.588
1764.83	0.6348
1774.86	0.6712
1784.9	0.7004
1794.93	0.725
1804.96	0.7467
1814.99	0.7594
1825.02	0.7609
1835.06	0.7597
1845.09	0.7589
1855.12	0.7682
1865.15	0.7924
1875.18	0.8152
1885.22	0.832
1895.25	0.846
1905.28	0.8567
1915.31	0.8618
1925.34	0.8658
1935.38	0.8674
1945.41	0.8663
1955.44	0.8654
1965.47	0.8682
1975.5	0.8743
1985.54	0.879
1995.57	0.8817
2005.6	0.8741
2015.63	0.871
2025.66	0.8709
2035.7	0.8703
2045.73	0.8696
2055.76	0.8688
2065.79	0.8676
2075.82	0.866
2085.86	0.8643
2095.89	0.8623
2105.92	0.8593
2115.95	0.8556
2125.98	0.8514
2136.02	0.8471
2146.05	0.843
2156.08	0.838
2166.11	0.8378
2176.14	0.8373
2186.18	0.8335
2196.21	0.8289
2206.24	0.8234
2216.27	0.8166
2226.3	0.8095
2236.34	0.8015
2246.37	0.7929
2256.4	0.7831
2266.43	0.7721
2276.46	0.7603
2286.5	0.748
2296.53	0.7416
2306.56	0.7412
2316.59	0.7374
2326.62	0.7196
2336.66	0.7036
2346.69	0.6899
2356.72	0.6818
2366.75	0.6788
2376.78	0.6761
2386.82	0.6708
2396.85	0.6594
2406.88	0.6458
2416.91	0.6342
2426.94	0.6279
2436.98	0.6161
2447.01	0.5972
2457.04	0.5737
2467.07	0.5537
2477.1	0.5274
2487.14	0.4934
2497.17	0.4636
2507.2	0.4365
2517.23	0.4297
2527.26	0.4166
2537.3	0.3834
2547.33	0.3938
2557.36	0.3951
2567.39	0.3724
2577.42	0.3561
2587.46	0.3749
2597.49	0.3694
2607.52	0.3548
2617.55	0.3292
2627.58	0.3021
2637.62	0.2752
2647.65	0.2488
2657.68	0.2255
2667.71	0.2189
2677.74	0.2117
2687.78	0.2036
2697.81	0.2002
2707.84	0.1998
2717.87	0.2006
2727.9	0.2009
2737.94	0.2029
2747.97	0.2045
2758	0.2095
2768.03	0.2194
2778.06	0.241
2788.1	0.2768
2798.13	0.2649
2808.16	0.223
2818.19	0.2072
2828.22	0.2084
2838.26	0.2029
2848.29	0.1973
2858.32	0.2002
2868.35	0.2112
2878.38	0.2194
2888.42	0.2107
2898.45	0.2012
2908.48	0.1929
2918.51	0.1727
2928.54	0.1724
2938.58	0.1808
2948.61	0.1858
2958.64	0.185
2968.67	0.1886
2978.7	0.2053
2988.74	0.2329
2998.77	0.2239
3008.8	0.2191
3018.83	0.2054
3028.86	0.196
3038.9	0.2636
3048.93	0.307
3058.96	0.3365
3068.99	0.3593
3079.02	0.3535
3089.06	0.3383
3099.09	0.3136
3109.12	0.3095
3119.15	0.3864
3129.18	0.4266
3139.22	0.4288
3149.25	0.4183
3159.28	0.3917
3169.31	0.3406
3179.34	0.3621
3189.38	0.4415
3199.41	0.4494
3209.44	0.4225
3219.47	0.3575
3229.5	0.3704
3239.54	0.422
3249.57	0.4095
3259.6	0.3686
3269.63	0.2924
3279.66	0.2835
3289.7	0.271
3299.73	0.2616
3309.76	0.2776
3319.79	0.3213
3329.82	0.3685
3339.86	0.4138
3349.89	0.4507
3359.92	0.4648
3369.95	0.4682
3379.98	0.4553
3390.02	0.4205
3400.05	0.3591
3410.08	0.2818
3420.11	0.2672
3430.14	0.3348
3440.18	0.4291
3450.21	0.483
3460.24	0.5445
3470.27	0.5832
3480.3	0.5999
3490.34	0.6181
3500.37	0.6784
3510.4	0.7031
3520.43	0.7182
3530.46	0.7299
3540.5	0.7422
3550.53	0.7552
3560.56	0.7666
3570.59	0.7777
3580.62	0.7889
3590.66	0.798
3600.69	0.8069
3610.72	0.8152
3620.75	0.8234
3630.78	0.8306
3640.82	0.8369
3650.85	0.8418
3660.88	0.848
3670.91	0.8496
3680.94	0.8493
3690.98	0.8546
3701.01	0.8569
3711.04	0.8573
3721.07	0.8576
3731.1	0.8577
3741.14	0.8577
3751.17	0.858
3761.2	0.8584
3771.23	0.8588
3781.26	0.8593
3791.3	0.8602
3801.33	0.8613
3811.36	0.8624
3821.39	0.8632
3831.42	0.8628
3841.46	0.8624
3851.49	0.8619
3861.52	0.8615
3871.55	0.861
3881.58	0.8606
3891.62	0.8601
3901.65	0.8597
3911.68	0.8594
3921.71	0.8593
3931.74	0.8593
3941.78	0.859
3951.81	0.8585
3961.84	0.8581
3971.87	0.8569
3981.9	0.8553
3991.94	0.8547
4001.97	0.854
4012	0.8503
