Infrared Spectrum: MERCURIC ACETATE
Formula: C4 H6 O4 Hg
State: SOLID (MINERAL OIL MULL)
Class: COBLENTZ
Instrument: Not specified, most likely a prism, grating, or hybrid spectrometer.
Sampling: TRANSMISSION
Resolution: 4
Origin: WYANDOTTE CHEMICALS CORP., WYANDOTTE, MICHIGAN, USA
MICROMETERS	TRANSMITTANCE
2.007	0.668
2.04784	0.675
2.08867	0.679
2.12951	0.684
2.17034	0.67
2.21118	0.653
2.25201	0.667
2.29285	0.675
2.33368	0.677
2.37452	0.687
2.41535	0.691
2.45619	0.697
2.49702	0.697
2.53786	0.704
2.57869	0.708
2.61953	0.711
2.66036	0.713
2.7012	0.701
2.74203	0.697
2.78287	0.691
2.8237	0.684
2.86454	0.68
2.90537	0.679
2.94621	0.677
2.98704	0.68
3.02788	0.689
3.06871	0.696
3.10955	0.686
3.15038	0.687
3.19122	0.697
3.23205	0.691
3.27289	0.646
3.31372	0.44
3.35456	0.056
3.39539	0.037
3.43623	0.087
3.47706	0.095
3.5179	0.305
3.55873	0.737
3.59957	0.803
3.6404	0.81
3.68124	0.798
3.72207	0.807
3.76291	0.813
3.80374	0.813
3.84458	0.825
3.88541	0.848
3.92625	0.851
3.96708	0.858
4.00792	0.863
4.04875	0.875
4.08959	0.88
4.13042	0.887
4.17126	0.887
4.21209	0.883
4.25293	0.868
4.29376	0.875
4.3346	0.889
4.37543	0.911
4.41627	0.901
4.4571	0.911
4.49794	0.911
4.53877	0.904
4.57961	0.919
4.62044	0.933
4.66128	0.941
4.70211	0.945
4.74295	0.959
4.78378	0.965
4.82462	0.969
4.86545	0.97
4.90629	0.97
4.94712	0.972
4.98796	0.977
5.02879	0.981
5.06963	0.972
5.11046	0.979
5.1513	0.97
5.19213	0.97
5.23297	0.979
5.2738	0.981
5.31464	0.977
5.35547	0.974
5.39631	0.96
5.43714	0.959
5.47798	0.964
5.51881	0.959
5.55965	0.952
5.60048	0.931
5.64132	0.904
5.68215	0.882
5.72299	0.848
5.76382	0.805
5.80466	0.761
5.84549	0.718
5.88633	0.686
5.92716	0.636
5.968	0.573
6.00883	0.508
6.04967	0.441
6.0905	0.337
6.13134	0.245
6.17217	0.25
6.21301	0.192
6.25384	0.259
6.29468	0.201
6.33551	0.165
6.37635	0.211
6.41718	0.247
6.45802	0.284
6.49885	0.337
6.53969	0.395
6.58052	0.453
6.62136	0.503
6.66219	0.532
6.70303	0.527
6.74386	0.44
6.7847	0.201
6.82553	0.179
6.86637	0.208
6.9072	0.24
6.94804	0.324
6.98887	0.414
7.02971	0.46
7.07054	0.476
7.11138	0.447
7.15221	0.38
7.19305	0.24
7.23388	0.15
7.27472	0.133
7.31555	0.155
7.35639	0.274
7.39722	0.477
7.43806	0.496
7.47889	0.407
7.51973	0.319
7.56056	0.194
7.6014	0.151
7.64224	0.143
7.68307	0.117
7.72391	0.156
7.76474	0.192
7.80558	0.22
7.84641	0.255
7.88725	0.296
7.92808	0.329
7.96892	0.361
8.00975	0.385
8.05059	0.402
8.09142	0.421
8.13226	0.435
8.17309	0.459
8.21393	0.467
8.25476	0.484
8.2956	0.501
8.33643	0.513
8.37727	0.52
8.4181	0.537
8.45894	0.547
8.49977	0.552
8.54061	0.559
8.58144	0.571
8.62228	0.581
8.66311	0.587
8.70395	0.602
8.74478	0.616
8.78562	0.631
8.82645	0.641
8.86729	0.645
8.90812	0.648
8.94896	0.655
8.98979	0.663
9.03063	0.662
9.07146	0.668
9.1123	0.667
9.15313	0.662
9.19397	0.67
9.2348	0.667
9.27564	0.668
9.31647	0.668
9.35731	0.665
9.39814	0.656
9.43898	0.627
9.47981	0.542
9.52065	0.481
9.56148	0.513
9.60232	0.568
9.64315	0.581
9.68399	0.51
9.72482	0.486
9.76566	0.51
9.80649	0.489
9.84733	0.505
9.88816	0.551
9.929	0.59
9.96983	0.616
10.0107	0.639
10.0515	0.648
10.0923	0.662
10.1332	0.67
10.174	0.675
10.2148	0.679
10.2557	0.679
10.2965	0.686
10.3373	0.696
10.3782	0.701
10.419	0.706
10.4599	0.715
10.5007	0.723
10.5415	0.732
10.5824	0.738
10.6232	0.737
10.664	0.665
10.7049	0.464
10.7457	0.539
10.7865	0.6
10.8274	0.549
10.8682	0.616
10.909	0.65
10.9499	0.674
10.9907	0.691
11.0315	0.703
11.0724	0.708
11.1132	0.711
11.154	0.716
11.1949	0.718
11.2357	0.721
11.2766	0.725
11.3174	0.732
11.3582	0.738
11.3991	0.744
11.4399	0.742
11.4807	0.747
11.5216	0.749
11.5624	0.754
11.6032	0.75
11.6441	0.754
11.6849	0.752
11.7257	0.755
11.7666	0.755
11.8074	0.755
11.8482	0.752
11.8891	0.759
11.9299	0.761
11.9707	0.766
12.0116	0.767
12.0524	0.767
12.0933	0.769
12.1341	0.771
12.1749	0.771
12.2158	0.774
12.2566	0.771
12.2974	0.774
12.3383	0.773
12.3791	0.774
12.4199	0.774
12.4608	0.776
12.5016	0.774
12.5424	0.781
12.5833	0.783
12.6241	0.783
12.6649	0.788
12.7058	0.786
12.7466	0.786
12.7874	0.788
12.8283	0.788
12.8691	0.783
12.91	0.786
12.9508	0.783
12.9916	0.786
13.0325	0.784
13.0733	0.786
13.1141	0.784
13.155	0.783
13.1958	0.784
13.2366	0.781
13.2775	0.779
13.3183	0.783
13.3591	0.779
13.4	0.781
13.4408	0.769
13.4816	0.767
13.5225	0.767
13.5633	0.759
13.6042	0.754
13.645	0.752
13.6858	0.749
13.7267	0.749
13.7675	0.749
13.8083	0.742
13.8492	0.737
13.89	0.726
13.9308	0.723
13.9717	0.726
14.0125	0.718
14.0533	0.699
14.0942	0.648
14.135	0.59
14.1758	0.494
14.2167	0.399
14.2575	0.358
14.2983	0.375
14.3392	0.433
14.38	0.511
14.4209	0.58
14.4617	0.622
14.5025	0.658
14.5434	0.675
14.5842	0.679
14.625	0.667
14.6659	0.65
14.7067	0.648
14.7475	0.662
14.7884	0.682
14.8292	0.699
14.87	0.704
14.9109	0.721
14.9517	0.721
14.9925	0.706
15.0334	0.677
15.0742	0.665
15.115	0.697
15.1559	0.715
15.1967	0.721
15.2376	0.72
15.2784	0.703
15.3192	0.697
15.3601	0.696
15.4009	0.696
15.4417	0.689
15.4826	0.684
15.5234	0.679
15.5642	0.679
15.6051	0.675
15.6459	0.675
15.6867	0.668
15.7276	0.663
15.7684	0.656
15.8092	0.648
15.8501	0.643
15.8909	0.638
15.9317	0.631
15.9726	0.619
