Infrared Spectrum: PSEUDOUREA, 2-METHYL-2-THIO-, SULFATE
Formula: C4 H12 N4 S2  * H2 S O4
State: SOLID (SPLIT MULL)
Class: COBLENTZ III
Instrument: DOW KBr FOREPRISM-GRATING
Instrument parameters: BLAZED AT 3.5, 12.0, 20.0 MICRONS, AND CHANGED AT 5.0, 7.5, 14.9 MICRONS
Sampling: TRANSMISSION
Resolution: 2
Origin: DOW CHEMICAL COMPANY
1/CM	TRANSMITTANCE
447.534	0.918
456.135	0.908
464.736	0.892
473.337	0.867
481.938	0.3691
490.539	0.597
499.14	0.973
507.741	1.009
516.342	1.018
524.942	1.022
533.543	1.024
542.144	1.024
550.745	1.021
559.346	1.016
567.947	1.001
576.548	0.979
585.149	0.938
593.75	0.767
602.351	0.361
610.952	0.511
619.553	0.536
628.154	0.567
636.755	0.806
645.356	0.832
653.957	0.818
662.557	0.79
671.158	0.744
679.759	0.689
688.36	0.593
696.961	0.434
705.562	0.416
714.163	0.378
722.764	0.292
731.365	0.155
739.966	0.268
748.567	0.308
757.168	0.318
765.769	0.359
774.37	0.428
782.971	0.531
791.572	0.636
800.172	0.719
808.773	0.773
817.374	0.817
825.975	0.853
834.576	0.885
843.177	0.902
851.778	0.923
860.379	0.939
868.98	0.951
877.581	0.967
886.182	0.967
894.783	0.973
903.384	0.971
911.985	0.966
920.586	0.965
929.187	0.963
937.787	0.958
946.388	0.95
954.989	0.93
963.59	0.868
972.191	0.836
980.792	0.7138
989.393	0.773
997.994	0.877
1006.59	0.872
1015.2	0.848
1023.8	0.794
1032.4	0.738
1041	0.629
1049.6	0.515
1058.2	0.28
1066.8	0.0629
1075.4	0.005
1084	0.002
1092.6	0.002
1101.21	0.016
1109.81	0.1
1118.41	0.022
1127.01	0.012
1135.61	0.251
1144.21	0.363
1152.81	0.268
1161.41	0.719
1170.01	0.802
1178.61	0.875
1187.21	0.915
1195.82	0.938
1204.42	0.938
1213.02	0.939
1221.62	0.948
1230.22	0.955
1238.82	0.946
1247.42	0.927
1256.02	0.918
1264.62	0.914
1273.22	0.91
1281.83	0.899
1290.43	0.885
1299.03	0.86
1307.63	0.833
1316.23	0.798
1324.83	0.585
1333.43	0.754
1342.03	0.726
1350.63	0.735
1359.23	0.738
1367.83	0.719
1376.44	0.692
1385.04	0.657
1393.64	0.594
1402.24	0.527
1410.84	0.404
1419.44	0.273
1428.04	0.302
1436.64	0.224
1445.24	0.288
1453.84	0.465
1462.44	0.562
1471.05	0.571
1479.65	0.667
1488.25	0.707
1496.85	0.72
1505.45	0.723
1514.05	0.724
1522.65	0.719
1531.25	0.708
1539.85	0.685
1548.45	0.633
1557.06	0.543
1565.66	0.469
1574.26	0.538
1582.86	0.642
1591.46	0.7
1600.06	0.723
1608.66	0.724
1617.26	0.72
1625.86	0.706
1634.46	0.664
1643.06	0.609
1651.67	0.546
1660.27	0.444
1668.87	0.2799
1677.47	0.089
1686.07	0.041
1694.67	0.1751
1703.27	0.5441
1711.87	0.762
1720.47	0.857
1729.07	0.912
1737.67	0.951
1746.28	0.97
1754.88	0.975
1763.48	0.982
1772.08	0.985
1780.68	0.983
1789.28	0.983
1797.88	0.985
1806.48	0.985
1815.08	0.981
1823.68	0.979
1832.29	0.977
1840.89	0.977
1849.49	0.979
1858.09	0.981
1866.69	0.985
1875.29	0.989
1883.89	0.99
1892.49	0.993
1901.09	0.994
1909.69	0.995
1918.29	0.994
1926.9	0.991
1935.5	0.99
1944.1	0.993
1952.7	0.994
1961.3	0.993
1969.9	0.993
1978.5	0.994
1987.1	0.99
1995.7	0.979
2004.3	0.978
2012.9	0.977
2021.51	0.9744
2030.11	0.973
2038.71	0.9702
2047.31	0.9612
2055.91	0.9444
2064.51	0.9419
2073.11	0.948
2081.71	0.953
2090.31	0.954
2098.91	0.9495
2107.52	0.931
2116.12	0.9326
2124.72	0.94
2133.32	0.946
2141.92	0.947
2150.52	0.946
2159.12	0.9408
2167.72	0.9307
2176.32	0.9307
2184.92	0.932
2193.52	0.932
2202.13	0.931
2210.73	0.9271
2219.33	0.923
2227.93	0.919
2236.53	0.912
2245.13	0.9057
2253.73	0.899
2262.33	0.899
2270.93	0.8967
2279.53	0.8902
2288.13	0.8747
2296.74	0.8525
2305.34	0.8619
2313.94	0.873
2322.54	0.8871
2331.14	0.892
2339.74	0.892
2348.34	0.8893
2356.94	0.8805
2365.54	0.872
2374.14	0.871
2382.75	0.8557
2391.35	0.8573
2399.95	0.8659
2408.55	0.8704
2417.15	0.868
2425.75	0.871
2434.35	0.8759
2442.95	0.879
2451.55	0.879
2460.15	0.879
2468.75	0.8776
2477.36	0.873
2485.96	0.8712
2494.56	0.8671
2503.16	0.863
2511.76	0.857
2520.36	0.852
2528.96	0.8449
2537.56	0.8374
2546.16	0.8296
2554.76	0.8207
2563.36	0.8113
2571.97	0.802
2580.57	0.7991
2589.17	0.7945
2597.77	0.7894
2606.37	0.783
2614.97	0.7783
2623.57	0.7695
2632.17	0.7596
2640.77	0.7542
2649.37	0.747
2657.98	0.7401
2666.58	0.7259
2675.18	0.7138
2683.78	0.7033
2692.38	0.6886
2700.98	0.6725
2709.58	0.6541
2718.18	0.6332
2726.78	0.6038
2735.38	0.5701
2743.98	0.5306
2752.59	0.5034
2761.19	0.481
2769.79	0.4539
2778.39	0.4315
2786.99	0.3996
2795.59	0.3592
2804.19	0.343
2812.79	0.3631
2821.39	0.425
2829.99	0.4671
2838.59	0.4688
2847.2	0.4588
2855.8	0.4358
2864.4	0.4119
2873	0.3873
2881.6	0.3606
2890.2	0.3307
2898.8	0.3044
2907.4	0.2704
2916	0.2393
2924.6	0.2187
2933.21	0.1887
2941.81	0.1556
2950.41	0.1303
2959.01	0.1059
2967.61	0.0769
2976.21	0.0586
2984.81	0.0456
2993.41	0.0355
3002.01	0.0287
3010.61	0.0216
3019.21	0.0176
3027.82	0.017
3036.42	0.0205
3045.02	0.022
3053.62	0.0247
3062.22	0.0274
3070.82	0.028
3079.42	0.0288
3088.02	0.032
3096.62	0.0409
3105.22	0.051
3113.82	0.0591
3122.43	0.067
3131.03	0.071
3139.63	0.071
3148.23	0.068
3156.83	0.065
3165.43	0.063
3174.03	0.06
3182.63	0.0579
3191.23	0.0554
3199.83	0.055
3208.44	0.055
3217.04	0.057
3225.64	0.063
3234.24	0.068
3242.84	0.0788
3251.44	0.103
3260.04	0.1281
3268.64	0.155
3277.24	0.2084
3285.84	0.2646
3294.44	0.3438
3303.05	0.3988
3311.65	0.4631
3320.25	0.5201
3328.85	0.5632
3337.45	0.6074
3346.05	0.6306
3354.65	0.6431
3363.25	0.6503
3371.85	0.6664
3380.45	0.7038
3389.05	0.7452
3397.66	0.7899
3406.26	0.8243
3414.86	0.8551
3423.46	0.876
3432.06	0.8922
3440.66	0.9088
3449.26	0.9187
3457.86	0.9248
3466.46	0.932
3475.06	0.9345
3483.67	0.938
3492.27	0.94
3500.87	0.942
3509.47	0.9427
3518.07	0.944
3526.67	0.946
3535.27	0.947
3543.87	0.947
3552.47	0.947
3561.07	0.947
3569.67	0.947
3578.28	0.946
3586.88	0.9463
3595.48	0.946
3604.08	0.946
3612.68	0.944
3621.28	0.943
3629.88	0.942
3638.48	0.94
3647.08	0.9383
3655.68	0.936
3664.28	0.935
3672.89	0.932
3681.49	0.9301
3690.09	0.927
3698.69	0.924
3707.29	0.927
3715.89	0.927
3724.49	0.926
3733.09	0.9237
3741.69	0.922
3750.29	0.92
3758.9	0.9186
3767.5	0.918
3776.1	0.916
3784.7	0.9128
3793.3	0.912
3801.9	0.912
