Infrared Spectrum: Isonipecotic acid, 4-phenyl-, ethyl ester, hydrochloride
Formula: C14 H20 Cl N O2
State: SOLID (SPLIT MULL), FLUOROLUBE FOR 3800-1330 CM^-^1, NUJOL FOR 1330-400 CM^-^1
Melting point: 136 C
Class: COBLENTZ III
Instrument: BECKMAN IR-9 (GRATING)
Instrument parameters: ORDER CHANGES: 670, 1200, 2000 CM^-^1
Sampling: TRANSMISSION
Resolution: 2
Origin: DOW CHEMICAL COMPANY
1/CM	TRANSMITTANCE
3796	0.5599
3787	0.5617
3778	0.5639
3769	0.566
3760	0.5684
3751	0.57
3742	0.571
3733	0.5728
3724	0.5745
3715	0.5767
3706	0.5792
3697	0.5807
3688	0.5822
3679	0.5835
3670	0.5847
3661	0.5859
3652	0.5866
3643	0.5872
3634	0.5879
3625	0.5886
3616	0.589
3607	0.5888
3598	0.5887
3589	0.5894
3580	0.5895
3571	0.5886
3562	0.5875
3553	0.5859
3544	0.5841
3535	0.5822
3526	0.5797
3517	0.5767
3508	0.5801
3499	0.584
3490	0.5872
3481	0.5903
3472	0.5937
3463	0.5968
3454	0.5987
3445	0.5993
3436	0.597
3427	0.5927
3418	0.5944
3409	0.5998
3400	0.6048
3391	0.6096
3382	0.6146
3373	0.6189
3364	0.6232
3355	0.6276
3346	0.6318
3337	0.636
3328	0.6401
3319	0.6444
3310	0.6481
3301	0.6515
3292	0.655
3283	0.6583
3274	0.6615
3265	0.6645
3256	0.6675
3247	0.6704
3238	0.6734
3229	0.676
3220	0.6761
3211	0.6768
3202	0.6775
3193	0.6769
3184	0.6676
3175	0.6625
3166	0.6703
3157	0.6781
3148	0.6821
3139	0.6832
3130	0.6835
3121	0.6828
3112	0.6815
3103	0.6804
3094	0.6788
3085	0.6758
3076	0.67
3067	0.641
3058	0.6312
3049	0.6184
3040	0.6297
3031	0.6269
3022	0.6196
3013	0.5996
3004	0.5579
2995	0.4454
2986	0.4214
2977	0.4641
2968	0.3882
2959	0.3809
2950	0.3264
2941	0.2904
2932	0.2747
2923	0.2712
2914	0.2742
2905	0.2953
2896	0.3702
2887	0.4328
2878	0.4338
2869	0.4032
2860	0.3877
2851	0.4116
2842	0.4274
2833	0.4162
2824	0.3708
2815	0.3054
2806	0.2754
2797	0.2889
2788	0.2744
2779	0.2442
2770	0.2354
2761	0.2392
2752	0.2411
2743	0.2368
2734	0.1519
2725	0.1015
2716	0.0829
2707	0.0784
2698	0.0773
2689	0.0909
2680	0.1714
2671	0.223
2662	0.2539
2653	0.2564
2644	0.2473
2635	0.2359
2626	0.2284
2617	0.2353
2608	0.2703
2599	0.2929
2590	0.2917
2581	0.3853
2572	0.4512
2563	0.4505
2554	0.3292
2545	0.2968
2536	0.3862
2527	0.4654
2518	0.448
2509	0.3786
2500	0.4029
2491	0.4658
2482	0.317
2473	0.2327
2464	0.3414
2455	0.3644
2446	0.3075
2437	0.4014
2428	0.4904
2419	0.515
2410	0.5499
2401	0.5641
2392	0.5497
2383	0.5382
2374	0.5856
2365	0.6145
2356	0.6264
2347	0.6371
2338	0.6467
2329	0.6535
2320	0.6601
2311	0.6665
2302	0.673
2293	0.6796
2284	0.686
2275	0.6925
2266	0.6997
2257	0.706
2248	0.7108
2239	0.7018
2230	0.6999
2221	0.7147
2212	0.7214
2203	0.7261
2194	0.7311
2185	0.7282
2176	0.7087
2167	0.6905
2158	0.7198
2149	0.733
2140	0.7383
2131	0.7382
2122	0.7214
2113	0.7084
2104	0.7138
2095	0.7168
2086	0.7158
2077	0.719
2068	0.7212
2059	0.7221
2050	0.7222
2041	0.7236
2032	0.7268
2023	0.7287
2014	0.7268
2005	0.7231
1996	0.7161
1987	0.71
1978	0.7139
1969	0.7205
1960	0.7272
1951	0.7301
1942	0.7246
1933	0.7218
1924	0.7222
1915	0.7118
1906	0.7111
1897	0.7191
1888	0.734
1879	0.7321
1870	0.7368
1861	0.7434
1852	0.7461
1843	0.7503
1834	0.7391
1825	0.7455
1816	0.7544
1807	0.7511
1798	0.7444
1789	0.7419
1780	0.7441
1771	0.7528
1762	0.7599
1753	0.7576
1744	0.7322
1735	0.5733
1726	0.26
1717	0.062
1708	0.472
1699	0.5747
1690	0.6279
1681	0.6615
1672	0.6625
1663	0.6898
1654	0.6921
1645	0.7005
1636	0.7022
1627	0.7034
1618	0.7067
1609	0.7084
1600	0.6781
1591	0.5525
1582	0.673
1573	0.7267
1564	0.7305
1555	0.7251
1546	0.7281
1537	0.7367
1528	0.7393
1519	0.7348
1510	0.7104
1501	0.5691
1492	0.6821
1483	0.6839
1474	0.5888
1465	0.4769
1456	0.4794
1447	0.3904
1438	0.5979
1429	0.3024
1420	0.521
1411	0.6298
1402	0.6185
1393	0.4926
1384	0.6073
1375	0.5984
1366	0.577
1357	0.5806
1348	0.5574
1339	0.5562
1330	0.2944
1321	0.414
1312	0.5976
1303	0.7104
1294	0.7378
1285	0.7407
1276	0.7236
1267	0.6675
1258	0.5305
1249	0.2153
1240	0.0225
1231	0.0626
1222	0.3905
1213	0.5845
1204	0.5715
1195	0.7106
1186	0.7555
1177	0.535
1168	0.0757
1159	0.199
1150	0.4631
1141	0.6696
1132	0.696
1123	0.7511
1114	0.5974
1105	0.7654
1096	0.7825
1087	0.7487
1078	0.6255
1069	0.7817
1060	0.7734
1051	0.7488
1042	0.6565
1033	0.6201
1024	0.41
1015	0.2793
1006	0.6324
997	0.4627
988	0.7858
979	0.7919
970	0.7965
961	0.8284
952	0.8335
943	0.827
934	0.7328
925	0.6254
916	0.7934
907	0.8375
898	0.8506
889	0.8621
880	0.8617
871	0.8033
862	0.7318
853	0.8504
844	0.8337
835	0.8853
826	0.8921
817	0.8752
808	0.8604
799	0.8892
790	0.8917
781	0.8578
772	0.5173
763	0.8218
754	0.8661
745	0.8318
736	0.5469
727	0.5265
718	0.774
709	0.7135
700	0.5177
691	0.8999
682	0.9059
673	0.9071
664	0.9181
655	0.9165
646	0.8214
637	0.7165
628	0.9167
619	0.8966
610	0.9137
601	0.9139
592	0.9041
583	0.8546
574	0.778
565	0.8904
556	0.8955
547	0.8789
538	0.8094
529	0.7571
520	0.7233
511	0.8409
502	0.827
493	0.7361
484	0.81
475	0.8036
466	0.7812
457	0.7399
448	0.7251
439	0.6785
430	0.6356
421	0.5936
412	0.5906
403	0.6134
