Infrared Spectrum: Urea, 1-(2',4'-di-tert-butylphenyl)-3,3-diethyl-
Formula: C19 H32 N2 O
State: SOLID (NUJOL MULL)
Melting point: 205 C
Class: COBLENTZ III
Instrument: BECKMAN IR-4 (HYBRID PRISM-GRATING)
Instrument parameters: NaCl PRISM
Sampling: TRANSMISSION
Resolution: 2
Origin: MONSANTO (J. FREEMAN)
1/CM	TRANSMITTANCE
626	0.8577
635	0.906
644	0.9346
653	0.9153
662	0.9716
671	0.9896
680	0.9666
689	0.9939
698	0.9885
707	0.9619
716	0.9013
725	0.8502
734	0.8478
743	0.8927
752	0.9184
761	0.7544
770	0.9247
779	0.83
788	0.9138
797	0.9391
806	0.9201
815	0.5427
824	0.8775
833	0.9461
842	0.9504
851	0.951
860	0.9528
869	0.9504
878	0.939
887	0.7427
896	0.9207
905	0.9177
914	0.8434
923	0.8761
932	0.8286
941	0.8434
950	0.8958
959	0.8969
968	0.867
977	0.7749
986	0.8811
995	0.9035
1004	0.9116
1013	0.9104
1022	0.9058
1031	0.897
1040	0.876
1049	0.7162
1058	0.821
1067	0.8093
1076	0.6944
1085	0.7818
1094	0.6978
1103	0.7053
1112	0.8103
1121	0.6453
1130	0.8261
1139	0.832
1148	0.7741
1157	0.7607
1166	0.6845
1175	0.4603
1184	0.7919
1193	0.819
1202	0.745
1211	0.7851
1220	0.7501
1229	0.6674
1238	0.6987
1247	0.5286
1256	0.6027
1265	0.5179
1274	0.2325
1283	0.3195
1292	0.6251
1301	0.6572
1310	0.5727
1319	0.6891
1328	0.7765
1337	0.7821
1346	0.7305
1355	0.7076
1364	0.5138
1373	0.3936
1382	0.3374
1391	0.3669
1400	0.4124
1409	0.5278
1418	0.6939
1427	0.7278
1436	0.6449
1445	0.4812
1454	0.3197
1463	0.1578
1472	0.1182
1481	0.1792
1490	0.1717
1499	0.1414
1508	0.088
1517	0.0707
1526	0.1456
1535	0.3642
1544	0.5598
1553	0.7077
1562	0.792
1571	0.7974
1580	0.8314
1589	0.8476
1598	0.7979
1607	0.6853
1616	0.6015
1625	0.6561
1634	0.393
1643	0.1309
1652	0.2106
1661	0.4694
1670	0.7254
1679	0.834
1688	0.885
1697	0.9159
1706	0.9303
1715	0.9382
1724	0.9455
1733	0.9531
1742	0.9583
1751	0.9602
1760	0.9586
1769	0.9553
1778	0.9527
1787	0.9533
1796	0.9558
1805	0.9567
1814	0.9573
1823	0.957
1832	0.9561
1841	0.9551
1850	0.9538
1859	0.9525
1868	0.9513
1877	0.9501
1886	0.9491
1895	0.9478
1904	0.9465
1913	0.9484
1922	0.952
1931	0.9543
1940	0.9538
1949	0.9533
1958	0.9527
1967	0.9521
1976	0.9516
1985	0.9512
1994	0.9509
2003	0.9506
2012	0.9502
2021	0.9499
2030	0.9494
2039	0.9491
2048	0.9487
2057	0.9483
2066	0.948
2075	0.9477
2084	0.9475
2093	0.9473
2102	0.9471
2111	0.9469
2120	0.9467
2129	0.9462
2138	0.9458
2147	0.9453
2156	0.9449
2165	0.9444
2174	0.9436
2183	0.9426
2192	0.9416
2201	0.9405
2210	0.9395
2219	0.9385
2228	0.9375
2237	0.9366
2246	0.9355
2255	0.9344
2264	0.9334
2273	0.9323
2282	0.9313
2291	0.9303
2300	0.9292
2309	0.9288
2318	0.9294
2327	0.9301
2336	0.9303
2345	0.9304
2354	0.9293
2363	0.9273
2372	0.9252
2381	0.9209
2390	0.9159
2399	0.9131
2408	0.9132
2417	0.9133
2426	0.9133
2435	0.9133
2444	0.913
2453	0.9128
2462	0.9123
2471	0.9118
2480	0.9113
2489	0.9102
2498	0.9092
2507	0.908
2516	0.9054
2525	0.9026
2534	0.8994
2543	0.8962
2552	0.8924
2561	0.8881
2570	0.8839
2579	0.8798
2588	0.8758
2597	0.8719
2606	0.868
2615	0.8641
2624	0.8598
2633	0.8556
2642	0.8514
2651	0.847
2660	0.8428
2669	0.8385
2678	0.8343
2687	0.8302
2696	0.8262
2705	0.8224
2714	0.8211
2723	0.82
2732	0.8178
2741	0.813
2750	0.8085
2759	0.8076
2768	0.8067
2777	0.8068
2786	0.8073
2795	0.8065
2804	0.7949
2813	0.7763
2822	0.7246
2831	0.6865
2840	0.6463
2849	0.6061
2858	0.5179
2867	0.3323
2876	0.1478
2885	0.0487
2894	0.0408
2903	0.0419
2912	0.0444
2921	0.0436
2930	0.0395
2939	0.0206
2948	0.0013
2957	0.001
2966	0.001
2975	0.001
2984	0.001
2993	0.001
3002	0.0464
3011	0.1444
3020	0.2418
3029	0.3387
3038	0.4349
3047	0.5306
3056	0.6258
3065	0.7196
3074	0.759
3083	0.7694
3092	0.7787
3101	0.7855
3110	0.7912
3119	0.7966
3128	0.8002
3137	0.8034
3146	0.8066
3155	0.8091
3164	0.8117
3173	0.8142
3182	0.8163
3191	0.8174
3200	0.8185
3209	0.8181
3218	0.8168
3227	0.8126
3236	0.7932
3245	0.756
3254	0.719
3263	0.6822
3272	0.6457
3281	0.6093
3290	0.5731
3299	0.5372
3308	0.5014
3317	0.4658
3326	0.4304
3335	0.3952
3344	0.3602
3353	0.3436
3362	0.4644
3371	0.6638
3380	0.7847
3389	0.8036
3398	0.8285
3407	0.8474
3416	0.8597
3425	0.8711
3434	0.8813
3443	0.8869
3452	0.8926
3461	0.8961
3470	0.8987
3479	0.9013
3488	0.9026
3497	0.9033
3506	0.904
3515	0.9047
3524	0.9052
3533	0.9051
3542	0.9049
3551	0.9049
3560	0.9048
3569	0.9046
3578	0.9043
3587	0.9039
3596	0.9037
3605	0.9033
3614	0.9031
3623	0.9028
3632	0.9025
3641	0.9022
3650	0.9018
3659	0.9016
3668	0.9013
3677	0.901
3686	0.9005
3695	0.9001
3704	0.8997
3713	0.8992
3722	0.8989
3731	0.8984
3740	0.8979
3749	0.8969
3758	0.8959
3767	0.8949
3776	0.8939
3785	0.8929
3794	0.8919
3803	0.8909
3812	0.8899
3821	0.8889
3830	0.8877
3839	0.8863
3848	0.885
3857	0.8836
3866	0.8822
3875	0.8809
3884	0.8795
3893	0.8782
3902	0.8769
3911	0.8757
3920	0.8743
3929	0.8731
3938	0.8718
3947	0.8705
3956	0.8692
3965	0.868
3974	0.8667
3983	0.8655
3992	0.8643
