Infrared Spectrum: Acridan, 2-chloro-9-(3-dimethylaminopropyl)-10-ethyl-, phosphate (1 to 1),dihydrate
Formula: C20 H28 Cl N2 O4 P  * 2 H2 O
State: SOLID (NUJOL MULL)
Class: COBLENTZ
Instrument: PERKIN-ELMER 21 (GRATING)
Instrument parameters: NaCl PRISM
Sampling: TRANSMISSION
Resolution: 2
Origin: SMITH KLINE & FRENCH LABS.
1/CM	TRANSMITTANCE
662	0.7443
671	0.7627
680	0.778
689	0.7887
698	0.7929
707	0.7853
716	0.7528
725	0.7818
734	0.7619
743	0.7443
752	0.5737
761	0.5849
770	0.7353
779	0.7955
788	0.796
797	0.7883
806	0.6382
815	0.7315
824	0.7959
833	0.791
842	0.7667
851	0.7512
860	0.7147
869	0.6953
878	0.6834
887	0.6754
896	0.6755
905	0.6812
914	0.6398
923	0.583
932	0.497
941	0.4204
950	0.405
959	0.3596
968	0.3773
977	0.5049
986	0.5439
995	0.5179
1004	0.5252
1013	0.4824
1022	0.4488
1031	0.3895
1040	0.3426
1049	0.2932
1058	0.3086
1067	0.3831
1076	0.4488
1085	0.4604
1094	0.4116
1103	0.318
1112	0.3012
1121	0.3226
1130	0.4298
1139	0.4777
1148	0.4746
1157	0.5584
1166	0.6417
1175	0.6358
1184	0.6257
1193	0.7052
1202	0.7237
1211	0.721
1220	0.6982
1229	0.6943
1238	0.6318
1247	0.3477
1256	0.4775
1265	0.5863
1274	0.6011
1283	0.6696
1292	0.7031
1301	0.7427
1310	0.7441
1319	0.684
1328	0.5808
1337	0.5974
1346	0.6508
1355	0.5355
1364	0.363
1373	0.4965
1382	0.6942
1391	0.7719
1400	0.7717
1409	0.6923
1418	0.7066
1427	0.552
1436	0.4127
1445	0.3123
1454	0.1645
1463	0.1891
1472	0.3593
1481	0.5347
1490	0.5482
1499	0.7189
1508	0.7525
1517	0.7721
1526	0.7843
1535	0.7896
1544	0.7883
1553	0.7809
1562	0.7613
1571	0.69
1580	0.6176
1589	0.713
1598	0.7293
1607	0.7655
1616	0.7604
1625	0.7603
1634	0.7643
1643	0.7679
1652	0.7704
1661	0.7735
1670	0.7765
1679	0.7787
1688	0.7815
1697	0.784
1706	0.7858
1715	0.785
1724	0.7838
1733	0.783
1742	0.7838
1751	0.7847
1760	0.7862
1769	0.7881
1778	0.79
1787	0.791
1796	0.7913
1805	0.7916
1814	0.7912
1823	0.7907
1832	0.7903
1841	0.7898
1850	0.7886
1859	0.7874
1868	0.7859
1877	0.7842
1886	0.7825
1895	0.7804
1904	0.7783
1913	0.7761
1922	0.7736
1931	0.7712
1940	0.7686
1949	0.7638
1958	0.7591
1967	0.753
1976	0.7468
1985	0.7405
1994	0.7344
2003	0.7289
2012	0.7234
2021	0.718
2030	0.7126
2039	0.707
2048	0.7007
2057	0.6946
2066	0.6884
2075	0.6824
2084	0.6763
2093	0.6703
2102	0.6643
2111	0.6584
2120	0.6524
2129	0.6466
2138	0.6412
2147	0.6359
2156	0.6308
2165	0.6256
2174	0.6205
2183	0.616
2192	0.6122
2201	0.6083
2210	0.6045
2219	0.6008
2228	0.598
2237	0.5954
2246	0.593
2255	0.591
2264	0.5898
2273	0.5885
2282	0.588
2291	0.5876
2300	0.5872
2309	0.5869
2318	0.5866
2327	0.5864
2336	0.5861
2345	0.5871
2354	0.5884
2363	0.5899
2372	0.5918
2381	0.5938
2390	0.5958
2399	0.5986
2408	0.6013
2417	0.6041
2426	0.6075
2435	0.6109
2444	0.6141
2453	0.6172
2462	0.6203
2471	0.6233
2480	0.6264
2489	0.6302
2498	0.634
2507	0.6349
2516	0.6328
2525	0.6301
2534	0.6249
2543	0.619
2552	0.6135
2561	0.6088
2570	0.6045
2579	0.6011
2588	0.5977
2597	0.5959
2606	0.5941
2615	0.5924
2624	0.5909
2633	0.5902
2642	0.5896
2651	0.5891
2660	0.5896
2669	0.5904
2678	0.5924
2687	0.5942
2696	0.5934
2705	0.59
2714	0.583
2723	0.5732
2732	0.5561
2741	0.5287
2750	0.473
2759	0.4439
2768	0.3841
2777	0.2643
2786	0.1451
2795	0.1128
2804	0.1129
2813	0.1123
2822	0.1106
2831	0.1076
2840	0.1012
2849	0.088
2858	0.0799
2867	0.0782
2876	0.0786
2885	0.082
2894	0.0895
2903	0.0991
2912	0.1766
2921	0.2736
2930	0.3699
2939	0.4656
2948	0.5496
2957	0.5596
2966	0.5703
2975	0.5809
2984	0.5877
2993	0.5938
3002	0.602
3011	0.6129
3020	0.6199
3029	0.6256
3038	0.6298
3047	0.6321
3056	0.6333
3065	0.6345
3074	0.6352
3083	0.6356
3092	0.6352
3101	0.6346
3110	0.6341
3119	0.6335
3128	0.6329
3137	0.6324
3146	0.6329
3155	0.6335
3164	0.6341
3173	0.6366
3182	0.6392
3191	0.643
3200	0.6471
3209	0.6519
3218	0.657
3227	0.6636
3236	0.6762
3245	0.6849
3254	0.6906
3263	0.6946
3272	0.6977
3281	0.7008
3290	0.7042
3299	0.7076
3308	0.7109
3317	0.7156
3326	0.7223
3335	0.732
3344	0.7428
3353	0.752
3362	0.759
3371	0.7659
3380	0.7717
3389	0.7761
3398	0.7803
3407	0.7845
3416	0.7888
3425	0.793
3434	0.7972
3443	0.8014
3452	0.8056
3461	0.8092
3470	0.8116
3479	0.8138
3488	0.816
3497	0.8181
3506	0.8202
3515	0.8212
3524	0.8222
3533	0.8233
3542	0.8241
3551	0.8239
3560	0.8234
3569	0.8229
3578	0.8225
3587	0.8219
3596	0.8211
3605	0.82
3614	0.819
3623	0.8181
3632	0.817
3641	0.8158
3650	0.8147
3659	0.8135
3668	0.8123
3677	0.8112
3686	0.81
3695	0.8089
3704	0.8077
3713	0.8066
3722	0.8054
3731	0.8043
3740	0.8032
3749	0.8025
3758	0.8018
3767	0.8011
3776	0.8005
3785	0.7998
3794	0.7993
3803	0.7993
3812	0.7992
3821	0.7992
3830	0.7991
3839	0.7989
3848	0.7982
3857	0.7973
3866	0.7963
3875	0.7952
3884	0.7935
3893	0.7918
3902	0.7901
3911	0.7884
3920	0.7867
3929	0.7851
3938	0.7832
3947	0.7814
3956	0.7794
3965	0.7775
3974	0.7757
3983	0.7738
3992	0.7719
