Infrared Spectrum: AMMONIUM HEXANITRATOCERATE
Formula: ( N H4)2 Ce ( N O3)6
State: SOLID (NUJOL MULL)
Class: COBLENTZ
Instrument: Not specified, most likely a prism, grating, or hybrid spectrometer.
Sampling: TRANSMISSION
Resolution: 4
Origin: MELLON INSTITUTE
MICROMETERS	TRANSMITTANCE
2.047	0.733
2.08698	0.733
2.12695	0.733
2.16693	0.735
2.2069	0.735
2.24688	0.738
2.28686	0.74
2.32683	0.743
2.36681	0.745
2.40679	0.747
2.44676	0.752
2.48674	0.755
2.52671	0.762
2.56669	0.767
2.60667	0.772
2.64664	0.775
2.68662	0.778
2.7266	0.782
2.76657	0.785
2.80655	0.785
2.84652	0.778
2.8865	0.763
2.92648	0.747
2.96645	0.721
3.00643	0.668
3.04641	0.576
3.08638	0.51
3.12636	0.5
3.16633	0.515
3.20631	0.544
3.24629	0.579
3.28626	0.609
3.32624	0.624
3.36622	0.489
3.40619	0.355
3.44617	0.45
3.48614	0.457
3.52612	0.651
3.5661	0.797
3.60607	0.842
3.64605	0.862
3.68602	0.872
3.726	0.876
3.76598	0.881
3.80595	0.882
3.84593	0.882
3.88591	0.876
3.92588	0.874
3.96586	0.877
4.00583	0.879
4.04581	0.887
4.08579	0.889
4.12576	0.891
4.16574	0.891
4.20572	0.891
4.24569	0.889
4.28567	0.886
4.32564	0.887
4.36562	0.887
4.4056	0.886
4.44557	0.882
4.48555	0.884
4.52553	0.886
4.5655	0.889
4.60548	0.884
4.64545	0.884
4.68543	0.879
4.72541	0.884
4.76538	0.877
4.80536	0.884
4.84534	0.891
4.88531	0.886
4.92529	0.882
4.96526	0.881
5.00524	0.887
5.04522	0.892
5.08519	0.891
5.12517	0.891
5.16514	0.894
5.20512	0.897
5.2451	0.899
5.28507	0.897
5.32505	0.899
5.36503	0.901
5.405	0.902
5.44498	0.904
5.48495	0.906
5.52493	0.907
5.56491	0.912
5.60488	0.911
5.64486	0.907
5.68484	0.899
5.72481	0.902
5.76479	0.909
5.80476	0.906
5.84474	0.904
5.88472	0.901
5.92469	0.896
5.96467	0.891
6.00465	0.884
6.04462	0.877
6.0846	0.862
6.12457	0.835
6.16455	0.792
6.20453	0.728
6.2445	0.71
6.28448	0.507
6.32446	0.326
6.36443	0.172
6.40441	0.142
6.44438	0.117
6.48436	0.103
6.52434	0.098
6.56431	0.097
6.60429	0.098
6.64427	0.113
6.68424	0.139
6.72422	0.179
6.76419	0.206
6.80417	0.212
6.84415	0.204
6.88412	0.216
6.9241	0.227
6.96407	0.214
7.00405	0.197
7.04403	0.187
7.084	0.266
7.12398	0.351
7.16396	0.422
7.20393	0.445
7.24391	0.438
7.28388	0.49
7.32386	0.551
7.36384	0.582
7.40381	0.587
7.44379	0.552
7.48377	0.49
7.52374	0.46
7.56372	0.474
7.60369	0.495
7.64367	0.447
7.68365	0.319
7.72362	0.172
7.7636	0.1
7.80358	0.075
7.84355	0.073
7.88353	0.083
7.9235	0.103
7.96348	0.17
8.00346	0.289
8.04343	0.386
8.08341	0.482
8.12339	0.564
8.16336	0.626
8.20334	0.681
8.24331	0.728
8.28329	0.778
8.32327	0.802
8.36324	0.82
8.40322	0.837
8.44319	0.85
8.48317	0.864
8.52315	0.872
8.56312	0.881
8.6031	0.884
8.64308	0.889
8.68305	0.894
8.72303	0.897
8.763	0.902
8.80298	0.906
8.84296	0.909
8.88293	0.912
8.92291	0.916
8.96289	0.921
9.00286	0.924
9.04284	0.927
9.08281	0.931
9.12279	0.934
9.16277	0.938
9.20274	0.939
9.24272	0.943
9.2827	0.946
9.32267	0.948
9.36265	0.951
9.40262	0.949
9.4426	0.946
9.48258	0.916
9.52255	0.909
9.56253	0.886
9.60251	0.738
9.64248	0.417
9.68246	0.37
9.72243	0.53
9.76241	0.661
9.80239	0.745
9.84236	0.814
9.88234	0.857
9.92231	0.882
9.96229	0.899
10.0023	0.912
10.0422	0.922
10.0822	0.929
10.1222	0.934
10.1622	0.939
10.2021	0.943
10.2421	0.941
10.2821	0.943
10.3221	0.944
10.3621	0.948
10.402	0.948
10.442	0.948
10.482	0.949
10.522	0.951
10.5619	0.951
10.6019	0.951
10.6419	0.949
10.6819	0.946
10.7218	0.951
10.7618	0.951
10.8018	0.951
10.8418	0.951
10.8817	0.954
10.9217	0.954
10.9617	0.953
11.0017	0.954
11.0416	0.958
11.0816	0.959
11.1216	0.961
11.1616	0.966
11.2016	0.964
11.2415	0.964
11.2815	0.964
11.3215	0.966
11.3615	0.971
11.4014	0.971
11.4414	0.971
11.4814	0.974
11.5214	0.979
11.5613	0.978
11.6013	0.978
11.6413	0.979
11.6813	0.981
11.7212	0.983
11.7612	0.986
11.8012	0.989
11.8412	0.989
11.8811	0.986
11.9211	0.983
11.9611	0.978
12.0011	0.976
12.0411	0.979
12.081	0.983
12.121	0.986
12.161	0.983
12.201	0.974
12.2409	0.927
12.2809	0.934
12.3209	0.922
12.3609	0.596
12.4008	0.46
12.4408	0.587
12.4808	0.738
12.5208	0.855
12.5607	0.912
12.6007	0.936
12.6407	0.951
12.6807	0.956
12.7207	0.954
12.7606	0.958
12.8006	0.958
12.8406	0.959
12.8806	0.959
12.9205	0.961
12.9605	0.958
13.0005	0.954
13.0405	0.951
13.0804	0.948
13.1204	0.949
13.1604	0.944
13.2004	0.936
13.2403	0.914
13.2803	0.886
13.3203	0.76
13.3603	0.504
13.4002	0.252
13.4402	0.234
13.4802	0.591
13.5202	0.723
13.5602	0.804
13.6001	0.834
13.6401	0.849
13.6801	0.854
13.7201	0.859
13.76	0.859
13.8	0.854
13.84	0.859
13.88	0.862
13.9199	0.864
13.9599	0.862
13.9999	0.86
14.0399	0.849
14.0798	0.839
14.1198	0.832
14.1598	0.829
14.1998	0.827
14.2397	0.829
14.2797	0.824
14.3197	0.817
14.3597	0.812
14.3997	0.807
14.4396	0.802
14.4796	0.795
14.5196	0.788
14.5596	0.782
14.5995	0.777
14.6395	0.772
14.6795	0.762
14.7195	0.758
14.7594	0.753
14.7994	0.745
14.8394	0.74
14.8794	0.745
14.9193	0.742
14.9593	0.73
14.9993	0.721
15.0393	0.711
15.0792	0.705
15.1192	0.698
15.1592	0.696
15.1992	0.696
15.2392	0.695
15.2791	0.69
15.3191	0.686
15.3591	0.685
15.3991	0.683
15.439	0.683
15.479	0.681
15.519	0.68
15.559	0.676
15.5989	0.673
15.6389	0.673
15.6789	0.675
15.7189	0.676
15.7588	0.68
15.7988	0.678
15.8388	0.681
15.8788	0.685
15.9187	0.685
15.9587	0.688
15.9987	0.69
