Infrared Spectrum: 3-NITROPHTHALIMIDE, POTASSIUM SALT
Formula: C8 H3 N2 O4 K
State: SOLID (MINERAL OIL MULL)
Class: COBLENTZ
Instrument: Not specified, most likely a prism, grating, or hybrid spectrometer.
Sampling: TRANSMISSION
Resolution: 4
Origin: WYANDOTTE CHEMICALS CORP., WYANDOTTE, MICHIGAN, USA
MICROMETERS	TRANSMITTANCE
2.007	0.74
2.04794	0.749
2.08887	0.759
2.12981	0.759
2.17074	0.754
2.21168	0.74
2.25261	0.747
2.29355	0.754
2.33448	0.761
2.37542	0.761
2.41635	0.775
2.45729	0.78
2.49822	0.78
2.53916	0.778
2.58009	0.809
2.62103	0.782
2.66196	0.804
2.7029	0.799
2.74384	0.799
2.78477	0.789
2.82571	0.777
2.86664	0.763
2.90758	0.751
2.94851	0.723
2.98945	0.66
3.03038	0.653
3.07132	0.698
3.11225	0.691
3.15319	0.653
3.19412	0.638
3.23506	0.646
3.27599	0.687
3.31693	0.627
3.35786	0.221
3.3988	0.048
3.43973	0.07
3.48067	0.145
3.52161	0.21
3.56254	0.701
3.60348	0.765
3.64441	0.773
3.68535	0.77
3.72628	0.787
3.76722	0.801
3.80815	0.809
3.84909	0.811
3.89002	0.825
3.93096	0.842
3.97189	0.835
4.01283	0.847
4.05376	0.852
4.0947	0.842
4.13563	0.854
4.17657	0.859
4.21751	0.854
4.25844	0.849
4.29938	0.855
4.34031	0.871
4.38125	0.895
4.42218	0.891
4.46312	0.893
4.50405	0.902
4.54499	0.905
4.58592	0.903
4.62686	0.907
4.66779	0.902
4.70873	0.919
4.74966	0.921
4.7906	0.926
4.83153	0.931
4.87247	0.929
4.91341	0.931
4.95434	0.933
4.99528	0.934
5.03621	0.934
5.07715	0.933
5.11808	0.931
5.15902	0.936
5.19995	0.941
5.24089	0.924
5.28182	0.922
5.32276	0.939
5.36369	0.933
5.40463	0.934
5.44556	0.931
5.4865	0.939
5.52743	0.941
5.56837	0.934
5.60931	0.921
5.65024	0.881
5.69118	0.879
5.73211	0.799
5.77305	0.492
5.81398	0.643
5.85492	0.703
5.89585	0.715
5.93679	0.586
5.97772	0.507
6.01866	0.521
6.05959	0.252
6.10053	0.061
6.14146	0.054
6.1824	0.161
6.22333	0.049
6.26427	0.118
6.3052	0.348
6.34614	0.502
6.38708	0.521
6.42801	0.418
6.46895	0.248
6.50988	0.166
6.55082	0.384
6.59175	0.598
6.63269	0.656
6.67362	0.656
6.71456	0.646
6.75549	0.583
6.79643	0.301
6.83736	0.307
6.8783	0.408
6.91923	0.487
6.96017	0.629
7.0011	0.73
7.04204	0.715
7.08298	0.651
7.12391	0.548
7.16485	0.554
7.20578	0.488
7.24672	0.32
7.28765	0.114
7.32859	0.161
7.36952	0.113
7.41046	0.313
7.45139	0.507
7.49233	0.641
7.53326	0.699
7.5742	0.722
7.61513	0.713
7.65607	0.663
7.697	0.363
7.73794	0.337
7.77888	0.59
7.81981	0.692
7.86075	0.716
7.90168	0.704
7.94262	0.619
7.98355	0.421
8.02449	0.303
8.06542	0.559
8.10636	0.699
8.14729	0.773
8.18823	0.811
8.22916	0.802
8.2701	0.807
8.31103	0.758
8.35197	0.528
8.3929	0.334
8.43384	0.346
8.47478	0.531
8.51571	0.708
8.55665	0.747
8.59758	0.727
8.63852	0.763
8.67945	0.765
8.72039	0.816
8.76132	0.838
8.80226	0.838
8.84319	0.825
8.88413	0.708
8.92506	0.591
8.966	0.778
9.00693	0.821
9.04787	0.837
9.0888	0.833
9.12974	0.837
9.17067	0.83
9.21161	0.825
9.25255	0.83
9.29348	0.83
9.33442	0.835
9.37535	0.838
9.41629	0.842
9.45722	0.837
9.49816	0.842
9.53909	0.833
9.58003	0.852
9.62096	0.864
9.6619	0.869
9.70283	0.861
9.74377	0.871
9.7847	0.866
9.82564	0.871
9.86657	0.879
9.90751	0.883
9.94845	0.888
9.98938	0.89
10.0303	0.886
10.0713	0.883
10.1122	0.871
10.1531	0.859
10.1941	0.847
10.235	0.859
10.2759	0.869
10.3169	0.867
10.3578	0.871
10.3987	0.876
10.4397	0.878
10.4806	0.873
10.5215	0.874
10.5625	0.879
10.6034	0.874
10.6443	0.871
10.6853	0.859
10.7262	0.857
10.7672	0.855
10.8081	0.859
10.849	0.842
10.89	0.837
10.9309	0.813
10.9718	0.806
11.0128	0.835
11.0537	0.857
11.0946	0.871
11.1356	0.878
11.1765	0.879
11.2174	0.879
11.2584	0.888
11.2993	0.89
11.3402	0.9
11.3812	0.888
11.4221	0.883
11.4631	0.874
11.504	0.879
11.5449	0.902
11.5859	0.902
11.6268	0.898
11.6677	0.898
11.7087	0.891
11.7496	0.89
11.7905	0.878
11.8315	0.859
11.8724	0.83
11.9133	0.821
11.9543	0.823
11.9952	0.759
12.0361	0.722
12.0771	0.751
12.118	0.651
12.159	0.468
12.1999	0.684
12.2408	0.819
12.2818	0.862
12.3227	0.871
12.3636	0.874
12.4046	0.867
12.4455	0.878
12.4864	0.879
12.5274	0.878
12.5683	0.869
12.6092	0.821
12.6502	0.751
12.6911	0.632
12.732	0.605
12.773	0.5
12.8139	0.708
12.8549	0.79
12.8958	0.819
12.9367	0.825
12.9777	0.795
13.0186	0.677
13.0595	0.468
13.1005	0.506
13.1414	0.72
13.1823	0.789
13.2233	0.802
13.2642	0.811
13.3051	0.806
13.3461	0.804
13.387	0.823
13.4279	0.823
13.4689	0.83
13.5098	0.818
13.5508	0.783
13.5917	0.759
13.6326	0.747
13.6736	0.753
13.7145	0.744
13.7554	0.682
13.7964	0.564
13.8373	0.401
13.8782	0.271
13.9192	0.26
13.9601	0.425
14.001	0.607
14.042	0.713
14.0829	0.754
14.1238	0.778
14.1648	0.79
14.2057	0.802
14.2467	0.809
14.2876	0.825
14.3285	0.831
14.3695	0.835
14.4104	0.837
14.4513	0.833
14.4923	0.823
14.5332	0.821
14.5741	0.795
14.6151	0.778
14.656	0.783
14.6969	0.807
14.7379	0.814
14.7788	0.826
14.8197	0.819
14.8607	0.814
14.9016	0.807
14.9426	0.804
14.9835	0.795
15.0244	0.759
15.0654	0.73
15.1063	0.732
15.1472	0.754
15.1882	0.773
15.2291	0.768
15.27	0.777
15.311	0.771
15.3519	0.751
15.3928	0.758
15.4338	0.739
15.4747	0.728
15.5156	0.722
15.5566	0.716
15.5975	0.722
15.6385	0.716
15.6794	0.71
15.7203	0.708
15.7613	0.698
15.8022	0.691
15.8431	0.694
15.8841	0.687
15.925	0.672
15.9659	0.672
