Infrared Spectrum: m-DIETHYLAMINO PHENOL OXALATE
Formula: C22 H32 N2 O6
State: SOLID (MINERAL OIL MULL)
Melting point: 155-156 C
Class: COBLENTZ
Instrument: Not specified, most likely a prism, grating, or hybrid spectrometer.
Sampling: TRANSMISSION
Resolution: 4
Origin: WYANDOTTE CHEMICALS CORP., WYANDOTTE, MICHIGAN, USA
MICROMETERS	TRANSMITTANCE
1.993	0.869
2.03386	0.872
2.07471	0.879
2.11557	0.894
2.15642	0.887
2.19728	0.86
2.23813	0.87
2.27899	0.886
2.31984	0.894
2.3607	0.908
2.40156	0.921
2.44241	0.926
2.48327	0.93
2.52412	0.947
2.56498	0.969
2.60583	0.95
2.64669	0.977
2.68754	0.972
2.7284	0.962
2.76926	0.94
2.81011	0.933
2.85097	0.92
2.89182	0.899
2.93268	0.882
2.97353	0.874
3.01439	0.845
3.05524	0.806
3.0961	0.722
3.13695	0.636
3.17781	0.564
3.21867	0.515
3.25952	0.433
3.30038	0.374
3.34123	0.124
3.38209	0.03
3.42294	0.044
3.4638	0.078
3.50465	0.071
3.54551	0.401
3.58637	0.494
3.62722	0.51
3.66808	0.452
3.70893	0.437
3.74979	0.462
3.79064	0.469
3.8315	0.481
3.87235	0.501
3.91321	0.54
3.95407	0.576
3.99492	0.591
4.03578	0.596
4.07663	0.6
4.11749	0.602
4.15834	0.603
4.1992	0.61
4.24005	0.595
4.28091	0.595
4.32177	0.596
4.36262	0.607
4.40348	0.61
4.44433	0.612
4.48519	0.615
4.52604	0.622
4.5669	0.632
4.60775	0.642
4.64861	0.656
4.68946	0.666
4.73032	0.685
4.77118	0.69
4.81203	0.707
4.85289	0.717
4.89374	0.732
4.9346	0.734
4.97545	0.739
5.01631	0.748
5.05716	0.732
5.09802	0.743
5.13888	0.748
5.17973	0.743
5.22059	0.738
5.26144	0.761
5.3023	0.76
5.34315	0.741
5.38401	0.751
5.42486	0.758
5.46572	0.772
5.50658	0.772
5.54743	0.777
5.58829	0.77
5.62914	0.755
5.67	0.76
5.71085	0.756
5.75171	0.748
5.79256	0.715
5.83342	0.675
5.87428	0.637
5.91513	0.578
5.95599	0.474
5.99684	0.363
6.0377	0.301
6.07855	0.268
6.11941	0.282
6.16026	0.265
6.20112	0.232
6.24197	0.231
6.28283	0.222
6.32369	0.229
6.36454	0.25
6.4054	0.299
6.44625	0.346
6.48711	0.382
6.52796	0.374
6.56882	0.319
6.60967	0.232
6.65053	0.209
6.69139	0.122
6.73224	0.142
6.7731	0.12
6.81395	0.137
6.85481	0.164
6.89566	0.255
6.93652	0.345
6.97737	0.45
7.01823	0.498
7.05909	0.525
7.09994	0.525
7.1408	0.505
7.18165	0.328
7.22251	0.164
7.26336	0.256
7.30422	0.319
7.34507	0.307
7.38593	0.287
7.42679	0.275
7.46764	0.256
7.5085	0.217
7.54935	0.2
7.59021	0.309
7.63106	0.328
7.67192	0.212
7.71277	0.129
7.75363	0.183
7.79449	0.2
7.83534	0.195
7.8762	0.193
7.91705	0.193
7.95791	0.185
7.99876	0.207
8.03962	0.275
8.08047	0.329
8.12133	0.36
8.16218	0.394
8.20304	0.418
8.2439	0.447
8.28475	0.469
8.32561	0.505
8.36646	0.554
8.40732	0.608
8.44817	0.647
8.48903	0.647
8.52988	0.642
8.57074	0.637
8.6116	0.551
8.65245	0.367
8.69331	0.391
8.73416	0.474
8.77502	0.51
8.81587	0.542
8.85673	0.586
8.89758	0.552
8.93844	0.336
8.9793	0.399
9.02015	0.486
9.06101	0.515
9.10186	0.534
9.14272	0.511
9.18357	0.539
9.22443	0.568
9.26528	0.578
9.30614	0.566
9.347	0.544
9.38785	0.596
9.42871	0.62
9.46956	0.63
9.51042	0.608
9.55127	0.586
9.59213	0.581
9.63298	0.561
9.67384	0.44
9.71469	0.363
9.75555	0.503
9.79641	0.585
9.83726	0.646
9.87812	0.707
9.91897	0.748
9.95983	0.629
10.0007	0.394
10.0415	0.675
10.0824	0.717
10.1233	0.731
10.1641	0.744
10.205	0.76
10.2458	0.763
10.2867	0.773
10.3275	0.78
10.3684	0.785
10.4092	0.784
10.4501	0.755
10.4909	0.653
10.5318	0.588
10.5727	0.69
10.6135	0.741
10.6544	0.758
10.6952	0.765
10.7361	0.773
10.7769	0.765
10.8178	0.75
10.8586	0.775
10.8995	0.799
10.9404	0.821
10.9812	0.819
11.0221	0.826
11.0629	0.828
11.1038	0.821
11.1446	0.816
11.1855	0.809
11.2263	0.76
11.2672	0.741
11.3081	0.782
11.3489	0.819
11.3898	0.823
11.4306	0.819
11.4715	0.795
11.5123	0.721
11.5532	0.624
11.594	0.52
11.6349	0.505
11.6758	0.59
11.7166	0.647
11.7575	0.666
11.7983	0.676
11.8392	0.688
11.88	0.69
11.9209	0.67
11.9617	0.63
12.0026	0.539
12.0435	0.42
12.0843	0.377
12.1252	0.401
12.166	0.423
12.2069	0.437
12.2477	0.437
12.2886	0.42
12.3294	0.416
12.3703	0.399
12.4112	0.384
12.452	0.352
12.4929	0.331
12.5337	0.352
12.5746	0.362
12.6154	0.379
12.6563	0.367
12.6971	0.382
12.738	0.474
12.7789	0.471
12.8197	0.45
12.8606	0.445
12.9014	0.433
12.9423	0.431
12.9831	0.423
13.024	0.414
13.0648	0.411
13.1057	0.411
13.1466	0.426
13.1874	0.462
13.2283	0.505
13.2691	0.564
13.31	0.624
13.3508	0.673
13.3917	0.715
13.4325	0.734
13.4734	0.753
13.5143	0.758
13.5551	0.765
13.596	0.768
13.6368	0.772
13.6777	0.773
13.7185	0.775
13.7594	0.768
13.8002	0.748
13.8411	0.738
13.882	0.731
13.9228	0.741
13.9637	0.744
14.0045	0.71
14.0454	0.629
14.0862	0.542
14.1271	0.593
14.1679	0.678
14.2088	0.695
14.2497	0.637
14.2905	0.51
14.3314	0.391
14.3722	0.386
14.4131	0.438
14.4539	0.532
14.4948	0.656
14.5356	0.732
14.5765	0.761
14.6174	0.785
14.6582	0.794
14.6991	0.804
14.7399	0.795
14.7808	0.795
14.8216	0.79
14.8625	0.794
14.9033	0.795
14.9442	0.789
14.9851	0.758
15.0259	0.704
15.0668	0.647
15.1076	0.653
15.1485	0.68
15.1893	0.714
15.2302	0.734
15.271	0.739
15.3119	0.738
15.3528	0.739
15.3936	0.739
15.4345	0.726
15.4753	0.729
15.5162	0.719
15.557	0.712
15.5979	0.712
15.6387	0.698
15.6796	0.685
15.7205	0.663
15.7613	0.649
15.8022	0.632
15.843	0.627
15.8839	0.627
15.9247	0.622
15.9656	0.622
