Infrared Spectrum: MAGNESIUM PHOSPHATE, TRIBASIC
Formula: Mg3 ( P O4)2  * 4 H2 O
State: SOLID (NUJOL MULL)
Class: COBLENTZ
Instrument: Not specified, most likely a prism, grating, or hybrid spectrometer.
Sampling: TRANSMISSION
Resolution: 4
Origin: MELLON INSTITUTE
MICROMETERS	TRANSMITTANCE
2.027	0.928
2.06698	0.933
2.10695	0.936
2.14693	0.941
2.1869	0.948
2.22688	0.949
2.26686	0.951
2.30683	0.946
2.34681	0.939
2.38679	0.943
2.42676	0.941
2.46674	0.949
2.50671	0.958
2.54669	0.959
2.58667	0.958
2.62664	0.959
2.66662	0.951
2.70659	0.938
2.74657	0.901
2.78655	0.799
2.82652	0.667
2.8665	0.577
2.90648	0.562
2.94645	0.557
2.98643	0.542
3.0264	0.5
3.06638	0.469
3.10636	0.487
3.14633	0.517
3.18631	0.535
3.22628	0.545
3.26626	0.55
3.30624	0.529
3.34621	0.292
3.38619	0.115
3.42617	0.163
3.46614	0.196
3.50612	0.358
3.54609	0.547
3.58607	0.604
3.62605	0.639
3.66602	0.672
3.706	0.702
3.74597	0.734
3.78595	0.767
3.82593	0.794
3.8659	0.813
3.90588	0.829
3.94585	0.838
3.98583	0.846
4.02581	0.844
4.06578	0.849
4.10576	0.856
4.14574	0.856
4.18571	0.848
4.22569	0.831
4.26566	0.823
4.30564	0.821
4.34562	0.819
4.38559	0.834
4.42557	0.838
4.46554	0.839
4.50552	0.843
4.5455	0.849
4.58547	0.854
4.62545	0.859
4.66543	0.864
4.7054	0.879
4.74538	0.881
4.78535	0.886
4.82533	0.894
4.86531	0.894
4.90528	0.894
4.94526	0.894
4.98523	0.891
5.02521	0.886
5.06519	0.883
5.10516	0.881
5.14514	0.878
5.18512	0.873
5.22509	0.874
5.26507	0.869
5.30504	0.874
5.34502	0.886
5.385	0.893
5.42497	0.896
5.46495	0.901
5.50492	0.909
5.5449	0.899
5.58488	0.903
5.62485	0.901
5.66483	0.903
5.70481	0.898
5.74478	0.896
5.78476	0.884
5.82473	0.866
5.86471	0.831
5.90469	0.799
5.94466	0.772
5.98464	0.749
6.02461	0.712
6.06459	0.674
6.10457	0.672
6.14454	0.702
6.18452	0.741
6.2245	0.769
6.26447	0.787
6.30445	0.796
6.34442	0.801
6.3844	0.806
6.42438	0.809
6.46435	0.818
6.50433	0.824
6.5443	0.824
6.58428	0.824
6.62426	0.824
6.66423	0.826
6.70421	0.838
6.74419	0.826
6.78416	0.787
6.82414	0.636
6.86411	0.59
6.90409	0.584
6.94407	0.626
6.98404	0.684
7.02402	0.759
7.06399	0.799
7.10397	0.823
7.14395	0.838
7.18392	0.836
7.2239	0.771
7.26388	0.717
7.30385	0.724
7.34383	0.762
7.3838	0.796
7.42378	0.809
7.46376	0.814
7.50373	0.824
7.54371	0.833
7.58368	0.838
7.62366	0.834
7.66364	0.834
7.70361	0.834
7.74359	0.839
7.78356	0.836
7.82354	0.834
7.86352	0.831
7.90349	0.826
7.94347	0.821
7.98345	0.804
8.02342	0.784
8.0634	0.751
8.10337	0.734
8.14335	0.727
8.18333	0.741
8.2233	0.759
8.26328	0.772
8.30325	0.774
8.34323	0.769
8.38321	0.752
8.42318	0.732
8.46316	0.697
8.50314	0.629
8.54311	0.524
8.58309	0.47
8.62306	0.424
8.66304	0.41
8.70302	0.402
8.74299	0.372
8.78297	0.348
8.82294	0.338
8.86292	0.343
8.9029	0.36
8.94287	0.383
8.98285	0.405
9.02283	0.407
9.0628	0.382
9.10278	0.362
9.14275	0.323
9.18273	0.308
9.22271	0.293
9.26268	0.285
9.30266	0.277
9.34263	0.253
9.38261	0.245
9.42259	0.23
9.46256	0.223
9.50254	0.22
9.54252	0.218
9.58249	0.213
9.62247	0.213
9.66244	0.218
9.70242	0.222
9.7424	0.223
9.78237	0.215
9.82235	0.208
9.86232	0.202
9.9023	0.202
9.94228	0.215
9.98225	0.243
10.0222	0.282
10.0622	0.31
10.1022	0.335
10.1422	0.352
10.1821	0.377
10.2221	0.388
10.2621	0.402
10.3021	0.425
10.342	0.444
10.382	0.472
10.422	0.507
10.462	0.53
10.5019	0.544
10.5419	0.549
10.5819	0.537
10.6219	0.502
10.6618	0.494
10.7018	0.514
10.7418	0.54
10.7818	0.579
10.8218	0.614
10.8617	0.642
10.9017	0.664
10.9417	0.679
10.9817	0.691
11.0216	0.699
11.0616	0.701
11.1016	0.701
11.1416	0.702
11.1815	0.701
11.2215	0.699
11.2615	0.697
11.3015	0.697
11.3414	0.701
11.3814	0.707
11.4214	0.716
11.4614	0.719
11.5013	0.721
11.5413	0.724
11.5813	0.726
11.6213	0.734
11.6613	0.741
11.7012	0.742
11.7412	0.747
11.7812	0.757
11.8212	0.764
11.8611	0.772
11.9011	0.771
11.9411	0.774
11.9811	0.779
12.021	0.777
12.061	0.782
12.101	0.782
12.141	0.782
12.1809	0.782
12.2209	0.786
12.2609	0.789
12.3009	0.791
12.3408	0.792
12.3808	0.794
12.4208	0.794
12.4608	0.792
12.5008	0.791
12.5407	0.791
12.5807	0.791
12.6207	0.786
12.6607	0.779
12.7006	0.771
12.7406	0.751
12.7806	0.737
12.8206	0.729
12.8605	0.721
12.9005	0.711
12.9405	0.702
12.9805	0.699
13.0204	0.696
13.0604	0.696
13.1004	0.699
13.1404	0.702
13.1803	0.707
13.2203	0.711
13.2603	0.714
13.3003	0.717
13.3402	0.719
13.3802	0.717
13.4202	0.717
13.4602	0.719
13.5002	0.719
13.5401	0.719
13.5801	0.717
13.6201	0.717
13.6601	0.719
13.7	0.717
13.74	0.716
13.78	0.717
13.82	0.714
13.8599	0.711
13.8999	0.711
13.9399	0.709
13.9799	0.711
14.0198	0.712
14.0598	0.712
14.0998	0.716
14.1398	0.716
14.1797	0.717
14.2197	0.719
14.2597	0.719
14.2997	0.719
14.3397	0.714
14.3796	0.716
14.4196	0.714
14.4596	0.711
14.4996	0.711
14.5395	0.707
14.5795	0.706
14.6195	0.704
14.6595	0.702
14.6994	0.702
14.7394	0.701
14.7794	0.699
14.8194	0.699
14.8593	0.699
14.8993	0.706
14.9393	0.699
14.9793	0.689
15.0192	0.689
15.0592	0.684
15.0992	0.689
15.1392	0.689
15.1792	0.687
15.2191	0.682
15.2591	0.679
15.2991	0.677
15.3391	0.674
15.379	0.672
15.419	0.671
15.459	0.671
15.499	0.669
15.5389	0.666
15.5789	0.664
15.6189	0.664
15.6589	0.661
15.6988	0.662
15.7388	0.657
15.7788	0.652
15.8188	0.652
15.8587	0.651
15.8987	0.649
15.9387	0.649
15.9787	0.649
