Infrared Spectrum: Propionic acid, 2-benzamido-3,3'-thiodi-, diethyl ester
Formula: C17 H23 N O5 S
State: SOLID (KBr DISC)
Class: COBLENTZ III
Instrument: PERKIN-ELMER 21 (GRATING)
Instrument parameters: FILTER CHANGE ABOUT 1090 CM^-^1
Sampling: TRANSMISSION
Resolution: 2
Origin: SOUTHERN RESEARCH INSTITUTE
1/CM	TRANSMITTANCE
604.98	1.0144
614.014	1.0105
623.049	0.9994
632.083	0.9871
641.118	0.9778
650.152	0.9734
659.187	0.954
668.221	0.9193
677.256	0.8876
686.29	0.8653
695.325	0.752
704.359	0.818
713.394	0.8138
722.428	0.7759
731.463	0.7818
740.497	0.8175
749.532	0.9232
758.566	0.9364
767.601	0.9371
776.635	0.9327
785.669	0.9234
794.704	0.904
803.738	0.8952
812.773	0.9186
821.807	0.926
830.842	0.931
839.876	0.9165
848.911	0.8865
857.945	0.8624
866.98	0.8467
876.014	0.8844
885.049	0.9185
894.083	0.9307
903.118	0.9317
912.152	0.9295
921.187	0.9236
930.221	0.9156
939.256	0.9188
948.29	0.9197
957.325	0.9175
966.359	0.915
975.393	0.9132
984.428	0.9038
993.462	0.8838
1002.5	0.8618
1011.53	0.8557
1020.57	0.7321
1029.6	0.6977
1038.63	0.8026
1047.67	0.8443
1056.7	0.8794
1065.74	0.8818
1074.77	0.8707
1083.81	0.871
1092.84	0.8033
1101.88	0.7374
1110.91	0.8544
1119.95	0.8809
1128.98	0.8831
1138.01	0.8754
1147.05	0.8512
1156.08	0.7592
1165.12	0.6344
1174.15	0.6284
1183.19	0.513
1192.22	0.6499
1201.26	0.7617
1210.29	0.662
1219.32	0.533
1228.36	0.5978
1237.39	0.6357
1246.43	0.6586
1255.46	0.63
1264.5	0.6948
1273.53	0.7721
1282.57	0.7644
1291.6	0.7143
1300.63	0.7007
1309.67	0.6637
1318.7	0.5838
1327.74	0.5229
1336.77	0.5674
1345.81	0.6814
1354.84	0.7393
1363.88	0.8124
1372.91	0.752
1381.94	0.8003
1390.98	0.8521
1400.01	0.8535
1409.05	0.8412
1418.08	0.8078
1427.12	0.8013
1436.15	0.8639
1445.19	0.8538
1454.22	0.8345
1463.26	0.8333
1472.29	0.8125
1481.32	0.784
1490.36	0.732
1499.39	0.727
1508.43	0.767
1517.46	0.7013
1526.5	0.3629
1535.53	0.2898
1544.57	0.5486
1553.6	0.7668
1562.63	0.8256
1571.67	0.8217
1580.7	0.7368
1589.74	0.8342
1598.77	0.8011
1607.81	0.7603
1616.84	0.7461
1625.88	0.7092
1634.91	0.3089
1643.94	0.2322
1652.98	0.5674
1662.01	0.7021
1671.05	0.8301
1680.08	0.8544
1689.12	0.8581
1698.15	0.832
1707.19	0.7712
1716.22	0.5414
1725.25	0.4603
1734.29	0.639
1743.32	0.5345
1752.36	0.4802
1761.39	0.8556
1770.43	0.8933
1779.46	0.9284
1788.5	0.9448
1797.53	0.9478
1806.57	0.9511
1815.6	0.956
1824.63	0.963
1833.67	0.969
1842.7	0.9731
1851.74	0.9733
1860.77	0.9732
1869.81	0.9726
1878.84	0.9701
1887.88	0.9661
1896.91	0.9666
1905.94	0.9707
1914.98	0.9752
1924.01	0.976
1933.05	0.9765
1942.08	0.979
1951.12	0.9792
1960.15	0.9776
1969.19	0.9769
1978.22	0.9781
1987.25	0.9788
1996.29	0.9794
2005.32	0.9796
2014.36	0.9795
2023.39	0.9791
2032.43	0.979
2041.46	0.9789
2050.5	0.9789
2059.53	0.9792
2068.56	0.9795
2077.6	0.9799
2086.63	0.9799
2095.67	0.9797
2104.7	0.9796
2113.74	0.979
2122.77	0.9784
2131.81	0.9778
2140.84	0.9773
2149.88	0.978
2158.91	0.9788
2167.94	0.9795
2176.98	0.9803
2186.01	0.9807
2195.05	0.9805
2204.08	0.9799
2213.12	0.9777
2222.15	0.9756
2231.19	0.974
2240.22	0.9724
2249.25	0.9715
2258.29	0.9705
2267.32	0.9696
2276.36	0.9677
2285.39	0.9651
2294.43	0.9612
2303.46	0.9569
2312.5	0.9544
2321.53	0.9548
2330.56	0.9547
2339.6	0.9541
2348.63	0.9533
2357.67	0.9524
2366.7	0.9558
2375.74	0.9629
2384.77	0.9654
2393.81	0.9646
2402.84	0.9637
2411.87	0.9627
2420.91	0.9606
2429.94	0.9564
2438.98	0.9525
2448.01	0.9524
2457.05	0.9529
2466.08	0.954
2475.12	0.955
2484.15	0.9553
2493.19	0.9555
2502.22	0.9557
2511.25	0.956
2520.29	0.9562
2529.32	0.9563
2538.36	0.9564
2547.39	0.9565
2556.43	0.9561
2565.46	0.9557
2574.5	0.955
2583.53	0.9539
2592.56	0.9524
2601.6	0.9504
2610.63	0.9484
2619.67	0.9476
2628.7	0.9469
2637.74	0.9465
2646.77	0.9461
2655.81	0.9449
2664.84	0.9435
2673.87	0.942
2682.91	0.9426
2691.94	0.9455
2700.98	0.9477
2710.01	0.9445
2719.05	0.9406
2728.08	0.9372
2737.12	0.9353
2746.15	0.9336
2755.19	0.9322
2764.22	0.931
2773.25	0.9294
2782.29	0.9222
2791.32	0.9161
2800.36	0.9142
2809.39	0.913
2818.43	0.9128
2827.46	0.9112
2836.5	0.902
2845.53	0.8994
2854.56	0.9059
2863.6	0.902
2872.63	0.8948
2881.67	0.8846
2890.7	0.8743
2899.74	0.8633
2908.77	0.8569
2917.81	0.8606
2926.84	0.8659
2935.87	0.8661
2944.91	0.8588
2953.94	0.8493
2962.98	0.8395
2972.01	0.8331
2981.05	0.8606
2990.08	0.8776
2999.12	0.8874
3008.15	0.8877
3017.18	0.8872
3026.22	0.8868
3035.25	0.8839
3044.29	0.8724
3053.32	0.8709
3062.36	0.8731
3071.39	0.8815
3080.43	0.8938
3089.46	0.9025
3098.5	0.9074
3107.53	0.9074
3116.56	0.9069
3125.6	0.9064
3134.63	0.9033
3143.67	0.8942
3152.7	0.8853
3161.74	0.8765
3170.77	0.8689
3179.81	0.8617
3188.84	0.8552
3197.87	0.8455
3206.91	0.8288
3215.94	0.8042
3224.98	0.7528
3234.01	0.7121
3243.05	0.6679
3252.08	0.6234
3261.12	0.5861
3270.15	0.5526
3279.18	0.5382
3288.22	0.5387
3297.25	0.5413
3306.29	0.5682
3315.32	0.6046
3324.36	0.6534
3333.39	0.7066
3342.43	0.7476
3351.46	0.7822
3360.49	0.8007
3369.53	0.8111
3378.56	0.818
3387.6	0.8232
3396.63	0.8268
3405.67	0.8295
3414.7	0.8325
3423.74	0.8372
3432.77	0.8447
3441.81	0.8491
3450.84	0.8516
3459.87	0.8552
3468.91	0.8608
3477.94	0.8637
3486.98	0.8664
3496.01	0.8724
3505.05	0.8828
3514.08	0.8907
3523.12	0.8944
3532.15	0.8978
3541.18	0.9013
3550.22	0.9042
3559.25	0.907
3568.29	0.9108
3577.32	0.9164
3586.36	0.9232
3595.39	0.9298
3604.43	0.9359
3613.46	0.9411
3622.49	0.9452
3631.53	0.9487
3640.56	0.9514
3649.6	0.9534
3658.63	0.9547
3667.67	0.9556
3676.7	0.9561
3685.74	0.9564
3694.77	0.9567
3703.8	0.9572
3712.84	0.9586
3721.87	0.9597
3730.91	0.9601
3739.94	0.9598
3748.98	0.9597
3758.01	0.9602
3767.05	0.9607
3776.08	0.9618
3785.12	0.9633
3794.15	0.9647
3803.18	0.9636
3812.22	0.9623
3821.25	0.9603
3830.29	0.9581
3839.32	0.956
3848.36	0.9547
3857.39	0.9547
3866.43	0.9605
3875.46	0.967
3884.49	0.9631
3893.53	0.9579
3902.56	0.9594
3911.6	0.9614
3920.63	0.9635
3929.67	0.9648
3938.7	0.9644
3947.74	0.9654
3956.77	0.9625
3965.8	0.965
3974.84	0.9684
3983.87	0.9678
3992.91	0.9669
4001.94	0.9643
4010.98	0.9596
