Infrared Spectrum: 1-1'-(1,4-CYCLOHEXYLENE)BIS[3-(2-CHLOROETHYL) UREA], TRANS-
Formula: C12 H22 Cl2 N4 O2
State: SOLID (1 mg / 650 mg KBr DISC)
Class: COBLENTZ III
Instrument: PERKIN-ELMER 221 (GRATING)
Instrument parameters: FILTERS AT 2490, 980 CM ^-^1, GRATING FOR 4000-1428 CM ^-^1, NaCl PRISM FOR 1428-650 CM^-^1
Sampling: TRANSMISSION
Resolution: 4
Origin: SOUTHERN RES. INSTITUTE
1/CM	TRANSMITTANCE
590.899	0.709
600	0.7
609.101	0.688
618.202	0.674
627.302	0.637
636.403	0.616
645.504	0.605
654.605	0.625
663.706	0.6629
672.807	0.69
681.908	0.72
691.008	0.743
700.109	0.759
709.21	0.776
718.311	0.778
727.412	0.77
736.513	0.747
745.614	0.743
754.714	0.7819
763.815	0.794
772.916	0.8
782.017	0.839
791.118	0.851
800.219	0.854
809.32	0.859
818.42	0.861
827.521	0.862
836.622	0.859
845.723	0.858
854.824	0.856
863.925	0.858
873.026	0.861
882.126	0.853
891.227	0.82
900.328	0.799
909.429	0.854
918.53	0.849
927.631	0.84
936.731	0.833
945.832	0.827
954.933	0.815
964.034	0.814
973.135	0.818
982.236	0.822
991.337	0.821
1000.44	0.819
1009.54	0.816
1018.64	0.815
1027.74	0.809
1036.84	0.807
1045.94	0.804
1055.04	0.783
1064.14	0.765
1073.24	0.761
1082.35	0.688
1091.45	0.614
1100.55	0.6979
1109.65	0.777
1118.75	0.79
1127.85	0.791
1136.95	0.789
1146.05	0.785
1155.15	0.782
1164.25	0.761
1173.35	0.746
1182.45	0.736
1191.56	0.737
1200.66	0.737
1209.76	0.682
1218.86	0.598
1227.96	0.6571
1237.06	0.693
1246.16	0.5699
1255.26	0.559
1264.36	0.489
1273.46	0.5491
1282.56	0.663
1291.66	0.664
1300.77	0.621
1309.87	0.67
1318.97	0.712
1328.07	0.776
1337.17	0.783
1346.27	0.778
1355.37	0.772
1364.47	0.77
1373.57	0.794
1382.67	0.802
1391.77	0.8
1400.88	0.818
1409.98	0.7659
1419.08	0.749
1428.18	0.728
1437.28	0.682
1446.38	0.664
1455.48	0.7031
1464.58	0.764
1473.68	0.784
1482.78	0.755
1491.88	0.741
1500.98	0.698
1510.09	0.66
1519.19	0.564
1528.29	0.485
1537.39	0.469
1546.49	0.4099
1555.59	0.317
1564.69	0.232
1573.79	0.208
1582.89	0.236
1591.99	0.3361
1601.09	0.452
1610.19	0.4738
1619.3	0.314
1628.4	0.141
1637.5	0.1611
1646.6	0.314
1655.7	0.3971
1664.8	0.497
1673.9	0.589
1683	0.6281
1692.1	0.677
1701.2	0.699
1710.3	0.744
1719.41	0.776
1728.51	0.795
1737.61	0.809
1746.71	0.817
1755.81	0.824
1764.91	0.829
1774.01	0.836
1783.11	0.841
1792.21	0.845
1801.31	0.848
1810.41	0.851
1819.51	0.854
1828.62	0.858
1837.72	0.859
1846.82	0.861
1855.92	0.861
1865.02	0.863
1874.12	0.864
1883.22	0.864
1892.32	0.864
1901.42	0.864
1910.52	0.864
1919.62	0.865
1928.72	0.866
1937.83	0.867
1946.93	0.867
1956.03	0.867
1965.13	0.867
1974.23	0.867
1983.33	0.867
1992.43	0.867
2001.53	0.867
2010.63	0.867
2019.73	0.867
2028.83	0.867
2037.93	0.867
2047.04	0.867
2056.14	0.867
2065.24	0.867
2074.34	0.867
2083.44	0.866
2092.54	0.865
2101.64	0.865
2110.74	0.864
2119.84	0.864
2128.94	0.864
2138.04	0.8648
2147.15	0.867
2156.25	0.867
2165.35	0.867
2174.45	0.867
2183.55	0.867
2192.65	0.867
2201.75	0.8663
2210.85	0.865
2219.95	0.8643
2229.05	0.864
2238.15	0.864
2247.25	0.864
2256.36	0.865
2265.46	0.865
2274.56	0.864
2283.66	0.864
2292.76	0.863
2301.86	0.862
2310.96	0.862
2320.06	0.862
2329.16	0.862
2338.26	0.861
2347.36	0.861
2356.46	0.861
2365.57	0.861
2374.67	0.861
2383.77	0.861
2392.87	0.861
2401.97	0.861
2411.07	0.86
2420.17	0.859
2429.27	0.859
2438.37	0.858
2447.47	0.858
2456.57	0.857
2465.68	0.8567
2474.78	0.856
2483.88	0.856
2492.98	0.856
2502.08	0.856
2511.18	0.8558
2520.28	0.8548
2529.38	0.854
2538.48	0.854
2547.58	0.854
2556.68	0.854
2565.78	0.854
2574.89	0.853
2583.99	0.852
2593.09	0.851
2602.19	0.851
2611.29	0.85
2620.39	0.8499
2629.49	0.849
2638.59	0.848
2647.69	0.848
2656.79	0.848
2665.89	0.847
2674.99	0.845
2684.1	0.845
2693.2	0.844
2702.3	0.844
2711.4	0.844
2720.5	0.844
2729.6	0.844
2738.7	0.844
2747.8	0.844
2756.9	0.843
2766	0.842
2775.1	0.8343
2784.21	0.8262
2793.31	0.823
2802.41	0.8202
2811.51	0.8172
2820.61	0.8132
2829.71	0.8075
2838.81	0.7725
2847.91	0.7008
2857.01	0.6702
2866.11	0.7348
2875.21	0.7624
2884.31	0.759
2893.42	0.7373
2902.52	0.7227
2911.62	0.6979
2920.72	0.6289
2929.82	0.5729
2938.92	0.5642
2948.02	0.5865
2957.12	0.6283
2966.22	0.6921
2975.32	0.7564
2984.42	0.7901
2993.52	0.791
3002.63	0.788
3011.73	0.7855
3020.83	0.782
3029.93	0.78
3039.03	0.779
3048.13	0.7809
3057.23	0.7864
3066.33	0.791
3075.43	0.794
3084.53	0.794
3093.63	0.793
3102.73	0.7839
3111.84	0.7737
3120.94	0.7647
3130.04	0.76
3139.14	0.7649
3148.24	0.773
3157.34	0.771
3166.44	0.7677
3175.54	0.7648
3184.64	0.762
3193.74	0.759
3202.84	0.7568
3211.95	0.7498
3221.05	0.7407
3230.15	0.7287
3239.25	0.7124
3248.35	0.6977
3257.45	0.6812
3266.55	0.6505
3275.65	0.6124
3284.75	0.5685
3293.85	0.5245
3302.95	0.4646
3312.05	0.4217
3321.16	0.3799
3330.26	0.357
3339.36	0.36
3348.46	0.378
3357.56	0.408
3366.66	0.4435
3375.76	0.4965
3384.86	0.5424
3393.96	0.6049
3403.06	0.6267
3412.16	0.6622
3421.26	0.6816
3430.37	0.7009
3439.47	0.7098
3448.57	0.7277
3457.67	0.7368
3466.77	0.743
3475.87	0.745
3484.97	0.7516
3494.07	0.7598
3503.17	0.7627
3512.27	0.7657
3521.37	0.7705
3530.48	0.781
3539.58	0.784
3548.68	0.791
3557.78	0.793
3566.88	0.797
3575.98	0.8026
3585.08	0.8066
3594.18	0.8116
3603.28	0.8162
3612.38	0.8276
3621.48	0.83
3630.58	0.8356
3639.69	0.8395
3648.79	0.842
3657.89	0.8435
3666.99	0.8455
3676.09	0.847
3685.19	0.848
3694.29	0.8495
3703.39	0.851
3712.49	0.851
3721.59	0.849
3730.69	0.8456
3739.79	0.842
3748.9	0.839
3758	0.8397
3767.1	0.8474
3776.2	0.852
3785.3	0.854
3794.4	0.851
3803.5	0.852
3812.6	0.8507
3821.7	0.849
3830.8	0.848
3839.9	0.8478
3849.01	0.8458
3858.11	0.8438
3867.21	0.8432
3876.31	0.845
3885.41	0.8462
3894.51	0.848
3903.61	0.849
3912.71	0.849
3921.81	0.85
3930.91	0.851
3940.01	0.852
3949.11	0.852
3958.22	0.852
3967.32	0.852
3976.42	0.852
3985.52	0.854
3994.62	0.854
4003.72	0.854
