Infrared Spectrum: 1,1'-BIS[N-METHYL-N(P-AMINOPHENYL)-CARBOXAMIDO] FERROCENE
Formula: C26 H26 Fe N4 O2
State: SOLID (MINERAL OIL MULL)
Class: COBLENTZ
Instrument: Not specified, most likely a prism, grating, or hybrid spectrometer.
Sampling: TRANSMISSION
Resolution: 4
Origin: WYANDOTTE CHEMICALS CORP., WYANDOTTE, MICHIGAN, USA
MICROMETERS	TRANSMITTANCE
2.027	0.798
2.06782	0.796
2.10864	0.812
2.14945	0.812
2.19027	0.802
2.23109	0.813
2.27191	0.822
2.31272	0.817
2.35354	0.827
2.39436	0.831
2.43518	0.839
2.47599	0.839
2.51681	0.832
2.55763	0.849
2.59845	0.849
2.63926	0.86
2.68008	0.854
2.7209	0.848
2.76172	0.841
2.80253	0.841
2.84335	0.822
2.88417	0.75
2.92499	0.597
2.9658	0.699
3.00662	0.593
3.04744	0.699
3.08826	0.58
3.12907	0.723
3.16989	0.754
3.21071	0.737
3.25153	0.73
3.29234	0.75
3.33316	0.392
3.37398	0.131
3.4148	0.247
3.45561	0.336
3.49643	0.38
3.53725	0.779
3.57807	0.839
3.61888	0.846
3.6597	0.846
3.70052	0.844
3.74134	0.856
3.78215	0.875
3.82297	0.87
3.86379	0.878
3.90461	0.882
3.94542	0.899
3.98624	0.895
4.02706	0.895
4.06788	0.895
4.10869	0.899
4.14951	0.904
4.19033	0.906
4.23115	0.901
4.27196	0.914
4.31278	0.912
4.3536	0.911
4.39442	0.914
4.43523	0.912
4.47605	0.911
4.51687	0.919
4.55769	0.909
4.5985	0.919
4.63932	0.933
4.68014	0.926
4.72096	0.926
4.76177	0.924
4.80259	0.93
4.84341	0.926
4.88423	0.926
4.92504	0.933
4.96586	0.931
5.00668	0.93
5.0475	0.923
5.08831	0.921
5.12913	0.928
5.16995	0.926
5.21077	0.919
5.25158	0.921
5.2924	0.918
5.33322	0.919
5.37404	0.914
5.41485	0.926
5.45567	0.923
5.49649	0.924
5.53731	0.921
5.57812	0.918
5.61894	0.918
5.65976	0.912
5.70058	0.914
5.74139	0.904
5.78221	0.901
5.82303	0.875
5.86385	0.872
5.90466	0.866
5.94548	0.82
5.9863	0.747
6.02712	0.636
6.06793	0.544
6.10875	0.515
6.14957	0.189
6.19039	0.216
6.2312	0.175
6.27202	0.346
6.31284	0.59
6.35366	0.716
6.39447	0.749
6.43529	0.74
6.47611	0.609
6.51693	0.392
6.55774	0.131
6.59856	0.402
6.63938	0.602
6.6802	0.585
6.72101	0.448
6.76183	0.252
6.80265	0.286
6.84347	0.312
6.88428	0.45
6.9251	0.576
6.96592	0.68
7.00674	0.656
7.04755	0.551
7.08837	0.624
7.12919	0.573
7.17001	0.406
7.21082	0.423
7.25164	0.469
7.29246	0.537
7.33328	0.616
7.37409	0.696
7.41491	0.749
7.45573	0.726
7.49655	0.691
7.53736	0.703
7.57818	0.709
7.619	0.539
7.65982	0.389
7.70064	0.506
7.74145	0.383
7.78227	0.486
7.82309	0.639
7.86391	0.697
7.90472	0.723
7.94554	0.75
7.98636	0.757
8.02718	0.766
8.06799	0.774
8.10881	0.783
8.14963	0.764
8.19045	0.602
8.23126	0.674
8.27208	0.703
8.3129	0.701
8.35372	0.764
8.39453	0.79
8.43535	0.784
8.47617	0.677
8.51699	0.583
8.5578	0.726
8.59862	0.759
8.63944	0.774
8.68026	0.771
8.72107	0.779
8.76189	0.778
8.80271	0.74
8.84353	0.701
8.88434	0.636
8.92516	0.605
8.96598	0.624
9.0068	0.682
9.04761	0.721
9.08843	0.718
9.12925	0.716
9.17007	0.701
9.21088	0.721
9.2517	0.723
9.29252	0.715
9.33334	0.703
9.37415	0.701
9.41497	0.718
9.45579	0.723
9.49661	0.738
9.53742	0.735
9.57824	0.662
9.61906	0.706
9.65988	0.706
9.70069	0.742
9.74151	0.771
9.78233	0.762
9.82315	0.749
9.86396	0.774
9.90478	0.757
9.9456	0.721
9.98642	0.779
10.0272	0.802
10.0681	0.817
10.1089	0.822
10.1497	0.817
10.1905	0.817
10.2313	0.815
10.2721	0.808
10.313	0.791
10.3538	0.793
10.3946	0.805
10.4354	0.81
10.4762	0.813
10.517	0.812
10.5579	0.815
10.5987	0.81
10.6395	0.791
10.6803	0.81
10.7211	0.824
10.7619	0.819
10.8028	0.82
10.8436	0.812
10.8844	0.771
10.9252	0.779
10.966	0.795
11.0069	0.795
11.0477	0.803
11.0885	0.807
11.1293	0.803
11.1701	0.808
11.2109	0.81
11.2518	0.819
11.2926	0.813
11.3334	0.802
11.3742	0.79
11.415	0.788
11.4558	0.788
11.4967	0.79
11.5375	0.783
11.5783	0.773
11.6191	0.747
11.6599	0.744
11.7008	0.701
11.7416	0.639
11.7824	0.597
11.8232	0.535
11.864	0.539
11.9048	0.535
11.9457	0.506
11.9865	0.496
12.0273	0.5
12.0681	0.501
12.1089	0.559
12.1497	0.602
12.1906	0.638
12.2314	0.674
12.2722	0.699
12.313	0.68
12.3538	0.718
12.3946	0.749
12.4355	0.778
12.4763	0.79
12.5171	0.796
12.5579	0.802
12.5987	0.795
12.6396	0.805
12.6804	0.803
12.7212	0.807
12.762	0.81
12.8028	0.793
12.8436	0.8
12.8845	0.796
12.9253	0.786
12.9661	0.769
13.0069	0.747
13.0477	0.701
13.0885	0.592
13.1294	0.636
13.1702	0.715
13.211	0.735
13.2518	0.749
13.2926	0.755
13.3335	0.759
13.3743	0.757
13.4151	0.75
13.4559	0.742
13.4967	0.73
13.5375	0.72
13.5784	0.684
13.6192	0.655
13.66	0.648
13.7008	0.677
13.7416	0.709
13.7824	0.732
13.8233	0.725
13.8641	0.725
13.9049	0.718
13.9457	0.732
13.9865	0.726
14.0274	0.732
14.0682	0.73
14.109	0.726
14.1498	0.72
14.1906	0.723
14.2314	0.718
14.2723	0.715
14.3131	0.716
14.3539	0.708
14.3947	0.711
14.4355	0.708
14.4763	0.703
14.5172	0.704
14.558	0.704
14.5988	0.704
14.6396	0.709
14.6804	0.709
14.7212	0.711
14.7621	0.696
14.8029	0.706
14.8437	0.713
14.8845	0.713
14.9253	0.713
14.9662	0.716
15.007	0.706
15.0478	0.691
15.0886	0.701
15.1294	0.718
15.1702	0.73
15.2111	0.728
15.2519	0.73
15.2927	0.73
15.3335	0.725
15.3743	0.728
15.4151	0.723
15.456	0.711
15.4968	0.713
15.5376	0.703
15.5784	0.691
15.6192	0.687
15.6601	0.684
15.7009	0.677
15.7417	0.663
15.7825	0.639
15.8233	0.619
15.8641	0.602
15.905	0.602
15.9458	0.612
15.9866	0.621
