Infrared Spectrum: 2,2-DIMETHYL HEPTANOL
Formula: C10 H20 O
Class: COBLENTZ
Instrument: Not specified, most likely a prism, grating, or hybrid spectrometer.
Sampling: TRANSMISSION
Path length: 0.0016 CM
Resolution: 4
MICROMETERS	TRANSMITTANCE
2.126	0.965
2.1658	0.965
2.20559	0.968
2.24539	0.966
2.28518	0.955
2.32498	0.935
2.36477	0.936
2.40457	0.931
2.44436	0.933
2.48416	0.945
2.52395	0.951
2.56375	0.968
2.60354	0.973
2.64334	0.978
2.68313	0.993
2.72293	0.998
2.76272	0.973
2.80252	0.883
2.84231	0.65
2.88211	0.428
2.9219	0.3
2.9617	0.233
3.00149	0.208
3.04129	0.216
3.08108	0.251
3.12088	0.328
3.16067	0.455
3.20047	0.56
3.24026	0.688
3.28006	0.778
3.31985	0.81
3.35965	0.726
3.39944	0.273
3.43924	0.068
3.47903	0.065
3.51883	0.093
3.55862	0.218
3.59842	0.653
3.63821	0.78
3.67801	0.8
3.71781	0.833
3.7576	0.866
3.7974	0.881
3.83719	0.896
3.87699	0.91
3.91678	0.921
3.95658	0.931
3.99637	0.943
4.03617	0.95
4.07596	0.958
4.11576	0.956
4.15555	0.963
4.19535	0.963
4.23514	0.965
4.27494	0.981
4.31473	0.995
4.35453	1
4.39432	0.983
4.43412	0.971
4.47391	0.975
4.51371	0.981
4.5535	0.978
4.5933	0.978
4.63309	0.976
4.67289	0.973
4.71268	0.978
4.75248	0.973
4.79227	0.958
4.83207	0.96
4.87186	0.953
4.91166	0.951
4.95145	0.953
4.99125	0.956
5.03104	0.965
5.07084	0.951
5.11063	0.951
5.15043	0.951
5.19022	0.951
5.23002	0.951
5.26982	0.95
5.30961	0.946
5.34941	0.946
5.3892	0.946
5.429	0.943
5.46879	0.941
5.50859	0.938
5.54838	0.941
5.58818	0.946
5.62797	0.943
5.66777	0.938
5.70756	0.933
5.74736	0.926
5.78715	0.906
5.82695	0.886
5.86674	0.886
5.90654	0.89
5.94633	0.891
5.98613	0.9
6.02592	0.9
6.06572	0.896
6.10551	0.901
6.14531	0.898
6.1851	0.893
6.2249	0.891
6.26469	0.886
6.30449	0.886
6.34428	0.886
6.38408	0.886
6.42387	0.888
6.46367	0.883
6.50346	0.885
6.54326	0.866
6.58305	0.868
6.62285	0.83
6.66264	0.801
6.70244	0.741
6.74223	0.551
6.78203	0.28
6.82183	0.183
6.86162	0.268
6.90142	0.418
6.94121	0.525
6.98101	0.565
7.0208	0.601
7.0606	0.61
7.10039	0.6
7.14019	0.573
7.17998	0.51
7.21978	0.403
7.25957	0.36
7.29937	0.503
7.33916	0.333
7.37896	0.551
7.41875	0.635
7.45855	0.636
7.49834	0.661
7.53814	0.681
7.57793	0.676
7.61773	0.65
7.65752	0.688
7.69732	0.695
7.73711	0.688
7.77691	0.685
7.8167	0.683
7.8565	0.653
7.89629	0.658
7.93609	0.685
7.97588	0.691
8.01568	0.701
8.05547	0.725
8.09527	0.72
8.13506	0.688
8.17486	0.683
8.21465	0.64
8.25445	0.635
8.29424	0.63
8.33404	0.645
8.37384	0.648
8.41363	0.648
8.45343	0.653
8.49322	0.658
8.53302	0.653
8.57281	0.64
8.61261	0.651
8.6524	0.703
8.6922	0.725
8.73199	0.753
8.77179	0.76
8.81158	0.766
8.85138	0.765
8.89117	0.75
8.93097	0.723
8.97076	0.693
9.01056	0.663
9.05035	0.693
9.09015	0.69
9.12994	0.653
9.16974	0.616
9.20953	0.601
9.24933	0.573
9.28912	0.515
9.32892	0.493
9.36871	0.42
9.40851	0.306
9.4483	0.171
9.4881	0.115
9.52789	0.091
9.56769	0.083
9.60748	0.088
9.64728	0.11
9.68707	0.16
9.72687	0.22
9.76666	0.3
9.80646	0.353
9.84626	0.391
9.88605	0.481
9.92585	0.503
9.96564	0.536
10.0054	0.571
10.0452	0.571
10.085	0.571
10.1248	0.603
10.1646	0.648
10.2044	0.683
10.2442	0.695
10.284	0.703
10.3238	0.728
10.3636	0.751
10.4034	0.763
10.4432	0.766
10.483	0.766
10.5228	0.761
10.5626	0.748
10.6024	0.733
10.6422	0.713
10.682	0.723
10.7217	0.768
10.7615	0.781
10.8013	0.785
10.8411	0.771
10.8809	0.75
10.9207	0.721
10.9605	0.703
11.0003	0.703
11.0401	0.703
11.0799	0.681
11.1197	0.695
11.1595	0.75
11.1993	0.785
11.2391	0.786
11.2789	0.768
11.3187	0.75
11.3585	0.77
11.3983	0.783
11.4381	0.783
11.4779	0.785
11.5177	0.791
11.5574	0.791
11.5972	0.798
11.637	0.79
11.6768	0.78
11.7166	0.78
11.7564	0.785
11.7962	0.783
11.836	0.783
11.8758	0.776
11.9156	0.77
11.9554	0.758
11.9952	0.755
12.035	0.763
12.0748	0.771
12.1146	0.775
12.1544	0.773
12.1942	0.768
12.234	0.773
12.2738	0.766
12.3136	0.766
12.3533	0.763
12.3931	0.761
12.4329	0.751
12.4727	0.753
12.5125	0.753
12.5523	0.745
12.5921	0.743
12.6319	0.735
12.6717	0.725
12.7115	0.715
12.7513	0.705
12.7911	0.693
12.8309	0.675
12.8707	0.661
12.9105	0.628
12.9503	0.58
12.9901	0.518
13.0299	0.463
13.0697	0.415
13.1095	0.403
13.1493	0.415
13.189	0.438
13.2288	0.478
13.2686	0.515
13.3084	0.566
13.3482	0.6
13.388	0.618
13.4278	0.631
13.4676	0.638
13.5074	0.633
13.5472	0.628
13.587	0.616
13.6268	0.596
13.6666	0.58
13.7064	0.551
13.7462	0.536
13.786	0.53
13.8258	0.553
13.8656	0.59
13.9054	0.613
13.9452	0.618
13.9849	0.626
14.0247	0.635
14.0645	0.636
14.1043	0.638
14.1441	0.64
14.1839	0.638
14.2237	0.635
14.2635	0.633
14.3033	0.635
14.3431	0.633
14.3829	0.633
14.4227	0.63
14.4625	0.63
14.5023	0.628
14.5421	0.628
14.5819	0.621
14.6217	0.623
14.6615	0.623
14.7013	0.621
14.7411	0.623
14.7809	0.623
14.8206	0.623
14.8604	0.616
14.9002	0.616
14.94	0.618
14.9798	0.63
15.0196	0.63
15.0594	0.61
15.0992	0.616
15.139	0.613
15.1788	0.62
15.2186	0.621
15.2584	0.626
15.2982	0.626
15.338	0.628
15.3778	0.628
15.4176	0.63
15.4574	0.633
15.4972	0.638
15.537	0.641
15.5768	0.643
15.6165	0.646
15.6563	0.645
15.6961	0.646
15.7359	0.646
15.7757	0.65
15.8155	0.66
15.8553	0.663
15.8951	0.666
15.9349	0.67
15.9747	0.673
16.0145	0.675
