Infrared Spectrum: NICKEL OXALATE
Formula: Ni C2 O4  * 2 H2 O
State: SOLID (KBr DISC)
Class: COBLENTZ
Instrument: Not specified, most likely a prism, grating, or hybrid spectrometer.
Sampling: TRANSMISSION
Resolution: 4
MICROMETERS	TRANSMITTANCE
2.044	0.947
2.0822	0.949
2.1204	0.95
2.1586	0.95
2.1968	0.952
2.235	0.952
2.2732	0.955
2.3114	0.956
2.3496	0.956
2.3878	0.956
2.426	0.956
2.4642	0.958
2.5024	0.956
2.5406	0.955
2.5788	0.956
2.617	0.955
2.6552	0.955
2.6934	0.952
2.7316	0.929
2.7698	0.85
2.808	0.671
2.8462	0.508
2.8844	0.39
2.9226	0.249
2.9608	0.144
2.999	0.155
3.0372	0.321
3.0754	0.434
3.1136	0.524
3.1518	0.581
3.19	0.621
3.2282	0.666
3.2664	0.724
3.3046	0.784
3.3428	0.811
3.381	0.837
3.4192	0.86
3.4574	0.889
3.4956	0.904
3.5338	0.91
3.572	0.917
3.6102	0.923
3.6484	0.935
3.6866	0.94
3.7248	0.943
3.763	0.946
3.8012	0.949
3.8394	0.952
3.8776	0.955
3.9158	0.955
3.954	0.955
3.9922	0.958
4.0304	0.956
4.0686	0.958
4.1068	0.956
4.145	0.958
4.1832	0.958
4.2214	0.958
4.2596	0.958
4.2978	0.958
4.336	0.958
4.3742	0.958
4.4124	0.958
4.4506	0.958
4.4888	0.958
4.527	0.959
4.5652	0.956
4.6034	0.952
4.6416	0.952
4.6798	0.952
4.718	0.952
4.7562	0.952
4.7944	0.952
4.8326	0.952
4.8708	0.952
4.909	0.955
4.9472	0.956
4.9854	0.956
5.0236	0.958
5.0618	0.958
5.1	0.958
5.1382	0.95
5.1764	0.95
5.2146	0.952
5.2528	0.953
5.291	0.955
5.3292	0.955
5.3674	0.955
5.4056	0.955
5.4438	0.956
5.482	0.956
5.5202	0.956
5.5584	0.952
5.5966	0.944
5.6348	0.935
5.673	0.923
5.7112	0.908
5.7494	0.871
5.7876	0.778
5.8258	0.701
5.864	0.542
5.9022	0.428
5.9404	0.261
5.9786	0.174
6.0168	0.107
6.055	0.073
6.0932	0.046
6.1314	0.035
6.1696	0.035
6.2078	0.121
6.246	0.307
6.2842	0.484
6.3224	0.594
6.3606	0.683
6.3988	0.718
6.437	0.763
6.4752	0.772
6.5134	0.792
6.5516	0.802
6.5898	0.819
6.628	0.832
6.6662	0.847
6.7044	0.856
6.7426	0.856
6.7808	0.853
6.819	0.853
6.8572	0.853
6.8954	0.844
6.9336	0.834
6.9718	0.832
7.01	0.835
7.0482	0.844
7.0864	0.857
7.1246	0.86
7.1628	0.862
7.201	0.865
7.2392	0.863
7.2774	0.822
7.3156	0.597
7.3538	0.445
7.392	0.56
7.4302	0.642
7.4684	0.677
7.5066	0.678
7.5448	0.566
7.583	0.437
7.6212	0.434
7.6594	0.623
7.6976	0.693
7.7358	0.78
7.774	0.832
7.8122	0.865
7.8504	0.886
7.8886	0.898
7.9268	0.907
7.965	0.913
8.0032	0.916
8.0414	0.92
8.0796	0.923
8.1178	0.923
8.156	0.925
8.1942	0.925
8.2324	0.925
8.2706	0.926
8.3088	0.926
8.347	0.928
8.3852	0.929
8.4234	0.929
8.4616	0.932
8.4998	0.937
8.538	0.938
8.5762	0.938
8.6144	0.937
8.6526	0.937
8.6908	0.935
8.729	0.937
8.7672	0.937
8.8054	0.937
8.8436	0.937
8.8818	0.937
8.92	0.935
8.9582	0.937
8.9964	0.937
9.0346	0.938
9.0728	0.94
9.111	0.941
9.1492	0.943
9.1874	0.944
9.2256	0.944
9.2638	0.944
9.302	0.944
9.3402	0.944
9.3784	0.946
9.4166	0.946
9.4548	0.946
9.493	0.947
9.5312	0.947
9.5694	0.947
9.6076	0.949
9.6458	0.949
9.684	0.949
9.7222	0.95
9.7604	0.95
9.7986	0.95
9.8368	0.952
9.875	0.95
9.9132	0.95
9.9514	0.95
9.9896	0.949
10.0278	0.949
10.066	0.95
10.1042	0.95
10.1424	0.949
10.1806	0.949
10.2188	0.947
10.257	0.946
10.2952	0.946
10.3334	0.944
10.3716	0.94
10.4098	0.941
10.448	0.941
10.4862	0.938
10.5244	0.938
10.5626	0.937
10.6008	0.935
10.639	0.934
10.6772	0.931
10.7154	0.923
10.7536	0.928
10.7918	0.923
10.83	0.92
10.8682	0.914
10.9064	0.917
10.9446	0.913
10.9828	0.914
11.021	0.916
11.0592	0.914
11.0974	0.916
11.1356	0.914
11.1738	0.91
11.212	0.908
11.2502	0.907
11.2884	0.905
11.3266	0.905
11.3648	0.901
11.403	0.898
11.4412	0.895
11.4794	0.884
11.5176	0.881
11.5558	0.872
11.594	0.862
11.6322	0.849
11.6704	0.838
11.7086	0.826
11.7468	0.807
11.785	0.784
11.8232	0.762
11.8614	0.744
11.8996	0.714
11.9378	0.68
11.976	0.65
12.0142	0.632
12.0524	0.62
12.0906	0.617
12.1288	0.615
12.167	0.615
12.2052	0.621
12.2434	0.626
12.2816	0.629
12.3198	0.63
12.358	0.633
12.3962	0.632
12.4344	0.635
12.4726	0.638
12.5108	0.641
12.549	0.65
12.5872	0.657
12.6254	0.665
12.6636	0.668
12.7018	0.672
12.74	0.678
12.7782	0.68
12.8164	0.684
12.8546	0.692
12.8928	0.695
12.931	0.702
12.9692	0.704
13.0074	0.705
13.0456	0.705
13.0838	0.704
13.122	0.702
13.1602	0.705
13.1984	0.705
13.2366	0.71
13.2748	0.713
13.313	0.718
13.3512	0.718
13.3894	0.723
13.4276	0.723
13.4658	0.726
13.504	0.726
13.5422	0.726
13.5804	0.727
13.6186	0.73
13.6568	0.732
13.695	0.735
13.7332	0.738
13.7714	0.739
13.8096	0.741
13.8478	0.744
13.886	0.745
13.9242	0.748
13.9624	0.748
14.0006	0.748
14.0388	0.75
14.077	0.75
14.1152	0.753
14.1534	0.754
14.1916	0.754
14.2298	0.754
14.268	0.754
14.3062	0.754
14.3444	0.753
14.3826	0.753
14.4208	0.754
14.459	0.754
14.4972	0.754
14.5354	0.756
14.5736	0.756
14.6118	0.756
14.65	0.756
14.6882	0.756
14.7264	0.754
14.7646	0.756
14.8028	0.756
14.841	0.756
14.8792	0.754
14.9174	0.756
14.9556	0.756
14.9938	0.756
15.032	0.756
15.0702	0.756
15.1084	0.756
15.1466	0.757
15.1848	0.757
15.223	0.76
15.2612	0.759
15.2994	0.76
15.3376	0.763
15.3758	0.763
15.414	0.763
