Infrared Spectrum: AMMONIUM PERSULFATE
Formula: ( N H4)2 S2 O8
State: SOLID (NUJOL MULL)
Class: COBLENTZ
Instrument: Not specified, most likely a prism, grating, or hybrid spectrometer.
Sampling: TRANSMISSION
Resolution: 4
Origin: MELLON INSTITUTE
MICROMETERS	TRANSMITTANCE
2.028	0.76
2.06793	0.761
2.10785	0.755
2.14778	0.756
2.18771	0.756
2.22764	0.763
2.26756	0.763
2.30749	0.76
2.34742	0.765
2.38735	0.765
2.42727	0.766
2.4672	0.768
2.50713	0.773
2.54706	0.776
2.58698	0.775
2.62691	0.775
2.66684	0.781
2.70677	0.78
2.74669	0.763
2.78662	0.755
2.82655	0.741
2.86648	0.716
2.9064	0.698
2.94633	0.655
2.98626	0.591
3.02619	0.43
3.06611	0.375
3.10604	0.381
3.14597	0.425
3.1859	0.461
3.22582	0.48
3.26575	0.495
3.30568	0.526
3.34561	0.426
3.38553	0.358
3.42546	0.471
3.46539	0.481
3.50532	0.628
3.54524	0.686
3.58517	0.721
3.6251	0.746
3.66503	0.753
3.70495	0.76
3.74488	0.77
3.78481	0.771
3.82474	0.776
3.86466	0.778
3.90459	0.78
3.94452	0.783
3.98445	0.788
4.02437	0.79
4.0643	0.788
4.10423	0.79
4.14416	0.788
4.18408	0.788
4.22401	0.783
4.26394	0.785
4.30386	0.775
4.34379	0.785
4.38372	0.79
4.42365	0.791
4.46357	0.791
4.5035	0.791
4.54343	0.791
4.58336	0.795
4.62328	0.796
4.66321	0.798
4.70314	0.8
4.74307	0.801
4.78299	0.805
4.82292	0.811
4.86285	0.813
4.90278	0.815
4.9427	0.82
4.98263	0.823
5.02256	0.823
5.06249	0.828
5.10241	0.83
5.14234	0.835
5.18227	0.833
5.2222	0.838
5.26212	0.838
5.30205	0.838
5.34198	0.838
5.38191	0.84
5.42183	0.836
5.46176	0.835
5.50169	0.843
5.54162	0.846
5.58154	0.848
5.62147	0.848
5.6614	0.848
5.70133	0.845
5.74125	0.845
5.78118	0.848
5.82111	0.848
5.86104	0.848
5.90096	0.845
5.94089	0.831
5.98082	0.83
6.02075	0.825
6.06067	0.828
6.1006	0.828
6.14053	0.83
6.18046	0.841
6.22038	0.846
6.26031	0.846
6.30024	0.843
6.34017	0.841
6.38009	0.843
6.42002	0.84
6.45995	0.838
6.49987	0.838
6.5398	0.84
6.57973	0.831
6.61966	0.826
6.65958	0.811
6.69951	0.8
6.73944	0.753
6.77937	0.696
6.81929	0.616
6.85922	0.555
6.89915	0.471
6.93908	0.408
6.979	0.338
7.01893	0.303
7.05886	0.295
7.09879	0.358
7.13871	0.478
7.17864	0.608
7.21857	0.65
7.2585	0.711
7.29842	0.736
7.33835	0.763
7.37828	0.77
7.41821	0.765
7.45813	0.755
7.49806	0.74
7.53799	0.708
7.57792	0.598
7.61784	0.493
7.65777	0.38
7.6977	0.248
7.73763	0.191
7.77755	0.148
7.81748	0.151
7.85741	0.193
7.89734	0.286
7.93726	0.321
7.97719	0.348
8.01712	0.498
8.05705	0.571
8.09697	0.61
8.1369	0.635
8.17683	0.641
8.21676	0.646
8.25668	0.656
8.29661	0.663
8.33654	0.678
8.37647	0.683
8.41639	0.683
8.45632	0.686
8.49625	0.69
8.53618	0.7
8.5761	0.716
8.61603	0.746
8.65596	0.761
8.69588	0.773
8.73581	0.788
8.77574	0.8
8.81567	0.81
8.85559	0.815
8.89552	0.823
8.93545	0.833
8.97538	0.84
9.0153	0.843
9.05523	0.848
9.09516	0.851
9.13509	0.848
9.17501	0.806
9.21494	0.67
9.25487	0.733
9.2948	0.796
9.33472	0.813
9.37465	0.783
9.41458	0.513
9.45451	0.406
9.49443	0.546
9.53436	0.66
9.57429	0.721
9.61422	0.786
9.65414	0.815
9.69407	0.838
9.734	0.855
9.77393	0.863
9.81385	0.868
9.85378	0.87
9.89371	0.873
9.93364	0.881
9.97356	0.881
10.0135	0.888
10.0534	0.893
10.0933	0.893
10.1333	0.9
10.1732	0.91
10.2131	0.911
10.2531	0.913
10.293	0.913
10.3329	0.913
10.3728	0.911
10.4128	0.91
10.4527	0.908
10.4926	0.911
10.5325	0.915
10.5725	0.918
10.6124	0.92
10.6523	0.92
10.6923	0.92
10.7322	0.921
10.7721	0.92
10.812	0.921
10.852	0.921
10.8919	0.923
10.9318	0.926
10.9717	0.93
11.0117	0.923
11.0516	0.921
11.0915	0.925
11.1315	0.925
11.1714	0.925
11.2113	0.923
11.2512	0.923
11.2912	0.921
11.3311	0.92
11.371	0.915
11.411	0.913
11.4509	0.901
11.4908	0.893
11.5307	0.893
11.5707	0.893
11.6106	0.9
11.6505	0.906
11.6904	0.911
11.7304	0.918
11.7703	0.925
11.8102	0.933
11.8502	0.935
11.8901	0.943
11.93	0.945
11.9699	0.945
12.0099	0.945
12.0498	0.948
12.0897	0.951
12.1296	0.955
12.1696	0.958
12.2095	0.961
12.2494	0.965
12.2894	0.961
12.3293	0.953
12.3692	0.95
12.4091	0.938
12.4491	0.923
12.489	0.903
12.5289	0.866
12.5688	0.85
12.6088	0.835
12.6487	0.835
12.6886	0.85
12.7286	0.881
12.7685	0.898
12.8084	0.905
12.8483	0.913
12.8883	0.921
12.9282	0.925
12.9681	0.93
13.0081	0.933
13.048	0.933
13.0879	0.931
13.1278	0.931
13.1678	0.931
13.2077	0.93
13.2476	0.925
13.2875	0.925
13.3275	0.923
13.3674	0.915
13.4073	0.91
13.4473	0.903
13.4872	0.893
13.5271	0.883
13.567	0.875
13.607	0.863
13.6469	0.845
13.6868	0.833
13.7267	0.8
13.7667	0.763
13.8066	0.725
13.8465	0.681
13.8865	0.628
13.9264	0.583
13.9663	0.528
14.0062	0.498
14.0462	0.461
14.0861	0.426
14.126	0.396
14.1659	0.373
14.2059	0.355
14.2458	0.351
14.2857	0.36
14.3257	0.38
14.3656	0.408
14.4055	0.441
14.4454	0.496
14.4854	0.538
14.5253	0.57
14.5652	0.598
14.6051	0.618
14.6451	0.638
14.685	0.651
14.7249	0.665
14.7649	0.671
14.8048	0.675
14.8447	0.68
14.8846	0.691
14.9246	0.698
14.9645	0.701
15.0044	0.7
15.0444	0.705
15.0843	0.705
15.1242	0.706
15.1641	0.71
15.2041	0.713
15.244	0.711
15.2839	0.711
15.3238	0.708
15.3638	0.711
15.4037	0.708
15.4436	0.696
15.4836	0.695
15.5235	0.69
15.5634	0.676
15.6033	0.671
15.6433	0.668
15.6832	0.668
15.7231	0.668
15.763	0.67
15.803	0.673
15.8429	0.681
15.8828	0.691
15.9228	0.693
15.9627	0.696
