Infrared Spectrum: BENZIDINE, DIHYDROCHLORIDE
Formula: C12 H14 Cl2 N2
State: SOLID (SPLIT MULL)
Class: COBLENTZ III
Instrument: BECKMAN IR-9 (GRATING)
Instrument parameters: ORDER CHANGES: 670, 1200, 2000 CM^-^1
Sampling: TRANSMISSION
Resolution: 2
Origin: DOW CHEMICAL COMPANY
1/CM	TRANSMITTANCE
400	0.6601
409	0.6487
418	0.6391
427	0.6472
436	0.6668
445	0.6985
454	0.7217
463	0.7436
472	0.7712
481	0.7531
490	0.526
499	0.7219
508	0.7712
517	0.6621
526	0.6967
535	0.7906
544	0.7711
553	0.8057
562	0.8086
571	0.8214
580	0.8355
589	0.8352
598	0.8325
607	0.8307
616	0.8296
625	0.8388
634	0.8328
643	0.7035
652	0.8548
661	0.8568
670	0.8539
679	0.8634
688	0.8632
697	0.8506
706	0.8263
715	0.7506
724	0.6992
733	0.7531
742	0.7878
751	0.8019
760	0.8078
769	0.8075
778	0.8071
787	0.7992
796	0.7534
805	0.3864
814	0.7318
823	0.7918
832	0.7882
841	0.7721
850	0.7969
859	0.7871
868	0.8118
877	0.8092
886	0.8006
895	0.7925
904	0.7903
913	0.7543
922	0.7698
931	0.7771
940	0.764
949	0.7631
958	0.7624
967	0.7453
976	0.7474
985	0.7615
994	0.751
1003	0.6936
1012	0.7449
1021	0.6964
1030	0.6958
1039	0.7228
1048	0.7211
1057	0.6928
1066	0.6481
1075	0.6215
1084	0.6886
1093	0.6878
1102	0.689
1111	0.5492
1120	0.6739
1129	0.7103
1138	0.6848
1147	0.7145
1156	0.7176
1165	0.7183
1174	0.7168
1183	0.6721
1192	0.7008
1201	0.6343
1210	0.6942
1219	0.7181
1228	0.7153
1237	0.7146
1246	0.7091
1255	0.6992
1264	0.6936
1273	0.6899
1282	0.6887
1291	0.6678
1300	0.6514
1309	0.6528
1318	0.6115
1327	0.6203
1336	0.5981
1345	0.6639
1354	0.7337
1363	0.7545
1372	0.7583
1381	0.7587
1390	0.7531
1399	0.7349
1408	0.7393
1417	0.743
1426	0.7357
1435	0.7155
1444	0.7098
1453	0.6871
1462	0.6472
1471	0.5898
1480	0.4737
1489	0.2511
1498	0.0795
1507	0.7071
1516	0.348
1525	0.7331
1534	0.7805
1543	0.7124
1552	0.5941
1561	0.7481
1570	0.7218
1579	0.7817
1588	0.8452
1597	0.743
1606	0.5782
1615	0.8022
1624	0.878
1633	0.8732
1642	0.8618
1651	0.8547
1660	0.8564
1669	0.8509
1678	0.8413
1687	0.8387
1696	0.8387
1705	0.8359
1714	0.8333
1723	0.831
1732	0.8275
1741	0.8208
1750	0.8137
1759	0.8065
1768	0.7992
1777	0.79
1786	0.7839
1795	0.7815
1804	0.7778
1813	0.7726
1822	0.7676
1831	0.7631
1840	0.7572
1849	0.7501
1858	0.7425
1867	0.7348
1876	0.7275
1885	0.7204
1894	0.7118
1903	0.6971
1912	0.6853
1921	0.6825
1930	0.6824
1939	0.6836
1948	0.6858
1957	0.6885
1966	0.6962
1975	0.6983
1984	0.6967
1993	0.6849
2002	0.7069
2011	0.7132
2020	0.7145
2029	0.715
2038	0.7155
2047	0.7153
2056	0.715
2065	0.7133
2074	0.7104
2083	0.7071
2092	0.7004
2101	0.6931
2110	0.6865
2119	0.6799
2128	0.6744
2137	0.669
2146	0.6628
2155	0.6599
2164	0.6598
2173	0.6561
2182	0.6464
2191	0.6355
2200	0.625
2209	0.6147
2218	0.6044
2227	0.597
2236	0.5954
2245	0.5948
2254	0.5928
2263	0.586
2272	0.5786
2281	0.5716
2290	0.565
2299	0.5582
2308	0.552
2317	0.5459
2326	0.5399
2335	0.5327
2344	0.5256
2353	0.5203
2362	0.5158
2371	0.5112
2380	0.5048
2389	0.4951
2398	0.484
2407	0.4753
2416	0.4671
2425	0.4562
2434	0.4446
2443	0.431
2452	0.4162
2461	0.4014
2470	0.3864
2479	0.3718
2488	0.3584
2497	0.3382
2506	0.3181
2515	0.296
2524	0.2709
2533	0.2451
2542	0.2166
2551	0.2156
2560	0.2346
2569	0.2587
2578	0.2848
2587	0.2947
2596	0.3
2605	0.3032
2614	0.3054
2623	0.3065
2632	0.3023
2641	0.2944
2650	0.2874
2659	0.2802
2668	0.2722
2677	0.2643
2686	0.2564
2695	0.2456
2704	0.2309
2713	0.2214
2722	0.2157
2731	0.2104
2740	0.2056
2749	0.2004
2758	0.1951
2767	0.1873
2776	0.1775
2785	0.1696
2794	0.1621
2803	0.1528
2812	0.1435
2821	0.1374
2830	0.1345
2839	0.1317
2848	0.1308
2857	0.1308
2866	0.1332
2875	0.1363
2884	0.1396
2893	0.1439
2902	0.149
2911	0.1557
2920	0.1663
2929	0.1766
2938	0.1874
2947	0.1982
2956	0.2104
2965	0.2214
2974	0.2317
2983	0.2444
2992	0.2521
3001	0.2591
3010	0.2644
3019	0.2835
3028	0.309
3037	0.3356
3046	0.3562
3055	0.354
3064	0.344
3073	0.4272
3082	0.4752
3091	0.516
3100	0.5305
3109	0.5324
3118	0.5384
3127	0.5522
3136	0.5625
3145	0.576
3154	0.5843
3163	0.594
3172	0.6005
3181	0.6068
3190	0.6114
3199	0.6168
3208	0.6228
3217	0.6274
3226	0.6301
3235	0.6327
3244	0.6344
3253	0.6343
3262	0.6328
3271	0.6293
3280	0.6246
3289	0.6194
3298	0.6138
3307	0.6079
3316	0.602
3325	0.596
3334	0.5902
3343	0.5853
3352	0.5806
3361	0.5762
3370	0.5723
3379	0.5683
3388	0.5647
3397	0.5612
3406	0.5578
3415	0.5543
3424	0.5512
3433	0.5485
3442	0.5457
3451	0.5429
3460	0.5407
3469	0.5386
3478	0.5365
3487	0.5343
3496	0.5319
3505	0.5287
3514	0.5257
3523	0.5226
3532	0.5195
3541	0.5164
3550	0.5134
3559	0.5104
3568	0.5075
3577	0.5045
3586	0.5015
3595	0.4989
3604	0.4966
3613	0.4942
3622	0.4919
3631	0.4896
3640	0.4873
3649	0.4849
3658	0.4826
3667	0.4803
3676	0.478
3685	0.4756
3694	0.4735
3703	0.4715
3712	0.4694
3721	0.4674
3730	0.4647
3739	0.4616
3748	0.4586
3757	0.4558
3766	0.4533
3775	0.4507
3784	0.4483
3793	0.4458
3802	0.4433
3811	0.4408
