Infrared Spectrum: FERROCENIC ACID, PHENYL ESTER
Formula: C17 H14 Fe O2
State: SOLID (MINERAL OIL MULL)
Melting point: 123-124 C
Class: COBLENTZ
Instrument: Not specified, most likely a prism, grating, or hybrid spectrometer.
Sampling: TRANSMISSION
Resolution: 4
Origin: WYANDOTTE CHEMICALS CORP., WYANDOTTE, MICHIGAN, USA
MICROMETERS	TRANSMITTANCE
2.027	0.393
2.06788	0.398
2.10875	0.41
2.14963	0.422
2.1905	0.427
2.23138	0.43
2.27226	0.439
2.31313	0.446
2.35401	0.451
2.39488	0.461
2.43576	0.478
2.47664	0.483
2.51751	0.483
2.55839	0.492
2.59927	0.526
2.64014	0.531
2.68102	0.548
2.72189	0.558
2.76277	0.562
2.80365	0.562
2.84452	0.565
2.8854	0.567
2.92627	0.567
2.96715	0.555
3.00803	0.558
3.0489	0.569
3.08978	0.577
3.13065	0.569
3.17153	0.555
3.21241	0.541
3.25328	0.411
3.29416	0.473
3.33504	0.432
3.37591	0.246
3.41679	0.094
3.45766	0.111
3.49854	0.2
3.53942	0.242
3.58029	0.67
3.62117	0.723
3.66204	0.74
3.70292	0.738
3.7438	0.729
3.78467	0.747
3.82555	0.757
3.86642	0.77
3.9073	0.777
3.94818	0.781
3.98905	0.786
4.02993	0.798
4.0708	0.796
4.11168	0.794
4.15256	0.798
4.19343	0.803
4.23431	0.808
4.27519	0.776
4.31606	0.794
4.35694	0.82
4.39781	0.859
4.43869	0.859
4.47957	0.852
4.52044	0.847
4.56132	0.842
4.60219	0.868
4.64307	0.87
4.68395	0.88
4.72482	0.892
4.7657	0.904
4.80657	0.9
4.84745	0.909
4.88833	0.921
4.9292	0.917
4.97008	0.914
5.01096	0.907
5.05183	0.909
5.09271	0.9
5.13358	0.921
5.17446	0.871
5.21534	0.917
5.25621	0.933
5.29709	0.95
5.33796	0.929
5.37884	0.935
5.41972	0.962
5.46059	0.929
5.50147	0.943
5.54234	0.928
5.58322	0.895
5.6241	0.882
5.66497	0.841
5.70585	0.83
5.74672	0.639
5.7876	0.225
5.82848	0.061
5.86935	0.165
5.91023	0.401
5.95111	0.473
5.99198	0.567
6.03286	0.63
6.07373	0.69
6.11461	0.75
6.15549	0.772
6.19636	0.788
6.23724	0.63
6.27811	0.586
6.31899	0.738
6.35987	0.808
6.40074	0.817
6.44162	0.832
6.48249	0.8
6.52337	0.77
6.56425	0.758
6.60512	0.777
6.646	0.582
6.68688	0.364
6.72775	0.381
6.76863	0.499
6.8095	0.326
6.85038	0.147
6.89126	0.162
6.93213	0.396
6.97301	0.625
7.01388	0.728
7.05476	0.69
7.09564	0.528
7.13651	0.68
7.17739	0.694
7.21826	0.635
7.25914	0.321
7.30002	0.41
7.34089	0.682
7.38177	0.721
7.42264	0.618
7.46352	0.74
7.5044	0.798
7.54527	0.777
7.58615	0.745
7.62703	0.7
7.6679	0.625
7.70878	0.497
7.74965	0.369
7.79053	0.259
7.83141	0.071
7.87228	0.095
7.91316	0.314
7.95403	0.543
7.99491	0.601
8.03579	0.675
8.07666	0.728
8.11754	0.712
8.15841	0.615
8.19929	0.432
8.24017	0.329
8.28104	0.336
8.32192	0.177
8.3628	0.059
8.40367	0.059
8.44455	0.116
8.48542	0.316
8.5263	0.471
8.56718	0.572
8.60805	0.196
8.64893	0.362
8.6898	0.61
8.73068	0.711
8.77156	0.765
8.81243	0.798
8.85331	0.764
8.89418	0.63
8.93506	0.376
8.97594	0.059
9.01681	0.063
9.05769	0.073
9.09856	0.176
9.13944	0.304
9.18032	0.401
9.22119	0.482
9.26207	0.528
9.30295	0.504
9.34382	0.391
9.3847	0.531
9.42557	0.514
9.46645	0.381
9.50733	0.584
9.5482	0.646
9.58908	0.663
9.62995	0.673
9.67083	0.63
9.71171	0.398
9.75258	0.488
9.79346	0.23
9.83433	0.198
9.87521	0.423
9.91609	0.538
9.95696	0.405
9.99784	0.268
10.0387	0.476
10.0796	0.594
10.1205	0.654
10.1613	0.699
10.2022	0.717
10.2431	0.736
10.284	0.748
10.3248	0.745
10.3657	0.753
10.4066	0.757
10.4475	0.764
10.4884	0.77
10.5292	0.779
10.5701	0.781
10.611	0.789
10.6519	0.791
10.6927	0.789
10.7336	0.77
10.7745	0.675
10.8154	0.357
10.8562	0.456
10.8971	0.711
10.938	0.77
10.9789	0.786
11.0197	0.676
11.0606	0.41
11.1015	0.287
11.1424	0.432
11.1832	0.594
11.2241	0.658
11.265	0.709
11.3059	0.776
11.3468	0.808
11.3876	0.82
11.4285	0.811
11.4694	0.767
11.5103	0.769
11.5511	0.811
11.592	0.83
11.6329	0.82
11.6738	0.817
11.7146	0.794
11.7555	0.723
11.7964	0.564
11.8373	0.417
11.8781	0.343
11.919	0.299
11.9599	0.379
12.0008	0.323
12.0416	0.239
12.0825	0.338
12.1234	0.297
12.1643	0.312
12.2051	0.174
12.246	0.194
12.2869	0.364
12.3278	0.434
12.3687	0.511
12.4095	0.581
12.4504	0.661
12.4913	0.721
12.5322	0.7
12.573	0.735
12.6139	0.846
12.6548	0.87
12.6957	0.875
12.7365	0.876
12.7774	0.871
12.8183	0.875
12.8592	0.875
12.9	0.885
12.9409	0.866
12.9818	0.839
13.0227	0.772
13.0635	0.654
13.1044	0.492
13.1453	0.449
13.1862	0.608
13.2271	0.676
13.2679	0.647
13.3088	0.553
13.3497	0.369
13.3906	0.15
13.4314	0.08
13.4723	0.152
13.5132	0.316
13.5541	0.497
13.5949	0.678
13.6358	0.774
13.6767	0.825
13.7176	0.856
13.7584	0.864
13.7993	0.882
13.8402	0.885
13.8811	0.887
13.9219	0.887
13.9628	0.9
14.0037	0.911
14.0446	0.919
14.0854	0.924
14.1263	0.935
14.1672	0.935
14.2081	0.933
14.249	0.935
14.2898	0.919
14.3307	0.911
14.3716	0.888
14.4125	0.81
14.4533	0.683
14.4942	0.487
14.5351	0.34
14.576	0.398
14.6168	0.613
14.6577	0.764
14.6986	0.827
14.7395	0.868
14.7803	0.875
14.8212	0.888
14.8621	0.885
14.903	0.887
14.9438	0.882
14.9847	0.875
15.0256	0.825
15.0665	0.765
15.1074	0.752
15.1482	0.777
15.1891	0.806
15.23	0.818
15.2709	0.823
15.3117	0.806
15.3526	0.793
15.3935	0.788
15.4344	0.776
15.4752	0.769
15.5161	0.764
15.557	0.755
15.5979	0.747
15.6387	0.745
15.6796	0.733
15.7205	0.724
15.7614	0.705
15.8022	0.687
15.8431	0.676
15.884	0.671
15.9249	0.664
15.9657	0.649
