Infrared Spectrum: Aniline, 2-methyl-4-tert-butyl-N-ethyl-
Formula: C13 H21 N
State: LIQUID (NEAT)
Class: COBLENTZ III
Instrument: BECKMAN IR-4 (HYBRID PRISM-GRATING)
Instrument parameters: NaCl PRISM
Sampling: TRANSMISSION
Path length: CAPILLARY
Resolution: 2
Origin: MONSANTO (J. FREEMAN)
1/CM	TRANSMITTANCE
627	0.8912
636	0.8896
645	0.9076
654	0.9334
663	0.9539
672	0.9669
681	0.9726
690	0.9638
699	0.9644
708	0.9664
717	0.9584
726	0.8807
735	0.7368
744	0.9056
753	0.9507
762	0.9739
771	0.9618
780	0.9437
789	0.8653
798	0.4911
807	0.1696
816	0.604
825	0.7555
834	0.8871
843	0.9388
852	0.9598
861	0.9649
870	0.9445
879	0.5597
888	0.663
897	0.9283
906	0.9023
915	0.8711
924	0.879
933	0.903
942	0.9454
951	0.9677
960	0.9756
969	0.9747
978	0.9601
987	0.8144
996	0.699
1005	0.9251
1014	0.9429
1023	0.882
1032	0.8177
1041	0.9089
1050	0.8736
1059	0.7976
1068	0.8616
1077	0.911
1086	0.8742
1095	0.8496
1104	0.7427
1113	0.8458
1122	0.8131
1131	0.8266
1140	0.8404
1149	0.7939
1158	0.4331
1167	0.094
1176	0.3596
1185	0.663
1194	0.6367
1203	0.5515
1212	0.712
1221	0.825
1230	0.8307
1239	0.8117
1248	0.7362
1257	0.5772
1266	0.2855
1275	0.0499
1284	0.2154
1293	0.4562
1302	0.3991
1311	0.4103
1320	0.1518
1329	0.2988
1338	0.6353
1347	0.7019
1356	0.6945
1365	0.3169
1374	0.4572
1383	0.4099
1392	0.5022
1401	0.5646
1410	0.5268
1419	0.6152
1428	0.5964
1437	0.4153
1446	0.3389
1455	0.2838
1464	0.2756
1473	0.3287
1482	0.2498
1491	0.189
1500	0.375
1509	0.2397
1518	0.0182
1527	0.0243
1536	0.2164
1545	0.3689
1554	0.5929
1563	0.7706
1572	0.8019
1581	0.7857
1590	0.5917
1599	0.7002
1608	0.5697
1617	0.2833
1626	0.3978
1635	0.7431
1644	0.8239
1653	0.8741
1662	0.8883
1671	0.9112
1680	0.9299
1689	0.9373
1698	0.9408
1707	0.9422
1716	0.9375
1725	0.9293
1734	0.9336
1743	0.9345
1752	0.9273
1761	0.9113
1770	0.9047
1779	0.9187
1788	0.9397
1797	0.9552
1806	0.9513
1815	0.9464
1824	0.9479
1833	0.9574
1842	0.9467
1851	0.9406
1860	0.9085
1869	0.9074
1878	0.9147
1887	0.9369
1896	0.9474
1905	0.9542
1914	0.9558
1923	0.9571
1932	0.958
1941	0.9581
1950	0.9594
1959	0.9607
1968	0.9617
1977	0.9625
1986	0.9632
1995	0.9637
2004	0.9645
2013	0.9653
2022	0.966
2031	0.9669
2040	0.9678
2049	0.9685
2058	0.9692
2067	0.9693
2076	0.9695
2085	0.9698
2094	0.97
2103	0.9703
2112	0.9705
2121	0.9709
2130	0.972
2139	0.9741
2148	0.9761
2157	0.9752
2166	0.9737
2175	0.9723
2184	0.9711
2193	0.9704
2202	0.97
2211	0.9697
2220	0.9697
2229	0.9703
2238	0.9719
2247	0.9743
2256	0.9761
2265	0.9758
2274	0.974
2283	0.9718
2292	0.9704
2301	0.9708
2310	0.9762
2319	0.9826
2328	0.9879
2337	0.9928
2346	0.9973
2355	1.0016
2364	1.0047
2373	1.005
2382	0.9854
2391	0.9657
2400	0.9465
2409	0.9445
2418	0.9478
2427	0.9519
2436	0.9553
2445	0.9584
2454	0.9609
2463	0.9629
2472	0.9642
2481	0.9653
2490	0.9661
2499	0.9669
2508	0.9677
2517	0.9679
2526	0.9681
2535	0.9671
2544	0.9648
2553	0.9619
2562	0.9562
2571	0.9494
2580	0.9412
2589	0.9328
2598	0.9248
2607	0.9216
2616	0.922
2625	0.9275
2634	0.9368
2643	0.9459
2652	0.9477
2661	0.9466
2670	0.9444
2679	0.9404
2688	0.9357
2697	0.9295
2706	0.9219
2715	0.9109
2724	0.9002
2733	0.8903
2742	0.882
2751	0.8747
2760	0.8702
2769	0.8691
2778	0.8715
2787	0.875
2796	0.8745
2805	0.8498
2814	0.8236
2823	0.7999
2832	0.7729
2841	0.742
2850	0.6743
2859	0.5005
2868	0.3435
2877	0.1883
2886	0.1494
2895	0.1471
2904	0.1456
2913	0.1408
2922	0.1354
2931	0.1349
2940	0.1237
2949	0.0893
2958	0.055
2967	0.0348
2976	0.0864
2985	0.1855
2994	0.284
3003	0.3819
3012	0.4792
3021	0.5639
3030	0.5769
3039	0.5864
3048	0.5951
3057	0.6016
3066	0.6101
3075	0.626
3084	0.6953
3093	0.7443
3102	0.7703
3111	0.7902
3120	0.8503
3129	0.8816
3138	0.8971
3147	0.9088
3156	0.9135
3165	0.9177
3174	0.9205
3183	0.9226
3192	0.9244
3201	0.926
3210	0.9275
3219	0.9286
3228	0.9297
3237	0.9305
3246	0.9333
3255	0.9394
3264	0.9439
3273	0.9463
3282	0.9481
3291	0.9492
3300	0.9495
3309	0.9498
3318	0.9493
3327	0.9487
3336	0.9474
3345	0.9457
3354	0.942
3363	0.9354
3372	0.9266
3381	0.9119
3390	0.8714
3399	0.8265
3408	0.7819
3417	0.7375
3426	0.6957
3435	0.6858
3444	0.7155
3453	0.7638
3462	0.8118
3471	0.8596
3480	0.9006
3489	0.9164
3498	0.9263
3507	0.9341
3516	0.941
3525	0.9463
3534	0.9503
3543	0.9539
3552	0.9565
3561	0.9591
3570	0.964
3579	0.9673
3588	0.9696
3597	0.9715
3606	0.9729
3615	0.9744
3624	0.976
3633	0.9773
3642	0.9784
3651	0.9785
3660	0.9784
3669	0.9784
3678	0.9784
3687	0.9784
3696	0.9787
3705	0.979
3714	0.9793
3723	0.9798
3732	0.9806
3741	0.9813
3750	0.9783
3759	0.9727
3768	0.9664
3777	0.9606
3786	0.9561
3795	0.9529
3804	0.9516
3813	0.9526
3822	0.9541
3831	0.9567
3840	0.9597
3849	0.962
3858	0.9635
3867	0.9636
3876	0.9634
3885	0.9627
3894	0.9612
3903	0.959
3912	0.9568
3921	0.9547
3930	0.9519
3939	0.9493
3948	0.9478
3957	0.9476
3966	0.9477
3975	0.9479
3984	0.9482
3993	0.9486
