Infrared Spectrum: BARIUM CHROMATE
Formula: O4 Ba Cr
State: SOLID (0.5 mg / 300 mg CsI DISC)
Class: COBLENTZ III
Instrument: BECKMAN IR-12 (GRATING)
Sampling: TRANSMISSION
Resolution: 4
Origin: DESOTO CHEMICAL COATINGS, INC.
1/CM	TRANSMITTANCE
201.328	0.775
211.955	0.787
222.583	0.817
233.21	0.851
243.837	0.877
254.465	0.894
265.092	0.905
275.719	0.908
286.347	0.914
296.974	0.914
307.601	0.912
318.229	0.913
328.856	0.91
339.483	0.898
350.11	0.9
360.738	0.896
371.365	0.889
381.992	0.88
392.62	0.769
403.247	0.892
413.874	0.821
424.502	0.8678
435.129	0.916
445.756	0.929
456.384	0.934
467.011	0.936
477.638	0.942
488.266	0.94
498.893	0.944
509.52	0.945
520.148	0.945
530.775	0.945
541.402	0.944
552.03	0.944
562.657	0.937
573.284	0.933
583.912	0.938
594.539	0.94
605.166	0.938
615.794	0.932
626.421	0.936
637.048	0.93
647.675	0.932
658.303	0.929
668.93	0.922
679.557	0.93
690.185	0.93
700.812	0.93
711.439	0.925
722.067	0.922
732.694	0.917
743.321	0.91
753.949	0.904
764.576	0.89
775.203	0.873
785.831	0.856
796.458	0.837
807.085	0.816
817.713	0.775
828.34	0.724
838.967	0.618
849.595	0.4011
860.222	0.142
870.849	0.117
881.477	0.284
892.104	0.158
902.731	0.1828
913.359	0.382
923.986	0.372
934.613	0.259
945.24	0.412
955.868	0.6739
966.495	0.783
977.122	0.848
987.75	0.877
998.377	0.894
1009	0.909
1019.63	0.914
1030.26	0.921
1040.89	0.928
1051.51	0.932
1062.14	0.936
1072.77	0.938
1083.4	0.933
1094.02	0.922
1104.65	0.936
1115.28	0.929
1125.9	0.944
1136.53	0.945
1147.16	0.95
1157.79	0.957
1168.41	0.96
1179.04	0.964
1189.67	0.964
1200.3	0.968
1210.92	0.969
1221.55	0.968
1232.18	0.966
1242.81	0.966
1253.43	0.969
1264.06	0.969
1274.69	0.97
1285.31	0.973
1295.94	0.972
1306.57	0.97
1317.2	0.972
1327.82	0.972
1338.45	0.97
1349.08	0.968
1359.71	0.968
1370.33	0.968
1380.96	0.964
1391.59	0.962
1402.22	0.964
1412.84	0.962
1423.47	0.964
1434.1	0.966
1444.72	0.969
1455.35	0.968
1465.98	0.969
1476.61	0.972
1487.23	0.97
1497.86	0.972
1508.49	0.969
1519.12	0.97
1529.74	0.966
1540.37	0.966
1551	0.962
1561.63	0.96
1572.25	0.957
1582.88	0.95
1593.51	0.945
1604.13	0.942
1614.76	0.934
1625.39	0.934
1636.02	0.937
1646.64	0.94
1657.27	0.942
1667.9	0.945
1678.53	0.949
1689.15	0.949
1699.78	0.945
1710.41	0.937
1721.03	0.941
1731.66	0.941
1742.29	0.946
1752.92	0.945
1763.54	0.946
1774.17	0.945
1784.8	0.944
1795.43	0.948
1806.05	0.949
1816.68	0.95
1827.31	0.95
1837.94	0.953
1848.56	0.952
1859.19	0.954
1869.82	0.953
1880.44	0.95
1891.07	0.95
1901.7	0.952
1912.33	0.953
1922.95	0.952
1933.58	0.952
1944.21	0.953
1954.84	0.95
1965.46	0.952
1976.09	0.952
1986.72	0.95
1997.35	0.949
2007.97	0.95
2018.6	0.949
2029.23	0.948
2039.85	0.948
2050.48	0.948
2061.11	0.948
2071.74	0.946
2082.36	0.945
2092.99	0.946
2103.62	0.9442
2114.25	0.942
2124.87	0.94
2135.5	0.9417
2146.13	0.941
2156.76	0.9403
2167.38	0.937
2178.01	0.938
2188.64	0.9374
2199.26	0.9392
2209.89	0.938
2220.52	0.937
2231.15	0.937
2241.77	0.936
2252.4	0.934
2263.03	0.9335
2273.66	0.9325
2284.28	0.93
2294.91	0.9324
2305.54	0.9312
2316.16	0.9272
2326.79	0.922
2337.42	0.921
2348.05	0.921
2358.67	0.922
2369.3	0.9217
2379.93	0.9226
2390.56	0.924
2401.18	0.921
2411.81	0.921
2422.44	0.92
2433.07	0.92
2443.69	0.918
2454.32	0.918
2464.95	0.917
2475.57	0.917
2486.2	0.917
2496.83	0.9139
2507.46	0.913
2518.08	0.913
2528.71	0.914
2539.34	0.912
2549.97	0.9101
2560.59	0.91
2571.22	0.91
2581.85	0.91
2592.48	0.91
2603.1	0.91
2613.73	0.908
2624.36	0.906
2634.98	0.906
2645.61	0.905
2656.24	0.9042
2666.87	0.904
2677.49	0.902
2688.12	0.901
2698.75	0.901
2709.38	0.9
2720	0.901
2730.63	0.9
2741.26	0.897
2751.89	0.8964
2762.51	0.894
2773.14	0.8925
2783.77	0.892
2794.39	0.892
2805.02	0.891
2815.65	0.89
2826.28	0.8851
2836.9	0.884
2847.53	0.8816
2858.16	0.8792
2868.79	0.8804
2879.41	0.881
2890.04	0.8807
2900.67	0.8767
2911.29	0.8727
2921.92	0.8665
2932.55	0.8655
2943.18	0.868
2953.8	0.868
2964.43	0.8688
2975.06	0.868
2985.69	0.871
2996.31	0.8721
3006.94	0.872
3017.57	0.869
3028.2	0.8681
3038.82	0.868
3049.45	0.868
3060.08	0.867
3070.7	0.865
3081.33	0.863
3091.96	0.861
3102.59	0.8572
3113.21	0.8551
3123.84	0.8529
3134.47	0.8551
3145.1	0.8512
3155.72	0.851
3166.35	0.848
3176.98	0.8472
3187.61	0.845
3198.23	0.8403
3208.86	0.837
3219.49	0.836
3230.11	0.8336
3240.74	0.831
3251.37	0.8297
3262	0.8274
3272.62	0.8258
3283.25	0.8218
3293.88	0.8194
3304.51	0.815
3315.13	0.814
3325.76	0.809
3336.39	0.802
3347.02	0.7995
3357.64	0.797
3368.27	0.7916
3378.9	0.787
3389.52	0.784
3400.15	0.7796
3410.78	0.7767
3421.41	0.7727
3432.03	0.769
3442.66	0.7687
3453.29	0.768
3463.92	0.768
3474.54	0.769
3485.17	0.771
3495.8	0.771
3506.42	0.7712
3517.05	0.773
3527.68	0.775
3538.31	0.7761
3548.93	0.779
3559.56	0.7811
3570.19	0.785
3580.82	0.787
3591.44	0.792
3602.07	0.796
3612.7	0.797
3623.33	0.7999
3633.95	0.801
3644.58	0.803
3655.21	0.804
3665.83	0.803
3676.46	0.8013
3687.09	0.801
3697.72	0.803
3708.34	0.803
3718.97	0.803
3729.6	0.801
3740.23	0.8003
3750.85	0.8
3761.48	0.799
3772.11	0.7977
3782.74	0.7964
3793.36	0.7954
3803.99	0.795
3814.62	0.793
3825.24	0.792
3835.87	0.791
3846.5	0.789
3857.13	0.788
3867.75	0.788
3878.38	0.787
3889.01	0.787
3899.64	0.787
3910.26	0.785
3920.89	0.785
3931.52	0.783
3942.14	0.7823
3952.77	0.781
3963.4	0.78
3974.03	0.779
3984.65	0.779
3995.28	0.777
