Infrared Spectrum: Chloramine-T
Formula: C7 H7 Cl N Na O2 S  * 3 H2 O
State: SOLID (OIL MULL)
Class: COBLENTZ III
Instrument: BAIRD (GRATING)
Instrument parameters: NaCl PRISM
Sampling: TRANSMISSION
Resolution: 2
Origin: WYANDOTTE CHEMICALS CORP..
1/CM	TRANSMITTANCE
627	0.4874
636	0.4844
645	0.4886
654	0.53
663	0.5093
672	0.4836
681	0.4111
690	0.3019
699	0.2537
708	0.4808
717	0.6303
726	0.659
735	0.6927
744	0.7264
753	0.748
762	0.7735
771	0.7802
780	0.7784
789	0.7572
798	0.6639
807	0.3077
816	0.713
825	0.7226
834	0.703
843	0.7043
852	0.7088
861	0.7203
870	0.7365
879	0.7506
888	0.7435
897	0.6999
906	0.5823
915	0.3307
924	0.1406
933	0.3693
942	0.5833
951	0.7109
960	0.7969
969	0.82
978	0.8567
987	0.8819
996	0.8825
1005	0.8759
1014	0.798
1023	0.7829
1032	0.8138
1041	0.7694
1050	0.7501
1059	0.7089
1068	0.62
1077	0.4653
1086	0.1231
1095	0.3075
1104	0.4417
1113	0.4091
1122	0.2921
1131	0.1075
1140	0.1684
1149	0.3901
1158	0.5547
1167	0.6391
1176	0.6716
1185	0.6708
1194	0.6742
1203	0.6574
1212	0.6182
1221	0.554
1230	0.4312
1239	0.2451
1248	0.0972
1257	0.1314
1266	0.344
1275	0.5774
1284	0.6777
1293	0.6965
1302	0.7128
1311	0.7333
1320	0.7597
1329	0.7589
1338	0.7476
1347	0.7293
1356	0.7171
1365	0.6532
1374	0.5215
1383	0.4762
1392	0.6514
1401	0.6589
1410	0.677
1419	0.677
1428	0.6534
1437	0.5711
1446	0.4473
1455	0.3516
1464	0.2501
1473	0.2736
1482	0.5519
1491	0.6513
1500	0.6528
1509	0.7525
1518	0.7612
1527	0.7609
1536	0.7598
1545	0.7559
1554	0.7538
1563	0.7523
1572	0.7432
1581	0.7372
1590	0.7194
1599	0.6941
1608	0.6058
1617	0.6668
1626	0.6833
1635	0.6674
1644	0.6497
1653	0.6198
1662	0.5725
1671	0.5688
1680	0.571
1689	0.6038
1698	0.7503
1707	0.8234
1716	0.869
1725	0.8897
1734	0.9181
1743	0.9254
1752	0.9337
1761	0.9391
1770	0.9397
1779	0.9397
1788	0.9396
1797	0.9391
1806	0.938
1815	0.9343
1824	0.9312
1833	0.9295
1842	0.9296
1851	0.9284
1860	0.926
1869	0.9223
1878	0.9158
1887	0.9101
1896	0.9089
1905	0.9145
1914	0.9168
1923	0.9148
1932	0.9108
1941	0.9059
1950	0.9006
1959	0.8951
1968	0.8908
1977	0.8881
1986	0.8869
1995	0.8819
2004	0.8749
2013	0.8661
2022	0.858
2031	0.8501
2040	0.8427
2049	0.8348
2058	0.8268
2067	0.8187
2076	0.8082
2085	0.7975
2094	0.7865
2103	0.7738
2112	0.7624
2121	0.7584
2130	0.7579
2139	0.7621
2148	0.7651
2157	0.7692
2166	0.7744
2175	0.7811
2184	0.7884
2193	0.7895
2202	0.7895
2211	0.7896
2220	0.7897
2229	0.7898
2238	0.7898
2247	0.7895
2256	0.7885
2265	0.7852
2274	0.7803
2283	0.7741
2292	0.7696
2301	0.7667
2310	0.7648
2319	0.7642
2328	0.7641
2337	0.764
2346	0.764
2355	0.764
2364	0.7637
2373	0.7628
2382	0.7619
2391	0.7609
2400	0.7593
2409	0.7578
2418	0.7559
2427	0.7531
2436	0.7503
2445	0.7469
2454	0.7434
2463	0.7399
2472	0.7365
2481	0.7332
2490	0.7312
2499	0.7291
2508	0.7273
2517	0.7239
2526	0.7176
2535	0.7114
2544	0.7048
2553	0.6983
2562	0.6919
2571	0.6862
2580	0.6805
2589	0.6749
2598	0.6693
2607	0.6634
2616	0.6573
2625	0.6512
2634	0.6452
2643	0.6389
2652	0.6319
2661	0.6249
2670	0.6181
2679	0.6113
2688	0.6046
2697	0.5981
2706	0.5947
2715	0.5916
2724	0.589
2733	0.5807
2742	0.5683
2751	0.5509
2760	0.5325
2769	0.514
2778	0.489
2787	0.4647
2796	0.437
2805	0.3353
2814	0.0962
2823	0.0708
2832	0.0463
2841	0.0403
2850	0.0384
2859	0.036
2868	0.0298
2877	0.0242
2886	0.021
2895	0.0184
2904	0.0171
2913	0.0174
2922	0.0182
2931	0.0206
2940	0.0247
2949	0.0368
2958	0.0724
2967	0.0972
2976	0.123
2985	0.1255
2994	0.1256
3003	0.1247
3012	0.1227
3021	0.1177
3030	0.1112
3039	0.1026
3048	0.0946
3057	0.0872
3066	0.0803
3075	0.0734
3084	0.0679
3093	0.064
3102	0.0613
3111	0.06
3120	0.0588
3129	0.0589
3138	0.0591
3147	0.0593
3156	0.0599
3165	0.0608
3174	0.0617
3183	0.0629
3192	0.0642
3201	0.0654
3210	0.069
3219	0.0758
3228	0.0837
3237	0.0935
3246	0.1063
3255	0.1183
3264	0.1306
3273	0.1453
3282	0.1599
3291	0.1744
3300	0.1889
3309	0.2044
3318	0.2189
3327	0.2227
3336	0.2231
3345	0.2235
3354	0.2229
3363	0.2218
3372	0.2196
3381	0.2162
3390	0.211
3399	0.2055
3408	0.1991
3417	0.1881
3426	0.1739
3435	0.1615
3444	0.1541
3453	0.1526
3462	0.1537
3471	0.1554
3480	0.1636
3489	0.1753
3498	0.1941
3507	0.2294
3516	0.2939
3525	0.3581
3534	0.4219
3543	0.4854
3552	0.5486
3561	0.6115
3570	0.674
3579	0.7363
3588	0.7954
3597	0.808
3606	0.8173
3615	0.8279
3624	0.84
3633	0.8513
3642	0.8554
3651	0.8574
3660	0.858
3669	0.857
3678	0.8559
3687	0.8546
3696	0.8527
3705	0.8503
3714	0.8482
3723	0.8457
3732	0.8416
3741	0.8377
3750	0.8339
3759	0.8304
3768	0.8275
3777	0.8247
3786	0.8217
3795	0.8189
3804	0.816
3813	0.8131
3822	0.8102
3831	0.8073
3840	0.804
3849	0.8005
3858	0.797
3867	0.7939
3876	0.791
3885	0.7882
3894	0.7854
3903	0.7827
3912	0.7799
3921	0.777
3930	0.7741
3939	0.7712
3948	0.7683
3957	0.7654
3966	0.7626
3975	0.7598
3984	0.757
3993	0.7542
