Infrared Spectrum: PYRAN, 2,3-DIHYDRO-
Formula: C5 H8 0
State: SOLUTION (10% IN CCl4 FOR 3800-1300, 10% IN CS2 FOR 1300-650, AND 10% IN CCl4 FOR 650-250 CM^-^1) VERSUS SOLVENT
Class: COBLENTZ III
Instrument: PERKIN-ELMER 521 (GRATING)
Instrument parameters: FILTERS AT 3150, 2500, 2000, 1150, 700, 410; GRATING CHANGES AT 2000, 630 CM^-^1
Sampling: TRANSMISSION
Path length: 0.011, 0.011, AND 0.020 CM (CsBr CELL)
Resolution: 4
Origin: DOW CORNING CORP.
1/CM	TRANSMITTANCE
247.68	0.854
256.64	0.85
265.6	0.859
274.56	0.857
283.52	0.854
292.48	0.868
301.44	0.876
310.4	0.876
319.36	0.878
328.32	0.885
337.281	0.89
346.241	0.888
355.201	0.887
364.161	0.885
373.121	0.881
382.081	0.873
391.041	0.866
400.001	0.862
408.961	0.857
417.921	0.842
426.881	0.748
435.841	0.4252
444.801	0.093
453.761	0.692
462.721	0.7949
471.681	0.802
480.641	0.76
489.601	0.4869
498.561	0.6768
507.521	0.3
516.482	0.776
525.442	0.854
534.402	0.862
543.362	0.873
552.322	0.878
561.282	0.875
570.242	0.883
579.202	0.901
588.162	0.902
597.122	0.902
606.082	0.907
615.042	0.911
624.002	0.911
632.962	0.901
641.922	0.892
650.882	0.883
659.842	0.868
668.802	0.857
677.762	0.855
686.722	0.855
695.683	0.836
704.643	0.8
713.603	0.71
722.563	0.2889
731.523	0.1298
740.483	0.567
749.443	0.434
758.403	0.6038
767.363	0.807
776.323	0.857
785.283	0.88
794.243	0.883
803.203	0.88
812.163	0.862
821.123	0.826
830.083	0.727
839.043	0.2962
848.003	0.796
856.963	0.784
865.923	0.711
874.884	0.508
883.844	0.4271
892.804	0.05
901.764	0.5601
910.724	0.673
919.684	0.659
928.644	0.3709
937.604	0.6088
946.564	0.699
955.524	0.809
964.484	0.822
973.444	0.817
982.404	0.802
991.364	0.777
1000.32	0.746
1009.28	0.651
1018.24	0.503
1027.2	0.5689
1036.16	0.571
1045.12	0.4059
1054.08	0.1454
1063.04	0.1521
1072	0.005
1080.96	0.1301
1089.92	0.3149
1098.88	0.569
1107.84	0.69
1116.8	0.75
1125.76	0.769
1134.73	0.798
1143.69	0.812
1152.65	0.802
1161.61	0.767
1170.57	0.76
1179.53	0.711
1188.49	0.522
1197.45	0.649
1206.41	0.677
1215.37	0.539
1224.33	0.1729
1233.29	0.213
1242.25	0
1251.21	0.2271
1260.17	0.526
1269.13	0.51
1278.09	0.583
1287.05	0.814
1296.01	0.857
1304.97	0.859
1313.93	0.833
1322.89	0.531
1331.85	0.795
1340.81	0.758
1349.77	0.855
1358.73	0.824
1367.69	0.72
1376.65	0.829
1385.61	0.822
1394.57	0.743
1403.53	0.7621
1412.49	0.852
1421.45	0.84
1430.41	0.776
1439.37	0.4872
1448.33	0.4341
1457.29	0.645
1466.25	0.473
1475.21	0.796
1484.17	0.862
1493.13	0.899
1502.09	0.904
1511.05	0.909
1520.01	0.911
1528.97	0.913
1537.93	0.913
1546.89	0.909
1555.85	0.904
1564.81	0.902
1573.77	0.887
1582.73	0.876
1591.69	0.861
1600.65	0.826
1609.61	0.803
1618.57	0.6919
1627.53	0.512
1636.49	0.2929
1645.45	0.015
1654.41	0.027
1663.37	0.513
1672.33	0.723
1681.29	0.819
1690.25	0.835
1699.21	0.864
1708.17	0.873
1717.13	0.855
1726.09	0.802
1735.05	0.755
1744.01	0.833
1752.97	0.878
1761.93	0.878
1770.89	0.8921
1779.85	0.906
1788.81	0.907
1797.77	0.909
1806.73	0.909
1815.69	0.899
1824.65	0.875
1833.61	0.868
1842.57	0.902
1851.53	0.913
1860.49	0.911
1869.45	0.918
1878.41	0.913
1887.37	0.901
1896.33	0.904
1905.29	0.855
1914.25	0.897
1923.21	0.909
1932.17	0.911
1941.13	0.899
1950.09	0.88
1959.05	0.847
1968.01	0.845
1976.97	0.906
1985.93	0.911
1994.89	0.906
2003.85	0.9135
2012.81	0.921
2021.77	0.925
2030.73	0.927
2039.69	0.924
2048.65	0.92
2057.61	0.917
2066.57	0.913
2075.53	0.8905
2084.49	0.895
2093.45	0.916
2102.41	0.913
2111.37	0.896
2120.33	0.894
2129.29	0.8895
2138.25	0.875
2147.21	0.871
2156.17	0.892
2165.13	0.886
2174.09	0.887
2183.05	0.9
2192.01	0.904
2200.97	0.903
2209.93	0.899
2218.89	0.9025
2227.85	0.911
2236.81	0.907
2245.77	0.906
2254.73	0.906
2263.69	0.904
2272.65	0.901
2281.61	0.897
2290.57	0.89
2299.53	0.887
2308.49	0.878
2317.45	0.89
2326.41	0.898
2335.37	0.906
2344.33	0.902
2353.29	0.904
2362.25	0.902
2371.21	0.902
2380.17	0.901
2389.13	0.899
2398.09	0.9015
2407.05	0.897
2416.01	0.894
2424.97	0.901
2433.93	0.902
2442.89	0.895
2451.85	0.894
2460.81	0.892
2469.77	0.882
2478.73	0.885
2487.69	0.8805
2496.65	0.89
2505.61	0.891
2514.57	0.888
2523.53	0.888
2532.49	0.888
2541.45	0.887
2550.41	0.883
2559.37	0.8795
2568.33	0.869
2577.29	0.87
2586.25	0.876
2595.21	0.8805
2604.17	0.88
2613.13	0.8755
2622.09	0.868
2631.05	0.853
2640.01	0.848
2648.97	0.869
2657.93	0.861
2666.89	0.859
2675.85	0.857
2684.81	0.848
2693.77	0.848
2702.73	0.845
2711.69	0.8151
2720.65	0.751
2729.61	0.802
2738.57	0.8449
2747.53	0.842
2756.49	0.7931
2765.45	0.8357
2774.41	0.8355
2783.37	0.817
2792.33	0.804
2801.29	0.807
2810.25	0.7775
2819.21	0.748
2828.17	0.696
2837.13	0.6022
2846.09	0.347
2855.05	0.0971
2864.01	0.191
2872.97	0.1899
2881.93	0.159
2890.89	0.3142
2899.85	0.271
2908.82	0.3
2917.78	0.2637
2926.74	0.1259
2935.7	0.0595
2944.66	0.0859
2953.62	0.065
2962.58	0.1279
2971.54	0.1835
2980.5	0.157
2989.46	0.3002
2998.42	0.5362
3007.38	0.686
3016.34	0.7599
3025.3	0.7865
3034.26	0.786
3043.22	0.7671
3052.18	0.7219
3061.14	0.5126
3070.1	0.3484
3079.06	0.5258
3088.02	0.718
3096.98	0.7919
3105.94	0.845
3114.9	0.853
3123.86	0.861
3132.82	0.8745
3141.78	0.881
3150.74	0.879
3159.7	0.876
3168.66	0.877
3177.62	0.878
3186.58	0.88
3195.54	0.88
3204.5	0.88
3213.46	0.88
3222.42	0.879
3231.38	0.878
3240.34	0.876
3249.3	0.876
3258.26	0.878
3267.22	0.875
3276.18	0.874
3285.14	0.866
3294.1	0.8615
3303.06	0.873
3312.02	0.873
3320.98	0.871
3329.94	0.869
3338.9	0.864
3347.86	0.8615
3356.82	0.859
3365.78	0.859
3374.74	0.855
3383.7	0.855
3392.66	0.855
3401.62	0.854
3410.58	0.854
3419.54	0.852
3428.5	0.848
3437.46	0.845
3446.42	0.843
3455.38	0.842
3464.34	0.842
3473.3	0.843
3482.26	0.843
3491.22	0.843
3500.18	0.845
3509.14	0.847
3518.1	0.85
3527.06	0.852
3536.02	0.854
3544.98	0.857
3553.94	0.857
3562.9	0.8605
3571.86	0.864
3580.82	0.8695
3589.78	0.866
3598.74	0.856
3607.7	0.854
3616.66	0.863
3625.62	0.88
3634.58	0.883
3643.54	0.885
3652.5	0.8965
3661.46	0.887
3670.42	0.901
3679.38	0.881
3688.34	0.89
3697.3	0.885
3706.26	0.889
3715.22	0.888
3724.18	0.891
3733.14	0.897
3742.1	0.898
3751.06	0.894
3760.02	0.891
3768.98	0.887
3777.94	0.883
3786.9	0.881
