Infrared Spectrum: Aniline, N,2-di-tert-butyl-4-methyl-
Formula: C15 H25 N
State: LIQUID (NEAT)
Class: COBLENTZ III
Instrument: BECKMAN IR-4 (HYBRID PRISM-GRATING)
Instrument parameters: NaCl PRISM
Sampling: TRANSMISSION
Path length: CAPILLARY
Resolution: 2
Origin: MONSANTO (J. FREEMAN)
1/CM	TRANSMITTANCE
626	0.7665
634.684	0.7132
643.369	0.6977
652.053	0.7364
660.737	0.779
669.422	0.8041
678.106	0.8259
686.79	0.8133
695.474	0.8373
704.159	0.8528
712.843	0.8533
721.527	0.8567
730.212	0.8412
738.896	0.8006
747.58	0.8075
756.265	0.7979
764.949	0.7918
773.633	0.7866
782.318	0.7748
791.002	0.6877
799.686	0.5805
808.37	0.238
817.055	0.4071
825.739	0.661
834.423	0.8158
843.108	0.8698
851.792	0.8847
860.476	0.8848
869.161	0.8332
877.845	0.6314
886.529	0.8007
895.214	0.8629
903.898	0.7933
912.582	0.8236
921.266	0.8176
929.951	0.8131
938.635	0.8332
947.319	0.7926
956.004	0.7369
964.688	0.7095
973.372	0.8185
982.057	0.8529
990.741	0.8381
999.425	0.8325
1008.11	0.8234
1016.79	0.674
1025.48	0.7339
1034.16	0.7758
1042.85	0.8136
1051.53	0.8336
1060.22	0.8402
1068.9	0.8463
1077.58	0.8161
1086.27	0.7528
1094.95	0.8376
1103.64	0.8603
1112.32	0.8671
1121.01	0.8466
1129.69	0.8209
1138.37	0.8335
1147.06	0.7544
1155.74	0.7404
1164.43	0.7116
1173.11	0.7106
1181.8	0.5593
1190.48	0.3927
1199.16	0.2147
1207.85	0.1745
1216.53	0.1614
1225.22	0.2693
1233.9	0.3675
1242.59	0.262
1251.27	0.2662
1259.95	0.2892
1268.64	0.3035
1277.32	0.3674
1286.01	0.3317
1294.69	0.4027
1303.38	0.3002
1312.06	0.3196
1320.74	0.6432
1329.43	0.7347
1338.11	0.7562
1346.8	0.7526
1355.48	0.5946
1364.17	0.1899
1372.85	0.3902
1381.53	0.534
1390.22	0.2436
1398.9	0.3626
1407.59	0.3653
1416.27	0.4871
1424.96	0.5796
1433.64	0.4882
1442.32	0.3838
1451.01	0.3305
1459.69	0.282
1468.38	0.2961
1477.06	0.2895
1485.75	0.2643
1494.43	0.2802
1503.11	0.135
1511.8	0.128
1520.48	0.1889
1529.17	0.3256
1537.85	0.4608
1546.54	0.5905
1555.22	0.6971
1563.91	0.7264
1572.59	0.724
1581.27	0.6578
1589.96	0.6894
1598.64	0.6639
1607.33	0.4801
1616.01	0.3516
1624.7	0.5185
1633.38	0.6588
1642.06	0.7452
1650.75	0.8026
1659.43	0.8465
1668.12	0.8559
1676.8	0.8643
1685.49	0.8756
1694.17	0.8851
1702.85	0.892
1711.54	0.8962
1720.22	0.8996
1728.91	0.8968
1737.59	0.8906
1746.28	0.8815
1754.96	0.8693
1763.64	0.8716
1772.33	0.8814
1781.01	0.8933
1789.7	0.8957
1798.38	0.8908
1807.07	0.8769
1815.75	0.8743
1824.43	0.8824
1833.12	0.8871
1841.8	0.8859
1850.49	0.8795
1859.17	0.8536
1867.86	0.8483
1876.54	0.8619
1885.22	0.8759
1893.91	0.8862
1902.59	0.8916
1911.28	0.8939
1919.96	0.8954
1928.65	0.8965
1937.33	0.8974
1946.01	0.8983
1954.7	0.8992
1963.38	0.8999
1972.07	0.9006
1980.75	0.9008
1989.44	0.902
1998.12	0.9028
2006.8	0.9036
2015.49	0.9045
2024.17	0.9047
2032.86	0.9048
2041.54	0.9042
2050.23	0.9034
2058.91	0.9027
2067.59	0.9017
2076.28	0.9006
2084.96	0.8995
2093.65	0.8986
2102.33	0.898
2111.02	0.8973
2119.7	0.8967
2128.39	0.896
2137.07	0.8957
2145.75	0.8952
2154.44	0.8948
2163.12	0.8944
2171.81	0.8945
2180.49	0.8948
2189.18	0.8951
2197.86	0.8954
2206.54	0.8962
2215.23	0.897
2223.91	0.8981
2232.6	0.8987
2241.28	0.8986
2249.97	0.8977
2258.65	0.8956
2267.33	0.8934
2276.02	0.8901
2284.7	0.8867
2293.39	0.8859
2302.07	0.8862
2310.76	0.8849
2319.44	0.8834
2328.12	0.8818
2336.81	0.8807
2345.49	0.8797
2354.18	0.8784
2362.86	0.877
2371.55	0.8756
2380.23	0.8752
2388.91	0.8751
2397.6	0.8751
2406.28	0.8764
2414.97	0.8779
2423.65	0.8791
2432.34	0.8799
2441.02	0.8792
2449.7	0.8771
2458.39	0.8746
2467.07	0.8725
2475.76	0.8707
2484.44	0.87
2493.13	0.8693
2501.81	0.8688
2510.49	0.8684
2519.18	0.8679
2527.86	0.8653
2536.55	0.8596
2545.23	0.8505
2553.92	0.8435
2562.6	0.8428
2571.28	0.8446
2579.97	0.8481
2588.65	0.8522
2597.34	0.8557
2606.02	0.8593
2614.71	0.8615
2623.39	0.8631
2632.07	0.864
2640.76	0.8634
2649.44	0.8623
2658.13	0.8605
2666.81	0.8579
2675.5	0.8551
2684.18	0.8524
2692.86	0.8502
2701.55	0.8468
2710.23	0.8313
2718.92	0.8196
2727.6	0.8091
2736.29	0.798
2744.97	0.7981
2753.66	0.8074
2762.34	0.8172
2771.02	0.8193
2779.71	0.8119
2788.39	0.7973
2797.08	0.781
2805.76	0.7515
2814.45	0.7223
2823.13	0.6932
2831.81	0.6649
2840.5	0.6194
2849.18	0.4497
2857.87	0.2891
2866.55	0.2639
2875.24	0.2525
2883.92	0.2318
2892.6	0.213
2901.29	0.196
2909.97	0.1769
2918.66	0.1488
2927.34	0.116
2936.03	0.0996
2944.71	0.0991
2953.39	0.0999
2962.08	0.1306
2970.76	0.1744
2979.45	0.218
2988.13	0.2612
2996.82	0.3043
3005.5	0.347
3014.18	0.3895
3022.87	0.4318
3031.55	0.4739
3040.24	0.5156
3048.92	0.5573
3057.61	0.5987
3066.29	0.6397
3074.97	0.6853
3083.66	0.7012
3092.34	0.7057
3101.03	0.7091
3109.71	0.7153
3118.4	0.7303
3127.08	0.751
3135.76	0.7645
3144.45	0.7843
3153.13	0.7896
3161.82	0.7915
3170.5	0.7928
3179.19	0.793
3187.87	0.792
3196.55	0.7911
3205.24	0.7903
3213.92	0.7906
3222.61	0.7946
3231.29	0.8008
3239.98	0.8057
3248.66	0.8081
3257.34	0.8101
3266.03	0.8103
3274.71	0.8099
3283.4	0.809
3292.08	0.8076
3300.77	0.8057
3309.45	0.802
3318.14	0.7969
3326.82	0.788
3335.5	0.771
3344.19	0.7541
3352.87	0.7373
3361.56	0.7283
3370.24	0.7306
3378.93	0.7403
3387.61	0.7501
3396.29	0.76
3404.98	0.7696
3413.66	0.7793
3422.35	0.7814
3431.03	0.7529
3439.72	0.7107
3448.4	0.6686
3457.08	0.6267
3465.77	0.5851
3474.45	0.5673
3483.14	0.5666
3491.82	0.6005
3500.51	0.6341
3509.19	0.6675
3517.87	0.7008
3526.56	0.7338
3535.24	0.7667
3543.93	0.7961
3552.61	0.809
3561.3	0.8136
3569.98	0.8165
3578.66	0.8181
3587.35	0.8194
3596.03	0.8206
3604.72	0.8216
3613.4	0.8224
3622.09	0.8232
3630.77	0.8241
3639.45	0.8249
3648.14	0.8257
3656.82	0.8263
3665.51	0.8274
3674.19	0.8276
3682.88	0.8282
3691.56	0.8281
3700.24	0.8279
3708.93	0.8278
3717.61	0.8275
3726.3	0.8269
3734.98	0.826
3743.67	0.8253
3752.35	0.8243
3761.03	0.8236
3769.72	0.8227
3778.4	0.822
3787.09	0.8214
3795.77	0.8208
3804.46	0.8204
3813.14	0.8199
3821.82	0.8194
3830.51	0.8189
3839.19	0.8185
3847.88	0.8181
3856.56	0.8175
3865.25	0.8164
3873.93	0.8154
