Infrared Spectrum: AMMONIUM SELENATE
Formula: ( N H4)2 Se O4
State: SOLID (MINERAL OIL MULL)
Class: COBLENTZ
Instrument: Not specified, most likely a prism, grating, or hybrid spectrometer.
Sampling: TRANSMISSION
Resolution: 4
Origin: DOW CHEMICAL COMPANY
MICROMETERS	TRANSMITTANCE
2.02	0.83
2.0592	0.832
2.09839	0.834
2.13759	0.832
2.17678	0.829
2.21598	0.84
2.25517	0.848
2.29437	0.85
2.33356	0.858
2.37276	0.869
2.41195	0.878
2.45115	0.889
2.49034	0.897
2.52954	0.902
2.56873	0.902
2.60793	0.899
2.64712	0.904
2.68632	0.904
2.72552	0.894
2.76471	0.886
2.80391	0.861
2.8431	0.834
2.8823	0.803
2.92149	0.746
2.96069	0.673
2.99988	0.534
3.03908	0.359
3.07827	0.193
3.11747	0.091
3.15666	0.066
3.19586	0.068
3.23505	0.078
3.27425	0.079
3.31344	0.063
3.35264	0.068
3.39184	0.052
3.43103	0.03
3.47023	0.061
3.50942	0.074
3.54862	0.185
3.58781	0.284
3.62701	0.391
3.6662	0.466
3.7054	0.536
3.74459	0.582
3.78379	0.621
3.82298	0.673
3.86218	0.708
3.90137	0.741
3.94057	0.769
3.97977	0.793
4.01896	0.814
4.05816	0.829
4.09735	0.835
4.13655	0.845
4.17574	0.848
4.21494	0.84
4.25413	0.837
4.29333	0.853
4.33252	0.873
4.37172	0.876
4.41091	0.879
4.45011	0.878
4.4893	0.876
4.5285	0.873
4.56769	0.869
4.60689	0.86
4.64609	0.845
4.68528	0.837
4.72448	0.83
4.76367	0.827
4.80287	0.822
4.84206	0.822
4.88126	0.822
4.92045	0.826
4.95965	0.829
4.99884	0.832
5.03804	0.835
5.07723	0.835
5.11643	0.83
5.15562	0.824
5.19482	0.817
5.23401	0.804
5.27321	0.798
5.31241	0.786
5.3516	0.773
5.3908	0.77
5.42999	0.765
5.46919	0.762
5.50838	0.762
5.54758	0.762
5.58677	0.759
5.62597	0.765
5.66516	0.769
5.70436	0.769
5.74355	0.762
5.78275	0.769
5.82194	0.765
5.86114	0.754
5.90033	0.741
5.93953	0.71
5.97873	0.702
6.01792	0.733
6.05712	0.767
6.09631	0.804
6.13551	0.822
6.1747	0.835
6.2139	0.847
6.25309	0.85
6.29229	0.852
6.33148	0.853
6.37068	0.843
6.40987	0.842
6.44907	0.837
6.48826	0.827
6.52746	0.819
6.56666	0.793
6.60585	0.757
6.64505	0.713
6.68424	0.626
6.72344	0.497
6.76263	0.344
6.80183	0.172
6.84102	0.104
6.88022	0.069
6.91941	0.104
6.95861	0.149
6.9978	0.143
7.037	0.133
7.07619	0.156
7.11539	0.177
7.15458	0.338
7.19378	0.45
7.23298	0.479
7.27217	0.58
7.31137	0.676
7.35056	0.741
7.38976	0.765
7.42895	0.783
7.46815	0.811
7.50734	0.826
7.54654	0.832
7.58573	0.83
7.62493	0.821
7.66412	0.834
7.70332	0.843
7.74251	0.858
7.78171	0.866
7.8209	0.86
7.8601	0.843
7.8993	0.839
7.93849	0.839
7.97769	0.839
8.01688	0.835
8.05608	0.832
8.09527	0.826
8.13447	0.819
8.17366	0.803
8.21286	0.793
8.25205	0.78
8.29125	0.764
8.33044	0.767
8.36964	0.764
8.40883	0.762
8.44803	0.752
8.48722	0.736
8.52642	0.718
8.56562	0.699
8.60481	0.689
8.64401	0.671
8.6832	0.66
8.7224	0.648
8.76159	0.632
8.80079	0.606
8.83998	0.596
8.87918	0.578
8.91837	0.543
8.95757	0.478
8.99676	0.408
9.03596	0.336
9.07515	0.297
9.11435	0.292
9.15355	0.308
9.19274	0.308
9.23194	0.328
9.27113	0.373
9.31033	0.421
9.34952	0.473
9.38872	0.531
9.42791	0.577
9.46711	0.601
9.5063	0.622
9.5455	0.643
9.58469	0.66
9.62389	0.674
9.66308	0.678
9.70228	0.679
9.74147	0.689
9.78067	0.694
9.81987	0.699
9.85906	0.697
9.89826	0.697
9.93745	0.702
9.97665	0.704
10.0158	0.708
10.055	0.718
10.0942	0.721
10.1334	0.715
10.1726	0.712
10.2118	0.708
10.251	0.713
10.2902	0.739
10.3294	0.764
10.3686	0.78
10.4078	0.795
10.447	0.803
10.4862	0.809
10.5254	0.813
10.5646	0.813
10.6038	0.808
10.643	0.801
10.6822	0.793
10.7214	0.785
10.7606	0.775
10.7997	0.765
10.8389	0.749
10.8781	0.731
10.9173	0.704
10.9565	0.673
10.9957	0.624
11.0349	0.551
11.0741	0.476
11.1133	0.382
11.1525	0.278
11.1917	0.201
11.2309	0.141
11.2701	0.102
11.3093	0.071
11.3485	0.053
11.3877	0.04
11.4269	0.03
11.4661	0.026
11.5053	0.024
11.5445	0.024
11.5837	0.027
11.6228	0.029
11.662	0.032
11.7012	0.042
11.7404	0.052
11.7796	0.081
11.8188	0.151
11.858	0.237
11.8972	0.317
11.9364	0.323
11.9756	0.273
12.0148	0.3
12.054	0.372
12.0932	0.414
12.1324	0.43
12.1716	0.437
12.2108	0.443
12.25	0.453
12.2892	0.46
12.3284	0.458
12.3676	0.448
12.4068	0.442
12.446	0.453
12.4851	0.486
12.5243	0.53
12.5635	0.567
12.6027	0.585
12.6419	0.601
12.6811	0.619
12.7203	0.635
12.7595	0.65
12.7987	0.66
12.8379	0.666
12.8771	0.669
12.9163	0.671
12.9555	0.673
12.9947	0.676
13.0339	0.682
13.0731	0.691
13.1123	0.699
13.1515	0.704
13.1907	0.71
13.2299	0.713
13.2691	0.717
13.3082	0.72
13.3474	0.723
13.3866	0.726
13.4258	0.725
13.465	0.723
13.5042	0.723
13.5434	0.72
13.5826	0.715
13.6218	0.712
13.661	0.708
13.7002	0.704
13.7394	0.699
13.7786	0.694
13.8178	0.691
13.857	0.689
13.8962	0.692
13.9354	0.7
13.9746	0.702
14.0138	0.702
14.053	0.702
14.0922	0.7
14.1313	0.697
14.1705	0.692
14.2097	0.687
14.2489	0.681
14.2881	0.674
14.3273	0.669
14.3665	0.661
14.4057	0.65
14.4449	0.64
14.4841	0.627
14.5233	0.616
14.5625	0.603
14.6017	0.593
14.6409	0.582
14.6801	0.573
14.7193	0.564
14.7585	0.554
14.7977	0.547
14.8369	0.539
14.8761	0.531
14.9153	0.518
14.9544	0.51
14.9936	0.508
15.0328	0.502
15.072	0.492
15.1112	0.482
15.1504	0.474
15.1896	0.469
15.2288	0.463
15.268	0.458
15.3072	0.452
15.3464	0.447
15.3856	0.44
15.4248	0.43
15.464	0.426
15.5032	0.417
15.5424	0.408
15.5816	0.398
15.6208	0.388
15.66	0.372
15.6992	0.359
15.7384	0.347
15.7776	0.336
15.8167	0.325
15.8559	0.315
15.8951	0.325
