Infrared Spectrum: Tyrosine, 3,5-diiodo-, ethyl ester hydrochloride
Formula: C11 H14 Cl I2 N O3
State: SOLID (SPLIT MULL), FLUOROLUBE FOR 3800-1330 CM^-^1, NUJOL FOR 1330-400 CM^-^1
Melting point: 208-209 C (DECOMPOSES)
Class: COBLENTZ III
Instrument: DOW KBr FOREPRISM-GRATING
Instrument parameters: BLAZED AT 3.5, 12.0, 20.0 MICRON AND CHANGED AT 5.0, 7.5, 14.9 MICRON
Sampling: TRANSMISSION
Resolution: 2
Origin: DOW CHEMICAL COMPANY
1/CM	TRANSMITTANCE
3800	0.6353
3791	0.636
3782	0.6369
3773	0.6379
3764	0.6392
3755	0.6403
3746	0.6414
3737	0.6425
3728	0.6444
3719	0.6461
3710	0.6476
3701	0.6483
3692	0.6492
3683	0.6504
3674	0.6521
3665	0.6541
3656	0.6561
3647	0.658
3638	0.6598
3629	0.6611
3620	0.6625
3611	0.6643
3602	0.6662
3593	0.6682
3584	0.6708
3575	0.6734
3566	0.676
3557	0.6786
3548	0.6818
3539	0.6849
3530	0.6878
3521	0.6903
3512	0.6921
3503	0.6908
3494	0.6857
3485	0.6721
3476	0.6468
3467	0.5421
3458	0.5002
3449	0.5021
3440	0.5362
3431	0.5852
3422	0.6183
3413	0.6401
3404	0.6584
3395	0.6721
3386	0.6821
3377	0.691
3368	0.6961
3359	0.6967
3350	0.6983
3341	0.7034
3332	0.7083
3323	0.7124
3314	0.7158
3305	0.7191
3296	0.7224
3287	0.724
3278	0.7255
3269	0.726
3260	0.7262
3251	0.7253
3242	0.7235
3233	0.7205
3224	0.7156
3215	0.7089
3206	0.6949
3197	0.6806
3188	0.664
3179	0.6521
3170	0.6441
3161	0.6414
3152	0.6393
3143	0.6367
3134	0.6321
3125	0.6171
3116	0.602
3107	0.5854
3098	0.5716
3089	0.5604
3080	0.5542
3071	0.5498
3062	0.5477
3053	0.5462
3044	0.5467
3035	0.5452
3026	0.5374
3017	0.5247
3008	0.5136
2999	0.5008
2990	0.4892
2981	0.4806
2972	0.4614
2963	0.4647
2954	0.4839
2945	0.4828
2936	0.4449
2927	0.4348
2918	0.425
2909	0.4055
2900	0.3755
2891	0.3684
2882	0.3528
2873	0.3159
2864	0.3048
2855	0.2864
2846	0.2675
2837	0.2522
2828	0.2401
2819	0.2369
2810	0.2352
2801	0.2468
2792	0.2734
2783	0.2947
2774	0.32
2765	0.3489
2756	0.3739
2747	0.3937
2738	0.4088
2729	0.4183
2720	0.4245
2711	0.4278
2702	0.4359
2693	0.4586
2684	0.4825
2675	0.5024
2666	0.521
2657	0.5216
2648	0.5208
2639	0.5203
2630	0.4965
2621	0.4889
2612	0.5046
2603	0.5319
2594	0.5496
2585	0.555
2576	0.5593
2567	0.5683
2558	0.576
2549	0.5919
2540	0.6121
2531	0.6268
2522	0.6382
2513	0.6461
2504	0.6533
2495	0.6589
2486	0.6588
2477	0.653
2468	0.654
2459	0.6665
2450	0.6808
2441	0.6905
2432	0.6962
2423	0.7007
2414	0.7051
2405	0.7104
2396	0.7153
2387	0.7199
2378	0.7242
2369	0.7251
2360	0.7272
2351	0.7306
2342	0.7346
2333	0.7408
2324	0.7417
2315	0.7398
2306	0.7383
2297	0.7378
2288	0.7376
2279	0.7405
2270	0.7442
2261	0.7482
2252	0.7522
2243	0.7562
2234	0.7604
2225	0.7644
2216	0.7689
2207	0.7731
2198	0.776
2189	0.7789
2180	0.7811
2171	0.7835
2162	0.7858
2153	0.7885
2144	0.79
2135	0.7907
2126	0.7907
2117	0.79
2108	0.7921
2099	0.7956
2090	0.7987
2081	0.8001
2072	0.8012
2063	0.8018
2054	0.803
2045	0.801
2036	0.796
2027	0.7906
2018	0.7836
2009	0.7814
2000	0.7915
1991	0.7868
1982	0.8008
1973	0.8125
1964	0.8194
1955	0.8328
1946	0.8315
1937	0.8355
1928	0.8459
1919	0.8516
1910	0.8547
1901	0.857
1892	0.8582
1883	0.8581
1874	0.8578
1865	0.8583
1856	0.8587
1847	0.86
1838	0.8623
1829	0.863
1820	0.8636
1811	0.8643
1802	0.8641
1793	0.8608
1784	0.8561
1775	0.8585
1766	0.8528
1757	0.8514
1748	0.7641
1739	0.3966
1730	0.1084
1721	0.486
1712	0.6832
1703	0.7438
1694	0.7542
1685	0.8025
1676	0.8287
1667	0.8301
1658	0.8428
1649	0.8588
1640	0.869
1631	0.8723
1622	0.8697
1613	0.8328
1604	0.7582
1595	0.76
1586	0.7618
1577	0.7439
1568	0.7285
1559	0.7671
1550	0.7983
1541	0.7145
1532	0.7894
1523	0.7972
1514	0.7715
1505	0.5799
1496	0.335
1487	0.5278
1478	0.7028
1469	0.6562
1460	0.2681
1451	0.5171
1442	0.528
1433	0.7255
1424	0.7658
1415	0.7628
1406	0.7331
1397	0.6525
1388	0.7297
1379	0.7214
1370	0.7754
1361	0.7547
1352	0.5578
1343	0.6354
1334	0.7021
1325	0.6999
1316	0.4516
1307	0.5112
1298	0.5805
1289	0.5186
1280	0.4918
1271	0.383
1262	0.4868
1253	0.363
1244	0.115
1235	0.1998
1226	0.4089
1217	0.3396
1208	0.5282
1199	0.5553
1190	0.5481
1181	0.6705
1172	0.6775
1163	0.6129
1154	0.431
1145	0.3941
1136	0.5462
1127	0.6512
1118	0.6958
1109	0.6834
1100	0.6518
1091	0.648
1082	0.7141
1073	0.7146
1064	0.3756
1055	0.5714
1046	0.6461
1037	0.7439
1028	0.7608
1019	0.7378
1010	0.5434
1001	0.7254
992	0.7767
983	0.7733
974	0.7718
965	0.7858
956	0.7939
947	0.8007
938	0.8061
929	0.8117
920	0.7756
911	0.7841
902	0.7668
893	0.7571
884	0.7155
875	0.7321
866	0.7838
857	0.6349
848	0.7846
839	0.8194
830	0.8321
821	0.8383
812	0.778
803	0.8196
794	0.8398
785	0.8459
776	0.8465
767	0.8438
758	0.7608
749	0.778
740	0.8221
731	0.8237
722	0.7942
713	0.551
704	0.5933
695	0.8747
686	0.8917
677	0.8978
668	0.8949
659	0.8955
650	0.8928
641	0.837
632	0.8451
623	0.865
614	0.8714
605	0.8738
596	0.8725
587	0.869
578	0.8653
569	0.8615
560	0.8575
551	0.8514
542	0.8277
533	0.8051
524	0.8106
515	0.8039
506	0.8421
497	0.8321
488	0.7861
479	0.7971
470	0.8128
461	0.8068
452	0.7911
443	0.7632
434	0.7504
425	0.748
416	0.7424
407	0.7364
398	0.7275
389	0.7228
