Infrared Spectrum: 5Alpha-Cycloandrostan-17-one, 6Beta-p-nitrobenzamido-3Alpha-,
Formula: C26 H32 N2 O4
State: SOLUTION 7% (CHCl3 FOR 2.5-12.5 microns)
Melting point: 247-249 C DECOMP.
Class: COBLENTZ
Instrument: PERKIN-ELMER 21 (GRATING)
Instrument parameters: FILTER AT ABOUT 10 MICRONS
Path length: 0.01 CM
Resolution: 2
Origin: ABBOTT LABORATORIES
1/CM	TRANSMITTANCE
664	0.7925
673	0.7928
682	0.7912
691	0.7751
700	0.7475
709	0.6896
718	0.7851
727	0.7966
736	0.79
745	0.7894
754	0.7935
763	0.7985
772	0.7859
781	0.7759
790	0.7673
799	0.7589
808	0.7623
817	0.7387
826	0.5733
835	0.7424
844	0.7839
853	0.5289
862	0.5759
871	0.7662
880	0.7987
889	0.8492
898	0.8493
907	0.8152
916	0.8104
925	0.8011
934	0.8304
943	0.8041
952	0.7823
961	0.769
970	0.8101
979	0.7868
988	0.8087
997	0.7946
1006	0.6338
1015	0.7137
1024	0.7063
1033	0.7409
1042	0.7332
1051	0.6532
1060	0.7448
1069	0.7817
1078	0.7669
1087	0.7486
1096	0.7159
1105	0.653
1114	0.7626
1123	0.7732
1132	0.7545
1141	0.7594
1150	0.7313
1159	0.7382
1168	0.643
1177	0.7622
1186	0.7187
1195	0.6029
1204	0.5652
1213	0.5463
1222	0.5404
1231	0.5465
1240	0.5487
1249	0.5311
1258	0.553
1267	0.5834
1276	0.6648
1285	0.6549
1294	0.6584
1303	0.6459
1312	0.5373
1321	0.5154
1330	0.4069
1339	0.1375
1348	0.2404
1357	0.5235
1366	0.5584
1375	0.661
1384	0.7362
1393	0.7094
1402	0.7318
1411	0.765
1420	0.7465
1429	0.6118
1438	0.5803
1447	0.4791
1456	0.4329
1465	0.346
1474	0.1876
1483	0.5317
1492	0.398
1501	0.1693
1510	0.1686
1519	0.1105
1528	0.2986
1537	0.6856
1546	0.7026
1555	0.7538
1564	0.7621
1573	0.7606
1582	0.7338
1591	0.5657
1600	0.3748
1609	0.62
1618	0.7483
1627	0.7367
1636	0.5706
1645	0.3957
1654	0.2226
1663	0.1895
1672	0.435
1681	0.6406
1690	0.7224
1699	0.7307
1708	0.6397
1717	0.3916
1726	0.1742
1735	0.3675
1744	0.6969
1753	0.8101
1762	0.8439
1771	0.8591
1780	0.8651
1789	0.8689
1798	0.8793
1807	0.8904
1816	0.8922
1825	0.8928
1834	0.8943
1843	0.8967
1852	0.8998
1861	0.9007
1870	0.8999
1879	0.8988
1888	0.8975
1897	0.8963
1906	0.8956
1915	0.8953
1924	0.896
1933	0.8979
1942	0.9008
1951	0.904
1960	0.9072
1969	0.9082
1978	0.9083
1987	0.9081
1996	0.9077
2005	0.9074
2014	0.9072
2023	0.9069
2032	0.9073
2041	0.9084
2050	0.9095
2059	0.9106
2068	0.9117
2077	0.9126
2086	0.9137
2095	0.9146
2104	0.9154
2113	0.9162
2122	0.9165
2131	0.9165
2140	0.9165
2149	0.9165
2158	0.9155
2167	0.9145
2176	0.9133
2185	0.9122
2194	0.9114
2203	0.9107
2212	0.91
2221	0.9093
2230	0.9091
2239	0.9089
2248	0.9087
2257	0.9087
2266	0.9091
2275	0.9096
2284	0.91
2293	0.9087
2302	0.9066
2311	0.9028
2320	0.8989
2329	0.895
2338	0.891
2347	0.8871
2356	0.8838
2365	0.8807
2374	0.8776
2383	0.8754
2392	0.8749
2401	0.8745
2410	0.8745
2419	0.876
2428	0.8789
2437	0.8833
2446	0.8888
2455	0.8942
2464	0.8992
2473	0.9031
2482	0.9041
2491	0.9034
2500	0.9028
2509	0.9041
2518	0.9051
2527	0.9057
2536	0.9057
2545	0.9049
2554	0.9042
2563	0.9034
2572	0.9028
2581	0.902
2590	0.9023
2599	0.9031
2608	0.9042
2617	0.9038
2626	0.9021
2635	0.8999
2644	0.8975
2653	0.8948
2662	0.8922
2671	0.8905
2680	0.8898
2689	0.8894
2698	0.8892
2707	0.8877
2716	0.8852
2725	0.8817
2734	0.8761
2743	0.8677
2752	0.8594
2761	0.8519
2770	0.8446
2779	0.8356
2788	0.8253
2797	0.8139
2806	0.7461
2815	0.6749
2824	0.6043
2833	0.5449
2842	0.5371
2851	0.5317
2860	0.5268
2869	0.5091
2878	0.4768
2887	0.4447
2896	0.4127
2905	0.3964
2914	0.394
2923	0.4245
2932	0.4752
2941	0.5256
2950	0.5757
2959	0.6
2968	0.6046
2977	0.6682
2986	0.7072
2995	0.7366
3004	0.755
3013	0.7687
3022	0.7825
3031	0.7961
3040	0.8041
3049	0.8118
3058	0.8261
3067	0.8422
3076	0.8573
3085	0.8697
3094	0.8757
3103	0.8804
3112	0.8837
3121	0.8869
3130	0.8901
3139	0.8926
3148	0.8933
3157	0.8931
3166	0.8929
3175	0.8926
3184	0.8922
3193	0.8918
3202	0.8914
3211	0.8911
3220	0.8907
3229	0.8903
3238	0.8898
3247	0.8893
3256	0.8889
3265	0.8884
3274	0.8878
3283	0.8872
3292	0.8864
3301	0.8846
3310	0.8828
3319	0.8801
3328	0.8761
3337	0.8718
3346	0.866
3355	0.8594
3364	0.8509
3373	0.8404
3382	0.8223
3391	0.7962
3400	0.7702
3409	0.7555
3418	0.7688
3427	0.7947
3436	0.8206
3445	0.8462
3454	0.871
3463	0.8863
3472	0.8958
3481	0.8989
3490	0.901
3499	0.9027
3508	0.9041
3517	0.9049
3526	0.905
3535	0.9053
3544	0.9055
3553	0.9055
3562	0.9055
3571	0.9054
3580	0.9052
3589	0.905
3598	0.9048
3607	0.9052
3616	0.9062
3625	0.9072
3634	0.9087
3643	0.9101
3652	0.9117
3661	0.9133
3670	0.9142
3679	0.9146
3688	0.915
3697	0.915
3706	0.9152
3715	0.9153
3724	0.9153
3733	0.9152
3742	0.9152
3751	0.9151
3760	0.9149
3769	0.9144
3778	0.9139
3787	0.9134
3796	0.9128
3805	0.9124
3814	0.9121
3823	0.9118
3832	0.9115
3841	0.9112
3850	0.911
3859	0.9107
3868	0.9105
3877	0.9102
3886	0.9101
3895	0.91
3904	0.91
3913	0.9099
3922	0.9099
3931	0.9098
3940	0.9098
3949	0.9098
3958	0.9097
3967	0.9097
3976	0.9096
3985	0.9096
3994	0.9095
