Infrared Spectrum: P-PHENYLAZO CARBANILIC ACID, 7,8-DIHYDROLINALOOL ESTER
Formula: C23 H29 N3 O2
State: SOLID (1.5 mg / 100 mg KBr)
Melting point: 128-130 C
Class: COBLENTZ
Instrument: Not specified, most likely a grating spectrometer.
Sampling: TRANSMISSION
Resolution: 4
Origin: CITRUS EXPERIMENT STATION, UNIVERSITY OF FLORIDA (G. EDWARDS)
MICROMETERS	TRANSMITTANCE
2.033	0.664
2.06619	0.671
2.09938	0.678
2.13258	0.682
2.16577	0.684
2.19896	0.686
2.23215	0.691
2.26535	0.694
2.29854	0.696
2.33173	0.702
2.36492	0.703
2.39812	0.706
2.43131	0.714
2.4645	0.718
2.49769	0.72
2.53089	0.722
2.56408	0.724
2.59727	0.731
2.63046	0.735
2.66365	0.736
2.69685	0.736
2.73004	0.738
2.76323	0.74
2.79642	0.743
2.82962	0.744
2.86281	0.748
2.896	0.744
2.92919	0.738
2.96239	0.675
2.99558	0.523
3.02877	0.57
3.06196	0.719
3.09516	0.738
3.12835	0.75
3.16154	0.75
3.19473	0.748
3.22793	0.739
3.26112	0.726
3.29431	0.744
3.3275	0.658
3.36069	0.589
3.39389	0.585
3.42708	0.682
3.46027	0.682
3.49346	0.757
3.52666	0.792
3.55985	0.795
3.59304	0.799
3.62623	0.801
3.65943	0.823
3.69262	0.825
3.72581	0.825
3.759	0.824
3.7922	0.824
3.82539	0.825
3.85858	0.829
3.89177	0.835
3.92496	0.839
3.95816	0.841
3.99135	0.843
4.02454	0.844
4.05773	0.845
4.09093	0.849
4.12412	0.853
4.15731	0.857
4.1905	0.856
4.2237	0.849
4.25689	0.853
4.29008	0.86
4.32327	0.86
4.35647	0.861
4.38966	0.864
4.42285	0.865
4.45604	0.867
4.48924	0.867
4.52243	0.869
4.55562	0.871
4.58881	0.872
4.622	0.875
4.6552	0.877
4.68839	0.88
4.72158	0.884
4.75477	0.884
4.78797	0.885
4.82116	0.885
4.85435	0.886
4.88754	0.886
4.92074	0.884
4.95393	0.885
4.98712	0.888
5.02031	0.888
5.05351	0.886
5.0867	0.888
5.11989	0.89
5.15308	0.89
5.18627	0.889
5.21947	0.888
5.25266	0.888
5.28585	0.9
5.31904	0.902
5.35224	0.904
5.38543	0.9
5.41862	0.897
5.45181	0.894
5.48501	0.893
5.5182	0.89
5.55139	0.889
5.58458	0.888
5.61778	0.881
5.65097	0.873
5.68416	0.856
5.71735	0.808
5.75055	0.759
5.78374	0.679
5.81693	0.602
5.85012	0.409
5.88331	0.452
5.91651	0.761
5.9497	0.815
5.98289	0.835
6.01608	0.868
6.04928	0.869
6.08247	0.861
6.11566	0.853
6.14885	0.804
6.18205	0.7
6.21524	0.457
6.24843	0.559
6.28162	0.763
6.31482	0.823
6.34801	0.793
6.3812	0.655
6.41439	0.515
6.44758	0.335
6.48078	0.352
6.51397	0.539
6.54716	0.687
6.58035	0.696
6.61355	0.698
6.64674	0.75
6.67993	0.788
6.71312	0.805
6.74632	0.76
6.77951	0.71
6.8127	0.663
6.84589	0.731
6.87909	0.723
6.91228	0.66
6.94547	0.748
6.97866	0.805
7.01186	0.785
7.04505	0.692
7.07824	0.614
7.11143	0.788
7.14462	0.809
7.17782	0.771
7.21101	0.736
7.2442	0.743
7.27739	0.809
7.31059	0.832
7.34378	0.837
7.37697	0.821
7.41016	0.803
7.44336	0.759
7.47655	0.706
7.50974	0.676
7.54293	0.659
7.57613	0.672
7.60932	0.634
7.64251	0.593
7.6757	0.703
7.70889	0.799
7.74209	0.811
7.77528	0.789
7.80847	0.727
7.84166	0.688
7.87486	0.642
7.90805	0.631
7.94124	0.675
7.97443	0.63
8.00763	0.501
8.04082	0.337
8.07401	0.341
8.1072	0.363
8.1404	0.429
8.17359	0.55
8.20678	0.642
8.23997	0.69
8.27316	0.702
8.30636	0.711
8.33955	0.748
8.37274	0.764
8.40593	0.746
8.43913	0.72
8.47232	0.668
8.50551	0.628
8.5387	0.664
8.5719	0.674
8.60509	0.647
8.63828	0.55
8.67147	0.585
8.70467	0.635
8.73786	0.595
8.77105	0.694
8.80424	0.738
8.83744	0.722
8.87063	0.671
8.90382	0.692
8.93701	0.743
8.9702	0.743
9.0034	0.757
9.03659	0.8
9.06978	0.812
9.10297	0.824
9.13617	0.836
9.16936	0.845
9.20255	0.855
9.23574	0.849
9.26894	0.832
9.30213	0.785
9.33532	0.714
9.36851	0.696
9.40171	0.71
9.4349	0.695
9.46809	0.658
9.50128	0.628
9.53447	0.622
9.56767	0.659
9.60086	0.739
9.63405	0.789
9.66724	0.809
9.70044	0.825
9.73363	0.819
9.76682	0.799
9.80001	0.78
9.83321	0.801
9.8664	0.809
9.89959	0.824
9.93278	0.833
9.96598	0.829
9.99917	0.828
10.0324	0.84
10.0656	0.863
10.0987	0.868
10.1319	0.875
10.1651	0.885
10.1983	0.885
10.2315	0.884
10.2647	0.885
10.2979	0.888
10.3311	0.904
10.3643	0.908
10.3975	0.912
10.4307	0.914
10.4639	0.916
10.4971	0.917
10.5302	0.92
10.5634	0.92
10.5966	0.92
10.6298	0.922
10.663	0.924
10.6962	0.924
10.7294	0.904
10.7626	0.878
10.7958	0.864
10.829	0.867
10.8622	0.876
10.8954	0.897
10.9286	0.913
10.9617	0.916
10.9949	0.912
11.0281	0.904
11.0613	0.892
11.0945	0.886
11.1277	0.888
11.1609	0.893
11.1941	0.897
11.2273	0.902
11.2605	0.909
11.2937	0.916
11.3269	0.921
11.3601	0.924
11.3932	0.922
11.4264	0.92
11.4596	0.918
11.4928	0.91
11.526	0.897
11.5592	0.872
11.5924	0.829
11.6256	0.788
11.6588	0.742
11.692	0.662
11.7252	0.61
11.7584	0.623
11.7916	0.694
11.8247	0.746
11.8579	0.791
11.8911	0.821
11.9243	0.827
11.9575	0.833
11.9907	0.837
12.0239	0.847
12.0571	0.859
12.0903	0.869
12.1235	0.873
12.1567	0.885
12.1899	0.896
12.2231	0.898
12.2562	0.9
12.2894	0.901
12.3226	0.901
12.3558	0.901
12.389	0.9
12.4222	0.898
12.4554	0.897
12.4886	0.892
12.5218	0.888
12.555	0.885
12.5882	0.882
12.6214	0.88
12.6546	0.869
12.6877	0.865
12.7209	0.863
12.7541	0.86
12.7873	0.856
12.8205	0.851
12.8537	0.839
12.8869	0.805
12.9201	0.75
12.9533	0.719
12.9865	0.682
13.0197	0.692
13.0529	0.738
13.0861	0.788
13.1193	0.812
13.1524	0.828
13.1856	0.839
13.2188	0.847
13.252	0.856
13.2852	0.861
13.3184	0.864
13.3516	0.864
13.3848	0.861
13.418	0.859
13.4512	0.856
13.4844	0.853
13.5176	0.851
13.5508	0.847
13.5839	0.847
13.6171	0.848
13.6503	0.847
13.6835	0.844
13.7167	0.841
13.7499	0.835
13.7831	0.819
13.8163	0.796
13.8495	0.771
13.8827	0.781
13.9159	0.787
13.9491	0.788
13.9823	0.787
14.0154	0.785
14.0486	0.784
14.0818	0.787
14.115	0.784
14.1482	0.781
14.1814	0.781
14.2146	0.783
14.2478	0.785
14.281	0.781
14.3142	0.777
14.3474	0.773
14.3806	0.756
14.4138	0.731
14.4469	0.691
14.4801	0.648
14.5133	0.619
14.5465	0.628
14.5797	0.68
14.6129	0.724
14.6461	0.755
14.6793	0.781
14.7125	0.799
14.7457	0.807
14.7789	0.811
14.8121	0.809
14.8453	0.8
14.8784	0.768
14.9116	0.777
14.9448	0.829
14.978	0.873
