Infrared Spectrum: STEARIC ACID, TRIETHYLCITRATE ESTER
Formula: C30 H54 O8
State: LIQUID (NEAT) VS ONE NaCl WINDOW IN REFERENCE BEAM
Class: COBLENTZ III
Instrument: PERKIN-ELMER 21 (GRATING)
Instrument parameters: FILTER CHANGE AT ABOUT 1070 CM^-^1
Sampling: TRANSMISSION
Path length: CAPILLARY
Resolution: 2
Origin: SOUTHERN RESEARCH INSTITUTE
1/CM	TRANSMITTANCE
627.711	0.839
636.087	0.854
644.463	0.8619
652.839	0.864
661.215	0.8842
669.591	0.899
677.967	0.8923
686.343	0.8763
694.719	0.8738
703.096	0.841
711.472	0.7769
719.848	0.7649
728.224	0.777
736.6	0.7384
744.976	0.5905
753.352	0.5014
761.728	0.6809
770.104	0.8035
778.48	0.8154
786.856	0.8261
795.232	0.8331
803.608	0.843
811.984	0.8559
820.36	0.8562
828.736	0.849
837.113	0.8362
845.489	0.8102
853.865	0.8087
862.241	0.8366
870.617	0.8666
878.993	0.877
887.369	0.881
895.745	0.874
904.121	0.8696
912.497	0.852
920.873	0.8397
929.249	0.837
937.625	0.831
946.001	0.8322
954.377	0.8494
962.753	0.8601
971.13	0.858
979.506	0.848
987.882	0.8186
996.258	0.7617
1004.63	0.6369
1013.01	0.5064
1021.39	0.33
1029.76	0.3708
1038.14	0.4762
1046.51	0.5142
1054.89	0.52
1063.27	0.5215
1071.64	0.528
1080.02	0.5173
1088.39	0.4357
1096.77	0.407
1105.15	0.3977
1113.52	0.4311
1121.9	0.4236
1130.27	0.3892
1138.65	0.3498
1147.03	0.3117
1155.4	0.2651
1163.78	0.2205
1172.15	0.175
1180.53	0.138
1188.91	0.1519
1197.28	0.186
1205.66	0.2281
1214.04	0.2755
1222.41	0.3316
1230.79	0.3789
1239.16	0.4315
1247.54	0.4326
1255.92	0.416
1264.29	0.399
1272.67	0.3741
1281.04	0.36
1289.42	0.3646
1297.8	0.4213
1306.17	0.5054
1314.55	0.5311
1322.92	0.5319
1331.3	0.5002
1339.68	0.4789
1348.05	0.5845
1356.43	0.621
1364.8	0.4293
1373.18	0.4193
1381.56	0.5899
1389.93	0.6206
1398.31	0.6446
1406.68	0.644
1415.06	0.646
1423.44	0.6392
1431.81	0.5954
1440.19	0.5468
1448.56	0.5125
1456.94	0.4495
1465.32	0.4548
1473.69	0.6875
1482.07	0.832
1490.45	0.8633
1498.82	0.8891
1507.2	0.906
1515.57	0.9109
1523.95	0.9148
1532.33	0.917
1540.7	0.916
1549.08	0.916
1557.45	0.912
1565.83	0.909
1574.21	0.9054
1582.58	0.9005
1590.96	0.8855
1599.33	0.887
1607.71	0.883
1616.09	0.8763
1624.46	0.8654
1632.84	0.8613
1641.21	0.8618
1649.59	0.8567
1657.97	0.8485
1666.34	0.8269
1674.72	0.794
1683.09	0.7308
1691.47	0.5987
1699.85	0.4968
1708.22	0.3491
1716.6	0.1882
1724.97	0.0725
1733.35	0.0687
1741.73	0.0969
1750.1	0.2304
1758.48	0.474
1766.86	0.7107
1775.23	0.8096
1783.61	0.8562
1791.98	0.8707
1800.36	0.8829
1808.74	0.9035
1817.11	0.91
1825.49	0.911
1833.86	0.9132
1842.24	0.9181
1850.62	0.922
1858.99	0.923
1867.37	0.923
1875.74	0.923
1884.12	0.923
1892.5	0.928
1900.87	0.93
1909.25	0.933
1917.62	0.934
1926	0.935
1934.38	0.935
1942.75	0.935
1951.13	0.935
1959.5	0.935
1967.88	0.934
1976.26	0.931
1984.63	0.93
1993.01	0.933
2001.39	0.935
2009.76	0.934
2018.14	0.933
2026.51	0.933
2034.89	0.933
2043.27	0.931
2051.64	0.931
2060.02	0.9342
2068.39	0.935
2076.77	0.936
2085.15	0.936
2093.52	0.936
2101.9	0.936
2110.27	0.936
2118.65	0.936
2127.03	0.936
2135.4	0.936
2143.78	0.936
2152.15	0.936
2160.53	0.9362
2168.91	0.938
2177.28	0.9408
2185.66	0.937
2194.03	0.936
2202.41	0.935
2210.79	0.935
2219.16	0.936
2227.54	0.937
2235.91	0.937
2244.29	0.937
2252.67	0.938
2261.04	0.9383
2269.42	0.94
2277.8	0.9412
2286.17	0.947
2294.55	0.95
2302.92	0.9522
2311.3	0.95
2319.68	0.9488
2328.05	0.948
2336.43	0.9468
2344.8	0.9428
2353.18	0.94
2361.56	0.936
2369.93	0.934
2378.31	0.934
2386.68	0.9352
2395.06	0.938
2403.44	0.94
2411.81	0.94
2420.19	0.937
2428.56	0.937
2436.94	0.937
2445.32	0.937
2453.69	0.936
2462.07	0.931
2470.44	0.93
2478.82	0.93
2487.2	0.93
2495.57	0.93
2503.95	0.93
2512.32	0.929
2520.7	0.929
2529.08	0.929
2537.45	0.928
2545.83	0.927
2554.21	0.925
2562.58	0.924
2570.96	0.924
2579.33	0.923
2587.71	0.923
2596.09	0.924
2604.46	0.924
2612.84	0.918
2621.21	0.915
2629.59	0.9147
2637.97	0.912
2646.34	0.911
2654.72	0.9087
2663.09	0.905
2671.47	0.903
2679.85	0.9
2688.22	0.897
2696.6	0.894
2704.97	0.8938
2713.35	0.891
2721.73	0.888
2730.1	0.885
2738.48	0.879
2746.85	0.8738
2755.23	0.8595
2763.61	0.8354
2771.98	0.8052
2780.36	0.7784
2788.73	0.7231
2797.11	0.6352
2805.49	0.5068
2813.86	0.3166
2822.24	0.2958
2830.62	0.3572
2838.99	0.405
2847.37	0.4007
2855.74	0.3779
2864.12	0.3081
2872.5	0.2512
2880.87	0.2131
2889.25	0.1453
2897.62	0.1252
2906	0.1457
2914.38	0.2436
2922.75	0.2918
2931.13	0.3389
2939.5	0.4066
2947.88	0.4746
2956.26	0.5338
2964.63	0.6205
2973.01	0.69
2981.38	0.7559
2989.76	0.7933
2998.14	0.8253
3006.51	0.8465
3014.89	0.8632
3023.26	0.868
3031.64	0.869
3040.02	0.8753
3048.39	0.8852
3056.77	0.8922
3065.14	0.897
3073.52	0.901
3081.9	0.904
3090.27	0.906
3098.65	0.906
3107.03	0.906
3115.4	0.906
3123.78	0.906
3132.15	0.906
3140.53	0.905
3148.91	0.903
3157.28	0.9027
3165.66	0.904
3174.03	0.905
3182.41	0.905
3190.79	0.9052
3199.16	0.904
3207.54	0.901
3215.91	0.8988
3224.29	0.895
3232.67	0.894
3241.04	0.8972
3249.42	0.9
3257.79	0.9
3266.17	0.9
3274.55	0.9
3282.92	0.9
3291.3	0.9
3299.67	0.899
3308.05	0.898
3316.43	0.8978
3324.8	0.891
3333.18	0.8868
3341.55	0.885
3349.93	0.886
3358.31	0.888
3366.68	0.888
3375.06	0.8868
3383.44	0.8847
3391.81	0.881
3400.19	0.8748
3408.56	0.8717
3416.94	0.8678
3425.32	0.864
3433.69	0.864
3442.07	0.864
3450.44	0.866
3458.82	0.867
3467.2	0.8682
3475.57	0.87
3483.95	0.872
3492.32	0.8762
3500.7	0.8812
3509.08	0.8862
3517.45	0.8922
3525.83	0.9013
3534.2	0.9092
3542.58	0.911
3550.96	0.912
3559.33	0.9162
3567.71	0.922
3576.08	0.923
3584.46	0.924
3592.84	0.9253
3601.21	0.9302
3609.59	0.9352
3617.96	0.937
3626.34	0.938
3634.72	0.94
3643.09	0.9412
3651.47	0.942
3659.85	0.942
3668.22	0.942
3676.6	0.942
3684.97	0.942
3693.35	0.942
3701.73	0.941
3710.1	0.941
3718.48	0.941
3726.85	0.941
3735.23	0.941
3743.61	0.941
3751.98	0.941
3760.36	0.942
3768.73	0.942
3777.11	0.943
3785.49	0.943
3793.86	0.944
3802.24	0.944
3810.61	0.943
3818.99	0.943
