Infrared Spectrum: CyclohexaneCarboxylic acid, 3,4-dihydroxy-cis-3, cis-4, methyl ester
Formula: C8 H14 O4
State: LIQUID (NEAT)
Class: COBLENTZ III
Instrument: PERKIN-ELMER 21 (GRATING)
Instrument parameters: FILTER CHANGE ABOUT 1025 CM^-^1
Sampling: TRANSMISSION
Path length: CAPILLARY
Resolution: 2
Origin: SOUTHERN RESEARCH INSTITUTE
1/CM	TRANSMITTANCE
607	0.6612
616	0.6626
625	0.6691
634	0.6775
643	0.6871
652	0.6949
661	0.7082
670	0.7365
679	0.762
688	0.7923
697	0.8013
706	0.8152
715	0.8239
724	0.8281
733	0.8286
742	0.8222
751	0.7925
760	0.7916
769	0.8029
778	0.842
787	0.8492
796	0.8468
805	0.859
814	0.8436
823	0.8282
832	0.8242
841	0.818
850	0.8112
859	0.8074
868	0.7907
877	0.7629
886	0.7308
895	0.6957
904	0.7051
913	0.7264
922	0.7253
931	0.7227
940	0.7435
949	0.6836
958	0.6523
967	0.6859
976	0.6143
985	0.5961
994	0.574
1003	0.5085
1012	0.4211
1021	0.3228
1030	0.3423
1039	0.2975
1048	0.3013
1057	0.3688
1066	0.3794
1075	0.3914
1084	0.4965
1093	0.5615
1102	0.565
1111	0.5755
1120	0.5615
1129	0.588
1138	0.6472
1147	0.567
1156	0.4317
1165	0.3162
1174	0.2904
1183	0.3355
1192	0.2833
1201	0.2737
1210	0.2566
1219	0.2178
1228	0.1544
1237	0.0803
1246	0.08
1255	0.103
1264	0.1412
1273	0.2148
1282	0.3099
1291	0.4049
1300	0.4569
1309	0.4632
1318	0.486
1327	0.5518
1336	0.586
1345	0.5729
1354	0.4816
1363	0.3137
1372	0.3235
1381	0.441
1390	0.5982
1399	0.6367
1408	0.6437
1417	0.6139
1426	0.587
1435	0.3713
1444	0.4123
1453	0.4741
1462	0.541
1471	0.7496
1480	0.8003
1489	0.8229
1498	0.8356
1507	0.8434
1516	0.8471
1525	0.8517
1534	0.8562
1543	0.8591
1552	0.8615
1561	0.8617
1570	0.8623
1579	0.8611
1588	0.8548
1597	0.8482
1606	0.8388
1615	0.8281
1624	0.8156
1633	0.8003
1642	0.7851
1651	0.7663
1660	0.7362
1669	0.6955
1678	0.6487
1687	0.4898
1696	0.3549
1705	0.1129
1714	0.0512
1723	0.0663
1732	0.0816
1741	0.2492
1750	0.5057
1759	0.5915
1768	0.6058
1777	0.6166
1786	0.7414
1795	0.8019
1804	0.8319
1813	0.8489
1822	0.8635
1831	0.8733
1840	0.8784
1849	0.8815
1858	0.884
1867	0.8863
1876	0.8863
1885	0.8863
1894	0.887
1903	0.8877
1912	0.8886
1921	0.8894
1930	0.8892
1939	0.8894
1948	0.8899
1957	0.8904
1966	0.8908
1975	0.8909
1984	0.891
1993	0.8906
2002	0.89
2011	0.8894
2020	0.8891
2029	0.8888
2038	0.8885
2047	0.8879
2056	0.8873
2065	0.8867
2074	0.8864
2083	0.8861
2092	0.8865
2101	0.887
2110	0.8876
2119	0.8878
2128	0.8883
2137	0.8893
2146	0.8907
2155	0.8949
2164	0.8931
2173	0.8896
2182	0.8925
2191	0.8946
2200	0.8955
2209	0.8957
2218	0.8957
2227	0.8957
2236	0.895
2245	0.8944
2254	0.894
2263	0.8936
2272	0.8934
2281	0.8931
2290	0.8937
2299	0.8988
2308	0.8991
2317	0.9029
2326	0.9035
2335	0.9023
2344	0.9014
2353	0.9001
2362	0.8986
2371	0.8967
2380	0.8945
2389	0.8928
2398	0.8929
2407	0.8934
2416	0.8936
2425	0.8935
2434	0.8934
2443	0.892
2452	0.8895
2461	0.8872
2470	0.8855
2479	0.8847
2488	0.8865
2497	0.8874
2506	0.8862
2515	0.8855
2524	0.8895
2533	0.8878
2542	0.886
2551	0.8869
2560	0.883
2569	0.8799
2578	0.8776
2587	0.8754
2596	0.8735
2605	0.8717
2614	0.8702
2623	0.8681
2632	0.8663
2641	0.8651
2650	0.8643
2659	0.8624
2668	0.8589
2677	0.8594
2686	0.862
2695	0.857
2704	0.8572
2713	0.8592
2722	0.8627
2731	0.8656
2740	0.8656
2749	0.8637
2758	0.8591
2767	0.852
2776	0.8481
2785	0.8466
2794	0.8438
2803	0.8363
2812	0.8271
2821	0.8166
2830	0.7909
2839	0.7443
2848	0.6978
2857	0.6528
2866	0.6225
2875	0.6205
2884	0.6169
2893	0.6098
2902	0.5915
2911	0.5597
2920	0.5245
2929	0.4781
2938	0.4278
2947	0.4196
2956	0.4315
2965	0.5061
2974	0.6177
2983	0.698
2992	0.7311
3001	0.7459
3010	0.7602
3019	0.775
3028	0.788
3037	0.8017
3046	0.8145
3055	0.8291
3064	0.8384
3073	0.8408
3082	0.8418
3091	0.8414
3100	0.8411
3109	0.8432
3118	0.8448
3127	0.8451
3136	0.8422
3145	0.8347
3154	0.8334
3163	0.8329
3172	0.8246
3181	0.8215
3190	0.8206
3199	0.8141
3208	0.8049
3217	0.7955
3226	0.7855
3235	0.7761
3244	0.7683
3253	0.7606
3262	0.7549
3271	0.7381
3280	0.7221
3289	0.7132
3298	0.7079
3307	0.6864
3316	0.6671
3325	0.651
3334	0.6353
3343	0.6165
3352	0.5949
3361	0.5773
3370	0.5593
3379	0.5443
3388	0.5311
3397	0.5171
3406	0.5027
3415	0.4895
3424	0.477
3433	0.4654
3442	0.4542
3451	0.4442
3460	0.4365
3469	0.4313
3478	0.4294
3487	0.4301
3496	0.4336
3505	0.4374
3514	0.4452
3523	0.4524
3532	0.4599
3541	0.4672
3550	0.4783
3559	0.5237
3568	0.5437
3577	0.581
3586	0.6161
3595	0.6642
3604	0.6915
3613	0.7122
3622	0.7412
3631	0.7819
3640	0.808
3649	0.8219
3658	0.8301
3667	0.8377
3676	0.8438
3685	0.8487
3694	0.8515
3703	0.8567
3712	0.8613
3721	0.8617
3730	0.8652
3739	0.8691
3748	0.8726
3757	0.8759
3766	0.8759
3775	0.8748
3784	0.8793
3793	0.8816
3802	0.8816
3811	0.8808
3820	0.8762
3829	0.8708
3838	0.8718
3847	0.8736
3856	0.8761
3865	0.8771
3874	0.8777
3883	0.8776
3892	0.8761
3901	0.8703
3910	0.8694
3919	0.8699
3928	0.8727
3937	0.8713
3946	0.872
3955	0.8719
3964	0.8705
3973	0.8673
3982	0.8633
3991	0.8601
4000	0.8708
