Infrared Spectrum: Acetanilide, 2,4-di-tert-butyl-N-methyl-
Formula: C17 H27 N O
State: SOLID (NUJOL MULL)
Class: COBLENTZ III
Instrument: BECKMAN IR-4 (HYBRID PRISM-GRATING)
Instrument parameters: NaCl PRISM
Sampling: TRANSMISSION
Resolution: 2
Origin: MONSANTO (J. FREEMAN)
1/CM	TRANSMITTANCE
626	0.8753
635	0.897
644	0.9106
653	0.8918
662	0.8924
671	0.9151
680	0.9428
689	0.9457
698	0.9367
707	0.9219
716	0.8805
725	0.8608
734	0.8825
743	0.9057
752	0.9179
761	0.9169
770	0.9166
779	0.9307
788	0.9397
797	0.9416
806	0.9397
815	0.9318
824	0.8337
833	0.8885
842	0.9196
851	0.926
860	0.9236
869	0.9186
878	0.8267
887	0.9025
896	0.9099
905	0.9085
914	0.893
923	0.8325
932	0.8727
941	0.8837
950	0.8861
959	0.8605
968	0.7524
977	0.831
986	0.8958
995	0.9065
1004	0.9131
1013	0.9039
1022	0.8861
1031	0.8653
1040	0.8708
1049	0.8686
1058	0.729
1067	0.6729
1076	0.8688
1085	0.8839
1094	0.8368
1103	0.7562
1112	0.8539
1121	0.7587
1130	0.7975
1139	0.7238
1148	0.7357
1157	0.7916
1166	0.8742
1175	0.8827
1184	0.8872
1193	0.8642
1202	0.8037
1211	0.8513
1220	0.854
1229	0.8181
1238	0.7352
1247	0.6998
1256	0.7987
1265	0.7225
1274	0.6569
1283	0.7935
1292	0.7327
1301	0.6544
1310	0.6589
1319	0.7515
1328	0.7517
1337	0.684
1346	0.5293
1355	0.4681
1364	0.4738
1373	0.2322
1382	0.2114
1391	0.4378
1400	0.427
1409	0.6022
1418	0.5877
1427	0.5646
1436	0.5695
1445	0.4965
1454	0.3654
1463	0.2405
1472	0.2035
1481	0.334
1490	0.523
1499	0.4866
1508	0.4369
1517	0.5496
1526	0.7064
1535	0.8014
1544	0.8287
1553	0.836
1562	0.8362
1571	0.8256
1580	0.8241
1589	0.8025
1598	0.7728
1607	0.7504
1616	0.7191
1625	0.6649
1634	0.5898
1643	0.5201
1652	0.4459
1661	0.2095
1670	0.1055
1679	0.3791
1688	0.5405
1697	0.8012
1706	0.8899
1715	0.9481
1724	0.9686
1733	0.9754
1742	0.973
1751	0.9696
1760	0.9654
1769	0.9612
1778	0.9567
1787	0.9547
1796	0.9574
1805	0.9557
1814	0.953
1823	0.9502
1832	0.9473
1841	0.9444
1850	0.942
1859	0.9396
1868	0.9371
1877	0.9346
1886	0.9326
1895	0.9307
1904	0.9241
1913	0.9253
1922	0.9322
1931	0.9333
1940	0.9318
1949	0.9298
1958	0.9276
1967	0.9252
1976	0.9234
1985	0.9222
1994	0.9211
2003	0.9202
2012	0.9194
2021	0.9186
2030	0.9178
2039	0.9171
2048	0.9162
2057	0.9153
2066	0.9144
2075	0.9135
2084	0.9123
2093	0.9109
2102	0.9097
2111	0.9083
2120	0.907
2129	0.9056
2138	0.9042
2147	0.9029
2156	0.9015
2165	0.9002
2174	0.8991
2183	0.8983
2192	0.8975
2201	0.8965
2210	0.8956
2219	0.8947
2228	0.8937
2237	0.8927
2246	0.8918
2255	0.8907
2264	0.8896
2273	0.8884
2282	0.8873
2291	0.8862
2300	0.8848
2309	0.8835
2318	0.8821
2327	0.8812
2336	0.8806
2345	0.8799
2354	0.88
2363	0.8806
2372	0.881
2381	0.8813
2390	0.8811
2399	0.8751
2408	0.8728
2417	0.8719
2426	0.871
2435	0.8704
2444	0.8698
2453	0.8692
2462	0.8683
2471	0.8674
2480	0.8666
2489	0.8651
2498	0.8636
2507	0.8621
2516	0.8606
2525	0.8591
2534	0.857
2543	0.8549
2552	0.852
2561	0.8485
2570	0.8446
2579	0.8406
2588	0.8365
2597	0.8325
2606	0.8285
2615	0.825
2624	0.8215
2633	0.8181
2642	0.8156
2651	0.8131
2660	0.8105
2669	0.808
2678	0.8058
2687	0.8037
2696	0.8017
2705	0.7997
2714	0.7987
2723	0.7975
2732	0.7939
2741	0.7894
2750	0.7887
2759	0.7891
2768	0.7913
2777	0.7924
2786	0.7911
2795	0.7886
2804	0.7771
2813	0.747
2822	0.7232
2831	0.694
2840	0.6066
2849	0.5844
2858	0.3581
2867	0.1208
2876	0.1
2885	0.0915
2894	0.0872
2903	0.0839
2912	0.0785
2921	0.0653
2930	0.0419
2939	0.0291
2948	0.0228
2957	0.0191
2966	0.0183
2975	0.0202
2984	0.0785
2993	0.1485
3002	0.218
3011	0.2871
3020	0.3559
3029	0.4242
3038	0.4921
3047	0.5853
3056	0.634
3065	0.6484
3074	0.6637
3083	0.6865
3092	0.7134
3101	0.7271
3110	0.7339
3119	0.7381
3128	0.7417
3137	0.7436
3146	0.7449
3155	0.7459
3164	0.7465
3173	0.7461
3182	0.7457
3191	0.7456
3200	0.7455
3209	0.7453
3218	0.745
3227	0.7449
3236	0.7447
3245	0.7445
3254	0.7442
3263	0.7438
3272	0.7434
3281	0.7421
3290	0.7409
3299	0.7393
3308	0.738
3317	0.7381
3326	0.7384
3335	0.7392
3344	0.7401
3353	0.7414
3362	0.7418
3371	0.7421
3380	0.7414
3389	0.7405
3398	0.7394
3407	0.738
3416	0.7366
3425	0.7355
3434	0.7346
3443	0.7337
3452	0.7329
3461	0.7323
3470	0.7315
3479	0.7309
3488	0.7302
3497	0.7295
3506	0.7291
3515	0.7285
3524	0.728
3533	0.7275
3542	0.727
3551	0.7268
3560	0.7265
3569	0.7263
3578	0.726
3587	0.7258
3596	0.7257
3605	0.7256
3614	0.7255
3623	0.7255
3632	0.7254
3641	0.7253
3650	0.7253
3659	0.7253
3668	0.7253
3677	0.7253
3686	0.7253
3695	0.7251
3704	0.7247
3713	0.7242
3722	0.723
3731	0.7217
3740	0.7204
3749	0.7191
3758	0.7178
3767	0.7166
3776	0.7156
3785	0.7145
3794	0.7134
3803	0.7124
3812	0.7113
3821	0.7102
3830	0.709
3839	0.7078
3848	0.7066
3857	0.7054
3866	0.7042
3875	0.703
3884	0.7018
3893	0.7006
3902	0.6994
3911	0.6981
3920	0.6967
3929	0.6954
3938	0.6941
3947	0.6928
3956	0.6915
3965	0.6902
3974	0.6893
3983	0.6886
3992	0.688
