Infrared Spectrum: Guanosine
Formula: C10 H13 N5 O5
State: SOLID (0.8 mg / 650 mg KBr DISC)
Class: COBLENTZ III
Instrument: PERKIN-ELMER 21 (GRATING)
Instrument parameters: FILTER CHANGE ABOUT 1020 CM^-^1
Resolution: 2
Origin: SOUTHERN RESEARCH INSTITUTE
1/CM	TRANSMITTANCE
602.02	0.3632
611.088	0.3658
620.156	0.3684
629.224	0.3696
638.292	0.3765
647.361	0.3845
656.429	0.3728
665.497	0.3387
674.565	0.3014
683.633	0.3196
692.701	0.3696
701.769	0.3937
710.837	0.4222
719.906	0.4278
728.974	0.4384
738.042	0.463
747.11	0.4881
756.178	0.5121
765.246	0.5012
774.314	0.3425
783.382	0.4392
792.451	0.4307
801.519	0.4577
810.587	0.4804
819.655	0.4791
828.723	0.5004
837.791	0.5146
846.859	0.4861
855.927	0.4488
864.995	0.426
874.064	0.4226
883.132	0.4341
892.2	0.4458
901.268	0.4509
910.336	0.4657
919.404	0.5048
928.472	0.5311
937.54	0.5341
946.609	0.5492
955.677	0.5484
964.745	0.533
973.813	0.4712
982.881	0.445
991.949	0.4538
1001.02	0.4117
1010.09	0.3167
1019.15	0.2903
1028.22	0.2428
1037.29	0.2101
1046.36	0.2072
1055.43	0.2067
1064.49	0.2053
1073.56	0.1879
1082.63	0.1769
1091.7	0.1808
1100.77	0.1854
1109.83	0.1934
1118.9	0.2046
1127.97	0.2635
1137.04	0.3551
1146.11	0.4505
1155.18	0.4767
1164.24	0.3917
1173.31	0.2998
1182.38	0.3128
1191.45	0.4124
1200.52	0.4095
1209.58	0.4039
1218.65	0.4038
1227.72	0.3762
1236.79	0.3881
1245.86	0.4158
1254.92	0.4619
1263.99	0.4807
1273.06	0.509
1282.13	0.5175
1291.2	0.5086
1300.27	0.4811
1309.33	0.3949
1318.4	0.3089
1327.47	0.3067
1336.54	0.3084
1345.61	0.2993
1354.67	0.2883
1363.74	0.2649
1372.81	0.2662
1381.88	0.2625
1390.95	0.2229
1400.01	0.2175
1409.08	0.2319
1418.15	0.2675
1427.22	0.3179
1436.29	0.3904
1445.36	0.436
1454.42	0.4563
1463.49	0.4584
1472.56	0.4322
1481.63	0.2619
1490.7	0.2118
1499.76	0.3279
1508.83	0.5357
1517.9	0.5035
1526.97	0.3133
1536.04	0.243
1545.1	0.2669
1554.17	0.3789
1563.24	0.2657
1572.31	0.1859
1581.38	0.1745
1590.45	0.1267
1599.51	0.0827
1608.58	0.075
1617.65	0.0517
1626.72	0.0381
1635.79	0.047
1644.85	0.0702
1653.92	0.1504
1662.99	0.1415
1672.06	0.0843
1681.13	0.0776
1690.19	0.0832
1699.26	0.109
1708.33	0.1346
1717.4	0.1383
1726.47	0.1426
1735.54	0.1839
1744.6	0.3076
1753.67	0.4657
1762.74	0.559
1771.81	0.6192
1780.88	0.6577
1789.94	0.6782
1799.01	0.6921
1808.08	0.6971
1817.15	0.6971
1826.22	0.6964
1835.28	0.6968
1844.35	0.7043
1853.42	0.7178
1862.49	0.7313
1871.56	0.7424
1880.63	0.7527
1889.69	0.7605
1898.76	0.7703
1907.83	0.7778
1916.9	0.7843
1925.97	0.7898
1935.03	0.7934
1944.1	0.7951
1953.17	0.7967
1962.24	0.7986
1971.31	0.8005
1980.37	0.8011
1989.44	0.8003
1998.51	0.7968
2007.58	0.7975
2016.65	0.7963
2025.71	0.7951
2034.78	0.7936
2043.85	0.7922
2052.92	0.7908
2061.99	0.7893
2071.06	0.7867
2080.12	0.7847
2089.19	0.7834
2098.26	0.7827
2107.33	0.7822
2116.4	0.7808
2125.46	0.7793
2134.53	0.778
2143.6	0.7766
2152.67	0.7749
2161.74	0.7724
2170.8	0.7686
2179.87	0.764
2188.94	0.759
2198.01	0.7533
2207.08	0.7466
2216.15	0.7379
2225.21	0.7286
2234.28	0.7191
2243.35	0.7093
2252.42	0.6995
2261.49	0.6902
2270.55	0.681
2279.62	0.6726
2288.69	0.6652
2297.76	0.6597
2306.83	0.6559
2315.89	0.6523
2324.96	0.6486
2334.03	0.6416
2343.1	0.631
2352.17	0.6194
2361.24	0.6066
2370.3	0.5942
2379.37	0.5821
2388.44	0.5715
2397.51	0.5634
2406.58	0.5542
2415.64	0.5448
2424.71	0.5352
2433.78	0.5255
2442.85	0.5153
2451.92	0.5059
2460.98	0.4965
2470.05	0.4871
2479.12	0.4778
2488.19	0.468
2497.26	0.4604
2506.33	0.4499
2515.39	0.4391
2524.46	0.4279
2533.53	0.4147
2542.6	0.4025
2551.67	0.3908
2560.73	0.3804
2569.8	0.3695
2578.87	0.3597
2587.94	0.35
2597.01	0.3431
2606.07	0.3393
2615.14	0.3361
2624.21	0.3326
2633.28	0.3289
2642.35	0.3279
2651.42	0.3268
2660.48	0.3247
2669.55	0.3226
2678.62	0.3205
2687.69	0.3187
2696.76	0.3171
2705.82	0.3153
2714.89	0.3141
2723.96	0.3151
2733.03	0.3178
2742.1	0.3211
2751.16	0.3229
2760.23	0.328
2769.3	0.3373
2778.37	0.3362
2787.44	0.3324
2796.51	0.3295
2805.57	0.329
2814.64	0.3272
2823.71	0.3244
2832.78	0.3215
2841.85	0.3182
2850.91	0.3142
2859.98	0.3106
2869.05	0.3076
2878.12	0.3045
2887.19	0.3008
2896.25	0.2972
2905.32	0.2938
2914.39	0.2902
2923.46	0.2872
2932.53	0.2865
2941.6	0.2886
2950.66	0.2993
2959.73	0.3153
2968.8	0.3284
2977.87	0.3339
2986.94	0.3402
2996	0.3413
3005.07	0.3369
3014.14	0.3285
3023.21	0.3175
3032.28	0.3072
3041.34	0.3022
3050.41	0.2923
3059.48	0.2714
3068.55	0.25
3077.62	0.2348
3086.69	0.2214
3095.75	0.209
3104.82	0.1984
3113.89	0.1879
3122.96	0.1781
3132.03	0.1686
3141.09	0.1585
3150.16	0.1479
3159.23	0.1373
3168.3	0.1268
3177.37	0.1075
3186.43	0.0968
3195.5	0.0932
3204.57	0.0921
3213.64	0.0942
3222.71	0.0955
3231.77	0.0977
3240.84	0.101
3249.91	0.1032
3258.98	0.1072
3268.05	0.1052
3277.12	0.1021
3286.18	0.1002
3295.25	0.096
3304.32	0.0824
3313.39	0.0799
3322.46	0.0797
3331.52	0.0754
3340.59	0.0729
3349.66	0.0734
3358.73	0.0735
3367.8	0.0747
3376.86	0.0761
3385.93	0.0776
3395	0.0785
3404.07	0.0792
3413.14	0.079
3422.21	0.0779
3431.27	0.0784
3440.34	0.0789
3449.41	0.0795
3458.48	0.0807
3467.55	0.0822
3476.61	0.0866
3485.68	0.1064
3494.75	0.1244
3503.82	0.1463
3512.89	0.175
3521.95	0.1956
3531.02	0.2171
3540.09	0.2455
3549.16	0.2841
3558.23	0.3011
3567.3	0.3187
3576.36	0.3378
3585.43	0.3724
3594.5	0.4136
3603.57	0.4572
3612.64	0.5024
3621.7	0.5325
3630.77	0.5559
3639.84	0.5919
3648.91	0.6275
3657.98	0.6487
3667.04	0.6683
3676.11	0.7119
3685.18	0.7288
3694.25	0.75
3703.32	0.762
3712.39	0.7666
3721.45	0.7692
3730.52	0.7725
3739.59	0.7797
3748.66	0.7842
3757.73	0.7864
3766.79	0.7864
3775.86	0.7869
3784.93	0.7875
3794	0.7879
3803.07	0.7882
3812.13	0.7884
3821.2	0.7891
3830.27	0.7898
3839.34	0.7895
3848.41	0.7888
3857.48	0.7856
3866.54	0.7793
3875.61	0.7779
3884.68	0.7788
3893.75	0.7797
3902.82	0.7802
3911.88	0.7808
3920.95	0.7772
