Infrared Spectrum: SODIUM GLUCOHEPTANATE
Formula: C7 H13 O8 Na
State: SOLID (MINERAL OIL MULL)
Class: COBLENTZ
Instrument: Not specified, most likely a prism, grating, or hybrid spectrometer.
Sampling: TRANSMISSION
Resolution: 4
Origin: DOW CHEMICAL COMPANY
MICROMETERS	TRANSMITTANCE
2.027	0.89
2.06719	0.893
2.10738	0.898
2.14757	0.898
2.18777	0.895
2.22796	0.876
2.26815	0.876
2.30834	0.881
2.34853	0.883
2.38872	0.883
2.42891	0.886
2.4691	0.893
2.5093	0.898
2.54949	0.9
2.58968	0.895
2.62987	0.896
2.67006	0.888
2.71025	0.868
2.75044	0.833
2.79063	0.795
2.83083	0.695
2.87102	0.512
2.91121	0.239
2.9514	0.212
2.99159	0.209
3.03178	0.371
3.07197	0.369
3.11217	0.376
3.15236	0.475
3.19255	0.514
3.23274	0.52
3.27293	0.527
3.31312	0.449
3.35331	0.149
3.3935	0.069
3.4337	0.174
3.47389	0.274
3.51408	0.572
3.55427	0.63
3.59446	0.645
3.63465	0.638
3.67484	0.64
3.71503	0.622
3.75523	0.693
3.79542	0.735
3.83561	0.758
3.8758	0.77
3.91599	0.798
3.95618	0.816
3.99637	0.826
4.03657	0.838
4.07676	0.848
4.11695	0.856
4.15714	0.861
4.19733	0.865
4.23752	0.868
4.27771	0.871
4.3179	0.87
4.3581	0.875
4.39829	0.878
4.43848	0.88
4.47867	0.88
4.51886	0.885
4.55905	0.88
4.59924	0.883
4.63943	0.886
4.67963	0.883
4.71982	0.886
4.76001	0.886
4.8002	0.888
4.84039	0.89
4.88058	0.896
4.92077	0.89
4.96096	0.891
5.00116	0.895
5.04135	0.895
5.08154	0.891
5.12173	0.895
5.16192	0.891
5.20211	0.888
5.2423	0.886
5.2825	0.888
5.32269	0.89
5.36288	0.886
5.40307	0.886
5.44326	0.886
5.48345	0.881
5.52364	0.885
5.56383	0.881
5.60403	0.878
5.64422	0.875
5.68441	0.868
5.7246	0.865
5.76479	0.86
5.80498	0.848
5.84517	0.831
5.88536	0.81
5.92556	0.783
5.96575	0.75
6.00594	0.723
6.04613	0.652
6.08632	0.549
6.12651	0.391
6.1667	0.191
6.2069	0.151
6.24709	0.304
6.28728	0.517
6.32747	0.623
6.36766	0.67
6.40785	0.723
6.44804	0.748
6.48823	0.763
6.52843	0.763
6.56862	0.768
6.60881	0.757
6.649	0.732
6.68919	0.68
6.72938	0.623
6.76957	0.447
6.80976	0.302
6.84996	0.274
6.89015	0.336
6.93034	0.402
6.97053	0.484
7.01072	0.547
7.05091	0.555
7.0911	0.53
7.1313	0.455
7.17149	0.337
7.21168	0.282
7.25187	0.371
7.29206	0.437
7.33225	0.464
7.37244	0.585
7.41263	0.628
7.45283	0.67
7.49302	0.707
7.53321	0.692
7.5734	0.64
7.61359	0.62
7.65378	0.615
7.69397	0.627
7.73416	0.612
7.77436	0.59
7.81455	0.658
7.85474	0.708
7.89493	0.708
7.93512	0.662
7.97531	0.68
8.0155	0.715
8.0557	0.732
8.09589	0.757
8.13608	0.757
8.17627	0.712
8.21646	0.658
8.25665	0.657
8.29684	0.715
8.33703	0.767
8.37723	0.797
8.41742	0.81
8.45761	0.815
8.4978	0.815
8.53799	0.816
8.57818	0.813
8.61837	0.811
8.65856	0.811
8.69876	0.811
8.73895	0.792
8.77914	0.75
8.81933	0.73
8.85952	0.71
8.89971	0.667
8.9399	0.608
8.98009	0.514
9.02029	0.41
9.06048	0.407
9.10067	0.465
9.14086	0.437
9.18105	0.559
9.22124	0.64
9.26143	0.534
9.30163	0.404
9.34182	0.264
9.38201	0.394
9.4222	0.47
9.46239	0.564
9.50258	0.677
9.54277	0.675
9.58296	0.567
9.62316	0.407
9.66335	0.312
9.70354	0.547
9.74373	0.603
9.78392	0.599
9.82411	0.693
9.8643	0.768
9.90449	0.788
9.94469	0.805
9.98488	0.81
10.0251	0.797
10.0653	0.77
10.1055	0.708
10.1456	0.663
10.1858	0.695
10.226	0.777
10.2662	0.803
10.3064	0.821
10.3466	0.826
10.3868	0.831
10.427	0.83
10.4672	0.825
10.5074	0.806
10.5476	0.733
10.5877	0.633
10.6279	0.549
10.6681	0.647
10.7083	0.77
10.7485	0.793
10.7887	0.798
10.8289	0.795
10.8691	0.795
10.9093	0.798
10.9495	0.797
10.9897	0.782
11.0299	0.748
11.07	0.685
11.1102	0.58
11.1504	0.5
11.1906	0.559
11.2308	0.685
11.271	0.737
11.3112	0.75
11.3514	0.745
11.3916	0.74
11.4318	0.742
11.472	0.762
11.5121	0.788
11.5523	0.797
11.5925	0.8
11.6327	0.788
11.6729	0.772
11.7131	0.758
11.7533	0.747
11.7935	0.742
11.8337	0.725
11.8739	0.712
11.9141	0.695
11.9543	0.67
11.9944	0.652
12.0346	0.633
12.0748	0.613
12.115	0.607
12.1552	0.603
12.1954	0.612
12.2356	0.622
12.2758	0.642
12.316	0.653
12.3562	0.667
12.3964	0.67
12.4365	0.685
12.4767	0.688
12.5169	0.692
12.5571	0.692
12.5973	0.683
12.6375	0.672
12.6777	0.65
12.7179	0.625
12.7581	0.594
12.7983	0.575
12.8385	0.585
12.8787	0.608
12.9188	0.617
12.959	0.62
12.9992	0.602
13.0394	0.589
13.0796	0.57
13.1198	0.559
13.16	0.539
13.2002	0.517
13.2404	0.499
13.2806	0.48
13.3208	0.459
13.3609	0.434
13.4011	0.414
13.4413	0.4
13.4815	0.382
13.5217	0.374
13.5619	0.364
13.6021	0.359
13.6423	0.357
13.6825	0.359
13.7227	0.362
13.7629	0.372
13.8031	0.381
13.8432	0.391
13.8834	0.407
13.9236	0.422
13.9638	0.437
14.004	0.454
14.0442	0.467
14.0844	0.474
14.1246	0.485
14.1648	0.492
14.205	0.497
14.2452	0.5
14.2853	0.504
14.3255	0.51
14.3657	0.514
14.4059	0.52
14.4461	0.517
14.4863	0.52
14.5265	0.515
14.5667	0.507
14.6069	0.495
14.6471	0.482
14.6873	0.46
14.7275	0.435
14.7676	0.41
14.8078	0.384
14.848	0.351
14.8882	0.331
14.9284	0.321
14.9686	0.316
15.0088	0.327
15.049	0.341
15.0892	0.352
15.1294	0.362
15.1696	0.379
15.2097	0.391
15.2499	0.392
15.2901	0.392
15.3303	0.391
15.3705	0.389
15.4107	0.386
15.4509	0.381
15.4911	0.377
15.5313	0.371
15.5715	0.354
15.6117	0.351
15.6519	0.336
15.692	0.327
15.7322	0.319
15.7724	0.302
15.8126	0.297
15.8528	0.292
