Infrared Spectrum: Benzo[b]-1,5-naphthyridine, 7-chloro-10-[[4-(diethylamino)-1-methylbutyl]amino]-2-methoxy-, dihydrochloride
Formula: C22 H31 Cl3 N4 O
State: SOLID (OIL MULL)
Class: COBLENTZ III
Instrument: PERKIN-ELMER 21 (GRATING)
Instrument parameters: NaCl PRISM
Sampling: TRANSMISSION
Resolution: 2
Origin: SMITH, KLINE & FRENCH LABS.
1/CM	TRANSMITTANCE
671	0.6264
680	0.6494
689	0.7029
698	0.7188
707	0.6897
716	0.5833
725	0.5461
734	0.5523
743	0.6826
752	0.7383
761	0.7792
770	0.7776
779	0.582
788	0.7811
797	0.7586
806	0.7243
815	0.583
824	0.7382
833	0.6939
842	0.6082
851	0.7024
860	0.7283
869	0.7423
878	0.6359
887	0.5943
896	0.6881
905	0.7303
914	0.6812
923	0.551
932	0.5918
941	0.6837
950	0.6971
959	0.6827
968	0.6692
977	0.6538
986	0.589
995	0.7108
1004	0.6728
1013	0.6584
1022	0.5362
1031	0.6365
1040	0.6622
1049	0.6978
1058	0.7157
1067	0.6808
1076	0.6057
1085	0.5882
1094	0.6945
1103	0.6756
1112	0.5536
1121	0.6523
1130	0.6907
1139	0.5817
1148	0.601
1157	0.6557
1166	0.6541
1175	0.6605
1184	0.672
1193	0.6789
1202	0.6295
1211	0.6637
1220	0.6493
1229	0.6259
1238	0.5622
1247	0.5828
1256	0.4996
1265	0.3676
1274	0.3009
1283	0.4978
1292	0.5814
1301	0.4815
1310	0.5598
1319	0.548
1328	0.4753
1337	0.3253
1346	0.4078
1355	0.3583
1364	0.1566
1373	0.1201
1382	0.3635
1391	0.5165
1400	0.5569
1409	0.5318
1418	0.4796
1427	0.3042
1436	0.1407
1445	0.0943
1454	0.0782
1463	0.1341
1472	0.2581
1481	0.206
1490	0.3742
1499	0.6266
1508	0.6163
1517	0.5255
1526	0.4368
1535	0.5177
1544	0.4479
1553	0.3182
1562	0.4092
1571	0.302
1580	0.2713
1589	0.4971
1598	0.6035
1607	0.5924
1616	0.4648
1625	0.3737
1634	0.5311
1643	0.6863
1652	0.7997
1661	0.8196
1670	0.8183
1679	0.816
1688	0.8137
1697	0.8105
1706	0.7997
1715	0.8009
1724	0.798
1733	0.7935
1742	0.7892
1751	0.7846
1760	0.7808
1769	0.7802
1778	0.7818
1787	0.7833
1796	0.7816
1805	0.7789
1814	0.7764
1823	0.7742
1832	0.7699
1841	0.7658
1850	0.7634
1859	0.7621
1868	0.7564
1877	0.7518
1886	0.7495
1895	0.7474
1904	0.7407
1913	0.7417
1922	0.7405
1931	0.7341
1940	0.7292
1949	0.7269
1958	0.7258
1967	0.7197
1976	0.7128
1985	0.7073
1994	0.7021
2003	0.6971
2012	0.6923
2021	0.6879
2030	0.6835
2039	0.6791
2048	0.6751
2057	0.675
2066	0.6769
2075	0.6759
2084	0.6734
2093	0.6696
2102	0.6649
2111	0.6593
2120	0.6539
2129	0.6488
2138	0.6458
2147	0.6439
2156	0.6425
2165	0.6412
2174	0.64
2183	0.6389
2192	0.6361
2201	0.6327
2210	0.6274
2219	0.6218
2228	0.6161
2237	0.6106
2246	0.6053
2255	0.5983
2264	0.5912
2273	0.5856
2282	0.5769
2291	0.5605
2300	0.551
2309	0.5432
2318	0.5367
2327	0.5301
2336	0.5203
2345	0.5116
2354	0.5046
2363	0.497
2372	0.4891
2381	0.4812
2390	0.4738
2399	0.4649
2408	0.4568
2417	0.4433
2426	0.4249
2435	0.4042
2444	0.4
2453	0.3977
2462	0.3958
2471	0.3937
2480	0.3914
2489	0.3886
2498	0.3732
2507	0.3542
2516	0.3474
2525	0.3444
2534	0.3404
2543	0.3327
2552	0.3297
2561	0.331
2570	0.3321
2579	0.3329
2588	0.333
2597	0.3321
2606	0.3292
2615	0.3266
2624	0.3259
2633	0.3338
2642	0.3513
2651	0.3708
2660	0.3767
2669	0.3795
2678	0.3842
2687	0.4021
2696	0.4217
2705	0.4271
2714	0.4273
2723	0.4262
2732	0.4225
2741	0.4144
2750	0.3983
2759	0.3751
2768	0.3127
2777	0.2415
2786	0.1707
2795	0.1056
2804	0.0703
2813	0.0612
2822	0.0588
2831	0.0577
2840	0.0569
2849	0.0565
2858	0.0561
2867	0.0563
2876	0.0564
2885	0.057
2894	0.0583
2903	0.0625
2912	0.0679
2921	0.0844
2930	0.1632
2939	0.2541
2948	0.311
2957	0.3297
2966	0.3458
2975	0.3542
2984	0.3622
2993	0.3686
3002	0.3736
3011	0.3781
3020	0.3815
3029	0.3849
3038	0.3882
3047	0.3913
3056	0.393
3065	0.3947
3074	0.396
3083	0.3965
3092	0.3969
3101	0.3966
3110	0.3951
3119	0.3925
3128	0.388
3137	0.3812
3146	0.3736
3155	0.3661
3164	0.3583
3173	0.3496
3182	0.3486
3191	0.358
3200	0.3811
3209	0.3882
3218	0.3898
3227	0.3886
3236	0.3879
3245	0.3815
3254	0.3724
3263	0.3703
3272	0.3695
3281	0.369
3290	0.3685
3299	0.3674
3308	0.3632
3317	0.358
3326	0.3528
3335	0.3471
3344	0.3439
3353	0.3429
3362	0.342
3371	0.3413
3380	0.3405
3389	0.3393
3398	0.337
3407	0.3364
3416	0.3373
3425	0.3516
3434	0.3674
3443	0.3832
3452	0.3989
3461	0.4146
3470	0.4305
3479	0.4609
3488	0.4715
3497	0.4779
3506	0.4827
3515	0.4869
3524	0.4893
3533	0.4913
3542	0.4932
3551	0.4945
3560	0.4957
3569	0.4954
3578	0.4943
3587	0.493
3596	0.4917
3605	0.4899
3614	0.4882
3623	0.4864
3632	0.4845
3641	0.4819
3650	0.4792
3659	0.4765
3668	0.4741
3677	0.4717
3686	0.4693
3695	0.4669
3704	0.4646
3713	0.4626
3722	0.4603
3731	0.4575
3740	0.4546
3749	0.4514
3758	0.4462
3767	0.444
3776	0.4435
3785	0.4429
3794	0.4422
3803	0.4383
3812	0.4343
3821	0.4326
3830	0.4314
3839	0.4307
3848	0.4304
3857	0.43
3866	0.427
3875	0.4235
3884	0.4203
3893	0.4178
3902	0.4156
3911	0.4153
3920	0.4152
3929	0.4149
3938	0.4143
3947	0.413
3956	0.4094
3965	0.4053
3974	0.4012
3983	0.3971
3992	0.3925
