Infrared Spectrum: SODIUM PHOSPHATE, TRIBASIC
Formula: Na3 P O4  * 12 H2 O
State: SOLID (MULLS, FLUOROLUBE FOR 5000-1330 CM^-^1, NUJOL FOR 1330-625 CM^-^1)
Class: COBLENTZ
Instrument: Not specified, most likely a prism, grating, or hybrid spectrometer.
Sampling: TRANSMISSION
Resolution: 4
Origin: MELLON INSTITUTE
MICROMETERS	TRANSMITTANCE
2.034	0.927
2.07501	0.931
2.11603	0.934
2.15704	0.941
2.19806	0.946
2.23907	0.948
2.28009	0.945
2.3211	0.948
2.36212	0.951
2.40313	0.955
2.44415	0.962
2.48516	0.963
2.52618	0.962
2.56719	0.958
2.6082	0.953
2.64922	0.948
2.69023	0.917
2.73125	0.819
2.77226	0.728
2.81328	0.596
2.85429	0.446
2.89531	0.386
2.93632	0.331
2.97734	0.302
3.01835	0.278
3.05937	0.262
3.10038	0.252
3.14139	0.249
3.18241	0.256
3.22342	0.268
3.26444	0.29
3.30545	0.319
3.34647	0.36
3.38748	0.407
3.4285	0.46
3.46951	0.503
3.51053	0.548
3.55154	0.587
3.59255	0.628
3.63357	0.668
3.67458	0.702
3.7156	0.73
3.75661	0.752
3.79763	0.769
3.83864	0.781
3.87966	0.792
3.92067	0.802
3.96169	0.81
4.0027	0.816
4.04372	0.821
4.08473	0.823
4.12574	0.823
4.16676	0.814
4.20777	0.8
4.24879	0.788
4.2898	0.781
4.33082	0.78
4.37183	0.785
4.41285	0.793
4.45386	0.802
4.49488	0.807
4.53589	0.814
4.57691	0.819
4.61792	0.824
4.65893	0.831
4.69995	0.838
4.74096	0.847
4.78198	0.852
4.82299	0.867
4.86401	0.881
4.90502	0.891
4.94604	0.898
4.98705	0.903
5.02807	0.912
5.06908	0.917
5.1101	0.92
5.15111	0.927
5.19212	0.931
5.23314	0.931
5.27415	0.931
5.31517	0.931
5.35618	0.931
5.3972	0.931
5.43821	0.931
5.47923	0.929
5.52024	0.927
5.56126	0.927
5.60227	0.926
5.64328	0.927
5.6843	0.924
5.72531	0.922
5.76633	0.902
5.80734	0.878
5.84836	0.867
5.88937	0.845
5.93039	0.816
5.9714	0.774
6.01242	0.716
6.05343	0.719
6.09445	0.749
6.13546	0.769
6.17647	0.802
6.21749	0.814
6.2585	0.826
6.29952	0.823
6.34053	0.831
6.38155	0.829
6.42256	0.841
6.46358	0.848
6.50459	0.848
6.54561	0.852
6.58662	0.85
6.62764	0.859
6.66865	0.852
6.70966	0.847
6.75068	0.838
6.79169	0.831
6.83271	0.828
6.87372	0.823
6.91474	0.835
6.95575	0.857
6.99677	0.867
7.03778	0.872
7.0788	0.878
7.11981	0.883
7.16083	0.89
7.20184	0.891
7.24285	0.89
7.28387	0.89
7.32488	0.89
7.3659	0.89
7.40691	0.89
7.44793	0.89
7.48894	0.891
7.52996	0.891
7.57097	0.891
7.61199	0.891
7.653	0.891
7.69401	0.891
7.73503	0.893
7.77604	0.893
7.81706	0.893
7.85807	0.893
7.89909	0.893
7.9401	0.893
7.98112	0.893
8.02213	0.895
8.06315	0.895
8.10416	0.896
8.14518	0.896
8.18619	0.896
8.2272	0.898
8.26822	0.898
8.30923	0.898
8.35025	0.898
8.39126	0.898
8.43228	0.898
8.47329	0.9
8.51431	0.896
8.55532	0.9
8.59634	0.902
8.63735	0.893
8.67837	0.891
8.71938	0.89
8.76039	0.886
8.80141	0.881
8.84242	0.874
8.88344	0.872
8.92445	0.867
8.96547	0.862
9.00648	0.85
9.0475	0.841
9.08851	0.829
9.12953	0.814
9.17054	0.793
9.21156	0.768
9.25257	0.745
9.29358	0.706
9.3346	0.659
9.37561	0.603
9.41663	0.544
9.45764	0.487
9.49866	0.426
9.53967	0.34
9.58069	0.293
9.6217	0.249
9.66272	0.218
9.70373	0.194
9.74474	0.166
9.78576	0.142
9.82677	0.127
9.86779	0.118
9.9088	0.111
9.94982	0.104
9.99083	0.104
10.0318	0.108
10.0729	0.116
10.1139	0.127
10.1549	0.14
10.1959	0.168
10.2369	0.201
10.2779	0.235
10.3189	0.28
10.36	0.324
10.401	0.379
10.442	0.429
10.483	0.475
10.524	0.498
10.565	0.518
10.6061	0.537
10.6471	0.551
10.6881	0.565
10.7291	0.582
10.7701	0.591
10.8111	0.599
10.8521	0.615
10.8932	0.627
10.9342	0.64
10.9752	0.652
11.0162	0.666
11.0572	0.676
11.0982	0.682
11.1392	0.689
11.1803	0.695
11.2213	0.699
11.2623	0.702
11.3033	0.709
11.3443	0.713
11.3853	0.714
11.4263	0.716
11.4674	0.719
11.5084	0.721
11.5494	0.725
11.5904	0.726
11.6314	0.726
11.6724	0.728
11.7134	0.728
11.7545	0.728
11.7955	0.728
11.8365	0.728
11.8775	0.728
11.9185	0.728
11.9595	0.728
12.0005	0.725
12.0416	0.719
12.0826	0.716
12.1236	0.714
12.1646	0.716
12.2056	0.713
12.2466	0.701
12.2877	0.694
12.3287	0.687
12.3697	0.683
12.4107	0.676
12.4517	0.671
12.4927	0.664
12.5337	0.659
12.5748	0.659
12.6158	0.658
12.6568	0.649
12.6978	0.644
12.7388	0.637
12.7798	0.63
12.8208	0.623
12.8619	0.618
12.9029	0.608
12.9439	0.596
12.9849	0.582
13.0259	0.572
13.0669	0.561
13.1079	0.551
13.149	0.546
13.19	0.536
13.231	0.524
13.272	0.512
13.313	0.501
13.354	0.494
13.395	0.482
13.4361	0.469
13.4771	0.458
13.5181	0.45
13.5591	0.448
13.6001	0.445
13.6411	0.436
13.6821	0.431
13.7232	0.426
13.7642	0.42
13.8052	0.417
13.8462	0.412
13.8872	0.407
13.9282	0.4
13.9692	0.395
14.0103	0.391
14.0513	0.39
14.0923	0.386
14.1333	0.383
14.1743	0.381
14.2153	0.378
14.2564	0.374
14.2974	0.371
14.3384	0.367
14.3794	0.364
14.4204	0.364
14.4614	0.365
14.5024	0.371
14.5435	0.374
14.5845	0.374
14.6255	0.372
14.6665	0.374
14.7075	0.376
14.7485	0.381
14.7895	0.384
14.8306	0.396
14.8716	0.403
14.9126	0.403
14.9536	0.405
14.9946	0.407
15.0356	0.41
15.0766	0.415
15.1177	0.419
15.1587	0.424
15.1997	0.427
15.2407	0.431
15.2817	0.436
15.3227	0.441
15.3637	0.448
15.4048	0.455
15.4458	0.458
15.4868	0.462
15.5278	0.467
15.5688	0.474
15.6098	0.481
15.6508	0.486
15.6919	0.494
15.7329	0.5
15.7739	0.505
15.8149	0.512
15.8559	0.522
15.8969	0.529
15.9379	0.539
15.979	0.548
