Infrared Spectrum: Methanesulfonic aicd, thio-, S-(2-aminoethyl) ester, hydrobromide
Formula: C3 H10 Br N O2 S2
State: SOLID (0.9 mg / 650 mg KBr DISC)
Class: COBLENTZ III
Instrument: PERKIN-ELMER 21 (GRATING)
Instrument parameters: FILTER CHANGE ABOUT 1020 CM^-^1
Sampling: TRANSMISSION
Resolution: 2
Origin: SOUTHERN RESEARCH INSTITUTE
1/CM	TRANSMITTANCE
601	0.7855
610.034	0.7826
619.069	0.7808
628.103	0.7803
637.138	0.7804
646.172	0.7944
655.207	0.7986
664.241	0.8009
673.275	0.8032
682.31	0.8058
691.344	0.8043
700.379	0.795
709.413	0.7841
718.447	0.7712
727.482	0.7058
736.516	0.4949
745.551	0.5084
754.585	0.8087
763.62	0.8503
772.654	0.8343
781.688	0.8545
790.723	0.869
799.757	0.8427
808.792	0.8895
817.826	0.8888
826.861	0.8861
835.895	0.8808
844.929	0.8727
853.964	0.8607
862.998	0.8357
872.033	0.757
881.067	0.6632
890.102	0.8701
899.136	0.8309
908.17	0.7973
917.205	0.7494
926.239	0.7192
935.274	0.7318
944.308	0.7181
953.342	0.5453
962.377	0.4218
971.411	0.7821
980.446	0.8735
989.48	0.8694
998.515	0.855
1007.55	0.8295
1016.58	0.7958
1025.62	0.7665
1034.65	0.6088
1043.69	0.6275
1052.72	0.7679
1061.76	0.755
1070.79	0.7309
1079.82	0.65
1088.86	0.6049
1097.89	0.6051
1106.93	0.554
1115.96	0.2492
1125	0.1408
1134.03	0.1491
1143.07	0.5053
1152.1	0.6202
1161.13	0.6066
1170.17	0.6047
1179.2	0.638
1188.24	0.6516
1197.27	0.6617
1206.31	0.7087
1215.34	0.7521
1224.38	0.7439
1233.41	0.6993
1242.44	0.7737
1251.48	0.7568
1260.51	0.7234
1269.55	0.6621
1278.58	0.6258
1287.62	0.5906
1296.65	0.5114
1305.68	0.2209
1314.72	0.2018
1323.75	0.254
1332.79	0.6481
1341.82	0.7662
1350.86	0.8137
1359.89	0.8388
1368.93	0.835
1377.96	0.8061
1386.99	0.8161
1396.03	0.7659
1405.06	0.7397
1414.1	0.7721
1423.13	0.7884
1432.17	0.8245
1441.2	0.8017
1450.24	0.739
1459.27	0.8057
1468.3	0.8049
1477.34	0.7914
1486.37	0.7797
1495.41	0.7507
1504.44	0.4866
1513.48	0.4946
1522.51	0.741
1531.55	0.7243
1540.58	0.6483
1549.61	0.5999
1558.65	0.5626
1567.68	0.5054
1576.72	0.4151
1585.75	0.4714
1594.79	0.7723
1603.82	0.7934
1612.86	0.7978
1621.89	0.808
1630.92	0.8354
1639.96	0.8454
1648.99	0.8577
1658.03	0.8679
1667.06	0.8781
1676.1	0.8823
1685.13	0.8873
1694.17	0.8903
1703.2	0.8904
1712.23	0.8905
1721.27	0.8907
1730.3	0.8908
1739.34	0.891
1748.37	0.8911
1757.41	0.8912
1766.44	0.8909
1775.47	0.8902
1784.51	0.8884
1793.54	0.886
1802.58	0.8833
1811.61	0.8801
1820.65	0.8766
1829.68	0.8732
1838.72	0.8667
1847.75	0.8613
1856.78	0.8588
1865.82	0.8582
1874.85	0.8605
1883.89	0.8659
1892.92	0.872
1901.96	0.8731
1910.99	0.8736
1920.03	0.8739
1929.06	0.8741
1938.09	0.8736
1947.13	0.8712
1956.16	0.8644
1965.2	0.8593
1974.23	0.8671
1983.27	0.8777
1992.3	0.8802
2001.34	0.8768
2010.37	0.8717
2019.4	0.8679
2028.44	0.8683
2037.47	0.8696
2046.51	0.8701
2055.54	0.8705
2064.58	0.8708
2073.61	0.8707
2082.65	0.8702
2091.68	0.8695
2100.71	0.8686
2109.75	0.8674
2118.78	0.8657
2127.82	0.864
2136.85	0.8626
2145.89	0.8612
2154.92	0.8596
2163.95	0.8576
2172.99	0.8558
2182.02	0.8557
2191.06	0.8555
2200.09	0.855
2209.13	0.8545
2218.16	0.854
2227.2	0.8536
2236.23	0.8514
2245.26	0.8443
2254.3	0.8364
2263.33	0.8308
2272.37	0.8291
2281.4	0.8297
2290.44	0.8343
2299.47	0.8394
2308.51	0.8346
2317.54	0.8301
2326.57	0.8258
2335.61	0.822
2344.64	0.8179
2353.68	0.8135
2362.71	0.808
2371.75	0.8022
2380.78	0.7961
2389.82	0.7896
2398.85	0.7828
2407.88	0.7759
2416.92	0.769
2425.95	0.7634
2434.99	0.7664
2444.02	0.7749
2453.06	0.7757
2462.09	0.7726
2471.13	0.7689
2480.16	0.7652
2489.19	0.7617
2498.23	0.7585
2507.26	0.7553
2516.3	0.7513
2525.33	0.7462
2534.37	0.7365
2543.4	0.7145
2552.44	0.6882
2561.47	0.6649
2570.5	0.6446
2579.54	0.6393
2588.57	0.6697
2597.61	0.6837
2606.64	0.6842
2615.68	0.6712
2624.71	0.6583
2633.74	0.6555
2642.78	0.6546
2651.81	0.6541
2660.85	0.6541
2669.88	0.6543
2678.92	0.6525
2687.95	0.647
2696.99	0.6396
2706.02	0.6306
2715.05	0.6176
2724.09	0.6007
2733.12	0.5801
2742.16	0.5681
2751.19	0.556
2760.23	0.5438
2769.26	0.5318
2778.3	0.5196
2787.33	0.5076
2796.36	0.4934
2805.4	0.4775
2814.43	0.4498
2823.47	0.4186
2832.5	0.401
2841.54	0.3799
2850.57	0.3522
2859.61	0.3258
2868.64	0.3078
2877.67	0.2892
2886.71	0.2735
2895.74	0.2642
2904.78	0.2596
2913.81	0.2579
2922.85	0.2613
2931.88	0.2663
2940.92	0.267
2949.95	0.2635
2958.98	0.257
2968.02	0.2524
2977.05	0.2513
2986.09	0.2521
2995.12	0.2537
3004.16	0.2561
3013.19	0.2596
3022.23	0.2644
3031.26	0.2686
3040.29	0.2728
3049.33	0.2831
3058.36	0.3049
3067.4	0.3393
3076.43	0.3676
3085.47	0.3857
3094.5	0.401
3103.53	0.4164
3112.57	0.444
3121.6	0.48
3130.64	0.5072
3139.67	0.5216
3148.71	0.5498
3157.74	0.5863
3166.78	0.6144
3175.81	0.635
3184.84	0.6436
3193.88	0.6507
3202.91	0.6583
3211.95	0.6709
3220.98	0.6856
3230.02	0.6997
3239.05	0.7169
3248.09	0.7294
3257.12	0.7363
3266.15	0.74
3275.19	0.7429
3284.22	0.7451
3293.26	0.7461
3302.29	0.7457
3311.33	0.7443
3320.36	0.7379
3329.4	0.7235
3338.43	0.7104
3347.46	0.6958
3356.5	0.6821
3365.53	0.671
3374.57	0.6611
3383.6	0.6529
3392.64	0.6455
3401.67	0.6394
3410.71	0.6337
3419.74	0.6289
3428.77	0.6267
3437.81	0.6259
3446.84	0.6274
3455.88	0.6289
3464.91	0.6321
3473.95	0.6352
3482.98	0.6386
3492.02	0.6422
3501.05	0.6471
3510.08	0.653
3519.12	0.6594
3528.15	0.667
3537.19	0.6755
3546.22	0.6851
3555.26	0.6947
3564.29	0.7043
3573.32	0.7145
3582.36	0.7257
3591.39	0.7371
3600.43	0.7465
3609.46	0.7537
3618.5	0.7623
3627.53	0.7694
3636.57	0.7747
3645.6	0.778
3654.63	0.7812
3663.67	0.7826
3672.7	0.7839
3681.74	0.7848
3690.77	0.7857
3699.81	0.7865
3708.84	0.7873
3717.88	0.788
3726.91	0.7887
3735.94	0.7889
3744.98	0.7892
3754.01	0.7894
3763.05	0.7895
3772.08	0.7897
3781.12	0.7899
3790.15	0.7912
3799.19	0.7924
3808.22	0.7927
3817.25	0.7925
3826.29	0.7921
3835.32	0.7908
3844.36	0.7894
3853.39	0.7876
3862.43	0.786
3871.46	0.7846
3880.5	0.7837
3889.53	0.7834
3898.56	0.7829
3907.6	0.7823
3916.63	0.7816
3925.67	0.781
3934.7	0.78
3943.74	0.7789
3952.77	0.7773
3961.8	0.7751
3970.84	0.7733
3979.87	0.7725
3988.91	0.772
3997.94	0.772
4006.98	0.7729
