Infrared Spectrum: ADENINE, 3-BENZYL-2-METHYL-, HYDROBROMIDE
Formula: C13 H14 Br N5
State: SOLID (1 mg / 650 mg KBr DISC)
Class: COBLENTZ III
Instrument: PERKIN-ELMER 221 (GRATING)
Instrument parameters: FILTER CHANGES AT 2490, 980 CM^-^1, GRATING FOR 4000-1428 CM^-^1, NaCl PRISM FOR 1428-650 CM^-^1
Sampling: TRANSMISSION
Resolution: 4
Origin: SOUTHERN RESEARCH INST.
1/CM	TRANSMITTANCE
596.781	0.727
606.438	0.726
616.094	0.717
625.751	0.713
635.408	0.716
645.064	0.793
654.721	0.811
664.378	0.812
674.034	0.785
683.691	0.811
693.348	0.775
703.004	0.524
712.661	0.735
722.317	0.848
731.974	0.874
741.631	0.877
751.287	0.862
760.944	0.766
770.601	0.688
780.257	0.745
789.914	0.851
799.571	0.899
809.227	0.914
818.884	0.919
828.541	0.921
838.197	0.919
847.854	0.917
857.511	0.913
867.167	0.881
876.824	0.866
886.481	0.915
896.137	0.914
905.794	0.895
915.451	0.896
925.107	0.903
934.764	0.891
944.421	0.867
954.077	0.887
963.734	0.862
973.39	0.833
983.047	0.821
992.704	0.798
1002.36	0.8
1012.02	0.853
1021.67	0.822
1031.33	0.803
1040.99	0.835
1050.64	0.781
1060.3	0.784
1069.96	0.839
1079.61	0.802
1089.27	0.862
1098.93	0.84
1108.58	0.839
1118.24	0.838
1127.9	0.837
1137.55	0.846
1147.21	0.846
1156.87	0.836
1166.52	0.826
1176.18	0.796
1185.84	0.787
1195.49	0.777
1205.15	0.686
1214.81	0.66
1224.46	0.53
1234.12	0.689
1243.78	0.773
1253.43	0.817
1263.09	0.815
1272.75	0.81
1282.4	0.801
1292.06	0.793
1301.72	0.773
1311.37	0.724
1321.03	0.734
1330.69	0.665
1340.34	0.673
1350	0.799
1359.66	0.779
1369.31	0.716
1378.97	0.67
1388.63	0.651
1398.28	0.576
1407.94	0.597
1417.6	0.563
1427.25	0.382
1436.91	0.311
1446.57	0.601
1456.22	0.533
1465.88	0.604
1475.54	0.618
1485.19	0.773
1494.85	0.755
1504.51	0.828
1514.16	0.498
1523.82	0.712
1533.48	0.862
1543.13	0.857
1552.79	0.841
1562.45	0.823
1572.1	0.792
1581.76	0.478
1591.42	0.577
1601.07	0.715
1610.73	0.447
1620.39	0.467
1630.04	0.704
1639.7	0.711
1649.36	0.604
1659.01	0.175
1668.67	0.128
1678.33	0.406
1687.98	0.617
1697.64	0.747
1707.3	0.819
1716.95	0.862
1726.61	0.865
1736.27	0.893
1745.92	0.895
1755.58	0.898
1765.24	0.911
1774.89	0.909
1784.55	0.907
1794.21	0.907
1803.86	0.901
1813.52	0.89
1823.18	0.889
1832.83	0.907
1842.49	0.916
1852.15	0.919
1861.8	0.919
1871.46	0.919
1881.12	0.918
1890.77	0.918
1900.43	0.916
1910.09	0.915
1919.74	0.913
1929.4	0.909
1939.06	0.904
1948.71	0.901
1958.37	0.899
1968.03	0.898
1977.68	0.896
1987.34	0.896
1997	0.895
2006.65	0.897
2016.31	0.898
2025.97	0.896
2035.62	0.895
2045.28	0.893
2054.94	0.893
2064.59	0.893
2074.25	0.893
2083.91	0.893
2093.56	0.893
2103.22	0.893
2112.88	0.893
2122.53	0.893
2132.19	0.893
2141.85	0.893
2151.5	0.893
2161.16	0.893
2170.82	0.893
2180.47	0.893
2190.13	0.892
2199.79	0.892
2209.44	0.892
2219.1	0.892
2228.76	0.892
2238.41	0.891
2248.07	0.89
2257.73	0.888
2267.38	0.888
2277.04	0.887
2286.7	0.885
2296.35	0.883
2306.01	0.885
2315.67	0.885
2325.32	0.882
2334.98	0.88
2344.64	0.878
2354.29	0.877
2363.95	0.877
2373.61	0.877
2383.26	0.878
2392.92	0.877
2402.58	0.873
2412.23	0.87
2421.89	0.869
2431.55	0.866
2441.2	0.864
2450.86	0.863
2460.51	0.864
2470.17	0.865
2479.83	0.866
2489.48	0.862
2499.14	0.855
2508.8	0.846
2518.45	0.837
2528.11	0.832
2537.77	0.827
2547.42	0.822
2557.08	0.808
2566.74	0.814
2576.39	0.826
2586.05	0.828
2595.71	0.827
2605.36	0.824
2615.02	0.813
2624.68	0.808
2634.33	0.796
2643.99	0.78
2653.65	0.779
2663.3	0.777
2672.96	0.776
2682.62	0.776
2692.27	0.775
2701.93	0.769
2711.59	0.75
2721.24	0.744
2730.9	0.735
2740.56	0.727
2750.21	0.719
2759.87	0.704
2769.53	0.697
2779.18	0.673
2788.84	0.659
2798.5	0.641
2808.15	0.616
2817.81	0.594
2827.47	0.587
2837.12	0.588
2846.78	0.583
2856.44	0.623
2866.09	0.659
2875.75	0.66
2885.41	0.644
2895.06	0.614
2904.72	0.604
2914.38	0.584
2924.03	0.571
2933.69	0.567
2943.35	0.563
2953	0.559
2962.66	0.547
2972.32	0.528
2981.97	0.501
2991.63	0.488
3001.29	0.486
3010.94	0.486
3020.6	0.487
3030.26	0.489
3039.91	0.489
3049.57	0.485
3059.23	0.442
3068.88	0.368
3078.54	0.455
3088.2	0.486
3097.85	0.452
3107.51	0.396
3117.17	0.344
3126.82	0.322
3136.48	0.307
3146.14	0.302
3155.79	0.357
3165.45	0.418
3175.11	0.484
3184.76	0.52
3194.42	0.538
3204.08	0.56
3213.73	0.567
3223.39	0.559
3233.05	0.556
3242.7	0.563
3252.36	0.57
3262.02	0.563
3271.67	0.515
3281.33	0.481
3290.99	0.487
3300.64	0.498
3310.3	0.508
3319.96	0.519
3329.61	0.537
3339.27	0.562
3348.93	0.603
3358.58	0.636
3368.24	0.658
3377.9	0.671
3387.55	0.677
3397.21	0.68
3406.87	0.683
3416.52	0.688
3426.18	0.694
3435.84	0.698
3445.49	0.707
3455.15	0.713
3464.81	0.724
3474.46	0.732
3484.12	0.735
3493.78	0.738
3503.43	0.746
3513.09	0.749
3522.75	0.758
3532.4	0.767
3542.06	0.781
3551.72	0.79
3561.37	0.792
3571.03	0.795
3580.69	0.808
3590.34	0.813
3600	0.824
3609.66	0.84
3619.31	0.846
3628.97	0.853
3638.63	0.859
3648.28	0.862
3657.94	0.865
3667.6	0.866
3677.25	0.868
3686.91	0.868
3696.57	0.867
3706.22	0.866
3715.88	0.865
3725.54	0.86
3735.19	0.856
3744.85	0.857
3754.51	0.86
3764.16	0.868
3773.82	0.871
3783.48	0.869
3793.13	0.869
3802.79	0.866
3812.45	0.864
3822.1	0.862
3831.76	0.862
3841.42	0.861
3851.07	0.861
3860.73	0.86
3870.39	0.859
3880.04	0.859
3889.7	0.859
3899.36	0.86
3909.01	0.861
3918.67	0.861
3928.33	0.862
3937.98	0.862
3947.64	0.862
3957.3	0.862
3966.95	0.861
3976.61	0.861
3986.27	0.861
3995.92	0.861
