Infrared Spectrum: 1,1'-BIS(DIMETHYLETHOXYSILANYL) FERROCENE
Formula: C18 H30 O2 Si2 Fe
State: LIQUID
Class: COBLENTZ
Instrument: Not specified, most likely a prism, grating, or hybrid spectrometer.
Sampling: TRANSMISSION
Path length: CAPILLARY
Resolution: 4
Origin: WYANDOTTE CHEMICALS CORP., WYANDOTTE, MICHIGAN, USA
MICROMETERS	TRANSMITTANCE
2.046	0.948
2.08579	0.95
2.12558	0.943
2.16537	0.928
2.20517	0.91
2.24496	0.933
2.28475	0.935
2.32454	0.935
2.36433	0.928
2.40412	0.918
2.44391	0.908
2.4837	0.918
2.5235	0.945
2.56329	0.943
2.60308	0.943
2.64287	0.931
2.68266	0.933
2.72245	0.941
2.76224	0.938
2.80204	0.935
2.84183	0.928
2.88162	0.93
2.92141	0.928
2.9612	0.931
3.00099	0.93
3.04078	0.926
3.08058	0.916
3.12037	0.906
3.16016	0.895
3.19995	0.759
3.23974	0.686
3.27953	0.818
3.31932	0.514
3.35911	0.179
3.39891	0.47
3.4387	0.375
3.47849	0.46
3.51828	0.739
3.55807	0.848
3.59786	0.87
3.63765	0.86
3.67745	0.867
3.71724	0.93
3.75703	0.931
3.79682	0.931
3.83661	0.93
3.8764	0.94
3.91619	0.945
3.95599	0.948
3.99578	0.95
4.03557	0.933
4.07536	0.94
4.11515	0.938
4.15494	0.933
4.19473	0.941
4.23452	0.936
4.27432	0.953
4.31411	0.966
4.3539	0.961
4.39369	0.958
4.43348	0.94
4.47327	0.931
4.51306	0.938
4.55286	0.935
4.59265	0.93
4.63244	0.925
4.67223	0.93
4.71202	0.936
4.75181	0.94
4.7916	0.94
4.8314	0.926
4.87119	0.926
4.91098	0.933
4.95077	0.926
4.99056	0.931
5.03035	0.936
5.07014	0.928
5.10993	0.92
5.14973	0.923
5.18952	0.918
5.22931	0.908
5.2691	0.906
5.30889	0.897
5.34868	0.906
5.38847	0.921
5.42827	0.913
5.46806	0.898
5.50785	0.887
5.54764	0.878
5.58743	0.878
5.62722	0.87
5.66701	0.863
5.70681	0.855
5.7466	0.848
5.78639	0.845
5.82618	0.84
5.86597	0.833
5.90576	0.822
5.94555	0.818
5.98534	0.827
6.02514	0.82
6.06493	0.817
6.10472	0.842
6.14451	0.865
6.1843	0.875
6.22409	0.878
6.26388	0.883
6.30368	0.88
6.34347	0.87
6.38326	0.872
6.42305	0.87
6.46284	0.867
6.50263	0.868
6.54242	0.858
6.58222	0.857
6.62201	0.84
6.6618	0.817
6.70159	0.729
6.74138	0.742
6.78117	0.769
6.82096	0.73
6.86075	0.641
6.90055	0.561
6.94034	0.589
6.98013	0.503
7.01992	0.476
7.05971	0.569
7.0995	0.539
7.13929	0.506
7.17909	0.342
7.21888	0.456
7.25867	0.627
7.29846	0.483
7.33825	0.581
7.37804	0.734
7.41783	0.777
7.45763	0.79
7.49742	0.797
7.53721	0.797
7.577	0.789
7.61679	0.754
7.65658	0.654
7.69637	0.621
7.73616	0.641
7.77596	0.696
7.81575	0.709
7.85554	0.677
7.89533	0.509
7.93512	0.186
7.97491	0.053
8.0147	0.164
8.0545	0.563
8.09429	0.679
8.13408	0.745
8.17387	0.76
8.21366	0.764
8.25345	0.762
8.29324	0.75
8.33304	0.735
8.37283	0.689
8.41262	0.504
8.45241	0.35
8.4922	0.31
8.53199	0.116
8.57178	0.058
8.61157	0.174
8.65137	0.355
8.69116	0.448
8.73095	0.491
8.77074	0.486
8.81053	0.425
8.85032	0.323
8.89011	0.205
8.92991	0.107
8.9697	0.059
9.00949	0.048
9.04928	0.066
9.08907	0.116
9.12886	0.121
9.16865	0.069
9.20845	0.054
9.24824	0.054
9.28803	0.069
9.32782	0.119
9.36761	0.207
9.4074	0.303
9.44719	0.335
9.48698	0.393
9.52678	0.46
9.56657	0.353
9.60636	0.102
9.64615	0.131
9.68594	0.357
9.72573	0.451
9.76552	0.556
9.80532	0.651
9.84511	0.689
9.8849	0.717
9.92469	0.735
9.96448	0.742
10.0043	0.759
10.0441	0.765
10.0839	0.762
10.1236	0.764
10.1634	0.755
10.2032	0.749
10.243	0.74
10.2828	0.72
10.3226	0.691
10.3624	0.647
10.4022	0.576
10.442	0.476
10.4818	0.332
10.5216	0.212
10.5614	0.139
10.6011	0.131
10.6409	0.149
10.6807	0.177
10.7205	0.217
10.7603	0.264
10.8001	0.335
10.8399	0.428
10.8797	0.536
10.9195	0.601
10.9593	0.636
10.9991	0.631
11.0388	0.571
11.0786	0.451
11.1184	0.39
11.1582	0.353
11.198	0.393
11.2378	0.5
11.2776	0.601
11.3174	0.647
11.3572	0.666
11.397	0.656
11.4368	0.632
11.4766	0.578
11.5163	0.5
11.5561	0.421
11.5959	0.405
11.6357	0.436
11.6755	0.471
11.7153	0.485
11.7551	0.456
11.7949	0.408
11.8347	0.333
11.8745	0.277
11.9143	0.227
11.954	0.177
11.9938	0.141
12.0336	0.101
12.0734	0.073
12.1132	0.058
12.153	0.054
12.1928	0.056
12.2326	0.054
12.2724	0.054
12.3122	0.054
12.352	0.054
12.3918	0.054
12.4315	0.061
12.4713	0.074
12.5111	0.099
12.5509	0.139
12.5907	0.167
12.6305	0.176
12.6703	0.139
12.7101	0.088
12.7499	0.073
12.7897	0.073
12.8295	0.076
12.8693	0.086
12.909	0.106
12.9488	0.152
12.9886	0.224
13.0284	0.337
13.0682	0.423
13.108	0.488
13.1478	0.551
13.1876	0.591
13.2274	0.611
13.2672	0.627
13.307	0.636
13.3467	0.636
13.3865	0.626
13.4263	0.616
13.4661	0.591
13.5059	0.574
13.5457	0.559
13.5855	0.548
13.6253	0.538
13.6651	0.534
13.7049	0.524
13.7447	0.518
13.7845	0.504
13.8242	0.498
13.864	0.503
13.9038	0.511
13.9436	0.531
13.9834	0.549
14.0232	0.581
14.063	0.604
14.1028	0.632
14.1426	0.657
14.1824	0.681
14.2222	0.699
14.2619	0.717
14.3017	0.727
14.3415	0.735
14.3813	0.74
14.4211	0.744
14.4609	0.745
14.5007	0.739
14.5405	0.732
14.5803	0.727
14.6201	0.717
14.6599	0.714
14.6997	0.712
14.7394	0.722
14.7792	0.734
14.819	0.745
14.8588	0.759
14.8986	0.765
14.9384	0.769
14.9782	0.765
15.018	0.75
15.0578	0.732
15.0976	0.717
15.1374	0.707
15.1771	0.686
15.2169	0.649
15.2567	0.614
15.2965	0.583
15.3363	0.553
15.3761	0.543
15.4159	0.539
15.4557	0.546
15.4955	0.561
15.5353	0.586
15.5751	0.611
15.6149	0.637
15.6546	0.669
15.6944	0.697
15.7342	0.72
15.774	0.73
15.8138	0.744
15.8536	0.75
15.8934	0.75
15.9332	0.749
15.973	0.735
16.0128	0.735
