Infrared Spectrum: TOLUENE, 2,5-DIAMINE-, DIHYDROCHLORIDE
Formula: C7 H12 Cl2 N2
State: SOLID (SPLIT MULL)
Class: COBLENTZ III
Instrument: DOW KBr FOREPRISM-GRATING
Instrument parameters: BLAZED AT 3.5, 12.0, 20.0 MICRON AND CHANGED AT 5.0, 7.5, 14.9 MICRON
Sampling: TRANSMISSION
Resolution: 2
Origin: DOW CHEMICAL COMPANY
1/CM	TRANSMITTANCE
3810	0.5315
3801	0.5341
3792	0.5367
3783	0.5383
3774	0.5399
3765	0.5425
3756	0.546
3747	0.5495
3738	0.5531
3729	0.5566
3720	0.5598
3711	0.5625
3702	0.5656
3693	0.5695
3684	0.572
3675	0.5821
3666	0.5936
3657	0.5839
3648	0.5833
3639	0.5846
3630	0.5862
3621	0.5885
3612	0.5908
3603	0.5931
3594	0.5956
3585	0.5982
3576	0.6006
3567	0.6014
3558	0.6022
3549	0.6025
3540	0.6027
3531	0.6029
3522	0.6032
3513	0.6031
3504	0.6028
3495	0.6025
3486	0.6022
3477	0.602
3468	0.6022
3459	0.6023
3450	0.6026
3441	0.6027
3432	0.6029
3423	0.606
3414	0.6095
3405	0.613
3396	0.6167
3387	0.6205
3378	0.6243
3369	0.6286
3360	0.6334
3351	0.6382
3342	0.6438
3333	0.6496
3324	0.6561
3315	0.6644
3306	0.6724
3297	0.6794
3288	0.6835
3279	0.6857
3270	0.6871
3261	0.6881
3252	0.6878
3243	0.6868
3234	0.6855
3225	0.681
3216	0.6751
3207	0.665
3198	0.6428
3189	0.6296
3180	0.6148
3171	0.5952
3162	0.5671
3153	0.5383
3144	0.5052
3135	0.4742
3126	0.4464
3117	0.4195
3108	0.3878
3099	0.362
3090	0.3509
3081	0.3518
3072	0.3534
3063	0.3544
3054	0.343
3045	0.3264
3036	0.3091
3027	0.2945
3018	0.2799
3009	0.2671
3000	0.2545
2991	0.2416
2982	0.2285
2973	0.2163
2964	0.2048
2955	0.1945
2946	0.1851
2937	0.1757
2928	0.1682
2919	0.1635
2910	0.1591
2901	0.1545
2892	0.15
2883	0.1454
2874	0.1413
2865	0.1372
2856	0.1332
2847	0.1305
2838	0.1292
2829	0.1278
2820	0.1278
2811	0.1284
2802	0.1289
2793	0.1323
2784	0.1361
2775	0.1411
2766	0.1475
2757	0.1556
2748	0.1646
2739	0.1764
2730	0.1883
2721	0.2013
2712	0.215
2703	0.2293
2694	0.2427
2685	0.255
2676	0.2688
2667	0.2812
2658	0.2875
2649	0.2892
2640	0.2858
2631	0.2693
2622	0.2533
2613	0.2366
2604	0.2245
2595	0.2167
2586	0.2116
2577	0.209
2568	0.208
2559	0.2125
2550	0.2229
2541	0.2334
2532	0.2441
2523	0.256
2514	0.2729
2505	0.2893
2496	0.3047
2487	0.32
2478	0.3338
2469	0.3466
2460	0.3595
2451	0.3724
2442	0.3855
2433	0.3984
2424	0.411
2415	0.4236
2406	0.436
2397	0.4458
2388	0.4557
2379	0.4655
2370	0.4753
2361	0.4851
2352	0.4947
2343	0.503
2334	0.5114
2325	0.5197
2316	0.528
2307	0.5365
2298	0.5451
2289	0.5535
2280	0.5612
2271	0.5688
2262	0.5765
2253	0.584
2244	0.5918
2235	0.5996
2226	0.6075
2217	0.6152
2208	0.6231
2199	0.6308
2190	0.6385
2181	0.6461
2172	0.6539
2163	0.6614
2154	0.6683
2145	0.6751
2136	0.6821
2127	0.6886
2118	0.6945
2109	0.7003
2100	0.7049
2091	0.7095
2082	0.715
2073	0.7208
2064	0.7268
2055	0.7331
2046	0.7397
2037	0.7451
2028	0.7501
2019	0.7534
2010	0.7561
2001	0.7558
1992	0.7465
1983	0.7607
1974	0.7653
1965	0.7697
1956	0.7731
1947	0.7761
1938	0.7786
1929	0.7807
1920	0.7821
1911	0.7828
1902	0.7801
1893	0.7747
1884	0.774
1875	0.7687
1866	0.769
1857	0.776
1848	0.7811
1839	0.7846
1830	0.7875
1821	0.7892
1812	0.7907
1803	0.7911
1794	0.7924
1785	0.7945
1776	0.7968
1767	0.801
1758	0.8051
1749	0.8061
1740	0.8039
1731	0.8031
1722	0.7968
1713	0.7997
1704	0.8233
1695	0.8335
1686	0.8385
1677	0.8408
1668	0.8414
1659	0.8398
1650	0.8328
1641	0.8218
1632	0.8101
1623	0.8004
1614	0.7854
1605	0.7419
1596	0.6754
1587	0.5975
1578	0.5018
1569	0.4077
1560	0.3696
1551	0.1848
1542	0.2305
1533	0.2043
1524	0.3448
1515	0.4056
1506	0.1879
1497	0.268
1488	0.3966
1479	0.4742
1470	0.5312
1461	0.5619
1452	0.5835
1443	0.6075
1434	0.6317
1425	0.6383
1416	0.6415
1407	0.6554
1398	0.6668
1389	0.6765
1380	0.6824
1371	0.6844
1362	0.6831
1353	0.653
1344	0.5848
1335	0.654
1326	0.6578
1317	0.586
1308	0.5081
1299	0.6346
1290	0.6474
1281	0.6726
1272	0.7018
1263	0.6805
1254	0.6795
1245	0.7169
1236	0.74
1227	0.7482
1218	0.7376
1209	0.7207
1200	0.6908
1191	0.5356
1182	0.7032
1173	0.7154
1164	0.7182
1155	0.7028
1146	0.7
1137	0.6787
1128	0.5415
1119	0.6284
1110	0.6535
1101	0.6737
1092	0.696
1083	0.7037
1074	0.7036
1065	0.7071
1056	0.6983
1047	0.6757
1038	0.6983
1029	0.7069
1020	0.6951
1011	0.7385
1002	0.7649
993	0.7711
984	0.7769
975	0.7801
966	0.7751
957	0.773
948	0.7744
939	0.7345
930	0.7671
921	0.7972
912	0.7965
903	0.7999
894	0.8006
885	0.7997
876	0.7803
867	0.573
858	0.7971
849	0.8098
840	0.8025
831	0.8075
822	0.7954
813	0.7646
804	0.4793
795	0.7862
786	0.8099
777	0.8035
768	0.7922
759	0.7355
750	0.7915
741	0.7958
732	0.7711
723	0.4851
714	0.7456
705	0.805
696	0.7928
687	0.8126
678	0.8378
669	0.8324
660	0.8525
651	0.8543
642	0.8555
633	0.8543
624	0.8504
615	0.8482
606	0.8471
597	0.8473
588	0.8458
579	0.8342
570	0.7849
561	0.8075
552	0.4444
543	0.793
534	0.8124
525	0.8125
516	0.8104
507	0.8069
498	0.7988
489	0.7946
480	0.7939
471	0.7944
462	0.7925
453	0.7841
