Infrared Spectrum: Piperazine compound with citric acid
Formula: C10 H18 N2 O7
State: SOLID (SPLIT MULL), FLUOROLUBE FOR 3800-1330 CM^-^1, NUJOL FOR 1330-400 CM^-^1
Class: COBLENTZ III
Instrument: DOW KBr FOREPRISM-GRATING
Instrument parameters: BLAZED AT 3.5, 12.0, 20.0 MICRON AND CHANGED AT 5.0, 7.5, 14.9 MICRON
Sampling: TRANSMISSION
Resolution: 2
Origin: DOW CHEMICAL COMPANY
1/CM	TRANSMITTANCE
3798	0.8928
3789	0.8925
3780	0.8921
3771	0.8918
3762	0.8918
3753	0.8918
3744	0.8918
3735	0.8921
3726	0.8925
3717	0.8924
3708	0.892
3699	0.8894
3690	0.8856
3681	0.885
3672	0.884
3663	0.8815
3654	0.8766
3645	0.8675
3636	0.858
3627	0.8484
3618	0.8405
3609	0.8321
3600	0.8235
3591	0.815
3582	0.8076
3573	0.7875
3564	0.7897
3555	0.7887
3546	0.7851
3537	0.7798
3528	0.7721
3519	0.7601
3510	0.7465
3501	0.7331
3492	0.7196
3483	0.7062
3474	0.6946
3465	0.6855
3456	0.6755
3447	0.6665
3438	0.6601
3429	0.6548
3420	0.6497
3411	0.6469
3402	0.6462
3393	0.6472
3384	0.6487
3375	0.6491
3366	0.6497
3357	0.65
3348	0.6503
3339	0.6504
3330	0.6504
3321	0.6504
3312	0.6501
3303	0.6498
3294	0.6488
3285	0.6478
3276	0.6475
3267	0.6474
3258	0.6472
3249	0.6471
3240	0.6474
3231	0.6475
3222	0.6475
3213	0.6475
3204	0.6478
3195	0.6478
3186	0.6475
3177	0.6462
3168	0.644
3159	0.6411
3150	0.6381
3141	0.6347
3132	0.6312
3123	0.6262
3114	0.6197
3105	0.611
3096	0.6023
3087	0.5922
3078	0.5801
3069	0.5675
3060	0.5538
3051	0.5387
3042	0.5223
3033	0.5015
3024	0.4781
3015	0.4576
3006	0.4474
2997	0.445
2988	0.4441
2979	0.4406
2970	0.437
2961	0.4347
2952	0.4381
2943	0.4433
2934	0.4442
2925	0.4449
2916	0.4453
2907	0.4453
2898	0.4449
2889	0.444
2880	0.441
2871	0.4351
2862	0.4283
2853	0.4215
2844	0.4152
2835	0.4095
2826	0.4024
2817	0.3949
2808	0.3866
2799	0.3747
2790	0.3625
2781	0.3514
2772	0.3416
2763	0.3341
2754	0.3273
2745	0.3229
2736	0.3208
2727	0.3195
2718	0.3185
2709	0.3178
2700	0.317
2691	0.3166
2682	0.3161
2673	0.3151
2664	0.3166
2655	0.3195
2646	0.3206
2637	0.32
2628	0.3194
2619	0.3177
2610	0.3158
2601	0.3134
2592	0.3117
2583	0.3141
2574	0.3253
2565	0.3354
2556	0.3442
2547	0.3492
2538	0.3516
2529	0.3516
2520	0.348
2511	0.3389
2502	0.3236
2493	0.304
2484	0.284
2475	0.2684
2466	0.2582
2457	0.2527
2448	0.2503
2439	0.2525
2430	0.26
2421	0.2687
2412	0.2793
2403	0.2906
2394	0.3024
2385	0.3144
2376	0.324
2367	0.3294
2358	0.3328
2349	0.3387
2340	0.348
2331	0.3592
2322	0.3725
2313	0.3892
2304	0.4048
2295	0.4158
2286	0.426
2277	0.4367
2268	0.4472
2259	0.4579
2250	0.4637
2241	0.461
2232	0.458
2223	0.4572
2214	0.464
2205	0.4825
2196	0.4951
2187	0.5051
2178	0.5146
2169	0.5238
2160	0.5321
2151	0.5403
2142	0.5481
2133	0.5548
2124	0.5616
2115	0.5678
2106	0.5735
2097	0.5785
2088	0.5836
2079	0.5887
2070	0.5938
2061	0.5988
2052	0.6027
2043	0.6053
2034	0.6073
2025	0.61
2016	0.6124
2007	0.6134
1998	0.6136
1989	0.6129
1980	0.6118
1971	0.6099
1962	0.6103
1953	0.6135
1944	0.6188
1935	0.6243
1926	0.6322
1917	0.6418
1908	0.6518
1899	0.6621
1890	0.6728
1881	0.6831
1872	0.693
1863	0.7018
1854	0.7084
1845	0.7119
1836	0.714
1827	0.716
1818	0.7178
1809	0.7198
1800	0.7228
1791	0.7235
1782	0.7221
1773	0.7192
1764	0.7137
1755	0.6922
1746	0.6575
1737	0.562
1728	0.3158
1719	0.2952
1710	0.3426
1701	0.4002
1692	0.4407
1683	0.4799
1674	0.5097
1665	0.4453
1656	0.3518
1647	0.3664
1638	0.3662
1629	0.3126
1620	0.3191
1611	0.356
1602	0.3526
1593	0.2233
1584	0.1352
1575	0.0839
1566	0.0631
1557	0.085
1548	0.114
1539	0.1558
1530	0.2281
1521	0.3038
1512	0.3368
1503	0.3382
1494	0.3355
1485	0.3514
1476	0.3697
1467	0.37
1458	0.2463
1449	0.2974
1440	0.2784
1431	0.2805
1422	0.3064
1413	0.3004
1404	0.2822
1395	0.1974
1386	0.1228
1377	0.1486
1368	0.1555
1359	0.1546
1350	0.2114
1341	0.3057
1332	0.3274
1323	0.2963
1314	0.2854
1305	0.3479
1296	0.3786
1287	0.395
1278	0.3912
1269	0.376
1260	0.4351
1251	0.4189
1242	0.3372
1233	0.361
1224	0.3482
1215	0.3306
1206	0.3032
1197	0.2194
1188	0.36
1179	0.4702
1170	0.5848
1161	0.5967
1152	0.6496
1143	0.6656
1134	0.6661
1125	0.708
1116	0.7057
1107	0.6889
1098	0.5437
1089	0.6062
1080	0.6654
1071	0.6571
1062	0.6818
1053	0.7019
1044	0.7022
1035	0.6818
1026	0.6407
1017	0.6515
1008	0.6166
999	0.6588
990	0.5793
981	0.7
972	0.7188
963	0.7467
954	0.7618
945	0.7121
936	0.7245
927	0.7718
918	0.7833
909	0.7757
900	0.7603
891	0.7087
882	0.7639
873	0.8144
864	0.8431
855	0.8482
846	0.7653
837	0.7517
828	0.7898
819	0.7925
810	0.7882
801	0.8387
792	0.8398
783	0.8382
774	0.849
765	0.8327
756	0.8291
747	0.8268
738	0.8151
729	0.8035
720	0.7832
711	0.8294
702	0.8292
693	0.8097
684	0.8086
675	0.8137
666	0.7555
657	0.5774
648	0.6541
639	0.5943
630	0.6728
621	0.7514
612	0.7515
603	0.4248
594	0.6298
585	0.7643
576	0.7864
567	0.8025
558	0.7726
549	0.7528
540	0.7407
531	0.7647
522	0.7733
513	0.771
504	0.7696
495	0.7695
486	0.7704
477	0.7718
468	0.7842
459	0.7839
450	0.7845
441	0.786
432	0.7849
423	0.7785
414	0.7678
405	0.7558
396	0.7447
387	0.735
