Infrared Spectrum: Thorium oxalate, dihydrate
Formula: C4 O8 Th  * 2 H2 O
State: SOLID (SPLIT MULL), FLUOROLUBE FOR 3800-1330 CM^-^1, NUJOL FOR 1330-400 CM^-^1
Class: COBLENTZ III
Instrument: BECKMAN IR-9 (GRATING)
Instrument parameters: ORDER CHANGES: 670, 1200, 2000 CM^-^1
Sampling: TRANSMISSION
Resolution: 2
Origin: DOW CHEMICAL COMPANY
1/CM	TRANSMITTANCE
3802	0.6818
3793	0.6845
3784	0.6875
3775	0.6904
3766	0.6934
3757	0.6971
3748	0.7008
3739	0.7038
3730	0.7061
3721	0.7083
3712	0.7096
3703	0.7108
3694	0.7089
3685	0.7068
3676	0.7018
3667	0.6957
3658	0.6883
3649	0.6793
3640	0.6646
3631	0.6418
3622	0.6215
3613	0.6
3604	0.5706
3595	0.5191
3586	0.4685
3577	0.439
3568	0.4018
3559	0.356
3550	0.3075
3541	0.2729
3532	0.2527
3523	0.2433
3514	0.2446
3505	0.2463
3496	0.2477
3487	0.249
3478	0.2501
3469	0.2511
3460	0.2522
3451	0.2517
3442	0.2509
3433	0.2497
3424	0.2502
3415	0.251
3406	0.2578
3397	0.2669
3388	0.277
3379	0.2893
3370	0.3019
3361	0.3146
3352	0.3262
3343	0.3371
3334	0.3477
3325	0.3579
3316	0.3682
3307	0.3793
3298	0.3925
3289	0.4057
3280	0.4193
3271	0.4331
3262	0.4448
3253	0.4519
3244	0.4555
3235	0.4565
3226	0.4569
3217	0.4567
3208	0.4548
3199	0.4523
3190	0.4495
3181	0.4543
3172	0.4655
3163	0.4756
3154	0.4851
3145	0.4944
3136	0.5027
3127	0.511
3118	0.5193
3109	0.5276
3100	0.5356
3091	0.5436
3082	0.5517
3073	0.5596
3064	0.5667
3055	0.5738
3046	0.5804
3037	0.5868
3028	0.591
3019	0.5937
3010	0.5952
3001	0.5962
2992	0.5972
2983	0.5977
2974	0.5986
2965	0.5999
2956	0.6019
2947	0.6041
2938	0.6121
2929	0.6196
2920	0.6277
2911	0.6364
2902	0.6445
2893	0.6508
2884	0.6561
2875	0.6621
2866	0.668
2857	0.6738
2848	0.6797
2839	0.685
2830	0.6897
2821	0.6943
2812	0.699
2803	0.7036
2794	0.7083
2785	0.7121
2776	0.7158
2767	0.7194
2758	0.723
2749	0.7265
2740	0.7301
2731	0.7337
2722	0.7369
2713	0.7403
2704	0.7436
2695	0.7467
2686	0.7496
2677	0.7524
2668	0.7551
2659	0.758
2650	0.7608
2641	0.7636
2632	0.7665
2623	0.7685
2614	0.77
2605	0.7715
2596	0.7731
2587	0.7745
2578	0.7761
2569	0.7768
2560	0.7776
2551	0.7786
2542	0.7794
2533	0.7799
2524	0.7805
2515	0.7808
2506	0.7807
2497	0.7805
2488	0.7803
2479	0.7805
2470	0.7807
2461	0.7808
2452	0.7811
2443	0.7805
2434	0.7795
2425	0.7796
2416	0.78
2407	0.7805
2398	0.7838
2389	0.7864
2380	0.7848
2371	0.7792
2362	0.7736
2353	0.7708
2344	0.768
2335	0.7651
2326	0.7632
2317	0.7612
2308	0.7594
2299	0.7589
2290	0.7588
2281	0.7591
2272	0.7608
2263	0.7658
2254	0.7711
2245	0.7765
2236	0.7821
2227	0.7883
2218	0.7946
2209	0.8008
2200	0.806
2191	0.8111
2182	0.8164
2173	0.821
2164	0.8251
2155	0.8291
2146	0.8332
2137	0.8373
2128	0.8415
2119	0.8451
2110	0.8487
2101	0.8521
2092	0.8556
2083	0.8589
2074	0.8625
2065	0.8662
2056	0.8685
2047	0.8703
2038	0.8721
2029	0.8731
2020	0.874
2011	0.8734
2002	0.8706
1993	0.8686
1984	0.8687
1975	0.8668
1966	0.8625
1957	0.8575
1948	0.8518
1939	0.8453
1930	0.8388
1921	0.8378
1912	0.8386
1903	0.8408
1894	0.8435
1885	0.8446
1876	0.8439
1867	0.8434
1858	0.843
1849	0.8414
1840	0.8387
1831	0.8346
1822	0.8299
1813	0.8225
1804	0.8111
1795	0.7965
1786	0.7764
1777	0.7567
1768	0.7276
1759	0.6832
1750	0.6278
1741	0.5422
1732	0.4489
1723	0.3303
1714	0.217
1705	0.1462
1696	0.076
1687	0.0386
1678	0.0255
1669	0.0201
1660	0.0172
1651	0.0164
1642	0.0167
1633	0.0196
1624	0.0357
1615	0.0427
1606	0.0764
1597	0.1166
1588	0.1903
1579	0.2581
1570	0.3088
1561	0.3644
1552	0.4059
1543	0.4304
1534	0.4562
1525	0.4816
1516	0.5049
1507	0.5256
1498	0.5396
1489	0.545
1480	0.559
1471	0.5727
1462	0.5856
1453	0.5981
1444	0.6117
1435	0.6244
1426	0.6347
1417	0.6436
1408	0.6503
1399	0.653
1390	0.6511
1381	0.6342
1372	0.5551
1363	0.4528
1354	0.3169
1345	0.347
1336	0.3768
1327	0.3393
1318	0.1919
1309	0.2466
1300	0.52
1291	0.631
1282	0.6801
1273	0.7222
1264	0.7625
1255	0.7962
1246	0.8182
1237	0.8347
1228	0.8462
1219	0.8534
1210	0.8567
1201	0.8578
1192	0.8587
1183	0.8575
1174	0.8521
1165	0.8475
1156	0.8453
1147	0.8488
1138	0.8506
1129	0.8531
1120	0.8558
1111	0.8586
1102	0.8609
1093	0.8627
1084	0.8634
1075	0.8656
1066	0.8659
1057	0.8643
1048	0.8615
1039	0.8574
1030	0.8558
1021	0.8632
1012	0.873
1003	0.8781
994	0.8768
985	0.8682
976	0.858
967	0.8546
958	0.8558
949	0.8558
940	0.853
931	0.8471
922	0.844
913	0.8486
904	0.8424
895	0.8343
886	0.8349
877	0.8309
868	0.822
859	0.8151
850	0.8089
841	0.8032
832	0.7904
823	0.7392
814	0.4821
805	0.112
796	0.2348
787	0.5724
778	0.6324
769	0.6496
760	0.6447
751	0.6248
742	0.6127
733	0.5781
724	0.5712
715	0.6315
706	0.6606
697	0.6497
688	0.6177
679	0.5798
670	0.5493
661	0.548
652	0.5629
643	0.5775
634	0.5916
625	0.6019
616	0.6122
607	0.6218
598	0.629
589	0.6349
580	0.6358
571	0.6323
562	0.6267
553	0.6199
544	0.6118
535	0.6022
526	0.5885
517	0.5691
508	0.5376
499	0.4936
490	0.4298
481	0.3912
472	0.4248
463	0.4877
454	0.5164
445	0.5108
436	0.4912
427	0.4719
418	0.466
409	0.4748
