Infrared Spectrum: 1H-NAPHTH[1,2-d]IMIDAZOLE, 1-(P-ANISIDINO)-2-(P-METHOXYPHENYL)-
Formula: C25 H20 N3 O2
State: SOLID (KBr DISC)
Class: COBLENTZ III
Instrument: UNICAM SP-200
Sampling: TRANSMISSION
Resolution: 4
Origin: HUNGARIAN ACAD. OF SCI., VIA SCIENTIFIC DOC. CENTRE LTD.
1/CM	TRANSMITTANCE
650	0.755
661.137	0.749
672.275	0.749
683.412	0.745
694.549	0.717
705.687	0.79
716.824	0.747
727.961	0.766
739.098	0.727
750.236	0.6311
761.373	0.643
772.51	0.769
783.648	0.794
794.785	0.768
805.922	0.5811
817.06	0.326
828.197	0.358
839.334	0.4371
850.472	0.626
861.609	0.733
872.746	0.737
883.884	0.768
895.021	0.798
906.158	0.804
917.295	0.813
928.433	0.822
939.57	0.82
950.707	0.798
961.845	0.802
972.982	0.807
984.119	0.806
995.257	0.791
1006.39	0.719
1017.53	0.664
1028.67	0.386
1039.81	0.387
1050.94	0.666
1062.08	0.736
1073.22	0.75
1084.36	0.756
1095.49	0.742
1106.63	0.597
1117.77	0.631
1128.9	0.703
1140.04	0.721
1151.18	0.716
1162.32	0.619
1173.45	0.299
1184.59	0.509
1195.73	0.683
1206.87	0.628
1218	0.51
1229.14	0.31
1240.28	0.159
1251.41	0.132
1262.55	0.395
1273.69	0.539
1284.83	0.4071
1295.96	0.451
1307.1	0.462
1318.24	0.625
1329.38	0.712
1340.51	0.728
1351.65	0.759
1362.79	0.675
1373.93	0.539
1385.06	0.679
1396.2	0.699
1407.34	0.715
1418.47	0.666
1429.61	0.49
1440.75	0.425
1451.89	0.484
1463.02	0.356
1474.16	0.286
1485.3	0.384
1496.44	0.5
1507.57	0.1521
1518.71	0.298
1529.85	0.487
1540.98	0.631
1552.12	0.748
1563.26	0.76
1574.4	0.69
1585.53	0.674
1596.67	0.543
1607.81	0.454
1618.95	0.658
1630.08	0.756
1641.22	0.789
1652.36	0.81
1663.5	0.807
1674.63	0.804
1685.77	0.802
1696.91	0.804
1708.04	0.8
1719.18	0.798
1730.32	0.793
1741.46	0.8
1752.59	0.807
1763.73	0.816
1774.87	0.821
1786.01	0.824
1797.14	0.817
1808.28	0.813
1819.42	0.803
1830.55	0.8
1841.69	0.8
1852.83	0.805
1863.97	0.802
1875.1	0.795
1886.24	0.787
1897.38	0.79
1908.52	0.797
1919.65	0.797
1930.79	0.8
1941.93	0.796
1953.07	0.798
1964.2	0.798
1975.34	0.795
1986.48	0.791
1997.61	0.789
2008.75	0.7842
2019.89	0.7804
2031.03	0.7681
2042.16	0.765
2053.3	0.766
2064.44	0.7694
2075.58	0.775
2086.71	0.778
2097.85	0.781
2108.99	0.782
2120.12	0.781
2131.26	0.78
2142.4	0.778
2153.54	0.7773
2164.67	0.7677
2175.81	0.7678
2186.95	0.7703
2198.09	0.77
2209.22	0.768
2220.36	0.767
2231.5	0.767
2242.64	0.764
2253.77	0.7595
2264.91	0.757
2276.05	0.758
2287.18	0.758
2298.32	0.758
2309.46	0.759
2320.6	0.759
2331.73	0.758
2342.87	0.7572
2354.01	0.7523
2365.15	0.751
2376.28	0.7466
2387.42	0.742
2398.56	0.7391
2409.69	0.735
2420.83	0.735
2431.97	0.734
2443.11	0.7292
2454.24	0.7257
2465.38	0.7233
2476.52	0.722
2487.66	0.7223
2498.79	0.719
2509.93	0.7122
2521.07	0.709
2532.21	0.708
2543.34	0.705
2554.48	0.7059
2565.62	0.706
2576.75	0.703
2587.89	0.702
2599.03	0.703
2610.17	0.704
2621.3	0.703
2632.44	0.701
2643.58	0.6969
2654.72	0.6882
2665.85	0.687
2676.99	0.6805
2688.13	0.675
2699.27	0.6741
2710.4	0.673
2721.54	0.6671
2732.68	0.654
2743.81	0.6313
2754.95	0.5829
2766.09	0.5589
2777.23	0.5593
2788.36	0.5632
2799.5	0.568
2810.64	0.5544
2821.78	0.5222
2832.91	0.4908
2844.05	0.475
2855.19	0.4551
2866.32	0.4453
2877.46	0.4406
2888.6	0.439
2899.74	0.441
2910.87	0.441
2922.01	0.439
2933.15	0.4401
2944.29	0.4457
2955.42	0.4599
2966.56	0.4766
2977.7	0.4855
2988.84	0.4954
2999.97	0.5023
3011.11	0.5099
3022.25	0.5142
3033.38	0.5188
3044.52	0.5215
3055.66	0.521
3066.8	0.5154
3077.93	0.5068
3089.07	0.4946
3100.21	0.4866
3111.35	0.4777
3122.48	0.4752
3133.62	0.4795
3144.76	0.4853
3155.89	0.4988
3167.03	0.5154
3178.17	0.5279
3189.31	0.5478
3200.44	0.5598
3211.58	0.5679
3222.72	0.575
3233.86	0.5825
3244.99	0.5882
3256.13	0.597
3267.27	0.5994
3278.41	0.6077
3289.54	0.6132
3300.68	0.6212
3311.82	0.6306
3322.95	0.636
3334.09	0.6427
3345.23	0.6479
3356.37	0.6494
3367.5	0.652
3378.64	0.655
3389.78	0.657
3400.92	0.657
3412.05	0.658
3423.19	0.657
3434.33	0.657
3445.46	0.656
3456.6	0.655
3467.74	0.655
3478.88	0.6547
3490.01	0.6522
3501.15	0.651
3512.29	0.65
3523.43	0.643
3534.56	0.643
3545.7	0.644
3556.84	0.644
3567.98	0.643
3579.11	0.644
3590.25	0.645
3601.39	0.6462
3612.52	0.647
3623.66	0.6458
3634.8	0.6415
3645.94	0.6387
3657.07	0.6388
3668.21	0.639
3679.35	0.639
3690.49	0.6394
3701.62	0.639
3712.76	0.6385
3723.9	0.637
3735.03	0.6348
3746.17	0.629
3757.31	0.629
3768.45	0.6236
3779.58	0.621
3790.72	0.622
3801.86	0.623
3813	0.623
3824.13	0.622
3835.27	0.621
3846.41	0.6191
3857.55	0.6165
3868.68	0.614
3879.82	0.614
3890.96	0.615
3902.09	0.6154
3913.23	0.613
3924.37	0.613
3935.51	0.6118
3946.64	0.6093
3957.78	0.6087
3968.92	0.607
3980.06	0.606
3991.19	0.606
4002.33	0.6016
4013.47	0.6
4024.6	0.6
4035.74	0.599
4046.88	0.5995
4058.02	0.6
4069.15	0.601
4080.29	0.601
4091.43	0.6003
4102.57	0.6
4113.7	0.5983
4124.84	0.5954
4135.98	0.591
4147.12	0.59
4158.25	0.59
4169.39	0.593
4180.53	0.5901
4191.66	0.589
4202.8	0.59
4213.94	0.59
4225.08	0.589
4236.21	0.588
4247.35	0.5868
4258.49	0.586
4269.63	0.584
4280.76	0.5822
4291.9	0.582
4303.04	0.5812
4314.17	0.579
4325.31	0.5771
4336.45	0.5766
4347.59	0.577
4358.72	0.577
4369.86	0.577
4381	0.579
4392.14	0.58
4403.27	0.5758
4414.41	0.572
4425.55	0.572
4436.69	0.5718
4447.82	0.5682
4458.96	0.565
4470.1	0.565
4481.23	0.567
4492.37	0.567
4503.51	0.5656
4514.65	0.563
4525.78	0.562
4536.92	0.562
4548.06	0.5604
4559.2	0.56
4570.33	0.56
4581.47	0.56
4592.61	0.5607
4603.75	0.5608
4614.88	0.5582
4626.02	0.558
4637.16	0.5571
4648.29	0.558
4659.43	0.558
4670.57	0.5565
4681.71	0.554
4692.84	0.554
4703.98	0.556
4715.12	0.556
4726.26	0.556
4737.39	0.5543
4748.53	0.5508
4759.67	0.5497
4770.8	0.551
4781.94	0.552
4793.08	0.551
4804.22	0.55
4815.35	0.55
4826.49	0.549
4837.63	0.5475
4848.77	0.547
4859.9	0.547
4871.04	0.546
4882.18	0.544
4893.32	0.542
4904.45	0.542
4915.59	0.54
4926.73	0.5393
4937.86	0.537
4949	0.5352
4960.14	0.5337
