Infrared Spectrum: CINNAMIC ACID, SODIUM SALT
Formula: C9 H7 Na O2
State: SOLID (OIL MULL)
Class: COBLENTZ III
Instrument: BAIRD (PRISM)
Instrument parameters: NaCl PRISM
Sampling: TRANSMISSION
Resolution: 2
Origin: WYANDOTTE CHEMICALS CORP.
MICROMETERS	TRANSMITTANCE
2.014	0.526
2.05191	0.5549
2.08982	0.5753
2.12774	0.5958
2.16565	0.606
2.20356	0.611
2.24147	0.614
2.27938	0.618
2.3173	0.619
2.35521	0.6249
2.39312	0.63
2.43103	0.636
2.46894	0.6439
2.50686	0.654
2.54477	0.6608
2.58268	0.6719
2.62059	0.6779
2.6585	0.687
2.69642	0.6979
2.73433	0.704
2.77224	0.706
2.81015	0.7108
2.84806	0.711
2.88597	0.711
2.92389	0.71
2.9618	0.709
2.99971	0.7052
3.03762	0.704
3.07553	0.704
3.11345	0.699
3.15136	0.6942
3.18927	0.6901
3.22718	0.6879
3.26509	0.6849
3.30301	0.6381
3.34092	0.5332
3.37883	0.3308
3.41674	0.1168
3.45465	0.0412
3.49257	0.043
3.53048	0.0488
3.56839	0.1296
3.6063	0.5258
3.64421	0.6846
3.68213	0.7577
3.72004	0.761
3.75795	0.766
3.79586	0.77
3.83377	0.777
3.87169	0.7848
3.9096	0.7949
3.94751	0.805
3.98542	0.812
4.02333	0.8279
4.06125	0.8399
4.09916	0.843
4.13707	0.848
4.17498	0.849
4.21289	0.851
4.25081	0.8537
4.28872	0.8559
4.32663	0.858
4.36454	0.864
4.40245	0.869
4.44037	0.873
4.47828	0.8769
4.51619	0.886
4.5541	0.891
4.59201	0.894
4.62993	0.897
4.66784	0.899
4.70575	0.901
4.74366	0.904
4.78157	0.9059
4.81948	0.911
4.8574	0.9169
4.89531	0.9219
4.93322	0.9239
4.97113	0.924
5.00904	0.928
5.04696	0.929
5.08487	0.931
5.12278	0.933
5.16069	0.932
5.1986	0.925
5.23652	0.9243
5.27443	0.9332
5.31234	0.935
5.35025	0.9338
5.38816	0.9351
5.42608	0.94
5.46399	0.941
5.5019	0.9418
5.53981	0.946
5.57772	0.947
5.61564	0.953
5.65355	0.954
5.69146	0.955
5.72937	0.955
5.76728	0.954
5.8052	0.954
5.84311	0.9504
5.88102	0.9182
5.91893	0.8801
5.95684	0.8595
5.99476	0.8783
6.03267	0.887
6.07058	0.8211
6.10849	0.4901
6.1464	0.7078
6.18432	0.8427
6.22223	0.8154
6.26014	0.7671
6.29805	0.6496
6.33596	0.4567
6.37387	0.3016
6.41179	0.1943
6.4497	0.069
6.48761	0.0787
6.52552	0.2302
6.56343	0.3422
6.60135	0.4419
6.63926	0.5089
6.67717	0.4575
6.71508	0.4601
6.75299	0.5846
6.79091	0.5304
6.82882	0.2388
6.86673	0.19
6.90464	0.148
6.94255	0.313
6.98047	0.4124
7.01838	0.3814
7.05629	0.193
7.0942	0.0737
7.13211	0.0923
7.17003	0.1988
7.20794	0.2708
7.24585	0.2805
7.28376	0.2766
7.32167	0.3959
7.35959	0.4974
7.3975	0.6165
7.43541	0.6519
7.47332	0.667
7.51123	0.678
7.54915	0.7027
7.58706	0.715
7.62497	0.716
7.66288	0.7124
7.70079	0.702
7.73871	0.7024
7.77662	0.698
7.81453	0.7351
7.85244	0.7609
7.89035	0.7762
7.92827	0.7881
7.96618	0.793
8.00409	0.767
8.042	0.6578
8.07991	0.5954
8.11782	0.7457
8.15574	0.8
8.19365	0.807
8.23156	0.808
8.26947	0.798
8.30738	0.784
8.3453	0.7706
8.38321	0.7632
8.42112	0.796
8.45903	0.8149
8.49694	0.82
8.53486	0.8314
8.57277	0.8342
8.61068	0.823
8.64859	0.84
8.6865	0.844
8.72442	0.8452
8.76233	0.8633
8.80024	0.8732
8.83815	0.8832
8.87606	0.899
8.91398	0.904
8.95189	0.907
8.9898	0.9093
9.02771	0.9166
9.06562	0.923
9.10354	0.9317
9.14145	0.935
9.17936	0.9348
9.21727	0.9268
9.25518	0.9042
9.2931	0.7922
9.33101	0.694
9.36892	0.7648
9.40683	0.8543
9.44474	0.8767
9.48266	0.889
9.52057	0.892
9.55848	0.893
9.59639	0.897
9.6343	0.898
9.67222	0.897
9.71013	0.8851
9.74804	0.8382
9.78595	0.8455
9.82386	0.86
9.86178	0.8678
9.89969	0.8839
9.9376	0.895
9.97551	0.8961
10.0134	0.881
10.0513	0.8912
10.0892	0.8843
10.1272	0.8185
10.1651	0.7414
10.203	0.7082
10.2409	0.6764
10.2788	0.5383
10.3167	0.3864
10.3546	0.2683
10.3925	0.3069
10.4305	0.5519
10.4684	0.7086
10.5063	0.7834
10.5442	0.8123
10.5821	0.8341
10.62	0.8459
10.6579	0.852
10.6958	0.8607
10.7338	0.866
10.7717	0.869
10.8096	0.874
10.8475	0.8853
10.8854	0.894
10.9233	0.8919
10.9612	0.881
10.9991	0.8742
11.037	0.898
11.075	0.907
11.1129	0.912
11.1508	0.918
11.1887	0.921
11.2266	0.921
11.2645	0.921
11.3024	0.921
11.3403	0.9168
11.3783	0.8798
11.4162	0.7348
11.4541	0.5292
11.492	0.6386
11.5299	0.7891
11.5678	0.8624
11.6057	0.8964
11.6436	0.903
11.6815	0.907
11.7195	0.9046
11.7574	0.8947
11.7953	0.8868
11.8332	0.885
11.8711	0.892
11.909	0.9039
11.9469	0.911
11.9848	0.9167
12.0228	0.925
12.0607	0.9285
12.0986	0.93
12.1365	0.933
12.1744	0.933
12.2123	0.9353
12.2502	0.937
12.2881	0.937
12.3261	0.938
12.364	0.938
12.4019	0.938
12.4398	0.938
12.4777	0.938
12.5156	0.94
12.5535	0.94
12.5914	0.941
12.6293	0.94
12.6673	0.94
12.7052	0.938
12.7431	0.9359
12.781	0.9221
12.8189	0.8918
12.8568	0.8249
12.8947	0.5624
12.9326	0.349
12.9706	0.2672
13.0085	0.3337
13.0464	0.5676
13.0843	0.7223
13.1222	0.8023
13.1601	0.8538
13.198	0.8657
13.2359	0.8715
13.2739	0.8819
13.3118	0.8888
13.3497	0.893
13.3876	0.894
13.4255	0.893
13.4634	0.8917
13.5013	0.8865
13.5392	0.8759
13.5771	0.8659
13.6151	0.8501
13.653	0.8206
13.6909	0.7703
13.7288	0.6247
13.7667	0.4505
13.8046	0.3779
13.8425	0.4835
13.8804	0.5796
13.9184	0.6487
13.9563	0.6583
13.9942	0.6179
14.0321	0.5568
14.07	0.5095
14.1079	0.4968
14.1458	0.5473
14.1837	0.6346
14.2217	0.7192
14.2596	0.7595
14.2975	0.7763
14.3354	0.782
14.3733	0.7757
14.4112	0.7467
14.4491	0.6931
14.487	0.6309
14.5249	0.5656
14.5629	0.5049
14.6008	0.492
14.6387	0.507
14.6766	0.5726
14.7145	0.6595
14.7524	0.7351
14.7903	0.784
14.8282	0.8142
14.8662	0.833
14.9041	0.8449
14.942	0.8498
14.9799	0.855
15.0178	0.8512
15.0557	0.8409
15.0936	0.838
15.1315	0.84
15.1694	0.8444
15.2074	0.8493
15.2453	0.854
15.2832	0.855
15.3211	0.855
15.359	0.8522
15.3969	0.849
15.4348	0.8443
15.4727	0.8394
15.5107	0.8335
15.5486	0.8274
15.5865	0.821
15.6244	0.815
15.6623	0.8104
15.7002	0.8028
15.7381	0.7939
15.776	0.784
15.814	0.7781
15.8519	0.772
15.8898	0.766
15.9277	0.76
15.9656	0.754
