Infrared Spectrum: SODIUM DIPHENYLDIAZO-BIS-Alpha-NAPHTHYLAMINE SULFONATE
Formula: C32 H22 N6 O6 S2 Na2
State: SOLID (MINERAL OIL MULL)
Class: COBLENTZ
Instrument: Not specified, most likely a prism, grating, or hybrid spectrometer.
Sampling: TRANSMISSION
Resolution: 4
Origin: WYANDOTTE CHEMICALS CORP., WYANDOTTE, MICHIGAN, USA
MICROMETERS	TRANSMITTANCE
2.019	0.192
2.05615	0.201
2.0933	0.22
2.13045	0.231
2.1676	0.239
2.20475	0.242
2.2419	0.248
2.27904	0.253
2.31619	0.263
2.35334	0.281
2.39049	0.285
2.42764	0.284
2.46479	0.307
2.50194	0.318
2.53909	0.326
2.57624	0.34
2.61339	0.347
2.65054	0.361
2.68769	0.369
2.72484	0.364
2.76199	0.366
2.79913	0.349
2.83628	0.326
2.87343	0.285
2.91058	0.197
2.94773	0.201
2.98488	0.242
3.02203	0.274
3.05918	0.299
3.09633	0.319
3.13348	0.33
3.17063	0.329
3.20778	0.329
3.24493	0.344
3.28208	0.336
3.31922	0.318
3.35637	0.144
3.39352	0.02
3.43067	0.031
3.46782	0.032
3.50497	0.035
3.54212	0.135
3.57927	0.436
3.61642	0.523
3.65357	0.552
3.69072	0.552
3.72787	0.576
3.76502	0.582
3.80216	0.599
3.83931	0.611
3.87646	0.613
3.91361	0.628
3.95076	0.642
3.98791	0.656
4.02506	0.67
4.06221	0.687
4.09936	0.687
4.13651	0.694
4.17366	0.701
4.21081	0.708
4.24796	0.718
4.28511	0.686
4.32225	0.706
4.3594	0.731
4.39655	0.756
4.4337	0.759
4.47085	0.756
4.508	0.762
4.54515	0.763
4.5823	0.771
4.61945	0.791
4.6566	0.802
4.69375	0.809
4.7309	0.826
4.76805	0.824
4.8052	0.836
4.84234	0.843
4.87949	0.854
4.91664	0.852
4.95379	0.863
4.99094	0.86
5.02809	0.877
5.06524	0.878
5.10239	0.883
5.13954	0.875
5.17669	0.888
5.21384	0.894
5.25099	0.895
5.28814	0.895
5.32528	0.902
5.36243	0.916
5.39958	0.908
5.43673	0.93
5.47388	0.92
5.51103	0.902
5.54818	0.925
5.58533	0.909
5.62248	0.927
5.65963	0.931
5.69678	0.934
5.73393	0.92
5.77108	0.914
5.80823	0.875
5.84537	0.841
5.88252	0.819
5.91967	0.798
5.95682	0.812
5.99397	0.812
6.03112	0.756
6.06827	0.708
6.10542	0.704
6.14257	0.614
6.17972	0.273
6.21687	0.256
6.25402	0.159
6.29117	0.155
6.32832	0.327
6.36546	0.361
6.40261	0.411
6.43976	0.385
6.47691	0.534
6.51406	0.599
6.55121	0.613
6.58836	0.6
6.62551	0.543
6.66266	0.574
6.69981	0.602
6.73696	0.526
6.77411	0.268
6.81126	0.147
6.84841	0.158
6.88555	0.173
6.9227	0.319
6.95985	0.462
6.997	0.493
7.03415	0.478
7.0713	0.428
7.10845	0.358
7.1456	0.414
7.18275	0.428
7.2199	0.288
7.25705	0.195
7.2942	0.248
7.33135	0.239
7.36849	0.263
7.40564	0.268
7.44279	0.406
7.47994	0.555
7.51709	0.534
7.55424	0.45
7.59139	0.6
7.62854	0.701
7.66569	0.726
7.70284	0.768
7.73999	0.782
7.77714	0.802
7.81429	0.801
7.85144	0.779
7.88858	0.726
7.92573	0.621
7.96288	0.517
8.00003	0.51
8.03718	0.363
8.07433	0.175
8.11148	0.097
8.14863	0.059
8.18578	0.077
8.22293	0.215
8.26008	0.344
8.29723	0.332
8.33438	0.198
8.37153	0.259
8.40867	0.187
8.44582	0.071
8.48297	0.071
8.52012	0.147
8.55727	0.234
8.59442	0.346
8.63157	0.341
8.66872	0.366
8.70587	0.44
8.74302	0.464
8.78017	0.473
8.81732	0.487
8.85447	0.425
8.89161	0.363
8.92876	0.462
8.96591	0.535
9.00306	0.591
9.04021	0.614
9.07736	0.644
9.11451	0.653
9.15166	0.656
9.18881	0.635
9.22596	0.586
9.26311	0.465
9.30026	0.186
9.33741	0.049
9.37456	0.052
9.4117	0.141
9.44885	0.262
9.486	0.409
9.52315	0.498
9.5603	0.546
9.59745	0.621
9.6346	0.667
9.67175	0.7
9.7089	0.709
9.74605	0.714
9.7832	0.704
9.82035	0.714
9.8575	0.742
9.89465	0.765
9.93179	0.791
9.96894	0.777
10.0061	0.79
10.0432	0.815
10.0804	0.818
10.1175	0.819
10.1547	0.816
10.1918	0.826
10.229	0.83
10.2661	0.827
10.3033	0.826
10.3404	0.821
10.3776	0.805
10.4147	0.801
10.4519	0.81
10.489	0.796
10.5262	0.796
10.5633	0.799
10.6005	0.798
10.6376	0.79
10.6748	0.801
10.7119	0.816
10.7491	0.833
10.7862	0.84
10.8234	0.827
10.8605	0.801
10.8977	0.717
10.9348	0.785
10.972	0.854
11.0091	0.872
11.0463	0.875
11.0834	0.807
11.1206	0.784
11.1577	0.849
11.1949	0.883
11.232	0.905
11.2692	0.892
11.3063	0.905
11.3435	0.9
11.3806	0.891
11.4178	0.885
11.4549	0.888
11.4921	0.883
11.5292	0.878
11.5664	0.872
11.6035	0.857
11.6407	0.829
11.6778	0.815
11.715	0.819
11.7521	0.836
11.7893	0.835
11.8264	0.832
11.8636	0.804
11.9007	0.722
11.9379	0.572
11.975	0.486
12.0122	0.451
12.0493	0.411
12.0865	0.517
12.1236	0.638
12.1608	0.695
12.1979	0.714
12.235	0.731
12.2722	0.736
12.3093	0.751
12.3465	0.759
12.3836	0.759
12.4208	0.767
12.4579	0.765
12.4951	0.763
12.5322	0.765
12.5694	0.763
12.6065	0.76
12.6437	0.754
12.6808	0.75
12.718	0.69
12.7551	0.621
12.7923	0.647
12.8294	0.718
12.8666	0.739
12.9037	0.751
12.9409	0.75
12.978	0.75
13.0152	0.74
13.0523	0.714
13.0895	0.659
13.1266	0.563
13.1638	0.515
13.2009	0.521
13.2381	0.531
13.2752	0.478
13.3124	0.381
13.3495	0.338
13.3867	0.459
13.4238	0.569
13.461	0.641
13.4981	0.675
13.5353	0.692
13.5724	0.692
13.6096	0.704
13.6467	0.726
13.6839	0.746
13.721	0.739
13.7582	0.729
13.7953	0.715
13.8325	0.664
13.8696	0.624
13.9068	0.63
13.9439	0.7
13.9811	0.743
14.0182	0.77
14.0554	0.798
14.0925	0.805
14.1297	0.801
14.1668	0.787
14.204	0.753
14.2411	0.7
14.2783	0.594
14.3154	0.45
14.3526	0.341
14.3897	0.347
14.4269	0.437
14.464	0.548
14.5012	0.619
14.5383	0.675
14.5755	0.694
14.6126	0.717
14.6498	0.726
14.6869	0.731
14.7241	0.742
14.7612	0.745
14.7983	0.736
14.8355	0.723
14.8726	0.714
14.9098	0.701
14.9469	0.689
14.9841	0.661
15.0212	0.602
15.0584	0.537
15.0955	0.492
15.1327	0.504
15.1698	0.531
15.207	0.565
15.2441	0.563
15.2813	0.548
15.3184	0.517
15.3556	0.476
15.3927	0.425
15.4299	0.375
15.467	0.343
15.5042	0.333
15.5413	0.344
15.5785	0.344
15.6156	0.341
15.6528	0.321
15.6899	0.324
15.7271	0.349
15.7642	0.388
15.8014	0.406
15.8385	0.428
15.8757	0.428
15.9128	0.439
15.95	0.44
15.9871	0.44
