Infrared Spectrum: BARIUM OXALATE
Formula: Ba C2 O4  * H2 O
State: SOLID (KBr DISC)
Class: COBLENTZ
Instrument: Not specified, most likely a prism, grating, or hybrid spectrometer.
Sampling: TRANSMISSION
Resolution: 4
MICROMETERS	TRANSMITTANCE
2.07	0.88
2.1083	0.883
2.14659	0.889
2.18489	0.891
2.22319	0.897
2.26148	0.9
2.29978	0.901
2.33808	0.904
2.37637	0.906
2.41467	0.907
2.45297	0.91
2.49126	0.912
2.52956	0.913
2.56786	0.915
2.60615	0.915
2.64445	0.916
2.68275	0.918
2.72104	0.918
2.75934	0.897
2.79764	0.793
2.83593	0.729
2.87423	0.712
2.91253	0.678
2.95082	0.688
2.98912	0.745
3.02742	0.803
3.06571	0.831
3.10401	0.858
3.14231	0.882
3.1806	0.897
3.2189	0.901
3.2572	0.904
3.29549	0.91
3.33379	0.921
3.37209	0.931
3.41038	0.933
3.44868	0.928
3.48698	0.931
3.52527	0.937
3.56357	0.94
3.60187	0.94
3.64016	0.941
3.67846	0.944
3.71676	0.947
3.75505	0.949
3.79335	0.95
3.83165	0.953
3.86995	0.953
3.90824	0.955
3.94654	0.956
3.98484	0.958
4.02313	0.958
4.06143	0.959
4.09973	0.961
4.13802	0.961
4.17632	0.964
4.21462	0.964
4.25291	0.964
4.29121	0.962
4.32951	0.962
4.3678	0.964
4.4061	0.967
4.4444	0.968
4.48269	0.97
4.52099	0.971
4.55929	0.971
4.59758	0.971
4.63588	0.973
4.67418	0.973
4.71247	0.973
4.75077	0.973
4.78907	0.973
4.82736	0.973
4.86566	0.974
4.90396	0.974
4.94225	0.974
4.98055	0.974
5.01885	0.976
5.05714	0.974
5.09544	0.974
5.13374	0.973
5.17203	0.973
5.21033	0.973
5.24863	0.973
5.28692	0.971
5.32522	0.968
5.36352	0.97
5.40181	0.971
5.44011	0.971
5.47841	0.968
5.5167	0.965
5.555	0.965
5.5933	0.956
5.63159	0.952
5.66989	0.94
5.70819	0.934
5.74648	0.924
5.78478	0.907
5.82308	0.885
5.86137	0.872
5.89967	0.806
5.93797	0.745
5.97626	0.574
6.01456	0.345
6.05286	0.129
6.09115	0.081
6.12945	0.072
6.16775	0.075
6.20604	0.078
6.24434	0.083
6.28264	0.276
6.32093	0.433
6.35923	0.569
6.39753	0.65
6.43582	0.694
6.47412	0.747
6.51242	0.803
6.55071	0.818
6.58901	0.846
6.62731	0.861
6.6656	0.876
6.7039	0.879
6.7422	0.869
6.78049	0.827
6.81879	0.854
6.85709	0.877
6.89538	0.888
6.93368	0.891
6.97198	0.897
7.01027	0.897
7.04857	0.895
7.08687	0.894
7.12516	0.897
7.16346	0.901
7.20176	0.907
7.24005	0.912
7.27835	0.913
7.31665	0.913
7.35495	0.901
7.39324	0.869
7.43154	0.767
7.46984	0.397
7.50813	0.203
7.54643	0.313
7.58473	0.217
7.62302	0.416
7.66132	0.616
7.69962	0.742
7.73791	0.8
7.77621	0.816
7.81451	0.833
7.8528	0.857
7.8911	0.885
7.9294	0.897
7.96769	0.907
8.00599	0.913
8.04429	0.918
8.08258	0.921
8.12088	0.927
8.15918	0.93
8.19747	0.931
8.23577	0.933
8.27407	0.933
8.31236	0.936
8.35066	0.936
8.38896	0.937
8.42725	0.938
8.46555	0.94
8.50385	0.94
8.54214	0.941
8.58044	0.943
8.61874	0.943
8.65703	0.943
8.69533	0.944
8.73363	0.944
8.77192	0.944
8.81022	0.947
8.84852	0.949
8.88681	0.95
8.92511	0.952
8.96341	0.953
9.0017	0.955
9.04	0.955
9.0783	0.955
9.11659	0.955
9.15489	0.955
9.19319	0.955
9.23148	0.955
9.26978	0.955
9.30808	0.955
9.34637	0.956
9.38467	0.956
9.42297	0.956
9.46126	0.956
9.49956	0.958
9.53786	0.958
9.57615	0.958
9.61445	0.958
9.65275	0.959
9.69104	0.961
9.72934	0.961
9.76764	0.961
9.80593	0.961
9.84423	0.961
9.88253	0.961
9.92082	0.961
9.95912	0.961
9.99742	0.961
10.0357	0.961
10.074	0.959
10.1123	0.961
10.1506	0.961
10.1889	0.961
10.2272	0.961
10.2655	0.961
10.3038	0.962
10.3421	0.961
10.3804	0.961
10.4187	0.961
10.457	0.961
10.4953	0.961
10.5336	0.961
10.5719	0.961
10.6102	0.961
10.6485	0.961
10.6868	0.961
10.7251	0.961
10.7634	0.961
10.8016	0.961
10.8399	0.961
10.8782	0.961
10.9165	0.961
10.9548	0.959
10.9931	0.961
11.0314	0.959
11.0697	0.952
11.108	0.947
11.1463	0.95
11.1846	0.953
11.2229	0.955
11.2612	0.955
11.2995	0.955
11.3378	0.955
11.3761	0.955
11.4144	0.955
11.4527	0.95
11.491	0.898
11.5293	0.915
11.5676	0.941
11.6059	0.944
11.6442	0.946
11.6825	0.946
11.7208	0.949
11.7591	0.95
11.7974	0.95
11.8357	0.952
11.874	0.952
11.9123	0.952
11.9505	0.952
11.9888	0.952
12.0271	0.952
12.0654	0.953
12.1037	0.955
12.142	0.953
12.1803	0.953
12.2186	0.953
12.2569	0.953
12.2952	0.952
12.3335	0.952
12.3718	0.952
12.4101	0.949
12.4484	0.943
12.4867	0.94
12.525	0.938
12.5633	0.928
12.6016	0.913
12.6399	0.891
12.6782	0.851
12.7165	0.772
12.7548	0.638
12.7931	0.489
12.8314	0.351
12.8697	0.306
12.908	0.325
12.9463	0.346
12.9846	0.488
13.0229	0.657
13.0612	0.747
13.0995	0.797
13.1377	0.828
13.176	0.849
13.2143	0.866
13.2526	0.876
13.2909	0.891
13.3292	0.898
13.3675	0.9
13.4058	0.904
13.4441	0.907
13.4824	0.909
13.5207	0.91
13.559	0.912
13.5973	0.912
13.6356	0.913
13.6739	0.913
13.7122	0.913
13.7505	0.915
13.7888	0.915
13.8271	0.916
13.8654	0.918
13.9037	0.918
13.942	0.919
13.9803	0.919
14.0186	0.918
14.0569	0.918
14.0952	0.918
14.1335	0.918
14.1718	0.918
14.2101	0.918
14.2484	0.918
14.2866	0.916
14.3249	0.916
14.3632	0.916
14.4015	0.915
14.4398	0.912
14.4781	0.91
14.5164	0.909
14.5547	0.903
14.593	0.897
14.6313	0.891
14.6696	0.886
14.7079	0.882
14.7462	0.882
14.7845	0.88
14.8228	0.88
14.8611	0.879
14.8994	0.879
14.9377	0.879
14.976	0.879
15.0143	0.88
15.0526	0.88
15.0909	0.88
15.1292	0.88
15.1675	0.882
15.2058	0.885
15.2441	0.886
15.2824	0.888
15.3207	0.889
15.359	0.891
15.3973	0.895
15.4355	0.898
15.4738	0.9
15.5121	0.901
15.5504	0.903
15.5887	0.904
15.627	0.906
15.6653	0.909
15.7036	0.909
15.7419	0.909
15.7802	0.91
15.8185	0.909
15.8568	0.904
15.8951	0.885
15.9334	0.882
15.9717	0.88
16.01	0.901
