Infrared Spectrum: 2-NORBORNANAMINE, N-BENZYL-
Formula: C14 H19 N
State: SOLUTION (10% CCl4 FOR 3800-1330, 10% CS2 FOR 1330-460 CM^-^1)
Boiling point: 105 C AT 0.2 mmHg
Class: COBLENTZ III
Instrument: DOW KBr FOREPRISM-GRATING
Instrument parameters: BLAZED AT 3.5, 12.0, 20.0 MICRON AND CHANGED AT 5.0, 7.5, 14.9 MICRON
Sampling: TRANSMISSION
Path length: 0.012 CM, 0.011 CM
Resolution: 2
Origin: DOW CHEMICAL COMPANY
1/CM	TRANSMITTANCE
430	0.7938
439	0.7932
448	0.794
457	0.794
466	0.7965
475	0.7985
484	0.7914
493	0.7778
502	0.7976
511	0.8068
520	0.8284
529	0.8252
538	0.815
547	0.8443
556	0.8541
565	0.8702
574	0.857
583	0.8371
592	0.8144
601	0.7856
610	0.7544
619	0.8552
628	0.8665
637	0.7957
646	0.7588
655	0.7287
664	0.7701
673	0.7436
682	0.6946
691	0.4701
700	0.1271
709	0.4939
718	0.4851
727	0.3316
736	0.2978
745	0.3614
754	0.5501
763	0.6808
772	0.7695
781	0.8584
790	0.8521
799	0.8025
808	0.7732
817	0.8459
826	0.7657
835	0.7828
844	0.7734
853	0.7378
862	0.7569
871	0.7874
880	0.7882
889	0.8489
898	0.8538
907	0.823
916	0.8383
925	0.8138
934	0.7704
943	0.6961
952	0.6799
961	0.6244
970	0.6954
979	0.6791
988	0.6524
997	0.7483
1006	0.8307
1015	0.781
1024	0.7889
1033	0.7603
1042	0.8291
1051	0.7957
1060	0.756
1069	0.72
1078	0.7571
1087	0.7843
1096	0.664
1105	0.6751
1114	0.581
1123	0.6525
1132	0.5604
1141	0.8076
1150	0.7255
1159	0.5068
1168	0.3872
1177	0.5458
1186	0.7084
1195	0.6862
1204	0.5549
1213	0.7399
1222	0.7576
1231	0.6411
1240	0.69
1249	0.6214
1258	0.6397
1267	0.6223
1276	0.7165
1285	0.7504
1294	0.6747
1303	0.5516
1312	0.6136
1321	0.6635
1330	0.7314
1339	0.6881
1348	0.471
1357	0.7348
1366	0.7471
1375	0.8314
1384	0.9371
1393	0.9674
1402	0.9707
1411	0.9615
1420	0.9264
1429	0.8768
1438	0.5555
1447	0.3779
1456	0.2333
1465	0.5401
1474	0.7051
1483	0.8026
1492	0.6336
1501	0.4885
1510	0.788
1519	0.7458
1528	0.7049
1537	0.6089
1546	0.5174
1555	0.5207
1564	0.6005
1573	0.6701
1582	0.6475
1591	0.7224
1600	0.7558
1609	0.8635
1618	0.9512
1627	0.9756
1636	0.978
1645	0.9623
1654	0.9752
1663	0.9786
1672	0.9846
1681	0.9688
1690	0.9671
1699	0.9924
1708	0.9987
1717	0.997
1726	0.9852
1735	0.9716
1744	0.9625
1753	0.9713
1762	0.9995
1771	1.0011
1780	1.0007
1789	0.997
1798	0.9689
1807	0.9589
1816	0.9785
1825	0.9885
1834	0.9953
1843	0.9956
1852	0.9905
1861	0.9771
1870	0.9575
1879	0.9796
1888	0.9789
1897	1.0001
1906	1.0021
1915	1.0012
1924	0.9987
1933	0.9814
1942	0.9451
1951	0.9744
1960	0.9737
1969	1.0011
1978	1.0013
1987	0.9978
1996	0.9673
2005	1.0096
2014	1.011
2023	1.0141
2032	1.0168
2041	1.0167
2050	1.0138
2059	1.013
2068	1.0127
2077	1.0135
2086	1.0147
2095	1.016
2104	1.017
2113	1.0177
2122	1.0182
2131	1.018
2140	1.0177
2149	1.0171
2158	1.0165
2167	1.0154
2176	1.0139
2185	1.0133
2194	1.0131
2203	1.0134
2212	1.0142
2221	1.0147
2230	1.0145
2239	1.0125
2248	1.0089
2257	1.005
2266	1.0018
2275	0.9991
2284	0.9974
2293	0.9968
2302	0.9999
2311	1.0071
2320	1.0221
2329	1.0333
2338	1.0336
2347	1.0331
2356	1.0339
2365	1.0264
2374	1.0175
2383	1.007
2392	1.0021
2401	0.9994
2410	0.9982
2419	0.9971
2428	0.9965
2437	0.9968
2446	0.9973
2455	0.9996
2464	1.0008
2473	0.999
2482	0.9971
2491	0.9947
2500	0.9917
2509	0.9885
2518	0.9851
2527	0.9813
2536	0.977
2545	0.972
2554	0.9668
2563	0.9617
2572	0.9566
2581	0.9516
2590	0.9458
2599	0.9397
2608	0.9363
2617	0.9337
2626	0.93
2635	0.9225
2644	0.9192
2653	0.9163
2662	0.9041
2671	0.8952
2680	0.8934
2689	0.8934
2698	0.8931
2707	0.8841
2716	0.866
2725	0.8571
2734	0.8658
2743	0.8771
2752	0.8663
2761	0.8407
2770	0.7934
2779	0.7412
2788	0.6715
2797	0.5383
2806	0.4742
2815	0.4741
2824	0.4671
2833	0.5032
2842	0.51
2851	0.4118
2860	0.2221
2869	0.1057
2878	0.2331
2887	0.4398
2896	0.4226
2905	0.3135
2914	0.2816
2923	0.2297
2932	0.1231
2941	0.0287
2950	0.015
2959	0.0188
2968	0.0494
2977	0.2416
2986	0.559
2995	0.6957
3004	0.755
3013	0.7872
3022	0.6547
3031	0.4965
3040	0.7244
3049	0.8161
3058	0.7667
3067	0.6407
3076	0.8195
3085	0.7645
3094	0.8265
3103	0.9268
3112	0.9557
3121	0.9766
3130	0.9877
3139	0.9905
3148	0.9905
3157	0.989
3166	0.986
3175	0.9866
3184	0.9931
3193	0.9937
3202	0.9941
3211	0.9941
3220	0.9939
3229	0.9932
3238	0.9921
3247	0.9904
3256	0.9885
3265	0.9864
3274	0.9841
3283	0.9814
3292	0.9784
3301	0.9751
3310	0.9717
3319	0.9686
3328	0.9658
3337	0.9645
3346	0.9675
3355	0.9698
3364	0.9732
3373	0.9759
3382	0.978
3391	0.9801
3400	0.9821
3409	0.9844
3418	0.9867
3427	0.9883
3436	0.9893
3445	0.9903
3454	0.9914
3463	0.9923
3472	0.9928
3481	0.993
3490	0.9931
3499	0.9928
3508	0.9927
3517	0.9967
3526	0.9978
3535	0.9981
3544	0.9978
3553	0.9978
3562	0.9968
3571	0.9833
3580	0.9937
3589	0.996
3598	0.9924
3607	0.9896
3616	0.99
3625	0.9908
3634	0.9908
3643	0.9894
3652	0.9866
3661	0.9836
3670	0.9858
3679	0.988
3688	0.9835
3697	0.9857
3706	0.9878
3715	0.9899
3724	0.9924
3733	0.9941
3742	0.9913
3751	0.9853
3760	0.9875
3769	0.988
3778	0.988
3787	0.9882
3796	0.987
