Infrared Spectrum: Hydrazine, 1,2-dibenzoyl-2-purinyl-
Formula: C19 H14 N6 O2
State: SOLID (0.7 mg / 650 mg KBr DISC)
Class: COBLENTZ III
Instrument: PERKIN-ELMER 21 (GRATING)
Instrument parameters: FILTER CHANGE ABOUT 1090 CM^-^1
Sampling: TRANSMISSION
Resolution: 2
Origin: SOUTHERN RESEARCH INSTITUTE
1/CM	TRANSMITTANCE
595	0.6482
604.021	0.6658
613.042	0.6607
622.063	0.6467
631.085	0.6637
640.106	0.6835
649.127	0.6501
658.148	0.612
667.169	0.6134
676.19	0.6129
685.211	0.366
694.233	0.3303
703.254	0.2814
712.275	0.3344
721.296	0.4848
730.317	0.6351
739.338	0.6872
748.359	0.6881
757.381	0.6991
766.402	0.7028
775.423	0.6487
784.444	0.5336
793.465	0.5615
802.486	0.5947
811.507	0.6948
820.529	0.7338
829.55	0.7242
838.571	0.6697
847.592	0.645
856.613	0.698
865.634	0.7247
874.656	0.704
883.677	0.6289
892.698	0.5868
901.719	0.5652
910.74	0.5981
919.761	0.6256
928.782	0.5995
937.804	0.6098
946.825	0.6657
955.846	0.6891
964.867	0.6685
973.888	0.656
982.909	0.7161
991.93	0.7171
1000.95	0.6873
1009.97	0.7264
1018.99	0.7162
1028.01	0.6053
1037.04	0.7269
1046.06	0.7269
1055.08	0.711
1064.1	0.664
1073.12	0.5787
1082.14	0.6412
1091.16	0.5948
1100.18	0.5635
1109.21	0.547
1118.23	0.5464
1127.25	0.5568
1136.27	0.6341
1145.29	0.6319
1154.31	0.6049
1163.33	0.5448
1172.35	0.4269
1181.37	0.4511
1190.4	0.5045
1199.42	0.4688
1208.44	0.446
1217.46	0.431
1226.48	0.3951
1235.5	0.2661
1244.52	0.1818
1253.54	0.198
1262.56	0.1323
1271.59	0.1004
1280.61	0.1108
1289.63	0.1558
1298.65	0.1962
1307.67	0.2001
1316.69	0.1986
1325.71	0.2335
1334.73	0.2932
1343.76	0.3068
1352.78	0.3459
1361.8	0.3624
1370.82	0.36
1379.84	0.3365
1388.86	0.2907
1397.88	0.2327
1406.9	0.2403
1415.92	0.3148
1424.95	0.435
1433.97	0.473
1442.99	0.4872
1452.01	0.3598
1461.03	0.4939
1470.05	0.4451
1479.07	0.3478
1488.09	0.3162
1497.11	0.4455
1506.14	0.4279
1515.16	0.3806
1524.18	0.3864
1533.2	0.4171
1542.22	0.5247
1551.24	0.531
1560.26	0.4672
1569.28	0.3948
1578.3	0.2429
1587.33	0.2854
1596.35	0.3832
1605.37	0.3487
1614.39	0.3678
1623.41	0.4299
1632.43	0.4441
1641.45	0.3732
1650.47	0.2078
1659.5	0.1805
1668.52	0.1605
1677.54	0.1505
1686.56	0.1465
1695.58	0.1735
1704.6	0.2316
1713.62	0.3108
1722.64	0.526
1731.66	0.6896
1740.69	0.7342
1749.71	0.7592
1758.73	0.7714
1767.75	0.7767
1776.77	0.7803
1785.79	0.8005
1794.81	0.8102
1803.83	0.8094
1812.85	0.8122
1821.88	0.8168
1830.9	0.8195
1839.92	0.8289
1848.94	0.8273
1857.96	0.8243
1866.98	0.8247
1876	0.8199
1885.02	0.8143
1894.04	0.8108
1903.07	0.8101
1912.09	0.8107
1921.11	0.8117
1930.13	0.814
1939.15	0.8159
1948.17	0.8171
1957.19	0.8163
1966.21	0.8149
1975.24	0.8142
1984.26	0.8194
1993.28	0.8232
2002.3	0.8244
2011.32	0.8253
2020.34	0.8246
2029.36	0.8221
2038.38	0.8201
2047.4	0.8224
2056.43	0.8243
2065.45	0.8243
2074.47	0.8247
2083.49	0.8243
2092.51	0.8248
2101.53	0.8242
2110.55	0.8224
2119.57	0.8203
2128.59	0.8193
2137.62	0.818
2146.64	0.8162
2155.66	0.8138
2164.68	0.8113
2173.7	0.8086
2182.72	0.8061
2191.74	0.8058
2200.76	0.8085
2209.79	0.8046
2218.81	0.8022
2227.83	0.8016
2236.85	0.7946
2245.87	0.791
2254.89	0.7913
2263.91	0.7925
2272.93	0.7927
2281.95	0.7866
2290.98	0.779
2300	0.7755
2309.02	0.7744
2318.04	0.7728
2327.06	0.7696
2336.08	0.7661
2345.1	0.7622
2354.12	0.758
2363.14	0.7538
2372.17	0.749
2381.19	0.744
2390.21	0.7385
2399.23	0.7367
2408.25	0.7323
2417.27	0.7257
2426.29	0.7242
2435.31	0.722
2444.33	0.7147
2453.36	0.7082
2462.38	0.7046
2471.4	0.6954
2480.42	0.6917
2489.44	0.6912
2498.46	0.6914
2507.48	0.6927
2516.5	0.6936
2525.53	0.6913
2534.55	0.6897
2543.57	0.6891
2552.59	0.6789
2561.61	0.6739
2570.63	0.6745
2579.65	0.6743
2588.67	0.6724
2597.69	0.6698
2606.72	0.667
2615.74	0.6644
2624.76	0.6618
2633.78	0.6591
2642.8	0.6581
2651.82	0.6561
2660.84	0.6526
2669.86	0.6492
2678.88	0.6464
2687.91	0.6442
2696.93	0.642
2705.95	0.6289
2714.97	0.6141
2723.99	0.6022
2733.01	0.5967
2742.03	0.591
2751.05	0.586
2760.07	0.5818
2769.1	0.5735
2778.12	0.568
2787.14	0.5641
2796.16	0.5595
2805.18	0.5568
2814.2	0.555
2823.22	0.5521
2832.24	0.5469
2841.27	0.5471
2850.29	0.551
2859.31	0.5513
2868.33	0.549
2877.35	0.5471
2886.37	0.5272
2895.39	0.513
2904.41	0.4993
2913.43	0.4887
2922.46	0.4793
2931.48	0.473
2940.5	0.4685
2949.52	0.4643
2958.54	0.4595
2967.56	0.4555
2976.58	0.4514
2985.6	0.4485
2994.62	0.4466
3003.65	0.4455
3012.67	0.4372
3021.69	0.4326
3030.71	0.4348
3039.73	0.4261
3048.75	0.4193
3057.77	0.4166
3066.79	0.4197
3075.81	0.4201
3084.84	0.416
3093.86	0.41
3102.88	0.4078
3111.9	0.4079
3120.92	0.4019
3129.94	0.3965
3138.96	0.3923
3147.98	0.3885
3157.01	0.3855
3166.03	0.3832
3175.05	0.3818
3184.07	0.3802
3193.09	0.3782
3202.11	0.3757
3211.13	0.3743
3220.15	0.3804
3229.17	0.3809
3238.2	0.3866
3247.22	0.3885
3256.24	0.3936
3265.26	0.3987
3274.28	0.4031
3283.3	0.4092
3292.32	0.4143
3301.34	0.4192
3310.36	0.4281
3319.39	0.439
3328.41	0.4492
3337.43	0.4555
3346.45	0.4581
3355.47	0.4663
3364.49	0.4743
3373.51	0.4795
3382.53	0.4847
3391.56	0.4898
3400.58	0.4958
3409.6	0.5018
3418.62	0.505
3427.64	0.5094
3436.66	0.5142
3445.68	0.5189
3454.7	0.5248
3463.72	0.5306
3472.75	0.5454
3481.77	0.5515
3490.79	0.5569
3499.81	0.5626
3508.83	0.5685
3517.85	0.5758
3526.87	0.5835
3535.89	0.5934
3544.91	0.6109
3553.94	0.6198
3562.96	0.6284
3571.98	0.636
3581	0.6444
3590.02	0.6558
3599.04	0.6688
3608.06	0.6743
3617.08	0.6806
3626.1	0.6941
3635.13	0.7028
3644.15	0.7078
3653.17	0.7089
3662.19	0.7084
3671.21	0.7061
3680.23	0.7035
3689.25	0.7038
3698.27	0.7081
3707.3	0.716
3716.32	0.7133
3725.34	0.7109
3734.36	0.7101
3743.38	0.7109
3752.4	0.7118
3761.42	0.7115
3770.44	0.7102
3779.46	0.7067
3788.49	0.7017
3797.51	0.6944
3806.53	0.6961
3815.55	0.7016
3824.57	0.699
3833.59	0.6958
3842.61	0.6939
3851.63	0.6928
3860.65	0.6928
3869.68	0.693
3878.7	0.6932
3887.72	0.6932
3896.74	0.6915
3905.76	0.6847
3914.78	0.6902
3923.8	0.6831
3932.82	0.6866
3941.84	0.6849
3950.87	0.6807
3959.89	0.6787
3968.91	0.6807
3977.93	0.682
3986.95	0.6734
3995.97	0.678
4004.99	0.692
