Infrared Spectrum: SODIUM METAVANADATE
Formula: Na V O3  * 4 H2 O
State: SOLID (NUJOL MULL)
Class: COBLENTZ
Instrument: Not specified, most likely a prism, grating, or hybrid spectrometer.
Sampling: TRANSMISSION
Resolution: 4
Origin: MELLON INSTITUTE
MICROMETERS	TRANSMITTANCE
2.024	0.76
2.06497	0.764
2.10594	0.771
2.1469	0.777
2.18787	0.784
2.22884	0.788
2.26981	0.793
2.31077	0.798
2.35174	0.8
2.39271	0.802
2.43368	0.808
2.47465	0.815
2.51561	0.819
2.55658	0.824
2.59755	0.831
2.63852	0.834
2.67948	0.838
2.72045	0.839
2.76142	0.834
2.80239	0.824
2.84335	0.796
2.88432	0.777
2.92529	0.774
2.96626	0.774
3.00723	0.776
3.04819	0.781
3.08916	0.784
3.13013	0.791
3.1711	0.798
3.21206	0.802
3.25303	0.808
3.294	0.784
3.33497	0.531
3.37594	0.254
3.4169	0.382
3.45787	0.418
3.49884	0.638
3.53981	0.845
3.58077	0.881
3.62174	0.891
3.66271	0.898
3.70368	0.901
3.74465	0.903
3.78561	0.907
3.82658	0.91
3.86755	0.913
3.90852	0.917
3.94948	0.919
3.99045	0.92
4.03142	0.924
4.07239	0.925
4.11335	0.929
4.15432	0.931
4.19529	0.931
4.23626	0.932
4.27723	0.932
4.31819	0.932
4.35916	0.932
4.40013	0.932
4.4411	0.931
4.48206	0.931
4.52303	0.929
4.564	0.929
4.60497	0.929
4.64594	0.929
4.6869	0.931
4.72787	0.931
4.76884	0.932
4.80981	0.936
4.85077	0.936
4.89174	0.939
4.93271	0.941
4.97368	0.943
5.01465	0.944
5.05561	0.944
5.09658	0.946
5.13755	0.95
5.17852	0.951
5.21948	0.951
5.26045	0.951
5.30142	0.95
5.34239	0.95
5.38335	0.95
5.42432	0.95
5.46529	0.951
5.50626	0.951
5.54723	0.953
5.58819	0.955
5.62916	0.953
5.67013	0.953
5.7111	0.953
5.75206	0.951
5.79303	0.951
5.834	0.948
5.87497	0.948
5.91594	0.946
5.9569	0.946
5.99787	0.948
6.03884	0.95
6.07981	0.951
6.12077	0.955
6.16174	0.96
6.20271	0.965
6.24368	0.97
6.28465	0.975
6.32561	0.975
6.36658	0.975
6.40755	0.974
6.44852	0.972
6.48948	0.972
6.53045	0.97
6.57142	0.967
6.61239	0.963
6.65335	0.96
6.69432	0.951
6.73529	0.92
6.77626	0.851
6.81723	0.69
6.85819	0.667
6.89916	0.69
6.94013	0.786
6.9811	0.865
7.02206	0.915
7.06303	0.932
7.104	0.941
7.14497	0.938
7.18594	0.91
7.2269	0.857
7.26787	0.829
7.30884	0.864
7.34981	0.893
7.39077	0.919
7.43174	0.925
7.47271	0.931
7.51368	0.936
7.55465	0.939
7.59561	0.941
7.63658	0.941
7.67755	0.941
7.71852	0.941
7.75948	0.943
7.80045	0.944
7.84142	0.944
7.88239	0.944
7.92335	0.944
7.96432	0.944
8.00529	0.946
8.04626	0.943
8.08723	0.941
8.12819	0.939
8.16916	0.938
8.21013	0.936
8.2511	0.936
8.29206	0.936
8.33303	0.936
8.374	0.934
8.41497	0.932
8.45594	0.931
8.4969	0.927
8.53787	0.922
8.57884	0.917
8.61981	0.913
8.66077	0.912
8.70174	0.908
8.74271	0.905
8.78368	0.905
8.82465	0.903
8.86561	0.903
8.90658	0.905
8.94755	0.905
8.98852	0.907
9.02948	0.91
9.07045	0.913
9.11142	0.915
9.15239	0.915
9.19335	0.915
9.23432	0.913
9.27529	0.913
9.31626	0.913
9.35723	0.913
9.39819	0.913
9.43916	0.915
9.48013	0.917
9.5211	0.92
9.56206	0.922
9.60303	0.924
9.644	0.924
9.68497	0.924
9.72594	0.922
9.7669	0.922
9.80787	0.919
9.84884	0.917
9.88981	0.913
9.93077	0.912
9.97174	0.907
10.0127	0.903
10.0537	0.893
10.0946	0.87
10.1356	0.815
10.1766	0.733
10.2175	0.647
10.2585	0.573
10.2995	0.497
10.3405	0.45
10.3814	0.402
10.4224	0.383
10.4634	0.376
10.5043	0.38
10.5453	0.39
10.5863	0.401
10.6272	0.399
10.6682	0.395
10.7092	0.395
10.7501	0.404
10.7911	0.432
10.8321	0.468
10.873	0.519
10.914	0.6
10.955	0.626
10.9959	0.616
11.0369	0.655
11.0779	0.716
11.1188	0.755
11.1598	0.784
11.2008	0.8
11.2417	0.815
11.2827	0.819
11.3237	0.819
11.3646	0.817
11.4056	0.81
11.4466	0.805
11.4875	0.796
11.5285	0.781
11.5695	0.752
11.6105	0.724
11.6514	0.697
11.6924	0.655
11.7334	0.604
11.7743	0.554
11.8153	0.509
11.8563	0.475
11.8972	0.447
11.9382	0.425
11.9792	0.411
12.0201	0.406
12.0611	0.402
12.1021	0.404
12.143	0.414
12.184	0.437
12.225	0.48
12.2659	0.533
12.3069	0.588
12.3479	0.631
12.3888	0.662
12.4298	0.688
12.4708	0.7
12.5117	0.709
12.5527	0.712
12.5937	0.714
12.6346	0.714
12.6756	0.707
12.7166	0.702
12.7575	0.693
12.7985	0.683
12.8395	0.672
12.8805	0.662
12.9214	0.652
12.9624	0.641
13.0034	0.628
13.0443	0.614
13.0853	0.602
13.1263	0.59
13.1672	0.576
13.2082	0.564
13.2492	0.554
13.2901	0.542
13.3311	0.53
13.3721	0.518
13.413	0.504
13.454	0.492
13.495	0.48
13.5359	0.466
13.5769	0.452
13.6179	0.44
13.6588	0.432
13.6998	0.421
13.7408	0.411
13.7817	0.402
13.8227	0.395
13.8637	0.387
13.9046	0.376
13.9456	0.368
13.9866	0.361
14.0275	0.354
14.0685	0.352
14.1095	0.347
14.1505	0.344
14.1914	0.34
14.2324	0.337
14.2734	0.332
14.3143	0.332
14.3553	0.33
14.3963	0.328
14.4372	0.328
14.4782	0.33
14.5192	0.333
14.5601	0.333
14.6011	0.335
14.6421	0.34
14.683	0.349
14.724	0.354
14.765	0.359
14.8059	0.363
14.8469	0.37
14.8879	0.375
14.9288	0.38
14.9698	0.383
15.0108	0.39
15.0517	0.394
15.0927	0.401
15.1337	0.404
15.1746	0.411
15.2156	0.416
15.2566	0.423
15.2975	0.43
15.3385	0.437
15.3795	0.444
15.4205	0.452
15.4614	0.461
15.5024	0.469
15.5434	0.476
15.5843	0.487
15.6253	0.497
15.6663	0.504
15.7072	0.514
15.7482	0.524
15.7892	0.535
15.8301	0.545
15.8711	0.554
15.9121	0.564
15.953	0.573
15.994	0.581
