Infrared Spectrum: O-(2-HYDROXY-3,6-DISULFO-1-NAPHTHYLAZO) BENZENE ARSONIC ACID, DISODIUM SALT
Formula: C16 H11 N2 O10 S2 As Na2
State: SOLID (MINERAL OIL MULL)
Class: COBLENTZ
Instrument: Not specified, most likely a prism, grating, or hybrid spectrometer.
Sampling: TRANSMISSION
Resolution: 4
Origin: WYANDOTTE CHEMICALS CORP., WYANDOTTE, MICHIGAN, USA
MICROMETERS	TRANSMITTANCE
2.027	0.415
2.06798	0.427
2.10895	0.444
2.14993	0.451
2.19091	0.456
2.23188	0.461
2.27286	0.468
2.31384	0.497
2.35481	0.516
2.39579	0.534
2.43677	0.563
2.47774	0.587
2.51872	0.617
2.5597	0.663
2.60067	0.679
2.64165	0.738
2.68262	0.741
2.7236	0.602
2.76458	0.325
2.80555	0.237
2.84653	0.169
2.88751	0.134
2.92848	0.122
2.96946	0.115
3.01044	0.123
3.05141	0.137
3.09239	0.139
3.13337	0.139
3.17434	0.144
3.21532	0.152
3.2563	0.152
3.29727	0.127
3.33825	0.037
3.37923	0.037
3.4202	0.037
3.46118	0.035
3.50216	0.057
3.54313	0.278
3.58411	0.358
3.62509	0.398
3.66606	0.402
3.70704	0.432
3.74801	0.456
3.78899	0.475
3.82997	0.502
3.87094	0.521
3.91192	0.541
3.9529	0.56
3.99387	0.572
4.03485	0.582
4.07583	0.599
4.1168	0.601
4.15778	0.601
4.19876	0.599
4.23973	0.578
4.28071	0.575
4.32169	0.592
4.36266	0.631
4.40364	0.624
4.44462	0.623
4.48559	0.64
4.52657	0.65
4.56755	0.655
4.60852	0.668
4.6495	0.672
4.69048	0.697
4.73145	0.704
4.77243	0.724
4.8134	0.736
4.85438	0.747
4.89536	0.755
4.93633	0.769
4.97731	0.78
5.01829	0.809
5.05926	0.818
5.10024	0.828
5.14122	0.831
5.18219	0.838
5.22317	0.857
5.26415	0.87
5.30512	0.882
5.3461	0.889
5.38708	0.894
5.42805	0.901
5.46903	0.908
5.51001	0.915
5.55098	0.916
5.59196	0.921
5.63294	0.921
5.67391	0.913
5.71489	0.899
5.75587	0.886
5.79684	0.813
5.83782	0.74
5.87879	0.73
5.91977	0.668
5.96075	0.604
6.00172	0.475
6.0427	0.47
6.08368	0.48
6.12465	0.455
6.16563	0.528
6.20661	0.634
6.24758	0.624
6.28856	0.651
6.32954	0.517
6.37051	0.599
6.41149	0.521
6.45247	0.675
6.49344	0.658
6.53442	0.578
6.5754	0.382
6.61637	0.271
6.65735	0.334
6.69833	0.339
6.7393	0.213
6.78028	0.067
6.82126	0.086
6.86223	0.151
6.90321	0.263
6.94418	0.468
6.98516	0.585
7.02614	0.631
7.06711	0.645
7.10809	0.606
7.14907	0.539
7.19004	0.349
7.23102	0.19
7.272	0.378
7.31297	0.475
7.35395	0.565
7.39493	0.563
7.4359	0.597
7.47688	0.58
7.51786	0.645
7.55883	0.665
7.59981	0.663
7.64079	0.641
7.68176	0.602
7.72274	0.524
7.76372	0.57
7.80469	0.619
7.84567	0.543
7.88665	0.41
7.92762	0.359
7.9686	0.449
8.00957	0.354
8.05055	0.308
8.09153	0.263
8.1325	0.266
8.17348	0.21
8.21446	0.213
8.25543	0.205
8.29641	0.159
8.33739	0.134
8.37836	0.156
8.41934	0.237
8.46032	0.295
8.50129	0.327
8.54227	0.312
8.58325	0.298
8.62422	0.281
8.6652	0.314
8.70618	0.387
8.74715	0.47
8.78813	0.485
8.82911	0.551
8.87008	0.539
8.91106	0.534
8.95204	0.534
8.99301	0.387
9.03399	0.519
9.07496	0.634
9.11594	0.682
9.15692	0.704
9.19789	0.709
9.23887	0.711
9.27985	0.711
9.32082	0.663
9.3618	0.572
9.40278	0.405
9.44375	0.203
9.48473	0.246
9.52571	0.461
9.56668	0.39
9.60766	0.202
9.64864	0.268
9.68961	0.254
9.73059	0.471
9.77157	0.595
9.81254	0.658
9.85352	0.689
9.8945	0.675
9.93547	0.577
9.97645	0.443
10.0174	0.555
10.0584	0.65
10.0994	0.702
10.1404	0.731
10.1813	0.743
10.2223	0.752
10.2633	0.76
10.3043	0.765
10.3452	0.769
10.3862	0.772
10.4272	0.774
10.4682	0.775
10.5091	0.775
10.5501	0.765
10.5911	0.745
10.6321	0.653
10.673	0.477
10.714	0.653
10.755	0.721
10.796	0.743
10.837	0.74
10.8779	0.726
10.9189	0.709
10.9599	0.691
11.0009	0.663
11.0418	0.623
11.0828	0.563
11.1238	0.522
11.1648	0.444
11.2057	0.378
11.2467	0.346
11.2877	0.388
11.3287	0.468
11.3697	0.517
11.4106	0.534
11.4516	0.536
11.4926	0.522
11.5336	0.507
11.5745	0.465
11.6155	0.422
11.6565	0.358
11.6975	0.259
11.7384	0.207
11.7794	0.229
11.8204	0.256
11.8614	0.292
11.9023	0.349
11.9433	0.409
11.9843	0.439
12.0253	0.465
12.0663	0.478
12.1072	0.485
12.1482	0.49
12.1892	0.492
12.2302	0.49
12.2711	0.487
12.3121	0.482
12.3531	0.478
12.3941	0.487
12.435	0.492
12.476	0.487
12.517	0.492
12.558	0.488
12.5989	0.48
12.6399	0.482
12.6809	0.478
12.7219	0.473
12.7629	0.471
12.8038	0.468
12.8448	0.466
12.8858	0.458
12.9268	0.461
12.9677	0.449
13.0087	0.443
13.0497	0.429
13.0907	0.405
13.1316	0.363
13.1726	0.305
13.2136	0.29
13.2546	0.317
13.2955	0.346
13.3365	0.365
13.3775	0.388
13.4185	0.404
13.4595	0.409
13.5004	0.4
13.5414	0.385
13.5824	0.366
13.6234	0.351
13.6643	0.344
13.7053	0.344
13.7463	0.351
13.7873	0.358
13.8282	0.354
13.8692	0.348
13.9102	0.339
13.9512	0.314
13.9921	0.298
14.0331	0.292
14.0741	0.315
14.1151	0.332
14.1561	0.351
14.197	0.382
14.238	0.409
14.279	0.415
14.32	0.422
14.3609	0.412
14.4019	0.39
14.4429	0.349
14.4839	0.32
14.5248	0.31
14.5658	0.327
14.6068	0.346
14.6478	0.366
14.6888	0.371
14.7297	0.387
14.7707	0.395
14.8117	0.395
14.8527	0.395
14.8936	0.395
14.9346	0.375
14.9756	0.366
15.0166	0.348
15.0575	0.336
15.0985	0.329
15.1395	0.322
15.1805	0.324
15.2214	0.329
15.2624	0.348
15.3034	0.353
15.3444	0.349
15.3854	0.359
15.4263	0.358
15.4673	0.349
15.5083	0.337
15.5493	0.319
15.5902	0.312
15.6312	0.307
15.6722	0.305
15.7132	0.308
15.7541	0.317
15.7951	0.331
15.8361	0.339
15.8771	0.346
15.918	0.349
15.959	0.344
16	0.351
