Infrared Spectrum: ADENINE, 1-BENZYL-9-CYCLOPENTYL-
Formula: C17 H19 N5
State: SOLID (1 mg / 650 mg KBr DISC)
Class: COBLENTZ III
Instrument: PERKIN-ELMER 521 (GRATING)
Instrument parameters: FILTER CHANGE AT 3130, 2500, 2000, 1150, 700, 410 CM^-^1, GRATING CHANGES AT 2000, 620 CM^-^1
Sampling: TRANSMISSION
Resolution: 4
Origin: SOUTHERN RESEARCH INSTITUTE
1/CM	TRANSMITTANCE
244.433	0.386
253.615	0.407
262.797	0.452
271.979	0.509
281.161	0.569
290.343	0.614
299.525	0.648
308.707	0.669
317.889	0.684
327.071	0.701
336.254	0.72
345.436	0.744
354.618	0.763
363.8	0.775
372.982	0.785
382.164	0.792
391.346	0.798
400.528	0.805
409.71	0.811
418.892	0.814
428.074	0.814
437.256	0.813
446.438	0.809
455.62	0.723
464.802	0.821
473.984	0.831
483.166	0.831
492.348	0.83
501.53	0.818
510.713	0.728
519.895	0.805
529.077	0.815
538.259	0.811
547.441	0.799
556.623	0.792
565.805	0.799
574.987	0.774
584.169	0.751
593.351	0.773
602.533	0.789
611.715	0.793
620.897	0.786
630.079	0.754
639.261	0.746
648.443	0.699
657.625	0.655
666.807	0.66
675.989	0.67
685.172	0.568
694.354	0.663
703.536	0.704
712.718	0.714
721.9	0.71
731.082	0.537
740.264	0.741
749.446	0.776
758.628	0.776
767.81	0.754
776.992	0.692
786.174	0.749
795.356	0.792
804.538	0.815
813.72	0.822
822.902	0.805
832.084	0.82
841.266	0.833
850.448	0.842
859.631	0.843
868.813	0.842
877.995	0.837
887.177	0.805
896.359	0.768
905.541	0.775
914.723	0.819
923.905	0.839
933.087	0.823
942.269	0.801
951.451	0.777
960.633	0.798
969.815	0.794
978.997	0.707
988.179	0.83
997.361	0.828
1006.54	0.827
1015.73	0.823
1024.91	0.741
1034.09	0.801
1043.27	0.796
1052.45	0.791
1061.64	0.8
1070.82	0.789
1080	0.77
1089.18	0.782
1098.36	0.782
1107.55	0.774
1116.73	0.72
1125.91	0.709
1135.09	0.758
1144.27	0.735
1153.46	0.712
1162.64	0.779
1171.82	0.778
1181	0.772
1190.18	0.759
1199.37	0.742
1208.55	0.733
1217.73	0.727
1226.91	0.687
1236.09	0.576
1245.28	0.569
1254.46	0.719
1263.64	0.745
1272.82	0.721
1282	0.688
1291.19	0.711
1300.37	0.71
1309.55	0.716
1318.73	0.707
1327.92	0.697
1337.1	0.69
1346.28	0.564
1355.46	0.481
1364.64	0.652
1373.83	0.666
1383.01	0.677
1392.19	0.679
1401.37	0.66
1410.55	0.552
1419.74	0.421
1428.92	0.635
1438.1	0.663
1447.28	0.562
1456.46	0.588
1465.65	0.606
1474.83	0.684
1484.01	0.669
1493.19	0.562
1502.37	0.55
1511.56	0.56
1520.74	0.688
1529.92	0.737
1539.1	0.706
1548.28	0.698
1557.47	0.683
1566.65	0.581
1575.83	0.509
1585.01	0.624
1594.19	0.714
1603.38	0.685
1612.56	0.632
1621.74	0.497
1630.92	0.345
1640.1	0.59
1649.29	0.632
1658.47	0.56
1667.65	0.378
1676.83	0.232
1686.02	0.117
1695.2	0.157
1704.38	0.437
1713.56	0.714
1722.74	0.795
1731.93	0.83
1741.11	0.845
1750.29	0.855
1759.47	0.858
1768.65	0.858
1777.84	0.858
1787.02	0.855
1796.2	0.85
1805.38	0.844
1814.56	0.843
1823.75	0.849
1832.93	0.86
1842.11	0.862
1851.29	0.864
1860.47	0.862
1869.66	0.858
1878.84	0.855
1888.02	0.85
1897.2	0.828
1906.38	0.839
1915.57	0.856
1924.75	0.855
1933.93	0.855
1943.11	0.858
1952.29	0.859
1961.48	0.858
1970.66	0.858
1979.84	0.857
1989.02	0.855
1998.21	0.854
2007.39	0.852
2016.57	0.851
2025.75	0.85
2034.93	0.849
2044.12	0.849
2053.3	0.849
2062.48	0.849
2071.66	0.849
2080.84	0.85
2090.03	0.85
2099.21	0.85
2108.39	0.85
2117.57	0.849
2126.75	0.849
2135.94	0.849
2145.12	0.849
2154.3	0.848
2163.48	0.848
2172.66	0.848
2181.85	0.846
2191.03	0.845
2200.21	0.845
2209.39	0.844
2218.57	0.843
2227.76	0.842
2236.94	0.842
2246.12	0.841
2255.3	0.84
2264.48	0.839
2273.67	0.838
2282.85	0.836
2292.03	0.835
2301.21	0.833
2310.39	0.831
2319.58	0.83
2328.76	0.828
2337.94	0.827
2347.12	0.827
2356.31	0.828
2365.49	0.83
2374.67	0.83
2383.85	0.829
2393.03	0.827
2402.22	0.825
2411.4	0.825
2420.58	0.824
2429.76	0.823
2438.94	0.823
2448.13	0.823
2457.31	0.82
2466.49	0.816
2475.67	0.813
2484.85	0.811
2494.04	0.809
2503.22	0.809
2512.4	0.808
2521.58	0.808
2530.76	0.807
2539.95	0.803
2549.13	0.799
2558.31	0.795
2567.49	0.793
2576.67	0.791
2585.86	0.791
2595.04	0.79
2604.22	0.788
2613.4	0.786
2622.58	0.779
2631.77	0.775
2640.95	0.773
2650.13	0.77
2659.31	0.768
2668.49	0.767
2677.68	0.762
2686.86	0.756
2696.04	0.749
2705.22	0.741
2714.41	0.733
2723.59	0.726
2732.77	0.714
2741.95	0.705
2751.13	0.702
2760.32	0.696
2769.5	0.685
2778.68	0.666
2787.86	0.65
2797.04	0.64
2806.23	0.636
2815.41	0.63
2824.59	0.616
2833.77	0.594
2842.95	0.569
2852.14	0.534
2861.32	0.494
2870.5	0.475
2879.68	0.466
2888.86	0.455
2898.05	0.43
2907.23	0.388
2916.41	0.349
2925.59	0.314
2934.77	0.285
2943.96	0.261
2953.14	0.243
2962.32	0.242
2971.5	0.253
2980.68	0.268
2989.87	0.286
2999.05	0.296
3008.23	0.3
3017.41	0.317
3026.59	0.336
3035.78	0.341
3044.96	0.342
3054.14	0.353
3063.32	0.38
3072.51	0.407
3081.69	0.421
3090.87	0.438
3100.05	0.458
3109.23	0.471
3118.42	0.48
3127.6	0.485
3136.78	0.495
3145.96	0.506
3155.14	0.512
3164.33	0.525
3173.51	0.55
3182.69	0.578
3191.87	0.604
3201.05	0.626
3210.24	0.645
3219.42	0.66
3228.6	0.669
3237.78	0.674
3246.96	0.677
3256.15	0.68
3265.33	0.691
3274.51	0.694
3283.69	0.694
3292.87	0.696
3302.06	0.697
3311.24	0.698
3320.42	0.701
3329.6	0.703
3338.78	0.699
3347.97	0.69
3357.15	0.678
3366.33	0.672
3375.51	0.671
3384.69	0.672
3393.88	0.672
3403.06	0.67
3412.24	0.669
3421.42	0.67
3430.61	0.672
3439.79	0.673
3448.97	0.68
3458.15	0.684
3467.33	0.688
3476.52	0.691
3485.7	0.693
3494.88	0.695
3504.06	0.698
3513.24	0.706
3522.43	0.715
3531.61	0.72
3540.79	0.727
3549.97	0.735
3559.15	0.742
3568.34	0.75
3577.52	0.756
3586.7	0.761
3595.88	0.769
3605.06	0.776
3614.25	0.785
3623.43	0.79
3632.61	0.793
3641.79	0.796
3650.97	0.797
3660.16	0.798
3669.34	0.8
3678.52	0.801
3687.7	0.802
3696.88	0.804
3706.07	0.805
3715.25	0.805
3724.43	0.804
3733.61	0.802
3742.79	0.802
3751.98	0.803
3761.16	0.803
3770.34	0.802
3779.52	0.801
3788.71	0.798
3797.89	0.795
3807.07	0.79
