Infrared Spectrum: Phenol, 2,4,6-tris(dimethylaminomethyl)-, trihydrochloride
Formula: C15 H30 Cl3 N3 O
State: SOLID (KBr DISC, 0.8% WT.)
Class: COBLENTZ III
Instrument: PERKIN-ELMER 157
Sampling: TRANSMISSION
Resolution: 2
Origin: BRITISH PETROLEUM CO. LTD., ENGLAND
1/CM	TRANSMITTANCE
668	0.8236
677	0.7861
686	0.8132
695	0.8094
704	0.8043
713	0.8013
722	0.7899
731	0.7858
740	0.7691
749	0.7399
758	0.7096
767	0.5859
776	0.5445
785	0.5128
794	0.6454
803	0.7024
812	0.6287
821	0.2317
830	0.5023
839	0.495
848	0.7004
857	0.698
866	0.6754
875	0.6439
884	0.5859
893	0.4725
902	0.1618
911	0.3678
920	0.4338
929	0.2826
938	0.1463
947	0.0423
956	0.4022
965	0.3646
974	0.5438
983	0.6011
992	0.5557
1001	0.4118
1010	0.2705
1019	0.1941
1028	0.5105
1037	0.6424
1046	0.6213
1055	0.5476
1064	0.6007
1073	0.6037
1082	0.5975
1091	0.5796
1100	0.5545
1109	0.5229
1118	0.46
1127	0.3148
1136	0.2718
1145	0.3729
1154	0.2253
1163	0.1279
1172	0.0602
1181	0.3752
1190	0.4854
1199	0.4208
1208	0.3486
1217	0.2547
1226	0.1076
1235	0.0666
1244	0.2323
1253	0.2323
1262	0.449
1271	0.4626
1280	0.2896
1289	0.1621
1298	0.3144
1307	0.4243
1316	0.3428
1325	0.3222
1334	0.339
1343	0.3299
1352	0.2995
1361	0.2246
1370	0.1993
1379	0.2132
1388	0.196
1397	0.1091
1406	0.0968
1415	0.0963
1424	0.0965
1433	0.0768
1442	0.0655
1451	0.0354
1460	0.0384
1469	0.0432
1478	0.0359
1487	0.0808
1496	0.3142
1505	0.4878
1514	0.545
1523	0.5732
1532	0.5926
1541	0.6078
1550	0.615
1559	0.6134
1568	0.6068
1577	0.597
1586	0.5755
1595	0.5082
1604	0.4717
1613	0.4059
1622	0.5327
1631	0.6201
1640	0.6509
1649	0.6651
1658	0.6718
1667	0.678
1676	0.6794
1685	0.6779
1694	0.6799
1703	0.6784
1712	0.6745
1721	0.6784
1730	0.6867
1739	0.6879
1748	0.6878
1757	0.6872
1766	0.6868
1775	0.6866
1784	0.6822
1793	0.6662
1802	0.6604
1811	0.665
1820	0.6704
1829	0.6715
1838	0.6713
1847	0.6707
1856	0.6697
1865	0.6644
1874	0.664
1883	0.6635
1892	0.661
1901	0.6528
1910	0.6478
1919	0.6456
1928	0.6456
1937	0.6352
1946	0.6313
1955	0.6293
1964	0.6263
1973	0.6198
1982	0.6128
1991	0.6062
2000	0.5974
2009	0.5895
2018	0.5839
2027	0.5818
2036	0.5781
2045	0.5706
2054	0.5589
2063	0.5524
2072	0.5484
2081	0.5456
2090	0.5413
2099	0.5257
2108	0.5155
2117	0.5112
2126	0.51
2135	0.5083
2144	0.5022
2153	0.4891
2162	0.4749
2171	0.4655
2180	0.4509
2189	0.4241
2198	0.4094
2207	0.3993
2216	0.3893
2225	0.379
2234	0.3683
2243	0.3585
2252	0.3498
2261	0.3409
2270	0.3307
2279	0.3157
2288	0.2893
2297	0.2618
2306	0.2435
2315	0.2239
2324	0.1991
2333	0.1637
2342	0.135
2351	0.1208
2360	0.1096
2369	0.1003
2378	0.0907
2387	0.0814
2396	0.0726
2405	0.064
2414	0.0556
2423	0.0466
2432	0.0432
2441	0.0412
2450	0.0407
2459	0.0401
2468	0.0399
2477	0.04
2486	0.04
2495	0.04
2504	0.0399
2513	0.0398
2522	0.039
2531	0.0376
2540	0.0354
2549	0.0335
2558	0.0335
2567	0.0348
2576	0.037
2585	0.0385
2594	0.0389
2603	0.0391
2612	0.0394
2621	0.0398
2630	0.0401
2639	0.0403
2648	0.0406
2657	0.041
2666	0.0416
2675	0.0429
2684	0.049
2693	0.0591
2702	0.0773
2711	0.0987
2720	0.1155
2729	0.141
2738	0.1537
2747	0.1611
2756	0.1645
2765	0.1667
2774	0.1676
2783	0.1677
2792	0.1675
2801	0.1668
2810	0.1609
2819	0.1529
2828	0.1452
2837	0.1363
2846	0.1272
2855	0.1173
2864	0.1073
2873	0.097
2882	0.0825
2891	0.0683
2900	0.0628
2909	0.0598
2918	0.0581
2927	0.057
2936	0.0567
2945	0.0572
2954	0.058
2963	0.0592
2972	0.0603
2981	0.0617
2990	0.0634
2999	0.0652
3008	0.0672
3017	0.0691
3026	0.0718
3035	0.0743
3044	0.0769
3053	0.0792
3062	0.0858
3071	0.0928
3080	0.0941
3089	0.0956
3098	0.099
3107	0.12
3116	0.1296
3125	0.1391
3134	0.1486
3143	0.158
3152	0.1694
3161	0.1801
3170	0.1933
3179	0.2078
3188	0.2144
3197	0.22
3206	0.225
3215	0.2296
3224	0.2331
3233	0.2363
3242	0.2418
3251	0.2484
3260	0.254
3269	0.2575
3278	0.2598
3287	0.2619
3296	0.2629
3305	0.2638
3314	0.2647
3323	0.2654
3332	0.266
3341	0.2665
3350	0.2671
3359	0.2678
3368	0.2685
3377	0.2693
3386	0.27
3395	0.2717
3404	0.2743
3413	0.2798
3422	0.2855
3431	0.2907
3440	0.2958
3449	0.3004
3458	0.3057
3467	0.3181
3476	0.3448
3485	0.3627
3494	0.3791
3503	0.3864
3512	0.3938
3521	0.4061
3530	0.4197
3539	0.4331
3548	0.4468
3557	0.4698
3566	0.4842
3575	0.4967
3584	0.5046
3593	0.5113
3602	0.5166
3611	0.5234
3620	0.5342
3629	0.5494
3638	0.555
3647	0.5567
3656	0.5574
3665	0.5575
3674	0.5576
3683	0.5577
3692	0.5577
3701	0.5576
3710	0.5561
3719	0.5537
3728	0.5497
3737	0.5475
3746	0.5461
3755	0.5454
3764	0.5447
3773	0.5441
3782	0.5436
3791	0.543
3800	0.5369
3809	0.5319
3818	0.5289
3827	0.5275
3836	0.5268
3845	0.5266
3854	0.5263
3863	0.5261
3872	0.5255
3881	0.5232
3890	0.5188
3899	0.5143
3908	0.5109
3917	0.5091
3926	0.5087
3935	0.5084
3944	0.5082
3953	0.5079
3962	0.5076
3971	0.5075
3980	0.5072
3989	0.5069
3998	0.5068
