Infrared Spectrum: 1,1'-DI(PENTAMETHYL DISILOXANYL) FERROCENE
Formula: C20 H38 Fe O2 Si4
State: LIQUID
Boiling point: 108 C AT 0.01 mmHg
Class: COBLENTZ
Instrument: Not specified, most likely a prism, grating, or hybrid spectrometer.
Sampling: TRANSMISSION
Path length: 0.003 CM
Resolution: 4
Origin: WYANDOTTE CHEMICALS CORP., WYANDOTTE, MICHIGAN, USA
MICROMETERS	TRANSMITTANCE
2.073	0.99
2.11264	0.991
2.15228	0.991
2.19192	0.99
2.23156	0.968
2.2712	0.983
2.31084	0.976
2.35048	0.978
2.39012	0.98
2.42976	0.976
2.4694	0.973
2.50904	0.96
2.54868	0.981
2.58832	0.978
2.62796	0.963
2.6676	0.955
2.70724	0.961
2.74688	0.966
2.78652	0.978
2.82616	0.98
2.8658	0.981
2.90544	0.988
2.94508	0.991
2.98472	0.986
3.02436	0.985
3.064	0.98
3.10364	0.968
3.14328	0.956
3.18292	0.94
3.22256	0.731
3.2622	0.811
3.30184	0.857
3.34148	0.639
3.38112	0.147
3.42076	0.579
3.4604	0.541
3.50004	0.814
3.53968	0.85
3.57933	0.867
3.61897	0.913
3.65861	0.956
3.69825	0.96
3.73789	0.975
3.77753	0.978
3.81717	0.983
3.85681	0.98
3.89645	0.983
3.93609	0.99
3.97573	0.981
4.01537	0.988
4.05501	0.97
4.09465	0.971
4.13429	0.978
4.17393	0.98
4.21357	0.985
4.25321	0.99
4.29285	1.001
4.33249	1.006
4.37213	1
4.41177	0.988
4.45141	0.986
4.49105	0.978
4.53069	0.976
4.57033	0.975
4.60997	0.98
4.64961	0.986
4.68925	0.985
4.72889	0.981
4.76853	0.981
4.80817	0.975
4.84781	0.97
4.88745	0.968
4.92709	0.976
4.96673	0.975
5.00637	0.975
5.04601	0.971
5.08565	0.973
5.12529	0.978
5.16493	0.965
5.20457	0.91
5.24421	0.932
5.28385	0.961
5.32349	0.955
5.36313	0.966
5.40277	0.981
5.44241	0.985
5.48205	0.985
5.52169	0.978
5.56133	0.971
5.60097	0.966
5.64061	0.942
5.68025	0.918
5.71989	0.897
5.75953	0.887
5.79917	0.885
5.83881	0.884
5.87845	0.872
5.91809	0.877
5.95773	0.88
5.99737	0.892
6.03701	0.865
6.07665	0.865
6.11629	0.872
6.15593	0.836
6.19557	0.809
6.23521	0.804
6.27485	0.834
6.31449	0.872
6.35413	0.889
6.39377	0.894
6.43341	0.895
6.47305	0.9
6.51269	0.905
6.55234	0.895
6.59198	0.892
6.63162	0.884
6.67126	0.875
6.7109	0.854
6.75054	0.829
6.79018	0.786
6.82982	0.695
6.86946	0.663
6.9091	0.622
6.94874	0.582
6.98838	0.395
7.02802	0.486
7.06766	0.451
7.1073	0.5
7.14694	0.62
7.18658	0.682
7.22622	0.711
7.26586	0.668
7.3055	0.47
7.34514	0.75
7.38478	0.806
7.42442	0.827
7.46406	0.814
7.5037	0.773
7.54334	0.75
7.58298	0.761
7.62262	0.741
7.66226	0.678
7.7019	0.721
7.74154	0.698
7.78118	0.637
7.82082	0.498
7.86046	0.331
7.9001	0.044
7.93974	0.033
7.97938	0.034
8.01902	0.165
8.05866	0.443
8.0983	0.6
8.13794	0.692
8.17758	0.748
8.21722	0.776
8.25686	0.794
8.2965	0.793
8.33614	0.776
8.37578	0.703
8.41542	0.49
8.45506	0.408
8.4947	0.322
8.53434	0.029
8.57398	0.155
8.61362	0.514
8.65326	0.602
8.6929	0.617
8.73254	0.615
8.77218	0.584
8.81182	0.531
8.85146	0.48
8.8911	0.428
8.93074	0.364
8.97038	0.307
9.01002	0.226
9.04966	0.15
9.0893	0.094
9.12894	0.049
9.16858	0.036
9.20822	0.033
9.24786	0.029
9.2875	0.029
9.32714	0.033
9.36678	0.029
9.40642	0.028
9.44606	0.029
9.4857	0.029
9.52534	0.029
9.56499	0.028
9.60463	0.029
9.64427	0.029
9.68391	0.031
9.72355	0.033
9.76319	0.041
9.80283	0.071
9.84247	0.127
9.88211	0.201
9.92175	0.273
9.96139	0.347
10.001	0.408
10.0407	0.453
10.0803	0.488
10.1199	0.501
10.1596	0.531
10.1992	0.559
10.2389	0.589
10.2785	0.622
10.3181	0.644
10.3578	0.668
10.3974	0.67
10.4371	0.66
10.4767	0.653
10.5163	0.701
10.556	0.741
10.5956	0.754
10.6353	0.759
10.6749	0.768
10.7145	0.769
10.7542	0.756
10.7938	0.75
10.8335	0.728
10.8731	0.708
10.9127	0.675
10.9524	0.64
10.992	0.571
11.0317	0.445
11.0713	0.319
11.111	0.256
11.1506	0.245
11.1902	0.301
11.2299	0.329
11.2695	0.309
11.3092	0.264
11.3488	0.197
11.3884	0.114
11.4281	0.084
11.4677	0.082
11.5074	0.092
11.547	0.084
11.5866	0.067
11.6263	0.061
11.6659	0.052
11.7056	0.038
11.7452	0.036
11.7848	0.031
11.8245	0.031
11.8641	0.031
11.9038	0.031
11.9434	0.029
11.983	0.031
12.0227	0.033
12.0623	0.033
12.102	0.029
12.1416	0.031
12.1812	0.034
12.2209	0.034
12.2605	0.034
12.3002	0.034
12.3398	0.038
12.3794	0.039
12.4191	0.033
12.4587	0.033
12.4984	0.031
12.538	0.031
12.5776	0.034
12.6173	0.033
12.6569	0.038
12.6966	0.038
12.7362	0.034
12.7758	0.038
12.8155	0.034
12.8551	0.036
12.8948	0.052
12.9344	0.1
12.974	0.163
13.0137	0.235
13.0533	0.273
13.093	0.281
13.1326	0.256
13.1722	0.205
13.2119	0.145
13.2515	0.11
13.2912	0.119
13.3308	0.172
13.3704	0.264
13.4101	0.364
13.4497	0.447
13.4894	0.495
13.529	0.529
13.5686	0.561
13.6083	0.589
13.6479	0.602
13.6876	0.62
13.7272	0.642
13.7668	0.657
13.8065	0.668
13.8461	0.673
13.8858	0.675
13.9254	0.677
13.965	0.677
14.0047	0.677
14.0443	0.677
14.084	0.668
14.1236	0.662
14.1632	0.644
14.2029	0.622
14.2425	0.604
14.2822	0.587
14.3218	0.572
14.3614	0.554
14.4011	0.523
14.4407	0.48
14.4804	0.432
14.52	0.375
14.5596	0.342
14.5993	0.321
14.6389	0.299
14.6786	0.298
14.7182	0.311
14.7578	0.349
14.7975	0.403
14.8371	0.465
14.8768	0.536
14.9164	0.602
14.956	0.645
14.9957	0.68
15.0353	0.721
15.075	0.756
15.1146	0.769
15.1542	0.783
15.1939	0.789
15.2335	0.794
15.2732	0.802
15.3128	0.799
15.3524	0.796
15.3921	0.798
15.4317	0.779
15.4714	0.771
15.511	0.754
15.5506	0.72
15.5903	0.683
15.6299	0.667
15.6696	0.653
15.7092	0.652
15.7488	0.672
15.7885	0.71
15.8281	0.735
15.8678	0.758
15.9074	0.773
15.947	0.774
15.9867	0.776
