Infrared Spectrum: DIMETHYL 1,1'-FERROCENE DICARBAMATE
Formula: C14 H16 Fe N2 O4
State: SOLID (MINERAL OIL MULL)
Class: COBLENTZ
Instrument: Not specified, most likely a prism, grating, or hybrid spectrometer.
Sampling: TRANSMISSION
Resolution: 4
Origin: WYANDOTTE CHEMICALS CORP., WYANDOTTE, MICHIGAN, USA
MICROMETERS	TRANSMITTANCE
2.014	0.75
2.05478	0.753
2.09555	0.76
2.13633	0.76
2.17711	0.756
2.21788	0.765
2.25866	0.763
2.29944	0.763
2.34021	0.768
2.38099	0.778
2.42177	0.782
2.46254	0.78
2.50332	0.78
2.5441	0.789
2.58487	0.794
2.62565	0.802
2.66643	0.807
2.7072	0.807
2.74798	0.801
2.78876	0.784
2.82953	0.773
2.87031	0.741
2.91109	0.62
2.95186	0.68
2.99264	0.591
3.03342	0.318
3.07419	0.67
3.11497	0.719
3.15575	0.719
3.19652	0.71
3.2373	0.658
3.27807	0.69
3.31885	0.578
3.35963	0.236
3.4004	0.147
3.44118	0.307
3.48196	0.318
3.52273	0.556
3.56351	0.75
3.60429	0.784
3.64506	0.792
3.68584	0.802
3.72662	0.814
3.76739	0.818
3.80817	0.831
3.84895	0.833
3.88972	0.841
3.9305	0.85
3.97128	0.855
4.01205	0.863
4.05283	0.865
4.09361	0.862
4.13438	0.869
4.17516	0.867
4.21594	0.869
4.25671	0.86
4.29749	0.857
4.33827	0.867
4.37904	0.872
4.41982	0.875
4.4606	0.877
4.50137	0.882
4.54215	0.882
4.58293	0.882
4.6237	0.879
4.66448	0.882
4.70526	0.889
4.74603	0.901
4.78681	0.904
4.82759	0.904
4.86836	0.908
4.90914	0.906
4.94992	0.931
4.99069	0.899
5.03147	0.908
5.07225	0.901
5.11302	0.908
5.1538	0.911
5.19458	0.906
5.23535	0.908
5.27613	0.909
5.31691	0.908
5.35768	0.906
5.39846	0.904
5.43924	0.908
5.48001	0.896
5.52079	0.889
5.56156	0.877
5.60234	0.852
5.64312	0.812
5.68389	0.715
5.72467	0.365
5.76545	0.28
5.80622	0.603
5.847	0.256
5.88778	0.13
5.92855	0.413
5.96933	0.649
6.01011	0.63
6.05088	0.685
6.09166	0.714
6.13244	0.727
6.17321	0.698
6.21399	0.591
6.25477	0.479
6.29554	0.348
6.33632	0.112
6.3771	0.04
6.41787	0.039
6.45865	0.141
6.49943	0.394
6.5402	0.585
6.58098	0.722
6.62176	0.761
6.66253	0.705
6.70331	0.52
6.74409	0.605
6.78486	0.534
6.82564	0.455
6.86642	0.416
6.90719	0.377
6.94797	0.503
6.98875	0.62
7.02952	0.751
7.0703	0.767
7.11108	0.777
7.15185	0.67
7.19263	0.413
7.23341	0.319
7.27418	0.566
7.31496	0.556
7.35574	0.294
7.39651	0.392
7.43729	0.676
7.47807	0.753
7.51884	0.765
7.55962	0.765
7.6004	0.722
7.64117	0.695
7.68195	0.646
7.72273	0.602
7.7635	0.571
7.80428	0.477
7.84505	0.323
7.88583	0.13
7.92661	0.034
7.96738	0.11
8.00816	0.142
8.04894	0.258
8.08971	0.438
8.13049	0.654
8.17127	0.715
8.21204	0.673
8.25282	0.488
8.2936	0.239
8.33437	0.341
8.37515	0.476
8.41593	0.523
8.4567	0.612
8.49748	0.736
8.53826	0.78
8.57903	0.792
8.61981	0.802
8.66059	0.809
8.70136	0.828
8.74214	0.838
8.78292	0.853
8.82369	0.855
8.86447	0.855
8.90525	0.846
8.94602	0.829
8.9868	0.826
9.02758	0.804
9.06835	0.773
9.10913	0.697
9.14991	0.527
9.19068	0.302
9.23146	0.153
9.27224	0.285
9.31301	0.627
9.35379	0.719
9.39457	0.698
9.43534	0.646
9.47612	0.5
9.5169	0.646
9.55767	0.705
9.59845	0.775
9.63923	0.726
9.68	0.583
9.72078	0.681
9.76156	0.656
9.80233	0.431
9.84311	0.634
9.88389	0.702
9.92466	0.801
9.96544	0.846
10.0062	0.862
10.047	0.87
10.0878	0.869
10.1285	0.874
10.1693	0.879
10.2101	0.879
10.2509	0.88
10.2917	0.879
10.3324	0.875
10.3732	0.872
10.414	0.874
10.4548	0.869
10.4955	0.86
10.5363	0.819
10.5771	0.727
10.6179	0.722
10.6586	0.698
10.6994	0.518
10.7402	0.338
10.781	0.44
10.8217	0.642
10.8625	0.773
10.9033	0.809
10.9441	0.846
10.9849	0.865
11.0256	0.87
11.0664	0.872
11.1072	0.875
11.148	0.879
11.1887	0.884
11.2295	0.886
11.2703	0.88
11.3111	0.884
11.3518	0.887
11.3926	0.882
11.4334	0.884
11.4742	0.891
11.5149	0.884
11.5557	0.835
11.5965	0.828
11.6373	0.84
11.6781	0.818
11.7188	0.666
11.7596	0.59
11.8004	0.71
11.8412	0.819
11.8819	0.838
11.9227	0.853
11.9635	0.831
12.0043	0.855
12.045	0.877
12.0858	0.869
12.1266	0.84
12.1674	0.869
12.2082	0.88
12.2489	0.86
12.2897	0.845
12.3305	0.833
12.3713	0.68
12.412	0.465
12.4528	0.498
12.4936	0.573
12.5344	0.676
12.5751	0.697
12.6159	0.806
12.6567	0.863
12.6975	0.882
12.7382	0.894
12.779	0.897
12.8198	0.897
12.8606	0.894
12.9014	0.862
12.9421	0.799
12.9829	0.702
13.0237	0.751
13.0645	0.778
13.1052	0.676
13.146	0.59
13.1868	0.688
13.2276	0.778
13.2683	0.792
13.3091	0.75
13.3499	0.661
13.3907	0.615
13.4315	0.673
13.4722	0.77
13.513	0.823
13.5538	0.865
13.5946	0.88
13.6353	0.88
13.6761	0.892
13.7169	0.894
13.7577	0.899
13.7984	0.896
13.8392	0.894
13.88	0.894
13.9208	0.875
13.9615	0.846
14.0023	0.797
14.0431	0.826
14.0839	0.816
14.1247	0.824
14.1654	0.782
14.2062	0.775
14.247	0.818
14.2878	0.869
14.3285	0.882
14.3693	0.892
14.4101	0.892
14.4509	0.891
14.4916	0.892
14.5324	0.891
14.5732	0.882
14.614	0.88
14.6547	0.874
14.6955	0.87
14.7363	0.858
14.7771	0.853
14.8179	0.846
14.8586	0.843
14.8994	0.836
14.9402	0.829
14.981	0.821
15.0217	0.785
15.0625	0.75
15.1033	0.734
15.1441	0.743
15.1848	0.743
15.2256	0.734
15.2664	0.717
15.3072	0.687
15.348	0.666
15.3887	0.649
15.4295	0.636
15.4703	0.632
15.5111	0.637
15.5518	0.647
15.5926	0.666
15.6334	0.675
15.6742	0.685
15.7149	0.688
15.7557	0.693
15.7965	0.695
15.8373	0.698
15.878	0.702
15.9188	0.7
15.9596	0.687
