Infrared Spectrum: BARIUM CHROMATE
Formula: Ba Cr O4
State: SOLID (NUJOL MULL)
Class: COBLENTZ
Instrument: Not specified, most likely a prism, grating, or hybrid spectrometer.
Sampling: TRANSMISSION
Resolution: 4
Origin: MELLON INSTITUTE
MICROMETERS	TRANSMITTANCE
2.042	0.641
2.08307	0.65
2.12414	0.662
2.16521	0.677
2.20628	0.686
2.24735	0.696
2.28842	0.703
2.32949	0.71
2.37056	0.72
2.41164	0.728
2.45271	0.74
2.49378	0.747
2.53485	0.759
2.57592	0.765
2.61699	0.771
2.65806	0.778
2.69913	0.785
2.7402	0.787
2.78127	0.785
2.82234	0.782
2.86341	0.778
2.90448	0.771
2.94555	0.773
2.98662	0.778
3.02769	0.782
3.06876	0.785
3.10984	0.794
3.15091	0.799
3.19198	0.806
3.23305	0.813
3.27412	0.814
3.31519	0.765
3.35626	0.341
3.39733	0.176
3.4384	0.365
3.47947	0.363
3.52054	0.698
3.56161	0.833
3.60268	0.861
3.64375	0.873
3.68482	0.879
3.72589	0.883
3.76696	0.888
3.80804	0.891
3.84911	0.895
3.89018	0.898
3.93125	0.9
3.97232	0.905
4.01339	0.907
4.05446	0.909
4.09553	0.912
4.1366	0.914
4.17767	0.915
4.21874	0.915
4.25981	0.917
4.30088	0.917
4.34195	0.917
4.38302	0.917
4.42409	0.915
4.46516	0.915
4.50624	0.915
4.54731	0.919
4.58838	0.919
4.62945	0.921
4.67052	0.922
4.71159	0.922
4.75266	0.922
4.79373	0.922
4.8348	0.922
4.87587	0.922
4.91694	0.924
4.95801	0.927
4.99908	0.929
5.04015	0.931
5.08122	0.933
5.12229	0.936
5.16336	0.936
5.20444	0.938
5.24551	0.939
5.28658	0.939
5.32765	0.941
5.36872	0.941
5.40979	0.939
5.45086	0.939
5.49193	0.939
5.533	0.939
5.57407	0.939
5.61514	0.939
5.65621	0.939
5.69728	0.938
5.73835	0.934
5.77942	0.934
5.82049	0.933
5.86156	0.931
5.90264	0.933
5.94371	0.934
5.98478	0.938
6.02585	0.945
6.06692	0.948
6.10799	0.955
6.14906	0.958
6.19013	0.96
6.2312	0.965
6.27227	0.965
6.31334	0.965
6.35441	0.965
6.39548	0.962
6.43655	0.958
6.47762	0.958
6.51869	0.957
6.55976	0.957
6.60084	0.96
6.64191	0.963
6.68298	0.96
6.72405	0.955
6.76512	0.924
6.80619	0.787
6.84726	0.703
6.88833	0.703
6.9294	0.795
6.97047	0.871
7.01154	0.912
7.05261	0.922
7.09368	0.943
7.13475	0.953
7.17582	0.953
7.21689	0.879
7.25796	0.826
7.29904	0.866
7.34011	0.893
7.38118	0.922
7.42225	0.938
7.46332	0.945
7.50439	0.951
7.54546	0.955
7.58653	0.96
7.6276	0.962
7.66867	0.965
7.70974	0.967
7.75081	0.967
7.79188	0.967
7.83295	0.967
7.87402	0.97
7.91509	0.972
7.95616	0.972
7.99724	0.974
8.03831	0.975
8.07938	0.975
8.12045	0.975
8.16152	0.975
8.20259	0.975
8.24366	0.977
8.28473	0.977
8.3258	0.977
8.36687	0.977
8.40794	0.982
8.44901	0.982
8.49008	0.984
8.53115	0.986
8.57222	0.986
8.61329	0.986
8.65436	0.984
8.69544	0.982
8.73651	0.981
8.77758	0.979
8.81865	0.977
8.85972	0.977
8.90079	0.975
8.94186	0.975
8.98293	0.975
9.024	0.975
9.06507	0.975
9.10614	0.975
9.14721	0.975
9.18828	0.975
9.22935	0.975
9.27042	0.977
9.31149	0.977
9.35256	0.977
9.39364	0.979
9.43471	0.974
9.47578	0.972
9.51685	0.969
9.55792	0.967
9.59899	0.967
9.64006	0.967
9.68113	0.967
9.7222	0.967
9.76327	0.967
9.80434	0.967
9.84541	0.967
9.88648	0.965
9.92755	0.963
9.96862	0.958
10.0097	0.958
10.0508	0.957
10.0918	0.951
10.1329	0.943
10.174	0.936
10.215	0.924
10.2561	0.903
10.2972	0.876
10.3383	0.831
10.3793	0.71
10.4204	0.588
10.4615	0.476
10.5025	0.408
10.5436	0.356
10.5847	0.317
10.6258	0.293
10.6668	0.281
10.7079	0.281
10.749	0.279
10.79	0.279
10.8311	0.281
10.8722	0.283
10.9132	0.283
10.9543	0.269
10.9954	0.248
11.0365	0.226
11.0775	0.19
11.1186	0.171
11.1597	0.156
11.2007	0.15
11.2418	0.144
11.2829	0.142
11.324	0.14
11.365	0.138
11.4061	0.135
11.4472	0.133
11.4882	0.132
11.5293	0.13
11.5704	0.125
11.6114	0.123
11.6525	0.123
11.6936	0.118
11.7347	0.114
11.7757	0.114
11.8168	0.118
11.8579	0.152
11.8989	0.221
11.94	0.367
11.9811	0.451
12.0222	0.5
12.0632	0.543
12.1043	0.59
12.1454	0.627
12.1864	0.665
12.2275	0.703
12.2686	0.727
12.3096	0.744
12.3507	0.758
12.3918	0.771
12.4329	0.782
12.4739	0.792
12.515	0.801
12.5561	0.806
12.5971	0.814
12.6382	0.823
12.6793	0.826
12.7204	0.83
12.7614	0.833
12.8025	0.837
12.8436	0.84
12.8846	0.843
12.9257	0.845
12.9668	0.85
13.0078	0.852
13.0489	0.857
13.09	0.861
13.1311	0.864
13.1721	0.867
13.2132	0.874
13.2543	0.879
13.2953	0.886
13.3364	0.89
13.3775	0.893
13.4186	0.898
13.4596	0.9
13.5007	0.9
13.5418	0.898
13.5828	0.898
13.6239	0.9
13.665	0.9
13.706	0.9
13.7471	0.9
13.7882	0.898
13.8293	0.898
13.8703	0.898
13.9114	0.898
13.9525	0.898
13.9935	0.897
14.0346	0.898
14.0757	0.898
14.1168	0.898
14.1578	0.9
14.1989	0.898
14.24	0.895
14.281	0.895
14.3221	0.893
14.3632	0.89
14.4042	0.888
14.4453	0.883
14.4864	0.878
14.5275	0.871
14.5685	0.864
14.6096	0.857
14.6507	0.854
14.6917	0.849
14.7328	0.843
14.7739	0.84
14.815	0.833
14.856	0.825
14.8971	0.821
14.9382	0.814
14.9792	0.811
15.0203	0.804
15.0614	0.801
15.1024	0.794
15.1435	0.789
15.1846	0.783
15.2257	0.775
15.2667	0.77
15.3078	0.765
15.3489	0.759
15.3899	0.753
15.431	0.747
15.4721	0.742
15.5132	0.737
15.5542	0.734
15.5953	0.728
15.6364	0.723
15.6774	0.72
15.7185	0.715
15.7596	0.711
15.8006	0.704
15.8417	0.701
15.8828	0.696
15.9239	0.692
15.9649	0.687
16.006	0.686
