Infrared Spectrum: (OXAZOLIDIN-2-ONE-3-METHYL)CYCLOHEXANE, 1,4-BIS-
Formula: C14 H22 N2 O4
State: SOLID (1 mg / 650 mg KBr DISC)
Class: COBLENTZ III
Instrument: PERKIN-ELMER 521 (GRATING)
Instrument parameters: FILTERS AT 3130, 2475, 2000, 1150, 700, 410. GRATING CHANGES: 2000, 620 CM^-^1
Sampling: TRANSMISSION
Resolution: 2
Origin: SOUTHERN RESEARCH INSTITUTE
1/CM	TRANSMITTANCE
249.167	0.2355
259.201	0.2627
269.235	0.3209
279.27	0.3949
289.304	0.4519
299.338	0.5177
309.372	0.5514
319.407	0.5804
329.441	0.6191
339.475	0.6512
349.509	0.6888
359.543	0.7148
369.578	0.7356
379.612	0.7505
389.646	0.7615
399.68	0.7682
409.715	0.773
419.749	0.7773
429.783	0.7802
439.817	0.7858
449.851	0.7885
459.886	0.7886
469.92	0.7964
479.954	0.795
489.988	0.7728
500.023	0.79
510.057	0.8074
520.091	0.8079
530.125	0.8061
540.159	0.8064
550.194	0.8088
560.228	0.8146
570.262	0.8165
580.296	0.8173
590.331	0.8174
600.365	0.8176
610.399	0.8191
620.433	0.8215
630.467	0.8275
640.502	0.8291
650.536	0.8258
660.57	0.7863
670.604	0.8205
680.639	0.8154
690.673	0.7163
700.707	0.8342
710.741	0.8564
720.775	0.8564
730.81	0.852
740.844	0.8433
750.878	0.7193
760.912	0.7833
770.947	0.8236
780.981	0.8467
791.015	0.8305
801.049	0.7816
811.083	0.8315
821.118	0.8577
831.152	0.8599
841.186	0.8589
851.22	0.856
861.255	0.851
871.289	0.8456
881.323	0.8445
891.357	0.8466
901.391	0.8072
911.426	0.8381
921.46	0.8395
931.494	0.8087
941.528	0.7919
951.562	0.7392
961.597	0.7905
971.631	0.7401
981.665	0.8223
991.699	0.8227
1001.73	0.8017
1011.77	0.7262
1021.8	0.6926
1031.84	0.5659
1041.87	0.7352
1051.9	0.6367
1061.94	0.4909
1071.97	0.7432
1082.01	0.7858
1092.04	0.772
1102.08	0.8017
1112.11	0.7907
1122.14	0.7483
1132.18	0.697
1142.21	0.7933
1152.25	0.8047
1162.28	0.7899
1172.32	0.7427
1182.35	0.7615
1192.38	0.7012
1202.42	0.6272
1212.45	0.7168
1222.49	0.6478
1232.52	0.6673
1242.55	0.5933
1252.59	0.3676
1262.62	0.5547
1272.66	0.6936
1282.69	0.7861
1292.73	0.7973
1302.76	0.778
1312.79	0.8204
1322.83	0.8244
1332.86	0.8078
1342.9	0.8095
1352.93	0.7179
1362.97	0.6853
1373	0.7316
1383.03	0.7075
1393.07	0.8138
1403.1	0.803
1413.14	0.6706
1423.17	0.5285
1433.21	0.6108
1443.24	0.6185
1453.27	0.7123
1463.31	0.7729
1473.34	0.7291
1483.38	0.6104
1493.41	0.6809
1503.44	0.8069
1513.48	0.8209
1523.51	0.8002
1533.55	0.8326
1543.58	0.8404
1553.62	0.8432
1563.65	0.8417
1573.68	0.8388
1583.72	0.8334
1593.75	0.8246
1603.79	0.8108
1613.82	0.7911
1623.86	0.7802
1633.89	0.7851
1643.92	0.791
1653.96	0.7908
1663.99	0.7836
1674.03	0.7685
1684.06	0.7247
1694.09	0.7043
1704.13	0.6452
1714.16	0.345
1724.2	0.1451
1734.23	0.2746
1744.27	0.177
1754.3	0.4778
1764.33	0.6382
1774.37	0.7381
1784.4	0.7778
1794.44	0.7991
1804.47	0.8132
1814.51	0.8237
1824.54	0.8323
1834.57	0.838
1844.61	0.842
1854.64	0.8459
1864.68	0.8484
1874.71	0.8509
1884.75	0.852
1894.78	0.8531
1904.81	0.854
1914.85	0.8546
1924.88	0.8546
1934.92	0.8546
1944.95	0.8548
1954.98	0.855
1965.02	0.8552
1975.05	0.8551
1985.09	0.8549
1995.12	0.8547
2005.16	0.8544
2015.19	0.8546
2025.22	0.8549
2035.26	0.8552
2045.29	0.8555
2055.33	0.8558
2065.36	0.8561
2075.4	0.8564
2085.43	0.8567
2095.46	0.8571
2105.5	0.8575
2115.53	0.8578
2125.57	0.858
2135.6	0.858
2145.63	0.8579
2155.67	0.8578
2165.7	0.8577
2175.74	0.8579
2185.77	0.858
2195.81	0.8582
2205.84	0.8584
2215.87	0.8587
2225.91	0.859
2235.94	0.8593
2245.98	0.86
2256.01	0.8606
2266.05	0.8615
2276.08	0.8632
2286.11	0.8653
2296.15	0.8682
2306.18	0.8698
2316.22	0.871
2326.25	0.8691
2336.29	0.8659
2346.32	0.8616
2356.35	0.8582
2366.39	0.8563
2376.42	0.8557
2386.46	0.8561
2396.49	0.8566
2406.52	0.8572
2416.56	0.8573
2426.59	0.8569
2436.63	0.8564
2446.66	0.856
2456.7	0.8558
2466.73	0.8555
2476.76	0.8548
2486.8	0.8536
2496.83	0.8526
2506.87	0.8519
2516.9	0.8512
2526.94	0.8509
2536.97	0.8511
2547	0.8513
2557.04	0.8515
2567.07	0.8519
2577.11	0.8524
2587.14	0.8528
2597.17	0.8531
2607.21	0.8534
2617.24	0.8537
2627.28	0.8539
2637.31	0.8539
2647.35	0.8538
2657.38	0.8538
2667.41	0.8536
2677.45	0.8531
2687.48	0.8526
2697.52	0.852
2707.55	0.8515
2717.59	0.8513
2727.62	0.8512
2737.65	0.8509
2747.69	0.8504
2757.72	0.8499
2767.76	0.849
2777.79	0.8476
2787.82	0.8445
2797.86	0.8406
2807.89	0.8349
2817.93	0.824
2827.96	0.8054
2838	0.7784
2848.03	0.7272
2858.06	0.71
2868.1	0.7562
2878.13	0.7477
2888.17	0.6994
2898.2	0.6418
2908.24	0.5814
2918.27	0.5714
2928.3	0.6186
2938.34	0.7209
2948.37	0.7592
2958.41	0.7736
2968.44	0.794
2978.48	0.8073
2988.51	0.8155
2998.54	0.8169
3008.58	0.8231
3018.61	0.8411
3028.65	0.8487
3038.68	0.8511
3048.71	0.8524
3058.75	0.8528
3068.78	0.853
3078.82	0.8532
3088.85	0.8534
3098.89	0.8535
3108.92	0.8538
3118.95	0.8546
3128.99	0.8579
3139.02	0.8441
3149.06	0.8403
3159.09	0.8412
3169.13	0.8408
3179.16	0.8383
3189.19	0.8347
3199.23	0.8303
3209.26	0.8257
3219.3	0.8211
3229.33	0.817
3239.36	0.8132
3249.4	0.8099
3259.43	0.8067
3269.47	0.8038
3279.5	0.8008
3289.54	0.7978
3299.57	0.7935
3309.6	0.7868
3319.64	0.7786
3329.67	0.7697
3339.71	0.7608
3349.74	0.7498
3359.78	0.7396
3369.81	0.7284
3379.84	0.714
3389.88	0.7007
3399.91	0.6941
3409.95	0.6873
3419.98	0.6824
3430.02	0.6801
3440.05	0.6793
3450.08	0.6827
3460.12	0.6868
3470.15	0.6926
3480.19	0.7011
3490.22	0.709
3500.25	0.7167
3510.29	0.7262
3520.32	0.7362
3530.36	0.7466
3540.39	0.7568
3550.43	0.7674
3560.46	0.7782
3570.49	0.7879
3580.53	0.7982
3590.56	0.8091
3600.6	0.8202
3610.63	0.8301
3620.67	0.8387
3630.7	0.8477
3640.73	0.854
3650.77	0.8568
3660.8	0.8572
3670.84	0.8569
3680.87	0.858
3690.9	0.8632
3700.94	0.8695
3710.97	0.8708
3721.01	0.8712
3731.04	0.8713
3741.08	0.8713
3751.11	0.8709
3761.14	0.8705
3771.18	0.8701
3781.21	0.8697
3791.25	0.8693
3801.28	0.8689
3811.32	0.8686
3821.35	0.8687
3831.38	0.8688
3841.42	0.8689
3851.45	0.8689
3861.49	0.8688
3871.52	0.8687
3881.56	0.8686
3891.59	0.8684
3901.62	0.8681
3911.66	0.8682
3921.69	0.8687
3931.73	0.8691
3941.76	0.8694
3951.79	0.8694
3961.83	0.8694
3971.86	0.8703
3981.9	0.8681
3991.93	0.8659
4001.97	0.8657
4012	0.8656
