Infrared Spectrum: Cyclohexanepropionic acid, 4,4-dimethyl-2,6-dioxo-
Formula: C11 H16 O4
State: SOLID (1.05 mg / 650 mg KBr DISC)
Melting point: 172-173 C
Class: COBLENTZ III
Instrument: PERKIN-ELMER 21 (GRATING)
Instrument parameters: FILTER CHANGE ABOUT 1040 CM^-^1
Sampling: TRANSMISSION
Resolution: 2
Origin: SOUTHERN RESEARCH INSTITUTE
1/CM	TRANSMITTANCE
651.151	0.6656
660.184	0.6478
669.218	0.6031
678.251	0.6262
687.284	0.7053
696.317	0.7208
705.351	0.7132
714.384	0.6977
723.417	0.6807
732.45	0.65
741.484	0.6088
750.517	0.5943
759.55	0.5936
768.583	0.6671
777.617	0.7119
786.65	0.7172
795.683	0.714
804.717	0.7121
813.75	0.7242
822.783	0.7268
831.816	0.7232
840.85	0.7175
849.883	0.7092
858.916	0.6988
867.949	0.6852
876.983	0.6663
886.016	0.6408
895.049	0.604
904.082	0.5635
913.116	0.5222
922.149	0.5547
931.182	0.6537
940.216	0.6779
949.249	0.6709
958.282	0.6273
967.315	0.6798
976.349	0.7006
985.382	0.7055
994.415	0.6999
1003.45	0.6877
1012.48	0.6634
1021.51	0.6655
1030.55	0.6498
1039.58	0.6251
1048.61	0.5765
1057.65	0.3897
1066.68	0.2761
1075.71	0.6346
1084.75	0.6788
1093.78	0.6719
1102.81	0.6803
1111.85	0.6705
1120.88	0.6101
1129.91	0.5833
1138.95	0.5736
1147.98	0.3994
1157.01	0.4947
1166.05	0.5364
1175.08	0.4038
1184.11	0.4067
1193.15	0.5521
1202.18	0.4508
1211.21	0.2769
1220.25	0.4076
1229.28	0.5028
1238.31	0.4571
1247.35	0.3448
1256.38	0.4626
1265.41	0.4297
1274.45	0.3154
1283.48	0.3297
1292.51	0.3765
1301.55	0.3172
1310.58	0.3233
1319.61	0.3493
1328.65	0.365
1337.68	0.3585
1346.71	0.3156
1355.75	0.2666
1364.78	0.2174
1373.81	0.1675
1382.85	0.14
1391.88	0.1704
1400.91	0.3077
1409.95	0.3218
1418.98	0.3485
1428.01	0.364
1437.05	0.3338
1446.08	0.3754
1455.11	0.5184
1464.15	0.527
1473.18	0.574
1482.21	0.6019
1491.24	0.6183
1500.28	0.6255
1509.31	0.6258
1518.34	0.6213
1527.38	0.6115
1536.41	0.5946
1545.44	0.5802
1554.48	0.5402
1563.51	0.5002
1572.54	0.4518
1581.58	0.3827
1590.61	0.2907
1599.64	0.1105
1608.68	0.1423
1617.71	0.2735
1626.74	0.4049
1635.78	0.4616
1644.81	0.5081
1653.84	0.5261
1662.88	0.5263
1671.91	0.4998
1680.94	0.4308
1689.98	0.2791
1699.01	0.1519
1708.04	0.2664
1717.08	0.389
1726.11	0.4867
1735.14	0.5531
1744.18	0.6034
1753.21	0.6321
1762.24	0.656
1771.28	0.6768
1780.31	0.6925
1789.34	0.7063
1798.38	0.7199
1807.41	0.7298
1816.44	0.7399
1825.48	0.7476
1834.51	0.7535
1843.54	0.7586
1852.58	0.7626
1861.61	0.7653
1870.64	0.7682
1879.68	0.7715
1888.71	0.7751
1897.74	0.7788
1906.78	0.7822
1915.81	0.7843
1924.84	0.7848
1933.87	0.7855
1942.91	0.7899
1951.94	0.7925
1960.97	0.7938
1970.01	0.7954
1979.04	0.7969
1988.07	0.7984
1997.11	0.7985
2006.14	0.7985
2015.17	0.7985
2024.21	0.7983
2033.24	0.7975
2042.27	0.7965
2051.31	0.796
2060.34	0.796
2069.37	0.7966
2078.41	0.7967
2087.44	0.7962
2096.47	0.7954
2105.51	0.7948
2114.54	0.7944
2123.57	0.7941
2132.61	0.7929
2141.64	0.7913
2150.67	0.7888
2159.71	0.7867
2168.74	0.788
2177.77	0.7886
2186.81	0.7867
2195.84	0.7871
2204.87	0.7903
2213.91	0.7883
2222.94	0.7844
2231.97	0.7821
2241.01	0.7802
2250.04	0.7785
2259.07	0.7777
2268.11	0.7767
2277.14	0.7735
2286.17	0.7696
2295.21	0.7643
2304.24	0.7583
2313.27	0.7521
2322.31	0.7467
2331.34	0.7426
2340.37	0.7412
2349.41	0.7407
2358.44	0.7404
2367.47	0.7399
2376.5	0.7391
2385.54	0.7381
2394.57	0.7325
2403.6	0.7299
2412.64	0.7287
2421.67	0.7264
2430.7	0.7203
2439.74	0.7128
2448.77	0.705
2457.8	0.6978
2466.84	0.6888
2475.87	0.677
2484.9	0.6705
2493.94	0.6662
2502.97	0.6617
2512	0.6584
2521.04	0.6467
2530.07	0.6365
2539.1	0.6291
2548.14	0.6252
2557.17	0.6199
2566.2	0.6101
2575.24	0.6021
2584.27	0.5955
2593.3	0.5903
2602.34	0.5878
2611.37	0.5865
2620.4	0.586
2629.44	0.5858
2638.47	0.5858
2647.5	0.5861
2656.54	0.5866
2665.57	0.5837
2674.6	0.5831
2683.64	0.5907
2692.67	0.5929
2701.7	0.5931
2710.74	0.5933
2719.77	0.593
2728.8	0.5914
2737.84	0.5886
2746.87	0.585
2755.9	0.5806
2764.94	0.5758
2773.97	0.5691
2783	0.5615
2792.04	0.5562
2801.07	0.5365
2810.1	0.5194
2819.14	0.5023
2828.17	0.4852
2837.2	0.4675
2846.23	0.4519
2855.27	0.4428
2864.3	0.4385
2873.33	0.4343
2882.37	0.4288
2891.4	0.417
2900.43	0.4
2909.47	0.3792
2918.5	0.3612
2927.53	0.3506
2936.57	0.3456
2945.6	0.3458
2954.63	0.3496
2963.67	0.3645
2972.7	0.3856
2981.73	0.3981
2990.77	0.3957
2999.8	0.3897
3008.83	0.3815
3017.87	0.3712
3026.9	0.3601
3035.93	0.3492
3044.97	0.3383
3054	0.3275
3063.03	0.3173
3072.07	0.3079
3081.1	0.2984
3090.13	0.2885
3099.17	0.2757
3108.2	0.2611
3117.23	0.2497
3126.27	0.2413
3135.3	0.2344
3144.33	0.2303
3153.37	0.2303
3162.4	0.2329
3171.43	0.2389
3180.47	0.2461
3189.5	0.2559
3198.53	0.2688
3207.57	0.2834
3216.6	0.2978
3225.63	0.3105
3234.67	0.3273
3243.7	0.3494
3252.73	0.3712
3261.77	0.3895
3270.8	0.404
3279.83	0.4173
3288.86	0.4297
3297.9	0.4422
3306.93	0.4546
3315.96	0.4664
3325	0.478
3334.03	0.489
3343.06	0.4997
3352.1	0.5101
3361.13	0.5219
3370.16	0.5338
3379.2	0.5449
3388.23	0.556
3397.26	0.567
3406.3	0.5776
3415.33	0.5875
3424.36	0.5983
3433.4	0.6097
3442.43	0.6208
3451.46	0.6316
3460.5	0.6411
3469.53	0.6499
3478.56	0.6576
3487.6	0.6646
3496.63	0.6765
3505.66	0.6869
3514.7	0.6954
3523.73	0.7038
3532.76	0.712
3541.8	0.7197
3550.83	0.7277
3559.86	0.7355
3568.9	0.7428
3577.93	0.7498
3586.96	0.7566
3596	0.7633
3605.03	0.7698
3614.06	0.7762
3623.1	0.7822
3632.13	0.788
3641.16	0.7927
3650.2	0.7963
3659.23	0.799
3668.26	0.8015
3677.3	0.8044
3686.33	0.8075
3695.36	0.8107
3704.4	0.8136
3713.43	0.8154
3722.46	0.8165
3731.5	0.8166
3740.53	0.8166
3749.56	0.8164
3758.59	0.8161
3767.63	0.8158
3776.66	0.8156
3785.69	0.8153
3794.73	0.8151
3803.76	0.8149
3812.79	0.8151
3821.83	0.8162
3830.86	0.8197
3839.89	0.8215
3848.93	0.8203
3857.96	0.8165
3866.99	0.8146
3876.03	0.8139
3885.06	0.8142
3894.09	0.8143
3903.13	0.8142
3912.16	0.814
3921.19	0.8136
3930.23	0.8126
3939.26	0.8111
3948.29	0.8128
3957.33	0.815
3966.36	0.8146
3975.39	0.8134
3984.43	0.8123
3993.46	0.8124
4002.49	0.8127
4011.53	0.813
