Infrared Spectrum: POTASSIUM PYROSULFATE
Formula: K2 S2 O7
State: SOLID (MINERAL OIL MULL)
Class: COBLENTZ
Instrument: Not specified, most likely a prism, grating, or hybrid spectrometer.
Sampling: TRANSMISSION
Resolution: 4
Origin: WYANDOTTE CHEMICALS CORP., WYANDOTTE, MICHIGAN, USA
MICROMETERS	TRANSMITTANCE
2.014	0.981
2.05494	0.982
2.09587	0.986
2.13681	0.979
2.17774	0.969
2.21868	0.958
2.25961	0.958
2.30055	0.957
2.34148	0.955
2.38242	0.958
2.42335	0.964
2.46429	0.958
2.50523	0.96
2.54616	0.977
2.5871	0.96
2.62803	0.988
2.66897	0.977
2.7099	0.97
2.75084	0.969
2.79177	0.95
2.83271	0.938
2.87365	0.922
2.91458	0.914
2.95552	0.9
2.99645	0.88
3.03739	0.851
3.07832	0.82
3.11926	0.791
3.16019	0.755
3.20113	0.712
3.24206	0.679
3.283	0.628
3.32394	0.472
3.36487	0.101
3.40581	0.09
3.44674	0.181
3.48768	0.179
3.52861	0.494
3.56955	0.619
3.61048	0.666
3.65142	0.686
3.69235	0.705
3.73329	0.731
3.77423	0.722
3.81516	0.705
3.8561	0.695
3.89703	0.72
3.93797	0.729
3.9789	0.72
4.01984	0.698
4.06077	0.686
4.10171	0.691
4.14265	0.693
4.18358	0.695
4.22452	0.679
4.26545	0.683
4.30639	0.727
4.34732	0.787
4.38826	0.808
4.42919	0.784
4.47013	0.799
4.51106	0.815
4.552	0.821
4.59294	0.827
4.63387	0.832
4.67481	0.84
4.71574	0.851
4.75668	0.863
4.79761	0.868
4.83855	0.878
4.87948	0.88
4.92042	0.892
4.96135	0.895
5.00229	0.902
5.04323	0.886
5.08416	0.9
5.1251	0.902
5.16603	0.895
5.20697	0.897
5.2479	0.893
5.28884	0.893
5.32977	0.9
5.37071	0.9
5.41165	0.89
5.45258	0.9
5.49352	0.904
5.53445	0.883
5.57539	0.88
5.61632	0.869
5.65726	0.878
5.69819	0.847
5.73913	0.842
5.78006	0.823
5.821	0.837
5.86194	0.833
5.90287	0.825
5.94381	0.813
5.98474	0.808
6.02568	0.809
6.06661	0.799
6.10755	0.801
6.14848	0.818
6.18942	0.816
6.23035	0.832
6.27129	0.827
6.31223	0.839
6.35316	0.813
6.3941	0.828
6.43503	0.794
6.47597	0.801
6.5169	0.799
6.55784	0.806
6.59877	0.816
6.63971	0.801
6.68065	0.787
6.72158	0.722
6.76252	0.5
6.80345	0.441
6.84439	0.503
6.88532	0.583
6.92626	0.681
6.96719	0.738
7.00813	0.751
7.04906	0.753
7.09	0.746
7.13094	0.734
7.17187	0.664
7.21281	0.542
7.25374	0.542
7.29468	0.553
7.33561	0.583
7.37655	0.523
7.41748	0.443
7.45842	0.385
7.49935	0.313
7.54029	0.231
7.58123	0.159
7.62216	0.104
7.6631	0.083
7.70403	0.059
7.74497	0.063
7.7859	0.09
7.82684	0.102
7.86777	0.083
7.90871	0.07
7.94965	0.08
7.99058	0.109
8.03152	0.155
8.07245	0.193
8.11339	0.202
8.15432	0.227
8.19526	0.238
8.23619	0.241
8.27713	0.21
8.31806	0.183
8.359	0.148
8.39994	0.13
8.44087	0.114
8.48181	0.119
8.52274	0.15
8.56368	0.202
8.60461	0.27
8.64555	0.345
8.68648	0.414
8.72742	0.474
8.76835	0.515
8.80929	0.547
8.85023	0.559
8.89116	0.577
8.9321	0.587
8.97303	0.602
9.01397	0.57
9.0549	0.38
9.09584	0.476
9.13677	0.558
9.17771	0.578
9.21865	0.565
9.25958	0.426
9.30052	0.294
9.34145	0.392
9.38239	0.511
9.42332	0.532
9.46426	0.34
9.50519	0.176
9.54613	0.464
9.58706	0.625
9.628	0.642
9.66894	0.65
9.70987	0.611
9.75081	0.575
9.79174	0.505
9.83268	0.433
9.87361	0.398
9.91455	0.405
9.95548	0.465
9.99642	0.53
10.0374	0.597
10.0783	0.64
10.1192	0.669
10.1602	0.691
10.2011	0.712
10.242	0.722
10.283	0.738
10.3239	0.743
10.3648	0.751
10.4058	0.761
10.4467	0.77
10.4876	0.775
10.5286	0.78
10.5695	0.782
10.6105	0.791
10.6514	0.791
10.6923	0.791
10.7333	0.792
10.7742	0.794
10.8151	0.792
10.8561	0.785
10.897	0.775
10.9379	0.761
10.9789	0.758
11.0198	0.738
11.0607	0.717
11.1017	0.672
11.1426	0.599
11.1835	0.505
11.2245	0.417
11.2654	0.369
11.3064	0.376
11.3473	0.412
11.3882	0.438
11.4292	0.428
11.4701	0.424
11.511	0.469
11.552	0.503
11.5929	0.517
11.6338	0.501
11.6748	0.433
11.7157	0.328
11.7566	0.301
11.7976	0.376
11.8385	0.486
11.8795	0.547
11.9204	0.58
11.9613	0.589
12.0023	0.595
12.0432	0.597
12.0841	0.587
12.1251	0.577
12.166	0.553
12.2069	0.523
12.2479	0.498
12.2888	0.464
12.3297	0.424
12.3707	0.38
12.4116	0.337
12.4525	0.303
12.4935	0.272
12.5344	0.239
12.5754	0.222
12.6163	0.198
12.6572	0.191
12.6982	0.2
12.7391	0.219
12.78	0.238
12.821	0.256
12.8619	0.253
12.9028	0.258
12.9438	0.285
12.9847	0.332
13.0256	0.386
13.0666	0.434
13.1075	0.477
13.1485	0.518
13.1894	0.542
13.2303	0.565
13.2713	0.566
13.3122	0.566
13.3531	0.539
13.3941	0.498
13.435	0.441
13.4759	0.4
13.5169	0.393
13.5578	0.429
13.5987	0.496
13.6397	0.563
13.6806	0.613
13.7215	0.648
13.7625	0.678
13.8034	0.698
13.8444	0.703
13.8853	0.703
13.9262	0.717
13.9672	0.731
14.0081	0.743
14.049	0.753
14.09	0.763
14.1309	0.758
14.1718	0.761
14.2128	0.767
14.2537	0.768
14.2946	0.768
14.3356	0.77
14.3765	0.765
14.4175	0.765
14.4584	0.76
14.4993	0.758
14.5403	0.758
14.5812	0.755
14.6221	0.751
14.6631	0.75
14.704	0.744
14.7449	0.743
14.7859	0.734
14.8268	0.732
14.8677	0.731
14.9087	0.722
14.9496	0.712
14.9905	0.693
15.0315	0.664
15.0724	0.681
15.1134	0.705
15.1543	0.705
15.1952	0.698
15.2362	0.686
15.2771	0.674
15.318	0.666
15.359	0.659
15.3999	0.652
15.4408	0.659
15.4818	0.667
15.5227	0.667
15.5636	0.671
15.6046	0.669
15.6455	0.666
15.6865	0.664
15.7274	0.662
15.7683	0.657
15.8093	0.659
15.8502	0.65
15.8911	0.652
15.9321	0.64
15.973	0.633
