Infrared Spectrum: SILVER NITRITE
Formula: Ag N O2
State: SOLID (NUJOL MULL)
Class: COBLENTZ
Instrument: Not specified, most likely a prism, grating, or hybrid spectrometer.
Sampling: TRANSMISSION
Resolution: 4
Origin: MELLON INSTITUTE
MICROMETERS	TRANSMITTANCE
2.024	0.57
2.06385	0.568
2.10371	0.563
2.14356	0.563
2.18342	0.566
2.22327	0.565
2.26313	0.568
2.30298	0.575
2.34283	0.58
2.38269	0.578
2.42254	0.583
2.4624	0.586
2.50225	0.59
2.54211	0.591
2.58196	0.598
2.62182	0.598
2.66167	0.598
2.70152	0.598
2.74138	0.6
2.78123	0.6
2.82109	0.6
2.86094	0.598
2.9008	0.598
2.94065	0.602
2.9805	0.603
3.02036	0.605
3.06021	0.605
3.10007	0.607
3.13992	0.608
3.17978	0.618
3.21963	0.625
3.25949	0.632
3.29934	0.62
3.33919	0.503
3.37905	0.406
3.4189	0.421
3.45876	0.428
3.49861	0.551
3.53847	0.662
3.57832	0.68
3.61817	0.69
3.65803	0.697
3.69788	0.7
3.73774	0.702
3.77759	0.702
3.81745	0.702
3.8573	0.698
3.89716	0.7
3.93701	0.702
3.97686	0.704
4.01672	0.707
4.05657	0.705
4.09643	0.704
4.13628	0.707
4.17614	0.707
4.21599	0.704
4.25584	0.702
4.2957	0.702
4.33555	0.704
4.37541	0.707
4.41526	0.712
4.45512	0.715
4.49497	0.715
4.53483	0.719
4.57468	0.72
4.61453	0.724
4.65439	0.725
4.69424	0.727
4.7341	0.729
4.77395	0.727
4.81381	0.727
4.85366	0.73
4.89351	0.729
4.93337	0.732
4.97322	0.735
5.01308	0.742
5.05293	0.745
5.09279	0.75
5.13264	0.754
5.1725	0.759
5.21235	0.76
5.2522	0.762
5.29206	0.767
5.33191	0.769
5.37177	0.769
5.41162	0.77
5.45148	0.775
5.49133	0.777
5.53118	0.777
5.57104	0.78
5.61089	0.78
5.65075	0.782
5.6906	0.787
5.73046	0.797
5.77031	0.802
5.81017	0.806
5.85002	0.804
5.88987	0.802
5.92973	0.802
5.96958	0.802
6.00944	0.802
6.04929	0.802
6.08915	0.806
6.129	0.807
6.16885	0.811
6.20871	0.817
6.24856	0.822
6.28842	0.822
6.32827	0.822
6.36813	0.822
6.40798	0.819
6.44784	0.821
6.48769	0.822
6.52754	0.821
6.5674	0.821
6.60725	0.821
6.64711	0.817
6.68696	0.812
6.72682	0.799
6.76667	0.74
6.80652	0.687
6.84638	0.657
6.88623	0.638
6.92609	0.635
6.96594	0.603
7.0058	0.508
7.04565	0.359
7.08551	0.257
7.12536	0.178
7.16521	0.118
7.20507	0.1
7.24492	0.1
7.28478	0.102
7.32463	0.13
7.36449	0.2
7.40434	0.244
7.44419	0.257
7.48405	0.252
7.5239	0.237
7.56376	0.219
7.60361	0.2
7.64347	0.183
7.68332	0.153
7.72318	0.14
7.76303	0.123
7.80288	0.113
7.84274	0.102
7.88259	0.096
7.92245	0.093
7.9623	0.093
8.00216	0.093
8.04201	0.095
8.08186	0.098
8.12172	0.113
8.16157	0.132
8.20143	0.15
8.24128	0.173
8.28114	0.222
8.32099	0.265
8.36085	0.324
8.4007	0.369
8.44055	0.423
8.48041	0.476
8.52026	0.515
8.56012	0.553
8.59997	0.58
8.63983	0.627
8.67968	0.643
8.71953	0.668
8.75939	0.69
8.79924	0.705
8.8391	0.71
8.87895	0.724
8.91881	0.735
8.95866	0.742
8.99852	0.752
9.03837	0.757
9.07822	0.765
9.11808	0.77
9.15793	0.775
9.19779	0.782
9.23764	0.789
9.2775	0.797
9.31735	0.802
9.3572	0.806
9.39706	0.814
9.43691	0.819
9.47677	0.827
9.51662	0.832
9.55648	0.836
9.59633	0.841
9.63619	0.842
9.67604	0.851
9.71589	0.852
9.75575	0.856
9.7956	0.862
9.83546	0.864
9.87531	0.862
9.91517	0.864
9.95502	0.871
9.99487	0.872
10.0347	0.874
10.0746	0.876
10.1144	0.877
10.1543	0.874
10.1941	0.877
10.234	0.881
10.2739	0.881
10.3137	0.884
10.3536	0.887
10.3934	0.892
10.4333	0.892
10.4731	0.889
10.513	0.894
10.5528	0.896
10.5927	0.899
10.6325	0.899
10.6724	0.896
10.7123	0.897
10.7521	0.897
10.792	0.897
10.8318	0.904
10.8717	0.908
10.9115	0.908
10.9514	0.908
10.9912	0.909
11.0311	0.911
11.0709	0.914
11.1108	0.916
11.1507	0.914
11.1905	0.913
11.2304	0.914
11.2702	0.914
11.3101	0.914
11.3499	0.914
11.3898	0.919
11.4296	0.921
11.4695	0.921
11.5093	0.923
11.5492	0.919
11.589	0.914
11.6289	0.908
11.6688	0.894
11.7086	0.877
11.7485	0.874
11.7883	0.866
11.8282	0.871
11.868	0.882
11.9079	0.867
11.9477	0.79
11.9876	0.782
12.0274	0.779
12.0673	0.784
12.1072	0.836
12.147	0.867
12.1869	0.887
12.2267	0.894
12.2666	0.896
12.3064	0.896
12.3463	0.899
12.3861	0.899
12.426	0.892
12.4658	0.891
12.5057	0.894
12.5456	0.901
12.5854	0.903
12.6253	0.903
12.6651	0.906
12.705	0.909
12.7448	0.911
12.7847	0.913
12.8245	0.916
12.8644	0.913
12.9042	0.913
12.9441	0.911
12.984	0.913
13.0238	0.911
13.0637	0.914
13.1035	0.911
13.1434	0.913
13.1832	0.914
13.2231	0.914
13.2629	0.909
13.3028	0.906
13.3426	0.904
13.3825	0.901
13.4224	0.899
13.4622	0.892
13.5021	0.891
13.5419	0.891
13.5818	0.884
13.6216	0.886
13.6615	0.887
13.7013	0.884
13.7412	0.881
13.781	0.877
13.8209	0.872
13.8607	0.871
13.9006	0.867
13.9405	0.862
13.9803	0.856
14.0202	0.857
14.06	0.854
14.0999	0.851
14.1397	0.844
14.1796	0.837
14.2194	0.832
14.2593	0.826
14.2991	0.821
14.339	0.812
14.3789	0.802
14.4187	0.794
14.4586	0.787
14.4984	0.782
14.5383	0.774
14.5781	0.77
14.618	0.76
14.6578	0.754
14.6977	0.749
14.7375	0.744
14.7774	0.732
14.8173	0.714
14.8571	0.717
14.897	0.717
14.9368	0.715
14.9767	0.705
15.0165	0.7
15.0564	0.698
15.0962	0.692
15.1361	0.685
15.1759	0.678
15.2158	0.668
15.2557	0.665
15.2955	0.663
15.3354	0.66
15.3752	0.652
15.4151	0.643
15.4549	0.64
15.4948	0.633
15.5346	0.632
15.5745	0.632
15.6143	0.628
15.6542	0.627
15.694	0.623
15.7339	0.62
15.7738	0.622
15.8136	0.618
15.8535	0.618
15.8933	0.618
15.9332	0.613
15.973	0.615
