Infrared Spectrum: 1H-Indeno(2,1-c)pyridine, 2-methyl-9-phenyl-2,3,4,9-tetrahydro-, hydrogen tartrate
Formula: C23 H25 N O6
State: SOLID (SPLIT MULL), FLUOROLUBE FOR 3800-1330 CM^-^1, NUJOL FOR 1330-400 CM^-^1
Class: COBLENTZ III
Instrument: DOW KBr FOREPRISM-GRATING
Instrument parameters: BLAZED AT 3.5, 12.0, 20.0 MICRON AND CHANGED AT 5.0, 7.5, 14.9 MICRON
Sampling: TRANSMISSION
Resolution: 2
Origin: DOW CHEMICAL COMPANY
1/CM	TRANSMITTANCE
3776	0.8866
3767	0.8868
3758	0.8883
3749	0.8916
3740	0.8937
3731	0.895
3722	0.8961
3713	0.8971
3704	0.8982
3695	0.8988
3686	0.8992
3677	0.8995
3668	0.8995
3659	0.8994
3650	0.8992
3641	0.8967
3632	0.8943
3623	0.8914
3614	0.8882
3605	0.8849
3596	0.8808
3587	0.8716
3578	0.8666
3569	0.8646
3560	0.86
3551	0.8515
3542	0.838
3533	0.8203
3524	0.8
3515	0.7748
3506	0.7345
3497	0.6761
3488	0.6174
3479	0.4559
3470	0.3428
3461	0.4578
3452	0.5734
3443	0.6218
3434	0.6568
3425	0.6728
3416	0.681
3407	0.6849
3398	0.6865
3389	0.6867
3380	0.6853
3371	0.6799
3362	0.6695
3353	0.6561
3344	0.643
3335	0.6295
3326	0.6157
3317	0.6017
3308	0.588
3299	0.5752
3290	0.563
3281	0.5519
3272	0.544
3263	0.5391
3254	0.537
3245	0.536
3236	0.5368
3227	0.5399
3218	0.5451
3209	0.5519
3200	0.5608
3191	0.5714
3182	0.5833
3173	0.5972
3164	0.611
3155	0.625
3146	0.6392
3137	0.6533
3128	0.6661
3119	0.6741
3110	0.6774
3101	0.6783
3092	0.6772
3083	0.6718
3074	0.6514
3065	0.6125
3056	0.5868
3047	0.6122
3038	0.6138
3029	0.5665
3020	0.5798
3011	0.6132
3002	0.6349
2993	0.6697
2984	0.6982
2975	0.6947
2966	0.6937
2957	0.6926
2948	0.6908
2939	0.6681
2930	0.6628
2921	0.6639
2912	0.6647
2903	0.683
2894	0.7045
2885	0.7178
2876	0.726
2867	0.7297
2858	0.7291
2849	0.7271
2840	0.7264
2831	0.7315
2822	0.7375
2813	0.7428
2804	0.7475
2795	0.7504
2786	0.7497
2777	0.7471
2768	0.7428
2759	0.7367
2750	0.7286
2741	0.7206
2732	0.7142
2723	0.71
2714	0.7091
2705	0.709
2696	0.7091
2687	0.7091
2678	0.7092
2669	0.7093
2660	0.7095
2651	0.7098
2642	0.7097
2633	0.7095
2624	0.7089
2615	0.7075
2606	0.7019
2597	0.6946
2588	0.6889
2579	0.686
2570	0.684
2561	0.6824
2552	0.6811
2543	0.6797
2534	0.6784
2525	0.6762
2516	0.6745
2507	0.6722
2498	0.6703
2489	0.6684
2480	0.6678
2471	0.6675
2462	0.6668
2453	0.6651
2444	0.6641
2435	0.6625
2426	0.6607
2417	0.6593
2408	0.6581
2399	0.656
2390	0.6551
2381	0.6551
2372	0.6567
2363	0.6572
2354	0.6571
2345	0.6557
2336	0.6533
2327	0.6478
2318	0.6438
2309	0.6514
2300	0.6518
2291	0.6519
2282	0.6521
2273	0.6521
2264	0.6534
2255	0.6649
2246	0.6661
2237	0.6687
2228	0.6735
2219	0.6796
2210	0.6865
2201	0.6949
2192	0.7022
2183	0.7035
2174	0.7098
2165	0.7154
2156	0.7208
2147	0.7262
2138	0.7314
2129	0.7362
2120	0.7414
2111	0.7467
2102	0.7533
2093	0.7598
2084	0.7661
2075	0.7721
2066	0.7778
2057	0.7835
2048	0.7892
2039	0.7948
2030	0.8001
2021	0.8043
2012	0.8071
2003	0.8086
1994	0.8148
1985	0.818
1976	0.8231
1967	0.8236
1958	0.8283
1949	0.8195
1940	0.8255
1931	0.8351
1922	0.8382
1913	0.8332
1904	0.8278
1895	0.8278
1886	0.8302
1877	0.833
1868	0.8362
1859	0.8408
1850	0.8437
1841	0.8444
1832	0.8438
1823	0.8451
1814	0.8423
1805	0.8385
1796	0.8328
1787	0.8149
1778	0.796
1769	0.7684
1760	0.7019
1751	0.1041
1742	0.4668
1733	0.5152
1724	0.4991
1715	0.5497
1706	0.5807
1697	0.6109
1688	0.6157
1679	0.615
1670	0.617
1661	0.6189
1652	0.6127
1643	0.6042
1634	0.5807
1625	0.526
1616	0.442
1607	0.3738
1598	0.33
1589	0.3172
1580	0.3538
1571	0.4359
1562	0.5112
1553	0.5641
1544	0.6002
1535	0.6172
1526	0.618
1517	0.6137
1508	0.6134
1499	0.4892
1490	0.556
1481	0.5624
1472	0.451
1463	0.4277
1454	0.365
1445	0.466
1436	0.4353
1427	0.3449
1418	0.3189
1409	0.3155
1400	0.3564
1391	0.3034
1382	0.2192
1373	0.3245
1364	0.2095
1355	0.2857
1346	0.2036
1337	0.214
1328	0.2914
1319	0.3073
1310	0.2851
1301	0.2568
1292	0.3484
1283	0.3637
1274	0.3534
1265	0.431
1256	0.443
1247	0.4353
1238	0.4555
1229	0.4815
1220	0.4812
1211	0.4921
1202	0.4905
1193	0.4696
1184	0.4652
1175	0.4981
1166	0.5423
1157	0.5526
1148	0.5442
1139	0.4297
1130	0.4627
1121	0.3532
1112	0.3134
1103	0.4667
1094	0.525
1085	0.4727
1076	0.2535
1067	0.4201
1058	0.5455
1049	0.6252
1040	0.6403
1031	0.5706
1022	0.6556
1013	0.595
1004	0.7028
995	0.7188
986	0.6793
977	0.5033
968	0.6005
959	0.6487
950	0.6095
941	0.6564
932	0.7303
923	0.7565
914	0.6967
905	0.7328
896	0.6678
887	0.6857
878	0.7305
869	0.7289
860	0.7503
851	0.7401
842	0.7582
833	0.7642
824	0.7601
815	0.7951
806	0.7734
797	0.7642
788	0.745
779	0.7234
770	0.5599
761	0.496
752	0.5121
743	0.539
734	0.6753
725	0.3916
716	0.6788
707	0.5707
698	0.3455
689	0.6878
680	0.6987
671	0.6453
662	0.7368
653	0.8043
644	0.6818
635	0.7869
626	0.8165
617	0.7231
608	0.6903
599	0.6818
590	0.6608
581	0.7698
572	0.8231
563	0.8336
554	0.8375
545	0.8227
536	0.7844
527	0.7608
518	0.7847
509	0.6987
500	0.6205
491	0.6838
482	0.7521
473	0.7501
464	0.7797
455	0.7978
446	0.8001
437	0.8099
428	0.8187
419	0.8292
410	0.8284
401	0.8305
392	0.8323
383	0.834
