Infrared Spectrum: Calcium oxalate monohydrate
Formula: C2 Ca O4  * H2 O
State: SOLID (SPLIT MULL), FLUOROLUBE FOR 3800-1330 CM^-^1, NUJOL FOR 1330-400 CM^-^1
Class: COBLENTZ II
Instrument: DOW KBr FOREPRISM-GRATING
Instrument parameters: BLAZED AT 3.5, 12.0, 20.0 MICRON AND CHANGED AT 5.0, 7.5, 14.9 MICRON
Sampling: TRANSMISSION
Resolution: 2
Origin: DOW CHEMICAL COMPANY
1/CM	TRANSMITTANCE
3800	0.8595
3791	0.8603
3782	0.8612
3773	0.862
3764	0.8625
3755	0.8627
3746	0.8625
3737	0.8623
3728	0.8632
3719	0.8644
3710	0.8662
3701	0.8668
3692	0.8612
3683	0.8578
3674	0.8618
3665	0.8639
3656	0.8625
3647	0.8594
3638	0.8552
3629	0.8499
3620	0.8437
3611	0.8364
3602	0.8343
3593	0.8318
3584	0.8125
3575	0.8078
3566	0.8008
3557	0.7876
3548	0.7745
3539	0.7528
3530	0.7299
3521	0.7008
3512	0.6568
3503	0.6128
3494	0.5691
3485	0.5557
3476	0.5557
3467	0.5625
3458	0.5691
3449	0.5725
3440	0.561
3431	0.5405
3422	0.5454
3413	0.5729
3404	0.6096
3395	0.643
3386	0.6567
3377	0.6607
3368	0.6553
3359	0.6257
3350	0.5919
3341	0.5726
3332	0.5699
3323	0.5812
3314	0.6016
3305	0.621
3296	0.6365
3287	0.6418
3278	0.6419
3269	0.6358
3260	0.6269
3251	0.6172
3242	0.617
3233	0.6262
3224	0.6349
3215	0.6448
3206	0.6558
3197	0.6698
3188	0.6825
3179	0.693
3170	0.6962
3161	0.6961
3152	0.6935
3143	0.6906
3134	0.6874
3125	0.6838
3116	0.6781
3107	0.6705
3098	0.6578
3089	0.6411
3080	0.6206
3071	0.595
3062	0.5747
3053	0.5705
3044	0.5717
3035	0.5839
3026	0.598
3017	0.6139
3008	0.6303
2999	0.6451
2990	0.6607
2981	0.6761
2972	0.6907
2963	0.7038
2954	0.7132
2945	0.7206
2936	0.7271
2927	0.7335
2918	0.7412
2909	0.7551
2900	0.7668
2891	0.7721
2882	0.7775
2873	0.7824
2864	0.7871
2855	0.7918
2846	0.7961
2837	0.8
2828	0.8041
2819	0.8069
2810	0.809
2801	0.811
2792	0.8128
2783	0.815
2774	0.8169
2765	0.8184
2756	0.8211
2747	0.8268
2738	0.8299
2729	0.8328
2720	0.8358
2711	0.8386
2702	0.8406
2693	0.8418
2684	0.8433
2675	0.8452
2666	0.8474
2657	0.8494
2648	0.8511
2639	0.8527
2630	0.8543
2621	0.8558
2612	0.8567
2603	0.8574
2594	0.8582
2585	0.8589
2576	0.8597
2567	0.8604
2558	0.8607
2549	0.861
2540	0.8613
2531	0.8616
2522	0.8617
2513	0.8615
2504	0.8613
2495	0.8611
2486	0.861
2477	0.8608
2468	0.8606
2459	0.8604
2450	0.8601
2441	0.8595
2432	0.859
2423	0.8585
2414	0.858
2405	0.8571
2396	0.8563
2387	0.8554
2378	0.8574
2369	0.8603
2360	0.8621
2351	0.8633
2342	0.8638
2333	0.8631
2324	0.8621
2315	0.8594
2306	0.8498
2297	0.8478
2288	0.8399
2279	0.8368
2270	0.8371
2261	0.8398
2252	0.8427
2243	0.8447
2234	0.8466
2225	0.8486
2216	0.8501
2207	0.8517
2198	0.8532
2189	0.855
2180	0.8568
2171	0.8582
2162	0.8596
2153	0.8598
2144	0.8598
2135	0.8595
2126	0.8592
2117	0.859
2108	0.8596
2099	0.8601
2090	0.8611
2081	0.8623
2072	0.863
2063	0.8632
2054	0.8628
2045	0.8627
2036	0.8628
2027	0.8632
2018	0.8623
2009	0.8612
2000	0.8609
1991	0.8675
1982	0.8684
1973	0.8697
1964	0.8693
1955	0.8685
1946	0.8667
1937	0.8643
1928	0.8605
1919	0.8555
1910	0.8499
1901	0.8501
1892	0.8528
1883	0.8552
1874	0.8555
1865	0.8553
1856	0.855
1847	0.8535
1838	0.8518
1829	0.8499
1820	0.8461
1811	0.8424
1802	0.8384
1793	0.8331
1784	0.8261
1775	0.8183
1766	0.8099
1757	0.7998
1748	0.7874
1739	0.7667
1730	0.749
1721	0.7171
1712	0.6731
1703	0.6215
1694	0.5515
1685	0.4415
1676	0.284
1667	0.157
1658	0.1128
1649	0.0888
1640	0.0643
1631	0.0469
1622	0.0441
1613	0.079
1604	0.1718
1595	0.2983
1586	0.382
1577	0.4338
1568	0.481
1559	0.5332
1550	0.5779
1541	0.6177
1532	0.6465
1523	0.6715
1514	0.6922
1505	0.7094
1496	0.7151
1487	0.7151
1478	0.7336
1469	0.7396
1460	0.7375
1451	0.7496
1442	0.7548
1433	0.7571
1424	0.7592
1415	0.7593
1406	0.7548
1397	0.7165
1388	0.6498
1379	0.6162
1370	0.6034
1361	0.6003
1352	0.6093
1343	0.566
1334	0.3674
1325	0.1536
1316	0.1226
1307	0.4892
1298	0.6405
1289	0.7141
1280	0.7488
1271	0.7668
1262	0.7781
1253	0.7869
1244	0.7942
1235	0.8001
1226	0.805
1217	0.8093
1208	0.8119
1199	0.8148
1190	0.819
1181	0.815
1172	0.8143
1163	0.8149
1154	0.8153
1145	0.8154
1136	0.8193
1127	0.8263
1118	0.8307
1109	0.8331
1100	0.8349
1091	0.8364
1082	0.8371
1073	0.8343
1064	0.8373
1055	0.8414
1046	0.8468
1037	0.8464
1028	0.8475
1019	0.8486
1010	0.8498
1001	0.8506
992	0.8503
983	0.8497
974	0.8421
965	0.8239
956	0.8108
947	0.7995
938	0.8131
929	0.8301
920	0.8446
911	0.8544
902	0.8551
893	0.8192
884	0.7933
875	0.8155
866	0.849
857	0.855
848	0.8623
839	0.8695
830	0.8735
821	0.8739
812	0.8699
803	0.8494
794	0.6607
785	0.2592
776	0.5816
767	0.6876
758	0.761
749	0.7905
740	0.7906
731	0.7778
722	0.7519
713	0.7718
704	0.7639
695	0.7321
686	0.6806
677	0.6129
668	0.5743
659	0.5848
650	0.6259
641	0.6707
632	0.7111
623	0.7365
614	0.7468
605	0.7446
596	0.7287
587	0.7299
578	0.7482
569	0.7642
560	0.7782
551	0.7869
542	0.7899
533	0.7631
524	0.571
515	0.4753
506	0.685
497	0.7515
488	0.7912
479	0.8206
470	0.8321
461	0.8321
452	0.8304
443	0.8298
434	0.8304
425	0.8265
416	0.8178
407	0.8087
398	0.7991
389	0.7882
