Infrared Spectrum: 3-Pyridineacetic acid, sodium salt
Formula: C7 H6 N Na O2
State: SOLID (SPLIT MULL), FLUOROLUBE FOR 3800-1330 CM^-^1, NUJOL FOR 1330-400 CM^-^1
Melting point: MORE THAN 246 C
Class: COBLENTZ III
Instrument: DOW KBr FOREPRISM-GRATING
Instrument parameters: BLAZED AT 3.5, 12.0, 20.0 MICRON AND CHANGED AT 5.0, 7.5, 14.9 MICRON
Sampling: TRANSMISSION
Resolution: 2
Origin: DOW CHEMICAL COMPANY
1/CM	TRANSMITTANCE
3800	0.784
3791	0.7844
3782	0.7849
3773	0.7853
3764	0.7858
3755	0.7861
3746	0.7867
3737	0.7871
3728	0.7878
3719	0.7882
3710	0.7886
3701	0.7889
3692	0.7887
3683	0.788
3674	0.7875
3665	0.7865
3656	0.7853
3647	0.7842
3638	0.7833
3629	0.7825
3620	0.7819
3611	0.7791
3602	0.7767
3593	0.7785
3584	0.7765
3575	0.7742
3566	0.7771
3557	0.7776
3548	0.7771
3539	0.7758
3530	0.7747
3521	0.7734
3512	0.7718
3503	0.7703
3494	0.769
3485	0.7675
3476	0.7678
3467	0.7685
3458	0.7689
3449	0.7686
3440	0.7684
3431	0.7678
3422	0.7674
3413	0.766
3404	0.7636
3395	0.7607
3386	0.7567
3377	0.7531
3368	0.7508
3359	0.7503
3350	0.7499
3341	0.7496
3332	0.7511
3323	0.7525
3314	0.7542
3305	0.7558
3296	0.7575
3287	0.7591
3278	0.7607
3269	0.7621
3260	0.7628
3251	0.7634
3242	0.764
3233	0.7643
3224	0.7646
3215	0.7648
3206	0.765
3197	0.7651
3188	0.7651
3179	0.7651
3170	0.7651
3161	0.7648
3152	0.7642
3143	0.7635
3134	0.7625
3125	0.7617
3116	0.7611
3107	0.7604
3098	0.7497
3089	0.7546
3080	0.7632
3071	0.7515
3062	0.7471
3053	0.7603
3044	0.6794
3035	0.7468
3026	0.758
3017	0.759
3008	0.7547
2999	0.7601
2990	0.7621
2981	0.7611
2972	0.7522
2963	0.6508
2954	0.7478
2945	0.7654
2936	0.7671
2927	0.7685
2918	0.7704
2909	0.7734
2900	0.7815
2891	0.7896
2882	0.793
2873	0.7958
2864	0.7975
2855	0.7991
2846	0.8008
2837	0.8021
2828	0.8037
2819	0.8051
2810	0.8065
2801	0.808
2792	0.8094
2783	0.8107
2774	0.8121
2765	0.8134
2756	0.8148
2747	0.8162
2738	0.8178
2729	0.8195
2720	0.821
2711	0.8221
2702	0.8228
2693	0.8233
2684	0.8239
2675	0.8244
2666	0.8251
2657	0.8258
2648	0.8265
2639	0.8271
2630	0.8278
2621	0.8288
2612	0.8298
2603	0.8308
2594	0.8318
2585	0.8327
2576	0.8336
2567	0.8338
2558	0.8338
2549	0.8338
2540	0.8337
2531	0.8334
2522	0.8332
2513	0.8328
2504	0.8328
2495	0.8328
2486	0.8328
2477	0.8325
2468	0.8321
2459	0.8316
2450	0.8312
2441	0.8306
2432	0.8301
2423	0.8296
2414	0.8292
2405	0.8286
2396	0.8281
2387	0.8275
2378	0.8271
2369	0.8265
2360	0.826
2351	0.8256
2342	0.8254
2333	0.8252
2324	0.8251
2315	0.8249
2306	0.8257
2297	0.8271
2288	0.8287
2279	0.8306
2270	0.8327
2261	0.8345
2252	0.8362
2243	0.8378
2234	0.8394
2225	0.8404
2216	0.8412
2207	0.8421
2198	0.8428
2189	0.8446
2180	0.8464
2171	0.8482
2162	0.85
2153	0.8517
2144	0.8532
2135	0.8546
2126	0.8561
2117	0.8575
2108	0.8586
2099	0.8594
2090	0.8603
2081	0.8612
2072	0.8621
2063	0.8631
2054	0.8642
2045	0.8652
2036	0.866
2027	0.8668
2018	0.8677
2009	0.8681
2000	0.8688
1991	0.8701
1982	0.8711
1973	0.8673
1964	0.871
1955	0.8757
1946	0.8768
1937	0.874
1928	0.8768
1919	0.871
1910	0.8725
1901	0.8768
1892	0.8774
1883	0.8715
1874	0.8711
1865	0.874
1856	0.8764
1847	0.8784
1838	0.88
1829	0.8815
1820	0.8828
1811	0.8835
1802	0.8834
1793	0.8831
1784	0.8828
1775	0.8835
1766	0.8838
1757	0.8836
1748	0.8827
1739	0.8807
1730	0.8796
1721	0.8768
1712	0.8728
1703	0.8678
1694	0.8627
1685	0.8568
1676	0.8503
1667	0.8411
1658	0.8302
1649	0.8195
1640	0.8117
1631	0.8068
1622	0.7946
1613	0.7676
1604	0.6424
1595	0.2098
1586	0.0479
1577	0.0261
1568	0.2034
1559	0.5224
1550	0.539
1541	0.6626
1532	0.7134
1523	0.7492
1514	0.7704
1505	0.7836
1496	0.791
1487	0.793
1478	0.5964
1469	0.7854
1460	0.7817
1451	0.776
1442	0.7451
1433	0.4494
1424	0.2789
1415	0.6433
1406	0.2935
1397	0.2011
1388	0.157
1379	0.5364
1370	0.6918
1361	0.7321
1352	0.758
1343	0.7317
1334	0.7397
1325	0.7554
1316	0.7564
1307	0.7449
1298	0.5503
1289	0.6924
1280	0.7496
1271	0.7651
1262	0.7751
1253	0.7783
1244	0.7797
1235	0.7884
1226	0.6474
1217	0.7928
1208	0.7961
1199	0.7624
1190	0.7882
1181	0.7458
1172	0.6705
1163	0.7703
1154	0.7893
1145	0.7982
1136	0.8051
1127	0.7975
1118	0.7968
1109	0.7974
1100	0.8015
1091	0.8187
1082	0.822
1073	0.8178
1064	0.8189
1055	0.8213
1046	0.7925
1037	0.8091
1028	0.8045
1019	0.8218
1010	0.8259
1001	0.8251
992	0.8233
983	0.8133
974	0.8125
965	0.8088
956	0.7845
947	0.8117
938	0.7739
929	0.7837
920	0.7512
911	0.8204
902	0.8245
893	0.8274
884	0.8309
875	0.8323
866	0.8044
857	0.74
848	0.805
839	0.8146
830	0.8239
821	0.8128
812	0.6683
803	0.7964
794	0.8316
785	0.832
776	0.8286
767	0.8244
758	0.8186
749	0.8045
740	0.7598
731	0.4896
722	0.4702
713	0.6464
704	0.7658
695	0.8049
686	0.8217
677	0.8309
668	0.8339
659	0.8213
650	0.7498
641	0.7168
632	0.8145
623	0.589
614	0.8053
605	0.8215
596	0.8225
587	0.7908
578	0.6968
569	0.7975
560	0.8068
551	0.8115
542	0.8134
533	0.8128
524	0.8107
515	0.8081
506	0.8056
497	0.8025
488	0.7971
479	0.7762
470	0.7315
461	0.7739
452	0.765
443	0.753
434	0.7408
425	0.7288
416	0.7154
407	0.6891
398	0.6625
389	0.6486
