Infrared Spectrum: Piperazine, 1,4-bis(Alpha-methylphenethyl)-, dihydrochloride
Formula: C22 H32 Cl2 N2
State: SOLID (NUJOL MULL)
Class: COBLENTZ III
Instrument: PERKIN-ELMER 21 (GRATING)
Instrument parameters: NaCl PRISM
Sampling: TRANSMISSION
Resolution: 2
Origin: SMITH KLINE & FRENCH LABS.
1/CM	TRANSMITTANCE
652	0.6635
661	0.7136
670	0.7479
679	0.7609
688	0.7587
697	0.5201
706	0.5132
715	0.7531
724	0.7418
733	0.7078
742	0.6492
751	0.1461
760	0.7283
769	0.7933
778	0.8284
787	0.8529
796	0.8474
805	0.8266
814	0.8202
823	0.7808
832	0.8237
841	0.8313
850	0.8124
859	0.8383
868	0.8048
877	0.825
886	0.8147
895	0.7535
904	0.7677
913	0.7671
922	0.6524
931	0.5652
940	0.7601
949	0.8028
958	0.7999
967	0.7874
976	0.7954
985	0.8061
994	0.802
1003	0.7821
1012	0.7517
1021	0.5786
1030	0.6891
1039	0.7178
1048	0.7729
1057	0.7287
1066	0.7191
1075	0.8363
1084	0.6896
1093	0.6686
1102	0.5819
1111	0.6041
1120	0.7195
1129	0.7185
1138	0.7584
1147	0.7657
1156	0.7592
1165	0.7669
1174	0.7685
1183	0.7694
1192	0.7889
1201	0.7884
1210	0.772
1219	0.7574
1228	0.6868
1237	0.7594
1246	0.7696
1255	0.7588
1264	0.7356
1273	0.6492
1282	0.6602
1291	0.4754
1300	0.7161
1309	0.7072
1318	0.6729
1327	0.6991
1336	0.6796
1345	0.6582
1354	0.6253
1363	0.4766
1372	0.3884
1381	0.3284
1390	0.4665
1399	0.594
1408	0.5823
1417	0.6622
1426	0.6154
1435	0.4164
1444	0.221
1453	0.2047
1462	0.1555
1471	0.2135
1480	0.4718
1489	0.4235
1498	0.4976
1507	0.7429
1516	0.7667
1525	0.7634
1534	0.7586
1543	0.7559
1552	0.7572
1561	0.756
1570	0.7597
1579	0.7514
1588	0.7354
1597	0.7372
1606	0.6588
1615	0.7769
1624	0.7809
1633	0.7764
1642	0.7763
1651	0.7772
1660	0.771
1669	0.7703
1678	0.7735
1687	0.7774
1696	0.7739
1705	0.7755
1714	0.7746
1723	0.7687
1732	0.7674
1741	0.7663
1750	0.7653
1759	0.7654
1768	0.7681
1777	0.7728
1786	0.773
1795	0.7699
1804	0.7631
1813	0.7553
1822	0.7474
1831	0.7472
1840	0.751
1849	0.755
1858	0.7542
1867	0.7499
1876	0.7411
1885	0.7385
1894	0.7411
1903	0.7417
1912	0.7385
1921	0.7337
1930	0.7244
1939	0.7125
1948	0.6984
1957	0.6906
1966	0.6917
1975	0.6914
1984	0.6817
1993	0.6748
2002	0.6741
2011	0.6709
2020	0.6605
2029	0.6479
2038	0.6362
2047	0.6224
2056	0.6077
2065	0.5922
2074	0.5769
2083	0.5618
2092	0.5456
2101	0.5285
2110	0.5117
2119	0.4951
2128	0.4788
2137	0.4628
2146	0.4449
2155	0.4256
2164	0.4
2173	0.3771
2182	0.3512
2191	0.3197
2200	0.2887
2209	0.2585
2218	0.242
2227	0.2294
2236	0.2171
2245	0.2041
2254	0.1963
2263	0.1908
2272	0.1873
2281	0.1856
2290	0.185
2299	0.1867
2308	0.1904
2317	0.1968
2326	0.2035
2335	0.2108
2344	0.2183
2353	0.2266
2362	0.2351
2371	0.2436
2380	0.2528
2389	0.273
2398	0.3259
2407	0.3399
2416	0.35
2425	0.3611
2434	0.3732
2443	0.444
2452	0.4631
2461	0.4699
2470	0.4683
2479	0.4646
2488	0.464
2497	0.4648
2506	0.4664
2515	0.4715
2524	0.4792
2533	0.4893
2542	0.5161
2551	0.5303
2560	0.5336
2569	0.537
2578	0.5438
2587	0.5519
2596	0.5612
2605	0.5665
2614	0.5661
2623	0.5664
2632	0.5677
2641	0.5705
2650	0.5763
2659	0.5898
2668	0.6115
2677	0.6281
2686	0.6336
2695	0.6337
2704	0.634
2713	0.6348
2722	0.6367
2731	0.6385
2740	0.6366
2749	0.6306
2758	0.6225
2767	0.6137
2776	0.6009
2785	0.5821
2794	0.5635
2803	0.5103
2812	0.3202
2821	0.105
2830	0.0734
2839	0.0656
2848	0.0642
2857	0.063
2866	0.0599
2875	0.0531
2884	0.0496
2893	0.0499
2902	0.0513
2911	0.0556
2920	0.0638
2929	0.0781
2938	0.0908
2947	0.1055
2956	0.1683
2965	0.2344
2974	0.3
2983	0.4476
2992	0.492
3001	0.5076
3010	0.5188
3019	0.5298
3028	0.5404
3037	0.5499
3046	0.559
3055	0.5651
3064	0.57
3073	0.5749
3082	0.579
3091	0.5819
3100	0.5832
3109	0.5832
3118	0.5833
3127	0.5829
3136	0.5826
3145	0.5822
3154	0.5818
3163	0.5809
3172	0.5798
3181	0.5787
3190	0.5776
3199	0.5765
3208	0.5755
3217	0.5744
3226	0.5734
3235	0.5724
3244	0.5714
3253	0.5704
3262	0.5694
3271	0.5684
3280	0.5673
3289	0.566
3298	0.5647
3307	0.5633
3316	0.5621
3325	0.5608
3334	0.5595
3343	0.5585
3352	0.5577
3361	0.5569
3370	0.5561
3379	0.5553
3388	0.5547
3397	0.5543
3406	0.554
3415	0.5537
3424	0.5536
3433	0.5539
3442	0.5541
3451	0.5543
3460	0.5547
3469	0.5553
3478	0.5559
3487	0.5565
3496	0.5566
3505	0.5557
3514	0.5549
3523	0.554
3532	0.553
3541	0.5516
3550	0.5501
3559	0.5487
3568	0.5474
3577	0.5462
3586	0.5451
3595	0.5441
3604	0.543
3613	0.5423
3622	0.542
3631	0.5417
3640	0.5414
3649	0.5411
3658	0.5407
3667	0.5404
3676	0.5397
3685	0.539
3694	0.5381
3703	0.5362
3712	0.5341
3721	0.532
3730	0.5299
3739	0.5279
3748	0.5266
3757	0.5254
3766	0.5241
3775	0.523
3784	0.5217
3793	0.5205
3802	0.5193
3811	0.518
3820	0.5167
3829	0.5153
3838	0.5139
3847	0.5125
3856	0.5112
3865	0.5098
3874	0.5087
3883	0.5079
3892	0.5071
3901	0.5063
3910	0.5054
3919	0.5049
3928	0.5048
3937	0.5046
3946	0.5031
3955	0.5006
3964	0.4981
3973	0.4955
3982	0.4929
3991	0.4904
4000	0.4882
