Infrared Spectrum: 6-PHENYLQUINOLINE
Formula: C15 H11 N
Melting point: 110-111 C
Class: COBLENTZ
Instrument: Not specified, most likely a prism, grating, or hybrid spectrometer.
Sampling: TRANSMISSION
Resolution: 4
Origin: WYANDOTTE CHEMICALS CORP., WYANDOTTE, MICHIGAN, USA
MICROMETERS	TRANSMITTANCE
2.095	0.664
2.13492	0.664
2.17484	0.659
2.21476	0.651
2.25469	0.647
2.29461	0.646
2.33453	0.641
2.37445	0.641
2.41437	0.647
2.45429	0.646
2.49422	0.644
2.53414	0.646
2.57406	0.649
2.61398	0.659
2.6539	0.664
2.69382	0.672
2.73374	0.676
2.77367	0.682
2.81359	0.682
2.85351	0.687
2.89343	0.687
2.93335	0.694
2.97327	0.699
3.0132	0.701
3.05312	0.701
3.09304	0.697
3.13296	0.682
3.17288	0.676
3.2128	0.664
3.25272	0.631
3.29265	0.51
3.33257	0.205
3.37249	0.033
3.41241	0.028
3.45233	0.031
3.49225	0.033
3.53218	0.103
3.5721	0.25
3.61202	0.28
3.65194	0.288
3.69186	0.283
3.73178	0.283
3.7717	0.285
3.81163	0.288
3.85155	0.298
3.89147	0.3
3.93139	0.313
3.97131	0.322
4.01123	0.328
4.05116	0.323
4.09108	0.323
4.131	0.327
4.17092	0.328
4.21084	0.338
4.25076	0.332
4.29068	0.328
4.33061	0.345
4.37053	0.353
4.41045	0.355
4.45037	0.353
4.49029	0.357
4.53021	0.36
4.57013	0.365
4.61006	0.372
4.64998	0.373
4.6899	0.377
4.72982	0.38
4.76974	0.383
4.80966	0.393
4.84959	0.4
4.88951	0.402
4.92943	0.404
4.96935	0.404
5.00927	0.409
5.04919	0.404
5.08911	0.404
5.12904	0.402
5.16896	0.39
5.20888	0.407
5.2488	0.404
5.28872	0.404
5.32864	0.41
5.36857	0.43
5.40849	0.439
5.44841	0.435
5.48833	0.44
5.52825	0.44
5.56817	0.444
5.60809	0.447
5.64802	0.398
5.68794	0.435
5.72786	0.444
5.76778	0.459
5.8077	0.459
5.84762	0.459
5.88755	0.46
5.92747	0.46
5.96739	0.47
6.00731	0.477
6.04723	0.492
6.08715	0.492
6.12707	0.5
6.167	0.499
6.20692	0.505
6.24684	0.338
6.28676	0.422
6.32668	0.35
6.3666	0.38
6.40653	0.459
6.44645	0.465
6.48637	0.485
6.52629	0.502
6.56621	0.535
6.60613	0.527
6.64605	0.485
6.68598	0.272
6.7259	0.133
6.76582	0.131
6.80574	0.05
6.84566	0.063
6.88558	0.098
6.92551	0.16
6.96543	0.36
7.00535	0.402
7.04527	0.449
7.08519	0.457
7.12511	0.455
7.16503	0.435
7.20496	0.293
7.24488	0.153
7.2848	0.218
7.32472	0.3
7.36464	0.295
7.40456	0.305
7.44449	0.409
7.48441	0.393
7.52433	0.27
7.56425	0.388
7.60417	0.419
7.64409	0.462
7.68401	0.489
7.72394	0.492
7.76386	0.494
7.80378	0.487
7.8437	0.475
7.88362	0.494
7.92354	0.519
7.96347	0.529
8.00339	0.515
8.04331	0.537
8.08323	0.555
8.12315	0.542
8.16307	0.554
8.20299	0.569
8.24292	0.58
8.28284	0.585
8.32276	0.589
8.36268	0.594
8.4026	0.524
8.44252	0.504
8.48244	0.51
8.52237	0.554
8.56229	0.555
8.60221	0.529
8.64213	0.562
8.68205	0.58
8.72197	0.611
8.7619	0.624
8.80182	0.637
8.84174	0.664
8.88166	0.485
8.92158	0.422
8.9615	0.572
9.00142	0.601
9.04135	0.624
9.08127	0.636
9.12119	0.636
9.16111	0.637
9.20103	0.619
9.24095	0.502
9.28088	0.567
9.3208	0.621
9.36072	0.646
9.40064	0.654
9.44056	0.661
9.48048	0.664
9.5204	0.676
9.56033	0.669
9.60025	0.542
9.64017	0.529
9.68009	0.59
9.72001	0.619
9.75993	0.652
9.79986	0.666
9.83978	0.606
9.8797	0.629
9.91962	0.664
9.95954	0.671
9.99946	0.651
10.0394	0.609
10.0793	0.607
10.1192	0.489
10.1591	0.619
10.1991	0.659
10.239	0.661
10.2789	0.659
10.3188	0.669
10.3588	0.674
10.3987	0.679
10.4386	0.682
10.4785	0.689
10.5184	0.686
10.5584	0.701
10.5983	0.674
10.6382	0.542
10.6781	0.654
10.7181	0.692
10.758	0.702
10.7979	0.699
10.8378	0.674
10.8777	0.714
10.9177	0.732
10.9576	0.749
10.9975	0.752
11.0374	0.756
11.0773	0.754
11.1173	0.739
11.1572	0.671
11.1971	0.492
11.237	0.213
11.277	0.484
11.3169	0.694
11.3568	0.754
11.3967	0.797
11.4366	0.821
11.4766	0.833
11.5165	0.789
11.5564	0.567
11.5963	0.682
11.6362	0.716
11.6762	0.716
11.7161	0.694
11.756	0.624
11.7959	0.475
11.8359	0.258
11.8758	0.113
11.9157	0.237
11.9556	0.46
11.9955	0.627
12.0355	0.724
12.0754	0.762
12.1153	0.797
12.1552	0.818
12.1951	0.833
12.2351	0.841
12.275	0.846
12.3149	0.846
12.3548	0.841
12.3948	0.831
12.4347	0.801
12.4746	0.691
12.5145	0.505
12.5544	0.307
12.5944	0.3
12.6343	0.611
12.6742	0.662
12.7141	0.38
12.754	0.096
12.794	0.101
12.8339	0.295
12.8738	0.455
12.9137	0.449
12.9537	0.465
12.9936	0.482
13.0335	0.243
13.0734	0.146
13.1133	0.245
13.1533	0.397
13.1932	0.53
13.2331	0.592
13.273	0.631
13.313	0.662
13.3529	0.687
13.3928	0.714
13.4327	0.734
13.4726	0.746
13.5126	0.752
13.5525	0.766
13.5924	0.769
13.6323	0.782
13.6722	0.796
13.7122	0.803
13.7521	0.811
13.792	0.819
13.8319	0.828
13.8719	0.829
13.9118	0.846
13.9517	0.878
13.9916	0.901
14.0315	0.929
14.0715	0.941
14.1114	0.933
14.1513	0.869
14.1912	0.752
14.2311	0.585
14.2711	0.444
14.311	0.362
14.3509	0.288
14.3908	0.263
14.4308	0.372
14.4707	0.515
14.5106	0.609
14.5505	0.687
14.5904	0.724
14.6304	0.756
14.6703	0.776
14.7102	0.784
14.7501	0.792
14.79	0.801
14.83	0.806
14.8699	0.806
14.9098	0.801
14.9497	0.791
14.9897	0.772
15.0296	0.731
15.0695	0.689
15.1094	0.694
15.1493	0.727
15.1893	0.754
15.2292	0.757
15.2691	0.742
15.309	0.716
15.3489	0.707
15.3889	0.709
15.4288	0.714
15.4687	0.709
15.5086	0.702
15.5486	0.701
15.5885	0.689
15.6284	0.687
15.6683	0.676
15.7082	0.661
15.7482	0.651
15.7881	0.639
15.828	0.622
15.8679	0.606
15.9078	0.587
15.9478	0.567
15.9877	0.562
