Infrared Spectrum: Toluenesulfonamide, N-ethyl-, (mixture of o- and p-)
Formula: C9 H13 N O2 S
State: SOLUTION (10% CCl4 FOR 2.7-26 MICRON)
Class: COBLENTZ
Instrument: DOW FOREPRISM-GRATING
Instrument parameters: BLAZED AT 3.5, 12.0, 20.0 MICRON AND CHANGED AT 5.0, 7.5, 14.9 MICRON
Sampling: TRANSMISSION
Path length: 0.011 CM
Resolution: 2
Origin: DOW CHEMICAL COMPANY
1/CM	TRANSMITTANCE
388	0.5773
397	0.5787
406	0.5766
415	0.5726
424	0.5664
433	0.5563
442	0.5435
451	0.5297
460	0.5129
469	0.4886
478	0.4578
487	0.4552
496	0.4865
505	0.5368
514	0.5357
523	0.5194
532	0.4944
541	0.3571
550	0.1867
559	0.375
568	0.2637
577	0.2345
586	0.2008
595	0.1038
604	0.4075
613	0.4741
622	0.4999
631	0.5677
640	0.5711
649	0.428
658	0.2845
667	0.3353
676	0.381
685	0.2231
694	0.331
703	0.2985
712	0.2725
721	0.2292
730	0.0475
739	0.0001
748	0.0001
757	0
766	0
775	0
784	0.0001
793	0.0001
802	0.0002
811	0.0451
820	0.1997
829	0.3708
838	0.4324
847	0.4214
856	0.4112
865	0.4251
874	0.5386
883	0.6307
892	0.6731
901	0.6785
910	0.6648
919	0.6063
928	0.4889
937	0.3789
946	0.3611
955	0.4903
964	0.5731
973	0.5731
982	0.613
991	0.6008
1000	0.5755
1009	0.6087
1018	0.6877
1027	0.6536
1036	0.61
1045	0.5522
1054	0.4001
1063	0.2172
1072	0.3286
1081	0.4238
1090	0.1914
1099	0.2733
1108	0.303
1117	0.2996
1126	0.1987
1135	0.301
1144	0.1828
1153	0.0031
1162	0.0127
1171	0.227
1180	0.4991
1189	0.599
1198	0.5607
1207	0.5928
1216	0.6185
1225	0.6365
1234	0.6147
1243	0.5743
1252	0.5683
1261	0.5759
1270	0.4871
1279	0.3782
1288	0.3387
1297	0.3062
1306	0.1396
1315	0.0356
1324	0.0365
1333	0.087
1342	0.209
1351	0.3603
1360	0.5137
1369	0.5669
1378	0.4436
1387	0.5029
1396	0.4524
1405	0.3776
1414	0.3404
1423	0.3056
1432	0.3342
1441	0.3953
1450	0.3128
1459	0.3568
1468	0.4011
1477	0.481
1486	0.6089
1495	0.5781
1504	0.6086
1513	0.5873
1522	0.5545
1531	0.4991
1540	0.4099
1549	0.4007
1558	0.4464
1567	0.5019
1576	0.5426
1585	0.5315
1594	0.4612
1603	0.7199
1612	0.7445
1621	0.7683
1630	0.7935
1639	0.8008
1648	0.8043
1657	0.8248
1666	0.8315
1675	0.8335
1684	0.8335
1693	0.8323
1702	0.8339
1711	0.8363
1720	0.8325
1729	0.837
1738	0.8448
1747	0.8477
1756	0.8497
1765	0.8498
1774	0.8476
1783	0.8385
1792	0.8312
1801	0.8307
1810	0.8287
1819	0.8382
1828	0.8391
1837	0.836
1846	0.8412
1855	0.8451
1864	0.8457
1873	0.8434
1882	0.8374
1891	0.8275
1900	0.8182
1909	0.8216
1918	0.8249
1927	0.8266
1936	0.8424
1945	0.8428
1954	0.8398
1963	0.8522
1972	0.8547
1981	0.8568
1990	0.8574
1999	0.86
2008	0.8664
2017	0.8707
2026	0.8723
2035	0.8729
2044	0.8736
2053	0.8742
2062	0.8744
2071	0.8744
2080	0.8743
2089	0.874
2098	0.8737
2107	0.8737
2116	0.8738
2125	0.8739
2134	0.874
2143	0.8742
2152	0.8746
2161	0.8753
2170	0.8787
2179	0.8716
2188	0.8698
2197	0.8681
2206	0.866
2215	0.8633
2224	0.8601
2233	0.8563
2242	0.852
2251	0.8475
2260	0.8427
2269	0.8378
2278	0.8349
2287	0.8322
2296	0.8316
2305	0.8375
2314	0.8478
2323	0.8583
2332	0.8629
2341	0.8651
2350	0.8656
2359	0.865
2368	0.8631
2377	0.8614
2386	0.8598
2395	0.8583
2404	0.8579
2413	0.8575
2422	0.8571
2431	0.8568
2440	0.8568
2449	0.8568
2458	0.8568
2467	0.8569
2476	0.8576
2485	0.8591
2494	0.8614
2503	0.8633
2512	0.8635
2521	0.8631
2530	0.8604
2539	0.8573
2548	0.8534
2557	0.8494
2566	0.8472
2575	0.8461
2584	0.8496
2593	0.8511
2602	0.8512
2611	0.8513
2620	0.8516
2629	0.8516
2638	0.8512
2647	0.8507
2656	0.8488
2665	0.8464
2674	0.8426
2683	0.8387
2692	0.8372
2701	0.8351
2710	0.8319
2719	0.8295
2728	0.831
2737	0.8355
2746	0.8408
2755	0.8421
2764	0.8389
2773	0.8315
2782	0.8214
2791	0.81
2800	0.7982
2809	0.7831
2818	0.7678
2827	0.7489
2836	0.7206
2845	0.6715
2854	0.6181
2863	0.5732
2872	0.5681
2881	0.6377
2890	0.6641
2899	0.6595
2908	0.616
2917	0.5689
2926	0.5218
2935	0.546
2944	0.6173
2953	0.5709
2962	0.4688
2971	0.3708
2980	0.4154
2989	0.6447
2998	0.7413
3007	0.7359
3016	0.7382
3025	0.7375
3034	0.7308
3043	0.6966
3052	0.6451
3061	0.7023
3070	0.7704
3079	0.7844
3088	0.792
3097	0.7958
3106	0.798
3115	0.7932
3124	0.788
3133	0.78
3142	0.7708
3151	0.7591
3160	0.7436
3169	0.7248
3178	0.7018
3187	0.6722
3196	0.6185
3205	0.5529
3214	0.4888
3223	0.4246
3232	0.3582
3241	0.2997
3250	0.2374
3259	0.1939
3268	0.168
3277	0.1651
3286	0.1739
3295	0.2257
3304	0.2793
3313	0.3327
3322	0.3863
3331	0.4398
3340	0.49
3349	0.5337
3358	0.5787
3367	0.6208
3376	0.6528
3385	0.685
3394	0.7303
3403	0.7573
3412	0.7696
3421	0.7877
3430	0.8019
3439	0.8183
3448	0.8278
3457	0.8278
3466	0.8264
3475	0.8241
3484	0.8222
3493	0.8203
3502	0.8192
3511	0.8183
3520	0.8191
3529	0.82
3538	0.8212
3547	0.8224
3556	0.8236
3565	0.8252
3574	0.8268
3583	0.8286
3592	0.8308
3601	0.8329
3610	0.8343
3619	0.8354
3628	0.8349
3637	0.8326
3646	0.8284
3655	0.8258
3664	0.8309
3673	0.8419
3682	0.8482
3691	0.8502
3700	0.8512
3709	0.8518
3718	0.852
3727	0.8519
3736	0.8518
3745	0.8517
3754	0.8515
3763	0.8513
3772	0.851
3781	0.8506
3790	0.8502
