Infrared Spectrum: BENZIDINE SULFATE
Formula: C12 H16 N2 O8 S2
State: SOLID (OIL MULL)
Class: COBLENTZ III
Instrument: BAIRD (GRATING)
Instrument parameters: NaCl PRISM
Sampling: TRANSMISSION
Resolution: 2
Origin: WYANDOTTE CHEMICALS CORP.
1/CM	TRANSMITTANCE
4000	0.3722
3991	0.3716
3982	0.3709
3973	0.37
3964	0.3696
3955	0.3702
3946	0.373
3937	0.3768
3928	0.3803
3919	0.3842
3910	0.3888
3901	0.3957
3892	0.4022
3883	0.405
3874	0.4074
3865	0.409
3856	0.4102
3847	0.4103
3838	0.4104
3829	0.4101
3820	0.4098
3811	0.4098
3802	0.4102
3793	0.4107
3784	0.4118
3775	0.4135
3766	0.4153
3757	0.417
3748	0.4188
3739	0.4205
3730	0.4224
3721	0.4246
3712	0.4271
3703	0.4295
3694	0.432
3685	0.4342
3676	0.4362
3667	0.4382
3658	0.4401
3649	0.4417
3640	0.4432
3631	0.4446
3622	0.446
3613	0.4474
3604	0.4488
3595	0.4502
3586	0.4516
3577	0.453
3568	0.454
3559	0.455
3550	0.456
3541	0.4571
3532	0.4582
3523	0.4594
3514	0.4606
3505	0.4617
3496	0.4625
3487	0.4631
3478	0.4629
3469	0.4628
3460	0.4623
3451	0.4616
3442	0.4609
3433	0.4599
3424	0.4574
3415	0.4537
3406	0.4517
3397	0.4501
3388	0.4493
3379	0.4486
3370	0.4478
3361	0.4471
3352	0.4465
3343	0.446
3334	0.4459
3325	0.446
3316	0.4465
3307	0.4481
3298	0.4504
3289	0.4518
3280	0.452
3271	0.4506
3262	0.4482
3253	0.4442
3244	0.4377
3235	0.43
3226	0.4216
3217	0.4114
3208	0.4006
3199	0.389
3190	0.3764
3181	0.3622
3172	0.346
3163	0.327
3154	0.316
3145	0.3053
3136	0.2946
3127	0.2838
3118	0.2725
3109	0.2606
3100	0.246
3091	0.2341
3082	0.2263
3073	0.2184
3064	0.21
3055	0.2
3046	0.1927
3037	0.1874
3028	0.1829
3019	0.1754
3010	0.1642
3001	0.1519
2992	0.1312
2983	0.1145
2974	0.0976
2965	0.0807
2956	0.0637
2947	0.0466
2938	0.0328
2929	0.0305
2920	0.0299
2911	0.0316
2902	0.035
2893	0.0383
2884	0.0407
2875	0.0417
2866	0.0421
2857	0.0433
2848	0.0493
2839	0.0678
2830	0.1198
2821	0.1549
2812	0.1731
2803	0.1859
2794	0.1973
2785	0.2077
2776	0.2163
2767	0.2237
2758	0.2287
2749	0.234
2740	0.2384
2731	0.2399
2722	0.2396
2713	0.2387
2704	0.2376
2695	0.2347
2686	0.228
2677	0.2261
2668	0.2252
2659	0.2225
2650	0.2173
2641	0.2097
2632	0.2014
2623	0.1931
2614	0.1868
2605	0.1821
2596	0.1787
2587	0.1778
2578	0.177
2569	0.177
2560	0.1771
2551	0.1781
2542	0.1793
2533	0.1822
2524	0.1857
2515	0.191
2506	0.1967
2497	0.2025
2488	0.2085
2479	0.2149
2470	0.2219
2461	0.2293
2452	0.2369
2443	0.2451
2434	0.2539
2425	0.2638
2416	0.2732
2407	0.2825
2398	0.2918
2389	0.3032
2380	0.3166
2371	0.3227
2362	0.3248
2353	0.3268
2344	0.3309
2335	0.3397
2326	0.3466
2317	0.3534
2308	0.3604
2299	0.3686
2290	0.3782
2281	0.3921
2272	0.4055
2263	0.4185
2254	0.4296
2245	0.4407
2236	0.4533
2227	0.4646
2218	0.4708
2209	0.476
2200	0.4794
2191	0.4891
2182	0.4957
2173	0.4975
2164	0.4998
2155	0.5036
2146	0.511
2137	0.5177
2128	0.5192
2119	0.5195
2110	0.5183
2101	0.5174
2092	0.5164
2083	0.5164
2074	0.5193
2065	0.5212
2056	0.5256
2047	0.5267
2038	0.5319
2029	0.5392
2020	0.5476
2011	0.556
2002	0.5638
1993	0.5701
1984	0.577
1975	0.5862
1966	0.596
1957	0.6056
1948	0.6246
1939	0.6441
1930	0.6586
1921	0.6695
1912	0.6721
1903	0.6618
1894	0.6658
1885	0.6796
1876	0.6961
1867	0.7132
1858	0.7268
1849	0.7235
1840	0.7233
1831	0.7283
1822	0.7362
1813	0.7449
1804	0.7515
1795	0.7533
1786	0.7537
1777	0.7575
1768	0.7626
1759	0.7565
1750	0.7581
1741	0.7574
1732	0.7487
1723	0.7551
1714	0.7505
1705	0.7319
1696	0.7017
1687	0.6998
1678	0.6937
1669	0.6658
1660	0.6257
1651	0.5673
1642	0.5102
1633	0.3878
1624	0.3398
1615	0.4096
1606	0.3416
1597	0.418
1588	0.4888
1579	0.4507
1570	0.3918
1561	0.3887
1552	0.3873
1543	0.3718
1534	0.4964
1525	0.5714
1516	0.3475
1507	0.3554
1498	0.4648
1489	0.5142
1480	0.4018
1471	0.3312
1462	0.3886
1453	0.5056
1444	0.6072
1435	0.6919
1426	0.7398
1417	0.7471
1408	0.7426
1399	0.7496
1390	0.6528
1381	0.5619
1372	0.6838
1363	0.7522
1354	0.7707
1345	0.7771
1336	0.7795
1327	0.6622
1318	0.7649
1309	0.8003
1300	0.7808
1291	0.8061
1282	0.8218
1273	0.8125
1264	0.8164
1255	0.7965
1246	0.7717
1237	0.7486
1228	0.7149
1219	0.7007
1210	0.6653
1201	0.607
1192	0.6028
1183	0.5892
1174	0.5571
1165	0.4007
1156	0.2434
1147	0.1644
1138	0.1254
1129	0.138
1120	0.1865
1111	0.1782
1102	0.1456
1093	0.1163
1084	0.108
1075	0.1337
1066	0.1521
1057	0.2123
1048	0.2545
1039	0.2224
1030	0.1727
1021	0.1424
1012	0.1866
1003	0.2993
994	0.4258
985	0.5295
976	0.5865
967	0.6018
958	0.6657
949	0.7045
940	0.7103
931	0.7567
922	0.7703
913	0.7956
904	0.8228
895	0.8413
886	0.8568
877	0.8813
868	0.8901
859	0.9018
850	0.8998
841	0.5765
832	0.8309
823	0.8648
814	0.6986
805	0.4178
796	0.8228
787	0.9023
778	0.9147
769	0.9311
760	0.9315
751	0.9325
742	0.9249
733	0.916
724	0.8357
715	0.8914
706	0.9118
697	0.9345
688	0.9195
679	0.895
670	0.8475
661	0.7556
652	0.7098
643	0.5335
634	0.4338
