Infrared Spectrum: BERYLLIUM CARBONATE
Formula: Be C O3
State: SOLID (MINERAL OIL MULL)
Class: COBLENTZ
Instrument: Not specified, most likely a prism, grating, or hybrid spectrometer.
Sampling: TRANSMISSION
Resolution: 4
Origin: WYANDOTTE CHEMICALS CORP., WYANDOTTE, MICHIGAN, USA
MICROMETERS	TRANSMITTANCE
2.014	0.683
2.05491	0.689
2.09583	0.698
2.13674	0.713
2.17766	0.724
2.21857	0.729
2.25948	0.73
2.3004	0.73
2.34131	0.729
2.38223	0.729
2.42314	0.729
2.46406	0.73
2.50497	0.73
2.54588	0.732
2.5868	0.732
2.62771	0.718
2.66863	0.679
2.70954	0.579
2.75045	0.458
2.79137	0.33
2.83228	0.241
2.8732	0.199
2.91411	0.173
2.95503	0.156
2.99594	0.151
3.03685	0.165
3.07777	0.199
3.11868	0.241
3.1596	0.289
3.20051	0.333
3.24142	0.376
3.28234	0.413
3.32325	0.42
3.36417	0.252
3.40508	0.122
3.446	0.088
3.48691	0.09
3.52782	0.117
3.56874	0.359
3.60965	0.551
3.65057	0.643
3.69148	0.688
3.73239	0.718
3.77331	0.734
3.81422	0.756
3.85514	0.768
3.89605	0.78
3.93696	0.8
3.97788	0.819
4.01879	0.826
4.05971	0.829
4.10062	0.834
4.14154	0.848
4.18245	0.851
4.22336	0.85
4.26428	0.846
4.30519	0.848
4.34611	0.858
4.38702	0.875
4.42793	0.882
4.46885	0.884
4.50976	0.884
4.55068	0.884
4.59159	0.889
4.63251	0.896
4.67342	0.908
4.71433	0.911
4.75525	0.909
4.79616	0.906
4.83708	0.918
4.87799	0.919
4.9189	0.931
4.95982	0.938
5.00073	0.942
5.04165	0.948
5.08256	0.954
5.12348	0.959
5.16439	0.959
5.2053	0.959
5.24622	0.95
5.28713	0.95
5.32805	0.954
5.36896	0.952
5.40987	0.952
5.45079	0.95
5.4917	0.948
5.53262	0.948
5.57353	0.938
5.61444	0.94
5.65536	0.933
5.69627	0.921
5.73719	0.889
5.7781	0.851
5.81902	0.807
5.85993	0.771
5.90084	0.749
5.94176	0.686
5.98267	0.642
6.02359	0.613
6.0645	0.597
6.10541	0.584
6.14633	0.597
6.18724	0.609
6.22816	0.599
6.26907	0.586
6.30999	0.536
6.3509	0.448
6.39181	0.371
6.43273	0.281
6.47364	0.247
6.51456	0.199
6.55547	0.192
6.59638	0.19
6.6373	0.189
6.67821	0.189
6.71913	0.189
6.76004	0.182
6.80096	0.117
6.84187	0.127
6.88278	0.168
6.9237	0.258
6.96461	0.366
7.00553	0.448
7.04644	0.521
7.08735	0.577
7.12827	0.609
7.16918	0.628
7.2101	0.567
7.25101	0.471
7.29192	0.546
7.33284	0.616
7.37375	0.688
7.41467	0.717
7.45558	0.735
7.4965	0.751
7.53741	0.763
7.57832	0.77
7.61924	0.766
7.66015	0.763
7.70107	0.763
7.74198	0.754
7.78289	0.754
7.82381	0.752
7.86472	0.741
7.90564	0.734
7.94655	0.717
7.98747	0.693
8.02838	0.669
8.06929	0.645
8.11021	0.608
8.15112	0.57
8.19204	0.54
8.23295	0.487
8.27386	0.449
8.31478	0.396
8.35569	0.347
8.39661	0.304
8.43752	0.27
8.47844	0.228
8.51935	0.197
8.56026	0.17
8.60118	0.149
8.64209	0.126
8.68301	0.117
8.72392	0.107
8.76483	0.098
8.80575	0.085
8.84666	0.073
8.88758	0.068
8.92849	0.069
8.9694	0.066
9.01032	0.061
9.05123	0.061
9.09215	0.064
9.13306	0.071
9.17398	0.076
9.21489	0.086
9.2558	0.09
9.29672	0.1
9.33763	0.112
9.37855	0.117
9.41946	0.126
9.46037	0.141
9.50129	0.148
9.5422	0.148
9.58312	0.149
9.62403	0.149
9.66495	0.161
9.70586	0.175
9.74677	0.185
9.78769	0.189
9.8286	0.197
9.86952	0.212
9.91043	0.223
9.95134	0.228
9.99226	0.24
10.0332	0.258
10.0741	0.267
10.115	0.27
10.1559	0.279
10.1968	0.284
10.2377	0.294
10.2787	0.296
10.3196	0.298
10.3605	0.303
10.4014	0.299
10.4423	0.299
10.4832	0.299
10.5241	0.291
10.5651	0.286
10.606	0.279
10.6469	0.272
10.6878	0.26
10.7287	0.245
10.7696	0.233
10.8105	0.204
10.8515	0.199
10.8924	0.187
10.9333	0.173
10.9742	0.158
11.0151	0.148
11.056	0.141
11.0969	0.122
11.1379	0.107
11.1788	0.102
11.2197	0.102
11.2606	0.095
11.3015	0.091
11.3424	0.091
11.3833	0.09
11.4243	0.085
11.4652	0.085
11.5061	0.081
11.547	0.078
11.5879	0.073
11.6288	0.069
11.6697	0.069
11.7107	0.068
11.7516	0.068
11.7925	0.063
11.8334	0.063
11.8743	0.061
11.9152	0.066
11.9561	0.063
11.9971	0.061
12.038	0.056
12.0789	0.056
12.1198	0.057
12.1607	0.057
12.2016	0.057
12.2425	0.059
12.2835	0.059
12.3244	0.057
12.3653	0.057
12.4062	0.057
12.4471	0.061
12.488	0.061
12.5289	0.051
12.5698	0.059
12.6108	0.057
12.6517	0.057
12.6926	0.059
12.7335	0.063
12.7744	0.061
12.8153	0.069
12.8562	0.068
12.8972	0.064
12.9381	0.068
12.979	0.068
13.0199	0.068
13.0608	0.064
13.1017	0.064
13.1426	0.068
13.1836	0.071
13.2245	0.069
13.2654	0.078
13.3063	0.081
13.3472	0.08
13.3881	0.081
13.429	0.086
13.47	0.09
13.5109	0.097
13.5518	0.09
13.5927	0.097
13.6336	0.093
13.6745	0.097
13.7154	0.103
13.7564	0.105
13.7973	0.112
13.8382	0.117
13.8791	0.117
13.92	0.119
13.9609	0.127
14.0018	0.126
14.0428	0.127
14.0837	0.129
14.1246	0.141
14.1655	0.149
14.2064	0.158
14.2473	0.16
14.2882	0.166
14.3292	0.175
14.3701	0.187
14.411	0.19
14.4519	0.192
14.4928	0.197
14.5337	0.206
14.5746	0.218
14.6156	0.226
14.6565	0.229
14.6974	0.231
14.7383	0.24
14.7792	0.252
14.8201	0.262
14.861	0.272
14.902	0.279
14.9429	0.287
14.9838	0.296
15.0247	0.303
15.0656	0.315
15.1065	0.321
15.1474	0.325
15.1884	0.328
15.2293	0.328
15.2702	0.332
15.3111	0.337
15.352	0.347
15.3929	0.356
15.4338	0.364
15.4748	0.369
15.5157	0.374
15.5566	0.388
15.5975	0.398
15.6384	0.393
15.6793	0.39
15.7202	0.398
15.7612	0.402
15.8021	0.41
15.843	0.42
15.8839	0.429
15.9248	0.432
15.9657	0.439
