Infrared Spectrum: 1,4-PIPERAZINEDIACETONITRILE, Alpha,Alpha',2,5-TETRAMETHYL-,TRANS-
Formula: C12 H20 N4
State: SOLID (SPLIT MULL)
Class: COBLENTZ III
Instrument: DOW KBr FOREPRISM-GRATING
Instrument parameters: BLAZED AT 3.5, 12.0, 20.0 MICRON AND CHANGED AT 5.0, 7.5, 14.9 MICRON
Sampling: TRANSMISSION
Resolution: 2
Origin: DOW CHEMICAL COMPANY
1/CM	TRANSMITTANCE
3820	0.7548
3811	0.7554
3802	0.7561
3793	0.7569
3784	0.7578
3775	0.7586
3766	0.7594
3757	0.7601
3748	0.7605
3739	0.7605
3730	0.7605
3721	0.7604
3712	0.7605
3703	0.7605
3694	0.7607
3685	0.7607
3676	0.7597
3667	0.7585
3658	0.758
3649	0.7575
3640	0.7572
3631	0.7571
3622	0.7568
3613	0.7567
3604	0.7565
3595	0.7565
3586	0.7564
3577	0.7564
3568	0.7562
3559	0.7561
3550	0.7561
3541	0.7561
3532	0.7564
3523	0.7568
3514	0.7574
3505	0.7578
3496	0.7583
3487	0.7587
3478	0.7592
3469	0.7597
3460	0.76
3451	0.7601
3442	0.7601
3433	0.7603
3424	0.7604
3415	0.7606
3406	0.7617
3397	0.7628
3388	0.764
3379	0.7653
3370	0.7665
3361	0.7678
3352	0.7692
3343	0.7693
3334	0.7694
3325	0.7695
3316	0.77
3307	0.7706
3298	0.7712
3289	0.7744
3280	0.7778
3271	0.7792
3262	0.7801
3253	0.7805
3244	0.7801
3235	0.7797
3226	0.7794
3217	0.7789
3208	0.779
3199	0.7797
3190	0.7805
3181	0.7811
3172	0.7828
3163	0.7845
3154	0.7862
3145	0.7881
3136	0.79
3127	0.7912
3118	0.7925
3109	0.7938
3100	0.7945
3091	0.7945
3082	0.7945
3073	0.7945
3064	0.7944
3055	0.7943
3046	0.793
3037	0.79
3028	0.7811
3019	0.7541
3010	0.2642
3001	0.3536
2992	0.4547
2983	0.1275
2974	0.283
2965	0.5357
2956	0.5544
2947	0.454
2938	0.5809
2929	0.6042
2920	0.6087
2911	0.6025
2902	0.5894
2893	0.546
2884	0.5446
2875	0.6231
2866	0.6617
2857	0.416
2848	0.1132
2839	0.1687
2830	0.2704
2821	0.372
2812	0.4736
2803	0.5752
2794	0.6586
2785	0.6967
2776	0.6617
2767	0.6683
2758	0.68
2749	0.6033
2740	0.6761
2731	0.7103
2722	0.7186
2713	0.7271
2704	0.7394
2695	0.7561
2686	0.761
2677	0.7618
2668	0.7421
2659	0.7396
2650	0.7598
2641	0.7655
2632	0.7728
2623	0.7903
2614	0.7917
2605	0.7704
2596	0.7675
2587	0.7896
2578	0.781
2569	0.7844
2560	0.7967
2551	0.8018
2542	0.8036
2533	0.8053
2524	0.8068
2515	0.8085
2506	0.8101
2497	0.8091
2488	0.8056
2479	0.8031
2470	0.8025
2461	0.8018
2452	0.8011
2443	0.8005
2434	0.8
2425	0.7994
2416	0.7989
2407	0.7971
2398	0.7946
2389	0.7919
2380	0.7897
2371	0.7872
2362	0.786
2353	0.7858
2344	0.7858
2335	0.7848
2326	0.7825
2317	0.7797
2308	0.7771
2299	0.7782
2290	0.7801
2281	0.784
2272	0.7858
2263	0.7867
2254	0.7874
2245	0.7882
2236	0.7884
2227	0.5034
2218	0.7428
2209	0.8043
2200	0.8096
2191	0.8134
2182	0.8172
2173	0.8221
2164	0.8266
2155	0.8305
2146	0.8333
2137	0.8334
2128	0.8335
2119	0.8338
2110	0.8358
2101	0.8377
2092	0.8399
2083	0.8431
2074	0.8464
2065	0.8481
2056	0.8493
2047	0.8497
2038	0.8535
2029	0.858
2020	0.8598
2011	0.8612
2002	0.8616
1993	0.8539
1984	0.8538
1975	0.8545
1966	0.8582
1957	0.8662
1948	0.861
1939	0.8616
1930	0.8624
1921	0.8644
1912	0.8656
1903	0.8652
1894	0.8649
1885	0.8647
1876	0.8647
1867	0.8641
1858	0.8634
1849	0.8635
1840	0.8636
1831	0.8661
1822	0.8686
1813	0.8709
1804	0.869
1795	0.8641
1786	0.8614
1777	0.861
1768	0.8608
1759	0.8618
1750	0.8639
1741	0.8656
1732	0.8653
1723	0.8594
1714	0.858
1705	0.8636
1696	0.8655
1687	0.8659
1678	0.8643
1669	0.8621
1660	0.8604
1651	0.8613
1642	0.8621
1633	0.8631
1624	0.864
1615	0.8659
1606	0.8696
1597	0.8721
1588	0.8728
1579	0.8723
1570	0.8742
1561	0.8746
1552	0.8724
1543	0.8686
1534	0.8661
1525	0.8643
1516	0.8613
1507	0.8568
1498	0.8523
1489	0.8283
1480	0.8125
1471	0.5094
1462	0.5097
1453	0.4488
1444	0.4139
1435	0.7557
1426	0.7828
1417	0.7841
1408	0.7803
1399	0.7745
1390	0.4669
1381	0.3111
1372	0.3088
1363	0.6686
1354	0.4878
1345	0.3432
1336	0.3664
1327	0.5779
1318	0.4431
1309	0.6748
1300	0.6039
1291	0.2669
1282	0.4609
1273	0.7084
1264	0.7508
1255	0.758
1246	0.7607
1237	0.7572
1228	0.7475
1219	0.7167
1210	0.6108
1201	0.2141
1192	0.0222
1183	0.3828
1174	0.6615
1165	0.5885
1156	0.2922
1147	0.4798
1138	0.2194
1129	0.432
1120	0.6775
1111	0.7342
1102	0.1909
1093	0.4766
1084	0.6531
1075	0.3464
1066	0.0941
1057	0.3434
1048	0.6287
1039	0.4691
1030	0.7547
1021	0.7964
1012	0.7978
1003	0.605
994	0.8089
985	0.831
976	0.8287
967	0.8248
958	0.8266
949	0.8343
940	0.8402
931	0.7541
922	0.7828
913	0.8217
904	0.5716
895	0.6222
886	0.8175
877	0.8602
868	0.8664
859	0.8696
850	0.8725
841	0.8698
832	0.8631
823	0.8425
814	0.7937
805	0.5674
796	0.2045
787	0.5162
778	0.7503
769	0.815
760	0.8462
751	0.8434
742	0.8264
733	0.8057
724	0.7721
715	0.8036
706	0.8638
697	0.8807
688	0.887
679	0.8158
670	0.8492
661	0.877
652	0.8828
643	0.8868
634	0.8882
625	0.8883
616	0.887
607	0.8845
598	0.8784
589	0.8617
580	0.8584
571	0.6695
562	0.7344
553	0.7161
544	0.8471
535	0.8587
526	0.86
517	0.8613
508	0.8615
499	0.8555
490	0.8435
481	0.8125
472	0.7396
463	0.7925
454	0.7925
445	0.7861
436	0.7798
427	0.77
418	0.7472
409	0.7
400	0.7018
391	0.7068
382	0.7111
