Infrared Spectrum: SODIUM SULFATE
Formula: Na2 S O4
State: SOLID (NUJOL MULL)
Class: COBLENTZ
Instrument: Not specified, most likely a prism, grating, or hybrid spectrometer.
Sampling: TRANSMISSION
Resolution: 4
Origin: MELLON INSTITUTE
MICROMETERS	TRANSMITTANCE
2.029	0.824
2.0689	0.824
2.10881	0.819
2.14871	0.829
2.18861	0.825
2.22851	0.825
2.26842	0.824
2.30832	0.832
2.34822	0.829
2.38813	0.83
2.42803	0.832
2.46793	0.832
2.50783	0.835
2.54774	0.844
2.58764	0.844
2.62754	0.837
2.66745	0.847
2.70735	0.835
2.74725	0.832
2.78715	0.83
2.82706	0.824
2.86696	0.822
2.90686	0.822
2.94677	0.822
2.98667	0.817
3.02657	0.83
3.06647	0.832
3.10638	0.839
3.14628	0.842
3.18618	0.842
3.22609	0.84
3.26599	0.849
3.30589	0.819
3.34579	0.611
3.3857	0.502
3.4256	0.67
3.4655	0.646
3.50541	0.793
3.54531	0.842
3.58521	0.857
3.62511	0.86
3.66502	0.865
3.70492	0.86
3.74482	0.864
3.78473	0.871
3.82463	0.86
3.86453	0.871
3.90443	0.872
3.94434	0.881
3.98424	0.872
4.02414	0.871
4.06405	0.876
4.10395	0.872
4.14385	0.881
4.18375	0.886
4.22366	0.896
4.26356	0.876
4.30346	0.874
4.34337	0.864
4.38327	0.855
4.42317	0.862
4.46307	0.872
4.50298	0.872
4.54288	0.876
4.58278	0.872
4.62269	0.876
4.66259	0.882
4.70249	0.877
4.74239	0.887
4.7823	0.879
4.8222	0.876
4.8621	0.876
4.90201	0.881
4.94191	0.876
4.98181	0.884
5.02171	0.891
5.06162	0.892
5.10152	0.894
5.14142	0.887
5.18133	0.899
5.22123	0.901
5.26113	0.901
5.30103	0.899
5.34094	0.901
5.38084	0.901
5.42074	0.892
5.46065	0.899
5.50055	0.902
5.54045	0.902
5.58035	0.904
5.62026	0.912
5.66016	0.904
5.70006	0.902
5.73997	0.902
5.77987	0.901
5.81977	0.906
5.85967	0.917
5.89958	0.911
5.93948	0.906
5.97938	0.906
6.01929	0.912
6.05919	0.904
6.09909	0.902
6.13899	0.902
6.1789	0.911
6.2188	0.914
6.2587	0.911
6.29861	0.914
6.33851	0.914
6.37841	0.914
6.41831	0.916
6.45822	0.911
6.49812	0.912
6.53802	0.896
6.57793	0.906
6.61783	0.914
6.65773	0.911
6.69763	0.914
6.73754	0.906
6.77744	0.886
6.81734	0.827
6.85725	0.812
6.89715	0.832
6.93705	0.857
6.97695	0.876
7.01686	0.896
7.05676	0.894
7.09666	0.901
7.13657	0.904
7.17647	0.897
7.21637	0.889
7.25627	0.872
7.29618	0.876
7.33608	0.896
7.37598	0.899
7.41589	0.902
7.45579	0.896
7.49569	0.902
7.53559	0.901
7.5755	0.901
7.6154	0.906
7.6553	0.891
7.69521	0.896
7.73511	0.902
7.77501	0.897
7.81491	0.887
7.85482	0.886
7.89472	0.891
7.93462	0.894
7.97453	0.891
8.01443	0.871
8.05433	0.879
8.09423	0.862
8.13414	0.852
8.17404	0.845
8.21394	0.842
8.25385	0.822
8.29375	0.812
8.33365	0.785
8.37355	0.748
8.41346	0.686
8.45336	0.616
8.49326	0.544
8.53317	0.494
8.57307	0.445
8.61297	0.396
8.65287	0.348
8.69278	0.316
8.73268	0.286
8.77258	0.269
8.81249	0.249
8.85239	0.214
8.89229	0.204
8.93219	0.194
8.9721	0.189
9.012	0.184
9.0519	0.217
9.09181	0.286
9.13171	0.403
9.17161	0.566
9.21151	0.654
9.25142	0.703
9.29132	0.755
9.33122	0.785
9.37113	0.807
9.41103	0.824
9.45093	0.845
9.49083	0.855
9.53074	0.862
9.57064	0.862
9.61054	0.879
9.65045	0.894
9.69035	0.889
9.73025	0.899
9.77015	0.902
9.81006	0.904
9.84996	0.906
9.88986	0.909
9.92977	0.916
9.96967	0.907
10.0096	0.901
10.0495	0.904
10.0894	0.901
10.1293	0.907
10.1692	0.912
10.2091	0.921
10.249	0.917
10.2889	0.921
10.3288	0.921
10.3687	0.914
10.4086	0.912
10.4485	0.914
10.4884	0.916
10.5283	0.927
10.5682	0.927
10.6081	0.929
10.648	0.934
10.6879	0.941
10.7278	0.929
10.7677	0.939
10.8076	0.939
10.8475	0.936
10.8874	0.941
10.9273	0.939
10.9672	0.944
11.0071	0.944
11.047	0.949
11.0869	0.953
11.1269	0.951
11.1668	0.954
11.2067	0.958
11.2466	0.956
11.2865	0.956
11.3264	0.958
11.3663	0.958
11.4062	0.958
11.4461	0.961
11.486	0.966
11.5259	0.966
11.5658	0.966
11.6057	0.966
11.6456	0.966
11.6855	0.969
11.7254	0.971
11.7653	0.971
11.8052	0.973
11.8451	0.966
11.885	0.974
11.9249	0.978
11.9648	0.973
12.0047	0.974
12.0446	0.973
12.0845	0.976
12.1244	0.978
12.1643	0.969
12.2042	0.976
12.2441	0.969
12.284	0.971
12.3239	0.966
12.3638	0.971
12.4037	0.976
12.4436	0.978
12.4835	0.979
12.5235	0.983
12.5634	0.979
12.6033	0.976
12.6432	0.964
12.6831	0.956
12.723	0.958
12.7629	0.964
12.8028	0.968
12.8427	0.966
12.8826	0.958
12.9225	0.953
12.9624	0.951
13.0023	0.953
13.0422	0.956
13.0821	0.951
13.122	0.951
13.1619	0.944
13.2018	0.943
13.2417	0.938
13.2816	0.934
13.3215	0.938
13.3614	0.938
13.4013	0.932
13.4412	0.926
13.4811	0.924
13.521	0.926
13.5609	0.924
13.6008	0.911
13.6407	0.912
13.6806	0.907
13.7205	0.906
13.7604	0.902
13.8003	0.902
13.8402	0.897
13.8801	0.901
13.9201	0.899
13.96	0.897
13.9999	0.887
14.0398	0.881
14.0797	0.879
14.1196	0.874
14.1595	0.872
14.1994	0.871
14.2393	0.865
14.2792	0.854
14.3191	0.849
14.359	0.845
14.3989	0.845
14.4388	0.83
14.4787	0.822
14.5186	0.82
14.5585	0.82
14.5984	0.817
14.6383	0.805
14.6782	0.804
14.7181	0.797
14.758	0.792
14.7979	0.788
14.8378	0.785
14.8777	0.78
14.9176	0.775
14.9575	0.768
14.9974	0.767
15.0373	0.763
15.0772	0.76
15.1171	0.753
15.157	0.742
15.1969	0.725
15.2368	0.721
15.2767	0.718
15.3167	0.703
15.3566	0.693
15.3965	0.683
15.4364	0.67
15.4763	0.664
15.5162	0.659
15.5561	0.659
15.596	0.666
15.6359	0.668
15.6758	0.675
15.7157	0.678
15.7556	0.676
15.7955	0.675
15.8354	0.673
15.8753	0.676
15.9152	0.671
15.9551	0.666
15.995	0.67
