Infrared Spectrum: KETONE, 2-METHOXY-1-NAPHTHYL-Beta-PHENYLETHYL
Formula: C20 H18 O2
State: SOLID (1.0% IN KBr PELLET)
Class: COBLENTZ
Instrument: Not specified, most likely a prism, grating, or hybrid spectrometer.
Sampling: TRANSMISSION
Path length: 0.0355 CM THICK
Resolution: 4
Origin: ANDERSON PHYSICAL LABORATORY
1/CM	TRANSMITTANCE
672.79	0.737
681.196	0.725
689.602	0.5721
698.008	0.5482
706.414	0.714
714.82	0.7459
723.226	0.842
731.632	0.692
740.038	0.487
748.444	0.3
756.85	0.6091
765.256	0.566
773.662	0.8669
782.068	0.833
790.474	0.921
798.88	0.872
807.286	0.576
815.692	0.864
824.098	0.795
832.504	0.54
840.91	0.863
849.316	0.888
857.722	0.8269
866.128	0.893
874.534	0.863
882.94	0.894
891.346	0.843
899.752	0.734
908.158	0.855
916.564	0.765
924.97	0.879
933.376	0.884
941.782	0.863
950.188	0.7442
958.594	0.7468
967	0.828
975.406	0.786
983.812	0.668
992.218	0.617
1000.62	0.66
1009.03	0.6
1017.44	0.773
1025.84	0.659
1034.25	0.84
1042.65	0.824
1051.06	0.737
1059.47	0.738
1067.87	0.638
1076.28	0.433
1084.68	0.683
1093.09	0.804
1101.5	0.765
1109.9	0.5871
1118.31	0.7379
1126.71	0.695
1135.12	0.7399
1143.53	0.6631
1151.93	0.5
1160.34	0.584
1168.74	0.711
1177.15	0.602
1185.56	0.454
1193.96	0.516
1202.37	0.617
1210.77	0.506
1219.18	0.6119
1227.59	0.588
1235.99	0.43
1244.4	0.384
1252.8	0.463
1261.21	0.576
1269.62	0.5931
1278.02	0.606
1286.43	0.5999
1294.83	0.809
1303.24	0.815
1311.65	0.765
1320.05	0.683
1328.46	0.668
1336.86	0.636
1345.27	0.536
1353.68	0.6538
1362.08	0.705
1370.49	0.5481
1378.89	0.331
1387.3	0.4959
1395.71	0.677
1404.11	0.633
1412.52	0.734
1420.92	0.758
1429.33	0.695
1437.74	0.4002
1446.14	0.5509
1454.55	0.611
1462.95	0.582
1471.36	0.6409
1479.77	0.774
1488.17	0.749
1496.58	0.654
1504.98	0.579
1513.39	0.369
1521.79	0.5149
1530.2	0.7829
1538.61	0.824
1547.01	0.761
1555.42	0.708
1563.82	0.474
1572.23	0.5
1580.64	0.599
1589.04	0.515
1597.45	0.283
1605.85	0.3719
1614.26	0.48
1622.67	0.501
1631.07	0.57
1639.48	0.466
1647.88	0.2491
1656.29	0.285
1664.7	0.373
1673.1	0.518
1681.51	0.749
1689.91	0.869
1698.32	0.89
1706.73	0.911
1715.13	0.917
1723.54	0.918
1731.94	0.911
1740.35	0.908
1748.76	0.905
1757.16	0.899
1765.57	0.896
1773.97	0.897
1782.38	0.896
1790.79	0.884
1799.19	0.881
1807.6	0.873
1816	0.876
1824.41	0.876
1832.82	0.875
1841.22	0.872
1849.63	0.872
1858.03	0.867
1866.44	0.864
1874.85	0.858
1883.25	0.836
1891.66	0.836
1900.06	0.842
1908.47	0.84
1916.88	0.842
1925.28	0.837
1933.69	0.83
1942.09	0.83
1950.5	0.827
1958.91	0.821
1967.31	0.83
1975.72	0.834
1984.12	0.837
1992.53	0.84
2000.94	0.8398
2009.34	0.836
2017.75	0.8333
2026.15	0.831
2034.56	0.8278
2042.97	0.826
2051.37	0.8242
2059.78	0.821
2068.18	0.819
2076.59	0.8185
2085	0.816
2093.4	0.815
2101.81	0.8115
2110.21	0.8095
2118.62	0.809
2127.03	0.8029
2135.43	0.7994
2143.84	0.797
2152.24	0.797
2160.65	0.7939
2169.06	0.789
2177.46	0.788
2185.87	0.7864
2194.27	0.785
2202.68	0.783
2211.09	0.7824
2219.49	0.7804
2227.9	0.7789
2236.3	0.775
2244.71	0.7719
2253.12	0.7702
2261.52	0.7698
2269.93	0.768
2278.33	0.7658
2286.74	0.7623
2295.15	0.7588
2303.55	0.7516
2311.96	0.7418
2320.36	0.741
2328.77	0.7409
2337.18	0.74
2345.58	0.74
2353.99	0.7409
2362.39	0.7412
2370.8	0.7434
2379.21	0.744
2387.61	0.7431
2396.02	0.7398
2404.42	0.737
2412.83	0.7344
2421.24	0.7311
2429.64	0.7277
2438.05	0.7242
2446.45	0.723
2454.86	0.7202
2463.27	0.717
2471.67	0.7166
2480.08	0.7147
2488.48	0.714
2496.89	0.7127
2505.3	0.7092
2513.7	0.705
2522.11	0.7022
2530.51	0.701
2538.92	0.698
2547.33	0.696
2555.73	0.696
2564.14	0.696
2572.54	0.696
2580.95	0.696
2589.36	0.696
2597.76	0.696
2606.17	0.696
2614.57	0.696
2622.98	0.693
2631.39	0.6916
2639.79	0.6895
2648.2	0.687
2656.6	0.6831
2665.01	0.6778
2673.42	0.677
2681.82	0.677
2690.23	0.677
2698.63	0.677
2707.04	0.677
2715.45	0.6755
2723.85	0.674
2732.26	0.6683
2740.66	0.6625
2749.07	0.6555
2757.48	0.65
2765.88	0.6418
2774.29	0.637
2782.69	0.6322
2791.1	0.63
2799.51	0.627
2807.91	0.626
2816.32	0.624
2824.72	0.623
2833.13	0.6207
2841.54	0.6144
2849.94	0.6059
2858.35	0.5999
2866.75	0.5967
2875.16	0.5949
2883.57	0.593
2891.97	0.59
2900.38	0.588
2908.78	0.588
2917.19	0.588
2925.6	0.5869
2934	0.5831
2942.41	0.5752
2950.81	0.5704
2959.22	0.5669
2967.63	0.5594
2976.03	0.5544
2984.44	0.5512
2992.84	0.5489
3001.25	0.5474
3009.66	0.546
3018.06	0.546
3026.47	0.546
3034.87	0.548
3043.28	0.5502
3051.69	0.5545
3060.09	0.5702
3068.5	0.5908
3076.9	0.597
3085.31	0.6
3093.72	0.6
3102.12	0.6
3110.53	0.6
3118.93	0.599
3127.34	0.5969
3135.75	0.5953
3144.15	0.5934
3152.56	0.5913
3160.96	0.5909
3169.37	0.5862
3177.77	0.584
3186.18	0.5811
3194.59	0.579
3202.99	0.578
3211.4	0.5754
3219.8	0.572
3228.21	0.5687
3236.62	0.5652
3245.02	0.5633
3253.43	0.5603
3261.83	0.558
3270.24	0.5576
3278.65	0.5557
3287.05	0.554
3295.46	0.5485
3303.86	0.5407
3312.27	0.539
3320.68	0.5361
3329.08	0.5326
3337.49	0.5263
3345.89	0.5159
3354.3	0.5121
3362.71	0.5098
3371.11	0.507
3379.52	0.504
3387.92	0.503
3396.33	0.501
3404.74	0.5
3413.14	0.5
3421.55	0.5
3429.95	0.5
3438.36	0.5
3446.77	0.5
3455.17	0.501
3463.58	0.5092
3471.98	0.512
3480.39	0.515
3488.8	0.515
3497.2	0.515
3505.61	0.516
3514.01	0.518
3522.42	0.519
3530.83	0.5195
3539.23	0.523
3547.64	0.527
3556.04	0.533
3564.45	0.5333
3572.86	0.534
3581.26	0.534
3589.67	0.534
3598.07	0.5345
3606.48	0.536
3614.89	0.536
3623.29	0.537
3631.7	0.537
3640.1	0.5365
3648.51	0.5336
3656.92	0.53
3665.32	0.53
3673.73	0.5289
3682.13	0.528
3690.54	0.5279
3698.95	0.527
3707.35	0.525
3715.76	0.5242
3724.16	0.5239
3732.57	0.522
3740.98	0.5199
3749.38	0.518
3757.79	0.516
3766.19	0.515
3774.6	0.515
3783.01	0.513
3791.41	0.512
3799.82	0.51
3808.22	0.509
3816.63	0.507
3825.04	0.506
3833.44	0.506
3841.85	0.506
3850.25	0.506
3858.66	0.506
3867.07	0.506
3875.47	0.507
3883.88	0.5087
3892.28	0.509
3900.69	0.509
3909.1	0.509
3917.5	0.507
3925.91	0.5057
3934.31	0.5022
3942.72	0.4967
3951.13	0.4951
3959.53	0.493
3967.94	0.493
3976.34	0.493
3984.75	0.493
