Infrared Spectrum: YELLOW OCHRE
Formula: O3 Fe2
State: SOLID (0.5 mg / 300 mg CsI DISC)
Class: COBLENTZ
Instrument: Not specified, most likely a grating spectrometer.
Sampling: TRANSMISSION
Resolution: 4
Origin: DESOTO CHEMICAL COATINGS, INC.
1/CM	TRANSMITTANCE
198.67	0.934
209.313	0.937
219.956	0.946
230.599	0.952
241.242	0.949
251.885	0.94
262.528	0.913
273.171	0.8291
283.814	0.7
294.457	0.675
305.1	0.691
315.743	0.726
326.386	0.756
337.029	0.76
347.673	0.735
358.316	0.694
368.959	0.6221
379.602	0.55
390.245	0.555
400.888	0.432
411.531	0.369
422.174	0.336
432.817	0.319
443.46	0.333
454.103	0.328
464.746	0.271
475.389	0.25
486.032	0.3519
496.675	0.409
507.318	0.441
517.961	0.461
528.604	0.486
539.247	0.515
549.89	0.554
560.533	0.578
571.176	0.598
581.819	0.609
592.462	0.606
603.105	0.599
613.748	0.603
624.391	0.625
635.035	0.66
645.678	0.696
656.321	0.73
666.964	0.735
677.607	0.74
688.25	0.759
698.893	0.76
709.536	0.792
720.179	0.819
730.822	0.833
741.465	0.829
752.108	0.809
762.751	0.784
773.394	0.728
784.037	0.66
794.68	0.5951
805.323	0.606
815.966	0.691
826.609	0.736
837.252	0.761
847.895	0.772
858.538	0.764
869.181	0.734
879.824	0.687
890.467	0.615
901.11	0.571
911.753	0.579
922.397	0.639
933.04	0.684
943.683	0.704
954.326	0.703
964.969	0.672
975.612	0.59
986.255	0.515
996.898	0.454
1007.54	0.39
1018.18	0.368
1028.83	0.371
1039.47	0.375
1050.11	0.424
1060.76	0.441
1071.4	0.432
1082.04	0.4
1092.69	0.394
1103.33	0.43
1113.97	0.488
1124.61	0.549
1135.26	0.601
1145.9	0.643
1156.54	0.687
1167.19	0.7
1177.83	0.719
1188.47	0.75
1199.12	0.773
1209.76	0.791
1220.4	0.808
1231.04	0.823
1241.69	0.831
1252.33	0.835
1262.97	0.844
1273.62	0.845
1284.26	0.849
1294.9	0.853
1305.55	0.856
1316.19	0.857
1326.83	0.859
1337.47	0.861
1348.12	0.861
1358.76	0.863
1369.4	0.863
1380.05	0.863
1390.69	0.864
1401.33	0.863
1411.98	0.864
1422.62	0.865
1433.26	0.864
1443.91	0.864
1454.55	0.867
1465.19	0.863
1475.83	0.865
1486.48	0.869
1497.12	0.867
1507.76	0.864
1518.41	0.864
1529.05	0.863
1539.69	0.863
1550.34	0.859
1560.98	0.853
1571.62	0.853
1582.26	0.845
1592.91	0.832
1603.55	0.813
1614.19	0.796
1624.84	0.793
1635.48	0.8
1646.12	0.811
1656.77	0.817
1667.41	0.82
1678.05	0.824
1688.7	0.829
1699.34	0.833
1709.98	0.835
1720.62	0.837
1731.27	0.84
1741.91	0.839
1752.55	0.841
1763.2	0.84
1773.84	0.837
1784.48	0.836
1795.13	0.836
1805.77	0.837
1816.41	0.836
1827.05	0.84
1837.7	0.843
1848.34	0.843
1858.98	0.843
1869.63	0.841
1880.27	0.841
1890.91	0.84
1901.56	0.839
1912.2	0.836
1922.84	0.836
1933.49	0.839
1944.13	0.835
1954.77	0.836
1965.41	0.836
1976.06	0.836
1986.7	0.832
1997.34	0.832
2007.99	0.828
2018.63	0.829
2029.27	0.828
2039.92	0.8291
2050.56	0.827
2061.2	0.8271
2071.84	0.8288
2082.49	0.827
2093.13	0.8281
2103.77	0.8268
2114.42	0.8249
2125.06	0.8213
2135.7	0.821
2146.35	0.823
2156.99	0.8226
2167.63	0.8202
2178.27	0.821
2188.92	0.821
2199.56	0.82
2210.2	0.8198
2220.85	0.82
2231.49	0.8167
2242.13	0.8142
2252.78	0.811
2263.42	0.8117
2274.06	0.811
2284.71	0.81
2295.35	0.8077
2305.99	0.811
2316.63	0.808
2327.28	0.808
2337.92	0.809
2348.56	0.807
2359.21	0.808
2369.85	0.805
2380.49	0.803
2391.14	0.8006
2401.78	0.7981
2412.42	0.796
2423.06	0.795
2433.71	0.792
2444.35	0.792
2454.99	0.791
2465.64	0.7885
2476.28	0.788
2486.92	0.785
2497.57	0.7859
2508.21	0.784
2518.85	0.781
2529.5	0.781
2540.14	0.78
2550.78	0.78
2561.42	0.779
2572.07	0.777
2582.71	0.7753
2593.35	0.773
2604	0.772
2614.64	0.769
2625.28	0.7683
2635.93	0.769
2646.57	0.761
2657.21	0.763
2667.85	0.761
2678.5	0.76
2689.14	0.755
2699.78	0.752
2710.43	0.7464
2721.07	0.744
2731.71	0.743
2742.36	0.7421
2753	0.74
2763.64	0.7391
2774.28	0.734
2784.93	0.732
2795.57	0.731
2806.21	0.728
2816.86	0.726
2827.5	0.723
2838.14	0.7181
2848.79	0.711
2859.43	0.707
2870.07	0.708
2880.72	0.708
2891.36	0.7019
2902	0.6959
2912.64	0.6899
2923.29	0.682
2933.93	0.679
2944.57	0.679
2955.22	0.679
2965.86	0.676
2976.5	0.674
2987.15	0.67
2997.79	0.6678
3008.43	0.6616
3019.07	0.6574
3029.72	0.6438
3040.36	0.6384
3051	0.6296
3061.65	0.6203
3072.29	0.6035
3082.93	0.5897
3093.58	0.5839
3104.22	0.5639
3114.86	0.5491
3125.51	0.5404
3136.15	0.5377
3146.79	0.533
3157.43	0.526
3168.08	0.525
3178.72	0.526
3189.36	0.527
3200.01	0.529
3210.65	0.5334
3221.29	0.538
3231.94	0.541
3242.58	0.5454
3253.22	0.55
3263.86	0.554
3274.51	0.5575
3285.15	0.5625
3295.79	0.5655
3306.44	0.5695
3317.08	0.571
3327.72	0.574
3338.37	0.5734
3349.01	0.571
3359.65	0.5704
3370.29	0.567
3380.94	0.5638
3391.58	0.561
3402.22	0.558
3412.87	0.555
3423.51	0.5533
3434.15	0.551
3444.8	0.5524
3455.44	0.555
3466.08	0.558
3476.73	0.561
3487.37	0.5645
3498.01	0.5732
3508.65	0.5818
3519.3	0.5931
3529.94	0.6006
3540.58	0.6082
3551.23	0.6174
3561.87	0.6261
3572.51	0.6335
3583.16	0.6428
3593.8	0.647
3604.44	0.647
3615.08	0.648
3625.73	0.651
3636.37	0.6626
3647.01	0.6778
3657.66	0.6818
3668.3	0.6879
3678.94	0.692
3689.59	0.691
3700.23	0.68
3710.87	0.691
3721.52	0.702
3732.16	0.707
3742.8	0.71
3753.44	0.711
3764.09	0.711
3774.73	0.7108
3785.37	0.708
3796.02	0.71
3806.66	0.707
3817.3	0.706
3827.95	0.7031
3838.59	0.7061
3849.23	0.708
3859.87	0.7068
3870.52	0.7038
3881.16	0.7016
3891.8	0.7
3902.45	0.698
3913.09	0.699
3923.73	0.698
3934.38	0.699
3945.02	0.6975
3955.66	0.6935
3966.31	0.692
3976.95	0.691
