Infrared Spectrum: MICA
Formula: K2 O  * 3 Al2 O3  * 6 Si O2  * 2 H2 O
State: SOLID (0.5 mg / 300 mg CsI DISC)
Class: COBLENTZ
Instrument: Not specified, most likely a grating spectrometer.
Sampling: TRANSMISSION
Resolution: 4
Origin: DESOTO CHEMICAL COATINGS, INC.
1/CM	TRANSMITTANCE
200	0.945
210.643	0.946
221.286	0.954
231.929	0.96
242.572	0.952
253.215	0.938
263.858	0.8811
274.501	0.86
285.144	0.875
295.787	0.882
306.43	0.875
317.073	0.857
327.716	0.827
338.359	0.787
349.002	0.719
359.646	0.671
370.289	0.692
380.932	0.678
391.575	0.621
402.218	0.509
412.861	0.434
423.504	0.481
434.147	0.502
444.79	0.486
455.433	0.382
466.076	0.248
476.719	0.194
487.362	0.2949
498.005	0.434
508.648	0.453
519.291	0.361
529.934	0.2611
540.577	0.267
551.22	0.317
561.863	0.38
572.506	0.481
583.149	0.5899
593.792	0.679
604.435	0.756
615.078	0.799
625.721	0.82
636.364	0.848
647.007	0.882
657.65	0.881
668.293	0.89
678.937	0.885
689.58	0.875
700.223	0.868
710.866	0.875
721.509	0.871
732.152	0.859
742.795	0.8191
753.438	0.769
764.081	0.787
774.724	0.868
785.367	0.901
796.01	0.898
806.653	0.878
817.296	0.889
827.939	0.861
838.582	0.843
849.225	0.921
859.868	0.926
870.511	0.882
881.154	0.808
891.797	0.75
902.44	0.6381
913.083	0.541
923.726	0.513
934.369	0.496
945.012	0.497
955.655	0.49
966.298	0.3611
976.941	0.222
987.584	0.147
998.228	0.125
1008.87	0.118
1019.51	0.114
1030.16	0.111
1040.8	0.128
1051.44	0.182
1062.09	0.206
1072.73	0.222
1083.37	0.275
1094.01	0.34
1104.66	0.394
1115.3	0.425
1125.94	0.465
1136.59	0.527
1147.23	0.589
1157.87	0.63
1168.52	0.659
1179.16	0.682
1189.8	0.703
1200.45	0.724
1211.09	0.735
1221.73	0.75
1232.37	0.761
1243.02	0.776
1253.66	0.779
1264.3	0.788
1274.95	0.796
1285.59	0.803
1296.23	0.812
1306.88	0.817
1317.52	0.821
1328.16	0.825
1338.8	0.831
1349.45	0.836
1360.09	0.836
1370.73	0.84
1381.38	0.844
1392.02	0.847
1402.66	0.849
1413.31	0.848
1423.95	0.851
1434.59	0.852
1445.23	0.857
1455.88	0.857
1466.52	0.859
1477.16	0.863
1487.81	0.872
1498.45	0.872
1509.09	0.872
1519.74	0.872
1530.38	0.872
1541.02	0.872
1551.67	0.873
1562.31	0.872
1572.95	0.871
1583.59	0.863
1594.24	0.851
1604.88	0.839
1615.52	0.824
1626.17	0.825
1636.81	0.836
1647.45	0.852
1658.1	0.853
1668.74	0.855
1679.38	0.861
1690.02	0.864
1700.67	0.868
1711.31	0.871
1721.95	0.872
1732.6	0.873
1743.24	0.875
1753.88	0.876
1764.53	0.872
1775.17	0.875
1785.81	0.873
1796.46	0.872
1807.1	0.872
1817.74	0.875
1828.38	0.872
1839.03	0.872
1849.67	0.872
1860.31	0.875
1870.96	0.873
1881.6	0.872
1892.24	0.872
1902.89	0.873
1913.53	0.872
1924.17	0.875
1934.81	0.873
1945.46	0.873
1956.1	0.873
1966.74	0.873
1977.39	0.873
1988.03	0.869
1998.67	0.872
2009.32	0.877
2019.96	0.881
2030.6	0.881
2041.24	0.881
2051.89	0.8805
2062.53	0.881
2073.17	0.881
2083.82	0.88
2094.46	0.88
2105.1	0.881
2115.75	0.881
2126.39	0.88
2137.03	0.878
2147.68	0.88
2158.32	0.879
2168.96	0.878
2179.6	0.881
2190.25	0.88
2200.89	0.8805
2211.53	0.877
2222.18	0.88
2232.82	0.875
2243.46	0.8786
2254.11	0.877
2264.75	0.8755
2275.39	0.876
2286.03	0.878
2296.68	0.878
2307.32	0.8765
2317.96	0.876
2328.61	0.8724
2339.25	0.871
2349.89	0.869
2360.54	0.871
2371.18	0.873
2381.82	0.8724
2392.46	0.871
2403.11	0.869
2413.75	0.8674
2424.39	0.865
2435.04	0.8644
2445.68	0.864
2456.32	0.8634
2466.97	0.8619
2477.61	0.861
2488.25	0.86
2498.9	0.8594
2509.54	0.859
2520.18	0.8573
2530.82	0.856
2541.47	0.855
2552.11	0.855
2562.75	0.8524
2573.4	0.851
2584.04	0.851
2594.68	0.851
2605.33	0.849
2615.97	0.852
2626.61	0.8498
2637.25	0.8498
2647.9	0.848
2658.54	0.847
2669.18	0.8444
2679.83	0.844
2690.47	0.843
2701.11	0.843
2711.76	0.841
2722.4	0.84
2733.04	0.84
2743.69	0.839
2754.33	0.837
2764.97	0.836
2775.61	0.835
2786.26	0.8337
2796.9	0.833
2807.54	0.831
2818.19	0.828
2828.83	0.8257
2839.47	0.824
2850.12	0.8217
2860.76	0.821
2871.4	0.819
2882.04	0.817
2892.69	0.819
2903.33	0.8131
2913.97	0.8097
2924.62	0.8034
2935.26	0.8
2945.9	0.8
2956.55	0.8
2967.19	0.8
2977.83	0.8
2988.47	0.801
2999.12	0.803
3009.76	0.803
3020.4	0.803
3031.05	0.801
3041.69	0.801
3052.33	0.8
3062.98	0.799
3073.62	0.7976
3084.26	0.797
3094.91	0.7953
3105.55	0.7936
3116.19	0.7913
3126.83	0.789
3137.48	0.789
3148.12	0.7883
3158.76	0.7873
3169.41	0.784
3180.05	0.7816
3190.69	0.78
3201.34	0.78
3211.98	0.7753
3222.62	0.773
3233.26	0.772
3243.91	0.769
3254.55	0.768
3265.19	0.767
3275.84	0.764
3286.48	0.759
3297.12	0.755
3307.77	0.7513
3318.41	0.748
3329.05	0.7433
3339.69	0.7368
3350.34	0.731
3360.98	0.7273
3371.62	0.7158
3382.27	0.7085
3392.91	0.7005
3403.55	0.6928
3414.2	0.6833
3424.84	0.678
3435.48	0.6725
3446.13	0.668
3456.77	0.666
3467.41	0.666
3478.05	0.667
3488.7	0.67
3499.34	0.6755
3509.98	0.6797
3520.63	0.682
3531.27	0.6875
3541.91	0.6943
3552.56	0.699
3563.2	0.7093
3573.84	0.7158
3584.48	0.7198
3595.13	0.7167
3605.77	0.6954
3616.41	0.615
3627.06	0.5513
3637.7	0.5425
3648.34	0.5571
3658.99	0.5776
3669.63	0.6343
3680.27	0.677
3690.92	0.6936
3701.56	0.6948
3712.2	0.7093
3722.84	0.7198
3733.49	0.722
3744.13	0.722
3754.77	0.7256
3765.42	0.728
3776.06	0.73
3786.7	0.73
3797.35	0.7284
3807.99	0.728
3818.63	0.727
3829.27	0.727
3839.92	0.727
3850.56	0.727
3861.2	0.727
3871.85	0.727
3882.49	0.727
3893.13	0.727
3903.78	0.727
3914.42	0.726
3925.06	0.726
3935.7	0.7244
3946.35	0.7222
3956.99	0.72
3967.63	0.722
3978.28	0.723
3988.92	0.723
