Infrared Spectrum: Urea, 1-(2-mercaptoethyl)-, sulfate, potassium salt
Formula: C3 H7 K N2 O4 S2
State: SOLID (1 mg / 650 mg KBr DISC)
Class: COBLENTZ III
Instrument: PERKIN-ELMER 221 (GRATING)
Instrument parameters: FILTER AT 980 CM^-^1. GRATING 4000-1428 CM^-^1, NaCl PRISM 1428-650 CM^-^1
Resolution: 2
Origin: SOUTHERN RESEARCH INSTITUTE
1/CM	TRANSMITTANCE
631.255	0.1707
640.294	0.1785
649.333	0.283
658.373	0.3865
667.412	0.4208
676.451	0.4384
685.49	0.4789
694.529	0.5168
703.569	0.54
712.608	0.5691
721.647	0.5774
730.686	0.534
739.725	0.5467
748.765	0.6159
757.804	0.6243
766.843	0.6872
775.882	0.6776
784.921	0.6274
793.96	0.6039
803	0.7044
812.039	0.7264
821.078	0.7275
830.117	0.7244
839.156	0.7225
848.196	0.719
857.235	0.7106
866.274	0.6981
875.313	0.685
884.352	0.6704
893.392	0.6529
902.431	0.6323
911.47	0.6017
920.509	0.5865
929.548	0.563
938.588	0.5423
947.627	0.5236
956.666	0.4991
965.705	0.467
974.744	0.4335
983.784	0.3943
992.823	0.3556
1001.86	0.2536
1010.9	0.1908
1019.94	0.1286
1028.98	0.0884
1038.02	0.1595
1047.06	0.3309
1056.1	0.4156
1065.14	0.4505
1074.18	0.4508
1083.21	0.4404
1092.25	0.425
1101.29	0.3946
1110.33	0.3416
1119.37	0.3011
1128.41	0.3271
1137.45	0.3365
1146.49	0.2975
1155.53	0.2552
1164.57	0.196
1173.61	0.1268
1182.65	0.0701
1191.69	0.0653
1200.72	0.1068
1209.76	0.1659
1218.8	0.1636
1227.84	0.1227
1236.88	0.0956
1245.92	0.1438
1254.96	0.2579
1264	0.2933
1273.04	0.3711
1282.08	0.4482
1291.12	0.4885
1300.16	0.4973
1309.19	0.5233
1318.23	0.5156
1327.27	0.4136
1336.31	0.2962
1345.35	0.2336
1354.39	0.412
1363.43	0.4197
1372.47	0.41
1381.51	0.6132
1390.55	0.652
1399.59	0.5863
1408.63	0.5347
1417.66	0.6284
1426.7	0.588
1435.74	0.3857
1444.78	0.5737
1453.82	0.5287
1462.86	0.4516
1471.9	0.3742
1480.94	0.2869
1489.98	0.2053
1499.02	0.1404
1508.06	0.1167
1517.1	0.1138
1526.14	0.1384
1535.17	0.2157
1544.21	0.288
1553.25	0.3316
1562.29	0.3521
1571.33	0.3548
1580.37	0.3478
1589.41	0.3359
1598.45	0.3111
1607.49	0.2511
1616.53	0.178
1625.57	0.1838
1634.61	0.2033
1643.64	0.1549
1652.68	0.1006
1661.72	0.1347
1670.76	0.2264
1679.8	0.2823
1688.84	0.3213
1697.88	0.3904
1706.92	0.4301
1715.96	0.4675
1725	0.5105
1734.04	0.5469
1743.08	0.5761
1752.12	0.6073
1761.15	0.641
1770.19	0.6627
1779.23	0.6784
1788.27	0.6939
1797.31	0.7106
1806.35	0.7342
1815.39	0.7619
1824.43	0.7754
1833.47	0.7944
1842.51	0.8135
1851.55	0.8378
1860.59	0.8564
1869.62	0.8654
1878.66	0.8728
1887.7	0.8789
1896.74	0.8839
1905.78	0.8885
1914.82	0.8927
1923.86	0.8976
1932.9	0.9055
1941.94	0.9161
1950.98	0.9251
1960.02	0.9313
1969.06	0.9339
1978.09	0.9334
1987.13	0.9338
1996.17	0.9307
2005.21	0.9253
2014.25	0.9182
2023.29	0.9122
2032.33	0.8993
2041.37	0.8777
2050.41	0.8788
2059.45	0.8938
2068.49	0.9167
2077.53	0.9327
2086.57	0.9417
2095.6	0.9447
2104.64	0.9438
2113.68	0.9371
2122.72	0.9269
2131.76	0.9208
2140.8	0.921
2149.84	0.9235
2158.88	0.926
2167.92	0.9294
2176.96	0.9308
2186	0.9184
2195.04	0.8963
2204.07	0.8769
2213.11	0.8728
2222.15	0.8759
2231.19	0.8749
2240.23	0.8654
2249.27	0.8797
2258.31	0.8903
2267.35	0.8965
2276.39	0.9008
2285.43	0.9013
2294.47	0.914
2303.51	0.9144
2312.55	0.9151
2321.58	0.9156
2330.62	0.916
2339.66	0.9159
2348.7	0.9152
2357.74	0.9098
2366.78	0.9041
2375.82	0.9028
2384.86	0.9014
2393.9	0.8991
2402.94	0.8952
2411.98	0.882
2421.02	0.8721
2430.05	0.8666
2439.09	0.8672
2448.13	0.8691
2457.17	0.8693
2466.21	0.8695
2475.25	0.865
2484.29	0.8468
2493.33	0.8709
2502.37	0.8711
2511.41	0.87
2520.45	0.8698
2529.49	0.8696
2538.53	0.8697
2547.56	0.8699
2556.6	0.8712
2565.64	0.8693
2574.68	0.865
2583.72	0.8596
2592.76	0.8547
2601.8	0.8498
2610.84	0.8458
2619.88	0.8415
2628.92	0.836
2637.96	0.8273
2647	0.8252
2656.03	0.8242
2665.07	0.8239
2674.11	0.8184
2683.15	0.8064
2692.19	0.7948
2701.23	0.7844
2710.27	0.7759
2719.31	0.7662
2728.35	0.7486
2737.39	0.7337
2746.43	0.7227
2755.47	0.7111
2764.5	0.6961
2773.54	0.6928
2782.58	0.6967
2791.62	0.7067
2800.66	0.7085
2809.7	0.7088
2818.74	0.7097
2827.78	0.7099
2836.82	0.7007
2845.86	0.6914
2854.9	0.6804
2863.94	0.6745
2872.98	0.6831
2882.01	0.6856
2891.05	0.682
2900.09	0.6733
2909.13	0.658
2918.17	0.6417
2927.21	0.6198
2936.25	0.58
2945.29	0.5178
2954.33	0.491
2963.37	0.6228
2972.41	0.6216
2981.45	0.6022
2990.48	0.6254
2999.52	0.6116
3008.56	0.6033
3017.6	0.5997
3026.64	0.5959
3035.68	0.5902
3044.72	0.5847
3053.76	0.5769
3062.8	0.5669
3071.84	0.5548
3080.88	0.5393
3089.92	0.5188
3098.96	0.5031
3107.99	0.4925
3117.03	0.467
3126.07	0.4466
3135.11	0.4202
3144.15	0.3872
3153.19	0.3512
3162.23	0.3133
3171.27	0.2813
3180.31	0.2425
3189.35	0.2403
3198.39	0.2488
3207.43	0.2697
3216.46	0.2718
3225.5	0.2827
3234.54	0.3106
3243.58	0.3429
3252.62	0.36
3261.66	0.3632
3270.7	0.3506
3279.74	0.3331
3288.78	0.3103
3297.82	0.2943
3306.86	0.2936
3315.9	0.2944
3324.93	0.2874
3333.97	0.2672
3343.01	0.244
3352.05	0.2368
3361.09	0.2273
3370.13	0.1929
3379.17	0.1579
3388.21	0.1127
3397.25	0.1611
3406.29	0.2109
3415.33	0.2688
3424.37	0.3103
3433.41	0.3476
3442.44	0.3826
3451.48	0.4195
3460.52	0.462
3469.56	0.4913
3478.6	0.5136
3487.64	0.5433
3496.68	0.5745
3505.72	0.6078
3514.76	0.6336
3523.8	0.6568
3532.84	0.6771
3541.88	0.7033
3550.91	0.7251
3559.95	0.7302
3568.99	0.7426
3578.03	0.7554
3587.07	0.7723
3596.11	0.7892
3605.15	0.8071
3614.19	0.8231
3623.23	0.8382
3632.27	0.8522
3641.31	0.8651
3650.35	0.8706
3659.39	0.872
3668.42	0.8726
3677.46	0.8732
3686.5	0.875
3695.54	0.878
3704.58	0.8819
3713.62	0.8853
3722.66	0.886
3731.7	0.8845
3740.74	0.8838
3749.78	0.8845
3758.82	0.8862
3767.86	0.8885
3776.89	0.8896
3785.93	0.8895
3794.97	0.8883
3804.01	0.8875
3813.05	0.8861
3822.09	0.8832
3831.13	0.8799
3840.17	0.8769
3849.21	0.8759
3858.25	0.8745
3867.29	0.8731
3876.33	0.8716
3885.36	0.87
3894.4	0.8661
3903.44	0.8622
3912.48	0.8617
