Infrared Spectrum: Guanidine, amino-, nitrate, hydrate
Formula: C H7 N5 O3  * 2 H2 O
State: SOLID (SPLIT MULL), FLUOROLUBE FOR 3800-1330 CM^-^1, NUJOL FOR 1330-400 CM^-^1
Melting point: 105 C DECOMPOSES
Class: COBLENTZ III
Instrument: BECKMAN IR-9 (GRATING)
Instrument parameters: ORDER CHANGES: 670, 1200, 2000 CM^-^1
Sampling: TRANSMISSION
Resolution: 2
Origin: DOW CHEMICAL COMPANY
1/CM	TRANSMITTANCE
3800	0.7792
3791	0.7808
3782	0.783
3773	0.7864
3764	0.7906
3755	0.7951
3746	0.7997
3737	0.8045
3728	0.81
3719	0.8155
3710	0.821
3701	0.8266
3692	0.8321
3683	0.8375
3674	0.8431
3665	0.8483
3656	0.8532
3647	0.858
3638	0.8628
3629	0.8675
3620	0.8721
3611	0.8767
3602	0.8778
3593	0.8766
3584	0.8797
3575	0.8835
3566	0.8858
3557	0.8877
3548	0.8883
3539	0.8887
3530	0.8874
3521	0.8856
3512	0.8827
3503	0.8777
3494	0.8703
3485	0.8523
3476	0.7962
3467	0.6994
3458	0.6222
3449	0.5551
3440	0.488
3431	0.4208
3422	0.3537
3413	0.2866
3404	0.2012
3395	0.1631
3386	0.1536
3377	0.1551
3368	0.1656
3359	0.1882
3350	0.1861
3341	0.1854
3332	0.1959
3323	0.2088
3314	0.2222
3305	0.2335
3296	0.2414
3287	0.2395
3278	0.2312
3269	0.2217
3260	0.2148
3251	0.2112
3242	0.2117
3233	0.2122
3224	0.2115
3215	0.2094
3206	0.2048
3197	0.1965
3188	0.1794
3179	0.1554
3170	0.1279
3161	0.0989
3152	0.0664
3143	0.0578
3134	0.0551
3125	0.0558
3116	0.0621
3107	0.0794
3098	0.1022
3089	0.1262
3080	0.1488
3071	0.1683
3062	0.1858
3053	0.1992
3044	0.2022
3035	0.2033
3026	0.2056
3017	0.2094
3008	0.2139
2999	0.2198
2990	0.2263
2981	0.2353
2972	0.2476
2963	0.2587
2954	0.2693
2945	0.2798
2936	0.2893
2927	0.2984
2918	0.3076
2909	0.3166
2900	0.3244
2891	0.332
2882	0.3391
2873	0.3464
2864	0.3542
2855	0.3618
2846	0.3689
2837	0.3728
2828	0.377
2819	0.3812
2810	0.3864
2801	0.3956
2792	0.4046
2783	0.4129
2774	0.4157
2765	0.4151
2756	0.4141
2747	0.413
2738	0.4129
2729	0.4164
2720	0.4198
2711	0.4237
2702	0.4281
2693	0.4324
2684	0.4367
2675	0.441
2666	0.4452
2657	0.4493
2648	0.4534
2639	0.4569
2630	0.4597
2621	0.4623
2612	0.4649
2603	0.4679
2594	0.4717
2585	0.4756
2576	0.4792
2567	0.4805
2558	0.4784
2549	0.4778
2540	0.4781
2531	0.4805
2522	0.4844
2513	0.4886
2504	0.4939
2495	0.4989
2486	0.5017
2477	0.5029
2468	0.5017
2459	0.4968
2450	0.493
2441	0.4879
2432	0.486
2423	0.4938
2414	0.5078
2405	0.5159
2396	0.521
2387	0.5223
2378	0.5316
2369	0.5515
2360	0.5552
2351	0.5557
2342	0.5594
2333	0.5631
2324	0.5683
2315	0.5741
2306	0.5807
2297	0.5888
2288	0.597
2279	0.6058
2270	0.6147
2261	0.6235
2252	0.6342
2243	0.6439
2234	0.6521
2225	0.6606
2216	0.6671
2207	0.6683
2198	0.6649
2189	0.6669
2180	0.674
2171	0.6815
2162	0.6894
2153	0.6991
2144	0.7043
2135	0.7068
2126	0.7106
2117	0.7162
2108	0.7237
2099	0.7305
2090	0.7368
2081	0.7432
2072	0.7491
2063	0.7546
2054	0.7596
2045	0.7645
2036	0.7689
2027	0.7718
2018	0.7736
2009	0.7772
2000	0.7819
1991	0.7834
1982	0.7832
1973	0.7844
1964	0.7869
1955	0.7925
1946	0.8012
1937	0.8117
1928	0.8228
1919	0.834
1910	0.8455
1901	0.857
1892	0.8685
1883	0.8806
1874	0.8932
1865	0.9054
1856	0.9153
1847	0.9249
1838	0.9327
1829	0.9385
1820	0.9432
1811	0.9466
1802	0.9477
1793	0.9437
1784	0.9138
1775	0.8932
1766	0.8661
1757	0.8862
1748	0.8661
1739	0.7628
1730	0.7185
1721	0.5596
1712	0.319
1703	0.1309
1694	0.1245
1685	0.2002
1676	0.2359
1667	0.1391
1658	0.2104
1649	0.3046
1640	0.2431
1631	0.1767
1622	0.2246
1613	0.2993
1604	0.3496
1595	0.3734
1586	0.3884
1577	0.3712
1568	0.3959
1559	0.455
1550	0.4854
1541	0.4608
1532	0.4587
1523	0.5355
1514	0.6241
1505	0.6565
1496	0.6625
1487	0.6494
1478	0.5927
1469	0.4962
1460	0.4221
1451	0.3258
1442	0.2559
1433	0.1792
1424	0.0976
1415	0.0385
1406	0.0144
1397	0.0149
1388	0.0334
1379	0.0566
1370	0.0707
1361	0.0633
1352	0.0432
1343	0.0314
1334	0.0299
1325	0.0421
1316	0.044
1307	0.048
1298	0.095
1289	0.1403
1280	0.1779
1271	0.2277
1262	0.2672
1253	0.2682
1244	0.2373
1235	0.2401
1226	0.304
1217	0.3459
1208	0.36
1199	0.3768
1190	0.4326
1181	0.4537
1172	0.4707
1163	0.5045
1154	0.5288
1145	0.5471
1136	0.5573
1127	0.555
1118	0.5498
1109	0.5627
1100	0.5967
1091	0.6069
1082	0.6155
1073	0.641
1064	0.6691
1055	0.5467
1046	0.5906
1037	0.4316
1028	0.6548
1019	0.7043
1010	0.7232
1001	0.7248
992	0.7153
983	0.7133
974	0.7374
965	0.7562
956	0.7576
947	0.748
938	0.7712
929	0.7935
920	0.8115
911	0.828
902	0.8432
893	0.8536
884	0.8624
875	0.8709
866	0.8761
857	0.8784
848	0.8784
839	0.8433
830	0.8057
821	0.3305
812	0.8562
803	0.8688
794	0.8675
785	0.8588
776	0.841
767	0.8115
758	0.774
749	0.7175
740	0.5867
731	0.3982
722	0.5555
713	0.6447
704	0.7248
695	0.7014
686	0.6274
677	0.5426
668	0.4705
659	0.3768
650	0.322
641	0.3532
632	0.39
623	0.3998
614	0.354
605	0.376
596	0.46
587	0.5289
578	0.5728
569	0.6058
560	0.6187
551	0.6188
542	0.6174
533	0.6207
524	0.6224
515	0.6108
506	0.5766
497	0.5579
488	0.5304
479	0.4993
470	0.4877
461	0.4846
452	0.4962
443	0.5086
434	0.5201
425	0.5181
416	0.5088
407	0.5081
