Infrared Spectrum: PHOSPHORIC ACID, ISOAMYL-ISOOCTYL ESTER
Formula: C13 H29 O4 P
State: LIQUID
Class: COBLENTZ
Instrument: PERKIN-ELMER
Sampling: TRANSMISSION
Path length: 0.0024 CM
Resolution: 4
Origin: STANDARD OIL OF OHIO
MICROMETERS	TRANSMITTANCE
2.02	0.974
2.05382	0.974
2.08764	0.974
2.12146	0.972
2.15528	0.972
2.1891	0.971
2.22292	0.967
2.25674	0.957
2.29056	0.937
2.32438	0.928
2.3582	0.928
2.39202	0.935
2.42584	0.935
2.45966	0.932
2.49348	0.932
2.5273	0.935
2.56112	0.938
2.59494	0.938
2.62876	0.937
2.66258	0.937
2.6964	0.935
2.73022	0.928
2.76403	0.915
2.79785	0.899
2.83167	0.877
2.86549	0.847
2.89931	0.813
2.93313	0.775
2.96695	0.733
3.00077	0.692
3.03459	0.648
3.06841	0.594
3.10223	0.541
3.13605	0.49
3.16987	0.453
3.20369	0.407
3.23751	0.371
3.27133	0.331
3.30515	0.275
3.33897	0.135
3.37279	0.032
3.40661	0.022
3.44043	0.039
3.47425	0.069
3.50807	0.137
3.54189	0.203
3.57571	0.227
3.60953	0.232
3.64335	0.235
3.67717	0.242
3.71099	0.249
3.74481	0.259
3.77863	0.269
3.81245	0.28
3.84627	0.292
3.88009	0.308
3.91391	0.324
3.94773	0.342
3.98155	0.358
4.01537	0.368
4.04919	0.375
4.08301	0.375
4.11683	0.373
4.15065	0.366
4.18447	0.358
4.21828	0.351
4.2521	0.349
4.28592	0.337
4.31974	0.325
4.35356	0.322
4.38738	0.327
4.4212	0.336
4.45502	0.349
4.48884	0.356
4.52266	0.365
4.55648	0.368
4.5903	0.373
4.62412	0.382
4.65794	0.397
4.69176	0.407
4.72558	0.421
4.7594	0.434
4.79322	0.449
4.82704	0.46
4.86086	0.471
4.89468	0.483
4.9285	0.499
4.96232	0.509
4.99614	0.517
5.02996	0.528
5.06378	0.534
5.0976	0.541
5.13142	0.544
5.16524	0.548
5.19906	0.551
5.23288	0.551
5.2667	0.55
5.30052	0.548
5.33434	0.544
5.36816	0.539
5.40198	0.533
5.4358	0.528
5.46962	0.521
5.50344	0.511
5.53726	0.502
5.57108	0.494
5.6049	0.482
5.63872	0.468
5.67253	0.458
5.70635	0.448
5.74017	0.434
5.77399	0.422
5.80781	0.41
5.84163	0.402
5.87545	0.393
5.90927	0.388
5.94309	0.385
5.97691	0.382
6.01073	0.382
6.04455	0.383
6.07837	0.387
6.11219	0.392
6.14601	0.4
6.17983	0.407
6.21365	0.415
6.24747	0.422
6.28129	0.434
6.31511	0.441
6.34893	0.449
6.38275	0.456
6.41657	0.465
6.45039	0.475
6.48421	0.485
6.51803	0.495
6.55185	0.504
6.58567	0.511
6.61949	0.516
6.65331	0.517
6.68713	0.509
6.72095	0.468
6.75477	0.376
6.78859	0.269
6.82241	0.205
6.85623	0.251
6.89005	0.378
6.92387	0.468
6.95769	0.499
6.99151	0.512
7.02533	0.555
7.05915	0.578
7.09297	0.58
7.12678	0.543
7.1606	0.488
7.19442	0.432
7.22824	0.4
7.26206	0.421
7.29588	0.427
7.3297	0.485
7.36352	0.573
7.39734	0.594
7.43116	0.601
7.46498	0.604
7.4988	0.607
7.53262	0.609
7.56644	0.597
7.60026	0.577
7.63408	0.551
7.6679	0.526
7.70172	0.509
7.73554	0.485
7.76936	0.448
7.80318	0.4
7.837	0.337
7.87082	0.297
7.90464	0.254
7.93846	0.213
7.97228	0.173
8.0061	0.147
8.03992	0.127
8.07374	0.105
8.10756	0.086
8.14138	0.066
8.1752	0.056
8.20902	0.05
8.24284	0.049
8.27666	0.052
8.31048	0.056
8.3443	0.064
8.37812	0.073
8.41194	0.079
8.44576	0.086
8.47958	0.093
8.5134	0.1
8.54722	0.103
8.58103	0.106
8.61485	0.108
8.64867	0.113
8.68249	0.12
8.71631	0.122
8.75013	0.123
8.78395	0.129
8.81777	0.135
8.85159	0.139
8.88541	0.142
8.91923	0.149
8.95305	0.152
8.98687	0.157
9.02069	0.161
9.05451	0.159
9.08833	0.151
9.12215	0.14
9.15597	0.123
9.18979	0.103
9.22361	0.061
9.25743	0.032
9.29125	0.015
9.32507	0.005
9.35889	0.003
9.39271	0.003
9.42653	0.003
9.46035	0.003
9.49417	0.003
9.52799	0.003
9.56181	0.003
9.59563	0.003
9.62945	0.003
9.66327	0.003
9.69709	0.003
9.73091	0.003
9.76473	0.003
9.79855	0.003
9.83237	0.003
9.86619	0.003
9.90001	0.003
9.93383	0.003
9.96765	0.003
10.0015	0.005
10.0353	0.006
10.0691	0.01
10.1029	0.013
10.1367	0.018
10.1706	0.023
10.2044	0.03
10.2382	0.042
10.272	0.054
10.3058	0.064
10.3397	0.074
10.3735	0.084
10.4073	0.1
10.4411	0.11
10.4749	0.125
10.5088	0.135
10.5426	0.144
10.5764	0.157
10.6102	0.176
10.644	0.202
10.6779	0.222
10.7117	0.239
10.7455	0.251
10.7793	0.259
10.8131	0.264
10.847	0.269
10.8808	0.275
10.9146	0.283
10.9484	0.29
10.9822	0.297
11.0161	0.303
11.0499	0.312
11.0837	0.319
11.1175	0.325
11.1513	0.332
11.1852	0.336
11.219	0.336
11.2528	0.339
11.2866	0.342
11.3204	0.349
11.3543	0.354
11.3881	0.361
11.4219	0.366
11.4557	0.371
11.4895	0.376
11.5234	0.382
11.5572	0.387
11.591	0.388
11.6248	0.39
11.6586	0.393
11.6925	0.395
11.7263	0.395
11.7601	0.395
11.7939	0.397
11.8277	0.398
11.8616	0.4
11.8954	0.4
11.9292	0.4
11.963	0.402
11.9968	0.405
12.0307	0.41
12.0645	0.412
12.0983	0.414
12.1321	0.415
12.1659	0.419
12.1997	0.422
12.2336	0.424
12.2674	0.427
12.3012	0.429
12.335	0.431
12.3688	0.432
12.4027	0.432
12.4365	0.432
12.4703	0.432
12.5041	0.434
12.5379	0.436
12.5718	0.439
12.6056	0.441
12.6394	0.443
12.6732	0.444
12.707	0.446
12.7409	0.446
12.7747	0.448
12.8085	0.448
12.8423	0.448
12.8761	0.449
12.91	0.451
12.9438	0.453
12.9776	0.46
13.0114	0.465
13.0452	0.468
13.0791	0.471
13.1129	0.475
13.1467	0.477
13.1805	0.482
13.2143	0.485
13.2482	0.488
13.282	0.494
13.3158	0.497
13.3496	0.504
13.3834	0.507
13.4173	0.516
13.4511	0.522
13.4849	0.528
13.5187	0.534
13.5525	0.543
13.5864	0.548
13.6202	0.551
13.654	0.556
13.6878	0.56
13.7216	0.563
13.7555	0.568
13.7893	0.575
13.8231	0.582
13.8569	0.59
13.8907	0.597
13.9246	0.602
13.9584	0.607
13.9922	0.614
14.026	0.619
14.0598	0.623
14.0937	0.628
14.1275	0.634
14.1613	0.638
14.1951	0.643
14.2289	0.648
14.2628	0.653
14.2966	0.653
14.3304	0.657
14.3642	0.66
14.398	0.662
14.4319	0.665
14.4657	0.668
14.4995	0.674
14.5333	0.675
14.5671	0.675
14.601	0.674
14.6348	0.675
14.6686	0.675
14.7024	0.677
14.7362	0.677
14.7701	0.679
14.8039	0.68
14.8377	0.68
14.8715	0.68
14.9053	0.679
14.9392	0.68
14.973	0.682
15.0068	0.682
15.0406	0.682
15.0744	0.682
15.1082	0.684
15.1421	0.684
15.1759	0.682
15.2097	0.682
15.2435	0.68
15.2773	0.679
15.3112	0.677
15.345	0.677
15.3788	0.677
