Infrared Spectrum: SALICYLALDEHYDE COPPER CHELATE
Formula: C14 H12 O4 Cu
State: SOLID (MINERAL OIL MULL)
Class: COBLENTZ
Instrument: Not specified, most likely a prism, grating, or hybrid spectrometer.
Sampling: TRANSMISSION
Resolution: 4
Origin: DOW CHEMICAL COMPANY
MICROMETERS	TRANSMITTANCE
2.048	0.552
2.08914	0.559
2.13027	0.562
2.17141	0.564
2.21254	0.564
2.25368	0.564
2.29481	0.566
2.33595	0.573
2.37709	0.581
2.41822	0.591
2.45936	0.6
2.50049	0.61
2.54163	0.619
2.58276	0.625
2.6239	0.629
2.66503	0.629
2.70617	0.63
2.74731	0.629
2.78844	0.629
2.82958	0.629
2.87071	0.629
2.91185	0.629
2.95298	0.629
2.99412	0.634
3.03526	0.637
3.07639	0.637
3.11753	0.639
3.15866	0.646
3.1998	0.651
3.24093	0.634
3.28207	0.607
3.3232	0.549
3.36434	0.304
3.40548	0.073
3.44661	0.171
3.48775	0.241
3.52888	0.51
3.57002	0.653
3.61115	0.678
3.65229	0.683
3.69343	0.688
3.73456	0.695
3.7757	0.704
3.81683	0.712
3.85797	0.721
3.8991	0.727
3.94024	0.738
3.98138	0.743
4.02251	0.75
4.06365	0.758
4.10478	0.76
4.14592	0.751
4.18705	0.756
4.22819	0.741
4.26932	0.748
4.31046	0.768
4.3516	0.77
4.39273	0.772
4.43387	0.772
4.475	0.773
4.51614	0.775
4.55727	0.777
4.59841	0.778
4.63955	0.78
4.68068	0.78
4.72182	0.78
4.76295	0.782
4.80409	0.789
4.84522	0.789
4.88636	0.789
4.9275	0.806
4.96863	0.806
5.00977	0.807
5.0509	0.809
5.09204	0.802
5.13317	0.802
5.17431	0.802
5.21544	0.804
5.25658	0.806
5.29772	0.811
5.33885	0.818
5.37999	0.819
5.42112	0.821
5.46226	0.821
5.50339	0.816
5.54453	0.806
5.58567	0.828
5.6268	0.831
5.66794	0.831
5.70907	0.828
5.75021	0.826
5.79134	0.824
5.83248	0.799
5.87361	0.78
5.91475	0.739
5.95589	0.724
5.99702	0.651
6.03816	0.649
6.07929	0.549
6.12043	0.304
6.16156	0.127
6.2027	0.066
6.24384	0.141
6.28497	0.408
6.32611	0.471
6.36724	0.51
6.40838	0.588
6.44951	0.68
6.49065	0.52
6.53179	0.219
6.57292	0.375
6.61406	0.549
6.65519	0.709
6.69633	0.688
6.73746	0.654
6.7786	0.44
6.81973	0.238
6.86087	0.389
6.90201	0.295
6.94314	0.18
6.98428	0.448
7.02541	0.312
7.06655	0.323
7.10768	0.534
7.14882	0.639
7.18996	0.634
7.23109	0.556
7.27223	0.586
7.31336	0.581
7.3545	0.673
7.39563	0.585
7.43677	0.384
7.4779	0.515
7.51904	0.63
7.56018	0.714
7.60131	0.731
7.64245	0.758
7.68358	0.77
7.72472	0.767
7.76585	0.729
7.80699	0.721
7.84813	0.767
7.88926	0.79
7.9304	0.801
7.97153	0.719
8.01267	0.68
8.0538	0.787
8.09494	0.768
8.13608	0.744
8.17721	0.67
8.21835	0.528
8.25948	0.535
8.30062	0.607
8.34175	0.505
8.38289	0.409
8.42402	0.607
8.46516	0.755
8.5063	0.77
8.54743	0.768
8.58857	0.722
8.6297	0.525
8.67084	0.246
8.71197	0.27
8.75311	0.622
8.79425	0.698
8.83538	0.622
8.87652	0.472
8.91765	0.634
8.95879	0.758
8.99992	0.758
9.04106	0.772
9.0822	0.787
9.12333	0.799
9.16447	0.804
9.2056	0.806
9.24674	0.799
9.28787	0.785
9.32901	0.795
9.37014	0.801
9.41128	0.806
9.45242	0.806
9.49355	0.809
9.53469	0.807
9.57582	0.809
9.61696	0.819
9.65809	0.802
9.69923	0.727
9.74037	0.67
9.7815	0.629
9.82264	0.795
9.86377	0.807
9.90491	0.831
9.94604	0.84
9.98718	0.843
10.0283	0.848
10.0695	0.852
10.1106	0.852
10.1517	0.852
10.1929	0.843
10.234	0.831
10.2751	0.836
10.3163	0.846
10.3574	0.852
10.3985	0.85
10.4397	0.846
10.4808	0.845
10.5219	0.845
10.5631	0.845
10.6042	0.843
10.6453	0.836
10.6865	0.836
10.7276	0.835
10.7688	0.831
10.8099	0.818
10.851	0.807
10.8922	0.784
10.9333	0.763
10.9744	0.724
11.0156	0.588
11.0567	0.391
11.0978	0.486
11.139	0.664
11.1801	0.746
11.2212	0.778
11.2624	0.778
11.3035	0.76
11.3447	0.79
11.3858	0.802
11.4269	0.809
11.4681	0.811
11.5092	0.814
11.5503	0.814
11.5915	0.816
11.6326	0.809
11.6737	0.785
11.7149	0.734
11.756	0.717
11.7971	0.784
11.8383	0.797
11.8794	0.809
11.9206	0.812
11.9617	0.812
12.0028	0.814
12.044	0.814
12.0851	0.816
12.1262	0.816
12.1674	0.818
12.2085	0.814
12.2496	0.812
12.2908	0.809
12.3319	0.804
12.373	0.797
12.4142	0.789
12.4553	0.78
12.4965	0.763
12.5376	0.744
12.5787	0.714
12.6199	0.664
12.661	0.593
12.7021	0.537
12.7433	0.549
12.7844	0.581
12.8255	0.59
12.8667	0.551
12.9078	0.43
12.9489	0.301
12.9901	0.241
13.0312	0.29
13.0724	0.42
13.1135	0.496
13.1546	0.517
13.1958	0.557
13.2369	0.603
13.278	0.644
13.3192	0.676
13.3603	0.697
13.4014	0.704
13.4426	0.71
13.4837	0.704
13.5248	0.676
13.566	0.647
13.6071	0.622
13.6483	0.622
13.6894	0.659
13.7305	0.685
13.7717	0.685
13.8128	0.675
13.8539	0.67
13.8951	0.666
13.9362	0.663
13.9773	0.659
14.0185	0.654
14.0596	0.653
14.1007	0.647
14.1419	0.644
14.183	0.637
14.2242	0.629
14.2653	0.619
14.3064	0.608
14.3476	0.6
14.3887	0.6
14.4298	0.591
14.471	0.588
14.5121	0.581
14.5532	0.576
14.5944	0.566
14.6355	0.556
14.6766	0.545
14.7178	0.53
14.7589	0.525
14.8	0.513
14.8412	0.498
14.8823	0.481
14.9235	0.44
14.9646	0.392
15.0057	0.335
15.0469	0.282
15.088	0.278
15.1291	0.312
15.1703	0.363
15.2114	0.403
15.2525	0.423
15.2937	0.433
15.3348	0.437
15.3759	0.437
15.4171	0.433
15.4582	0.43
15.4994	0.425
15.5405	0.42
15.5816	0.416
15.6228	0.408
15.6639	0.404
15.705	0.397
15.7462	0.391
15.7873	0.387
15.8284	0.382
15.8696	0.384
