Infrared Spectrum: OXALIC ACID, DIHYDRATE
Formula: C2 H2 O4  * 2 H2 O
State: SOLID (MINERAL OIL MULL)
Class: COBLENTZ
Instrument: Not specified, most likely a prism, grating, or hybrid spectrometer.
Sampling: TRANSMISSION
Resolution: 4
Origin: WYANDOTTE CHEMICALS CORP., WYANDOTTE, MICHIGAN, USA
MICROMETERS	TRANSMITTANCE
2.014	1.015
2.05484	1.018
2.09567	1.017
2.13651	1.015
2.17734	1.013
2.21818	1.005
2.25901	0.998
2.29985	0.982
2.34068	0.952
2.38152	0.94
2.42235	0.904
2.46319	0.867
2.50402	0.821
2.54486	0.8
2.58569	0.758
2.62653	0.681
2.66736	0.601
2.7082	0.495
2.74904	0.415
2.78987	0.359
2.83071	0.303
2.87154	0.248
2.91238	0.223
2.95321	0.229
2.99405	0.255
3.03488	0.32
3.07572	0.386
3.11655	0.449
3.15739	0.468
3.19822	0.502
3.23906	0.509
3.27989	0.492
3.32073	0.402
3.36157	0.233
3.4024	0.155
3.44324	0.139
3.48407	0.12
3.52491	0.139
3.56574	0.274
3.60658	0.379
3.64741	0.425
3.68825	0.439
3.72908	0.432
3.76992	0.417
3.81075	0.419
3.85159	0.425
3.89242	0.431
3.93326	0.436
3.97409	0.436
4.01493	0.833
4.05577	0.834
4.0966	0.834
4.13744	0.839
4.17827	0.848
4.21911	0.853
4.25994	0.862
4.30078	0.89
4.34161	0.923
4.38245	0.952
4.42328	0.967
4.46412	0.95
4.50495	0.938
4.54579	0.936
4.58662	0.931
4.62746	0.93
4.6683	0.919
4.70913	0.894
4.74997	0.87
4.7908	0.846
4.83164	0.805
4.87247	0.781
4.91331	0.77
4.95414	0.742
4.99498	0.718
5.03581	0.691
5.07665	0.659
5.11748	0.63
5.15832	0.591
5.19915	0.562
5.23999	0.533
5.28082	0.511
5.32166	0.499
5.3625	0.471
5.40333	0.454
5.44417	0.449
5.485	0.436
5.52584	0.427
5.56667	0.419
5.60751	0.415
5.64834	0.403
5.68918	0.39
5.73001	0.367
5.77085	0.344
5.81168	0.308
5.85252	0.294
5.89335	0.284
5.93419	0.265
5.97503	0.257
6.01586	0.262
6.0567	0.265
6.09753	0.281
6.13837	0.291
6.1792	0.301
6.22004	0.313
6.26087	0.345
6.30171	0.385
6.34254	0.412
6.38338	0.436
6.42421	0.461
6.46505	0.471
6.50588	0.49
6.54672	0.511
6.58755	0.526
6.62839	0.548
6.66923	0.567
6.71006	0.563
6.7509	0.517
6.79173	0.422
6.83257	0.318
6.8734	0.308
6.91424	0.325
6.95507	0.376
6.99591	0.442
7.03674	0.509
7.07758	0.543
7.11841	0.56
7.15925	0.57
7.20008	0.567
7.24092	0.504
7.28176	0.448
7.32259	0.495
7.36343	0.568
7.40426	0.594
7.4451	0.603
7.48593	0.63
7.52677	0.652
7.5676	0.691
7.60844	0.71
7.64927	0.713
7.69011	0.712
7.73094	0.708
7.77178	0.696
7.81261	0.66
7.85345	0.599
7.89428	0.505
7.93512	0.42
7.97596	0.345
8.01679	0.303
8.05763	0.291
8.09846	0.282
8.1393	0.279
8.18013	0.281
8.22097	0.304
8.2618	0.335
8.30264	0.354
8.34347	0.373
8.38431	0.383
8.42514	0.402
8.46598	0.413
8.50681	0.424
8.54765	0.432
8.58849	0.432
8.62932	0.431
8.67016	0.429
8.71099	0.42
8.75183	0.42
8.79266	0.413
8.8335	0.405
8.87433	0.403
8.91517	0.402
8.956	0.4
8.99684	0.402
9.03767	0.405
9.07851	0.41
9.11934	0.429
9.16018	0.437
9.20101	0.451
9.24185	0.463
9.28269	0.471
9.32352	0.49
9.36436	0.507
9.40519	0.528
9.44603	0.555
9.48686	0.572
9.5277	0.584
9.56853	0.599
9.60937	0.614
9.6502	0.64
9.69104	0.659
9.73187	0.679
9.77271	0.693
9.81354	0.72
9.85438	0.739
9.89522	0.752
9.93605	0.773
9.97689	0.79
10.0177	0.827
10.0586	0.853
10.0994	0.872
10.1402	0.892
10.1811	0.901
10.2219	0.906
10.2627	0.921
10.3036	0.933
10.3444	0.936
10.3852	0.94
10.4261	0.945
10.4669	0.952
10.5077	0.959
10.5486	0.954
10.5894	0.955
10.6303	0.959
10.6711	0.96
10.7119	0.965
10.7528	0.967
10.7936	0.971
10.8344	0.965
10.8753	0.964
10.9161	0.965
10.9569	0.969
10.9978	0.972
11.0386	0.981
11.0794	0.965
11.1203	0.959
11.1611	0.955
11.2019	0.957
11.2428	0.964
11.2836	0.962
11.3245	0.962
11.3653	0.96
11.4061	0.962
11.447	0.96
11.4878	0.96
11.5286	0.969
11.5695	0.982
11.6103	0.993
11.6511	0.971
11.692	0.967
11.7328	0.964
11.7736	0.965
11.8145	0.969
11.8553	0.972
11.8961	0.977
11.937	0.988
11.9778	0.993
12.0187	0.998
12.0595	0.991
12.1003	0.989
12.1412	0.981
12.182	0.979
12.2228	0.976
12.2637	0.981
12.3045	0.979
12.3453	0.979
12.3862	0.981
12.427	0.986
12.4678	0.989
12.5087	0.979
12.5495	0.981
12.5903	0.989
12.6312	0.988
12.672	0.984
12.7129	0.984
12.7537	0.986
12.7945	0.988
12.8354	0.988
12.8762	0.986
12.917	0.984
12.9579	0.986
12.9987	0.986
13.0395	0.982
13.0804	0.981
13.1212	0.981
13.162	0.981
13.2029	0.981
13.2437	0.979
13.2845	0.974
13.3254	0.969
13.3662	0.962
13.4071	0.936
13.4479	0.911
13.4887	0.882
13.5296	0.831
13.5704	0.778
13.6112	0.724
13.6521	0.66
13.6929	0.604
13.7337	0.536
13.7746	0.49
13.8154	0.427
13.8562	0.388
13.8971	0.367
13.9379	0.362
13.9787	0.367
14.0196	0.376
14.0604	0.402
14.1013	0.431
14.1421	0.461
14.1829	0.483
14.2238	0.492
14.2646	0.504
14.3054	0.521
14.3463	0.533
14.3871	0.538
14.4279	0.54
14.4688	0.541
14.5096	0.543
14.5504	0.546
14.5913	0.546
14.6321	0.545
14.6729	0.545
14.7138	0.541
14.7546	0.543
14.7955	0.543
14.8363	0.541
14.8771	0.533
14.918	0.533
14.9588	0.531
14.9996	0.528
15.0405	0.526
15.0813	0.528
15.1221	0.522
15.163	0.521
15.2038	0.514
15.2446	0.512
15.2855	0.512
15.3263	0.511
15.3671	0.511
15.408	0.509
15.4488	0.509
15.4897	0.512
15.5305	0.512
15.5713	0.512
15.6122	0.514
15.653	0.517
15.6938	0.524
15.7347	0.531
15.7755	0.533
15.8163	0.531
15.8572	0.531
15.898	0.529
15.9388	0.531
15.9797	0.541
