Infrared Spectrum: POTASSIUM FERROCYANIDE
Formula: K4 Fe ( C N)6  * 3 H2 O
State: SOLID (NUJOL MULL)
Class: COBLENTZ
Instrument: Not specified, most likely a prism, grating, or hybrid spectrometer.
Sampling: TRANSMISSION
Resolution: 4
Origin: MELLON INSTITUTE
MICROMETERS	TRANSMITTANCE
2.05	0.79
2.08988	0.797
2.12975	0.802
2.16963	0.805
2.20951	0.817
2.24939	0.822
2.28926	0.824
2.32914	0.825
2.36902	0.825
2.40889	0.824
2.44877	0.827
2.48865	0.829
2.52853	0.832
2.5684	0.83
2.60828	0.842
2.64816	0.842
2.68803	0.84
2.72791	0.825
2.76779	0.683
2.80767	0.514
2.84754	0.42
2.88742	0.4
2.9273	0.375
2.96717	0.378
3.00705	0.408
3.04693	0.453
3.08681	0.495
3.12668	0.561
3.16656	0.611
3.20644	0.691
3.24631	0.738
3.28619	0.745
3.32607	0.556
3.36595	0.175
3.40582	0.14
3.4457	0.19
3.48558	0.249
3.52546	0.782
3.56533	0.884
3.60521	0.914
3.64509	0.916
3.68496	0.919
3.72484	0.921
3.76472	0.924
3.8046	0.931
3.84447	0.936
3.88435	0.943
3.92423	0.946
3.9641	0.946
4.00398	0.943
4.04386	0.934
4.08374	0.922
4.12361	0.934
4.16349	0.944
4.20337	0.943
4.24324	0.938
4.28312	0.938
4.323	0.936
4.36288	0.941
4.40275	0.946
4.44263	0.949
4.48251	0.948
4.52238	0.944
4.56226	0.938
4.60214	0.939
4.64202	0.943
4.68189	0.934
4.72177	0.931
4.76165	0.924
4.80152	0.837
4.8414	0.629
4.88128	0.462
4.92116	0.273
4.96103	0.184
5.00091	0.242
5.04079	0.398
5.08066	0.581
5.12054	0.752
5.16042	0.804
5.2003	0.824
5.24017	0.849
5.28005	0.864
5.31993	0.884
5.3598	0.901
5.39968	0.907
5.43956	0.919
5.47944	0.931
5.51931	0.943
5.55919	0.949
5.59907	0.958
5.63894	0.968
5.67882	0.971
5.7187	0.978
5.75858	0.981
5.79845	0.983
5.83833	0.976
5.87821	0.966
5.91808	0.946
5.95796	0.926
5.99784	0.83
6.03772	0.67
6.07759	0.659
6.11747	0.591
6.15735	0.576
6.19723	0.855
6.2371	0.921
6.27698	0.931
6.31686	0.931
6.35673	0.943
6.39661	0.943
6.43649	0.951
6.47637	0.956
6.51624	0.958
6.55612	0.959
6.596	0.946
6.63587	0.949
6.67575	0.941
6.71563	0.901
6.75551	0.762
6.79538	0.577
6.83526	0.569
6.87514	0.639
6.91501	0.742
6.95489	0.82
6.99477	0.891
7.03465	0.906
7.07452	0.932
7.1144	0.936
7.15428	0.877
7.19415	0.731
7.23403	0.742
7.27391	0.792
7.31379	0.857
7.35366	0.892
7.39354	0.901
7.43342	0.904
7.47329	0.917
7.51317	0.922
7.55305	0.926
7.59293	0.927
7.6328	0.917
7.67268	0.919
7.71256	0.924
7.75243	0.927
7.79231	0.924
7.83219	0.924
7.87207	0.929
7.91194	0.939
7.95182	0.941
7.9917	0.934
8.03157	0.941
8.07145	0.941
8.11133	0.943
8.15121	0.943
8.19108	0.939
8.23096	0.943
8.27084	0.941
8.31071	0.941
8.35059	0.941
8.39047	0.939
8.43035	0.941
8.47022	0.941
8.5101	0.941
8.54998	0.939
8.58985	0.939
8.62973	0.938
8.66961	0.939
8.70949	0.941
8.74936	0.938
8.78924	0.934
8.82912	0.938
8.869	0.939
8.90887	0.936
8.94875	0.936
8.98863	0.934
9.0285	0.931
9.06838	0.924
9.10826	0.926
9.14814	0.929
9.18801	0.932
9.22789	0.936
9.26777	0.943
9.30764	0.944
9.34752	0.944
9.3874	0.946
9.42728	0.946
9.46715	0.948
9.50703	0.944
9.54691	0.941
9.58678	0.938
9.62666	0.941
9.66654	0.944
9.70642	0.944
9.74629	0.946
9.78617	0.949
9.82605	0.944
9.86592	0.944
9.9058	0.936
9.94568	0.931
9.98556	0.926
10.0254	0.922
10.0653	0.924
10.1052	0.929
10.1451	0.929
10.1849	0.929
10.2248	0.932
10.2647	0.936
10.3046	0.943
10.3445	0.946
10.3843	0.946
10.4242	0.948
10.4641	0.946
10.504	0.948
10.5438	0.946
10.5837	0.943
10.6236	0.941
10.6635	0.939
10.7033	0.929
10.7432	0.926
10.7831	0.931
10.823	0.936
10.8629	0.941
10.9027	0.953
10.9426	0.954
10.9825	0.963
11.0224	0.966
11.0622	0.969
11.1021	0.973
11.142	0.971
11.1819	0.973
11.2217	0.974
11.2616	0.978
11.3015	0.981
11.3414	0.986
11.3813	0.989
11.4211	0.991
11.461	0.998
11.5009	1
11.5408	1
11.5806	1
11.6205	1
11.6604	1.001
11.7003	1.001
11.7402	1.003
11.78	1.005
11.8199	1.003
11.8598	1.001
11.8997	1
11.9395	0.996
11.9794	0.996
12.0193	1
12.0592	0.998
12.099	1
12.1389	1.003
12.1788	1.003
12.2187	1.001
12.2586	1.001
12.2984	1.001
12.3383	1
12.3782	1.001
12.4181	1.001
12.4579	1.001
12.4978	1.003
12.5377	1.003
12.5776	1.003
12.6174	1.001
12.6573	1.001
12.6972	1.001
12.7371	0.996
12.777	0.993
12.8168	0.994
12.8567	0.988
12.8966	0.981
12.9365	0.973
12.9763	0.969
13.0162	0.964
13.0561	0.961
13.096	0.958
13.1359	0.956
13.1757	0.954
13.2156	0.953
13.2555	0.941
13.2954	0.939
13.3352	0.932
13.3751	0.924
13.415	0.919
13.4549	0.917
13.4947	0.902
13.5346	0.887
13.5745	0.884
13.6144	0.877
13.6543	0.874
13.6941	0.867
13.734	0.854
13.7739	0.845
13.8138	0.835
13.8536	0.83
13.8935	0.829
13.9334	0.824
13.9733	0.822
14.0131	0.817
14.053	0.81
14.0929	0.804
14.1328	0.8
14.1727	0.785
14.2125	0.777
14.2524	0.765
14.2923	0.753
14.3322	0.747
14.372	0.742
14.4119	0.731
14.4518	0.723
14.4917	0.715
14.5316	0.705
14.5714	0.693
14.6113	0.688
14.6512	0.683
14.6911	0.68
14.7309	0.678
14.7708	0.671
14.8107	0.673
14.8506	0.671
14.8904	0.663
14.9303	0.651
14.9702	0.648
15.0101	0.639
15.05	0.636
15.0898	0.633
15.1297	0.629
15.1696	0.624
15.2095	0.621
15.2493	0.628
15.2892	0.628
15.3291	0.628
15.369	0.633
15.4089	0.629
15.4487	0.626
15.4886	0.623
15.5285	0.624
15.5684	0.624
15.6082	0.628
15.6481	0.636
15.688	0.641
15.7279	0.644
15.7677	0.646
15.8076	0.653
15.8475	0.661
15.8874	0.668
15.9273	0.668
15.9671	0.664
16.007	0.666
