Infrared Spectrum: N-(Beta-CYCLOHEXYL-Beta-HYDROXY-Beta-PHENYL-ETHYL)-N'-METHYLPIPERAZINE METHOSULFATE
Formula: C21 H36 N2 O5 S
State: SOLID (NUJOL MULL)
Class: COBLENTZ
Instrument: PERKIN-ELMER
Sampling: TRANSMISSION
Resolution: 4
Origin: ABBOTT LABORATORIES - WASHBURN
MICROMETERS	TRANSMITTANCE
2.058	0.708
2.09151	0.709
2.12502	0.714
2.15853	0.723
2.19204	0.728
2.22555	0.723
2.25906	0.699
2.29257	0.686
2.32608	0.687
2.35959	0.699
2.3931	0.706
2.42661	0.713
2.46012	0.7231
2.49363	0.733
2.52714	0.7461
2.56065	0.756
2.59416	0.76
2.62767	0.763
2.66118	0.77
2.69469	0.773
2.7282	0.776
2.76171	0.776
2.79522	0.7729
2.82873	0.7498
2.86224	0.6178
2.89575	0.5417
2.92926	0.5882
2.96277	0.6324
2.99628	0.6964
3.02979	0.733
3.0633	0.743
3.09681	0.7439
3.13032	0.734
3.16383	0.7227
3.19734	0.7003
3.23085	0.6231
3.26436	0.5187
3.29787	0.3972
3.33138	0.1358
3.36489	0.0308
3.3984	0.016
3.43191	0.02
3.46542	0.0263
3.49893	0.1639
3.53244	0.5404
3.56595	0.6499
3.59946	0.7115
3.63297	0.7281
3.66648	0.7331
3.69999	0.739
3.7335	0.7331
3.76701	0.7563
3.80052	0.7682
3.83403	0.7681
3.86754	0.7882
3.90105	0.7961
3.93456	0.803
3.96807	0.8151
4.00158	0.823
4.03509	0.8179
4.0686	0.8202
4.10211	0.8272
4.13562	0.8245
4.16913	0.8232
4.20264	0.8295
4.23615	0.8268
4.26966	0.8205
4.30317	0.825
4.33668	0.8216
4.37019	0.813
4.4037	0.8255
4.43721	0.8329
4.47072	0.835
4.50423	0.8419
4.53774	0.842
4.57125	0.848
4.60476	0.847
4.63827	0.8481
4.67178	0.847
4.70529	0.847
4.7388	0.8539
4.77231	0.855
4.80582	0.857
4.83933	0.855
4.87284	0.855
4.90635	0.8569
4.93986	0.855
4.97337	0.8521
5.00688	0.843
5.04039	0.843
5.0739	0.845
5.10741	0.854
5.14092	0.8589
5.17443	0.855
5.20794	0.8482
5.24145	0.8483
5.27496	0.8498
5.30847	0.8616
5.34198	0.862
5.37549	0.86
5.409	0.857
5.44251	0.8487
5.47602	0.852
5.50953	0.8572
5.54304	0.855
5.57655	0.8502
5.61006	0.8435
5.64357	0.842
5.67708	0.8445
5.71059	0.842
5.7441	0.8465
5.77761	0.8408
5.81112	0.844
5.84463	0.8432
5.87814	0.8372
5.91165	0.8358
5.94516	0.835
5.97867	0.8324
6.01218	0.83
6.04569	0.8312
6.0792	0.827
6.11271	0.83
6.14622	0.8251
6.17973	0.8182
6.21324	0.7856
6.24675	0.8011
6.28026	0.819
6.31377	0.8163
6.34728	0.8175
6.38079	0.8109
6.4143	0.817
6.44781	0.8125
6.48132	0.813
6.51483	0.8025
6.54834	0.7925
6.58185	0.7746
6.61536	0.726
6.64887	0.5939
6.68238	0.4112
6.71589	0.3046
6.7494	0.3159
6.78291	0.1532
6.81642	0.105
6.84993	0.1047
6.88344	0.1065
6.91695	0.2112
6.95046	0.4402
6.98397	0.5813
7.01748	0.6324
7.05099	0.672
7.0845	0.6659
7.11801	0.634
7.15152	0.6289
7.18503	0.5638
7.21854	0.337
7.25205	0.226
7.28556	0.3512
7.31907	0.412
7.35258	0.4298
7.38609	0.4633
7.4196	0.4516
7.45311	0.4412
7.48662	0.4737
7.52013	0.4456
7.55364	0.3713
7.58715	0.438
7.62066	0.5417
7.65417	0.5652
7.68768	0.5828
7.72119	0.605
7.7547	0.5785
7.78821	0.5365
7.82172	0.4213
7.85523	0.3755
7.88874	0.3738
7.92225	0.4094
7.95576	0.3085
7.98927	0.1387
8.02278	0.0406
8.05629	0.025
8.0898	0.0202
8.12331	0.016
8.15682	0.0146
8.19033	0.024
8.22384	0.0711
8.25735	0.169
8.29086	0.2649
8.32437	0.3094
8.35788	0.3653
8.39139	0.442
8.4249	0.4943
8.45841	0.463
8.49192	0.4873
8.52543	0.5291
8.55894	0.5677
8.59245	0.5584
8.62596	0.4691
8.65947	0.448
8.69298	0.5193
8.72649	0.5544
8.76	0.5635
8.79351	0.5285
8.82702	0.4498
8.86053	0.4436
8.89404	0.4503
8.92755	0.4785
8.96106	0.4193
8.99457	0.4529
9.02808	0.5894
9.06159	0.6436
9.0951	0.662
9.12861	0.6344
9.16212	0.6223
9.19563	0.6433
9.22914	0.603
9.26265	0.5818
9.29616	0.4632
9.32967	0.4672
9.36318	0.5068
9.39669	0.3104
9.4302	0.1345
9.46371	0.3996
9.49722	0.523
9.53073	0.565
9.56424	0.5661
9.59775	0.5858
9.63126	0.5496
9.66477	0.4983
9.69828	0.393
9.73179	0.347
9.7653	0.3543
9.79881	0.3277
9.83232	0.2488
9.86583	0.1549
9.89934	0.1015
9.93285	0.095
9.96636	0.1579
9.99987	0.236
10.0334	0.2837
10.0669	0.3592
10.1004	0.4502
10.1339	0.4782
10.1674	0.4781
10.2009	0.5791
10.2344	0.5886
10.268	0.5545
10.3015	0.4047
10.335	0.3522
10.3685	0.5149
10.402	0.6511
10.4355	0.692
10.469	0.7141
10.5025	0.733
10.536	0.738
10.5695	0.743
10.6031	0.744
10.6366	0.736
10.6701	0.719
10.7036	0.6404
10.7371	0.4554
10.7706	0.3611
10.8041	0.4677
10.8376	0.5027
10.8711	0.5692
10.9046	0.615
10.9382	0.5867
10.9717	0.5271
11.0052	0.5574
11.0387	0.6509
11.0722	0.696
11.1057	0.6432
11.1392	0.5153
11.1727	0.4343
11.2062	0.6306
11.2397	0.7006
11.2733	0.737
11.3068	0.7675
11.3403	0.768
11.3738	0.7615
11.4073	0.6998
11.4408	0.6796
11.4743	0.7167
11.5078	0.7484
11.5413	0.7749
11.5748	0.7914
11.6084	0.7954
11.6419	0.7826
11.6754	0.7625
11.7089	0.7348
11.7424	0.7584
11.7759	0.7767
11.8094	0.794
11.8429	0.8009
11.8764	0.804
11.9099	0.805
11.9435	0.8
11.977	0.7955
12.0105	0.783
12.044	0.7666
12.0775	0.7445
12.111	0.7153
12.1445	0.7227
12.178	0.7483
12.2115	0.7735
12.245	0.7837
12.2786	0.7917
12.3121	0.79
12.3456	0.7904
12.3791	0.7893
12.4126	0.783
12.4461	0.778
12.4796	0.7746
12.5131	0.7504
12.5466	0.7227
12.5801	0.6916
12.6137	0.6378
12.6472	0.6096
12.6807	0.63
12.7142	0.5753
12.7477	0.5538
12.7812	0.5976
12.8147	0.632
12.8482	0.6239
12.8817	0.5863
12.9152	0.5016
12.9488	0.3907
12.9823	0.3439
13.0158	0.4081
13.0493	0.4797
13.0828	0.52
13.1163	0.4828
13.1498	0.3458
13.1833	0.2546
13.2168	0.1396
13.2503	0.1021
13.2839	0.0801
13.3174	0.07
13.3509	0.0828
13.3844	0.1067
13.4179	0.1288
13.4514	0.1761
13.4849	0.2327
13.5184	0.3027
13.5519	0.3862
13.5854	0.4404
13.619	0.4864
13.6525	0.514
13.686	0.5376
13.7195	0.555
13.753	0.557
13.7865	0.5628
13.82	0.5603
13.8535	0.5534
13.887	0.5385
13.9205	0.4916
13.9541	0.4078
13.9876	0.3263
14.0211	0.2427
14.0546	0.2558
14.0881	0.3699
14.1216	0.4654
14.1551	0.5583
14.1886	0.6242
14.2221	0.6548
14.2556	0.671
14.2892	0.6807
14.3227	0.687
14.3562	0.694
14.3897	0.6906
14.4232	0.6949
14.4567	0.692
14.4902	0.6823
14.5237	0.6633
14.5572	0.6351
14.5907	0.5984
14.6243	0.5573
14.6578	0.5316
14.6913	0.5133
14.7248	0.53
14.7583	0.5851
14.7918	0.6253
14.8253	0.6499
14.8588	0.654
14.8923	0.659
14.9258	0.659
14.9594	0.656
14.9929	0.6637
15.0264	0.659
15.0599	0.656
15.0934	0.6504
15.1269	0.6447
15.1604	0.6397
15.1939	0.6314
15.2274	0.62
15.2609	0.6184
15.2945	0.6111
15.328	0.5959
15.3615	0.5867
15.395	0.565
15.4285	0.5633
