Infrared Spectrum: TRIMETHYL VINYL AMMONIUM IODIDE
Formula: C5 H12 I N
State: SOLID (MINERAL OIL MULL)
Class: COBLENTZ
Instrument: Not specified, most likely a prism, grating, or hybrid spectrometer.
Sampling: TRANSMISSION
Resolution: 4
Origin: DOW CHEMICAL COMPANY
MICROMETERS	TRANSMITTANCE
2.014	0.54
2.05516	0.54
2.09631	0.552
2.13747	0.558
2.17863	0.562
2.21978	0.564
2.26094	0.547
2.3021	0.547
2.34325	0.562
2.38441	0.576
2.42557	0.586
2.46672	0.601
2.50788	0.615
2.54903	0.625
2.59019	0.63
2.63135	0.647
2.6725	0.652
2.71366	0.666
2.75482	0.671
2.79597	0.68
2.83713	0.68
2.87829	0.68
2.91944	0.673
2.9606	0.682
3.00176	0.685
3.04291	0.692
3.08407	0.7
3.12523	0.692
3.16638	0.683
3.20754	0.644
3.2487	0.601
3.28985	0.555
3.33101	0.377
3.37216	0.155
3.41332	0.015
3.45448	0.035
3.49563	0.061
3.53679	0.543
3.57795	0.697
3.6191	0.74
3.66026	0.736
3.70142	0.74
3.74257	0.752
3.78373	0.764
3.82489	0.777
3.86604	0.788
3.9072	0.805
3.94836	0.811
3.98951	0.827
4.03067	0.835
4.07183	0.835
4.11298	0.847
4.15414	0.844
4.19529	0.847
4.23645	0.854
4.27761	0.868
4.31876	0.875
4.35992	0.866
4.40108	0.878
4.44223	0.878
4.48339	0.878
4.52455	0.88
4.5657	0.88
4.60686	0.883
4.64802	0.885
4.68917	0.887
4.73033	0.887
4.77149	0.894
4.81264	0.899
4.8538	0.899
4.89496	0.9
4.93611	0.9
4.97727	0.9
5.01842	0.902
5.05958	0.904
5.10074	0.904
5.14189	0.9
5.18305	0.897
5.22421	0.887
5.26536	0.887
5.30652	0.892
5.34768	0.894
5.38883	0.902
5.42999	0.902
5.47115	0.897
5.5123	0.897
5.55346	0.897
5.59462	0.894
5.63577	0.899
5.67693	0.9
5.71809	0.904
5.75924	0.905
5.8004	0.905
5.84155	0.909
5.88271	0.905
5.92387	0.888
5.96502	0.858
6.00618	0.682
6.04734	0.663
6.08849	0.887
6.12965	0.89
6.17081	0.902
6.21196	0.902
6.25312	0.909
6.29428	0.909
6.33543	0.907
6.37659	0.902
6.41775	0.904
6.4589	0.902
6.50006	0.894
6.54122	0.887
6.58237	0.882
6.62353	0.866
6.66468	0.784
6.70584	0.639
6.747	0.553
6.78815	0.335
6.82931	0.164
6.87047	0.229
6.91162	0.393
6.95278	0.646
6.99394	0.779
7.03509	0.8
7.07625	0.752
7.11741	0.637
7.15856	0.62
7.19972	0.663
7.24088	0.464
7.28203	0.5
7.32319	0.647
7.36435	0.755
7.4055	0.764
7.44666	0.767
7.48781	0.798
7.52897	0.825
7.57013	0.834
7.61128	0.803
7.65244	0.808
7.6936	0.813
7.73475	0.825
7.77591	0.82
7.81707	0.815
7.85822	0.832
7.89938	0.841
7.94054	0.844
7.98169	0.817
8.02285	0.796
8.06401	0.823
8.10516	0.852
8.14632	0.863
8.18748	0.873
8.22863	0.873
8.26979	0.875
8.31094	0.878
8.3521	0.878
8.39326	0.878
8.43441	0.876
8.47557	0.87
8.51673	0.861
8.55788	0.854
8.59904	0.852
8.6402	0.851
8.68135	0.847
8.72251	0.849
8.76367	0.841
8.80482	0.835
8.84598	0.859
8.88714	0.875
8.92829	0.88
8.96945	0.88
9.01061	0.875
9.05176	0.878
9.09292	0.88
9.13407	0.88
9.17523	0.878
9.21639	0.871
9.25754	0.861
9.2987	0.825
9.33986	0.8
9.38101	0.789
9.42217	0.803
9.46333	0.839
9.50448	0.859
9.54564	0.864
9.5868	0.875
9.62795	0.876
9.66911	0.878
9.71027	0.878
9.75142	0.878
9.79258	0.878
9.83374	0.88
9.87489	0.88
9.91605	0.88
9.9572	0.878
9.99836	0.873
10.0395	0.873
10.0807	0.868
10.1218	0.851
10.163	0.81
10.2041	0.767
10.2453	0.719
10.2865	0.67
10.3276	0.661
10.3688	0.661
10.4099	0.658
10.4511	0.603
10.4922	0.47
10.5334	0.314
10.5746	0.242
10.6157	0.234
10.6569	0.263
10.698	0.374
10.7392	0.558
10.7803	0.678
10.8215	0.757
10.8626	0.781
10.9038	0.805
10.945	0.823
10.9861	0.83
11.0273	0.829
11.0684	0.779
11.1096	0.697
11.1507	0.547
11.1919	0.442
11.2331	0.456
11.2742	0.591
11.3154	0.712
11.3565	0.791
11.3977	0.841
11.4388	0.864
11.48	0.878
11.5212	0.887
11.5623	0.89
11.6035	0.9
11.6446	0.9
11.6858	0.902
11.7269	0.904
11.7681	0.904
11.8092	0.905
11.8504	0.907
11.8916	0.911
11.9327	0.916
11.9739	0.916
12.015	0.919
12.0562	0.919
12.0973	0.923
12.1385	0.921
12.1797	0.921
12.2208	0.921
12.262	0.921
12.3031	0.921
12.3443	0.921
12.3854	0.923
12.4266	0.924
12.4678	0.919
12.5089	0.917
12.5501	0.919
12.5912	0.914
12.6324	0.911
12.6735	0.909
12.7147	0.9
12.7558	0.899
12.797	0.894
12.8382	0.888
12.8793	0.885
12.9205	0.88
12.9616	0.88
13.0028	0.876
13.0439	0.873
13.0851	0.873
13.1263	0.873
13.1674	0.87
13.2086	0.868
13.2497	0.863
13.2909	0.858
13.332	0.849
13.3732	0.844
13.4144	0.834
13.4555	0.825
13.4967	0.813
13.5378	0.8
13.579	0.796
13.6201	0.784
13.6613	0.776
13.7024	0.767
13.7436	0.748
13.7848	0.74
13.8259	0.721
13.8671	0.719
13.9082	0.719
13.9494	0.7
13.9905	0.673
14.0317	0.637
14.0729	0.605
14.114	0.601
14.1552	0.627
14.1963	0.659
14.2375	0.688
14.2786	0.702
14.3198	0.711
14.361	0.716
14.4021	0.717
14.4433	0.719
14.4844	0.712
14.5256	0.707
14.5667	0.704
14.6079	0.697
14.649	0.69
14.6902	0.682
14.7314	0.678
14.7725	0.671
14.8137	0.659
14.8548	0.658
14.896	0.649
14.9371	0.641
14.9783	0.632
15.0195	0.622
15.0606	0.61
15.1018	0.603
15.1429	0.589
15.1841	0.584
15.2252	0.581
15.2664	0.57
15.3075	0.565
15.3487	0.558
15.3899	0.55
15.431	0.538
15.4722	0.529
15.5133	0.523
15.5545	0.512
15.5956	0.499
15.6368	0.494
15.678	0.485
15.7191	0.485
15.7603	0.483
15.8014	0.478
15.8426	0.468
15.8837	0.468
