Infrared Spectrum: ACETIC ACID, 2-SULFO ETHYL ESTER-, SODIUM SALT
Formula: C4 H7 O5 S Na
State: SOLID (KBr PELLET)
Class: COBLENTZ
Instrument: Not specified, most likely a prism, grating, or hybrid spectrometer.
Sampling: TRANSMISSION
Resolution: 4
Origin: TENNESSEE EASTMAN COMPANY, RESEARCH LABORATORIES
MICROMETERS	TRANSMITTANCE
2.027	0.866
2.06689	0.876
2.10677	0.883
2.14666	0.893
2.18654	0.903
2.22643	0.906
2.26631	0.908
2.3062	0.91
2.34609	0.911
2.38597	0.915
2.42586	0.918
2.46574	0.92
2.50563	0.923
2.54551	0.921
2.5854	0.921
2.62529	0.925
2.66517	0.923
2.70506	0.913
2.74494	0.825
2.78483	0.748
2.82471	0.686
2.8646	0.638
2.90449	0.631
2.94437	0.703
2.98426	0.763
3.02414	0.811
3.06403	0.838
3.10392	0.858
3.1438	0.9
3.18369	0.916
3.22357	0.926
3.26346	0.93
3.30334	0.9
3.34323	0.865
3.38312	0.921
3.423	0.94
3.46289	0.946
3.50277	0.953
3.54266	0.958
3.58254	0.96
3.62243	0.961
3.66232	0.961
3.7022	0.963
3.74209	0.956
3.78197	0.951
3.82186	0.955
3.86174	0.958
3.90163	0.958
3.94152	0.958
3.9814	0.956
4.02129	0.956
4.06117	0.956
4.10106	0.956
4.14094	0.958
4.18083	0.961
4.22072	0.958
4.2606	0.941
4.30049	0.941
4.34037	0.95
4.38026	0.958
4.42014	0.958
4.46003	0.963
4.49992	0.966
4.5398	0.965
4.57969	0.961
4.61957	0.965
4.65946	0.96
4.69934	0.961
4.73923	0.963
4.77912	0.966
4.819	0.968
4.85889	0.961
4.89877	0.963
4.93866	0.963
4.97854	0.968
5.01843	0.968
5.05832	0.965
5.0982	0.961
5.13809	0.961
5.17797	0.961
5.21786	0.96
5.25775	0.951
5.29763	0.956
5.33752	0.95
5.3774	0.95
5.41729	0.941
5.45717	0.945
5.49706	0.941
5.53695	0.936
5.57683	0.921
5.61672	0.91
5.6566	0.9
5.69649	0.871
5.73637	0.846
5.77626	0.845
5.81615	0.821
5.85603	0.81
5.89592	0.793
5.9358	0.77
5.97569	0.758
6.01557	0.735
6.05546	0.66
6.09535	0.49
6.13523	0.191
6.17512	0.053
6.215	0.216
6.25489	0.603
6.29477	0.758
6.33466	0.766
6.37455	0.828
6.41443	0.868
6.45432	0.858
6.4942	0.89
6.53409	0.868
6.57397	0.888
6.61386	0.868
6.65375	0.868
6.69363	0.865
6.73352	0.84
6.7734	0.823
6.81329	0.815
6.85317	0.8
6.89306	0.756
6.93295	0.671
6.97283	0.771
7.01272	0.701
7.0526	0.666
7.09249	0.67
7.13237	0.626
7.17226	0.466
7.21215	0.248
7.25203	0.22
7.29192	0.473
7.3318	0.733
7.37169	0.846
7.41158	0.88
7.45146	0.901
7.49135	0.913
7.53123	0.901
7.57112	0.861
7.611	0.861
7.65089	0.87
7.69078	0.853
7.73066	0.848
7.77055	0.851
7.81043	0.821
7.85032	0.791
7.8902	0.761
7.93009	0.693
7.96998	0.605
8.00986	0.413
8.04975	0.186
8.08963	0.123
8.12952	0.161
8.1694	0.173
8.20929	0.181
8.24918	0.143
8.28906	0.121
8.32895	0.12
8.36883	0.211
8.40872	0.393
8.4486	0.546
8.48849	0.636
8.52838	0.68
8.56826	0.698
8.60815	0.72
8.64803	0.738
8.68792	0.743
8.7278	0.74
8.76769	0.738
8.80758	0.753
8.84746	0.765
8.88735	0.766
8.92723	0.755
8.96712	0.735
9.007	0.755
9.04689	0.783
9.08678	0.806
9.12666	0.811
9.16655	0.815
9.20643	0.815
9.24632	0.813
9.2862	0.77
9.32609	0.65
9.36598	0.378
9.40586	0.136
9.44575	0.263
9.48563	0.536
9.52552	0.721
9.56541	0.775
9.60529	0.805
9.64518	0.825
9.68506	0.851
9.72495	0.87
9.76483	0.89
9.80472	0.898
9.84461	0.898
9.88449	0.905
9.92438	0.913
9.96426	0.925
10.0041	0.933
10.044	0.938
10.0839	0.94
10.1238	0.936
10.1637	0.94
10.2036	0.943
10.2435	0.948
10.2833	0.951
10.3232	0.95
10.3631	0.951
10.403	0.945
10.4429	0.943
10.4828	0.95
10.5227	0.951
10.5625	0.955
10.6024	0.953
10.6423	0.928
10.6822	0.838
10.7221	0.84
10.762	0.878
10.8019	0.841
10.8417	0.72
10.8816	0.816
10.9215	0.915
10.9614	0.95
11.0013	0.956
11.0412	0.963
11.0811	0.97
11.1209	0.98
11.1608	0.986
11.2007	0.988
11.2406	0.986
11.2805	0.981
11.3204	0.983
11.3603	0.985
11.4001	0.985
11.44	0.99
11.4799	0.99
11.5198	0.991
11.5597	0.985
11.5996	0.973
11.6395	0.956
11.6793	0.93
11.7192	0.841
11.7591	0.678
11.799	0.53
11.8389	0.625
11.8788	0.823
11.9187	0.88
11.9585	0.925
11.9984	0.943
12.0383	0.956
12.0782	0.965
12.1181	0.968
12.158	0.97
12.1979	0.97
12.2377	0.973
12.2776	0.975
12.3175	0.973
12.3574	0.97
12.3973	0.966
12.4372	0.965
12.4771	0.965
12.517	0.968
12.5568	0.968
12.5967	0.97
12.6366	0.971
12.6765	0.971
12.7164	0.971
12.7563	0.97
12.7962	0.965
12.836	0.963
12.8759	0.96
12.9158	0.956
12.9557	0.948
12.9956	0.915
13.0355	0.775
13.0754	0.648
13.1152	0.575
13.1551	0.721
13.195	0.83
13.2349	0.893
13.2748	0.923
13.3147	0.94
13.3546	0.948
13.3944	0.955
13.4343	0.958
13.4742	0.961
13.5141	0.963
13.554	0.965
13.5939	0.965
13.6338	0.965
13.6736	0.966
13.7135	0.965
13.7534	0.96
13.7933	0.958
13.8332	0.956
13.8731	0.956
13.913	0.956
13.9528	0.958
13.9927	0.958
14.0326	0.958
14.0725	0.958
14.1124	0.958
14.1523	0.953
14.1922	0.951
14.232	0.946
14.2719	0.943
14.3118	0.935
14.3517	0.928
14.3916	0.921
14.4315	0.916
14.4714	0.913
14.5112	0.91
14.5511	0.901
14.591	0.9
14.6309	0.891
14.6708	0.883
14.7107	0.873
14.7506	0.866
14.7904	0.853
14.8303	0.845
14.8702	0.836
14.9101	0.818
14.95	0.801
14.9899	0.771
15.0298	0.76
15.0696	0.745
15.1095	0.721
15.1494	0.67
15.1893	0.615
15.2292	0.541
15.2691	0.48
15.309	0.438
15.3488	0.43
15.3887	0.446
15.4286	0.483
15.4685	0.513
15.5084	0.551
15.5483	0.575
15.5882	0.593
15.628	0.6
15.6679	0.603
15.7078	0.603
15.7477	0.6
15.7876	0.596
15.8275	0.593
15.8674	0.585
15.9072	0.581
15.9471	0.58
15.987	0.58
