Infrared Spectrum: BENZOIC ACID, 4-AMINO-2-CHLORO-, 2-DIETHYLAMINOETHYL ESTER, HYDROCHLORIDE
Formula: C13 H20 Cl2 N2 O2
State: SOLID (KCl DISC)
Melting point: 176-178 C
Class: COBLENTZ III
Instrument: PERKIN-ELMER 21 (GRATING)
Instrument parameters: FILTER AT ABOUT 10 MICRONS
Sampling: TRANSMISSION
Resolution: 2
1/CM	TRANSMITTANCE
4000	0.8493
3991	0.8502
3982	0.8511
3973	0.8521
3964	0.8531
3955	0.8542
3946	0.8554
3937	0.8566
3928	0.8577
3919	0.8589
3910	0.8601
3901	0.8613
3892	0.8625
3883	0.8637
3874	0.8649
3865	0.8661
3856	0.8674
3847	0.8686
3838	0.8699
3829	0.8711
3820	0.8724
3811	0.8736
3802	0.875
3793	0.8763
3784	0.8777
3775	0.879
3766	0.8803
3757	0.8816
3748	0.8827
3739	0.8839
3730	0.8856
3721	0.8883
3712	0.8908
3703	0.892
3694	0.8928
3685	0.8935
3676	0.8941
3667	0.8947
3658	0.8953
3649	0.8959
3640	0.8964
3631	0.8968
3622	0.8973
3613	0.8975
3604	0.8978
3595	0.8971
3586	0.8958
3577	0.8928
3568	0.8881
3559	0.8821
3550	0.874
3541	0.8667
3532	0.8605
3523	0.8542
3514	0.848
3505	0.8417
3496	0.8354
3487	0.8295
3478	0.8238
3469	0.8178
3460	0.8054
3451	0.7293
3442	0.6483
3433	0.567
3424	0.4853
3415	0.403
3406	0.354
3397	0.365
3388	0.4442
3379	0.5253
3370	0.6069
3361	0.6286
3352	0.6295
3343	0.5946
3334	0.5505
3325	0.5062
3316	0.4616
3307	0.4169
3298	0.3868
3289	0.4047
3280	0.4633
3271	0.5223
3262	0.5815
3253	0.6118
3244	0.6117
3235	0.5865
3226	0.5279
3217	0.4686
3208	0.4091
3199	0.3544
3190	0.3454
3181	0.3974
3172	0.475
3163	0.553
3154	0.6312
3145	0.6711
3136	0.6982
3127	0.7226
3118	0.7317
3109	0.7339
3100	0.7365
3091	0.7399
3082	0.7471
3073	0.7591
3064	0.77
3055	0.7745
3046	0.7798
3037	0.7898
3028	0.795
3019	0.7956
3010	0.7875
3001	0.763
2992	0.7233
2983	0.703
2974	0.6787
2965	0.6506
2956	0.6281
2947	0.6137
2938	0.6092
2929	0.6099
2920	0.6167
2911	0.6465
2902	0.671
2893	0.6975
2884	0.7199
2875	0.7365
2866	0.7561
2857	0.7682
2848	0.7733
2839	0.7764
2830	0.7784
2821	0.7796
2812	0.7801
2803	0.7768
2794	0.7703
2785	0.7651
2776	0.7643
2767	0.7651
2758	0.7661
2749	0.7668
2740	0.7655
2731	0.755
2722	0.7321
2713	0.7131
2704	0.6975
2695	0.6886
2686	0.681
2677	0.6718
2668	0.6599
2659	0.6267
2650	0.592
2641	0.5642
2632	0.537
2623	0.5095
2614	0.482
2605	0.4542
2596	0.4262
2587	0.398
2578	0.376
2569	0.3682
2560	0.3712
2551	0.3907
2542	0.4262
2533	0.4718
2524	0.491
2515	0.4953
2506	0.4931
2497	0.4874
2488	0.472
2479	0.4433
2470	0.4056
2461	0.4014
2452	0.4042
2443	0.4185
2434	0.4501
2425	0.5073
2416	0.5701
2407	0.5996
2398	0.6276
2389	0.6468
2380	0.6722
2371	0.6934
2362	0.7041
2353	0.7121
2344	0.7214
2335	0.7328
2326	0.7532
2317	0.7707
2308	0.7922
2299	0.8172
2290	0.8349
2281	0.8477
2272	0.8578
2263	0.8654
2254	0.871
2245	0.8742
2236	0.8764
2227	0.8794
2218	0.8847
2209	0.8908
2200	0.8987
2191	0.9087
2182	0.9134
2173	0.9164
2164	0.919
2155	0.9213
2146	0.9233
2137	0.9243
2128	0.9268
2119	0.9304
2110	0.9339
2101	0.9375
2092	0.9411
2083	0.9435
2074	0.9457
2065	0.9473
2056	0.9494
2047	0.9518
2038	0.954
2029	0.9564
2020	0.9592
2011	0.9618
2002	0.9647
1993	0.9667
1984	0.9674
1975	0.9684
1966	0.9695
1957	0.9701
1948	0.9712
1939	0.9723
1930	0.9731
1921	0.9755
1912	0.9768
1903	0.9778
1894	0.9791
1885	0.9808
1876	0.9827
1867	0.9847
1858	0.9884
1849	0.995
1840	1.0042
1831	1.0075
1822	1.0049
1813	1.0071
1804	1.001
1795	1.0056
1786	1.0052
1777	0.9863
1768	0.9788
1759	0.9807
1750	0.9743
1741	0.9259
1732	0.8345
1723	0.5816
1714	0.2301
1705	0.1035
1696	0.3155
1687	0.5717
1678	0.6446
1669	0.704
1660	0.7199
1651	0.6515
1642	0.3452
1633	0.1834
1624	0.4317
1615	0.5205
1606	0.249
1597	0.0421
1588	0.131
1579	0.3559
1570	0.5721
1561	0.6637
1552	0.5506
1543	0.6276
1534	0.7475
1525	0.7967
1516	0.7726
1507	0.6288
1498	0.7335
1489	0.6458
1480	0.5587
1471	0.5488
1462	0.4976
1453	0.5528
1444	0.5993
1435	0.585
1426	0.7318
1417	0.7217
1408	0.7584
1399	0.7004
1390	0.606
1381	0.7345
1372	0.7868
1363	0.6824
1354	0.5422
1345	0.626
1336	0.3999
1327	0.2574
1318	0.402
1309	0.6177
1300	0.6731
1291	0.6454
1282	0.5462
1273	0.2751
1264	0.1148
1255	0.1584
1246	0.1146
1237	0.3065
1228	0.5508
1219	0.6865
1210	0.7444
1201	0.7771
1192	0.7957
1183	0.8034
1174	0.761
1165	0.7746
1156	0.6308
1147	0.4465
1138	0.631
1129	0.4935
1120	0.282
1111	0.2043
1102	0.379
1093	0.5737
1084	0.6492
1075	0.6603
1066	0.6314
1057	0.674
1048	0.664
1039	0.623
1030	0.445
1021	0.5457
1012	0.4086
1003	0.6289
994	0.7169
985	0.7508
976	0.76
967	0.7678
958	0.7774
949	0.784
940	0.8015
931	0.7943
922	0.5885
913	0.7618
904	0.7294
895	0.7803
886	0.8192
877	0.7911
868	0.7291
859	0.7071
850	0.8191
841	0.8499
832	0.725
823	0.6658
814	0.845
805	0.8642
796	0.7908
787	0.8151
778	0.8709
769	0.7465
760	0.4605
751	0.8458
742	0.8782
733	0.8907
724	0.8888
715	0.9016
706	0.8891
697	0.8692
688	0.6157
679	0.8438
670	0.8523
