Infrared Spectrum: Adenine, N-[o-(methylthio)phenyl]-
Formula: C12 H11 N5 S
State: SOLID (1 mg / 650 mg KBr DISC)
Class: COBLENTZ III
Instrument: PERKIN-ELMER 21 (GRATING)
Instrument parameters: FILTER CHANGE ABOUT 1090 CM^-^1
Sampling: TRANSMISSION
Resolution: 2
Origin: SOUTHERN RESEARCH INSTITUTE
1/CM	TRANSMITTANCE
603.347	0.8174
612.37	0.8203
621.393	0.8159
630.416	0.7923
639.439	0.6948
648.462	0.4874
657.484	0.8605
666.507	0.7253
675.53	0.8332
684.553	0.7978
693.576	0.6421
702.599	0.841
711.622	0.8326
720.645	0.8121
729.668	0.7392
738.691	0.7356
747.714	0.688
756.736	0.3704
765.759	0.6546
774.782	0.7926
783.805	0.7783
792.828	0.6702
801.851	0.7291
810.874	0.7326
819.897	0.6962
828.92	0.6518
837.943	0.6442
846.966	0.6117
855.989	0.6135
865.011	0.6571
874.034	0.6613
883.057	0.655
892.08	0.6841
901.103	0.6516
910.126	0.5191
919.149	0.6715
928.172	0.6064
937.195	0.3316
946.218	0.7773
955.241	0.7679
964.263	0.7356
973.286	0.7518
982.309	0.7503
991.332	0.7543
1000.36	0.7436
1009.38	0.7241
1018.4	0.7098
1027.42	0.6852
1036.45	0.6245
1045.47	0.691
1054.49	0.6713
1063.52	0.6449
1072.54	0.6581
1081.56	0.6499
1090.58	0.4839
1099.61	0.6299
1108.63	0.6455
1117.65	0.6134
1126.68	0.5777
1135.7	0.5681
1144.72	0.626
1153.74	0.6182
1162.77	0.5929
1171.79	0.5624
1180.81	0.6272
1189.84	0.6123
1198.86	0.5908
1207.88	0.5676
1216.9	0.5389
1225.93	0.4647
1234.95	0.4857
1243.97	0.4007
1253	0.5264
1262.02	0.4659
1271.04	0.5162
1280.07	0.4375
1289.09	0.5003
1298.11	0.4424
1307.13	0.2894
1316.16	0.2998
1325.18	0.3404
1334.2	0.5251
1343.23	0.5274
1352.25	0.4952
1361.27	0.3939
1370.29	0.2602
1379.32	0.5036
1388.34	0.565
1397.36	0.4353
1406.39	0.4302
1415.41	0.4299
1424.43	0.3914
1433.45	0.2406
1442.48	0.176
1451.5	0.1774
1460.52	0.3501
1469.55	0.4014
1478.57	0.2357
1487.59	0.1985
1496.62	0.4244
1505.64	0.4882
1514.66	0.3874
1523.68	0.2887
1532.71	0.1728
1541.73	0.3233
1550.75	0.4929
1559.78	0.4578
1568.8	0.2896
1577.82	0.0998
1586.84	0.2042
1595.87	0.3203
1604.89	0.0921
1613.91	0.0921
1622.94	0.1156
1631.96	0.3046
1640.98	0.4812
1650	0.543
1659.03	0.6578
1668.05	0.7083
1677.07	0.7449
1686.1	0.7585
1695.12	0.7535
1704.14	0.7465
1713.17	0.759
1722.19	0.7603
1731.21	0.7589
1740.23	0.7647
1749.26	0.766
1758.28	0.7721
1767.3	0.7797
1776.33	0.7797
1785.35	0.7751
1794.37	0.7695
1803.39	0.7696
1812.42	0.7696
1821.44	0.7583
1830.46	0.7544
1839.49	0.7482
1848.51	0.7454
1857.53	0.7392
1866.55	0.7306
1875.58	0.7362
1884.6	0.7314
1893.62	0.7209
1902.65	0.7185
1911.67	0.7208
1920.69	0.7199
1929.72	0.7168
1938.74	0.7123
1947.76	0.7083
1956.78	0.7058
1965.81	0.7037
1974.83	0.7019
1983.85	0.6994
1992.88	0.6971
2001.9	0.6948
2010.92	0.692
2019.94	0.6893
2028.97	0.6868
2037.99	0.6844
2047.01	0.6822
2056.04	0.68
2065.06	0.6774
2074.08	0.6738
2083.1	0.6695
2092.13	0.6633
2101.15	0.6549
2110.17	0.6479
2119.2	0.6473
2128.22	0.6495
2137.24	0.6459
2146.26	0.6395
2155.29	0.6364
2164.31	0.6325
2173.33	0.6286
2182.36	0.6252
2191.38	0.6222
2200.4	0.6197
2209.43	0.6173
2218.45	0.615
2227.47	0.6125
2236.49	0.6057
2245.52	0.6027
2254.54	0.597
2263.56	0.5936
2272.59	0.5908
2281.61	0.5898
2290.63	0.5863
2299.65	0.5746
2308.68	0.5651
2317.7	0.558
2326.72	0.5462
2335.75	0.5453
2344.77	0.5451
2353.79	0.5444
2362.81	0.5434
2371.84	0.5424
2380.86	0.5415
2389.88	0.5396
2398.91	0.5339
2407.93	0.5327
2416.95	0.5305
2425.98	0.5212
2435	0.5189
2444.02	0.5163
2453.04	0.5104
2462.07	0.5101
2471.09	0.5068
2480.11	0.5065
2489.14	0.4935
2498.16	0.4863
2507.18	0.4796
2516.2	0.4768
2525.23	0.4706
2534.25	0.46
2543.27	0.4531
2552.3	0.4549
2561.32	0.4632
2570.34	0.4637
2579.36	0.4607
2588.39	0.4556
2597.41	0.4501
2606.43	0.4447
2615.46	0.4395
2624.48	0.4352
2633.5	0.4308
2642.53	0.4263
2651.55	0.4153
2660.57	0.416
2669.59	0.412
2678.62	0.4063
2687.64	0.4033
2696.66	0.3967
2705.69	0.39
2714.71	0.386
2723.73	0.3859
2732.75	0.386
2741.78	0.3817
2750.8	0.3763
2759.82	0.3703
2768.85	0.3661
2777.87	0.3662
2786.89	0.3693
2795.91	0.3619
2804.94	0.366
2813.96	0.3712
2822.98	0.3777
2832.01	0.3849
2841.03	0.3921
2850.05	0.398
2859.07	0.3966
2868.1	0.3913
2877.12	0.3917
2886.14	0.3921
2895.17	0.3839
2904.19	0.3789
2913.21	0.3751
2922.24	0.3717
2931.26	0.3693
2940.28	0.369
2949.3	0.3673
2958.33	0.3629
2967.35	0.36
2976.37	0.3614
2985.4	0.3734
2994.42	0.3812
3003.44	0.3878
3012.46	0.3965
3021.49	0.3978
3030.51	0.3956
3039.53	0.3887
3048.56	0.3799
3057.58	0.376
3066.6	0.3748
3075.62	0.3776
3084.65	0.3806
3093.67	0.3839
3102.69	0.3899
3111.72	0.4132
3120.74	0.4348
3129.76	0.4529
3138.79	0.4718
3147.81	0.4871
3156.83	0.4879
3165.85	0.4893
3174.88	0.4901
3183.9	0.4931
3192.92	0.4914
3201.95	0.4911
3210.97	0.4924
3219.99	0.4975
3229.01	0.502
3238.04	0.5023
3247.06	0.4961
3256.08	0.4836
3265.11	0.4815
3274.13	0.4638
3283.15	0.4389
3292.17	0.42
3301.2	0.4227
3310.22	0.444
3319.24	0.4624
3328.27	0.4615
3337.29	0.459
3346.31	0.4535
3355.34	0.4358
3364.36	0.427
3373.38	0.4304
3382.4	0.4494
3391.43	0.4674
3400.45	0.4604
3409.47	0.4568
3418.5	0.4536
3427.52	0.4507
3436.54	0.4497
3445.56	0.4492
3454.59	0.4492
3463.61	0.4495
3472.63	0.4501
3481.66	0.4507
3490.68	0.4514
3499.7	0.4521
3508.72	0.4536
3517.75	0.4573
3526.77	0.4625
3535.79	0.4658
3544.82	0.4683
3553.84	0.4699
3562.86	0.4714
3571.88	0.4729
3580.91	0.4744
3589.93	0.477
3598.95	0.4782
3607.98	0.4787
3617	0.4771
3626.02	0.4752
3635.05	0.4826
3644.07	0.4852
3653.09	0.4863
3662.11	0.4788
3671.14	0.4781
3680.16	0.4837
3689.18	0.4823
3698.21	0.4845
3707.23	0.486
3716.25	0.4853
3725.27	0.483
3734.3	0.4836
3743.32	0.4837
3752.34	0.4782
3761.37	0.4764
3770.39	0.4771
3779.41	0.4786
3788.43	0.4839
3797.46	0.4788
3806.48	0.4731
3815.5	0.4713
3824.53	0.4721
3833.55	0.4738
3842.57	0.4746
3851.6	0.4744
3860.62	0.4734
3869.64	0.4695
3878.66	0.4684
3887.69	0.4665
3896.71	0.4672
3905.73	0.4676
3914.76	0.466
3923.78	0.4638
3932.8	0.4632
3941.82	0.4642
3950.85	0.463
3959.87	0.4592
3968.89	0.4597
3977.92	0.4598
3986.94	0.4598
3995.96	0.4642
4004.98	0.4599
