Infrared Spectrum: LITHIUM CARBONATE
Formula: Li2 C O3
State: SOLID (NUJOL AND FLUOROLUBE MULLS)
Class: COBLENTZ
Instrument: Not specified, most likely a prism, grating, or hybrid spectrometer.
Sampling: TRANSMISSION
Resolution: 4
Origin: MELLON INSTITUTE
MICROMETERS	TRANSMITTANCE
2.077	0.873
2.11802	0.869
2.15904	0.866
2.20006	0.871
2.24108	0.869
2.2821	0.871
2.32312	0.871
2.36414	0.873
2.40516	0.881
2.44618	0.883
2.4872	0.883
2.52823	0.885
2.56925	0.886
2.61027	0.891
2.65129	0.888
2.69231	0.885
2.73333	0.893
2.77435	0.893
2.81537	0.891
2.85639	0.893
2.89741	0.893
2.93843	0.893
2.97945	0.895
3.02047	0.895
3.06149	0.893
3.10251	0.895
3.14353	0.895
3.18455	0.9
3.22557	0.903
3.26659	0.905
3.30761	0.91
3.34863	0.912
3.38966	0.919
3.43068	0.922
3.4717	0.924
3.51272	0.927
3.55374	0.936
3.59476	0.938
3.63578	0.943
3.6768	0.941
3.71782	0.934
3.75884	0.936
3.79986	0.939
3.84088	0.939
3.8819	0.934
3.92292	0.929
3.96394	0.922
4.00496	0.926
4.04598	0.933
4.087	0.936
4.12802	0.936
4.16904	0.936
4.21006	0.931
4.25109	0.924
4.29211	0.919
4.33313	0.915
4.37415	0.921
4.41517	0.919
4.45619	0.919
4.49721	0.927
4.53823	0.926
4.57925	0.919
4.62027	0.922
4.66129	0.921
4.70231	0.921
4.74333	0.926
4.78435	0.926
4.82537	0.934
4.86639	0.936
4.90741	0.936
4.94843	0.933
4.98945	0.939
5.03047	0.936
5.0715	0.943
5.11252	0.943
5.15354	0.943
5.19456	0.943
5.23558	0.945
5.2766	0.945
5.31762	0.946
5.35864	0.953
5.39966	0.95
5.44068	0.945
5.4817	0.939
5.52272	0.945
5.56374	0.936
5.60476	0.939
5.64578	0.946
5.6868	0.951
5.72782	0.953
5.76884	0.951
5.80986	0.95
5.85088	0.958
5.8919	0.951
5.93293	0.945
5.97395	0.943
6.01497	0.939
6.05599	0.936
6.09701	0.931
6.13803	0.921
6.17905	0.907
6.22007	0.866
6.26109	0.811
6.30211	0.728
6.34313	0.677
6.38415	0.6
6.42517	0.509
6.46619	0.444
6.50721	0.415
6.54823	0.356
6.58925	0.325
6.63027	0.269
6.67129	0.253
6.71231	0.252
6.75333	0.272
6.79436	0.298
6.83538	0.284
6.8764	0.253
6.91742	0.24
6.95844	0.271
6.99946	0.327
7.04048	0.473
7.0815	0.572
7.12252	0.646
7.16354	0.677
7.20456	0.71
7.24558	0.74
7.2866	0.775
7.32762	0.806
7.36864	0.831
7.40966	0.845
7.45068	0.855
7.4917	0.869
7.53272	0.881
7.57374	0.883
7.61476	0.885
7.65579	0.893
7.69681	0.9
7.73783	0.903
7.77885	0.903
7.81987	0.909
7.86089	0.912
7.90191	0.914
7.94293	0.917
7.98395	0.919
8.02497	0.921
8.06599	0.921
8.10701	0.921
8.14803	0.924
8.18905	0.927
8.23007	0.929
8.27109	0.933
8.31211	0.936
8.35313	0.936
8.39415	0.936
8.43517	0.938
8.47619	0.938
8.51722	0.936
8.55824	0.936
8.59926	0.941
8.64028	0.941
8.6813	0.945
8.72232	0.943
8.76334	0.946
8.80436	0.946
8.84538	0.946
8.8864	0.946
8.92742	0.945
8.96844	0.945
9.00946	0.95
9.05048	0.953
9.0915	0.953
9.13252	0.95
9.17354	0.938
9.21456	0.933
9.25558	0.933
9.2966	0.933
9.33762	0.943
9.37865	0.945
9.41967	0.946
9.46069	0.946
9.50171	0.951
9.54273	0.953
9.58375	0.953
9.62477	0.955
9.66579	0.957
9.70681	0.957
9.74783	0.958
9.78885	0.958
9.82987	0.96
9.87089	0.962
9.91191	0.963
9.95293	0.963
9.99395	0.962
10.035	0.965
10.076	0.963
10.117	0.967
10.158	0.967
10.1991	0.97
10.2401	0.974
10.2811	0.977
10.3221	0.981
10.3631	0.979
10.4042	0.982
10.4452	0.982
10.4862	0.984
10.5272	0.984
10.5682	0.982
10.6093	0.981
10.6503	0.982
10.6913	0.984
10.7323	0.982
10.7733	0.981
10.8144	0.981
10.8554	0.979
10.8964	0.977
10.9374	0.977
10.9784	0.979
11.0195	0.979
11.0605	0.979
11.1015	0.979
11.1425	0.979
11.1835	0.979
11.2246	0.982
11.2656	0.977
11.3066	0.972
11.3476	0.96
11.3886	0.931
11.4297	0.874
11.4707	0.782
11.5117	0.744
11.5527	0.713
11.5938	0.713
11.6348	0.737
11.6758	0.782
11.7168	0.861
11.7578	0.897
11.7989	0.914
11.8399	0.926
11.8809	0.933
11.9219	0.943
11.9629	0.958
12.004	0.965
12.045	0.967
12.086	0.969
12.127	0.972
12.168	0.974
12.2091	0.977
12.2501	0.977
12.2911	0.977
12.3321	0.977
12.3731	0.975
12.4142	0.975
12.4552	0.974
12.4962	0.972
12.5372	0.974
12.5782	0.97
12.6193	0.967
12.6603	0.967
12.7013	0.967
12.7423	0.965
12.7833	0.96
12.8244	0.96
12.8654	0.958
12.9064	0.957
12.9474	0.955
12.9884	0.948
13.0295	0.941
13.0705	0.939
13.1115	0.936
13.1525	0.933
13.1936	0.926
13.2346	0.922
13.2756	0.914
13.3166	0.905
13.3576	0.903
13.3987	0.9
13.4397	0.893
13.4807	0.886
13.5217	0.876
13.5627	0.873
13.6038	0.871
13.6448	0.866
13.6858	0.862
13.7268	0.854
13.7678	0.85
13.8089	0.845
13.8499	0.835
13.8909	0.825
13.9319	0.823
13.9729	0.818
14.014	0.811
14.055	0.804
14.096	0.802
14.137	0.795
14.178	0.79
14.2191	0.78
14.2601	0.775
14.3011	0.763
14.3421	0.756
14.3831	0.753
14.4242	0.746
14.4652	0.739
14.5062	0.732
14.5472	0.723
14.5882	0.713
14.6293	0.715
14.6703	0.706
14.7113	0.703
14.7523	0.699
14.7933	0.691
14.8344	0.698
14.8754	0.698
14.9164	0.686
14.9574	0.674
14.9985	0.675
15.0395	0.672
15.0805	0.67
15.1215	0.668
15.1625	0.665
15.2036	0.66
15.2446	0.656
15.2856	0.656
15.3266	0.655
15.3676	0.653
15.4087	0.651
15.4497	0.65
15.4907	0.65
15.5317	0.644
15.5727	0.646
15.6138	0.644
15.6548	0.644
15.6958	0.65
15.7368	0.651
15.7778	0.655
15.8189	0.656
15.8599	0.66
15.9009	0.667
15.9419	0.668
15.9829	0.674
16.024	0.674
