Infrared Spectrum: Ethanediamine, N,N-dimethyl-, dihydrochloride
Formula: C4 H14 Cl2 N2
State: SOLID (KBr DISC, 0.9% WT.)
Class: COBLENTZ III
Instrument: PERKIN-ELMER 157
Sampling: TRANSMISSION
Resolution: 2
Origin: BRITISH PETROLEUM CO. LTD., ENGLAND
1/CM	TRANSMITTANCE
666	0.7297
675	0.7282
684	0.7273
693	0.7272
702	0.7268
711	0.7087
720	0.7087
729	0.7096
738	0.698
747	0.6686
756	0.5904
765	0.4473
774	0.4712
783	0.558
792	0.5875
801	0.6682
810	0.675
819	0.671
828	0.6682
837	0.6435
846	0.6094
855	0.5385
864	0.6047
873	0.591
882	0.5231
891	0.4159
900	0.2233
909	0.5069
918	0.5661
927	0.5204
936	0.424
945	0.2792
954	0.0638
963	0.1558
972	0.0978
981	0.1972
990	0.2355
999	0.1453
1008	0.0738
1017	0.3663
1026	0.4682
1035	0.467
1044	0.4054
1053	0.2356
1062	0.3281
1071	0.4237
1080	0.5193
1089	0.508
1098	0.4266
1107	0.4184
1116	0.3657
1125	0.357
1134	0.4358
1143	0.4609
1152	0.453
1161	0.4414
1170	0.4259
1179	0.4048
1188	0.3319
1197	0.2009
1206	0.1178
1215	0.2966
1224	0.371
1233	0.3692
1242	0.4154
1251	0.4898
1260	0.4864
1269	0.4722
1278	0.4419
1287	0.3807
1296	0.2317
1305	0.3491
1314	0.3377
1323	0.2757
1332	0.2801
1341	0.2832
1350	0.2699
1359	0.2064
1368	0.2073
1377	0.2405
1386	0.2217
1395	0.1719
1404	0.1355
1413	0.135
1422	0.0958
1431	0.0895
1440	0.077
1449	0.0508
1458	0.0255
1467	0.0251
1476	0.0242
1485	0.0281
1494	0.0611
1503	0.0927
1512	0.0797
1521	0.0658
1530	0.0622
1539	0.1368
1548	0.1611
1557	0.1561
1566	0.1398
1575	0.1172
1584	0.0422
1593	0.034
1602	0.0609
1611	0.0888
1620	0.1225
1629	0.1501
1638	0.2262
1647	0.2585
1656	0.2719
1665	0.2951
1674	0.3529
1683	0.3689
1692	0.3758
1701	0.3984
1710	0.3984
1719	0.3986
1728	0.3963
1737	0.3858
1746	0.3975
1755	0.4124
1764	0.4199
1773	0.4373
1782	0.4401
1791	0.4412
1800	0.442
1809	0.4439
1818	0.4437
1827	0.4426
1836	0.4411
1845	0.439
1854	0.4352
1863	0.4276
1872	0.4155
1881	0.4078
1890	0.3993
1899	0.3843
1908	0.3737
1917	0.3722
1926	0.3669
1935	0.3445
1944	0.3205
1953	0.295
1962	0.2751
1971	0.2487
1980	0.2317
1989	0.2184
1998	0.2146
2007	0.2147
2016	0.2188
2025	0.2293
2034	0.2396
2043	0.2476
2052	0.2559
2061	0.2697
2070	0.3269
2079	0.3444
2088	0.3549
2097	0.3571
2106	0.3666
2115	0.3705
2124	0.3713
2133	0.3716
2142	0.3717
2151	0.3711
2160	0.3665
2169	0.3613
2178	0.3577
2187	0.3561
2196	0.353
2205	0.344
2214	0.3377
2223	0.3303
2232	0.3215
2241	0.312
2250	0.3017
2259	0.2906
2268	0.2793
2277	0.2658
2286	0.2553
2295	0.2431
2304	0.2287
2313	0.2144
2322	0.1977
2331	0.1807
2340	0.1689
2349	0.1579
2358	0.1425
2367	0.1245
2376	0.1115
2385	0.0906
2394	0.077
2403	0.0629
2412	0.0502
2421	0.0383
2430	0.0283
2439	0.0241
2448	0.0215
2457	0.0193
2466	0.0178
2475	0.017
2484	0.0164
2493	0.016
2502	0.0156
2511	0.0153
2520	0.015
2529	0.0148
2538	0.0146
2547	0.0145
2556	0.0145
2565	0.0145
2574	0.0145
2583	0.0145
2592	0.0145
2601	0.0144
2610	0.0142
2619	0.0141
2628	0.014
2637	0.0139
2646	0.0138
2655	0.0138
2664	0.0139
2673	0.014
2682	0.014
2691	0.0141
2700	0.0142
2709	0.0143
2718	0.0143
2727	0.0143
2736	0.0143
2745	0.0141
2754	0.0143
2763	0.0143
2772	0.0143
2781	0.0144
2790	0.0144
2799	0.0145
2808	0.0146
2817	0.0146
2826	0.0147
2835	0.0148
2844	0.0148
2853	0.0149
2862	0.015
2871	0.015
2880	0.015
2889	0.0151
2898	0.0151
2907	0.0151
2916	0.0152
2925	0.0152
2934	0.0154
2943	0.0157
2952	0.016
2961	0.0162
2970	0.0168
2979	0.0175
2988	0.0184
2997	0.0196
3006	0.0205
3015	0.0214
3024	0.022
3033	0.0225
3042	0.023
3051	0.0234
3060	0.024
3069	0.0248
3078	0.0261
3087	0.0305
3096	0.0356
3105	0.0396
3114	0.0406
3123	0.0413
3132	0.042
3141	0.0427
3150	0.0435
3159	0.0471
3168	0.0572
3177	0.0608
3186	0.0619
3195	0.0628
3204	0.0633
3213	0.0638
3222	0.064
3231	0.064
3240	0.0637
3249	0.0631
3258	0.0624
3267	0.061
3276	0.0585
3285	0.0545
3294	0.0492
3303	0.0451
3312	0.0438
3321	0.0433
3330	0.0428
3339	0.0426
3348	0.0424
3357	0.0423
3366	0.0423
3375	0.0423
3384	0.0424
3393	0.0424
3402	0.0426
3411	0.0429
3420	0.0431
3429	0.0432
3438	0.0435
3447	0.044
3456	0.0445
3465	0.0452
3474	0.0466
3483	0.0486
3492	0.0519
3501	0.056
3510	0.0624
3519	0.0697
3528	0.0795
3537	0.0932
3546	0.1193
3555	0.1364
3564	0.1533
3573	0.1703
3582	0.1871
3591	0.2039
3600	0.2143
3609	0.2264
3618	0.2558
3627	0.288
3636	0.3064
3645	0.3122
3654	0.3145
3663	0.316
3672	0.317
3681	0.3177
3690	0.318
3699	0.3183
3708	0.3185
3717	0.3187
3726	0.3189
3735	0.319
3744	0.3191
3753	0.319
3762	0.3188
3771	0.3186
3780	0.3184
3789	0.318
3798	0.3176
3807	0.3173
3816	0.3165
3825	0.3157
3834	0.315
3843	0.3141
3852	0.3134
3861	0.3125
3870	0.3117
3879	0.3109
3888	0.3102
3897	0.3093
3906	0.3089
3915	0.3085
3924	0.3082
3933	0.3079
3942	0.3077
3951	0.3075
3960	0.3073
3969	0.307
3978	0.3068
3987	0.3067
3996	0.3065
