Infrared Spectrum: 1H-1,2,3-TRIAZOLE-5-CARBOXAMIDE, 4-AMINO-, COMPOUND WITH PICRIC ACID
Formula: C9 H8 N8 O8
State: SOLID (0.8 mg / 650 mg, KBr DISC)
Class: COBLENTZ III
Instrument: PERKIN-ELMER 21 (GRATING)
Instrument parameters: FILTER CHANGE AT 1075 CM^-^1
Sampling: TRANSMISSION
Resolution: 2
Origin: SOUTHERN RESEARCH INSTITUTE (W.C. COBURN, JR.)
1/CM	TRANSMITTANCE
618.702	0.767
627.951	0.767
637.199	0.7642
646.448	0.753
655.696	0.756
664.945	0.7412
674.193	0.7076
683.442	0.6694
692.69	0.6419
701.939	0.5823
711.188	0.5202
720.436	0.6591
729.685	0.71
738.933	0.639
748.182	0.64
757.43	0.6308
766.679	0.6965
775.927	0.6382
785.176	0.5874
794.425	0.6207
803.673	0.652
812.922	0.6412
822.17	0.6313
831.419	0.6602
840.667	0.6763
849.916	0.6851
859.164	0.686
868.413	0.686
877.662	0.684
886.91	0.678
896.159	0.6601
905.407	0.6181
914.656	0.5789
923.904	0.6175
933.153	0.597
942.401	0.5845
951.65	0.576
960.899	0.5806
970.147	0.5995
979.396	0.576
988.644	0.6404
997.893	0.6512
1007.14	0.6407
1016.39	0.6273
1025.64	0.626
1034.89	0.6225
1044.14	0.6161
1053.38	0.6104
1062.63	0.6187
1071.88	0.5827
1081.13	0.5215
1090.38	0.5447
1099.63	0.597
1108.88	0.61
1118.12	0.6252
1127.37	0.638
1136.62	0.6329
1145.87	0.6134
1155.12	0.5711
1164.37	0.493
1173.62	0.5663
1182.86	0.6081
1192.11	0.5898
1201.36	0.5795
1210.61	0.5609
1219.86	0.553
1229.11	0.5081
1238.36	0.4565
1247.6	0.354
1256.85	0.2692
1266.1	0.2184
1275.35	0.2426
1284.6	0.3496
1293.85	0.3618
1303.1	0.3451
1312.34	0.3248
1321.59	0.2745
1330.84	0.1936
1340.09	0.134
1349.34	0.2023
1358.59	0.3656
1367.84	0.2848
1377.08	0.5092
1386.33	0.619
1395.58	0.6124
1404.83	0.5494
1414.08	0.501
1423.33	0.4664
1432.58	0.4799
1441.82	0.5446
1451.07	0.5588
1460.32	0.5259
1469.57	0.4735
1478.82	0.46
1488.07	0.3967
1497.31	0.3584
1506.56	0.3634
1515.81	0.3334
1525.06	0.2945
1534.31	0.2158
1543.56	0.2285
1552.81	0.2836
1562.05	0.2795
1571.3	0.2261
1580.55	0.2901
1589.8	0.327
1599.05	0.2339
1608.3	0.1841
1617.55	0.2165
1626.79	0.2274
1636.04	0.2547
1645.29	0.2576
1654.54	0.2131
1663.79	0.2039
1673.04	0.3002
1682.29	0.298
1691.53	0.3344
1700.78	0.375
1710.03	0.51
1719.28	0.6646
1728.53	0.7091
1737.78	0.7591
1747.03	0.7835
1756.27	0.7947
1765.52	0.8095
1774.77	0.8232
1784.02	0.832
1793.27	0.8243
1802.52	0.8178
1811.77	0.8128
1821.01	0.81
1830.26	0.807
1839.51	0.8059
1848.76	0.7979
1858.01	0.789
1867.26	0.788
1876.51	0.7844
1885.75	0.7805
1895	0.777
1904.25	0.776
1913.5	0.7743
1922.75	0.767
1932	0.7588
1941.25	0.744
1950.49	0.731
1959.74	0.7251
1968.99	0.723
1978.24	0.722
1987.49	0.7256
1996.74	0.7311
2005.99	0.7431
2015.23	0.7581
2024.48	0.7595
2033.73	0.7725
2042.98	0.775
2052.23	0.772
2061.48	0.772
2070.73	0.771
2079.97	0.769
2089.22	0.7675
2098.47	0.7619
2107.72	0.7595
2116.97	0.7595
2126.22	0.761
2135.47	0.764
2144.71	0.7614
2153.96	0.757
2163.21	0.7555
2172.46	0.7509
2181.71	0.747
2190.96	0.7395
2200.21	0.731
2209.45	0.7265
2218.7	0.7244
2227.95	0.718
2237.2	0.7159
2246.45	0.713
2255.7	0.7095
2264.95	0.705
2274.19	0.6989
2283.44	0.6909
2292.69	0.6885
2301.94	0.677
2311.19	0.678
2320.44	0.6775
2329.69	0.673
2338.93	0.6675
2348.18	0.6605
2357.43	0.6555
2366.68	0.653
2375.93	0.6541
2385.18	0.6505
2394.42	0.6465
2403.67	0.6465
2412.92	0.639
2422.17	0.639
2431.42	0.635
2440.67	0.634
2449.92	0.632
2459.16	0.632
2468.41	0.6249
2477.66	0.6255
2486.91	0.63
2496.16	0.639
2505.41	0.626
2514.66	0.6289
2523.9	0.628
2533.15	0.627
2542.4	0.626
2551.65	0.624
2560.9	0.615
2570.15	0.615
2579.4	0.614
2588.64	0.614
2597.89	0.6145
2607.14	0.625
2616.39	0.615
2625.64	0.617
2634.89	0.617
2644.14	0.6145
2653.38	0.611
2662.63	0.613
2671.88	0.611
2681.13	0.609
2690.38	0.605
2699.63	0.6039
2708.88	0.6025
2718.12	0.5929
2727.37	0.588
2736.62	0.5845
2745.87	0.5815
2755.12	0.5775
2764.37	0.569
2773.62	0.571
2782.86	0.573
2792.11	0.5694
2801.36	0.567
2810.61	0.567
2819.86	0.567
2829.11	0.571
2838.36	0.571
2847.6	0.569
2856.85	0.566
2866.1	0.559
2875.35	0.557
2884.6	0.557
2893.85	0.5555
2903.1	0.5465
2912.34	0.536
2921.59	0.535
2930.84	0.535
2940.09	0.5315
2949.34	0.526
2958.59	0.519
2967.84	0.514
2977.08	0.5095
2986.33	0.5005
2995.58	0.4949
3004.83	0.493
3014.08	0.492
3023.33	0.477
3032.58	0.4605
3041.82	0.457
3051.07	0.447
3060.32	0.4435
3069.57	0.4315
3078.82	0.4145
3088.07	0.406
3097.32	0.401
3106.56	0.398
3115.81	0.398
3125.06	0.396
3134.31	0.39
3143.56	0.3885
3152.81	0.39
3162.06	0.3909
3171.3	0.3885
3180.55	0.3911
3189.8	0.3935
3199.05	0.4005
3208.3	0.4175
3217.55	0.4265
3226.8	0.4345
3236.04	0.438
3245.29	0.438
3254.54	0.434
3263.79	0.427
3273.04	0.4199
3282.29	0.4119
3291.53	0.405
3300.78	0.3984
3310.03	0.3779
3319.28	0.362
3328.53	0.3479
3337.78	0.3138
3347.03	0.2929
3356.27	0.2829
3365.52	0.2775
3374.77	0.2831
3384.02	0.3181
3393.27	0.3541
3402.52	0.3836
3411.77	0.408
3421.01	0.4105
3430.26	0.4065
3439.51	0.398
3448.76	0.393
3458.01	0.393
3467.26	0.3991
3476.51	0.4246
3485.75	0.4842
3495	0.5261
3504.25	0.5605
3513.5	0.5845
3522.75	0.5991
3532	0.6076
3541.25	0.6225
3550.49	0.6425
3559.74	0.6571
3568.99	0.6666
3578.24	0.678
3587.49	0.6866
3596.74	0.6925
3605.99	0.7081
3615.23	0.718
3624.48	0.725
3633.73	0.727
3642.98	0.735
3652.23	0.7425
3661.48	0.75
3670.73	0.7511
3679.97	0.752
3689.22	0.751
3698.47	0.7489
3707.72	0.7491
3716.97	0.751
3726.22	0.752
3735.47	0.752
3744.71	0.75
3753.96	0.751
3763.21	0.7435
3772.46	0.7425
3781.71	0.742
3790.96	0.738
3800.21	0.735
3809.45	0.727
3818.7	0.7275
3827.95	0.726
3837.2	0.727
3846.45	0.727
3855.7	0.727
3864.95	0.722
3874.19	0.722
3883.44	0.723
3892.69	0.722
3901.94	0.719
3911.19	0.7185
3920.44	0.718
3929.69	0.7201
3938.93	0.727
3948.18	0.7275
3957.43	0.727
3966.68	0.725
3975.93	0.7255
3985.18	0.7225
3994.43	0.719
4003.67	0.7215
