Infrared Spectrum: Ethanol, 2,2'-[(9-benzyl-9H-purin-6-yl)imino]di-
Formula: C16 H19 N5 O2
State: SOLID (KBr DISC)
Class: COBLENTZ III
Instrument: PERKIN-ELMER 21 (GRATING)
Instrument parameters: FILTER CHANGE ABOUT 1090 CM^-^1
Sampling: TRANSMISSION
Resolution: 2
Origin: SOUTHERN RESEARCH INSTITUTE
1/CM	TRANSMITTANCE
604	0.8607
613.027	0.8534
622.053	0.8348
631.08	0.8146
640.106	0.7822
649.133	0.6103
658.159	0.5917
667.186	0.7416
676.212	0.7124
685.239	0.7248
694.265	0.7002
703.292	0.4983
712.318	0.7535
721.345	0.7412
730.371	0.6413
739.398	0.3904
748.424	0.7895
757.451	0.8115
766.477	0.7944
775.504	0.7497
784.53	0.756
793.557	0.6083
802.583	0.8038
811.61	0.8183
820.636	0.8207
829.663	0.8317
838.689	0.8238
847.716	0.7647
856.742	0.7846
865.769	0.7306
874.795	0.8028
883.822	0.8202
892.848	0.8105
901.875	0.7957
910.901	0.7803
919.928	0.8091
928.954	0.8239
937.981	0.809
947.007	0.7834
956.034	0.7513
965.06	0.7861
974.087	0.7823
983.113	0.7748
992.14	0.7638
1001.17	0.7393
1010.19	0.7188
1019.22	0.6767
1028.25	0.549
1037.27	0.2626
1046.3	0.2086
1055.33	0.4712
1064.35	0.5468
1073.38	0.447
1082.4	0.5441
1091.43	0.6909
1100.46	0.7591
1109.48	0.7531
1118.51	0.749
1127.54	0.7533
1136.56	0.7582
1145.59	0.753
1154.62	0.7294
1163.64	0.6798
1172.67	0.6407
1181.7	0.6303
1190.72	0.7256
1199.75	0.717
1208.78	0.7025
1217.8	0.6213
1226.83	0.6316
1235.86	0.5397
1244.88	0.6261
1253.91	0.5296
1262.93	0.5283
1271.96	0.6724
1280.99	0.6687
1290.01	0.43
1299.04	0.3826
1308.07	0.5626
1317.09	0.5802
1326.12	0.6571
1335.15	0.643
1344.17	0.4909
1353.2	0.444
1362.23	0.5309
1371.25	0.6694
1380.28	0.6504
1389.31	0.5466
1398.33	0.5885
1407.36	0.5834
1416.39	0.6256
1425.41	0.565
1434.44	0.5057
1443.46	0.4374
1452.49	0.5826
1461.52	0.5253
1470.54	0.6211
1479.57	0.6039
1488.6	0.5219
1497.62	0.5483
1506.65	0.6728
1515.68	0.7187
1524.7	0.6769
1533.73	0.6176
1542.76	0.6558
1551.78	0.5676
1560.81	0.4264
1569.84	0.2044
1578.86	0.2677
1587.89	0.2048
1596.92	0.0644
1605.94	0.1348
1614.97	0.3592
1623.99	0.573
1633.02	0.6253
1642.05	0.6556
1651.07	0.6847
1660.1	0.7302
1669.13	0.7468
1678.15	0.7479
1687.18	0.7376
1696.21	0.7485
1705.23	0.7881
1714.26	0.8021
1723.29	0.8046
1732.31	0.7995
1741.34	0.7996
1750.37	0.8079
1759.39	0.8142
1768.42	0.8161
1777.45	0.8151
1786.47	0.8133
1795.5	0.811
1804.52	0.8089
1813.55	0.8065
1822.58	0.8067
1831.6	0.8099
1840.63	0.8156
1849.66	0.8229
1858.68	0.8299
1867.71	0.8134
1876.74	0.8077
1885.76	0.8018
1894.79	0.7931
1903.82	0.7884
1912.84	0.7931
1921.87	0.798
1930.9	0.7985
1939.92	0.797
1948.95	0.7958
1957.98	0.7939
1967	0.7915
1976.03	0.7934
1985.05	0.799
1994.08	0.8007
2003.11	0.7993
2012.13	0.7981
2021.16	0.7972
2030.19	0.7968
2039.21	0.7961
2048.24	0.7948
2057.27	0.793
2066.29	0.79
2075.32	0.787
2084.35	0.7804
2093.37	0.7758
2102.4	0.7746
2111.43	0.7754
2120.45	0.7759
2129.48	0.7765
2138.51	0.7752
2147.53	0.7729
2156.56	0.7713
2165.58	0.7715
2174.61	0.7737
2183.64	0.7751
2192.66	0.7739
2201.69	0.771
2210.72	0.7681
2219.74	0.7657
2228.77	0.7637
2237.8	0.7624
2246.82	0.7642
2255.85	0.758
2264.88	0.7549
2273.9	0.753
2282.93	0.7514
2291.96	0.7512
2300.98	0.7511
2310.01	0.7515
2319.04	0.7509
2328.06	0.7501
2337.09	0.7503
2346.11	0.7494
2355.14	0.747
2364.17	0.7379
2373.19	0.7366
2382.22	0.7425
2391.25	0.7444
2400.27	0.7426
2409.3	0.7409
2418.33	0.7401
2427.35	0.7326
2436.38	0.7161
2445.41	0.7103
2454.43	0.709
2463.46	0.7085
2472.49	0.7117
2481.51	0.712
2490.54	0.7117
2499.57	0.7108
2508.59	0.7102
2517.62	0.7103
2526.64	0.7095
2535.67	0.7027
2544.7	0.7038
2553.72	0.7028
2562.75	0.6971
2571.78	0.6949
2580.8	0.6927
2589.83	0.6919
2598.86	0.6938
2607.88	0.6853
2616.91	0.678
2625.94	0.6762
2634.96	0.6747
2643.99	0.6733
2653.02	0.6719
2662.04	0.6706
2671.07	0.6702
2680.1	0.6698
2689.12	0.6697
2698.15	0.6663
2707.17	0.6589
2716.2	0.6596
2725.23	0.6646
2734.25	0.6592
2743.28	0.6492
2752.31	0.6391
2761.33	0.6352
2770.36	0.6317
2779.39	0.6274
2788.41	0.6225
2797.44	0.6146
2806.47	0.6053
2815.49	0.6036
2824.52	0.6035
2833.55	0.5979
2842.57	0.5907
2851.6	0.5809
2860.63	0.5658
2869.65	0.538
2878.68	0.5277
2887.7	0.5239
2896.73	0.5191
2905.76	0.5281
2914.78	0.5313
2923.81	0.5166
2932.84	0.4836
2941.86	0.4641
2950.89	0.4621
2959.92	0.4839
2968.94	0.5197
2977.97	0.5472
2987	0.5552
2996.02	0.563
3005.05	0.5786
3014.08	0.5789
3023.1	0.579
3032.13	0.5769
3041.16	0.5718
3050.18	0.5679
3059.21	0.5663
3068.23	0.5693
3077.26	0.5731
3086.29	0.5736
3095.31	0.5732
3104.34	0.5721
3113.37	0.5699
3122.39	0.5647
3131.42	0.558
3140.45	0.5482
3149.47	0.5384
3158.5	0.5293
3167.53	0.5193
3176.55	0.508
3185.58	0.498
3194.61	0.4883
3203.63	0.4778
3212.66	0.4662
3221.69	0.4528
3230.71	0.439
3239.74	0.4235
3248.77	0.404
3257.79	0.388
3266.82	0.3696
3275.84	0.3505
3284.87	0.3474
3293.9	0.3542
3302.92	0.3617
3311.95	0.3706
3320.98	0.3806
3330	0.3785
3339.03	0.3645
3348.06	0.3627
3357.08	0.343
3366.11	0.3171
3375.14	0.298
3384.16	0.2896
3393.19	0.3034
3402.22	0.3254
3411.24	0.358
3420.27	0.3841
3429.3	0.3992
3438.32	0.4082
3447.35	0.4157
3456.37	0.433
3465.4	0.4359
3474.43	0.4376
3483.45	0.4483
3492.48	0.4635
3501.51	0.4794
3510.53	0.4916
3519.56	0.4986
3528.59	0.516
3537.61	0.5194
3546.64	0.5226
3555.67	0.5355
3564.69	0.5483
3573.72	0.5585
3582.75	0.5663
3591.77	0.5718
3600.8	0.5778
3609.83	0.5834
3618.85	0.5865
3627.88	0.5887
3636.9	0.6031
3645.93	0.6156
3654.96	0.6173
3663.98	0.6227
3673.01	0.6313
3682.04	0.6304
3691.06	0.6285
3700.09	0.6251
3709.12	0.6235
3718.14	0.6281
3727.17	0.6262
3736.2	0.623
3745.22	0.6217
3754.25	0.6209
3763.28	0.6226
3772.3	0.6251
3781.33	0.6283
3790.36	0.6307
3799.38	0.6328
3808.41	0.6326
3817.43	0.6316
3826.46	0.6293
3835.49	0.6271
3844.51	0.6245
3853.54	0.621
3862.57	0.6157
3871.59	0.6082
3880.62	0.6061
3889.65	0.6055
3898.67	0.6049
3907.7	0.6033
3916.73	0.5988
3925.75	0.5951
3934.78	0.5924
3943.81	0.5927
3952.83	0.5959
3961.86	0.5979
3970.89	0.5968
3979.91	0.594
3988.94	0.5909
3997.96	0.5956
4006.99	0.6047
