Infrared Spectrum: 2-Naphthalenesulfonic acid, 1,4-dihydroxy-, potassium salt ,diacetate
Formula: C14 H11 K O7 S
State: SOLID (NUJOL MULL)
Class: COBLENTZ III
Instrument: PERKIN-ELMER 21 (GRATING)
Instrument parameters: FILTER AT ABOUT 10 MICRONS
Resolution: 2
Origin: ABBOTT LABORATORIES
1/CM	TRANSMITTANCE
669	0.6209
678	0.4128
687	0.6257
696	0.394
705	0.6081
714	0.6247
723	0.5808
732	0.5736
741	0.4064
750	0.5774
759	0.1707
768	0.3962
777	0.6692
786	0.7263
795	0.762
804	0.738
813	0.6604
822	0.7397
831	0.7398
840	0.7245
849	0.7053
858	0.6099
867	0.6371
876	0.5051
885	0.6719
894	0.6284
903	0.5532
912	0.4894
921	0.1892
930	0.5955
939	0.6536
948	0.6446
957	0.6193
966	0.5763
975	0.5874
984	0.5745
993	0.4992
1002	0.237
1011	0.3936
1020	0.4884
1029	0.4159
1038	0.0554
1047	0.3821
1056	0.2263
1065	0.1655
1074	0.3501
1083	0.1044
1092	0.5135
1101	0.5418
1110	0.5318
1119	0.5017
1128	0.4601
1137	0.3834
1146	0.2545
1155	0.063
1164	0.1647
1173	0.044
1182	0.0743
1191	0.0099
1200	0.0003
1209	0.0014
1218	0.011
1227	0.0337
1236	0.0911
1245	0.2415
1254	0.3686
1263	0.3611
1272	0.4829
1281	0.5152
1290	0.5294
1299	0.5414
1308	0.5511
1317	0.5303
1326	0.3399
1335	0.3878
1344	0.4578
1353	0.2442
1362	0.031
1371	0.04
1380	0.2108
1389	0.4803
1398	0.562
1407	0.5205
1416	0.3134
1425	0.2724
1434	0.214
1443	0.1315
1452	0.0633
1461	0.0646
1470	0.2367
1479	0.5868
1488	0.6262
1497	0.6438
1506	0.6948
1515	0.7055
1524	0.706
1533	0.6976
1542	0.693
1551	0.6751
1560	0.6492
1569	0.5958
1578	0.6348
1587	0.6276
1596	0.4876
1605	0.463
1614	0.6474
1623	0.6166
1632	0.6054
1641	0.646
1650	0.6642
1659	0.6677
1668	0.662
1677	0.6546
1686	0.6262
1695	0.5704
1704	0.5238
1713	0.4713
1722	0.4041
1731	0.3416
1740	0.178
1749	0.0245
1758	0.019
1767	0.2703
1776	0.5481
1785	0.6222
1794	0.6705
1803	0.709
1812	0.7316
1821	0.7378
1830	0.75
1839	0.7731
1848	0.78
1857	0.7878
1866	0.7977
1875	0.8018
1884	0.8008
1893	0.7997
1902	0.7983
1911	0.797
1920	0.7965
1929	0.7959
1938	0.7947
1947	0.7934
1956	0.792
1965	0.7897
1974	0.787
1983	0.7853
1992	0.7862
2001	0.7872
2010	0.7841
2019	0.7782
2028	0.7725
2037	0.7679
2046	0.7646
2055	0.764
2064	0.7652
2073	0.7666
2082	0.7662
2091	0.7628
2100	0.7613
2109	0.7601
2118	0.7618
2127	0.7634
2136	0.7649
2145	0.766
2154	0.7658
2163	0.7637
2172	0.7608
2181	0.755
2190	0.7532
2199	0.7528
2208	0.7449
2217	0.7412
2226	0.7413
2235	0.7414
2244	0.7417
2253	0.7419
2262	0.7418
2271	0.741
2280	0.7369
2289	0.7286
2298	0.7239
2307	0.7216
2316	0.7197
2325	0.7182
2334	0.7167
2343	0.7163
2352	0.716
2361	0.7158
2370	0.7157
2379	0.716
2388	0.7165
2397	0.7169
2406	0.7172
2415	0.7175
2424	0.7177
2433	0.718
2442	0.7182
2451	0.7181
2460	0.7176
2469	0.7171
2478	0.7165
2487	0.7134
2496	0.7099
2505	0.7058
2514	0.7011
2523	0.6953
2532	0.6892
2541	0.6822
2550	0.6751
2559	0.6676
2568	0.6601
2577	0.6526
2586	0.6455
2595	0.6388
2604	0.6321
2613	0.6266
2622	0.6219
2631	0.6172
2640	0.6131
2649	0.6111
2658	0.6091
2667	0.6071
2676	0.6053
2685	0.6045
2694	0.6035
2703	0.6026
2712	0.6018
2721	0.6006
2730	0.5991
2739	0.5969
2748	0.5877
2757	0.5742
2766	0.5586
2775	0.538
2784	0.5124
2793	0.4877
2802	0.3955
2811	0.2883
2820	0.1817
2829	0.0997
2838	0.0715
2847	0.0314
2856	0.0112
2865	0.0066
2874	0.0051
2883	0.0045
2892	0.0053
2901	0.0061
2910	0.0078
2919	0.0098
2928	0.0124
2937	0.0154
2946	0.0197
2955	0.0255
2964	0.0925
2973	0.1877
2982	0.2831
2991	0.3153
3000	0.3789
3009	0.4195
3018	0.4341
3027	0.4448
3036	0.4527
3045	0.4583
3054	0.4634
3063	0.4685
3072	0.5047
3081	0.5129
3090	0.5179
3099	0.5195
3108	0.5209
3117	0.5223
3126	0.5229
3135	0.5231
3144	0.5234
3153	0.5237
3162	0.5236
3171	0.5232
3180	0.5237
3189	0.5256
3198	0.5276
3207	0.5286
3216	0.5281
3225	0.5276
3234	0.5268
3243	0.5249
3252	0.5229
3261	0.5211
3270	0.5194
3279	0.5177
3288	0.516
3297	0.5147
3306	0.5136
3315	0.5124
3324	0.5113
3333	0.5107
3342	0.5102
3351	0.5097
3360	0.5091
3369	0.5086
3378	0.5086
3387	0.5089
3396	0.5091
3405	0.5094
3414	0.5096
3423	0.5102
3432	0.5118
3441	0.5134
3450	0.5151
3459	0.5167
3468	0.5205
3477	0.5277
3486	0.5301
3495	0.5325
3504	0.5349
3513	0.5363
3522	0.5374
3531	0.5384
3540	0.5411
3549	0.5445
3558	0.5479
3567	0.551
3576	0.5527
3585	0.5545
3594	0.5562
3603	0.5579
3612	0.5588
3621	0.5589
3630	0.5589
3639	0.5589
3648	0.5589
3657	0.5579
3666	0.5564
3675	0.5548
3684	0.5533
3693	0.5517
3702	0.5502
3711	0.549
3720	0.5482
3729	0.5474
3738	0.5466
3747	0.5458
3756	0.5451
3765	0.5443
3774	0.5435
3783	0.5427
3792	0.5403
3801	0.5375
3810	0.5355
3819	0.534
3828	0.5328
3837	0.5317
3846	0.5307
3855	0.5293
3864	0.528
3873	0.5267
3882	0.5253
3891	0.5241
3900	0.5229
3909	0.5217
3918	0.5205
3927	0.5194
3936	0.5183
3945	0.5171
3954	0.516
3963	0.515
3972	0.514
3981	0.513
3990	0.5119
3999	0.5116
