Infrared Spectrum: 6-MERCAPTOMETHYL-2-PHENYL-3,4,5,6-TETRAHYDROPYRIMIDINE HYDROCHLORIDE
Formula: C11 H14 N2 S  * H Cl
State: SOLID(MINERAL OIL MULL-HALOCARBON)
Melting point: 196-199 C
Class: COBLENTZ
Instrument: Not specified, most likely a prism, grating, or hybrid spectrometer.
Sampling: TRANSMISSION
Resolution: 4
Origin: ARTHUR D. LITTLE, INC.
1/CM	TRANSMITTANCE
647.02	0.701
654.967	0.714
662.914	0.71
670.861	0.719
678.808	0.707
686.755	0.624
694.702	0.387
702.649	0.606
710.596	0.77
718.543	0.778
726.49	0.798
734.437	0.806
742.384	0.828
750.331	0.851
758.278	0.853
766.225	0.839
774.172	0.791
782.119	0.594
790.066	0.766
798.013	0.746
805.96	0.701
813.907	0.718
821.855	0.768
829.802	0.804
837.749	0.832
845.696	0.849
853.643	0.86
861.59	0.879
869.537	0.903
877.484	0.905
885.431	0.9
893.378	0.903
901.325	0.905
909.272	0.896
917.219	0.883
925.166	0.88
933.113	0.875
941.06	0.871
949.007	0.864
956.954	0.855
964.901	0.849
972.848	0.833
980.795	0.849
988.742	0.867
996.689	0.841
1004.64	0.848
1012.58	0.812
1020.53	0.836
1028.48	0.828
1036.42	0.767
1044.37	0.851
1052.32	0.843
1060.27	0.828
1068.21	0.808
1076.16	0.803
1084.11	0.802
1092.05	0.787
1100	0.82
1107.95	0.835
1115.89	0.832
1123.84	0.83
1131.79	0.84
1139.74	0.833
1147.68	0.819
1155.63	0.758
1163.58	0.784
1171.52	0.763
1179.47	0.775
1187.42	0.803
1195.36	0.83
1203.31	0.824
1211.26	0.799
1219.21	0.747
1227.15	0.747
1235.1	0.804
1243.05	0.778
1250.99	0.796
1258.94	0.783
1266.89	0.754
1274.83	0.741
1282.78	0.754
1290.73	0.719
1298.68	0.656
1306.62	0.487
1314.57	0.626
1322.52	0.698
1330.46	0.742
1338.41	0.687
1346.36	0.622
1354.31	0.642
1362.25	0.63
1370.2	0.498
1378.15	0.439
1386.09	0.594
1394.04	0.742
1401.99	0.751
1409.93	0.738
1417.88	0.706
1425.83	0.644
1433.78	0.557
1441.72	0.45
1449.67	0.361
1457.62	0.243
1465.56	0.233
1473.51	0.375
1481.46	0.484
1489.4	0.625
1497.35	0.636
1505.3	0.739
1513.25	0.734
1521.19	0.718
1529.14	0.706
1537.09	0.682
1545.03	0.665
1552.98	0.658
1560.93	0.626
1568.87	0.6
1576.82	0.548
1584.77	0.687
1592.72	0.612
1600.66	0.586
1608.61	0.466
1616.56	0.416
1624.5	0.537
1632.45	0.52
1640.4	0.367
1648.34	0.387
1656.29	0.739
1664.24	0.855
1672.19	0.872
1680.13	0.887
1688.08	0.889
1696.03	0.9
1703.97	0.891
1711.92	0.888
1719.87	0.883
1727.82	0.885
1735.76	0.88
1743.71	0.875
1751.66	0.869
1759.6	0.875
1767.55	0.876
1775.5	0.871
1783.44	0.873
1791.39	0.871
1799.34	0.869
1807.29	0.871
1815.23	0.867
1823.18	0.864
1831.13	0.863
1839.07	0.865
1847.02	0.869
1854.97	0.864
1862.91	0.861
1870.86	0.861
1878.81	0.859
1886.76	0.856
1894.7	0.853
1902.65	0.853
1910.6	0.852
1918.54	0.851
1926.49	0.849
1934.44	0.848
1942.38	0.845
1950.33	0.847
1958.28	0.848
1966.23	0.847
1974.17	0.843
1982.12	0.837
1990.07	0.837
1998.01	0.84
2005.96	0.837
2013.91	0.836
2021.86	0.835
2029.8	0.833
2037.75	0.831
2045.7	0.827
2053.64	0.826
2061.59	0.824
2069.54	0.823
2077.48	0.823
2085.43	0.823
2093.38	0.822
2101.33	0.822
2109.27	0.819
2117.22	0.816
2125.17	0.815
2133.11	0.815
2141.06	0.814
2149.01	0.811
2156.95	0.807
2164.9	0.806
2172.85	0.804
2180.8	0.802
2188.74	0.8
2196.69	0.799
2204.64	0.796
2212.58	0.794
2220.53	0.792
2228.48	0.791
2236.42	0.788
2244.37	0.786
2252.32	0.783
2260.27	0.78
2268.21	0.776
2276.16	0.774
2284.11	0.771
2292.05	0.764
2300	0.762
2307.95	0.758
2315.89	0.742
2323.84	0.729
2331.79	0.718
2339.74	0.714
2347.68	0.715
2355.63	0.718
2363.58	0.71
2371.52	0.713
2379.47	0.717
2387.42	0.718
2395.37	0.71
2403.31	0.702
2411.26	0.686
2419.21	0.661
2427.15	0.632
2435.1	0.626
2443.05	0.648
2450.99	0.667
2458.94	0.687
2466.89	0.695
2474.84	0.701
2482.78	0.703
2490.73	0.705
2498.68	0.705
2506.62	0.703
2514.57	0.703
2522.52	0.702
2530.46	0.699
2538.41	0.697
2546.36	0.694
2554.31	0.69
2562.25	0.687
2570.2	0.683
2578.15	0.678
2586.09	0.673
2594.04	0.669
2601.99	0.667
2609.93	0.664
2617.88	0.657
2625.83	0.65
2633.78	0.641
2641.72	0.628
2649.67	0.614
2657.62	0.609
2665.56	0.605
2673.51	0.601
2681.46	0.598
2689.4	0.592
2697.35	0.586
2705.3	0.573
2713.25	0.556
2721.19	0.541
2729.14	0.531
2737.09	0.52
2745.03	0.511
2752.98	0.5
2760.93	0.474
2768.88	0.454
2776.82	0.416
2784.77	0.415
2792.72	0.424
2800.66	0.428
2808.61	0.409
2816.56	0.401
2824.5	0.381
2832.45	0.309
2840.4	0.181
2848.35	0.053
2856.29	0.023
2864.24	0.026
2872.19	0.03
2880.13	0.041
2888.08	0.033
2896.03	0.025
2903.97	0.009
2911.92	0.003
2919.87	0.002
2927.82	0.006
2935.76	0.013
2943.71	0.014
2951.66	0.013
2959.6	0.017
2967.55	0.03
2975.5	0.082
2983.44	0.156
2991.39	0.221
2999.34	0.278
3007.29	0.332
3015.23	0.386
3023.18	0.426
3031.13	0.458
3039.07	0.484
3047.02	0.504
3054.97	0.513
3062.92	0.512
3070.86	0.508
3078.81	0.501
3086.76	0.491
3094.7	0.476
3102.65	0.455
3110.6	0.448
3118.54	0.451
3126.49	0.462
3134.44	0.483
3142.39	0.501
3150.33	0.543
3158.28	0.575
3166.23	0.598
3174.17	0.61
3182.12	0.624
3190.07	0.632
3198.01	0.648
3205.96	0.661
3213.91	0.665
3221.86	0.664
3229.8	0.664
3237.75	0.67
3245.7	0.673
3253.64	0.674
3261.59	0.682
3269.54	0.689
3277.48	0.693
3285.43	0.697
3293.38	0.698
3301.33	0.701
3309.27	0.701
3317.22	0.701
3325.17	0.699
3333.11	0.698
3341.06	0.695
3349.01	0.693
3356.95	0.691
3364.9	0.69
3372.85	0.689
3380.8	0.687
3388.74	0.686
3396.69	0.689
