Infrared Spectrum: Tetradecane-1-sulfonic acid, sodium salt
Formula: C14 H29 O3 S Na
State: SOLID (1 mg / 100 mg KBr DISC)
Class: COBLENTZ
Instrument: BECKMAN IR-12 (GRATING)
Instrument parameters: GRATING
Sampling: TRANSMISSION
Resolution: 2
Origin: COLGATE-PALMOLIVE COMPANY (KELLENBACH)
1/CM	TRANSMITTANCE
203	0.0814
213	0.0723
223	0.1446
233	0.2717
243	0.3881
253	0.4692
263	0.5947
273	0.6948
283	0.7252
293	0.7805
303	0.795
313	0.8285
323	0.8784
333	0.8883
343	0.8983
353	0.8898
363	0.8873
373	0.8929
383	0.9078
393	0.9294
403	0.9416
413	0.946
423	0.9481
433	0.947
443	0.942
453	0.9301
463	0.9305
473	0.9379
483	0.9482
493	0.9403
503	0.9205
513	0.9045
523	0.8635
533	0.7582
543	0.74
553	0.7583
563	0.8015
573	0.8531
583	0.8803
593	0.8914
603	0.8687
613	0.7553
623	0.5106
633	0.7252
643	0.8096
653	0.8675
663	0.8851
673	0.8913
683	0.8944
693	0.8963
703	0.8918
713	0.8706
723	0.7084
733	0.7957
743	0.8679
753	0.8737
763	0.8904
773	0.8962
783	0.8534
793	0.778
803	0.7383
813	0.8431
823	0.8899
833	0.9014
843	0.9077
853	0.9113
863	0.9148
873	0.9171
883	0.917
893	0.9135
903	0.9071
913	0.9036
923	0.9047
933	0.9093
943	0.9136
953	0.9147
963	0.9123
973	0.9063
983	0.8967
993	0.8858
1003	0.8851
1013	0.8871
1023	0.8881
1033	0.84
1043	0.7031
1053	0.5633
1063	0.3778
1073	0.2997
1083	0.6974
1093	0.7597
1103	0.7748
1113	0.7824
1123	0.7847
1133	0.7618
1143	0.7217
1153	0.6169
1163	0.409
1173	0.1957
1183	0.1407
1193	0.1548
1203	0.1663
1213	0.1868
1223	0.2552
1233	0.4109
1243	0.4814
1253	0.5815
1263	0.6555
1273	0.7026
1283	0.7499
1293	0.7673
1303	0.7776
1313	0.7796
1323	0.8106
1333	0.8206
1343	0.8179
1353	0.8232
1363	0.8313
1373	0.8182
1383	0.8144
1393	0.8232
1403	0.8168
1413	0.7897
1423	0.8027
1433	0.8099
1443	0.7997
1453	0.7659
1463	0.6692
1473	0.5289
1483	0.7813
1493	0.8145
1503	0.8317
1513	0.8289
1523	0.8233
1533	0.819
1543	0.8155
1553	0.8132
1563	0.8107
1573	0.8076
1583	0.8098
1593	0.8147
1603	0.8131
1613	0.81
1623	0.8026
1633	0.7902
1643	0.7802
1653	0.7791
1663	0.7836
1673	0.7916
1683	0.802
1693	0.808
1703	0.8053
1713	0.8024
1723	0.8005
1733	0.8019
1743	0.8043
1753	0.8092
1763	0.8182
1773	0.8195
1783	0.8197
1793	0.8187
1803	0.8148
1813	0.8088
1823	0.8027
1833	0.8035
1843	0.8098
1853	0.8125
1863	0.8115
1873	0.8052
1883	0.8047
1893	0.8041
1903	0.8038
1913	0.7987
1923	0.7937
1933	0.7945
1943	0.7955
1953	0.7942
1963	0.7924
1973	0.7896
1983	0.7862
1993	0.7828
2003	0.7808
2013	0.7813
2023	0.7827
2033	0.7808
2043	0.7789
2053	0.7763
2063	0.7737
2073	0.772
2083	0.7702
2093	0.7687
2103	0.7672
2113	0.7659
2123	0.7647
2133	0.7635
2143	0.7623
2153	0.7604
2163	0.7585
2173	0.7588
2183	0.7621
2193	0.7613
2203	0.7545
2213	0.7503
2223	0.7496
2233	0.7474
2243	0.7446
2253	0.7425
2263	0.7417
2273	0.7417
2283	0.7405
2293	0.7377
2303	0.7319
2313	0.7226
2323	0.7112
2333	0.7002
2343	0.6975
2353	0.6959
2363	0.6864
2373	0.7045
2383	0.726
2393	0.7293
2403	0.7247
2413	0.721
2423	0.7206
2433	0.7209
2443	0.7205
2453	0.7194
2463	0.7164
2473	0.7164
2483	0.7167
2493	0.7162
2503	0.7135
2513	0.7101
2523	0.7072
2533	0.7062
2543	0.7063
2553	0.7052
2563	0.7037
2573	0.7028
2583	0.699
2593	0.6947
2603	0.691
2613	0.69
2623	0.6856
2633	0.6829
2643	0.6812
2653	0.6801
2663	0.6789
2673	0.6778
2683	0.6775
2693	0.6764
2703	0.6739
2713	0.67
2723	0.6652
2733	0.6627
2743	0.6641
2753	0.6636
2763	0.662
2773	0.6598
2783	0.6563
2793	0.6487
2803	0.6328
2813	0.6113
2823	0.5828
2833	0.5405
2843	0.3576
2853	0.1303
2863	0.2951
2873	0.3626
2883	0.394
2893	0.3691
2903	0.2753
2913	0.1688
2923	0.0646
2933	0.0926
2943	0.221
2953	0.3119
2963	0.2908
2973	0.4106
2983	0.522
2993	0.5429
3003	0.5555
3013	0.567
3023	0.5751
3033	0.5815
3043	0.5851
3053	0.5873
3063	0.5884
3073	0.5891
3083	0.5896
3093	0.5903
3103	0.5911
3113	0.5914
3123	0.5908
3133	0.5901
3143	0.5889
3153	0.5877
3163	0.5859
3173	0.5832
3183	0.5805
3193	0.5778
3203	0.5752
3213	0.5727
3223	0.5701
3233	0.5673
3243	0.5641
3253	0.561
3263	0.5579
3273	0.5545
3283	0.5508
3293	0.547
3303	0.5433
3313	0.5394
3323	0.5352
3333	0.531
3343	0.5267
3353	0.5222
3363	0.5174
3373	0.5125
3383	0.5073
3393	0.5004
3403	0.4934
3413	0.4866
3423	0.4811
3433	0.4756
3443	0.4741
3453	0.4737
3463	0.476
3473	0.4759
3483	0.4761
3493	0.4767
3503	0.4786
3513	0.4811
3523	0.4841
3533	0.4875
3543	0.4912
3553	0.4948
3563	0.4985
3573	0.5021
3583	0.5055
3593	0.5079
3603	0.51
3613	0.5111
3623	0.5127
3633	0.5163
3643	0.5204
3653	0.5235
3663	0.5256
3673	0.5267
3683	0.527
3693	0.5263
3703	0.525
3713	0.5236
3723	0.5207
3733	0.5174
3743	0.5135
3753	0.5119
3763	0.5159
3773	0.5224
3783	0.521
3793	0.5195
3803	0.5175
3813	0.5154
3823	0.5131
3833	0.5107
3843	0.5086
3853	0.5068
3863	0.505
3873	0.5036
3883	0.5031
3893	0.5032
3903	0.5027
3913	0.5021
3923	0.5009
3933	0.5
3943	0.5001
3953	0.5003
3963	0.5002
3973	0.4993
3983	0.4979
3993	0.4978
