Infrared Spectrum: MANGANESE PHOSPHATE, TRIBASIC
Formula: Mn3 ( P O4)2  * 7 H2 O
State: SOLID (NUJOL MULL)
Class: COBLENTZ
Instrument: Not specified, most likely a prism, grating, or hybrid spectrometer.
Sampling: TRANSMISSION
Resolution: 4
Origin: MELLON INSTITUTE
MICROMETERS	TRANSMITTANCE
2.028	0.958
2.06793	0.961
2.10786	0.963
2.14779	0.964
2.18771	0.968
2.22764	0.971
2.26757	0.964
2.3075	0.951
2.34743	0.953
2.38736	0.958
2.42729	0.958
2.46721	0.964
2.50714	0.973
2.54707	0.974
2.587	0.973
2.62693	0.978
2.66686	0.976
2.70679	0.978
2.74671	0.964
2.78664	0.936
2.82657	0.897
2.8665	0.824
2.90643	0.641
2.94636	0.711
2.98629	0.685
3.02621	0.658
3.06614	0.688
3.10607	0.68
3.146	0.661
3.18593	0.668
3.22586	0.668
3.26579	0.658
3.30571	0.591
3.34564	0.172
3.38557	0.07
3.4255	0.209
3.46543	0.197
3.50536	0.432
3.54529	0.696
3.58521	0.76
3.62514	0.788
3.66507	0.802
3.705	0.82
3.74493	0.83
3.78486	0.845
3.82479	0.854
3.86471	0.862
3.90464	0.865
3.94457	0.857
3.9845	0.85
4.02443	0.847
4.06436	0.847
4.10429	0.85
4.14421	0.85
4.18414	0.857
4.22407	0.844
4.264	0.834
4.30393	0.832
4.34386	0.837
4.38379	0.857
4.42371	0.872
4.46364	0.881
4.50357	0.887
4.5435	0.891
4.58343	0.892
4.62336	0.892
4.66329	0.897
4.70321	0.901
4.74314	0.902
4.78307	0.909
4.823	0.912
4.86293	0.912
4.90286	0.917
4.94279	0.921
4.98271	0.922
5.02264	0.924
5.06257	0.931
5.1025	0.932
5.14243	0.936
5.18236	0.938
5.22229	0.938
5.26221	0.941
5.30214	0.943
5.34207	0.943
5.382	0.944
5.42193	0.944
5.46186	0.944
5.50179	0.939
5.54171	0.943
5.58164	0.948
5.62157	0.951
5.6615	0.953
5.70143	0.951
5.74136	0.953
5.78129	0.951
5.82121	0.951
5.86114	0.953
5.90107	0.953
5.941	0.956
5.98093	0.951
6.02086	0.959
6.06079	0.944
6.10071	0.941
6.14064	0.939
6.18057	0.938
6.2205	0.938
6.26043	0.939
6.30036	0.934
6.34029	0.929
6.38021	0.929
6.42014	0.927
6.46007	0.932
6.5	0.938
6.53993	0.932
6.57986	0.929
6.61979	0.929
6.65971	0.931
6.69964	0.931
6.73957	0.911
6.7795	0.85
6.81943	0.634
6.85936	0.592
6.89929	0.631
6.93921	0.733
6.97914	0.827
7.01907	0.901
7.059	0.912
7.09893	0.938
7.13886	0.948
7.17879	0.939
7.21871	0.835
7.25864	0.762
7.29857	0.805
7.3385	0.859
7.37843	0.894
7.41836	0.904
7.45829	0.904
7.49821	0.909
7.53814	0.911
7.57807	0.897
7.618	0.882
7.65793	0.864
7.69786	0.854
7.73779	0.849
7.77771	0.85
7.81764	0.86
7.85757	0.859
7.8975	0.85
7.93743	0.842
7.97736	0.834
8.01729	0.835
8.05721	0.845
8.09714	0.862
8.13707	0.879
8.177	0.886
8.21693	0.889
8.25686	0.891
8.29679	0.889
8.33671	0.887
8.37664	0.881
8.41657	0.876
8.4565	0.86
8.49643	0.837
8.53636	0.809
8.57629	0.763
8.61621	0.716
8.65614	0.678
8.69607	0.641
8.736	0.626
8.77593	0.644
8.81586	0.671
8.85579	0.688
8.89571	0.693
8.93564	0.691
8.97557	0.671
9.0155	0.614
9.05543	0.579
9.09536	0.564
9.13529	0.539
9.17521	0.499
9.21514	0.423
9.25507	0.365
9.295	0.319
9.33493	0.299
9.37486	0.299
9.41479	0.313
9.45471	0.318
9.49464	0.316
9.53457	0.293
9.5745	0.281
9.61443	0.276
9.65436	0.274
9.69429	0.269
9.73421	0.256
9.77414	0.254
9.81407	0.261
9.854	0.284
9.89393	0.318
9.93386	0.356
9.97379	0.407
10.0137	0.455
10.0536	0.475
10.0936	0.482
10.1335	0.472
10.1734	0.462
10.2134	0.458
10.2533	0.47
10.2932	0.487
10.3331	0.499
10.3731	0.52
10.413	0.534
10.4529	0.549
10.4929	0.567
10.5328	0.601
10.5727	0.626
10.6126	0.639
10.6526	0.641
10.6925	0.641
10.7324	0.654
10.7724	0.678
10.8123	0.706
10.8522	0.731
10.8921	0.753
10.9321	0.76
10.972	0.767
11.0119	0.772
11.0519	0.775
11.0918	0.777
11.1317	0.78
11.1716	0.785
11.2116	0.793
11.2515	0.798
11.2914	0.805
11.3314	0.815
11.3713	0.825
11.4112	0.834
11.4511	0.842
11.4911	0.849
11.531	0.855
11.5709	0.864
11.6109	0.871
11.6508	0.881
11.6907	0.887
11.7306	0.891
11.7706	0.897
11.8105	0.902
11.8504	0.902
11.8904	0.902
11.9303	0.904
11.9702	0.906
12.0101	0.909
12.0501	0.911
12.09	0.906
12.1299	0.904
12.1699	0.904
12.2098	0.904
12.2497	0.902
12.2896	0.901
12.3296	0.901
12.3695	0.897
12.4094	0.896
12.4494	0.891
12.4893	0.886
12.5292	0.882
12.5691	0.877
12.6091	0.876
12.649	0.874
12.6889	0.871
12.7289	0.865
12.7688	0.865
12.8087	0.862
12.8486	0.862
12.8886	0.86
12.9285	0.86
12.9684	0.855
13.0084	0.852
13.0483	0.85
13.0882	0.847
13.1281	0.844
13.1681	0.839
13.208	0.835
13.2479	0.834
13.2879	0.829
13.3278	0.827
13.3677	0.824
13.4076	0.822
13.4476	0.822
13.4875	0.825
13.5274	0.825
13.5674	0.825
13.6073	0.824
13.6472	0.824
13.6871	0.824
13.7271	0.824
13.767	0.822
13.8069	0.82
13.8469	0.815
13.8868	0.812
13.9267	0.809
13.9666	0.807
14.0066	0.802
14.0465	0.802
14.0864	0.802
14.1264	0.802
14.1663	0.805
14.2062	0.805
14.2461	0.805
14.2861	0.805
14.326	0.807
14.3659	0.807
14.4059	0.807
14.4458	0.807
14.4857	0.805
14.5256	0.805
14.5656	0.805
14.6055	0.805
14.6454	0.805
14.6854	0.804
14.7253	0.804
14.7652	0.802
14.8051	0.798
14.8451	0.793
14.885	0.793
14.9249	0.793
14.9649	0.792
15.0048	0.792
15.0447	0.787
15.0846	0.783
15.1246	0.782
15.1645	0.782
15.2044	0.777
15.2444	0.773
15.2843	0.77
15.3242	0.768
15.3641	0.767
15.4041	0.767
15.444	0.763
15.4839	0.76
15.5239	0.755
15.5638	0.755
15.6037	0.753
15.6436	0.75
15.6836	0.747
15.7235	0.743
15.7634	0.742
15.8034	0.742
15.8433	0.74
15.8832	0.74
15.9231	0.738
15.9631	0.737
16.003	0.737
