Infrared Spectrum: SULFAMIC ACID, SODIUM SALT
Formula: H2 N O3 S Na
State: SOLID (MINERAL OIL MULL)
Class: COBLENTZ
Instrument: Not specified, most likely a prism, grating, or hybrid spectrometer.
Sampling: TRANSMISSION
Resolution: 4
Origin: WYANDOTTE CHEMICALS CORP., WYANDOTTE, MICHIGAN, USA
MICROMETERS	TRANSMITTANCE
2.013	0.981
2.05281	0.98
2.09262	0.98
2.13243	0.978
2.17225	0.97
2.21206	0.966
2.25187	0.963
2.29168	0.965
2.33149	0.96
2.3713	0.955
2.41111	0.953
2.45093	0.951
2.49074	0.955
2.53055	0.963
2.57036	0.965
2.61017	0.948
2.64998	0.965
2.6898	0.93
2.72961	0.875
2.76942	0.795
2.80923	0.722
2.84904	0.667
2.88885	0.63
2.92866	0.608
2.96848	0.52
3.00829	0.367
3.0481	0.301
3.08791	0.347
3.12772	0.48
3.16753	0.61
3.20734	0.687
3.24716	0.737
3.28697	0.77
3.32678	0.693
3.36659	0.286
3.4064	0.201
3.44621	0.337
3.48603	0.374
3.52584	0.524
3.56565	0.831
3.60546	0.881
3.64527	0.893
3.68508	0.888
3.72489	0.895
3.76471	0.905
3.80452	0.921
3.84433	0.93
3.88414	0.933
3.92395	0.931
3.96376	0.938
4.00357	0.943
4.04339	0.931
4.0832	0.933
4.12301	0.928
4.16282	0.933
4.20263	0.935
4.24244	0.916
4.28226	0.935
4.32207	0.95
4.36188	0.97
4.40169	0.94
4.4415	0.928
4.48131	0.92
4.52112	0.92
4.56094	0.931
4.60075	0.938
4.64056	0.938
4.68037	0.95
4.72018	0.946
4.75999	0.936
4.7998	0.941
4.83962	0.945
4.87943	0.945
4.91924	0.948
4.95905	0.951
4.99886	0.948
5.03867	0.948
5.07849	0.945
5.1183	0.945
5.15811	0.946
5.19792	0.941
5.23773	0.931
5.27754	0.938
5.31735	0.938
5.35717	0.923
5.39698	0.933
5.43679	0.925
5.4766	0.928
5.51641	0.93
5.55622	0.925
5.59603	0.931
5.63585	0.915
5.67566	0.913
5.71547	0.906
5.75528	0.901
5.79509	0.88
5.8349	0.868
5.87472	0.861
5.91453	0.821
5.95434	0.795
5.99415	0.758
6.03396	0.738
6.07377	0.71
6.11358	0.7
6.1534	0.678
6.19321	0.652
6.23302	0.633
6.27283	0.632
6.31264	0.628
6.35245	0.617
6.39226	0.603
6.43208	0.592
6.47189	0.635
6.5117	0.67
6.55151	0.715
6.59132	0.742
6.63113	0.738
6.67095	0.745
6.71076	0.732
6.75057	0.652
6.79038	0.534
6.83019	0.529
6.87	0.574
6.90981	0.63
6.94963	0.702
6.98944	0.727
7.02925	0.733
7.06906	0.727
7.10887	0.718
7.14868	0.715
7.18849	0.672
7.22831	0.585
7.26812	0.599
7.30793	0.618
7.34774	0.642
7.38755	0.637
7.42736	0.623
7.46718	0.6
7.50699	0.582
7.5468	0.547
7.58661	0.5
7.62642	0.435
7.66623	0.341
7.70604	0.196
7.74586	0.186
7.78567	0.202
7.82548	0.156
7.86529	0.159
7.9051	0.118
7.94491	0.076
7.98472	0.056
8.02454	0.049
8.06435	0.063
8.10416	0.101
8.14397	0.123
8.18378	0.118
8.22359	0.099
8.2634	0.071
8.30322	0.058
8.34303	0.059
8.38284	0.069
8.42265	0.079
8.46246	0.111
8.50227	0.189
8.54209	0.314
8.5819	0.4
8.62171	0.44
8.66152	0.412
8.70133	0.324
8.74114	0.251
8.78095	0.227
8.82077	0.239
8.86058	0.262
8.90039	0.332
8.9402	0.442
8.98001	0.499
9.01982	0.549
9.05963	0.577
9.09945	0.58
9.13926	0.56
9.17907	0.482
9.21888	0.354
9.25869	0.274
9.2985	0.202
9.33832	0.103
9.37813	0.081
9.41794	0.139
9.45775	0.121
9.49756	0.131
9.53737	0.232
9.57718	0.376
9.617	0.485
9.65681	0.569
9.69662	0.63
9.73643	0.678
9.77624	0.708
9.81605	0.737
9.85586	0.752
9.89568	0.768
9.93549	0.787
9.9753	0.79
10.0151	0.8
10.0549	0.805
10.0947	0.81
10.1345	0.811
10.1744	0.81
10.2142	0.81
10.254	0.81
10.2938	0.808
10.3336	0.808
10.3734	0.806
10.4132	0.8
10.453	0.797
10.4928	0.795
10.5327	0.79
10.5725	0.78
10.6123	0.768
10.6521	0.753
10.6919	0.738
10.7317	0.718
10.7715	0.692
10.8113	0.662
10.8512	0.632
10.891	0.608
10.9308	0.594
10.9706	0.599
11.0104	0.613
11.0502	0.638
11.09	0.67
11.1298	0.697
11.1696	0.712
11.2095	0.722
11.2493	0.722
11.2891	0.725
11.3289	0.72
11.3687	0.717
11.4085	0.723
11.4483	0.737
11.4881	0.74
11.5279	0.742
11.5678	0.74
11.6076	0.742
11.6474	0.737
11.6872	0.73
11.727	0.725
11.7668	0.713
11.8066	0.7
11.8464	0.687
11.8863	0.677
11.9261	0.657
11.9659	0.637
12.0057	0.62
12.0455	0.587
12.0853	0.562
12.1251	0.532
12.1649	0.489
12.2047	0.457
12.2446	0.419
12.2844	0.381
12.3242	0.349
12.364	0.316
12.4038	0.289
12.4436	0.259
12.4834	0.242
12.5232	0.236
12.563	0.229
12.6029	0.241
12.6427	0.246
12.6825	0.269
12.7223	0.299
12.7621	0.324
12.8019	0.342
12.8417	0.369
12.8815	0.384
12.9214	0.405
12.9612	0.412
13.001	0.424
13.0408	0.429
13.0806	0.439
13.1204	0.45
13.1602	0.457
13.2	0.46
13.2398	0.47
13.2797	0.48
13.3195	0.495
13.3593	0.504
13.3991	0.509
13.4389	0.514
13.4787	0.532
13.5185	0.535
13.5583	0.54
13.5981	0.549
13.638	0.562
13.6778	0.569
13.7176	0.569
13.7574	0.577
13.7972	0.582
13.837	0.584
13.8768	0.582
13.9166	0.585
13.9564	0.592
13.9963	0.595
14.0361	0.597
14.0759	0.597
14.1157	0.597
14.1555	0.594
14.1953	0.59
14.2351	0.589
14.2749	0.584
14.3148	0.584
14.3546	0.58
14.3944	0.58
14.4342	0.574
14.474	0.572
14.5138	0.569
14.5536	0.567
14.5934	0.574
14.6332	0.575
14.6731	0.575
14.7129	0.58
14.7527	0.582
14.7925	0.587
14.8323	0.597
14.8721	0.599
14.9119	0.605
14.9517	0.608
14.9915	0.612
15.0314	0.61
15.0712	0.612
15.111	0.62
15.1508	0.633
15.1906	0.638
15.2304	0.64
15.2702	0.643
15.31	0.647
15.3499	0.648
15.3897	0.653
15.4295	0.653
15.4693	0.657
15.5091	0.66
15.5489	0.663
15.5887	0.663
15.6285	0.668
15.6683	0.667
15.7082	0.665
15.748	0.662
15.7878	0.663
15.8276	0.665
15.8674	0.665
15.9072	0.665
15.947	0.657
