Infrared Spectrum: PHLOROGLUCINOL DIHYDRATE
Formula: C6 H6 O3  * 2 H2 0
State: SOLID (NUJOL MULL)
Class: COBLENTZ III
Instrument: BECKMAN IR-7 (GRATING)
Instrument parameters: GRATING CHANGES AT 3000, 2200, 1150 CM^-^1
Sampling: TRANSMISSION
Resolution: 4
Origin: WESTERN REGIONAL RES. USDA
1/CM	TRANSMITTANCE
599.35	0.52
608.445	0.597
617.54	0.634
626.635	0.643
635.731	0.632
644.826	0.623
653.921	0.608
663.016	0.574
672.111	0.43
681.206	0.47
690.302	0.436
699.397	0.389
708.492	0.34
717.587	0.286
726.682	0.249
735.777	0.239
744.872	0.239
753.968	0.248
763.063	0.276
772.158	0.378
781.253	0.264
790.348	0.294
799.443	0.356
808.538	0.341
817.634	0.2719
826.729	0.472
835.824	0.52
844.919	0.545
854.014	0.567
863.109	0.587
872.205	0.608
881.3	0.625
890.395	0.636
899.49	0.646
908.585	0.651
917.68	0.653
926.775	0.657
935.871	0.66
944.966	0.66
954.061	0.655
963.156	0.647
972.251	0.636
981.346	0.612
990.442	0.562
999.537	0.459
1008.63	0.044
1017.73	0.64
1026.82	0.702
1035.92	0.697
1045.01	0.689
1054.11	0.676
1063.2	0.663
1072.3	0.657
1081.39	0.65
1090.49	0.635
1099.58	0.611
1108.68	0.583
1117.77	0.544
1126.87	0.511
1135.96	0.437
1145.06	0.261
1154.15	0.04
1163.25	0.013
1172.34	0.397
1181.44	0.636
1190.53	0.603
1199.63	0.619
1208.73	0.673
1217.82	0.671
1226.92	0.666
1236.01	0.649
1245.11	0.625
1254.2	0.593
1263.3	0.546
1272.39	0.478
1281.49	0.363
1290.58	0.2
1299.68	0.167
1308.77	0.212
1317.87	0.277
1326.96	0.372
1336.06	0.446
1345.15	0.479
1354.25	0.467
1363.34	0.41
1372.44	0.338
1381.53	0.345
1390.63	0.305
1399.72	0.26
1408.82	0.196
1417.91	0.178
1427.01	0.214
1436.1	0.273
1445.2	0.297
1454.29	0.277
1463.39	0.273
1472.48	0.331
1481.58	0.263
1490.67	0.119
1499.77	0.083
1508.87	0.207
1517.96	0.277
1527.06	0.234
1536.15	0.214
1545.25	0.463
1554.34	0.513
1563.44	0.497
1572.53	0.445
1581.63	0.376
1590.72	0.294
1599.82	0.168
1608.91	0.089
1618.01	0.072
1627.1	0.086
1636.2	0.122
1645.29	0.36
1654.39	0.461
1663.48	0.5
1672.58	0.529
1681.67	0.553
1690.77	0.576
1699.86	0.591
1708.96	0.612
1718.05	0.64
1727.15	0.673
1736.24	0.695
1745.34	0.701
1754.43	0.695
1763.53	0.695
1772.62	0.726
1781.72	0.74
1790.81	0.744
1799.91	0.745
1809.01	0.747
1818.1	0.747
1827.2	0.747
1836.29	0.75
1845.39	0.754
1854.48	0.751
1863.58	0.748
1872.67	0.742
1881.77	0.739
1890.86	0.739
1899.96	0.74
1909.05	0.741
1918.15	0.742
1927.24	0.742
1936.34	0.742
1945.43	0.741
1954.53	0.74
1963.62	0.74
1972.72	0.737
1981.81	0.734
1990.91	0.729
2000	0.721
2009.1	0.7139
2018.19	0.7087
2027.29	0.706
2036.38	0.7095
2045.48	0.7175
2054.57	0.722
2063.67	0.723
2072.76	0.7235
2081.86	0.724
2090.95	0.724
2100.05	0.724
2109.15	0.723
2118.24	0.722
2127.34	0.721
2136.43	0.72
2145.53	0.7189
2154.62	0.718
2163.72	0.7167
2172.81	0.7134
2181.91	0.7082
2191	0.703
2200.1	0.6985
2209.19	0.6949
2218.29	0.6903
2227.38	0.6878
2236.48	0.6852
2245.57	0.6826
2254.67	0.682
2263.76	0.681
2272.86	0.6799
2281.95	0.6773
2291.05	0.6758
2300.14	0.6722
2309.24	0.6609
2318.33	0.6551
2327.43	0.655
2336.52	0.6549
2345.62	0.654
2354.71	0.654
2363.81	0.6522
2372.9	0.6466
2382	0.645
2391.09	0.6435
2400.19	0.643
2409.29	0.642
2418.38	0.6398
2427.48	0.6372
2436.57	0.6323
2445.67	0.6252
2454.76	0.6195
2463.86	0.6099
2472.95	0.5991
2482.05	0.5834
2491.14	0.5717
2500.24	0.5663
2509.33	0.5621
2518.43	0.5585
2527.52	0.5721
2536.62	0.5822
2545.71	0.5868
2554.81	0.5807
2563.9	0.566
2573	0.5454
2582.09	0.5327
2591.19	0.5147
2600.28	0.4962
2609.38	0.4823
2618.47	0.474
2627.57	0.4763
2636.66	0.4808
2645.76	0.4854
2654.85	0.49
2663.95	0.4872
2673.04	0.4807
2682.14	0.4698
2691.23	0.4577
2700.33	0.4569
2709.43	0.459
2718.52	0.463
2727.62	0.4707
2736.71	0.4791
2745.81	0.4837
2754.9	0.4883
2764	0.4844
2773.09	0.4763
2782.19	0.462
2791.28	0.4497
2800.38	0.4286
2809.47	0.4086
2818.57	0.4
2827.66	0.3965
2836.76	0.3457
2845.85	0.2201
2854.95	0.1485
2864.04	0.1376
2873.14	0.1552
2882.23	0.1707
2891.33	0.138
2900.42	0.0939
2909.52	0.0543
2918.61	0.0294
2927.71	0.0324
2936.8	0.0475
2945.9	0.0507
2954.99	0.048
2964.09	0.068
2973.18	0.1197
2982.28	0.1508
2991.37	0.1747
3000.47	0.1947
3009.57	0.1935
3018.66	0.1882
3027.76	0.1782
3036.85	0.173
3045.95	0.1589
3055.04	0.1489
3064.14	0.1347
3073.23	0.1261
3082.33	0.1062
3091.42	0.0963
3100.52	0.0881
3109.61	0.078
3118.71	0.0679
3127.8	0.0577
3136.9	0.052
3145.99	0.0484
3155.09	0.0399
3164.18	0.0341
3173.28	0.0305
3182.37	0.0279
3191.47	0.0254
3200.56	0.025
3209.66	0.027
3218.75	0.0303
3227.85	0.0369
3236.94	0.042
3246.04	0.0513
3255.13	0.0625
3264.23	0.0746
3273.32	0.08
3282.42	0.0907
3291.51	0.0988
3300.61	0.1
3309.71	0.108
3318.8	0.1106
3327.9	0.112
3336.99	0.113
3346.09	0.1167
3355.18	0.1226
3364.28	0.1414
3373.37	0.1532
3382.47	0.1695
3391.56	0.1824
3400.66	0.1995
3409.75	0.2183
3418.85	0.2289
3427.94	0.2355
3437.04	0.2378
3446.13	0.2218
3455.23	0.2097
3464.32	0.2005
3473.42	0.2019
3482.51	0.2259
3491.61	0.2628
3500.7	0.3112
3509.8	0.3479
3518.89	0.3989
3527.99	0.446
3537.08	0.4817
3546.18	0.5167
3555.27	0.5514
3564.37	0.5801
3573.46	0.6052
3582.56	0.6193
3591.65	0.6339
3600.75	0.6587
3609.85	0.6704
3618.94	0.6764
3628.04	0.679
3637.13	0.6891
3646.23	0.6911
3655.32	0.692
3664.42	0.6917
3673.51	0.691
3682.61	0.69
3691.7	0.689
3700.8	0.689
3709.89	0.688
3718.99	0.6863
3728.08	0.684
3737.18	0.682
3746.27	0.681
3755.37	0.679
3764.46	0.6765
3773.56	0.6729
3782.65	0.672
3791.75	0.6707
3800.84	0.6672
3809.94	0.663
3819.03	0.661
3828.13	0.6595
3837.22	0.6569
3846.32	0.6543
3855.41	0.653
3864.51	0.6522
3873.6	0.652
3882.7	0.6511
3891.79	0.65
3900.89	0.649
3909.99	0.648
3919.08	0.648
3928.18	0.6472
3937.27	0.646
3946.37	0.645
3955.46	0.643
3964.56	0.641
3973.65	0.6393
3982.75	0.6378
3991.84	0.6362
