Infrared Spectrum: 1-PHENYL-4-METHYL-3-PYRAZOLIDONE
Formula: C9 H12 N2 O
State: SOLID (KBr PRESSING)
Melting point: 140-141 C
Class: COBLENTZ
Instrument: Not specified, most likely a prism, grating, or hybrid spectrometer.
Sampling: TRANSMISSION
Resolution: 4
Origin: EASTMAN KODAK COMPANY, RESEARCH LABORATORIES, ROCHESTER, N.Y.
MICROMETERS	TRANSMITTANCE
2.028	0.08
2.06314	0.087
2.09828	0.094
2.13342	0.095
2.16857	0.101
2.20371	0.104
2.23885	0.113
2.27399	0.118
2.30913	0.122
2.34427	0.13
2.37941	0.143
2.41456	0.179
2.4497	0.197
2.48484	0.211
2.51998	0.223
2.55512	0.235
2.59026	0.239
2.62541	0.26
2.66055	0.272
2.69569	0.282
2.73083	0.296
2.76597	0.308
2.80111	0.324
2.83625	0.328
2.8714	0.336
2.90654	0.342
2.94168	0.354
2.97682	0.371
3.01196	0.378
3.0471	0.382
3.08224	0.383
3.11739	0.371
3.15253	0.356
3.18767	0.3
3.22281	0.239
3.25795	0.242
3.29309	0.226
3.32824	0.195
3.36338	0.193
3.39852	0.202
3.43366	0.219
3.4688	0.233
3.50394	0.233
3.53908	0.232
3.57423	0.246
3.60937	0.296
3.64451	0.347
3.67965	0.397
3.71479	0.424
3.74993	0.469
3.78507	0.507
3.82022	0.53
3.85536	0.575
3.8905	0.596
3.92564	0.616
3.96078	0.623
3.99592	0.643
4.03106	0.654
4.06621	0.668
4.10135	0.678
4.13649	0.699
4.17163	0.703
4.20677	0.703
4.24191	0.712
4.27706	0.71
4.3122	0.719
4.34734	0.729
4.38248	0.738
4.41762	0.748
4.45276	0.757
4.4879	0.764
4.52305	0.771
4.55819	0.778
4.59333	0.79
4.62847	0.794
4.66361	0.799
4.69875	0.804
4.73389	0.818
4.76904	0.823
4.80418	0.825
4.83932	0.821
4.87446	0.821
4.9096	0.825
4.94474	0.825
4.97989	0.83
5.01503	0.834
5.05017	0.835
5.08531	0.834
5.12045	0.828
5.15559	0.813
5.19073	0.832
5.22588	0.839
5.26102	0.858
5.29616	0.862
5.3313	0.858
5.36644	0.849
5.40158	0.823
5.43672	0.842
5.47187	0.853
5.50701	0.858
5.54215	0.858
5.57729	0.855
5.61243	0.841
5.64757	0.832
5.68272	0.811
5.71786	0.778
5.753	0.755
5.78814	0.671
5.82328	0.546
5.85842	0.385
5.89356	0.15
5.92871	0.115
5.96385	0.052
5.99899	0.05
6.03413	0.134
6.06927	0.254
6.10441	0.35
6.13955	0.455
6.1747	0.516
6.20984	0.53
6.24498	0.34
6.28012	0.16
6.31526	0.256
6.3504	0.401
6.38554	0.539
6.42069	0.572
6.45583	0.636
6.49097	0.668
6.52611	0.664
6.56125	0.664
6.59639	0.666
6.63154	0.694
6.66668	0.673
6.70182	0.279
6.73696	0.195
6.7721	0.382
6.80724	0.523
6.84238	0.486
6.87753	0.432
6.91267	0.403
6.94781	0.506
6.98295	0.57
7.01809	0.631
7.05323	0.65
7.08837	0.659
7.12352	0.661
7.15866	0.659
7.1938	0.502
7.22894	0.366
7.26408	0.287
7.29922	0.422
7.33437	0.465
7.36951	0.551
7.40465	0.65
7.43979	0.692
7.47493	0.685
7.51007	0.602
7.54521	0.568
7.58036	0.525
7.6155	0.467
7.65064	0.464
7.68578	0.525
7.72092	0.537
7.75606	0.502
7.7912	0.474
7.82635	0.462
7.86149	0.485
7.89663	0.42
7.93177	0.31
7.96691	0.282
8.00205	0.256
8.03719	0.286
8.07234	0.462
8.10748	0.572
8.14262	0.63
8.17776	0.664
8.2129	0.692
8.24804	0.708
8.28319	0.705
8.31833	0.605
8.35347	0.387
8.38861	0.434
8.42375	0.493
8.45889	0.434
8.49403	0.408
8.52918	0.408
8.56432	0.483
8.59946	0.539
8.6346	0.527
8.66974	0.64
8.70488	0.677
8.74002	0.684
8.77517	0.691
8.81031	0.623
8.84545	0.541
8.88059	0.507
8.91573	0.525
8.95087	0.584
8.98602	0.589
9.02116	0.588
9.0563	0.589
9.09144	0.607
9.12658	0.647
9.16172	0.684
9.19686	0.698
9.23201	0.705
9.26715	0.726
9.30229	0.739
9.33743	0.727
9.37257	0.739
9.40771	0.732
9.44285	0.734
9.478	0.752
9.51314	0.757
9.54828	0.764
9.58342	0.762
9.61856	0.771
9.6537	0.76
9.68884	0.647
9.72399	0.626
9.75913	0.696
9.79427	0.729
9.82941	0.752
9.86455	0.762
9.89969	0.764
9.93484	0.764
9.96998	0.753
10.0051	0.713
10.0403	0.724
10.0754	0.746
10.1105	0.745
10.1457	0.743
10.1808	0.745
10.216	0.743
10.2511	0.705
10.2863	0.649
10.3214	0.521
10.3565	0.434
10.3917	0.439
10.4268	0.492
10.462	0.574
10.4971	0.6
10.5322	0.647
10.5674	0.675
10.6025	0.699
10.6377	0.713
10.6728	0.722
10.7079	0.732
10.7431	0.726
10.7782	0.701
10.8134	0.664
10.8485	0.65
10.8837	0.671
10.9188	0.699
10.9539	0.717
10.9891	0.722
11.0242	0.68
11.0594	0.64
11.0945	0.624
11.1296	0.638
11.1648	0.642
11.1999	0.65
11.2351	0.663
11.2702	0.68
11.3054	0.673
11.3405	0.659
11.3756	0.652
11.4108	0.63
11.4459	0.614
11.4811	0.589
11.5162	0.544
11.5513	0.528
11.5865	0.5
11.6216	0.497
11.6568	0.497
11.6919	0.499
11.7271	0.507
11.7622	0.521
11.7973	0.544
11.8325	0.567
11.8676	0.605
11.9028	0.612
11.9379	0.616
11.973	0.621
12.0082	0.63
12.0433	0.623
12.0785	0.61
12.1136	0.607
12.1487	0.609
12.1839	0.6
12.219	0.563
12.2542	0.52
12.2893	0.49
12.3245	0.455
12.3596	0.432
12.3947	0.439
12.4299	0.455
12.465	0.46
12.5002	0.45
12.5353	0.452
12.5704	0.458
12.6056	0.469
12.6407	0.457
12.6759	0.445
12.711	0.432
12.7462	0.403
12.7813	0.389
12.8164	0.352
12.8516	0.31
12.8867	0.265
12.9219	0.197
12.957	0.122
12.9921	0.082
13.0273	0.061
13.0624	0.073
13.0976	0.139
13.1327	0.225
13.1679	0.289
13.203	0.338
13.2381	0.359
13.2733	0.373
13.3084	0.39
13.3436	0.399
13.3787	0.406
13.4138	0.411
13.449	0.424
13.4841	0.436
13.5193	0.441
13.5544	0.448
13.5896	0.458
13.6247	0.46
13.6598	0.462
13.695	0.471
13.7301	0.49
13.7653	0.49
13.8004	0.483
13.8355	0.486
13.8707	0.486
13.9058	0.488
13.941	0.488
13.9761	0.485
14.0112	0.479
14.0464	0.474
14.0815	0.452
14.1167	0.422
14.1518	0.385
14.187	0.354
14.2221	0.322
14.2572	0.291
14.2924	0.232
14.3275	0.19
14.3627	0.139
14.3978	0.129
14.4329	0.136
14.4681	0.169
14.5032	0.235
14.5384	0.289
14.5735	0.314
14.6087	0.328
14.6438	0.336
14.6789	0.34
14.7141	0.338
14.7492	0.315
14.7844	0.3
14.8195	0.284
14.8546	0.28
14.8898	0.279
14.9249	0.282
14.9601	0.287
14.9952	0.294
15.0304	0.294
15.0655	0.296
15.1006	0.298
15.1358	0.296
15.1709	0.291
15.2061	0.287
15.2412	0.279
15.2763	0.273
15.3115	0.27
15.3466	0.253
15.3818	0.251
15.4169	0.247
15.452	0.251
15.4872	0.251
15.5223	0.251
15.5575	0.258
15.5926	0.263
15.6278	0.265
15.6629	0.27
15.698	0.289
15.7332	0.298
15.7683	0.296
15.8035	0.301
15.8386	0.303
15.8737	0.321
15.9089	0.328
15.944	0.324
15.9792	0.336
