Infrared Spectrum: Saccharin, sodium salt, dihydrate
Formula: C7 H4 N Na O3 S  * 2 H2 O
State: SOLID (1.5 mg / 300 mg KBr DISC)
Class: COBLENTZ III
Instrument: PERKIN-ELMER 21 (GRATING)
Resolution: 2
Origin: THE SQUIBB INSTITUTE FOR MEDICAL RESEARCH
1/CM	TRANSMITTANCE
665	0.4946
674	0.0866
683	0.4196
692	0.463
701	0.3334
710	0.3443
719	0.4148
728	0.4364
737	0.4346
746	0.034
755	0.2487
764	0.4617
773	0.1854
782	0.5355
791	0.544
800	0.6662
809	0.74
818	0.7493
827	0.7532
836	0.7533
845	0.7507
854	0.7527
863	0.7339
872	0.7159
881	0.7102
890	0.7122
899	0.7024
908	0.691
917	0.6618
926	0.6218
935	0.545
944	0.2959
953	0.2204
962	0.2099
971	0.0739
980	0.3919
989	0.645
998	0.641
1007	0.6377
1016	0.6076
1025	0.6583
1034	0.612
1043	0.3879
1052	0.3534
1061	0.5855
1070	0.5461
1079	0.4879
1088	0.3736
1097	0.303
1106	0.1978
1115	0.019
1124	0.127
1133	0.0045
1142	0
1151	0.0101
1160	0.0604
1169	0.2732
1178	0.5211
1187	0.5943
1196	0.5896
1205	0.5196
1214	0.461
1223	0.3563
1232	0.1802
1241	0.021
1250	0.0011
1259	0.0188
1268	0.1063
1277	0.1346
1286	0.0731
1295	0.226
1304	0.4123
1313	0.4777
1322	0.3075
1331	0.193
1340	0.3097
1349	0.4181
1358	0.5248
1367	0.6186
1376	0.6369
1385	0.6984
1394	0.7053
1403	0.7147
1412	0.7151
1421	0.7128
1430	0.702
1439	0.6619
1448	0.5142
1457	0.3251
1466	0.7194
1475	0.7287
1484	0.7227
1493	0.7172
1502	0.7124
1511	0.7071
1520	0.6999
1529	0.6772
1538	0.6323
1547	0.619
1556	0.5436
1565	0.4191
1574	0.3081
1583	0.0771
1592	0.2732
1601	0.4823
1610	0.3018
1619	0.121
1628	0.021
1637	0.0051
1646	0.0275
1655	0.0584
1664	0.0941
1673	0.1982
1682	0.3238
1691	0.3642
1700	0.5817
1709	0.6359
1718	0.6657
1727	0.6844
1736	0.702
1745	0.7313
1754	0.7437
1763	0.7512
1772	0.7549
1781	0.7557
1790	0.754
1799	0.7515
1808	0.7501
1817	0.7503
1826	0.7508
1835	0.7521
1844	0.7533
1853	0.754
1862	0.7529
1871	0.7502
1880	0.747
1889	0.7434
1898	0.7396
1907	0.7342
1916	0.7317
1925	0.7366
1934	0.7407
1943	0.7458
1952	0.7514
1961	0.7549
1970	0.7565
1979	0.7562
1988	0.7551
1997	0.7539
2006	0.7514
2015	0.7486
2024	0.7456
2033	0.7424
2042	0.7392
2051	0.7361
2060	0.733
2069	0.7299
2078	0.7275
2087	0.7256
2096	0.725
2105	0.7228
2114	0.7158
2123	0.7093
2132	0.7042
2141	0.7
2150	0.6967
2159	0.6928
2168	0.6888
2177	0.687
2186	0.6867
2195	0.6871
2204	0.6879
2213	0.6891
2222	0.6908
2231	0.6938
2240	0.6956
2249	0.6958
2258	0.695
2267	0.6941
2276	0.6934
2285	0.693
2294	0.6926
2303	0.6922
2312	0.6917
2321	0.6912
2330	0.6906
2339	0.6903
2348	0.6901
2357	0.6899
2366	0.6897
2375	0.6896
2384	0.6894
2393	0.6892
2402	0.689
2411	0.6888
2420	0.6882
2429	0.6872
2438	0.6868
2447	0.6866
2456	0.6866
2465	0.6866
2474	0.6852
2483	0.682
2492	0.6794
2501	0.6769
2510	0.675
2519	0.6737
2528	0.6724
2537	0.6712
2546	0.6699
2555	0.6687
2564	0.6678
2573	0.6668
2582	0.6659
2591	0.665
2600	0.6641
2609	0.6632
2618	0.6618
2627	0.6603
2636	0.6588
2645	0.6572
2654	0.6557
2663	0.6543
2672	0.6521
2681	0.6499
2690	0.6477
2699	0.6455
2708	0.6426
2717	0.6394
2726	0.6361
2735	0.6329
2744	0.6297
2753	0.6266
2762	0.6228
2771	0.6192
2780	0.6156
2789	0.6119
2798	0.6083
2807	0.604
2816	0.5985
2825	0.5931
2834	0.5876
2843	0.5822
2852	0.5768
2861	0.5716
2870	0.5669
2879	0.5631
2888	0.5592
2897	0.5564
2906	0.5546
2915	0.5528
2924	0.5505
2933	0.5479
2942	0.5405
2951	0.5306
2960	0.5171
2969	0.502
2978	0.4909
2987	0.4818
2996	0.4729
3005	0.464
3014	0.4548
3023	0.4424
3032	0.438
3041	0.4375
3050	0.4374
3059	0.4375
3068	0.4375
3077	0.437
3086	0.4331
3095	0.4266
3104	0.4191
3113	0.4089
3122	0.399
3131	0.3866
3140	0.3734
3149	0.3572
3158	0.3399
3167	0.3212
3176	0.2991
3185	0.2547
3194	0.2246
3203	0.2029
3212	0.192
3221	0.1888
3230	0.1872
3239	0.1871
3248	0.1874
3257	0.1877
3266	0.1885
3275	0.1893
3284	0.1906
3293	0.192
3302	0.1945
3311	0.1981
3320	0.2035
3329	0.2089
3338	0.2162
3347	0.224
3356	0.2323
3365	0.2454
3374	0.2644
3383	0.2774
3392	0.2933
3401	0.3198
3410	0.333
3419	0.3407
3428	0.3432
3437	0.3437
3446	0.3429
3455	0.3379
3464	0.3193
3473	0.2989
3482	0.2785
3491	0.2665
3500	0.2785
3509	0.3461
3518	0.4201
3527	0.4944
3536	0.5444
3545	0.5612
3554	0.5767
3563	0.5916
3572	0.6058
3581	0.6168
3590	0.622
3599	0.6237
3608	0.6246
3617	0.6247
3626	0.6243
3635	0.6239
3644	0.6232
3653	0.6219
3662	0.6207
3671	0.6196
3680	0.6181
3689	0.6165
3698	0.615
3707	0.6134
3716	0.6118
3725	0.61
3734	0.6082
3743	0.6064
3752	0.6047
3761	0.6036
3770	0.6024
3779	0.6017
3788	0.6013
3797	0.601
3806	0.6007
3815	0.6002
3824	0.5982
3833	0.5957
3842	0.593
3851	0.5907
3860	0.5889
3869	0.5871
3878	0.5854
3887	0.5837
3896	0.582
3905	0.5805
3914	0.5789
3923	0.5772
3932	0.5756
3941	0.5741
3950	0.5731
3959	0.5724
3968	0.5717
3977	0.571
3986	0.5702
3995	0.5695
