Infrared Spectrum: SODIUM THIOCYANATE
Formula: Na S C N
State: SOLID (NUJOL AND FLUOROLUBE MULLS)
Class: COBLENTZ
Instrument: Not specified, most likely a prism, grating, or hybrid spectrometer.
Sampling: TRANSMISSION
Resolution: 4
Origin: MELLON INSTITUTE
MICROMETERS	TRANSMITTANCE
2.015	0.605
2.05604	0.605
2.09709	0.605
2.13813	0.605
2.17918	0.602
2.22022	0.604
2.26126	0.609
2.30231	0.611
2.34335	0.612
2.3844	0.616
2.42544	0.617
2.46649	0.617
2.50753	0.619
2.54857	0.621
2.58962	0.624
2.63066	0.629
2.67171	0.636
2.71275	0.638
2.75379	0.626
2.79484	0.604
2.83588	0.59
2.87693	0.569
2.91797	0.561
2.95901	0.552
3.00006	0.55
3.0411	0.555
3.08215	0.564
3.12319	0.58
3.16424	0.588
3.20528	0.6
3.24632	0.616
3.28737	0.641
3.32841	0.655
3.36946	0.662
3.4105	0.671
3.45154	0.681
3.49259	0.691
3.53363	0.702
3.57468	0.71
3.61572	0.716
3.65676	0.722
3.69781	0.726
3.73885	0.733
3.7799	0.74
3.82094	0.745
3.86199	0.75
3.90303	0.755
3.94407	0.757
3.98512	0.76
4.02616	0.764
4.06721	0.765
4.10825	0.767
4.14929	0.767
4.19034	0.769
4.23138	0.764
4.27243	0.755
4.31347	0.753
4.35451	0.753
4.39556	0.771
4.4366	0.781
4.47765	0.786
4.51869	0.8
4.55974	0.805
4.60078	0.808
4.64182	0.848
4.68287	0.881
4.72391	0.9
4.76496	0.877
4.806	0.752
4.84704	0.605
4.88809	0.53
4.92913	0.521
4.97018	0.521
5.01122	0.528
5.05226	0.537
5.09331	0.55
5.13435	0.564
5.1754	0.574
5.21644	0.592
5.25749	0.602
5.29853	0.607
5.33957	0.612
5.38062	0.621
5.42166	0.636
5.46271	0.645
5.50375	0.657
5.54479	0.666
5.58584	0.669
5.62688	0.674
5.66793	0.679
5.70897	0.688
5.75001	0.695
5.79106	0.7
5.8321	0.703
5.87315	0.707
5.91419	0.703
5.95524	0.7
5.99628	0.685
6.03732	0.648
6.07837	0.604
6.11941	0.583
6.16046	0.573
6.2015	0.573
6.24254	0.585
6.28359	0.6
6.32463	0.611
6.36568	0.626
6.40672	0.631
6.44776	0.65
6.48881	0.655
6.52985	0.655
6.5709	0.662
6.61194	0.667
6.65299	0.674
6.69403	0.683
6.73507	0.688
6.77612	0.691
6.81716	0.693
6.85821	0.695
6.89925	0.695
6.94029	0.697
6.98134	0.697
7.02238	0.698
7.06343	0.698
7.10447	0.698
7.14551	0.698
7.18656	0.698
7.2276	0.698
7.26865	0.698
7.30969	0.7
7.35074	0.7
7.39178	0.702
7.43282	0.702
7.47387	0.703
7.51491	0.703
7.55596	0.703
7.597	0.703
7.63804	0.703
7.67909	0.705
7.72013	0.705
7.76118	0.705
7.80222	0.705
7.84326	0.705
7.88431	0.707
7.92535	0.707
7.9664	0.707
8.00744	0.707
8.04849	0.707
8.08953	0.709
8.13057	0.709
8.17162	0.707
8.21266	0.707
8.25371	0.707
8.29475	0.709
8.33579	0.709
8.37684	0.709
8.41788	0.709
8.45893	0.709
8.49997	0.709
8.54101	0.709
8.58206	0.709
8.6231	0.707
8.66415	0.707
8.70519	0.705
8.74624	0.705
8.78728	0.705
8.82832	0.705
8.86937	0.707
8.91041	0.707
8.95146	0.707
8.9925	0.707
9.03354	0.707
9.07459	0.707
9.11563	0.707
9.15668	0.707
9.19772	0.709
9.23876	0.709
9.27981	0.709
9.32085	0.71
9.3619	0.71
9.40294	0.71
9.44399	0.71
9.48503	0.712
9.52607	0.712
9.56712	0.712
9.60816	0.712
9.64921	0.714
9.69025	0.714
9.73129	0.716
9.77234	0.716
9.81338	0.714
9.85443	0.714
9.89547	0.71
9.93651	0.71
9.97756	0.712
10.0186	0.712
10.0596	0.714
10.1007	0.707
10.1417	0.712
10.1828	0.714
10.2238	0.716
10.2649	0.714
10.3059	0.712
10.347	0.703
10.388	0.691
10.429	0.674
10.4701	0.671
10.5111	0.672
10.5522	0.674
10.5932	0.676
10.6343	0.679
10.6753	0.685
10.7164	0.69
10.7574	0.693
10.7984	0.7
10.8395	0.709
10.8805	0.71
10.9216	0.712
10.9626	0.717
11.0037	0.717
11.0447	0.719
11.0858	0.719
11.1268	0.721
11.1678	0.726
11.2089	0.731
11.2499	0.731
11.291	0.733
11.332	0.736
11.3731	0.743
11.4141	0.741
11.4551	0.741
11.4962	0.741
11.5372	0.741
11.5783	0.745
11.6193	0.745
11.6604	0.746
11.7014	0.746
11.7425	0.748
11.7835	0.752
11.8245	0.753
11.8656	0.753
11.9066	0.755
11.9477	0.757
11.9887	0.759
12.0298	0.76
12.0708	0.759
12.1119	0.759
12.1529	0.76
12.1939	0.762
12.235	0.765
12.276	0.767
12.3171	0.765
12.3581	0.765
12.3992	0.769
12.4402	0.771
12.4813	0.771
12.5223	0.774
12.5633	0.776
12.6044	0.769
12.6454	0.769
12.6865	0.769
12.7275	0.762
12.7686	0.764
12.8096	0.765
12.8506	0.765
12.8917	0.762
12.9327	0.76
12.9738	0.762
13.0148	0.764
13.0559	0.762
13.0969	0.745
13.138	0.697
13.179	0.641
13.22	0.643
13.2611	0.664
13.3021	0.679
13.3432	0.69
13.3842	0.698
13.4253	0.705
13.4663	0.709
13.5074	0.712
13.5484	0.709
13.5894	0.703
13.6305	0.703
13.6715	0.7
13.7126	0.691
13.7536	0.685
13.7947	0.681
13.8357	0.678
13.8768	0.678
13.9178	0.676
13.9588	0.678
13.9999	0.679
14.0409	0.676
14.082	0.674
14.123	0.678
14.1641	0.672
14.2051	0.669
14.2461	0.666
14.2872	0.66
14.3282	0.65
14.3693	0.647
14.4103	0.645
14.4514	0.641
14.4924	0.636
14.5335	0.631
14.5745	0.629
14.6155	0.621
14.6566	0.617
14.6976	0.614
14.7387	0.607
14.7797	0.6
14.8208	0.6
14.8618	0.598
14.9029	0.586
14.9439	0.583
14.9849	0.576
15.026	0.569
15.067	0.564
15.1081	0.557
15.1491	0.552
15.1902	0.549
15.2312	0.547
15.2723	0.543
15.3133	0.542
15.3543	0.54
15.3954	0.54
15.4364	0.535
15.4775	0.531
15.5185	0.53
15.5596	0.53
15.6006	0.526
15.6416	0.526
15.6827	0.526
15.7237	0.524
15.7648	0.523
15.8058	0.521
15.8469	0.523
15.8879	0.523
15.929	0.518
15.97	0.519
