Infrared Spectrum: POTASSIUM THIOSULFATE
Formula: K2 S2 O3  * H2 O
State: SOLID (NUJOL MULL)
Class: COBLENTZ
Instrument: Not specified, most likely a prism, grating, or hybrid spectrometer.
Sampling: TRANSMISSION
Resolution: 4
Origin: MELLON INSTITUTE
MICROMETERS	TRANSMITTANCE
2.011	0.901
2.05081	0.903
2.09062	0.904
2.13043	0.909
2.17023	0.913
2.21004	0.914
2.24985	0.914
2.28966	0.913
2.32947	0.903
2.36928	0.901
2.40909	0.906
2.44889	0.909
2.4887	0.913
2.52851	0.919
2.56832	0.923
2.60813	0.921
2.64794	0.921
2.68775	0.926
2.72755	0.921
2.76736	0.924
2.80717	0.909
2.84698	0.879
2.88679	0.836
2.9266	0.812
2.96641	0.797
3.00621	0.754
3.04602	0.735
3.08583	0.797
3.12564	0.827
3.16545	0.859
3.20526	0.877
3.24506	0.884
3.28487	0.879
3.32468	0.799
3.36449	0.306
3.4043	0.117
3.44411	0.269
3.48392	0.279
3.52372	0.617
3.56353	0.847
3.60334	0.909
3.64315	0.924
3.68296	0.924
3.72277	0.924
3.76258	0.926
3.80238	0.933
3.84219	0.938
3.882	0.944
3.92181	0.949
3.96162	0.951
4.00143	0.956
4.04124	0.956
4.08104	0.959
4.12085	0.959
4.16066	0.961
4.20047	0.961
4.24028	0.961
4.28009	0.951
4.3199	0.941
4.3597	0.934
4.39951	0.941
4.43932	0.948
4.47913	0.949
4.51894	0.951
4.55875	0.951
4.59856	0.951
4.63836	0.951
4.67817	0.949
4.71798	0.941
4.75779	0.939
4.7976	0.943
4.83741	0.946
4.87722	0.948
4.91702	0.951
4.95683	0.951
4.99664	0.956
5.03645	0.958
5.07626	0.959
5.11607	0.963
5.15588	0.963
5.19568	0.964
5.23549	0.966
5.2753	0.966
5.31511	0.966
5.35492	0.966
5.39473	0.964
5.43454	0.964
5.47434	0.964
5.51415	0.966
5.55396	0.968
5.59377	0.966
5.63358	0.968
5.67339	0.969
5.71319	0.969
5.753	0.969
5.79281	0.969
5.83262	0.969
5.87243	0.969
5.91224	0.971
5.95205	0.968
5.99185	0.964
6.03166	0.964
6.07147	0.963
6.11128	0.946
6.15109	0.923
6.1909	0.934
6.23071	0.959
6.27051	0.966
6.31032	0.966
6.35013	0.964
6.38994	0.963
6.42975	0.963
6.46956	0.963
6.50937	0.966
6.54917	0.964
6.58898	0.961
6.62879	0.963
6.6686	0.958
6.70841	0.951
6.74822	0.938
6.78803	0.897
6.82783	0.749
6.86764	0.658
6.90745	0.65
6.94726	0.712
6.98707	0.779
7.02688	0.871
7.06669	0.889
7.10649	0.919
7.1463	0.933
7.18611	0.929
7.22592	0.832
7.26573	0.764
7.30554	0.802
7.34535	0.846
7.38515	0.879
7.42496	0.897
7.46477	0.901
7.50458	0.908
7.54439	0.918
7.5842	0.923
7.62401	0.924
7.66381	0.924
7.70362	0.924
7.74343	0.924
7.78324	0.926
7.82305	0.926
7.86286	0.926
7.90266	0.924
7.94247	0.921
7.98228	0.918
8.02209	0.913
8.0619	0.906
8.10171	0.903
8.14152	0.899
8.18132	0.897
8.22113	0.891
8.26094	0.884
8.30075	0.879
8.34056	0.871
8.38037	0.852
8.42018	0.831
8.45998	0.789
8.49979	0.704
8.5396	0.635
8.57941	0.538
8.61922	0.416
8.65903	0.372
8.69884	0.321
8.73864	0.269
8.77845	0.237
8.81826	0.219
8.85807	0.202
8.89788	0.185
8.93769	0.177
8.9775	0.178
9.0173	0.183
9.05711	0.198
9.09692	0.249
9.13673	0.324
9.17654	0.409
9.21635	0.505
9.25616	0.576
9.29596	0.64
9.33577	0.685
9.37558	0.732
9.41539	0.757
9.4552	0.777
9.49501	0.794
9.53482	0.812
9.57462	0.824
9.61443	0.832
9.65424	0.841
9.69405	0.846
9.73386	0.849
9.77367	0.847
9.81348	0.801
9.85328	0.665
9.89309	0.5
9.9329	0.429
9.97271	0.382
10.0125	0.347
10.0523	0.327
10.0921	0.367
10.1319	0.5
10.1718	0.608
10.2116	0.692
10.2514	0.744
10.2912	0.782
10.331	0.816
10.3708	0.836
10.4106	0.852
10.4504	0.861
10.4902	0.867
10.53	0.884
10.5698	0.897
10.6096	0.904
10.6495	0.906
10.6893	0.913
10.7291	0.918
10.7689	0.924
10.8087	0.926
10.8485	0.929
10.8883	0.931
10.9281	0.933
10.9679	0.936
11.0077	0.938
11.0475	0.941
11.0873	0.943
11.1272	0.946
11.167	0.948
11.2068	0.951
11.2466	0.953
11.2864	0.953
11.3262	0.953
11.366	0.954
11.4058	0.954
11.4456	0.956
11.4854	0.956
11.5252	0.961
11.5651	0.961
11.6049	0.964
11.6447	0.966
11.6845	0.964
11.7243	0.966
11.7641	0.966
11.8039	0.966
11.8437	0.966
11.8835	0.966
11.9233	0.966
11.9631	0.969
12.0029	0.971
12.0428	0.971
12.0826	0.974
12.1224	0.974
12.1622	0.974
12.202	0.976
12.2418	0.976
12.2816	0.978
12.3214	0.978
12.3612	0.978
12.401	0.978
12.4408	0.978
12.4806	0.978
12.5205	0.979
12.5603	0.979
12.6001	0.979
12.6399	0.978
12.6797	0.978
12.7195	0.979
12.7593	0.981
12.7991	0.979
12.8389	0.979
12.8787	0.976
12.9185	0.978
12.9584	0.976
12.9982	0.976
13.038	0.978
13.0778	0.976
13.1176	0.976
13.1574	0.976
13.1972	0.974
13.237	0.974
13.2768	0.976
13.3166	0.976
13.3564	0.973
13.3962	0.969
13.4361	0.968
13.4759	0.964
13.5157	0.964
13.5555	0.964
13.5953	0.963
13.6351	0.961
13.6749	0.954
13.7147	0.951
13.7545	0.951
13.7943	0.948
13.8341	0.939
13.8739	0.934
13.9138	0.931
13.9536	0.934
13.9934	0.931
14.0332	0.929
14.073	0.928
14.1128	0.926
14.1526	0.926
14.1924	0.924
14.2322	0.921
14.272	0.913
14.3118	0.908
14.3516	0.899
14.3915	0.884
14.4313	0.872
14.4711	0.862
14.5109	0.849
14.5507	0.834
14.5905	0.816
14.6303	0.77
14.6701	0.722
14.7099	0.678
14.7497	0.642
14.7895	0.617
14.8294	0.612
14.8692	0.61
14.909	0.608
14.9488	0.603
14.9886	0.603
15.0284	0.6
15.0682	0.59
15.108	0.583
15.1478	0.578
15.1876	0.576
15.2274	0.578
15.2672	0.585
15.3071	0.596
15.3469	0.615
15.3867	0.63
15.4265	0.642
15.4663	0.652
15.5061	0.662
15.5459	0.67
15.5857	0.677
15.6255	0.68
15.6653	0.683
15.7051	0.687
15.7449	0.692
15.7848	0.692
15.8246	0.692
15.8644	0.692
15.9042	0.692
15.944	0.692
15.9838	0.692
