Infrared Spectrum: PIPERIDINIUM N,N-PENTAMETHYLENE-PHTHALAMATE
Formula: C18 H26 N2 O3
State: SOLID (NUJOL MULL)
Class: COBLENTZ
Instrument: PERKIN-ELMER
Sampling: TRANSMISSION
Resolution: 4
Origin: ABBOTT LABORATORIES - WASHBURN
MICROMETERS	TRANSMITTANCE
2.507	0.67
2.54007	0.673
2.57314	0.677
2.60621	0.683
2.63928	0.69
2.67235	0.6931
2.70542	0.6981
2.73849	0.7
2.77156	0.7052
2.80463	0.71
2.8377	0.71
2.87077	0.712
2.90384	0.71
2.93691	0.7082
2.96998	0.708
3.00305	0.708
3.03612	0.717
3.06919	0.717
3.10226	0.7098
3.13533	0.6969
3.1684	0.6899
3.20147	0.6717
3.23454	0.6394
3.26761	0.5796
3.30068	0.5296
3.33375	0.2824
3.36682	0.07
3.39989	0.0387
3.43296	0.039
3.46603	0.056
3.4991	0.0841
3.53217	0.2921
3.56524	0.418
3.59831	0.48
3.63138	0.4689
3.66445	0.4439
3.69752	0.4594
3.73059	0.477
3.76366	0.4699
3.79673	0.4587
3.8298	0.4541
3.86287	0.471
3.89594	0.475
3.92901	0.4422
3.96208	0.419
3.99515	0.409
4.02822	0.4102
4.06129	0.439
4.09436	0.4248
4.12743	0.4089
4.16051	0.404
4.19358	0.4101
4.22665	0.415
4.25972	0.417
4.29279	0.4191
4.32586	0.4373
4.35893	0.4704
4.392	0.4924
4.42507	0.517
4.45814	0.53
4.49121	0.5521
4.52428	0.579
4.55735	0.5719
4.59042	0.5701
4.62349	0.5954
4.65656	0.6173
4.68963	0.6355
4.7227	0.6602
4.75577	0.6753
4.78884	0.6871
4.82191	0.6933
4.85498	0.7021
4.88805	0.705
4.92112	0.7
4.95419	0.7181
4.98726	0.728
5.02033	0.738
5.0534	0.7479
5.08647	0.7508
5.11954	0.7539
5.15261	0.7526
5.18568	0.759
5.21875	0.7637
5.25182	0.775
5.28489	0.78
5.31796	0.783
5.35103	0.7869
5.3841	0.7913
5.41717	0.8004
5.45024	0.803
5.48331	0.803
5.51638	0.801
5.54945	0.8015
5.58252	0.8033
5.61559	0.805
5.64866	0.805
5.68173	0.801
5.7148	0.7923
5.74787	0.7836
5.78094	0.7712
5.81401	0.7617
5.84708	0.754
5.88015	0.7477
5.91322	0.731
5.94629	0.7118
5.97936	0.6902
6.01243	0.6541
6.0455	0.5779
6.07857	0.4707
6.11164	0.2593
6.14471	0.1718
6.17778	0.0982
6.21085	0.1841
6.24392	0.354
6.27699	0.2908
6.31006	0.3166
6.34313	0.3718
6.3762	0.3062
6.40927	0.2716
6.44234	0.2847
6.47541	0.3508
6.50848	0.4259
6.54155	0.4664
6.57462	0.5044
6.60769	0.5269
6.64076	0.5177
6.67383	0.4794
6.7069	0.3461
6.73997	0.3742
6.77304	0.3372
6.80611	0.1734
6.83918	0.1553
6.87225	0.141
6.90532	0.146
6.93839	0.1826
6.97146	0.3054
7.00453	0.471
7.0376	0.5281
7.07067	0.5429
7.10374	0.5261
7.13681	0.4757
7.16988	0.264
7.20295	0.171
7.23602	0.0832
7.26909	0.0719
7.30216	0.1869
7.33523	0.2868
7.3683	0.3724
7.40137	0.4001
7.43445	0.4256
7.46752	0.493
7.50059	0.5703
7.53366	0.582
7.56673	0.5957
7.5998	0.6164
7.63287	0.5577
7.66594	0.533
7.69901	0.5345
7.73208	0.4497
7.76515	0.4947
7.79822	0.458
7.83129	0.2415
7.86436	0.3901
7.89743	0.5107
7.9305	0.537
7.96357	0.534
7.99664	0.577
8.02971	0.5771
8.06278	0.5633
8.09585	0.6043
8.12892	0.6471
8.16199	0.6699
8.19506	0.6866
8.22813	0.6914
8.2612	0.6977
8.29427	0.7053
8.32734	0.708
8.36041	0.7123
8.39348	0.7209
8.42655	0.725
8.45962	0.723
8.49269	0.7202
8.52576	0.6917
8.55883	0.6793
8.5919	0.6838
8.62497	0.674
8.65804	0.6903
8.69111	0.6615
8.72418	0.6944
8.75725	0.7137
8.79032	0.7181
8.82339	0.6784
8.85646	0.6906
8.88953	0.7077
8.9226	0.6831
8.95567	0.6362
8.98874	0.694
9.02181	0.7288
9.05488	0.7421
9.08795	0.748
9.12102	0.752
9.15409	0.7473
9.18716	0.7145
9.22023	0.5715
9.2533	0.6268
9.28637	0.6804
9.31944	0.6907
9.35251	0.658
9.38558	0.6705
9.41865	0.7067
9.45172	0.7341
9.48479	0.7528
9.51786	0.753
9.55093	0.753
9.584	0.7329
9.61707	0.6165
9.65014	0.6322
9.68321	0.6591
9.71628	0.577
9.74935	0.6325
9.78242	0.7033
9.81549	0.7309
9.84856	0.737
9.88163	0.7311
9.9147	0.7145
9.94777	0.6374
9.98084	0.5243
10.0139	0.5497
10.047	0.6211
10.0801	0.69
10.1131	0.7247
10.1462	0.745
10.1793	0.752
10.2123	0.753
10.2454	0.7515
10.2785	0.7213
10.3115	0.6312
10.3446	0.613
10.3777	0.6909
10.4108	0.7221
10.4438	0.7141
10.4769	0.6991
10.51	0.6861
10.543	0.7036
10.5761	0.7572
10.6092	0.7687
10.6422	0.7771
10.6753	0.7829
10.7084	0.787
10.7415	0.7905
10.7745	0.792
10.8076	0.7925
10.8407	0.792
10.8737	0.7894
10.9068	0.788
10.9399	0.7971
10.9729	0.801
11.006	0.806
11.0391	0.81
11.0722	0.813
11.1052	0.8063
11.1383	0.793
11.1714	0.795
11.2044	0.798
11.2375	0.7623
11.2706	0.7423
11.3036	0.774
11.3367	0.797
11.3698	0.8058
11.4029	0.8093
11.4359	0.802
11.469	0.7988
11.5021	0.797
11.5351	0.795
11.5682	0.7947
11.6013	0.7651
11.6343	0.6754
11.6674	0.7248
11.7005	0.7669
11.7336	0.7942
11.7666	0.8004
11.7997	0.8053
11.8328	0.8074
11.8658	0.7916
11.8989	0.7618
11.932	0.7127
11.965	0.7259
11.9981	0.7663
12.0312	0.737
12.0643	0.6234
12.0973	0.556
12.1304	0.6081
12.1635	0.665
12.1965	0.693
12.2296	0.7465
12.2627	0.7805
12.2957	0.7966
12.3288	0.8016
12.3619	0.7963
12.395	0.7861
12.428	0.7907
12.4611	0.7973
12.4942	0.8
12.5272	0.808
12.5603	0.811
12.5934	0.8125
12.6265	0.8117
12.6595	0.8049
12.6926	0.7899
12.7257	0.7204
12.7587	0.5719
12.7918	0.4849
12.8249	0.3898
12.8579	0.5025
12.891	0.6455
12.9241	0.7021
12.9572	0.73
12.9902	0.7575
13.0233	0.7739
13.0564	0.7805
13.0894	0.787
13.1225	0.788
13.1556	0.79
13.1886	0.79
13.2217	0.7835
13.2548	0.7698
13.2879	0.7461
13.3209	0.687
13.354	0.5301
13.3871	0.3776
13.4201	0.3658
13.4532	0.4465
13.4863	0.5529
13.5193	0.6278
13.5524	0.6477
13.5855	0.643
13.6186	0.5563
13.6516	0.532
13.6847	0.567
13.7178	0.6313
13.7508	0.6604
13.7839	0.685
13.817	0.6926
13.85	0.695
13.8831	0.7022
13.9162	0.7148
13.9493	0.7259
13.9823	0.7408
14.0154	0.7537
14.0485	0.762
14.0815	0.768
14.1146	0.7719
14.1477	0.772
14.1807	0.7706
14.2138	0.754
14.2469	0.7052
14.28	0.6712
14.313	0.7005
14.3461	0.7336
14.3792	0.7586
14.4122	0.772
14.4453	0.7768
14.4784	0.7771
14.5114	0.7815
14.5445	0.783
14.5776	0.782
14.6107	0.7777
14.6437	0.777
14.6768	0.778
14.7099	0.7749
14.7429	0.773
14.776	0.7704
14.8091	0.7672
14.8421	0.7573
14.8752	0.75
14.9083	0.7392
14.9414	0.7292
