Infrared Spectrum: 3',4'-DICHLORO-4,5-DIMETHYL-2-HYDROXY BENZOPHENONE
Formula: C15 H12 Cl2 O2
State: SOLUTION (10% IN CCl4 FOR 5000-1350 CM^-^1, 10% IN CS2 FOR 1350-625 CM^-^1)
Class: COBLENTZ
Instrument: Not specified, most likely a prism, grating, or hybrid spectrometer.
Sampling: TRANSMISSION
Path length: 0.01 CM, 0.01 CM
Resolution: 4
Origin: DOW CHEMICAL COMPANY
MICROMETERS	TRANSMITTANCE
2.033	0.849
2.07221	0.849
2.11143	0.849
2.15064	0.851
2.18986	0.852
2.22907	0.849
2.26829	0.848
2.3075	0.849
2.34672	0.854
2.38593	0.857
2.42515	0.862
2.46436	0.87
2.50358	0.872
2.54279	0.873
2.58201	0.87
2.62122	0.87
2.66044	0.872
2.69965	0.867
2.73887	0.865
2.77808	0.862
2.8173	0.854
2.85651	0.841
2.89573	0.831
2.93494	0.817
2.97416	0.796
3.01337	0.765
3.05259	0.73
3.0918	0.696
3.13102	0.668
3.17023	0.659
3.20945	0.651
3.24866	0.628
3.28788	0.615
3.32709	0.615
3.36631	0.586
3.40552	0.549
3.44474	0.605
3.48395	0.675
3.52317	0.741
3.56238	0.781
3.6016	0.796
3.64081	0.799
3.68003	0.806
3.71924	0.819
3.75846	0.833
3.79767	0.841
3.83689	0.836
3.8761	0.844
3.91532	0.851
3.95453	0.861
3.99375	0.872
4.03296	0.878
4.07218	0.867
4.11139	0.867
4.15061	0.878
4.18982	0.875
4.22904	0.864
4.26825	0.846
4.30747	0.854
4.34668	0.87
4.3859	0.877
4.42511	0.885
4.46433	0.891
4.50354	0.893
4.54276	0.893
4.58197	0.893
4.62119	0.893
4.6604	0.893
4.69962	0.896
4.73883	0.899
4.77805	0.896
4.81726	0.898
4.85648	0.899
4.89569	0.899
4.93491	0.894
4.97412	0.89
5.01334	0.885
5.05255	0.893
5.09177	0.898
5.13098	0.893
5.1702	0.883
5.20941	0.877
5.24863	0.875
5.28784	0.882
5.32706	0.89
5.36627	0.883
5.40549	0.89
5.4447	0.88
5.48392	0.88
5.52313	0.872
5.56235	0.848
5.60156	0.822
5.64078	0.833
5.67999	0.843
5.71921	0.796
5.75842	0.759
5.79764	0.82
5.83685	0.815
5.87607	0.806
5.91528	0.796
5.9545	0.759
5.99371	0.702
6.03293	0.591
6.07214	0.297
6.11136	0.04
6.15057	0.082
6.18979	0.092
6.229	0.148
6.26822	0.21
6.30743	0.129
6.34665	0.153
6.38586	0.174
6.42508	0.159
6.46429	0.208
6.50351	0.36
6.54272	0.416
6.58194	0.444
6.62115	0.428
6.66037	0.3
6.69958	0.256
6.7388	0.348
6.77801	0.277
6.81723	0.232
6.85644	0.279
6.89566	0.366
6.93487	0.528
6.97409	0.6
7.0133	0.625
7.05252	0.618
7.09173	0.505
7.13095	0.357
7.17016	0.242
7.20938	0.21
7.24859	0.252
7.28781	0.397
7.32702	0.39
7.36624	0.252
7.40545	0.101
7.44467	0.051
7.48388	0.093
7.5231	0.243
7.56231	0.395
7.60153	0.56
7.64074	0.625
7.67996	0.6
7.71917	0.599
7.75839	0.431
7.7976	0.18
7.83682	0.185
7.87603	0.151
7.91525	0.061
7.95446	0.119
7.99368	0.119
8.03289	0.227
8.07211	0.264
8.11132	0.163
8.15054	0.093
8.18975	0.114
8.22897	0.253
8.26818	0.358
8.3074	0.287
8.34661	0.337
8.38583	0.592
8.42504	0.681
8.46426	0.689
8.50347	0.678
8.54269	0.646
8.5819	0.6
8.62112	0.641
8.66033	0.725
8.69955	0.701
8.73876	0.647
8.77798	0.578
8.81719	0.439
8.85641	0.521
8.89562	0.662
8.93484	0.739
8.97405	0.778
9.01326	0.736
9.05248	0.567
9.09169	0.347
9.13091	0.432
9.17012	0.707
9.20934	0.793
9.24855	0.828
9.28777	0.838
9.32698	0.844
9.3662	0.849
9.40541	0.851
9.44463	0.848
9.48384	0.836
9.52306	0.812
9.56227	0.736
9.60149	0.591
9.6407	0.421
9.67992	0.298
9.71913	0.494
9.75835	0.588
9.79756	0.644
9.83678	0.741
9.87599	0.725
9.91521	0.655
9.95442	0.621
9.99364	0.765
10.0329	0.857
10.0721	0.883
10.1113	0.893
10.1505	0.898
10.1897	0.898
10.2289	0.901
10.2681	0.896
10.3074	0.888
10.3466	0.88
10.3858	0.862
10.425	0.815
10.4642	0.768
10.5034	0.725
10.5426	0.62
10.5819	0.424
10.6211	0.326
10.6603	0.408
10.6995	0.365
10.7387	0.331
10.7779	0.523
10.8172	0.701
10.8564	0.762
10.8956	0.778
10.9348	0.781
10.974	0.768
11.0132	0.743
11.0524	0.702
11.0917	0.633
11.1309	0.555
11.1701	0.508
11.2093	0.484
11.2485	0.458
11.2877	0.544
11.3269	0.621
11.3662	0.639
11.4054	0.605
11.4446	0.525
11.4838	0.389
11.523	0.339
11.5622	0.465
11.6015	0.557
11.6407	0.591
11.6799	0.604
11.7191	0.62
11.7583	0.638
11.7975	0.654
11.8367	0.657
11.876	0.628
11.9152	0.536
11.9544	0.4
11.9936	0.35
12.0328	0.495
12.072	0.605
12.1112	0.631
12.1505	0.621
12.1897	0.609
12.2289	0.602
12.2681	0.596
12.3073	0.584
12.3465	0.571
12.3858	0.56
12.425	0.546
12.4642	0.515
12.5034	0.462
12.5426	0.378
12.5818	0.285
12.621	0.205
12.6603	0.177
12.6995	0.184
12.7387	0.231
12.7779	0.29
12.8171	0.302
12.8563	0.256
12.8955	0.176
12.9348	0.137
12.974	0.166
13.0132	0.292
13.0524	0.474
13.0916	0.578
13.1308	0.61
13.1701	0.615
13.2093	0.6
13.2485	0.579
13.2877	0.558
13.3269	0.539
13.3661	0.528
13.4053	0.521
13.4446	0.508
13.4838	0.481
13.523	0.424
13.5622	0.355
13.6014	0.357
13.6406	0.444
13.6798	0.494
13.7191	0.515
13.7583	0.526
13.7975	0.531
13.8367	0.534
13.8759	0.531
13.9151	0.5
13.9544	0.434
13.9936	0.381
14.0328	0.386
14.072	0.444
14.1112	0.484
14.1504	0.508
14.1896	0.525
14.2289	0.534
14.2681	0.533
14.3073	0.525
14.3465	0.51
14.3857	0.491
14.4249	0.481
14.4641	0.491
14.5034	0.507
14.5426	0.523
14.5818	0.534
14.621	0.541
14.6602	0.537
14.6994	0.526
14.7387	0.497
14.7779	0.449
14.8171	0.403
14.8563	0.384
14.8955	0.386
14.9347	0.424
14.9739	0.476
15.0132	0.499
15.0524	0.504
15.0916	0.499
15.1308	0.491
15.17	0.481
15.2092	0.473
15.2484	0.468
15.2877	0.46
15.3269	0.455
15.3661	0.45
15.4053	0.445
15.4445	0.441
15.4837	0.434
15.523	0.428
15.5622	0.423
15.6014	0.416
15.6406	0.408
15.6798	0.403
15.719	0.399
15.7582	0.394
15.7975	0.384
15.8367	0.381
15.8759	0.382
15.9151	0.389
