Infrared Spectrum: Methanesulfonic acid, cmpd with 3-ethyl-2-(1-methyl-2-piperidyl)indole
Formula: C17 H26 N2 O3 S
State: SOLID (OIL MULL)
Class: COBLENTZ III
Instrument: PERKIN-ELMER 21 (GRATING)
Instrument parameters: NaCl PRISM
Sampling: TRANSMISSION
Resolution: 2
Origin: SMITH, KLINE & FRENCH LABS.
1/CM	TRANSMITTANCE
654	0.7118
663	0.702
672	0.746
681	0.7516
690	0.7543
699	0.77
708	0.7585
717	0.6976
726	0.6603
735	0.6386
744	0.6283
753	0.6381
762	0.4358
771	0.1973
780	0.6188
789	0.7572
798	0.81
807	0.8189
816	0.828
825	0.8344
834	0.8261
843	0.8371
852	0.8171
861	0.8398
870	0.8253
879	0.7571
888	0.7303
897	0.8274
906	0.8227
915	0.7916
924	0.7293
933	0.4883
942	0.7706
951	0.7085
960	0.7342
969	0.5482
978	0.7157
987	0.6034
996	0.7616
1005	0.7405
1014	0.7496
1023	0.6755
1032	0.14
1041	0.2114
1050	0.6938
1059	0.5886
1068	0.691
1077	0.6383
1086	0.6541
1095	0.6582
1104	0.5641
1113	0.632
1122	0.5647
1131	0.3423
1140	0.1193
1149	0.1839
1158	0.4277
1167	0.427
1176	0.5173
1185	0.5215
1194	0.5085
1203	0.4997
1212	0.4133
1221	0.2589
1230	0.0935
1239	0.0885
1248	0.3769
1257	0.5312
1266	0.6183
1275	0.6415
1284	0.6821
1293	0.6652
1302	0.5655
1311	0.5845
1320	0.6147
1329	0.6249
1338	0.5671
1347	0.6245
1356	0.6437
1365	0.4787
1374	0.4504
1383	0.6451
1392	0.7322
1401	0.7473
1410	0.7315
1419	0.6723
1428	0.583
1437	0.4129
1446	0.3395
1455	0.1831
1464	0.1861
1473	0.3785
1482	0.4837
1491	0.6944
1500	0.7116
1509	0.7881
1518	0.7998
1527	0.8049
1536	0.8066
1545	0.8028
1554	0.7906
1563	0.7868
1572	0.8025
1581	0.8027
1590	0.8011
1599	0.8163
1608	0.8111
1617	0.8005
1626	0.7969
1635	0.8061
1644	0.82
1653	0.8239
1662	0.8251
1671	0.8253
1680	0.8247
1689	0.8229
1698	0.8218
1707	0.8218
1716	0.8246
1725	0.8306
1734	0.8385
1743	0.8382
1752	0.8399
1761	0.8452
1770	0.8436
1779	0.8387
1788	0.834
1797	0.8327
1806	0.8325
1815	0.833
1824	0.8315
1833	0.8306
1842	0.8341
1851	0.8381
1860	0.8356
1869	0.8269
1878	0.8222
1887	0.8211
1896	0.8212
1905	0.8211
1914	0.8215
1923	0.8237
1932	0.8269
1941	0.8257
1950	0.8233
1959	0.8142
1968	0.8147
1977	0.8144
1986	0.813
1995	0.8103
2004	0.816
2013	0.8171
2022	0.8138
2031	0.8148
2040	0.8147
2049	0.8138
2058	0.8124
2067	0.811
2076	0.8114
2085	0.8117
2094	0.8112
2103	0.8084
2112	0.8061
2121	0.8048
2130	0.8054
2139	0.8053
2148	0.8001
2157	0.7923
2166	0.7906
2175	0.7936
2184	0.7949
2193	0.7952
2202	0.7954
2211	0.7947
2220	0.7938
2229	0.7921
2238	0.7864
2247	0.7784
2256	0.7749
2265	0.7728
2274	0.7725
2283	0.7726
2292	0.7727
2301	0.7687
2310	0.7659
2319	0.7669
2328	0.7675
2337	0.7614
2346	0.7565
2355	0.7544
2364	0.7557
2373	0.7542
2382	0.7507
2391	0.7439
2400	0.739
2409	0.7363
2418	0.7343
2427	0.7299
2436	0.7212
2445	0.7067
2454	0.689
2463	0.6771
2472	0.666
2481	0.6543
2490	0.6448
2499	0.6363
2508	0.6297
2517	0.6235
2526	0.6176
2535	0.6118
2544	0.6059
2553	0.5999
2562	0.5931
2571	0.5751
2580	0.5677
2589	0.5624
2598	0.5569
2607	0.5342
2616	0.495
2625	0.4653
2634	0.4507
2643	0.4423
2652	0.4344
2661	0.4106
2670	0.3958
2679	0.3901
2688	0.3898
2697	0.4104
2706	0.4372
2715	0.4638
2724	0.4903
2733	0.5166
2742	0.5427
2751	0.5576
2760	0.5596
2769	0.5603
2778	0.5586
2787	0.5539
2796	0.4804
2805	0.386
2814	0.2923
2823	0.1991
2832	0.1096
2841	0.0835
2850	0.0835
2859	0.086
2868	0.0875
2877	0.0867
2886	0.0764
2895	0.0476
2904	0.0485
2913	0.0555
2922	0.0672
2931	0.071
2940	0.0904
2949	0.1584
2958	0.2255
2967	0.2923
2976	0.3643
2985	0.3972
2994	0.4291
3003	0.4586
3012	0.4763
3021	0.4896
3030	0.4996
3039	0.5052
3048	0.5097
3057	0.5141
3066	0.5179
3075	0.519
3084	0.5186
3093	0.5165
3102	0.5108
3111	0.5028
3120	0.4785
3129	0.4503
3138	0.4222
3147	0.3942
3156	0.3664
3165	0.3391
3174	0.3255
3183	0.3224
3192	0.3258
3201	0.3353
3210	0.3773
3219	0.4192
3228	0.4608
3237	0.5021
3246	0.5423
3255	0.5558
3264	0.5745
3273	0.5916
3282	0.6056
3291	0.6115
3300	0.6165
3309	0.62
3318	0.6231
3327	0.6268
3336	0.6326
3345	0.6393
3354	0.6489
3363	0.6621
3372	0.6719
3381	0.6759
3390	0.6782
3399	0.6801
3408	0.6821
3417	0.684
3426	0.6859
3435	0.6876
3444	0.6894
3453	0.6908
3462	0.6905
3471	0.6902
3480	0.6901
3489	0.6905
3498	0.6909
3507	0.6914
3516	0.6931
3525	0.6955
3534	0.6975
3543	0.6981
3552	0.6983
3561	0.6985
3570	0.6987
3579	0.6984
3588	0.6981
3597	0.6979
3606	0.6976
3615	0.6966
3624	0.6946
3633	0.6927
3642	0.6907
3651	0.6885
3660	0.6861
3669	0.6838
3678	0.6823
3687	0.6821
3696	0.6819
3705	0.6819
3714	0.6822
3723	0.6825
3732	0.6828
3741	0.6828
3750	0.6824
3759	0.6818
3768	0.6811
3777	0.6797
3786	0.6781
3795	0.6764
3804	0.6751
3813	0.6743
3822	0.6736
3831	0.6706
3840	0.664
3849	0.6616
3858	0.6593
3867	0.6575
3876	0.657
3885	0.6567
3894	0.6564
3903	0.656
3912	0.6557
3921	0.6554
3930	0.6551
3939	0.6548
3948	0.6544
3957	0.6536
3966	0.6529
3975	0.652
3984	0.6502
3993	0.6481
