Infrared Spectrum: VANADYL OXALATE
Formula: V O C2 O4  * 3 H2 O
State: SOLID (KBr DISC)
Class: COBLENTZ
Instrument: Not specified, most likely a prism, grating, or hybrid spectrometer.
Sampling: TRANSMISSION
Resolution: 4
MICROMETERS	TRANSMITTANCE
1.976	0.712
2.01391	0.715
2.05182	0.724
2.08973	0.728
2.12764	0.735
2.16555	0.74
2.20346	0.747
2.24137	0.753
2.27928	0.758
2.31719	0.762
2.35509	0.767
2.393	0.77
2.43091	0.775
2.46882	0.78
2.50673	0.784
2.54464	0.786
2.58255	0.787
2.62046	0.789
2.65837	0.79
2.69628	0.792
2.73419	0.771
2.7721	0.713
2.81001	0.6
2.84792	0.43
2.88583	0.321
2.92374	0.33
2.96165	0.332
2.99956	0.335
3.03747	0.363
3.07538	0.403
3.11328	0.409
3.15119	0.445
3.1891	0.485
3.22701	0.514
3.26492	0.545
3.30283	0.575
3.34074	0.594
3.37865	0.615
3.41656	0.632
3.45447	0.655
3.49238	0.667
3.53029	0.682
3.5682	0.694
3.60611	0.709
3.64402	0.722
3.68193	0.74
3.71984	0.752
3.75775	0.764
3.79566	0.772
3.83356	0.775
3.87147	0.777
3.90938	0.781
3.94729	0.786
3.9852	0.792
4.02311	0.798
4.06102	0.801
4.09893	0.802
4.13684	0.805
4.17475	0.813
4.21266	0.814
4.25057	0.816
4.28848	0.816
4.32639	0.818
4.3643	0.836
4.40221	0.851
4.44012	0.857
4.47803	0.859
4.51594	0.863
4.55385	0.869
4.59175	0.873
4.62966	0.878
4.66757	0.879
4.70548	0.882
4.74339	0.888
4.7813	0.893
4.81921	0.899
4.85712	0.902
4.89503	0.908
4.93294	0.912
4.97085	0.916
5.00876	0.918
5.04667	0.919
5.08458	0.912
5.12249	0.893
5.1604	0.893
5.19831	0.897
5.23622	0.9
5.27413	0.9
5.31203	0.902
5.34994	0.893
5.38785	0.881
5.42576	0.869
5.46367	0.853
5.50158	0.816
5.53949	0.786
5.5774	0.746
5.61531	0.695
5.65322	0.617
5.69113	0.522
5.72904	0.275
5.76695	0.139
5.80486	0.115
5.84277	0.155
5.88068	0.175
5.91859	0.176
5.9565	0.169
5.99441	0.112
6.03232	0.105
6.07022	0.099
6.10813	0.071
6.14604	0.05
6.18395	0.05
6.22186	0.109
6.25977	0.225
6.29768	0.347
6.33559	0.421
6.3735	0.467
6.41141	0.511
6.44932	0.553
6.48723	0.596
6.52514	0.62
6.56305	0.63
6.60096	0.642
6.63887	0.632
6.67678	0.587
6.71469	0.543
6.7526	0.516
6.7905	0.477
6.82841	0.477
6.86632	0.547
6.90423	0.599
6.94214	0.618
6.98005	0.629
7.01796	0.632
7.05587	0.632
7.09378	0.63
7.13169	0.63
7.1696	0.636
7.20751	0.669
7.24542	0.694
7.28333	0.719
7.32124	0.722
7.35915	0.67
7.39706	0.517
7.43497	0.363
7.47288	0.359
7.51079	0.468
7.54869	0.5
7.5866	0.505
7.62451	0.504
7.66242	0.476
7.70033	0.448
7.73824	0.468
7.77615	0.528
7.81406	0.587
7.85197	0.62
7.88988	0.639
7.92779	0.652
7.9657	0.66
8.00361	0.667
8.04152	0.681
8.07943	0.688
8.11734	0.695
8.15525	0.703
8.19316	0.712
8.23107	0.713
8.26897	0.713
8.30688	0.713
8.34479	0.716
8.3827	0.721
8.42061	0.734
8.45852	0.746
8.49643	0.755
8.53434	0.764
8.57225	0.771
8.61016	0.777
8.64807	0.781
8.68598	0.784
8.72389	0.784
8.7618	0.787
8.79971	0.787
8.83762	0.787
8.87553	0.787
8.91344	0.787
8.95135	0.787
8.98926	0.787
9.02716	0.786
9.06507	0.786
9.10298	0.786
9.14089	0.789
9.1788	0.792
9.21671	0.796
9.25462	0.799
9.29253	0.801
9.33044	0.801
9.36835	0.802
9.40626	0.804
9.44417	0.804
9.48208	0.805
9.51999	0.808
9.5579	0.814
9.59581	0.818
9.63372	0.821
9.67163	0.824
9.70954	0.827
9.74744	0.826
9.78535	0.805
9.82326	0.777
9.86117	0.746
9.89908	0.692
9.93699	0.597
9.9749	0.526
10.0128	0.405
10.0507	0.308
10.0886	0.304
10.1265	0.304
10.1644	0.278
10.2024	0.219
10.2403	0.194
10.2782	0.272
10.3161	0.408
10.354	0.492
10.3919	0.548
10.4298	0.599
10.4677	0.633
10.5056	0.661
10.5435	0.678
10.5815	0.695
10.6194	0.715
10.6573	0.719
10.6952	0.724
10.7331	0.725
10.771	0.727
10.8089	0.725
10.8468	0.727
10.8847	0.737
10.9226	0.744
10.9605	0.75
10.9985	0.755
11.0364	0.759
11.0743	0.764
11.1122	0.77
11.1501	0.772
11.188	0.778
11.2259	0.783
11.2638	0.789
11.3017	0.795
11.3396	0.798
11.3776	0.799
11.4155	0.799
11.4534	0.799
11.4913	0.801
11.5292	0.801
11.5671	0.799
11.605	0.795
11.6429	0.786
11.6808	0.77
11.7187	0.744
11.7566	0.712
11.7946	0.669
11.8325	0.637
11.8704	0.642
11.9083	0.633
11.9462	0.586
11.9841	0.528
12.022	0.458
12.0599	0.425
12.0978	0.413
12.1357	0.412
12.1737	0.428
12.2116	0.445
12.2495	0.458
12.2874	0.468
12.3253	0.479
12.3632	0.491
12.4011	0.508
12.439	0.544
12.4769	0.565
12.5148	0.587
12.5527	0.608
12.5907	0.627
12.6286	0.639
12.6665	0.657
12.7044	0.667
12.7423	0.683
12.7802	0.695
12.8181	0.71
12.856	0.722
12.8939	0.728
12.9318	0.731
12.9698	0.741
13.0077	0.744
13.0456	0.746
13.0835	0.749
13.1214	0.752
13.1593	0.753
13.1972	0.755
13.2351	0.755
13.273	0.755
13.3109	0.758
13.3488	0.759
13.3868	0.759
13.4247	0.759
13.4626	0.759
13.5005	0.759
13.5384	0.759
13.5763	0.758
13.6142	0.752
13.6521	0.75
13.69	0.746
13.7279	0.743
13.7659	0.732
13.8038	0.728
13.8417	0.724
13.8796	0.715
13.9175	0.704
13.9554	0.689
13.9933	0.685
14.0312	0.675
14.0691	0.667
14.107	0.663
14.1449	0.657
14.1829	0.655
14.2208	0.655
14.2587	0.657
14.2966	0.657
14.3345	0.66
14.3724	0.664
14.4103	0.669
14.4482	0.672
14.4861	0.675
14.524	0.679
14.5619	0.683
14.5999	0.686
14.6378	0.686
14.6757	0.691
14.7136	0.691
14.7515	0.694
14.7894	0.698
14.8273	0.703
14.8652	0.704
14.9031	0.709
14.941	0.712
14.979	0.716
