Infrared Spectrum: Perfluorooctanoic acid, calcium salt, hydrate
Formula: C16 F30 O4 Ca
State: SOLID (OIL MULL)
Class: COBLENTZ III
Instrument: BAIRD (PRISM)
Instrument parameters: NaCl PRISM
Sampling: TRANSMISSION
Resolution: 2
Origin: WYANDOTTE CHEMICALS CORP.
1/CM	TRANSMITTANCE
626	0.5834
635	0.5926
644	0.6222
653	0.6789
662	0.5948
671	0.6528
680	0.7875
689	0.8094
698	0.687
707	0.8208
716	0.7478
725	0.6802
734	0.7115
743	0.7798
752	0.8171
761	0.7666
770	0.8055
779	0.8268
788	0.8627
797	0.8101
806	0.8458
815	0.8284
824	0.7127
833	0.6161
842	0.7981
851	0.901
860	0.9326
869	0.9401
878	0.9252
887	0.7801
896	0.8661
905	0.9263
914	0.9322
923	0.9357
932	0.9409
941	0.955
950	0.9454
959	0.9372
968	0.9418
977	0.9421
986	0.8712
995	0.9335
1004	0.9327
1013	0.7695
1022	0.7317
1031	0.7776
1040	0.9192
1049	0.9269
1058	0.8976
1067	0.8899
1076	0.8407
1085	0.7908
1094	0.6624
1103	0.7868
1112	0.6207
1121	0.6914
1130	0.3761
1139	0.2661
1148	0.1133
1157	0.1457
1166	0.1828
1175	0.2251
1184	0.2006
1193	0.1515
1202	0.0821
1211	0.0656
1220	0.0773
1229	0.1005
1238	0.0943
1247	0.0976
1256	0.1336
1265	0.2086
1274	0.2959
1283	0.3806
1292	0.432
1301	0.4621
1310	0.5091
1319	0.528
1328	0.4829
1337	0.5691
1346	0.6089
1355	0.5868
1364	0.5275
1373	0.4522
1382	0.4821
1391	0.6398
1400	0.7402
1409	0.7527
1418	0.7446
1427	0.7035
1436	0.6444
1445	0.439
1454	0.2859
1463	0.2568
1472	0.296
1481	0.5978
1490	0.7451
1499	0.7979
1508	0.824
1517	0.8419
1526	0.8521
1535	0.862
1544	0.8689
1553	0.8681
1562	0.8864
1571	0.8826
1580	0.8881
1589	0.8892
1598	0.886
1607	0.8786
1616	0.8462
1625	0.6749
1634	0.5633
1643	0.5726
1652	0.4669
1661	0.1287
1670	0.0628
1679	0.1403
1688	0.217
1697	0.3274
1706	0.416
1715	0.4886
1724	0.5355
1733	0.5693
1742	0.6162
1751	0.6559
1760	0.6937
1769	0.7219
1778	0.7322
1787	0.7373
1796	0.7496
1805	0.7593
1814	0.7623
1823	0.7678
1832	0.7769
1841	0.7799
1850	0.7829
1859	0.7859
1868	0.789
1877	0.7918
1886	0.7941
1895	0.7973
1904	0.8016
1913	0.8063
1922	0.8106
1931	0.8109
1940	0.8114
1949	0.8124
1958	0.814
1967	0.8162
1976	0.8174
1985	0.8187
1994	0.8189
2003	0.819
2012	0.819
2021	0.8191
2030	0.8191
2039	0.8192
2048	0.8188
2057	0.8184
2066	0.818
2075	0.8172
2084	0.8162
2093	0.815
2102	0.814
2111	0.8129
2120	0.8118
2129	0.8112
2138	0.8119
2147	0.8146
2156	0.817
2165	0.8167
2174	0.816
2183	0.8154
2192	0.8147
2201	0.8139
2210	0.8132
2219	0.8121
2228	0.8108
2237	0.8094
2246	0.8077
2255	0.8051
2264	0.8022
2273	0.7993
2282	0.796
2291	0.7918
2300	0.7876
2309	0.7844
2318	0.7816
2327	0.7802
2336	0.7788
2345	0.7775
2354	0.7783
2363	0.7788
2372	0.7787
2381	0.7786
2390	0.7788
2399	0.779
2408	0.7787
2417	0.7764
2426	0.7743
2435	0.7724
2444	0.7708
2453	0.7699
2462	0.769
2471	0.7688
2480	0.7687
2489	0.7685
2498	0.7683
2507	0.7676
2516	0.7669
2525	0.7661
2534	0.7639
2543	0.7616
2552	0.7573
2561	0.7525
2570	0.7477
2579	0.7432
2588	0.738
2597	0.7337
2606	0.7331
2615	0.7327
2624	0.7323
2633	0.7329
2642	0.7334
2651	0.7324
2660	0.7311
2669	0.7265
2678	0.7216
2687	0.7172
2696	0.7127
2705	0.7079
2714	0.7018
2723	0.6943
2732	0.6885
2741	0.6884
2750	0.6889
2759	0.6871
2768	0.6822
2777	0.6717
2786	0.6606
2795	0.6469
2804	0.6287
2813	0.6052
2822	0.5664
2831	0.5296
2840	0.4232
2849	0.2612
2858	0.1174
2867	0.1051
2876	0.1152
2885	0.1324
2894	0.1349
2903	0.1317
2912	0.1163
2921	0.0664
2930	0.0464
2939	0.0437
2948	0.0464
2957	0.056
2966	0.0738
2975	0.132
2984	0.2303
2993	0.328
3002	0.4252
3011	0.5217
3020	0.6176
3029	0.713
3038	0.7554
3047	0.7786
3056	0.7898
3065	0.7926
3074	0.7918
3083	0.7901
3092	0.7877
3101	0.7825
3110	0.7773
3119	0.7744
3128	0.7744
3137	0.7745
3146	0.7736
3155	0.7671
3164	0.7578
3173	0.7485
3182	0.7421
3191	0.7358
3200	0.7303
3209	0.7247
3218	0.7208
3227	0.7187
3236	0.7209
3245	0.7259
3254	0.729
3263	0.7298
3272	0.7302
3281	0.7306
3290	0.7307
3299	0.7284
3308	0.7168
3317	0.6985
3326	0.683
3335	0.657
3344	0.6178
3353	0.5789
3362	0.5402
3371	0.5016
3380	0.4638
3389	0.4414
3398	0.4268
3407	0.4165
3416	0.412
3425	0.4111
3434	0.4117
3443	0.4128
3452	0.4198
3461	0.4341
3470	0.4487
3479	0.4631
3488	0.4775
3497	0.4918
3506	0.5061
3515	0.5202
3524	0.5344
3533	0.5548
3542	0.5753
3551	0.5856
3560	0.5955
3569	0.6044
3578	0.612
3587	0.6195
3596	0.6266
3605	0.6336
3614	0.6392
3623	0.6443
3632	0.6494
3641	0.6541
3650	0.6582
3659	0.6621
3668	0.6643
3677	0.6657
3686	0.6664
3695	0.6669
3704	0.6674
3713	0.6673
3722	0.6662
3731	0.6565
3740	0.6339
3749	0.6109
3758	0.5882
3767	0.5655
3776	0.5429
3785	0.5267
3794	0.5265
3803	0.5495
3812	0.5835
3821	0.6173
3830	0.6396
3839	0.6457
3848	0.6509
3857	0.6553
3866	0.6579
3875	0.6602
3884	0.6618
3893	0.6631
3902	0.6641
3911	0.6651
3920	0.6658
3929	0.6659
3938	0.666
3947	0.6661
3956	0.6659
3965	0.6656
3974	0.6652
3983	0.6649
3992	0.6644
