Infrared Spectrum: DIPHENYL-(3-HYDROXY-2-TROPANYL)-CARBINOL
Formula: C21 H25 O2
State: SOLUTION (1% CHCl3)
Class: COBLENTZ
Instrument: Not specified, most likely a prism, grating, or hybrid spectrometer.
Sampling: TRANSMISSION
Path length: 0.010 CM CELL
Resolution: 4
MICROMETERS	TRANSMITTANCE
2.025	0.974
2.06006	0.972
2.09513	0.97
2.13019	0.969
2.16525	0.967
2.20031	0.965
2.23538	0.958
2.27044	0.96
2.3055	0.958
2.34057	0.958
2.37563	0.956
2.41069	0.953
2.44575	0.95
2.48082	0.943
2.51588	0.941
2.55094	0.939
2.586	0.938
2.62107	0.936
2.65613	0.938
2.69119	0.934
2.72626	0.936
2.76132	0.929
2.79638	0.82
2.83144	0.746
2.86651	0.819
2.90157	0.87
2.93663	0.862
2.9717	0.845
3.00676	0.845
3.04182	0.843
3.07688	0.839
3.11195	0.824
3.14701	0.805
3.18207	0.798
3.21713	0.786
3.2522	0.764
3.28726	0.679
3.32232	0.659
3.35739	0.549
3.39245	0.49
3.42751	0.404
3.46257	0.492
3.49764	0.574
3.5327	0.586
3.56776	0.66
3.60283	0.697
3.63789	0.703
3.67295	0.731
3.70801	0.765
3.74308	0.798
3.77814	0.803
3.8132	0.808
3.84827	0.817
3.88333	0.827
3.91839	0.839
3.95345	0.851
3.98852	0.858
4.02358	0.862
4.05864	0.865
4.0937	0.87
4.12877	0.874
4.16383	0.882
4.19889	0.889
4.23396	0.896
4.26902	0.9
4.30408	0.903
4.33914	0.903
4.37421	0.901
4.40927	0.898
4.44433	0.9
4.4794	0.903
4.51446	0.907
4.54952	0.907
4.58458	0.91
4.61965	0.912
4.65471	0.912
4.68977	0.91
4.72484	0.907
4.7599	0.908
4.79496	0.91
4.83002	0.912
4.86509	0.913
4.90015	0.913
4.93521	0.91
4.97027	0.913
5.00534	0.915
5.0404	0.915
5.07546	0.913
5.11053	0.908
5.14559	0.896
5.18065	0.896
5.21571	0.901
5.25078	0.905
5.28584	0.907
5.3209	0.907
5.35597	0.898
5.39103	0.898
5.42609	0.9
5.46115	0.905
5.49622	0.908
5.53128	0.907
5.56634	0.9
5.6014	0.895
5.63647	0.905
5.67153	0.905
5.70659	0.898
5.74166	0.893
5.77672	0.889
5.81178	0.886
5.84684	0.882
5.88191	0.874
5.91697	0.882
5.95203	0.886
5.9871	0.891
6.02216	0.889
6.05722	0.893
6.09228	0.895
6.12735	0.891
6.16241	0.891
6.19747	0.888
6.23254	0.879
6.2676	0.791
6.30266	0.791
6.33772	0.819
6.37279	0.851
6.40785	0.874
6.44291	0.884
6.47797	0.886
6.51304	0.884
6.5481	0.879
6.58316	0.876
6.61823	0.869
6.65329	0.85
6.68835	0.814
6.72341	0.752
6.75848	0.629
6.79354	0.537
6.8286	0.53
6.86367	0.567
6.89873	0.617
6.93379	0.499
6.96885	0.416
7.00392	0.636
7.03898	0.676
7.07404	0.69
7.10911	0.647
7.14417	0.571
7.17923	0.576
7.21429	0.674
7.24936	0.738
7.28442	0.769
7.31948	0.796
7.35454	0.802
7.38961	0.791
7.42467	0.762
7.45973	0.777
7.4948	0.814
7.52986	0.815
7.56492	0.793
7.59998	0.784
7.63505	0.779
7.67011	0.753
7.70517	0.721
7.74024	0.703
7.7753	0.759
7.81036	0.738
7.84542	0.724
7.88049	0.728
7.91555	0.719
7.95061	0.69
7.98567	0.693
8.02074	0.726
8.0558	0.738
8.09086	0.734
8.12593	0.693
8.16099	0.657
8.19605	0.633
8.23111	0.629
8.26618	0.631
8.30124	0.64
8.3363	0.647
8.37137	0.667
8.40643	0.69
8.44149	0.728
8.47655	0.734
8.51162	0.709
8.54668	0.679
8.58174	0.679
8.61681	0.714
8.65187	0.731
8.68693	0.746
8.72199	0.764
8.75706	0.781
8.79212	0.798
8.82718	0.796
8.86224	0.777
8.89731	0.79
8.93237	0.771
8.96743	0.743
9.0025	0.717
9.03756	0.724
9.07262	0.728
9.10768	0.738
9.14275	0.769
9.17781	0.784
9.21287	0.788
9.24794	0.755
9.283	0.672
9.31806	0.409
9.35312	0.271
9.38819	0.259
9.42325	0.292
9.45831	0.299
9.49337	0.399
9.52844	0.361
9.5635	0.399
9.59856	0.588
9.63363	0.71
9.66869	0.772
9.70375	0.733
9.73881	0.662
9.77388	0.693
9.80894	0.726
9.844	0.679
9.87907	0.624
9.91413	0.643
9.94919	0.688
9.98425	0.741
10.0193	0.745
10.0544	0.721
10.0894	0.746
10.1245	0.803
10.1596	0.827
10.1946	0.836
10.2297	0.834
10.2648	0.822
10.2998	0.779
10.3349	0.75
10.3699	0.738
10.405	0.769
10.4401	0.803
10.4751	0.829
10.5102	0.841
10.5453	0.853
10.5803	0.864
10.6154	0.872
10.6504	0.874
10.6855	0.872
10.7206	0.867
10.7556	0.853
10.7907	0.814
10.8258	0.808
10.8608	0.81
10.8959	0.819
10.9309	0.824
10.966	0.82
11.0011	0.815
11.0361	0.808
11.0712	0.807
11.1063	0.81
11.1413	0.807
11.1764	0.755
11.2115	0.709
11.2465	0.707
11.2816	0.738
11.3166	0.798
11.3517	0.814
11.3868	0.819
11.4218	0.817
11.4569	0.817
11.492	0.812
11.527	0.796
11.5621	0.769
11.5971	0.759
11.6322	0.765
11.6673	0.776
11.7023	0.784
11.7374	0.786
11.7725	0.788
11.8075	0.786
11.8426	0.786
11.8776	0.788
11.9127	0.791
11.9478	0.798
11.9828	0.796
12.0179	0.786
12.053	0.779
12.088	0.779
12.1231	0.779
12.1581	0.781
12.1932	0.781
12.2283	0.779
12.2633	0.772
12.2984	0.771
12.3335	0.769
12.3685	0.771
12.4036	0.779
12.4386	0.786
12.4737	0.791
12.5088	0.802
12.5438	0.81
12.5789	0.812
12.614	0.815
12.649	0.817
12.6841	0.819
12.7192	0.822
12.7542	0.824
12.7893	0.827
12.8243	0.829
12.8594	0.834
12.8945	0.839
12.9295	0.843
12.9646	0.845
12.9997	0.846
13.0347	0.85
13.0698	0.851
13.1048	0.853
13.1399	0.86
13.175	0.87
13.21	0.879
13.2451	0.884
13.2802	0.886
13.3152	0.889
13.3503	0.891
13.3853	0.898
13.4204	0.901
13.4555	0.901
13.4905	0.907
13.5256	0.91
13.5607	0.915
13.5957	0.919
13.6308	0.922
13.6658	0.922
13.7009	0.924
13.736	0.927
13.771	0.929
13.8061	0.927
13.8412	0.925
13.8762	0.924
13.9113	0.925
13.9463	0.924
13.9814	0.913
14.0165	0.9
14.0515	0.87
14.0866	0.738
14.1217	0.592
14.1567	0.485
14.1918	0.38
14.2269	0.345
14.2619	0.359
14.297	0.388
14.332	0.414
14.3671	0.432
14.4022	0.428
14.4372	0.442
14.4723	0.537
14.5074	0.6
14.5424	0.659
14.5775	0.709
14.6125	0.746
14.6476	0.779
14.6827	0.793
14.7177	0.803
14.7528	0.81
14.7879	0.822
14.8229	0.834
14.858	0.843
14.893	0.848
14.9281	0.85
14.9632	0.85
14.9982	0.848
15.0333	0.846
15.0684	0.839
15.1034	0.819
15.1385	0.814
15.1735	0.814
15.2086	0.819
15.2437	0.836
15.2787	0.845
15.3138	0.853
15.3489	0.857
15.3839	0.855
15.419	0.831
15.454	0.774
