Infrared Spectrum: O,M'-SULFONYL DIBENZOIC ACID
Formula: C14 H10 O6 S
State: SOLID (NUJOL MULL)
Class: COBLENTZ
Instrument: Not specified, most likely a prism, grating, or hybrid spectrometer.
Sampling: TRANSMISSION
Resolution: 4
Origin: TENNESSEE EASTMAN COMPANY, RESEARCH LABORATORIES
MICROMETERS	TRANSMITTANCE
2.091	0.798
2.12994	0.798
2.16887	0.796
2.20781	0.803
2.24675	0.808
2.28569	0.809
2.32462	0.811
2.36356	0.813
2.4025	0.816
2.44144	0.824
2.48037	0.84
2.51931	0.845
2.55825	0.85
2.59719	0.855
2.63612	0.86
2.67506	0.874
2.714	0.886
2.75294	0.887
2.79187	0.887
2.83081	0.887
2.86975	0.886
2.90868	0.881
2.94762	0.863
2.98656	0.839
3.0255	0.804
3.06443	0.765
3.10337	0.705
3.14231	0.635
3.18125	0.552
3.22018	0.463
3.25912	0.388
3.29806	0.364
3.337	0.276
3.37593	0.11
3.41487	0.069
3.45381	0.061
3.49275	0.073
3.53168	0.302
3.57062	0.419
3.60956	0.497
3.64849	0.518
3.68743	0.518
3.72637	0.513
3.76531	0.448
3.80424	0.443
3.84318	0.499
3.88212	0.515
3.92106	0.513
3.95999	0.486
3.99893	0.518
4.03787	0.59
4.07681	0.64
4.11574	0.682
4.15468	0.715
4.19362	0.733
4.23256	0.765
4.27149	0.778
4.31043	0.791
4.34937	0.813
4.3883	0.835
4.42724	0.845
4.46618	0.848
4.50512	0.858
4.54405	0.869
4.58299	0.879
4.62193	0.887
4.66087	0.894
4.6998	0.9
4.73874	0.9
4.77768	0.908
4.81662	0.923
4.85555	0.928
4.89449	0.928
4.93343	0.926
4.97236	0.923
5.0113	0.921
5.05024	0.917
5.08918	0.913
5.12811	0.908
5.16705	0.897
5.20599	0.897
5.24493	0.897
5.28386	0.897
5.3228	0.895
5.36174	0.878
5.40068	0.869
5.43961	0.874
5.47855	0.876
5.51749	0.878
5.55643	0.879
5.59536	0.876
5.6343	0.871
5.67324	0.842
5.71217	0.764
5.75111	0.687
5.79005	0.504
5.82899	0.279
5.86792	0.105
5.90686	0.082
5.9458	0.091
5.98474	0.317
6.02367	0.556
6.06261	0.639
6.10155	0.723
6.14049	0.767
6.17942	0.8
6.21836	0.713
6.2573	0.606
6.29624	0.614
6.33517	0.686
6.37411	0.837
6.41305	0.865
6.45198	0.891
6.49092	0.904
6.52986	0.912
6.5688	0.913
6.60773	0.908
6.64667	0.878
6.68561	0.813
6.72455	0.64
6.76348	0.468
6.80242	0.336
6.84136	0.333
6.8803	0.333
6.91923	0.378
6.95817	0.534
6.99711	0.513
7.03605	0.338
7.07498	0.3
7.11392	0.463
7.15286	0.619
7.19179	0.617
7.23073	0.486
7.26967	0.482
7.30861	0.6
7.34754	0.687
7.38648	0.73
7.42542	0.731
7.46436	0.681
7.50329	0.478
7.54223	0.206
7.58117	0.182
7.62011	0.133
7.65904	0.097
7.69798	0.097
7.73692	0.097
7.77586	0.125
7.81479	0.242
7.85373	0.297
7.89267	0.299
7.9316	0.396
7.97054	0.538
8.00948	0.637
8.04842	0.687
8.08735	0.726
8.12629	0.754
8.16523	0.772
8.20417	0.788
8.2431	0.803
8.28204	0.809
8.32098	0.814
8.35992	0.814
8.39885	0.777
8.43779	0.687
8.47673	0.603
8.51567	0.391
8.5546	0.258
8.59354	0.208
8.63248	0.279
8.67141	0.411
8.71035	0.426
8.74929	0.33
8.78823	0.38
8.82716	0.536
8.8661	0.517
8.90504	0.463
8.94398	0.521
8.98291	0.63
9.02185	0.723
9.06079	0.769
9.09973	0.785
9.13866	0.721
9.1776	0.575
9.21654	0.525
9.25548	0.591
9.29441	0.749
9.33335	0.817
9.37229	0.848
9.41122	0.848
9.45016	0.817
9.4891	0.804
9.52804	0.845
9.56697	0.843
9.60591	0.84
9.64485	0.847
9.68379	0.852
9.72272	0.858
9.76166	0.861
9.8006	0.863
9.83954	0.863
9.87847	0.847
9.91741	0.834
9.95635	0.801
9.99528	0.798
10.0342	0.829
10.0732	0.842
10.1121	0.84
10.151	0.834
10.19	0.8
10.2289	0.773
10.2678	0.752
10.3068	0.749
10.3457	0.738
10.3847	0.707
10.4236	0.665
10.4625	0.617
10.5015	0.57
10.5404	0.534
10.5793	0.53
10.6183	0.543
10.6572	0.57
10.6962	0.583
10.7351	0.583
10.774	0.577
10.813	0.562
10.8519	0.564
10.8908	0.583
10.9298	0.624
10.9687	0.663
11.0077	0.695
11.0466	0.723
11.0855	0.73
11.1245	0.739
11.1634	0.76
11.2023	0.765
11.2413	0.782
11.2802	0.803
11.3192	0.826
11.3581	0.839
11.397	0.84
11.436	0.84
11.4749	0.84
11.5138	0.839
11.5528	0.822
11.5917	0.77
11.6307	0.71
11.6696	0.669
11.7085	0.673
11.7475	0.704
11.7864	0.76
11.8253	0.808
11.8643	0.843
11.9032	0.855
11.9422	0.878
11.9811	0.895
12.02	0.899
12.059	0.882
12.0979	0.811
12.1368	0.746
12.1758	0.725
12.2147	0.725
12.2537	0.726
12.2926	0.73
12.3315	0.733
12.3705	0.752
12.4094	0.762
12.4483	0.7
12.4873	0.632
12.5262	0.601
12.5652	0.692
12.6041	0.77
12.643	0.814
12.682	0.843
12.7209	0.852
12.7598	0.853
12.7988	0.853
12.8377	0.853
12.8766	0.822
12.9156	0.692
12.9545	0.619
12.9935	0.613
13.0324	0.567
13.0713	0.408
13.1103	0.323
13.1492	0.413
13.1881	0.534
13.2271	0.66
13.266	0.777
13.305	0.814
13.3439	0.822
13.3828	0.808
13.4218	0.738
13.4607	0.637
13.4996	0.51
13.5386	0.476
13.5775	0.507
13.6165	0.583
13.6554	0.637
13.6943	0.663
13.7333	0.666
13.7722	0.668
13.8111	0.658
13.8501	0.604
13.889	0.502
13.928	0.46
13.9669	0.474
14.0058	0.557
14.0448	0.653
14.0837	0.704
14.1226	0.728
14.1616	0.73
14.2005	0.73
14.2395	0.699
14.2784	0.647
14.3173	0.583
14.3563	0.541
14.3952	0.533
14.4341	0.546
14.4731	0.585
14.512	0.616
14.551	0.639
14.5899	0.66
14.6288	0.669
14.6678	0.665
14.7067	0.63
14.7456	0.56
14.7846	0.502
14.8235	0.495
14.8625	0.5
14.9014	0.533
14.9403	0.603
14.9793	0.655
15.0182	0.697
15.0571	0.717
15.0961	0.721
15.135	0.72
15.174	0.692
15.2129	0.647
15.2518	0.593
15.2908	0.565
15.3297	0.554
15.3686	0.551
15.4076	0.552
15.4465	0.554
15.4855	0.559
15.5244	0.569
15.5633	0.578
15.6023	0.591
15.6412	0.609
15.6801	0.624
15.7191	0.642
15.758	0.656
15.797	0.663
