Infrared Spectrum: [1,2,5]-Thiadiazolo[3,4-d]pyrimidine, 5,7-dipyrrolidin-1-yl-
Formula: C12 H16 N6 S
State: SOLID (1 mg / 650 mg KBr DISC)
Class: COBLENTZ III
Instrument: PERKIN-ELMER 221 (GRATING)
Instrument parameters: FILTER AT 2490, 980 CM^-^1. GRATING 4000-1428 CM^-^1, NaCl PRISM 1428-650 CM^-^1
Sampling: TRANSMISSION
Resolution: 2
Origin: SOUTHERN RESEARCH INSTITUTE
1/CM	TRANSMITTANCE
661	0.926
670	0.8844
679	0.932
688	0.9419
697	0.9452
706	0.9425
715	0.9412
724	0.9418
733	0.927
742	0.7416
751	0.9465
760	0.9477
769	0.9446
778	0.9402
787	0.9238
796	0.6059
805	0.8905
814	0.5874
823	0.9359
832	0.9288
841	0.89
850	0.8387
859	0.6457
868	0.8362
877	0.933
886	0.9432
895	0.9352
904	0.9124
913	0.8733
922	0.9176
931	0.9317
940	0.9224
949	0.8619
958	0.8981
967	0.8712
976	0.9251
985	0.7301
994	0.9088
1003	0.9051
1012	0.8951
1021	0.8885
1030	0.8867
1039	0.8851
1048	0.8848
1057	0.8853
1066	0.8845
1075	0.8811
1084	0.8734
1093	0.8642
1102	0.851
1111	0.8334
1120	0.8454
1129	0.8479
1138	0.847
1147	0.8442
1156	0.8341
1165	0.8169
1174	0.8012
1183	0.7829
1192	0.7571
1201	0.7446
1210	0.7303
1219	0.7097
1228	0.7821
1237	0.8093
1246	0.7585
1255	0.7966
1264	0.7957
1273	0.7689
1282	0.7302
1291	0.6711
1300	0.6255
1309	0.6109
1318	0.3506
1327	0.3353
1336	0.4737
1345	0.752
1354	0.6322
1363	0.4748
1372	0.4857
1381	0.4982
1390	0.5058
1399	0.73
1408	0.7319
1417	0.6182
1426	0.5777
1435	0.4603
1444	0.3471
1453	0.3176
1462	0.3623
1471	0.316
1480	0.4061
1489	0.4271
1498	0.2111
1507	0.1005
1516	0.1755
1525	0.237
1534	0.1872
1543	0.1541
1552	0.2473
1561	0.4102
1570	0.4276
1579	0.1803
1588	0.2532
1597	0.5704
1606	0.7583
1615	0.8029
1624	0.8264
1633	0.8533
1642	0.877
1651	0.8846
1660	0.8934
1669	0.9073
1678	0.9233
1687	0.9364
1696	0.9419
1705	0.9423
1714	0.9421
1723	0.9464
1732	0.939
1741	0.9457
1750	0.9563
1759	0.9586
1768	0.9547
1777	0.9498
1786	0.9478
1795	0.948
1804	0.9483
1813	0.9513
1822	0.957
1831	0.9576
1840	0.9563
1849	0.9555
1858	0.9551
1867	0.9547
1876	0.9544
1885	0.955
1894	0.9565
1903	0.957
1912	0.956
1921	0.9547
1930	0.9488
1939	0.9452
1948	0.9436
1957	0.9418
1966	0.9393
1975	0.9378
1984	0.9368
1993	0.9351
2002	0.9324
2011	0.9291
2020	0.9249
2029	0.9203
2038	0.9197
2047	0.9202
2056	0.9206
2065	0.9206
2074	0.9203
2083	0.9185
2092	0.9152
2101	0.9136
2110	0.9125
2119	0.91
2128	0.9071
2137	0.9067
2146	0.907
2155	0.9073
2164	0.9041
2173	0.9004
2182	0.8991
2191	0.8977
2200	0.8967
2209	0.8959
2218	0.8958
2227	0.8957
2236	0.8953
2245	0.8941
2254	0.8922
2263	0.8901
2272	0.8878
2281	0.8848
2290	0.8826
2299	0.8797
2308	0.876
2317	0.8723
2326	0.869
2335	0.8661
2344	0.8643
2353	0.8633
2362	0.863
2371	0.8629
2380	0.8652
2389	0.8668
2398	0.8658
2407	0.8645
2416	0.863
2425	0.8614
2434	0.8599
2443	0.8572
2452	0.8534
2461	0.8497
2470	0.8475
2479	0.846
2488	0.8445
2497	0.8424
2506	0.8396
2515	0.8374
2524	0.8364
2533	0.8353
2542	0.8337
2551	0.8318
2560	0.8302
2569	0.8289
2578	0.8245
2587	0.818
2596	0.8162
2605	0.8159
2614	0.8152
2623	0.814
2632	0.8129
2641	0.8115
2650	0.8044
2659	0.7991
2668	0.7978
2677	0.7959
2686	0.7937
2695	0.7913
2704	0.7888
2713	0.7869
2722	0.7852
2731	0.7821
2740	0.7782
2749	0.7733
2758	0.7681
2767	0.7628
2776	0.7572
2785	0.751
2794	0.7448
2803	0.737
2812	0.7265
2821	0.7106
2830	0.6968
2839	0.6728
2848	0.6208
2857	0.548
2866	0.4857
2875	0.5065
2884	0.6343
2893	0.6981
2902	0.69
2911	0.6592
2920	0.6229
2929	0.5921
2938	0.5408
2947	0.486
2956	0.4706
2965	0.5573
2974	0.5874
2983	0.7369
2992	0.7747
3001	0.7819
3010	0.7819
3019	0.781
3028	0.7805
3037	0.7793
3046	0.7772
3055	0.7738
3064	0.7695
3073	0.7651
3082	0.7617
3091	0.7593
3100	0.757
3109	0.7559
3118	0.7551
3127	0.7535
3136	0.7512
3145	0.7489
3154	0.7465
3163	0.743
3172	0.7391
3181	0.735
3190	0.7298
3199	0.7239
3208	0.7194
3217	0.7151
3226	0.7106
3235	0.7057
3244	0.7008
3253	0.6964
3262	0.6927
3271	0.689
3280	0.6851
3289	0.6811
3298	0.6772
3307	0.6741
3316	0.6706
3325	0.6655
3334	0.6585
3343	0.6494
3352	0.6393
3361	0.6302
3370	0.623
3379	0.6148
3388	0.6006
3397	0.595
3406	0.5925
3415	0.5911
3424	0.5892
3433	0.5894
3442	0.59
3451	0.5913
3460	0.5928
3469	0.5946
3478	0.5971
3487	0.5997
3496	0.6037
3505	0.6081
3514	0.6151
3523	0.6229
3532	0.6226
3541	0.6255
3550	0.6334
3559	0.642
3568	0.6479
3577	0.6518
3586	0.6563
3595	0.6611
3604	0.6653
3613	0.6686
3622	0.671
3631	0.6722
3640	0.6734
3649	0.6733
3658	0.6732
3667	0.673
3676	0.6729
3685	0.6737
3694	0.6748
3703	0.674
3712	0.6718
3721	0.6705
3730	0.6696
3739	0.6688
3748	0.6681
3757	0.6673
3766	0.669
3775	0.6705
3784	0.6678
3793	0.6584
3802	0.6537
3811	0.6513
3820	0.6506
3829	0.6499
3838	0.6491
3847	0.6484
3856	0.6477
3865	0.6473
3874	0.6472
3883	0.647
3892	0.6468
3901	0.6468
3910	0.6467
3919	0.6466
3928	0.6466
3937	0.6467
3946	0.6469
3955	0.647
3964	0.647
3973	0.6468
3982	0.6466
3991	0.6464
4000	0.6461
