Infrared Spectrum: Decanamine, N-decyl-, hydrobromide
Formula: C20 H44 Br N
State: SOLID (SPLIT MULL), FLUOROLUBE FOR 3800-1330 CM^-^1, NUJOL FOR 1330-500 CM^-^1
Class: COBLENTZ III
Instrument: DOW KBr FOREPRISM-GRATING
Instrument parameters: BLAZED AT 3.5, 12.0, 20.0 MICRON AND CHANGED AT 5.0, 7.5, 14.9 MICRON
Sampling: TRANSMISSION
Resolution: 2
Origin: DOW CHEMICAL COMPANY
1/CM	TRANSMITTANCE
3800	0.7597
3791	0.7605
3782	0.7615
3773	0.7625
3764	0.7634
3755	0.7636
3746	0.7635
3737	0.7635
3728	0.7644
3719	0.7664
3710	0.7685
3701	0.7695
3692	0.7706
3683	0.7715
3674	0.7725
3665	0.7734
3656	0.774
3647	0.7745
3638	0.775
3629	0.7756
3620	0.7761
3611	0.7768
3602	0.7774
3593	0.7778
3584	0.7782
3575	0.7784
3566	0.7787
3557	0.7789
3548	0.7792
3539	0.7794
3530	0.7797
3521	0.7799
3512	0.7801
3503	0.7804
3494	0.7807
3485	0.7808
3476	0.7808
3467	0.781
3458	0.7811
3449	0.7811
3440	0.7812
3431	0.7812
3422	0.7815
3413	0.7815
3404	0.7817
3395	0.7818
3386	0.7821
3377	0.7825
3368	0.7828
3359	0.7832
3350	0.7846
3341	0.7898
3332	0.7958
3323	0.7989
3314	0.8006
3305	0.8011
3296	0.8018
3287	0.8028
3278	0.8041
3269	0.8054
3260	0.8072
3251	0.8091
3242	0.8108
3233	0.8117
3224	0.8125
3215	0.8133
3206	0.8137
3197	0.8141
3188	0.8144
3179	0.814
3170	0.8107
3161	0.8018
3152	0.8019
3143	0.8082
3134	0.8106
3125	0.8115
3116	0.8121
3107	0.8128
3098	0.8125
3089	0.8076
3080	0.8015
3071	0.7897
3062	0.7751
3053	0.7601
3044	0.745
3035	0.7261
3026	0.6989
3017	0.6669
3008	0.6214
2999	0.568
2990	0.4458
2981	0.3347
2972	0.2781
2963	0.1637
2954	0.0533
2945	0.0678
2936	0.0978
2927	0.0609
2918	0.0266
2909	0.0498
2900	0.1194
2891	0.1889
2882	0.2584
2873	0.3119
2864	0.2155
2855	0.0914
2846	0.196
2837	0.3307
2828	0.2702
2819	0.1829
2810	0.1414
2801	0.1263
2792	0.1244
2783	0.144
2774	0.2652
2765	0.3245
2756	0.383
2747	0.4077
2738	0.4036
2729	0.4007
2720	0.4207
2711	0.4438
2702	0.4712
2693	0.521
2684	0.5362
2675	0.5393
2666	0.5648
2657	0.5914
2648	0.6133
2639	0.6295
2630	0.6408
2621	0.6444
2612	0.6434
2603	0.6465
2594	0.6572
2585	0.6704
2576	0.6746
2567	0.6697
2558	0.6705
2549	0.6798
2540	0.6805
2531	0.6292
2522	0.6316
2513	0.6681
2504	0.6891
2495	0.703
2486	0.7158
2477	0.7261
2468	0.7326
2459	0.7146
2450	0.6497
2441	0.565
2432	0.5587
2423	0.5966
2414	0.6608
2405	0.6926
2396	0.7211
2387	0.7299
2378	0.7225
2369	0.7195
2360	0.7207
2351	0.7244
2342	0.7296
2333	0.7351
2324	0.7417
2315	0.7482
2306	0.7545
2297	0.7607
2288	0.7668
2279	0.7714
2270	0.7758
2261	0.78
2252	0.7832
2243	0.7843
2234	0.7865
2225	0.7908
2216	0.8004
2207	0.8062
2198	0.8096
2189	0.8128
2180	0.8137
2171	0.8184
2162	0.8228
2153	0.8221
2144	0.8218
2135	0.8224
2126	0.8253
2117	0.8297
2108	0.8341
2099	0.8367
2090	0.8393
2081	0.8415
2072	0.8437
2063	0.8458
2054	0.8477
2045	0.8492
2036	0.8509
2027	0.8513
2018	0.8513
2009	0.8506
2000	0.8446
1991	0.8459
1982	0.8492
1973	0.8493
1964	0.8494
1955	0.8495
1946	0.8496
1937	0.8497
1928	0.8498
1919	0.8499
1910	0.85
1901	0.8501
1892	0.8502
1883	0.8503
1874	0.8504
1865	0.8505
1856	0.8468
1847	0.8384
1838	0.8275
1829	0.8289
1820	0.8328
1811	0.8362
1802	0.839
1793	0.841
1784	0.8427
1775	0.8463
1766	0.85
1757	0.8503
1748	0.8447
1739	0.841
1730	0.8423
1721	0.8439
1712	0.8412
1703	0.8227
1694	0.8245
1685	0.8218
1676	0.828
1667	0.834
1658	0.8394
1649	0.8425
1640	0.8427
1631	0.8403
1622	0.8365
1613	0.8378
1604	0.8374
1595	0.8297
1586	0.7987
1577	0.8171
1568	0.8243
1559	0.8283
1550	0.829
1541	0.8295
1532	0.8302
1523	0.8353
1514	0.8278
1505	0.8294
1496	0.827
1487	0.8068
1478	0.6571
1469	0.376
1460	0.6058
1451	0.6537
1442	0.6986
1433	0.746
1424	0.764
1415	0.7061
1406	0.7268
1397	0.7612
1388	0.7646
1379	0.7514
1370	0.7375
1361	0.7612
1352	0.7125
1343	0.751
1334	0.7698
1325	0.7878
1316	0.7908
1307	0.7855
1298	0.7935
1289	0.7971
1280	0.8036
1271	0.8128
1262	0.8184
1253	0.8275
1244	0.8285
1235	0.8359
1226	0.8396
1217	0.8382
1208	0.84
1199	0.8427
1190	0.8435
1181	0.8428
1172	0.8396
1163	0.8342
1154	0.8264
1145	0.8313
1136	0.838
1127	0.8459
1118	0.8418
1109	0.8484
1100	0.8457
1091	0.8359
1082	0.8364
1073	0.8094
1064	0.8268
1055	0.8285
1046	0.806
1037	0.7818
1028	0.8143
1019	0.8161
1010	0.8255
1001	0.8248
992	0.8265
983	0.8339
974	0.8348
965	0.8347
956	0.8407
947	0.8382
938	0.8392
929	0.8407
920	0.8418
911	0.8424
902	0.8402
893	0.8283
884	0.8375
875	0.829
866	0.823
857	0.8411
848	0.8302
839	0.8456
830	0.8473
821	0.8473
812	0.8497
803	0.8531
794	0.7801
785	0.8347
776	0.7574
767	0.8323
758	0.8461
749	0.809
740	0.8156
731	0.8024
722	0.5398
713	0.7983
704	0.8428
695	0.8575
686	0.8588
677	0.8695
668	0.879
659	0.8755
650	0.8843
641	0.8801
632	0.8751
623	0.879
614	0.8808
605	0.8766
596	0.878
587	0.8799
578	0.8816
569	0.8805
560	0.8754
551	0.8775
542	0.8796
533	0.8811
524	0.8809
515	0.8813
506	0.8827
497	0.8862
488	0.8902
479	0.893
470	0.8941
