Infrared Spectrum: DL-LYSINE DIHYDROCHLORIDE
Formula: C6 H14 N2 O2  * 2 H Cl
State: SOLID (MINERAL OIL MULL)
Class: COBLENTZ
Instrument: Not specified, most likely a prism, grating, or hybrid spectrometer.
Sampling: TRANSMISSION
Resolution: 4
Origin: DOW CHEMICAL COMPANY
MICROMETERS	TRANSMITTANCE
2.034	0.77
2.07502	0.773
2.11603	0.78
2.15705	0.784
2.19806	0.792
2.23908	0.782
2.28009	0.777
2.32111	0.791
2.36213	0.808
2.40314	0.823
2.44416	0.835
2.48517	0.861
2.52619	0.871
2.5672	0.875
2.60822	0.885
2.64923	0.892
2.69025	0.9
2.73127	0.909
2.77228	0.909
2.8133	0.909
2.85431	0.907
2.89533	0.893
2.93634	0.895
2.97736	0.868
3.01838	0.803
3.05939	0.714
3.10041	0.566
3.14142	0.44
3.18244	0.287
3.22345	0.193
3.26447	0.133
3.30549	0.107
3.3465	0.051
3.38752	0.023
3.42853	0.027
3.46955	0.032
3.51056	0.058
3.55158	0.121
3.59259	0.169
3.63361	0.215
3.67463	0.26
3.71564	0.263
3.75666	0.282
3.79767	0.318
3.83869	0.373
3.8797	0.405
3.92072	0.45
3.96174	0.438
4.00275	0.522
4.04377	0.582
4.08478	0.625
4.1258	0.66
4.16681	0.69
4.20783	0.703
4.24885	0.722
4.28986	0.761
4.33088	0.777
4.37189	0.796
4.41291	0.809
4.45392	0.816
4.49494	0.821
4.53596	0.832
4.57697	0.842
4.61799	0.847
4.659	0.849
4.70002	0.852
4.74103	0.863
4.78205	0.869
4.82306	0.873
4.86408	0.869
4.9051	0.852
4.94611	0.828
4.98713	0.755
5.02814	0.662
5.06916	0.676
5.11017	0.724
5.15119	0.777
5.19221	0.828
5.23322	0.863
5.27424	0.876
5.31525	0.885
5.35627	0.9
5.39728	0.904
5.4383	0.893
5.47932	0.883
5.52033	0.888
5.56135	0.89
5.60236	0.871
5.64338	0.789
5.68439	0.686
5.72541	0.428
5.76642	0.174
5.80744	0.417
5.84846	0.597
5.88947	0.702
5.93049	0.772
5.9715	0.804
6.01252	0.82
6.05353	0.82
6.09455	0.809
6.13557	0.672
6.17658	0.544
6.2176	0.592
6.25861	0.546
6.29963	0.479
6.34064	0.662
6.38166	0.712
6.42268	0.729
6.46369	0.606
6.50471	0.332
6.54572	0.368
6.58674	0.561
6.62775	0.472
6.66877	0.527
6.70978	0.645
6.7508	0.547
6.79182	0.323
6.83283	0.291
6.87385	0.337
6.91486	0.472
6.95588	0.671
6.99689	0.654
7.03791	0.542
7.07893	0.647
7.11994	0.719
7.16096	0.676
7.20197	0.585
7.24299	0.52
7.284	0.647
7.32502	0.732
7.36604	0.755
7.40705	0.784
7.44807	0.772
7.48908	0.772
7.5301	0.811
7.57111	0.82
7.61213	0.772
7.65315	0.83
7.69416	0.818
7.73518	0.803
7.77619	0.84
7.81721	0.842
7.85822	0.809
7.89924	0.833
7.94025	0.842
7.98127	0.816
8.02229	0.767
8.0633	0.751
8.10432	0.674
8.14533	0.505
8.18635	0.316
8.22736	0.207
8.26838	0.232
8.3094	0.41
8.35041	0.577
8.39143	0.662
8.43244	0.662
8.47346	0.527
8.51447	0.511
8.55549	0.619
8.59651	0.565
8.63752	0.474
8.67854	0.547
8.71955	0.537
8.76057	0.421
8.80158	0.496
8.8426	0.669
8.88361	0.751
8.92463	0.789
8.96565	0.804
9.00666	0.808
9.04768	0.796
9.08869	0.832
9.12971	0.852
9.17072	0.869
9.21174	0.873
9.25276	0.875
9.29377	0.876
9.33479	0.878
9.3758	0.873
9.41682	0.863
9.45783	0.869
9.49885	0.851
9.53987	0.796
9.58088	0.847
9.6219	0.869
9.66291	0.827
9.70393	0.767
9.74494	0.847
9.78596	0.883
9.82697	0.876
9.86799	0.804
9.90901	0.796
9.95002	0.844
9.99104	0.818
10.0321	0.876
10.0731	0.898
10.1141	0.904
10.1551	0.907
10.1961	0.909
10.2371	0.9
10.2781	0.892
10.3192	0.864
10.3602	0.785
10.4012	0.748
10.4422	0.821
10.4832	0.878
10.5242	0.892
10.5653	0.897
10.6063	0.888
10.6473	0.863
10.6883	0.825
10.7293	0.859
10.7703	0.886
10.8114	0.897
10.8524	0.9
10.8934	0.9
10.9344	0.902
10.9754	0.909
11.0164	0.909
11.0574	0.909
11.0985	0.905
11.1395	0.9
11.1805	0.892
11.2215	0.883
11.2625	0.851
11.3035	0.773
11.3446	0.76
11.3856	0.84
11.4266	0.878
11.4676	0.883
11.5086	0.883
11.5496	0.88
11.5906	0.873
11.6317	0.868
11.6727	0.859
11.7137	0.851
11.7547	0.844
11.7957	0.833
11.8367	0.821
11.8778	0.796
11.9188	0.755
11.9598	0.705
12.0008	0.609
12.0418	0.505
12.0828	0.446
12.1239	0.421
12.1649	0.407
12.2059	0.412
12.2469	0.465
12.2879	0.542
12.3289	0.621
12.3699	0.684
12.411	0.731
12.452	0.753
12.493	0.77
12.534	0.784
12.575	0.792
12.616	0.801
12.6571	0.804
12.6981	0.787
12.7391	0.767
12.7801	0.779
12.8211	0.801
12.8621	0.816
12.9031	0.825
12.9442	0.83
12.9852	0.83
13.0262	0.832
13.0672	0.828
13.1082	0.809
13.1492	0.765
13.1903	0.686
13.2313	0.585
13.2723	0.578
13.3133	0.672
13.3543	0.741
13.3953	0.768
13.4364	0.779
13.4774	0.779
13.5184	0.775
13.5594	0.761
13.6004	0.731
13.6414	0.676
13.6824	0.645
13.7235	0.674
13.7645	0.712
13.8055	0.726
13.8465	0.739
13.8875	0.751
13.9285	0.758
13.9696	0.767
14.0106	0.772
14.0516	0.772
14.0926	0.773
14.1336	0.772
14.1746	0.772
14.2157	0.767
14.2567	0.763
14.2977	0.76
14.3387	0.755
14.3797	0.751
14.4207	0.748
14.4617	0.741
14.5028	0.736
14.5438	0.729
14.5848	0.724
14.6258	0.717
14.6668	0.705
14.7078	0.702
14.7489	0.691
14.7899	0.686
14.8309	0.678
14.8719	0.667
14.9129	0.659
14.9539	0.652
14.9949	0.648
15.036	0.636
15.077	0.625
15.118	0.616
15.159	0.606
15.2	0.597
15.241	0.59
15.2821	0.58
15.3231	0.571
15.3641	0.561
15.4051	0.551
15.4461	0.541
15.4871	0.53
15.5282	0.522
15.5692	0.515
15.6102	0.505
15.6512	0.503
15.6922	0.498
15.7332	0.491
15.7742	0.484
15.8153	0.481
15.8563	0.476
15.8973	0.481
