Infrared Spectrum: PICOLINE, COMPOUND WITH BORANE
Formula: C6 H10 B N
State: LIQUID (NEAT)
Class: COBLENTZ III
Instrument: DOW KBr FOREPRISM-GRATING
Instrument parameters: BLAZED AT 3.5, 12.0, 20.0 MICRON AND CHANGED AT 5.0, 7.5, 14.9 MICRON
Sampling: TRANSMISSION
Path length: CAPILLARY
Resolution: 2
Origin: DOW CHEMICAL COMPANY
1/CM	TRANSMITTANCE
381	0.7128
390	0.7214
399	0.7318
408	0.7448
417	0.7572
426	0.759
435	0.7728
444	0.7888
453	0.7936
462	0.7914
471	0.7832
480	0.7499
489	0.6575
498	0.8262
507	0.8474
516	0.8535
525	0.857
534	0.8587
543	0.8617
552	0.862
561	0.8645
570	0.8744
579	0.8757
588	0.8828
597	0.8861
606	0.8885
615	0.8918
624	0.8937
633	0.8943
642	0.8934
651	0.8935
660	0.8755
669	0.8545
678	0.7925
687	0.4389
696	0.779
705	0.7243
714	0.7258
723	0.7654
732	0.7825
741	0.7655
750	0.47
759	0.2908
768	0.2387
777	0.5409
786	0.6672
795	0.6024
804	0.599
813	0.6143
822	0.7475
831	0.7904
840	0.79
849	0.7825
858	0.7672
867	0.7744
876	0.7599
885	0.7386
894	0.7111
903	0.6172
912	0.5359
921	0.4452
930	0.421
939	0.4571
948	0.591
957	0.6787
966	0.6868
975	0.6939
984	0.6967
993	0.6701
1002	0.6493
1011	0.6294
1020	0.5794
1029	0.5597
1038	0.478
1047	0.4734
1056	0.5375
1065	0.5235
1074	0.4777
1083	0.3593
1092	0.2697
1101	0.4205
1110	0.4868
1119	0.3795
1128	0.4002
1137	0.5132
1146	0.4453
1155	0.2046
1164	0.119
1173	0.109
1182	0.1364
1191	0.155
1200	0.3562
1209	0.5023
1218	0.5871
1227	0.5737
1236	0.5488
1245	0.5324
1254	0.4975
1263	0.5054
1272	0.4787
1281	0.4466
1290	0.4034
1299	0.2919
1308	0.3738
1317	0.4077
1326	0.4617
1335	0.4781
1344	0.4784
1353	0.4726
1362	0.4512
1371	0.4179
1380	0.3697
1389	0.3776
1398	0.3602
1407	0.3323
1416	0.2976
1425	0.2556
1434	0.2638
1443	0.2763
1452	0.2227
1461	0.1275
1470	0.3762
1479	0.3146
1488	0.1933
1497	0.4793
1506	0.5918
1515	0.7044
1524	0.7386
1533	0.7625
1542	0.7718
1551	0.7715
1560	0.7394
1569	0.5847
1578	0.7028
1587	0.7408
1596	0.7443
1605	0.6838
1614	0.4324
1623	0.4279
1632	0.5057
1641	0.7395
1650	0.7158
1659	0.8007
1668	0.8325
1677	0.8349
1686	0.8359
1695	0.8347
1704	0.8306
1713	0.8283
1722	0.8278
1731	0.8291
1740	0.8323
1749	0.8363
1758	0.8398
1767	0.8431
1776	0.8458
1785	0.8481
1794	0.8499
1803	0.8485
1812	0.8463
1821	0.8416
1830	0.8299
1839	0.816
1848	0.805
1857	0.8084
1866	0.8161
1875	0.8249
1884	0.8315
1893	0.8357
1902	0.8382
1911	0.8387
1920	0.8362
1929	0.8332
1938	0.8308
1947	0.8299
1956	0.8289
1965	0.8284
1974	0.8284
1983	0.8291
1992	0.8303
2001	0.8321
2010	0.8334
2019	0.8334
2028	0.8305
2037	0.8248
2046	0.8185
2055	0.8104
2064	0.7997
2073	0.7875
2082	0.7768
2091	0.7787
2100	0.7832
2109	0.7885
2118	0.7942
2127	0.8014
2136	0.8112
2145	0.813
2154	0.8121
2163	0.8081
2172	0.8012
2181	0.7915
2190	0.7834
2199	0.7732
2208	0.7618
2217	0.7461
2226	0.7128
2235	0.6553
2244	0.5418
2253	0.4248
2262	0.3347
2271	0.3195
2280	0.2772
2289	0.2462
2298	0.222
2307	0.1349
2316	0.1244
2325	0.114
2334	0.1005
2343	0.0885
2352	0.0744
2361	0.0602
2370	0.0545
2379	0.0563
2388	0.0663
2397	0.0856
2406	0.2424
2415	0.3953
2424	0.4631
2433	0.548
2442	0.6116
2451	0.6495
2460	0.6804
2469	0.709
2478	0.7274
2487	0.7438
2496	0.7583
2505	0.7696
2514	0.7775
2523	0.7846
2532	0.7911
2541	0.7967
2550	0.8018
2559	0.8065
2568	0.8111
2577	0.8141
2586	0.8171
2595	0.8183
2604	0.819
2613	0.8206
2622	0.8233
2631	0.8274
2640	0.829
2649	0.8295
2658	0.8288
2667	0.8281
2676	0.8268
2685	0.8253
2694	0.8239
2703	0.8224
2712	0.8206
2721	0.8172
2730	0.8117
2739	0.8096
2748	0.8093
2757	0.8096
2766	0.8099
2775	0.8092
2784	0.8062
2793	0.8021
2802	0.7972
2811	0.7921
2820	0.7867
2829	0.7808
2838	0.7742
2847	0.7674
2856	0.7601
2865	0.7578
2874	0.7596
2883	0.7599
2892	0.7517
2901	0.7361
2910	0.718
2919	0.7058
2928	0.7084
2937	0.7095
2946	0.706
2955	0.7084
2964	0.718
2973	0.7261
2982	0.7284
2991	0.7365
3000	0.7417
3009	0.7415
3018	0.7367
3027	0.7228
3036	0.7074
3045	0.695
3054	0.6862
3063	0.6815
3072	0.6835
3081	0.6884
3090	0.6965
3099	0.7069
3108	0.7171
3117	0.7238
3126	0.7361
3135	0.7408
3144	0.7421
3153	0.7426
3162	0.743
3171	0.7425
3180	0.7415
3189	0.7378
3198	0.7341
3207	0.7321
3216	0.7337
3225	0.736
3234	0.7381
3243	0.7399
3252	0.7408
3261	0.7411
3270	0.7415
3279	0.7428
3288	0.7449
3297	0.7472
3306	0.7501
3315	0.7543
3324	0.7585
3333	0.7631
3342	0.7678
3351	0.7718
3360	0.7739
3369	0.7758
3378	0.778
3387	0.7801
3396	0.7839
3405	0.7876
3414	0.7915
3423	0.795
3432	0.7985
3441	0.8018
3450	0.8053
3459	0.8086
3468	0.8117
3477	0.8146
3486	0.8172
3495	0.8199
3504	0.8227
3513	0.8265
3522	0.8304
3531	0.8358
3540	0.8417
3549	0.8478
3558	0.8544
3567	0.86
3576	0.8646
3585	0.8682
3594	0.8711
3603	0.8734
3612	0.8754
3621	0.877
3630	0.8785
3639	0.8799
3648	0.8814
3657	0.8828
3666	0.8845
3675	0.8851
3684	0.8833
3693	0.8858
3702	0.8889
3711	0.8887
3720	0.8883
3729	0.8875
3738	0.887
3747	0.8867
3756	0.8864
3765	0.8857
3774	0.8853
3783	0.8852
3792	0.8859
