Infrared Spectrum: (4-CHLORO-2-METHYL PHENOXY) ACETIC ACID, MAGNESIUM SALT
Formula: C18 H16 Cl2 Mg O6
State: SOLID (MINERAL OIL MULL)
Class: COBLENTZ
Instrument: Not specified, most likely a prism, grating, or hybrid spectrometer.
Sampling: TRANSMISSION
Resolution: 4
Origin: DOW CHEMICAL COMPANY
MICROMETERS	TRANSMITTANCE
2.027	0.781
2.06816	0.79
2.10931	0.793
2.15047	0.8
2.19163	0.802
2.23278	0.783
2.27394	0.776
2.3151	0.783
2.35625	0.79
2.39741	0.795
2.43856	0.802
2.47972	0.808
2.52088	0.819
2.56203	0.82
2.60319	0.829
2.64435	0.831
2.6855	0.824
2.72666	0.784
2.76782	0.663
2.80897	0.484
2.85013	0.447
2.89129	0.585
2.93244	0.575
2.9736	0.523
3.01475	0.527
3.05591	0.576
3.09707	0.619
3.13822	0.653
3.17938	0.665
3.22054	0.658
3.26169	0.648
3.30285	0.605
3.34401	0.351
3.38516	0.046
3.42632	0.081
3.46748	0.133
3.50863	0.411
3.54979	0.723
3.59094	0.774
3.6321	0.783
3.67326	0.793
3.71441	0.802
3.75557	0.813
3.79673	0.825
3.83788	0.831
3.87904	0.839
3.9202	0.848
3.96135	0.858
4.00251	0.863
4.04367	0.868
4.08482	0.872
4.12598	0.872
4.16714	0.873
4.20829	0.858
4.24945	0.861
4.2906	0.877
4.33176	0.88
4.37292	0.882
4.41407	0.88
4.45523	0.883
4.49639	0.887
4.53754	0.889
4.5787	0.889
4.61986	0.889
4.66101	0.89
4.70217	0.889
4.74333	0.885
4.78448	0.892
4.82564	0.895
4.86679	0.895
4.90795	0.899
4.94911	0.899
4.99026	0.895
5.03142	0.899
5.07258	0.901
5.11373	0.897
5.15489	0.901
5.19605	0.899
5.2372	0.901
5.27836	0.895
5.31952	0.899
5.36067	0.899
5.40183	0.889
5.44298	0.885
5.48414	0.897
5.5253	0.887
5.56645	0.889
5.60761	0.878
5.64877	0.863
5.68992	0.851
5.73108	0.843
5.77224	0.832
5.81339	0.807
5.85455	0.749
5.89571	0.629
5.93686	0.508
5.97802	0.399
6.01918	0.302
6.06033	0.206
6.10149	0.151
6.14264	0.095
6.1838	0.098
6.22496	0.155
6.26611	0.138
6.30727	0.092
6.34843	0.237
6.38958	0.397
6.43074	0.549
6.4719	0.604
6.51305	0.65
6.55421	0.65
6.59537	0.593
6.63652	0.416
6.67768	0.151
6.71883	0.23
6.75999	0.29
6.80115	0.129
6.8423	0.097
6.88346	0.179
6.92462	0.168
6.96577	0.11
7.00693	0.298
7.04809	0.465
7.08924	0.51
7.1304	0.544
7.17156	0.59
7.21271	0.496
7.25387	0.469
7.29502	0.598
7.33618	0.648
7.37734	0.604
7.41849	0.421
7.45965	0.447
7.50081	0.617
7.54196	0.667
7.58312	0.651
7.62428	0.513
7.66543	0.31
7.70659	0.407
7.74775	0.624
7.7889	0.624
7.83006	0.571
7.87122	0.435
7.91237	0.459
7.95353	0.537
7.99468	0.51
8.03584	0.441
8.077	0.31
8.11815	0.228
8.15931	0.488
8.20047	0.679
8.24162	0.721
8.28278	0.703
8.32394	0.552
8.36509	0.255
8.40625	0.141
8.44741	0.372
8.48856	0.523
8.52972	0.639
8.57087	0.694
8.61203	0.696
8.65319	0.616
8.69434	0.515
8.7355	0.43
8.77666	0.273
8.81781	0.424
8.85897	0.624
8.90013	0.648
8.94128	0.639
8.98244	0.699
9.0236	0.762
9.06475	0.752
9.10591	0.742
9.14706	0.771
9.18822	0.778
9.22938	0.766
9.27053	0.723
9.31169	0.648
9.35285	0.566
9.394	0.482
9.43516	0.382
9.47632	0.414
9.51747	0.535
9.55863	0.578
9.59979	0.612
9.64094	0.645
9.6821	0.667
9.72326	0.667
9.76441	0.704
9.80557	0.761
9.84672	0.778
9.88788	0.79
9.92904	0.778
9.97019	0.738
10.0114	0.749
10.0525	0.784
10.0937	0.817
10.1348	0.829
10.176	0.832
10.2171	0.834
10.2583	0.827
10.2994	0.822
10.3406	0.808
10.3818	0.796
10.4229	0.786
10.4641	0.786
10.5052	0.79
10.5464	0.795
10.5875	0.783
10.6287	0.759
10.6699	0.701
10.711	0.662
10.7522	0.713
10.7933	0.759
10.8345	0.776
10.8756	0.781
10.9168	0.788
10.9579	0.79
10.9991	0.798
11.0403	0.796
11.0814	0.786
11.1226	0.776
11.1637	0.752
11.2049	0.668
11.246	0.581
11.2872	0.547
11.3284	0.459
11.3695	0.477
11.4107	0.587
11.4518	0.621
11.493	0.668
11.5341	0.718
11.5753	0.757
11.6165	0.767
11.6576	0.774
11.6988	0.776
11.7399	0.774
11.7811	0.773
11.8222	0.767
11.8634	0.759
11.9045	0.752
11.9457	0.738
11.9869	0.715
12.028	0.682
12.0692	0.65
12.1103	0.636
12.1515	0.634
12.1926	0.636
12.2338	0.638
12.275	0.619
12.3161	0.588
12.3573	0.544
12.3984	0.501
12.4396	0.459
12.4807	0.406
12.5219	0.319
12.563	0.216
12.6042	0.363
12.6454	0.563
12.6865	0.626
12.7277	0.646
12.7688	0.655
12.81	0.66
12.8511	0.658
12.8923	0.65
12.9335	0.645
12.9746	0.624
13.0158	0.587
13.0569	0.534
13.0981	0.484
13.1392	0.459
13.1804	0.474
13.2216	0.511
13.2627	0.535
13.3039	0.546
13.345	0.547
13.3862	0.549
13.4273	0.544
13.4685	0.535
13.5096	0.518
13.5508	0.506
13.592	0.493
13.6331	0.467
13.6743	0.438
13.7154	0.406
13.7566	0.365
13.7977	0.331
13.8389	0.308
13.8801	0.308
13.9212	0.331
13.9624	0.358
14.0035	0.378
14.0447	0.397
14.0858	0.406
14.127	0.412
14.1682	0.423
14.2093	0.438
14.2505	0.448
14.2916	0.462
14.3328	0.474
14.3739	0.486
14.4151	0.496
14.4562	0.498
14.4974	0.501
14.5386	0.508
14.5797	0.508
14.6209	0.508
14.662	0.506
14.7032	0.506
14.7443	0.508
14.7855	0.506
14.8267	0.5
14.8678	0.493
14.909	0.486
14.9501	0.476
14.9913	0.47
15.0324	0.459
15.0736	0.447
15.1147	0.43
15.1559	0.411
15.1971	0.38
15.2382	0.344
15.2794	0.295
15.3205	0.254
15.3617	0.233
15.4028	0.235
15.444	0.262
15.4852	0.298
15.5263	0.324
15.5675	0.344
15.6086	0.356
15.6498	0.36
15.6909	0.36
15.7321	0.36
15.7733	0.358
15.8144	0.353
15.8556	0.349
15.8967	0.354
