Infrared Spectrum: ISOPROTERENOL HYDROCHLORIDE
Formula: C11 H18 Cl N O3
State: SOLID (1.01 mg / 201 mg KCl DISC)
Melting point: 170-171 C
Class: COBLENTZ III
Instrument: PERKIN-ELMER 21 (GRATING)
Instrument parameters: FILTER AT ABOUT 10 MICRONS
Sampling: TRANSMISSION
Resolution: 2
1/CM	TRANSMITTANCE
4000	0.606
3991	0.6073
3982	0.6087
3973	0.6101
3964	0.6115
3955	0.613
3946	0.6143
3937	0.6158
3928	0.6171
3919	0.6185
3910	0.6199
3901	0.6215
3892	0.623
3883	0.6246
3874	0.6262
3865	0.628
3856	0.6301
3847	0.6322
3838	0.6341
3829	0.6362
3820	0.6383
3811	0.6405
3802	0.643
3793	0.6454
3784	0.6478
3775	0.6504
3766	0.6528
3757	0.6553
3748	0.6578
3739	0.6604
3730	0.6628
3721	0.6653
3712	0.6678
3703	0.6703
3694	0.6728
3685	0.6751
3676	0.6775
3667	0.6799
3658	0.6821
3649	0.6844
3640	0.6862
3631	0.6882
3622	0.69
3613	0.6905
3604	0.6903
3595	0.6901
3586	0.6893
3577	0.688
3568	0.6848
3559	0.6808
3550	0.6758
3541	0.6662
3532	0.6561
3523	0.6458
3514	0.6341
3505	0.6179
3496	0.5991
3487	0.5797
3478	0.5681
3469	0.557
3460	0.5474
3451	0.5375
3442	0.5268
3433	0.5159
3424	0.5001
3415	0.4834
3406	0.4673
3397	0.4419
3388	0.4193
3379	0.3984
3370	0.3782
3361	0.3586
3352	0.34
3343	0.3112
3334	0.2852
3325	0.2495
3316	0.2289
3307	0.2164
3298	0.2067
3289	0.1903
3280	0.174
3271	0.1496
3262	0.1302
3253	0.1176
3244	0.1074
3235	0.0976
3226	0.0871
3217	0.0741
3208	0.0604
3199	0.054
3190	0.0511
3181	0.0502
3172	0.0496
3163	0.0492
3154	0.0488
3145	0.0485
3136	0.0482
3127	0.0486
3118	0.0507
3109	0.0554
3100	0.0582
3091	0.0581
3082	0.0581
3073	0.0705
3064	0.0889
3055	0.1119
3046	0.1349
3037	0.1581
3028	0.1814
3019	0.2011
3010	0.2191
3001	0.224
2992	0.2259
2983	0.2269
2974	0.2138
2965	0.1863
2956	0.1771
2947	0.1717
2938	0.1702
2929	0.1742
2920	0.1885
2911	0.2025
2902	0.2184
2893	0.2377
2884	0.2588
2875	0.2811
2866	0.2982
2857	0.3053
2848	0.3102
2839	0.3062
2830	0.2887
2821	0.2604
2812	0.2345
2803	0.1896
2794	0.1751
2785	0.1661
2776	0.1614
2767	0.1604
2758	0.1709
2749	0.1894
2740	0.2089
2731	0.232
2722	0.2522
2713	0.2691
2704	0.2814
2695	0.2884
2686	0.2937
2677	0.3012
2668	0.3145
2659	0.3305
2650	0.3478
2641	0.3732
2632	0.3797
2623	0.3826
2614	0.3884
2605	0.395
2596	0.4024
2587	0.4114
2578	0.4215
2569	0.4355
2560	0.4503
2551	0.4595
2542	0.4702
2533	0.4774
2524	0.4812
2515	0.4835
2506	0.4848
2497	0.4891
2488	0.494
2479	0.4995
2470	0.5051
2461	0.5105
2452	0.5159
2443	0.5198
2434	0.5212
2425	0.5122
2416	0.4805
2407	0.47
2398	0.4981
2389	0.5194
2380	0.5291
2371	0.5331
2362	0.5367
2353	0.5412
2344	0.55
2335	0.5617
2326	0.5727
2317	0.5831
2308	0.5924
2299	0.6012
2290	0.6097
2281	0.6175
2272	0.6244
2263	0.6305
2254	0.6359
2245	0.6408
2236	0.6455
2227	0.6498
2218	0.6535
2209	0.6562
2200	0.6591
2191	0.6617
2182	0.6643
2173	0.6667
2164	0.6691
2155	0.6724
2146	0.6761
2137	0.68
2128	0.6825
2119	0.6848
2110	0.6868
2101	0.6874
2092	0.6876
2083	0.6855
2074	0.6828
2065	0.6824
2056	0.6843
2047	0.6894
2038	0.6928
2029	0.6924
2020	0.691
2011	0.6938
2002	0.6997
1993	0.706
1984	0.7097
1975	0.7107
1966	0.7124
1957	0.7145
1948	0.7168
1939	0.7192
1930	0.7221
1921	0.7304
1912	0.7308
1903	0.7287
1894	0.7308
1885	0.7338
1876	0.7354
1867	0.7338
1858	0.7265
1849	0.7188
1840	0.7251
1831	0.7319
1822	0.7372
1813	0.7421
1804	0.7446
1795	0.7443
1786	0.7485
1777	0.7528
1768	0.7568
1759	0.7587
1750	0.7525
1741	0.7408
1732	0.7354
1723	0.7449
1714	0.7558
1705	0.7611
1696	0.763
1687	0.7603
1678	0.7484
1669	0.7336
1660	0.7318
1651	0.726
1642	0.7088
1633	0.6295
1624	0.5334
1615	0.541
1606	0.2769
1597	0.5306
1588	0.6337
1579	0.6241
1570	0.6535
1561	0.6961
1552	0.6708
1543	0.5093
1534	0.246
1525	0.4969
1516	0.5429
1507	0.6051
1498	0.6675
1489	0.6572
1480	0.4741
1471	0.2814
1462	0.1642
1453	0.1814
1444	0.3384
1435	0.4259
1426	0.4221
1417	0.4446
1408	0.5205
1399	0.4189
1390	0.2568
1381	0.2362
1372	0.2811
1363	0.3329
1354	0.3526
1345	0.5069
1336	0.5482
1327	0.5671
1318	0.5205
1309	0.5605
1300	0.4005
1291	0.1663
1282	0.2816
1273	0.3618
1264	0.3003
1255	0.2487
1246	0.0866
1237	0.1853
1228	0.2126
1219	0.3539
1210	0.4152
1201	0.4131
1192	0.5001
1183	0.5288
1174	0.4744
1165	0.3839
1156	0.5066
1147	0.3421
1138	0.415
1129	0.4066
1120	0.5224
1111	0.463
1102	0.6082
1093	0.6519
1084	0.6583
1075	0.6408
1066	0.6385
1057	0.3126
1048	0.3084
1039	0.2122
1030	0.2981
1021	0.3243
1012	0.4134
1003	0.5832
994	0.6302
985	0.669
976	0.7015
967	0.7142
958	0.6755
949	0.6901
940	0.5303
931	0.6774
922	0.7194
913	0.6278
904	0.7193
895	0.7555
886	0.7597
877	0.7025
868	0.3287
859	0.6116
850	0.7117
841	0.7472
832	0.7547
823	0.5316
814	0.5005
805	0.6934
796	0.7205
787	0.4698
778	0.6675
769	0.7171
760	0.7086
751	0.6974
742	0.5803
733	0.6985
724	0.6515
715	0.6667
706	0.637
697	0.5834
688	0.5185
679	0.4778
670	0.4715
661	0.4478
