Infrared Spectrum: 4-(Delta'-CYCLOHEXENYL)-1-METHYL-ISONIPECOTONITRILE
Formula: C13 H20 N2
State: LIQUID
Class: COBLENTZ
Instrument: Not specified, most likely a prism, grating, or hybrid spectrometer.
Sampling: TRANSMISSION
Path length: 0.00125 CM
Resolution: 4
MICROMETERS	TRANSMITTANCE
2.026	0.895
2.06534	0.893
2.10467	0.893
2.14401	0.898
2.18334	0.898
2.22268	0.89
2.26201	0.869
2.30135	0.85
2.34068	0.848
2.38002	0.854
2.41935	0.858
2.45869	0.861
2.49802	0.861
2.53736	0.859
2.57669	0.87
2.61603	0.877
2.65536	0.88
2.6947	0.88
2.73404	0.867
2.77337	0.862
2.81271	0.862
2.85204	0.859
2.89138	0.845
2.93071	0.84
2.97005	0.832
3.00938	0.84
3.04872	0.838
3.08805	0.833
3.12739	0.827
3.16672	0.837
3.20606	0.806
3.24539	0.738
3.28473	0.695
3.32406	0.272
3.3634	0.041
3.40273	0.037
3.44207	0.141
3.48141	0.116
3.52074	0.229
3.56008	0.122
3.59941	0.254
3.63875	0.533
3.67808	0.55
3.71742	0.632
3.75675	0.706
3.79609	0.783
3.83542	0.832
3.87476	0.845
3.91409	0.84
3.95343	0.835
3.99276	0.841
4.0321	0.84
4.07143	0.848
4.11077	0.862
4.15011	0.861
4.18944	0.859
4.22878	0.861
4.26811	0.864
4.30745	0.861
4.34678	0.861
4.38612	0.848
4.42545	0.833
4.46479	0.648
4.50412	0.793
4.54346	0.837
4.58279	0.858
4.62213	0.864
4.66146	0.866
4.7008	0.869
4.74013	0.874
4.77947	0.87
4.81881	0.862
4.85814	0.856
4.89748	0.867
4.93681	0.869
4.97615	0.859
5.01548	0.872
5.05482	0.859
5.09415	0.87
5.13349	0.864
5.17282	0.861
5.21216	0.864
5.25149	0.859
5.29083	0.867
5.33016	0.869
5.3695	0.861
5.40883	0.862
5.44817	0.869
5.48751	0.867
5.52684	0.867
5.56618	0.869
5.60551	0.866
5.64485	0.856
5.68418	0.854
5.72352	0.851
5.76285	0.846
5.80219	0.838
5.84152	0.833
5.88086	0.83
5.92019	0.824
5.95953	0.824
5.99886	0.808
6.0382	0.809
6.07753	0.811
6.11687	0.812
6.1562	0.817
6.19554	0.822
6.23488	0.827
6.27421	0.833
6.31355	0.846
6.35288	0.848
6.39222	0.848
6.43155	0.84
6.47089	0.841
6.51022	0.846
6.54956	0.845
6.58889	0.832
6.62823	0.824
6.66756	0.801
6.7069	0.769
6.74623	0.669
6.78557	0.198
6.8249	0.246
6.86424	0.233
6.90358	0.122
6.94291	0.19
6.98225	0.361
7.02158	0.498
7.06092	0.679
7.10025	0.727
7.13959	0.729
7.17892	0.617
7.21826	0.304
7.25759	0.412
7.29693	0.562
7.33626	0.693
7.3756	0.58
7.41493	0.443
7.45427	0.529
7.4936	0.641
7.53294	0.712
7.57228	0.703
7.61161	0.675
7.65095	0.603
7.69028	0.432
7.72962	0.32
7.76895	0.122
7.80829	0.332
7.84762	0.459
7.88696	0.561
7.92629	0.727
7.96563	0.762
8.00496	0.759
8.0443	0.733
8.08363	0.78
8.12297	0.791
8.1623	0.8
8.20164	0.801
8.24098	0.779
8.28031	0.709
8.31965	0.611
8.35898	0.625
8.39832	0.608
8.43765	0.54
8.47699	0.509
8.51632	0.587
8.55566	0.68
8.59499	0.679
8.63433	0.564
8.67366	0.193
8.713	0.216
8.75233	0.329
8.79167	0.295
8.831	0.274
8.87034	0.356
8.90967	0.43
8.94901	0.508
8.98835	0.545
9.02768	0.612
9.06702	0.574
9.10635	0.462
9.14569	0.566
9.18502	0.661
9.22436	0.643
9.26369	0.585
9.30303	0.591
9.34236	0.48
9.3817	0.346
9.42103	0.495
9.46037	0.559
9.4997	0.561
9.53904	0.659
9.57837	0.685
9.61771	0.63
9.65705	0.587
9.69638	0.619
9.73572	0.679
9.77505	0.556
9.81439	0.538
9.85372	0.688
9.89306	0.741
9.93239	0.714
9.97173	0.601
10.0111	0.259
10.0504	0.391
10.0897	0.577
10.1291	0.691
10.1684	0.743
10.2077	0.751
10.2471	0.738
10.2864	0.675
10.3257	0.619
10.3651	0.675
10.4044	0.75
10.4438	0.79
10.4831	0.804
10.5224	0.785
10.5618	0.693
10.6011	0.646
10.6404	0.65
10.6798	0.653
10.7191	0.588
10.7584	0.556
10.7978	0.566
10.8371	0.512
10.8764	0.616
10.9158	0.69
10.9551	0.72
10.9944	0.756
11.0338	0.783
11.0731	0.817
11.1125	0.829
11.1518	0.832
11.1911	0.833
11.2305	0.825
11.2698	0.796
11.3091	0.727
11.3485	0.748
11.3878	0.8
11.4271	0.833
11.4665	0.843
11.5058	0.848
11.5451	0.848
11.5845	0.848
11.6238	0.845
11.6631	0.835
11.7025	0.83
11.7418	0.825
11.7812	0.808
11.8205	0.75
11.8598	0.662
11.8992	0.629
11.9385	0.672
11.9778	0.717
12.0172	0.708
12.0565	0.67
12.0958	0.698
12.1352	0.759
12.1745	0.791
12.2138	0.788
12.2532	0.772
12.2925	0.767
12.3318	0.761
12.3712	0.733
12.4105	0.669
12.4499	0.562
12.4892	0.519
12.5285	0.566
12.5679	0.638
12.6072	0.695
12.6465	0.708
12.6859	0.696
12.7252	0.632
12.7645	0.527
12.8039	0.406
12.8432	0.379
12.8825	0.396
12.9219	0.445
12.9612	0.525
13.0005	0.611
13.0399	0.672
13.0792	0.722
13.1186	0.762
13.1579	0.79
13.1972	0.803
13.2366	0.809
13.2759	0.82
13.3152	0.827
13.3546	0.825
13.3939	0.827
13.4332	0.827
13.4726	0.829
13.5119	0.83
13.5512	0.832
13.5906	0.832
13.6299	0.829
13.6692	0.824
13.7086	0.814
13.7479	0.801
13.7873	0.774
13.8266	0.72
13.8659	0.687
13.9053	0.703
13.9446	0.748
13.9839	0.79
14.0233	0.814
14.0626	0.82
14.1019	0.825
14.1413	0.829
14.1806	0.832
14.2199	0.832
14.2593	0.832
14.2986	0.83
14.3379	0.827
14.3773	0.825
14.4166	0.822
14.456	0.82
14.4953	0.814
14.5346	0.811
14.574	0.809
14.6133	0.808
14.6526	0.803
14.692	0.801
14.7313	0.798
14.7706	0.793
14.81	0.791
14.8493	0.785
14.8886	0.78
14.928	0.779
14.9673	0.783
15.0066	0.77
15.046	0.748
15.0853	0.741
15.1247	0.727
15.164	0.709
15.2033	0.706
15.2427	0.708
15.282	0.716
15.3213	0.719
15.3607	0.722
15.4	0.719
15.4393	0.716
