Infrared Spectrum: CHROME GREEN (DEEP)
Formula: Pb Cr O4  * Pb S O4
State: SOLID (2 mg / 300 mg CsI DISC)
Class: COBLENTZ III
Instrument: BECKMAN IR-12 (GRATING)
Sampling: TRANSMISSION
Resolution: 4
Origin: DESOTO CHEMICAL COATINGS, INC.
1/CM	TRANSMITTANCE
201.331	0.509
211.982	0.505
222.633	0.4551
233.284	0.2411
243.935	0.139
254.586	0.125
265.236	0.119
275.887	0.1499
286.538	0.2819
297.189	0.418
307.84	0.44
318.491	0.458
329.142	0.48
339.793	0.504
350.444	0.524
361.095	0.529
371.746	0.536
382.396	0.543
393.047	0.547
403.698	0.549
414.349	0.559
425	0.567
435.651	0.564
446.302	0.545
456.953	0.499
467.604	0.407
478.255	0.3231
488.906	0.1742
499.556	0.115
510.207	0.206
520.858	0.3
531.509	0.3909
542.16	0.4779
552.811	0.533
563.462	0.549
574.113	0.555
584.764	0.4712
595.415	0.3081
606.065	0.283
616.716	0.528
627.367	0.619
638.018	0.665
648.669	0.703
659.32	0.711
669.971	0.719
680.622	0.728
691.273	0.731
701.924	0.729
712.575	0.725
723.225	0.708
733.876	0.665
744.527	0.6041
755.178	0.543
765.829	0.519
776.48	0.491
787.131	0.432
797.782	0.384
808.433	0.348
819.084	0.324
829.735	0.278
840.385	0.246
851.036	0.182
861.687	0.166
872.338	0.159
882.989	0.169
893.64	0.178
904.291	0.182
914.942	0.199
925.593	0.267
936.244	0.38
946.895	0.512
957.545	0.608
968.196	0.643
978.847	0.625
989.498	0.604
1000.15	0.601
1010.8	0.6
1021.45	0.559
1032.1	0.499
1042.75	0.46
1053.4	0.426
1064.05	0.412
1074.71	0.428
1085.36	0.454
1096.01	0.464
1106.66	0.467
1117.31	0.47
1127.96	0.479
1138.61	0.505
1149.26	0.539
1159.91	0.575
1170.56	0.62
1181.21	0.66
1191.87	0.689
1202.52	0.725
1213.17	0.74
1223.82	0.769
1234.47	0.788
1245.12	0.82
1255.77	0.858
1266.42	0.882
1277.07	0.9
1287.72	0.902
1298.37	0.897
1309.03	0.886
1319.68	0.88
1330.33	0.87
1340.98	0.853
1351.63	0.822
1362.28	0.782
1372.93	0.765
1383.58	0.741
1394.23	0.6532
1404.88	0.4001
1415.53	0.217
1426.19	0.419
1436.84	0.6319
1447.49	0.711
1458.14	0.744
1468.79	0.769
1479.44	0.804
1490.09	0.838
1500.74	0.857
1511.39	0.862
1522.04	0.87
1532.69	0.868
1543.35	0.861
1554	0.853
1564.65	0.846
1575.3	0.826
1585.95	0.782
1596.6	0.7001
1607.25	0.5791
1617.9	0.516
1628.55	0.648
1639.2	0.692
1649.85	0.727
1660.51	0.753
1671.16	0.781
1681.81	0.812
1692.46	0.84
1703.11	0.868
1713.76	0.886
1724.41	0.898
1735.06	0.904
1745.71	0.912
1756.36	0.916
1767.01	0.917
1777.67	0.922
1788.32	0.922
1798.97	0.921
1809.62	0.917
1820.27	0.917
1830.92	0.913
1841.57	0.91
1852.22	0.909
1862.87	0.91
1873.52	0.912
1884.17	0.91
1894.83	0.908
1905.48	0.905
1916.13	0.902
1926.78	0.901
1937.43	0.892
1948.08	0.885
1958.73	0.872
1969.38	0.854
1980.03	0.829
1990.68	0.797
2001.33	0.7595
2011.99	0.719
2022.64	0.572
2033.29	0.3264
2043.94	0.0963
2054.59	0.0148
2065.24	0.0015
2075.89	0.001
2086.54	0.001
2097.19	0.0015
2107.84	0.0112
2118.49	0.156
2129.15	0.4277
2139.8	0.5436
2150.45	0.5868
2161.1	0.6794
2171.75	0.6996
2182.4	0.7021
2193.05	0.7212
2203.7	0.7596
2214.35	0.8016
2225	0.8216
2235.65	0.834
2246.31	0.843
2256.96	0.8486
2267.61	0.8496
2278.26	0.8512
2288.91	0.8508
2299.56	0.853
2310.21	0.8494
2320.86	0.8533
2331.51	0.858
2342.16	0.858
2352.81	0.86
2363.47	0.861
2374.12	0.8607
2384.77	0.8747
2395.42	0.89
2406.07	0.893
2416.72	0.894
2427.37	0.897
2438.02	0.898
2448.67	0.898
2459.32	0.898
2469.97	0.898
2480.63	0.898
2491.28	0.8963
2501.93	0.894
2512.58	0.893
2523.23	0.892
2533.88	0.889
2544.53	0.8843
2555.18	0.8803
2565.83	0.878
2576.48	0.8763
2587.13	0.874
2597.79	0.872
2608.44	0.87
2619.09	0.87
2629.74	0.8692
2640.39	0.868
2651.04	0.865
2661.69	0.8602
2672.34	0.8536
2682.99	0.8444
2693.64	0.8344
2704.29	0.833
2714.95	0.8338
2725.6	0.8322
2736.25	0.83
2746.9	0.828
2757.55	0.8252
2768.2	0.8202
2778.85	0.8172
2789.5	0.8095
2800.15	0.8003
2810.8	0.788
2821.45	0.786
2832.11	0.7824
2842.76	0.7783
2853.41	0.7607
2864.06	0.741
2874.71	0.7254
2885.36	0.725
2896.01	0.721
2906.66	0.7111
2917.31	0.6963
2927.96	0.67
2938.61	0.653
2949.27	0.6444
2959.92	0.6253
2970.57	0.6209
2981.22	0.6485
2991.87	0.66
3002.52	0.6562
3013.17	0.6471
3023.82	0.6333
3034.47	0.624
3045.12	0.62
3055.77	0.6151
3066.43	0.6001
3077.08	0.592
3087.73	0.5791
3098.38	0.5721
3109.03	0.549
3119.68	0.539
3130.33	0.517
3140.98	0.499
3151.63	0.483
3162.28	0.47
3172.93	0.452
3183.59	0.4429
3194.24	0.4179
3204.89	0.3979
3215.54	0.3799
3226.19	0.3587
3236.84	0.3435
3247.49	0.3238
3258.14	0.3079
3268.79	0.3001
3279.44	0.3141
3290.09	0.3282
3300.75	0.3432
3311.4	0.3522
3322.05	0.3509
3332.7	0.3458
3343.35	0.3398
3354	0.3266
3364.65	0.3138
3375.3	0.2989
3385.95	0.2937
3396.6	0.2867
3407.25	0.2778
3417.91	0.2709
3428.56	0.266
3439.21	0.267
3449.86	0.2701
3460.51	0.2751
3471.16	0.2822
3481.81	0.2981
3492.46	0.3085
3503.11	0.3263
3513.76	0.3383
3524.41	0.3589
3535.07	0.3787
3545.72	0.4013
3556.37	0.4279
3567.02	0.4499
3577.67	0.486
3588.32	0.5042
3598.97	0.5156
3609.62	0.6089
3620.27	0.6355
3630.92	0.6574
3641.57	0.6657
3652.23	0.6851
3662.88	0.7226
3673.53	0.7419
3684.18	0.769
3694.83	0.7875
3705.48	0.803
3716.13	0.8148
3726.78	0.8228
3737.43	0.828
3748.08	0.829
3758.73	0.8306
3769.39	0.834
3780.04	0.834
3790.69	0.836
3801.34	0.8386
3811.99	0.838
3822.64	0.838
3833.29	0.838
3843.94	0.84
3854.59	0.8426
3865.24	0.842
3875.89	0.84
3886.55	0.8403
3897.2	0.84
3907.85	0.8403
3918.5	0.841
3929.15	0.8406
3939.8	0.8373
3950.45	0.836
3961.1	0.8347
3971.75	0.8366
3982.4	0.8336
