Infrared Spectrum: TEREPHTHALIC ACID, DISODIUM SALT
Formula: C8 H4 O4 Na2
State: SOLID (KBr PELLET)
Class: COBLENTZ
Instrument: Not specified, most likely a prism, grating, or hybrid spectrometer.
Sampling: TRANSMISSION
Resolution: 4
Origin: TENNESSEE EASTMAN COMPANY, RESEARCH LABORATORIES
MICROMETERS	TRANSMITTANCE
2.007	0.43
2.04687	0.443
2.08673	0.463
2.1266	0.498
2.16646	0.511
2.20633	0.53
2.24619	0.545
2.28606	0.56
2.32593	0.575
2.36579	0.583
2.40566	0.593
2.44552	0.605
2.48539	0.618
2.52525	0.625
2.56512	0.633
2.60498	0.641
2.64485	0.653
2.68472	0.661
2.72458	0.661
2.76445	0.621
2.80431	0.59
2.84418	0.563
2.88404	0.533
2.92391	0.565
2.96378	0.603
3.00364	0.635
3.04351	0.668
3.08337	0.688
3.12324	0.703
3.1631	0.725
3.20297	0.738
3.24284	0.738
3.2827	0.75
3.32257	0.761
3.36243	0.753
3.4023	0.758
3.44216	0.798
3.48203	0.821
3.52189	0.843
3.56176	0.846
3.60163	0.851
3.64149	0.855
3.68136	0.873
3.72122	0.88
3.76109	0.881
3.80095	0.895
3.84082	0.903
3.88069	0.911
3.92055	0.911
3.96042	0.913
4.00028	0.915
4.04015	0.921
4.08001	0.938
4.11988	0.933
4.15975	0.938
4.19961	0.95
4.23948	0.933
4.27934	0.931
4.31921	0.94
4.35907	0.955
4.39894	0.956
4.4388	0.956
4.47867	0.956
4.51854	0.958
4.5584	0.955
4.59827	0.956
4.63813	0.956
4.678	0.953
4.71786	0.955
4.75773	0.955
4.7976	0.955
4.83746	0.953
4.87733	0.95
4.91719	0.953
4.95706	0.955
4.99692	0.955
5.03679	0.951
5.07666	0.901
5.11652	0.923
5.15639	0.941
5.19625	0.95
5.23612	0.951
5.27598	0.955
5.31585	0.956
5.35571	0.946
5.39558	0.946
5.43545	0.938
5.47531	0.94
5.51518	0.938
5.55504	0.936
5.59491	0.925
5.63477	0.905
5.67464	0.881
5.71451	0.831
5.75437	0.82
5.79424	0.818
5.8341	0.796
5.87397	0.756
5.91383	0.743
5.9537	0.753
5.99357	0.755
6.03343	0.728
6.0733	0.648
6.11316	0.658
6.15303	0.608
6.19289	0.506
6.23276	0.356
6.27262	0.12
6.31249	0.021
6.35236	0.011
6.39222	0.01
6.43209	0.011
6.47195	0.068
6.51182	0.186
6.55168	0.295
6.59155	0.326
6.63142	0.368
6.67128	0.545
6.71115	0.6
6.75101	0.596
6.79088	0.586
6.83074	0.533
6.87061	0.478
6.91048	0.486
6.95034	0.443
6.99021	0.33
7.03007	0.16
7.06994	0.03
7.1098	0.011
7.14967	0.013
7.18953	0.018
7.2294	0.048
7.26927	0.156
7.30913	0.198
7.349	0.26
7.38886	0.416
7.42873	0.543
7.46859	0.62
7.50846	0.671
7.54833	0.496
7.58819	0.416
7.62806	0.506
7.66792	0.555
7.70779	0.588
7.74765	0.64
7.78752	0.695
7.82739	0.733
7.86725	0.755
7.90712	0.778
7.94698	0.795
7.98685	0.798
8.02671	0.818
8.06658	0.826
8.10644	0.831
8.14631	0.838
8.18618	0.843
8.22604	0.838
8.26591	0.835
8.30577	0.825
8.34564	0.833
8.3855	0.825
8.42537	0.828
8.46524	0.833
8.5051	0.831
8.54497	0.83
8.58483	0.833
8.6247	0.82
8.66456	0.783
8.70443	0.816
8.7443	0.836
8.78416	0.836
8.82403	0.82
8.86389	0.79
8.90376	0.74
8.94362	0.73
8.98349	0.703
9.02335	0.655
9.06322	0.631
9.10309	0.69
9.14295	0.743
9.18282	0.791
9.22268	0.826
9.26255	0.843
9.30241	0.846
9.34228	0.846
9.38215	0.846
9.42201	0.851
9.46188	0.871
9.50174	0.89
9.54161	0.886
9.58147	0.878
9.62134	0.878
9.66121	0.871
9.70107	0.793
9.74094	0.543
9.7808	0.731
9.82067	0.84
9.86053	0.873
9.9004	0.89
9.94026	0.893
9.98013	0.898
10.02	0.898
10.0599	0.901
10.0997	0.905
10.1396	0.903
10.1795	0.905
10.2193	0.856
10.2592	0.89
10.2991	0.918
10.3389	0.925
10.3788	0.925
10.4187	0.928
10.4585	0.933
10.4984	0.938
10.5382	0.943
10.5781	0.943
10.618	0.943
10.6578	0.945
10.6977	0.948
10.7376	0.953
10.7774	0.955
10.8173	0.956
10.8572	0.958
10.897	0.958
10.9369	0.96
10.9768	0.961
11.0166	0.96
11.0565	0.923
11.0964	0.816
11.1362	0.535
11.1761	0.59
11.216	0.803
11.2558	0.853
11.2957	0.845
11.3356	0.806
11.3754	0.893
11.4153	0.916
11.4552	0.916
11.495	0.931
11.5349	0.961
11.5748	0.966
11.6146	0.961
11.6545	0.953
11.6944	0.918
11.7342	0.856
11.7741	0.871
11.814	0.9
11.8538	0.885
11.8937	0.826
11.9335	0.733
11.9734	0.575
12.0133	0.331
12.0531	0.136
12.093	0.11
12.1329	0.333
12.1727	0.601
12.2126	0.73
12.2525	0.808
12.2923	0.846
12.3322	0.876
12.3721	0.903
12.4119	0.915
12.4518	0.921
12.4917	0.926
12.5315	0.93
12.5714	0.935
12.6113	0.938
12.6511	0.938
12.691	0.938
12.7309	0.938
12.7707	0.936
12.8106	0.93
12.8505	0.928
12.8903	0.916
12.9302	0.901
12.9701	0.878
13.0099	0.828
13.0498	0.723
13.0897	0.506
13.1295	0.386
13.1694	0.46
13.2092	0.438
13.2491	0.253
13.289	0.095
13.3288	0.043
13.3687	0.05
13.4086	0.146
13.4484	0.313
13.4883	0.46
13.5282	0.57
13.568	0.678
13.6079	0.753
13.6478	0.805
13.6876	0.823
13.7275	0.84
13.7674	0.853
13.8072	0.861
13.8471	0.876
13.887	0.885
13.9268	0.89
13.9667	0.9
14.0066	0.905
14.0464	0.908
14.0863	0.911
14.1262	0.913
14.166	0.915
14.2059	0.916
14.2458	0.916
14.2856	0.915
14.3255	0.911
14.3654	0.903
14.4052	0.9
14.4451	0.891
14.4849	0.886
14.5248	0.883
14.5647	0.876
14.6045	0.866
14.6444	0.861
14.6843	0.853
14.7241	0.851
14.764	0.848
14.8039	0.84
14.8437	0.836
14.8836	0.83
14.9235	0.811
14.9633	0.793
15.0032	0.776
15.0431	0.776
15.0829	0.773
15.1228	0.765
15.1627	0.746
15.2025	0.731
15.2424	0.725
15.2823	0.715
15.3221	0.7
15.362	0.691
15.4019	0.681
15.4417	0.675
15.4816	0.661
15.5215	0.648
15.5613	0.646
15.6012	0.638
15.6411	0.633
15.6809	0.626
15.7208	0.618
15.7607	0.61
15.8005	0.598
15.8404	0.59
15.8802	0.58
15.9201	0.576
15.96	0.566
