Infrared Spectrum: UREA OXALATE
Formula: ( N H2 C O N H2)2  * ( C O O H)2
State: SOLID (KBr DISC)
Class: COBLENTZ
Instrument: Not specified, most likely a prism, grating, or hybrid spectrometer.
Sampling: TRANSMISSION
Resolution: 4
MICROMETERS	TRANSMITTANCE
2.005	0.887
2.04307	0.891
2.08114	0.909
2.11921	0.921
2.15728	0.925
2.19535	0.93
2.23342	0.937
2.27149	0.946
2.30957	0.958
2.34764	0.962
2.38571	0.968
2.42378	0.979
2.46185	0.983
2.49992	0.983
2.53799	0.983
2.57606	0.986
2.61413	0.989
2.6522	0.986
2.69027	0.986
2.72834	0.961
2.76641	0.921
2.80448	0.81
2.84255	0.638
2.88062	0.394
2.9187	0.127
2.95677	0.072
2.99484	0.186
3.03291	0.2
3.07098	0.271
3.10905	0.231
3.14712	0.32
3.18519	0.49
3.22326	0.601
3.26133	0.715
3.2994	0.751
3.33747	0.776
3.37554	0.797
3.41361	0.807
3.45168	0.802
3.48975	0.791
3.52783	0.77
3.5659	0.765
3.60397	0.762
3.64204	0.76
3.68011	0.757
3.71818	0.755
3.75625	0.755
3.79432	0.751
3.83239	0.749
3.87046	0.74
3.90853	0.727
3.9466	0.711
3.98467	0.693
4.02274	0.681
4.06081	0.665
4.09888	0.65
4.13696	0.635
4.17503	0.632
4.2131	0.629
4.25117	0.631
4.28924	0.635
4.32731	0.641
4.36538	0.666
4.40345	0.691
4.44152	0.712
4.47959	0.728
4.51766	0.743
4.55573	0.748
4.5938	0.754
4.63187	0.758
4.66994	0.762
4.70801	0.762
4.74609	0.762
4.78416	0.76
4.82223	0.743
4.8603	0.718
4.89837	0.694
4.93644	0.666
4.97451	0.642
5.01258	0.623
5.05065	0.604
5.08872	0.591
5.12679	0.577
5.16486	0.557
5.20293	0.542
5.241	0.524
5.27907	0.505
5.31715	0.493
5.35522	0.48
5.39329	0.462
5.43136	0.451
5.46943	0.442
5.5075	0.431
5.54557	0.42
5.58364	0.4
5.62171	0.36
5.65978	0.33
5.69785	0.28
5.73592	0.217
5.77399	0.154
5.81206	0.097
5.85013	0.082
5.8882	0.077
5.92628	0.08
5.96435	0.084
6.00242	0.063
6.04049	0.05
6.07856	0.045
6.11663	0.044
6.1547	0.048
6.19277	0.146
6.23084	0.285
6.26891	0.389
6.30698	0.413
6.34505	0.417
6.38312	0.407
6.42119	0.386
6.45926	0.352
6.49733	0.325
6.53541	0.244
6.57348	0.216
6.61155	0.213
6.64962	0.223
6.68769	0.278
6.72576	0.302
6.76383	0.311
6.8019	0.314
6.83997	0.349
6.87804	0.36
6.91611	0.377
6.95418	0.407
6.99225	0.426
7.03032	0.435
7.06839	0.444
7.10646	0.444
7.14454	0.448
7.18261	0.451
7.22068	0.459
7.25875	0.459
7.29682	0.462
7.33489	0.465
7.37296	0.469
7.41103	0.471
7.4491	0.466
7.48717	0.463
7.52524	0.463
7.56331	0.463
7.60138	0.463
7.63945	0.468
7.67752	0.474
7.71559	0.48
7.75367	0.49
7.79174	0.494
7.82981	0.472
7.86788	0.42
7.90595	0.364
7.94402	0.305
7.98209	0.272
8.02016	0.244
8.05823	0.235
8.0963	0.231
8.13437	0.229
8.17244	0.229
8.21051	0.229
8.24858	0.229
8.28665	0.229
8.32473	0.232
8.3628	0.232
8.40087	0.232
8.43894	0.231
8.47701	0.228
8.51508	0.228
8.55315	0.231
8.59122	0.232
8.62929	0.232
8.66736	0.226
8.70543	0.217
8.7435	0.207
8.78157	0.204
8.81964	0.201
8.85771	0.201
8.89578	0.201
8.93386	0.201
8.97193	0.201
9.01	0.2
9.04807	0.201
9.08614	0.201
9.12421	0.195
9.16228	0.186
9.20035	0.183
9.23842	0.18
9.27649	0.176
9.31456	0.176
9.35263	0.177
9.3907	0.18
9.42877	0.189
9.46684	0.195
9.50491	0.201
9.54299	0.21
9.58106	0.222
9.61913	0.229
9.6572	0.24
9.69527	0.241
9.73334	0.241
9.77141	0.213
9.80948	0.194
9.84755	0.208
9.88562	0.229
9.92369	0.242
9.96176	0.25
9.99983	0.26
10.0379	0.268
10.076	0.269
10.114	0.275
10.1521	0.281
10.1902	0.284
10.2283	0.285
10.2663	0.288
10.3044	0.291
10.3425	0.296
10.3805	0.3
10.4186	0.303
10.4567	0.305
10.4948	0.308
10.5328	0.311
10.5709	0.315
10.609	0.318
10.647	0.321
10.6851	0.322
10.7232	0.325
10.7612	0.327
10.7993	0.328
10.8374	0.333
10.8755	0.339
10.9135	0.34
10.9516	0.343
10.9897	0.346
11.0277	0.349
11.0658	0.352
11.1039	0.357
11.142	0.361
11.18	0.364
11.2181	0.368
11.2562	0.371
11.2942	0.376
11.3323	0.382
11.3704	0.388
11.4084	0.392
11.4465	0.4
11.4846	0.402
11.5227	0.404
11.5607	0.407
11.5988	0.411
11.6369	0.417
11.6749	0.422
11.713	0.426
11.7511	0.429
11.7892	0.432
11.8272	0.437
11.8653	0.44
11.9034	0.442
11.9414	0.445
11.9795	0.45
12.0176	0.454
12.0556	0.459
12.0937	0.463
12.1318	0.468
12.1699	0.474
12.2079	0.477
12.246	0.484
12.2841	0.493
12.3221	0.5
12.3602	0.505
12.3983	0.509
12.4364	0.512
12.4744	0.515
12.5125	0.521
12.5506	0.525
12.5886	0.525
12.6267	0.525
12.6648	0.525
12.7028	0.52
12.7409	0.491
12.779	0.462
12.8171	0.414
12.8551	0.371
12.8932	0.389
12.9313	0.459
12.9693	0.512
13.0074	0.543
13.0455	0.565
13.0836	0.579
13.1216	0.586
13.1597	0.595
13.1978	0.597
13.2358	0.598
13.2739	0.598
13.312	0.598
13.35	0.594
13.3881	0.589
13.4262	0.577
13.4643	0.555
13.5023	0.531
13.5404	0.466
13.5785	0.413
13.6165	0.352
13.6546	0.312
13.6927	0.306
13.7308	0.33
13.7688	0.382
13.8069	0.423
13.845	0.453
13.883	0.475
13.9211	0.493
13.9592	0.512
13.9972	0.522
14.0353	0.534
14.0734	0.539
14.1115	0.548
14.1495	0.555
14.1876	0.56
14.2257	0.565
14.2637	0.573
14.3018	0.576
14.3399	0.577
14.378	0.582
14.416	0.588
14.4541	0.591
14.4922	0.592
14.5302	0.595
14.5683	0.601
14.6064	0.6
14.6445	0.6
14.6825	0.601
14.7206	0.602
14.7587	0.605
14.7967	0.605
14.8348	0.607
14.8729	0.608
14.9109	0.61
14.949	0.614
14.9871	0.629
