Infrared Spectrum: 1,3-Benzenediamine, N,N'-diphenyl-, monohydrochloride
Formula: C18 H17 Cl N2
State: SOLID (KBr DISC, 0.8% WT.)
Class: COBLENTZ III
Instrument: PERKIN-ELMER 157
Sampling: TRANSMISSION
Resolution: 2
Origin: BRITISH PETROLEUM CO. LTD., ENGLAND
1/CM	TRANSMITTANCE
668	0.3778
677	0.2203
686	0.0334
695	0.2026
704	0.3504
713	0.5675
722	0.3951
731	0.0558
740	0.1231
749	0.0265
758	0.4119
767	0.1727
776	0.3347
785	0.227
794	0.7196
803	0.6461
812	0.6524
821	0.6524
830	0.4375
839	0.6406
848	0.5761
857	0.26
866	0.5459
875	0.6829
884	0.6745
893	0.6256
902	0.42
911	0.6441
920	0.6451
929	0.6176
938	0.6005
947	0.5656
956	0.5137
965	0.3949
974	0.5236
983	0.3959
992	0.2852
1001	0.231
1010	0.5533
1019	0.4501
1028	0.2743
1037	0.5673
1046	0.5541
1055	0.518
1064	0.4679
1073	0.3282
1082	0.3774
1091	0.4696
1100	0.4198
1109	0.4695
1118	0.4678
1127	0.4461
1136	0.4232
1145	0.369
1154	0.2584
1163	0.0909
1172	0.3142
1181	0.2276
1190	0.3568
1199	0.4767
1208	0.4564
1217	0.4089
1226	0.3672
1235	0.2613
1244	0.3051
1253	0.3458
1262	0.3313
1271	0.2903
1280	0.2099
1289	0.1818
1298	0.0837
1307	0.0855
1316	0.126
1325	0.2162
1334	0.1755
1343	0.0935
1352	0.2011
1361	0.0451
1370	0.0649
1379	0.312
1388	0.2704
1397	0.2633
1406	0.236
1415	0.1427
1424	0.0899
1433	0.1696
1442	0.2279
1451	0.1755
1460	0.0613
1469	0.0289
1478	0.0235
1487	0.023
1496	0.0299
1505	0.0813
1514	0.1442
1523	0.0775
1532	0.0405
1541	0.0932
1550	0.175
1559	0.127
1568	0.0536
1577	0.1083
1586	0.0641
1595	0.0222
1604	0.0285
1613	0.0737
1622	0.0852
1631	0.0434
1640	0.1537
1649	0.4504
1658	0.5916
1667	0.6407
1676	0.6783
1685	0.679
1694	0.6629
1703	0.6483
1712	0.6171
1721	0.5805
1730	0.5763
1739	0.5911
1748	0.5963
1757	0.5969
1766	0.5929
1775	0.5712
1784	0.5473
1793	0.5329
1802	0.525
1811	0.5242
1820	0.5189
1829	0.5023
1838	0.4902
1847	0.474
1856	0.4688
1865	0.4511
1874	0.4507
1883	0.4507
1892	0.4483
1901	0.4404
1910	0.4312
1919	0.4168
1928	0.3917
1937	0.3696
1946	0.3679
1955	0.3659
1964	0.3565
1973	0.3475
1982	0.3421
1991	0.3339
2000	0.3286
2009	0.3263
2018	0.3186
2027	0.306
2036	0.3014
2045	0.3162
2054	0.3281
2063	0.3298
2072	0.3276
2081	0.3268
2090	0.3278
2099	0.3288
2108	0.3295
2117	0.3271
2126	0.3208
2135	0.3152
2144	0.3075
2153	0.2982
2162	0.2871
2171	0.2756
2180	0.2668
2189	0.2591
2198	0.2501
2207	0.2404
2216	0.2306
2225	0.2205
2234	0.21
2243	0.1998
2252	0.187
2261	0.1701
2270	0.1494
2279	0.1342
2288	0.1194
2297	0.1096
2306	0.0995
2315	0.0882
2324	0.0766
2333	0.0641
2342	0.052
2351	0.0453
2360	0.0423
2369	0.0411
2378	0.0405
2387	0.04
2396	0.0358
2405	0.0292
2414	0.025
2423	0.0221
2432	0.0205
2441	0.0197
2450	0.0189
2459	0.0185
2468	0.0181
2477	0.0181
2486	0.0181
2495	0.0181
2504	0.0181
2513	0.0181
2522	0.0181
2531	0.0182
2540	0.0185
2549	0.0189
2558	0.0192
2567	0.0196
2576	0.0199
2585	0.0202
2594	0.0205
2603	0.0208
2612	0.0211
2621	0.0215
2630	0.022
2639	0.0233
2648	0.0252
2657	0.0292
2666	0.0342
2675	0.0369
2684	0.038
2693	0.0382
2702	0.0383
2711	0.0385
2720	0.04
2729	0.0483
2738	0.0572
2747	0.0607
2756	0.0626
2765	0.0633
2774	0.0632
2783	0.0684
2792	0.0799
2801	0.0864
2810	0.0876
2819	0.0882
2828	0.0885
2837	0.0996
2846	0.117
2855	0.1343
2864	0.1514
2873	0.1685
2882	0.1716
2891	0.1739
2900	0.1984
2909	0.2251
2918	0.2516
2927	0.2673
2936	0.2701
2945	0.2733
2954	0.2813
2963	0.2914
2972	0.2913
2981	0.2796
2990	0.2645
2999	0.2495
3008	0.2387
3017	0.2354
3026	0.2348
3035	0.249
3044	0.2655
3053	0.2819
3062	0.2903
3071	0.2892
3080	0.2872
3089	0.2842
3098	0.2804
3107	0.2769
3116	0.277
3125	0.2842
3134	0.2908
3143	0.2904
3152	0.2813
3161	0.2677
3170	0.2542
3179	0.2411
3188	0.2371
3197	0.2349
3206	0.2257
3215	0.2159
3224	0.2001
3233	0.1706
3242	0.1413
3251	0.1121
3260	0.0792
3269	0.0696
3278	0.0628
3287	0.0609
3296	0.0763
3305	0.1231
3314	0.1697
3323	0.216
3332	0.2621
3341	0.3017
3350	0.3125
3359	0.3144
3368	0.314
3377	0.3121
3386	0.3097
3395	0.308
3404	0.307
3413	0.3063
3422	0.3058
3431	0.3055
3440	0.3056
3449	0.3057
3458	0.3058
3467	0.306
3476	0.3063
3485	0.3066
3494	0.3069
3503	0.3075
3512	0.3081
3521	0.3086
3530	0.3095
3539	0.3103
3548	0.3111
3557	0.312
3566	0.3127
3575	0.3134
3584	0.3136
3593	0.3139
3602	0.314
3611	0.314
3620	0.3139
3629	0.3136
3638	0.3131
3647	0.3125
3656	0.3115
3665	0.31
3674	0.3085
3683	0.307
3692	0.3055
3701	0.304
3710	0.3025
3719	0.3012
3728	0.2999
3737	0.299
3746	0.2985
3755	0.2982
3764	0.2981
3773	0.2977
3782	0.297
3791	0.2956
3800	0.2942
3809	0.2926
3818	0.291
3827	0.2889
3836	0.2863
3845	0.2834
3854	0.2807
3863	0.2781
3872	0.2758
3881	0.2742
3890	0.2728
3899	0.2717
3908	0.2711
3917	0.271
3926	0.2708
3935	0.2706
3944	0.2702
3953	0.2699
3962	0.2695
3971	0.2689
3980	0.2679
3989	0.2669
3998	0.2659
