Infrared Spectrum: ALANINE, N,N'-(DITHIODIETHYLENE)DI-
Formula: C10 H20 N2 O4 S2
State: SOLID (1 mg / 650 mg KBr DISC)
Class: COBLENTZ III
Instrument: PERKIN-ELMER 221 (GRATING)
Instrument parameters: FILTER CHANGES AT 2490, 980 CM^-^1, GRATING FOR 4000-1428 CM^-^1, NaCl PRISM FOR 1428-650 CM^-^1
Sampling: TRANSMISSION
Resolution: 4
Origin: SOUTHERN RESEARCH INST.
1/CM	TRANSMITTANCE
597.966	0.796
607.532	0.794
617.097	0.789
626.663	0.742
636.229	0.699
645.794	0.801
655.36	0.85
664.926	0.862
674.492	0.874
684.057	0.877
693.623	0.88
703.189	0.878
712.754	0.87
722.32	0.854
731.886	0.854
741.451	0.859
751.017	0.79
760.583	0.733
770.148	0.778
779.714	0.761
789.28	0.859
798.846	0.841
808.411	0.799
817.977	0.852
827.543	0.823
837.108	0.802
846.674	0.683
856.24	0.528
865.805	0.74
875.371	0.843
884.937	0.829
894.502	0.773
904.068	0.773
913.634	0.832
923.2	0.851
932.765	0.868
942.331	0.867
951.897	0.866
961.462	0.864
971.028	0.846
980.594	0.835
990.159	0.827
999.725	0.815
1009.29	0.769
1018.86	0.777
1028.42	0.828
1037.99	0.819
1047.55	0.77
1057.12	0.732
1066.68	0.773
1076.25	0.744
1085.82	0.62
1095.38	0.744
1104.95	0.791
1114.51	0.775
1124.08	0.704
1133.64	0.722
1143.21	0.78
1152.78	0.816
1162.34	0.81
1171.91	0.762
1181.47	0.667
1191.04	0.77
1200.6	0.811
1210.17	0.805
1219.74	0.774
1229.3	0.694
1238.87	0.738
1248.43	0.768
1258	0.751
1267.56	0.543
1277.13	0.628
1286.7	0.609
1296.26	0.58
1305.83	0.643
1315.39	0.694
1324.96	0.555
1334.52	0.53
1344.09	0.26
1353.66	0.199
1363.22	0.379
1372.79	0.534
1382.35	0.374
1391.92	0.264
1401.48	0.459
1411.05	0.55
1420.62	0.564
1430.18	0.585
1439.75	0.635
1449.31	0.534
1458.88	0.498
1468.44	0.519
1478.01	0.568
1487.58	0.641
1497.14	0.618
1506.71	0.567
1516.27	0.538
1525.84	0.479
1535.4	0.399
1544.97	0.391
1554.54	0.381
1564.1	0.306
1573.67	0.166
1583.23	0.129
1592.8	0.124
1602.36	0.164
1611.93	0.146
1621.5	0.11
1631.06	0.176
1640.63	0.343
1650.19	0.514
1659.76	0.606
1669.32	0.675
1678.89	0.718
1688.46	0.755
1698.02	0.763
1707.59	0.779
1717.15	0.79
1726.72	0.801
1736.28	0.808
1745.85	0.821
1755.41	0.835
1764.98	0.846
1774.55	0.848
1784.11	0.849
1793.68	0.847
1803.24	0.847
1812.81	0.847
1822.37	0.847
1831.94	0.847
1841.51	0.846
1851.07	0.845
1860.64	0.843
1870.2	0.843
1879.77	0.841
1889.33	0.833
1898.9	0.829
1908.47	0.824
1918.03	0.82
1927.6	0.815
1937.16	0.81
1946.73	0.805
1956.29	0.801
1965.86	0.797
1975.43	0.795
1984.99	0.793
1994.56	0.793
2004.12	0.792
2013.69	0.785
2023.25	0.773
2032.82	0.766
2042.39	0.763
2051.95	0.76
2061.52	0.758
2071.08	0.746
2080.65	0.742
2090.21	0.732
2099.78	0.721
2109.35	0.711
2118.91	0.707
2128.48	0.698
2138.04	0.685
2147.61	0.672
2157.17	0.659
2166.74	0.653
2176.31	0.649
2185.87	0.645
2195.44	0.637
2205	0.631
2214.57	0.62
2224.13	0.61
2233.7	0.595
2243.27	0.587
2252.83	0.572
2262.4	0.566
2271.96	0.564
2281.53	0.564
2291.09	0.562
2300.66	0.558
2310.23	0.538
2319.79	0.53
2329.36	0.52
2338.92	0.521
2348.49	0.523
2358.05	0.526
2367.62	0.53
2377.18	0.536
2386.75	0.541
2396.32	0.547
2405.88	0.55
2415.45	0.554
2425.01	0.558
2434.58	0.56
2444.14	0.562
2453.71	0.564
2463.28	0.568
2472.84	0.573
2482.41	0.576
2491.97	0.579
2501.54	0.583
2511.1	0.589
2520.67	0.591
2530.24	0.587
2539.8	0.578
2549.37	0.569
2558.93	0.567
2568.5	0.568
2578.06	0.57
2587.63	0.571
2597.2	0.572
2606.76	0.573
2616.33	0.574
2625.89	0.573
2635.46	0.572
2645.02	0.572
2654.59	0.572
2664.16	0.578
2673.72	0.595
2683.29	0.598
2692.85	0.591
2702.42	0.583
2711.98	0.569
2721.55	0.561
2731.12	0.564
2740.68	0.57
2750.25	0.572
2759.81	0.573
2769.38	0.575
2778.94	0.573
2788.51	0.571
2798.08	0.568
2807.64	0.569
2817.21	0.556
2826.77	0.534
2836.34	0.521
2845.9	0.497
2855.47	0.492
2865.04	0.493
2874.6	0.492
2884.17	0.532
2893.73	0.563
2903.3	0.532
2912.86	0.468
2922.43	0.541
2932	0.541
2941.56	0.513
2951.13	0.498
2960.69	0.526
2970.26	0.534
2979.82	0.534
2989.39	0.541
2998.96	0.552
3008.52	0.553
3018.09	0.541
3027.65	0.516
3037.22	0.496
3046.78	0.47
3056.35	0.455
3065.91	0.45
3075.48	0.456
3085.05	0.492
3094.61	0.536
3104.18	0.572
3113.74	0.606
3123.31	0.635
3132.87	0.663
3142.44	0.687
3152.01	0.707
3161.57	0.725
3171.14	0.739
3180.7	0.751
3190.27	0.76
3199.83	0.771
3209.4	0.777
3218.97	0.776
3228.53	0.775
3238.1	0.775
3247.66	0.776
3257.23	0.775
3266.79	0.773
3276.36	0.771
3285.93	0.769
3295.49	0.767
3305.06	0.763
3314.62	0.762
3324.19	0.76
3333.75	0.757
3343.32	0.744
3352.89	0.737
3362.45	0.725
3372.02	0.715
3381.58	0.708
3391.15	0.692
3400.71	0.689
3410.28	0.685
3419.85	0.682
3429.41	0.681
3438.98	0.683
3448.54	0.685
3458.11	0.687
3467.67	0.693
3477.24	0.697
3486.81	0.702
3496.37	0.708
3505.94	0.715
3515.5	0.731
3525.07	0.74
3534.63	0.745
3544.2	0.756
3553.77	0.76
3563.33	0.772
3572.9	0.782
3582.46	0.791
3592.03	0.8
3601.59	0.811
3611.16	0.816
3620.73	0.825
3630.29	0.832
3639.86	0.843
3649.42	0.845
3658.99	0.847
3668.55	0.847
3678.12	0.848
3687.68	0.851
3697.25	0.853
3706.82	0.853
3716.38	0.853
3725.95	0.853
3735.51	0.854
3745.08	0.854
3754.64	0.854
3764.21	0.855
3773.78	0.856
3783.34	0.856
3792.91	0.856
3802.47	0.855
3812.04	0.855
3821.6	0.854
3831.17	0.854
3840.74	0.854
3850.3	0.854
3859.87	0.854
3869.43	0.854
3879	0.854
3888.56	0.854
3898.13	0.853
3907.7	0.852
3917.26	0.852
3926.83	0.852
3936.39	0.851
3945.96	0.851
3955.52	0.851
3965.09	0.851
3974.66	0.851
3984.22	0.851
3993.79	0.851
