Infrared Spectrum: ACETIC ACID, CALCIUM SALT, HYDRATE
Formula: C4 H6 O4 Ca  * H2 O
State: SOLID (MINERAL OIL MULL)
Class: COBLENTZ
Instrument: Not specified, most likely a prism, grating, or hybrid spectrometer.
Sampling: TRANSMISSION
Resolution: 4
Origin: BELL TELEPHONE LABORATORIES- F. VRATNY
MICROMETERS	TRANSMITTANCE
2.06	0.83
2.09323	0.824
2.12646	0.82
2.15969	0.825
2.19292	0.822
2.22616	0.8
2.25939	0.768
2.29262	0.745
2.32585	0.737
2.35908	0.749
2.39231	0.748
2.42554	0.743
2.45877	0.749
2.49201	0.753
2.52524	0.753
2.55847	0.757
2.5917	0.754
2.62493	0.758
2.65816	0.754
2.69139	0.753
2.72462	0.719
2.75786	0.644
2.79109	0.519
2.82432	0.362
2.85755	0.276
2.89078	0.243
2.92401	0.211
2.95724	0.171
2.99047	0.143
3.02371	0.139
3.05694	0.131
3.09017	0.137
3.1234	0.141
3.15663	0.138
3.18986	0.139
3.22309	0.159
3.25632	0.198
3.28955	0.229
3.32279	0.23
3.35602	0.171
3.38925	0.093
3.42248	0.074
3.45571	0.055
3.48894	0.051
3.52217	0.055
3.5554	0.315
3.58864	0.471
3.62187	0.555
3.6551	0.587
3.68833	0.6
3.72156	0.62
3.75479	0.633
3.78802	0.652
3.82125	0.66
3.85449	0.68
3.88772	0.684
3.92095	0.688
3.95418	0.685
3.98741	0.687
4.02064	0.691
4.05387	0.693
4.0871	0.695
4.12034	0.685
4.15357	0.681
4.1868	0.672
4.22003	0.672
4.25326	0.689
4.28649	0.687
4.31972	0.689
4.35295	0.68
4.38618	0.685
4.41942	0.679
4.45265	0.695
4.48588	0.695
4.51911	0.697
4.55234	0.703
4.58557	0.712
4.6188	0.712
4.65203	0.713
4.68527	0.712
4.7185	0.716
4.75173	0.721
4.78496	0.72
4.81819	0.719
4.85142	0.721
4.88465	0.719
4.91788	0.716
4.95112	0.715
4.98435	0.712
5.01758	0.712
5.05081	0.703
5.08404	0.7
5.11727	0.7
5.1505	0.701
5.18373	0.697
5.21697	0.691
5.2502	0.685
5.28343	0.683
5.31666	0.675
5.34989	0.651
5.38312	0.659
5.41635	0.652
5.44958	0.643
5.48281	0.624
5.51605	0.609
5.54928	0.599
5.58251	0.581
5.61574	0.571
5.64897	0.544
5.6822	0.532
5.71543	0.495
5.74866	0.452
5.7819	0.424
5.81513	0.35
5.84836	0.294
5.88159	0.218
5.91482	0.233
5.94805	0.203
5.98128	0.149
6.01451	0.141
6.04775	0.13
6.08098	0.129
6.11421	0.102
6.14744	0.069
6.18067	0.009
6.2139	0.009
6.24713	0
6.28036	0.005
6.3136	0.007
6.34683	0.009
6.38006	0.013
6.41329	0.006
6.44652	0.018
6.47975	0.013
6.51298	0.014
6.54621	0.015
6.57944	0.022
6.61268	0.031
6.64591	0.038
6.67914	0.053
6.71237	0.054
6.7456	0.045
6.77883	0.009
6.81206	0.01
6.84529	0.009
6.87853	0
6.91176	0.006
6.94499	0.014
6.97822	0.006
7.01145	0.014
7.04468	0.002
7.07791	0.009
7.11114	0.01
7.14438	0.022
7.17761	0.031
7.21084	0.034
7.24407	0.065
7.2773	0.103
7.31053	0.139
7.34376	0.143
7.37699	0.169
7.41023	0.154
7.44346	0.197
7.47669	0.25
7.50992	0.283
7.54315	0.294
7.57638	0.31
7.60961	0.328
7.64284	0.348
7.67607	0.36
7.70931	0.388
7.74254	0.394
7.77577	0.412
7.809	0.42
7.84223	0.439
7.87546	0.455
7.90869	0.462
7.94192	0.466
7.97516	0.474
8.00839	0.479
8.04162	0.48
8.07485	0.486
8.10808	0.5
8.14131	0.505
8.17454	0.516
8.20777	0.531
8.24101	0.539
8.27424	0.552
8.30747	0.561
8.3407	0.569
8.37393	0.575
8.40716	0.576
8.44039	0.581
8.47362	0.589
8.50686	0.575
8.54009	0.572
8.57332	0.58
8.60655	0.585
8.63978	0.588
8.67301	0.588
8.70624	0.601
8.73947	0.605
8.7727	0.609
8.80594	0.616
8.83917	0.62
8.8724	0.612
8.90563	0.628
8.93886	0.625
8.97209	0.624
9.00532	0.623
9.03855	0.62
9.07179	0.616
9.10502	0.613
9.13825	0.604
9.17148	0.604
9.20471	0.601
9.23794	0.601
9.27117	0.589
9.3044	0.569
9.33764	0.528
9.37087	0.44
9.4041	0.354
9.43733	0.33
9.47056	0.326
9.50379	0.339
9.53702	0.36
9.57025	0.39
9.60349	0.386
9.63672	0.347
9.66995	0.303
9.70318	0.259
9.73641	0.254
9.76964	0.26
9.80287	0.303
9.8361	0.366
9.86933	0.45
9.90257	0.484
9.9358	0.512
9.96903	0.551
10.0023	0.564
10.0355	0.584
10.0687	0.591
10.102	0.603
10.1352	0.605
10.1684	0.607
10.2016	0.612
10.2349	0.613
10.2681	0.613
10.3013	0.588
10.3346	0.56
10.3678	0.479
10.401	0.516
10.4343	0.552
10.4675	0.576
10.5007	0.48
10.534	0.28
10.5672	0.372
10.6004	0.494
10.6337	0.543
10.6669	0.559
10.7001	0.508
10.7333	0.54
10.7666	0.591
10.7998	0.611
10.833	0.617
10.8663	0.624
10.8995	0.637
10.9327	0.641
10.966	0.644
10.9992	0.651
11.0324	0.651
11.0657	0.649
11.0989	0.652
11.1321	0.652
11.1654	0.649
11.1986	0.651
11.2318	0.649
11.265	0.653
11.2983	0.653
11.3315	0.652
11.3647	0.656
11.398	0.656
11.4312	0.652
11.4644	0.652
11.4977	0.647
11.5309	0.649
11.5641	0.644
11.5974	0.641
11.6306	0.639
11.6638	0.633
11.6971	0.624
11.7303	0.62
11.7635	0.616
11.7967	0.609
11.83	0.601
11.8632	0.6
11.8964	0.597
11.9297	0.597
11.9629	0.592
11.9961	0.595
12.0294	0.597
12.0626	0.589
12.0958	0.585
12.1291	0.581
12.1623	0.573
12.1955	0.569
12.2288	0.561
12.262	0.553
12.2952	0.551
12.3284	0.545
12.3617	0.535
12.3949	0.528
12.4281	0.516
12.4614	0.511
12.4946	0.496
12.5278	0.486
12.5611	0.482
12.5943	0.479
12.6275	0.47
12.6608	0.459
12.694	0.448
12.7272	0.443
12.7605	0.439
12.7937	0.43
12.8269	0.419
12.8601	0.412
12.8934	0.408
12.9266	0.394
12.9598	0.372
12.9931	0.366
13.0263	0.368
13.0595	0.36
13.0928	0.351
13.126	0.342
13.1592	0.34
13.1925	0.332
13.2257	0.33
13.2589	0.32
13.2921	0.316
13.3254	0.308
13.3586	0.307
13.3918	0.306
13.4251	0.3
13.4583	0.298
13.4915	0.295
13.5248	0.286
13.558	0.28
13.5912	0.282
13.6245	0.283
13.6577	0.259
13.6909	0.263
13.7242	0.264
13.7574	0.258
13.7906	0.262
13.8238	0.26
13.8571	0.254
13.8903	0.263
13.9235	0.264
13.9568	0.264
13.99	0.267
14.0232	0.27
14.0565	0.27
14.0897	0.274
14.1229	0.278
14.1562	0.272
14.1894	0.272
14.2226	0.272
14.2559	0.268
14.2891	0.271
14.3223	0.268
14.3555	0.263
14.3888	0.258
14.422	0.259
14.4552	0.252
14.4885	0.25
14.5217	0.246
14.5549	0.239
14.5882	0.213
14.6214	0.199
14.6546	0.174
14.6879	0.149
14.7211	0.129
14.7543	0.115
14.7876	0.105
14.8208	0.102
14.854	0.117
14.8872	0.141
14.9205	0.169
14.9537	0.187
14.9869	0.219
15.0202	0.223
15.0534	0.219
15.0866	0.19
15.1199	0.174
15.1531	0.189
15.1863	0.231
15.2196	0.28
15.2528	0.315
15.286	0.324
15.3193	0.342
