Infrared Spectrum: Cyclopropanamine, 2-phenyl-,phosphate (2 to 1), hydrate, trans-
Formula: C18 H25 N2 O4 P  * H2 O
State: SOLID (NUJOL MULL)
Class: COBLENTZ III
Instrument: PERKIN-ELMER 21 (GRATING)
Instrument parameters: NaCl PRISM
Sampling: TRANSMISSION
Resolution: 2
Origin: SMITH KLINE & FRENCH LABS.
1/CM	TRANSMITTANCE
678	0.7305
687	0.5026
696	0.438
705	0.7733
714	0.8028
723	0.7774
732	0.6819
741	0.2831
750	0.7534
759	0.7782
768	0.8355
777	0.8635
786	0.8522
795	0.8288
804	0.7526
813	0.7782
822	0.8191
831	0.7886
840	0.7786
849	0.7397
858	0.7017
867	0.6468
876	0.4693
885	0.4261
894	0.3682
903	0.342
912	0.3165
921	0.2843
930	0.2832
939	0.3144
948	0.3069
957	0.3559
966	0.3426
975	0.3492
984	0.366
993	0.3332
1002	0.2793
1011	0.2025
1020	0.19
1029	0.2508
1038	0.3028
1047	0.2214
1056	0.2031
1065	0.2611
1074	0.2938
1083	0.3808
1092	0.4373
1101	0.5644
1110	0.6606
1119	0.7013
1128	0.7478
1137	0.7547
1146	0.7505
1155	0.7327
1164	0.73
1173	0.7029
1182	0.6815
1191	0.6691
1200	0.6409
1209	0.6253
1218	0.6208
1227	0.6579
1236	0.7138
1245	0.7207
1254	0.7248
1263	0.736
1272	0.7523
1281	0.7812
1290	0.7945
1299	0.7979
1308	0.8058
1317	0.7946
1326	0.7855
1335	0.779
1344	0.7841
1353	0.7413
1362	0.6457
1371	0.5638
1380	0.7233
1389	0.758
1398	0.763
1407	0.7683
1416	0.7599
1425	0.6333
1434	0.4771
1443	0.3613
1452	0.2886
1461	0.3463
1470	0.6506
1479	0.6533
1488	0.6193
1497	0.6698
1506	0.6709
1515	0.668
1524	0.6393
1533	0.5781
1542	0.5759
1551	0.5012
1560	0.5025
1569	0.5378
1578	0.5582
1587	0.5337
1596	0.4678
1605	0.4696
1614	0.4721
1623	0.5111
1632	0.5497
1641	0.5996
1650	0.6249
1659	0.6195
1668	0.6196
1677	0.5918
1686	0.586
1695	0.5829
1704	0.5805
1713	0.5787
1722	0.5791
1731	0.5807
1740	0.5835
1749	0.5869
1758	0.5905
1767	0.5949
1776	0.599
1785	0.6024
1794	0.6142
1803	0.6361
1812	0.6437
1821	0.6476
1830	0.6523
1839	0.6499
1848	0.6461
1857	0.6412
1866	0.6338
1875	0.6299
1884	0.6283
1893	0.6234
1902	0.6166
1911	0.6031
1920	0.5959
1929	0.593
1938	0.5947
1947	0.5891
1956	0.5793
1965	0.5681
1974	0.5645
1983	0.5668
1992	0.5603
2001	0.5427
2010	0.5353
2019	0.5165
2028	0.5118
2037	0.4997
2046	0.4829
2055	0.4653
2064	0.4503
2073	0.444
2082	0.4314
2091	0.4227
2100	0.4222
2109	0.4226
2118	0.4244
2127	0.4291
2136	0.4365
2145	0.442
2154	0.4453
2163	0.4484
2172	0.4486
2181	0.4484
2190	0.448
2199	0.4471
2208	0.4456
2217	0.4421
2226	0.4351
2235	0.4236
2244	0.4072
2253	0.3923
2262	0.377
2271	0.3602
2280	0.3359
2289	0.3313
2298	0.329
2307	0.3287
2316	0.3289
2325	0.3293
2334	0.3297
2343	0.3295
2352	0.3292
2361	0.329
2370	0.3289
2379	0.3284
2388	0.3256
2397	0.3223
2406	0.3174
2415	0.3134
2424	0.3097
2433	0.306
2442	0.3028
2451	0.3015
2460	0.2969
2469	0.2846
2478	0.2726
2487	0.2656
2496	0.2568
2505	0.252
2514	0.2509
2523	0.2504
2532	0.25
2541	0.2498
2550	0.2497
2559	0.249
2568	0.2477
2577	0.2459
2586	0.2437
2595	0.2413
2604	0.239
2613	0.2372
2622	0.2353
2631	0.2335
2640	0.2325
2649	0.2317
2658	0.231
2667	0.231
2676	0.2316
2685	0.2322
2694	0.2298
2703	0.2225
2712	0.2132
2721	0.2035
2730	0.1936
2739	0.1838
2748	0.1747
2757	0.1642
2766	0.148
2775	0.1194
2784	0.0983
2793	0.0837
2802	0.0712
2811	0.0646
2820	0.0635
2829	0.0648
2838	0.0688
2847	0.0755
2856	0.0834
2865	0.0937
2874	0.1081
2883	0.1233
2892	0.1457
2901	0.1649
2910	0.2122
2919	0.2687
2928	0.3248
2937	0.3762
2946	0.4021
2955	0.4313
2964	0.4597
2973	0.4699
2982	0.4784
2991	0.4872
3000	0.499
3009	0.5145
3018	0.5345
3027	0.5512
3036	0.5684
3045	0.5937
3054	0.6197
3063	0.6458
3072	0.6669
3081	0.6886
3090	0.7156
3099	0.7346
3108	0.7464
3117	0.7569
3126	0.7685
3135	0.7817
3144	0.7938
3153	0.8049
3162	0.8144
3171	0.8231
3180	0.8318
3189	0.8423
3198	0.8531
3207	0.8621
3216	0.8688
3225	0.871
3234	0.8821
3243	0.8872
3252	0.8883
3261	0.8881
3270	0.8878
3279	0.8876
3288	0.8874
3297	0.887
3306	0.8864
3315	0.8858
3324	0.8852
3333	0.8845
3342	0.8839
3351	0.8832
3360	0.8825
3369	0.8818
3378	0.8811
3387	0.8804
3396	0.8797
3405	0.879
3414	0.8784
3423	0.8776
3432	0.8768
3441	0.876
3450	0.8752
3459	0.8743
3468	0.8734
3477	0.8725
3486	0.8715
3495	0.8708
3504	0.8703
3513	0.8697
3522	0.8692
3531	0.8687
3540	0.8681
3549	0.8677
3558	0.8671
3567	0.8666
3576	0.8666
3585	0.8666
3594	0.8665
3603	0.8665
3612	0.8665
3621	0.8666
3630	0.8667
3639	0.8667
3648	0.8667
3657	0.8668
3666	0.8667
3675	0.8667
3684	0.8666
3693	0.8659
3702	0.8649
3711	0.8638
3720	0.8628
3729	0.8616
3738	0.8602
3747	0.8587
3756	0.8587
3765	0.8591
3774	0.8596
3783	0.8605
3792	0.8615
3801	0.8625
3810	0.8635
3819	0.8645
3828	0.8654
3837	0.8663
3846	0.8669
3855	0.8669
3864	0.8666
3873	0.865
3882	0.8633
3891	0.8617
3900	0.8601
3909	0.8581
3918	0.8561
3927	0.8539
3936	0.8519
3945	0.851
3954	0.8502
3963	0.8494
3972	0.8487
3981	0.848
3990	0.8478
3999	0.8474
