Infrared Spectrum: 2,4,5-TRICHLOROPHENYL SALICYLATE
Formula: C13 H7 Cl3 O3
State: SOLID (MINERAL OIL MULL)
Class: COBLENTZ
Instrument: Not specified, most likely a prism, grating, or hybrid spectrometer.
Sampling: TRANSMISSION
Resolution: 4
Origin: DOW CHEMICAL COMPANY
MICROMETERS	TRANSMITTANCE
2.022	0.524
2.06114	0.53
2.10027	0.538
2.13941	0.542
2.17854	0.55
2.21768	0.551
2.25681	0.555
2.29595	0.558
2.33508	0.564
2.37422	0.571
2.41335	0.579
2.45249	0.586
2.49162	0.594
2.53076	0.595
2.56989	0.6
2.60903	0.603
2.64816	0.608
2.6873	0.613
2.72643	0.616
2.76557	0.62
2.8047	0.621
2.84384	0.623
2.88297	0.62
2.92211	0.59
2.96124	0.512
3.00038	0.521
3.03951	0.608
3.07865	0.629
3.11778	0.639
3.15692	0.641
3.19606	0.637
3.23519	0.584
3.27433	0.605
3.31346	0.603
3.3526	0.451
3.39173	0.217
3.43087	0.251
3.47	0.332
3.50914	0.506
3.54827	0.662
3.58741	0.689
3.62654	0.696
3.66568	0.699
3.70481	0.702
3.74395	0.707
3.78308	0.712
3.82222	0.719
3.86135	0.725
3.90049	0.733
3.93962	0.738
3.97876	0.743
4.01789	0.748
4.05703	0.75
4.09616	0.753
4.1353	0.756
4.17443	0.758
4.21357	0.756
4.25271	0.759
4.29184	0.766
4.33098	0.767
4.37011	0.771
4.40925	0.779
4.44838	0.78
4.48752	0.782
4.52665	0.784
4.56579	0.785
4.60492	0.787
4.64406	0.787
4.68319	0.79
4.72233	0.792
4.76146	0.793
4.8006	0.797
4.83973	0.801
4.87887	0.808
4.918	0.81
4.95714	0.811
4.99627	0.811
5.03541	0.81
5.07454	0.81
5.11368	0.81
5.15281	0.81
5.19195	0.814
5.23108	0.818
5.27022	0.821
5.30935	0.821
5.34849	0.821
5.38763	0.823
5.42676	0.823
5.4659	0.821
5.50503	0.819
5.54417	0.818
5.5833	0.818
5.62244	0.814
5.66157	0.811
5.70071	0.797
5.73984	0.759
5.77898	0.673
5.81811	0.436
5.85725	0.258
5.89638	0.584
5.93552	0.74
5.97465	0.767
6.01379	0.79
6.05292	0.81
6.09206	0.801
6.13119	0.724
6.17033	0.647
6.20946	0.771
6.2486	0.717
6.28773	0.59
6.32687	0.745
6.366	0.803
6.40514	0.813
6.44427	0.819
6.48341	0.824
6.52255	0.818
6.56168	0.788
6.60082	0.766
6.63995	0.738
6.67909	0.545
6.71822	0.418
6.75736	0.503
6.79649	0.279
6.83563	0.334
6.87476	0.574
6.9139	0.686
6.95303	0.754
6.99217	0.767
7.0313	0.769
7.07044	0.772
7.10957	0.762
7.14871	0.741
7.18784	0.681
7.22698	0.607
7.26611	0.551
7.30525	0.493
7.34438	0.459
7.38352	0.452
7.42265	0.529
7.46179	0.495
7.50092	0.637
7.54006	0.584
7.57919	0.436
7.61833	0.254
7.65747	0.319
7.6966	0.435
7.73574	0.543
7.77487	0.613
7.81401	0.633
7.85314	0.553
7.89228	0.452
7.93141	0.371
7.97055	0.327
8.00968	0.428
8.04882	0.467
8.08795	0.511
8.12709	0.615
8.16622	0.66
8.20536	0.655
8.24449	0.616
8.28363	0.555
8.32276	0.521
8.3619	0.522
8.40103	0.511
8.44017	0.464
8.4793	0.397
8.51844	0.454
8.55757	0.542
8.59671	0.47
8.63584	0.558
8.67498	0.717
8.71412	0.702
8.75325	0.654
8.79239	0.597
8.83152	0.433
8.87066	0.349
8.90979	0.383
8.94893	0.49
8.98806	0.628
9.0272	0.725
9.06633	0.741
9.10547	0.741
9.1446	0.659
9.18374	0.475
9.22287	0.384
9.26201	0.472
9.30114	0.582
9.34028	0.649
9.37941	0.589
9.41855	0.34
9.45768	0.318
9.49682	0.524
9.53595	0.628
9.57509	0.649
9.61422	0.6
9.65336	0.665
9.69249	0.746
9.73163	0.758
9.77076	0.767
9.8099	0.779
9.84904	0.787
9.88817	0.795
9.92731	0.8
9.96644	0.801
10.0056	0.805
10.0447	0.81
10.0838	0.814
10.123	0.813
10.1621	0.811
10.2013	0.816
10.2404	0.818
10.2795	0.819
10.3187	0.819
10.3578	0.814
10.3969	0.801
10.4361	0.811
10.4752	0.819
10.5143	0.821
10.5535	0.821
10.5926	0.821
10.6317	0.818
10.6709	0.81
10.71	0.788
10.7491	0.746
10.7883	0.754
10.8274	0.788
10.8665	0.8
10.9057	0.801
10.9448	0.8
10.984	0.792
11.0231	0.762
11.0622	0.688
11.1014	0.519
11.1405	0.477
11.1796	0.652
11.2188	0.762
11.2579	0.788
11.297	0.8
11.3362	0.806
11.3753	0.808
11.4144	0.798
11.4536	0.769
11.4927	0.711
11.5318	0.694
11.571	0.685
11.6101	0.626
11.6493	0.672
11.6884	0.769
11.7275	0.792
11.7667	0.806
11.8058	0.81
11.8449	0.811
11.8841	0.816
11.9232	0.816
11.9623	0.816
12.0015	0.814
12.0406	0.803
12.0797	0.79
12.1189	0.795
12.158	0.808
12.1971	0.813
12.2363	0.814
12.2754	0.816
12.3146	0.814
12.3537	0.81
12.3928	0.808
12.432	0.81
12.4711	0.808
12.5102	0.806
12.5494	0.803
12.5885	0.805
12.6276	0.805
12.6668	0.8
12.7059	0.788
12.745	0.785
12.7842	0.788
12.8233	0.797
12.8624	0.798
12.9016	0.798
12.9407	0.793
12.9798	0.787
13.019	0.775
13.0581	0.766
13.0973	0.746
13.1364	0.699
13.1755	0.607
13.2147	0.436
13.2538	0.305
13.2929	0.3
13.3321	0.383
13.3712	0.509
13.4103	0.625
13.4495	0.675
13.4886	0.707
13.5277	0.722
13.5669	0.727
13.606	0.737
13.6451	0.73
13.6843	0.73
13.7234	0.727
13.7626	0.722
13.8017	0.719
13.8408	0.715
13.88	0.712
13.9191	0.712
13.9582	0.709
13.9974	0.704
14.0365	0.699
14.0756	0.691
14.1148	0.68
14.1539	0.668
14.193	0.646
14.2322	0.605
14.2713	0.55
14.3104	0.47
14.3496	0.409
14.3887	0.407
14.4279	0.464
14.467	0.516
14.5061	0.542
14.5453	0.538
14.5844	0.516
14.6235	0.487
14.6627	0.469
14.7018	0.462
14.7409	0.477
14.7801	0.49
14.8192	0.487
14.8583	0.472
14.8975	0.452
14.9366	0.43
14.9757	0.4
15.0149	0.363
15.054	0.342
15.0931	0.327
15.1323	0.316
15.1714	0.31
15.2106	0.31
15.2497	0.314
15.2888	0.321
15.328	0.329
15.3671	0.337
15.4062	0.344
15.4454	0.35
15.4845	0.355
15.5236	0.358
15.5628	0.36
15.6019	0.36
15.641	0.363
15.6802	0.363
15.7193	0.358
15.7584	0.355
15.7976	0.353
15.8367	0.35
15.8759	0.35
15.915	0.352
