Infrared Spectrum: Pluronic F-68
Formula: C2 H6 O2
State: SOLID (SPLIT MULL), FLUOROLUBE FOR 3800-1330 CM^-^1, NUJOL FOR 1330-400 CM^-^1
Class: COBLENTZ
Instrument: DOW KBr FOREPRISM-GRATING
Instrument parameters: BLAZED AT 3.5, 12.0, 20.0 MICRON AND CHANGED AT 5.0, 7.5, 14.9 MICRON
Sampling: TRANSMISSION
Resolution: 2
Origin: DOW CHEMICAL COMPANY
1/CM	TRANSMITTANCE
3792	0.7475
3783	0.7484
3774	0.7494
3765	0.7505
3756	0.7515
3747	0.7525
3738	0.7525
3729	0.7526
3720	0.7528
3711	0.7531
3702	0.7537
3693	0.7542
3684	0.7548
3675	0.7554
3666	0.7565
3657	0.7576
3648	0.7589
3639	0.7601
3630	0.761
3621	0.7611
3612	0.7615
3603	0.7617
3594	0.7615
3585	0.7615
3576	0.7614
3567	0.7611
3558	0.7608
3549	0.7603
3540	0.7583
3531	0.7551
3522	0.7524
3513	0.7499
3504	0.7475
3495	0.7458
3486	0.7458
3477	0.7458
3468	0.746
3459	0.7475
3450	0.7493
3441	0.751
3432	0.7531
3423	0.7551
3414	0.7574
3405	0.7595
3396	0.7619
3387	0.7646
3378	0.7671
3369	0.7699
3360	0.773
3351	0.7758
3342	0.7775
3333	0.7787
3324	0.7799
3315	0.7851
3306	0.7875
3297	0.7889
3288	0.7897
3279	0.7905
3270	0.7914
3261	0.7921
3252	0.793
3243	0.7944
3234	0.7961
3225	0.798
3216	0.799
3207	0.7998
3198	0.8005
3189	0.8011
3180	0.8018
3171	0.8024
3162	0.8028
3153	0.8033
3144	0.8015
3135	0.8005
3126	0.7996
3117	0.799
3108	0.7995
3099	0.7999
3090	0.8004
3081	0.8008
3072	0.8011
3063	0.8015
3054	0.8018
3045	0.8011
3036	0.8001
3027	0.7986
3018	0.7968
3009	0.7934
3000	0.7808
2991	0.7421
2982	0.6924
2973	0.5625
2964	0.5453
2955	0.5418
2946	0.4818
2937	0.4446
2928	0.4133
2919	0.3518
2910	0.2664
2901	0.1634
2892	0.1048
2883	0.0865
2874	0.0925
2865	0.1199
2856	0.1708
2847	0.2454
2838	0.3043
2829	0.3668
2820	0.3958
2811	0.4217
2802	0.4385
2793	0.501
2784	0.5568
2775	0.5939
2766	0.6234
2757	0.6482
2748	0.6668
2739	0.6758
2730	0.6761
2721	0.7008
2712	0.7138
2703	0.7183
2694	0.7096
2685	0.7092
2676	0.7533
2667	0.774
2658	0.781
2649	0.7865
2640	0.7912
2631	0.7951
2622	0.7984
2613	0.8005
2604	0.8005
2595	0.8001
2586	0.801
2577	0.8028
2568	0.805
2559	0.8084
2550	0.8118
2541	0.8128
2532	0.8132
2523	0.8133
2514	0.8134
2505	0.8134
2496	0.8138
2487	0.8143
2478	0.8149
2469	0.8154
2460	0.8156
2451	0.8157
2442	0.816
2433	0.8161
2424	0.8165
2415	0.8168
2406	0.8171
2397	0.8155
2388	0.8131
2379	0.8126
2370	0.8131
2361	0.8132
2352	0.8133
2343	0.8136
2334	0.8136
2325	0.8094
2316	0.8
2307	0.7964
2298	0.7955
2289	0.7948
2280	0.795
2271	0.7955
2262	0.7971
2253	0.7983
2244	0.8001
2235	0.8068
2226	0.8168
2217	0.8215
2208	0.8247
2199	0.8277
2190	0.8317
2181	0.8391
2172	0.8366
2163	0.8366
2154	0.8394
2145	0.8417
2136	0.8441
2127	0.8464
2118	0.8483
2109	0.8502
2100	0.8516
2091	0.8521
2082	0.8528
2073	0.8535
2064	0.854
2055	0.8541
2046	0.8543
2037	0.8544
2028	0.8543
2019	0.8538
2010	0.8518
2001	0.8484
1992	0.8321
1983	0.8237
1974	0.8202
1965	0.8165
1956	0.8168
1947	0.8221
1938	0.8284
1929	0.8448
1920	0.8555
1911	0.8606
1902	0.8639
1893	0.8667
1884	0.8692
1875	0.8716
1866	0.874
1857	0.8762
1848	0.8768
1839	0.8775
1830	0.8768
1821	0.876
1812	0.874
1803	0.8725
1794	0.8718
1785	0.8721
1776	0.8725
1767	0.8731
1758	0.8752
1749	0.8758
1740	0.8761
1731	0.8758
1722	0.8755
1713	0.8749
1704	0.8736
1695	0.8718
1686	0.8701
1677	0.8682
1668	0.8653
1659	0.8621
1650	0.859
1641	0.8575
1632	0.8565
1623	0.8565
1614	0.8575
1605	0.8596
1596	0.8601
1587	0.8555
1578	0.856
1569	0.8577
1560	0.8561
1551	0.8525
1542	0.8504
1533	0.8481
1524	0.8444
1515	0.8389
1506	0.8352
1497	0.8218
1488	0.7991
1479	0.7219
1470	0.2865
1461	0.5572
1452	0.5805
1443	0.6761
1434	0.751
1425	0.7678
1416	0.7421
1407	0.7255
1398	0.7289
1389	0.7158
1380	0.6255
1371	0.558
1362	0.2834
1353	0.5374
1344	0.3292
1335	0.621
1326	0.6865
1317	0.6956
1308	0.6721
1299	0.6202
1290	0.5216
1281	0.2629
1272	0.4809
1263	0.6259
1254	0.6418
1245	0.5929
1236	0.5269
1227	0.7071
1218	0.7397
1209	0.7419
1200	0.7346
1191	0.7044
1182	0.6472
1173	0.5371
1164	0.4501
1155	0.2652
1146	0.1262
1137	0.1915
1128	0.158
1119	0.0291
1110	0.0085
1101	0.0221
1092	0.1374
1083	0.2808
1074	0.4022
1065	0.3559
1056	0.3873
1047	0.5568
1038	0.6075
1029	0.6481
1020	0.6801
1011	0.6894
1002	0.7081
993	0.7322
984	0.7411
975	0.7208
966	0.4154
957	0.4373
948	0.4517
939	0.5571
930	0.6112
921	0.6772
912	0.7256
903	0.7564
894	0.7743
885	0.7832
876	0.7851
867	0.7668
858	0.6895
849	0.4506
840	0.5382
831	0.6841
822	0.7685
813	0.8054
804	0.8263
795	0.8408
786	0.8487
777	0.8527
768	0.8532
759	0.8525
750	0.8494
741	0.8374
732	0.8256
723	0.8078
714	0.8298
705	0.8523
696	0.8621
687	0.8681
678	0.8687
669	0.8662
660	0.8494
651	0.8431
642	0.8367
633	0.8268
624	0.8155
615	0.8075
606	0.8043
597	0.8005
588	0.7918
579	0.7868
570	0.7846
561	0.7838
552	0.7817
543	0.7758
534	0.7515
525	0.7337
516	0.7424
507	0.7518
498	0.7619
489	0.769
480	0.7656
471	0.7615
462	0.7591
453	0.7585
444	0.7578
435	0.7568
426	0.7557
417	0.7551
408	0.7549
399	0.756
