Infrared Spectrum: NONANOIC ACID, 2-CYANOETHYL ESTER
Formula: C12 H21 N O2
State: LIQUID (NEAT)
Class: COBLENTZ III
Instrument: PERKIN-ELMER 21 (GRATING)
Instrument parameters: NaCl PRISM
Sampling: TRANSMISSION
Path length: 0.002 CM
Resolution: 4
Origin: E. REGION RESEARCH LAB.
1/CM	TRANSMITTANCE
633.315	0.648
642.44	0.662
651.566	0.679
660.691	0.709
669.816	0.741
678.941	0.759
688.067	0.771
697.192	0.769
706.317	0.759
715.443	0.7
724.568	0.633
733.693	0.73
742.819	0.751
751.944	0.78
761.069	0.794
770.194	0.792
779.32	0.813
788.445	0.838
797.57	0.841
806.696	0.838
815.821	0.837
824.946	0.838
834.072	0.818
843.197	0.792
852.322	0.852
861.447	0.87
870.573	0.855
879.698	0.863
888.823	0.86
897.949	0.852
907.074	0.859
916.199	0.876
925.325	0.866
934.45	0.821
943.575	0.782
952.7	0.844
961.826	0.893
970.951	0.908
980.076	0.889
989.202	0.831
998.327	0.693
1007.45	0.563
1016.58	0.557
1025.7	0.4701
1034.83	0.324
1043.95	0.311
1053.08	0.379
1062.2	0.459
1071.33	0.507
1080.45	0.529
1089.58	0.575
1098.71	0.422
1107.83	0.165
1116.96	0.191
1126.08	0.355
1135.21	0.443
1144.33	0.2541
1153.46	0.029
1162.58	0.015
1171.71	0.028
1180.83	0.068
1189.96	0.115
1199.08	0.146
1208.21	0.174
1217.33	0.162
1226.46	0.144
1235.58	0.144
1244.71	0.147
1253.84	0.161
1262.96	0.23
1272.09	0.271
1281.21	0.301
1290.34	0.346
1299.46	0.407
1308.59	0.41
1317.71	0.431
1326.84	0.428
1335.96	0.375
1345.09	0.419
1354.21	0.389
1363.34	0.426
1372.46	0.469
1381.59	0.376
1390.71	0.397
1399.84	0.526
1408.97	0.56
1418.09	0.331
1427.22	0.376
1436.34	0.504
1445.47	0.462
1454.59	0.318
1463.72	0.212
1472.84	0.273
1481.97	0.692
1491.09	0.851
1500.22	0.912
1509.34	0.943
1518.47	0.967
1527.59	0.969
1536.72	0.978
1545.84	0.978
1554.97	0.984
1564.1	0.978
1573.22	0.978
1582.35	0.976
1591.47	0.973
1600.6	0.966
1609.72	0.96
1618.85	0.95
1627.97	0.948
1637.1	0.948
1646.22	0.938
1655.35	0.924
1664.47	0.914
1673.6	0.879
1682.72	0.801
1691.85	0.752
1700.98	0.625
1710.1	0.539
1719.23	0.227
1728.35	0.032
1737.48	0.019
1746.6	0.049
1755.73	0.2209
1764.85	0.492
1773.98	0.691
1783.1	0.773
1792.23	0.813
1801.35	0.817
1810.48	0.81
1819.6	0.842
1828.73	0.931
1837.85	0.956
1846.98	0.962
1856.11	0.974
1865.23	0.971
1874.36	0.978
1883.48	0.981
1892.61	0.987
1901.73	0.991
1910.86	0.988
1919.98	0.99
1929.11	0.991
1938.23	0.988
1947.36	0.987
1956.48	0.988
1965.61	0.984
1974.73	0.981
1983.86	0.981
1992.98	0.977
2002.11	0.9763
2011.24	0.977
2020.36	0.9768
2029.49	0.9748
2038.61	0.976
2047.74	0.9757
2056.86	0.977
2065.99	0.9787
2075.11	0.98
2084.24	0.9833
2093.36	0.988
2102.49	0.9902
2111.61	0.992
2120.74	0.992
2129.86	0.994
2138.99	0.994
2148.11	0.994
2157.24	0.992
2166.37	0.991
2175.49	0.991
2184.62	0.991
2193.74	0.9905
2202.87	0.9886
2211.99	0.9841
2221.12	0.9797
2230.24	0.9766
2239.37	0.9562
2248.49	0.8384
2257.62	0.747
2266.74	0.8162
2275.87	0.934
2284.99	0.9771
2294.12	0.988
2303.24	0.9912
2312.37	0.992
2321.5	0.994
2330.62	0.992
2339.75	0.991
2348.87	0.991
2358	0.99
2367.12	0.99
2376.25	0.99
2385.37	0.99
2394.5	0.99
2403.62	0.9907
2412.75	0.991
2421.87	0.992
2431	0.992
2440.12	0.992
2449.25	0.9912
2458.37	0.991
2467.5	0.988
2476.63	0.987
2485.75	0.987
2494.88	0.987
2504	0.985
2513.13	0.9836
2522.25	0.9791
2531.38	0.977
2540.5	0.976
2549.63	0.974
2558.75	0.973
2567.88	0.9732
2577	0.971
2586.13	0.9668
2595.25	0.963
2604.38	0.9569
2613.51	0.9521
2622.63	0.9441
2631.76	0.9356
2640.88	0.9338
2650.01	0.932
2659.13	0.931
2668.26	0.931
2677.38	0.931
2686.51	0.929
2695.63	0.928
2704.76	0.9237
2713.88	0.9132
2723.01	0.912
2732.13	0.911
2741.26	0.9077
2750.38	0.8977
2759.51	0.891
2768.64	0.8694
2777.76	0.8511
2786.89	0.7783
2796.01	0.7431
2805.14	0.6874
2814.26	0.5559
2823.39	0.2154
2832.51	0.1337
2841.64	0.1196
2850.76	0.1412
2859.89	0.172
2869.01	0.1638
2878.14	0.1113
2887.26	0.0765
2896.39	0.0307
2905.51	0.0142
2914.64	0.0351
2923.77	0.0609
2932.89	0.1055
2942.02	0.1821
2951.14	0.3013
2960.27	0.4869
2969.39	0.6977
2978.52	0.7418
2987.64	0.8127
2996.77	0.837
3005.89	0.8555
3015.02	0.8765
3024.14	0.8861
3033.27	0.8963
3042.39	0.9056
3051.52	0.9186
3060.64	0.924
3069.77	0.9322
3078.9	0.936
3088.02	0.9427
3097.15	0.9478
3106.27	0.949
3115.4	0.95
3124.52	0.9526
3133.65	0.955
3142.77	0.956
3151.9	0.9563
3161.02	0.958
3170.15	0.9567
3179.27	0.957
3188.4	0.956
3197.52	0.956
3206.65	0.957
3215.77	0.959
3224.9	0.959
3234.03	0.957
3243.15	0.957
3252.28	0.957
3261.4	0.957
3270.53	0.957
3279.65	0.959
3288.78	0.959
3297.9	0.9599
3307.03	0.96
3316.15	0.959
3325.28	0.9581
3334.4	0.957
3343.53	0.957
3352.65	0.957
3361.78	0.957
3370.9	0.957
3380.03	0.9561
3389.16	0.953
3398.28	0.9512
3407.41	0.9462
3416.53	0.9382
3425.66	0.9349
3434.78	0.9317
3443.91	0.929
3453.03	0.931
3462.16	0.9349
3471.28	0.9412
3480.41	0.9468
3489.53	0.9496
3498.66	0.9491
3507.78	0.948
3516.91	0.949
3526.03	0.948
3535.16	0.949
3544.29	0.95
3553.41	0.95
3562.54	0.9509
3571.66	0.952
3580.79	0.953
3589.91	0.952
3599.04	0.9513
3608.16	0.949
3617.29	0.9464
3626.41	0.946
3635.54	0.946
3644.66	0.9485
3653.79	0.9514
3662.91	0.9549
3672.04	0.959
3681.17	0.9624
3690.29	0.9659
3699.42	0.971
3708.54	0.9773
3717.67	0.981
3726.79	0.98
3735.92	0.977
3745.04	0.974
3754.17	0.9732
3763.29	0.974
3772.42	0.977
3781.54	0.9779
3790.67	0.978
3799.79	0.9777
3808.92	0.977
3818.04	0.977
3827.17	0.977
3836.3	0.977
3845.42	0.975
3854.55	0.976
3863.67	0.974
3872.8	0.971
3881.92	0.97
3891.05	0.9664
3900.17	0.966
3909.3	0.964
3918.42	0.964
3927.55	0.9635
3936.67	0.963
3945.8	0.963
3954.92	0.957
3964.05	0.956
3973.17	0.9554
3982.3	0.955
3991.43	0.955
4000.55	0.955
