Infrared Spectrum: TETRAZOBENZENE-Beta-NAPHTHOL
Formula: C22 H16 N4 O
State: SOLID (MINERAL OIL MULL)
Class: COBLENTZ
Instrument: Not specified, most likely a prism, grating, or hybrid spectrometer.
Sampling: TRANSMISSION
Resolution: 4
Origin: WYANDOTTE CHEMICALS CORP., WYANDOTTE, MICHIGAN, USA
MICROMETERS	TRANSMITTANCE
2.025	0.135
2.06212	0.144
2.09923	0.145
2.13635	0.149
2.17347	0.163
2.21059	0.15
2.2477	0.158
2.28482	0.159
2.32194	0.169
2.35906	0.17
2.39617	0.172
2.43329	0.178
2.47041	0.181
2.50753	0.203
2.54464	0.209
2.58176	0.223
2.61888	0.231
2.656	0.243
2.69311	0.246
2.73023	0.254
2.76735	0.263
2.80447	0.27
2.84158	0.27
2.8787	0.259
2.91582	0.26
2.95293	0.268
2.99005	0.271
3.02717	0.281
3.06429	0.279
3.1014	0.276
3.13852	0.268
3.17564	0.263
3.21276	0.259
3.24987	0.211
3.28699	0.18
3.32411	0.074
3.36123	0.023
3.39834	0.023
3.43546	0.023
3.47258	0.023
3.5097	0.048
3.54681	0.192
3.58393	0.31
3.62105	0.364
3.65817	0.372
3.69528	0.368
3.7324	0.374
3.76952	0.392
3.80664	0.413
3.84375	0.419
3.88087	0.442
3.91799	0.464
3.9551	0.484
3.99222	0.492
4.02934	0.512
4.06646	0.517
4.10357	0.529
4.14069	0.532
4.17781	0.532
4.21493	0.546
4.25204	0.501
4.28916	0.532
4.32628	0.551
4.3634	0.596
4.40051	0.611
4.43763	0.604
4.47475	0.61
4.51187	0.611
4.54898	0.631
4.5861	0.644
4.62322	0.653
4.66034	0.664
4.69745	0.672
4.73457	0.678
4.77169	0.695
4.8088	0.709
4.84592	0.711
4.88304	0.725
4.92016	0.729
4.95727	0.736
4.99439	0.74
5.03151	0.739
5.06863	0.745
5.10574	0.734
5.14286	0.715
5.17998	0.726
5.2171	0.732
5.25421	0.734
5.29133	0.734
5.32845	0.753
5.36557	0.757
5.40268	0.791
5.4398	0.788
5.47692	0.791
5.51404	0.799
5.55115	0.79
5.58827	0.799
5.62539	0.813
5.6625	0.819
5.69962	0.812
5.73674	0.815
5.77386	0.827
5.81097	0.796
5.84809	0.781
5.88521	0.799
5.92233	0.748
5.95944	0.717
5.99656	0.737
6.03368	0.74
6.0708	0.656
6.10791	0.341
6.14503	0.361
6.18215	0.389
6.21927	0.27
6.25638	0.355
6.2935	0.354
6.33062	0.237
6.36774	0.27
6.40485	0.31
6.44197	0.389
6.47909	0.451
6.51621	0.293
6.55332	0.119
6.59044	0.057
6.62756	0.04
6.66467	0.069
6.70179	0.093
6.73891	0.08
6.77603	0.029
6.81314	0.027
6.85026	0.035
6.88738	0.052
6.9245	0.13
6.96161	0.282
6.99873	0.322
7.03585	0.282
7.07297	0.295
7.11008	0.237
7.1472	0.24
7.18432	0.147
7.22144	0.068
7.25855	0.102
7.29567	0.183
7.33279	0.329
7.36991	0.369
7.40702	0.395
7.44414	0.383
7.48126	0.368
7.51837	0.312
7.55549	0.287
7.59261	0.298
7.62973	0.287
7.66684	0.277
7.70396	0.329
7.74108	0.358
7.7782	0.341
7.81531	0.273
7.85243	0.175
7.88955	0.096
7.92667	0.079
7.96378	0.124
8.0009	0.201
8.03802	0.201
8.07514	0.125
8.11225	0.099
8.14937	0.186
8.18649	0.263
8.22361	0.113
8.26072	0.06
8.29784	0.189
8.33496	0.329
8.37207	0.406
8.40919	0.405
8.44631	0.35
8.48343	0.313
8.52054	0.291
8.55766	0.352
8.59478	0.402
8.6319	0.223
8.66901	0.167
8.70613	0.1
8.74325	0.136
8.78037	0.105
8.81748	0.094
8.8546	0.206
8.89172	0.318
8.92884	0.392
8.96595	0.445
9.00307	0.378
9.04019	0.35
9.07731	0.481
9.11442	0.51
9.15154	0.596
9.18866	0.638
9.22578	0.663
9.26289	0.661
9.30001	0.586
9.33713	0.588
9.37424	0.684
9.41136	0.729
9.44848	0.739
9.4856	0.754
9.52271	0.759
9.55983	0.756
9.59695	0.736
9.63407	0.684
9.67118	0.723
9.7083	0.759
9.74542	0.753
9.78254	0.661
9.81965	0.706
9.85677	0.774
9.89389	0.784
9.93101	0.76
9.96812	0.704
10.0052	0.728
10.0424	0.692
10.0795	0.501
10.1166	0.316
10.1537	0.414
10.1908	0.523
10.2279	0.593
10.2651	0.613
10.3022	0.624
10.3393	0.65
10.3764	0.659
10.4135	0.663
10.4506	0.67
10.4878	0.68
10.5249	0.666
10.562	0.692
10.5991	0.712
10.6362	0.734
10.6734	0.76
10.7105	0.76
10.7476	0.751
10.7847	0.726
10.8218	0.694
10.8589	0.67
10.8961	0.625
10.9332	0.642
10.9703	0.731
11.0074	0.774
11.0445	0.795
11.0816	0.804
11.1188	0.802
11.1559	0.791
11.193	0.782
11.2301	0.759
11.2672	0.754
11.3043	0.732
11.3415	0.714
11.3786	0.664
11.4157	0.579
11.4528	0.496
11.4899	0.453
11.5271	0.44
11.5642	0.47
11.6013	0.467
11.6384	0.462
11.6755	0.42
11.7126	0.378
11.7498	0.357
11.7869	0.307
11.824	0.2
11.8611	0.116
11.8982	0.085
11.9353	0.094
11.9725	0.1
12.0096	0.104
12.0467	0.113
12.0838	0.201
12.1209	0.312
12.158	0.397
12.1952	0.451
12.2323	0.523
12.2694	0.588
12.3065	0.633
12.3436	0.672
12.3808	0.695
12.4179	0.718
12.455	0.754
12.4921	0.785
12.5292	0.821
12.5663	0.836
12.6035	0.858
12.6406	0.885
12.6777	0.899
12.7148	0.899
12.7519	0.824
12.789	0.706
12.8262	0.653
12.8633	0.63
12.9004	0.555
12.9375	0.417
12.9746	0.267
13.0117	0.236
13.0489	0.347
13.086	0.413
13.1231	0.403
13.1602	0.38
13.1973	0.38
13.2345	0.335
13.2716	0.211
13.3087	0.125
13.3458	0.169
13.3829	0.313
13.42	0.473
13.4572	0.569
13.4943	0.633
13.5314	0.661
13.5685	0.677
13.6056	0.677
13.6427	0.675
13.6799	0.68
13.717	0.664
13.7541	0.631
13.7912	0.593
13.8283	0.526
13.8654	0.462
13.9026	0.448
13.9397	0.537
13.9768	0.65
14.0139	0.751
14.051	0.81
14.0882	0.863
14.1253	0.911
14.1624	0.94
14.1995	0.948
14.2366	0.967
14.2737	0.97
14.3109	0.973
14.348	0.964
14.3851	0.942
14.4222	0.897
14.4593	0.818
14.4964	0.706
14.5336	0.576
14.5707	0.444
14.6078	0.312
14.6449	0.253
14.682	0.276
14.7191	0.394
14.7563	0.523
14.7934	0.65
14.8305	0.748
14.8676	0.81
14.9047	0.841
14.9419	0.869
14.979	0.852
15.0161	0.795
15.0532	0.756
15.0903	0.759
15.1274	0.791
15.1646	0.81
15.2017	0.818
15.2388	0.822
15.2759	0.819
15.313	0.81
15.3501	0.809
15.3873	0.799
15.4244	0.793
15.4615	0.771
15.4986	0.77
15.5357	0.746
15.5728	0.75
15.61	0.726
15.6471	0.722
15.6842	0.703
15.7213	0.678
15.7584	0.664
15.7956	0.644
15.8327	0.621
15.8698	0.61
15.9069	0.599
15.944	0.58
15.9811	0.566
