Infrared Spectrum: 6,9-DICHLORO-2-METHOXY ACRIDINE
Formula: C14 H9 Cl2 N O
Melting point: 162-164 C
Class: COBLENTZ
Instrument: Not specified, most likely a prism, grating, or hybrid spectrometer.
Sampling: TRANSMISSION
Resolution: 4
Origin: WYANDOTTE CHEMICALS CORP., WYANDOTTE, MICHIGAN, USA
MICROMETERS	TRANSMITTANCE
2.022	0.17
2.06192	0.168
2.10184	0.165
2.14176	0.168
2.18168	0.163
2.2216	0.163
2.26152	0.153
2.30144	0.148
2.34136	0.151
2.38128	0.148
2.4212	0.146
2.46112	0.146
2.50104	0.145
2.54096	0.146
2.58088	0.15
2.6208	0.155
2.66072	0.173
2.70064	0.17
2.74056	0.168
2.78048	0.163
2.8204	0.163
2.86032	0.156
2.90024	0.155
2.94016	0.153
2.98008	0.151
3.02	0.151
3.05992	0.153
3.09984	0.151
3.13976	0.145
3.17968	0.135
3.2196	0.13
3.25952	0.108
3.29944	0.095
3.33936	0.061
3.37928	0.023
3.4192	0.023
3.45912	0.023
3.49904	0.018
3.53896	0.035
3.57888	0.088
3.6188	0.145
3.65872	0.17
3.69864	0.176
3.73856	0.18
3.77849	0.181
3.81841	0.183
3.85833	0.19
3.89825	0.196
3.93817	0.212
3.97809	0.225
4.01801	0.23
4.05793	0.217
4.09785	0.215
4.13777	0.213
4.17769	0.215
4.21761	0.222
4.25753	0.22
4.29745	0.215
4.33737	0.225
4.37729	0.242
4.41721	0.265
4.45713	0.26
4.49705	0.26
4.53697	0.265
4.57689	0.262
4.61681	0.258
4.65673	0.26
4.69665	0.263
4.73657	0.277
4.77649	0.282
4.81641	0.295
4.85633	0.312
4.89625	0.31
4.93617	0.303
4.97609	0.29
5.01601	0.315
5.05593	0.317
5.09585	0.322
5.13577	0.323
5.17569	0.327
5.21561	0.342
5.25553	0.327
5.29545	0.317
5.33537	0.333
5.37529	0.35
5.41521	0.358
5.45513	0.352
5.49505	0.372
5.53497	0.388
5.57489	0.385
5.61481	0.402
5.65473	0.367
5.69465	0.372
5.73457	0.377
5.77449	0.405
5.81441	0.395
5.85433	0.425
5.89425	0.444
5.93417	0.452
5.97409	0.474
6.01401	0.47
6.05393	0.542
6.09385	0.337
6.13377	0.128
6.17369	0.178
6.21361	0.183
6.25353	0.22
6.29345	0.293
6.33337	0.278
6.37329	0.223
6.41321	0.178
6.45313	0.198
6.49305	0.282
6.53297	0.297
6.57289	0.265
6.61281	0.308
6.65273	0.365
6.69265	0.348
6.73257	0.233
6.77249	0.083
6.81241	0.028
6.85233	0.033
6.89225	0.068
6.93217	0.121
6.97209	0.141
7.01201	0.165
7.05193	0.128
7.09185	0.156
7.13177	0.098
7.17169	0.113
7.21161	0.108
7.25153	0.073
7.29146	0.113
7.33138	0.158
7.3713	0.26
7.41122	0.317
7.45114	0.353
7.49106	0.378
7.53098	0.404
7.5709	0.392
7.61082	0.333
7.65074	0.232
7.69066	0.21
7.73058	0.335
7.7705	0.378
7.81042	0.435
7.85034	0.462
7.89026	0.322
7.93018	0.175
7.9701	0.32
8.01002	0.534
8.04994	0.53
8.08986	0.388
8.12978	0.13
8.1697	0.053
8.20962	0.041
8.24954	0.076
8.28946	0.121
8.32938	0.13
8.3693	0.168
8.40922	0.242
8.44914	0.243
8.48906	0.15
8.52898	0.207
8.5689	0.27
8.60882	0.315
8.64874	0.342
8.68866	0.333
8.72858	0.278
8.7685	0.348
8.80842	0.342
8.84834	0.323
8.88826	0.288
8.92818	0.327
8.9681	0.377
9.00802	0.424
9.04794	0.449
9.08786	0.475
9.12778	0.51
9.1677	0.529
9.20762	0.539
9.24754	0.502
9.28746	0.472
9.32738	0.475
9.3673	0.417
9.40722	0.181
9.44714	0.193
9.48706	0.307
9.52698	0.377
9.5669	0.41
9.60682	0.435
9.64674	0.405
9.68666	0.325
9.72658	0.168
9.7665	0.138
9.80642	0.227
9.84634	0.302
9.88626	0.347
9.92618	0.39
9.9661	0.42
10.006	0.447
10.0459	0.472
10.0859	0.48
10.1258	0.482
10.1657	0.5
10.2056	0.485
10.2455	0.509
10.2855	0.535
10.3254	0.55
10.3653	0.584
10.4052	0.554
10.4451	0.529
10.4851	0.524
10.525	0.49
10.5649	0.347
10.6048	0.136
10.6447	0.143
10.6847	0.235
10.7246	0.32
10.7645	0.367
10.8044	0.37
10.8443	0.414
10.8843	0.46
10.9242	0.487
10.9641	0.499
11.004	0.48
11.0439	0.455
11.0839	0.337
11.1238	0.173
11.1637	0.108
11.2036	0.101
11.2435	0.076
11.2835	0.091
11.3234	0.2
11.3633	0.307
11.4032	0.378
11.4431	0.42
11.4831	0.45
11.523	0.452
11.5629	0.465
11.6028	0.472
11.6427	0.462
11.6827	0.455
11.7226	0.475
11.7625	0.48
11.8024	0.462
11.8423	0.45
11.8823	0.417
11.9222	0.365
11.9621	0.305
12.002	0.186
12.0419	0.076
12.0819	0.095
12.1218	0.07
12.1617	0.018
12.2016	0.096
12.2415	0.33
12.2815	0.485
12.3214	0.519
12.3613	0.455
12.4012	0.297
12.4411	0.116
12.4811	0.06
12.521	0.185
12.5609	0.392
12.6008	0.59
12.6408	0.691
12.6807	0.767
12.7206	0.806
12.7605	0.681
12.8004	0.447
12.8404	0.414
12.8803	0.525
12.9202	0.582
12.9601	0.594
13	0.554
13.04	0.417
13.0799	0.27
13.1198	0.454
13.1597	0.684
13.1996	0.756
13.2396	0.786
13.2795	0.811
13.3194	0.809
13.3593	0.814
13.3992	0.801
13.4392	0.789
13.4791	0.782
13.519	0.766
13.5589	0.759
13.5988	0.766
13.6388	0.774
13.6787	0.784
13.7186	0.794
13.7585	0.782
13.7984	0.741
13.8384	0.732
13.8783	0.746
13.9182	0.769
13.9581	0.797
13.998	0.821
14.038	0.851
14.0779	0.879
14.1178	0.911
14.1577	0.938
14.1976	0.959
14.2376	0.959
14.2775	0.961
14.3174	0.961
14.3573	0.953
14.3972	0.889
14.4372	0.819
14.4771	0.792
14.517	0.851
14.5569	0.904
14.5968	0.924
14.6368	0.923
14.6767	0.916
14.7166	0.904
14.7565	0.903
14.7964	0.911
14.8364	0.921
14.8763	0.926
14.9162	0.941
14.9561	0.919
14.996	0.904
15.036	0.851
15.0759	0.803
15.1158	0.782
15.1557	0.789
15.1956	0.789
15.2356	0.751
15.2755	0.647
15.3154	0.49
15.3553	0.357
15.3952	0.297
15.4352	0.32
15.4751	0.385
15.515	0.46
15.5549	0.519
15.5948	0.55
15.6348	0.572
15.6747	0.584
15.7146	0.587
15.7545	0.569
15.7944	0.559
15.8344	0.54
15.8743	0.527
15.9142	0.497
15.9541	0.494
15.994	0.479
