Infrared Spectrum: ZINC CHROMATE
Formula: Zn Cr O4  * 7 H2 O
State: SOLID (NUJOL MULL)
Class: COBLENTZ
Instrument: Not specified, most likely a prism, grating, or hybrid spectrometer.
Sampling: TRANSMISSION
Resolution: 4
Origin: MELLON INSTITUTE
MICROMETERS	TRANSMITTANCE
2.031	0.499
2.07194	0.518
2.11289	0.543
2.15383	0.566
2.19478	0.584
2.23572	0.6
2.27667	0.608
2.31761	0.622
2.35855	0.643
2.3995	0.662
2.44044	0.684
2.48139	0.703
2.52233	0.722
2.56328	0.732
2.60422	0.744
2.64516	0.77
2.68611	0.778
2.72705	0.778
2.768	0.749
2.80894	0.617
2.84989	0.473
2.89083	0.348
2.93177	0.348
2.97272	0.375
3.01366	0.392
3.05461	0.409
3.09555	0.44
3.1365	0.481
3.17744	0.552
3.21838	0.6
3.25933	0.624
3.30027	0.596
3.34122	0.26
3.38216	0.089
3.42311	0.228
3.46405	0.233
3.50499	0.665
3.54594	0.778
3.58688	0.825
3.62783	0.833
3.66877	0.833
3.70972	0.833
3.75066	0.833
3.7916	0.833
3.83255	0.835
3.87349	0.838
3.91444	0.843
3.95538	0.849
3.99633	0.854
4.03727	0.859
4.07821	0.866
4.11916	0.873
4.1601	0.879
4.20105	0.885
4.24199	0.89
4.28294	0.897
4.32388	0.902
4.36482	0.907
4.40577	0.914
4.44671	0.917
4.48766	0.922
4.5286	0.926
4.56955	0.929
4.61049	0.934
4.65143	0.938
4.69238	0.939
4.73332	0.943
4.77427	0.945
4.81521	0.946
4.85616	0.946
4.8971	0.946
4.93804	0.948
4.97899	0.948
5.01993	0.943
5.06088	0.941
5.10182	0.936
5.14277	0.929
5.18371	0.924
5.22465	0.921
5.2656	0.914
5.30654	0.91
5.34749	0.907
5.38843	0.903
5.42938	0.902
5.47032	0.9
5.51126	0.9
5.55221	0.9
5.59315	0.898
5.6341	0.898
5.67504	0.9
5.71599	0.902
5.75693	0.903
5.79787	0.909
5.83882	0.914
5.87976	0.917
5.92071	0.917
5.96165	0.915
6.0026	0.912
6.04354	0.909
6.08448	0.9
6.12543	0.89
6.16637	0.888
6.20732	0.886
6.24826	0.886
6.28921	0.888
6.33015	0.89
6.37109	0.89
6.41204	0.893
6.45298	0.898
6.49393	0.902
6.53487	0.903
6.57582	0.909
6.61676	0.914
6.6577	0.917
6.69865	0.917
6.73959	0.902
6.78054	0.801
6.82148	0.639
6.86243	0.619
6.90337	0.636
6.94431	0.74
6.98526	0.842
7.0262	0.871
7.06715	0.902
7.10809	0.933
7.14904	0.936
7.18998	0.902
7.23092	0.766
7.27187	0.775
7.31281	0.804
7.35376	0.855
7.3947	0.886
7.43565	0.898
7.47659	0.903
7.51753	0.919
7.55848	0.924
7.59942	0.926
7.64037	0.926
7.68131	0.926
7.72226	0.926
7.7632	0.926
7.80414	0.926
7.84509	0.927
7.88603	0.929
7.92698	0.929
7.96792	0.929
8.00887	0.926
8.04981	0.922
8.09075	0.917
8.1317	0.905
8.17264	0.89
8.21359	0.845
8.25453	0.804
8.29548	0.739
8.33642	0.643
8.37736	0.557
8.41831	0.523
8.45925	0.521
8.5002	0.533
8.54114	0.545
8.58209	0.557
8.62303	0.562
8.66397	0.555
8.70492	0.543
8.74586	0.53
8.78681	0.512
8.82775	0.499
8.8687	0.48
8.90964	0.466
8.95058	0.451
8.99153	0.442
9.03247	0.433
9.07342	0.432
9.11436	0.432
9.1553	0.43
9.19625	0.43
9.23719	0.43
9.27814	0.43
9.31908	0.433
9.36003	0.44
9.40097	0.449
9.44191	0.451
9.48286	0.452
9.5238	0.454
9.56475	0.456
9.60569	0.469
9.64664	0.499
9.68758	0.557
9.72852	0.605
9.76947	0.651
9.81041	0.682
9.85136	0.703
9.8923	0.723
9.93325	0.735
9.97419	0.744
10.0151	0.753
10.0561	0.754
10.097	0.754
10.138	0.749
10.1789	0.728
10.2199	0.691
10.2608	0.639
10.3017	0.548
10.3427	0.475
10.3836	0.394
10.4246	0.313
10.4655	0.262
10.5065	0.241
10.5474	0.216
10.5884	0.207
10.6293	0.204
10.6702	0.204
10.7112	0.204
10.7521	0.21
10.7931	0.216
10.834	0.221
10.875	0.222
10.9159	0.221
10.9569	0.214
10.9978	0.204
11.0387	0.193
11.0797	0.181
11.1206	0.174
11.1616	0.169
11.2025	0.161
11.2435	0.154
11.2844	0.149
11.3254	0.145
11.3663	0.142
11.4072	0.14
11.4482	0.14
11.4891	0.144
11.5301	0.171
11.571	0.209
11.612	0.267
11.6529	0.31
11.6939	0.344
11.7348	0.373
11.7757	0.394
11.8167	0.404
11.8576	0.411
11.8986	0.409
11.9395	0.403
11.9805	0.387
12.0214	0.36
12.0623	0.334
12.1033	0.31
12.1442	0.281
12.1852	0.259
12.2261	0.24
12.2671	0.214
12.308	0.198
12.349	0.188
12.3899	0.183
12.4308	0.178
12.4718	0.174
12.5127	0.173
12.5537	0.173
12.5946	0.173
12.6356	0.174
12.6765	0.178
12.7175	0.183
12.7584	0.193
12.7993	0.204
12.8403	0.217
12.8812	0.236
12.9222	0.259
12.9631	0.277
13.0041	0.303
13.045	0.324
13.086	0.348
13.1269	0.372
13.1678	0.394
13.2088	0.413
13.2497	0.427
13.2907	0.437
13.3316	0.449
13.3726	0.456
13.4135	0.461
13.4545	0.468
13.4954	0.471
13.5363	0.473
13.5773	0.475
13.6182	0.48
13.6592	0.48
13.7001	0.481
13.7411	0.481
13.782	0.48
13.823	0.478
13.8639	0.473
13.9048	0.469
13.9458	0.468
13.9867	0.471
14.0277	0.475
14.0686	0.48
14.1096	0.485
14.1505	0.493
14.1915	0.499
14.2324	0.511
14.2733	0.523
14.3143	0.535
14.3552	0.548
14.3962	0.559
14.4371	0.574
14.4781	0.583
14.519	0.593
14.56	0.6
14.6009	0.603
14.6418	0.61
14.6828	0.614
14.7237	0.614
14.7647	0.614
14.8056	0.614
14.8466	0.614
14.8875	0.614
14.9284	0.612
14.9694	0.61
15.0103	0.612
15.0513	0.614
15.0922	0.612
15.1332	0.61
15.1741	0.608
15.2151	0.607
15.256	0.602
15.2969	0.598
15.3379	0.591
15.3788	0.588
15.4198	0.583
15.4607	0.578
15.5017	0.572
15.5426	0.567
15.5836	0.564
15.6245	0.56
15.6654	0.555
15.7064	0.55
15.7473	0.543
15.7883	0.54
15.8292	0.536
15.8702	0.533
15.9111	0.53
15.9521	0.53
15.993	0.53
