Infrared Spectrum: 1,1'-FERROCENEDICARBOXYLIC ACID, DIGLYCIDYL ESTER
Formula: C18 H18 Fe O6
State: SOLID (MINERAL OIL MULL)
Melting point: 52-53 C
Class: COBLENTZ
Instrument: Not specified, most likely a prism, grating, or hybrid spectrometer.
Sampling: TRANSMISSION
Resolution: 4
Origin: WYANDOTTE CHEMICALS CORP., WYANDOTTE, MICHIGAN, USA
MICROMETERS	TRANSMITTANCE
2.027	0.668
2.06788	0.672
2.10875	0.672
2.14963	0.682
2.1905	0.675
2.23138	0.679
2.27226	0.675
2.31313	0.699
2.35401	0.701
2.39488	0.704
2.43576	0.703
2.47664	0.703
2.51751	0.713
2.55839	0.732
2.59927	0.727
2.64014	0.728
2.68102	0.742
2.72189	0.74
2.76277	0.737
2.80365	0.737
2.84452	0.723
2.8854	0.713
2.92627	0.706
2.96715	0.698
3.00803	0.703
3.0489	0.686
3.08978	0.689
3.13065	0.692
3.17153	0.679
3.21241	0.622
3.25328	0.622
3.29416	0.624
3.33504	0.421
3.37591	0.164
3.41679	0.114
3.45766	0.207
3.49854	0.231
3.53942	0.445
3.58029	0.739
3.62117	0.778
3.66204	0.777
3.70292	0.773
3.7438	0.787
3.78467	0.811
3.82555	0.819
3.86642	0.818
3.9073	0.831
3.94818	0.833
3.98905	0.849
4.02993	0.849
4.0708	0.849
4.11168	0.852
4.15256	0.857
4.19343	0.861
4.23431	0.859
4.27519	0.859
4.31606	0.861
4.35694	0.864
4.39781	0.873
4.43869	0.871
4.47957	0.857
4.52044	0.867
4.56132	0.888
4.60219	0.897
4.64307	0.897
4.68395	0.9
4.72482	0.907
4.7657	0.905
4.80657	0.907
4.84745	0.912
4.88833	0.91
4.9292	0.91
4.97008	0.909
5.01096	0.919
5.05183	0.917
5.09271	0.929
5.13358	0.934
5.17446	0.934
5.21534	0.929
5.25621	0.939
5.29709	0.946
5.33796	0.957
5.37884	0.96
5.41972	0.958
5.46059	0.953
5.50147	0.938
5.54234	0.924
5.58322	0.895
5.6241	0.885
5.66497	0.869
5.70585	0.819
5.74672	0.686
5.7876	0.32
5.82848	0.13
5.86935	0.09
5.91023	0.219
5.95111	0.37
5.99198	0.459
6.03286	0.564
6.07373	0.65
6.11461	0.677
6.15549	0.703
6.19636	0.715
6.23724	0.74
6.27811	0.778
6.31899	0.78
6.35987	0.777
6.40074	0.753
6.44162	0.723
6.48249	0.732
6.52337	0.739
6.56425	0.766
6.60512	0.775
6.646	0.77
6.68688	0.744
6.72775	0.617
6.76863	0.36
6.8095	0.147
6.85038	0.221
6.89126	0.317
6.93213	0.447
6.97301	0.555
7.01388	0.62
7.05476	0.672
7.09564	0.672
7.13651	0.55
7.17739	0.617
7.21826	0.423
7.25914	0.264
7.30002	0.399
7.34089	0.533
7.38177	0.468
7.42264	0.535
7.46352	0.627
7.5044	0.744
7.54527	0.728
7.58615	0.725
7.62703	0.701
7.6679	0.626
7.70878	0.506
7.74965	0.327
7.79053	0.157
7.83141	0.109
7.87228	0.113
7.91316	0.259
7.95403	0.315
7.99491	0.442
8.03579	0.55
8.07666	0.608
8.11754	0.641
8.15841	0.622
8.19929	0.583
8.24017	0.68
8.28104	0.71
8.32192	0.715
8.3628	0.704
8.40367	0.682
8.44455	0.72
8.48542	0.703
8.5263	0.627
8.56718	0.53
8.60805	0.559
8.64893	0.444
8.6898	0.267
8.73068	0.159
8.77156	0.152
8.81243	0.142
8.85331	0.159
8.89418	0.15
8.93506	0.168
8.97594	0.339
9.01681	0.44
9.05769	0.526
9.09856	0.581
9.13944	0.603
9.18032	0.619
9.22119	0.602
9.26207	0.596
9.30295	0.584
9.34382	0.584
9.3847	0.542
9.42557	0.579
9.46645	0.554
9.50733	0.65
9.5482	0.692
9.58908	0.699
9.62995	0.619
9.67083	0.415
9.71171	0.368
9.75258	0.487
9.79346	0.624
9.83433	0.687
9.87521	0.715
9.91609	0.73
9.95696	0.732
9.99784	0.732
10.0387	0.704
10.0796	0.658
10.1205	0.603
10.1613	0.572
10.2022	0.5
10.2431	0.427
10.284	0.433
10.3248	0.514
10.3657	0.602
10.4066	0.636
10.4475	0.689
10.4884	0.735
10.5292	0.751
10.5701	0.758
10.611	0.766
10.6519	0.77
10.6927	0.783
10.7336	0.789
10.7745	0.782
10.8154	0.775
10.8562	0.73
10.8971	0.593
10.938	0.409
10.9789	0.322
11.0197	0.288
11.0606	0.3
11.1015	0.401
11.1424	0.478
11.1832	0.423
11.2241	0.42
11.265	0.55
11.3059	0.605
11.3468	0.56
11.3876	0.531
11.4285	0.469
11.4694	0.523
11.5103	0.555
11.5511	0.492
11.592	0.461
11.6329	0.487
11.6738	0.469
11.7146	0.464
11.7555	0.502
11.7964	0.531
11.8373	0.562
11.8781	0.56
11.919	0.538
11.9599	0.493
12.0008	0.514
12.0416	0.605
12.0825	0.682
12.1234	0.725
12.1643	0.74
12.2051	0.756
12.246	0.77
12.2869	0.771
12.3278	0.777
12.3687	0.775
12.4095	0.765
12.4504	0.725
12.4913	0.672
12.5322	0.662
12.573	0.62
12.6139	0.622
12.6548	0.728
12.6957	0.73
12.7365	0.68
12.7774	0.698
12.8183	0.703
12.8592	0.566
12.9	0.343
12.9409	0.346
12.9818	0.519
13.0227	0.612
13.0635	0.634
13.1044	0.684
13.1453	0.65
13.1862	0.584
13.2271	0.581
13.2679	0.571
13.3088	0.543
13.3497	0.591
13.3906	0.66
13.4314	0.71
13.4723	0.746
13.5132	0.758
13.5541	0.77
13.5949	0.771
13.6358	0.773
13.6767	0.78
13.7176	0.777
13.7584	0.782
13.7993	0.78
13.8402	0.78
13.8811	0.778
13.9219	0.78
13.9628	0.789
14.0037	0.795
14.0446	0.802
14.0854	0.814
14.1263	0.816
14.1672	0.818
14.2081	0.825
14.249	0.825
14.2898	0.819
14.3307	0.825
14.3716	0.818
14.4125	0.813
14.4533	0.819
14.4942	0.816
14.5351	0.818
14.576	0.816
14.6168	0.811
14.6577	0.807
14.6986	0.804
14.7395	0.806
14.7803	0.799
14.8212	0.794
14.8621	0.792
14.903	0.792
14.9438	0.79
14.9847	0.78
15.0256	0.753
15.0665	0.732
15.1074	0.725
15.1482	0.754
15.1891	0.763
15.23	0.758
15.2709	0.756
15.3117	0.754
15.3526	0.759
15.3935	0.744
15.4344	0.744
15.4752	0.734
15.5161	0.723
15.557	0.72
15.5979	0.722
15.6387	0.718
15.6796	0.718
15.7205	0.711
15.7614	0.706
15.8022	0.703
15.8431	0.696
15.884	0.692
15.9249	0.682
15.9657	0.682
