Infrared Spectrum: L-2,4-DIAMINO-1-BUTANETHIOL DIHYDROCHLORIDE
Formula: C4 H12 N2 S  * 2 H Cl
State: SOLID (MINERAL OIL MULL)
Melting point: 63-66 C
Class: COBLENTZ
Instrument: Not specified, most likely a prism, grating, or hybrid spectrometer.
Sampling: TRANSMISSION
Resolution: 4
Origin: ARTHUR D. LITTLE, INC.
1/CM	TRANSMITTANCE
645.736	0.687
653.488	0.72
661.24	0.749
668.992	0.772
676.744	0.79
684.496	0.804
692.248	0.807
700	0.768
707.752	0.762
715.503	0.824
723.255	0.849
731.007	0.869
738.759	0.88
746.511	0.88
754.263	0.886
762.015	0.88
769.767	0.853
777.519	0.67
785.271	0.86
793.023	0.916
800.775	0.93
808.527	0.934
816.279	0.934
824.031	0.934
831.783	0.93
839.535	0.923
847.287	0.902
855.038	0.884
862.79	0.931
870.542	0.926
878.294	0.92
886.046	0.919
893.798	0.898
901.55	0.864
909.302	0.695
917.054	0.78
924.806	0.842
932.558	0.718
940.31	0.765
948.062	0.898
955.814	0.892
963.566	0.87
971.318	0.822
979.07	0.713
986.821	0.751
994.573	0.881
1002.33	0.895
1010.08	0.889
1017.83	0.878
1025.58	0.872
1033.33	0.886
1041.09	0.889
1048.84	0.888
1056.59	0.886
1064.34	0.881
1072.09	0.875
1079.84	0.861
1087.6	0.886
1095.35	0.886
1103.1	0.875
1110.85	0.85
1118.6	0.762
1126.36	0.623
1134.11	0.791
1141.86	0.698
1149.61	0.724
1157.36	0.849
1165.12	0.842
1172.87	0.814
1180.62	0.646
1188.37	0.688
1196.12	0.852
1203.88	0.897
1211.63	0.906
1219.38	0.903
1227.13	0.898
1234.88	0.853
1242.64	0.796
1250.39	0.894
1258.14	0.897
1265.89	0.869
1273.64	0.83
1281.4	0.889
1289.15	0.874
1296.9	0.816
1304.65	0.864
1312.4	0.888
1320.16	0.881
1327.91	0.864
1335.66	0.85
1343.41	0.846
1351.16	0.827
1358.91	0.758
1366.67	0.685
1374.42	0.569
1382.17	0.595
1389.92	0.8
1397.67	0.802
1405.43	0.735
1413.18	0.631
1420.93	0.65
1428.68	0.688
1436.43	0.6
1444.19	0.474
1451.94	0.293
1459.69	0.16
1467.44	0.236
1475.19	0.437
1482.95	0.662
1490.7	0.65
1498.45	0.493
1506.2	0.363
1513.95	0.603
1521.71	0.813
1529.46	0.838
1537.21	0.841
1544.96	0.833
1552.71	0.799
1560.47	0.771
1568.22	0.706
1575.97	0.542
1583.72	0.648
1591.47	0.774
1599.22	0.727
1606.98	0.659
1614.73	0.707
1622.48	0.748
1630.23	0.763
1637.98	0.637
1645.74	0.785
1653.49	0.891
1661.24	0.908
1668.99	0.916
1676.74	0.914
1684.5	0.916
1692.25	0.919
1700	0.928
1707.75	0.931
1715.5	0.928
1723.26	0.926
1731.01	0.925
1738.76	0.925
1746.51	0.922
1754.26	0.925
1762.02	0.922
1769.77	0.922
1777.52	0.922
1785.27	0.925
1793.02	0.925
1800.78	0.925
1808.53	0.923
1816.28	0.922
1824.03	0.917
1831.78	0.914
1839.54	0.912
1847.29	0.912
1855.04	0.911
1862.79	0.908
1870.54	0.905
1878.29	0.902
1886.05	0.897
1893.8	0.888
1901.55	0.883
1909.3	0.874
1917.05	0.867
1924.81	0.86
1932.56	0.844
1940.31	0.825
1948.06	0.813
1955.81	0.772
1963.57	0.762
1971.32	0.755
1979.07	0.758
1986.82	0.758
1994.57	0.769
2002.33	0.782
2010.08	0.802
2017.83	0.824
2025.58	0.833
2033.33	0.841
2041.09	0.85
2048.84	0.852
2056.59	0.85
2064.34	0.849
2072.09	0.847
2079.85	0.842
2087.6	0.846
2095.35	0.847
2103.1	0.842
2110.85	0.842
2118.61	0.849
2126.36	0.855
2134.11	0.86
2141.86	0.861
2149.61	0.861
2157.36	0.858
2165.12	0.861
2172.87	0.863
2180.62	0.863
2188.37	0.863
2196.12	0.864
2203.88	0.864
2211.63	0.863
2219.38	0.863
2227.13	0.863
2234.88	0.863
2242.64	0.861
2250.39	0.861
2258.14	0.855
2265.89	0.853
2273.64	0.849
2281.4	0.849
2289.15	0.846
2296.9	0.844
2304.65	0.836
2312.4	0.811
2320.16	0.794
2327.91	0.788
2335.66	0.788
2343.41	0.79
2351.16	0.79
2358.92	0.786
2366.67	0.786
2374.42	0.79
2382.17	0.794
2389.92	0.791
2397.68	0.786
2405.43	0.782
2413.18	0.779
2420.93	0.777
2428.68	0.78
2436.43	0.768
2444.19	0.763
2451.94	0.755
2459.69	0.743
2467.44	0.709
2475.19	0.688
2482.95	0.684
2490.7	0.702
2498.45	0.707
2506.2	0.701
2513.95	0.696
2521.71	0.692
2529.46	0.662
2537.21	0.632
2544.96	0.581
2552.71	0.542
2560.47	0.443
2568.22	0.542
2575.97	0.566
2583.72	0.622
2591.47	0.639
2599.23	0.643
2606.98	0.642
2614.73	0.623
2622.48	0.595
2630.23	0.576
2637.99	0.573
2645.74	0.572
2653.49	0.566
2661.24	0.566
2668.99	0.564
2676.75	0.548
2684.5	0.548
2692.25	0.555
2700	0.547
2707.75	0.534
2715.5	0.524
2723.26	0.505
2731.01	0.483
2738.76	0.485
2746.51	0.477
2754.26	0.468
2762.02	0.451
2769.77	0.419
2777.52	0.402
2785.27	0.381
2793.02	0.381
2800.78	0.379
2808.53	0.353
2816.28	0.314
2824.03	0.279
2831.78	0.234
2839.54	0.152
2847.29	0.069
2855.04	0.054
2862.79	0.052
2870.54	0.057
2878.3	0.06
2886.05	0.057
2893.8	0.051
2901.55	0.043
2909.3	0.041
2917.06	0.04
2924.81	0.038
2932.56	0.04
2940.31	0.04
2948.06	0.04
2955.82	0.041
2963.57	0.048
2971.32	0.051
2979.07	0.071
2986.82	0.099
2994.57	0.104
3002.33	0.102
3010.08	0.101
3017.83	0.101
3025.58	0.102
3033.33	0.105
3041.09	0.108
3048.84	0.132
3056.59	0.153
3064.34	0.172
3072.09	0.178
3079.85	0.185
3087.6	0.195
3095.35	0.205
3103.1	0.227
3110.85	0.255
3118.61	0.264
3126.36	0.279
3134.11	0.29
3141.86	0.32
3149.61	0.351
3157.37	0.385
3165.12	0.429
3172.87	0.477
3180.62	0.516
3188.37	0.545
3196.13	0.553
3203.88	0.552
3211.63	0.556
3219.38	0.545
3227.13	0.545
3234.88	0.567
3242.64	0.583
3250.39	0.639
3258.14	0.668
3265.89	0.696
3273.64	0.709
3281.4	0.713
3289.15	0.709
3296.9	0.701
3304.65	0.698
3312.4	0.688
3320.16	0.676
3327.91	0.66
3335.66	0.636
3343.41	0.614
3351.16	0.594
3358.92	0.567
3366.67	0.52
3374.42	0.485
3382.17	0.429
3389.92	0.356
3397.68	0.287
3405.43	0.259
3413.18	0.258
3420.93	0.253
3428.68	0.233
3436.44	0.231
3444.19	0.244
3451.94	0.272
3459.69	0.303
3467.44	0.359
3475.2	0.423
3482.95	0.479
3490.7	0.552
3498.45	0.604
3506.2	0.637
3513.95	0.682
3521.71	0.706
3529.46	0.735
3537.21	0.751
3544.96	0.769
3552.71	0.782
3560.47	0.79
3568.22	0.797
3575.97	0.804
3583.72	0.808
3591.47	0.818
3599.23	0.838
3606.98	0.842
3614.73	0.847
3622.48	0.85
3630.23	0.852
3637.99	0.85
3645.74	0.85
3653.49	0.855
3661.24	0.856
3668.99	0.852
3676.75	0.847
3684.5	0.849
3692.25	0.844
