Infrared Spectrum: Alpha,Alpha-DICHLOROPROPIONIC ACID, AMMONIUM SALT
Formula: C3 H7 Cl2 N O2
State: SOLID (MINERAL OIL MULL)
Class: COBLENTZ
Instrument: Not specified, most likely a prism, grating, or hybrid spectrometer.
Sampling: TRANSMISSION
Resolution: 4
Origin: DOW CHEMICAL COMPANY
MICROMETERS	TRANSMITTANCE
2.02	0.867
2.06098	0.86
2.10196	0.863
2.14294	0.862
2.18391	0.862
2.22489	0.858
2.26587	0.855
2.30685	0.863
2.34783	0.865
2.38881	0.87
2.42978	0.872
2.47076	0.88
2.51174	0.88
2.55272	0.879
2.5937	0.879
2.63468	0.882
2.67565	0.882
2.71663	0.875
2.75761	0.868
2.79859	0.865
2.83957	0.855
2.88055	0.838
2.92152	0.822
2.9625	0.785
3.00348	0.706
3.04446	0.597
3.08544	0.458
3.12642	0.342
3.1674	0.327
3.20837	0.257
3.24935	0.229
3.29033	0.233
3.33131	0.223
3.37229	0.134
3.41327	0.098
3.45424	0.165
3.49522	0.233
3.5362	0.385
3.57718	0.454
3.61816	0.55
3.65914	0.618
3.70011	0.674
3.74109	0.715
3.78207	0.744
3.82305	0.768
3.86403	0.792
3.90501	0.814
3.94598	0.826
3.98696	0.839
4.02794	0.853
4.06892	0.865
4.1099	0.87
4.15088	0.873
4.19186	0.873
4.23283	0.875
4.27381	0.882
4.31479	0.882
4.35577	0.875
4.39675	0.872
4.43773	0.862
4.4787	0.85
4.51968	0.848
4.56066	0.86
4.60164	0.865
4.64262	0.865
4.6836	0.865
4.72457	0.862
4.76555	0.862
4.80653	0.867
4.84751	0.872
4.88849	0.873
4.92947	0.87
4.97044	0.862
5.01142	0.848
5.0524	0.843
5.09338	0.846
5.13436	0.862
5.17534	0.865
5.21632	0.868
5.25729	0.863
5.29827	0.855
5.33925	0.843
5.38023	0.841
5.42121	0.844
5.46219	0.851
5.50316	0.865
5.54414	0.868
5.58512	0.873
5.6261	0.873
5.66708	0.873
5.70806	0.862
5.74903	0.817
5.79001	0.744
5.83099	0.621
5.87197	0.717
5.91295	0.725
5.95393	0.722
5.99491	0.669
6.03588	0.584
6.07686	0.466
6.11784	0.281
6.15882	0.132
6.1998	0.057
6.24078	0.081
6.28175	0.223
6.32273	0.393
6.36371	0.538
6.40469	0.647
6.44567	0.674
6.48665	0.71
6.52762	0.713
6.5686	0.713
6.60958	0.686
6.65056	0.637
6.69154	0.546
6.73252	0.393
6.77349	0.241
6.81447	0.173
6.85545	0.226
6.89643	0.281
6.93741	0.33
6.97839	0.461
7.01937	0.592
7.06034	0.633
7.10132	0.63
7.1423	0.557
7.18328	0.441
7.22426	0.274
7.26524	0.565
7.30621	0.441
7.34719	0.274
7.38817	0.451
7.42915	0.686
7.47013	0.776
7.51111	0.817
7.55208	0.833
7.59306	0.844
7.63404	0.851
7.67502	0.86
7.716	0.865
7.75698	0.867
7.79795	0.87
7.83893	0.873
7.87991	0.879
7.92089	0.887
7.96187	0.887
8.00285	0.887
8.04383	0.884
8.0848	0.887
8.12578	0.892
8.16676	0.894
8.20774	0.899
8.24872	0.901
8.2897	0.906
8.33067	0.909
8.37165	0.913
8.41263	0.913
8.45361	0.913
8.49459	0.908
8.53557	0.906
8.57654	0.906
8.61752	0.908
8.6585	0.909
8.69948	0.902
8.74046	0.879
8.78144	0.827
8.82241	0.746
8.86339	0.814
8.90437	0.885
8.94535	0.89
8.98633	0.896
9.02731	0.892
9.06829	0.885
9.10926	0.87
9.15024	0.824
9.19122	0.744
9.2322	0.563
9.27318	0.41
9.31416	0.591
9.35513	0.712
9.39611	0.756
9.43709	0.708
9.47807	0.649
9.51905	0.705
9.56003	0.827
9.601	0.87
9.64198	0.88
9.68296	0.889
9.72394	0.896
9.76492	0.899
9.8059	0.904
9.84687	0.908
9.88785	0.913
9.92883	0.914
9.96981	0.918
10.0108	0.919
10.0518	0.916
10.0927	0.918
10.1337	0.918
10.1747	0.921
10.2157	0.925
10.2567	0.925
10.2976	0.928
10.3386	0.928
10.3796	0.926
10.4206	0.928
10.4616	0.928
10.5025	0.93
10.5435	0.931
10.5845	0.931
10.6255	0.931
10.6664	0.926
10.7074	0.928
10.7484	0.931
10.7894	0.931
10.8304	0.931
10.8713	0.931
10.9123	0.935
10.9533	0.938
10.9943	0.94
11.0352	0.942
11.0762	0.942
11.1172	0.936
11.1582	0.93
11.1992	0.916
11.2401	0.889
11.2811	0.829
11.3221	0.793
11.3631	0.841
11.4041	0.885
11.445	0.909
11.486	0.921
11.527	0.928
11.568	0.931
11.6089	0.935
11.6499	0.935
11.6909	0.936
11.7319	0.936
11.7729	0.933
11.8138	0.923
11.8548	0.921
11.8958	0.921
11.9368	0.919
11.9778	0.913
12.0187	0.911
12.0597	0.909
12.1007	0.908
12.1417	0.901
12.1826	0.894
12.2236	0.88
12.2646	0.867
12.3056	0.863
12.3466	0.862
12.3875	0.86
12.4285	0.851
12.4695	0.844
12.5105	0.836
12.5514	0.826
12.5924	0.816
12.6334	0.802
12.6744	0.792
12.7154	0.78
12.7563	0.773
12.7973	0.763
12.8383	0.752
12.8793	0.741
12.9203	0.724
12.9612	0.703
13.0022	0.684
13.0432	0.664
13.0842	0.643
13.1251	0.623
13.1661	0.599
13.2071	0.575
13.2481	0.555
13.2891	0.534
13.33	0.519
13.371	0.511
13.412	0.511
13.453	0.521
13.494	0.541
13.5349	0.562
13.5759	0.58
13.6169	0.591
13.6579	0.596
13.6988	0.587
13.7398	0.565
13.7808	0.519
13.8218	0.442
13.8628	0.347
13.9037	0.274
13.9447	0.252
13.9857	0.291
14.0267	0.39
14.0677	0.485
14.1086	0.545
14.1496	0.58
14.1906	0.606
14.2316	0.623
14.2725	0.633
14.3135	0.643
14.3545	0.645
14.3955	0.645
14.4365	0.645
14.4774	0.64
14.5184	0.637
14.5594	0.632
14.6004	0.628
14.6413	0.625
14.6823	0.618
14.7233	0.613
14.7643	0.606
14.8053	0.597
14.8462	0.587
14.8872	0.575
14.9282	0.563
14.9692	0.56
15.0102	0.557
15.0511	0.551
15.0921	0.546
15.1331	0.54
15.1741	0.536
15.215	0.531
15.256	0.526
15.297	0.524
15.338	0.517
15.379	0.512
15.4199	0.507
15.4609	0.5
15.5019	0.494
15.5429	0.487
15.5839	0.48
15.6248	0.473
15.6658	0.465
15.7068	0.458
15.7478	0.451
15.7887	0.448
15.8297	0.441
15.8707	0.434
