Infrared Spectrum: 2-PROPANESULFONIC ACID, 2-HYDROXY-,SODIUM SALT
Formula: C3 H7 Na O4 S
State: SOLID (SPLIT MULL)
Class: COBLENTZ III
Instrument: DOW KBr FOREPRISM-GRATING
Instrument parameters: BLAZED AT 3.5, 12.0, 20.0 MICRON AND CHANGED AT 5.0, 7.5, 14.9 MICRON
Sampling: TRANSMISSION
Resolution: 2
Origin: DOW CHEMICAL COMPANY
1/CM	TRANSMITTANCE
3800	0.8744
3791	0.8744
3782	0.8744
3773	0.8743
3764	0.8743
3755	0.8743
3746	0.8742
3737	0.8743
3728	0.875
3719	0.8762
3710	0.8778
3701	0.8798
3692	0.8784
3683	0.8755
3674	0.8727
3665	0.871
3656	0.8703
3647	0.8697
3638	0.8693
3629	0.8689
3620	0.8685
3611	0.8677
3602	0.8661
3593	0.8641
3584	0.8605
3575	0.8554
3566	0.8515
3557	0.8513
3548	0.8515
3539	0.8507
3530	0.8497
3521	0.8471
3512	0.8442
3503	0.8406
3494	0.8362
3485	0.8317
3476	0.8266
3467	0.8191
3458	0.8114
3449	0.8028
3440	0.7914
3431	0.7785
3422	0.764
3413	0.7424
3404	0.7143
3395	0.6701
3386	0.6392
3377	0.6165
3368	0.603
3359	0.5847
3350	0.5558
3341	0.4916
3332	0.4074
3323	0.2525
3314	0.1735
3305	0.2597
3296	0.3973
3287	0.4587
3278	0.4964
3269	0.5258
3260	0.5558
3251	0.5856
3242	0.6108
3233	0.6344
3224	0.6745
3215	0.7053
3206	0.7238
3197	0.7405
3188	0.7567
3179	0.7715
3170	0.7858
3161	0.7976
3152	0.8086
3143	0.8187
3134	0.8274
3125	0.8351
3116	0.8409
3107	0.8444
3098	0.8471
3089	0.8501
3080	0.8534
3071	0.8567
3062	0.8593
3053	0.8612
3044	0.8623
3035	0.8627
3026	0.8647
3017	0.8217
3008	0.8375
2999	0.8589
2990	0.5806
2981	0.7305
2972	0.8488
2963	0.8459
2954	0.8296
2945	0.8297
2936	0.8216
2927	0.843
2918	0.861
2909	0.8624
2900	0.8607
2891	0.8598
2882	0.8594
2873	0.8593
2864	0.8602
2855	0.866
2846	0.8658
2837	0.8597
2828	0.8577
2819	0.8592
2810	0.8613
2801	0.8618
2792	0.8618
2783	0.8611
2774	0.8602
2765	0.859
2756	0.8585
2747	0.8581
2738	0.857
2729	0.8543
2720	0.8452
2711	0.8348
2702	0.839
2693	0.8518
2684	0.8608
2675	0.8654
2666	0.8671
2657	0.8688
2648	0.8699
2639	0.8704
2630	0.871
2621	0.8706
2612	0.8696
2603	0.8689
2594	0.8683
2585	0.8675
2576	0.8673
2567	0.8671
2558	0.8668
2549	0.8665
2540	0.8659
2531	0.8647
2522	0.8615
2513	0.8532
2504	0.8457
2495	0.844
2486	0.8518
2477	0.8582
2468	0.8612
2459	0.862
2450	0.8627
2441	0.8631
2432	0.863
2423	0.8627
2414	0.8623
2405	0.8618
2396	0.8611
2387	0.8593
2378	0.8575
2369	0.8558
2360	0.8531
2351	0.8498
2342	0.8447
2333	0.8421
2324	0.842
2315	0.8425
2306	0.8433
2297	0.8434
2288	0.8436
2279	0.8454
2270	0.8468
2261	0.8473
2252	0.8482
2243	0.8492
2234	0.8501
2225	0.8591
2216	0.8621
2207	0.8618
2198	0.8621
2189	0.8631
2180	0.8642
2171	0.8652
2162	0.8662
2153	0.8671
2144	0.8681
2135	0.869
2126	0.8699
2117	0.8706
2108	0.8714
2099	0.8723
2090	0.8734
2081	0.8752
2072	0.8773
2063	0.879
2054	0.8805
2045	0.8821
2036	0.9221
2027	0.9039
2018	0.8846
2009	0.8845
2000	0.8782
1991	0.8813
1982	0.8851
1973	0.8864
1964	0.8889
1955	0.8928
1946	0.8858
1937	0.8818
1928	0.8809
1919	0.8809
1910	0.881
1901	0.8811
1892	0.8812
1883	0.8808
1874	0.8805
1865	0.8803
1856	0.8798
1847	0.879
1838	0.8785
1829	0.8781
1820	0.8785
1811	0.8761
1802	0.8732
1793	0.875
1784	0.8761
1775	0.8766
1766	0.8752
1757	0.8748
1748	0.8778
1739	0.8802
1730	0.8792
1721	0.8773
1712	0.8759
1703	0.8751
1694	0.8744
1685	0.8733
1676	0.8725
1667	0.8718
1658	0.8733
1649	0.8741
1640	0.8741
1631	0.874
1622	0.8742
1613	0.8746
1604	0.8753
1595	0.8759
1586	0.8754
1577	0.8746
1568	0.874
1559	0.8737
1550	0.8732
1541	0.8718
1532	0.8712
1523	0.8692
1514	0.8668
1505	0.8643
1496	0.8601
1487	0.8405
1478	0.6392
1469	0.8228
1460	0.7994
1451	0.7271
1442	0.808
1433	0.8093
1424	0.7986
1415	0.8253
1406	0.8353
1397	0.8347
1388	0.7671
1379	0.8124
1370	0.6389
1361	0.6415
1352	0.7439
1343	0.7486
1334	0.7706
1325	0.7771
1316	0.7708
1307	0.7636
1298	0.7547
1289	0.739
1280	0.6568
1271	0.5248
1262	0.5581
1253	0.4354
1244	0.2775
1235	0.1196
1226	0.1308
1217	0.1728
1208	0.0892
1199	0.0201
1190	0.2375
1181	0.2969
1172	0.2361
1163	0.1613
1154	0.0866
1145	0.1923
1136	0.3101
1127	0.3194
1118	0.3336
1109	0.4819
1100	0.6157
1091	0.6891
1082	0.7317
1073	0.7486
1064	0.6309
1055	0.6572
1046	0.1956
1037	0.242
1028	0.7051
1019	0.7708
1010	0.763
1001	0.6904
992	0.7236
983	0.7161
974	0.691
965	0.56
956	0.7801
947	0.8314
938	0.86
929	0.8775
920	0.8897
911	0.8928
902	0.8921
893	0.8918
884	0.8939
875	0.8958
866	0.8955
857	0.8925
848	0.8659
839	0.703
830	0.8682
821	0.8794
812	0.8793
803	0.8763
794	0.872
785	0.8675
776	0.8634
767	0.8585
758	0.8499
749	0.8337
740	0.8158
731	0.7924
722	0.7625
713	0.7411
704	0.2512
695	0.7296
686	0.7814
677	0.7808
668	0.8048
659	0.7951
650	0.7115
641	0.5147
632	0.4216
623	0.4145
614	0.5038
605	0.6692
596	0.7043
587	0.7434
578	0.4214
569	0.6326
560	0.7142
551	0.3828
542	0.7194
533	0.7634
524	0.7336
515	0.7169
506	0.7697
497	0.7561
488	0.7568
479	0.6933
470	0.7191
461	0.7453
452	0.7471
443	0.7114
434	0.6842
425	0.7445
416	0.7554
407	0.7569
398	0.7571
389	0.7571
380	0.7557
