Infrared Spectrum: OPHTHAINE
Formula: C16 H27 Cl N2 O3
State: SOLID (NUJOL MULL)
Class: COBLENTZ III
Instrument: PERKIN-ELMER 21 (GRATING)
Instrument parameters: FILTER AT ABOUT 10 MICRONS
Resolution: 2
Origin: THE SQUIBB INSTITUTE FOR MEDICAL RESEARCH
1/CM	TRANSMITTANCE
661	0.8283
670	0.8364
679	0.8513
688	0.8612
697	0.8599
706	0.8847
715	0.8903
724	0.882
733	0.6687
742	0.8275
751	0.787
760	0.695
769	0.1161
778	0.8176
787	0.8597
796	0.8217
805	0.6575
814	0.8312
823	0.5193
832	0.8132
841	0.8438
850	0.8396
859	0.9016
868	0.9024
877	0.8858
886	0.8044
895	0.4928
904	0.8139
913	0.7988
922	0.7851
931	0.7984
940	0.7623
949	0.658
958	0.594
967	0.7396
976	0.3
985	0.7553
994	0.7971
1003	0.7388
1012	0.563
1021	0.3475
1030	0.5494
1039	0.7201
1048	0.6979
1057	0.4566
1066	0.3513
1075	0.6862
1084	0.6086
1093	0.3776
1102	0.056
1111	0.1966
1120	0.4149
1129	0.3799
1138	0.3326
1147	0.2355
1156	0.605
1165	0.6839
1174	0.5959
1183	0.5863
1192	0.4718
1201	0.2227
1210	0.0001
1219	0.0316
1228	0.3009
1237	0.5167
1246	0.4092
1255	0.4297
1264	0.5734
1273	0.4933
1282	0.4241
1291	0.1856
1300	0.0164
1309	0.0656
1318	0.3676
1327	0.6431
1336	0.697
1345	0.6828
1354	0.5274
1363	0.5041
1372	0.4611
1381	0.467
1390	0.376
1399	0.4137
1408	0.7658
1417	0.7565
1426	0.5955
1435	0.2598
1444	0.4923
1453	0.3444
1462	0.2612
1471	0.3906
1480	0.6574
1489	0.7564
1498	0.6987
1507	0.47
1516	0.2337
1525	0.2296
1534	0.6199
1543	0.8138
1552	0.8167
1561	0.7981
1570	0.753
1579	0.5112
1588	0.1881
1597	0.2861
1606	0.5693
1615	0.4006
1624	0.3575
1633	0.7481
1642	0.8307
1651	0.838
1660	0.8358
1669	0.8188
1678	0.7885
1687	0.7318
1696	0.5571
1705	0.0329
1714	0.0577
1723	0.4937
1732	0.8165
1741	0.9254
1750	0.9387
1759	0.9438
1768	0.9488
1777	0.9442
1786	0.9559
1795	0.9916
1804	0.9947
1813	0.9955
1822	0.9953
1831	0.9946
1840	0.9922
1849	0.9865
1858	0.9814
1867	0.9786
1876	0.9781
1885	0.983
1894	0.9812
1903	0.9792
1912	0.977
1921	0.9747
1930	0.9703
1939	0.9638
1948	0.9432
1957	0.8952
1966	0.9807
1975	0.9804
1984	0.9785
1993	0.9763
2002	0.9733
2011	0.971
2020	0.9697
2029	0.9729
2038	0.9725
2047	0.9709
2056	0.9699
2065	0.9689
2074	0.9677
2083	0.9666
2092	0.9654
2101	0.964
2110	0.9625
2119	0.9605
2128	0.9585
2137	0.9566
2146	0.9555
2155	0.9544
2164	0.9538
2173	0.9529
2182	0.9499
2191	0.9449
2200	0.9396
2209	0.9342
2218	0.9275
2227	0.9232
2236	0.9202
2245	0.9159
2254	0.9105
2263	0.9047
2272	0.8973
2281	0.883
2290	0.8658
2299	0.8425
2308	0.8309
2317	0.8293
2326	0.8278
2335	0.8265
2344	0.8254
2353	0.8246
2362	0.8241
2371	0.8231
2380	0.8159
2389	0.7984
2398	0.7751
2407	0.7432
2416	0.7077
2425	0.6697
2434	0.5726
2443	0.5003
2452	0.4374
2461	0.3756
2470	0.3657
2479	0.4494
2488	0.5379
2497	0.5414
2506	0.5315
2515	0.5172
2524	0.5037
2533	0.4887
2542	0.4632
2551	0.4072
2560	0.2818
2569	0.2122
2578	0.208
2587	0.2082
2596	0.2108
2605	0.2311
2614	0.2512
2623	0.2683
2632	0.3251
2641	0.3976
2650	0.4696
2659	0.5412
2668	0.56
2677	0.5559
2686	0.5542
2695	0.5595
2704	0.5797
2713	0.6136
2722	0.6354
2731	0.6495
2740	0.6625
2749	0.6692
2758	0.6695
2767	0.6687
2776	0.6658
2785	0.6588
2794	0.6418
2803	0.623
2812	0.507
2821	0.3828
2830	0.377
2839	0.3769
2848	0.3776
2857	0.3789
2866	0.3814
2875	0.3835
2884	0.3854
2893	0.3869
2902	0.3876
2911	0.3879
2920	0.3882
2929	0.3883
2938	0.3893
2947	0.4392
2956	0.4977
2965	0.5559
2974	0.6137
2983	0.6711
2992	0.6982
3001	0.7075
3010	0.7112
3019	0.7124
3028	0.7124
3037	0.7121
3046	0.7118
3055	0.7097
3064	0.7056
3073	0.7019
3082	0.6954
3091	0.6805
3100	0.6606
3109	0.6561
3118	0.65
3127	0.6172
3136	0.5786
3145	0.5404
3154	0.5278
3163	0.5476
3172	0.5747
3181	0.5774
3190	0.5787
3199	0.5788
3208	0.5783
3217	0.5162
3226	0.4444
3235	0.373
3244	0.3049
3253	0.2925
3262	0.3661
3271	0.458
3280	0.5494
3289	0.6404
3298	0.73
3307	0.7331
3316	0.7345
3325	0.7311
3334	0.7283
3343	0.7234
3352	0.7171
3361	0.7109
3370	0.7042
3379	0.6948
3388	0.6223
3397	0.5275
3406	0.4519
3415	0.5116
3424	0.6383
3433	0.7645
3442	0.8131
3451	0.8183
3460	0.8203
3469	0.8211
3478	0.8214
3487	0.8214
3496	0.8213
3505	0.821
3514	0.8206
3523	0.8202
3532	0.8193
3541	0.8184
3550	0.8172
3559	0.8157
3568	0.8141
3577	0.8125
3586	0.8108
3595	0.8092
3604	0.8076
3613	0.806
3622	0.8043
3631	0.8024
3640	0.8004
3649	0.7985
3658	0.7966
3667	0.7947
3676	0.7928
3685	0.791
3694	0.7891
3703	0.7873
3712	0.7855
3721	0.7836
3730	0.7818
3739	0.7799
3748	0.7779
3757	0.776
3766	0.7741
3775	0.7721
3784	0.7702
3793	0.7683
3802	0.7664
3811	0.7644
3820	0.7626
3829	0.7608
3838	0.759
3847	0.7572
3856	0.7554
3865	0.7536
3874	0.7519
3883	0.7501
3892	0.7484
3901	0.7467
3910	0.745
3919	0.7433
3928	0.7417
3937	0.7401
3946	0.7386
3955	0.737
3964	0.7354
3973	0.7339
3982	0.7324
3991	0.7309
4000	0.7294
