Infrared Spectrum: PENICILLIN G, POTASSIUM SALT
Formula: C16 H17 N2 O4 S K
State: SOLID (NUJOL MULL)
Class: COBLENTZ III
Instrument: PERKIN-ELMER 21 (GRATING)
Instrument parameters: FILTER CHANGE AT 1075 CM^-^1
Sampling: TRANSMISSION
Resolution: 2
Origin: SOUTHERN RESEARCH INSTITUTE, W.C. Coburn, Jr.
1/CM	TRANSMITTANCE
622.18	0.7908
631.222	0.7897
640.264	0.7804
649.306	0.7226
658.348	0.6518
667.39	0.8213
676.433	0.8025
685.475	0.6961
694.517	0.3768
703.559	0.7061
712.601	0.4581
721.643	0.7091
730.685	0.7325
739.727	0.699
748.769	0.5828
757.811	0.5751
766.854	0.8016
775.896	0.8685
784.938	0.8683
793.98	0.8508
803.022	0.8486
812.064	0.8765
821.106	0.8753
830.148	0.8725
839.19	0.8822
848.232	0.8776
857.275	0.8638
866.317	0.8378
875.359	0.794
884.401	0.6998
893.443	0.8191
902.485	0.7753
911.527	0.7632
920.569	0.7817
929.611	0.8125
938.653	0.8175
947.696	0.8068
956.738	0.8062
965.78	0.7917
974.822	0.7825
983.864	0.7801
992.906	0.7072
1001.95	0.7835
1010.99	0.7648
1020.03	0.7212
1029.07	0.7835
1038.12	0.7814
1047.16	0.7639
1056.2	0.7256
1065.24	0.6553
1074.28	0.7323
1083.33	0.6769
1092.37	0.5435
1101.41	0.6964
1110.45	0.6557
1119.5	0.5882
1128.54	0.6802
1137.58	0.6067
1146.62	0.5359
1155.66	0.6393
1164.71	0.6285
1173.75	0.6135
1182.79	0.5926
1191.83	0.5552
1200.87	0.4824
1209.92	0.3893
1218.96	0.4585
1228	0.4967
1237.04	0.3882
1246.08	0.3231
1255.13	0.5406
1264.17	0.5855
1273.21	0.5584
1282.25	0.5073
1291.3	0.4436
1300.34	0.2873
1309.38	0.1814
1318.42	0.1643
1327.46	0.13
1336.51	0.232
1345.55	0.3965
1354.59	0.4155
1363.63	0.3276
1372.67	0.2125
1381.72	0.2064
1390.76	0.1716
1399.8	0.2542
1408.84	0.2509
1417.88	0.4014
1426.93	0.4022
1435.97	0.2835
1445.01	0.1583
1454.05	0.1159
1463.1	0.1434
1472.14	0.1511
1481.18	0.0948
1490.22	0.142
1499.26	0.2555
1508.31	0.3548
1517.35	0.4254
1526.39	0.4403
1535.43	0.4372
1544.47	0.4195
1553.52	0.3844
1562.56	0.3102
1571.6	0.2645
1580.64	0.192
1589.68	0.1134
1598.73	0.0763
1607.77	0.1261
1616.81	0.2053
1625.85	0.3478
1634.9	0.4428
1643.94	0.4291
1652.98	0.2646
1662.02	0.1956
1671.06	0.4904
1680.11	0.6974
1689.15	0.7085
1698.19	0.6994
1707.23	0.6652
1716.27	0.6448
1725.32	0.5376
1734.36	0.3844
1743.4	0.1533
1752.44	0.1262
1761.48	0.124
1770.53	0.2932
1779.57	0.5215
1788.61	0.6356
1797.65	0.707
1806.7	0.7672
1815.74	0.8138
1824.78	0.8344
1833.82	0.835
1842.86	0.8317
1851.91	0.8294
1860.95	0.8328
1869.99	0.8472
1879.03	0.8586
1888.07	0.8646
1897.12	0.8673
1906.16	0.8675
1915.2	0.8646
1924.24	0.8592
1933.28	0.8568
1942.33	0.8619
1951.37	0.8671
1960.41	0.8708
1969.45	0.8722
1978.49	0.8716
1987.54	0.8699
1996.58	0.8683
2005.62	0.8666
2014.66	0.8644
2023.71	0.8622
2032.75	0.8598
2041.79	0.8574
2050.83	0.8559
2059.87	0.8544
2068.92	0.8535
2077.96	0.8528
2087	0.8513
2096.04	0.8499
2105.08	0.8486
2114.13	0.8472
2123.17	0.8456
2132.21	0.8443
2141.25	0.8432
2150.29	0.8421
2159.34	0.841
2168.38	0.8399
2177.42	0.8381
2186.46	0.836
2195.51	0.834
2204.55	0.8319
2213.59	0.8302
2222.63	0.8288
2231.67	0.8275
2240.72	0.8264
2249.76	0.8248
2258.8	0.8228
2267.84	0.8218
2276.88	0.8225
2285.93	0.8273
2294.97	0.8314
2304.01	0.8363
2313.05	0.8374
2322.09	0.8357
2331.14	0.8347
2340.18	0.8304
2349.22	0.8209
2358.26	0.8104
2367.31	0.8031
2376.35	0.7997
2385.39	0.7979
2394.43	0.7975
2403.47	0.7972
2412.52	0.7971
2421.56	0.7971
2430.6	0.7965
2439.64	0.795
2448.68	0.7915
2457.73	0.7867
2466.77	0.7841
2475.81	0.7828
2484.85	0.7823
2493.89	0.782
2502.94	0.7812
2511.98	0.7793
2521.02	0.7766
2530.06	0.7733
2539.11	0.7702
2548.15	0.764
2557.19	0.7581
2566.23	0.7551
2575.27	0.7528
2584.32	0.7502
2593.36	0.7477
2602.4	0.7463
2611.44	0.7452
2620.48	0.7444
2629.53	0.7421
2638.57	0.7402
2647.61	0.7391
2656.65	0.7382
2665.69	0.7359
2674.74	0.733
2683.78	0.7296
2692.82	0.7287
2701.86	0.7292
2710.9	0.7303
2719.95	0.7308
2728.99	0.7305
2738.03	0.7263
2747.07	0.7176
2756.12	0.7014
2765.16	0.6774
2774.2	0.6454
2783.24	0.5755
2792.28	0.5029
2801.33	0.2896
2810.37	0.1106
2819.41	0.0802
2828.45	0.0772
2837.49	0.0771
2846.54	0.075
2855.58	0.0658
2864.62	0.0581
2873.66	0.0504
2882.7	0.0442
2891.75	0.0493
2900.79	0.0637
2909.83	0.0759
2918.87	0.0792
2927.92	0.0928
2936.96	0.1195
2946	0.1712
2955.04	0.2287
2964.08	0.3126
2973.13	0.3801
2982.17	0.4333
2991.21	0.4578
3000.25	0.4762
3009.29	0.4909
3018.34	0.53
3027.38	0.5507
3036.42	0.5601
3045.46	0.5663
3054.5	0.5707
3063.55	0.5742
3072.59	0.5888
3081.63	0.624
3090.67	0.6313
3099.72	0.6344
3108.76	0.6371
3117.8	0.6407
3126.84	0.639
3135.88	0.6378
3144.93	0.6391
3153.97	0.6406
3163.01	0.6404
3172.05	0.6375
3181.09	0.6343
3190.14	0.6331
3199.18	0.6321
3208.22	0.6317
3217.26	0.6318
3226.3	0.6317
3235.35	0.6305
3244.39	0.6285
3253.43	0.6259
3262.47	0.6227
3271.52	0.6171
3280.56	0.6096
3289.6	0.6004
3298.64	0.5902
3307.68	0.5785
3316.73	0.5614
3325.77	0.5282
3334.81	0.4923
3343.85	0.4519
3352.89	0.468
3361.94	0.5313
3370.98	0.5968
3380.02	0.6396
3389.06	0.645
3398.1	0.6457
3407.15	0.6491
3416.19	0.6493
3425.23	0.6489
3434.27	0.648
3443.31	0.6464
3452.36	0.6446
3461.4	0.6446
3470.44	0.6459
3479.48	0.6477
3488.53	0.6504
3497.57	0.6512
3506.61	0.6498
3515.65	0.6493
3524.69	0.6489
3533.74	0.6485
3542.78	0.6491
3551.82	0.6497
3560.86	0.6505
3569.9	0.6514
3578.95	0.6524
3587.99	0.6534
3597.03	0.654
3606.07	0.6545
3615.11	0.655
3624.16	0.6556
3633.2	0.656
3642.24	0.6563
3651.28	0.6566
3660.33	0.6568
3669.37	0.6569
3678.41	0.6567
3687.45	0.6566
3696.49	0.6565
3705.54	0.6554
3714.58	0.6535
3723.62	0.6515
3732.66	0.649
3741.7	0.6451
3750.75	0.6407
3759.79	0.6372
3768.83	0.6355
3777.87	0.635
3786.91	0.6347
3795.96	0.6352
3805	0.6354
3814.04	0.6353
3823.08	0.634
3832.13	0.6307
3841.17	0.6275
3850.21	0.6262
3859.25	0.6255
3868.29	0.6233
3877.34	0.6196
3886.38	0.6133
3895.42	0.6104
3904.46	0.6098
3913.5	0.6103
3922.55	0.6115
3931.59	0.6132
3940.63	0.6136
3949.67	0.6133
3958.71	0.613
3967.76	0.613
3976.8	0.6131
3985.84	0.6131
3994.88	0.6131
4003.93	0.6132
4012.97	0.6132
