Infrared Spectrum: 2-Furamidoxime, o-(p-methoxybenzoyl)-5-nitro-
Formula: C13 H11 N3 O6
State: SOLID (NUJOL MULL)
Melting point: 208 C
Class: COBLENTZ III
Instrument: PERKIN-ELMER 21 (GRATING)
Instrument parameters: NaCl PRISM; FILTER AT 10 MICRON
Sampling: TRANSMISSION
Resolution: 2
Origin: ABBOTT LABORATORIES - WASHBURN
1/CM	TRANSMITTANCE
645	0.5706
654	0.6182
663	0.6499
672	0.6843
681	0.6932
690	0.63
699	0.6296
708	0.7203
717	0.7093
726	0.6864
735	0.4686
744	0.7761
753	0.765
762	0.3506
771	0.7764
780	0.8197
789	0.813
798	0.8071
807	0.4898
816	0.4971
825	0.79
834	0.8037
843	0.8013
852	0.6181
861	0.5522
870	0.7659
879	0.8208
888	0.8111
897	0.8109
906	0.7824
915	0.7228
924	0.5799
933	0.7847
942	0.776
951	0.7739
960	0.7329
969	0.6506
978	0.7666
987	0.7526
996	0.7079
1005	0.5436
1014	0.297
1023	0.7513
1032	0.7467
1041	0.7218
1050	0.686
1059	0.611
1068	0.4588
1077	0.3802
1086	0.3916
1095	0.5929
1104	0.7743
1113	0.7026
1122	0.7899
1131	0.7673
1140	0.7389
1149	0.7262
1158	0.6871
1167	0.4292
1176	0.508
1185	0.7184
1194	0.7234
1203	0.7026
1212	0.6774
1221	0.6452
1230	0.5974
1239	0.5052
1248	0.3351
1257	0.1987
1266	0.1597
1275	0.4514
1284	0.6164
1293	0.6555
1302	0.6393
1311	0.531
1320	0.6052
1329	0.567
1338	0.4306
1347	0.2203
1356	0.3207
1365	0.4946
1374	0.423
1383	0.4275
1392	0.6616
1401	0.7378
1410	0.7131
1419	0.6266
1428	0.5991
1437	0.445
1446	0.3751
1455	0.2609
1464	0.3074
1473	0.5674
1482	0.5445
1491	0.3921
1500	0.2843
1509	0.4705
1518	0.5806
1527	0.4955
1536	0.6977
1545	0.7344
1554	0.6754
1563	0.5655
1572	0.4702
1581	0.3154
1590	0.3714
1599	0.2096
1608	0.3784
1617	0.1607
1626	0.1308
1635	0.3457
1644	0.6087
1653	0.7106
1662	0.775
1671	0.8031
1680	0.7945
1689	0.7206
1698	0.5452
1707	0.2299
1716	0.5172
1725	0.7481
1734	0.8053
1743	0.8459
1752	0.862
1761	0.8674
1770	0.8644
1779	0.8553
1788	0.8704
1797	0.8671
1806	0.8643
1815	0.8675
1824	0.8718
1833	0.8734
1842	0.8729
1851	0.8715
1860	0.8691
1869	0.8667
1878	0.8666
1887	0.8679
1896	0.8654
1905	0.8609
1914	0.8553
1923	0.8485
1932	0.8476
1941	0.8484
1950	0.8445
1959	0.8458
1968	0.8505
1977	0.8489
1986	0.8418
1995	0.8454
2004	0.845
2013	0.8437
2022	0.8443
2031	0.8432
2040	0.8425
2049	0.8421
2058	0.8421
2067	0.845
2076	0.8436
2085	0.841
2094	0.8382
2103	0.8353
2112	0.832
2121	0.8297
2130	0.8286
2139	0.8282
2148	0.8234
2157	0.8221
2166	0.8218
2175	0.8218
2184	0.8214
2193	0.8206
2202	0.8196
2211	0.8179
2220	0.8156
2229	0.8137
2238	0.8119
2247	0.81
2256	0.808
2265	0.8061
2274	0.8028
2283	0.7987
2292	0.793
2301	0.7887
2310	0.7863
2319	0.7848
2328	0.7839
2337	0.7835
2346	0.7835
2355	0.7834
2364	0.7832
2373	0.7825
2382	0.7819
2391	0.7813
2400	0.7809
2409	0.7802
2418	0.7775
2427	0.7762
2436	0.7755
2445	0.7748
2454	0.7734
2463	0.7713
2472	0.7683
2481	0.7655
2490	0.7649
2499	0.763
2508	0.7607
2517	0.7593
2526	0.7571
2535	0.7543
2544	0.7505
2553	0.7459
2562	0.7402
2571	0.734
2580	0.7317
2589	0.7316
2598	0.7301
2607	0.7257
2616	0.7216
2625	0.7182
2634	0.7155
2643	0.7137
2652	0.7114
2661	0.7094
2670	0.7074
2679	0.7049
2688	0.7027
2697	0.7017
2706	0.7002
2715	0.6984
2724	0.6988
2733	0.6998
2742	0.7003
2751	0.6989
2760	0.6947
2769	0.6871
2778	0.6787
2787	0.6699
2796	0.6498
2805	0.6176
2814	0.5726
2823	0.5002
2832	0.2459
2841	0.0822
2850	0.0692
2859	0.0915
2868	0.1121
2877	0.147
2886	0.0853
2895	0.0408
2904	0.0216
2913	0.0139
2922	0.0204
2931	0.0333
2940	0.0411
2949	0.0447
2958	0.0737
2967	0.2219
2976	0.3536
2985	0.4517
2994	0.5032
3003	0.5504
3012	0.5772
3021	0.5877
3030	0.5965
3039	0.6041
3048	0.6042
3057	0.6024
3066	0.6071
3075	0.6144
3084	0.6116
3093	0.6044
3102	0.6041
3111	0.6048
3120	0.5792
3129	0.5689
3138	0.5711
3147	0.4734
3156	0.5914
3165	0.5956
3174	0.606
3183	0.6165
3192	0.6151
3201	0.6126
3210	0.6103
3219	0.6081
3228	0.6043
3237	0.6014
3246	0.6009
3255	0.5997
3264	0.5941
3273	0.586
3282	0.5768
3291	0.5669
3300	0.5555
3309	0.5428
3318	0.5262
3327	0.496
3336	0.4473
3345	0.3254
3354	0.2295
3363	0.2222
3372	0.4489
3381	0.6281
3390	0.6539
3399	0.6562
3408	0.6508
3417	0.6356
3426	0.6168
3435	0.5759
3444	0.489
3453	0.5171
3462	0.607
3471	0.6513
3480	0.6566
3489	0.6564
3498	0.6567
3507	0.6563
3516	0.6556
3525	0.6537
3534	0.6518
3543	0.6498
3552	0.6481
3561	0.6455
3570	0.6418
3579	0.6381
3588	0.6362
3597	0.6342
3606	0.6321
3615	0.63
3624	0.6285
3633	0.6272
3642	0.6264
3651	0.6256
3660	0.6245
3669	0.6235
3678	0.6224
3687	0.6214
3696	0.6203
3705	0.6185
3714	0.6167
3723	0.6152
3732	0.6144
3741	0.6138
3750	0.6138
3759	0.6127
3768	0.6114
3777	0.6098
3786	0.6081
3795	0.6063
3804	0.6047
3813	0.6031
3822	0.6015
3831	0.5998
3840	0.5983
3849	0.5974
3858	0.5965
3867	0.5968
3876	0.5971
3885	0.5985
3894	0.5998
