Infrared Spectrum: 2-NONADECANONE-1-OL, ACETATE
Formula: C21 H40 O3
State: SOLID (KBr PELLET)
Melting point: 69.5-70.5 C
Class: COBLENTZ
Instrument: PERKIN-ELMER
Sampling: TRANSMISSION
Resolution: 4
Origin: HORMEL INSTITUTE
MICROMETERS	TRANSMITTANCE
2.02	0.896
2.05384	0.898
2.08768	0.898
2.12152	0.898
2.15535	0.898
2.18919	0.898
2.22303	0.898
2.25687	0.898
2.29071	0.891
2.32455	0.881
2.35839	0.884
2.39222	0.883
2.42606	0.878
2.4599	0.883
2.49374	0.89
2.52758	0.89
2.56142	0.89
2.59525	0.891
2.62909	0.895
2.66293	0.891
2.69677	0.888
2.73061	0.884
2.76445	0.856
2.79829	0.81
2.83212	0.769
2.86596	0.734
2.8998	0.71
2.93364	0.703
2.96748	0.739
3.00132	0.778
3.03516	0.81
3.06899	0.829
3.10283	0.847
3.13667	0.854
3.17051	0.861
3.20435	0.859
3.23819	0.851
3.27203	0.842
3.30586	0.822
3.3397	0.766
3.37354	0.504
3.40738	0.138
3.44122	0.203
3.47506	0.419
3.50889	0.243
3.54273	0.73
3.57657	0.807
3.61041	0.849
3.64425	0.859
3.67809	0.864
3.71193	0.879
3.74576	0.883
3.7796	0.884
3.81344	0.886
3.84728	0.89
3.88112	0.891
3.91496	0.895
3.9488	0.898
3.98263	0.9
4.01647	0.9
4.05031	0.9
4.08415	0.9
4.11799	0.9
4.15183	0.901
4.18567	0.901
4.2195	0.901
4.25334	0.901
4.28718	0.901
4.32102	0.901
4.35486	0.901
4.3887	0.901
4.42253	0.901
4.45637	0.9
4.49021	0.9
4.52405	0.9
4.55789	0.9
4.59173	0.9
4.62557	0.9
4.6594	0.898
4.69324	0.896
4.72708	0.893
4.76092	0.89
4.79476	0.886
4.8286	0.886
4.86244	0.888
4.89627	0.888
4.93011	0.888
4.96395	0.89
4.99779	0.895
5.03163	0.896
5.06547	0.898
5.09931	0.9
5.13314	0.9
5.16698	0.898
5.20082	0.896
5.23466	0.895
5.2685	0.893
5.30234	0.893
5.33617	0.893
5.37001	0.89
5.40385	0.888
5.43769	0.883
5.47153	0.879
5.50537	0.873
5.53921	0.861
5.57304	0.852
5.60688	0.825
5.64072	0.732
5.67456	0.367
5.7084	0.121
5.74224	0.385
5.77608	0.179
5.80991	0.291
5.84375	0.644
5.87759	0.751
5.91143	0.781
5.94527	0.829
5.97911	0.842
6.01295	0.839
6.04678	0.825
6.08062	0.812
6.11446	0.817
6.1483	0.829
6.18214	0.837
6.21598	0.856
6.24981	0.868
6.28365	0.873
6.31749	0.878
6.35133	0.883
6.38517	0.883
6.41901	0.881
6.45285	0.879
6.48668	0.879
6.52052	0.879
6.55436	0.879
6.5882	0.874
6.62204	0.868
6.65588	0.854
6.68972	0.844
6.72355	0.788
6.75739	0.622
6.79123	0.248
6.82507	0.593
6.85891	0.698
6.89275	0.732
6.92659	0.73
6.96042	0.697
6.99426	0.639
7.0281	0.504
7.06194	0.399
7.09578	0.505
7.12962	0.583
7.16345	0.548
7.19729	0.436
7.23113	0.538
7.26497	0.576
7.29881	0.634
7.33265	0.702
7.36649	0.764
7.40032	0.812
7.43416	0.834
7.468	0.846
7.50184	0.842
7.53568	0.835
7.56952	0.84
7.60336	0.803
7.63719	0.776
7.67103	0.747
7.70487	0.734
7.73871	0.737
7.77255	0.693
7.80639	0.68
7.84022	0.598
7.87406	0.659
7.9079	0.634
7.94174	0.629
7.97558	0.561
8.00942	0.355
8.04326	0.181
8.07709	0.033
8.11093	0.108
8.14477	0.328
8.17861	0.576
8.21245	0.7
8.24629	0.676
8.28013	0.737
8.31396	0.796
8.3478	0.813
8.38164	0.812
8.41548	0.803
8.44932	0.834
8.48316	0.839
8.517	0.842
8.55083	0.842
8.58467	0.846
8.61851	0.847
8.65235	0.851
8.68619	0.851
8.72003	0.849
8.75386	0.849
8.7877	0.839
8.82154	0.79
8.85538	0.808
8.88922	0.818
8.92306	0.817
8.9569	0.822
8.99073	0.812
9.02457	0.812
9.05841	0.756
9.09225	0.673
9.12609	0.72
9.15993	0.771
9.19377	0.764
9.2276	0.7
9.26144	0.497
9.29528	0.461
9.32912	0.653
9.36296	0.72
9.3968	0.73
9.43064	0.681
9.46447	0.604
9.49831	0.565
9.53215	0.539
9.56599	0.549
9.59983	0.683
9.63367	0.729
9.6675	0.749
9.70134	0.761
9.73518	0.717
9.76902	0.719
9.80286	0.719
9.8367	0.739
9.87054	0.781
9.90437	0.798
9.93821	0.812
9.97205	0.839
10.0059	0.835
10.0397	0.812
10.0736	0.812
10.1074	0.768
10.1412	0.692
10.1751	0.729
10.2089	0.793
10.2428	0.81
10.2766	0.781
10.3104	0.739
10.3443	0.761
10.3781	0.82
10.412	0.854
10.4458	0.873
10.4796	0.886
10.5135	0.89
10.5473	0.893
10.5811	0.893
10.615	0.89
10.6488	0.881
10.6827	0.869
10.7165	0.871
10.7503	0.883
10.7842	0.89
10.818	0.898
10.8519	0.901
10.8857	0.901
10.9195	0.901
10.9534	0.901
10.9872	0.898
11.021	0.898
11.0549	0.891
11.0887	0.888
11.1226	0.89
11.1564	0.895
11.1902	0.891
11.2241	0.879
11.2579	0.883
11.2918	0.884
11.3256	0.888
11.3594	0.888
11.3933	0.878
11.4271	0.868
11.4609	0.852
11.4948	0.832
11.5286	0.807
11.5625	0.825
11.5963	0.852
11.6301	0.878
11.664	0.888
11.6978	0.884
11.7317	0.878
11.7655	0.869
11.7993	0.84
11.8332	0.781
11.867	0.73
11.9008	0.791
11.9347	0.852
11.9685	0.878
12.0024	0.884
12.0362	0.884
12.07	0.871
12.1039	0.854
12.1377	0.827
12.1716	0.83
12.2054	0.866
12.2392	0.89
12.2731	0.901
12.3069	0.903
12.3407	0.906
12.3746	0.913
12.4084	0.913
12.4423	0.915
12.4761	0.917
12.5099	0.917
12.5438	0.915
12.5776	0.912
12.6115	0.913
12.6453	0.913
12.6791	0.913
12.713	0.912
12.7468	0.912
12.7806	0.91
12.8145	0.91
12.8483	0.908
12.8822	0.91
12.916	0.901
12.9498	0.9
12.9837	0.9
13.0175	0.896
13.0514	0.898
13.0852	0.901
13.119	0.901
13.1529	0.896
13.1867	0.9
13.2205	0.898
13.2544	0.893
13.2882	0.89
13.3221	0.893
13.3559	0.891
13.3897	0.898
13.4236	0.898
13.4574	0.888
13.4913	0.884
13.5251	0.873
13.5589	0.871
13.5928	0.869
13.6266	0.857
13.6604	0.84
13.6943	0.832
13.7281	0.808
13.762	0.763
13.7958	0.717
13.8296	0.661
13.8635	0.6
13.8973	0.529
13.9312	0.446
13.965	0.568
13.9988	0.7
14.0327	0.769
14.0665	0.808
14.1004	0.825
14.1342	0.822
14.168	0.813
14.2019	0.791
14.2357	0.768
14.2695	0.764
14.3034	0.783
14.3372	0.808
14.3711	0.824
14.4049	0.846
14.4387	0.857
14.4726	0.868
14.5064	0.874
14.5403	0.878
14.5741	0.879
14.6079	0.881
14.6418	0.879
14.6756	0.883
14.7094	0.886
14.7433	0.888
14.7771	0.891
14.811	0.89
14.8448	0.893
14.8786	0.891
14.9125	0.888
14.9463	0.878
14.9802	0.878
15.014	0.891
15.0478	0.893
