Infrared Spectrum: 2-NAPHTHOL-6,8-DISULFONIC ACID DIPOTASSIUM SALT
Formula: C10 H6 O7 S2 K2
State: SOLID (MULL)
Class: COBLENTZ
Instrument: Not specified, most likely a prism, grating, or hybrid spectrometer.
Sampling: TRANSMISSION
Resolution: 4
Origin: WYANDOTTE CHEMICALS CORP., WYANDOTTE, MICHIGAN, USA
MICROMETERS	TRANSMITTANCE
2.03	0.548
2.06987	0.551
2.10973	0.554
2.1496	0.558
2.18946	0.556
2.22933	0.549
2.26919	0.551
2.30906	0.558
2.34893	0.573
2.38879	0.576
2.42866	0.574
2.46852	0.586
2.50839	0.598
2.54825	0.602
2.58812	0.602
2.62799	0.611
2.66785	0.606
2.70772	0.569
2.74758	0.465
2.78745	0.332
2.82731	0.362
2.86718	0.495
2.90705	0.513
2.94691	0.425
2.98678	0.302
3.02664	0.219
3.06651	0.299
3.10638	0.38
3.14624	0.416
3.18611	0.45
3.22597	0.486
3.26584	0.458
3.3057	0.312
3.34557	0.029
3.38544	0.029
3.4253	0.058
3.46517	0.068
3.50503	0.27
3.5449	0.568
3.58476	0.616
3.62463	0.624
3.6645	0.631
3.70436	0.649
3.74423	0.651
3.78409	0.662
3.82396	0.666
3.86382	0.684
3.90369	0.692
3.94356	0.696
3.98342	0.699
4.02329	0.714
4.06315	0.725
4.10302	0.727
4.14288	0.732
4.18275	0.739
4.22262	0.739
4.26248	0.749
4.30235	0.757
4.34221	0.772
4.38208	0.784
4.42194	0.774
4.46181	0.774
4.50168	0.779
4.54154	0.78
4.58141	0.787
4.62127	0.8
4.66114	0.81
4.70101	0.818
4.74087	0.822
4.78074	0.82
4.8206	0.823
4.86047	0.825
4.90033	0.828
4.9402	0.83
4.98007	0.84
5.01993	0.853
5.0598	0.858
5.09966	0.862
5.13953	0.872
5.17939	0.887
5.21926	0.89
5.25913	0.89
5.29899	0.893
5.33886	0.9
5.37872	0.88
5.41859	0.892
5.45845	0.905
5.49832	0.91
5.53819	0.915
5.57805	0.923
5.61792	0.92
5.65778	0.941
5.69765	0.95
5.73751	0.928
5.77738	0.931
5.81725	0.94
5.85711	0.953
5.89698	0.95
5.93684	0.923
5.97671	0.669
6.01657	0.622
6.05644	0.679
6.09631	0.44
6.13617	0.345
6.17604	0.488
6.2159	0.629
6.25577	0.691
6.29563	0.794
6.3355	0.825
6.37537	0.855
6.41523	0.85
6.4551	0.674
6.49496	0.481
6.53483	0.697
6.5747	0.774
6.61456	0.813
6.65443	0.813
6.69429	0.709
6.73416	0.488
6.77402	0.157
6.81389	0.161
6.85376	0.325
6.89362	0.485
6.93349	0.656
6.97335	0.724
7.01322	0.8
7.05308	0.827
7.09295	0.779
7.13282	0.614
7.17268	0.32
7.21255	0.184
7.25241	0.272
7.29228	0.425
7.33214	0.564
7.37201	0.657
7.41188	0.691
7.45174	0.737
7.49161	0.754
7.53147	0.76
7.57134	0.75
7.6112	0.722
7.65107	0.71
7.69094	0.712
7.7308	0.682
7.77067	0.649
7.81053	0.607
7.8504	0.503
7.89026	0.372
7.93013	0.174
7.97	0.244
8.00986	0.114
8.04973	0.048
8.08959	0.041
8.12946	0.041
8.16933	0.048
8.20919	0.053
8.24906	0.043
8.28892	0.039
8.32879	0.046
8.36865	0.046
8.40852	0.078
8.44839	0.112
8.48825	0.111
8.52812	0.151
8.56798	0.167
8.60785	0.111
8.64771	0.259
8.68758	0.35
8.72745	0.425
8.76731	0.496
8.80718	0.551
8.84704	0.556
8.88691	0.436
8.92677	0.215
8.96664	0.199
9.00651	0.368
9.04637	0.513
9.08624	0.556
9.1261	0.611
9.16597	0.639
9.20583	0.676
9.2457	0.681
9.28557	0.654
9.32543	0.554
9.3653	0.367
9.40516	0.147
9.44503	0.129
9.48489	0.151
9.52476	0.088
9.56463	0.069
9.60449	0.107
9.64436	0.171
9.68422	0.242
9.72409	0.308
9.76395	0.367
9.80382	0.418
9.84369	0.468
9.88355	0.509
9.92342	0.546
9.96328	0.564
10.0031	0.553
10.043	0.578
10.0829	0.606
10.1227	0.627
10.1626	0.637
10.2025	0.649
10.2423	0.654
10.2822	0.667
10.3221	0.674
10.3619	0.684
10.4018	0.692
10.4417	0.697
10.4815	0.714
10.5214	0.715
10.5613	0.722
10.6011	0.729
10.641	0.73
10.6809	0.704
10.7207	0.559
10.7606	0.43
10.8005	0.573
10.8403	0.632
10.8802	0.631
10.9201	0.506
10.9599	0.292
10.9998	0.463
11.0397	0.71
11.0795	0.747
11.1194	0.772
11.1593	0.79
11.1991	0.802
11.239	0.807
11.2789	0.815
11.3187	0.817
11.3586	0.815
11.3985	0.792
11.4383	0.671
11.4782	0.461
11.518	0.684
11.5579	0.8
11.5978	0.823
11.6376	0.818
11.6775	0.664
11.7174	0.637
11.7572	0.734
11.7971	0.752
11.837	0.765
11.8768	0.787
11.9167	0.818
11.9566	0.843
11.9964	0.848
12.0363	0.842
12.0762	0.823
12.116	0.754
12.1559	0.563
12.1958	0.297
12.2356	0.116
12.2755	0.197
12.3154	0.39
12.3552	0.579
12.3951	0.646
12.435	0.705
12.4748	0.737
12.5147	0.759
12.5546	0.769
12.5944	0.78
12.6343	0.8
12.6742	0.812
12.714	0.818
12.7539	0.825
12.7938	0.822
12.8336	0.823
12.8735	0.828
12.9133	0.83
12.9532	0.803
12.9931	0.664
13.0329	0.679
13.0728	0.82
13.1127	0.843
13.1525	0.853
13.1924	0.868
13.2323	0.875
13.2721	0.878
13.312	0.882
13.3519	0.88
13.3917	0.875
13.4316	0.878
13.4715	0.875
13.5113	0.873
13.5512	0.873
13.5911	0.872
13.6309	0.877
13.6708	0.875
13.7107	0.877
13.7505	0.872
13.7904	0.858
13.8303	0.838
13.8701	0.777
13.91	0.619
13.9499	0.498
13.9897	0.495
14.0296	0.651
14.0695	0.747
14.1093	0.794
14.1492	0.832
14.1891	0.852
14.2289	0.88
14.2688	0.887
14.3087	0.892
14.3485	0.893
14.3884	0.9
14.4282	0.901
14.4681	0.897
14.508	0.893
14.5478	0.88
14.5877	0.875
14.6276	0.862
14.6674	0.853
14.7073	0.842
14.7472	0.817
14.787	0.785
14.8269	0.727
14.8668	0.637
14.9066	0.508
14.9465	0.438
14.9864	0.403
15.0262	0.398
15.0661	0.388
15.106	0.348
15.1458	0.325
15.1857	0.322
15.2256	0.345
15.2654	0.388
15.3053	0.45
15.3452	0.533
15.385	0.584
15.4249	0.624
15.4648	0.664
15.5046	0.692
15.5445	0.7
15.5844	0.702
15.6242	0.699
15.6641	0.696
15.704	0.694
15.7438	0.681
15.7837	0.664
15.8235	0.652
15.8634	0.631
15.9033	0.614
15.9431	0.583
15.983	0.561
