Infrared Spectrum: o-CRESOL, 4,6-DINITRO-, SODIUM SALT
Formula: C7 H5 N2 O5 Na
State: SOLID (KBr PELLET)
Class: COBLENTZ
Instrument: Not specified, most likely a prism, grating, or hybrid spectrometer.
Sampling: TRANSMISSION
Resolution: 4
Origin: TENNESSEE EASTMAN COMPANY, RESEARCH LABORATORIES
MICROMETERS	TRANSMITTANCE
2.034	0.875
2.07486	0.88
2.11571	0.881
2.15657	0.886
2.19742	0.892
2.23828	0.897
2.27913	0.9
2.31999	0.902
2.36085	0.907
2.4017	0.91
2.44256	0.914
2.48341	0.914
2.52427	0.917
2.56513	0.919
2.60598	0.921
2.64684	0.922
2.68769	0.924
2.72855	0.922
2.7694	0.9
2.81026	0.881
2.85112	0.868
2.89197	0.854
2.93283	0.849
2.97368	0.868
3.01454	0.88
3.0554	0.888
3.09625	0.897
3.13711	0.898
3.17796	0.898
3.21882	0.82
3.25967	0.833
3.30053	0.88
3.34139	0.88
3.38224	0.825
3.4231	0.845
3.46395	0.863
3.50481	0.876
3.54566	0.888
3.58652	0.895
3.62738	0.904
3.66823	0.905
3.70909	0.909
3.74994	0.916
3.7908	0.926
3.83166	0.931
3.87251	0.931
3.91337	0.928
3.95422	0.921
3.99508	0.917
4.03593	0.917
4.07679	0.931
4.11765	0.934
4.1585	0.931
4.19936	0.929
4.24021	0.936
4.28107	0.938
4.32192	0.938
4.36278	0.941
4.40364	0.94
4.44449	0.931
4.48535	0.945
4.5262	0.95
4.56706	0.952
4.60792	0.955
4.64877	0.955
4.68963	0.955
4.73048	0.958
4.77134	0.964
4.81219	0.965
4.85305	0.96
4.89391	0.96
4.93476	0.957
4.97562	0.96
5.01647	0.969
5.05733	0.969
5.09819	0.964
5.13904	0.965
5.1799	0.962
5.22075	0.96
5.26161	0.964
5.30246	0.957
5.34332	0.964
5.38418	0.958
5.42503	0.955
5.46589	0.945
5.50674	0.955
5.5476	0.955
5.58845	0.953
5.62931	0.938
5.67017	0.955
5.71102	0.957
5.75188	0.94
5.79273	0.929
5.83359	0.91
5.87445	0.919
5.9153	0.916
5.95616	0.904
5.99701	0.873
6.03787	0.835
6.07872	0.777
6.11958	0.705
6.16044	0.523
6.20129	0.063
6.24215	0.2
6.283	0.486
6.32386	0.506
6.36471	0.133
6.40557	0.051
6.44643	0.183
6.48728	0.47
6.52814	0.616
6.56899	0.681
6.60985	0.676
6.65071	0.645
6.69156	0.592
6.73242	0.392
6.77327	0.282
6.81413	0.4
6.85498	0.369
6.89584	0.421
6.9367	0.479
6.97755	0.494
7.01841	0.404
7.05926	0.131
7.10012	0.22
7.14098	0.585
7.18183	0.66
7.22269	0.626
7.26354	0.488
7.3044	0.363
7.34525	0.089
7.38611	0.058
7.42697	0.034
7.46782	0.023
7.50868	0.023
7.54953	0.049
7.59039	0.099
7.63124	0.186
7.6721	0.172
7.71296	0.082
7.75381	0.07
7.79467	0.041
7.83552	0.046
7.87638	0.125
7.91724	0.256
7.95809	0.339
7.99895	0.422
8.0398	0.52
8.08066	0.597
8.12151	0.657
8.16237	0.72
8.20323	0.736
8.24408	0.613
8.28494	0.708
8.32579	0.818
8.36665	0.837
8.4075	0.827
8.44836	0.69
8.48922	0.491
8.53007	0.77
8.57093	0.845
8.61178	0.868
8.65264	0.885
8.6935	0.893
8.73435	0.904
8.77521	0.905
8.81606	0.907
8.85692	0.907
8.89777	0.909
8.93863	0.91
8.97949	0.91
9.02034	0.89
9.0612	0.828
9.10205	0.565
9.14291	0.636
9.18377	0.811
9.22462	0.873
9.26548	0.912
9.30633	0.931
9.34719	0.94
9.38804	0.941
9.4289	0.94
9.46976	0.938
9.51061	0.936
9.55147	0.931
9.59232	0.914
9.63318	0.881
9.67403	0.912
9.71489	0.928
9.75575	0.938
9.7966	0.938
9.83746	0.931
9.87831	0.904
9.91917	0.835
9.96003	0.809
10.0009	0.868
10.0417	0.912
10.0826	0.933
10.1234	0.94
10.1643	0.945
10.2052	0.952
10.246	0.952
10.2869	0.952
10.3277	0.95
10.3686	0.924
10.4094	0.811
10.4503	0.72
10.4912	0.835
10.532	0.898
10.5729	0.933
10.6137	0.945
10.6546	0.948
10.6954	0.943
10.7363	0.893
10.7771	0.804
10.818	0.731
10.8589	0.809
10.8997	0.791
10.9406	0.66
10.9814	0.732
11.0223	0.82
11.0631	0.868
11.104	0.9
11.1448	0.893
11.1857	0.84
11.2266	0.731
11.2674	0.726
11.3083	0.844
11.3491	0.909
11.39	0.933
11.4308	0.945
11.4717	0.95
11.5125	0.952
11.5534	0.952
11.5943	0.955
11.6351	0.957
11.676	0.957
11.7168	0.957
11.7577	0.957
11.7985	0.96
11.8394	0.962
11.8802	0.96
11.9211	0.958
11.962	0.953
12.0028	0.95
12.0437	0.943
12.0845	0.898
12.1254	0.804
12.1662	0.796
12.2071	0.886
12.248	0.934
12.2888	0.945
12.3297	0.952
12.3705	0.953
12.4114	0.957
12.4522	0.953
12.4931	0.945
12.5339	0.929
12.5748	0.88
12.6157	0.803
12.6565	0.777
12.6974	0.756
12.7382	0.515
12.7791	0.465
12.8199	0.744
12.8608	0.864
12.9016	0.91
12.9425	0.929
12.9834	0.938
13.0242	0.941
13.0651	0.941
13.1059	0.929
13.1468	0.902
13.1876	0.811
13.2285	0.609
13.2693	0.541
13.3102	0.698
13.3511	0.808
13.3919	0.861
13.4328	0.89
13.4736	0.902
13.5145	0.888
13.5553	0.859
13.5962	0.833
13.637	0.82
13.6779	0.818
13.7188	0.835
13.7596	0.866
13.8005	0.88
13.8413	0.881
13.8822	0.864
13.923	0.833
13.9639	0.773
14.0047	0.703
14.0456	0.674
14.0865	0.705
14.1273	0.741
14.1682	0.77
14.209	0.796
14.2499	0.83
14.2907	0.856
14.3316	0.876
14.3725	0.888
14.4133	0.895
14.4542	0.904
14.495	0.904
14.5359	0.905
14.5767	0.907
14.6176	0.907
14.6584	0.905
14.6993	0.904
14.7402	0.904
14.781	0.904
14.8219	0.892
14.8627	0.892
14.9036	0.892
14.9444	0.888
14.9853	0.881
15.0261	0.859
15.067	0.854
15.1079	0.851
15.1487	0.847
15.1896	0.84
15.2304	0.823
15.2713	0.809
15.3121	0.801
15.353	0.796
15.3938	0.791
15.4347	0.789
15.4756	0.787
15.5164	0.785
15.5573	0.782
15.5981	0.777
15.639	0.777
15.6798	0.773
15.7207	0.767
15.7615	0.761
15.8024	0.753
15.8433	0.755
15.8841	0.751
15.925	0.746
