Infrared Spectrum: O-5-NITRO-2-FUROYLPYRROLIDINOACETAMIDOXIME, HYDROCHLORIDE
Formula: C11 H15 Cl N4 O5
State: SOLID (NUJOL MULL)
Melting point: 144 C
Class: COBLENTZ III
Instrument: PERKIN-ELMER 21 (GRATING)
Instrument parameters: NaCl PRISM
Sampling: TRANSMISSION
Resolution: 2
Origin: ABBOTT LABORATORIES
1/CM	TRANSMITTANCE
669	0.6759
678	0.7
687	0.7117
696	0.7081
705	0.6621
714	0.655
723	0.6393
732	0.6605
741	0.6902
750	0.6806
759	0.4544
768	0.7385
777	0.7485
786	0.752
795	0.7416
804	0.6866
813	0.4551
822	0.7441
831	0.7234
840	0.4931
849	0.6973
858	0.7275
867	0.7082
876	0.6918
885	0.6191
894	0.6839
903	0.7209
912	0.6903
921	0.6903
930	0.6816
939	0.7077
948	0.7054
957	0.6767
966	0.5894
975	0.6112
984	0.6648
993	0.6623
1002	0.6629
1011	0.654
1020	0.6162
1029	0.446
1038	0.6442
1047	0.6527
1056	0.657
1065	0.6577
1074	0.6333
1083	0.6216
1092	0.6156
1101	0.6223
1110	0.6077
1119	0.5821
1128	0.4975
1137	0.2688
1146	0.6433
1155	0.6801
1164	0.6801
1173	0.6695
1182	0.6375
1191	0.4451
1200	0.6486
1209	0.6613
1218	0.6517
1227	0.6497
1236	0.6548
1245	0.6204
1254	0.5976
1263	0.5797
1272	0.5317
1281	0.4526
1290	0.1713
1299	0.2487
1308	0.4479
1317	0.5394
1326	0.5479
1335	0.5463
1344	0.4227
1353	0.2158
1362	0.2165
1371	0.2758
1380	0.269
1389	0.4813
1398	0.5528
1407	0.5149
1416	0.4864
1425	0.4479
1434	0.4354
1443	0.3579
1452	0.191
1461	0.1474
1470	0.1736
1479	0.393
1488	0.4363
1497	0.5117
1506	0.6599
1515	0.6335
1524	0.5519
1533	0.4478
1542	0.2107
1551	0.5336
1560	0.6814
1569	0.6951
1578	0.6682
1587	0.5311
1596	0.4028
1605	0.5864
1614	0.4745
1623	0.4395
1632	0.4521
1641	0.3111
1650	0.1131
1659	0.2884
1668	0.5007
1677	0.6582
1686	0.6834
1695	0.6918
1704	0.7141
1713	0.7185
1722	0.7149
1731	0.692
1740	0.5055
1749	0.218
1758	0.3705
1767	0.6368
1776	0.7692
1785	0.8032
1794	0.8127
1803	0.817
1812	0.8169
1821	0.8157
1830	0.8119
1839	0.8047
1848	0.809
1857	0.8178
1866	0.8194
1875	0.8212
1884	0.8215
1893	0.8216
1902	0.8217
1911	0.8215
1920	0.821
1929	0.8205
1938	0.8203
1947	0.8203
1956	0.8195
1965	0.8157
1974	0.8135
1983	0.812
1992	0.8099
2001	0.8065
2010	0.8038
2019	0.8019
2028	0.8008
2037	0.7986
2046	0.7952
2055	0.7915
2064	0.7875
2073	0.7845
2082	0.7824
2091	0.781
2100	0.7797
2109	0.7778
2118	0.7755
2127	0.7724
2136	0.7684
2145	0.7628
2154	0.7556
2163	0.7479
2172	0.7403
2181	0.7332
2190	0.7258
2199	0.7176
2208	0.7082
2217	0.6971
2226	0.6821
2235	0.6653
2244	0.649
2253	0.6336
2262	0.6177
2271	0.5854
2280	0.5573
2289	0.5273
2298	0.5062
2307	0.4882
2316	0.4677
2325	0.465
2334	0.4668
2343	0.4731
2352	0.4801
2361	0.4876
2370	0.5004
2379	0.5192
2388	0.5229
2397	0.5265
2406	0.532
2415	0.5372
2424	0.5407
2433	0.5418
2442	0.5403
2451	0.5373
2460	0.5315
2469	0.5254
2478	0.5254
2487	0.5288
2496	0.5426
2505	0.5591
2514	0.5639
2523	0.5653
2532	0.5599
2541	0.5505
2550	0.5373
2559	0.5279
2568	0.527
2577	0.5299
2586	0.5375
2595	0.5489
2604	0.5603
2613	0.5717
2622	0.5835
2631	0.5943
2640	0.6042
2649	0.6052
2658	0.6055
2667	0.6048
2676	0.604
2685	0.6033
2694	0.6027
2703	0.6033
2712	0.6075
2721	0.6126
2730	0.6143
2739	0.6127
2748	0.6131
2757	0.6177
2766	0.6216
2775	0.6242
2784	0.621
2793	0.6139
2802	0.6006
2811	0.5771
2820	0.5597
2829	0.5414
2838	0.5245
2847	0.5035
2856	0.3117
2865	0.1445
2874	0.0977
2883	0.0618
2892	0.0536
2901	0.0526
2910	0.0505
2919	0.044
2928	0.0422
2937	0.0428
2946	0.0434
2955	0.0435
2964	0.0448
2973	0.0476
2982	0.0568
2991	0.0691
3000	0.0814
3009	0.1062
3018	0.1972
3027	0.2774
3036	0.3571
3045	0.4363
3054	0.5149
3063	0.5729
3072	0.6068
3081	0.6135
3090	0.6151
3099	0.6153
3108	0.6149
3117	0.6132
3126	0.6045
3135	0.5814
3144	0.5598
3153	0.5385
3162	0.5172
3171	0.496
3180	0.4789
3189	0.4677
3198	0.4632
3207	0.4656
3216	0.4814
3225	0.5093
3234	0.5372
3243	0.5667
3252	0.5684
3261	0.568
3270	0.5657
3279	0.5623
3288	0.5578
3297	0.5525
3306	0.5466
3315	0.5415
3324	0.5399
3333	0.54
3342	0.5433
3351	0.5476
3360	0.55
3369	0.5524
3378	0.5555
3387	0.5644
3396	0.5868
3405	0.6059
3414	0.614
3423	0.6151
3432	0.6154
3441	0.6155
3450	0.6151
3459	0.6126
3468	0.6098
3477	0.6012
3486	0.5834
3495	0.5658
3504	0.5504
3513	0.5592
3522	0.6283
3531	0.6819
3540	0.7009
3549	0.7139
3558	0.7226
3567	0.7277
3576	0.7314
3585	0.7335
3594	0.7352
3603	0.7363
3612	0.7365
3621	0.7368
3630	0.737
3639	0.7372
3648	0.7383
3657	0.7395
3666	0.7403
3675	0.7407
3684	0.7407
3693	0.7406
3702	0.7405
3711	0.7402
3720	0.7399
3729	0.7394
3738	0.739
3747	0.7386
3756	0.7381
3765	0.7377
3774	0.7372
3783	0.7367
3792	0.7357
3801	0.7348
3810	0.7338
3819	0.7328
3828	0.7313
3837	0.7298
3846	0.7282
3855	0.7266
3864	0.7249
3873	0.7242
3882	0.7239
3891	0.7238
3900	0.7237
3909	0.7238
3918	0.7238
3927	0.7238
3936	0.7238
3945	0.7236
3954	0.7234
3963	0.7232
3972	0.7232
3981	0.7232
3990	0.7232
3999	0.7232
