Infrared Spectrum: SODIUM PHOSPHATE, MONOBASIC
Formula: Na H2 P O4  * H2 O
State: SOLID (NUJOL AND FLUOROLUBE MULLS)
Class: COBLENTZ
Instrument: Not specified, most likely a prism, grating, or hybrid spectrometer.
Sampling: TRANSMISSION
Resolution: 4
Origin: MELLON INSTITUTE
MICROMETERS	TRANSMITTANCE
2.054	0.852
2.09395	0.852
2.13391	0.859
2.17386	0.859
2.21381	0.862
2.25377	0.869
2.29372	0.874
2.33367	0.879
2.37362	0.887
2.41358	0.892
2.45353	0.899
2.49348	0.902
2.53344	0.906
2.57339	0.909
2.61334	0.914
2.6533	0.919
2.69325	0.917
2.7332	0.916
2.77315	0.912
2.81311	0.902
2.85306	0.892
2.89301	0.889
2.93297	0.877
2.97292	0.865
3.01287	0.857
3.05283	0.835
3.09278	0.797
3.13273	0.755
3.17268	0.703
3.21264	0.649
3.25259	0.603
3.29254	0.567
3.3325	0.537
3.37245	0.5
3.4124	0.474
3.45236	0.458
3.49231	0.438
3.53226	0.423
3.57221	0.418
3.61217	0.423
3.65212	0.437
3.69207	0.462
3.73203	0.499
3.77198	0.537
3.81193	0.556
3.85189	0.566
3.89184	0.566
3.93179	0.562
3.97175	0.542
4.0117	0.52
4.05165	0.487
4.0916	0.462
4.13156	0.443
4.17151	0.427
4.21146	0.42
4.25142	0.417
4.29137	0.42
4.33132	0.42
4.37128	0.422
4.41123	0.433
4.45118	0.45
4.49113	0.469
4.53109	0.492
4.57104	0.509
4.61099	0.519
4.65095	0.529
4.6909	0.544
4.73085	0.557
4.77081	0.571
4.81076	0.586
4.85071	0.601
4.89066	0.614
4.93062	0.631
4.97057	0.643
5.01052	0.649
5.05048	0.664
5.09043	0.68
5.13038	0.693
5.17034	0.701
5.21029	0.713
5.25024	0.718
5.2902	0.721
5.33015	0.726
5.3701	0.728
5.41005	0.728
5.45001	0.728
5.48996	0.728
5.52991	0.728
5.56987	0.728
5.60982	0.728
5.64977	0.73
5.68973	0.733
5.72968	0.735
5.76963	0.73
5.80958	0.733
5.84954	0.731
5.88949	0.73
5.92944	0.73
5.9694	0.728
6.00935	0.723
6.0493	0.718
6.08926	0.721
6.12921	0.725
6.16916	0.745
6.20911	0.777
6.24907	0.798
6.28902	0.805
6.32897	0.814
6.36893	0.852
6.40888	0.867
6.44883	0.892
6.48879	0.904
6.52874	0.906
6.56869	0.922
6.60864	0.932
6.6486	0.951
6.68855	0.966
6.7285	0.979
6.76846	0.988
6.80841	0.991
6.84836	0.993
6.88832	0.993
6.92827	0.994
6.96822	0.991
7.00818	0.979
7.04813	0.964
7.08808	0.954
7.12803	0.943
7.16799	0.932
7.20794	0.917
7.24789	0.892
7.28785	0.855
7.3278	0.817
7.36775	0.773
7.40771	0.742
7.44766	0.71
7.48761	0.664
7.52756	0.581
7.56752	0.502
7.60747	0.428
7.64742	0.386
7.68738	0.365
7.72733	0.335
7.76728	0.323
7.80724	0.331
7.84719	0.365
7.88714	0.427
7.92709	0.472
7.96705	0.504
8.007	0.51
8.04695	0.512
8.08691	0.525
8.12686	0.564
8.16681	0.614
8.20677	0.643
8.24672	0.666
8.28667	0.668
8.32662	0.661
8.36658	0.634
8.40653	0.599
8.44648	0.52
8.48644	0.442
8.52639	0.37
8.56634	0.36
8.6063	0.356
8.64625	0.388
8.6862	0.413
8.72616	0.42
8.76611	0.42
8.80606	0.4
8.84601	0.381
8.88597	0.378
8.92592	0.378
8.96587	0.373
9.00583	0.373
9.04578	0.375
9.08573	0.371
9.12569	0.37
9.16564	0.368
9.20559	0.368
9.24554	0.365
9.2855	0.353
9.32545	0.343
9.3654	0.326
9.40536	0.301
9.44531	0.288
9.48526	0.276
9.52522	0.259
9.56517	0.256
9.60512	0.256
9.64507	0.262
9.68503	0.288
9.72498	0.331
9.76493	0.378
9.80489	0.391
9.84484	0.412
9.88479	0.413
9.92475	0.403
9.9647	0.39
10.0047	0.373
10.0446	0.356
10.0846	0.345
10.1245	0.336
10.1645	0.333
10.2044	0.333
10.2444	0.34
10.2843	0.341
10.3243	0.355
10.3642	0.371
10.4042	0.396
10.4441	0.41
10.4841	0.422
10.524	0.425
10.564	0.423
10.6039	0.402
10.6439	0.356
10.6839	0.331
10.7238	0.301
10.7638	0.286
10.8037	0.279
10.8437	0.281
10.8836	0.296
10.9236	0.321
10.9635	0.375
11.0035	0.402
11.0434	0.433
11.0834	0.458
11.1233	0.495
11.1633	0.527
11.2032	0.559
11.2432	0.577
11.2831	0.591
11.3231	0.596
11.3631	0.581
11.403	0.536
11.443	0.514
11.4829	0.504
11.5229	0.512
11.5628	0.53
11.6028	0.541
11.6427	0.552
11.6827	0.577
11.7226	0.604
11.7626	0.624
11.8025	0.641
11.8425	0.656
11.8824	0.675
11.9224	0.691
11.9624	0.696
12.0023	0.7
12.0423	0.705
12.0822	0.713
12.1222	0.715
12.1621	0.716
12.2021	0.718
12.242	0.718
12.282	0.725
12.3219	0.74
12.3619	0.765
12.4018	0.793
12.4418	0.815
12.4817	0.832
12.5217	0.839
12.5616	0.855
12.6016	0.881
12.6416	0.896
12.6815	0.906
12.7215	0.916
12.7614	0.927
12.8014	0.931
12.8413	0.939
12.8813	0.946
12.9212	0.953
12.9612	0.956
13.0011	0.963
13.0411	0.966
13.081	0.971
13.121	0.974
13.1609	0.981
13.2009	0.983
13.2408	0.986
13.2808	0.991
13.3208	0.993
13.3607	0.994
13.4007	1
13.4406	1.001
13.4806	1.001
13.5205	1.001
13.5605	1
13.6004	0.998
13.6404	0.994
13.6803	0.993
13.7203	0.993
13.7602	0.991
13.8002	0.988
13.8401	0.984
13.8801	0.983
13.92	0.981
13.96	0.979
14	0.979
14.0399	0.974
14.0799	0.971
14.1198	0.966
14.1598	0.963
14.1997	0.958
14.2397	0.953
14.2796	0.948
14.3196	0.943
14.3595	0.936
14.3995	0.929
14.4394	0.922
14.4794	0.916
14.5193	0.909
14.5593	0.904
14.5992	0.897
14.6392	0.891
14.6792	0.882
14.7191	0.876
14.7591	0.872
14.799	0.86
14.839	0.85
14.8789	0.84
14.9189	0.834
14.9588	0.824
14.9988	0.817
15.0387	0.81
15.0787	0.809
15.1186	0.805
15.1586	0.8
15.1985	0.787
15.2385	0.782
15.2785	0.773
15.3184	0.768
15.3584	0.763
15.3983	0.763
15.4383	0.76
15.4782	0.753
15.5182	0.752
15.5581	0.75
15.5981	0.745
15.638	0.743
15.678	0.742
15.7179	0.74
15.7579	0.735
15.7978	0.733
15.8378	0.733
15.8777	0.731
15.9177	0.73
15.9577	0.73
15.9976	0.728
