Infrared Spectrum: SODIUM SULFOACETANILIDE
Formula: C8 H8 N O4 S Na
State: SOLID (KBr PELLET)
Melting point: 285-286 C
Class: COBLENTZ
Instrument: Not specified, most likely a prism, grating, or hybrid spectrometer.
Sampling: TRANSMISSION
Resolution: 4
Origin: TENNESSEE EASTMAN COMPANY, RESEARCH LABORATORIES
MICROMETERS	TRANSMITTANCE
2.041	0.887
2.08194	0.887
2.12287	0.89
2.16381	0.89
2.20474	0.892
2.24568	0.892
2.28661	0.89
2.32755	0.888
2.36848	0.885
2.40942	0.882
2.45035	0.882
2.49129	0.882
2.53222	0.88
2.57316	0.871
2.61409	0.875
2.65503	0.873
2.69597	0.817
2.7369	0.678
2.77784	0.393
2.81877	0.401
2.85971	0.287
2.90064	0.21
2.94158	0.439
2.98251	0.191
3.02345	0.447
3.06438	0.663
3.10532	0.678
3.14625	0.719
3.18719	0.765
3.22812	0.788
3.26906	0.817
3.31	0.837
3.35093	0.8
3.39187	0.858
3.4328	0.868
3.47374	0.888
3.51467	0.9
3.55561	0.917
3.59654	0.924
3.63748	0.928
3.67841	0.929
3.71935	0.931
3.76028	0.931
3.80122	0.931
3.84215	0.936
3.88309	0.938
3.92402	0.94
3.96496	0.936
4.0059	0.94
4.04683	0.94
4.08777	0.94
4.1287	0.943
4.16964	0.94
4.21057	0.941
4.25151	0.916
4.29244	0.902
4.33338	0.926
4.37431	0.936
4.41525	0.931
4.45618	0.928
4.49712	0.931
4.53805	0.931
4.57899	0.938
4.61993	0.938
4.66086	0.941
4.7018	0.943
4.74273	0.943
4.78367	0.945
4.8246	0.948
4.86554	0.948
4.90647	0.953
4.94741	0.95
4.98834	0.958
5.02928	0.952
5.07021	0.943
5.11115	0.935
5.15208	0.95
5.19302	0.955
5.23396	0.952
5.27489	0.943
5.31583	0.936
5.35676	0.948
5.3977	0.952
5.43863	0.948
5.47957	0.943
5.5205	0.931
5.56144	0.928
5.60237	0.931
5.64331	0.914
5.68424	0.89
5.72518	0.854
5.76611	0.854
5.80705	0.83
5.84799	0.791
5.88892	0.543
5.92986	0.15
5.97079	0.1
6.01173	0.167
6.05266	0.449
6.0936	0.608
6.13453	0.531
6.17547	0.372
6.2164	0.259
6.25734	0.692
6.29827	0.781
6.33921	0.652
6.38014	0.275
6.42108	0.196
6.46201	0.558
6.50295	0.728
6.54389	0.767
6.58482	0.688
6.62576	0.418
6.66669	0.579
6.70763	0.753
6.74856	0.798
6.7895	0.83
6.83043	0.76
6.87137	0.258
6.9123	0.574
6.95324	0.77
6.99417	0.69
7.03511	0.536
7.07604	0.772
7.11698	0.8
7.15792	0.786
7.19885	0.805
7.23979	0.81
7.28072	0.817
7.32166	0.818
7.36259	0.794
7.40353	0.688
7.44446	0.413
7.4854	0.357
7.52633	0.509
7.56727	0.717
7.6082	0.757
7.64914	0.726
7.69007	0.772
7.73101	0.685
7.77195	0.584
7.81288	0.476
7.85382	0.699
7.89475	0.736
7.93569	0.678
7.97662	0.694
8.01756	0.594
8.05849	0.364
8.09943	0.23
8.14036	0.194
8.1813	0.07
8.22223	0.025
8.26317	0.068
8.3041	0.035
8.34504	0.022
8.38598	0.023
8.42691	0.194
8.46785	0.333
8.50878	0.535
8.54972	0.656
8.59065	0.69
8.63159	0.704
8.67252	0.736
8.71346	0.748
8.75439	0.752
8.79533	0.75
8.83626	0.736
8.8772	0.688
8.91813	0.711
8.95907	0.757
9	0.767
9.04094	0.782
9.08188	0.796
9.12281	0.798
9.16375	0.798
9.20468	0.75
9.24562	0.764
9.28655	0.779
9.32749	0.745
9.36842	0.596
9.40936	0.246
9.45029	0.145
9.49123	0.218
9.53216	0.07
9.5731	0.564
9.61403	0.76
9.65497	0.786
9.69591	0.798
9.73684	0.839
9.77778	0.846
9.81871	0.854
9.85965	0.871
9.90058	0.875
9.94152	0.854
9.98245	0.875
10.0234	0.892
10.0643	0.883
10.1053	0.856
10.1462	0.871
10.1871	0.866
10.2281	0.811
10.269	0.741
10.3099	0.736
10.3509	0.745
10.3918	0.8
10.4327	0.866
10.4737	0.914
10.5146	0.919
10.5555	0.917
10.5965	0.926
10.6374	0.933
10.6784	0.94
10.7193	0.928
10.7602	0.928
10.8012	0.921
10.8421	0.858
10.883	0.837
10.924	0.786
10.9649	0.825
11.0058	0.822
11.0468	0.861
11.0877	0.912
11.1286	0.935
11.1696	0.941
11.2105	0.948
11.2514	0.95
11.2924	0.95
11.3333	0.955
11.3743	0.955
11.4152	0.95
11.4561	0.948
11.4971	0.95
11.538	0.952
11.5789	0.952
11.6199	0.948
11.6608	0.941
11.7017	0.926
11.7427	0.916
11.7836	0.875
11.8245	0.818
11.8655	0.841
11.9064	0.88
11.9473	0.899
11.9883	0.905
12.0292	0.885
12.0702	0.852
12.1111	0.856
12.152	0.813
12.193	0.735
12.2339	0.623
12.2748	0.594
12.3158	0.702
12.3567	0.782
12.3976	0.818
12.4386	0.839
12.4795	0.851
12.5204	0.846
12.5614	0.846
12.6023	0.851
12.6432	0.852
12.6842	0.849
12.7251	0.827
12.7661	0.818
12.807	0.81
12.8479	0.801
12.8889	0.779
12.9298	0.747
12.9707	0.687
13.0117	0.593
13.0526	0.398
13.0935	0.261
13.1345	0.208
13.1754	0.2
13.2163	0.152
13.2573	0.15
13.2982	0.235
13.3391	0.352
13.3801	0.442
13.421	0.507
13.462	0.558
13.5029	0.603
13.5438	0.642
13.5848	0.664
13.6257	0.695
13.6666	0.711
13.7076	0.716
13.7485	0.702
13.7894	0.697
13.8304	0.688
13.8713	0.675
13.9122	0.651
13.9532	0.615
13.9941	0.581
14.035	0.524
14.076	0.482
14.1169	0.452
14.1579	0.427
14.1988	0.401
14.2397	0.384
14.2807	0.379
14.3216	0.377
14.3625	0.386
14.4035	0.398
14.4444	0.422
14.4853	0.468
14.5263	0.523
14.5672	0.558
14.6081	0.591
14.6491	0.6
14.69	0.608
14.731	0.608
14.7719	0.608
14.8128	0.6
14.8538	0.596
14.8947	0.586
14.9356	0.564
14.9766	0.526
15.0175	0.495
15.0584	0.461
15.0994	0.439
15.1403	0.418
15.1812	0.432
15.2222	0.459
15.2631	0.463
15.304	0.468
15.345	0.468
15.3859	0.468
15.4269	0.473
15.4678	0.478
15.5087	0.487
15.5497	0.488
15.5906	0.492
15.6315	0.497
15.6725	0.499
15.7134	0.505
15.7543	0.504
15.7953	0.504
15.8362	0.5
15.8771	0.497
15.9181	0.502
15.959	0.505
