Infrared Spectrum: FORMAMIDE, N-BENZYL-N-[3-BENZYL-6-BENZYLAMINO-4-THIOXO-5-PYRIMIDINYL]-
Formula: C26 H24 N4 O S
State: SOLID (1 mg / 650 mg KBr DISC)
Class: COBLENTZ
Instrument: PERKIN-ELMER 521 (GRATING)
Instrument parameters: GRATING CHANGES AT 2000, 620, FILTERS AT 3130, 2475, 2000, 1150, 700, 410 CM^-^1
Sampling: TRANSMISSION
Resolution: 4
Origin: SOUTHERN RESEARCH INSTITUTE
1/CM	TRANSMITTANCE
242.664	0.253
252.22	0.281
261.776	0.384
271.332	0.444
280.888	0.521
290.444	0.572
300	0.634
309.556	0.679
319.112	0.694
328.668	0.724
338.224	0.757
347.78	0.78
357.336	0.801
366.892	0.823
376.448	0.843
386.004	0.86
395.56	0.86
405.116	0.86
414.672	0.872
424.228	0.867
433.784	0.884
443.34	0.884
452.896	0.885
462.452	0.89
472.008	0.875
481.564	0.85
491.12	0.803
500.676	0.851
510.232	0.892
519.788	0.902
529.344	0.898
538.9	0.902
548.456	0.906
558.012	0.906
567.568	0.901
577.124	0.899
586.68	0.863
596.236	0.867
605.792	0.894
615.348	0.895
624.904	0.893
634.46	0.894
644.016	0.895
653.572	0.871
663.128	0.888
672.684	0.872
682.24	0.852
691.795	0.763
701.351	0.73
710.907	0.82
720.463	0.908
730.019	0.8
739.575	0.809
749.131	0.797
758.687	0.807
768.243	0.854
777.799	0.876
787.355	0.934
796.911	0.949
806.467	0.945
816.023	0.941
825.579	0.947
835.135	0.947
844.691	0.929
854.247	0.934
863.803	0.906
873.359	0.929
882.915	0.94
892.471	0.94
902.027	0.933
911.583	0.916
921.139	0.914
930.695	0.917
940.251	0.914
949.807	0.879
959.363	0.874
968.919	0.861
978.475	0.888
988.031	0.895
997.587	0.895
1007.14	0.9
1016.7	0.896
1026.26	0.849
1035.81	0.888
1045.37	0.869
1054.92	0.84
1064.48	0.861
1074.04	0.799
1083.59	0.806
1093.15	0.668
1102.7	0.735
1112.26	0.805
1121.82	0.875
1131.37	0.873
1140.93	0.809
1150.48	0.857
1160.04	0.86
1169.59	0.85
1179.15	0.783
1188.71	0.709
1198.26	0.759
1207.82	0.817
1217.37	0.825
1226.93	0.867
1236.49	0.871
1246.04	0.861
1255.6	0.85
1265.15	0.865
1274.71	0.856
1284.27	0.849
1293.82	0.815
1303.38	0.796
1312.93	0.725
1322.49	0.716
1332.05	0.694
1341.6	0.688
1351.16	0.754
1360.71	0.819
1370.27	0.817
1379.83	0.703
1389.38	0.775
1398.94	0.791
1408.49	0.646
1418.05	0.57
1427.61	0.633
1437.16	0.648
1446.72	0.714
1456.27	0.726
1465.83	0.89
1475.39	0.883
1484.94	0.815
1494.5	0.741
1504.05	0.886
1513.61	0.903
1523.17	0.886
1532.72	0.867
1542.28	0.818
1551.83	0.753
1561.39	0.682
1570.95	0.69
1580.5	0.632
1590.06	0.58
1599.61	0.372
1609.17	0.271
1618.73	0.457
1628.28	0.697
1637.84	0.795
1647.39	0.787
1656.95	0.696
1666.51	0.399
1676.06	0.345
1685.62	0.643
1695.17	0.771
1704.73	0.891
1714.29	0.947
1723.84	0.96
1733.4	0.973
1742.95	0.977
1752.51	0.979
1762.07	0.981
1771.62	0.981
1781.18	0.981
1790.73	0.98
1800.29	0.977
1809.85	0.975
1819.4	0.973
1828.96	0.973
1838.51	0.975
1848.07	0.974
1857.63	0.973
1867.18	0.972
1876.74	0.97
1886.29	0.967
1895.85	0.965
1905.41	0.964
1914.96	0.963
1924.52	0.962
1934.07	0.96
1943.63	0.957
1953.19	0.956
1962.74	0.958
1972.3	0.959
1981.85	0.961
1991.41	0.96
2000.97	0.958
2010.52	0.958
2020.08	0.958
2029.63	0.96
2039.19	0.958
2048.75	0.956
2058.3	0.955
2067.86	0.955
2077.41	0.953
2086.97	0.952
2096.53	0.953
2106.08	0.954
2115.64	0.952
2125.19	0.951
2134.75	0.948
2144.31	0.948
2153.86	0.948
2163.42	0.948
2172.97	0.947
2182.53	0.946
2192.09	0.946
2201.64	0.945
2211.2	0.944
2220.75	0.944
2230.31	0.943
2239.87	0.941
2249.42	0.94
2258.98	0.94
2268.53	0.939
2278.09	0.94
2287.65	0.94
2297.2	0.939
2306.76	0.937
2316.31	0.936
2325.87	0.935
2335.43	0.936
2344.98	0.932
2354.54	0.932
2364.09	0.934
2373.65	0.935
2383.21	0.933
2392.76	0.932
2402.32	0.932
2411.87	0.932
2421.43	0.932
2430.99	0.931
2440.54	0.93
2450.1	0.929
2459.65	0.928
2469.21	0.926
2478.77	0.925
2488.32	0.923
2497.88	0.922
2507.43	0.921
2516.99	0.919
2526.55	0.919
2536.1	0.918
2545.66	0.917
2555.21	0.917
2564.77	0.915
2574.33	0.914
2583.88	0.914
2593.44	0.913
2602.99	0.912
2612.55	0.911
2622.11	0.911
2631.66	0.91
2641.22	0.91
2650.77	0.91
2660.33	0.91
2669.89	0.909
2679.44	0.908
2689	0.906
2698.55	0.905
2708.11	0.903
2717.67	0.902
2727.22	0.9
2736.78	0.899
2746.33	0.897
2755.89	0.895
2765.45	0.895
2775	0.895
2784.56	0.894
2794.11	0.892
2803.67	0.89
2813.23	0.888
2822.78	0.885
2832.34	0.876
2841.89	0.864
2851.45	0.854
2861.01	0.84
2870.56	0.847
2880.12	0.859
2889.67	0.863
2899.23	0.857
2908.79	0.847
2918.34	0.835
2927.9	0.828
2937.45	0.833
2947.01	0.85
2956.56	0.858
2966.12	0.859
2975.68	0.861
2985.23	0.867
2994.79	0.865
3004.34	0.862
3013.9	0.858
3023.46	0.821
3033.01	0.842
3042.57	0.848
3052.12	0.842
3061.68	0.845
3071.24	0.859
3080.79	0.859
3090.35	0.863
3099.9	0.865
3109.46	0.864
3119.02	0.863
3128.57	0.861
3138.13	0.858
3147.68	0.853
3157.24	0.85
3166.8	0.849
3176.35	0.847
3185.91	0.843
3195.46	0.837
3205.02	0.831
3214.58	0.827
3224.13	0.815
3233.69	0.81
3243.24	0.802
3252.8	0.791
3262.36	0.779
3271.91	0.763
3281.47	0.75
3291.02	0.737
3300.58	0.694
3310.14	0.611
3319.69	0.575
3329.25	0.717
3338.8	0.779
3348.36	0.785
3357.92	0.79
3367.47	0.792
3377.03	0.79
3386.58	0.783
3396.14	0.78
3405.7	0.776
3415.25	0.777
3424.81	0.781
3434.36	0.783
3443.92	0.788
3453.48	0.791
3463.03	0.792
3472.59	0.793
3482.14	0.794
3491.7	0.796
3501.26	0.798
3510.81	0.802
3520.37	0.808
3529.92	0.813
3539.48	0.817
3549.04	0.82
3558.59	0.827
3568.15	0.83
3577.7	0.833
3587.26	0.842
3596.82	0.847
3606.37	0.85
3615.93	0.854
3625.48	0.857
3635.04	0.859
3644.6	0.86
3654.15	0.862
3663.71	0.865
3673.26	0.861
3682.82	0.861
3692.38	0.864
3701.93	0.868
3711.49	0.866
3721.04	0.864
3730.6	0.862
3740.16	0.86
3749.71	0.858
3759.27	0.863
3768.82	0.866
3778.38	0.867
3787.94	0.865
3797.49	0.862
