Infrared Spectrum: 4-IMIDAZOLECARBOXYLIC ACID, 5-(3-METHYLTRIAZEN-1-YL)-, METHYL ESTER, WITH COPPER CHLORIDE
Formula: C6 H9 N5 O2  * Cu Cl2
State: SOLID (1 mg / 500 mg KBr DISC)
Class: COBLENTZ III
Instrument: PERKIN-ELMER 521 (GRATING)
Sampling: TRANSMISSION
Resolution: 4
Origin: SOUTHERN RESEARCH INSTITUTE
1/CM	TRANSMITTANCE
264.06	0.4
274.605	0.483
285.15	0.524
295.695	0.53
306.239	0.576
316.784	0.538
327.329	0.525
337.874	0.703
348.419	0.81
358.964	0.851
369.509	0.855
380.054	0.869
390.598	0.858
401.143	0.846
411.688	0.854
422.233	0.818
432.778	0.797
443.323	0.8479
453.868	0.911
464.412	0.923
474.957	0.931
485.502	0.934
496.047	0.934
506.592	0.934
517.137	0.934
527.682	0.934
538.226	0.926
548.771	0.919
559.316	0.911
569.861	0.89
580.406	0.839
590.951	0.7911
601.496	0.7031
612.041	0.555
622.585	0.747
633.13	0.816
643.675	0.84
654.22	0.826
664.765	0.901
675.31	0.921
685.855	0.922
696.399	0.918
706.944	0.83
717.489	0.947
728.034	0.94
738.579	0.938
749.124	0.926
759.669	0.879
770.213	0.6491
780.758	0.793
791.303	0.763
801.848	0.795
812.393	0.888
822.938	0.935
833.483	0.935
844.028	0.923
854.572	0.919
865.117	0.908
875.662	0.906
886.207	0.898
896.752	0.951
907.297	0.961
917.842	0.957
928.386	0.935
938.931	0.869
949.476	0.901
960.021	0.911
970.566	0.802
981.111	0.877
991.656	0.919
1002.2	0.913
1012.75	0.906
1023.29	0.888
1033.84	0.865
1044.38	0.855
1054.92	0.839
1065.47	0.806
1076.01	0.691
1086.56	0.55
1097.1	0.791
1107.65	0.801
1118.19	0.818
1128.74	0.747
1139.28	0.586
1149.83	0.533
1160.37	0.6211
1170.92	0.629
1181.46	0.5569
1192.01	0.608
1202.55	0.467
1213.1	0.6661
1223.64	0.773
1234.19	0.751
1244.73	0.678
1255.28	0.73
1265.82	0.731
1276.37	0.6581
1286.91	0.473
1297.46	0.413
1308	0.653
1318.55	0.731
1329.09	0.751
1339.64	0.703
1350.18	0.596
1360.73	0.3899
1371.27	0.172
1381.82	0.1471
1392.36	0.4789
1402.91	0.821
1413.45	0.775
1424	0.5448
1434.54	0.266
1445.08	0.421
1455.63	0.375
1466.17	0.206
1476.72	0.4833
1487.26	0.529
1497.81	0.475
1508.35	0.582
1518.9	0.793
1529.44	0.848
1539.99	0.86
1550.53	0.858
1561.08	0.854
1571.62	0.826
1582.17	0.7639
1592.71	0.57
1603.26	0.674
1613.8	0.767
1624.35	0.788
1634.89	0.787
1645.44	0.763
1655.98	0.717
1666.53	0.617
1677.07	0.3119
1687.62	0.124
1698.16	0.22
1708.71	0.373
1719.25	0.582
1729.8	0.775
1740.34	0.858
1750.89	0.908
1761.43	0.909
1771.98	0.893
1782.52	0.905
1793.07	0.939
1803.61	0.965
1814.16	0.969
1824.7	0.969
1835.24	0.969
1845.79	0.971
1856.33	0.968
1866.88	0.969
1877.42	0.969
1887.97	0.972
1898.51	0.975
1909.06	0.975
1919.6	0.973
1930.15	0.971
1940.69	0.968
1951.24	0.967
1961.78	0.964
1972.33	0.963
1982.87	0.959
1993.42	0.959
2003.96	0.965
2014.51	0.969
2025.05	0.967
2035.6	0.965
2046.14	0.965
2056.69	0.964
2067.23	0.96
2077.78	0.96
2088.32	0.959
2098.87	0.96
2109.41	0.96
2119.96	0.96
2130.5	0.959
2141.05	0.959
2151.59	0.959
2162.14	0.957
2172.68	0.956
2183.23	0.956
2193.77	0.955
2204.31	0.955
2214.86	0.956
2225.4	0.9529
2235.95	0.9489
2246.49	0.948
2257.04	0.948
2267.58	0.947
2278.13	0.946
2288.67	0.944
2299.22	0.94
2309.76	0.938
2320.31	0.936
2330.85	0.935
2341.4	0.935
2351.94	0.935
2362.49	0.935
2373.03	0.935
2383.58	0.934
2394.12	0.934
2404.67	0.934
2415.21	0.9342
2425.76	0.9295
2436.3	0.921
2446.85	0.917
2457.39	0.915
2467.94	0.915
2478.48	0.917
2489.03	0.915
2499.57	0.913
2510.12	0.911
2520.66	0.91
2531.21	0.902
2541.75	0.898
2552.3	0.898
2562.84	0.898
2573.39	0.898
2583.93	0.898
2594.47	0.894
2605.02	0.8842
2615.56	0.8775
2626.11	0.8722
2636.65	0.875
2647.2	0.876
2657.74	0.877
2668.29	0.877
2678.83	0.877
2689.38	0.876
2699.92	0.873
2710.47	0.8742
2721.01	0.879
2731.56	0.877
2742.1	0.872
2752.65	0.8715
2763.19	0.872
2773.74	0.8675
2784.28	0.86
2794.83	0.855
2805.37	0.854
2815.92	0.8493
2826.46	0.835
2837.01	0.8257
2847.55	0.8167
2858.1	0.814
2868.64	0.8127
2879.19	0.7943
2889.73	0.7825
2900.28	0.777
2910.82	0.7728
2921.37	0.7773
2931.91	0.781
2942.46	0.7706
2953	0.7459
2963.55	0.7431
2974.09	0.756
2984.63	0.754
2995.18	0.752
3005.72	0.749
3016.27	0.7391
3026.81	0.724
3037.36	0.7051
3047.9	0.6606
3058.45	0.6697
3068.99	0.681
3079.54	0.6609
3090.08	0.6182
3100.63	0.5481
3111.17	0.5239
3121.72	0.592
3132.26	0.58
3142.81	0.5503
3153.35	0.5215
3163.9	0.4789
3174.44	0.4348
3184.99	0.3907
3195.53	0.3423
3206.08	0.3024
3216.62	0.2669
3227.17	0.265
3237.71	0.2836
3248.26	0.3376
3258.8	0.38
3269.35	0.3741
3279.89	0.3454
3290.44	0.3789
3300.98	0.4685
3311.53	0.5826
3322.07	0.6659
3332.62	0.7164
3343.16	0.7433
3353.71	0.751
3364.25	0.7497
3374.79	0.747
3385.34	0.746
3395.88	0.7428
3406.43	0.7366
3416.97	0.729
3427.52	0.7237
3438.06	0.7126
3448.61	0.7106
3459.15	0.7491
3469.7	0.7623
3480.24	0.771
3490.79	0.773
3501.33	0.779
3511.88	0.788
3522.42	0.793
3532.97	0.8059
3543.51	0.812
3554.06	0.8219
3564.6	0.8269
3575.15	0.834
3585.69	0.8468
3596.24	0.8536
3606.78	0.864
3617.33	0.872
3627.87	0.8785
3638.42	0.881
3648.96	0.881
3659.51	0.881
3670.05	0.8823
3680.6	0.886
3691.14	0.888
3701.69	0.888
3712.23	0.885
3722.78	0.8834
3733.32	0.883
3743.87	0.883
3754.41	0.881
3764.95	0.881
3775.5	0.881
3786.04	0.88
3796.59	0.879
3807.13	0.879
3817.68	0.877
3828.22	0.876
3838.77	0.8757
3849.31	0.8744
3859.86	0.8717
3870.4	0.869
3880.95	0.868
3891.49	0.865
3902.04	0.8648
3912.58	0.864
3923.13	0.8642
3933.67	0.8639
3944.22	0.8629
3954.76	0.86
3965.31	0.859
3975.85	0.859
3986.4	0.859
3996.94	0.859
