Infrared Spectrum: SULFANILIC ACID, N-METHYL-, SODIUM SALT
Formula: C7 H8 N O3 S Na
State: SOLID (SPLIT MULL, FLUOROLUBE FOR 3800-1330 AND NUJOL FOR 1330-400 CM ^-^1)
Class: COBLENTZ III
Instrument: BECKMAN IR-9 (GRATING)
Instrument parameters: ORDER CHANGES AT 670, 1200, 2000 CM^-^1
Sampling: TRANSMISSION
Resolution: 4
Origin: DOW CHEMICAL COMPANY
1/CM	TRANSMITTANCE
398.214	0.598
407.143	0.602
416.071	0.615
425	0.661
433.928	0.691
442.857	0.711
451.786	0.73
460.714	0.737
469.643	0.746
478.571	0.748
487.5	0.719
496.429	0.793
505.357	0.827
514.286	0.796
523.214	0.838
532.143	0.852
541.072	0.846
550	0.775
558.929	0.344
567.857	0.587
576.786	0.287
585.715	0.316
594.643	0.695
603.572	0.889
612.5	0.944
621.429	0.956
630.358	0.907
639.286	0.951
648.215	0.949
657.143	0.963
666.072	0.979
675.001	0.965
683.929	0.91
692.858	0.578
701.786	0.217
710.715	0.663
719.644	0.845
728.572	0.903
737.501	0.949
746.429	0.976
755.358	0.994
764.287	0.998
773.215	0.995
782.144	1
791.072	1
800.001	0.987
808.93	0.926
817.858	0.8209
826.787	0.337
835.715	0.924
844.644	0.986
853.573	1.002
862.501	1.005
871.43	1.002
880.358	1.001
889.287	0.997
898.216	0.994
907.144	0.993
916.073	0.99
925.001	0.98
933.93	0.979
942.859	0.972
951.787	0.979
960.716	0.972
969.644	0.949
978.573	0.956
987.501	0.963
996.43	0.94
1005.36	0.5359
1014.29	0.845
1023.22	0.82
1032.14	0.3969
1041.07	0.188
1050	0.634
1058.93	0.838
1067.86	0.707
1076.79	0.916
1085.72	0.924
1094.64	0.891
1103.57	0.744
1112.5	0.506
1121.43	0.246
1130.36	0.1081
1139.29	0.379
1148.22	0.14
1157.14	0.107
1166.07	0.099
1175	0.354
1183.93	0.56
1192.86	0.552
1201.79	0.633
1210.72	0.562
1219.65	0.3499
1228.57	0.103
1237.5	0.258
1246.43	0.654
1255.36	0.841
1264.29	0.91
1273.22	0.933
1282.15	0.864
1291.07	0.8681
1300	0.94
1308.93	0.746
1317.86	0.935
1326.79	0.912
1335.72	0.82
1344.65	0.571
1353.57	0.741
1362.5	0.864
1371.43	0.878
1380.36	0.889
1389.29	0.88
1398.22	0.852
1407.15	0.792
1416.07	0.775
1425	0.761
1433.93	0.762
1442.86	0.753
1451.79	0.831
1460.72	0.884
1469.65	0.877
1478.57	0.878
1487.5	0.829
1496.43	0.857
1505.36	0.814
1514.29	0.649
1523.22	0.528
1532.15	0.775
1541.07	0.85
1550	0.842
1558.93	0.79
1567.86	0.675
1576.79	0.549
1585.72	0.574
1594.65	0.633
1603.57	0.4439
1612.5	0.4901
1621.43	0.853
1630.36	0.937
1639.29	0.96
1648.22	0.962
1657.15	0.98
1666.07	0.991
1675	0.993
1683.93	0.995
1692.86	0.991
1701.79	0.993
1710.72	0.997
1719.65	1
1728.58	0.997
1737.5	0.998
1746.43	0.998
1755.36	0.998
1764.29	0.998
1773.22	1
1782.15	0.998
1791.08	0.998
1800	1
1808.93	0.998
1817.86	0.998
1826.79	0.998
1835.72	1
1844.65	1
1853.58	0.998
1862.5	0.994
1871.43	0.995
1880.36	0.99
1889.29	0.987
1898.22	0.977
1907.15	0.965
1916.08	0.986
1925	0.984
1933.93	0.983
1942.86	0.979
1951.79	0.981
1960.72	0.98
1969.65	0.977
1978.58	0.977
1987.5	0.973
1996.43	0.958
2005.36	0.97
2014.29	0.97
2023.22	0.97
2032.15	0.9659
2041.08	0.966
2050	0.965
2058.93	0.9599
2067.86	0.952
2076.79	0.953
2085.72	0.952
2094.65	0.9508
2103.58	0.9468
2112.5	0.94
2121.43	0.9368
2130.36	0.9339
2139.29	0.933
2148.22	0.9298
2157.15	0.928
2166.08	0.9239
2175.01	0.9157
2183.93	0.9128
2192.86	0.9098
2201.79	0.909
2210.72	0.907
2219.65	0.9015
2228.58	0.8976
2237.51	0.891
2246.43	0.8866
2255.36	0.884
2264.29	0.8808
2273.22	0.88
2282.15	0.8778
2291.08	0.8765
2300.01	0.874
2308.93	0.868
2317.86	0.8715
2326.79	0.8733
2335.72	0.874
2344.65	0.878
2353.58	0.88
2362.51	0.878
2371.43	0.878
2380.36	0.8771
2389.29	0.8677
2398.22	0.8693
2407.15	0.864
2416.08	0.863
2425.01	0.863
2433.93	0.863
2442.86	0.8653
2451.79	0.8636
2460.72	0.861
2469.65	0.8606
2478.58	0.86
2487.51	0.86
2496.43	0.859
2505.36	0.859
2514.29	0.861
2523.22	0.8621
2532.15	0.86
2541.08	0.86
2550.01	0.857
2558.93	0.8565
2567.86	0.856
2576.79	0.854
2585.72	0.8525
2594.65	0.85
2603.58	0.849
2612.51	0.844
2621.44	0.841
2630.36	0.843
2639.29	0.843
2648.22	0.843
2657.15	0.843
2666.08	0.841
2675.01	0.835
2683.94	0.834
2692.86	0.831
2701.79	0.829
2710.72	0.8274
2719.65	0.8232
2728.58	0.8244
2737.51	0.822
2746.44	0.82
2755.36	0.8157
2764.29	0.814
2773.22	0.811
2782.15	0.8034
2791.08	0.798
2800.01	0.7923
2808.94	0.786
2817.86	0.779
2826.79	0.7659
2835.72	0.7698
2844.65	0.7813
2853.58	0.7673
2862.51	0.7687
2871.44	0.7618
2880.36	0.7496
2889.29	0.7465
2898.22	0.7275
2907.15	0.7155
2916.08	0.7368
2925.01	0.7304
2933.94	0.7089
2942.86	0.7312
2951.79	0.7504
2960.72	0.7564
2969.65	0.7616
2978.58	0.7576
2987.51	0.758
2996.44	0.757
3005.36	0.7567
3014.29	0.7675
3023.22	0.7711
3032.15	0.7681
3041.08	0.7671
3050.01	0.765
3058.94	0.762
3067.86	0.7504
3076.79	0.7471
3085.72	0.7549
3094.65	0.76
3103.58	0.7552
3112.51	0.76
3121.44	0.7571
3130.37	0.7579
3139.29	0.7531
3148.22	0.746
3157.15	0.7429
3166.08	0.743
3175.01	0.74
3183.94	0.735
3192.87	0.736
3201.79	0.73
3210.72	0.729
3219.65	0.726
3228.58	0.723
3237.51	0.719
3246.44	0.715
3255.37	0.708
3264.29	0.705
3273.22	0.6949
3282.15	0.6899
3291.08	0.6819
3300.01	0.6759
3308.94	0.6677
3317.87	0.6619
3326.79	0.656
3335.72	0.651
3344.65	0.6449
3353.58	0.642
3362.51	0.6397
3371.44	0.6299
3380.37	0.6145
3389.29	0.5537
3398.22	0.3678
3407.15	0.5031
3416.08	0.7375
3425.01	0.7484
3433.94	0.7476
3442.87	0.741
3451.79	0.739
3460.72	0.7358
3469.65	0.733
3478.58	0.729
3487.51	0.728
3496.44	0.726
3505.37	0.726
3514.29	0.726
3523.22	0.726
3532.15	0.726
3541.08	0.7266
3550.01	0.725
3558.94	0.725
3567.87	0.725
3576.8	0.728
3585.72	0.7244
3594.65	0.726
3603.58	0.726
3612.51	0.726
3621.44	0.7243
3630.37	0.723
3639.3	0.7239
3648.22	0.7214
3657.15	0.723
3666.08	0.722
3675.01	0.723
3683.94	0.7226
3692.87	0.7125
3701.8	0.7084
3710.72	0.716
3719.65	0.721
3728.58	0.7201
3737.51	0.718
3746.44	0.7185
3755.37	0.716
3764.3	0.715
3773.22	0.714
3782.15	0.713
3791.08	0.709
