Infrared Spectrum: PALLADIUM (II), BIS(ACETYLACETONATO)-
Formula: C10 H14 O4 Pd
State: SOLID (1 mg / 650 mg KBr DISC)
Class: COBLENTZ III
Instrument: PERKIN-ELMER 521 (GRATING)
Instrument parameters: GRATING FOR 2000, 620, FILTERS AT 3130, 2475, 2000, 1150, 700, 410 CM^-^1
Sampling: TRANSMISSION
Resolution: 4
Origin: SOUTHERN RESEARCH INSTITUTE
1/CM	TRANSMITTANCE
251.429	0.269
260.554	0.3156
269.679	0.4157
278.803	0.4798
287.928	0.5086
297.053	0.5523
306.178	0.6422
315.302	0.6696
324.427	0.6962
333.552	0.7192
342.677	0.7445
351.801	0.7707
360.926	0.7932
370.051	0.8131
379.176	0.8213
388.3	0.8347
397.425	0.8422
406.55	0.8518
415.675	0.855
424.799	0.8549
433.924	0.847
443.049	0.813
452.174	0.8217
461.298	0.6707
470.423	0.6618
479.548	0.8773
488.673	0.8887
497.797	0.888
506.922	0.889
516.047	0.89
525.172	0.886
534.296	0.8885
543.421	0.889
552.546	0.8906
561.671	0.89
570.795	0.891
579.92	0.894
589.045	0.897
598.17	0.898
607.294	0.898
616.419	0.895
625.544	0.898
634.669	0.897
643.793	0.893
652.918	0.8817
662.043	0.7898
671.168	0.811
680.292	0.7582
689.417	0.881
698.542	0.7388
707.667	0.911
716.791	0.919
725.916	0.9166
735.041	0.915
744.166	0.915
753.29	0.9094
762.415	0.8918
771.54	0.8028
780.665	0.675
789.789	0.8689
798.914	0.921
808.039	0.923
817.164	0.923
826.288	0.925
835.413	0.92
844.538	0.917
853.663	0.916
862.787	0.914
871.912	0.911
881.037	0.91
890.162	0.907
899.287	0.9015
908.411	0.8961
917.536	0.8734
926.661	0.8373
935.786	0.6537
944.91	0.8642
954.035	0.899
963.16	0.8948
972.285	0.8909
981.409	0.8769
990.534	0.8579
999.659	0.8371
1008.78	0.7799
1017.91	0.6474
1027.03	0.6944
1036.16	0.8133
1045.28	0.8629
1054.41	0.8757
1063.53	0.882
1072.66	0.8844
1081.78	0.884
1090.91	0.886
1100.03	0.8856
1109.16	0.8856
1118.28	0.8893
1127.41	0.8843
1136.53	0.8865
1145.65	0.8858
1154.78	0.88
1163.9	0.88
1173.03	0.877
1182.15	0.873
1191.28	0.8504
1200.4	0.8653
1209.53	0.881
1218.65	0.877
1227.78	0.872
1236.9	0.8673
1246.03	0.8554
1255.15	0.8354
1264.28	0.7846
1273.4	0.6279
1282.53	0.8416
1291.65	0.8456
1300.78	0.8333
1309.9	0.8078
1319.03	0.7895
1328.15	0.7622
1337.27	0.7168
1346.4	0.6414
1355.52	0.5501
1364.65	0.587
1373.77	0.5593
1382.9	0.4939
1392.02	0.436
1401.15	0.4604
1410.27	0.5169
1419.4	0.5649
1428.52	0.6053
1437.65	0.6626
1446.77	0.7216
1455.9	0.748
1465.02	0.74
1474.15	0.735
1483.27	0.722
1492.4	0.6668
1501.52	0.5692
1510.65	0.4088
1519.77	0.1825
1528.89	0.2125
1538.02	0.3178
1547.14	0.225
1556.27	0.346
1565.39	0.1807
1574.52	0.3197
1583.64	0.6225
1592.77	0.7506
1601.89	0.8201
1611.02	0.8501
1620.14	0.867
1629.27	0.8726
1638.39	0.8831
1647.52	0.9015
1656.64	0.9064
1665.77	0.9144
1674.89	0.9273
1684.02	0.9346
1693.14	0.945
1702.26	0.9492
1711.39	0.954
1720.51	0.957
1729.64	0.958
1738.76	0.96
1747.89	0.962
1757.01	0.962
1766.14	0.964
1775.26	0.964
1784.39	0.964
1793.51	0.964
1802.64	0.96
1811.76	0.96
1820.89	0.96
1830.01	0.96
1839.14	0.96
1848.26	0.9596
1857.39	0.958
1866.51	0.958
1875.64	0.96
1884.76	0.96
1893.88	0.96
1903.01	0.96
1912.13	0.959
1921.26	0.959
1930.38	0.959
1939.51	0.957
1948.63	0.955
1957.76	0.951
1966.88	0.951
1976.01	0.9532
1985.13	0.954
1994.26	0.9538
2003.38	0.9478
2012.51	0.945
2021.63	0.945
2030.76	0.944
2039.88	0.9444
2049.01	0.944
2058.13	0.942
2067.25	0.942
2076.38	0.944
2085.5	0.946
2094.63	0.945
2103.75	0.945
2112.88	0.941
2122	0.9416
2131.13	0.938
2140.25	0.941
2149.38	0.942
2158.5	0.942
2167.63	0.942
2176.75	0.942
2185.88	0.941
2195	0.941
2204.13	0.94
2213.25	0.94
2222.38	0.9388
2231.5	0.938
2240.63	0.938
2249.75	0.938
2258.87	0.937
2268	0.9348
2277.12	0.9334
2286.25	0.933
2295.37	0.933
2304.5	0.933
2313.62	0.933
2322.75	0.933
2331.87	0.933
2341	0.933
2350.12	0.9332
2359.25	0.93
2368.37	0.929
2377.5	0.928
2386.62	0.93
2395.75	0.9282
2404.87	0.9308
2414	0.9284
2423.12	0.9284
2432.25	0.9218
2441.37	0.9178
2450.49	0.915
2459.62	0.917
2468.74	0.9186
2477.87	0.9194
2486.99	0.919
2496.12	0.916
2505.24	0.916
2514.37	0.915
2523.49	0.916
2532.62	0.915
2541.74	0.915
2550.87	0.915
2559.99	0.914
2569.12	0.914
2578.24	0.912
2587.37	0.912
2596.49	0.912
2605.62	0.912
2614.74	0.912
2623.86	0.912
2632.99	0.914
2642.11	0.914
2651.24	0.914
2660.36	0.914
2669.49	0.914
2678.61	0.912
2687.74	0.912
2696.86	0.911
2705.99	0.911
2715.11	0.91
2724.24	0.908
2733.36	0.907
2742.49	0.908
2751.61	0.907
2760.74	0.906
2769.86	0.9034
2778.99	0.903
2788.11	0.903
2797.24	0.9002
2806.36	0.897
2815.48	0.895
2824.61	0.891
2833.73	0.8884
2842.86	0.8828
2851.98	0.878
2861.11	0.88
2870.23	0.88
2879.36	0.8754
2888.48	0.871
2897.61	0.8618
2906.73	0.8514
2915.86	0.8268
2924.98	0.8386
2934.11	0.8628
2943.23	0.865
2952.36	0.864
2961.48	0.867
2970.61	0.8726
2979.73	0.875
2988.86	0.8738
2997.98	0.867
3007.1	0.872
3016.23	0.877
3025.35	0.8774
3034.48	0.8792
3043.6	0.88
3052.73	0.877
3061.85	0.878
3070.98	0.8774
3080.1	0.878
3089.23	0.881
3098.35	0.88
3107.48	0.881
3116.6	0.8934
3125.73	0.8774
3134.85	0.8776
3143.98	0.88
3153.1	0.8804
3162.23	0.88
3171.35	0.876
3180.47	0.876
3189.6	0.875
3198.72	0.873
3207.85	0.871
3216.97	0.869
3226.1	0.867
3235.22	0.864
3244.35	0.861
3253.47	0.859
3262.6	0.856
3271.72	0.854
3280.85	0.852
3289.97	0.851
3299.1	0.85
3308.22	0.846
3317.35	0.841
3326.47	0.838
3335.6	0.8344
3344.72	0.8308
3353.85	0.825
3362.97	0.817
3372.09	0.8138
3381.22	0.811
3390.34	0.807
3399.47	0.8024
3408.59	0.7968
3417.72	0.796
3426.84	0.795
3435.97	0.7956
3445.09	0.796
3454.22	0.798
3463.34	0.799
3472.47	0.802
3481.59	0.802
3490.72	0.805
3499.84	0.805
3508.97	0.809
3518.09	0.8148
3527.22	0.82
3536.34	0.8246
3545.47	0.8286
3554.59	0.8346
3563.71	0.839
3572.84	0.843
3581.96	0.847
3591.09	0.85
3600.21	0.855
3609.34	0.859
3618.46	0.8642
3627.59	0.8686
3636.71	0.8716
3645.84	0.872
3654.96	0.872
3664.09	0.8726
3673.21	0.871
3682.34	0.871
3691.46	0.8756
3700.59	0.876
3709.71	0.8748
3718.84	0.876
3727.96	0.876
3737.08	0.876
3746.21	0.873
3755.33	0.873
3764.46	0.875
3773.58	0.873
3782.71	0.872
3791.83	0.872
3800.96	0.872
3810.08	0.8738
