Infrared Spectrum: 1,3-PROPANEDIAMINE, N-2-BROMOPROPYL-, DIHYDROBROMIDE
Formula: C6 H17 Br3 N2
State: SOLID (1 mg / 650 mg KBr DISC)
Class: COBLENTZ III
Instrument: PERKIN-ELMER 521 (GRATING)
Sampling: TRANSMISSION
Resolution: 4
Origin: SOUTHERN RESEARCH INSTITUTE
1/CM	TRANSMITTANCE
262.95	0.452
273.486	0.5019
284.021	0.527
294.557	0.5599
305.092	0.669
315.628	0.698
326.164	0.707
336.699	0.743
347.235	0.771
357.771	0.796
368.306	0.81
378.842	0.817
389.377	0.814
399.913	0.83
410.449	0.842
420.984	0.835
431.52	0.852
442.055	0.859
452.591	0.867
463.127	0.871
473.662	0.875
484.198	0.864
494.734	0.871
505.269	0.882
515.805	0.882
526.34	0.877
536.876	0.869
547.412	0.831
557.947	0.839
568.483	0.885
579.018	0.886
589.554	0.884
600.09	0.882
610.625	0.882
621.161	0.884
631.697	0.877
642.232	0.865
652.768	0.903
663.303	0.917
673.839	0.919
684.375	0.926
694.91	0.93
705.446	0.932
715.982	0.928
726.517	0.917
737.053	0.892
747.588	0.867
758.124	0.798
768.66	0.894
779.195	0.917
789.731	0.897
800.266	0.886
810.802	0.885
821.338	0.898
831.873	0.9
842.409	0.89
852.945	0.853
863.48	0.857
874.016	0.881
884.551	0.853
895.087	0.86
905.623	0.873
916.158	0.859
926.694	0.846
937.229	0.813
947.765	0.872
958.301	0.893
968.836	0.884
979.372	0.81
989.908	0.8
1000.44	0.798
1010.98	0.821
1021.51	0.803
1032.05	0.786
1042.59	0.884
1053.12	0.864
1063.66	0.89
1074.19	0.89
1084.73	0.867
1095.26	0.868
1105.8	0.867
1116.33	0.853
1126.87	0.865
1137.41	0.81
1147.94	0.83
1158.48	0.83
1169.01	0.869
1179.55	0.88
1190.08	0.867
1200.62	0.835
1211.16	0.8061
1221.69	0.856
1232.23	0.813
1242.76	0.698
1253.3	0.853
1263.83	0.855
1274.37	0.814
1284.9	0.742
1295.44	0.84
1305.98	0.848
1316.51	0.844
1327.05	0.835
1337.58	0.815
1348.12	0.802
1358.65	0.798
1369.19	0.818
1379.73	0.76
1390.26	0.714
1400.8	0.7
1411.33	0.705
1421.87	0.751
1432.4	0.651
1442.94	0.55
1453.47	0.597
1464.01	0.706
1474.55	0.7091
1485.08	0.765
1495.62	0.702
1506.15	0.497
1516.69	0.747
1527.22	0.788
1537.76	0.769
1548.3	0.728
1558.83	0.68
1569.37	0.623
1579.9	0.552
1590.44	0.621
1600.97	0.756
1611.51	0.794
1622.04	0.796
1632.58	0.802
1643.12	0.835
1653.65	0.869
1664.19	0.888
1674.72	0.896
1685.26	0.896
1695.79	0.898
1706.33	0.909
1716.87	0.915
1727.4	0.915
1737.94	0.915
1748.47	0.915
1759.01	0.914
1769.54	0.909
1780.08	0.903
1790.61	0.9
1801.15	0.893
1811.69	0.889
1822.22	0.888
1832.76	0.89
1843.29	0.901
1853.83	0.902
1864.36	0.897
1874.9	0.893
1885.43	0.89
1895.97	0.888
1906.51	0.882
1917.04	0.877
1927.58	0.873
1938.11	0.868
1948.65	0.864
1959.18	0.864
1969.72	0.864
1980.26	0.865
1990.79	0.871
2001.33	0.877
2011.86	0.881
2022.4	0.8859
2032.93	0.8918
2043.47	0.8939
2054	0.894
2064.54	0.894
2075.08	0.893
2085.61	0.893
2096.15	0.893
2106.68	0.894
2117.22	0.894
2127.75	0.8933
2138.29	0.893
2148.83	0.892
2159.36	0.892
2169.9	0.892
2180.43	0.893
2190.97	0.892
2201.5	0.889
2212.04	0.8856
2222.57	0.884
2233.11	0.881
2243.65	0.881
2254.18	0.8767
2264.72	0.873
2275.25	0.865
2285.79	0.861
2296.32	0.855
2306.86	0.842
2317.4	0.8348
2327.93	0.8227
2338.47	0.8099
2349	0.7934
2359.54	0.772
2370.07	0.7589
2380.61	0.7301
2391.14	0.7
2401.68	0.7185
2412.22	0.7626
2422.75	0.767
2433.29	0.7502
2443.82	0.7416
2454.36	0.756
2464.89	0.759
2475.43	0.741
2485.97	0.7173
2496.5	0.6879
2507.04	0.6473
2517.57	0.6476
2528.11	0.6688
2538.64	0.686
2549.18	0.6845
2559.71	0.678
2570.25	0.6755
2580.79	0.6601
2591.32	0.6451
2601.86	0.638
2612.39	0.631
2622.93	0.623
2633.46	0.6124
2644	0.584
2654.53	0.55
2665.07	0.5388
2675.61	0.5054
2686.14	0.4641
2696.68	0.4527
2707.21	0.4273
2717.75	0.3885
2728.28	0.3769
2738.82	0.3679
2749.36	0.346
2759.89	0.325
2770.43	0.318
2780.96	0.3229
2791.5	0.3349
2802.03	0.342
2812.57	0.3518
2823.1	0.3586
2833.64	0.3686
2844.18	0.373
2854.71	0.3683
2865.25	0.3439
2875.78	0.3177
2886.32	0.2834
2896.85	0.2524
2907.39	0.2214
2917.93	0.2014
2928.46	0.1989
2939	0.1975
2949.53	0.2034
2960.07	0.2123
2970.6	0.2184
2981.14	0.228
2991.67	0.2331
3002.21	0.2573
3012.75	0.2723
3023.28	0.2773
3033.82	0.293
3044.35	0.3272
3054.89	0.3648
3065.42	0.397
3075.96	0.4251
3086.5	0.4421
3097.03	0.4532
3107.57	0.4681
3118.1	0.4841
3128.64	0.509
3139.17	0.543
3149.71	0.5689
3160.24	0.5978
3170.78	0.623
3181.32	0.6386
3191.85	0.6457
3202.39	0.6624
3212.92	0.6966
3223.46	0.7342
3233.99	0.7607
3244.53	0.7847
3255.07	0.7977
3265.6	0.8056
3276.14	0.8146
3286.67	0.815
3297.21	0.815
3307.74	0.8055
3318.28	0.7975
3328.81	0.7826
3339.35	0.7681
3349.89	0.7466
3360.42	0.7222
3370.96	0.7042
3381.49	0.679
3392.03	0.6581
3402.56	0.647
3413.1	0.6398
3423.63	0.6358
3434.17	0.6364
3444.71	0.6422
3455.24	0.6483
3465.78	0.6551
3476.31	0.6631
3486.85	0.671
3497.38	0.681
3507.92	0.692
3518.46	0.706
3528.99	0.7179
3539.53	0.7389
3550.06	0.7529
3560.6	0.7727
3571.13	0.7916
3581.67	0.8094
3592.2	0.8315
3602.74	0.8467
3613.28	0.8644
3623.81	0.8817
3634.35	0.893
3644.88	0.898
3655.42	0.901
3665.95	0.8989
3676.49	0.901
3687.03	0.912
3697.56	0.917
3708.1	0.918
3718.63	0.918
3729.17	0.917
3739.7	0.9146
3750.24	0.918
3760.77	0.9177
3771.31	0.918
3781.85	0.917
3792.38	0.915
3802.92	0.915
3813.45	0.914
3823.99	0.9139
3834.52	0.91
3845.06	0.9069
3855.6	0.9061
3866.13	0.907
3876.67	0.906
3887.2	0.906
3897.74	0.905
3908.27	0.905
3918.81	0.905
3929.34	0.906
3939.88	0.903
3950.42	0.903
3960.95	0.902
3971.49	0.9035
3982.02	0.903
3992.56	0.906
