Infrared Spectrum: 2,7-NAPHTHALENEDISULFONIC ACID, 4-HYDROXY-5(SALICYLIDENEAMINO)-, MONOSODIUM SALT, HYDRATE
Formula: C17 H12 N O8 S2 Na  * H2 O
State: SOLID (SPLIT MULL, FLUOROLUBE FOR 3800-1333 AND NUJOL FOR 1333-400 CM ^-^1)
Class: COBLENTZ III
Instrument: DOW KBr FOREPRISM-GRATING
Instrument parameters: BLAZED AT 3.5, 12.0, 20.0 MICRON, CHANGED AT 5.0, 7.5, 14.9 MICRON
Sampling: TRANSMISSION
Resolution: 4
Origin: DOW CHEMICAL COMPANY
1/CM	TRANSMITTANCE
383.939	1.004
392.732	1.006
401.524	1.006
410.317	1.004
419.109	1.001
427.902	1
436.694	0.994
445.487	0.976
454.279	0.932
463.072	0.931
471.864	0.932
480.657	0.891
489.449	0.961
498.242	0.946
507.034	0.875
515.827	0.935
524.619	0.93
533.412	0.865
542.204	0.843
550.997	0.894
559.789	0.878
568.582	0.839
577.374	0.786
586.167	0.4761
594.959	0.832
603.752	0.897
612.544	0.852
621.337	0.5011
630.129	0.852
638.922	0.889
647.714	0.852
656.507	0.6189
665.299	0.647
674.092	0.5009
682.884	0.267
691.677	0.798
700.469	0.913
709.262	0.917
718.054	0.898
726.847	0.883
735.639	0.887
744.432	0.935
753.224	0.934
762.017	0.882
770.809	0.517
779.602	0.8341
788.394	0.965
797.187	0.942
805.979	0.98
814.772	0.98
823.564	0.979
832.357	0.973
841.149	0.943
849.942	0.908
858.734	0.857
867.527	0.832
876.319	0.956
885.112	0.942
893.904	0.88
902.697	0.897
911.489	0.871
920.282	0.8099
929.074	0.793
937.867	0.901
946.659	0.924
955.452	0.924
964.244	0.89
973.037	0.931
981.829	0.932
990.622	0.92
999.414	0.887
1008.21	0.891
1017	0.852
1025.79	0.72
1034.58	0.602
1043.38	0.371
1052.17	0.067
1060.96	0.332
1069.75	0.558
1078.55	0.7971
1087.34	0.89
1096.13	0.884
1104.92	0.843
1113.72	0.693
1122.51	0.663
1131.3	0.709
1140.09	0.345
1148.89	0.483
1157.68	0.456
1166.47	0.39
1175.26	0.415
1184.06	0.1829
1192.85	0.189
1201.64	0.383
1210.43	0.476
1219.23	0.431
1228.02	0.478
1236.81	0.3229
1245.6	0.3051
1254.4	0.372
1263.19	0.417
1271.98	0.213
1280.77	0.5161
1289.57	0.605
1298.36	0.6421
1307.15	0.78
1315.94	0.772
1324.74	0.824
1333.53	0.8059
1342.32	0.568
1351.11	0.568
1359.91	0.578
1368.7	0.568
1377.49	0.415
1386.28	0.458
1395.08	0.6121
1403.87	0.7691
1412.66	0.813
1421.45	0.706
1430.25	0.805
1439.04	0.719
1447.83	0.758
1456.62	0.776
1465.42	0.727
1474.21	0.83
1483	0.857
1491.79	0.827
1500.59	0.776
1509.38	0.836
1518.17	0.791
1526.96	0.789
1535.76	0.78
1544.55	0.742
1553.34	0.657
1562.13	0.5039
1570.93	0.191
1579.72	0.4471
1588.51	0.479
1597.3	0.3931
1606.1	0.1281
1614.89	0.673
1623.68	0.66
1632.47	0.5129
1641.27	0.2421
1650.06	0.6722
1658.85	0.88
1667.64	0.92
1676.44	0.936
1685.23	0.936
1694.02	0.924
1702.81	0.924
1711.61	0.928
1720.4	0.92
1729.19	0.912
1737.98	0.913
1746.78	0.916
1755.57	0.912
1764.36	0.905
1773.16	0.904
1781.95	0.9
1790.74	0.898
1799.53	0.893
1808.33	0.887
1817.12	0.876
1825.91	0.89
1834.7	0.886
1843.5	0.879
1852.29	0.875
1861.08	0.875
1869.87	0.875
1878.67	0.873
1887.46	0.871
1896.25	0.869
1905.04	0.872
1913.84	0.867
1922.63	0.864
1931.42	0.861
1940.21	0.858
1949.01	0.853
1957.8	0.847
1966.59	0.838
1975.38	0.836
1984.18	0.841
1992.97	0.845
2001.76	0.846
2010.55	0.843
2019.35	0.839
2028.14	0.836
2036.93	0.832
2045.72	0.83
2054.52	0.821
2063.31	0.813
2072.1	0.81
2080.89	0.8049
2089.69	0.798
2098.48	0.794
2107.27	0.791
2116.06	0.787
2124.86	0.7859
2133.65	0.7819
2142.44	0.779
2151.23	0.7759
2160.03	0.7678
2168.82	0.761
2177.61	0.7529
2186.4	0.7459
2195.2	0.742
2203.99	0.7378
2212.78	0.7296
2221.57	0.7199
2230.37	0.7099
2239.16	0.7009
2247.95	0.6949
2256.74	0.687
2265.54	0.6829
2274.33	0.6789
2283.12	0.6707
2291.91	0.6639
2300.71	0.661
2309.5	0.66
2318.29	0.6385
2327.08	0.632
2335.88	0.6318
2344.67	0.631
2353.46	0.6296
2362.25	0.63
2371.05	0.63
2379.84	0.628
2388.63	0.6238
2397.42	0.6198
2406.22	0.616
2415.01	0.6128
2423.8	0.6076
2432.59	0.604
2441.39	0.602
2450.18	0.5963
2458.97	0.5898
2467.76	0.5835
2476.56	0.578
2485.35	0.575
2494.14	0.5678
2502.93	0.5575
2511.73	0.55
2520.52	0.5442
2529.31	0.5335
2538.1	0.5267
2546.9	0.519
2555.69	0.515
2564.48	0.517
2573.27	0.5246
2582.07	0.5286
2590.86	0.528
2599.65	0.5254
2608.44	0.5184
2617.24	0.509
2626.03	0.5034
2634.82	0.4964
2643.61	0.482
2652.41	0.474
2661.2	0.468
2669.99	0.469
2678.78	0.4737
2687.58	0.473
2696.37	0.469
2705.16	0.465
2713.95	0.464
2722.75	0.464
2731.54	0.464
2740.33	0.461
2749.12	0.4566
2757.92	0.4496
2766.71	0.443
2775.5	0.4346
2784.29	0.4266
2793.09	0.419
2801.88	0.416
2810.67	0.4118
2819.46	0.408
2828.26	0.402
2837.05	0.3945
2845.84	0.3831
2854.63	0.3742
2863.43	0.3646
2872.22	0.36
2881.01	0.3517
2889.8	0.3416
2898.6	0.3315
2907.39	0.327
2916.18	0.3172
2924.97	0.306
2933.77	0.308
2942.56	0.3109
2951.35	0.3155
2960.14	0.317
2968.94	0.323
2977.73	0.326
2986.52	0.328
2995.31	0.328
3004.11	0.3315
3012.9	0.332
3021.69	0.331
3030.48	0.3245
3039.28	0.2919
3048.07	0.2715
3056.86	0.2776
3065.65	0.2881
3074.45	0.3076
3083.24	0.3201
3092.03	0.3371
3100.82	0.3461
3109.62	0.3536
3118.41	0.358
3127.2	0.3646
3135.99	0.3701
3144.79	0.373
3153.58	0.379
3162.37	0.3826
3171.16	0.3906
3179.96	0.3962
3188.75	0.4006
3197.54	0.4046
3206.33	0.408
3215.13	0.409
3223.92	0.409
3232.71	0.4084
3241.5	0.406
3250.3	0.4044
3259.09	0.4004
3267.88	0.4
3276.67	0.395
3285.47	0.393
3294.26	0.387
3303.05	0.3793
3311.84	0.375
3320.64	0.3677
3329.43	0.361
3338.22	0.3533
3347.01	0.3457
3355.81	0.3383
3364.6	0.3343
3373.39	0.3357
3382.18	0.338
3390.98	0.338
3399.77	0.339
3408.56	0.3366
3417.35	0.335
3426.15	0.3326
3434.94	0.332
3443.73	0.334
3452.52	0.3347
3461.32	0.336
3470.11	0.339
3478.9	0.3445
3487.69	0.3515
3496.49	0.3578
3505.28	0.3713
3514.07	0.386
3522.86	0.3995
3531.66	0.4118
3540.45	0.4233
3549.24	0.4358
3558.03	0.4486
3566.83	0.4619
3575.62	0.473
3584.41	0.4884
3593.2	0.4948
3602	0.5018
3610.79	0.5098
3619.58	0.5158
3628.37	0.5208
3637.17	0.523
3645.96	0.526
3654.75	0.5262
3663.54	0.5232
3672.34	0.5202
3681.13	0.5162
3689.92	0.513
3698.71	0.512
3707.51	0.505
3716.3	0.502
3725.09	0.5
3733.88	0.497
3742.68	0.494
3751.47	0.491
3760.26	0.489
3769.05	0.4842
3777.85	0.482
3786.64	0.479
3795.43	0.478
