Infrared Spectrum: TOXAPHENE
Formula: C10 H10 Cl8
State: SOLUTION (10% IN CCl4 FOR 3800-1330, 10% IN CS2 FOR 1330-450 CM^-^1)
Class: COBLENTZ
Instrument: DOW KBr FOREPRISM-GRATING
Instrument parameters: BLAZED AT 3.5, 12.0, 20.0 MICRON, CHANGED AT 5.0, 7.5, 14.9 MICRON
Sampling: TRANSMISSION
Path length: 0.011, 0.011 CM
Resolution: 4
Origin: DOW CHEMICAL COMPANY
1/CM	TRANSMITTANCE
453.218	0.869
462.508	0.896
471.798	0.908
481.088	0.931
490.378	0.945
499.668	0.954
508.958	0.954
518.248	0.966
527.538	0.955
536.828	0.932
546.118	0.943
555.408	0.941
564.698	0.969
573.988	0.988
583.278	0.988
592.568	0.987
601.858	1.002
611.148	0.998
620.438	0.988
629.728	0.971
639.018	0.948
648.308	0.902
657.598	0.897
666.888	0.929
676.178	0.931
685.468	0.905
694.758	0.844
704.048	0.833
713.338	0.8
722.628	0.795
731.918	0.722
741.208	0.629
750.498	0.547
759.788	0.502
769.078	0.479
778.368	0.525
787.658	0.525
796.948	0.505
806.238	0.586
815.528	0.676
824.818	0.755
834.108	0.741
843.398	0.663
852.688	0.584
861.978	0.56
871.268	0.6
880.558	0.658
889.848	0.682
899.138	0.748
908.428	0.797
917.718	0.771
927.008	0.794
936.298	0.804
945.588	0.762
954.878	0.777
964.168	0.813
973.458	0.872
982.748	0.895
992.038	0.902
1001.33	0.897
1010.62	0.923
1019.91	0.938
1029.2	0.936
1038.49	0.945
1047.78	0.939
1057.07	0.932
1066.36	0.935
1075.65	0.939
1084.94	0.956
1094.23	0.954
1103.52	0.977
1112.81	0.984
1122.1	0.994
1131.39	0.981
1140.68	0.972
1149.97	0.977
1159.26	0.956
1168.55	0.959
1177.84	0.961
1187.13	0.959
1196.42	0.948
1205.71	0.916
1215	0.87
1224.29	0.859
1233.58	0.889
1242.87	0.89
1252.16	0.885
1261.45	0.877
1270.74	0.844
1280.03	0.81
1289.32	0.729
1298.61	0.689
1307.9	0.728
1317.19	0.807
1326.48	0.916
1335.77	0.951
1345.06	0.968
1354.35	0.978
1363.64	0.978
1372.93	0.977
1382.22	0.966
1391.51	0.931
1400.8	0.949
1410.09	0.969
1419.38	0.961
1428.67	0.915
1437.96	0.798
1447.25	0.76
1456.54	0.721
1465.83	0.767
1475.12	0.816
1484.41	0.876
1493.7	0.879
1502.99	0.839
1512.28	0.783
1521.57	0.728
1530.86	0.675
1540.15	0.548
1549.44	0.501
1558.73	0.586
1568.02	0.658
1577.31	0.701
1586.6	0.727
1595.89	0.813
1605.18	0.892
1614.47	0.938
1623.76	0.956
1633.05	0.965
1642.34	0.982
1651.63	0.992
1660.92	0.994
1670.21	0.997
1679.5	1.001
1688.79	0.998
1698.08	0.998
1707.37	0.997
1716.66	0.998
1725.95	0.995
1735.24	0.997
1744.53	0.998
1753.82	0.998
1763.11	0.998
1772.4	1.001
1781.69	1.001
1790.98	1.001
1800.27	1.001
1809.56	0.998
1818.85	0.997
1828.14	1.001
1837.43	0.998
1846.72	0.998
1856.01	0.998
1865.3	1
1874.59	1.001
1883.88	1.001
1893.17	1
1902.46	1
1911.75	1.001
1921.04	1.002
1930.33	1.004
1939.62	1.004
1948.91	1.002
1958.2	1
1967.49	1.001
1976.78	1
1986.07	0.998
1995.36	0.998
2004.65	0.999
2013.94	1
2023.23	1.0015
2032.52	1.003
2041.81	1.0045
2051.1	1.005
2060.39	1.004
2069.68	1.004
2078.97	1.005
2088.26	1.005
2097.55	1.005
2106.84	1.005
2116.13	1.004
2125.42	1.004
2134.71	1.002
2144	1.002
2153.29	1.001
2162.58	1.001
2171.87	1.001
2181.16	1.001
2190.45	1.001
2199.74	1.001
2209.03	1.002
2218.32	1.001
2227.61	1.0005
2236.9	0.999
2246.19	0.9959
2255.48	0.993
2264.77	0.988
2274.06	0.9829
2283.35	0.979
2292.64	0.977
2301.93	0.9745
2311.22	0.975
2320.51	0.9775
2329.8	0.979
2339.09	0.982
2348.38	0.985
2357.67	0.988
2366.96	0.989
2376.25	0.992
2385.54	0.995
2394.83	0.997
2404.12	0.997
2413.41	0.997
2422.7	0.997
2431.99	0.9991
2441.28	1
2450.57	1
2459.86	0.998
2469.15	0.997
2478.44	0.997
2487.73	0.997
2497.02	0.995
2506.31	0.995
2515.6	0.994
2524.89	0.994
2534.18	0.994
2543.47	0.994
2552.76	0.994
2562.05	0.992
2571.34	0.9931
2580.63	0.994
2589.92	0.994
2599.21	0.994
2608.5	0.995
2617.79	0.995
2627.08	0.997
2636.37	0.997
2645.66	0.998
2654.95	0.998
2664.24	0.998
2673.53	0.998
2682.82	0.998
2692.11	0.998
2701.4	0.998
2710.69	0.998
2719.98	0.998
2729.27	0.997
2738.56	0.995
2747.85	0.997
2757.14	0.998
2766.43	0.998
2775.72	0.998
2785.01	1
2794.3	1
2803.59	1
2812.88	1
2822.17	0.9988
2831.46	0.9974
2840.75	0.995
2850.04	0.992
2859.33	0.989
2868.62	0.989
2877.91	0.988
2887.2	0.985
2896.49	0.984
2905.78	0.981
2915.07	0.9774
2924.36	0.975
2933.65	0.975
2942.94	0.977
2952.23	0.9722
2961.52	0.9572
2970.81	0.9352
2980.1	0.9138
2989.39	0.8981
2998.68	0.8878
3007.97	0.9019
3017.26	0.9126
3026.55	0.9212
3035.84	0.9316
3045.13	0.9461
3054.42	0.952
3063.71	0.9546
3073	0.956
3082.29	0.959
3091.58	0.9669
3100.87	0.9786
3110.16	0.9883
3119.45	0.9946
3128.74	0.998
3138.03	1
3147.32	1.001
3156.61	1.0033
3165.9	1.004
3175.19	1.004
3184.48	1.0063
3193.77	1.008
3203.06	1.007
3212.35	1.008
3221.64	1.011
3230.93	1.014
3240.22	1.0127
3249.51	1.0133
3258.8	1.015
3268.09	1.0176
3277.38	1.02
3286.67	1.02
3295.96	1.02
3305.25	1.02
3314.54	1.02
3323.83	1.02
3333.12	1.02
3342.41	1.021
3351.7	1.021
3360.99	1.021
3370.28	1.021
3379.57	1.021
3388.86	1.021
3398.15	1.02
3407.44	1.02
3416.73	1.02
3426.02	1.02
3435.31	1.0187
3444.6	1.018
3453.89	1.018
3463.18	1.017
3472.47	1.017
3481.76	1.015
3491.05	1.0126
3500.34	1.012
3509.63	1.014
3518.92	1.014
3528.21	1.015
3537.5	1.014
3546.79	1.012
3556.08	1.012
3565.37	1.011
3574.66	1.0103
3583.95	1.008
3593.24	1.007
3602.53	1.005
3611.82	1.004
3621.11	1.004
3630.4	1.0026
3639.69	1.002
3648.98	1.002
3658.27	1.002
3667.56	1.002
3676.85	1.002
3686.14	1.002
3695.43	1.002
3704.72	1.002
3714.01	1.002
3723.3	1.002
3732.59	1.002
3741.88	1.002
3751.17	1.002
3760.46	1.002
3769.75	1.002
3779.04	1.002
3788.33	1.002
3797.62	1.004
