Infrared Spectrum: IMIDAZOLE, 5-AMINO-4-PYRROLIDINYLCARBONYL-
Formula: C8 H12 N4 O
State: SOLID (1 mg / 650 mg KBr DISC)
Class: COBLENTZ III
Instrument: PERKIN-ELMER 221 (GRATING)
Instrument parameters: GRATING FOR 4000-1428, FILTERS AT 2490, 980, NaCl PRISM FOR 1428-650 CM^-^1
Sampling: TRANSMISSION
Resolution: 4
Origin: SOUTHERN RESEARCH INSTITUTE
1/CM	TRANSMITTANCE
658.122	0.534
667.341	0.535
676.56	0.535
685.78	0.5386
694.999	0.543
704.218	0.555
713.437	0.5457
722.656	0.4937
731.875	0.464
741.095	0.461
750.314	0.5255
759.533	0.5118
768.752	0.3341
777.971	0.4147
787.191	0.48
796.41	0.478
805.629	0.4665
814.848	0.4542
824.067	0.4429
833.286	0.4279
842.506	0.427
851.725	0.44
860.944	0.4879
870.163	0.4979
879.382	0.5464
888.602	0.5366
897.821	0.3934
907.04	0.5857
916.259	0.5448
925.478	0.4596
934.698	0.4675
943.917	0.4456
953.136	0.6038
962.355	0.7327
971.574	0.6944
980.793	0.7162
990.013	0.755
999.232	0.751
1008.45	0.7398
1017.67	0.7135
1026.89	0.6795
1036.11	0.6631
1045.33	0.672
1054.55	0.66
1063.77	0.659
1072.99	0.6601
1082.2	0.6553
1091.42	0.6404
1100.64	0.6223
1109.86	0.5723
1119.08	0.6006
1128.3	0.601
1137.52	0.5874
1146.74	0.5266
1155.96	0.4402
1165.18	0.4834
1174.4	0.4972
1183.62	0.4236
1192.83	0.5303
1202.05	0.6404
1211.27	0.626
1220.49	0.5548
1229.71	0.6111
1238.93	0.5647
1248.15	0.5221
1257.37	0.5059
1266.59	0.5543
1275.81	0.6002
1285.03	0.5625
1294.25	0.562
1303.46	0.5619
1312.68	0.5237
1321.9	0.4452
1331.12	0.3574
1340.34	0.4201
1349.56	0.4605
1358.78	0.405
1368	0.3976
1377.22	0.3778
1386.44	0.3419
1395.66	0.331
1404.88	0.3181
1414.1	0.2466
1423.31	0.1528
1432.53	0.1281
1441.75	0.151
1450.97	0.0924
1460.19	0.0918
1469.41	0.0642
1478.63	0.0737
1487.85	0.1897
1497.07	0.1639
1506.29	0.0918
1515.51	0.0742
1524.73	0.0846
1533.94	0.1127
1543.16	0.2299
1552.38	0.3472
1561.6	0.3838
1570.82	0.2876
1580.04	0.1686
1589.26	0.1182
1598.48	0.0809
1607.7	0.0609
1616.92	0.0632
1626.14	0.0861
1635.36	0.2337
1644.57	0.3424
1653.79	0.4537
1663.01	0.5289
1672.23	0.5884
1681.45	0.6303
1690.67	0.6588
1699.89	0.7013
1709.11	0.7429
1718.33	0.7684
1727.55	0.8055
1736.77	0.8244
1745.99	0.8389
1755.2	0.8504
1764.42	0.8563
1773.64	0.8643
1782.86	0.868
1792.08	0.872
1801.3	0.8897
1810.52	0.9131
1819.74	0.918
1828.96	0.918
1838.18	0.918
1847.4	0.919
1856.62	0.922
1865.84	0.922
1875.05	0.9195
1884.27	0.919
1893.49	0.919
1902.71	0.922
1911.93	0.923
1921.15	0.9225
1930.37	0.919
1939.59	0.9201
1948.81	0.9186
1958.03	0.917
1967.25	0.9147
1976.47	0.9155
1985.68	0.914
1994.9	0.9153
2004.12	0.9139
2013.34	0.911
2022.56	0.91
2031.78	0.9059
2041	0.8997
2050.22	0.897
2059.44	0.894
2068.66	0.892
2077.88	0.892
2087.1	0.8889
2096.31	0.885
2105.53	0.884
2114.75	0.881
2123.97	0.877
2133.19	0.876
2142.41	0.876
2151.63	0.875
2160.85	0.8747
2170.07	0.871
2179.29	0.8707
2188.51	0.8679
2197.73	0.8639
2206.94	0.861
2216.16	0.8609
2225.38	0.853
2234.6	0.8529
2243.82	0.85
2253.04	0.851
2262.26	0.85
2271.48	0.846
2280.7	0.844
2289.92	0.8429
2299.14	0.84
2308.36	0.8345
2317.58	0.8179
2326.79	0.81
2336.01	0.8059
2345.23	0.8029
2354.45	0.8019
2363.67	0.7971
2372.89	0.8051
2382.11	0.807
2391.33	0.8069
2400.55	0.806
2409.77	0.805
2418.99	0.802
2428.21	0.7957
2437.42	0.79
2446.64	0.7857
2455.86	0.7747
2465.08	0.7689
2474.3	0.763
2483.52	0.756
2492.74	0.7377
2501.96	0.7247
2511.18	0.7189
2520.4	0.715
2529.62	0.715
2538.84	0.7139
2548.05	0.711
2557.27	0.709
2566.49	0.7059
2575.71	0.696
2584.93	0.692
2594.15	0.688
2603.37	0.6809
2612.59	0.6747
2621.81	0.6567
2631.03	0.6417
2640.25	0.6309
2649.47	0.625
2658.68	0.6219
2667.9	0.621
2677.12	0.6167
2686.34	0.6099
2695.56	0.5969
2704.78	0.5705
2714	0.5527
2723.22	0.5315
2732.44	0.5099
2741.66	0.5027
2750.88	0.4877
2760.1	0.4649
2769.32	0.46
2778.53	0.4685
2787.75	0.4825
2796.97	0.489
2806.19	0.486
2815.41	0.4849
2824.63	0.4705
2833.85	0.4457
2843.07	0.4216
2852.29	0.3919
2861.51	0.338
2870.73	0.275
2879.95	0.2784
2889.16	0.3141
2898.38	0.3486
2907.6	0.3587
2916.82	0.3465
2926.04	0.3245
2935.26	0.3149
2944.48	0.2952
2953.7	0.2625
2962.92	0.2466
2972.14	0.2431
2981.36	0.2843
2990.58	0.3216
2999.79	0.3591
3009.01	0.363
3018.23	0.3596
3027.45	0.3519
3036.67	0.3417
3045.89	0.3297
3055.11	0.3179
3064.33	0.31
3073.55	0.307
3082.77	0.306
3091.99	0.3019
3101.21	0.2929
3110.42	0.288
3119.64	0.288
3128.86	0.288
3138.08	0.286
3147.3	0.289
3156.52	0.289
3165.74	0.29
3174.96	0.293
3184.18	0.296
3193.4	0.297
3202.62	0.297
3211.84	0.3
3221.06	0.3
3230.27	0.296
3239.49	0.2899
3248.71	0.286
3257.93	0.286
3267.15	0.288
3276.37	0.293
3285.59	0.301
3294.81	0.3173
3304.03	0.3315
3313.25	0.3525
3322.47	0.3766
3331.69	0.4003
3340.9	0.407
3350.12	0.4019
3359.34	0.403
3368.56	0.4153
3377.78	0.422
3387	0.4127
3396.22	0.3966
3405.44	0.3706
3414.66	0.3631
3423.88	0.3775
3433.1	0.407
3442.32	0.4516
3451.53	0.4856
3460.75	0.5254
3469.97	0.5462
3479.19	0.6138
3488.41	0.6574
3497.63	0.6921
3506.85	0.7141
3516.07	0.721
3525.29	0.7311
3534.51	0.744
3543.73	0.7503
3552.95	0.7641
3562.16	0.7735
3571.38	0.7854
3580.6	0.8
3589.82	0.8091
3599.04	0.8171
3608.26	0.8263
3617.48	0.8354
3626.7	0.851
3635.92	0.8551
3645.14	0.859
3654.36	0.859
3663.58	0.859
3672.8	0.855
3682.01	0.852
3691.23	0.857
3700.45	0.859
3709.67	0.859
3718.89	0.856
3728.11	0.8529
3737.33	0.85
3746.55	0.848
3755.77	0.8471
3764.99	0.852
3774.21	0.85
3783.43	0.847
3792.64	0.847
3801.86	0.844
3811.08	0.8359
3820.3	0.8309
3829.52	0.828
3838.74	0.83
3847.96	0.8279
3857.18	0.828
3866.4	0.83
3875.62	0.83
3884.84	0.828
3894.06	0.828
3903.27	0.828
3912.49	0.8283
3921.71	0.828
3930.93	0.828
3940.15	0.827
3949.37	0.827
3958.59	0.8283
3967.81	0.827
3977.03	0.8283
3986.25	0.828
3995.47	0.828
4004.69	0.8269
4013.9	0.8269
