Infrared Spectrum: FORMIC ACID, SODIUM SALT
Formula: C H O2 Na
State: SOLID (SPLIT MULL, FLUOROLUBE FOR 3800-1330 AND NUJOL FOR 1330-400 CM ^-^1)
Class: COBLENTZ III
Instrument: BECKMAN IR-9 (GRATING)
Instrument parameters: ORDER CHANGES AT 670, 1200, 2000 CM^-^1
Sampling: TRANSMISSION
Resolution: 4
Origin: DOW CHEMICAL COMPANY
1/CM	TRANSMITTANCE
401.821	0.659
410.358	0.645
418.896	0.669
427.433	0.712
435.97	0.753
444.507	0.796
453.045	0.833
461.582	0.858
470.119	0.881
478.657	0.901
487.194	0.917
495.731	0.929
504.268	0.941
512.806	0.953
521.343	0.958
529.88	0.965
538.418	0.969
546.955	0.974
555.492	0.977
564.029	0.98
572.567	0.986
581.104	0.989
589.641	0.992
598.179	0.996
606.716	0.998
615.253	0.997
623.79	0.997
632.328	0.996
640.865	0.994
649.402	0.994
657.94	0.996
666.477	0.994
675.014	0.99
683.551	0.977
692.089	0.962
700.626	0.949
709.163	0.937
717.701	0.909
726.238	0.866
734.775	0.892
743.312	0.913
751.85	0.929
760.387	0.906
768.924	0.498
777.462	0.284
785.999	0.856
794.536	0.925
803.073	0.954
811.611	0.965
820.148	0.972
828.685	0.972
837.223	0.973
845.76	0.969
854.297	0.965
862.834	0.965
871.372	0.965
879.909	0.962
888.446	0.952
896.984	0.945
905.521	0.942
914.058	0.94
922.596	0.933
931.133	0.933
939.67	0.929
948.207	0.928
956.745	0.922
965.282	0.918
973.819	0.912
982.357	0.917
990.894	0.922
999.431	0.924
1007.97	0.925
1016.51	0.921
1025.04	0.918
1033.58	0.92
1042.12	0.917
1050.65	0.917
1059.19	0.916
1067.73	0.878
1076.27	0.9
1084.8	0.904
1093.34	0.905
1101.88	0.9
1110.42	0.897
1118.95	0.89
1127.49	0.882
1136.03	0.877
1144.56	0.864
1153.1	0.849
1161.64	0.844
1170.18	0.838
1178.71	0.84
1187.25	0.841
1195.79	0.83
1204.33	0.816
1212.86	0.814
1221.4	0.806
1229.94	0.793
1238.48	0.786
1247.01	0.774
1255.55	0.761
1264.09	0.744
1272.62	0.721
1281.16	0.699
1289.7	0.673
1298.24	0.631
1306.77	0.584
1315.31	0.543
1323.85	0.484
1332.39	0.355
1340.92	0.268
1349.46	0.149
1358	0.043
1366.53	0.037
1375.07	0.195
1383.61	0.672
1392.15	0.8
1400.68	0.829
1409.22	0.833
1417.76	0.828
1426.3	0.806
1434.83	0.789
1443.37	0.768
1451.91	0.747
1460.44	0.719
1468.98	0.697
1477.52	0.675
1486.06	0.643
1494.59	0.612
1503.13	0.58
1511.67	0.549
1520.21	0.517
1528.74	0.468
1537.28	0.407
1545.82	0.34
1554.35	0.295
1562.89	0.239
1571.43	0.165
1579.97	0.097
1588.5	0.066
1597.04	0.059
1605.58	0.054
1614.12	0.051
1622.65	0.051
1631.19	0.062
1639.73	0.103
1648.26	0.185
1656.8	0.27
1665.34	0.37
1673.88	0.467
1682.41	0.527
1690.95	0.517
1699.49	0.645
1708.03	0.684
1716.56	0.705
1725.1	0.724
1733.64	0.745
1742.18	0.769
1750.71	0.789
1759.25	0.813
1767.79	0.834
1776.32	0.849
1784.86	0.862
1793.4	0.874
1801.94	0.892
1810.47	0.902
1819.01	0.91
1827.55	0.92
1836.09	0.928
1844.62	0.932
1853.16	0.94
1861.7	0.946
1870.23	0.95
1878.77	0.956
1887.31	0.962
1895.85	0.965
1904.38	0.969
1912.92	0.974
1921.46	0.976
1930	0.978
1938.53	0.981
1947.07	0.984
1955.61	0.984
1964.14	0.985
1972.68	0.988
1981.22	0.992
1989.76	0.99
1998.29	0.988
2006.83	0.994
2015.37	1.001
2023.91	1.003
2032.44	1.003
2040.98	1.002
2049.52	1.003
2058.05	1.003
2066.59	1.002
2075.13	1.001
2083.67	1
2092.2	0.998
2100.74	0.998
2109.28	0.998
2117.82	0.997
2126.35	0.996
2134.89	0.99
2143.43	0.989
2151.96	0.988
2160.5	0.988
2169.04	0.986
2177.58	0.984
2186.11	0.982
2194.65	0.978
2203.19	0.978
2211.73	0.978
2220.26	0.977
2228.8	0.974
2237.34	0.97
2245.87	0.965
2254.41	0.962
2262.95	0.958
2271.49	0.956
2280.02	0.954
2288.56	0.954
2297.1	0.953
2305.64	0.9519
2314.17	0.952
2322.71	0.95
2331.25	0.95
2339.79	0.95
2348.32	0.952
2356.86	0.9531
2365.4	0.954
2373.93	0.9561
2382.47	0.96
2391.01	0.9599
2399.55	0.9569
2408.08	0.956
2416.62	0.956
2425.16	0.957
2433.7	0.957
2442.23	0.958
2450.77	0.96
2459.31	0.96
2467.84	0.958
2476.38	0.96
2484.92	0.9609
2493.46	0.961
2501.99	0.962
2510.53	0.962
2519.07	0.964
2527.61	0.964
2536.14	0.9649
2544.68	0.9641
2553.22	0.965
2561.75	0.964
2570.29	0.9638
2578.83	0.962
2587.37	0.9609
2595.9	0.958
2604.44	0.957
2612.98	0.957
2621.52	0.956
2630.05	0.953
2638.59	0.952
2647.13	0.949
2655.66	0.946
2664.2	0.9438
2672.74	0.9379
2681.28	0.9318
2689.81	0.9238
2698.35	0.9125
2706.89	0.8756
2715.43	0.7288
2723.96	0.7921
2732.5	0.8779
2741.04	0.9024
2749.57	0.9174
2758.11	0.921
2766.65	0.9169
2775.19	0.9129
2783.72	0.8979
2792.26	0.8764
2800.8	0.8435
2809.34	0.7728
2817.87	0.6064
2826.41	0.3826
2834.95	0.2593
2843.49	0.605
2852.02	0.7564
2860.56	0.822
2869.1	0.8664
2877.63	0.8864
2886.17	0.8971
2894.71	0.901
2903.25	0.8966
2911.78	0.88
2920.32	0.8502
2928.86	0.7964
2937.4	0.778
2945.93	0.777
2954.47	0.7697
2963.01	0.7671
2971.54	0.7981
2980.08	0.8264
2988.62	0.8581
2997.16	0.878
3005.69	0.8962
3014.23	0.9065
3022.77	0.9172
3031.31	0.9223
3039.84	0.9282
3048.38	0.93
3056.92	0.932
3065.45	0.932
3073.99	0.932
3082.53	0.932
3091.07	0.932
3099.6	0.932
3108.14	0.932
3116.68	0.932
3125.22	0.9316
3133.75	0.93
3142.29	0.929
3150.83	0.928
3159.36	0.925
3167.9	0.922
3176.44	0.9178
3184.98	0.91
3193.51	0.909
3202.05	0.9104
3210.59	0.9132
3219.13	0.9144
3227.66	0.917
3236.2	0.917
3244.74	0.917
3253.27	0.916
3261.81	0.916
3270.35	0.913
3278.89	0.913
3287.42	0.9138
3295.96	0.912
3304.5	0.909
3313.04	0.909
3321.57	0.909
3330.11	0.909
3338.65	0.909
3347.18	0.908
3355.72	0.9058
3364.26	0.905
3372.8	0.905
3381.33	0.904
3389.87	0.904
3398.41	0.902
3406.95	0.9018
3415.48	0.901
3424.02	0.901
3432.56	0.9008
3441.1	0.8978
3449.63	0.897
3458.17	0.9
3466.71	0.8978
3475.24	0.897
3483.78	0.897
3492.32	0.897
3500.86	0.898
3509.39	0.898
3517.93	0.898
3526.47	0.9
3535.01	0.9
3543.54	0.9
3552.08	0.8985
3560.62	0.9
3569.15	0.9
3577.69	0.8995
3586.23	0.8937
3594.77	0.8905
3603.3	0.8963
3611.84	0.897
3620.38	0.897
3628.92	0.897
3637.45	0.8973
3645.99	0.8995
3654.53	0.8977
3663.06	0.897
3671.6	0.897
3680.14	0.897
3688.68	0.898
3697.21	0.897
3705.75	0.897
3714.29	0.897
3722.83	0.897
3731.36	0.894
3739.9	0.8937
3748.44	0.893
3756.97	0.893
3765.51	0.892
3774.05	0.893
3782.59	0.89
3791.12	0.89
