Infrared Spectrum: 2-PROPANOL, 2-METHYL-D
Formula: C4 H9 D O
State: SOLUTION (10% IN CCl4 FOR 3800-1330, 10% IN CS2 FOR 1330-400 CM^-^1) VS. SOLVENT
Class: COBLENTZ III
Instrument: DOW KBr FOREPRISM-GRATING
Instrument parameters: BLAZED AT 3.5, 12.0, 20.0 MICRON, CHANGED AT 5.0, 7.5, 14.9 MICRON
Sampling: TRANSMISSION
Path length: 0.011, 0.011 CM
Resolution: 4
Origin: DOW CHEMICAL COMPANY
1/CM	TRANSMITTANCE
401.682	0.764
410.383	0.764
419.083	0.768
427.784	0.789
436.485	0.782
445.186	0.74
453.886	0.691
462.587	0.602
471.288	0.605
479.988	0.624
488.689	0.636
497.39	0.646
506.091	0.67
514.791	0.71
523.492	0.752
532.193	0.797
540.893	0.828
549.594	0.847
558.295	0.866
566.996	0.891
575.696	0.906
584.397	0.918
593.098	0.934
601.798	0.949
610.499	0.964
619.2	0.976
627.901	0.986
636.601	0.993
645.302	0.995
654.003	1.002
662.703	1.004
671.404	1.005
680.105	1.008
688.806	1.006
697.506	1.008
706.207	1.008
714.908	1.005
723.608	1.002
732.309	0.994
741.01	0.884
749.711	0.7311
758.411	0.994
767.112	1.002
775.813	1.008
784.513	1.008
793.214	1.006
801.915	1.002
810.616	1.001
819.316	0.989
828.017	0.98
836.718	0.971
845.418	0.959
854.119	0.918
862.82	0.865
871.521	0.733
880.221	0.609
888.922	0.672
897.623	0.472
906.323	0.144
915.024	0.053
923.725	0.209
932.426	0.182
941.126	0.112
949.827	0.14
958.528	0.281
967.228	0.489
975.929	0.636
984.63	0.776
993.331	0.843
1002.03	0.863
1010.73	0.868
1019.43	0.832
1028.13	0.751
1036.83	0.631
1045.53	0.406
1054.24	0.725
1062.94	0.861
1071.64	0.908
1080.34	0.922
1089.04	0.931
1097.74	0.934
1106.44	0.933
1115.14	0.929
1123.84	0.931
1132.54	0.919
1141.24	0.891
1149.94	0.861
1158.64	0.76
1167.34	0.676
1176.05	0.58
1184.75	0.39
1193.45	0.1299
1202.15	0.009
1210.85	0.1041
1219.55	0.3631
1228.25	0.374
1236.95	0.219
1245.65	0.511
1254.35	0.587
1263.05	0.4989
1271.75	0.273
1280.45	0.7681
1289.15	0.895
1297.86	0.923
1306.56	0.934
1315.26	0.929
1323.96	0.911
1332.66	0.885
1341.36	0.868
1350.06	0.7759
1358.76	0.5109
1367.46	0.008
1376.16	0.53
1384.86	0.5228
1393.56	0.4531
1402.26	0.832
1410.96	0.868
1419.67	0.878
1428.37	0.865
1437.07	0.834
1445.77	0.764
1454.47	0.631
1463.17	0.499
1471.87	0.259
1480.57	0.7061
1489.27	0.851
1497.97	0.893
1506.67	0.927
1515.37	0.949
1524.07	0.97
1532.77	0.986
1541.48	0.994
1550.18	0.994
1558.88	1
1567.58	0.998
1576.28	0.997
1584.98	0.997
1593.68	0.994
1602.38	0.991
1611.08	0.983
1619.78	0.978
1628.48	0.971
1637.18	0.97
1645.88	0.948
1654.58	0.946
1663.29	0.96
1671.99	0.972
1680.69	0.972
1689.39	0.972
1698.09	0.972
1706.79	0.972
1715.49	0.976
1724.19	0.976
1732.89	0.975
1741.59	0.976
1750.29	0.978
1758.99	0.98
1767.69	0.975
1776.39	0.971
1785.1	0.965
1793.8	0.956
1802.5	0.938
1811.2	0.922
1819.9	0.925
1828.6	0.927
1837.3	0.927
1846	0.931
1854.7	0.933
1863.4	0.936
1872.1	0.937
1880.8	0.933
1889.5	0.927
1898.2	0.931
1906.91	0.931
1915.61	0.934
1924.31	0.936
1933.01	0.938
1941.71	0.942
1950.41	0.945
1959.11	0.945
1967.81	0.946
1976.51	0.94
1985.21	0.931
1993.91	0.923
2002.61	0.926
2011.31	0.931
2020.01	0.933
2028.72	0.939
2037.42	0.943
2046.12	0.9455
2054.82	0.948
2063.52	0.949
2072.22	0.949
2080.92	0.947
2089.62	0.9389
2098.32	0.9335
2107.02	0.9185
2115.72	0.9225
2124.42	0.9321
2133.12	0.9375
2141.82	0.936
2150.53	0.9349
2159.23	0.9366
2167.93	0.936
2176.63	0.931
2185.33	0.9321
2194.03	0.9319
2202.73	0.9294
2211.43	0.9203
2220.13	0.9074
2228.83	0.906
2237.53	0.907
2246.23	0.906
2254.93	0.904
2263.63	0.8994
2272.34	0.892
2281.04	0.885
2289.74	0.8898
2298.44	0.889
2307.14	0.8814
2315.84	0.8651
2324.54	0.8372
2333.24	0.8204
2341.94	0.8096
2350.64	0.7881
2359.34	0.7682
2368.04	0.76
2376.74	0.7564
2385.44	0.7297
2394.15	0.6992
2402.85	0.6544
2411.55	0.609
2420.25	0.5553
2428.95	0.4858
2437.65	0.4078
2446.35	0.3348
2455.05	0.2411
2463.75	0.1722
2472.45	0.1301
2481.15	0.113
2489.85	0.112
2498.55	0.121
2507.25	0.134
2515.96	0.158
2524.66	0.1944
2533.36	0.2407
2542.06	0.2883
2550.76	0.3338
2559.46	0.3618
2568.16	0.4112
2576.86	0.4482
2585.56	0.5011
2594.26	0.5778
2602.96	0.642
2611.66	0.743
2620.36	0.7996
2629.06	0.8397
2637.77	0.8577
2646.47	0.863
2655.17	0.8453
2663.87	0.689
2672.57	0.6925
2681.27	0.8829
2689.97	0.9162
2698.67	0.9183
2707.37	0.9125
2716.07	0.8923
2724.77	0.9239
2733.47	0.9333
2742.17	0.9292
2750.88	0.9395
2759.58	0.944
2768.28	0.942
2776.98	0.942
2785.68	0.9345
2794.38	0.9189
2803.08	0.8974
2811.78	0.8616
2820.48	0.8484
2829.18	0.8462
2837.88	0.836
2846.58	0.7999
2855.28	0.6832
2863.98	0.4648
2872.69	0.3037
2881.39	0.4198
2890.09	0.443
2898.79	0.3575
2907.49	0.2968
2916.19	0.3474
2924.89	0.278
2933.59	0.1713
2942.29	0.2029
2950.99	0.2107
2959.69	0.1139
2968.39	0.0137
2977.09	0.006
2985.79	0.0137
2994.5	0.227
3003.2	0.5514
3011.9	0.7213
3020.6	0.8294
3029.3	0.8704
3038	0.9034
3046.7	0.9244
3055.4	0.9365
3064.1	0.9449
3072.8	0.951
3081.5	0.955
3090.2	0.9559
3098.9	0.956
3107.6	0.956
3116.31	0.955
3125.01	0.953
3133.71	0.953
3142.41	0.951
3151.11	0.948
3159.81	0.944
3168.51	0.9401
3177.21	0.9301
3185.91	0.9299
3194.61	0.933
3203.31	0.937
3212.01	0.9361
3220.71	0.9342
3229.41	0.9251
3238.12	0.9229
3246.82	0.9288
3255.52	0.934
3264.22	0.9398
3272.92	0.94
3281.62	0.9371
3290.32	0.934
3299.02	0.9271
3307.72	0.9142
3316.42	0.91
3325.12	0.9139
3333.82	0.9189
3342.52	0.923
3351.22	0.925
3359.93	0.927
3368.63	0.931
3377.33	0.926
3386.03	0.923
3394.73	0.926
3403.43	0.931
3412.13	0.9359
3420.83	0.9399
3429.53	0.944
3438.23	0.948
3446.93	0.957
3455.63	0.961
3464.33	0.965
3473.03	0.968
3481.74	0.974
3490.44	0.976
3499.14	0.979
3507.84	0.983
3516.54	0.986
3525.24	0.987
3533.94	0.989
3542.64	0.99
3551.34	0.994
3560.04	0.994
3568.74	0.994
3577.44	0.998
3586.14	0.993
3594.84	1
3603.55	0.994
3612.25	0.985
3620.95	0.9912
3629.65	1.001
3638.35	1
3647.05	1.001
3655.75	1.001
3664.45	1.001
3673.15	1.001
3681.85	1.002
3690.55	1.0051
3699.25	1.0059
3707.95	1.002
3716.65	1
3725.36	1
3734.06	1.0011
3742.76	1.002
3751.46	1.001
3760.16	0.998
3768.86	0.995
3777.56	0.994
