Infrared Spectrum: BENZAMIDE, 2-AMINO-3,5-DIIODO-
Formula: C7 H6 I2 N2 O
State: SOLID (1 mg / 500 mg KBr DISC)
Class: COBLENTZ III
Instrument: PERKIN-ELMER 521 (GRATING)
Sampling: TRANSMISSION
Resolution: 4
Origin: SOUTHERN RESEARCH INSTITUTE
1/CM	TRANSMITTANCE
254.569	0.406
265.013	0.438
275.457	0.49
285.901	0.5929
296.345	0.634
306.789	0.644
317.232	0.61
327.676	0.617
338.12	0.706
348.564	0.716
359.008	0.718
369.452	0.715
379.896	0.702
390.34	0.693
400.784	0.663
411.228	0.616
421.672	0.6139
432.115	0.651
442.559	0.651
453.003	0.663
463.447	0.684
473.891	0.677
484.335	0.712
494.779	0.714
505.223	0.699
515.667	0.677
526.111	0.651
536.555	0.595
546.998	0.618
557.442	0.605
567.886	0.569
578.33	0.618
588.774	0.622
599.218	0.622
609.662	0.607
620.106	0.582
630.55	0.541
640.994	0.511
651.438	0.566
661.881	0.428
672.325	0.4901
682.769	0.6739
693.213	0.732
703.657	0.767
714.101	0.781
724.545	0.785
734.989	0.774
745.433	0.757
755.877	0.758
766.32	0.784
776.764	0.753
787.208	0.689
797.652	0.678
808.096	0.715
818.54	0.776
828.984	0.793
839.428	0.789
849.872	0.731
860.316	0.762
870.76	0.647
881.203	0.808
891.647	0.801
902.091	0.801
912.535	0.795
922.979	0.789
933.423	0.787
943.867	0.785
954.311	0.778
964.755	0.771
975.199	0.765
985.643	0.757
996.086	0.749
1006.53	0.741
1016.97	0.733
1027.42	0.711
1037.86	0.689
1048.31	0.676
1058.75	0.682
1069.19	0.707
1079.64	0.734
1090.08	0.727
1100.53	0.714
1110.97	0.698
1121.41	0.678
1131.86	0.629
1142.3	0.6501
1152.75	0.706
1163.19	0.698
1173.63	0.695
1184.08	0.684
1194.52	0.668
1204.96	0.647
1215.41	0.64
1225.85	0.618
1236.3	0.563
1246.74	0.4579
1257.18	0.668
1267.63	0.629
1278.07	0.617
1288.52	0.614
1298.96	0.659
1309.4	0.66
1319.85	0.646
1330.29	0.629
1340.74	0.612
1351.18	0.58
1361.62	0.54
1372.07	0.425
1382.51	0.5
1392.95	0.4579
1403.4	0.4931
1413.84	0.6139
1424.29	0.592
1434.73	0.455
1445.17	0.652
1455.62	0.678
1466.06	0.659
1476.51	0.644
1486.95	0.618
1497.39	0.588
1507.84	0.535
1518.28	0.434
1528.73	0.446
1539.17	0.553
1549.61	0.4059
1560.06	0.5003
1570.5	0.558
1580.95	0.413
1591.39	0.262
1601.83	0.3741
1612.28	0.514
1622.72	0.476
1633.16	0.275
1643.61	0.3041
1654.05	0.5371
1664.5	0.674
1674.94	0.737
1685.38	0.778
1695.83	0.785
1706.27	0.789
1716.72	0.787
1727.16	0.785
1737.6	0.778
1748.05	0.77
1758.49	0.75
1768.94	0.759
1779.38	0.753
1789.82	0.746
1800.27	0.748
1810.71	0.748
1821.16	0.741
1831.6	0.738
1842.04	0.732
1852.49	0.727
1862.93	0.724
1873.37	0.723
1883.82	0.719
1894.26	0.716
1904.71	0.714
1915.15	0.71
1925.59	0.707
1936.04	0.706
1946.48	0.704
1956.93	0.701
1967.37	0.701
1977.81	0.695
1988.26	0.695
1998.7	0.704
2009.15	0.694
2019.59	0.694
2030.03	0.694
2040.48	0.694
2050.92	0.691
2061.37	0.69
2071.81	0.689
2082.25	0.687
2092.7	0.685
2103.14	0.685
2113.58	0.682
2124.03	0.68
2134.47	0.677
2144.92	0.676
2155.36	0.672
2165.8	0.672
2176.25	0.671
2186.69	0.668
2197.14	0.6658
2207.58	0.6594
2218.02	0.659
2228.47	0.657
2238.91	0.657
2249.36	0.656
2259.8	0.6545
2270.24	0.6531
2280.69	0.6516
2291.13	0.651
2301.57	0.65
2312.02	0.647
2322.46	0.646
2332.91	0.644
2343.35	0.644
2353.79	0.643
2364.24	0.643
2374.68	0.642
2385.13	0.64
2395.57	0.639
2406.01	0.638
2416.46	0.638
2426.9	0.637
2437.35	0.635
2447.79	0.635
2458.23	0.635
2468.68	0.634
2479.12	0.6269
2489.57	0.624
2500.01	0.618
2510.45	0.618
2520.9	0.617
2531.34	0.616
2541.78	0.614
2552.23	0.613
2562.67	0.612
2573.12	0.612
2583.56	0.61
2594	0.609
2604.45	0.608
2614.89	0.6042
2625.34	0.603
2635.78	0.601
2646.22	0.6003
2656.67	0.5997
2667.11	0.597
2677.56	0.597
2688	0.593
2698.44	0.588
2708.89	0.5864
2719.33	0.586
2729.78	0.584
2740.22	0.582
2750.66	0.577
2761.11	0.576
2771.55	0.574
2781.99	0.575
2792.44	0.578
2802.88	0.5762
2813.33	0.575
2823.77	0.575
2834.21	0.5747
2844.66	0.575
2855.1	0.574
2865.55	0.573
2875.99	0.5707
2886.43	0.567
2896.88	0.566
2907.32	0.5628
2917.77	0.5597
2928.21	0.56
2938.65	0.5611
2949.1	0.558
2959.54	0.5558
2969.99	0.5539
2980.43	0.552
2990.87	0.549
3001.32	0.546
3011.76	0.544
3022.2	0.539
3032.65	0.533
3043.09	0.5301
3053.54	0.526
3063.98	0.5221
3074.42	0.515
3084.87	0.518
3095.31	0.5132
3105.76	0.503
3116.2	0.4922
3126.64	0.49
3137.09	0.4663
3147.53	0.4559
3157.98	0.4336
3168.42	0.4123
3178.86	0.3953
3189.31	0.4076
3199.75	0.4228
3210.19	0.4376
3220.64	0.459
3231.08	0.472
3241.53	0.4715
3251.97	0.4625
3262.41	0.438
3272.86	0.4325
3283.3	0.4296
3293.75	0.425
3304.19	0.4076
3314.63	0.3732
3325.08	0.3411
3335.52	0.2592
3345.97	0.3529
3356.41	0.3259
3366.85	0.276
3377.3	0.269
3387.74	0.3101
3398.19	0.3723
3408.63	0.4259
3419.07	0.442
3429.52	0.4324
3439.96	0.3518
3450.4	0.4674
3460.85	0.506
3471.29	0.507
3481.74	0.511
3492.18	0.514
3502.62	0.518
3513.07	0.515
3523.51	0.5219
3533.96	0.5239
3544.4	0.528
3554.84	0.532
3565.29	0.5348
3575.73	0.537
3586.18	0.54
3596.62	0.5458
3607.06	0.5528
3617.51	0.5595
3627.95	0.561
3638.4	0.562
3648.84	0.5607
3659.28	0.5607
3669.73	0.5587
3680.17	0.558
3690.61	0.561
3701.06	0.557
3711.5	0.5564
3721.95	0.556
3732.39	0.554
3742.83	0.552
3753.28	0.553
3763.72	0.552
3774.17	0.552
3784.61	0.55
3795.05	0.549
3805.5	0.549
3815.94	0.549
3826.39	0.5456
3836.83	0.541
3847.27	0.541
3857.72	0.54
3868.16	0.54
3878.61	0.54
3889.05	0.5398
3899.49	0.5362
3909.94	0.536
3920.38	0.536
3930.82	0.5399
3941.27	0.54
3951.71	0.535
3962.16	0.535
3972.6	0.535
3983.04	0.533
3993.49	0.533
