Infrared Spectrum: SODIUM PROPIONATE
Formula: C3 H5 O2 Na
State: SOLID (SPLIT MULL, FLUOROLUBE FOR 3800-1333 AND NUJOL FOR 1333-400 CM ^-^1)
Class: COBLENTZ III
Instrument: DOW KBr FOREPRISM-GRATING
Instrument parameters: BLAZED AT 3.5, 12.0, 20.0 MICRON, CHANGED AT 5.0, 7.5, 14.9 MICRON
Sampling: TRANSMISSION
Resolution: 4
Origin: DOW CHEMICAL COMPANY
1/CM	TRANSMITTANCE
383.239	0.602
391.762	0.601
400.284	0.612
408.807	0.625
417.33	0.633
425.853	0.641
434.375	0.649
442.898	0.659
451.421	0.664
459.944	0.663
468.466	0.671
476.989	0.677
485.512	0.683
494.035	0.676
502.557	0.589
511.08	0.562
519.603	0.672
528.125	0.703
536.648	0.716
545.171	0.721
553.694	0.724
562.216	0.723
570.739	0.711
579.262	0.697
587.785	0.704
596.307	0.72
604.83	0.729
613.353	0.732
621.875	0.729
630.398	0.72
638.921	0.672
647.444	0.632
655.966	0.703
664.489	0.721
673.012	0.728
681.535	0.732
690.057	0.732
698.58	0.727
707.103	0.721
715.626	0.705
724.148	0.671
732.671	0.699
741.194	0.711
749.716	0.719
758.239	0.723
766.762	0.724
775.285	0.721
783.807	0.723
792.33	0.719
800.853	0.7
809.376	0.637
817.898	0.4151
826.421	0.675
834.944	0.708
843.466	0.719
851.989	0.727
860.512	0.725
869.035	0.717
877.557	0.618
886.08	0.693
894.603	0.719
903.126	0.724
911.648	0.724
920.171	0.721
928.694	0.717
937.217	0.713
945.739	0.713
954.262	0.707
962.785	0.705
971.307	0.7
979.83	0.705
988.353	0.695
996.876	0.643
1005.4	0.656
1013.92	0.695
1022.44	0.697
1030.97	0.695
1039.49	0.689
1048.01	0.685
1056.53	0.675
1065.06	0.657
1073.58	0.5339
1082.1	0.643
1090.63	0.659
1099.15	0.663
1107.67	0.668
1116.19	0.669
1124.72	0.672
1133.24	0.673
1141.76	0.673
1150.28	0.669
1158.81	0.667
1167.33	0.667
1175.85	0.673
1184.38	0.673
1192.9	0.672
1201.42	0.671
1209.94	0.675
1218.47	0.676
1226.99	0.673
1235.51	0.671
1244.03	0.664
1252.56	0.661
1261.08	0.659
1269.6	0.645
1278.13	0.622
1286.65	0.542
1295.17	0.36
1303.69	0.5571
1312.22	0.648
1320.74	0.659
1329.26	0.652
1337.78	0.643
1346.31	0.614
1354.83	0.631
1363.35	0.556
1371.88	0.2002
1380.4	0.451
1388.92	0.61
1397.44	0.546
1405.97	0.49
1414.49	0.3829
1423.01	0.308
1431.53	0.177
1440.06	0.3931
1448.58	0.455
1457.1	0.506
1465.63	0.268
1474.15	0.439
1482.67	0.633
1491.19	0.632
1499.72	0.598
1508.24	0.538
1516.76	0.465
1525.28	0.397
1533.81	0.314
1542.33	0.24
1550.85	0.128
1559.38	0.044
1567.9	0.037
1576.42	0.064
1584.94	0.188
1593.47	0.334
1601.99	0.471
1610.51	0.588
1619.03	0.649
1627.56	0.707
1636.08	0.75
1644.6	0.792
1653.13	0.823
1661.65	0.851
1670.17	0.875
1678.69	0.89
1687.22	0.898
1695.74	0.903
1704.26	0.917
1712.79	0.935
1721.31	0.951
1729.83	0.959
1738.35	0.969
1746.88	0.971
1755.4	0.981
1763.92	0.981
1772.44	0.985
1780.97	0.985
1789.49	0.986
1798.01	0.986
1806.54	0.987
1815.06	0.99
1823.58	0.994
1832.1	0.994
1840.63	0.991
1849.15	0.994
1857.67	0.991
1866.19	0.991
1874.72	0.99
1883.24	0.99
1891.76	0.993
1900.29	0.997
1908.81	0.994
1917.33	0.995
1925.85	0.997
1934.38	0.997
1942.9	0.994
1951.42	0.994
1959.94	0.991
1968.47	0.99
1976.99	0.987
1985.51	0.982
1994.04	0.977
2002.56	0.977
2011.08	0.975
2019.6	0.975
2028.13	0.975
2036.65	0.974
2045.17	0.972
2053.69	0.971
2062.22	0.969
2070.74	0.966
2079.26	0.966
2087.79	0.9655
2096.31	0.964
2104.83	0.962
2113.35	0.961
2121.88	0.9585
2130.4	0.958
2138.92	0.955
2147.44	0.9535
2155.97	0.953
2164.49	0.953
2173.01	0.9495
2181.54	0.946
2190.06	0.943
2198.58	0.942
2207.1	0.9415
2215.63	0.939
2224.15	0.937
2232.67	0.931
2241.19	0.926
2249.72	0.92
2258.24	0.914
2266.76	0.9135
2275.29	0.91
2283.81	0.908
2292.33	0.9055
2300.85	0.904
2309.38	0.902
2317.9	0.902
2326.42	0.902
2334.94	0.9015
2343.47	0.905
2351.99	0.906
2360.51	0.908
2369.04	0.911
2377.56	0.91
2386.08	0.913
2394.6	0.915
2403.13	0.917
2411.65	0.915
2420.17	0.915
2428.69	0.914
2437.22	0.914
2445.74	0.9145
2454.26	0.918
2462.79	0.919
2471.31	0.92
2479.83	0.921
2488.35	0.918
2496.88	0.919
2505.4	0.926
2513.92	0.929
2522.44	0.929
2530.97	0.93
2539.49	0.931
2548.01	0.931
2556.54	0.931
2565.06	0.9305
2573.58	0.928
2582.1	0.923
2590.63	0.9265
2599.15	0.929
2607.67	0.929
2616.19	0.927
2624.72	0.929
2633.24	0.927
2641.76	0.9255
2650.29	0.925
2658.81	0.923
2667.33	0.921
2675.85	0.918
2684.38	0.916
2692.9	0.914
2701.42	0.913
2709.94	0.91
2718.47	0.906
2726.99	0.905
2735.51	0.907
2744.04	0.905
2752.56	0.903
2761.08	0.903
2769.6	0.9015
2778.13	0.899
2786.65	0.895
2795.17	0.893
2803.69	0.89
2812.22	0.882
2820.74	0.8715
2829.26	0.865
2837.79	0.855
2846.31	0.85
2854.83	0.8505
2863.35	0.839
2871.88	0.79
2880.4	0.7854
2888.92	0.823
2897.44	0.813
2905.97	0.804
2914.49	0.801
2923.01	0.7685
2931.54	0.6797
2940.06	0.535
2948.58	0.5435
2957.1	0.7425
2965.63	0.6905
2974.15	0.3224
2982.67	0.4458
2991.19	0.8071
2999.72	0.864
3008.24	0.8795
3016.76	0.884
3025.29	0.888
3033.81	0.89
3042.33	0.89
3050.85	0.89
3059.38	0.89
3067.9	0.891
3076.42	0.89
3084.94	0.89
3093.47	0.89
3101.99	0.8895
3110.51	0.889
3119.04	0.8855
3127.56	0.884
3136.08	0.883
3144.6	0.882
3153.13	0.882
3161.65	0.881
3170.17	0.878
3178.69	0.878
3187.22	0.8745
3195.74	0.872
3204.26	0.872
3212.79	0.872
3221.31	0.871
3229.83	0.87
3238.35	0.869
3246.88	0.867
3255.4	0.865
3263.92	0.863
3272.44	0.863
3280.97	0.863
3289.49	0.861
3298.01	0.86
3306.54	0.859
3315.06	0.8585
3323.58	0.856
3332.1	0.855
3340.63	0.854
3349.15	0.852
3357.67	0.852
3366.19	0.8515
3374.72	0.851
3383.24	0.851
3391.76	0.852
3400.29	0.85
3408.81	0.85
3417.33	0.85
3425.85	0.85
3434.38	0.851
3442.9	0.852
3451.42	0.851
3459.94	0.853
3468.47	0.854
3476.99	0.852
3485.51	0.856
3494.04	0.858
3502.56	0.858
3511.08	0.859
3519.6	0.858
3528.13	0.86
3536.65	0.86
3545.17	0.86
3553.69	0.865
3562.22	0.866
3570.74	0.866
3579.26	0.868
3587.79	0.863
3596.31	0.87
3604.83	0.866
3613.35	0.869
3621.88	0.8705
3630.4	0.871
3638.92	0.872
3647.44	0.871
3655.97	0.872
3664.49	0.874
3673.01	0.874
3681.54	0.874
3690.06	0.8715
3698.58	0.869
3707.1	0.8745
3715.63	0.8745
3724.15	0.873
3732.67	0.873
3741.19	0.872
3749.72	0.872
3758.24	0.872
3766.76	0.872
3775.29	0.874
3783.81	0.875
