Infrared Spectrum: BENZENAMINE, 2-METHYL-, SULFATE
Formula: C14 H20 N2 O4 S
State: SOLID (SPLIT MULL, FLUOROLUBE FOR 3800-1340 AND NUJOL FOR 1340-470 CM ^-^1)
Class: COBLENTZ III
Instrument: DOW KBr FOREPRISM-GRATING
Instrument parameters: BLAZED AT 3.5, 12.0, 20.0 MICRON, CHANGED AT 5.0, 7.5, 14.9 MICRON
Sampling: TRANSMISSION
Resolution: 4
Origin: DOW CHEMICAL COMPANY
1/CM	TRANSMITTANCE
466.087	0.931
474.783	0.955
483.478	0.968
492.174	0.975
500.87	0.975
509.565	0.956
518.261	0.734
526.957	0.738
535.652	0.953
544.348	0.971
553.044	0.971
561.739	0.97
570.435	0.948
579.131	0.84
587.826	0.835
596.522	0.838
605.218	0.401
613.913	0.276
622.609	0.541
631.305	0.254
640	0.699
648.696	0.866
657.392	0.927
666.087	0.945
674.783	0.956
683.479	0.956
692.174	0.952
700.87	0.948
709.566	0.71
718.262	0.897
726.957	0.881
735.653	0.854
744.349	0.059
753.044	0.329
761.74	0.817
770.436	0.929
779.131	0.944
787.827	0.955
796.523	0.953
805.218	0.953
813.914	0.949
822.61	0.944
831.305	0.933
840.001	0.929
848.697	0.937
857.392	0.934
866.088	0.922
874.784	0.927
883.479	0.919
892.175	0.911
900.871	0.908
909.566	0.893
918.262	0.876
926.958	0.863
935.653	0.839
944.349	0.805
953.045	0.801
961.74	0.761
970.436	0.5759
979.132	0.627
987.827	0.74
996.523	0.684
1005.22	0.659
1013.91	0.593
1022.61	0.468
1031.31	0.261
1040	0.202
1048.7	0.133
1057.39	0.068
1066.09	0.048
1074.78	0.068
1083.48	0.073
1092.18	0.048
1100.87	0.036
1109.57	0.04
1118.26	0.047
1126.96	0.078
1135.65	0.119
1144.35	0.089
1153.05	0.121
1161.74	0.236
1170.44	0.303
1179.13	0.416
1187.83	0.4609
1196.52	0.635
1205.22	0.761
1213.91	0.816
1222.61	0.84
1231.31	0.794
1240	0.85
1248.7	0.872
1257.39	0.872
1266.09	0.872
1274.78	0.876
1283.48	0.87
1292.18	0.84
1300.87	0.848
1309.57	0.5629
1318.26	0.934
1326.96	0.993
1335.65	0.991
1344.35	0.991
1353.05	0.986
1361.74	0.98
1370.44	0.975
1379.13	0.914
1387.83	0.936
1396.52	0.965
1405.22	0.972
1413.92	0.955
1422.61	0.942
1431.31	0.896
1440	0.884
1448.7	0.805
1457.39	0.794
1466.09	0.594
1474.79	0.831
1483.48	0.795
1492.18	0.537
1500.87	0.563
1509.57	0.65
1518.26	0.878
1526.96	0.857
1535.65	0.774
1544.35	0.677
1553.05	0.4649
1561.74	0.37
1570.44	0.553
1579.13	0.537
1587.83	0.593
1596.52	0.57
1605.22	0.572
1613.92	0.563
1622.61	0.525
1631.31	0.489
1640	0.534
1648.7	0.767
1657.39	0.88
1666.09	0.915
1674.79	0.931
1683.48	0.941
1692.18	0.944
1700.87	0.955
1709.57	0.971
1718.26	0.976
1726.96	0.976
1735.66	0.976
1744.35	0.978
1753.05	0.985
1761.74	0.985
1770.44	0.979
1779.13	0.974
1787.83	0.963
1796.52	0.946
1805.22	0.934
1813.92	0.941
1822.61	0.942
1831.31	0.934
1840	0.925
1848.7	0.929
1857.39	0.933
1866.09	0.931
1874.79	0.922
1883.48	0.911
1892.18	0.904
1900.87	0.903
1909.57	0.881
1918.26	0.859
1926.96	0.862
1935.66	0.863
1944.35	0.85
1953.05	0.832
1961.74	0.827
1970.44	0.809
1979.13	0.785
1987.83	0.768
1996.53	0.746
2005.22	0.745
2013.92	0.738
2022.61	0.7229
2031.31	0.7058
2040	0.6736
2048.7	0.6359
2057.4	0.6008
2066.09	0.5669
2074.79	0.5591
2083.48	0.5681
2092.18	0.572
2100.87	0.5722
2109.57	0.5722
2118.26	0.582
2126.96	0.5903
2135.66	0.6082
2144.35	0.631
2153.05	0.6504
2161.74	0.6777
2170.44	0.7001
2179.13	0.712
2187.83	0.7171
2196.53	0.7178
2205.22	0.7097
2213.92	0.7
2222.61	0.6845
2231.31	0.6639
2240	0.643
2248.7	0.6282
2257.4	0.6124
2266.09	0.6071
2274.79	0.5957
2283.48	0.5773
2292.18	0.5583
2300.87	0.539
2309.57	0.521
2318.27	0.4997
2326.96	0.4777
2335.66	0.4687
2344.35	0.4602
2353.05	0.4495
2361.74	0.4347
2370.44	0.4277
2379.13	0.4225
2387.83	0.414
2396.53	0.3964
2405.22	0.3767
2413.92	0.36
2422.61	0.3389
2431.31	0.3159
2440	0.2912
2448.7	0.2738
2457.4	0.2542
2466.09	0.2332
2474.79	0.215
2483.48	0.1994
2492.18	0.183
2500.87	0.1694
2509.57	0.1549
2518.27	0.1323
2526.96	0.1216
2535.66	0.1066
2544.35	0.0947
2553.05	0.085
2561.74	0.0756
2570.44	0.0676
2579.14	0.0655
2587.83	0.0625
2596.53	0.06
2605.22	0.059
2613.92	0.06
2622.61	0.0656
2631.31	0.0796
2640.01	0.0957
2648.7	0.107
2657.4	0.1161
2666.09	0.1301
2674.79	0.1501
2683.48	0.184
2692.18	0.2054
2700.87	0.2187
2709.57	0.2291
2718.27	0.232
2726.96	0.227
2735.66	0.2152
2744.35	0.1992
2753.05	0.1805
2761.74	0.1685
2770.44	0.161
2779.14	0.163
2787.83	0.1577
2796.53	0.1523
2805.22	0.143
2813.92	0.1313
2822.61	0.1173
2831.31	0.1053
2840.01	0.0976
2848.7	0.087
2857.4	0.0877
2866.09	0.091
2874.79	0.0967
2883.48	0.102
2892.18	0.1075
2900.88	0.1165
2909.57	0.121
2918.27	0.125
2926.96	0.1353
2935.66	0.1496
2944.35	0.1638
2953.05	0.1718
2961.75	0.178
2970.44	0.1938
2979.14	0.2096
2987.83	0.2238
2996.53	0.2451
3005.22	0.2805
3013.92	0.3055
3022.61	0.307
3031.31	0.3184
3040.01	0.3474
3048.7	0.355
3057.4	0.3585
3066.09	0.397
3074.79	0.4462
3083.48	0.4913
3092.18	0.5174
3100.88	0.5268
3109.57	0.5369
3118.27	0.5584
3126.96	0.5816
3135.66	0.6087
3144.35	0.6376
3153.05	0.6698
3161.75	0.6929
3170.44	0.7109
3179.14	0.725
3187.83	0.734
3196.53	0.748
3205.22	0.774
3213.92	0.794
3222.62	0.814
3231.31	0.831
3240.01	0.8431
3248.7	0.8541
3257.4	0.869
3266.09	0.88
3274.79	0.8891
3283.48	0.8921
3292.18	0.896
3300.88	0.902
3309.57	0.903
3318.27	0.9
3326.96	0.9002
3335.66	0.8999
3344.35	0.899
3353.05	0.8969
3361.75	0.893
3370.44	0.8929
3379.14	0.893
3387.83	0.889
3396.53	0.889
3405.22	0.888
3413.92	0.8878
3422.62	0.8848
3431.31	0.884
3440.01	0.882
3448.7	0.8812
3457.4	0.8818
3466.09	0.878
3474.79	0.878
3483.49	0.8768
3492.18	0.8762
3500.88	0.8755
3509.57	0.872
3518.27	0.872
3526.96	0.872
3535.66	0.872
3544.36	0.872
3553.05	0.872
3561.75	0.87
3570.44	0.869
3579.14	0.866
3587.83	0.8693
3596.53	0.8697
3605.22	0.869
3613.92	0.869
3622.62	0.8673
3631.31	0.866
3640.01	0.8656
3648.7	0.863
3657.4	0.861
3666.09	0.859
3674.79	0.859
3683.49	0.858
3692.18	0.857
3700.88	0.8546
3709.57	0.851
3718.27	0.851
3726.96	0.85
3735.66	0.8476
3744.36	0.843
3753.05	0.84
3761.75	0.839
3770.44	0.838
3779.14	0.836
3787.83	0.835
