Infrared Spectrum: 1,4-CYCLOHEXANEDIAMINE DIHYDROCHLORIDE
Formula: C6 H16 Cl2 N2
State: SOLID (1 mg / 500 mg KBr DISC)
Class: COBLENTZ III
Instrument: PERKIN-ELMER 521 (GRATING)
Sampling: TRANSMISSION
Resolution: 4
Origin: SOUTHERN RESEARCH INSTITUTE
1/CM	TRANSMITTANCE
255.906	0.239
266.405	0.306
276.904	0.366
287.402	0.443
297.901	0.545
308.4	0.613
318.899	0.649
329.397	0.657
339.896	0.641
350.395	0.583
360.894	0.485
371.392	0.6489
381.891	0.723
392.39	0.76
402.889	0.768
413.387	0.764
423.886	0.767
434.385	0.781
444.884	0.772
455.382	0.742
465.881	0.778
476.38	0.7671
486.879	0.6586
497.377	0.722
507.876	0.773
518.375	0.79
528.874	0.793
539.372	0.797
549.871	0.799
560.37	0.799
570.869	0.799
581.367	0.802
591.866	0.801
602.365	0.803
612.864	0.807
623.362	0.814
633.861	0.818
644.36	0.801
654.859	0.819
665.357	0.742
675.856	0.828
686.355	0.836
696.854	0.84
707.352	0.846
717.851	0.849
728.35	0.85
738.849	0.85
749.347	0.848
759.846	0.848
770.345	0.825
780.844	0.833
791.342	0.846
801.841	0.84
812.34	0.836
822.839	0.849
833.337	0.849
843.836	0.845
854.335	0.844
864.834	0.837
875.332	0.833
885.831	0.832
896.33	0.841
906.829	0.845
917.327	0.844
927.826	0.824
938.325	0.825
948.824	0.833
959.322	0.829
969.821	0.837
980.32	0.833
990.819	0.829
1001.32	0.807
1011.82	0.712
1022.31	0.739
1032.81	0.721
1043.31	0.7819
1053.81	0.6889
1064.31	0.824
1074.81	0.823
1085.31	0.807
1095.81	0.693
1106.3	0.781
1116.8	0.816
1127.3	0.708
1137.8	0.803
1148.3	0.812
1158.8	0.798
1169.3	0.761
1179.8	0.806
1190.29	0.777
1200.79	0.6641
1211.29	0.807
1221.79	0.816
1232.29	0.757
1242.79	0.815
1253.29	0.818
1263.79	0.791
1274.28	0.79
1284.78	0.824
1295.28	0.825
1305.78	0.819
1316.28	0.816
1326.78	0.808
1337.28	0.77
1347.78	0.799
1358.27	0.795
1368.77	0.769
1379.27	0.718
1389.77	0.633
1400.27	0.7061
1410.77	0.785
1421.27	0.778
1431.77	0.751
1442.26	0.693
1452.76	0.634
1463.26	0.742
1473.76	0.738
1484.26	0.696
1494.76	0.5009
1505.26	0.3449
1515.76	0.6641
1526.25	0.767
1536.75	0.774
1547.25	0.774
1557.75	0.781
1568.25	0.772
1578.75	0.736
1589.25	0.634
1599.75	0.532
1610.24	0.4512
1620.74	0.701
1631.24	0.736
1641.74	0.752
1652.24	0.774
1662.74	0.79
1673.24	0.794
1683.74	0.802
1694.23	0.812
1704.73	0.829
1715.23	0.836
1725.73	0.839
1736.23	0.839
1746.73	0.833
1757.23	0.832
1767.73	0.829
1778.22	0.827
1788.72	0.827
1799.22	0.825
1809.72	0.824
1820.22	0.816
1830.72	0.82
1841.22	0.818
1851.72	0.815
1862.21	0.816
1872.71	0.82
1883.21	0.821
1893.71	0.818
1904.21	0.806
1914.71	0.81
1925.21	0.808
1935.71	0.801
1946.2	0.782
1956.7	0.778
1967.2	0.773
1977.7	0.753
1988.2	0.731
1998.7	0.7
2009.2	0.687
2019.7	0.674
2030.19	0.653
2040.69	0.6041
2051.19	0.6158
2061.69	0.7046
2072.19	0.7558
2082.69	0.785
2093.19	0.789
2103.69	0.7949
2114.18	0.7989
2124.68	0.807
2135.18	0.811
2145.68	0.8079
2156.18	0.81
2166.68	0.81
2177.18	0.807
2187.68	0.807
2198.17	0.807
2208.67	0.807
2219.17	0.806
2229.67	0.8043
2240.17	0.803
2250.67	0.7887
2261.17	0.79
2271.67	0.7942
2282.16	0.7948
2292.66	0.798
2303.16	0.794
2313.66	0.79
2324.16	0.787
2334.66	0.786
2345.16	0.7732
2355.66	0.767
2366.15	0.757
2376.65	0.76
2387.15	0.7523
2397.65	0.7318
2408.15	0.7369
2418.65	0.7513
2429.15	0.743
2439.65	0.73
2450.14	0.73
2460.64	0.7213
2471.14	0.6972
2481.64	0.6783
2492.14	0.6536
2502.64	0.6103
2513.14	0.535
2523.64	0.5217
2534.13	0.6176
2544.63	0.6244
2555.13	0.5737
2565.63	0.5885
2576.13	0.647
2586.63	0.6253
2597.13	0.5449
2607.63	0.467
2618.12	0.53
2628.62	0.5426
2639.12	0.5574
2649.62	0.5549
2660.12	0.561
2670.62	0.5474
2681.12	0.5318
2691.62	0.4866
2702.11	0.4986
2712.61	0.513
2723.11	0.4947
2733.61	0.4449
2744.11	0.4745
2754.61	0.479
2765.11	0.4345
2775.61	0.404
2786.1	0.389
2796.6	0.3701
2807.1	0.3501
2817.6	0.3072
2828.1	0.2756
2838.6	0.2588
2849.1	0.239
2859.6	0.209
2870.09	0.1697
2880.59	0.162
2891.09	0.157
2901.59	0.1496
2912.09	0.1352
2922.59	0.13
2933.09	0.136
2943.59	0.149
2954.08	0.1481
2964.58	0.1797
2975.08	0.2067
2985.58	0.2027
2996.08	0.2083
3006.58	0.208
3017.08	0.211
3027.58	0.2313
3038.07	0.2506
3048.57	0.2723
3059.07	0.3122
3069.57	0.3499
3080.07	0.3884
3090.57	0.4251
3101.07	0.4423
3111.57	0.4591
3122.06	0.487
3132.56	0.525
3143.06	0.5712
3153.56	0.6049
3164.06	0.6305
3174.56	0.6502
3185.06	0.651
3195.56	0.6434
3206.05	0.647
3216.55	0.6556
3227.05	0.684
3237.55	0.7044
3248.05	0.713
3258.55	0.719
3269.05	0.721
3279.55	0.723
3290.04	0.723
3300.54	0.721
3311.04	0.7149
3321.54	0.7077
3332.04	0.697
3342.54	0.6849
3353.04	0.6709
3363.54	0.651
3374.03	0.6339
3384.53	0.6188
3395.03	0.6069
3405.53	0.5959
3416.03	0.592
3426.53	0.5909
3437.03	0.5901
3447.53	0.595
3458.02	0.603
3468.52	0.611
3479.02	0.619
3489.52	0.629
3500.02	0.642
3510.52	0.651
3521.02	0.666
3531.52	0.676
3542.01	0.691
3552.51	0.706
3563.01	0.719
3573.51	0.7339
3584.01	0.751
3594.51	0.7638
3605.01	0.7839
3615.51	0.7949
3626	0.8118
3636.5	0.825
3647	0.829
3657.5	0.836
3668	0.833
3678.5	0.835
3689	0.8445
3699.5	0.853
3709.99	0.854
3720.49	0.854
3730.99	0.856
3741.49	0.856
3751.99	0.856
3762.49	0.854
3772.99	0.854
3783.49	0.854
3793.98	0.856
3804.48	0.856
3814.98	0.856
3825.48	0.856
3835.98	0.856
3846.48	0.8532
3856.98	0.856
3867.48	0.854
3877.97	0.854
3888.47	0.854
3898.97	0.854
3909.47	0.856
3919.97	0.854
3930.47	0.856
3940.97	0.856
3951.47	0.856
3961.96	0.856
3972.46	0.853
3982.96	0.8563
3993.46	0.8584
4003.96	0.865
