Infrared Spectrum: m-TOLUIC ACID, 4-(TRIFLUOROACETAMIDO)-
Formula: C10 H8 F3 N O3
State: SOLID (1 mg / 650 mg KBr DISC)
Class: COBLENTZ III
Instrument: PERKIN-ELMER 521 (GRATING)
Instrument parameters: GRATING CHANGES AT 2000, 620, FILTERS AT 3130, 2475, 2000, 1150, 700, 410 CM^-^1
Sampling: TRANSMISSION
Resolution: 4
Origin: SOUTHERN RESEARCH INSTITUTE
1/CM	TRANSMITTANCE
236.451	0.256
246.072	0.313
255.692	0.382
265.313	0.444
274.933	0.48
284.554	0.531
294.174	0.586
303.795	0.614
313.415	0.62
323.036	0.63
332.656	0.669
342.277	0.697
351.897	0.724
361.518	0.748
371.139	0.755
380.759	0.755
390.38	0.74
400	0.767
409.621	0.77
419.241	0.749
428.862	0.751
438.482	0.679
448.103	0.719
457.723	0.781
467.344	0.804
476.964	0.809
486.585	0.808
496.205	0.8
505.826	0.749
515.447	0.741
525.067	0.762
534.688	0.768
544.308	0.749
553.929	0.728
563.549	0.695
573.17	0.78
582.79	0.8
592.411	0.805
602.031	0.804
611.652	0.798
621.272	0.79
630.893	0.773
640.514	0.752
650.134	0.755
659.755	0.724
669.375	0.688
678.996	0.661
688.616	0.696
698.237	0.706
707.857	0.782
717.478	0.624
727.098	0.781
736.719	0.824
746.339	0.758
755.96	0.564
765.581	0.658
775.201	0.808
784.822	0.831
794.442	0.8
804.063	0.818
813.683	0.833
823.304	0.817
832.924	0.741
842.545	0.692
852.165	0.819
861.786	0.805
871.406	0.793
881.027	0.77
890.647	0.687
900.268	0.697
909.889	0.616
919.509	0.553
929.13	0.676
938.75	0.704
948.371	0.765
957.991	0.781
967.612	0.782
977.232	0.8
986.853	0.796
996.473	0.789
1006.09	0.79
1015.71	0.789
1025.33	0.777
1034.96	0.761
1044.58	0.783
1054.2	0.78
1063.82	0.777
1073.44	0.77
1083.06	0.75
1092.68	0.711
1102.3	0.687
1111.92	0.632
1121.54	0.545
1131.16	0.497
1140.78	0.385
1150.4	0.232
1160.02	0.123
1169.64	0.158
1179.26	0.145
1188.88	0.177
1198.5	0.218
1208.13	0.443
1217.75	0.596
1227.37	0.622
1236.99	0.524
1246.61	0.39
1256.23	0.448
1265.85	0.222
1275.47	0.448
1285.09	0.396
1294.71	0.444
1304.33	0.334
1313.95	0.492
1323.57	0.609
1333.19	0.597
1342.81	0.65
1352.43	0.693
1362.05	0.701
1371.67	0.682
1381.29	0.686
1390.92	0.613
1400.54	0.583
1410.16	0.559
1419.78	0.406
1429.4	0.483
1439.02	0.62
1448.64	0.677
1458.26	0.728
1467.88	0.751
1477.5	0.737
1487.12	0.696
1496.74	0.711
1506.36	0.687
1515.98	0.581
1525.6	0.357
1535.22	0.274
1544.84	0.575
1554.46	0.718
1564.09	0.754
1573.71	0.684
1583.33	0.435
1592.95	0.459
1602.57	0.555
1612.19	0.71
1621.81	0.754
1631.43	0.733
1641.05	0.688
1650.67	0.62
1660.29	0.475
1669.91	0.256
1679.53	0.158
1689.15	0.153
1698.77	0.146
1708.39	0.127
1718.01	0.214
1727.63	0.36
1737.25	0.462
1746.88	0.555
1756.5	0.664
1766.12	0.708
1775.74	0.728
1785.36	0.748
1794.98	0.754
1804.6	0.759
1814.22	0.772
1823.84	0.781
1833.46	0.788
1843.08	0.795
1852.7	0.8
1862.32	0.804
1871.94	0.808
1881.56	0.811
1891.18	0.818
1900.8	0.82
1910.42	0.819
1920.04	0.818
1929.67	0.83
1939.29	0.832
1948.91	0.834
1958.53	0.836
1968.15	0.84
1977.77	0.842
1987.39	0.843
1997.01	0.842
2006.63	0.84
2016.25	0.84
2025.87	0.84
2035.49	0.841
2045.11	0.844
2054.73	0.846
2064.35	0.85
2073.97	0.85
2083.59	0.849
2093.21	0.849
2102.84	0.85
2112.46	0.851
2122.08	0.849
2131.7	0.848
2141.32	0.845
2150.94	0.843
2160.56	0.841
2170.18	0.839
2179.8	0.838
2189.42	0.838
2199.04	0.839
2208.66	0.839
2218.28	0.838
2227.9	0.838
2237.52	0.836
2247.14	0.836
2256.76	0.834
2266.38	0.832
2276	0.829
2285.63	0.826
2295.25	0.823
2304.87	0.821
2314.49	0.817
2324.11	0.816
2333.73	0.813
2343.35	0.803
2352.97	0.801
2362.59	0.8
2372.21	0.798
2381.83	0.795
2391.45	0.789
2401.07	0.786
2410.69	0.784
2420.31	0.779
2429.93	0.77
2439.55	0.763
2449.17	0.754
2458.79	0.75
2468.42	0.735
2478.04	0.723
2487.66	0.716
2497.28	0.7
2506.9	0.69
2516.52	0.668
2526.14	0.663
2535.76	0.662
2545.38	0.662
2555	0.662
2564.62	0.664
2574.24	0.663
2583.86	0.665
2593.48	0.672
2603.1	0.675
2612.72	0.672
2622.34	0.666
2631.96	0.66
2641.59	0.646
2651.21	0.644
2660.83	0.643
2670.45	0.647
2680.07	0.658
2689.69	0.665
2699.31	0.667
2708.93	0.676
2718.55	0.68
2728.17	0.682
2737.79	0.682
2747.41	0.679
2757.03	0.672
2766.65	0.661
2776.27	0.647
2785.89	0.628
2795.51	0.616
2805.13	0.608
2814.75	0.597
2824.38	0.588
2834	0.586
2843.62	0.578
2853.24	0.571
2862.86	0.563
2872.48	0.563
2882.1	0.567
2891.72	0.571
2901.34	0.571
2910.96	0.567
2920.58	0.57
2930.2	0.572
2939.82	0.575
2949.44	0.569
2959.06	0.565
2968.68	0.563
2978.3	0.563
2987.92	0.563
2997.54	0.566
3007.17	0.568
3016.79	0.573
3026.41	0.575
3036.03	0.57
3045.65	0.565
3055.27	0.56
3064.89	0.554
3074.51	0.556
3084.13	0.561
3093.75	0.579
3103.37	0.6
3112.99	0.602
3122.61	0.609
3132.23	0.627
3141.85	0.633
3151.47	0.642
3161.09	0.646
3170.71	0.647
3180.34	0.649
3189.96	0.649
3199.58	0.646
3209.2	0.637
3218.82	0.627
3228.44	0.603
3238.06	0.567
3247.68	0.527
3257.3	0.473
3266.92	0.413
3276.54	0.357
3286.16	0.339
3295.78	0.364
3305.4	0.428
3315.02	0.503
3324.64	0.571
3334.26	0.619
3343.88	0.656
3353.5	0.684
3363.13	0.705
3372.75	0.719
3382.37	0.733
3391.99	0.744
3401.61	0.748
3411.23	0.75
3420.85	0.751
3430.47	0.752
3440.09	0.758
3449.71	0.766
3459.33	0.771
3468.95	0.778
3478.57	0.784
3488.19	0.786
3497.81	0.789
3507.43	0.795
3517.05	0.799
3526.67	0.803
3536.29	0.807
3545.92	0.811
3555.54	0.815
3565.16	0.819
3574.78	0.824
3584.4	0.827
3594.02	0.831
3603.64	0.835
3613.26	0.84
3622.88	0.842
3632.5	0.845
3642.12	0.846
3651.74	0.848
3661.36	0.848
3670.98	0.848
3680.6	0.848
3690.22	0.849
3699.84	0.851
3709.46	0.851
3719.09	0.851
3728.71	0.851
3738.33	0.851
3747.95	0.849
3757.57	0.851
3767.19	0.852
3776.81	0.852
3786.43	0.852
3796.05	0.852
3805.67	0.852
