Infrared Spectrum: 1,2-BENZENEDICARBOXYLIC ACID, BIS(HEPTYL, NONYL, UNDECYL) ESTER
Formula: C22-30 H34-50 O4
State: SOLUTION (10% IN CCl4 FOR 4000-1330, 10% IN CS2 FOR 1330-420 CM^-^1) VS. SOLVENT
Class: COBLENTZ III
Instrument: PERKIN-ELMER 180
Sampling: TRANSMISSION
Path length: 0.011, 0.011 CM
Resolution: 4
Origin: DOW CHEMICAL COMPANY
1/CM	TRANSMITTANCE
409.137	0.955
418.274	0.969
427.411	0.975
436.548	0.979
445.685	0.98
454.822	0.979
463.96	0.977
473.097	0.974
482.234	0.968
491.371	0.968
500.508	0.973
509.645	0.965
518.782	0.968
527.919	0.97
537.056	0.969
546.193	0.969
555.33	0.961
564.467	0.943
573.605	0.942
582.742	0.982
591.879	0.992
601.016	0.995
610.153	0.997
619.29	1
628.427	1
637.564	0.988
646.701	0.896
655.838	0.961
664.975	0.985
674.112	0.976
683.25	0.926
692.387	0.7951
701.524	0.6441
710.661	0.792
719.798	0.7011
728.935	0.625
738.072	0.336
747.209	0.487
756.346	0.756
765.483	0.792
774.62	0.799
783.758	0.806
792.895	0.833
802.032	0.905
811.169	0.929
820.306	0.935
829.443	0.934
838.58	0.934
847.717	0.935
856.854	0.925
865.991	0.915
875.128	0.911
884.265	0.907
893.403	0.905
902.54	0.893
911.677	0.898
920.814	0.882
929.951	0.856
939.088	0.835
948.225	0.779
957.362	0.706
966.499	0.68
975.636	0.746
984.773	0.807
993.911	0.844
1003.05	0.851
1012.18	0.85
1021.32	0.837
1030.46	0.752
1039.6	0.51
1048.73	0.714
1057.87	0.5741
1067.01	0.2051
1076.14	0.2329
1085.28	0.6009
1094.42	0.73
1103.56	0.655
1112.69	0.282
1121.83	0.07
1130.97	0.109
1140.1	0.2081
1149.24	0.5829
1158.38	0.705
1167.52	0.805
1176.65	0.839
1185.79	0.839
1194.93	0.831
1204.06	0.821
1213.2	0.796
1222.34	0.734
1231.47	0.618
1240.61	0.3421
1249.75	0.1531
1258.89	0.043
1268.02	0.008
1277.16	0.009
1286.3	0.011
1295.43	0.106
1304.57	0.301
1313.71	0.509
1322.85	0.617
1331.98	0.71
1341.12	0.735
1350.26	0.742
1359.39	0.745
1368.53	0.674
1377.67	0.504
1386.81	0.561
1395.94	0.803
1405.08	0.859
1414.22	0.866
1423.35	0.848
1432.49	0.735
1441.63	0.5951
1450.76	0.423
1459.9	0.313
1469.04	0.301
1478.18	0.746
1487.31	0.723
1496.45	0.884
1505.59	0.912
1514.72	0.93
1523.86	0.943
1533	0.955
1542.14	0.973
1551.27	0.969
1560.41	0.944
1569.55	0.899
1578.68	0.696
1587.82	0.874
1596.96	0.7679
1606.1	0.8759
1615.23	0.92
1624.37	0.92
1633.51	0.918
1642.64	0.916
1651.78	0.904
1660.92	0.891
1670.05	0.858
1679.19	0.793
1688.33	0.725
1697.47	0.654
1706.6	0.461
1715.74	0.079
1724.88	0.004
1734.01	0.006
1743.15	0.1
1752.29	0.487
1761.43	0.721
1770.56	0.807
1779.7	0.861
1788.84	0.894
1797.97	0.916
1807.11	0.925
1816.25	0.935
1825.39	0.936
1834.52	0.929
1843.66	0.942
1852.8	0.957
1861.93	0.956
1871.07	0.958
1880.21	0.965
1889.34	0.969
1898.48	0.968
1907.62	0.962
1916.76	0.963
1925.89	0.96
1935.03	0.947
1944.17	0.948
1953.3	0.966
1962.44	0.961
1971.58	0.952
1980.72	0.971
1989.85	0.975
1998.99	0.973
2008.13	0.969
2017.26	0.971
2026.4	0.969
2035.54	0.968
2044.68	0.969
2053.81	0.9695
2062.95	0.969
2072.09	0.9665
2081.22	0.969
2090.36	0.97
2099.5	0.969
2108.64	0.9676
2117.77	0.9691
2126.91	0.9706
2136.05	0.9709
2145.18	0.968
2154.32	0.9701
2163.46	0.973
2172.59	0.97
2181.73	0.97
2190.87	0.971
2200.01	0.97
2209.14	0.97
2218.28	0.9726
2227.42	0.97
2236.55	0.97
2245.69	0.97
2254.83	0.9716
2263.97	0.973
2273.1	0.973
2282.24	0.9751
2291.38	0.9754
2300.51	0.9719
2309.65	0.9693
2318.79	0.9678
2327.93	0.966
2337.06	0.968
2346.2	0.967
2355.34	0.969
2364.47	0.966
2373.61	0.963
2382.75	0.9627
2391.88	0.9638
2401.02	0.96
2410.16	0.963
2419.3	0.9677
2428.43	0.9722
2437.57	0.974
2446.71	0.976
2455.84	0.978
2464.98	0.978
2474.12	0.9765
2483.26	0.976
2492.39	0.975
2501.53	0.9728
2510.67	0.971
2519.8	0.9685
2528.94	0.964
2538.08	0.9627
2547.22	0.962
2556.35	0.9617
2565.49	0.958
2574.63	0.9564
2583.76	0.952
2592.9	0.952
2602.04	0.952
2611.17	0.951
2620.31	0.952
2629.45	0.95
2638.59	0.9482
2647.72	0.9447
2656.86	0.9402
2666	0.9357
2675.13	0.9302
2684.27	0.9337
2693.41	0.9398
2702.55	0.9403
2711.68	0.9343
2720.82	0.9276
2729.96	0.9171
2739.09	0.9224
2748.23	0.922
2757.37	0.922
2766.51	0.9221
2775.64	0.9166
2784.78	0.9033
2793.92	0.8888
2803.05	0.8676
2812.19	0.8329
2821.33	0.7764
2830.46	0.6909
2839.6	0.5445
2848.74	0.2175
2857.88	0.0748
2867.01	0.161
2876.15	0.2057
2885.29	0.3107
2894.42	0.2053
2903.56	0.1132
2912.7	0.0519
2921.84	0.0102
2930.97	0.006
2940.11	0.0305
2949.25	0.055
2958.38	0.0295
2967.52	0.0696
2976.66	0.2787
2985.8	0.5397
2994.93	0.6945
3004.07	0.787
3013.21	0.835
3022.34	0.861
3031.48	0.871
3040.62	0.891
3049.75	0.8854
3058.89	0.8649
3068.03	0.8515
3077.17	0.8657
3086.3	0.9282
3095.44	0.94
3104.58	0.9468
3113.71	0.9541
3122.85	0.9586
3131.99	0.961
3141.13	0.962
3150.26	0.9579
3159.4	0.96
3168.54	0.9619
3177.67	0.961
3186.81	0.9641
3195.95	0.9686
3205.09	0.971
3214.22	0.973
3223.36	0.976
3232.5	0.9786
3241.63	0.981
3250.77	0.9794
3259.91	0.981
3269.04	0.981
3278.18	0.981
3287.32	0.98
3296.46	0.98
3305.59	0.9807
3314.73	0.9812
3323.87	0.982
3333	0.9818
3342.14	0.981
3351.28	0.981
3360.42	0.981
3369.55	0.981
3378.69	0.9803
3387.83	0.98
3396.96	0.98
3406.1	0.976
3415.24	0.9713
3424.38	0.9594
3433.51	0.9503
3442.65	0.9514
3451.79	0.9587
3460.92	0.9705
3470.06	0.9805
3479.2	0.9862
3488.34	0.988
3497.47	0.987
3506.61	0.985
3515.75	0.985
3524.88	0.985
3534.02	0.986
3543.16	0.986
3552.29	0.986
3561.43	0.986
3570.57	0.9873
3579.71	1.0018
3588.84	0.9884
3597.98	0.983
3607.12	0.9807
3616.25	0.9782
3625.39	0.978
3634.53	0.978
3643.67	0.977
3652.8	0.9752
3661.94	0.9773
3671.08	0.9772
3680.21	0.974
3689.35	0.974
3698.49	0.9773
3707.63	0.9771
3716.76	0.9754
3725.9	0.978
3735.04	0.9756
3744.17	0.975
3753.31	0.975
3762.45	0.9752
3771.58	0.9754
3780.72	0.977
3789.86	0.976
3799	0.9769
3808.13	0.978
3817.27	0.9771
3826.41	0.977
3835.54	0.977
3844.68	0.977
3853.82	0.977
3862.96	0.975
3872.09	0.9769
3881.23	0.977
3890.37	0.977
3899.5	0.976
3908.64	0.974
3917.78	0.9735
3926.92	0.973
3936.05	0.9735
3945.19	0.974
3954.33	0.974
3963.46	0.974
3972.6	0.9715
3981.74	0.973
3990.87	0.9705
