Infrared Spectrum: BENZENE, Beta-DEUTEROETHYNYL-
Formula: C8 H5 D
State: GAS (VAPOR PRESSURE OF LIQUID AT ROOM TEMPERATURE)
Class: COBLENTZ
Instrument: Not specified, most likely a prism, grating, or hybrid spectrometer.
Sampling: TRANSMISSION
Path length: 400 CM CELL
Resolution: 2
Origin: DOW CHEMICAL COMPANY
1/CM	TRANSMITTANCE
456.596	0.91
465.532	0.7044
474.468	0.0684
483.405	0.018
492.341	0.4648
501.277	0.9879
510.213	0.964
519.149	0.7408
528.086	0.394
537.022	0.5139
545.958	0.92
554.894	1.022
563.831	1.044
572.767	1.048
581.703	1.054
590.639	1.044
599.575	0.994
608.512	0.8128
617.448	0.8599
626.384	0.976
635.32	0.934
644.256	0.8579
653.193	0.882
662.129	0.784
671.065	0.4202
680.001	0.2241
688.938	0.1659
697.874	0.3037
706.81	0.7234
715.746	0.9399
724.682	0.904
733.619	0.4964
742.555	0.12
751.491	0.022
760.427	0.066
769.363	0.4278
778.3	0.882
787.236	0.988
796.172	0.994
805.108	0.984
814.045	0.97
822.981	0.9779
831.917	1.006
840.853	1.012
849.789	1
858.726	0.934
867.662	0.906
876.598	0.8859
885.534	0.908
894.47	0.91
903.407	0.842
912.343	0.5364
921.279	0.85
930.215	0.916
939.152	0.8641
948.088	0.4401
957.024	0.492
965.96	0.8177
974.896	0.936
983.833	0.944
992.769	0.92
1001.71	0.8001
1010.64	0.728
1019.58	0.706
1028.51	0.7239
1037.45	0.824
1046.39	0.886
1055.32	0.7981
1064.26	0.73
1073.19	0.726
1082.13	0.832
1091.07	0.862
1100	0.872
1108.94	0.916
1117.88	0.944
1126.81	0.942
1135.75	0.932
1144.68	0.926
1153.62	0.908
1162.56	0.89
1171.49	0.876
1180.43	0.812
1189.37	0.834
1198.3	0.8881
1207.24	0.8941
1216.17	0.846
1225.11	0.8361
1234.05	0.904
1242.98	0.91
1251.92	0.92
1260.86	0.9
1269.79	0.884
1278.73	0.878
1287.66	0.89
1296.6	0.896
1305.54	0.902
1314.47	0.88
1323.41	0.884
1332.34	0.852
1341.28	0.862
1350.22	0.836
1359.15	0.794
1368.09	0.796
1377.03	0.842
1385.96	0.852
1394.9	0.846
1403.83	0.854
1412.77	0.832
1421.71	0.814
1430.64	0.6939
1439.58	0.6224
1448.52	0.616
1457.45	0.76
1466.39	0.7979
1475.32	0.6541
1484.26	0.22
1493.2	0.2
1502.13	0.708
1511.07	0.772
1520.01	0.778
1528.94	0.776
1537.88	0.774
1546.81	0.85
1555.75	0.7781
1564.69	0.808
1573.62	0.7261
1582.56	0.722
1591.5	0.684
1600.43	0.644
1609.37	0.7241
1618.3	0.834
1627.24	0.844
1636.18	0.836
1645.11	0.8201
1654.05	0.83
1662.98	0.774
1671.92	0.7441
1680.86	0.812
1689.79	0.848
1698.73	0.7901
1707.67	0.834
1716.6	0.772
1725.54	0.776
1734.47	0.756
1743.41	0.706
1752.35	0.758
1761.28	0.7681
1770.22	0.806
1779.16	0.834
1788.09	0.814
1797.03	0.748
1805.96	0.748
1814.9	0.814
1823.84	0.796
1832.77	0.83
1841.71	0.8141
1850.65	0.844
1859.58	0.83
1868.52	0.78
1877.45	0.792
1886.39	0.7379
1895.33	0.75
1904.26	0.81
1913.2	0.848
1922.14	0.818
1931.07	0.81
1940.01	0.738
1948.94	0.76
1957.88	0.754
1966.82	0.774
1975.75	0.826
1984.69	0.854
1993.62	0.852
2002.56	0.884
2011.5	0.889
2020.43	0.89
2029.37	0.889
2038.31	0.89
2047.24	0.886
2056.18	0.89
2065.11	0.889
2074.05	0.89
2082.99	0.886
2091.92	0.884
2100.86	0.877
2109.8	0.87
2118.73	0.859
2127.67	0.856
2136.6	0.864
2145.54	0.868
2154.48	0.874
2163.41	0.868
2172.35	0.871
2181.29	0.874
2190.22	0.869
2199.16	0.87
2208.09	0.871
2217.03	0.868
2225.97	0.866
2234.9	0.866
2243.84	0.851
2252.77	0.858
2261.71	0.855
2270.65	0.848
2279.58	0.858
2288.52	0.858
2297.46	0.861
2306.39	0.862
2315.33	0.844
2324.26	0.826
2333.2	0.836
2342.14	0.832
2351.07	0.83
2360.01	0.846
2368.95	0.845
2377.88	0.852
2386.82	0.852
2395.75	0.856
2404.69	0.854
2413.63	0.854
2422.56	0.852
2431.5	0.844
2440.44	0.843
2449.37	0.852
2458.31	0.847
2467.24	0.832
2476.18	0.833
2485.12	0.838
2494.05	0.846
2502.99	0.84
2511.93	0.835
2520.86	0.836
2529.8	0.84
2538.73	0.838
2547.67	0.829
2556.61	0.818
2565.54	0.793
2574.48	0.724
2583.41	0.5105
2592.35	0.2019
2601.29	0.0721
2610.22	0.012
2619.16	0.3266
2628.1	0.808
2637.03	0.822
2645.97	0.816
2654.9	0.819
2663.84	0.826
2672.78	0.83
2681.71	0.826
2690.65	0.822
2699.59	0.82
2708.52	0.829
2717.46	0.83
2726.39	0.819
2735.33	0.814
2744.27	0.812
2753.2	0.81
2762.14	0.802
2771.08	0.806
2780.01	0.81
2788.95	0.81
2797.88	0.806
2806.82	0.812
2815.76	0.816
2824.69	0.816
2833.63	0.814
2842.57	0.81
2851.5	0.807
2860.44	0.796
2869.37	0.796
2878.31	0.792
2887.25	0.786
2896.18	0.778
2905.12	0.782
2914.05	0.78
2922.99	0.777
2931.93	0.77
2940.86	0.762
2949.8	0.772
2958.74	0.778
2967.67	0.782
2976.61	0.768
2985.54	0.764
2994.48	0.768
3003.42	0.776
3012.35	0.752
3021.29	0.6959
3030.23	0.571
3039.16	0.4081
3048.1	0.367
3057.03	0.476
3065.97	0.3572
3074.91	0.172
3083.84	0.182
3092.78	0.2138
3101.72	0.265
3110.65	0.32
3119.59	0.5557
3128.52	0.7341
3137.46	0.781
3146.4	0.776
3155.33	0.761
3164.27	0.76
3173.21	0.785
3182.14	0.784
3191.08	0.778
3200.01	0.784
3208.95	0.787
3217.89	0.792
3226.82	0.792
3235.76	0.78
3244.69	0.792
3253.63	0.792
3262.57	0.785
3271.5	0.792
3280.44	0.782
3289.38	0.784
3298.31	0.772
3307.25	0.7399
3316.18	0.703
3325.12	0.682
3334.06	0.629
3342.99	0.642
3351.93	0.761
3360.87	0.778
3369.8	0.776
3378.74	0.78
3387.67	0.77
3396.61	0.776
3405.55	0.773
3414.48	0.776
3423.42	0.776
3432.36	0.774
3441.29	0.774
3450.23	0.772
3459.16	0.772
3468.1	0.772
3477.04	0.775
3485.97	0.776
3494.91	0.779
3503.84	0.774
3512.78	0.782
3521.72	0.772
3530.65	0.775
3539.59	0.782
3548.53	0.776
3557.46	0.782
3566.4	0.7651
3575.33	0.782
3584.27	0.77
3593.21	0.764
3602.14	0.776
3611.08	0.762
3620.02	0.77
3628.95	0.758
3637.89	0.774
3646.82	0.752
3655.76	0.761
3664.7	0.7679
3673.63	0.746
3682.57	0.7561
3691.51	0.771
3700.44	0.774
3709.38	0.752
3718.31	0.762
3727.25	0.753
3736.19	0.756
3745.12	0.75
3754.06	0.768
3763	0.767
3771.93	0.766
3780.87	0.765
3789.8	0.76
3798.74	0.756
