Infrared Spectrum: IMIDAZOLE-4-CARBOXAMIDE, N-BUTYL-5-NITRO-
Formula: C8 H12 N4 O3
State: SOLID (1 mg / 650 mg KBr DISC)
Class: COBLENTZ III
Instrument: PERKIN-ELMER 21 (GRATING)
Instrument parameters: FILTER CHANGE AT 1025 CM^-^1
Sampling: TRANSMISSION
Resolution: 4
Origin: SOUTHERN RESEARCH INSTITUTE
1/CM	TRANSMITTANCE
605.303	0.545
614.505	0.5341
623.707	0.5295
632.909	0.5114
642.111	0.4922
651.312	0.465
660.514	0.5761
669.716	0.6132
678.918	0.63
688.12	0.6369
697.322	0.6424
706.524	0.647
715.726	0.65
724.927	0.65
734.129	0.6397
743.331	0.6342
752.533	0.6339
761.735	0.6479
770.937	0.6611
780.139	0.655
789.341	0.6522
798.542	0.6472
807.744	0.6241
816.946	0.5735
826.148	0.6181
835.35	0.6456
844.552	0.6332
853.754	0.5618
862.956	0.5423
872.157	0.5041
881.359	0.5847
890.561	0.6201
899.763	0.6443
908.965	0.6399
918.167	0.6191
927.369	0.5705
936.571	0.5267
945.772	0.4674
954.974	0.326
964.176	0.3477
973.378	0.636
982.58	0.7061
991.782	0.7195
1000.98	0.7186
1010.19	0.7106
1019.39	0.7017
1028.59	0.7041
1037.79	0.7136
1046.99	0.7047
1056.19	0.6938
1065.4	0.6799
1074.6	0.667
1083.8	0.6277
1093	0.5967
1102.2	0.6508
1111.41	0.6643
1120.61	0.6553
1129.81	0.6538
1139.01	0.6434
1148.21	0.639
1157.42	0.6533
1166.62	0.6634
1175.82	0.6623
1185.02	0.656
1194.22	0.6476
1203.42	0.6268
1212.63	0.5979
1221.83	0.5192
1231.03	0.4451
1240.23	0.508
1249.43	0.4627
1258.64	0.2878
1267.84	0.4869
1277.04	0.6107
1286.24	0.5617
1295.44	0.5281
1304.65	0.4545
1313.85	0.3803
1323.05	0.2942
1332.25	0.3006
1341.45	0.3363
1350.65	0.3236
1359.86	0.2126
1369.06	0.1716
1378.26	0.3188
1387.46	0.5105
1396.66	0.627
1405.87	0.6173
1415.07	0.5814
1424.27	0.5399
1433.47	0.4422
1442.67	0.3245
1451.88	0.3121
1461.08	0.346
1470.28	0.2866
1479.48	0.2711
1488.68	0.4158
1497.89	0.5018
1507.09	0.2655
1516.29	0.1629
1525.49	0.1843
1534.69	0.212
1543.89	0.214
1553.1	0.2422
1562.3	0.3627
1571.5	0.427
1580.7	0.4131
1589.9	0.3767
1599.11	0.4255
1608.31	0.4514
1617.51	0.4147
1626.71	0.3185
1635.91	0.1314
1645.12	0.1447
1654.32	0.2115
1663.52	0.2164
1672.72	0.2554
1681.92	0.4615
1691.12	0.5601
1700.33	0.6208
1709.53	0.64
1718.73	0.6608
1727.93	0.6713
1737.13	0.6847
1746.34	0.6943
1755.54	0.7026
1764.74	0.699
1773.94	0.696
1783.14	0.693
1792.35	0.6926
1801.55	0.6871
1810.75	0.6778
1819.95	0.6756
1829.15	0.673
1838.35	0.673
1847.56	0.673
1856.76	0.672
1865.96	0.6779
1875.16	0.68
1884.36	0.6848
1893.57	0.7044
1902.77	0.715
1911.97	0.72
1921.17	0.7305
1930.37	0.734
1939.58	0.7378
1948.78	0.7457
1957.98	0.748
1967.18	0.7505
1976.38	0.757
1985.58	0.76
1994.79	0.765
2003.99	0.768
2013.19	0.769
2022.39	0.769
2031.59	0.77
2040.8	0.773
2050	0.775
2059.2	0.777
2068.4	0.777
2077.6	0.777
2086.81	0.777
2096.01	0.775
2105.21	0.775
2114.41	0.775
2123.61	0.775
2132.81	0.777
2142.02	0.775
2151.22	0.774
2160.42	0.771
2169.62	0.77
2178.82	0.768
2188.03	0.766
2197.23	0.766
2206.43	0.762
2215.63	0.761
2224.83	0.757
2234.04	0.7559
2243.24	0.753
2252.44	0.745
2261.64	0.745
2270.84	0.74
2280.04	0.7269
2289.25	0.7049
2298.45	0.6849
2307.65	0.6669
2316.85	0.6549
2326.05	0.648
2335.26	0.646
2344.46	0.64
2353.66	0.638
2362.86	0.64
2372.06	0.639
2381.27	0.636
2390.47	0.6289
2399.67	0.6179
2408.87	0.605
2418.07	0.5969
2427.27	0.5759
2436.48	0.5619
2445.68	0.555
2454.88	0.549
2464.08	0.5389
2473.28	0.5239
2482.49	0.5069
2491.69	0.483
2500.89	0.4729
2510.09	0.4649
2519.29	0.463
2528.5	0.453
2537.7	0.442
2546.9	0.4309
2556.1	0.423
2565.3	0.424
2574.5	0.425
2583.71	0.424
2592.91	0.42
2602.11	0.411
2611.31	0.407
2620.51	0.406
2629.72	0.407
2638.92	0.422
2648.12	0.424
2657.32	0.423
2666.52	0.4139
2675.73	0.4019
2684.93	0.386
2694.13	0.378
2703.33	0.37
2712.53	0.366
2721.73	0.366
2730.94	0.366
2740.14	0.3589
2749.34	0.352
2758.54	0.352
2767.74	0.352
2776.95	0.353
2786.15	0.359
2795.35	0.365
2804.55	0.369
2813.75	0.37
2822.96	0.369
2832.16	0.361
2841.36	0.3459
2850.56	0.3279
2859.76	0.323
2868.96	0.322
2878.17	0.317
2887.37	0.305
2896.57	0.298
2905.77	0.289
2914.97	0.287
2924.18	0.29
2933.38	0.296
2942.58	0.306
2951.78	0.3222
2960.98	0.3811
2970.19	0.424
2979.39	0.4421
2988.59	0.453
2997.79	0.461
3006.99	0.463
3016.19	0.465
3025.4	0.4671
3034.6	0.474
3043.8	0.4801
3053	0.49
3062.2	0.4961
3071.41	0.504
3080.61	0.5201
3089.81	0.5321
3099.01	0.542
3108.21	0.553
3117.42	0.5601
3126.62	0.564
3135.82	0.568
3145.02	0.574
3154.22	0.5891
3163.42	0.5981
3172.63	0.604
3181.83	0.605
3191.03	0.605
3200.23	0.606
3209.43	0.602
3218.64	0.596
3227.84	0.5839
3237.04	0.5719
3246.24	0.5529
3255.44	0.5319
3264.65	0.4819
3273.85	0.4538
3283.05	0.4099
3292.25	0.3609
3301.45	0.3398
3310.65	0.322
3319.86	0.327
3329.06	0.3361
3338.26	0.3571
3347.46	0.3871
3356.66	0.4152
3365.87	0.4583
3375.07	0.5001
3384.27	0.5253
3393.47	0.5471
3402.67	0.562
3411.88	0.571
3421.08	0.5771
3430.28	0.5891
3439.48	0.597
3448.68	0.602
3457.88	0.608
3467.09	0.612
3476.29	0.618
3485.49	0.629
3494.69	0.634
3503.89	0.643
3513.1	0.65
3522.3	0.655
3531.5	0.659
3540.7	0.665
3549.9	0.673
3559.11	0.68
3568.31	0.694
3577.51	0.7111
3586.71	0.719
3595.91	0.726
3605.11	0.735
3614.32	0.7431
3623.52	0.752
3632.72	0.757
3641.92	0.7581
3651.12	0.76
3660.33	0.76
3669.53	0.76
3678.73	0.76
3687.93	0.76
3697.13	0.76
3706.34	0.761
3715.54	0.761
3724.74	0.762
3733.94	0.762
3743.14	0.764
3752.34	0.764
3761.55	0.766
3770.75	0.77
3779.95	0.7711
3789.15	0.773
3798.35	0.768
3807.56	0.766
3816.76	0.765
3825.96	0.764
3835.16	0.764
3844.36	0.765
3853.57	0.764
3862.77	0.761
3871.97	0.764
3881.17	0.764
3890.37	0.765
3899.57	0.765
3908.78	0.768
3917.98	0.766
3927.18	0.768
3936.38	0.766
3945.58	0.765
3954.79	0.765
3963.99	0.768
3973.19	0.769
3982.39	0.766
3991.59	0.768
4000.8	0.765
4010	0.757
