Infrared Spectrum: PIPERIDINE HYDROCHLORIDE
Formula: C5 H12 Cl N
State: SOLID (SPLIT MULL, FLUOROLUBE FOR 3800-1330 AND NUJOL FOR 1330-460 CM ^-^1)
Class: COBLENTZ III
Instrument: DOW KBr FOREPRISM-GRATING
Instrument parameters: BLAZED AT 3.5, 12.0, 20.0 MICRON, CHANGED AT 5.0, 7.5, 14.9 MICRON
Sampling: TRANSMISSION
Resolution: 4
Origin: DOW CHEMICAL COMPANY
1/CM	TRANSMITTANCE
455.806	0.874
464.472	0.871
473.137	0.871
481.803	0.874
490.468	0.878
499.134	0.879
507.799	0.882
516.465	0.886
525.13	0.889
533.796	0.889
542.461	0.885
551.127	0.843
559.792	0.716
568.458	0.887
577.123	0.9
585.789	0.904
594.454	0.91
603.12	0.914
611.785	0.917
620.451	0.921
629.116	0.929
637.782	0.932
646.447	0.94
655.113	0.941
663.778	0.941
672.444	0.945
681.109	0.948
689.775	0.95
698.44	0.944
707.106	0.935
715.771	0.912
724.437	0.916
733.102	0.931
741.768	0.936
750.433	0.94
759.099	0.944
767.764	0.943
776.43	0.945
785.095	0.945
793.761	0.945
802.426	0.94
811.092	0.945
819.757	0.943
828.423	0.933
837.088	0.937
845.754	0.939
854.419	0.931
863.085	0.933
871.75	0.932
880.416	0.933
889.081	0.933
897.747	0.935
906.413	0.932
915.078	0.932
923.744	0.932
932.409	0.905
941.075	0.805
949.74	0.917
958.406	0.931
967.071	0.933
975.737	0.936
984.402	0.939
993.068	0.94
1001.73	0.939
1010.4	0.936
1019.06	0.902
1027.73	0.7
1036.4	0.89
1045.06	0.916
1053.73	0.877
1062.39	0.92
1071.06	0.85
1079.72	0.833
1088.39	0.924
1097.05	0.933
1105.72	0.929
1114.38	0.931
1123.05	0.933
1131.72	0.931
1140.38	0.929
1149.05	0.927
1157.71	0.8809
1166.38	0.928
1175.04	0.902
1183.71	0.933
1192.37	0.933
1201.04	0.936
1209.71	0.937
1218.37	0.933
1227.04	0.935
1235.7	0.928
1244.37	0.916
1253.03	0.909
1261.7	0.893
1270.36	0.89
1279.03	0.9
1287.69	0.904
1296.36	0.895
1305.03	0.89
1313.69	0.86
1322.36	0.89
1331.02	0.878
1339.69	0.863
1348.35	0.848
1357.02	0.848
1365.68	0.866
1374.35	0.866
1383.02	0.831
1391.68	0.854
1400.35	0.89
1409.01	0.898
1417.68	0.872
1426.34	0.848
1435.01	0.775
1443.67	0.772
1452.34	0.724
1461.01	0.521
1469.67	0.889
1478.34	0.904
1487	0.932
1495.67	0.928
1504.33	0.932
1513	0.928
1521.66	0.929
1530.33	0.939
1538.99	0.948
1547.66	0.954
1556.33	0.954
1564.99	0.952
1573.66	0.939
1582.32	0.879
1590.99	0.425
1599.65	0.929
1608.32	0.91
1616.98	0.959
1625.65	0.97
1634.32	0.96
1642.98	0.958
1651.65	0.959
1660.31	0.948
1668.98	0.935
1677.64	0.941
1686.31	0.96
1694.97	0.967
1703.64	0.967
1712.3	0.968
1720.97	0.97
1729.64	0.967
1738.3	0.964
1746.97	0.968
1755.63	0.968
1764.3	0.967
1772.96	0.954
1781.63	0.954
1790.29	0.967
1798.96	0.968
1807.63	0.968
1816.29	0.968
1824.96	0.967
1833.62	0.966
1842.29	0.967
1850.95	0.962
1859.62	0.954
1868.28	0.937
1876.95	0.913
1885.62	0.898
1894.28	0.937
1902.95	0.954
1911.61	0.963
1920.28	0.963
1928.94	0.963
1937.61	0.962
1946.27	0.962
1954.94	0.963
1963.6	0.956
1972.27	0.951
1980.94	0.933
1989.6	0.917
1998.27	0.955
2006.93	0.948
2015.6	0.968
2024.26	0.981
2032.93	0.9708
2041.59	0.9639
2050.26	0.9621
2058.93	0.978
2067.59	0.978
2076.26	0.9738
2084.92	0.9682
2093.59	0.9719
2102.25	0.9669
2110.92	0.9631
2119.58	0.9625
2128.25	0.954
2136.91	0.958
2145.58	0.9481
2154.25	0.871
2162.91	0.898
2171.58	0.9292
2180.24	0.955
2188.91	0.958
2197.57	0.9547
2206.24	0.9469
2214.9	0.9376
2223.57	0.941
2232.24	0.94
2240.9	0.9317
2249.57	0.9207
2258.23	0.9177
2266.9	0.916
2275.56	0.9207
2284.23	0.9172
2292.89	0.9126
2301.56	0.9148
2310.23	0.9035
2318.89	0.9033
2327.56	0.897
2336.22	0.891
2344.89	0.8881
2353.55	0.8747
2362.22	0.8616
2370.88	0.8505
2379.55	0.8375
2388.21	0.8315
2396.88	0.8233
2405.55	0.7778
2414.21	0.7215
2422.88	0.6736
2431.54	0.5252
2440.21	0.7124
2448.87	0.7797
2457.54	0.8286
2466.2	0.8151
2474.87	0.7972
2483.54	0.7736
2492.2	0.7558
2500.87	0.693
2509.53	0.6398
2518.2	0.4871
2526.86	0.3039
2535.53	0.4723
2544.19	0.6893
2552.86	0.6724
2561.52	0.7255
2570.19	0.7402
2578.86	0.6531
2587.52	0.6057
2596.19	0.6782
2604.85	0.6188
2613.52	0.6453
2622.18	0.5146
2630.85	0.483
2639.51	0.4881
2648.18	0.5199
2656.85	0.5778
2665.51	0.5676
2674.18	0.6171
2682.84	0.5828
2691.51	0.5227
2700.17	0.4468
2708.84	0.3904
2717.5	0.3064
2726.17	0.2362
2734.84	0.132
2743.5	0.145
2752.17	0.175
2760.83	0.1809
2769.5	0.182
2778.16	0.3238
2786.83	0.2703
2795.49	0.1751
2804.16	0.166
2812.82	0.1938
2821.49	0.2285
2830.16	0.2352
2838.82	0.2232
2847.49	0.2226
2856.15	0.2988
2864.82	0.4227
2873.48	0.441
2882.15	0.4379
2890.81	0.4407
2899.48	0.4324
2908.15	0.3637
2916.81	0.3031
2925.48	0.2208
2934.14	0.1842
2942.81	0.1455
2951.47	0.0834
2960.14	0.1626
2968.8	0.2428
2977.47	0.3382
2986.13	0.4187
2994.8	0.4613
3003.47	0.5001
3012.13	0.5789
3020.8	0.6661
3029.46	0.7496
3038.13	0.8078
3046.79	0.8511
3055.46	0.8882
3064.12	0.9134
3072.79	0.9279
3081.46	0.9404
3090.12	0.9435
3098.79	0.9529
3107.45	0.955
3116.12	0.961
3124.78	0.9665
3133.45	0.971
3142.11	0.9745
3150.78	0.977
3159.45	0.977
3168.11	0.974
3176.78	0.9649
3185.44	0.9528
3194.11	0.9336
3202.77	0.9604
3211.44	0.9676
3220.1	0.97
3228.77	0.971
3237.43	0.974
3246.1	0.972
3254.77	0.972
3263.43	0.968
3272.1	0.9663
3280.76	0.967
3289.43	0.9646
3298.09	0.962
3306.76	0.9605
3315.42	0.958
3324.09	0.955
3332.76	0.9527
3341.42	0.95
3350.09	0.947
3358.75	0.943
3367.42	0.944
3376.08	0.936
3384.75	0.935
3393.41	0.936
3402.08	0.9351
3410.74	0.933
3419.41	0.933
3428.08	0.933
3436.74	0.932
3445.41	0.932
3454.07	0.9291
3462.74	0.9281
3471.4	0.929
3480.07	0.928
3488.73	0.928
3497.4	0.928
3506.07	0.925
3514.73	0.932
3523.4	0.928
3532.06	0.9311
3540.73	0.9328
3549.39	0.9311
3558.06	0.9359
3566.72	0.9329
3575.39	0.933
3584.06	0.935
3592.72	0.935
3601.39	0.936
3610.05	0.937
3618.72	0.9355
3627.38	0.9312
3636.05	0.9354
3644.71	0.9328
3653.38	0.932
3662.04	0.9346
3670.71	0.9327
3679.38	0.9318
3688.04	0.9247
3696.71	0.9317
3705.37	0.9283
3714.04	0.931
3722.7	0.933
3731.37	0.9324
3740.03	0.9231
3748.7	0.9193
3757.37	0.9167
3766.03	0.913
3774.7	0.912
3783.36	0.9166
3792.03	0.9112
