Infrared Spectrum: s-TRIAZOLO[1,5-a]PYRIMIDIN-7-OL-, 5-PHENYL- (KETO FORM)
Formula: C11 H8 N4 O
State: SOLID (SPLIT MULL, FLUOROLUBE FOR 3800-1330 AND NUJOL FOR 1330-400 CM ^-^1)
Class: COBLENTZ III
Instrument: BECKMAN IR-9 (GRATING)
Instrument parameters: ORDER CHANGES AT 670, 1200, 2000 CM^-^1
Sampling: TRANSMISSION
Resolution: 4
Origin: DOW CHEMICAL COMPANY
1/CM	TRANSMITTANCE
400.761	0.701
409.543	0.68
418.325	0.704
427.108	0.776
435.89	0.836
444.672	0.879
453.454	0.902
462.237	0.932
471.019	0.936
479.801	0.912
488.583	0.942
497.365	0.991
506.148	1.002
514.93	1.009
523.712	0.998
532.494	0.926
541.276	1.02
550.059	1.039
558.841	1.043
567.623	1.043
576.405	1.043
585.188	1.027
593.97	0.912
602.752	0.895
611.534	1.042
620.316	1.01
629.099	0.3951
637.881	1.047
646.663	1.043
655.445	1.026
664.227	0.834
673.01	0.838
681.792	0.839
690.574	0.635
699.356	0.375
708.139	0.89
716.921	0.865
725.703	0.821
734.485	0.89
743.267	0.913
752.05	0.723
760.832	0.758
769.614	0.813
778.396	0.669
787.178	0.853
795.961	0.915
804.743	0.938
813.525	0.934
822.307	0.757
831.09	0.345
839.872	0.86
848.654	0.815
857.436	0.757
866.218	0.654
875.001	0.565
883.783	0.605
892.565	0.698
901.347	0.726
910.129	0.317
918.912	0.735
927.694	0.539
936.476	0.334
945.258	0.426
954.041	0.763
962.823	0.916
971.605	0.93
980.387	0.942
989.169	0.96
997.952	0.952
1006.73	0.941
1015.52	0.932
1024.3	0.857
1033.08	0.919
1041.86	0.943
1050.64	0.932
1059.43	0.88
1068.21	0.732
1076.99	0.7
1085.77	0.839
1094.56	0.9
1103.34	0.9
1112.12	0.878
1120.9	0.749
1129.68	0.61
1138.47	0.78
1147.25	0.698
1156.03	0.4199
1164.81	0.723
1173.6	0.776
1182.38	0.853
1191.16	0.854
1199.94	0.806
1208.72	0.806
1217.51	0.709
1226.29	0.332
1235.07	0.478
1243.85	0.463
1252.64	0.634
1261.42	0.756
1270.2	0.772
1278.98	0.776
1287.76	0.81
1296.55	0.768
1305.33	0.795
1314.11	0.724
1322.89	0.805
1331.68	0.693
1340.46	0.661
1349.24	0.676
1358.02	0.695
1366.8	0.527
1375.59	0.758
1384.37	0.724
1393.15	0.68
1401.93	0.501
1410.72	0.504
1419.5	0.78
1428.28	0.794
1437.06	0.739
1445.84	0.557
1454.63	0.378
1463.41	0.615
1472.19	0.698
1480.97	0.526
1489.76	0.4971
1498.54	0.73
1507.32	0.63
1516.1	0.634
1524.88	0.569
1533.67	0.382
1542.45	0.389
1551.23	0.224
1560.01	0.171
1568.8	0.345
1577.58	0.586
1586.36	0.693
1595.14	0.824
1603.92	0.835
1612.71	0.893
1621.49	0.894
1630.27	0.898
1639.05	0.906
1647.84	0.884
1656.62	0.812
1665.4	0.7
1674.18	0.4499
1682.96	0.253
1691.75	0.394
1700.53	0.76
1709.31	0.879
1718.09	0.921
1726.88	0.975
1735.66	0.986
1744.44	0.982
1753.22	0.984
1762	0.989
1770.79	0.989
1779.57	0.982
1788.35	0.98
1797.13	0.983
1805.92	0.978
1814.7	0.971
1823.48	0.971
1832.26	0.975
1841.04	0.973
1849.83	0.972
1858.61	0.969
1867.39	0.965
1876.17	0.956
1884.96	0.954
1893.74	0.956
1902.52	0.956
1911.3	0.965
1920.08	0.969
1928.87	0.971
1937.65	0.968
1946.43	0.965
1955.21	0.961
1964	0.963
1972.78	0.963
1981.56	0.963
1990.34	0.958
1999.12	0.957
2007.91	0.9605
2016.69	0.965
2025.47	0.962
2034.25	0.96
2043.04	0.958
2051.82	0.957
2060.6	0.956
2069.38	0.95
2078.16	0.948
2086.95	0.947
2095.73	0.946
2104.51	0.942
2113.29	0.939
2122.08	0.938
2130.86	0.934
2139.64	0.931
2148.42	0.93
2157.2	0.924
2165.99	0.916
2174.77	0.909
2183.55	0.906
2192.33	0.904
2201.12	0.902
2209.9	0.905
2218.68	0.8996
2227.46	0.8881
2236.24	0.8835
2245.03	0.8755
2253.81	0.869
2262.59	0.8661
2271.37	0.8621
2280.16	0.858
2288.94	0.8536
2297.72	0.8487
2306.5	0.838
2315.28	0.841
2324.07	0.836
2332.85	0.8346
2341.63	0.8306
2350.41	0.828
2359.19	0.8329
2367.98	0.831
2376.76	0.832
2385.54	0.831
2394.32	0.8276
2403.11	0.823
2411.89	0.821
2420.67	0.8196
2429.45	0.819
2438.23	0.8142
2447.02	0.8072
2455.8	0.8032
2464.58	0.802
2473.36	0.7992
2482.15	0.7962
2490.93	0.7896
2499.71	0.7792
2508.49	0.7738
2517.27	0.7576
2526.06	0.7416
2534.84	0.7344
2543.62	0.7446
2552.4	0.7444
2561.19	0.7276
2569.97	0.7084
2578.75	0.718
2587.53	0.7344
2596.31	0.743
2605.1	0.7352
2613.88	0.7236
2622.66	0.7166
2631.44	0.7164
2640.23	0.7166
2649.01	0.7096
2657.79	0.7056
2666.57	0.6928
2675.35	0.6742
2684.14	0.6622
2692.92	0.658
2701.7	0.6552
2710.48	0.6435
2719.27	0.6306
2728.05	0.6343
2736.83	0.6494
2745.61	0.6496
2754.39	0.6345
2763.18	0.617
2771.96	0.6281
2780.74	0.6365
2789.52	0.6183
2798.31	0.6299
2807.09	0.6745
2815.87	0.701
2824.65	0.7033
2833.43	0.6683
2842.22	0.6724
2851	0.7014
2859.78	0.7084
2868.56	0.7109
2877.35	0.6943
2886.13	0.7027
2894.91	0.722
2903.69	0.7237
2912.47	0.7113
2921.26	0.6859
2930.04	0.6607
2938.82	0.656
2947.6	0.652
2956.39	0.652
2965.17	0.6603
2973.95	0.6737
2982.73	0.6843
2991.51	0.696
3000.3	0.7087
3009.08	0.7197
3017.86	0.7134
3026.64	0.692
3035.43	0.6766
3044.21	0.6936
3052.99	0.7
3061.77	0.7046
3070.55	0.7213
3079.34	0.735
3088.12	0.7331
3096.9	0.6985
3105.68	0.6467
3114.47	0.6689
3123.25	0.7539
3132.03	0.8065
3140.81	0.8312
3149.59	0.8383
3158.38	0.8413
3167.16	0.8453
3175.94	0.847
3184.72	0.8506
3193.51	0.8523
3202.29	0.8514
3211.07	0.8464
3219.85	0.8387
3228.63	0.835
3237.42	0.834
3246.2	0.835
3254.98	0.835
3263.76	0.836
3272.55	0.838
3281.33	0.8357
3290.11	0.835
3298.89	0.8366
3307.67	0.838
3316.46	0.838
3325.24	0.836
3334.02	0.835
3342.8	0.832
3351.59	0.8317
3360.37	0.828
3369.15	0.827
3377.93	0.824
3386.71	0.8225
3395.5	0.8207
3404.28	0.82
3413.06	0.82
3421.84	0.82
3430.63	0.82
3439.41	0.8185
3448.19	0.816
3456.97	0.816
3465.75	0.8157
3474.54	0.813
3483.32	0.813
3492.1	0.813
3500.88	0.813
3509.67	0.812
3518.45	0.8115
3527.23	0.81
3536.01	0.81
3544.79	0.809
3553.58	0.81
3562.36	0.81
3571.14	0.81
3579.92	0.81
3588.71	0.809
3597.49	0.809
3606.27	0.809
3615.05	0.809
3623.83	0.808
3632.62	0.806
3641.4	0.804
3650.18	0.804
3658.96	0.805
3667.74	0.804
3676.53	0.802
3685.31	0.801
3694.09	0.8018
3702.87	0.804
3711.66	0.804
3720.44	0.802
3729.22	0.801
3738	0.8
3746.78	0.798
3755.57	0.797
3764.35	0.797
3773.13	0.797
3781.91	0.795
3790.7	0.794
