Infrared Spectrum: BIPHENYL, HEXABROMO-
Formula: C12 H4 Br6
State: SOLID (5 mg / 250 mg CsI DISC)
Class: COBLENTZ
Instrument: PERKIN-ELMER 283
Sampling: TRANSMISSION
Resolution: 4
Origin: PERKIN-ELMER
1/CM	TRANSMITTANCE
199.805	0.801
209.552	0.798
219.298	0.809
229.045	0.815
238.791	0.81
248.538	0.793
258.285	0.795
268.031	0.798
277.778	0.795
287.524	0.797
297.271	0.793
307.018	0.771
316.764	0.791
326.511	0.791
336.257	0.787
346.004	0.782
355.751	0.775
365.497	0.793
375.244	0.807
384.99	0.801
394.737	0.801
404.484	0.78
414.23	0.787
423.977	0.631
433.723	0.644
443.47	0.738
453.217	0.77
462.963	0.668
472.71	0.764
482.456	0.671
492.203	0.515
501.95	0.715
511.696	0.735
521.443	0.792
531.189	0.76
540.936	0.779
550.683	0.667
560.429	0.787
570.176	0.748
579.922	0.802
589.669	0.818
599.416	0.778
609.162	0.779
618.909	0.679
628.655	0.779
638.402	0.804
648.149	0.8
657.895	0.726
667.642	0.757
677.388	0.788
687.135	0.8
696.882	0.775
706.628	0.697
716.375	0.675
726.121	0.737
735.868	0.75
745.615	0.596
755.361	0.664
765.108	0.53
774.854	0.595
784.601	0.779
794.348	0.806
804.094	0.798
813.841	0.742
823.587	0.738
833.334	0.787
843.081	0.761
852.827	0.648
862.574	0.655
872.32	0.457
882.067	0.3059
891.814	0.436
901.56	0.737
911.307	0.804
921.053	0.817
930.8	0.819
940.547	0.818
950.293	0.819
960.04	0.823
969.786	0.82
979.533	0.815
989.28	0.807
999.026	0.795
1008.77	0.5758
1018.52	0.0302
1028.27	0.5181
1038.01	0.612
1047.76	0.3888
1057.51	0.3201
1067.25	0.679
1077	0.721
1086.75	0.594
1096.49	0.689
1106.24	0.596
1115.99	0.3809
1125.73	0.5451
1135.48	0.711
1145.23	0.759
1154.97	0.675
1164.72	0.654
1174.46	0.706
1184.21	0.787
1193.96	0.779
1203.7	0.782
1213.45	0.768
1223.2	0.774
1232.94	0.755
1242.69	0.699
1252.44	0.673
1262.18	0.756
1271.93	0.784
1281.68	0.789
1291.42	0.6759
1301.17	0.4399
1310.92	0.3501
1320.66	0.541
1330.41	0.451
1340.16	0.2979
1349.9	0.5231
1359.65	0.695
1369.4	0.654
1379.14	0.581
1388.89	0.5049
1398.64	0.438
1408.38	0.608
1418.13	0.557
1427.88	0.423
1437.62	0.0339
1447.37	0.51
1457.12	0.4261
1466.86	0.5431
1476.61	0.75
1486.36	0.73
1496.1	0.771
1505.85	0.703
1515.6	0.726
1525.34	0.76
1535.09	0.757
1544.84	0.777
1554.58	0.76
1564.33	0.6041
1574.08	0.77
1583.82	0.778
1593.57	0.809
1603.32	0.801
1613.06	0.8
1622.81	0.81
1632.56	0.822
1642.3	0.833
1652.05	0.836
1661.79	0.841
1671.54	0.836
1681.29	0.841
1691.03	0.838
1700.78	0.837
1710.53	0.837
1720.27	0.826
1730.02	0.806
1739.77	0.782
1749.51	0.775
1759.26	0.783
1769.01	0.809
1778.75	0.822
1788.5	0.838
1798.25	0.849
1807.99	0.856
1817.74	0.858
1827.49	0.855
1837.23	0.854
1846.98	0.854
1856.73	0.855
1866.47	0.856
1876.22	0.858
1885.97	0.854
1895.71	0.851
1905.46	0.858
1915.21	0.858
1924.95	0.859
1934.7	0.864
1944.45	0.862
1954.19	0.864
1963.94	0.856
1973.69	0.865
1983.43	0.859
1993.18	0.868
2002.93	0.861
2012.67	0.8555
2022.42	0.8625
2032.17	0.862
2041.91	0.8635
2051.66	0.8663
2061.41	0.863
2071.15	0.8624
2080.9	0.8626
2090.65	0.8612
2100.39	0.864
2110.14	0.863
2119.89	0.862
2129.63	0.868
2139.38	0.8673
2149.12	0.861
2158.87	0.8627
2168.62	0.8673
2178.36	0.869
2188.11	0.868
2197.86	0.865
2207.6	0.867
2217.35	0.865
2227.1	0.8678
2236.84	0.867
2246.59	0.871
2256.34	0.868
2266.08	0.8672
2275.83	0.8728
2285.58	0.8673
2295.32	0.8688
2305.07	0.8684
2314.82	0.869
2324.56	0.8689
2334.31	0.8679
2344.06	0.8621
2353.8	0.865
2363.55	0.8552
2373.3	0.8578
2383.04	0.8689
2392.79	0.872
2402.54	0.8709
2412.28	0.873
2422.03	0.869
2431.78	0.876
2441.52	0.877
2451.27	0.873
2461.02	0.8731
2470.76	0.876
2480.51	0.8679
2490.26	0.867
2500	0.867
2509.75	0.8711
2519.5	0.8721
2529.24	0.8759
2538.99	0.873
2548.74	0.868
2558.48	0.871
2568.23	0.875
2577.98	0.869
2587.72	0.868
2597.47	0.868
2607.21	0.872
2616.96	0.872
2626.71	0.872
2636.45	0.8752
2646.2	0.878
2655.95	0.878
2665.69	0.8717
2675.44	0.8704
2685.19	0.8586
2694.93	0.8716
2704.68	0.8713
2714.43	0.871
2724.17	0.877
2733.92	0.877
2743.67	0.8726
2753.41	0.871
2763.16	0.8668
2772.91	0.8674
2782.65	0.8788
2792.4	0.8767
2802.15	0.8707
2811.89	0.873
2821.64	0.8742
2831.39	0.8741
2841.13	0.869
2850.88	0.87
2860.63	0.8645
2870.37	0.875
2880.12	0.8685
2889.87	0.8699
2899.61	0.868
2909.36	0.8663
2919.11	0.8609
2928.85	0.8577
2938.6	0.862
2948.35	0.859
2958.09	0.8644
2967.84	0.8661
2977.59	0.863
2987.33	0.858
2997.08	0.8567
3006.83	0.859
3016.57	0.858
3026.32	0.8557
3036.07	0.855
3045.81	0.8503
3055.56	0.8388
3065.31	0.8133
3075.05	0.7525
3084.8	0.629
3094.54	0.7248
3104.29	0.8085
3114.04	0.8404
3123.78	0.8508
3133.53	0.8551
3143.28	0.8718
3153.02	0.871
3162.77	0.8776
3172.52	0.8771
3182.26	0.8797
3192.01	0.8811
3201.76	0.8796
3211.5	0.88
3221.25	0.8782
3231	0.8749
3240.74	0.882
3250.49	0.8801
3260.24	0.881
3269.98	0.8781
3279.73	0.881
3289.48	0.875
3299.22	0.881
3308.97	0.882
3318.72	0.882
3328.46	0.881
3338.21	0.8769
3347.96	0.871
3357.7	0.8721
3367.45	0.873
3377.2	0.871
3386.94	0.868
3396.69	0.859
3406.44	0.865
3416.18	0.8597
3425.93	0.858
3435.68	0.858
3445.42	0.856
3455.17	0.859
3464.92	0.855
3474.66	0.8582
3484.41	0.855
3494.16	0.86
3503.9	0.8593
3513.65	0.8605
3523.4	0.863
3533.14	0.8647
3542.89	0.8615
3552.64	0.8713
3562.38	0.868
3572.13	0.8713
3581.87	0.875
3591.62	0.873
3601.37	0.88
3611.11	0.8804
3620.86	0.8854
3630.61	0.8828
3640.35	0.8878
3650.1	0.884
3659.85	0.8879
3669.59	0.8921
3679.34	0.89
3689.09	0.894
3698.83	0.888
3708.58	0.888
3718.33	0.8895
3728.07	0.888
3737.82	0.887
3747.57	0.8855
3757.31	0.887
3767.06	0.887
3776.81	0.8896
3786.55	0.889
3796.3	0.8882
3806.05	0.893
3815.79	0.8878
3825.54	0.891
3835.29	0.893
3845.03	0.8904
3854.78	0.889
3864.53	0.889
3874.27	0.8897
3884.02	0.891
3893.77	0.893
3903.51	0.89
3913.26	0.889
3923.01	0.887
3932.75	0.886
3942.5	0.886
3952.25	0.889
3961.99	0.887
3971.74	0.887
3981.49	0.891
3991.23	0.8926
