Infrared Spectrum: MALEIC ACID, MONODIBROMOPHENYL ESTER
Formula: C10 H6 Br2 O4
State: (NEAT)
Class: COBLENTZ
Instrument: PERKIN-ELMER 283
Sampling: TRANSMISSION
Path length: MELT, CsI WINDOW
Resolution: 4
Origin: PERKIN-ELMER
1/CM	TRANSMITTANCE
201.948	0.845
211.688	0.881
221.429	0.905
231.169	0.908
240.909	0.914
250.649	0.92
260.39	0.92
270.13	0.926
279.87	0.929
289.61	0.93
299.351	0.932
309.091	0.943
318.831	0.935
328.571	0.921
338.312	0.923
348.052	0.938
357.792	0.929
367.533	0.917
377.273	0.905
387.013	0.89
396.753	0.901
406.494	0.912
416.234	0.912
425.974	0.912
435.714	0.912
445.455	0.913
455.195	0.914
464.935	0.912
474.675	0.909
484.416	0.885
494.156	0.861
503.896	0.851
513.637	0.849
523.377	0.834
533.117	0.815
542.857	0.775
552.598	0.75
562.338	0.785
572.078	0.76
581.818	0.771
591.559	0.801
601.299	0.823
611.039	0.816
620.779	0.765
630.52	0.748
640.26	0.722
650	0.774
659.741	0.819
669.481	0.819
679.221	0.827
688.961	0.843
698.702	0.859
708.442	0.854
718.182	0.861
727.922	0.868
737.663	0.852
747.403	0.841
757.143	0.814
766.883	0.734
776.624	0.739
786.364	0.78
796.104	0.794
805.845	0.79
815.585	0.779
825.325	0.774
835.065	0.761
844.806	0.743
854.546	0.731
864.286	0.723
874.026	0.705
883.767	0.696
893.507	0.687
903.247	0.696
912.987	0.699
922.728	0.695
932.468	0.69
942.208	0.694
951.949	0.692
961.689	0.659
971.429	0.509
981.169	0.469
990.91	0.588
1000.65	0.588
1010.39	0.581
1020.13	0.602
1029.87	0.609
1039.61	0.65
1049.35	0.696
1059.09	0.736
1068.83	0.741
1078.57	0.727
1088.31	0.707
1098.05	0.673
1107.79	0.643
1117.53	0.647
1127.27	0.605
1137.01	0.499
1146.75	0.322
1156.49	0.27
1166.23	0.281
1175.97	0.332
1185.71	0.432
1195.46	0.463
1205.2	0.481
1214.94	0.458
1224.68	0.4
1234.42	0.403
1244.16	0.402
1253.9	0.3
1263.64	0.276
1273.38	0.307
1283.12	0.327
1292.86	0.282
1302.6	0.281
1312.34	0.372
1322.08	0.477
1331.82	0.585
1341.56	0.627
1351.3	0.663
1361.04	0.692
1370.78	0.668
1380.52	0.596
1390.26	0.623
1400	0.627
1409.74	0.611
1419.48	0.5539
1429.22	0.566
1438.96	0.623
1448.7	0.703
1458.44	0.749
1468.18	0.847
1477.92	0.874
1487.66	0.874
1497.4	0.872
1507.14	0.869
1516.88	0.863
1526.62	0.858
1536.36	0.849
1546.1	0.842
1555.85	0.838
1565.59	0.832
1575.33	0.825
1585.07	0.819
1594.81	0.803
1604.55	0.792
1614.29	0.765
1624.03	0.73
1633.77	0.661
1643.51	0.57
1653.25	0.603
1662.99	0.598
1672.73	0.593
1682.47	0.565
1692.21	0.49
1701.95	0.357
1711.69	0.254
1721.43	0.209
1731.17	0.15
1740.91	0.181
1750.65	0.2991
1760.39	0.5091
1770.13	0.695
1779.87	0.789
1789.61	0.84
1799.35	0.856
1809.09	0.86
1818.83	0.869
1828.57	0.867
1838.31	0.87
1848.05	0.873
1857.79	0.872
1867.53	0.869
1877.27	0.867
1887.01	0.868
1896.75	0.869
1906.49	0.872
1916.23	0.873
1925.98	0.873
1935.72	0.873
1945.46	0.872
1955.2	0.876
1964.94	0.873
1974.68	0.87
1984.42	0.869
1994.16	0.868
2003.9	0.86
2013.64	0.86
2023.38	0.863
2033.12	0.856
2042.86	0.86
2052.6	0.854
2062.34	0.852
2072.08	0.852
2081.82	0.852
2091.56	0.852
2101.3	0.846
2111.04	0.847
2120.78	0.847
2130.52	0.847
2140.26	0.841
2150	0.84
2159.74	0.845
2169.48	0.838
2179.22	0.84
2188.96	0.834
2198.7	0.834
2208.44	0.834
2218.18	0.83
2227.92	0.828
2237.66	0.829
2247.4	0.827
2257.14	0.823
2266.88	0.82
2276.62	0.825
2286.37	0.824
2296.11	0.827
2305.85	0.823
2315.59	0.819
2325.33	0.814
2335.07	0.81
2344.81	0.809
2354.55	0.809
2364.29	0.803
2374.03	0.803
2383.77	0.802
2393.51	0.801
2403.25	0.798
2412.99	0.796
2422.73	0.781
2432.47	0.78
2442.21	0.776
2451.95	0.772
2461.69	0.765
2471.43	0.76
2481.17	0.757
2490.91	0.754
2500.65	0.74
2510.39	0.738
2520.13	0.736
2529.87	0.731
2539.61	0.73
2549.35	0.73
2559.09	0.729
2568.83	0.729
2578.57	0.729
2588.31	0.731
2598.05	0.73
2607.79	0.73
2617.53	0.731
2627.27	0.729
2637.01	0.727
2646.75	0.716
2656.5	0.712
2666.24	0.71
2675.98	0.712
2685.72	0.713
2695.46	0.717
2705.2	0.72
2714.94	0.723
2724.68	0.722
2734.42	0.72
2744.16	0.718
2753.9	0.717
2763.64	0.713
2773.38	0.71
2783.12	0.7
2792.86	0.695
2802.6	0.689
2812.34	0.681
2822.08	0.672
2831.82	0.667
2841.56	0.659
2851.3	0.655
2861.04	0.65
2870.78	0.643
2880.52	0.64
2890.26	0.634
2900	0.634
2909.74	0.64
2919.48	0.628
2929.22	0.623
2938.96	0.612
2948.7	0.598
2958.44	0.597
2968.18	0.594
2977.92	0.596
2987.66	0.603
2997.4	0.605
3007.14	0.606
3016.89	0.603
3026.63	0.601
3036.37	0.6
3046.11	0.598
3055.85	0.597
3065.59	0.594
3075.33	0.589
3085.07	0.585
3094.81	0.603
3104.55	0.616
3114.29	0.621
3124.03	0.628
3133.77	0.63
3143.51	0.64
3153.25	0.643
3162.99	0.647
3172.73	0.646
3182.47	0.649
3192.21	0.647
3201.95	0.65
3211.69	0.652
3221.43	0.655
3231.17	0.658
3240.91	0.661
3250.65	0.664
3260.39	0.665
3270.13	0.67
3279.87	0.674
3289.61	0.685
3299.35	0.687
3309.09	0.691
3318.83	0.696
3328.57	0.701
3338.31	0.71
3348.05	0.718
3357.79	0.729
3367.53	0.734
3377.27	0.738
3387.02	0.744
3396.76	0.748
3406.5	0.754
3416.24	0.758
3425.98	0.754
3435.72	0.761
3445.46	0.756
3455.2	0.758
3464.94	0.769
3474.68	0.776
3484.42	0.784
3494.16	0.788
3503.9	0.79
3513.64	0.792
3523.38	0.798
3533.12	0.803
3542.86	0.801
3552.6	0.807
3562.34	0.81
3572.08	0.815
3581.82	0.818
3591.56	0.824
3601.3	0.828
3611.04	0.832
3620.78	0.829
3630.52	0.836
3640.26	0.829
3650	0.837
3659.74	0.836
3669.48	0.83
3679.22	0.83
3688.96	0.834
3698.7	0.834
3708.44	0.832
3718.18	0.832
3727.92	0.833
3737.66	0.834
3747.41	0.836
3757.15	0.834
3766.89	0.828
3776.63	0.832
3786.37	0.832
3796.11	0.829
3805.85	0.828
3815.59	0.828
3825.33	0.828
3835.07	0.83
3844.81	0.828
3854.55	0.827
3864.29	0.828
3874.03	0.827
3883.77	0.828
3893.51	0.824
3903.25	0.828
3912.99	0.828
3922.73	0.829
3932.47	0.824
3942.21	0.823
3951.95	0.828
3961.69	0.824
3971.43	0.825
3981.17	0.827
3990.91	0.825
4000.65	0.82
