Infrared Spectrum: BENZENE, Beta-DEUTEROETHYNYL-
Formula: C8 H5 D
State: SOLUTION (10% IN CCl4 FOR 3800-1333, 10% IN CS2 FOR 1333-450 CM^-^1)
Class: COBLENTZ III
Instrument: DOW KBr FOREPRISM-GRATING
Instrument parameters: BLAZED AT 3.5, 12.0, 20.0 MICRON, CHANGED AT 5.0, 7.5, 14.9 MICRON
Sampling: TRANSMISSION
Path length: 0.011, 0.010 CM
Resolution: 4
Origin: DOW CHEMICAL COMPANY
1/CM	TRANSMITTANCE
452.174	0.785
460.87	0.756
469.565	0.582
478.261	0.067
486.957	0.114
495.652	0.724
504.348	0.923
513.044	0.94
521.739	0.88
530.435	0.138
539.13	0.932
547.826	0.989
556.522	1.009
565.217	1.019
573.913	1.02
582.609	1.024
591.304	1.024
600	1.013
608.696	0.975
617.391	0.987
626.087	0.993
634.783	0.978
643.478	0.927
652.174	0.9
660.87	0.899
669.565	0.811
678.261	0.726
686.956	0.061
695.652	0.297
704.348	0.792
713.043	0.933
721.739	0.952
730.435	0.936
739.13	0.892
747.826	0.551
756.522	0.004
765.217	0.581
773.913	0.873
782.609	0.934
791.304	0.963
800	0.964
808.696	0.966
817.391	0.953
826.087	0.953
834.782	0.93
843.478	0.888
852.174	0.835
860.869	0.822
869.565	0.813
878.261	0.864
886.956	0.927
895.652	0.945
904.348	0.894
913.043	0.514
921.739	0.892
930.435	0.927
939.13	0.899
947.826	0.739
956.522	0.697
965.217	0.831
973.913	0.911
982.608	0.921
991.304	0.938
1000	0.932
1008.7	0.872
1017.39	0.861
1026.09	0.589
1034.78	0.883
1043.48	0.963
1052.17	0.953
1060.87	0.906
1069.56	0.604
1078.26	0.93
1086.96	0.96
1095.65	0.94
1104.35	0.963
1113.04	0.995
1121.74	1.005
1130.43	0.997
1139.13	0.983
1147.83	0.964
1156.52	0.921
1165.22	0.933
1173.91	0.908
1182.61	0.929
1191.3	0.899
1200	0.987
1208.7	0.998
1217.39	0.997
1226.09	1.006
1234.78	1.008
1243.48	0.994
1252.17	0.998
1260.87	0.994
1269.56	0.987
1278.26	0.921
1286.96	0.944
1295.65	0.986
1304.35	0.987
1313.04	0.983
1321.74	0.974
1330.43	0.956
1339.13	0.98
1347.83	0.986
1356.52	0.987
1365.22	0.974
1373.91	0.959
1382.61	0.952
1391.3	0.976
1400	0.979
1408.7	0.976
1417.39	0.97
1426.09	0.963
1434.78	0.921
1443.48	0.21
1452.17	0.894
1460.87	0.929
1469.56	0.922
1478.26	0.857
1486.96	0.165
1495.65	0.747
1504.35	0.794
1513.04	0.737
1521.74	0.71
1530.43	0.657
1539.13	0.559
1547.83	0.516
1556.52	0.573
1565.22	0.627
1573.91	0.548
1582.61	0.692
1591.3	0.686
1600	0.702
1608.7	0.903
1617.39	0.948
1626.09	0.957
1634.78	0.97
1643.48	0.976
1652.17	0.971
1660.87	0.959
1669.56	0.913
1678.26	0.976
1686.96	0.985
1695.65	0.997
1704.35	0.993
1713.04	0.986
1721.74	0.985
1730.43	0.982
1739.13	0.975
1747.83	0.936
1756.52	0.934
1765.22	0.986
1773.91	0.991
1782.61	0.989
1791.3	0.979
1800	0.913
1808.69	0.947
1817.39	0.964
1826.09	0.963
1834.78	0.99
1843.48	0.995
1852.17	0.993
1860.87	0.986
1869.56	0.97
1878.26	0.87
1886.96	0.952
1895.65	0.902
1904.35	0.975
1913.04	0.987
1921.74	0.991
1930.43	0.976
1939.13	0.955
1947.83	0.853
1956.52	0.952
1965.22	0.908
1973.91	0.952
1982.61	0.952
1991.3	0.938
2000	0.96
2008.69	0.993
2017.39	0.991
2026.09	0.997
2034.78	0.998
2043.48	1.004
2052.17	1.002
2060.87	1.004
2069.56	1.006
2078.26	1.009
2086.96	1.008
2095.65	1.006
2104.35	1.004
2113.04	1.001
2121.74	1.005
2130.43	1.005
2139.13	1.005
2147.83	1.006
2156.52	1.008
2165.22	1.008
2173.91	1.005
2182.61	1.008
2191.3	1.006
2200	1.005
2208.69	1.006
2217.39	1.004
2226.09	1.001
2234.78	1
2243.48	0.993
2252.17	0.989
2260.87	0.995
2269.56	0.985
2278.26	0.976
2286.96	0.98
2295.65	0.982
2304.35	0.993
2313.04	0.995
2321.74	0.99
2330.43	0.998
2339.13	0.991
2347.83	0.995
2356.52	0.998
2365.22	0.998
2373.91	0.998
2382.61	0.998
2391.3	1
2400	0.998
2408.69	0.998
2417.39	0.998
2426.09	0.998
2434.78	0.997
2443.48	0.995
2452.17	0.994
2460.87	0.991
2469.56	0.989
2478.26	0.991
2486.96	0.994
2495.65	0.991
2504.35	0.987
2513.04	0.986
2521.74	0.987
2530.43	0.978
2539.13	0.968
2547.83	0.945
2556.52	0.908
2565.22	0.8131
2573.91	0.6
2582.61	0.1392
2591.3	0.019
2600	0.3823
2608.69	0.842
2617.39	0.922
2626.09	0.951
2634.78	0.968
2643.48	0.978
2652.17	0.982
2660.87	0.982
2669.56	0.982
2678.26	0.982
2686.96	0.987
2695.65	0.989
2704.35	0.989
2713.04	0.987
2721.74	0.985
2730.43	0.979
2739.13	0.975
2747.82	0.967
2756.52	0.975
2765.22	0.983
2773.91	0.983
2782.61	0.978
2791.3	0.983
2800	0.99
2808.69	0.991
2817.39	0.991
2826.09	0.993
2834.78	0.989
2843.48	0.985
2852.17	0.985
2860.87	0.98
2869.56	0.976
2878.26	0.978
2886.96	0.98
2895.65	0.976
2904.35	0.98
2913.04	0.978
2921.74	0.971
2930.43	0.9719
2939.13	0.976
2947.82	0.975
2956.52	0.97
2965.22	0.963
2973.91	0.964
2982.61	0.961
2991.3	0.955
3000	0.942
3008.69	0.922
3017.39	0.8312
3026.09	0.754
3034.78	0.6831
3043.48	0.79
3052.17	0.7281
3060.87	0.627
3069.56	0.6489
3078.26	0.684
3086.96	0.5609
3095.65	0.802
3104.35	0.8539
3113.04	0.923
3121.74	0.959
3130.43	0.97
3139.13	0.97
3147.82	0.956
3156.52	0.9789
3165.22	0.978
3173.91	0.978
3182.61	0.979
3191.3	0.985
3200	0.987
3208.69	0.989
3217.39	0.991
3226.09	0.994
3234.78	0.995
3243.48	0.994
3252.17	0.994
3260.87	0.995
3269.56	0.994
3278.26	0.991
3286.96	0.983
3295.65	0.975
3304.35	0.952
3313.04	0.942
3321.74	0.948
3330.43	0.978
3339.13	0.989
3347.82	0.993
3356.52	0.993
3365.22	0.993
3373.91	0.993
3382.61	0.991
3391.3	0.993
3400	0.993
3408.69	0.991
3417.39	0.993
3426.09	0.993
3434.78	0.994
3443.48	0.997
3452.17	1
3460.87	0.998
3469.56	0.998
3478.26	1
3486.95	1.001
3495.65	1.001
3504.35	1.002
3513.04	1.002
3521.74	1.004
3530.43	1.002
3539.13	1.002
3547.82	1.002
3556.52	1.004
3565.22	1.004
3573.91	1.001
3582.61	1
3591.3	1
3600	1
3608.69	1
3617.39	1.001
3626.09	1
3634.78	1
3643.48	1
3652.17	0.995
3660.87	1
3669.56	1.004
3678.26	1.002
3686.95	1.002
3695.65	1
3704.35	0.997
3713.04	1
3721.74	1.004
3730.43	1.005
3739.13	1.005
3747.82	1.001
3756.52	1.001
3765.22	1.001
3773.91	1
3782.61	1.001
3791.3	1.004
