Infrared Spectrum: PHOSPHORIC ACID, TRIS(BROMOCRESYL) ESTER
Formula: C18 H18 Br3 O4 P
State: (NEAT)
Class: COBLENTZ III
Instrument: PERKIN-ELMER 283
Sampling: TRANSMISSION
Path length: SMEAR, CsI WINDOW
Resolution: 4
Origin: PERKIN-ELMER
1/CM	TRANSMITTANCE
200	0.847
209.74	0.904
219.481	0.94
229.221	0.956
238.961	0.967
248.701	0.979
258.442	0.98
268.182	0.981
277.922	0.985
287.663	0.978
297.403	0.965
307.143	0.949
316.883	0.952
326.624	0.95
336.364	0.954
346.104	0.953
355.845	0.96
365.585	0.96
375.325	0.952
385.065	0.943
394.806	0.945
404.546	0.944
414.286	0.932
424.026	0.892
433.767	0.749
443.507	0.837
453.247	0.849
462.988	0.833
472.728	0.803
482.468	0.75
492.208	0.71
501.949	0.704
511.689	0.686
521.429	0.717
531.17	0.739
540.91	0.704
550.65	0.695
560.39	0.64
570.131	0.654
579.871	0.743
589.611	0.752
599.352	0.664
609.092	0.673
618.832	0.7
628.572	0.75
638.313	0.827
648.053	0.852
657.793	0.907
667.534	0.904
677.274	0.85
687.014	0.695
696.754	0.771
706.495	0.734
716.235	0.721
725.975	0.793
735.716	0.854
745.456	0.82
755.196	0.765
764.936	0.699
774.677	0.806
784.417	0.885
794.157	0.836
803.897	0.5759
813.638	0.459
823.378	0.536
833.118	0.615
842.859	0.659
852.599	0.629
862.339	0.525
872.079	0.438
881.82	0.374
891.56	0.29
901.3	0.358
911.041	0.699
920.781	0.686
930.521	0.4889
940.261	0.325
950.002	0.179
959.742	0.095
969.482	0.046
979.223	0.04
988.963	0.086
998.703	0.209
1008.44	0.121
1018.18	0.145
1027.92	0.389
1037.66	0.407
1047.4	0.567
1057.14	0.691
1066.89	0.736
1076.63	0.846
1086.37	0.842
1096.11	0.796
1105.85	0.762
1115.59	0.6289
1125.33	0.65
1135.07	0.583
1144.81	0.3249
1154.55	0.073
1164.29	0.104
1174.03	0.3891
1183.77	0.3889
1193.51	0.184
1203.25	0.205
1212.99	0.194
1222.73	0.1179
1232.47	0.166
1242.21	0.376
1251.95	0.5
1261.69	0.425
1271.43	0.378
1281.17	0.406
1290.91	0.363
1300.65	0.2419
1310.39	0.17
1320.13	0.2652
1329.87	0.7381
1339.61	0.843
1349.35	0.864
1359.09	0.8
1368.83	0.836
1378.57	0.7199
1388.31	0.741
1398.05	0.665
1407.79	0.616
1417.54	0.722
1427.28	0.699
1437.02	0.585
1446.76	0.512
1456.5	0.554
1466.24	0.3829
1475.98	0.061
1485.72	0.179
1495.46	0.3791
1505.2	0.3539
1514.94	0.6112
1524.68	0.814
1534.42	0.846
1544.16	0.85
1553.9	0.83
1563.64	0.763
1573.38	0.58
1583.12	0.6201
1592.86	0.596
1602.6	0.54
1612.34	0.7261
1622.08	0.854
1631.82	0.87
1641.56	0.878
1651.3	0.889
1661.04	0.889
1670.78	0.892
1680.52	0.889
1690.26	0.889
1700	0.89
1709.74	0.891
1719.48	0.89
1729.22	0.885
1738.96	0.885
1748.7	0.887
1758.45	0.89
1768.19	0.896
1777.93	0.901
1787.67	0.905
1797.41	0.905
1807.15	0.909
1816.89	0.909
1826.63	0.908
1836.37	0.903
1846.11	0.892
1855.85	0.882
1865.59	0.869
1875.33	0.85
1885.07	0.851
1894.81	0.859
1904.55	0.868
1914.29	0.876
1924.03	0.881
1933.77	0.882
1943.51	0.882
1953.25	0.885
1962.99	0.89
1972.73	0.894
1982.47	0.896
1992.21	0.895
2001.95	0.904
2011.69	0.903
2021.43	0.901
2031.17	0.903
2040.91	0.903
2050.65	0.903
2060.39	0.901
2070.13	0.9
2079.87	0.901
2089.61	0.898
2099.36	0.894
2109.1	0.892
2118.84	0.892
2128.58	0.894
2138.32	0.891
2148.06	0.89
2157.8	0.891
2167.54	0.889
2177.28	0.887
2187.02	0.887
2196.76	0.887
2206.5	0.887
2216.24	0.889
2225.98	0.881
2235.72	0.88
2245.46	0.878
2255.2	0.874
2264.94	0.876
2274.68	0.876
2284.42	0.87
2294.16	0.87
2303.9	0.868
2313.64	0.865
2323.38	0.869
2333.12	0.867
2342.86	0.868
2352.6	0.863
2362.34	0.861
2372.08	0.863
2381.82	0.863
2391.56	0.859
2401.3	0.858
2411.04	0.859
2420.78	0.858
2430.52	0.859
2440.26	0.864
2450.01	0.867
2459.75	0.867
2469.49	0.867
2479.23	0.864
2488.97	0.861
2498.71	0.86
2508.45	0.858
2518.19	0.858
2527.93	0.856
2537.67	0.854
2547.41	0.851
2557.15	0.854
2566.89	0.851
2576.63	0.85
2586.37	0.849
2596.11	0.85
2605.85	0.85
2615.59	0.851
2625.33	0.85
2635.07	0.847
2644.81	0.852
2654.55	0.849
2664.29	0.846
2674.03	0.846
2683.77	0.846
2693.51	0.84
2703.25	0.841
2712.99	0.838
2722.73	0.836
2732.47	0.832
2742.21	0.834
2751.95	0.837
2761.69	0.836
2771.43	0.836
2781.17	0.833
2790.92	0.829
2800.66	0.825
2810.4	0.823
2820.14	0.82
2829.88	0.815
2839.62	0.805
2849.36	0.784
2859.1	0.781
2868.84	0.788
2878.58	0.792
2888.32	0.79
2898.06	0.785
2907.8	0.763
2917.54	0.732
2927.28	0.734
2937.02	0.758
2946.76	0.741
2956.5	0.731
2966.24	0.739
2975.98	0.731
2985.72	0.747
2995.46	0.766
3005.2	0.772
3014.94	0.77
3024.68	0.76
3034.42	0.75
3044.16	0.75
3053.9	0.748
3063.64	0.725
3073.38	0.73
3083.12	0.748
3092.86	0.747
3102.6	0.771
3112.34	0.79
3122.08	0.805
3131.82	0.815
3141.57	0.818
3151.31	0.818
3161.05	0.816
3170.79	0.818
3180.53	0.824
3190.27	0.824
3200.01	0.818
3209.75	0.819
3219.49	0.819
3229.23	0.819
3238.97	0.816
3248.71	0.818
3258.45	0.809
3268.19	0.806
3277.93	0.803
3287.67	0.798
3297.41	0.797
3307.15	0.797
3316.89	0.792
3326.63	0.793
3336.37	0.79
3346.11	0.783
3355.85	0.793
3365.59	0.796
3375.33	0.798
3385.07	0.802
3394.81	0.803
3404.55	0.811
3414.29	0.815
3424.03	0.819
3433.77	0.823
3443.51	0.827
3453.25	0.825
3462.99	0.83
3472.73	0.832
3482.48	0.833
3492.22	0.832
3501.96	0.832
3511.7	0.833
3521.44	0.836
3531.18	0.837
3540.92	0.837
3550.66	0.837
3560.4	0.837
3570.14	0.841
3579.88	0.838
3589.62	0.837
3599.36	0.838
3609.1	0.837
3618.84	0.836
3628.58	0.836
3638.32	0.836
3648.06	0.836
3657.8	0.834
3667.54	0.833
3677.28	0.833
3687.02	0.834
3696.76	0.833
3706.5	0.83
3716.24	0.83
3725.98	0.832
3735.72	0.833
3745.46	0.833
3755.2	0.833
3764.94	0.829
3774.68	0.83
3784.42	0.828
3794.16	0.83
3803.9	0.828
3813.64	0.832
3823.38	0.827
3833.13	0.83
3842.87	0.829
3852.61	0.829
3862.35	0.829
3872.09	0.827
3881.83	0.827
3891.57	0.827
3901.31	0.824
3911.05	0.825
3920.79	0.827
3930.53	0.827
3940.27	0.827
3950.01	0.827
3959.75	0.827
3969.49	0.825
3979.23	0.825
3988.97	0.824
3998.71	0.823
