Infrared Spectrum: PINENE (Alpha AND Beta)
Formula: C10 H16
State: VAPOR (15 MICROLITER AT 150 C)
Boiling point: 155 C
Class: COBLENTZ
Instrument: PERKIN-ELMER 180
Sampling: TRANSMISSION
Path length: 5 CM KBr CELL, CELL VOLUME: 80 CM^3
Resolution: 2-3 CM^-^1
Origin: PERKIN-ELMER CORP. (M. ZELLER)
1/CM	TRANSMITTANCE
410.838	0.498
420.322	0.5749
429.805	0.63
439.289	0.691
448.772	0.739
458.256	0.777
467.739	0.808
477.223	0.8379
486.706	0.861
496.19	0.878
505.673	0.875
515.157	0.88
524.64	0.886
534.124	0.895
543.607	0.901
553.091	0.902
562.574	0.898
572.058	0.902
581.541	0.91
591.025	0.913
600.508	0.911
609.992	0.909
619.475	0.906
628.959	0.911
638.442	0.913
647.926	0.914
657.409	0.914
666.893	0.913
676.376	0.911
685.86	0.913
695.343	0.907
704.827	0.907
714.31	0.907
723.794	0.903
733.277	0.897
742.761	0.895
752.245	0.887
761.728	0.865
771.212	0.841
780.695	0.795
790.179	0.754
799.662	0.807
809.146	0.873
818.629	0.887
828.113	0.886
837.596	0.883
847.08	0.876
856.563	0.871
866.047	0.853
875.53	0.808
885.014	0.768
894.497	0.8099
903.981	0.861
913.464	0.873
922.948	0.875
932.431	0.872
941.915	0.867
951.398	0.857
960.882	0.853
970.365	0.872
979.849	0.879
989.332	0.876
998.816	0.868
1008.3	0.845
1017.78	0.826
1027.27	0.83
1036.75	0.84
1046.23	0.842
1055.72	0.841
1065.2	0.84
1074.68	0.838
1084.17	0.826
1093.65	0.817
1103.13	0.819
1112.62	0.821
1122.1	0.813
1131.59	0.808
1141.07	0.823
1150.55	0.837
1160.04	0.831
1169.52	0.825
1179	0.823
1188.49	0.823
1197.97	0.815
1207.45	0.795
1216.94	0.785
1226.42	0.798
1235.9	0.821
1245.39	0.833
1254.87	0.825
1264.35	0.815
1273.84	0.819
1283.32	0.831
1292.8	0.836
1302.29	0.833
1311.77	0.827
1321.26	0.817
1330.74	0.804
1340.22	0.803
1349.71	0.81
1359.19	0.775
1368.67	0.708
1378.16	0.65
1387.64	0.654
1397.12	0.7519
1406.61	0.804
1416.09	0.804
1425.57	0.7751
1435.06	0.718
1444.54	0.663
1454.02	0.657
1463.51	0.67
1472.99	0.7
1482.48	0.761
1491.96	0.813
1501.44	0.842
1510.93	0.846
1520.41	0.848
1529.89	0.845
1539.38	0.841
1548.86	0.836
1558.34	0.823
1567.83	0.819
1577.31	0.814
1586.79	0.813
1596.28	0.811
1605.76	0.81
1615.24	0.81
1624.73	0.799
1634.21	0.779
1643.69	0.771
1653.18	0.789
1662.66	0.81
1672.15	0.822
1681.63	0.822
1691.11	0.814
1700.6	0.803
1710.08	0.804
1719.56	0.811
1729.05	0.814
1738.53	0.823
1748.01	0.834
1757.5	0.844
1766.98	0.848
1776.46	0.86
1785.95	0.869
1795.43	0.878
1804.91	0.882
1814.4	0.883
1823.88	0.884
1833.37	0.883
1842.85	0.883
1852.33	0.886
1861.82	0.884
1871.3	0.884
1880.78	0.883
1890.27	0.883
1899.75	0.886
1909.23	0.886
1918.72	0.886
1928.2	0.884
1937.68	0.882
1947.17	0.88
1956.65	0.88
1966.13	0.88
1975.62	0.88
1985.1	0.879
1994.58	0.875
2004.07	0.866
2013.55	0.864
2023.04	0.864
2032.52	0.861
2042	0.8605
2051.49	0.86
2060.97	0.859
2070.45	0.859
2079.94	0.859
2089.42	0.8588
2098.9	0.857
2108.39	0.856
2117.87	0.856
2127.35	0.855
2136.84	0.855
2146.32	0.8547
2155.8	0.8524
2165.29	0.852
2174.77	0.8523
2184.26	0.8517
2193.74	0.8493
2203.22	0.848
2212.71	0.8487
2222.19	0.85
2231.67	0.85
2241.16	0.85
2250.64	0.85
2260.12	0.849
2269.61	0.848
2279.09	0.848
2288.57	0.848
2298.06	0.846
2307.54	0.845
2317.02	0.844
2326.51	0.844
2335.99	0.844
2345.47	0.844
2354.96	0.842
2364.44	0.841
2373.93	0.842
2383.41	0.842
2392.89	0.842
2402.38	0.842
2411.86	0.8416
2421.34	0.841
2430.83	0.8406
2440.31	0.84
2449.79	0.8376
2459.28	0.837
2468.76	0.836
2478.24	0.8341
2487.73	0.834
2497.21	0.833
2506.69	0.833
2516.18	0.833
2525.66	0.833
2535.15	0.831
2544.63	0.831
2554.11	0.831
2563.6	0.83
2573.08	0.83
2582.56	0.8295
2592.05	0.829
2601.53	0.8279
2611.01	0.826
2620.5	0.8266
2629.98	0.826
2639.46	0.8238
2648.95	0.821
2658.43	0.819
2667.91	0.8221
2677.4	0.823
2686.88	0.8229
2696.36	0.8197
2705.85	0.8135
2715.33	0.804
2724.82	0.7958
2734.3	0.7957
2743.78	0.8
2753.27	0.802
2762.75	0.7998
2772.23	0.798
2781.72	0.7948
2791.2	0.7875
2800.68	0.7705
2810.17	0.7565
2819.65	0.7143
2829.13	0.6318
2838.62	0.5494
2848.1	0.519
2857.58	0.497
2867.07	0.3928
2876.55	0.2925
2886.04	0.2481
2895.52	0.2733
2905	0.1246
2914.49	0.0756
2923.97	0.0479
2933.45	0.109
2942.94	0.1936
2952.42	0.2107
2961.9	0.2602
2971.39	0.299
2980.87	0.2767
2990.35	0.3152
2999.84	0.497
3009.32	0.6297
3018.8	0.6045
3028.29	0.623
3037.77	0.6885
3047.26	0.7415
3056.74	0.737
3066.22	0.7225
3075.71	0.737
3085.19	0.7586
3094.67	0.768
3104.16	0.7701
3113.64	0.7731
3123.12	0.775
3132.61	0.7771
3142.09	0.78
3151.57	0.7831
3161.06	0.7862
3170.54	0.7911
3180.02	0.794
3189.51	0.795
3198.99	0.795
3208.47	0.7951
3217.96	0.796
3227.44	0.796
3236.93	0.796
3246.41	0.796
3255.89	0.796
3265.38	0.796
3274.86	0.796
3284.34	0.796
3293.83	0.796
3303.31	0.796
3312.79	0.796
3322.28	0.795
3331.76	0.795
3341.24	0.795
3350.73	0.795
3360.21	0.795
3369.69	0.795
3379.18	0.795
3388.66	0.795
3398.15	0.795
3407.63	0.794
3417.11	0.792
3426.6	0.792
3436.08	0.792
3445.56	0.795
3455.05	0.796
3464.53	0.796
3474.01	0.7956
3483.5	0.795
3492.98	0.794
3502.46	0.792
3511.95	0.792
3521.43	0.792
3530.91	0.792
3540.4	0.792
3549.88	0.791
3559.36	0.789
3568.85	0.788
3578.33	0.789
3587.82	0.789
3597.3	0.789
3606.78	0.788
3616.27	0.785
3625.75	0.784
3635.23	0.784
3644.72	0.7861
3654.2	0.787
3663.68	0.787
3673.17	0.787
3682.65	0.785
3692.13	0.784
3701.62	0.7834
3711.1	0.7812
3720.58	0.783
3730.07	0.783
3739.55	0.781
3749.04	0.783
3758.52	0.7817
3768	0.781
3777.49	0.7803
3786.97	0.779
3796.45	0.777
3805.94	0.777
3815.42	0.7763
3824.9	0.775
3834.39	0.775
3843.87	0.773
3853.35	0.772
3862.84	0.771
3872.32	0.771
3881.8	0.772
3891.29	0.772
3900.77	0.771
3910.25	0.771
3919.74	0.771
3929.22	0.771
3938.71	0.769
3948.19	0.768
3957.67	0.766
3967.16	0.766
3976.64	0.7667
3986.12	0.768
3995.61	0.768
4005.09	0.769
