Infrared Spectrum: BENZENE, Beta-DEUTEROETHYNYL-
Formula: C8 H5 D
State: GAS (VAPOR PRESSURE OF LIQUID AT ROOM TEMPERATURE)
Class: COBLENTZ
Instrument: Not specified, most likely a prism, grating, or hybrid spectrometer.
Sampling: TRANSMISSION
Path length: 400 CM CELL
Resolution: 4
Origin: DOW CHEMICAL COMPANY
1/CM	TRANSMITTANCE
451.282	0.932
459.829	0.901
468.376	0.458
476.923	0.033
485.47	0.065
494.017	0.727
502.564	0.99
511.111	0.969
519.658	0.748
528.205	0.224
536.752	0.503
545.299	0.893
553.846	1.006
562.393	1.034
570.94	1.05
579.487	1.053
588.034	1.053
596.581	1.029
605.128	0.978
613.675	0.686
622.222	0.88
630.769	1.006
639.316	0.921
647.863	0.917
656.41	0.881
664.957	0.832
673.504	0.468
682.051	0.244
690.598	0.0071
699.145	0.227
707.692	0.511
716.239	0.844
724.786	0.978
733.333	0.813
741.88	0.289
750.427	0.067
758.974	0.033
767.521	0.128
776.068	0.511
784.615	0.897
793.162	0.989
801.709	0.99
810.256	0.982
818.803	0.972
827.35	0.964
835.897	1.002
844.444	1.011
852.991	1.002
861.538	0.956
870.085	0.932
878.632	0.885
887.179	0.924
895.726	0.918
904.273	0.873
912.82	0.827
921.367	0.851
929.914	0.878
938.461	0.933
947.008	0.71
955.555	0.493
964.102	0.519
972.649	0.909
981.196	0.933
989.743	0.937
998.29	0.916
1006.84	0.795
1015.38	0.712
1023.93	0.703
1032.48	0.724
1041.03	0.819
1049.57	0.886
1058.12	0.799
1066.67	0.72
1075.21	0.723
1083.76	0.82
1092.31	0.859
1100.85	0.875
1109.4	0.902
1117.95	0.934
1126.5	0.944
1135.04	0.94
1143.59	0.914
1152.14	0.91
1160.68	0.902
1169.23	0.886
1177.78	0.865
1186.32	0.801
1194.87	0.836
1203.42	0.904
1211.97	0.901
1220.51	0.843
1229.06	0.839
1237.61	0.905
1246.15	0.908
1254.7	0.925
1263.25	0.906
1271.79	0.882
1280.34	0.886
1288.89	0.894
1297.44	0.894
1305.98	0.9
1314.53	0.904
1323.08	0.892
1331.62	0.892
1340.17	0.841
1348.72	0.86
1357.26	0.836
1365.81	0.795
1374.36	0.8
1382.91	0.835
1391.45	0.84
1400	0.823
1408.55	0.853
1417.09	0.86
1425.64	0.809
1434.19	0.74
1442.73	0.594
1451.28	0.601
1459.83	0.723
1468.38	0.799
1476.92	0.76
1485.47	0.239
1494.02	0.2561
1502.56	0.4881
1511.11	0.751
1519.66	0.768
1528.2	0.805
1536.75	0.811
1545.3	0.815
1553.85	0.845
1562.39	0.84
1570.94	0.76
1579.49	0.784
1588.03	0.719
1596.58	0.623
1605.13	0.646
1613.67	0.771
1622.22	0.845
1630.77	0.844
1639.32	0.84
1647.86	0.823
1656.41	0.832
1664.96	0.771
1673.5	0.76
1682.05	0.788
1690.6	0.849
1699.15	0.789
1707.69	0.835
1716.24	0.771
1724.79	0.78
1733.33	0.719
1741.88	0.72
1750.43	0.718
1758.97	0.747
1767.52	0.785
1776.07	0.837
1784.62	0.833
1793.16	0.775
1801.71	0.74
1810.26	0.746
1818.8	0.824
1827.35	0.808
1835.9	0.828
1844.44	0.813
1852.99	0.845
1861.54	0.831
1870.09	0.788
1878.63	0.784
1887.18	0.742
1895.73	0.767
1904.27	0.783
1912.82	0.844
1921.37	0.839
1929.91	0.823
1938.46	0.776
1947.01	0.765
1955.56	0.731
1964.1	0.756
1972.65	0.776
1981.2	0.84
1989.74	0.848
1998.29	0.844
2006.84	0.882
2015.38	0.886
2023.93	0.8898
2032.48	0.889
2041.03	0.8857
2049.57	0.888
2058.12	0.8847
2066.67	0.888
2075.21	0.8822
2083.76	0.8851
2092.31	0.8875
2100.85	0.88
2109.4	0.8728
2117.95	0.8697
2126.5	0.8546
2135.04	0.8559
2143.59	0.868
2152.14	0.8667
2160.68	0.873
2169.23	0.8672
2177.78	0.8727
2186.32	0.871
2194.87	0.8683
2203.42	0.8717
2211.97	0.8714
2220.51	0.8676
2229.06	0.8658
2237.61	0.8676
2246.15	0.8548
2254.7	0.86
2263.25	0.8538
2271.79	0.8596
2280.34	0.8518
2288.89	0.8515
2297.44	0.8615
2305.98	0.865
2314.53	0.8499
2323.08	0.8399
2331.62	0.8292
2340.17	0.835
2348.72	0.8287
2357.26	0.836
2365.81	0.8444
2374.36	0.8469
2382.91	0.8543
2391.45	0.8517
2400	0.856
2408.55	0.855
2417.09	0.856
2425.64	0.8499
2434.19	0.8456
2442.73	0.8478
2451.28	0.8492
2459.83	0.8475
2468.38	0.8377
2476.92	0.8314
2485.47	0.84
2494.02	0.8441
2502.56	0.8413
2511.11	0.837
2519.66	0.832
2528.2	0.8399
2536.75	0.839
2545.3	0.8293
2553.85	0.8292
2562.39	0.8122
2570.94	0.7657
2579.49	0.7112
2588.03	0.4103
2596.58	0.0981
2605.13	0.01
2613.67	0.0273
2622.22	0.6232
2630.77	0.8161
2639.32	0.8241
2647.86	0.8199
2656.41	0.82
2664.96	0.8319
2673.5	0.8245
2682.05	0.828
2690.6	0.8209
2699.14	0.8207
2707.69	0.825
2716.24	0.827
2724.79	0.815
2733.33	0.8151
2741.88	0.82
2750.43	0.8083
2758.97	0.8077
2767.52	0.8047
2776.07	0.812
2784.61	0.8141
2793.16	0.8087
2801.71	0.8123
2810.26	0.817
2818.8	0.8143
2827.35	0.8137
2835.9	0.8126
2844.44	0.809
2852.99	0.8046
2861.54	0.7996
2870.09	0.7941
2878.63	0.792
2887.18	0.786
2895.73	0.777
2904.27	0.786
2912.82	0.782
2921.37	0.7779
2929.91	0.7725
2938.46	0.7653
2947.01	0.7716
2955.56	0.777
2964.1	0.782
2972.65	0.7626
2981.2	0.7657
2989.74	0.766
2998.29	0.7717
3006.84	0.7633
3015.38	0.729
3023.93	0.6058
3032.48	0.5125
3041.03	0.3639
3049.57	0.3827
3058.12	0.4607
3066.67	0.2694
3075.21	0.1702
3083.76	0.175
3092.31	0.2875
3100.85	0.264
3109.4	0.4225
3117.95	0.5422
3126.5	0.7237
3135.04	0.7743
3143.59	0.7804
3152.14	0.776
3160.68	0.7613
3169.23	0.7678
3177.78	0.792
3186.32	0.7801
3194.87	0.784
3203.42	0.789
3211.97	0.7928
3220.51	0.7889
3229.06	0.7882
3237.61	0.7797
3246.15	0.7879
3254.7	0.785
3263.25	0.7868
3271.79	0.7889
3280.34	0.7867
3288.89	0.785
3297.44	0.7755
3305.98	0.7688
3314.53	0.7294
3323.08	0.6918
3331.62	0.6287
3340.17	0.6446
3348.72	0.6692
3357.26	0.7725
3365.81	0.7757
3374.36	0.773
3382.91	0.7735
3391.45	0.7732
3400	0.775
3408.55	0.771
3417.09	0.775
3425.64	0.7676
3434.19	0.772
3442.73	0.7742
3451.28	0.7702
3459.83	0.7687
3468.38	0.7717
3476.92	0.772
3485.47	0.776
3494.02	0.7703
3502.56	0.776
3511.11	0.7775
3519.66	0.7774
3528.2	0.768
3536.75	0.7796
3545.3	0.7773
3553.85	0.773
3562.39	0.783
3570.94	0.7736
3579.49	0.7797
3588.03	0.7664
3596.58	0.7597
3605.13	0.7763
3613.67	0.7619
3622.22	0.7698
3630.77	0.7617
3639.32	0.7721
3647.86	0.743
3656.41	0.7532
3664.96	0.7688
3673.5	0.7428
3682.05	0.769
3690.6	0.7659
3699.14	0.7735
3707.69	0.7537
3716.24	0.764
3724.79	0.7591
3733.33	0.743
3741.88	0.7483
3750.43	0.7599
3758.97	0.7694
3767.52	0.7688
3776.07	0.767
3784.61	0.7668
3793.16	0.751
