Infrared Spectrum: 4-PYRIMIDINEACETIC ACID, 6-AMINO-2-CHLORO-5-NITRO-, ETHYL ESTER
Formula: C8 H9 Cl N4 O4
State: SOLID (1 mg / 650 mg KBr DISC)
Class: COBLENTZ III
Instrument: PERKIN-ELMER 521 (GRATING)
Instrument parameters: GRATING CHANGES AT 2000, 620, FILTERS AT 3130, 2475, 2000, 1150, 700, 410 CM^-^1
Sampling: TRANSMISSION
Resolution: 4
Origin: SOUTHERN RESEARCH INSTITUTE
1/CM	TRANSMITTANCE
436.773	0.309
446.366	0.318
455.959	0.348
465.552	0.414
475.145	0.459
484.738	0.533
494.331	0.581
503.924	0.601
513.517	0.614
523.11	0.616
532.703	0.61
542.296	0.678
551.89	0.737
561.483	0.759
571.076	0.788
580.669	0.807
590.262	0.811
599.855	0.798
609.448	0.787
619.041	0.77
628.634	0.796
638.227	0.814
647.82	0.818
657.413	0.818
667.006	0.816
676.599	0.812
686.192	0.802
695.785	0.785
705.378	0.753
714.971	0.766
724.564	0.775
734.157	0.761
743.75	0.705
753.343	0.727
762.937	0.721
772.53	0.71
782.123	0.659
791.716	0.634
801.309	0.615
810.902	0.596
820.495	0.559
830.088	0.565
839.681	0.619
849.274	0.675
858.867	0.7
868.46	0.681
878.053	0.77
887.646	0.795
897.239	0.803
906.832	0.799
916.425	0.761
926.018	0.736
935.611	0.751
945.204	0.782
954.797	0.818
964.39	0.825
973.984	0.813
983.577	0.818
993.17	0.819
1002.76	0.817
1012.36	0.815
1021.95	0.731
1031.54	0.787
1041.13	0.767
1050.73	0.696
1060.32	0.818
1069.91	0.818
1079.51	0.813
1089.1	0.807
1098.69	0.796
1108.29	0.748
1117.88	0.676
1127.47	0.737
1137.07	0.686
1146.66	0.643
1156.25	0.782
1165.84	0.778
1175.44	0.761
1185.03	0.731
1194.62	0.687
1204.22	0.564
1213.81	0.485
1223.4	0.626
1233	0.723
1242.59	0.7
1252.18	0.587
1261.77	0.75
1271.37	0.736
1280.96	0.677
1290.55	0.703
1300.15	0.676
1309.74	0.725
1319.33	0.726
1328.93	0.7
1338.52	0.67
1348.11	0.599
1357.71	0.543
1367.3	0.522
1376.89	0.527
1386.48	0.431
1396.08	0.345
1405.67	0.293
1415.26	0.422
1424.86	0.511
1434.45	0.399
1444.04	0.459
1453.64	0.554
1463.23	0.543
1472.82	0.496
1482.41	0.429
1492.01	0.357
1501.6	0.518
1511.19	0.533
1520.79	0.393
1530.38	0.3
1539.97	0.616
1549.57	0.63
1559.16	0.547
1568.75	0.515
1578.35	0.585
1587.94	0.529
1597.53	0.483
1607.12	0.629
1616.72	0.654
1626.31	0.701
1635.9	0.674
1645.5	0.633
1655.09	0.577
1664.68	0.611
1674.28	0.641
1683.87	0.64
1693.46	0.583
1703.05	0.474
1712.65	0.455
1722.24	0.396
1731.83	0.332
1741.43	0.556
1751.02	0.586
1760.61	0.544
1770.21	0.408
1779.8	0.275
1789.39	0.224
1798.99	0.462
1808.58	0.37
1818.17	0.248
1827.76	0.182
1837.36	0.274
1846.95	0.413
1856.54	0.558
1866.14	0.653
1875.73	0.695
1885.32	0.725
1894.92	0.729
1904.51	0.674
1914.1	0.501
1923.69	0.257
1933.29	0.402
1942.88	0.607
1952.47	0.712
1962.07	0.75
1971.66	0.774
1981.25	0.792
1990.85	0.8
2000.44	0.812
2010.03	0.818
2019.63	0.824
2029.22	0.826
2038.81	0.828
2048.4	0.832
2058	0.835
2067.59	0.839
2077.18	0.842
2086.78	0.844
2096.37	0.845
2105.96	0.847
2115.56	0.848
2125.15	0.848
2134.74	0.847
2144.34	0.846
2153.93	0.848
2163.52	0.851
2173.11	0.85
2182.71	0.848
2192.3	0.847
2201.89	0.846
2211.49	0.844
2221.08	0.844
2230.67	0.844
2240.27	0.846
2249.86	0.844
2259.45	0.844
2269.04	0.844
2278.64	0.844
2288.23	0.844
2297.82	0.844
2307.42	0.845
2317.01	0.845
2326.6	0.844
2336.2	0.844
2345.79	0.845
2355.38	0.845
2364.98	0.845
2374.57	0.845
2384.16	0.844
2393.75	0.844
2403.35	0.843
2412.94	0.842
2422.53	0.844
2432.13	0.844
2441.72	0.846
2451.31	0.847
2460.91	0.849
2470.5	0.848
2480.09	0.848
2489.68	0.847
2499.28	0.847
2508.87	0.846
2518.46	0.843
2528.06	0.841
2537.65	0.841
2547.24	0.84
2556.84	0.839
2566.43	0.839
2576.02	0.839
2585.62	0.839
2595.21	0.838
2604.8	0.837
2614.39	0.837
2623.99	0.834
2633.58	0.834
2643.17	0.833
2652.77	0.834
2662.36	0.834
2671.95	0.834
2681.55	0.834
2691.14	0.833
2700.73	0.834
2710.32	0.834
2719.92	0.833
2729.51	0.833
2739.1	0.833
2748.7	0.834
2758.29	0.835
2767.88	0.837
2777.48	0.838
2787.07	0.838
2796.66	0.837
2806.26	0.836
2815.85	0.833
2825.44	0.832
2835.03	0.83
2844.63	0.829
2854.22	0.829
2863.81	0.83
2873.41	0.83
2883	0.829
2892.59	0.829
2902.19	0.828
2911.78	0.825
2921.37	0.818
2930.96	0.82
2940.56	0.823
2950.15	0.826
2959.74	0.828
2969.34	0.829
2978.93	0.825
2988.52	0.823
2998.12	0.82
3007.71	0.818
3017.3	0.815
3026.9	0.805
3036.49	0.799
3046.08	0.797
3055.67	0.796
3065.27	0.794
3074.86	0.789
3084.45	0.78
3094.05	0.762
3103.64	0.752
3113.23	0.742
3122.83	0.718
3132.42	0.703
3142.01	0.731
3151.6	0.742
3161.2	0.717
3170.79	0.726
3180.38	0.71
3189.98	0.688
3199.57	0.718
3209.16	0.753
3218.76	0.76
3228.35	0.759
3237.94	0.753
3247.54	0.746
3257.13	0.738
3266.72	0.731
3276.31	0.723
3285.91	0.706
3295.5	0.7
3305.09	0.681
3314.69	0.663
3324.28	0.653
3333.87	0.633
3343.47	0.597
3353.06	0.559
3362.65	0.525
3372.24	0.482
3381.84	0.47
3391.43	0.503
3401.02	0.556
3410.62	0.566
3420.21	0.574
3429.8	0.593
3439.4	0.592
3448.99	0.58
3458.58	0.551
3468.18	0.514
3477.77	0.47
3487.36	0.461
3496.95	0.509
3506.55	0.582
3516.14	0.628
3525.73	0.657
3535.33	0.67
3544.92	0.669
3554.51	0.662
3564.11	0.65
3573.7	0.625
3583.29	0.574
3592.88	0.528
3602.48	0.493
3612.07	0.525
3621.66	0.605
3631.26	0.655
3640.85	0.69
3650.44	0.717
3660.04	0.733
3669.63	0.746
3679.22	0.759
3688.82	0.77
3698.41	0.777
3708	0.784
3717.59	0.791
3727.19	0.796
3736.78	0.803
3746.37	0.806
3755.97	0.808
3765.56	0.813
3775.15	0.816
3784.75	0.819
3794.34	0.823
3803.93	0.827
3813.52	0.833
3823.12	0.837
3832.71	0.842
3842.3	0.844
3851.9	0.846
3861.49	0.847
3871.08	0.846
3880.68	0.845
3890.27	0.848
3899.86	0.85
3909.46	0.851
3919.05	0.851
3928.64	0.851
3938.23	0.849
3947.83	0.848
3957.42	0.851
3967.01	0.852
3976.61	0.852
3986.2	0.853
3995.79	0.852
4005.39	0.849
