Infrared Spectrum: DIISOBUTYLENE
Formula: C8 H16
State: VAPOR (13 MICROLITER AT 150 C)
Boiling point: 101 C
Class: COBLENTZ
Instrument: PERKIN-ELMER 180
Sampling: TRANSMISSION
Path length: 5 CM KBr CELL, CELL VOLUME: 80 CM^3
Resolution: 2-3 CM^-^1
Origin: PERKIN-ELMER CORP. (M. ZELLER)
1/CM	TRANSMITTANCE
409.436	0.502
418.872	0.5689
428.307	0.636
437.743	0.695
447.178	0.737
456.614	0.777
466.049	0.814
475.485	0.8519
484.92	0.875
494.356	0.891
503.791	0.886
513.227	0.897
522.663	0.905
532.098	0.903
541.534	0.898
550.969	0.894
560.405	0.897
569.84	0.911
579.276	0.922
588.711	0.925
598.147	0.925
607.582	0.928
617.018	0.929
626.454	0.93
635.889	0.93
645.325	0.929
654.76	0.928
664.196	0.928
673.631	0.926
683.067	0.925
692.502	0.922
701.938	0.921
711.373	0.92
720.809	0.917
730.244	0.913
739.68	0.909
749.116	0.903
758.551	0.898
767.987	0.899
777.422	0.902
786.858	0.902
796.293	0.898
805.729	0.888
815.164	0.878
824.6	0.879
834.035	0.888
843.471	0.895
852.907	0.894
862.342	0.884
871.778	0.842
881.213	0.733
890.649	0.6231
900.084	0.681
909.52	0.818
918.955	0.886
928.391	0.901
937.826	0.906
947.262	0.911
956.698	0.911
966.133	0.907
975.569	0.902
985.004	0.901
994.44	0.895
1003.88	0.886
1013.31	0.882
1022.75	0.878
1032.18	0.875
1041.62	0.879
1051.05	0.876
1060.49	0.871
1069.92	0.861
1079.36	0.865
1088.8	0.876
1098.23	0.88
1107.67	0.88
1117.1	0.876
1126.54	0.873
1135.97	0.869
1145.41	0.86
1154.84	0.855
1164.28	0.855
1173.72	0.852
1183.15	0.833
1192.59	0.814
1202.02	0.811
1211.46	0.814
1220.89	0.791
1230.33	0.769
1239.76	0.787
1249.2	0.811
1258.63	0.823
1268.07	0.838
1277.51	0.855
1286.94	0.859
1296.38	0.855
1305.81	0.845
1315.25	0.837
1324.68	0.834
1334.12	0.833
1343.55	0.785
1352.99	0.689
1362.43	0.5841
1371.86	0.6
1381.3	0.672
1390.73	0.737
1400.17	0.769
1409.6	0.789
1419.04	0.785
1428.47	0.756
1437.91	0.722
1447.35	0.673
1456.78	0.64
1466.22	0.631
1475.65	0.659
1485.09	0.7259
1494.52	0.813
1503.96	0.842
1513.39	0.849
1522.83	0.848
1532.27	0.844
1541.7	0.841
1551.14	0.836
1560.57	0.831
1570.01	0.826
1579.44	0.825
1588.88	0.821
1598.31	0.819
1607.75	0.815
1617.19	0.798
1626.62	0.764
1636.06	0.742
1645.49	0.746
1654.93	0.791
1664.36	0.825
1673.8	0.84
1683.23	0.84
1692.67	0.841
1702.11	0.837
1711.54	0.837
1720.98	0.841
1730.41	0.848
1739.85	0.855
1749.28	0.867
1758.72	0.871
1768.15	0.871
1777.59	0.868
1787.03	0.865
1796.46	0.871
1805.9	0.888
1815.33	0.895
1824.77	0.899
1834.2	0.901
1843.64	0.901
1853.07	0.899
1862.51	0.898
1871.95	0.898
1881.38	0.898
1890.82	0.898
1900.25	0.898
1909.69	0.898
1919.12	0.897
1928.56	0.898
1937.99	0.897
1947.43	0.892
1956.87	0.894
1966.3	0.891
1975.74	0.892
1985.17	0.891
1994.61	0.892
2004.04	0.892
2013.48	0.892
2022.91	0.891
2032.35	0.89
2041.79	0.89
2051.22	0.89
2060.66	0.89
2070.09	0.888
2079.53	0.888
2088.96	0.89
2098.4	0.891
2107.83	0.8902
2117.27	0.89
2126.71	0.8885
2136.14	0.888
2145.58	0.887
2155.01	0.8868
2164.45	0.886
2173.88	0.884
2183.32	0.883
2192.75	0.883
2202.19	0.883
2211.62	0.883
2221.06	0.882
2230.5	0.88
2239.93	0.879
2249.37	0.879
2258.8	0.877
2268.24	0.875
2277.67	0.873
2287.11	0.872
2296.54	0.8726
2305.98	0.871
2315.42	0.872
2324.85	0.875
2334.29	0.872
2343.72	0.8712
2353.16	0.871
2362.59	0.871
2372.03	0.8713
2381.46	0.8712
2390.9	0.871
2400.34	0.872
2409.77	0.872
2419.21	0.871
2428.64	0.869
2438.08	0.869
2447.51	0.868
2456.95	0.867
2466.38	0.865
2475.82	0.864
2485.26	0.863
2494.69	0.863
2504.13	0.863
2513.56	0.861
2523	0.863
2532.43	0.864
2541.87	0.864
2551.3	0.8621
2560.74	0.8628
2570.18	0.861
2579.61	0.86
2589.05	0.8583
2598.48	0.857
2607.92	0.8567
2617.35	0.855
2626.79	0.852
2636.22	0.8505
2645.66	0.8498
2655.1	0.8483
2664.53	0.848
2673.97	0.848
2683.4	0.8458
2692.84	0.842
2702.27	0.841
2711.71	0.8351
2721.14	0.8287
2730.58	0.8214
2740.02	0.8211
2749.45	0.823
2758.89	0.827
2768.32	0.827
2777.76	0.826
2787.19	0.8221
2796.63	0.8131
2806.06	0.8013
2815.5	0.7912
2824.94	0.7674
2834.37	0.7438
2843.81	0.6931
2853.24	0.6232
2862.68	0.5309
2872.11	0.4232
2881.55	0.3964
2890.98	0.398
2900.42	0.3765
2909.86	0.3227
2919.29	0.2824
2928.73	0.2821
2938.16	0.2639
2947.6	0.195
2957.03	0.1193
2966.47	0.0722
2975.9	0.1348
2985.34	0.3457
2994.78	0.5496
3004.21	0.6544
3013.65	0.7142
3023.08	0.7365
3032.52	0.754
3041.95	0.7551
3051.39	0.749
3060.82	0.7204
3070.26	0.65
3079.69	0.6449
3089.13	0.7142
3098.57	0.7741
3108	0.7827
3117.44	0.7897
3126.87	0.7958
3136.31	0.7983
3145.74	0.799
3155.18	0.798
3164.61	0.7965
3174.05	0.796
3183.49	0.795
3192.92	0.794
3202.36	0.7957
3211.79	0.7963
3221.23	0.798
3230.66	0.799
3240.1	0.8
3249.53	0.803
3258.97	0.804
3268.41	0.806
3277.84	0.808
3287.28	0.808
3296.71	0.808
3306.15	0.806
3315.58	0.803
3325.02	0.802
3334.45	0.802
3343.89	0.8029
3353.33	0.803
3362.76	0.804
3372.2	0.804
3381.63	0.804
3391.07	0.804
3400.5	0.804
3409.94	0.804
3419.37	0.804
3428.81	0.804
3438.25	0.804
3447.68	0.804
3457.12	0.8033
3466.55	0.803
3475.99	0.803
3485.42	0.803
3494.86	0.803
3504.29	0.802
3513.73	0.803
3523.17	0.803
3532.6	0.802
3542.04	0.802
3551.47	0.802
3560.91	0.802
3570.34	0.802
3579.78	0.802
3589.21	0.8012
3598.65	0.8
3608.09	0.8
3617.52	0.8003
3626.96	0.799
3636.39	0.799
3645.83	0.799
3655.26	0.799
3664.7	0.798
3674.13	0.798
3683.57	0.796
3693.01	0.7953
3702.44	0.795
3711.88	0.795
3721.31	0.794
3730.75	0.794
3740.18	0.792
3749.62	0.794
3759.05	0.792
3768.49	0.792
3777.93	0.791
3787.36	0.791
3796.8	0.789
3806.23	0.788
3815.67	0.787
3825.1	0.7861
3834.54	0.784
3843.97	0.784
3853.41	0.783
3862.85	0.781
3872.28	0.781
3881.72	0.78
3891.15	0.78
3900.59	0.78
3910.02	0.779
3919.46	0.779
3928.89	0.777
3938.33	0.777
3947.76	0.777
3957.2	0.7768
3966.64	0.7753
3976.07	0.775
3985.51	0.775
3994.94	0.775
4004.38	0.775
