Infrared Spectrum: OCTYLTHIOSULFURIC ACID, 2-AMINO-2-METHYL-
Formula: C9 H21 N O3 S2
State: SOLID (1 mg / 650 mg KBr DISC)
Class: COBLENTZ III
Instrument: PERKIN-ELMER 221 (GRATING)
Instrument parameters: GRATING FOR 4000-1428, FILTERS AT 2490, 980, NaCl PRISM FOR 1428-650 CM^-^1
Sampling: TRANSMISSION
Resolution: 4
Origin: SOUTHERN RESEARCH INSTITUTE
1/CM	TRANSMITTANCE
673.203	0.807
682.227	0.8337
691.251	0.8714
700.275	0.884
709.299	0.8648
718.323	0.7096
727.347	0.7549
736.371	0.8881
745.394	0.9134
754.418	0.921
763.442	0.919
772.466	0.8836
781.49	0.8719
790.514	0.8933
799.538	0.9137
808.562	0.9275
817.586	0.9345
826.61	0.9126
835.634	0.9013
844.658	0.931
853.682	0.93
862.706	0.926
871.73	0.9094
880.754	0.8935
889.777	0.8664
898.801	0.8942
907.825	0.8835
916.849	0.8657
925.873	0.8215
934.897	0.8202
943.921	0.7433
952.945	0.676
961.969	0.8124
970.993	0.7986
980.017	0.8047
989.041	0.7653
998.065	0.7199
1007.09	0.6295
1016.11	0.462
1025.14	0.1418
1034.16	0.1944
1043.18	0.5699
1052.21	0.6482
1061.23	0.7467
1070.26	0.7455
1079.28	0.6449
1088.3	0.7868
1097.33	0.7908
1106.35	0.7518
1115.38	0.7215
1124.4	0.6856
1133.42	0.5812
1142.45	0.6389
1151.47	0.6019
1160.5	0.4962
1169.52	0.3848
1178.54	0.2381
1187.57	0.2185
1196.59	0.1343
1205.62	0.0753
1214.64	0.0894
1223.66	0.0908
1232.69	0.161
1241.71	0.2595
1250.73	0.3445
1259.76	0.3932
1268.78	0.4934
1277.81	0.5348
1286.83	0.5575
1295.85	0.5163
1304.88	0.6131
1313.9	0.6861
1322.93	0.703
1331.95	0.6716
1340.97	0.6903
1350	0.7662
1359.02	0.7674
1368.05	0.7459
1377.07	0.6699
1386.09	0.7206
1395.12	0.6308
1404.14	0.499
1413.17	0.7334
1422.19	0.822
1431.21	0.82
1440.24	0.769
1449.26	0.7325
1458.29	0.6308
1467.31	0.5191
1476.33	0.646
1485.36	0.7597
1494.38	0.7321
1503.41	0.6591
1512.43	0.3578
1521.45	0.3904
1530.48	0.5876
1539.5	0.6999
1548.52	0.7653
1557.55	0.792
1566.57	0.8008
1575.6	0.803
1584.62	0.7876
1593.64	0.7449
1602.67	0.6634
1611.69	0.5072
1620.72	0.4706
1629.74	0.5447
1638.76	0.6696
1647.79	0.7544
1656.81	0.7868
1665.84	0.8138
1674.86	0.8385
1683.88	0.8533
1692.91	0.8621
1701.93	0.868
1710.96	0.8768
1719.98	0.8828
1729	0.8877
1738.03	0.892
1747.05	0.896
1756.08	0.8994
1765.1	0.9026
1774.12	0.9064
1783.15	0.91
1792.17	0.912
1801.19	0.9168
1810.22	0.919
1819.24	0.9227
1828.27	0.924
1837.29	0.926
1846.31	0.927
1855.34	0.927
1864.36	0.927
1873.39	0.9257
1882.41	0.923
1891.43	0.921
1900.46	0.9172
1909.48	0.915
1918.51	0.91
1927.53	0.9069
1936.55	0.902
1945.58	0.892
1954.6	0.886
1963.63	0.879
1972.65	0.8709
1981.67	0.855
1990.7	0.8391
1999.72	0.8294
2008.75	0.811
2017.77	0.807
2026.79	0.8
2035.82	0.8201
2044.84	0.83
2053.87	0.8376
2062.89	0.8469
2071.91	0.8696
2080.94	0.8823
2089.96	0.891
2098.98	0.8928
2108.01	0.8946
2117.03	0.896
2126.06	0.895
2135.08	0.892
2144.1	0.901
2153.13	0.902
2162.15	0.904
2171.18	0.906
2180.2	0.909
2189.22	0.912
2198.25	0.912
2207.27	0.909
2216.3	0.9027
2225.32	0.8927
2234.34	0.8717
2243.37	0.8676
2252.39	0.8909
2261.42	0.899
2270.44	0.9
2279.46	0.904
2288.49	0.909
2297.51	0.91
2306.54	0.9122
2315.56	0.91
2324.58	0.9042
2333.61	0.901
2342.63	0.9002
2351.66	0.897
2360.68	0.897
2369.7	0.9018
2378.73	0.902
2387.75	0.9
2396.77	0.897
2405.8	0.8934
2414.82	0.892
2423.85	0.8872
2432.87	0.8739
2441.89	0.8624
2450.92	0.8377
2459.94	0.8162
2468.97	0.824
2477.99	0.826
2487.01	0.8333
2496.04	0.8279
2505.06	0.812
2514.09	0.828
2523.11	0.835
2532.13	0.8211
2541.16	0.7967
2550.18	0.7771
2559.21	0.7261
2568.23	0.7248
2577.25	0.7232
2586.28	0.7226
2595.3	0.7613
2604.33	0.789
2613.35	0.79
2622.37	0.787
2631.4	0.785
2640.42	0.7804
2649.44	0.765
2658.47	0.7614
2667.49	0.7462
2676.52	0.738
2685.54	0.738
2694.56	0.737
2703.59	0.7489
2712.61	0.7642
2721.64	0.7567
2730.66	0.739
2739.68	0.7388
2748.71	0.7344
2757.73	0.7282
2766.76	0.723
2775.78	0.7089
2784.8	0.6821
2793.83	0.6489
2802.85	0.6189
2811.88	0.61
2820.9	0.6102
2829.92	0.5903
2838.95	0.5348
2847.97	0.449
2857	0.3205
2866.02	0.3702
2875.04	0.3901
2884.07	0.4414
2893.09	0.4023
2902.12	0.3507
2911.14	0.2978
2920.16	0.2291
2929.19	0.1993
2938.21	0.2396
2947.23	0.2432
2956.26	0.2308
2965.28	0.2466
2974.31	0.3149
2983.33	0.3378
2992.35	0.3598
3001.38	0.362
3010.4	0.3584
3019.43	0.3386
3028.45	0.3142
3037.47	0.2855
3046.5	0.2539
3055.52	0.2254
3064.55	0.2104
3073.57	0.2
3082.59	0.199
3091.62	0.2023
3100.64	0.2176
3109.67	0.2268
3118.69	0.238
3127.71	0.24
3136.74	0.2408
3145.76	0.2556
3154.79	0.2869
3163.81	0.3169
3172.83	0.3493
3181.86	0.3806
3190.88	0.4107
3199.9	0.4435
3208.93	0.4646
3217.95	0.49
3226.98	0.495
3236	0.4988
3245.02	0.5156
3254.05	0.5466
3263.07	0.5855
3272.1	0.6161
3281.12	0.6431
3290.14	0.6614
3299.17	0.6723
3308.19	0.6848
3317.22	0.692
3326.24	0.695
3335.26	0.698
3344.29	0.697
3353.31	0.698
3362.34	0.694
3371.36	0.6932
3380.38	0.69
3389.41	0.689
3398.43	0.688
3407.46	0.685
3416.48	0.684
3425.5	0.686
3434.53	0.689
3443.55	0.692
3452.58	0.695
3461.6	0.698
3470.62	0.699
3479.65	0.7028
3488.67	0.7096
3497.69	0.7168
3506.72	0.7226
3515.74	0.724
3524.77	0.7368
3533.79	0.7428
3542.81	0.7536
3551.84	0.7576
3560.86	0.7638
3569.89	0.7688
3578.91	0.774
3587.93	0.7808
3596.96	0.7906
3605.98	0.796
3615.01	0.8
3624.03	0.807
3633.05	0.811
3642.08	0.8193
3651.1	0.824
3660.13	0.8268
3669.15	0.827
3678.17	0.829
3687.2	0.831
3696.22	0.833
3705.25	0.836
3714.27	0.839
3723.29	0.839
3732.32	0.838
3741.34	0.8382
3750.37	0.838
3759.39	0.8376
3768.41	0.84
3777.44	0.842
3786.46	0.8428
3795.48	0.842
3804.51	0.843
3813.53	0.84
3822.56	0.843
3831.58	0.843
3840.6	0.843
3849.63	0.842
3858.65	0.842
3867.68	0.838
3876.7	0.843
3885.72	0.8422
3894.75	0.843
3903.77	0.843
3912.8	0.843
3921.82	0.843
3930.84	0.843
3939.87	0.843
3948.89	0.843
3957.92	0.842
3966.94	0.844
3975.96	0.8422
3984.99	0.838
3994.01	0.84
4003.04	0.842
