Infrared Spectrum: 4-THIAZOLECARBOXAMIDE, 5-AMINO-2-(CYANOMETHYLTHIO)-
Formula: C6 H6 N4 O S2
State: SOLID (1 mg / 500 mg KBr DISC)
Class: COBLENTZ III
Instrument: PERKIN-ELMER 621
Sampling: TRANSMISSION
Resolution: 4
Origin: SOUTHERN RESEARCH INSTITUTE
1/CM	TRANSMITTANCE
305.944	0.43
316.434	0.464
326.923	0.472
337.413	0.477
347.902	0.472
358.392	0.492
368.881	0.467
379.371	0.4959
389.86	0.554
400.35	0.54
410.839	0.435
421.329	0.507
431.818	0.517
442.308	0.544
452.797	0.571
463.287	0.604
473.776	0.619
484.266	0.615
494.755	0.578
505.245	0.558
515.735	0.456
526.224	0.5279
536.714	0.522
547.203	0.486
557.693	0.463
568.182	0.539
578.672	0.624
589.161	0.642
599.651	0.643
610.14	0.708
620.63	0.722
631.119	0.7309
641.609	0.717
652.098	0.804
662.588	0.806
673.077	0.709
683.567	0.5487
694.057	0.801
704.546	0.7889
715.036	0.787
725.525	0.773
736.015	0.726
746.504	0.79
756.994	0.841
767.483	0.854
777.973	0.689
788.462	0.606
798.952	0.785
809.441	0.819
819.931	0.829
830.42	0.832
840.91	0.816
851.399	0.7501
861.889	0.655
872.378	0.862
882.868	0.867
893.358	0.867
903.847	0.861
914.337	0.853
924.826	0.82
935.316	0.768
945.805	0.852
956.295	0.846
966.784	0.836
977.274	0.816
987.763	0.777
998.253	0.5736
1008.74	0.3661
1019.23	0.6599
1029.72	0.793
1040.21	0.807
1050.7	0.802
1061.19	0.786
1071.68	0.744
1082.17	0.718
1092.66	0.738
1103.15	0.75
1113.64	0.748
1124.13	0.743
1134.62	0.731
1145.11	0.713
1155.6	0.708
1166.09	0.719
1176.57	0.7288
1187.06	0.767
1197.55	0.785
1208.04	0.768
1218.53	0.706
1229.02	0.701
1239.51	0.738
1250	0.725
1260.49	0.7049
1270.98	0.769
1281.47	0.756
1291.96	0.726
1302.45	0.663
1312.94	0.5301
1323.43	0.6429
1333.92	0.768
1344.41	0.756
1354.9	0.726
1365.39	0.688
1375.88	0.599
1386.37	0.515
1396.85	0.638
1407.34	0.569
1417.83	0.4511
1428.32	0.2612
1438.81	0.308
1449.3	0.302
1459.79	0.56
1470.28	0.5201
1480.77	0.3291
1491.26	0.163
1501.75	0.242
1512.24	0.464
1522.73	0.5819
1533.22	0.619
1543.71	0.59
1554.2	0.451
1564.69	0.319
1575.18	0.1451
1585.67	0.18
1596.16	0.29
1606.65	0.329
1617.13	0.56
1627.62	0.4771
1638.11	0.2821
1648.6	0.119
1659.09	0.125
1669.58	0.4291
1680.07	0.7148
1690.56	0.806
1701.05	0.85
1711.54	0.876
1722.03	0.895
1732.52	0.922
1743.01	0.931
1753.5	0.933
1763.99	0.933
1774.48	0.935
1784.97	0.935
1795.46	0.935
1805.95	0.933
1816.44	0.931
1826.93	0.928
1837.41	0.922
1847.9	0.92
1858.39	0.918
1868.88	0.917
1879.37	0.916
1889.86	0.913
1900.35	0.912
1910.84	0.907
1921.33	0.904
1931.82	0.9
1942.31	0.897
1952.8	0.893
1963.29	0.89
1973.78	0.887
1984.27	0.884
1994.76	0.882
2005.25	0.878
2015.74	0.875
2026.23	0.873
2036.72	0.87
2047.21	0.8701
2057.7	0.869
2068.18	0.865
2078.67	0.8612
2089.16	0.8561
2099.65	0.854
2110.14	0.8543
2120.63	0.85
2131.12	0.849
2141.61	0.8452
2152.1	0.8402
2162.59	0.835
2173.08	0.8335
2183.57	0.8322
2194.06	0.829
2204.55	0.828
2215.04	0.825
2225.53	0.8126
2236.02	0.7903
2246.51	0.5721
2257	0.8243
2267.49	0.821
2277.98	0.8184
2288.46	0.816
2298.95	0.8154
2309.44	0.807
2319.93	0.8034
2330.42	0.7974
2340.91	0.8001
2351.4	0.801
2361.89	0.798
2372.38	0.798
2382.87	0.797
2393.36	0.794
2403.85	0.787
2414.34	0.7831
2424.83	0.7776
2435.32	0.772
2445.81	0.776
2456.3	0.78
2466.79	0.778
2477.28	0.7764
2487.77	0.777
2498.26	0.7687
2508.74	0.7664
2519.23	0.769
2529.72	0.7687
2540.21	0.767
2550.7	0.7637
2561.19	0.7568
2571.68	0.757
2582.17	0.751
2592.66	0.7502
2603.15	0.7508
2613.64	0.744
2624.13	0.7398
2634.62	0.735
2645.11	0.734
2655.6	0.726
2666.09	0.7248
2676.58	0.721
2687.07	0.7148
2697.56	0.7078
2708.05	0.6959
2718.54	0.689
2729.02	0.687
2739.51	0.687
2750	0.685
2760.49	0.692
2770.98	0.695
2781.47	0.693
2791.96	0.691
2802.45	0.6811
2812.94	0.681
2823.43	0.68
2833.92	0.6722
2844.41	0.672
2854.9	0.67
2865.39	0.6592
2875.88	0.6502
2886.37	0.6404
2896.86	0.6256
2907.35	0.6094
2917.84	0.5969
2928.33	0.576
2938.82	0.4873
2949.3	0.615
2959.79	0.6048
2970.28	0.5927
2980.77	0.515
2991.26	0.5802
3001.75	0.6033
3012.24	0.592
3022.73	0.5751
3033.22	0.564
3043.71	0.5474
3054.2	0.5328
3064.69	0.5153
3075.18	0.4989
3085.67	0.489
3096.16	0.4765
3106.65	0.4559
3117.14	0.4274
3127.63	0.4
3138.12	0.3681
3148.61	0.3466
3159.1	0.3292
3169.58	0.3146
3180.07	0.3016
3190.56	0.3086
3201.05	0.343
3211.54	0.3576
3222.03	0.3513
3232.52	0.3303
3243.01	0.3093
3253.5	0.2977
3263.99	0.3013
3274.48	0.3107
3284.97	0.274
3295.46	0.2101
3305.95	0.1707
3316.44	0.1872
3326.93	0.2543
3337.42	0.3681
3347.91	0.443
3358.4	0.4614
3368.89	0.4468
3379.38	0.4253
3389.87	0.3891
3400.35	0.3339
3410.84	0.2629
3421.33	0.1899
3431.82	0.1782
3442.31	0.1666
3452.8	0.1238
3463.29	0.3506
3473.78	0.5234
3484.27	0.5823
3494.76	0.628
3505.25	0.66
3515.74	0.6749
3526.23	0.692
3536.72	0.7039
3547.21	0.71
3557.7	0.715
3568.19	0.7179
3578.68	0.723
3589.17	0.7269
3599.66	0.7357
3610.15	0.738
3620.63	0.743
3631.12	0.746
3641.61	0.747
3652.1	0.748
3662.59	0.7432
3673.08	0.7327
3683.57	0.7348
3694.06	0.738
3704.55	0.74
3715.04	0.735
3725.53	0.736
3736.02	0.732
3746.51	0.7263
3757	0.7293
3767.49	0.725
3777.98	0.7214
3788.47	0.715
3798.96	0.715
3809.45	0.7144
3819.94	0.712
3830.43	0.7054
3840.91	0.7031
3851.4	0.7055
3861.89	0.707
3872.38	0.704
3882.87	0.702
3893.36	0.7
3903.85	0.696
3914.34	0.693
3924.83	0.691
3935.32	0.689
3945.81	0.684
3956.3	0.6886
3966.79	0.685
3977.28	0.68
3987.77	0.681
3998.26	0.6797
