Infrared Spectrum: OCTANOIC ACID, PENTADECAFLUORO-, SODIUM SALT
Formula: C8 F15 O2 Na
State: SOLID (SPLIT MULL, FLUOROLUBE FOR 3800-1333 AND NUJOL FOR 1333-400 CM ^-^1)
Class: COBLENTZ III
Instrument: DOW KBr FOREPRISM-GRATING
Instrument parameters: BLAZED AT 3.5, 12.0, 20.0 MICRON, CHANGED AT 5.0, 7.5, 14.9 MICRON
Sampling: TRANSMISSION
Resolution: 4
Origin: DOW CHEMICAL COMPANY
1/CM	TRANSMITTANCE
400.292	0.702
409.038	0.702
417.785	0.769
426.531	0.83
435.278	0.881
444.024	0.912
452.77	0.942
461.517	0.96
470.263	0.969
479.009	0.986
487.756	1.004
496.502	1.012
505.249	1.009
513.995	0.99
522.741	0.905
531.488	0.781
540.234	0.915
548.981	0.859
557.727	0.784
566.473	0.875
575.22	0.978
583.966	0.989
592.712	0.993
601.459	0.976
610.205	0.963
618.952	0.95
627.698	0.907
636.444	0.849
645.191	0.852
653.937	0.946
662.684	0.704
671.43	0.793
680.176	0.903
688.923	0.968
697.669	0.995
706.415	0.983
715.162	0.919
723.908	0.842
732.655	0.856
741.401	0.905
750.147	0.9
758.894	1.009
767.64	1.016
776.387	0.956
785.133	1.023
793.879	1.001
802.626	1.021
811.372	0.991
820.118	0.726
828.865	0.8971
837.611	1.01
846.358	1.025
855.104	1.042
863.85	1.047
872.597	1.047
881.343	1.035
890.09	0.931
898.836	1.013
907.582	1.019
916.329	0.993
925.075	1.002
933.821	1.009
942.568	1.012
951.314	1.008
960.061	1.002
968.807	0.989
977.553	0.952
986.3	0.823
995.046	0.978
1003.79	0.975
1012.54	0.901
1021.29	0.8121
1030.03	0.974
1038.78	0.982
1047.52	0.987
1056.27	0.979
1065.02	0.957
1073.76	0.954
1082.51	0.953
1091.26	0.931
1100	0.7499
1108.75	0.777
1117.5	0.758
1126.24	0.4429
1134.99	0.348
1143.73	0.124
1152.48	0.073
1161.23	0.289
1169.97	0.476
1178.72	0.385
1187.47	0.285
1196.21	0.137
1204.96	0.084
1213.71	0.083
1222.45	0.135
1231.2	0.144
1239.94	0.142
1248.69	0.198
1257.44	0.26
1266.18	0.346
1274.93	0.465
1283.68	0.516
1292.42	0.551
1301.17	0.56
1309.92	0.628
1318.66	0.64
1327.41	0.6181
1336.16	0.704
1344.9	0.706
1353.65	0.726
1362.39	0.5619
1371.14	0.758
1379.89	0.819
1388.63	0.834
1397.38	0.834
1406.13	0.7469
1414.87	0.617
1423.62	0.546
1432.37	0.728
1441.11	0.841
1449.86	0.874
1458.6	0.885
1467.35	0.9
1476.1	0.916
1484.84	0.923
1493.59	0.927
1502.34	0.928
1511.08	0.931
1519.83	0.935
1528.58	0.941
1537.32	0.945
1546.07	0.945
1554.81	0.949
1563.56	0.949
1572.31	0.953
1581.05	0.954
1589.8	0.954
1598.55	0.954
1607.29	0.952
1616.04	0.946
1624.79	0.939
1633.53	0.92
1642.28	0.883
1651.02	0.887
1659.77	0.845
1668.52	0.7429
1677.26	0.5509
1686.01	0.14
1694.76	0.073
1703.5	0.2331
1712.25	0.4461
1721	0.6161
1729.74	0.736
1738.49	0.796
1747.24	0.836
1755.98	0.86
1764.73	0.878
1773.47	0.892
1782.22	0.901
1790.97	0.909
1799.71	0.915
1808.46	0.922
1817.21	0.926
1825.95	0.93
1834.7	0.933
1843.45	0.935
1852.19	0.939
1860.94	0.941
1869.68	0.943
1878.43	0.946
1887.18	0.949
1895.92	0.952
1904.67	0.954
1913.42	0.956
1922.16	0.957
1930.91	0.959
1939.66	0.96
1948.4	0.963
1957.15	0.961
1965.89	0.963
1974.64	0.963
1983.39	0.964
1992.13	0.963
2000.88	0.9635
2009.63	0.9645
2018.37	0.964
2027.12	0.964
2035.87	0.965
2044.61	0.965
2053.36	0.965
2062.1	0.964
2070.85	0.964
2079.6	0.961
2088.34	0.961
2097.09	0.9618
2105.84	0.961
2114.58	0.961
2123.33	0.9606
2132.08	0.96
2140.82	0.96
2149.57	0.96
2158.32	0.959
2167.06	0.957
2175.81	0.956
2184.55	0.954
2193.3	0.9533
2202.05	0.952
2210.79	0.95
2219.54	0.949
2228.29	0.9444
2237.03	0.9404
2245.78	0.937
2254.53	0.934
2263.27	0.933
2272.02	0.93
2280.76	0.927
2289.51	0.926
2298.26	0.923
2307	0.9215
2315.75	0.919
2324.5	0.918
2333.24	0.918
2341.99	0.918
2350.74	0.919
2359.48	0.919
2368.23	0.9204
2376.97	0.9222
2385.72	0.924
2394.47	0.926
2403.21	0.927
2411.96	0.928
2420.71	0.93
2429.45	0.9301
2438.2	0.9313
2446.95	0.934
2455.69	0.9341
2464.44	0.935
2473.18	0.937
2481.93	0.938
2490.68	0.939
2499.42	0.941
2508.17	0.943
2516.92	0.943
2525.66	0.9451
2534.41	0.946
2543.16	0.948
2551.9	0.948
2560.65	0.948
2569.4	0.949
2578.14	0.949
2586.89	0.95
2595.63	0.952
2604.38	0.952
2613.13	0.953
2621.87	0.953
2630.62	0.953
2639.37	0.953
2648.11	0.953
2656.86	0.953
2665.61	0.9521
2674.35	0.952
2683.1	0.952
2691.84	0.952
2700.59	0.953
2709.34	0.953
2718.08	0.953
2726.83	0.952
2735.58	0.95
2744.32	0.949
2753.07	0.9481
2761.82	0.948
2770.56	0.948
2779.31	0.948
2788.05	0.9463
2796.8	0.946
2805.55	0.945
2814.29	0.945
2823.04	0.942
2831.79	0.938
2840.53	0.935
2849.28	0.931
2858.03	0.931
2866.77	0.93
2875.52	0.93
2884.27	0.9285
2893.01	0.928
2901.76	0.9273
2910.5	0.926
2919.25	0.9225
2928	0.916
2936.74	0.918
2945.49	0.919
2954.24	0.919
2962.98	0.92
2971.73	0.9227
2980.48	0.924
2989.22	0.927
2997.97	0.928
3006.71	0.928
3015.46	0.928
3024.21	0.928
3032.95	0.928
3041.7	0.927
3050.45	0.927
3059.19	0.924
3067.94	0.923
3076.69	0.92
3085.43	0.9154
3094.18	0.9114
3102.92	0.912
3111.67	0.913
3120.42	0.913
3129.16	0.913
3137.91	0.915
3146.66	0.915
3155.4	0.915
3164.15	0.915
3172.9	0.915
3181.64	0.916
3190.39	0.916
3199.13	0.918
3207.88	0.918
3216.63	0.918
3225.37	0.916
3234.12	0.915
3242.87	0.913
3251.61	0.912
3260.36	0.912
3269.11	0.911
3277.85	0.909
3286.6	0.909
3295.35	0.908
3304.09	0.907
3312.84	0.905
3321.58	0.9046
3330.33	0.904
3339.08	0.903
3347.82	0.901
3356.57	0.901
3365.32	0.901
3374.06	0.9
3382.81	0.898
3391.56	0.897
3400.3	0.8967
3409.05	0.894
3417.79	0.893
3426.54	0.892
3435.29	0.892
3444.03	0.892
3452.78	0.893
3461.53	0.893
3470.27	0.893
3479.02	0.893
3487.77	0.894
3496.51	0.894
3505.26	0.894
3514	0.894
3522.75	0.894
3531.5	0.896
3540.24	0.897
3548.99	0.897
3557.74	0.897
3566.48	0.897
3575.23	0.896
3583.98	0.8928
3592.72	0.8922
3601.47	0.896
3610.21	0.8962
3618.96	0.897
3627.71	0.897
3636.45	0.897
3645.2	0.897
3653.95	0.897
3662.69	0.897
3671.44	0.897
3680.19	0.897
3688.93	0.897
3697.68	0.897
3706.43	0.897
3715.17	0.897
3723.92	0.897
3732.66	0.897
3741.41	0.897
3750.16	0.897
3758.9	0.897
3767.65	0.897
3776.4	0.897
3785.14	0.897
3793.89	0.897
3802.64	0.897
