Infrared Spectrum: PROPYLTHIOPHOSPHONIC ACID, 3-AMINO-2-HYDROXY-, MONOSODIUM SALT, TETRAHYDRATE
Formula: C3 H9 N O4 S P Na  * 4 H2 O
State: SOLID (1 mg / 650 mg KBr DISC)
Class: COBLENTZ III
Instrument: PERKIN-ELMER 521 (GRATING)
Sampling: TRANSMISSION
Resolution: 4
Origin: SOUTHERN RESEARCH INSTITUTE
1/CM	TRANSMITTANCE
252.848	0.236
263.347	0.2569
273.845	0.3067
284.344	0.3516
294.843	0.3989
305.341	0.412
315.84	0.4
326.339	0.3948
336.837	0.4492
347.336	0.5632
357.835	0.5911
368.333	0.6025
378.832	0.6447
389.331	0.6336
399.829	0.6004
410.328	0.575
420.827	0.6121
431.325	0.6097
441.824	0.5918
452.323	0.5551
462.821	0.5223
473.32	0.5028
483.819	0.4491
494.318	0.4103
504.816	0.3937
515.315	0.4029
525.814	0.4296
536.312	0.428
546.811	0.4084
557.31	0.3734
567.808	0.298
578.307	0.2474
588.806	0.2515
599.304	0.2863
609.803	0.3617
620.302	0.4175
630.8	0.4605
641.299	0.498
651.798	0.5185
662.296	0.5435
672.795	0.562
683.294	0.5793
693.792	0.5984
704.291	0.6226
714.79	0.6388
725.288	0.64
735.787	0.6269
746.286	0.6004
756.784	0.6393
767.283	0.649
777.782	0.6633
788.28	0.6836
798.779	0.7043
809.278	0.731
819.776	0.7432
830.275	0.764
840.774	0.7376
851.272	0.738
861.771	0.7702
872.27	0.803
882.768	0.799
893.267	0.7927
903.766	0.7671
914.264	0.7252
924.763	0.6537
935.262	0.5469
945.76	0.3563
956.259	0.2013
966.758	0.307
977.257	0.5135
987.755	0.552
998.254	0.537
1008.75	0.548
1019.25	0.5053
1029.75	0.4056
1040.25	0.2951
1050.75	0.2738
1061.25	0.1804
1071.74	0.1643
1082.24	0.1747
1092.74	0.2023
1103.24	0.1893
1113.74	0.1947
1124.24	0.2303
1134.74	0.2834
1145.24	0.336
1155.73	0.4105
1166.23	0.4757
1176.73	0.5424
1187.23	0.5808
1197.73	0.6171
1208.23	0.6629
1218.73	0.6957
1229.22	0.7217
1239.72	0.7075
1250.22	0.6923
1260.72	0.7446
1271.22	0.7693
1281.72	0.781
1292.22	0.781
1302.72	0.7788
1313.21	0.7724
1323.71	0.772
1334.21	0.782
1344.71	0.777
1355.21	0.7377
1365.71	0.686
1376.21	0.77
1386.7	0.7585
1397.2	0.7659
1407.7	0.7533
1418.2	0.7024
1428.7	0.755
1439.2	0.7346
1449.7	0.6916
1460.2	0.6917
1470.69	0.7479
1481.19	0.7604
1491.69	0.7557
1502.19	0.737
1512.69	0.7054
1523.19	0.6336
1533.69	0.5567
1544.18	0.5751
1554.68	0.6611
1565.18	0.718
1575.68	0.732
1586.18	0.7221
1596.68	0.678
1607.18	0.5971
1617.68	0.5478
1628.17	0.547
1638.67	0.5521
1649.17	0.5645
1659.67	0.5986
1670.17	0.6424
1680.67	0.6742
1691.17	0.7051
1701.67	0.7364
1712.16	0.7654
1722.66	0.8101
1733.16	0.84
1743.66	0.8591
1754.16	0.875
1764.66	0.882
1775.16	0.892
1785.65	0.899
1796.15	0.903
1806.65	0.905
1817.15	0.9079
1827.65	0.908
1838.15	0.909
1848.65	0.91
1859.15	0.91
1869.64	0.9092
1880.14	0.9092
1890.64	0.909
1901.14	0.9042
1911.64	0.903
1922.14	0.903
1932.64	0.9
1943.13	0.897
1953.63	0.892
1964.13	0.888
1974.63	0.88
1985.13	0.8733
1995.63	0.867
2006.13	0.854
2016.63	0.846
2027.12	0.8277
2037.62	0.8153
2048.12	0.8
2058.62	0.783
2069.12	0.7603
2079.62	0.7393
2090.12	0.7237
2100.61	0.7093
2111.11	0.7043
2121.61	0.705
2132.11	0.7113
2142.61	0.721
2153.11	0.729
2163.61	0.7357
2174.11	0.7427
2184.6	0.7507
2195.1	0.755
2205.6	0.759
2216.1	0.759
2226.6	0.757
2237.1	0.753
2247.6	0.747
2258.09	0.742
2268.59	0.7343
2279.09	0.731
2289.59	0.7237
2300.09	0.7157
2310.59	0.7083
2321.09	0.6973
2331.59	0.681
2342.08	0.6713
2352.58	0.6607
2363.08	0.647
2373.58	0.6413
2384.08	0.636
2394.58	0.6293
2405.08	0.6217
2415.57	0.6073
2426.07	0.593
2436.57	0.5797
2447.07	0.562
2457.57	0.551
2468.07	0.5353
2478.57	0.524
2489.07	0.5077
2499.56	0.5013
2510.06	0.496
2520.56	0.4923
2531.06	0.4843
2541.56	0.478
2552.06	0.4643
2562.56	0.4503
2573.05	0.447
2583.55	0.447
2594.05	0.447
2604.55	0.447
2615.05	0.445
2625.55	0.438
2636.05	0.429
2646.55	0.425
2657.04	0.428
2667.54	0.433
2678.04	0.439
2688.54	0.445
2699.04	0.446
2709.54	0.445
2720.04	0.439
2730.54	0.4297
2741.03	0.4133
2751.53	0.408
2762.03	0.405
2772.53	0.407
2783.03	0.408
2793.53	0.408
2804.03	0.408
2814.52	0.405
2825.02	0.3977
2835.52	0.388
2846.02	0.384
2856.52	0.387
2867.02	0.3923
2877.52	0.399
2888.02	0.401
2898.51	0.403
2909.01	0.4037
2919.51	0.405
2930.01	0.408
2940.51	0.4073
2951.01	0.399
2961.51	0.397
2972	0.395
2982.5	0.392
2993	0.388
3003.5	0.3847
3014	0.3737
3024.5	0.3653
3035	0.357
3045.5	0.3493
3055.99	0.3363
3066.49	0.3297
3076.99	0.329
3087.49	0.327
3097.99	0.3203
3108.49	0.318
3118.99	0.315
3129.48	0.314
3139.98	0.315
3150.48	0.316
3160.98	0.319
3171.48	0.319
3181.98	0.318
3192.48	0.316
3202.98	0.314
3213.47	0.308
3223.97	0.3013
3234.47	0.2973
3244.97	0.2943
3255.47	0.287
3265.97	0.2843
3276.47	0.28
3286.96	0.278
3297.46	0.272
3307.96	0.264
3318.46	0.257
3328.96	0.251
3339.46	0.2447
3349.96	0.2367
3360.46	0.226
3370.95	0.222
3381.45	0.217
3391.95	0.2133
3402.45	0.212
3412.95	0.213
3423.45	0.2163
3433.95	0.219
3444.44	0.222
3454.94	0.227
3465.44	0.2357
3475.94	0.243
3486.44	0.2507
3496.94	0.261
3507.44	0.2737
3517.94	0.2847
3528.43	0.3037
3538.93	0.3193
3549.43	0.3417
3559.93	0.3603
3570.43	0.3893
3580.93	0.4123
3591.43	0.443
3601.93	0.4687
3612.42	0.4967
3622.92	0.5267
3633.42	0.5567
3643.92	0.5797
3654.42	0.6037
3664.92	0.6167
3675.42	0.6327
3685.91	0.653
3696.41	0.6693
3706.91	0.6773
3717.41	0.6863
3727.91	0.695
3738.41	0.7
3748.91	0.7087
3759.41	0.718
3769.9	0.722
3780.4	0.726
3790.9	0.729
3801.4	0.7353
3811.9	0.739
3822.4	0.744
3832.9	0.7477
3843.39	0.755
3853.89	0.7567
3864.39	0.7597
3874.89	0.764
3885.39	0.7687
3895.89	0.772
3906.39	0.773
3916.89	0.778
3927.38	0.782
3937.88	0.782
3948.38	0.7883
3958.88	0.791
3969.38	0.793
3979.88	0.795
3990.38	0.797
