Infrared Spectrum: 1,2,4-BENZENETRICARBOXYLIC ACID, TRIS(HEPTYL/NONYL) ESTER
Formula: C30-36 H48-60 O6
State: SOLUTION (10% IN CCl4 FOR 4000-1330, 10% IN CS2 FOR 1330-420 CM^-^1) VS. SOLVENT
Class: COBLENTZ III
Instrument: PERKIN-ELMER 180
Sampling: TRANSMISSION
Path length: 0.011, 0.011 CM
Resolution: 4
Origin: DOW CHEMICAL COMPANY
1/CM	TRANSMITTANCE
420.279	0.954
429.405	0.956
438.53	0.957
447.656	0.956
456.781	0.956
465.907	0.947
475.032	0.937
484.158	0.932
493.283	0.93
502.409	0.933
511.534	0.937
520.66	0.942
529.785	0.948
538.911	0.951
548.036	0.953
557.162	0.949
566.287	0.949
575.413	0.945
584.538	0.943
593.664	0.955
602.789	0.97
611.915	0.985
621.04	0.989
630.166	0.986
639.291	0.982
648.417	0.962
657.542	0.944
666.668	0.95
675.793	0.972
684.919	0.943
694.044	0.859
703.17	0.861
712.295	0.7791
721.421	0.712
730.546	0.766
739.672	0.6581
748.797	0.389
757.923	0.637
767.048	0.766
776.174	0.814
785.3	0.823
794.425	0.8359
803.551	0.873
812.676	0.88
821.802	0.875
830.927	0.875
840.053	0.859
849.178	0.79
858.304	0.791
867.429	0.864
876.555	0.888
885.68	0.869
894.806	0.841
903.931	0.823
913.057	0.795
922.182	0.749
931.308	0.753
940.433	0.753
949.559	0.708
958.684	0.623
967.81	0.569
976.935	0.595
986.061	0.672
995.186	0.733
1004.31	0.759
1013.44	0.757
1022.56	0.763
1031.69	0.755
1040.81	0.73
1049.94	0.611
1059.06	0.3299
1068.19	0.3169
1077.32	0.5999
1086.44	0.677
1095.57	0.497
1104.69	0.083
1113.82	0.094
1122.94	0.174
1132.07	0.262
1141.19	0.288
1150.32	0.523
1159.45	0.722
1168.57	0.773
1177.7	0.774
1186.82	0.748
1195.95	0.693
1205.07	0.569
1214.2	0.359
1223.32	0.041
1232.45	0.005
1241.58	0.031
1250.7	0.068
1259.83	0.078
1268.95	0.059
1278.08	0.042
1287.2	0.099
1296.33	0.084
1305.45	0.089
1314.58	0.2961
1323.7	0.509
1332.83	0.674
1341.96	0.721
1351.08	0.727
1360.21	0.701
1369.33	0.569
1378.46	0.53
1387.58	0.664
1396.71	0.714
1405.83	0.678
1414.96	0.798
1424.09	0.759
1433.21	0.684
1442.34	0.544
1451.46	0.368
1460.59	0.269
1469.71	0.622
1478.84	0.767
1487.96	0.738
1497.09	0.844
1506.22	0.88
1515.34	0.903
1524.47	0.912
1533.59	0.925
1542.72	0.921
1551.84	0.914
1560.97	0.882
1570.09	0.847
1579.22	0.9
1588.34	0.897
1597.47	0.879
1606.6	0.838
1615.72	0.893
1624.85	0.899
1633.97	0.892
1643.1	0.886
1652.22	0.878
1661.35	0.864
1670.47	0.825
1679.6	0.758
1688.73	0.705
1697.85	0.5869
1706.98	0.3631
1716.1	0.013
1725.23	0.003
1734.35	0.023
1743.48	0.211
1752.6	0.619
1761.73	0.763
1770.85	0.819
1779.98	0.853
1789.11	0.876
1798.23	0.893
1807.36	0.904
1816.48	0.91
1825.61	0.911
1834.73	0.919
1843.86	0.928
1852.98	0.929
1862.11	0.928
1871.24	0.937
1880.36	0.941
1889.49	0.938
1898.61	0.94
1907.74	0.943
1916.86	0.942
1925.99	0.934
1935.11	0.928
1944.24	0.931
1953.37	0.941
1962.49	0.944
1971.62	0.946
1980.74	0.947
1989.87	0.946
1998.99	0.946
2008.12	0.945
2017.24	0.9405
2026.37	0.94
2035.49	0.937
2044.62	0.941
2053.75	0.9425
2062.87	0.938
2072	0.9405
2081.12	0.943
2090.25	0.939
2099.37	0.943
2108.5	0.944
2117.62	0.945
2126.75	0.9415
2135.88	0.944
2145	0.942
2154.13	0.942
2163.25	0.939
2172.38	0.943
2181.5	0.942
2190.63	0.94
2199.75	0.9405
2208.88	0.942
2218.01	0.942
2227.13	0.943
2236.26	0.947
2245.38	0.948
2254.51	0.944
2263.63	0.944
2272.76	0.947
2281.88	0.947
2291.01	0.9425
2300.13	0.9449
2309.26	0.9461
2318.39	0.9401
2327.51	0.942
2336.64	0.935
2345.76	0.9385
2354.89	0.942
2364.01	0.929
2373.14	0.9329
2382.26	0.931
2391.39	0.938
2400.52	0.9394
2409.64	0.94
2418.77	0.9449
2427.89	0.9439
2437.02	0.946
2446.14	0.944
2455.27	0.944
2464.39	0.944
2473.52	0.9454
2482.64	0.945
2491.77	0.9421
2500.9	0.943
2510.02	0.939
2519.15	0.9361
2528.27	0.9306
2537.4	0.9369
2546.52	0.9381
2555.65	0.9341
2564.77	0.929
2573.9	0.929
2583.03	0.929
2592.15	0.9281
2601.28	0.9264
2610.4	0.927
2619.53	0.9256
2628.65	0.922
2637.78	0.9196
2646.9	0.9171
2656.03	0.9113
2665.16	0.909
2674.28	0.9124
2683.41	0.914
2692.53	0.915
2701.66	0.913
2710.78	0.9076
2719.91	0.8963
2729.03	0.8984
2738.16	0.9009
2747.28	0.902
2756.41	0.9
2765.54	0.8946
2774.66	0.8863
2783.79	0.8758
2792.91	0.8575
2802.04	0.8312
2811.16	0.7949
2820.29	0.7441
2829.41	0.628
2838.54	0.4246
2847.67	0.098
2856.79	0.1506
2865.92	0.2078
2875.04	0.3311
2884.17	0.2849
2893.29	0.1883
2902.42	0.1022
2911.54	0.0332
2920.67	0.0061
2929.8	0.0237
2938.92	0.0735
2948.05	0.0454
2957.17	0.0468
2966.3	0.1668
2975.42	0.4058
2984.55	0.6316
2993.67	0.7373
3002.8	0.8085
3011.92	0.8509
3021.05	0.8725
3030.18	0.8827
3039.3	0.8894
3048.43	0.8977
3057.55	0.898
3066.68	0.896
3075.8	0.9065
3084.93	0.921
3094.05	0.9244
3103.18	0.9299
3112.31	0.929
3121.43	0.929
3130.56	0.929
3139.68	0.93
3148.81	0.939
3157.93	0.935
3167.06	0.936
3176.18	0.9379
3185.31	0.9414
3194.43	0.945
3203.56	0.946
3212.69	0.948
3221.81	0.949
3230.94	0.9498
3240.06	0.952
3249.19	0.955
3258.31	0.955
3267.44	0.9532
3276.56	0.9553
3285.69	0.9532
3294.82	0.952
3303.94	0.956
3313.07	0.9557
3322.19	0.9543
3331.32	0.953
3340.44	0.9548
3349.57	0.9563
3358.69	0.9552
3367.82	0.955
3376.95	0.9568
3386.07	0.954
3395.2	0.95
3404.32	0.9463
3413.45	0.9375
3422.57	0.9253
3431.7	0.9198
3440.82	0.9266
3449.95	0.9318
3459.07	0.9443
3468.2	0.9496
3477.33	0.9563
3486.45	0.958
3495.58	0.96
3504.7	0.9602
3513.83	0.9603
3522.95	0.9602
3532.08	0.959
3541.2	0.959
3550.33	0.9617
3559.46	0.958
3568.58	0.9639
3577.71	0.9694
3586.83	0.9577
3595.96	0.9534
3605.08	0.9513
3614.21	0.9556
3623.33	0.953
3632.46	0.9512
3641.59	0.951
3650.71	0.953
3659.84	0.953
3668.96	0.9494
3678.09	0.9513
3687.21	0.951
3696.34	0.952
3705.46	0.9482
3714.59	0.9513
3723.71	0.9556
3732.84	0.954
3741.97	0.954
3751.09	0.9536
3760.22	0.9532
3769.34	0.951
3778.47	0.9536
3787.59	0.957
3796.72	0.9552
3805.84	0.9537
3814.97	0.953
3824.1	0.955
3833.22	0.955
3842.35	0.956
3851.47	0.9558
3860.6	0.9562
3869.72	0.9528
3878.85	0.954
3887.97	0.955
3897.1	0.9537
3906.22	0.952
3915.35	0.9533
3924.48	0.954
3933.6	0.954
3942.73	0.953
3951.85	0.954
3960.98	0.9525
3970.1	0.9503
3979.23	0.9512
3988.35	0.947
3997.48	0.948
