Infrared Spectrum: ACETIC ACID, POTASSIUM SALT
Formula: C2 H3 O2 K
State: SOLID (KBr DISC)
Class: COBLENTZ III
Instrument: PERKIN-ELMER 283
Sampling: TRANSMISSION
Resolution: 4
Origin: DOW CHEMICAL COMPANY
1/CM	TRANSMITTANCE
201.719	0.049
212.034	0.053
222.349	0.058
232.665	0.061
242.98	0.115
253.295	0.22
263.61	0.31
273.926	0.491
284.241	0.551
294.556	0.626
304.871	0.681
315.187	0.74
325.502	0.78
335.817	0.822
346.132	0.861
356.448	0.892
366.763	0.916
377.078	0.932
387.393	0.938
397.709	0.937
408.024	0.93
418.339	0.936
428.654	0.934
438.97	0.922
449.285	0.874
459.6	0.679
469.915	0.886
480.23	0.939
490.546	0.949
500.861	0.95
511.176	0.952
521.491	0.951
531.807	0.95
542.122	0.95
552.437	0.951
562.752	0.95
573.068	0.944
583.383	0.934
593.698	0.921
604.013	0.787
614.329	0.5729
624.644	0.6245
634.959	0.707
645.274	0.2081
655.59	0.6419
665.905	0.825
676.22	0.853
686.535	0.874
696.85	0.885
707.166	0.917
717.481	0.922
727.796	0.929
738.111	0.934
748.427	0.938
758.742	0.938
769.057	0.942
779.372	0.947
789.688	0.951
800.003	0.953
810.318	0.961
820.633	0.964
830.949	0.968
841.264	0.97
851.579	0.97
861.894	0.97
872.21	0.97
882.525	0.966
892.84	0.961
903.155	0.952
913.471	0.907
923.786	0.4509
934.101	0.902
944.416	0.939
954.731	0.933
965.047	0.929
975.362	0.919
985.677	0.894
995.992	0.841
1006.31	0.7069
1016.62	0.357
1026.94	0.723
1037.25	0.722
1047.57	0.4469
1057.88	0.7719
1068.2	0.87
1078.51	0.896
1088.83	0.9
1099.14	0.899
1109.46	0.893
1119.78	0.893
1130.09	0.9
1140.41	0.92
1150.72	0.922
1161.04	0.919
1171.35	0.92
1181.67	0.921
1191.98	0.92
1202.3	0.922
1212.61	0.925
1222.93	0.924
1233.24	0.911
1243.56	0.891
1253.87	0.881
1264.19	0.883
1274.5	0.887
1284.82	0.892
1295.13	0.864
1305.45	0.864
1315.76	0.853
1326.08	0.81
1336.4	0.7051
1346.71	0.722
1357.03	0.711
1367.34	0.63
1377.66	0.541
1387.97	0.374
1398.29	0.197
1408.6	0.014
1418.92	0.012
1429.23	0.02
1439.55	0.03
1449.86	0.06
1460.18	0.27
1470.49	0.414
1480.81	0.48
1491.12	0.506
1501.44	0.502
1511.75	0.468
1522.07	0.399
1532.38	0.2939
1542.7	0.121
1553.02	0.047
1563.33	0.009
1573.65	0.009
1583.96	0.005
1594.28	0.007
1604.59	0.009
1614.91	0.04
1625.22	0.1
1635.54	0.2101
1645.85	0.301
1656.17	0.38
1666.48	0.433
1676.8	0.482
1687.11	0.532
1697.43	0.56
1707.74	0.59
1718.06	0.621
1728.37	0.648
1738.69	0.665
1749	0.684
1759.32	0.71
1769.64	0.722
1779.95	0.734
1790.27	0.75
1800.58	0.754
1810.9	0.763
1821.21	0.768
1831.53	0.768
1841.84	0.771
1852.16	0.781
1862.47	0.789
1872.79	0.79
1883.1	0.792
1893.42	0.793
1903.73	0.796
1914.05	0.796
1924.36	0.796
1934.68	0.791
1944.99	0.798
1955.31	0.801
1965.62	0.802
1975.94	0.802
1986.26	0.799
1996.57	0.797
2006.89	0.796
2017.2	0.796
2027.52	0.795
2037.83	0.793
2048.15	0.795
2058.46	0.796
2068.78	0.797
2079.09	0.797
2089.41	0.7952
2099.72	0.796
2110.04	0.7967
2120.35	0.796
2130.67	0.797
2140.98	0.798
2151.3	0.798
2161.61	0.798
2171.93	0.797
2182.24	0.798
2192.56	0.8
2202.88	0.799
2213.19	0.796
2223.51	0.795
2233.82	0.795
2244.14	0.796
2254.45	0.7938
2264.77	0.792
2275.08	0.792
2285.4	0.792
2295.71	0.791
2306.03	0.7878
2316.34	0.782
2326.66	0.778
2336.97	0.7808
2347.29	0.782
2357.6	0.782
2367.92	0.782
2378.23	0.781
2388.55	0.782
2398.86	0.78
2409.18	0.7755
2419.5	0.766
2429.81	0.77
2440.13	0.771
2450.44	0.771
2460.76	0.7709
2471.07	0.7674
2481.39	0.764
2491.7	0.765
2502.02	0.7702
2512.33	0.772
2522.65	0.771
2532.96	0.771
2543.28	0.7727
2553.59	0.772
2563.91	0.772
2574.22	0.773
2584.54	0.775
2594.85	0.775
2605.17	0.776
2615.48	0.774
2625.8	0.772
2636.12	0.771
2646.43	0.772
2656.75	0.771
2667.06	0.771
2677.38	0.7709
2687.69	0.7643
2698.01	0.7638
2708.32	0.762
2718.64	0.7583
2728.95	0.7515
2739.27	0.74
2749.58	0.7458
2759.9	0.748
2770.21	0.7461
2780.53	0.7454
2790.84	0.7451
2801.16	0.7416
2811.47	0.738
2821.79	0.731
2832.11	0.722
2842.42	0.7044
2852.74	0.6971
2863.05	0.701
2873.37	0.7008
2883.68	0.6974
2894	0.6898
2904.31	0.6742
2914.63	0.6591
2924.94	0.6144
2935.26	0.5739
2945.57	0.5768
2955.89	0.6068
2966.2	0.5816
2976.52	0.514
2986.83	0.473
2997.15	0.4361
3007.46	0.4309
3017.78	0.5239
3028.09	0.5709
3038.41	0.6005
3048.73	0.612
3059.04	0.6196
3069.36	0.6241
3079.67	0.6286
3089.99	0.629
3100.3	0.6273
3110.62	0.627
3120.93	0.6267
3131.25	0.6208
3141.56	0.6172
3151.88	0.6107
3162.19	0.6042
3172.51	0.603
3182.82	0.5966
3193.14	0.592
3203.45	0.59
3213.77	0.5811
3224.08	0.579
3234.4	0.574
3244.71	0.57
3255.03	0.567
3265.35	0.5609
3275.66	0.56
3285.98	0.5558
3296.29	0.552
3306.61	0.5447
3316.92	0.5333
3327.24	0.5276
3337.55	0.5178
3347.87	0.51
3358.18	0.4945
3368.5	0.4834
3378.81	0.4752
3389.13	0.4613
3399.44	0.4541
3409.76	0.4496
3420.07	0.446
3430.39	0.445
3440.7	0.445
3451.02	0.445
3461.33	0.447
3471.65	0.4536
3481.97	0.4591
3492.28	0.4646
3502.6	0.4695
3512.91	0.4797
3523.23	0.4842
3533.54	0.4968
3543.86	0.5057
3554.17	0.5148
3564.49	0.5237
3574.8	0.5382
3585.12	0.5457
3595.43	0.5607
3605.75	0.57
3616.06	0.5824
3626.38	0.5987
3636.69	0.6109
3647.01	0.6215
3657.32	0.625
3667.64	0.628
3677.95	0.6341
3688.27	0.6386
3698.59	0.6391
3708.9	0.639
3719.22	0.638
3729.53	0.638
3739.85	0.638
3750.16	0.638
3760.48	0.642
3770.79	0.6392
3781.11	0.637
3791.42	0.6363
3801.74	0.633
3812.05	0.631
3822.37	0.631
3832.68	0.631
3843	0.629
3853.31	0.629
3863.63	0.628
3873.94	0.624
3884.26	0.622
3894.57	0.622
3904.89	0.621
3915.21	0.62
3925.52	0.62
3935.84	0.619
3946.15	0.619
3956.47	0.6202
3966.78	0.621
3977.1	0.622
3987.41	0.6278
3997.73	0.63
