Infrared Spectrum: 1,2,4-BENZENETRICARBOXYLIC ACID, TRIS(OCTYL/DECYL) ESTER
Formula: C33-39 H54-66 O6
State: SOLUTION (10% IN CCl4 FOR 4000-1330, 10% IN CS2 FOR 1330-420 CM^-^1) VS. SOLVENT
Class: COBLENTZ III
Instrument: PERKIN-ELMER 180
Sampling: TRANSMISSION
Path length: 0.011, 0.011 CM
Resolution: 4
Origin: DOW CHEMICAL COMPANY
1/CM	TRANSMITTANCE
420.279	0.917
429.405	0.928
438.53	0.929
447.656	0.928
456.781	0.93
465.907	0.922
475.032	0.909
484.158	0.905
493.283	0.896
502.409	0.906
511.534	0.91
520.66	0.913
529.785	0.919
538.911	0.926
548.036	0.933
557.162	0.929
566.287	0.928
575.413	0.92
584.538	0.91
593.664	0.921
602.789	0.943
611.915	0.952
621.04	0.959
630.166	0.955
639.291	0.951
648.417	0.941
657.542	0.929
666.668	0.894
675.793	0.946
684.919	0.93
694.044	0.867
703.17	0.837
712.295	0.7861
721.421	0.646
730.546	0.739
739.672	0.725
748.797	0.435
757.923	0.559
767.048	0.734
776.174	0.791
785.299	0.828
794.425	0.789
803.55	0.855
812.676	0.863
821.801	0.854
830.927	0.854
840.052	0.847
849.178	0.789
858.303	0.756
867.429	0.822
876.554	0.835
885.68	0.84
894.805	0.841
903.931	0.84
913.056	0.811
922.182	0.772
931.307	0.763
940.433	0.747
949.558	0.674
958.684	0.644
967.809	0.611
976.935	0.609
986.06	0.697
995.186	0.759
1004.31	0.76
1013.44	0.751
1022.56	0.735
1031.69	0.726
1040.81	0.718
1049.94	0.652
1059.06	0.4279
1068.19	0.319
1077.32	0.5339
1086.44	0.652
1095.57	0.606
1104.69	0.1471
1113.82	0.095
1122.94	0.187
1132.07	0.264
1141.19	0.283
1150.32	0.4401
1159.44	0.7079
1168.57	0.753
1177.7	0.752
1186.82	0.743
1195.95	0.712
1205.07	0.639
1214.2	0.429
1223.32	0.085
1232.45	0.015
1241.57	0.035
1250.7	0.087
1259.83	0.1
1268.95	0.088
1278.08	0.057
1287.2	0.115
1296.33	0.102
1305.45	0.099
1314.58	0.2961
1323.7	0.5
1332.83	0.592
1341.95	0.703
1351.08	0.725
1360.21	0.723
1369.33	0.692
1378.46	0.535
1387.58	0.603
1396.71	0.736
1405.83	0.689
1414.96	0.734
1424.08	0.786
1433.21	0.697
1442.34	0.631
1451.46	0.458
1460.59	0.345
1469.71	0.374
1478.84	0.747
1487.96	0.711
1497.09	0.783
1506.21	0.85
1515.34	0.869
1524.47	0.871
1533.59	0.88
1542.72	0.878
1551.84	0.869
1560.97	0.863
1570.09	0.826
1579.22	0.848
1588.34	0.877
1597.47	0.874
1606.59	0.839
1615.72	0.849
1624.85	0.879
1633.97	0.878
1643.1	0.869
1652.22	0.861
1661.35	0.851
1670.47	0.832
1679.6	0.779
1688.72	0.723
1697.85	0.667
1706.98	0.497
1716.1	0.0881
1725.23	0.005
1734.35	0.016
1743.48	0.115
1752.6	0.4621
1761.73	0.712
1770.85	0.787
1779.98	0.824
1789.1	0.85
1798.23	0.867
1807.36	0.878
1816.48	0.887
1825.61	0.889
1834.73	0.894
1843.86	0.901
1852.98	0.908
1862.11	0.909
1871.23	0.915
1880.36	0.92
1889.49	0.917
1898.61	0.918
1907.74	0.92
1916.86	0.919
1925.99	0.918
1935.11	0.913
1944.24	0.912
1953.36	0.918
1962.49	0.922
1971.61	0.924
1980.74	0.926
1989.87	0.927
1998.99	0.924
2008.12	0.919
2017.24	0.9165
2026.37	0.915
2035.49	0.915
2044.62	0.917
2053.74	0.919
2062.87	0.917
2072	0.918
2081.12	0.92
2090.25	0.921
2099.37	0.921
2108.5	0.92
2117.62	0.918
2126.75	0.922
2135.87	0.92
2145	0.919
2154.12	0.92
2163.25	0.92
2172.38	0.921
2181.5	0.921
2190.63	0.919
2199.75	0.9205
2208.88	0.922
2218	0.922
2227.13	0.923
2236.25	0.9235
2245.38	0.922
2254.51	0.922
2263.63	0.923
2272.76	0.9245
2281.88	0.922
2291.01	0.9225
2300.13	0.924
2309.26	0.9225
2318.38	0.92
2327.51	0.921
2336.63	0.921
2345.76	0.915
2354.89	0.915
2364.01	0.915
2373.14	0.915
2382.26	0.915
2391.39	0.919
2400.51	0.9201
2409.64	0.92
2418.76	0.9216
2427.89	0.9259
2437.02	0.9244
2446.14	0.9279
2455.27	0.929
2464.39	0.929
2473.52	0.929
2482.64	0.9281
2491.77	0.926
2500.89	0.925
2510.02	0.9226
2519.15	0.9221
2528.27	0.9176
2537.4	0.918
2546.52	0.919
2555.65	0.919
2564.77	0.9186
2573.9	0.914
2583.02	0.912
2592.15	0.9101
2601.27	0.908
2610.4	0.9071
2619.53	0.9046
2628.65	0.903
2637.78	0.901
2646.9	0.8981
2656.03	0.8966
2665.15	0.8902
2674.28	0.888
2683.4	0.89
2692.53	0.8934
2701.66	0.8941
2710.78	0.8916
2719.91	0.8891
2729.03	0.88
2738.16	0.8829
2747.28	0.8846
2756.41	0.883
2765.53	0.88
2774.66	0.8743
2783.78	0.8636
2792.91	0.8533
2802.04	0.8336
2811.16	0.8047
2820.29	0.7616
2829.41	0.6971
2838.54	0.573
2847.66	0.2065
2856.79	0.0555
2865.91	0.1881
2875.04	0.2424
2884.17	0.3481
2893.29	0.2334
2902.42	0.1283
2911.54	0.056
2920.67	0.008
2929.79	0.0061
2938.92	0.0318
2948.04	0.0622
2957.17	0.0391
2966.29	0.0938
2975.42	0.3371
2984.55	0.539
2993.67	0.666
3002.8	0.7566
3011.92	0.8107
3021.05	0.8429
3030.17	0.8596
3039.3	0.8697
3048.42	0.8779
3057.55	0.8875
3066.68	0.8891
3075.8	0.8894
3084.93	0.8986
3094.05	0.9097
3103.18	0.917
3112.3	0.919
3121.43	0.9219
3130.55	0.9254
3139.68	0.927
3148.8	0.927
3157.93	0.9299
3167.06	0.932
3176.18	0.9271
3185.31	0.931
3194.43	0.934
3203.56	0.937
3212.68	0.937
3221.81	0.9383
3230.93	0.9408
3240.06	0.943
3249.19	0.9418
3258.31	0.942
3267.44	0.944
3276.56	0.948
3285.69	0.944
3294.81	0.9453
3303.94	0.948
3313.06	0.949
3322.19	0.946
3331.31	0.946
3340.44	0.946
3349.57	0.947
3358.69	0.946
3367.82	0.9483
3376.94	0.9508
3386.07	0.947
3395.19	0.9478
3404.32	0.9467
3413.44	0.943
3422.57	0.9277
3431.7	0.9174
3440.82	0.9223
3449.95	0.9306
3459.07	0.9396
3468.2	0.9478
3477.32	0.9523
3486.45	0.9558
3495.57	0.958
3504.7	0.958
3513.83	0.959
3522.95	0.9582
3532.08	0.958
3541.2	0.955
3550.33	0.953
3559.45	0.953
3568.58	0.952
3577.7	0.9644
3586.83	0.9595
3595.95	0.9502
3605.08	0.9487
3614.21	0.947
3623.33	0.9457
3632.46	0.9448
3641.58	0.9463
3650.71	0.948
3659.83	0.949
3668.96	0.948
3678.08	0.9477
3687.21	0.946
3696.34	0.9463
3705.46	0.9488
3714.59	0.946
3723.71	0.949
3732.84	0.947
3741.96	0.9504
3751.09	0.9466
3760.21	0.951
3769.34	0.952
3778.46	0.953
3787.59	0.954
3796.72	0.955
3805.84	0.952
3814.97	0.953
3824.09	0.953
3833.22	0.952
3842.34	0.953
3851.47	0.952
3860.59	0.9513
3869.72	0.952
3878.85	0.956
3887.97	0.956
3897.1	0.9537
3906.22	0.954
3915.35	0.957
3924.47	0.954
3933.6	0.957
3942.72	0.958
3951.85	0.955
3960.97	0.9555
3970.1	0.956
