Infrared Spectrum: PROPANETHIOL, 2,3-DIAMINO-, DIHYDROBROMIDE
Formula: C3 H12 Br2 N2 S
State: SOLID (1 mg / 500 mg KBr DISC)
Class: COBLENTZ III
Instrument: PERKIN-ELMER 621
Sampling: TRANSMISSION
Resolution: 4
Origin: SOUTHERN RESEARCH INSTITUTE
1/CM	TRANSMITTANCE
263.78	0.143
274.251	0.2266
284.722	0.4617
295.194	0.5225
305.665	0.5835
316.136	0.6295
326.607	0.6667
337.078	0.7336
347.55	0.7928
358.021	0.8362
368.492	0.8634
378.963	0.8672
389.434	0.7996
399.906	0.8122
410.377	0.9445
420.848	0.9627
431.319	0.962
441.79	0.9537
452.262	0.924
462.733	0.9896
473.204	0.9926
483.675	0.993
494.146	0.99
504.618	0.9845
515.089	0.965
525.56	0.9128
536.031	0.9295
546.503	0.973
556.974	0.971
567.445	0.97
577.916	0.973
588.387	0.973
598.859	0.9743
609.33	0.9717
619.801	0.941
630.272	0.9443
640.743	0.951
651.215	0.9508
661.686	0.9294
672.157	0.8208
682.628	0.9494
693.099	0.989
703.571	0.984
714.042	0.981
724.513	0.977
734.984	0.9679
745.455	0.9316
755.927	0.9031
766.398	0.911
776.869	0.958
787.34	0.9304
797.811	0.822
808.283	0.7702
818.754	0.979
829.225	0.9701
839.696	0.962
850.167	0.953
860.639	0.9412
871.11	0.9219
881.581	0.8477
892.052	0.8991
902.523	0.929
912.995	0.9126
923.466	0.8769
933.937	0.8776
944.408	0.8825
954.879	0.8565
965.351	0.7538
975.822	0.824
986.293	0.7958
996.764	0.7021
1007.24	0.4565
1017.71	0.6476
1028.18	0.5585
1038.65	0.5953
1049.12	0.4087
1059.59	0.8294
1070.06	0.8042
1080.53	0.6838
1091.01	0.4889
1101.48	0.6512
1111.95	0.821
1122.42	0.8924
1132.89	0.8847
1143.36	0.88
1153.83	0.8758
1164.3	0.8604
1174.77	0.8192
1185.25	0.7927
1195.72	0.839
1206.19	0.8256
1216.66	0.7995
1227.13	0.7123
1237.6	0.813
1248.07	0.7948
1258.54	0.6939
1269.02	0.7817
1279.49	0.796
1289.96	0.7861
1300.43	0.7631
1310.9	0.755
1321.37	0.7224
1331.84	0.6078
1342.31	0.6858
1352.79	0.6421
1363.26	0.7159
1373.73	0.7302
1384.2	0.7137
1394.67	0.6808
1405.14	0.6294
1415.61	0.58
1426.08	0.628
1436.55	0.5658
1447.03	0.4144
1457.5	0.529
1467.97	0.4084
1478.44	0.2215
1488.91	0.308
1499.38	0.2723
1509.85	0.3217
1520.32	0.5131
1530.8	0.3563
1541.27	0.1488
1551.74	0.1833
1562.21	0.475
1572.68	0.313
1583.15	0.2697
1593.62	0.6318
1604.09	0.8143
1614.57	0.812
1625.04	0.8123
1635.51	0.8283
1645.98	0.8457
1656.45	0.8696
1666.92	0.876
1677.39	0.8688
1687.86	0.8627
1698.34	0.852
1708.81	0.85
1719.28	0.8459
1729.75	0.8339
1740.22	0.8249
1750.69	0.815
1761.16	0.808
1771.63	0.8
1782.1	0.794
1792.58	0.785
1803.05	0.773
1813.52	0.7631
1823.99	0.752
1834.46	0.7383
1844.93	0.7252
1855.4	0.716
1865.87	0.713
1876.35	0.713
1886.82	0.714
1897.29	0.718
1907.76	0.7326
1918.23	0.7488
1928.7	0.76
1939.17	0.7623
1949.64	0.7634
1960.12	0.7594
1970.59	0.7538
1981.06	0.7464
1991.53	0.7632
2002	0.7671
2012.47	0.776
2022.94	0.776
2033.41	0.774
2043.88	0.772
2054.36	0.766
2064.83	0.769
2075.3	0.7635
2085.77	0.757
2096.24	0.755
2106.71	0.7525
2117.18	0.7425
2127.65	0.739
2138.13	0.738
2148.6	0.734
2159.07	0.727
2169.54	0.722
2180.01	0.717
2190.48	0.7125
2200.95	0.706
2211.42	0.703
2221.9	0.6965
2232.37	0.695
2242.84	0.692
2253.31	0.6875
2263.78	0.678
2274.25	0.668
2284.72	0.6575
2295.19	0.646
2305.66	0.6284
2316.14	0.6085
2326.61	0.6015
2337.08	0.594
2347.55	0.5734
2358.02	0.566
2368.49	0.5625
2378.96	0.556
2389.43	0.5389
2399.91	0.534
2410.38	0.53
2420.85	0.5139
2431.32	0.4975
2441.79	0.4795
2452.26	0.471
2462.73	0.458
2473.2	0.4304
2483.68	0.3924
2494.15	0.394
2504.62	0.413
2515.09	0.3678
2525.56	0.3255
2536.03	0.396
2546.5	0.3945
2556.97	0.392
2567.44	0.401
2577.92	0.398
2588.39	0.3894
2598.86	0.381
2609.33	0.38
2619.8	0.3595
2630.27	0.354
2640.74	0.353
2651.21	0.3444
2661.69	0.3255
2672.16	0.3045
2682.63	0.299
2693.1	0.302
2703.57	0.301
2714.04	0.2794
2724.51	0.259
2734.98	0.2479
2745.46	0.2244
2755.93	0.2069
2766.4	0.181
2776.87	0.162
2787.34	0.1525
2797.81	0.1394
2808.28	0.1119
2818.75	0.1005
2829.23	0.096
2839.7	0.0875
2850.17	0.0734
2860.64	0.0655
2871.11	0.056
2881.58	0.0495
2892.05	0.048
2902.52	0.046
2912.99	0.046
2923.47	0.048
2933.94	0.048
2944.41	0.0495
2954.88	0.05
2965.35	0.0455
2975.82	0.044
2986.29	0.044
2996.76	0.044
3007.24	0.044
3017.71	0.045
3028.18	0.05
3038.65	0.0601
3049.12	0.065
3059.59	0.0755
3070.06	0.0896
3080.53	0.1045
3091.01	0.1206
3101.48	0.1366
3111.95	0.1546
3122.42	0.1931
3132.89	0.2347
3143.36	0.2821
3153.83	0.3412
3164.3	0.3953
3174.77	0.4456
3185.25	0.4996
3195.72	0.5787
3206.19	0.6472
3216.66	0.7137
3227.13	0.7616
3237.6	0.797
3248.07	0.8226
3258.54	0.8375
3269.02	0.845
3279.49	0.847
3289.96	0.848
3300.43	0.846
3310.9	0.8385
3321.37	0.8205
3331.84	0.804
3342.31	0.7794
3352.79	0.7529
3363.26	0.7279
3373.73	0.7005
3384.2	0.6814
3394.67	0.659
3405.14	0.642
3415.61	0.6305
3426.08	0.6265
3436.55	0.625
3447.03	0.627
3457.5	0.6305
3467.97	0.6371
3478.44	0.642
3488.91	0.646
3499.38	0.6515
3509.85	0.6636
3520.32	0.6761
3530.8	0.6905
3541.27	0.7075
3551.74	0.7255
3562.21	0.739
3572.68	0.7521
3583.15	0.7626
3593.62	0.777
3604.09	0.791
3614.57	0.8035
3625.04	0.813
3635.51	0.816
3645.98	0.817
3656.45	0.815
3666.92	0.812
3677.39	0.811
3687.86	0.815
3698.34	0.815
3708.81	0.813
3719.28	0.81
3729.75	0.805
3740.22	0.803
3750.69	0.8
3761.16	0.798
3771.63	0.795
3782.1	0.791
3792.58	0.7855
3803.05	0.785
3813.52	0.781
3823.99	0.778
3834.46	0.7735
3844.93	0.7695
3855.4	0.766
3865.87	0.764
3876.35	0.761
3886.82	0.7595
3897.29	0.7595
3907.76	0.748
3918.23	0.743
3928.7	0.74
3939.17	0.74
3949.64	0.74
3960.12	0.738
3970.59	0.735
3981.06	0.735
3991.53	0.735
4002	0.735
