Infrared Spectrum: (1H)-1,2,4-TRIAZOLE-3-AMINO, 5-IMINO-1-(PYRIDIN-2-YL)-
Formula: C7 H8 N6
State: SOLID (1 mg / 650 mg KBr DISC)
Class: COBLENTZ III
Instrument: PERKIN-ELMER 521 (GRATING)
Sampling: TRANSMISSION
Resolution: 4
Origin: SOUTHERN RESEARCH INSTITUTE
1/CM	TRANSMITTANCE
246.684	0.121
257.285	0.1539
267.885	0.2108
278.486	0.2767
289.087	0.3189
299.687	0.3788
310.288	0.401
320.889	0.402
331.49	0.4698
342.09	0.4661
352.691	0.4411
363.292	0.4238
373.892	0.457
384.493	0.4069
395.094	0.4723
405.694	0.5642
416.295	0.5569
426.896	0.5829
437.497	0.6258
448.097	0.6191
458.698	0.5937
469.299	0.5658
479.899	0.5313
490.5	0.4915
501.101	0.4427
511.701	0.4784
522.302	0.5876
532.903	0.5184
543.503	0.5238
554.104	0.5682
564.705	0.5986
575.306	0.602
585.906	0.6012
596.507	0.5932
607.108	0.5835
617.708	0.5647
628.309	0.5385
638.91	0.5275
649.51	0.5015
660.111	0.5443
670.712	0.56
681.312	0.5386
691.913	0.5202
702.514	0.4097
713.115	0.6301
723.715	0.596
734.316	0.585
744.917	0.5164
755.517	0.4676
766.118	0.5184
776.719	0.4491
787.319	0.228
797.92	0.5564
808.521	0.6984
819.122	0.719
829.722	0.6827
840.323	0.6538
850.924	0.7467
861.524	0.7586
872.125	0.7554
882.726	0.7329
893.326	0.764
903.927	0.7613
914.528	0.752
925.128	0.7479
935.729	0.7394
946.33	0.7305
956.931	0.7114
967.531	0.6979
978.132	0.665
988.733	0.5413
999.333	0.671
1009.93	0.6595
1020.53	0.6232
1031.14	0.6206
1041.74	0.607
1052.34	0.5805
1062.94	0.5321
1073.54	0.5034
1084.14	0.4844
1094.74	0.3988
1105.34	0.5324
1115.94	0.533
1126.54	0.5338
1137.14	0.5422
1147.74	0.5684
1158.34	0.57
1168.94	0.5585
1179.55	0.6155
1190.15	0.622
1200.75	0.6196
1211.35	0.619
1221.95	0.614
1232.55	0.6057
1243.15	0.5987
1253.75	0.5857
1264.35	0.585
1274.95	0.5777
1285.55	0.56
1296.15	0.5218
1306.75	0.4803
1317.35	0.5193
1327.95	0.495
1338.56	0.4743
1349.16	0.5054
1359.76	0.4667
1370.36	0.458
1380.96	0.4041
1391.56	0.3053
1402.16	0.3002
1412.76	0.3754
1423.36	0.3419
1433.96	0.1825
1444.56	0.0792
1455.16	0.1248
1465.76	0.1845
1476.36	0.1273
1486.97	0.4596
1497.57	0.6052
1508.17	0.5994
1518.77	0.5317
1529.37	0.4574
1539.97	0.3883
1550.57	0.3311
1561.17	0.1526
1571.77	0.093
1582.37	0.1569
1592.97	0.1475
1603.57	0.3318
1614.17	0.2173
1624.77	0.1195
1635.38	0.1141
1645.98	0.1571
1656.58	0.2513
1667.18	0.4466
1677.78	0.5273
1688.38	0.5914
1698.98	0.6522
1709.58	0.7262
1720.18	0.7711
1730.78	0.815
1741.38	0.837
1751.98	0.838
1762.58	0.844
1773.18	0.854
1783.78	0.854
1794.39	0.853
1804.99	0.856
1815.59	0.8541
1826.19	0.85
1836.79	0.8451
1847.39	0.832
1857.99	0.8339
1868.59	0.833
1879.19	0.8299
1889.79	0.8302
1900.39	0.8281
1910.99	0.8163
1921.59	0.8084
1932.19	0.7974
1942.8	0.803
1953.4	0.797
1964	0.7921
1974.6	0.7878
1985.2	0.7832
1995.8	0.7763
2006.4	0.7905
2017	0.793
2027.6	0.7912
2038.2	0.7854
2048.8	0.782
2059.4	0.783
2070	0.7752
2080.6	0.7683
2091.2	0.766
2101.81	0.764
2112.41	0.764
2123.01	0.76
2133.61	0.7552
2144.21	0.751
2154.81	0.749
2165.41	0.749
2176.01	0.741
2186.61	0.741
2197.21	0.739
2207.81	0.735
2218.41	0.733
2229.01	0.7302
2239.61	0.726
2250.22	0.7252
2260.82	0.723
2271.42	0.722
2282.02	0.722
2292.62	0.7193
2303.22	0.717
2313.82	0.717
2324.42	0.715
2335.02	0.7122
2345.62	0.712
2356.22	0.709
2366.82	0.709
2377.42	0.708
2388.02	0.7052
2398.63	0.705
2409.23	0.702
2419.83	0.6983
2430.43	0.6972
2441.03	0.6883
2451.63	0.685
2462.23	0.6812
2472.83	0.68
2483.43	0.6778
2494.03	0.677
2504.63	0.677
2515.23	0.676
2525.83	0.676
2536.43	0.668
2547.03	0.663
2557.64	0.6592
2568.24	0.66
2578.84	0.6573
2589.44	0.651
2600.04	0.649
2610.64	0.647
2621.24	0.6432
2631.84	0.642
2642.44	0.6363
2653.04	0.634
2663.64	0.631
2674.24	0.627
2684.84	0.624
2695.44	0.6182
2706.05	0.614
2716.65	0.612
2727.25	0.6062
2737.85	0.605
2748.45	0.603
2759.05	0.603
2769.65	0.602
2780.25	0.5942
2790.85	0.5913
2801.45	0.591
2812.05	0.591
2822.65	0.586
2833.25	0.579
2843.85	0.577
2854.45	0.578
2865.06	0.5732
2875.66	0.5655
2886.26	0.5624
2896.86	0.5572
2907.46	0.553
2918.06	0.5423
2928.66	0.5402
2939.26	0.533
2949.86	0.5273
2960.46	0.52
2971.06	0.515
2981.66	0.511
2992.26	0.5
3002.86	0.4827
3013.47	0.4742
3024.07	0.472
3034.67	0.4615
3045.27	0.4542
3055.87	0.4297
3066.47	0.4092
3077.07	0.406
3087.67	0.3972
3098.27	0.3854
3108.87	0.37
3119.47	0.367
3130.07	0.3515
3140.67	0.3243
3151.27	0.321
3161.88	0.3142
3172.48	0.301
3183.08	0.298
3193.68	0.2865
3204.28	0.28
3214.88	0.285
3225.48	0.3028
3236.08	0.331
3246.68	0.321
3257.28	0.3034
3267.88	0.299
3278.48	0.299
3289.08	0.3058
3299.68	0.3147
3310.28	0.3463
3320.89	0.3867
3331.49	0.3842
3342.09	0.3569
3352.69	0.2944
3363.29	0.2117
3373.89	0.2185
3384.49	0.3144
3395.09	0.4161
3405.69	0.4089
3416.29	0.3235
3426.89	0.3374
3437.49	0.5221
3448.09	0.5497
3458.69	0.562
3469.3	0.5766
3479.9	0.5925
3490.5	0.5988
3501.1	0.6047
3511.7	0.607
3522.3	0.612
3532.9	0.615
3543.5	0.618
3554.1	0.62
3564.7	0.6277
3575.3	0.631
3585.9	0.632
3596.5	0.6388
3607.1	0.6398
3617.7	0.642
3628.31	0.643
3638.91	0.639
3649.51	0.6403
3660.11	0.6352
3670.71	0.635
3681.31	0.635
3691.91	0.635
3702.51	0.634
3713.11	0.632
3723.71	0.628
3734.31	0.626
3744.91	0.627
3755.51	0.627
3766.11	0.6243
3776.72	0.623
3787.32	0.6222
3797.92	0.62
3808.52	0.618
3819.12	0.6152
3829.72	0.611
3840.32	0.6112
3850.92	0.6097
3861.52	0.607
3872.12	0.605
3882.72	0.605
3893.32	0.605
3903.92	0.605
3914.52	0.602
3925.13	0.602
3935.73	0.603
3946.33	0.603
3956.93	0.603
3967.53	0.603
3978.13	0.603
3988.73	0.603
3999.33	0.601
