Infrared Spectrum: PROPANOIC ACID, 2-[(4-AMINOCARBONYLIMIDAZOL-5-YL)-1-TRIAZEN-1,3-DIYL-], ETHYL ESTER
Formula: C9 H14 N6 O3
State: SOLID (1 mg / 650 mg KBr DISC)
Class: COBLENTZ III
Instrument: PERKIN-ELMER 521 (GRATING)
Instrument parameters: GRATING FOR 2000, 620, FILTERS AT 3130, 2475, 2000, 1150, 700, 410 CM^-^1
Sampling: TRANSMISSION
Resolution: 4
Origin: SOUTHERN RESEARCH INSTITUTE
1/CM	TRANSMITTANCE
248.364	0.208
257.491	0.2384
266.619	0.2803
275.746	0.3593
284.874	0.4118
294.001	0.45
303.128	0.5208
312.256	0.552
321.383	0.5561
330.511	0.5681
339.638	0.6017
348.765	0.6373
357.893	0.655
367.02	0.659
376.148	0.659
385.275	0.6584
394.402	0.6783
403.53	0.6834
412.657	0.653
421.784	0.653
430.912	0.6421
440.039	0.7041
449.167	0.713
458.294	0.714
467.421	0.7136
476.549	0.707
485.676	0.6871
494.804	0.6669
503.931	0.6499
513.058	0.6124
522.186	0.5818
531.313	0.5626
540.441	0.5754
549.568	0.6154
558.695	0.6578
567.823	0.671
576.95	0.6678
586.078	0.6568
595.205	0.6252
604.332	0.5679
613.46	0.5015
622.587	0.4992
631.715	0.5553
640.842	0.5549
649.969	0.5956
659.097	0.6411
668.224	0.667
677.352	0.681
686.479	0.6591
695.606	0.696
704.734	0.7281
713.861	0.732
722.989	0.7404
732.116	0.759
741.243	0.7582
750.371	0.7423
759.498	0.7691
768.625	0.7701
777.753	0.6181
786.88	0.7542
796.008	0.7606
805.135	0.7735
814.262	0.776
823.39	0.7714
832.517	0.7648
841.645	0.7496
850.772	0.7171
859.899	0.6587
869.027	0.6238
878.154	0.7017
887.282	0.764
896.409	0.7502
905.536	0.6708
914.664	0.7422
923.791	0.7457
932.919	0.7289
942.046	0.7133
951.173	0.6779
960.301	0.6243
969.428	0.6851
978.556	0.7205
987.683	0.727
996.81	0.7227
1005.94	0.7027
1015.07	0.6521
1024.19	0.5832
1033.32	0.5549
1042.45	0.5856
1051.57	0.6457
1060.7	0.6388
1069.83	0.59
1078.96	0.5457
1088.08	0.5011
1097.21	0.4492
1106.34	0.5812
1115.47	0.6247
1124.59	0.6444
1133.72	0.647
1142.85	0.6386
1151.98	0.5757
1161.1	0.4793
1170.23	0.4419
1179.36	0.4422
1188.49	0.4513
1197.61	0.2327
1206.74	0.2829
1215.87	0.3935
1225	0.413
1234.12	0.3999
1243.25	0.4096
1252.38	0.5317
1261.5	0.5966
1270.63	0.6018
1279.76	0.586
1288.89	0.558
1298.01	0.5253
1307.14	0.6045
1316.27	0.626
1325.4	0.5983
1334.52	0.5823
1343.65	0.428
1352.78	0.6023
1361.91	0.5764
1371.03	0.4033
1380.16	0.4317
1389.29	0.3953
1398.42	0.2389
1407.54	0.2598
1416.67	0.2517
1425.8	0.2059
1434.93	0.4019
1444.05	0.5171
1453.18	0.4961
1462.31	0.4568
1471.43	0.4968
1480.56	0.556
1489.69	0.5986
1498.82	0.6473
1507.94	0.691
1517.07	0.6878
1526.2	0.6847
1535.33	0.6284
1544.45	0.4991
1553.58	0.5181
1562.71	0.5594
1571.84	0.5752
1580.96	0.517
1590.09	0.3821
1599.22	0.1626
1608.35	0.3047
1617.47	0.4392
1626.6	0.3935
1635.73	0.064
1644.86	0.0771
1653.98	0.1399
1663.11	0.2735
1672.24	0.4098
1681.36	0.5333
1690.49	0.592
1699.62	0.5865
1708.75	0.62
1717.87	0.588
1727	0.4478
1736.13	0.2206
1745.26	0.3374
1754.38	0.549
1763.51	0.6839
1772.64	0.7398
1781.77	0.7535
1790.89	0.763
1800.02	0.767
1809.15	0.767
1818.28	0.767
1827.4	0.769
1836.53	0.769
1845.66	0.7646
1854.79	0.757
1863.91	0.7518
1873.04	0.753
1882.17	0.756
1891.29	0.761
1900.42	0.764
1909.55	0.7714
1918.68	0.78
1927.8	0.785
1936.93	0.789
1946.06	0.793
1955.19	0.7941
1964.31	0.7991
1973.44	0.803
1982.57	0.806
1991.7	0.8094
2000.82	0.8156
2009.95	0.812
2019.08	0.814
2028.21	0.8146
2037.33	0.819
2046.46	0.818
2055.59	0.819
2064.72	0.818
2073.84	0.8184
2082.97	0.818
2092.1	0.8167
2101.23	0.8156
2110.35	0.82
2119.48	0.82
2128.61	0.82
2137.73	0.819
2146.86	0.8087
2155.99	0.804
2165.12	0.802
2174.24	0.8036
2183.37	0.8047
2192.5	0.804
2201.63	0.803
2210.75	0.8024
2219.88	0.799
2229.01	0.7944
2238.14	0.787
2247.26	0.784
2256.39	0.7804
2265.52	0.7774
2274.65	0.769
2283.77	0.765
2292.9	0.7604
2302.03	0.7537
2311.16	0.7468
2320.28	0.7281
2329.41	0.719
2338.54	0.7134
2347.66	0.7067
2356.79	0.693
2365.92	0.691
2375.05	0.691
2384.17	0.688
2393.3	0.685
2402.43	0.681
2411.56	0.6794
2420.68	0.6731
2429.81	0.6664
2438.94	0.664
2448.07	0.659
2457.19	0.654
2466.32	0.653
2475.45	0.651
2484.58	0.65
2493.7	0.6414
2502.83	0.638
2511.96	0.6347
2521.09	0.6271
2530.21	0.621
2539.34	0.6164
2548.47	0.613
2557.59	0.6071
2566.72	0.5994
2575.85	0.5907
2584.98	0.5814
2594.1	0.5684
2603.23	0.562
2612.36	0.56
2621.49	0.5633
2630.61	0.5723
2639.74	0.575
2648.87	0.575
2658	0.577
2667.12	0.579
2676.25	0.5921
2685.38	0.604
2694.51	0.6116
2703.63	0.6124
2712.76	0.6067
2721.89	0.6007
2731.02	0.5954
2740.14	0.591
2749.27	0.586
2758.4	0.581
2767.52	0.577
2776.65	0.57
2785.78	0.5644
2794.91	0.562
2804.03	0.5604
2813.16	0.558
2822.29	0.561
2831.42	0.565
2840.54	0.565
2849.67	0.5633
2858.8	0.568
2867.93	0.566
2877.05	0.5656
2886.18	0.573
2895.31	0.57
2904.44	0.566
2913.56	0.5542
2922.69	0.5281
2931.82	0.5045
2940.95	0.5019
2950.07	0.519
2959.2	0.5024
2968.33	0.4861
2977.45	0.4529
2986.58	0.4774
2995.71	0.524
3004.84	0.5555
3013.96	0.565
3023.09	0.5555
3032.22	0.5371
3041.35	0.5133
3050.47	0.4707
3059.6	0.4058
3068.73	0.3536
3077.86	0.4046
3086.98	0.4965
3096.11	0.549
3105.24	0.5646
3114.37	0.568
3123.49	0.5723
3132.62	0.5774
3141.75	0.56
3150.88	0.5371
3160	0.5177
3169.13	0.5064
3178.26	0.5014
3187.39	0.4911
3196.51	0.481
3205.64	0.4637
3214.77	0.4439
3223.89	0.4069
3233.02	0.3705
3242.15	0.3186
3251.28	0.2741
3260.4	0.2411
3269.53	0.2396
3278.66	0.257
3287.79	0.3034
3296.91	0.3494
3306.04	0.3878
3315.17	0.4192
3324.3	0.4174
3333.42	0.3966
3342.55	0.4299
3351.68	0.4959
3360.81	0.5348
3369.93	0.551
3379.06	0.5536
3388.19	0.5484
3397.32	0.5404
3406.44	0.539
3415.57	0.537
3424.7	0.5327
3433.82	0.5247
3442.95	0.4987
3452.08	0.3878
3461.21	0.321
3470.33	0.475
3479.46	0.5853
3488.59	0.6281
3497.72	0.6546
3506.84	0.6799
3515.97	0.7
3525.1	0.7143
3534.23	0.7266
3543.35	0.7346
3552.48	0.744
3561.61	0.7562
3570.74	0.7606
3579.86	0.774
3588.99	0.7852
3598.12	0.8003
3607.25	0.8036
3616.37	0.8169
3625.5	0.825
3634.63	0.8343
3643.75	0.841
3652.88	0.8446
3662.01	0.8446
3671.14	0.846
3680.26	0.848
3689.39	0.8444
3698.52	0.8553
3707.65	0.859
3716.77	0.857
3725.9	0.857
3735.03	0.857
3744.16	0.856
3753.28	0.856
3762.41	0.861
3771.54	0.8598
3780.67	0.859
3789.79	0.859
3798.92	0.8597
