Infrared Spectrum: ADENINE, 3,7-DIBENZYL-2-METHYL-, HYDROBROMIDE
Formula: C20 H20 Br N5
State: SOLID (1 mg / 650 mg KBr DISC)
Class: COBLENTZ III
Instrument: PERKIN-ELMER 521 (GRATING)
Instrument parameters: GRATING CHANGES AT 2000, 620, FILTERS AT 3130, 2475, 2000, 1150, 700, 410 CM^-^1
Sampling: TRANSMISSION
Resolution: 4
Origin: SOUTHERN RESEARCH INSTITUTE
1/CM	TRANSMITTANCE
236.645	0.272
246.205	0.303
255.764	0.389
265.324	0.465
274.883	0.541
284.443	0.6
294.002	0.65
303.562	0.677
313.121	0.699
322.681	0.715
332.24	0.739
341.8	0.778
351.359	0.805
360.919	0.83
370.478	0.838
380.038	0.853
389.597	0.853
399.157	0.856
408.716	0.866
418.276	0.867
427.835	0.861
437.395	0.852
446.954	0.837
456.514	0.849
466.073	0.857
475.633	0.849
485.193	0.824
494.752	0.83
504.312	0.845
513.871	0.844
523.431	0.844
532.99	0.839
542.55	0.837
552.109	0.848
561.669	0.851
571.228	0.831
580.788	0.842
590.347	0.864
599.907	0.854
609.466	0.845
619.026	0.846
628.585	0.854
638.145	0.812
647.704	0.857
657.264	0.86
666.823	0.853
676.383	0.824
685.942	0.788
695.502	0.691
705.062	0.727
714.621	0.78
724.181	0.635
733.74	0.528
743.3	0.833
752.859	0.83
762.419	0.83
771.978	0.907
781.538	0.899
791.097	0.894
800.657	0.936
810.216	0.921
819.776	0.936
829.335	0.945
838.895	0.939
848.454	0.937
858.014	0.924
867.573	0.902
877.133	0.898
886.692	0.932
896.252	0.93
905.811	0.927
915.371	0.924
924.93	0.923
934.49	0.919
944.05	0.913
953.609	0.894
963.169	0.856
972.728	0.837
982.288	0.883
991.847	0.885
1001.41	0.892
1010.97	0.887
1020.53	0.86
1030.09	0.847
1039.64	0.871
1049.2	0.873
1058.76	0.878
1068.32	0.861
1077.88	0.835
1087.44	0.857
1097	0.871
1106.56	0.871
1116.12	0.865
1125.68	0.86
1135.24	0.867
1144.8	0.875
1154.36	0.862
1163.92	0.859
1173.48	0.833
1183.04	0.789
1192.6	0.741
1202.16	0.765
1211.72	0.787
1221.28	0.793
1230.84	0.819
1240.39	0.752
1249.95	0.796
1259.51	0.851
1269.07	0.868
1278.63	0.859
1288.19	0.844
1297.75	0.829
1307.31	0.791
1316.87	0.8
1326.43	0.796
1335.99	0.758
1345.55	0.709
1355.11	0.774
1364.67	0.759
1374.23	0.676
1383.79	0.647
1393.35	0.786
1402.91	0.789
1412.47	0.764
1422.03	0.739
1431.59	0.59
1441.14	0.662
1450.7	0.612
1460.26	0.662
1469.82	0.605
1479.38	0.687
1488.94	0.847
1498.5	0.778
1508.06	0.882
1517.62	0.89
1527.18	0.888
1536.74	0.877
1546.3	0.86
1555.86	0.83
1565.42	0.759
1574.98	0.632
1584.54	0.668
1594.1	0.708
1603.66	0.592
1613.22	0.514
1622.78	0.604
1632.34	0.332
1641.89	0.24
1651.45	0.387
1661.01	0.609
1670.57	0.745
1680.13	0.849
1689.69	0.913
1699.25	0.942
1708.81	0.951
1718.37	0.956
1727.93	0.958
1737.49	0.962
1747.05	0.963
1756.61	0.959
1766.17	0.957
1775.73	0.959
1785.29	0.961
1794.85	0.96
1804.41	0.958
1813.97	0.956
1823.53	0.955
1833.08	0.954
1842.64	0.954
1852.2	0.956
1861.76	0.956
1871.32	0.955
1880.88	0.954
1890.44	0.952
1900	0.951
1909.56	0.952
1919.12	0.952
1928.68	0.951
1938.24	0.95
1947.8	0.947
1957.36	0.944
1966.92	0.942
1976.48	0.943
1986.04	0.942
1995.6	0.938
2005.16	0.939
2014.72	0.941
2024.28	0.941
2033.83	0.94
2043.39	0.939
2052.95	0.939
2062.51	0.94
2072.07	0.939
2081.63	0.939
2091.19	0.939
2100.75	0.938
2110.31	0.937
2119.87	0.938
2129.43	0.938
2138.99	0.938
2148.55	0.936
2158.11	0.935
2167.67	0.934
2177.23	0.934
2186.79	0.933
2196.35	0.932
2205.91	0.932
2215.47	0.93
2225.03	0.928
2234.58	0.924
2244.14	0.923
2253.7	0.921
2263.26	0.92
2272.82	0.921
2282.38	0.921
2291.94	0.92
2301.5	0.92
2311.06	0.918
2320.62	0.917
2330.18	0.914
2339.74	0.913
2349.3	0.912
2358.86	0.911
2368.42	0.911
2377.98	0.91
2387.54	0.909
2397.1	0.906
2406.66	0.906
2416.22	0.905
2425.78	0.904
2435.33	0.904
2444.89	0.903
2454.45	0.902
2464.01	0.901
2473.57	0.9
2483.13	0.899
2492.69	0.898
2502.25	0.897
2511.81	0.896
2521.37	0.895
2530.93	0.895
2540.49	0.894
2550.05	0.892
2559.61	0.889
2569.17	0.886
2578.73	0.885
2588.29	0.883
2597.85	0.88
2607.41	0.879
2616.97	0.879
2626.53	0.877
2636.08	0.875
2645.64	0.874
2655.2	0.873
2664.76	0.87
2674.32	0.868
2683.88	0.865
2693.44	0.863
2703	0.863
2712.56	0.861
2722.12	0.86
2731.68	0.858
2741.24	0.856
2750.8	0.853
2760.36	0.852
2769.92	0.849
2779.48	0.848
2789.04	0.846
2798.6	0.844
2808.16	0.837
2817.72	0.833
2827.28	0.83
2836.83	0.827
2846.39	0.816
2855.95	0.81
2865.51	0.804
2875.07	0.799
2884.63	0.789
2894.19	0.781
2903.75	0.77
2913.31	0.753
2922.87	0.741
2932.43	0.737
2941.99	0.729
2951.55	0.719
2961.11	0.717
2970.67	0.711
2980.23	0.7
2989.79	0.691
2999.35	0.675
3008.91	0.665
3018.47	0.647
3028.03	0.628
3037.58	0.62
3047.14	0.598
3056.7	0.593
3066.26	0.589
3075.82	0.58
3085.38	0.565
3094.94	0.551
3104.5	0.545
3114.06	0.552
3123.62	0.568
3133.18	0.579
3142.74	0.605
3152.3	0.639
3161.86	0.661
3171.42	0.681
3180.98	0.698
3190.54	0.71
3200.1	0.72
3209.66	0.719
3219.22	0.707
3228.78	0.706
3238.33	0.704
3247.89	0.684
3257.45	0.675
3267.01	0.678
3276.57	0.679
3286.13	0.676
3295.69	0.686
3305.25	0.703
3314.81	0.724
3324.37	0.739
3333.93	0.752
3343.49	0.758
3353.05	0.759
3362.61	0.762
3372.17	0.765
3381.73	0.759
3391.29	0.758
3400.85	0.754
3410.41	0.753
3419.97	0.754
3429.52	0.755
3439.08	0.757
3448.64	0.76
3458.2	0.767
3467.76	0.772
3477.32	0.776
3486.88	0.781
3496.44	0.785
3506	0.79
3515.56	0.794
3525.12	0.8
3534.68	0.805
3544.24	0.811
3553.8	0.816
3563.36	0.821
3572.92	0.827
3582.48	0.831
3592.04	0.838
3601.6	0.842
3611.16	0.846
3620.72	0.85
3630.27	0.853
3639.83	0.857
3649.39	0.857
3658.95	0.857
3668.51	0.857
3678.07	0.856
3687.63	0.857
3697.19	0.858
3706.75	0.859
3716.31	0.859
3725.87	0.857
3735.43	0.856
3744.99	0.856
3754.55	0.857
3764.11	0.86
3773.67	0.86
3783.23	0.858
3792.79	0.854
