Infrared Spectrum: 1,2,3-PROPANETRICARBOXYLIC ACID, 2-HYDROXY-, SODIUM SALT, DIHYDRATE
Formula: C6 H5 O7 Na3  * 2 H2 O
State: SOLID (SPLIT MULL, FLUOROLUBE FOR 3800-1340 AND NUJOL FOR 1340-400 CM ^-^1)
Class: COBLENTZ III
Instrument: DOW KBr FOREPRISM-GRATING
Instrument parameters: BLAZED AT 3.5, 12.0, 20.0 MICRON, CHANGED AT 5.0, 7.5, 14.9 MICRON
Sampling: TRANSMISSION
Resolution: 4
Origin: DOW CHEMICAL COMPANY
1/CM	TRANSMITTANCE
385.666	0.617
394.198	0.616
402.731	0.594
411.263	0.55
419.796	0.695
428.328	0.85
436.861	0.864
445.393	0.867
453.925	0.864
462.458	0.859
470.99	0.852
479.523	0.843
488.055	0.832
496.588	0.807
505.12	0.77
513.652	0.724
522.185	0.645
530.717	0.505
539.25	0.518
547.782	0.264
556.315	0.395
564.847	0.343
573.379	0.258
581.912	0.252
590.444	0.217
598.977	0.165
607.509	0.236
616.041	0.086
624.574	0.147
633.106	0.159
641.639	0.175
650.171	0.191
658.704	0.236
667.236	0.26
675.768	0.311
684.301	0.467
692.833	0.486
701.366	0.478
709.898	0.451
718.431	0.374
726.963	0.28
735.495	0.354
744.028	0.326
752.56	0.213
761.093	0.251
769.625	0.338
778.158	0.417
786.69	0.475
795.222	0.465
803.755	0.381
812.287	0.401
820.82	0.561
829.352	0.655
837.885	0.471
846.417	0.2431
854.949	0.632
863.482	0.771
872.014	0.822
880.547	0.819
889.079	0.6719
897.612	0.632
906.144	0.348
914.676	0.741
923.209	0.871
931.741	0.877
940.274	0.728
948.806	0.733
957.339	0.867
965.871	0.889
974.403	0.902
982.936	0.913
991.468	0.911
1000	0.909
1008.53	0.906
1017.07	0.906
1025.6	0.898
1034.13	0.891
1042.66	0.879
1051.2	0.858
1059.73	0.693
1068.26	0.751
1076.79	0.4899
1085.32	0.768
1093.86	0.831
1102.39	0.838
1110.92	0.83
1119.45	0.807
1127.99	0.774
1136.52	0.719
1145.05	0.588
1153.58	0.37
1162.12	0.407
1170.65	0.683
1179.18	0.692
1187.71	0.621
1196.25	0.405
1204.78	0.685
1213.31	0.668
1221.84	0.644
1230.38	0.618
1238.91	0.586
1247.44	0.534
1255.97	0.459
1264.51	0.33
1273.04	0.127
1281.57	0.081
1290.1	0.2271
1298.64	0.3779
1307.17	0.041
1315.7	0.37
1324.23	0.534
1332.77	0.493
1341.3	0.475
1349.83	0.461
1358.36	0.433
1366.89	0.362
1375.43	0.252
1383.96	0.102
1392.49	0.078
1401.02	0.098
1409.56	0.208
1418.09	0.105
1426.62	0.145
1435.15	0.156
1443.69	0.156
1452.22	0.336
1460.75	0.457
1469.28	0.509
1477.82	0.545
1486.35	0.564
1494.88	0.573
1503.41	0.574
1511.95	0.558
1520.48	0.537
1529.01	0.501
1537.54	0.454
1546.08	0.387
1554.61	0.335
1563.14	0.212
1571.67	0.101
1580.21	0.024
1588.74	0.02
1597.27	0.032
1605.8	0.053
1614.34	0.08
1622.87	0.176
1631.4	0.2781
1639.93	0.387
1648.46	0.405
1657	0.409
1665.53	0.447
1674.06	0.498
1682.59	0.628
1691.13	0.748
1699.66	0.812
1708.19	0.836
1716.72	0.854
1725.26	0.87
1733.79	0.883
1742.32	0.903
1750.85	0.915
1759.39	0.925
1767.92	0.93
1776.45	0.933
1784.98	0.938
1793.52	0.943
1802.05	0.946
1810.58	0.95
1819.11	0.951
1827.65	0.953
1836.18	0.953
1844.71	0.951
1853.24	0.951
1861.78	0.954
1870.31	0.955
1878.84	0.955
1887.37	0.955
1895.91	0.955
1904.44	0.954
1912.97	0.953
1921.5	0.953
1930.04	0.951
1938.57	0.95
1947.1	0.951
1955.63	0.955
1964.16	0.943
1972.7	0.939
1981.23	0.937
1989.76	0.937
1998.29	0.935
2006.83	0.939
2015.36	0.938
2023.89	0.938
2032.42	0.935
2040.96	0.933
2049.49	0.931
2058.02	0.93
2066.55	0.925
2075.09	0.927
2083.62	0.9231
2092.15	0.922
2100.68	0.918
2109.22	0.913
2117.75	0.91
2126.28	0.909
2134.81	0.905
2143.35	0.902
2151.88	0.901
2160.41	0.897
2168.94	0.893
2177.48	0.89
2186.01	0.8821
2194.54	0.8752
2203.07	0.8701
2211.61	0.8671
2220.14	0.8552
2228.67	0.8431
2237.2	0.8302
2245.73	0.818
2254.27	0.8189
2262.8	0.8267
2271.33	0.828
2279.86	0.8309
2288.4	0.8319
2296.93	0.836
2305.46	0.834
2313.99	0.8466
2322.53	0.848
2331.06	0.848
2339.59	0.852
2348.12	0.852
2356.66	0.8578
2365.19	0.859
2373.72	0.859
2382.25	0.859
2390.79	0.859
2399.32	0.859
2407.85	0.858
2416.38	0.856
2424.92	0.856
2433.45	0.856
2441.98	0.856
2450.51	0.855
2459.05	0.852
2467.58	0.851
2476.11	0.851
2484.64	0.8509
2493.18	0.851
2501.71	0.85
2510.24	0.8483
2518.77	0.85
2527.3	0.848
2535.84	0.847
2544.37	0.8432
2552.9	0.842
2561.43	0.84
2569.97	0.839
2578.5	0.8342
2587.03	0.832
2595.56	0.8312
2604.1	0.83
2612.63	0.826
2621.16	0.8222
2629.69	0.8156
2638.23	0.81
2646.76	0.8032
2655.29	0.796
2663.82	0.7912
2672.36	0.7862
2680.89	0.7804
2689.42	0.7742
2697.95	0.7672
2706.49	0.7592
2715.02	0.7518
2723.55	0.7432
2732.08	0.7354
2740.62	0.7246
2749.15	0.7194
2757.68	0.7082
2766.21	0.7042
2774.75	0.6927
2783.28	0.6842
2791.81	0.6737
2800.34	0.6657
2808.87	0.6537
2817.41	0.643
2825.94	0.6282
2834.47	0.6145
2843	0.5985
2851.54	0.5925
2860.07	0.5865
2868.6	0.586
2877.13	0.5813
2885.67	0.576
2894.2	0.5658
2902.73	0.5505
2911.26	0.5292
2919.8	0.4995
2928.33	0.5345
2936.86	0.5265
2945.39	0.5213
2953.93	0.5093
2962.46	0.4651
2970.99	0.5127
2979.52	0.513
2988.06	0.512
2996.59	0.512
3005.12	0.5093
3013.65	0.505
3022.19	0.5003
3030.72	0.4949
3039.25	0.491
3047.78	0.4853
3056.32	0.4796
3064.85	0.4743
3073.38	0.4663
3081.91	0.4613
3090.44	0.457
3098.98	0.4509
3107.51	0.4423
3116.04	0.4343
3124.57	0.4217
3133.11	0.4137
3141.64	0.3983
3150.17	0.388
3158.7	0.373
3167.24	0.3547
3175.77	0.3404
3184.3	0.317
3192.83	0.2901
3201.37	0.2694
3209.9	0.2584
3218.43	0.2504
3226.96	0.2421
3235.5	0.2377
3244.03	0.231
3252.56	0.2274
3261.09	0.2286
3269.63	0.2355
3278.16	0.2476
3286.69	0.2695
3295.22	0.3005
3303.76	0.3233
3312.29	0.3346
3320.82	0.3372
3329.35	0.3396
3337.89	0.339
3346.42	0.3354
3354.95	0.336
3363.48	0.3386
3372.01	0.3426
3380.55	0.3436
3389.08	0.344
3397.61	0.344
3406.14	0.3408
3414.68	0.3314
3423.21	0.3017
3431.74	0.2427
3440.27	0.1809
3448.81	0.1699
3457.34	0.2097
3465.87	0.2562
3474.4	0.3192
3482.94	0.3663
3491.47	0.4214
3500	0.4625
3508.53	0.5154
3517.07	0.581
3525.6	0.6185
3534.13	0.6581
3542.66	0.6929
3551.2	0.7298
3559.73	0.7608
3568.26	0.7902
3576.79	0.8132
3585.33	0.8382
3593.86	0.8531
3602.39	0.8631
3610.92	0.8726
3619.46	0.8815
3627.99	0.8881
3636.52	0.89
3645.05	0.8935
3653.58	0.9015
3662.12	0.902
3670.65	0.902
3679.18	0.9
3687.71	0.898
3696.25	0.899
3704.78	0.8975
3713.31	0.894
3721.84	0.895
3730.38	0.8945
3738.91	0.8935
3747.44	0.893
3755.97	0.8935
3764.51	0.8905
3773.04	0.89
3781.57	0.889
3790.1	0.889
