Infrared Spectrum: 1,2,4-BENZENETRICARBOXYLIC ACID, TRIOCTYL ESTER (ISO)
Formula: C33 H54 O6
State: SOLUTION (10% IN CCl4 FOR 4000-1330, 10% IN CS2 FOR 1330-420 CM^-^1) VS. SOLVENT
Class: COBLENTZ III
Instrument: PERKIN-ELMER 180
Sampling: TRANSMISSION
Path length: 0.011, 0.011 CM
Resolution: 4
Origin: DOW CHEMICAL COMPANY
1/CM	TRANSMITTANCE
422.293	0.916
431.413	0.922
440.532	0.919
449.652	0.918
458.772	0.921
467.892	0.916
477.011	0.91
486.131	0.908
495.251	0.901
504.37	0.906
513.49	0.912
522.61	0.911
531.73	0.92
540.849	0.925
549.969	0.919
559.089	0.916
568.208	0.918
577.328	0.917
586.448	0.911
595.568	0.923
604.687	0.944
613.807	0.957
622.927	0.961
632.046	0.96
641.166	0.954
650.286	0.94
659.405	0.925
668.525	0.916
677.645	0.948
686.765	0.926
695.884	0.845
705.004	0.879
714.124	0.866
723.243	0.797
732.363	0.809
741.483	0.713
750.603	0.379
759.722	0.623
768.842	0.752
777.962	0.808
787.081	0.81
796.201	0.819
805.321	0.862
814.441	0.86
823.56	0.848
832.68	0.842
841.8	0.835
850.919	0.78
860.039	0.777
869.159	0.848
878.279	0.865
887.398	0.867
896.518	0.852
905.638	0.831
914.757	0.788
923.877	0.751
932.997	0.744
942.117	0.705
951.236	0.645
960.356	0.576
969.476	0.525
978.595	0.523
987.715	0.613
996.835	0.711
1005.95	0.77
1015.07	0.758
1024.19	0.725
1033.31	0.716
1042.43	0.706
1051.55	0.626
1060.67	0.3769
1069.79	0.288
1078.91	0.5619
1088.03	0.689
1097.15	0.5141
1106.27	0.089
1115.39	0.085
1124.51	0.165
1133.63	0.257
1142.75	0.272
1151.87	0.4182
1160.99	0.647
1170.11	0.746
1179.23	0.778
1188.35	0.765
1197.47	0.698
1206.59	0.588
1215.71	0.347
1224.83	0.048
1233.95	0.01
1243.07	0.03
1252.19	0.07
1261.31	0.082
1270.43	0.07
1279.55	0.044
1288.67	0.098
1297.79	0.085
1306.9	0.08
1316.02	0.25
1325.14	0.508
1334.26	0.624
1343.38	0.687
1352.5	0.684
1361.62	0.553
1370.74	0.5
1379.86	0.38
1388.98	0.591
1398.1	0.703
1407.22	0.655
1416.34	0.78
1425.46	0.757
1434.58	0.698
1443.7	0.547
1452.82	0.327
1461.94	0.258
1471.06	0.508
1480.18	0.732
1489.3	0.715
1498.42	0.821
1507.54	0.864
1516.66	0.877
1525.78	0.88
1534.9	0.882
1544.02	0.877
1553.14	0.871
1562.26	0.848
1571.38	0.822
1580.5	0.871
1589.62	0.88
1598.74	0.856
1607.86	0.821
1616.98	0.873
1626.09	0.878
1635.21	0.873
1644.33	0.864
1653.45	0.854
1662.57	0.839
1671.69	0.806
1680.81	0.734
1689.93	0.689
1699.05	0.5989
1708.17	0.3221
1717.29	0.008
1726.41	0.001
1735.53	0.026
1744.65	0.218
1753.77	0.597
1762.89	0.754
1772.01	0.806
1781.13	0.837
1790.25	0.858
1799.37	0.875
1808.49	0.886
1817.61	0.89
1826.73	0.893
1835.85	0.9
1844.97	0.907
1854.09	0.909
1863.21	0.913
1872.33	0.919
1881.45	0.92
1890.57	0.92
1899.69	0.921
1908.81	0.922
1917.93	0.922
1927.05	0.92
1936.17	0.912
1945.28	0.916
1954.4	0.922
1963.52	0.925
1972.64	0.926
1981.76	0.929
1990.88	0.932
2000	0.925
2009.12	0.923
2018.24	0.923
2027.36	0.923
2036.48	0.925
2045.6	0.924
2054.72	0.924
2063.84	0.922
2072.96	0.922
2082.08	0.923
2091.2	0.922
2100.32	0.924
2109.44	0.9249
2118.56	0.9266
2127.68	0.924
2136.8	0.926
2145.92	0.926
2155.04	0.9266
2164.16	0.924
2173.28	0.924
2182.4	0.9252
2191.52	0.923
2200.64	0.923
2209.76	0.923
2218.88	0.9258
2228	0.926
2237.12	0.926
2246.24	0.927
2255.35	0.927
2264.47	0.927
2273.59	0.927
2282.71	0.926
2291.83	0.926
2300.95	0.9248
2310.07	0.924
2319.19	0.9238
2328.31	0.9213
2337.43	0.9188
2346.55	0.918
2355.67	0.918
2364.79	0.917
2373.91	0.917
2383.03	0.919
2392.15	0.918
2401.27	0.9176
2410.39	0.92
2419.51	0.923
2428.63	0.9261
2437.75	0.927
2446.87	0.927
2455.99	0.927
2465.11	0.927
2474.23	0.927
2483.35	0.926
2492.47	0.9245
2501.59	0.924
2510.71	0.9235
2519.83	0.922
2528.95	0.92
2538.07	0.92
2547.19	0.9185
2556.31	0.916
2565.43	0.913
2574.54	0.911
2583.66	0.9051
2592.78	0.903
2601.9	0.905
2611.02	0.9041
2620.14	0.9074
2629.26	0.908
2638.38	0.908
2647.5	0.9051
2656.62	0.9036
2665.74	0.902
2674.86	0.902
2683.98	0.901
2693.1	0.8983
2702.22	0.8942
2711.34	0.8843
2720.46	0.878
2729.58	0.8829
2738.7	0.8898
2747.82	0.8887
2756.94	0.888
2766.06	0.8857
2775.18	0.8812
2784.3	0.8702
2793.42	0.8542
2802.54	0.826
2811.66	0.7921
2820.78	0.7403
2829.9	0.6667
2839.02	0.5083
2848.14	0.3802
2857.26	0.2883
2866.38	0.1563
2875.5	0.2251
2884.62	0.271
2893.73	0.1963
2902.85	0.1461
2911.97	0.1172
2921.09	0.0793
2930.21	0.086
2939.33	0.0891
2948.45	0.0327
2957.57	0.012
2966.69	0.0768
2975.81	0.2659
2984.93	0.5091
2994.05	0.708
3003.17	0.8057
3012.29	0.8367
3021.41	0.8642
3030.53	0.8775
3039.65	0.884
3048.77	0.889
3057.89	0.893
3067.01	0.8895
3076.13	0.894
3085.25	0.9055
3094.37	0.911
3103.49	0.911
3112.61	0.913
3121.73	0.916
3130.85	0.916
3139.97	0.916
3149.09	0.914
3158.21	0.915
3167.33	0.913
3176.45	0.914
3185.57	0.9189
3194.69	0.9234
3203.8	0.926
3212.92	0.9304
3222.04	0.9337
3231.16	0.935
3240.28	0.9368
3249.4	0.938
3258.52	0.939
3267.64	0.94
3276.76	0.94
3285.88	0.94
3295	0.941
3304.12	0.942
3313.24	0.941
3322.36	0.9407
3331.48	0.9417
3340.6	0.9422
3349.72	0.943
3358.84	0.944
3367.96	0.9443
3377.08	0.9442
3386.2	0.944
3395.32	0.9428
3404.44	0.938
3413.56	0.9265
3422.68	0.9137
3431.8	0.9102
3440.92	0.9186
3450.04	0.9273
3459.16	0.9359
3468.28	0.9441
3477.4	0.948
3486.52	0.949
3495.64	0.949
3504.76	0.949
3513.88	0.949
3522.99	0.949
3532.11	0.949
3541.23	0.9499
3550.35	0.948
3559.47	0.948
3568.59	0.9547
3577.71	0.9629
3586.83	0.948
3595.95	0.949
3605.07	0.949
3614.19	0.949
3623.31	0.949
3632.43	0.947
3641.55	0.9481
3650.67	0.946
3659.79	0.948
3668.91	0.9421
3678.03	0.9478
3687.15	0.9459
3696.27	0.946
3705.39	0.9441
3714.51	0.946
3723.63	0.946
3732.75	0.9468
3741.87	0.9464
3750.99	0.9467
3760.11	0.949
3769.23	0.948
3778.35	0.9498
3787.47	0.949
3796.59	0.949
3805.71	0.949
3814.83	0.947
3823.95	0.949
3833.07	0.946
3842.18	0.9492
3851.3	0.9465
3860.42	0.9495
3869.54	0.947
3878.66	0.947
3887.78	0.9477
3896.9	0.9498
3906.02	0.9476
3915.14	0.949
3924.26	0.951
3933.38	0.951
3942.5	0.952
3951.62	0.952
3960.74	0.951
3969.86	0.949
3978.98	0.948
3988.1	0.949
