Infrared Spectrum: 2-METHYLPIPERIDINE HYDROCHLORIDE
Formula: C6 H14 Cl N
State: SOLID (SPLIT MULL, FLUOROLUBE FOR 3800-1330 AND NUJOL FOR 1330-450 CM ^-^1)
Class: COBLENTZ III
Instrument: DOW KBr FOREPRISM-GRATING
Instrument parameters: BLAZED AT 3.5, 12.0, 20.0 MICRON, CHANGED AT 5.0, 7.5, 14.9 MICRON
Sampling: TRANSMISSION
Resolution: 4
Origin: DOW CHEMICAL COMPANY
1/CM	TRANSMITTANCE
448.873	0.907
457.539	0.915
466.204	0.905
474.87	0.829
483.535	0.68
492.201	0.961
500.866	0.978
509.532	0.979
518.197	0.985
526.863	0.986
535.528	0.99
544.194	0.995
552.859	0.985
561.525	0.584
570.19	0.991
578.856	1.002
587.521	1.004
596.187	1.005
604.852	1.004
613.518	1.002
622.183	1.001
630.849	1
639.514	0.995
648.18	0.991
656.845	0.986
665.511	0.982
674.176	0.975
682.842	0.971
691.507	0.967
700.173	0.965
708.838	0.954
717.504	0.923
726.169	0.92
734.835	0.944
743.5	0.952
752.166	0.959
760.831	0.959
769.497	0.962
778.162	0.955
786.828	0.966
795.493	0.969
804.159	0.965
812.824	0.955
821.49	0.961
830.155	0.965
838.821	0.961
847.486	0.951
856.152	0.951
864.817	0.958
873.483	0.961
882.148	0.954
890.814	0.887
899.479	0.954
908.145	0.952
916.81	0.951
925.476	0.943
934.141	0.854
942.807	0.8889
951.472	0.942
960.138	0.934
968.803	0.862
977.469	0.927
986.134	0.942
994.8	0.909
1003.47	0.833
1012.13	0.932
1020.8	0.93
1029.46	0.809
1038.13	0.852
1046.79	0.935
1055.46	0.94
1064.12	0.931
1072.79	0.791
1081.45	0.891
1090.12	0.775
1098.79	0.909
1107.45	0.93
1116.12	0.861
1124.78	0.95
1133.45	0.944
1142.11	0.903
1150.78	0.938
1159.44	0.951
1168.11	0.948
1176.78	0.944
1185.44	0.955
1194.11	0.955
1202.77	0.954
1211.44	0.943
1220.1	0.813
1228.77	0.94
1237.43	0.946
1246.1	0.94
1254.76	0.931
1263.43	0.913
1272.1	0.876
1280.76	0.913
1289.43	0.915
1298.09	0.905
1306.76	0.883
1315.42	0.84
1324.09	0.896
1332.75	0.823
1341.42	0.805
1350.09	0.827
1358.75	0.794
1367.42	0.853
1376.08	0.811
1384.75	0.697
1393.41	0.723
1402.08	0.884
1410.74	0.86
1419.41	0.83
1428.07	0.833
1436.74	0.668
1445.41	0.693
1454.07	0.682
1462.74	0.365
1471.4	0.607
1480.07	0.923
1488.73	0.946
1497.4	0.936
1506.06	0.935
1514.73	0.931
1523.4	0.931
1532.06	0.942
1540.73	0.946
1549.39	0.947
1558.06	0.966
1566.72	0.952
1575.39	0.947
1584.05	0.795
1592.72	0.635
1601.38	0.948
1610.05	0.95
1618.72	0.986
1627.38	0.99
1636.05	0.977
1644.71	0.979
1653.38	0.985
1662.04	0.955
1670.71	0.959
1679.37	0.962
1688.04	0.978
1696.71	0.987
1705.37	0.985
1714.04	0.99
1722.7	0.991
1731.37	0.997
1740.03	0.991
1748.7	0.977
1757.36	0.974
1766.03	0.982
1774.69	0.983
1783.36	0.974
1792.03	0.977
1800.69	0.97
1809.36	0.975
1818.02	0.979
1826.69	0.981
1835.35	0.975
1844.02	0.981
1852.68	0.974
1861.35	0.962
1870.02	0.948
1878.68	0.931
1887.35	0.943
1896.01	0.966
1904.68	0.977
1913.34	0.974
1922.01	0.967
1930.67	0.978
1939.34	0.982
1948	0.982
1956.67	0.982
1965.34	0.981
1974	0.982
1982.67	0.981
1991.33	1.008
2000	0.963
2008.66	0.99
2017.33	0.986
2025.99	0.978
2034.66	0.9771
2043.33	0.977
2051.99	0.971
2060.66	0.9611
2069.32	0.9276
2077.99	0.8513
2086.65	0.889
2095.32	0.9308
2103.98	0.966
2112.65	0.969
2121.31	0.9667
2129.98	0.9628
2138.65	0.9657
2147.31	0.9554
2155.98	0.9163
2164.64	0.9023
2173.31	0.9195
2181.97	0.9434
2190.64	0.946
2199.3	0.9474
2207.97	0.9436
2216.64	0.932
2225.3	0.9215
2233.97	0.923
2242.63	0.9235
2251.3	0.9169
2259.96	0.9099
2268.63	0.9004
2277.29	0.893
2285.96	0.889
2294.62	0.8943
2303.29	0.8937
2311.96	0.8923
2320.62	0.8873
2329.29	0.887
2337.95	0.8833
2346.62	0.8692
2355.28	0.8743
2363.95	0.8728
2372.61	0.8532
2381.28	0.835
2389.95	0.816
2398.61	0.7803
2407.28	0.6066
2415.94	0.6551
2424.61	0.7115
2433.27	0.7876
2441.94	0.7565
2450.6	0.6858
2459.27	0.661
2467.94	0.6179
2476.6	0.4961
2485.27	0.5184
2493.93	0.6234
2502.6	0.709
2511.26	0.6725
2519.93	0.4647
2528.59	0.3268
2537.26	0.5256
2545.92	0.5681
2554.59	0.522
2563.26	0.3338
2571.92	0.4059
2580.59	0.545
2589.25	0.6269
2597.92	0.6212
2606.58	0.6018
2615.25	0.6533
2623.91	0.666
2632.58	0.6406
2641.25	0.5695
2649.91	0.5614
2658.58	0.4778
2667.24	0.4096
2675.91	0.2841
2684.57	0.2709
2693.24	0.2875
2701.9	0.2427
2710.57	0.1443
2719.23	0.08
2727.9	0.068
2736.57	0.0502
2745.23	0.04
2753.9	0.0406
2762.56	0.0944
2771.23	0.1037
2779.89	0.079
2788.56	0.1037
2797.22	0.1365
2805.89	0.1045
2814.56	0.102
2823.22	0.0982
2831.89	0.0872
2840.55	0.1273
2849.22	0.1955
2857.88	0.2167
2866.55	0.3098
2875.21	0.3517
2883.88	0.3881
2892.54	0.2977
2901.21	0.2007
2909.88	0.157
2918.54	0.19
2927.21	0.165
2935.87	0.0999
2944.54	0.0479
2953.2	0.0372
2961.87	0.1506
2970.53	0.205
2979.2	0.3052
2987.87	0.4052
2996.53	0.4708
3005.2	0.5593
3013.86	0.6736
3022.53	0.7398
3031.19	0.7957
3039.86	0.8383
3048.52	0.8699
3057.19	0.8899
3065.85	0.912
3074.52	0.9343
3083.19	0.9467
3091.85	0.9544
3100.52	0.961
3109.18	0.9692
3117.85	0.9762
3126.51	0.9866
3135.18	0.9895
3143.84	0.988
3152.51	0.995
3161.18	0.9929
3169.84	0.9899
3178.51	0.9657
3187.17	0.9457
3195.84	0.9512
3204.5	0.985
3213.17	0.9883
3221.83	0.9963
3230.5	0.998
3239.16	0.995
3247.83	0.995
3256.5	0.997
3265.16	0.993
3273.83	0.995
3282.49	0.99
3291.16	0.9866
3299.82	0.989
3308.49	0.989
3317.15	0.989
3325.82	0.985
3334.49	0.9851
3343.15	0.983
3351.82	0.9791
3360.48	0.979
3369.15	0.979
3377.81	0.978
3386.48	0.975
3395.14	0.977
3403.81	0.975
3412.47	0.971
3421.14	0.9712
3429.81	0.9768
3438.47	0.962
3447.14	0.9661
3455.8	0.9618
3464.47	0.963
3473.13	0.961
3481.8	0.962
3490.46	0.958
3499.13	0.955
3507.8	0.958
3516.46	0.9636
3525.13	0.956
3533.79	0.955
3542.46	0.956
3551.12	0.9584
3559.79	0.9616
3568.45	0.9546
3577.12	0.943
3585.78	0.956
3594.45	0.956
3603.12	0.956
3611.78	0.958
3620.45	0.963
3629.11	0.9531
3637.78	0.9606
3646.44	0.956
3655.11	0.9516
3663.77	0.9684
3672.44	0.9532
3681.11	0.9561
3689.77	0.9513
3698.44	0.95
3707.1	0.95
3715.77	0.9517
3724.43	0.9575
3733.1	0.958
3741.76	0.9462
3750.43	0.942
3759.09	0.942
3767.76	0.9392
3776.43	0.938
3785.09	0.939
3793.76	0.938
