Infrared Spectrum: HYPOXANTHINE, 7-BUTYL-
Formula: C9 H12 N4 O
State: SOLID (1 mg / 650 mg KBr DISC)
Class: COBLENTZ III
Instrument: PERKIN-ELMER 221 (GRATING)
Instrument parameters: GRATING FOR 4000-1428, FILTERS AT 2490, 980, NaCl PRISM FOR 1428-650 CM^-^1
Sampling: TRANSMISSION
Resolution: 4
Origin: SOUTHERN RESEARCH INSTITUTE
1/CM	TRANSMITTANCE
643.308	0.837
652.407	0.8331
661.507	0.7785
670.606	0.6521
679.705	0.7655
688.805	0.8423
697.904	0.84
707.003	0.7835
716.103	0.8433
725.202	0.8163
734.301	0.7953
743.401	0.7791
752.5	0.7169
761.599	0.6379
770.699	0.7441
779.798	0.7077
788.898	0.4057
797.997	0.7011
807.096	0.675
816.196	0.658
825.295	0.6155
834.394	0.6067
843.494	0.5964
852.593	0.6038
861.692	0.6307
870.792	0.6468
879.891	0.6152
888.99	0.601
898.09	0.5456
907.189	0.674
916.288	0.77
925.388	0.776
934.487	0.776
943.586	0.7544
952.686	0.7508
961.785	0.786
970.884	0.783
979.984	0.7722
989.083	0.7542
998.182	0.7598
1007.28	0.7565
1016.38	0.7456
1025.48	0.7326
1034.58	0.7204
1043.68	0.6775
1052.78	0.6809
1061.88	0.6728
1070.98	0.6294
1080.08	0.4932
1089.18	0.5462
1098.28	0.5982
1107.37	0.5134
1116.47	0.5861
1125.57	0.6327
1134.67	0.5143
1143.77	0.471
1152.87	0.5554
1161.97	0.6894
1171.07	0.6887
1180.17	0.6648
1189.27	0.6101
1198.37	0.4659
1207.47	0.2717
1216.57	0.3122
1225.67	0.522
1234.77	0.665
1243.86	0.652
1252.96	0.7258
1262.06	0.6975
1271.16	0.6215
1280.26	0.6046
1289.36	0.6589
1298.46	0.6343
1307.56	0.6034
1316.66	0.624
1325.76	0.474
1334.86	0.3331
1343.96	0.382
1353.06	0.4836
1362.16	0.4314
1371.26	0.4418
1380.35	0.4609
1389.45	0.3125
1398.55	0.2915
1407.65	0.4494
1416.75	0.413
1425.85	0.446
1434.95	0.4407
1444.05	0.4199
1453.15	0.5578
1462.25	0.5742
1471.35	0.6464
1480.45	0.688
1489.55	0.6102
1498.65	0.4865
1507.75	0.4406
1516.85	0.3674
1525.94	0.5354
1535.04	0.5794
1544.14	0.6969
1553.24	0.6536
1562.34	0.5678
1571.44	0.4829
1580.54	0.2908
1589.64	0.2472
1598.74	0.451
1607.84	0.633
1616.94	0.6196
1626.04	0.5586
1635.14	0.5021
1644.24	0.4432
1653.34	0.3705
1662.43	0.3058
1671.53	0.1916
1680.63	0.0689
1689.73	0.0294
1698.83	0.0858
1707.93	0.2024
1717.03	0.3198
1726.13	0.4126
1735.23	0.5148
1744.33	0.5654
1753.43	0.6208
1762.53	0.6475
1771.63	0.6736
1780.73	0.7072
1789.83	0.71
1798.92	0.732
1808.02	0.7779
1817.12	0.7959
1826.22	0.8171
1835.32	0.8478
1844.42	0.867
1853.52	0.8876
1862.62	0.89
1871.72	0.891
1880.82	0.891
1889.92	0.8971
1899.02	0.9037
1908.12	0.906
1917.22	0.897
1926.32	0.8944
1935.42	0.8829
1944.51	0.8555
1953.61	0.8221
1962.71	0.8214
1971.81	0.8586
1980.91	0.8775
1990.01	0.89
1999.11	0.895
2008.21	0.898
2017.31	0.9023
2026.41	0.9014
2035.51	0.894
2044.61	0.891
2053.71	0.894
2062.81	0.894
2071.91	0.893
2081	0.891
2090.1	0.89
2099.2	0.8887
2108.3	0.885
2117.4	0.8797
2126.5	0.8744
2135.6	0.871
2144.7	0.8753
2153.8	0.877
2162.9	0.8694
2172	0.866
2181.1	0.87
2190.2	0.871
2199.3	0.8694
2208.4	0.8673
2217.49	0.8714
2226.59	0.8604
2235.69	0.858
2244.79	0.858
2253.89	0.857
2262.99	0.8507
2272.09	0.85
2281.19	0.85
2290.29	0.8441
2299.39	0.8426
2308.49	0.844
2317.59	0.8351
2326.69	0.8147
2335.79	0.812
2344.89	0.8047
2353.98	0.7987
2363.08	0.7857
2372.18	0.7982
2381.28	0.8126
2390.38	0.8217
2399.48	0.815
2408.58	0.8127
2417.68	0.801
2426.78	0.799
2435.88	0.8
2444.98	0.7967
2454.08	0.795
2463.18	0.792
2472.28	0.787
2481.38	0.7817
2490.48	0.7767
2499.57	0.774
2508.67	0.773
2517.77	0.7684
2526.87	0.763
2535.97	0.7571
2545.07	0.75
2554.17	0.7427
2563.27	0.7337
2572.37	0.7264
2581.47	0.724
2590.57	0.723
2599.67	0.7174
2608.77	0.7067
2617.87	0.7017
2626.97	0.698
2636.06	0.6927
2645.16	0.691
2654.26	0.6877
2663.36	0.68
2672.46	0.6787
2681.56	0.673
2690.66	0.671
2699.76	0.6664
2708.86	0.653
2717.96	0.648
2727.06	0.6387
2736.16	0.633
2745.26	0.6274
2754.36	0.6177
2763.46	0.6094
2772.55	0.5984
2781.65	0.5691
2790.75	0.5627
2799.85	0.5534
2808.95	0.536
2818.05	0.5347
2827.15	0.5121
2836.25	0.4847
2845.35	0.4707
2854.45	0.4278
2863.55	0.418
2872.65	0.4136
2881.75	0.462
2890.85	0.456
2899.95	0.4324
2909.05	0.4118
2918.14	0.3705
2927.24	0.3347
2936.34	0.3493
2945.44	0.371
2954.54	0.3364
2963.64	0.3564
2972.74	0.4427
2981.84	0.477
2990.94	0.4727
3000.04	0.468
3009.14	0.4647
3018.24	0.4441
3027.34	0.4264
3036.44	0.3849
3045.54	0.3617
3054.63	0.3786
3063.73	0.397
3072.83	0.3888
3081.93	0.3634
3091.03	0.3238
3100.13	0.3236
3109.23	0.3648
3118.33	0.3966
3127.43	0.4332
3136.53	0.44
3145.63	0.4407
3154.73	0.441
3163.83	0.446
3172.93	0.4569
3182.03	0.4656
3191.12	0.48
3200.22	0.4803
3209.32	0.4913
3218.42	0.5003
3227.52	0.5043
3236.62	0.5153
3245.72	0.5376
3254.82	0.5483
3263.92	0.5626
3273.02	0.5713
3282.12	0.5892
3291.22	0.6086
3300.32	0.6349
3309.42	0.6463
3318.52	0.6663
3327.61	0.6973
3336.71	0.7119
3345.81	0.7183
3354.91	0.719
3364.01	0.72
3373.11	0.7359
3382.21	0.747
3391.31	0.746
3400.41	0.75
3409.51	0.75
3418.61	0.7507
3427.71	0.749
3436.81	0.751
3445.91	0.752
3455.01	0.752
3464.11	0.7553
3473.2	0.7616
3482.3	0.761
3491.4	0.761
3500.5	0.765
3509.6	0.772
3518.7	0.777
3527.8	0.7773
3536.9	0.7839
3546	0.7903
3555.1	0.7953
3564.2	0.8
3573.3	0.8016
3582.4	0.812
3591.5	0.8097
3600.6	0.8173
3609.69	0.827
3618.79	0.821
3627.89	0.8293
3636.99	0.821
3646.09	0.845
3655.19	0.8327
3664.29	0.8453
3673.39	0.8474
3682.49	0.8317
3691.59	0.8474
3700.69	0.8466
3709.79	0.853
3718.89	0.8521
3727.99	0.8571
3737.09	0.8487
3746.18	0.8423
3755.28	0.8417
3764.38	0.844
3773.48	0.84
3782.58	0.8413
3791.68	0.8417
3800.78	0.835
3809.88	0.835
