Infrared Spectrum: NITROGEN DIOXIDE - DINITROGEN TETROXIDE (MIXTURE)
Formula: N O2 - N2 O4
State: GAS (515 mmHg)
Class: COBLENTZ
Instrument: BECKMAN IR-9 (GRATING)
Instrument parameters: ORDER CHANGES: 670, 1200, 2000 CM^-^1
Sampling: TRANSMISSION
Path length: 10 CM
Resolution: 2
Origin: DOW CHEMICAL COMPANY
1/CM	TRANSMITTANCE
403.266	0
412.06	0
420.854	0
429.648	0
438.442	0
447.236	0
456.03	0
464.824	0
473.618	0
482.412	0
491.206	0
500	0.005
508.794	0.011
517.588	0.011
526.382	0.009
535.176	0.011
543.97	0.027
552.764	0.041
561.557	0.067
570.351	0.104
579.145	0.15
587.939	0.19
596.733	0.231
605.527	0.267
614.321	0.308
623.115	0.346
631.909	0.382
640.703	0.4129
649.497	0.431
658.291	0.378
667.085	0.253
675.879	0.2111
684.673	0.156
693.467	0.158
702.261	0.2069
711.055	0.2231
719.849	0.1101
728.643	0.005
737.437	0
746.231	0
755.025	0
763.819	0
772.613	0
781.407	0.1199
790.201	0.5739
798.995	0.6929
807.789	0.758
816.583	0.774
825.377	0.809
834.171	0.809
842.965	0.831
851.759	0.853
860.552	0.819
869.346	0.766
878.14	0.762
886.934	0.7421
895.728	0.748
904.522	0.7718
913.316	0.835
922.11	0.877
930.904	0.95
939.698	0.966
948.492	0.978
957.286	0.976
966.08	0.97
974.874	0.946
983.668	0.897
992.462	0.815
1001.26	0.738
1010.05	0.7219
1018.84	0.758
1027.64	0.845
1036.43	0.863
1045.23	0.883
1054.02	0.9299
1062.81	0.96
1071.61	0.976
1080.4	0.976
1089.2	0.972
1097.99	0.962
1106.78	0.96
1115.58	0.958
1124.37	0.956
1133.17	0.966
1141.96	0.96
1150.75	0.93
1159.55	0.883
1168.34	0.8231
1177.14	0.754
1185.93	0.631
1194.72	0.508
1203.52	0.4072
1212.31	0.3041
1221.11	0.198
1229.9	0.0711
1238.69	0.011
1247.49	0.001
1256.28	0.001
1265.08	0
1273.87	0
1282.66	0
1291.46	0
1300.25	0.011
1309.05	0.249
1317.84	0.3559
1326.63	0.3765
1335.43	0.548
1344.22	0.512
1353.01	0.574
1361.81	0.54
1370.6	0.653
1379.4	0.7059
1388.19	0.756
1396.98	0.786
1405.78	0.803
1414.57	0.829
1423.37	0.843
1432.16	0.881
1440.95	0.893
1449.75	0.918
1458.54	0.924
1467.34	0.922
1476.13	0.897
1484.92	0.691
1493.72	0.5303
1502.51	0.562
1511.31	0.629
1520.1	0.746
1528.89	0.798
1537.69	0.782
1546.48	0.617
1555.28	0.3264
1564.07	0.102
1572.86	0.015
1581.66	0.005
1590.45	0.001
1599.25	0.001
1608.04	0.001
1616.83	0.001
1625.63	0.001
1634.42	0.001
1643.22	0
1652.01	0.001
1660.8	0.459
1669.6	0.4792
1678.39	0.2351
1687.19	0.065
1695.98	0.013
1704.77	0.003
1713.57	0.001
1722.36	0
1731.16	0
1739.95	0
1748.74	0
1757.54	0
1766.33	0
1775.13	0
1783.92	0
1792.71	0
1801.51	0
1810.3	0
1819.1	0.1336
1827.89	0.4909
1836.68	0.651
1845.48	0.7379
1854.27	0.833
1863.07	0.869
1871.86	0.895
1880.65	0.912
1889.45	0.887
1898.24	0.867
1907.04	0.845
1915.83	0.823
1924.62	0.786
1933.42	0.758
1942.21	0.776
1951	0.817
1959.8	0.873
1968.59	0.9
1977.39	0.889
1986.18	0.871
1994.97	0.831
2003.77	0.8729
2012.56	0.8966
2021.36	0.9267
2030.15	0.9431
2038.94	0.954
2047.74	0.9485
2056.53	0.942
2065.33	0.94
2074.12	0.9389
2082.91	0.9564
2091.71	0.9641
2100.5	0.9599
2109.3	0.9281
2118.09	0.8912
2126.88	0.8737
2135.68	0.9043
2144.47	0.9454
2153.27	0.9646
2162.06	0.9695
2170.85	0.97
2179.65	0.9687
2188.44	0.968
2197.24	0.9649
2206.03	0.9599
2214.82	0.956
2223.62	0.9559
2232.41	0.9568
2241.21	0.958
2250	0.9574
2258.79	0.9524
2267.59	0.9395
2276.38	0.9306
2285.18	0.932
2293.97	0.9397
2302.76	0.9583
2311.56	0.966
2320.35	0.966
2329.15	0.968
2337.94	0.9718
2346.73	0.974
2355.53	0.978
2364.32	0.978
2373.12	0.98
2381.91	0.978
2390.7	0.976
2399.5	0.976
2408.29	0.976
2417.09	0.9781
2425.88	0.978
2434.67	0.978
2443.47	0.976
2452.26	0.976
2461.06	0.976
2469.85	0.9724
2478.64	0.97
2487.44	0.972
2496.23	0.97
2505.03	0.9615
2513.82	0.9456
2522.61	0.9287
2531.41	0.8927
2540.2	0.8352
2548.99	0.7824
2557.79	0.7332
2566.58	0.6374
2575.38	0.6024
2584.17	0.6526
2592.96	0.807
2601.76	0.4689
2610.55	0.1811
2619.35	0.0841
2628.14	0.0631
2636.93	0.2059
2645.73	0.7734
2654.52	0.8916
2663.32	0.925
2672.11	0.9407
2680.9	0.9532
2689.7	0.9626
2698.49	0.968
2707.29	0.966
2716.08	0.9647
2724.87	0.962
2733.67	0.958
2742.46	0.9539
2751.26	0.943
2760.05	0.94
2768.84	0.9448
2777.64	0.9577
2786.43	0.962
2795.23	0.9616
2804.02	0.964
2812.81	0.9606
2821.61	0.9527
2830.4	0.9351
2839.2	0.8875
2847.99	0.7374
2856.78	0.4953
2865.58	0.2493
2874.37	0.093
2883.17	0.049
2891.96	0.0346
2900.75	0.2468
2909.55	0.0399
2918.34	0.021
2927.14	0.1732
2935.93	0.4992
2944.72	0.2335
2953.52	0.0407
2962.31	0.022
2971.11	0.019
2979.9	0.017
2988.69	0.3851
2997.49	0.7146
3006.28	0.853
3015.08	0.871
3023.87	0.8701
3032.66	0.8253
3041.46	0.7556
3050.25	0.6611
3059.05	0.6347
3067.84	0.6024
3076.63	0.5571
3085.43	0.3693
3094.22	0.1585
3103.02	0.0553
3111.81	0.037
3120.6	0.037
3129.4	0.0898
3138.19	0.5236
3146.98	0.7164
3155.78	0.7856
3164.57	0.8022
3173.37	0.8657
3182.16	0.9237
3190.95	0.9449
3199.75	0.9538
3208.54	0.9573
3217.34	0.9524
3226.13	0.9414
3234.92	0.938
3243.72	0.936
3252.51	0.9413
3261.31	0.9542
3270.1	0.9651
3278.89	0.972
3287.69	0.976
3296.48	0.976
3305.28	0.976
3314.07	0.976
3322.86	0.976
3331.66	0.976
3340.45	0.9715
3349.25	0.97
3358.04	0.964
3366.83	0.964
3375.63	0.9578
3384.42	0.9499
3393.22	0.9142
3402.01	0.8358
3410.8	0.7293
3419.6	0.5318
3428.39	0.39
3437.19	0.3163
3445.98	0.31
3454.77	0.4871
3463.57	0.6827
3472.36	0.8766
3481.16	0.924
3489.95	0.922
3498.74	0.918
3507.54	0.9278
3516.33	0.9348
3525.13	0.9287
3533.92	0.8629
3542.71	0.8434
3551.51	0.838
3560.3	0.825
3569.1	0.823
3577.89	0.8672
3586.68	0.932
3595.48	0.9485
3604.27	0.958
3613.07	0.9571
3621.86	0.956
3630.65	0.956
3639.45	0.956
3648.24	0.958
3657.04	0.954
3665.83	0.9604
3674.62	0.9727
3683.42	0.974
3692.21	0.974
3701.01	0.976
3709.8	0.975
3718.59	0.974
3727.39	0.972
3736.18	0.9682
3744.98	0.962
3753.77	0.9511
3762.56	0.9355
3771.36	0.93
3780.15	0.932
3788.94	0.9472
