Infrared Spectrum: OXALIC ACID, DIHYDRATE
Formula: C2 H2 O4  * 2 H2 O
State: SOLID (SPLIT MULL, FLUOROLUBE FOR 3800-1330 AND NUJOL FOR 1330-400 CM ^-^1)
Class: COBLENTZ III
Instrument: DOW KBr FOREPRISM-GRATING
Instrument parameters: BLAZED AT 3.5, 12.0, 20.0 MICRON, CHANGED AT 5.0, 7.5, 14.9 MICRON
Sampling: TRANSMISSION
Resolution: 4
Origin: DOW CHEMICAL COMPANY
1/CM	TRANSMITTANCE
385.417	0.695
394.887	0.697
404.356	0.698
413.826	0.701
423.296	0.701
432.765	0.701
442.235	0.701
451.705	0.701
461.175	0.7
470.644	0.7
480.114	0.702
489.584	0.705
499.053	0.705
508.523	0.716
517.993	0.72
527.462	0.713
536.932	0.694
546.402	0.677
555.872	0.66
565.341	0.644
574.811	0.632
584.281	0.626
593.75	0.619
603.22	0.622
612.69	0.638
622.159	0.664
631.629	0.692
641.099	0.716
650.569	0.744
660.038	0.776
669.508	0.786
678.978	0.805
688.447	0.813
697.917	0.804
707.387	0.767
716.856	0.663
726.326	0.514
735.796	0.717
745.266	0.832
754.735	0.86
764.205	0.87
773.675	0.87
783.144	0.873
792.614	0.873
802.084	0.87
811.553	0.87
821.023	0.869
830.493	0.866
839.962	0.863
849.432	0.858
858.902	0.857
868.372	0.852
877.841	0.847
887.311	0.838
896.781	0.833
906.25	0.827
915.72	0.817
925.19	0.811
934.659	0.802
944.129	0.797
953.599	0.783
963.069	0.772
972.538	0.764
982.008	0.76
991.478	0.747
1000.95	0.732
1010.42	0.719
1019.89	0.704
1029.36	0.689
1038.83	0.672
1048.3	0.655
1057.77	0.638
1067.24	0.62
1076.7	0.601
1086.17	0.583
1095.64	0.564
1105.11	0.544
1114.58	0.523
1124.05	0.513
1133.52	0.519
1142.99	0.535
1152.46	0.56
1161.93	0.575
1171.4	0.564
1180.87	0.561
1190.34	0.541
1199.81	0.514
1209.28	0.485
1218.75	0.442
1228.22	0.379
1237.69	0.291
1247.16	0.219
1256.63	0.22
1266.1	0.313
1275.57	0.47
1285.04	0.566
1294.51	0.61
1303.98	0.619
1313.45	0.623
1322.92	0.623
1332.39	0.61
1341.86	0.595
1351.33	0.613
1360.8	0.625
1370.27	0.632
1379.74	0.632
1389.2	0.632
1398.67	0.625
1408.14	0.614
1417.61	0.592
1427.08	0.57
1436.55	0.541
1446.02	0.538
1455.49	0.563
1464.96	0.586
1474.43	0.589
1483.9	0.582
1493.37	0.567
1502.84	0.551
1512.31	0.53
1521.78	0.511
1531.25	0.495
1540.72	0.479
1550.19	0.469
1559.66	0.457
1569.13	0.448
1578.6	0.444
1588.07	0.433
1597.54	0.402
1607.01	0.361
1616.48	0.336
1625.95	0.322
1635.42	0.27
1644.89	0.219
1654.36	0.173
1663.83	0.127
1673.3	0.101
1682.77	0.089
1692.24	0.1
1701.7	0.13
1711.17	0.188
1720.64	0.26
1730.11	0.35
1739.58	0.429
1749.05	0.461
1758.52	0.482
1767.99	0.489
1777.46	0.483
1786.93	0.476
1796.4	0.461
1805.87	0.447
1815.34	0.43
1824.81	0.417
1834.28	0.402
1843.75	0.389
1853.22	0.379
1862.69	0.367
1872.16	0.361
1881.63	0.355
1891.1	0.35
1900.57	0.344
1910.04	0.341
1919.51	0.341
1928.98	0.345
1938.45	0.347
1947.92	0.352
1957.39	0.357
1966.86	0.36
1976.33	0.364
1985.8	0.37
1995.27	0.372
2004.74	0.3785
2014.21	0.387
2023.67	0.3945
2033.14	0.4061
2042.61	0.4182
2052.08	0.4312
2061.55	0.4475
2071.02	0.4598
2080.49	0.4718
2089.96	0.4842
2099.43	0.4933
2108.9	0.5039
2118.37	0.518
2127.84	0.5313
2137.31	0.549
2146.78	0.5607
2156.25	0.5744
2165.72	0.5841
2175.19	0.5934
2184.66	0.6032
2194.13	0.6125
2203.6	0.6198
2213.07	0.6268
2222.54	0.629
2232.01	0.6316
2241.48	0.633
2250.95	0.635
2260.42	0.6377
2269.89	0.641
2279.36	0.6437
2288.83	0.645
2298.3	0.644
2307.77	0.6627
2317.24	0.6688
2326.71	0.67
2336.17	0.6661
2345.64	0.664
2355.11	0.658
2364.58	0.6521
2374.05	0.647
2383.52	0.644
2392.99	0.641
2402.46	0.638
2411.93	0.636
2421.4	0.6349
2430.87	0.633
2440.34	0.63
2449.81	0.629
2459.28	0.629
2468.75	0.629
2478.22	0.629
2487.69	0.6302
2497.16	0.633
2506.63	0.6351
2516.1	0.6412
2525.57	0.648
2535.04	0.6524
2544.51	0.6632
2553.98	0.6722
2563.45	0.6797
2572.92	0.6865
2582.39	0.689
2591.86	0.6875
2601.33	0.6797
2610.8	0.6744
2620.27	0.6697
2629.74	0.6693
2639.21	0.6723
2648.67	0.6777
2658.14	0.6864
2667.61	0.6981
2677.08	0.7061
2686.55	0.7181
2696.02	0.7272
2705.49	0.7414
2714.96	0.7504
2724.43	0.757
2733.9	0.7619
2743.37	0.7649
2752.84	0.767
2762.31	0.766
2771.78	0.763
2781.25	0.7575
2790.72	0.754
2800.19	0.751
2809.66	0.75
2819.13	0.752
2828.6	0.7561
2838.07	0.76
2847.54	0.7666
2857.01	0.7782
2866.48	0.7856
2875.95	0.7916
2885.42	0.798
2894.89	0.801
2904.36	0.805
2913.83	0.81
2923.3	0.813
2932.77	0.8167
2942.24	0.8197
2951.71	0.82
2961.17	0.8227
2970.64	0.826
2980.11	0.827
2989.58	0.829
2999.05	0.832
3008.52	0.8346
3017.99	0.836
3027.46	0.838
3036.93	0.838
3046.4	0.8388
3055.87	0.841
3065.34	0.8419
3074.81	0.842
3084.28	0.844
3093.75	0.8449
3103.22	0.847
3112.69	0.848
3122.16	0.8471
3131.63	0.845
3141.1	0.842
3150.57	0.839
3160.04	0.835
3169.51	0.832
3178.98	0.829
3188.45	0.823
3197.92	0.814
3207.39	0.8078
3216.86	0.7979
3226.33	0.7889
3235.8	0.7799
3245.27	0.7718
3254.74	0.7637
3264.21	0.754
3273.67	0.7437
3283.14	0.7316
3292.61	0.7182
3302.08	0.6997
3311.55	0.6849
3321.02	0.6656
3330.49	0.6421
3339.96	0.6114
3349.43	0.5808
3358.9	0.5365
3368.37	0.5047
3377.84	0.4646
3387.31	0.424
3396.78	0.3767
3406.25	0.3114
3415.72	0.2497
3425.19	0.2183
3434.66	0.2257
3444.13	0.2414
3453.6	0.2557
3463.07	0.2569
3472.54	0.2492
3482.01	0.2372
3491.48	0.2266
3500.95	0.22
3510.42	0.2254
3519.89	0.2368
3529.36	0.2538
3538.83	0.2769
3548.3	0.3229
3557.77	0.378
3567.24	0.4526
3576.71	0.5099
3586.17	0.5765
3595.64	0.6281
3605.11	0.7196
3614.58	0.7693
3624.05	0.823
3633.52	0.8564
3642.99	0.8875
3652.46	0.9122
3661.93	0.93
3671.4	0.9416
3680.87	0.9507
3690.34	0.9563
3699.81	0.9624
3709.28	0.967
3718.75	0.9727
3728.22	0.9784
3737.69	0.9815
3747.16	0.983
3756.63	0.985
3766.1	0.9875
3775.57	0.988
3785.04	0.989
3794.51	0.989
