Infrared Spectrum: METHANESULFONIC ACID, SODIUM SALT
Formula: C H3 O3 S Na
State: SOLID (SPLIT MULL, FLUOROLUBE FOR 3800-1333 AND NUJOL FOR 1333-400 CM ^-^1)
Class: COBLENTZ II
Instrument: BECKMAN IR-9 (GRATING)
Instrument parameters: ORDER CHANGES AT 670, 1200, 2000 CM^-^1
Sampling: TRANSMISSION
Resolution: 4
Origin: DOW CHEMICAL COMPANY
1/CM	TRANSMITTANCE
402.632	0.685
411.404	0.688
420.176	0.725
428.948	0.773
437.72	0.808
446.492	0.831
455.264	0.853
464.036	0.87
472.808	0.879
481.579	0.89
490.351	0.897
499.123	0.907
507.895	0.911
516.667	0.909
525.439	0.685
534.211	0.446
542.983	0.6551
551.755	0.691
560.527	0.362
569.299	0.775
578.071	0.913
586.843	0.945
595.615	0.949
604.387	0.95
613.159	0.95
621.931	0.952
630.703	0.953
639.474	0.953
648.246	0.953
657.018	0.953
665.79	0.953
674.562	0.953
683.334	0.952
692.106	0.95
700.878	0.948
709.65	0.941
718.422	0.912
727.194	0.927
735.966	0.941
744.738	0.954
753.51	0.964
762.282	0.96
771.054	0.908
779.826	0.722
788.598	0.483
797.369	0.901
806.141	0.976
814.913	0.986
823.685	0.989
832.457	0.987
841.229	0.986
850.001	0.984
858.773	0.984
867.545	0.986
876.317	0.986
885.089	0.984
893.861	0.978
902.633	0.98
911.405	0.98
920.177	0.974
928.949	0.974
937.721	0.967
946.492	0.964
955.264	0.961
964.036	0.926
972.808	0.946
981.58	0.948
990.352	0.942
999.124	0.948
1007.9	0.942
1016.67	0.93
1025.44	0.912
1034.21	0.877
1042.98	0.748
1051.76	0.498
1060.53	0.236
1069.3	0.442
1078.07	0.5561
1086.84	0.859
1095.62	0.882
1104.39	0.883
1113.16	0.863
1121.93	0.821
1130.7	0.762
1139.48	0.7
1148.25	0.637
1157.02	0.523
1165.79	0.367
1174.56	0.236
1183.33	0.154
1192.11	0.109
1200.88	0.086
1209.65	0.109
1218.42	0.144
1227.19	0.25
1235.97	0.428
1244.74	0.412
1253.51	0.452
1262.28	0.614
1271.05	0.676
1279.83	0.719
1288.6	0.75
1297.37	0.773
1306.14	0.79
1314.91	0.806
1323.69	0.784
1332.46	0.698
1341.23	0.786
1350	0.822
1358.77	0.842
1367.55	0.889
1376.32	0.911
1385.09	0.919
1393.86	0.922
1402.63	0.922
1411.41	0.815
1420.18	0.864
1428.95	0.913
1437.72	0.913
1446.49	0.935
1455.27	0.939
1464.04	0.946
1472.81	0.948
1481.58	0.95
1490.35	0.949
1499.12	0.95
1507.9	0.95
1516.67	0.95
1525.44	0.952
1534.21	0.953
1542.98	0.953
1551.76	0.952
1560.53	0.954
1569.3	0.953
1578.07	0.953
1586.84	0.954
1595.62	0.956
1604.39	0.956
1613.16	0.956
1621.93	0.965
1630.7	0.963
1639.48	0.953
1648.25	0.953
1657.02	0.956
1665.79	0.956
1674.56	0.961
1683.34	0.957
1692.11	0.959
1700.88	0.961
1709.65	0.96
1718.42	0.957
1727.2	0.96
1735.97	0.961
1744.74	0.963
1753.51	0.963
1762.28	0.963
1771.06	0.961
1779.83	0.96
1788.6	0.959
1797.37	0.959
1806.14	0.96
1814.91	0.96
1823.69	0.959
1832.46	0.96
1841.23	0.96
1850	0.96
1858.77	0.96
1867.55	0.96
1876.32	0.96
1885.09	0.961
1893.86	0.96
1902.63	0.961
1911.41	0.961
1920.18	0.964
1928.95	0.963
1937.72	0.964
1946.49	0.965
1955.27	0.964
1964.04	0.963
1972.81	0.963
1981.58	0.961
1990.35	0.959
1999.13	0.957
2007.9	0.956
2016.67	0.956
2025.44	0.956
2034.21	0.956
2042.99	0.954
2051.76	0.954
2060.53	0.954
2069.3	0.954
2078.07	0.954
2086.85	0.954
2095.62	0.953
2104.39	0.952
2113.16	0.949
2121.93	0.948
2130.7	0.948
2139.48	0.948
2148.25	0.949
2157.02	0.949
2165.79	0.949
2174.56	0.949
2183.34	0.948
2192.11	0.946
2200.88	0.946
2209.65	0.946
2218.42	0.9425
2227.2	0.935
2235.97	0.931
2244.74	0.929
2253.51	0.9235
2262.28	0.92
2271.06	0.922
2279.83	0.9265
2288.6	0.928
2297.37	0.93
2306.14	0.926
2314.92	0.923
2323.69	0.925
2332.46	0.927
2341.23	0.93
2350	0.933
2358.78	0.934
2367.55	0.936
2376.32	0.9415
2385.09	0.9415
2393.86	0.938
2402.64	0.937
2411.41	0.9375
2420.18	0.939
2428.95	0.939
2437.72	0.9415
2446.49	0.942
2455.27	0.945
2464.04	0.945
2472.81	0.946
2481.58	0.948
2490.35	0.9495
2499.13	0.95
2507.9	0.95
2516.67	0.951
2525.44	0.95
2534.21	0.95
2542.99	0.951
2551.76	0.952
2560.53	0.952
2569.3	0.952
2578.07	0.952
2586.85	0.952
2595.62	0.952
2604.39	0.952
2613.16	0.952
2621.93	0.952
2630.71	0.95
2639.48	0.948
2648.25	0.948
2657.02	0.948
2665.79	0.948
2674.57	0.948
2683.34	0.948
2692.11	0.948
2700.88	0.948
2709.65	0.948
2718.43	0.948
2727.2	0.9485
2735.97	0.946
2744.74	0.945
2753.51	0.945
2762.28	0.945
2771.06	0.945
2779.83	0.945
2788.6	0.944
2797.37	0.943
2806.14	0.942
2814.92	0.941
2823.69	0.939
2832.46	0.939
2841.23	0.939
2850	0.939
2858.78	0.938
2867.55	0.937
2876.32	0.9345
2885.09	0.934
2893.86	0.935
2902.64	0.935
2911.41	0.934
2920.18	0.9335
2928.95	0.9215
2937.72	0.781
2946.5	0.918
2955.27	0.934
2964.04	0.935
2972.81	0.935
2981.58	0.935
2990.36	0.934
2999.13	0.9175
3007.9	0.9115
3016.67	0.7199
3025.44	0.8123
3034.21	0.9255
3042.99	0.934
3051.76	0.934
3060.53	0.934
3069.3	0.933
3078.07	0.932
3086.85	0.931
3095.62	0.931
3104.39	0.93
3113.16	0.93
3121.93	0.93
3130.71	0.93
3139.48	0.93
3148.25	0.93
3157.02	0.93
3165.79	0.93
3174.57	0.93
3183.34	0.929
3192.11	0.928
3200.88	0.927
3209.65	0.926
3218.43	0.926
3227.2	0.925
3235.97	0.923
3244.74	0.923
3253.51	0.92
3262.29	0.92
3271.06	0.919
3279.83	0.918
3288.6	0.915
3297.37	0.913
3306.15	0.913
3314.92	0.913
3323.69	0.912
3332.46	0.911
3341.23	0.91
3350	0.9075
3358.78	0.9035
3367.55	0.9
3376.32	0.898
3385.09	0.898
3393.86	0.897
3402.64	0.897
3411.41	0.895
3420.18	0.893
3428.95	0.891
3437.72	0.889
3446.5	0.89
3455.27	0.8935
3464.04	0.896
3472.81	0.898
3481.58	0.901
3490.36	0.903
3499.13	0.904
3507.9	0.907
3516.67	0.907
3525.44	0.908
3534.22	0.909
3542.99	0.9115
3551.76	0.911
3560.53	0.9125
3569.3	0.913
3578.08	0.913
3586.85	0.915
3595.62	0.916
3604.39	0.918
3613.16	0.918
3621.94	0.918
3630.71	0.918
3639.48	0.919
3648.25	0.92
3657.02	0.92
3665.79	0.92
3674.57	0.92
3683.34	0.92
3692.11	0.919
3700.88	0.919
3709.65	0.92
3718.43	0.92
3727.2	0.919
3735.97	0.918
3744.74	0.918
3753.51	0.918
3762.29	0.918
3771.06	0.918
3779.83	0.918
3788.6	0.916
3797.37	0.916
