Infrared Spectrum: 1,7-OCTADIENE, 2,4-DIMETHYL-3-CHLORO-
Formula: C10 H17 Cl
State: (NEAT)
Class: COBLENTZ III
Instrument: UNICAM SP-200
Sampling: TRANSMISSION
Resolution: 4
Origin: BUSH BOAKE ALLEN LTD. VIA SCIENTIFIC DOC. CENTRE LTD.
1/CM	TRANSMITTANCE
653.852	0.539
664.972	0.55
676.092	0.4721
687.212	0.4699
698.332	0.607
709.452	0.642
720.572	0.65
731.692	0.591
742.812	0.555
753.932	0.3101
765.052	0.38
776.172	0.439
787.292	0.566
798.412	0.591
809.531	0.595
820.651	0.555
831.771	0.425
842.891	0.588
854.011	0.572
865.131	0.634
876.251	0.656
887.371	0.555
898.491	0.2251
909.611	0.066
920.731	0.1089
931.851	0.325
942.971	0.5
954.091	0.601
965.211	0.632
976.331	0.609
987.451	0.46
998.571	0.283
1009.69	0.485
1020.81	0.554
1031.93	0.626
1043.05	0.622
1054.17	0.644
1065.29	0.676
1076.41	0.691
1087.53	0.688
1098.65	0.679
1109.77	0.619
1120.89	0.645
1132.01	0.675
1143.13	0.689
1154.25	0.686
1165.37	0.699
1176.49	0.7
1187.61	0.662
1198.73	0.632
1209.85	0.524
1220.97	0.49
1232.09	0.548
1243.21	0.573
1254.33	0.584
1265.45	0.625
1276.57	0.646
1287.69	0.634
1298.81	0.624
1309.93	0.629
1321.05	0.635
1332.17	0.653
1343.29	0.66
1354.41	0.653
1365.53	0.515
1376.65	0.219
1387.77	0.351
1398.89	0.575
1410.01	0.578
1421.13	0.501
1432.25	0.3459
1443.37	0.206
1454.49	0.13
1465.61	0.173
1476.73	0.5
1487.85	0.638
1498.97	0.711
1510.09	0.735
1521.21	0.754
1532.33	0.776
1543.45	0.783
1554.57	0.79
1565.69	0.797
1576.81	0.798
1587.93	0.786
1599.05	0.779
1610.17	0.755
1621.29	0.714
1632.41	0.286
1643.53	0.405
1654.65	0.7
1665.77	0.734
1676.89	0.747
1688.01	0.761
1699.13	0.78
1710.25	0.781
1721.37	0.782
1732.49	0.793
1743.61	0.809
1754.73	0.816
1765.85	0.819
1776.97	0.812
1788.09	0.789
1799.21	0.746
1810.33	0.717
1821.45	0.742
1832.57	0.78
1843.69	0.812
1854.81	0.821
1865.93	0.831
1877.05	0.833
1888.17	0.837
1899.29	0.839
1910.41	0.841
1921.53	0.844
1932.65	0.845
1943.77	0.846
1954.89	0.845
1966.01	0.844
1977.13	0.843
1988.25	0.836
1999.37	0.837
2010.49	0.837
2021.61	0.8388
2032.73	0.841
2043.85	0.842
2054.97	0.841
2066.09	0.841
2077.21	0.8409
2088.33	0.841
2099.45	0.842
2110.57	0.842
2121.69	0.842
2132.81	0.841
2143.93	0.841
2155.05	0.8415
2166.17	0.842
2177.29	0.841
2188.41	0.84
2199.53	0.84
2210.65	0.839
2221.77	0.838
2232.89	0.8362
2244.01	0.836
2255.13	0.836
2266.25	0.836
2277.37	0.836
2288.49	0.8352
2299.61	0.836
2310.73	0.838
2321.85	0.84
2332.97	0.843
2344.09	0.8442
2355.21	0.8461
2366.33	0.8455
2377.45	0.84
2388.57	0.8325
2399.69	0.831
2410.81	0.8296
2421.93	0.828
2433.05	0.828
2444.17	0.826
2455.29	0.825
2466.41	0.825
2477.53	0.826
2488.65	0.826
2499.77	0.826
2510.89	0.824
2522.01	0.824
2533.13	0.8213
2544.25	0.8198
2555.37	0.8164
2566.49	0.8129
2577.61	0.8114
2588.73	0.809
2599.85	0.808
2610.97	0.808
2622.09	0.807
2633.21	0.805
2644.33	0.802
2655.45	0.8
2666.57	0.799
2677.69	0.7952
2688.81	0.7893
2699.93	0.7793
2711.05	0.7724
2722.17	0.7718
2733.28	0.774
2744.4	0.7733
2755.52	0.7708
2766.64	0.7656
2777.76	0.7524
2788.88	0.7038
2800	0.6345
2811.12	0.5571
2822.24	0.4188
2833.36	0.2949
2844.48	0.2024
2855.6	0.1655
2866.72	0.155
2877.84	0.1501
2888.96	0.1337
2900.08	0.0989
2911.2	0.0753
2922.32	0.0665
2933.44	0.059
2944.56	0.057
2955.68	0.0552
2966.8	0.0543
2977.92	0.1096
2989.04	0.2086
3000.16	0.4474
3011.28	0.54
3022.4	0.5864
3033.52	0.6091
3044.64	0.6049
3055.76	0.5219
3066.88	0.4458
3078	0.4392
3089.12	0.5863
3100.24	0.6702
3111.36	0.7124
3122.48	0.7386
3133.6	0.7489
3144.72	0.7519
3155.84	0.7594
3166.96	0.7637
3178.08	0.7663
3189.2	0.7698
3200.32	0.7746
3211.44	0.7788
3222.56	0.7823
3233.68	0.7867
3244.8	0.789
3255.92	0.79
3267.04	0.7912
3278.16	0.793
3289.28	0.7941
3300.4	0.7976
3311.52	0.8
3322.64	0.801
3333.76	0.802
3344.88	0.802
3356	0.802
3367.12	0.8024
3378.24	0.802
3389.36	0.803
3400.48	0.803
3411.6	0.802
3422.72	0.802
3433.84	0.803
3444.96	0.803
3456.08	0.803
3467.2	0.803
3478.32	0.803
3489.44	0.803
3500.56	0.804
3511.68	0.804
3522.8	0.804
3533.92	0.804
3545.04	0.804
3556.16	0.803
3567.28	0.802
3578.4	0.8015
3589.52	0.8
3600.64	0.799
3611.76	0.798
3622.88	0.798
3634	0.8
3645.12	0.8024
3656.24	0.804
3667.36	0.8043
3678.48	0.805
3689.6	0.805
3700.72	0.805
3711.84	0.805
3722.96	0.805
3734.08	0.805
3745.2	0.806
3756.32	0.807
3767.44	0.807
3778.56	0.807
3789.68	0.8064
3800.8	0.805
3811.92	0.806
3823.04	0.807
3834.16	0.807
3845.28	0.807
3856.4	0.807
3867.52	0.807
3878.64	0.807
3889.76	0.807
3900.88	0.807
3912	0.807
3923.12	0.807
3934.24	0.807
3945.36	0.807
3956.48	0.8053
3967.6	0.804
3978.72	0.803
3989.84	0.802
4000.96	0.801
4012.08	0.8
4023.2	0.7974
4034.32	0.796
4045.44	0.7955
4056.56	0.795
4067.68	0.795
4078.8	0.793
4089.92	0.791
4101.04	0.79
4112.16	0.79
4123.28	0.789
4134.4	0.788
4145.52	0.7878
4156.64	0.788
4167.76	0.788
4178.88	0.787
4190	0.786
4201.12	0.786
4212.24	0.786
4223.36	0.7858
4234.48	0.785
4245.6	0.7849
4256.72	0.7834
4267.84	0.783
4278.96	0.7814
4290.08	0.781
4301.2	0.781
4312.32	0.781
4323.44	0.7775
4334.56	0.7751
4345.68	0.7726
4356.8	0.771
4367.92	0.77
4379.04	0.769
4390.16	0.767
4401.28	0.764
4412.4	0.7617
4423.52	0.7583
4434.64	0.7568
4445.76	0.7543
4456.88	0.755
4468	0.7567
4479.12	0.757
4490.24	0.758
4501.36	0.7601
4512.48	0.769
4523.6	0.771
4534.72	0.7755
4545.84	0.778
4556.96	0.779
4568.08	0.7809
4579.2	0.7844
4590.32	0.788
4601.44	0.79
4612.56	0.7929
4623.68	0.7953
4634.8	0.7996
4645.92	0.802
4657.04	0.803
4668.16	0.805
4679.28	0.805
4690.4	0.807
4701.52	0.808
4712.64	0.807
4723.76	0.807
4734.88	0.808
4746	0.807
4757.12	0.807
4768.24	0.808
4779.36	0.807
4790.48	0.807
4801.6	0.807
4812.72	0.805
4823.84	0.805
4834.96	0.805
4846.08	0.8069
4857.2	0.807
4868.32	0.807
4879.44	0.807
4890.56	0.807
4901.68	0.807
4912.8	0.807
4923.92	0.807
4935.04	0.807
4946.16	0.807
4957.28	0.8076
4968.4	0.808
4979.52	0.808
4990.64	0.808
5001.76	0.808
5012.88	0.807
5024	0.808
5035.12	0.808
5046.24	0.8075
