Infrared Spectrum: PHOSPHINE, TRIPHENYL-, HYDROBROMIDE
Formula: C15 H16 Br P
State: SOLID (SPLIT MULL, FLUOROLUBE FOR 3800-1340 AND NUJOL FOR 1340-470 CM ^-^1)
Class: COBLENTZ III
Instrument: DOW KBr FOREPRISM-GRATING
Instrument parameters: BLAZED AT 3.5, 12.0, 20.0 MICRON, CHANGED AT 5.0, 7.5, 14.9 MICRON
Sampling: TRANSMISSION
Resolution: 4
Origin: DOW CHEMICAL COMPANY
1/CM	TRANSMITTANCE
465.89	0.872
474.418	0.832
482.945	0.694
491.473	0.2
500	0.796
508.528	0.821
517.056	0.249
525.583	0.937
534.111	0.954
542.638	0.893
551.166	0.932
559.694	0.99
568.221	1.024
576.749	1.029
585.276	1.038
593.804	1.044
602.332	1.044
610.859	1.045
619.387	1.024
627.914	1.049
636.442	1.05
644.97	1.05
653.497	1.042
662.025	1.016
670.552	0.937
679.08	0.786
687.608	0.4291
696.135	0.428
704.663	0.4081
713.19	0.816
721.718	0.714
730.246	0.677
738.773	0.124
747.301	0.728
755.829	0.6541
764.356	0.5569
772.884	0.6211
781.411	0.908
789.939	0.941
798.467	0.954
806.994	0.961
815.522	0.965
824.049	0.962
832.577	0.946
841.105	0.912
849.632	0.933
858.16	0.901
866.687	0.844
875.215	0.849
883.743	0.716
892.27	0.63
900.798	0.758
909.325	0.821
917.853	0.849
926.381	0.801
934.908	0.724
943.436	0.553
951.963	0.817
960.491	0.88
969.019	0.888
977.546	0.881
986.074	0.76
994.601	0.845
1003.13	0.852
1011.66	0.897
1020.18	0.905
1028.71	0.885
1037.24	0.914
1045.77	0.913
1054.29	0.902
1062.82	0.888
1071.35	0.85
1079.88	0.869
1088.41	0.853
1096.93	0.792
1105.46	0.512
1113.99	0.2969
1122.52	0.5091
1131.04	0.796
1139.57	0.853
1148.1	0.844
1156.63	0.752
1165.15	0.7332
1173.68	0.88
1182.21	0.828
1190.74	0.881
1199.26	0.922
1207.79	0.93
1216.32	0.934
1224.85	0.942
1233.37	0.942
1241.9	0.94
1250.43	0.938
1258.96	0.933
1267.48	0.918
1276.01	0.901
1284.54	0.897
1293.07	0.905
1301.6	0.885
1310.12	0.849
1318.65	0.866
1327.18	0.861
1335.71	0.91
1344.23	0.932
1352.76	0.948
1361.29	0.96
1369.82	0.962
1378.34	0.965
1386.87	0.984
1395.4	0.945
1403.93	0.925
1412.45	0.92
1420.98	0.913
1429.51	0.864
1438.04	0.3969
1446.56	0.977
1455.09	0.984
1463.62	0.981
1472.15	0.972
1480.67	0.902
1489.2	0.785
1497.73	0.997
1506.26	0.998
1514.79	1.01
1523.31	1.009
1531.84	1.005
1540.37	1.002
1548.9	1
1557.42	0.998
1565.95	0.99
1574.48	0.961
1583.01	0.9459
1591.53	0.974
1600.06	0.989
1608.59	0.982
1617.12	0.977
1625.64	0.976
1634.17	0.976
1642.7	0.978
1651.23	0.98
1659.75	0.976
1668.28	0.972
1676.81	0.968
1685.34	0.958
1693.86	0.952
1702.39	0.946
1710.92	0.941
1719.45	0.934
1727.98	0.929
1736.5	0.93
1745.03	0.933
1753.56	0.93
1762.09	0.929
1770.61	0.928
1779.14	0.924
1787.67	0.922
1796.2	0.925
1804.72	0.921
1813.25	0.924
1821.78	0.925
1830.31	0.922
1838.83	0.92
1847.36	0.921
1855.89	0.917
1864.42	0.908
1872.94	0.896
1881.47	0.905
1890	0.917
1898.53	0.922
1907.05	0.922
1915.58	0.92
1924.11	0.916
1932.64	0.913
1941.17	0.914
1949.69	0.914
1958.22	0.914
1966.75	0.912
1975.28	0.904
1983.8	0.901
1992.33	0.896
2000.86	0.8895
2009.39	0.887
2017.91	0.883
2026.44	0.877
2034.97	0.876
2043.5	0.8666
2052.02	0.8551
2060.55	0.8511
2069.08	0.8471
2077.61	0.8397
2086.13	0.8311
2094.66	0.8176
2103.19	0.8051
2111.72	0.7931
2120.24	0.7797
2128.77	0.7692
2137.3	0.7606
2145.83	0.75
2154.36	0.745
2162.88	0.742
2171.41	0.744
2179.94	0.746
2188.47	0.7494
2196.99	0.7551
2205.52	0.7628
2214.05	0.7701
2222.58	0.7764
2231.1	0.7827
2239.63	0.7911
2248.16	0.7963
2256.69	0.8027
2265.21	0.8067
2273.74	0.8123
2282.27	0.818
2290.8	0.822
2299.32	0.828
2307.85	0.829
2316.38	0.828
2324.91	0.826
2333.44	0.826
2341.96	0.825
2350.49	0.825
2359.02	0.825
2367.55	0.8265
2376.07	0.83
2384.6	0.832
2393.13	0.836
2401.66	0.837
2410.18	0.8372
2418.71	0.8368
2427.24	0.8328
2435.77	0.83
2444.29	0.8258
2452.82	0.825
2461.35	0.8248
2469.88	0.822
2478.4	0.8218
2486.93	0.8196
2495.46	0.8156
2503.99	0.814
2512.51	0.813
2521.04	0.813
2529.57	0.812
2538.1	0.809
2546.63	0.806
2555.15	0.804
2563.68	0.801
2572.21	0.7979
2580.74	0.796
2589.26	0.794
2597.79	0.794
2606.32	0.7929
2614.85	0.7918
2623.37	0.788
2631.9	0.788
2640.43	0.7878
2648.96	0.7859
2657.48	0.782
2666.01	0.777
2674.54	0.774
2683.07	0.773
2691.59	0.77
2700.12	0.77
2708.65	0.7719
2717.18	0.77
2725.7	0.768
2734.23	0.765
2742.76	0.762
2751.29	0.761
2759.82	0.76
2768.34	0.758
2776.87	0.756
2785.4	0.753
2793.93	0.748
2802.45	0.744
2810.98	0.741
2819.51	0.741
2828.04	0.741
2836.56	0.74
2845.09	0.733
2853.62	0.732
2862.15	0.7261
2870.67	0.725
2879.2	0.722
2887.73	0.718
2896.26	0.7121
2904.78	0.7061
2913.31	0.704
2921.84	0.6981
2930.37	0.6961
2938.89	0.693
2947.42	0.693
2955.95	0.69
2964.48	0.6802
2973.01	0.6742
2981.53	0.6662
2990.06	0.6562
2998.59	0.6569
3007.12	0.6462
3015.64	0.636
3024.17	0.6397
3032.7	0.642
3041.23	0.668
3049.75	0.6706
3058.28	0.6583
3066.81	0.6562
3075.34	0.6463
3083.86	0.6493
3092.39	0.6678
3100.92	0.6841
3109.45	0.688
3117.97	0.685
3126.5	0.6812
3135.03	0.681
3143.56	0.68
3152.08	0.6762
3160.61	0.6744
3169.14	0.6756
3177.67	0.676
3186.2	0.674
3194.72	0.67
3203.25	0.6682
3211.78	0.6652
3220.31	0.6643
3228.83	0.6613
3237.36	0.6585
3245.89	0.6563
3254.42	0.653
3262.94	0.652
3271.47	0.6493
3280	0.648
3288.53	0.645
3297.05	0.6426
3305.58	0.6403
3314.11	0.637
3322.64	0.634
3331.16	0.633
3339.69	0.6307
3348.22	0.629
3356.75	0.626
3365.28	0.6227
3373.8	0.62
3382.33	0.617
3390.86	0.6147
3399.39	0.6124
3407.91	0.609
3416.44	0.6068
3424.97	0.605
3433.5	0.602
3442.02	0.6004
3450.55	0.5988
3459.08	0.5974
3467.61	0.5948
3476.13	0.594
3484.66	0.592
3493.19	0.59
3501.72	0.5894
3510.24	0.589
3518.77	0.588
3527.3	0.588
3535.83	0.586
3544.35	0.586
3552.88	0.5855
3561.41	0.584
3569.94	0.582
3578.47	0.581
3586.99	0.581
3595.52	0.581
3604.05	0.581
3612.58	0.5805
3621.1	0.579
3629.63	0.578
3638.16	0.577
3646.69	0.576
3655.21	0.576
3663.74	0.574
3672.27	0.5735
3680.8	0.5711
3689.32	0.568
3697.85	0.566
3706.38	0.565
3714.91	0.564
3723.43	0.564
3731.96	0.562
3740.49	0.561
3749.02	0.558
3757.54	0.5552
3766.07	0.552
3774.6	0.55
3783.13	0.55
3791.66	0.549
