Infrared Spectrum: 4-PYRAZOLECARBOXYLIC ACID, 5-AMINO-, METHYL ESTER
Formula: C5 H7 N3 O2
State: SOLID (1 mg / 650 mg KBr DISC)
Class: COBLENTZ III
Instrument: PERKIN-ELMER 521 (GRATING)
Sampling: TRANSMISSION
Resolution: 4
Origin: SOUTHERN RESEARCH INSTITUTE
1/CM	TRANSMITTANCE
262.324	0.4
272.887	0.437
283.451	0.452
294.014	0.486
304.578	0.559
315.141	0.604
325.704	0.601
336.268	0.614
346.831	0.624
357.395	0.634
367.958	0.676
378.522	0.687
389.085	0.672
399.648	0.674
410.212	0.672
420.775	0.664
431.339	0.658
441.902	0.667
452.465	0.662
463.029	0.663
473.592	0.67
484.156	0.674
494.719	0.672
505.282	0.66
515.846	0.641
526.409	0.663
536.973	0.6579
547.536	0.703
558.099	0.692
568.663	0.684
579.226	0.674
589.79	0.66
600.353	0.687
610.917	0.691
621.48	0.687
632.043	0.663
642.607	0.637
653.17	0.628
663.734	0.636
674.297	0.647
684.86	0.663
695.424	0.668
705.987	0.63
716.551	0.709
727.114	0.68
737.677	0.679
748.241	0.654
758.804	0.617
769.368	0.3481
779.931	0.593
790.495	0.695
801.058	0.6701
811.621	0.678
822.185	0.688
832.748	0.746
843.312	0.797
853.875	0.785
864.438	0.746
875.002	0.733
885.565	0.787
896.129	0.788
906.692	0.7501
917.255	0.67
927.819	0.662
938.382	0.642
948.946	0.685
959.509	0.7589
970.072	0.825
980.636	0.822
991.199	0.816
1001.76	0.788
1012.33	0.771
1022.89	0.742
1033.45	0.672
1044.02	0.724
1054.58	0.738
1065.14	0.7
1075.71	0.638
1086.27	0.547
1096.83	0.483
1107.4	0.534
1117.96	0.432
1128.52	0.453
1139.09	0.555
1149.65	0.713
1160.21	0.773
1170.78	0.7081
1181.34	0.5331
1191.9	0.542
1202.47	0.533
1213.03	0.8
1223.59	0.829
1234.16	0.784
1244.72	0.764
1255.28	0.729
1265.85	0.685
1276.41	0.5911
1286.97	0.591
1297.54	0.425
1308.1	0.608
1318.67	0.717
1329.23	0.696
1339.79	0.582
1350.36	0.448
1360.92	0.582
1371.48	0.4881
1382.05	0.735
1392.61	0.776
1403.17	0.779
1413.74	0.735
1424.3	0.6459
1434.86	0.508
1445.43	0.586
1455.99	0.542
1466.55	0.679
1477.12	0.704
1487.68	0.633
1498.24	0.458
1508.81	0.595
1519.37	0.588
1529.93	0.5999
1540.5	0.554
1551.06	0.521
1561.62	0.473
1572.19	0.53
1582.75	0.629
1593.31	0.503
1603.88	0.367
1614.44	0.321
1625	0.516
1635.57	0.634
1646.13	0.668
1656.69	0.647
1667.26	0.582
1677.82	0.4529
1688.38	0.241
1698.95	0.279
1709.51	0.333
1720.07	0.494
1730.64	0.622
1741.2	0.713
1751.76	0.756
1762.33	0.784
1772.89	0.817
1783.46	0.838
1794.02	0.856
1804.58	0.867
1815.15	0.88
1825.71	0.89
1836.27	0.898
1846.84	0.904
1857.4	0.914
1867.96	0.917
1878.53	0.915
1889.09	0.911
1899.65	0.91
1910.22	0.914
1920.78	0.915
1931.34	0.915
1941.91	0.922
1952.47	0.923
1963.03	0.922
1973.6	0.921
1984.16	0.914
1994.72	0.908
2005.29	0.913
2015.85	0.911
2026.41	0.908
2036.98	0.901
2047.54	0.8971
2058.1	0.8942
2068.67	0.893
2079.23	0.893
2089.79	0.894
2100.36	0.896
2110.92	0.894
2121.48	0.894
2132.05	0.8932
2142.61	0.893
2153.17	0.893
2163.74	0.892
2174.3	0.892
2184.86	0.89
2195.43	0.89
2205.99	0.8883
2216.55	0.888
2227.12	0.886
2237.68	0.885
2248.25	0.884
2258.81	0.884
2269.37	0.884
2279.94	0.884
2290.5	0.883
2301.06	0.88
2311.63	0.879
2322.19	0.879
2332.75	0.876
2343.32	0.876
2353.88	0.871
2364.44	0.8715
2375.01	0.869
2385.57	0.869
2396.13	0.869
2406.7	0.868
2417.26	0.865
2427.82	0.864
2438.39	0.862
2448.95	0.8596
2459.51	0.856
2470.08	0.8472
2480.64	0.84
2491.2	0.835
2501.77	0.835
2512.33	0.835
2522.89	0.833
2533.46	0.8244
2544.02	0.821
2554.58	0.816
2565.15	0.812
2575.71	0.8075
2586.27	0.8
2596.84	0.7918
2607.4	0.7786
2617.96	0.7802
2628.53	0.785
2639.09	0.7848
2649.65	0.776
2660.22	0.7709
2670.78	0.77
2681.34	0.7616
2691.91	0.7509
2702.47	0.7379
2713.04	0.726
2723.6	0.725
2734.16	0.722
2744.73	0.712
2755.29	0.697
2765.85	0.683
2776.42	0.662
2786.98	0.6569
2797.54	0.6698
2808.11	0.6849
2818.67	0.6791
2829.23	0.6673
2839.8	0.6591
2850.36	0.6413
2860.92	0.6263
2871.49	0.62
2882.05	0.6037
2892.61	0.5807
2903.18	0.568
2913.74	0.571
2924.3	0.578
2934.87	0.5712
2945.43	0.566
2955.99	0.5707
2966.56	0.5877
2977.12	0.6188
2987.68	0.6517
2998.25	0.668
3008.81	0.6647
3019.37	0.663
3029.94	0.666
3040.5	0.662
3051.06	0.6378
3061.63	0.637
3072.19	0.6398
3082.75	0.6289
3093.32	0.6048
3103.88	0.5649
3114.44	0.549
3125.01	0.5365
3135.57	0.5365
3146.14	0.5304
3156.7	0.545
3167.26	0.547
3177.83	0.547
3188.39	0.547
3198.95	0.547
3209.52	0.546
3220.08	0.5504
3230.64	0.553
3241.21	0.5457
3251.77	0.54
3262.33	0.5354
3272.9	0.5207
3283.46	0.5037
3294.02	0.499
3304.59	0.4957
3315.15	0.4875
3325.71	0.486
3336.28	0.5035
3346.84	0.5332
3357.4	0.5474
3367.97	0.54
3378.53	0.5548
3389.09	0.6002
3399.66	0.5926
3410.22	0.5795
3420.78	0.6053
3431.35	0.6018
3441.91	0.5243
3452.47	0.5428
3463.04	0.6366
3473.6	0.7014
3484.16	0.7341
3494.73	0.758
3505.29	0.775
3515.85	0.792
3526.42	0.804
3536.98	0.813
3547.54	0.8249
3558.11	0.833
3568.67	0.8367
3579.23	0.8439
3589.8	0.8538
3600.36	0.856
3610.93	0.8599
3621.49	0.867
3632.05	0.8718
3642.62	0.872
3653.18	0.875
3663.74	0.8722
3674.31	0.8688
3684.87	0.872
3695.43	0.877
3706	0.8757
3716.56	0.8753
3727.12	0.875
3737.69	0.872
3748.25	0.8717
3758.81	0.873
3769.38	0.872
3779.94	0.871
3790.5	0.871
3801.07	0.869
3811.63	0.8658
3822.19	0.865
3832.76	0.86
3843.32	0.86
3853.88	0.86
3864.45	0.859
3875.01	0.86
3885.57	0.86
3896.14	0.858
3906.7	0.8585
3917.26	0.858
3927.83	0.8586
3938.39	0.858
3948.95	0.8584
3959.52	0.856
3970.08	0.856
3980.64	0.856
3991.21	0.8586
