Infrared Spectrum: POLYGLYCOL P 15/200
Formula: C21 H50 O9
State: SOLUTION (10% IN CCl4 FOR 3800-1300, 5% IN CS2 FOR 1300-650, AND 10% IN CCl4 FOR 650-250 CM^-^1) VS. SOLVENT
Class: COBLENTZ
Instrument: PERKIN-ELMER 521 (GRATING)
Instrument parameters: FILTERS AT 3150, 2500, 2000, 1150, 700, 410 AND GRATING CHANGES AT 2000, 630 CM^-^1
Sampling: TRANSMISSION
Path length: 0.011, 0.011, AND 0.010CM (CsBr CELL)
Resolution: 4
Origin: DOW CORNING CORP.
1/CM	TRANSMITTANCE
252.039	0.906
261.229	0.91
270.419	0.911
279.609	0.911
288.8	0.909
297.99	0.908
307.18	0.91
316.37	0.91
325.56	0.911
334.75	0.91
343.94	0.91
353.13	0.908
362.321	0.905
371.511	0.906
380.701	0.906
389.891	0.91
399.081	0.913
408.271	0.911
417.461	0.906
426.651	0.899
435.842	0.903
445.032	0.901
454.222	0.904
463.412	0.913
472.602	0.915
481.792	0.915
490.982	0.915
500.172	0.916
509.363	0.918
518.553	0.915
527.743	0.915
536.933	0.921
546.123	0.927
555.313	0.925
564.503	0.929
573.693	0.935
582.884	0.944
592.074	0.956
601.264	0.965
610.454	0.972
619.644	0.972
628.834	0.967
638.024	0.965
647.214	0.963
656.405	0.962
665.595	0.961
674.785	0.959
683.975	0.952
693.165	0.946
702.355	0.945
711.545	0.941
720.735	0.937
729.926	0.936
739.116	0.935
748.306	0.934
757.496	0.932
766.686	0.934
775.876	0.925
785.066	0.916
794.256	0.911
803.447	0.889
812.637	0.845
821.827	0.814
831.017	0.792
840.207	0.79
849.397	0.79
858.587	0.783
867.778	0.773
876.968	0.77
886.158	0.788
895.348	0.792
904.538	0.775
913.728	0.75
922.918	0.746
932.108	0.751
941.299	0.757
950.489	0.751
959.679	0.749
968.869	0.759
978.059	0.768
987.249	0.747
996.439	0.746
1005.63	0.77
1014.82	0.771
1024.01	0.729
1033.2	0.653
1042.39	0.619
1051.58	0.587
1060.77	0.514
1069.96	0.422
1079.15	0.308
1088.34	0.167
1097.53	0.106
1106.72	0.099
1115.91	0.115
1125.1	0.142
1134.29	0.168
1143.48	0.212
1152.67	0.331
1161.86	0.484
1171.05	0.672
1180.24	0.834
1189.43	0.885
1198.62	0.886
1207.81	0.869
1217	0.858
1226.19	0.809
1235.38	0.724
1244.57	0.716
1253.76	0.752
1262.95	0.762
1272.14	0.737
1281.33	0.703
1290.52	0.696
1299.71	0.716
1308.9	0.719
1318.09	0.606
1327.28	0.603
1336.47	0.529
1345.66	0.529
1354.85	0.581
1364.04	0.534
1373.23	0.337
1382.42	0.597
1391.61	0.706
1400.8	0.744
1410	0.777
1419.19	0.795
1428.38	0.776
1437.57	0.65
1446.76	0.499
1455.95	0.486
1465.14	0.58
1474.33	0.673
1483.52	0.752
1492.71	0.872
1501.9	0.901
1511.09	0.91
1520.28	0.916
1529.47	0.922
1538.66	0.922
1547.85	0.922
1557.04	0.919
1566.23	0.918
1575.42	0.915
1584.61	0.913
1593.8	0.91
1602.99	0.91
1612.18	0.909
1621.37	0.909
1630.56	0.909
1639.75	0.909
1648.94	0.911
1658.13	0.913
1667.32	0.913
1676.51	0.913
1685.7	0.913
1694.89	0.913
1704.08	0.913
1713.27	0.91
1722.46	0.909
1731.65	0.909
1740.84	0.909
1750.03	0.909
1759.22	0.909
1768.41	0.909
1777.6	0.909
1786.79	0.909
1795.98	0.909
1805.17	0.908
1814.36	0.908
1823.55	0.908
1832.74	0.908
1841.93	0.908
1851.12	0.908
1860.31	0.905
1869.5	0.906
1878.69	0.904
1887.88	0.903
1897.07	0.899
1906.26	0.894
1915.45	0.89
1924.64	0.884
1933.83	0.88
1943.02	0.878
1952.21	0.877
1961.4	0.877
1970.59	0.877
1979.78	0.877
1988.97	0.879
1998.16	0.891
2007.35	0.895
2016.54	0.895
2025.73	0.895
2034.92	0.895
2044.11	0.895
2053.3	0.895
2062.49	0.895
2071.68	0.895
2080.87	0.895
2090.06	0.895
2099.25	0.895
2108.44	0.895
2117.63	0.895
2126.82	0.895
2136.02	0.895
2145.21	0.896
2154.4	0.896
2163.59	0.896
2172.78	0.896
2181.97	0.898
2191.16	0.9
2200.35	0.9001
2209.54	0.9
2218.73	0.9
2227.92	0.901
2237.11	0.903
2246.3	0.903
2255.49	0.9031
2264.68	0.904
2273.87	0.904
2283.06	0.904
2292.25	0.905
2301.44	0.906
2310.63	0.906
2319.82	0.906
2329.01	0.904
2338.2	0.904
2347.39	0.904
2356.58	0.904
2365.77	0.904
2374.96	0.904
2384.15	0.904
2393.34	0.904
2402.53	0.904
2411.72	0.904
2420.91	0.904
2430.1	0.904
2439.29	0.9038
2448.48	0.901
2457.67	0.901
2466.86	0.9
2476.05	0.9
2485.24	0.9
2494.43	0.9
2503.62	0.9
2512.81	0.899
2522	0.8976
2531.19	0.895
2540.38	0.8938
2549.57	0.89
2558.76	0.8858
2567.95	0.881
2577.14	0.878
2586.33	0.8766
2595.52	0.874
2604.71	0.873
2613.9	0.8715
2623.09	0.867
2632.28	0.863
2641.47	0.859
2650.66	0.8545
2659.85	0.8473
2669.04	0.8375
2678.23	0.83
2687.42	0.8137
2696.61	0.7967
2705.8	0.7875
2714.99	0.776
2724.18	0.7667
2733.37	0.7607
2742.56	0.7517
2751.75	0.7432
2760.94	0.7257
2770.13	0.7028
2779.32	0.6842
2788.51	0.6582
2797.7	0.6262
2806.89	0.5936
2816.08	0.5598
2825.27	0.517
2834.46	0.4321
2843.65	0.3109
2852.84	0.1449
2862.04	0.0954
2871.23	0.1003
2880.42	0.112
2889.61	0.1243
2898.8	0.1367
2907.99	0.166
2917.18	0.1863
2926.37	0.19
2935.56	0.2139
2944.75	0.311
2953.94	0.3546
2963.13	0.2903
2972.32	0.25
2981.51	0.344
2990.7	0.5586
2999.89	0.7658
3009.08	0.8395
3018.27	0.8743
3027.46	0.8904
3036.65	0.9018
3045.84	0.9068
3055.03	0.909
3064.22	0.913
3073.41	0.9146
3082.6	0.916
3091.79	0.918
3100.98	0.918
3110.17	0.918
3119.36	0.918
3128.55	0.918
3137.74	0.918
3146.93	0.916
3156.12	0.918
3165.31	0.918
3174.5	0.918
3183.69	0.919
3192.88	0.919
3202.07	0.9195
3211.26	0.919
3220.45	0.919
3229.64	0.919
3238.83	0.918
3248.02	0.916
3257.21	0.916
3266.4	0.914
3275.59	0.911
3284.78	0.91
3293.97	0.909
3303.16	0.9085
3312.35	0.906
3321.54	0.9045
3330.73	0.9005
3339.92	0.895
3349.11	0.8905
3358.3	0.8865
3367.49	0.8805
3376.68	0.875
3385.87	0.87
3395.06	0.865
3404.25	0.8539
3413.44	0.8459
3422.63	0.8304
3431.82	0.8215
3441.01	0.8104
3450.2	0.8014
3459.39	0.7939
3468.58	0.7904
3477.77	0.79
3486.96	0.791
3496.15	0.7926
3505.34	0.8006
3514.53	0.8066
3523.72	0.8152
3532.91	0.8302
3542.1	0.8432
3551.29	0.8486
3560.48	0.8484
3569.67	0.8434
3578.86	0.8374
3588.06	0.831
3597.25	0.842
3606.44	0.866
3615.63	0.8871
3624.82	0.8946
3634.01	0.899
3643.2	0.9036
3652.39	0.904
3661.58	0.9046
3670.77	0.904
3679.96	0.905
3689.15	0.9054
3698.34	0.906
3707.53	0.906
3716.72	0.906
3725.91	0.908
3735.1	0.908
3744.29	0.9067
3753.48	0.905
3762.67	0.9053
3771.86	0.905
3781.05	0.906
3790.24	0.906
