Infrared Spectrum: 2-PROPANOL, 2-METHYL-D
Formula: C4 H9 D O
State: SOLUTION (2% IN CCl4 FOR 3800-1333, 2% IN CS2 FOR 1333-400 CM^-^1) VS. SOLVENT
Class: COBLENTZ III
Instrument: DOW KBr FOREPRISM-GRATING
Instrument parameters: BLAZED AT 3.5, 12.0, 20.0 MICRON, CHANGED AT 5.0, 7.5, 14.9 MICRON
Sampling: TRANSMISSION
Path length: 0.011, 0.011 CM
Resolution: 4
Origin: DOW CHEMICAL COMPANY
1/CM	TRANSMITTANCE
399.013	0.911
407.719	0.91
416.425	0.911
425.13	0.911
433.836	0.9
442.542	0.878
451.248	0.855
459.953	0.854
468.659	0.87
477.365	0.891
486.071	0.895
494.777	0.9
503.482	0.904
512.188	0.908
520.894	0.911
529.6	0.915
538.306	0.923
547.011	0.93
555.717	0.934
564.423	0.94
573.129	0.944
581.834	0.946
590.54	0.952
599.246	0.957
607.952	0.959
616.658	0.961
625.363	0.967
634.069	0.971
642.775	0.97
651.481	0.971
660.186	0.974
668.892	0.976
677.598	0.98
686.304	0.979
695.01	0.979
703.715	0.978
712.421	0.976
721.127	0.975
729.833	0.97
738.539	0.957
747.244	0.844
755.95	0.96
764.656	0.965
773.362	0.965
782.067	0.964
790.773	0.96
799.479	0.961
808.185	0.956
816.891	0.949
825.596	0.948
834.302	0.945
843.008	0.933
851.714	0.921
860.419	0.897
869.125	0.863
877.831	0.725
886.537	0.829
895.243	0.813
903.948	0.642
912.654	0.289
921.36	0.518
930.066	0.684
938.772	0.666
947.477	0.669
956.183	0.752
964.889	0.831
973.595	0.863
982.3	0.887
991.006	0.899
999.712	0.897
1008.42	0.897
1017.12	0.891
1025.83	0.872
1034.54	0.865
1043.24	0.817
1051.95	0.87
1060.65	0.897
1069.36	0.904
1078.06	0.911
1086.77	0.91
1095.48	0.906
1104.18	0.906
1112.89	0.903
1121.59	0.896
1130.3	0.891
1139	0.884
1147.71	0.878
1156.42	0.87
1165.12	0.85
1173.83	0.827
1182.53	0.775
1191.24	0.662
1199.95	0.4459
1208.65	0.295
1217.36	0.617
1226.06	0.726
1234.77	0.674
1243.47	0.692
1252.18	0.756
1260.89	0.76
1269.59	0.714
1278.3	0.7831
1287	0.923
1295.71	0.942
1304.41	0.951
1313.12	0.951
1321.83	0.945
1330.53	0.938
1339.24	0.936
1347.94	0.921
1356.65	0.8289
1365.35	0.4078
1374.06	0.8171
1382.77	0.859
1391.47	0.7801
1400.18	0.929
1408.88	0.944
1417.59	0.946
1426.3	0.942
1435	0.929
1443.71	0.912
1452.41	0.87
1461.12	0.832
1469.82	0.7291
1478.53	0.907
1487.24	0.93
1495.94	0.94
1504.65	0.948
1513.35	0.953
1522.06	0.956
1530.76	0.961
1539.47	0.963
1548.18	0.964
1556.88	0.963
1565.59	0.967
1574.29	0.967
1583	0.967
1591.71	0.967
1600.41	0.97
1609.12	0.97
1617.82	0.974
1626.53	0.972
1635.23	0.971
1643.94	0.964
1652.65	0.963
1661.35	0.967
1670.06	0.972
1678.76	0.975
1687.47	0.975
1696.17	0.972
1704.88	0.974
1713.59	0.975
1722.29	0.975
1731	0.975
1739.7	0.976
1748.41	0.975
1757.12	0.974
1765.82	0.972
1774.53	0.972
1783.23	0.971
1791.94	0.967
1800.64	0.96
1809.35	0.957
1818.06	0.957
1826.76	0.955
1835.47	0.959
1844.17	0.96
1852.88	0.961
1861.58	0.959
1870.29	0.959
1879	0.959
1887.7	0.955
1896.41	0.959
1905.11	0.96
1913.82	0.959
1922.52	0.955
1931.23	0.956
1939.94	0.96
1948.64	0.955
1957.35	0.949
1966.05	0.956
1974.76	0.955
1983.47	0.949
1992.17	0.945
2000.88	0.945
2009.58	0.9455
2018.29	0.946
2026.99	0.949
2035.7	0.949
2044.41	0.949
2053.11	0.95
2061.82	0.951
2070.52	0.949
2079.23	0.9455
2087.93	0.944
2096.64	0.941
2105.35	0.939
2114.05	0.9415
2122.76	0.9445
2131.46	0.9445
2140.17	0.944
2148.88	0.944
2157.58	0.942
2166.29	0.941
2174.99	0.9415
2183.7	0.9429
2192.4	0.9429
2201.11	0.944
2209.82	0.944
2218.52	0.945
2227.23	0.9445
2235.93	0.941
2244.64	0.942
2253.34	0.942
2262.05	0.9405
2270.76	0.94
2279.46	0.94
2288.17	0.942
2296.87	0.9455
2305.58	0.9512
2314.29	0.9485
2322.99	0.948
2331.7	0.9427
2340.4	0.941
2349.11	0.9347
2357.81	0.931
2366.52	0.93
2375.23	0.927
2383.93	0.9226
2392.64	0.9198
2401.34	0.9131
2410.05	0.9057
2418.75	0.8996
2427.46	0.891
2436.17	0.8747
2444.87	0.8542
2453.58	0.8354
2462.28	0.8143
2470.99	0.7979
2479.7	0.7842
2488.4	0.7854
2497.11	0.7934
2505.81	0.8023
2514.52	0.821
2523.22	0.8348
2531.93	0.8434
2540.64	0.85
2549.34	0.8518
2558.05	0.853
2566.75	0.851
2575.46	0.8558
2584.16	0.8666
2592.87	0.8834
2601.58	0.9056
2610.28	0.9226
2618.99	0.9318
2627.69	0.9336
2636.4	0.934
2645.1	0.9262
2653.81	0.8912
2662.52	0.7777
2671.22	0.8308
2679.93	0.9396
2688.63	0.9484
2697.34	0.9472
2706.05	0.946
2714.75	0.949
2723.46	0.9524
2732.16	0.955
2740.87	0.956
2749.57	0.957
2758.28	0.957
2766.99	0.9578
2775.69	0.9583
2784.4	0.956
2793.1	0.9503
2801.81	0.9413
2810.51	0.934
2819.22	0.9336
2827.93	0.927
2836.63	0.9256
2845.34	0.9039
2854.04	0.8731
2862.75	0.7732
2871.46	0.7686
2880.16	0.8204
2888.87	0.8059
2897.57	0.738
2906.28	0.7644
2914.98	0.7528
2923.69	0.6682
2932.4	0.6501
2941.1	0.6774
2949.81	0.6586
2958.51	0.485
2967.22	0.3071
2975.92	0.2127
2984.63	0.4068
2993.34	0.7493
3002.04	0.8647
3010.75	0.9217
3019.45	0.9413
3028.16	0.953
3036.87	0.956
3045.57	0.9617
3054.28	0.965
3062.98	0.9673
3071.69	0.968
3080.39	0.965
3089.1	0.965
3097.81	0.9664
3106.51	0.967
3115.22	0.965
3123.92	0.965
3132.63	0.964
3141.33	0.964
3150.04	0.963
3158.75	0.963
3167.45	0.961
3176.16	0.961
3184.86	0.9633
3193.57	0.9643
3202.28	0.9656
3210.98	0.968
3219.69	0.9661
3228.39	0.963
3237.1	0.964
3245.8	0.9656
3254.51	0.9673
3263.22	0.968
3271.92	0.968
3280.63	0.97
3289.33	0.971
3298.04	0.965
3306.74	0.963
3315.45	0.964
3324.16	0.965
3332.86	0.967
3341.57	0.97
3350.27	0.97
3358.98	0.971
3367.68	0.972
3376.39	0.972
3385.1	0.974
3393.8	0.972
3402.51	0.9725
3411.21	0.976
3419.92	0.9753
3428.63	0.976
3437.33	0.978
3446.04	0.979
3454.74	0.98
3463.45	0.9805
3472.15	0.9853
3480.86	0.9857
3489.57	0.983
3498.27	0.983
3506.98	0.986
3515.68	0.987
3524.39	0.987
3533.09	0.987
3541.8	0.989
3550.51	0.9898
3559.21	0.989
3567.92	0.989
3576.62	0.99
3585.33	0.9814
3594.04	0.9892
3602.74	0.9898
3611.45	0.976
3620.15	0.9805
3628.86	0.989
3637.56	0.99
3646.27	0.991
3654.98	0.993
3663.68	0.9942
3672.39	0.9965
3681.09	0.993
3689.8	0.9954
3698.5	1
3707.21	0.994
3715.92	0.9932
3724.62	0.9954
3733.33	1
3742.03	0.9996
3750.74	0.9966
3759.45	0.994
3768.15	0.9938
3776.86	0.993
3785.56	0.993
3794.27	0.993
