Infrared Spectrum: BENZOIC ACID, SODIUM SALT
Formula: C7 H5 Na O2
State: SOLID (SPLIT MULL, FLUOROLUBE FOR 3800-1330 AND NUJOL FOR 1330-460 CM ^-^1)
Class: COBLENTZ III
Instrument: DOW KBr FOREPRISM-GRATING
Instrument parameters: BLAZED AT 3.5, 12.0, 20.0 MICRON, CHANGED AT 5.0, 7.5, 14.9 MICRON
Sampling: TRANSMISSION
Resolution: 4
Origin: DOW CHEMICAL COMPANY
1/CM	TRANSMITTANCE
455.581	0.931
464.123	0.939
472.665	0.943
481.208	0.945
489.75	0.945
498.292	0.943
506.834	0.93
515.376	0.918
523.918	0.903
532.461	0.914
541.003	0.95
549.545	0.954
558.087	0.965
566.629	0.969
575.171	0.974
583.714	0.975
592.256	0.979
600.798	0.983
609.34	0.985
617.882	0.985
626.424	0.987
634.967	0.991
643.509	0.991
652.051	0.986
660.593	0.981
669.135	0.977
677.677	0.899
686.22	0.6281
694.762	0.947
703.304	0.847
711.846	0.386
720.388	0.816
728.93	0.95
737.473	0.966
746.015	0.981
754.557	0.985
763.099	0.986
771.641	0.99
780.183	0.991
788.726	0.994
797.268	0.995
805.81	1.001
814.352	0.994
822.894	0.971
831.436	0.983
839.979	0.946
848.521	0.82
857.063	0.975
865.605	0.986
874.147	0.987
882.689	0.986
891.232	0.982
899.774	0.983
908.316	0.981
916.858	0.963
925.4	0.97
933.942	0.978
942.485	0.982
951.027	0.979
959.569	0.979
968.111	0.974
976.653	0.978
985.195	0.983
993.738	0.986
1002.28	0.985
1010.82	0.983
1019.36	0.981
1027.91	0.921
1036.45	0.981
1044.99	0.985
1053.53	0.977
1062.07	0.935
1070.62	0.8231
1079.16	0.971
1087.7	0.981
1096.24	0.978
1104.79	0.977
1113.33	0.983
1121.87	0.989
1130.41	0.983
1138.95	0.978
1147.5	0.977
1156.04	0.978
1164.58	0.982
1173.12	0.979
1181.67	0.974
1190.21	0.986
1198.75	0.986
1207.29	0.986
1215.83	0.985
1224.38	0.983
1232.92	0.977
1241.46	0.965
1250	0.955
1258.54	0.949
1267.09	0.941
1275.63	0.941
1284.17	0.942
1292.71	0.933
1301.26	0.91
1309.8	0.866
1318.34	0.927
1326.88	0.93
1335.42	0.929
1343.97	0.915
1352.51	0.914
1361.05	0.913
1369.59	0.907
1378.14	0.901
1386.68	0.852
1395.22	0.705
1403.76	0.5679
1412.3	0.328
1420.85	0.27
1429.39	0.4331
1437.93	0.7401
1446.47	0.8591
1455.01	0.945
1463.56	0.961
1472.1	0.967
1480.64	0.966
1489.18	0.957
1497.73	0.954
1506.27	0.938
1514.81	0.902
1523.35	0.831
1531.89	0.768
1540.44	0.5599
1548.98	0.1669
1557.52	0.078
1566.06	0.3581
1574.6	0.7391
1583.15	0.911
1591.69	0.6507
1600.23	0.3342
1608.77	0.7561
1617.32	0.898
1625.86	0.8711
1634.4	0.955
1642.94	0.967
1651.48	0.979
1660.03	0.977
1668.57	0.978
1677.11	0.979
1685.65	0.991
1694.2	0.99
1702.74	0.993
1711.28	0.994
1719.82	0.998
1728.36	0.998
1736.91	1.001
1745.45	0.998
1753.99	0.994
1762.53	0.991
1771.07	0.994
1779.62	0.99
1788.16	0.99
1796.7	0.989
1805.24	0.989
1813.79	0.989
1822.33	0.991
1830.87	0.994
1839.41	0.994
1847.95	0.995
1856.5	0.995
1865.04	0.997
1873.58	0.997
1882.12	0.994
1890.67	0.99
1899.21	0.986
1907.75	0.99
1916.29	0.993
1924.83	0.993
1933.38	0.993
1941.92	0.987
1950.46	0.983
1959	0.99
1967.54	0.993
1976.09	0.993
1984.63	0.994
1993.17	0.998
2001.71	0.993
2010.26	0.994
2018.8	0.994
2027.34	0.994
2035.88	0.994
2044.42	0.994
2052.97	0.9949
2061.51	0.9929
2070.05	0.993
2078.59	0.9912
2087.13	0.9939
2095.68	0.993
2104.22	0.991
2112.76	0.991
2121.3	0.991
2129.85	0.991
2138.39	0.991
2146.93	0.991
2155.47	0.991
2164.01	0.99
2172.56	0.99
2181.1	0.99
2189.64	0.9898
2198.18	0.987
2206.73	0.987
2215.27	0.989
2223.81	0.987
2232.35	0.9857
2240.89	0.9827
2249.44	0.981
2257.98	0.981
2266.52	0.981
2275.06	0.981
2283.6	0.979
2292.15	0.979
2300.69	0.9783
2309.23	0.981
2317.77	0.983
2326.32	0.9864
2334.86	0.987
2343.4	0.9856
2351.94	0.9841
2360.48	0.99
2369.03	0.991
2377.57	0.986
2386.11	0.9826
2394.65	0.979
2403.2	0.979
2411.74	0.9815
2420.28	0.982
2428.82	0.983
2437.36	0.98
2445.91	0.981
2454.45	0.984
2462.99	0.985
2471.53	0.983
2480.07	0.985
2488.62	0.985
2497.16	0.986
2505.7	0.987
2514.24	0.9854
2522.79	0.9839
2531.33	0.982
2539.87	0.983
2548.41	0.983
2556.95	0.986
2565.5	0.987
2574.04	0.9877
2582.58	0.987
2591.12	0.987
2599.67	0.986
2608.21	0.986
2616.75	0.987
2625.29	0.987
2633.83	0.989
2642.38	0.989
2650.92	0.989
2659.46	0.987
2668	0.986
2676.54	0.985
2685.09	0.983
2693.63	0.985
2702.17	0.985
2710.71	0.985
2719.26	0.986
2727.8	0.985
2736.34	0.9822
2744.88	0.9818
2753.42	0.9828
2761.97	0.985
2770.51	0.983
2779.05	0.985
2787.59	0.9833
2796.13	0.982
2804.68	0.983
2813.22	0.983
2821.76	0.985
2830.3	0.983
2838.85	0.983
2847.39	0.985
2855.93	0.985
2864.47	0.9831
2873.01	0.983
2881.56	0.982
2890.1	0.981
2898.64	0.979
2907.18	0.981
2915.73	0.982
2924.27	0.981
2932.81	0.973
2941.35	0.971
2949.89	0.971
2958.44	0.9711
2966.98	0.97
2975.52	0.969
2984.06	0.967
2992.6	0.963
3001.15	0.962
3009.69	0.9619
3018.23	0.9568
3026.77	0.9185
3035.32	0.9275
3043.86	0.9446
3052.4	0.9264
3060.94	0.9132
3069.48	0.912
3078.03	0.8967
3086.57	0.9348
3095.11	0.9228
3103.65	0.9558
3112.2	0.965
3120.74	0.969
3129.28	0.97
3137.82	0.971
3146.36	0.971
3154.91	0.971
3163.45	0.9724
3171.99	0.971
3180.53	0.97
3189.07	0.969
3197.62	0.97
3206.16	0.969
3214.7	0.969
3223.24	0.969
3231.79	0.969
3240.33	0.967
3248.87	0.969
3257.41	0.967
3265.95	0.967
3274.5	0.967
3283.04	0.967
3291.58	0.9666
3300.12	0.967
3308.66	0.967
3317.21	0.9664
3325.75	0.966
3334.29	0.9641
3342.83	0.963
3351.38	0.9625
3359.92	0.963
3368.46	0.9625
3377	0.963
3385.54	0.963
3394.09	0.9625
3402.63	0.9599
3411.17	0.959
3419.71	0.959
3428.26	0.958
3436.8	0.958
3445.34	0.958
3453.88	0.957
3462.42	0.957
3470.97	0.958
3479.51	0.958
3488.05	0.959
3496.59	0.959
3505.13	0.959
3513.68	0.959
3522.22	0.961
3530.76	0.961
3539.3	0.962
3547.85	0.962
3556.39	0.9627
3564.93	0.965
3573.47	0.963
3582.01	0.9645
3590.56	0.9635
3599.1	0.962
3607.64	0.963
3616.18	0.962
3624.73	0.9622
3633.27	0.9618
3641.81	0.9658
3650.35	0.9634
3658.89	0.9658
3667.44	0.974
3675.98	0.9698
3684.52	0.9675
3693.06	0.9647
3701.6	0.9709
3710.15	0.9727
3718.69	0.9728
3727.23	0.978
3735.77	0.9808
3744.32	0.9743
3752.86	0.973
3761.4	0.971
3769.94	0.97
3778.48	0.9699
3787.03	0.971
