Infrared Spectrum: 1,2-CYCLOHEXANEDIAMINE DIHYDROCHLORIDE, CIS
Formula: C6 H16 Cl2 N2
State: SOLID (SPLIT MULL, FLUOROLUBE FOR 3800-1330 AND NUJOL FOR 1330-400 CM ^-^1)
Class: COBLENTZ III
Instrument: BECKMAN IR-9 (GRATING)
Instrument parameters: ORDER CHANGES AT 670, 1200, 2000 CM^-^1
Sampling: TRANSMISSION
Resolution: 4
Origin: DOW CHEMICAL COMPANY
1/CM	TRANSMITTANCE
402.688	0.659
411.455	0.658
420.222	0.708
428.988	0.767
437.755	0.805
446.522	0.629
455.289	0.826
464.056	0.891
472.822	0.845
481.589	0.846
490.356	0.969
499.123	0.96
507.89	1.005
516.656	0.896
525.423	1.012
534.19	1.025
542.957	1.035
551.724	1.036
560.49	1.002
569.257	1.031
578.024	1.039
586.791	1.043
595.558	1.041
604.324	1.039
613.091	1.027
621.858	1.024
630.625	1.013
639.392	1.008
648.158	1.004
656.925	0.995
665.692	0.987
674.459	0.978
683.226	0.98
691.992	0.976
700.759	0.963
709.526	0.937
718.293	0.868
727.06	0.781
735.826	0.651
744.593	0.767
753.36	0.893
762.127	0.904
770.894	0.902
779.66	0.898
788.427	0.853
797.194	0.752
805.961	0.931
814.728	0.939
823.494	0.938
832.261	0.928
841.028	0.915
849.795	0.887
858.562	0.744
867.328	0.906
876.095	0.911
884.862	0.87
893.629	0.878
902.396	0.89
911.162	0.874
919.929	0.83
928.696	0.638
937.463	0.347
946.23	0.25
954.996	0.796
963.763	0.852
972.53	0.846
981.297	0.833
990.064	0.641
998.83	0.683
1007.6	0.798
1016.36	0.767
1025.13	0.566
1033.9	0.481
1042.66	0.603
1051.43	0.677
1060.2	0.827
1068.96	0.819
1077.73	0.623
1086.5	0.763
1095.27	0.782
1104.03	0.647
1112.8	0.746
1121.57	0.693
1130.33	0.499
1139.1	0.128
1147.87	0.597
1156.63	0.744
1165.4	0.761
1174.17	0.73
1182.93	0.716
1191.7	0.685
1200.47	0.72
1209.23	0.683
1218	0.705
1226.77	0.742
1235.53	0.696
1244.3	0.441
1253.07	0.662
1261.83	0.714
1270.6	0.733
1279.37	0.694
1288.13	0.704
1296.9	0.69
1305.67	0.647
1314.44	0.562
1323.2	0.648
1331.97	0.469
1340.74	0.519
1349.5	0.533
1358.27	0.526
1367.04	0.522
1375.8	0.512
1384.57	0.497
1393.34	0.322
1402.1	0.373
1410.87	0.59
1419.64	0.58
1428.4	0.551
1437.17	0.5
1445.94	0.478
1454.7	0.398
1463.47	0.318
1472.24	0.212
1481	0.139
1489.77	0.384
1498.54	0.284
1507.3	0.088
1516.07	0.362
1524.84	0.578
1533.61	0.459
1542.37	0.554
1551.14	0.493
1559.91	0.328
1568.67	0.2851
1577.44	0.715
1586.21	0.64
1594.97	0.445
1603.74	0.34
1612.51	0.316
1621.27	0.532
1630.04	0.883
1638.81	0.943
1647.57	0.943
1656.34	0.923
1665.11	0.913
1673.87	0.898
1682.64	0.871
1691.41	0.854
1700.17	0.835
1708.94	0.815
1717.71	0.807
1726.47	0.803
1735.24	0.794
1744.01	0.785
1752.78	0.781
1761.54	0.77
1770.31	0.76
1779.08	0.745
1787.84	0.73
1796.61	0.722
1805.38	0.711
1814.14	0.701
1822.91	0.693
1831.68	0.678
1840.44	0.662
1849.21	0.647
1857.98	0.632
1866.74	0.611
1875.51	0.596
1884.28	0.588
1893.04	0.582
1901.81	0.575
1910.58	0.574
1919.34	0.563
1928.11	0.548
1936.88	0.541
1945.64	0.54
1954.41	0.537
1963.18	0.53
1971.95	0.525
1980.71	0.525
1989.48	0.515
1998.25	0.5
2007.01	0.492
2015.78	0.489
2024.55	0.466
2033.31	0.4259
2042.08	0.387
2050.85	0.4093
2059.61	0.4993
2068.38	0.517
2077.15	0.515
2085.91	0.508
2094.68	0.514
2103.45	0.518
2112.21	0.5169
2120.98	0.5108
2129.75	0.5029
2138.51	0.5
2147.28	0.4969
2156.05	0.4889
2164.82	0.4779
2173.58	0.4699
2182.35	0.459
2191.12	0.4479
2199.88	0.4397
2208.65	0.4318
2217.42	0.4238
2226.18	0.4099
2234.95	0.3908
2243.72	0.38
2252.48	0.3699
2261.25	0.3629
2270.02	0.3477
2278.78	0.3359
2287.55	0.3289
2296.32	0.32
2305.08	0.3127
2313.85	0.3058
2322.62	0.3017
2331.38	0.2977
2340.15	0.294
2348.92	0.291
2357.68	0.2896
2366.45	0.284
2375.22	0.283
2383.99	0.2684
2392.75	0.2472
2401.52	0.2312
2410.29	0.213
2419.05	0.1984
2427.82	0.191
2436.59	0.192
2445.35	0.1863
2454.12	0.1746
2462.89	0.1688
2471.65	0.165
2480.42	0.1595
2489.19	0.1508
2497.95	0.1308
2506.72	0.114
2515.49	0.112
2524.25	0.1002
2533.02	0.0867
2541.79	0.0845
2550.55	0.088
2559.32	0.087
2568.09	0.0888
2576.85	0.097
2585.62	0.086
2594.39	0.0814
2603.16	0.069
2611.92	0.071
2620.69	0.069
2629.46	0.069
2638.22	0.069
2646.99	0.0647
2655.76	0.062
2664.52	0.0633
2673.29	0.0617
2682.06	0.0587
2690.82	0.0507
2699.59	0.047
2708.36	0.0466
2717.12	0.0403
2725.89	0.036
2734.66	0.034
2743.42	0.034
2752.19	0.0333
2760.96	0.032
2769.72	0.031
2778.49	0.03
2787.26	0.0288
2796.02	0.027
2804.79	0.025
2813.56	0.024
2822.33	0.0236
2831.09	0.021
2839.86	0.0196
2848.63	0.017
2857.39	0.017
2866.16	0.0181
2874.93	0.017
2883.69	0.019
2892.46	0.019
2901.23	0.019
2909.99	0.02
2918.76	0.021
2927.53	0.021
2936.29	0.021
2945.06	0.024
2953.83	0.0294
2962.59	0.031
2971.36	0.031
2980.13	0.032
2988.89	0.032
2997.66	0.037
3006.43	0.041
3015.19	0.042
3023.96	0.0505
3032.73	0.0581
3041.5	0.0666
3050.26	0.0765
3059.03	0.079
3067.8	0.0811
3076.56	0.0865
3085.33	0.0941
3094.1	0.1116
3102.86	0.1644
3111.63	0.2027
3120.4	0.2386
3129.16	0.2629
3137.93	0.3034
3146.7	0.3704
3155.46	0.44
3164.23	0.4983
3173	0.5314
3181.76	0.5612
3190.53	0.5776
3199.3	0.6046
3208.06	0.6168
3216.83	0.6574
3225.6	0.668
3234.36	0.6514
3243.13	0.7236
3251.9	0.7677
3260.67	0.7843
3269.43	0.793
3278.2	0.7871
3286.97	0.778
3295.73	0.7647
3304.5	0.7471
3313.27	0.7263
3322.03	0.706
3330.8	0.6873
3339.57	0.6697
3348.33	0.6486
3357.1	0.6333
3365.87	0.6083
3374.63	0.5893
3383.4	0.5733
3392.17	0.5545
3400.93	0.5436
3409.7	0.5326
3418.47	0.5173
3427.23	0.5063
3436	0.4976
3444.77	0.4873
3453.53	0.481
3462.3	0.4738
3471.07	0.4675
3479.84	0.4565
3488.6	0.447
3497.37	0.44
3506.14	0.4322
3514.9	0.428
3523.67	0.424
3532.44	0.4155
3541.2	0.4092
3549.97	0.404
3558.74	0.398
3567.5	0.393
3576.27	0.3872
3585.04	0.3784
3593.8	0.372
3602.57	0.369
3611.34	0.363
3620.1	0.3594
3628.87	0.3542
3637.64	0.351
3646.4	0.3435
3655.17	0.339
3663.94	0.3322
3672.7	0.3282
3681.47	0.3223
3690.24	0.32
3699.01	0.314
3707.77	0.3091
3716.54	0.305
3725.31	0.298
3734.07	0.294
3742.84	0.291
3751.61	0.288
3760.37	0.2832
3769.14	0.2791
3777.91	0.273
3786.67	0.2691
3795.44	0.2651
