Infrared Spectrum: CYCLOPENTANECARBOXYLIC ACID, 3-CARBAMOYL-, CIS , BENZYL ESTER
Formula: C14 H17 N O3
State: SOLID (0.8 mg / 400 mg KBr DISC)
Class: COBLENTZ III
Instrument: PERKIN-ELMER 221 (GRATING)
Instrument parameters: GRATING FOR 4000-1428, FILTERS AT 2490, 980, NaCl PRISM FOR 1428-650 CM^-^1
Sampling: TRANSMISSION
Resolution: 4
Origin: SOUTHERN RESEARCH INSTITUTE
1/CM	TRANSMITTANCE
613.183	0.619
622.291	0.6141
631.399	0.6027
640.506	0.589
649.614	0.5926
658.722	0.6
667.83	0.6005
676.938	0.6084
686.045	0.5777
695.153	0.3051
704.261	0.6016
713.369	0.627
722.476	0.5876
731.584	0.4088
740.692	0.3555
749.8	0.5263
758.908	0.6346
768.015	0.719
777.123	0.7664
786.231	0.7835
795.339	0.7892
804.447	0.8052
813.554	0.807
822.662	0.7982
831.77	0.7762
840.878	0.778
849.986	0.7959
859.093	0.833
868.201	0.8266
877.309	0.7948
886.417	0.8134
895.525	0.8307
904.632	0.7547
913.74	0.846
922.848	0.8296
931.956	0.7887
941.063	0.737
950.171	0.742
959.279	0.7461
968.387	0.764
977.495	0.7586
986.602	0.7432
995.71	0.6679
1004.82	0.6008
1013.93	0.6978
1023.03	0.7425
1032.14	0.6994
1041.25	0.79
1050.36	0.7789
1059.46	0.7418
1068.57	0.703
1077.68	0.6145
1086.79	0.6308
1095.9	0.7002
1105	0.732
1114.11	0.725
1123.22	0.6866
1132.33	0.6107
1141.43	0.503
1150.54	0.4005
1159.65	0.3232
1168.76	0.243
1177.87	0.215
1186.97	0.2418
1196.08	0.297
1205.19	0.331
1214.3	0.3439
1223.41	0.4275
1232.51	0.5591
1241.62	0.6
1250.73	0.5624
1259.84	0.5833
1268.94	0.539
1278.05	0.5572
1287.16	0.573
1296.27	0.5665
1305.38	0.5399
1314.48	0.5033
1323.59	0.4096
1332.7	0.5604
1341.81	0.6056
1350.91	0.4398
1360.02	0.5395
1369.13	0.605
1378.24	0.5322
1387.35	0.5445
1396.45	0.6012
1405.56	0.5889
1414.67	0.5474
1423.78	0.4211
1432.88	0.3322
1441.99	0.3367
1451.1	0.3671
1460.21	0.4375
1469.32	0.5972
1478.42	0.6957
1487.53	0.706
1496.64	0.6469
1505.75	0.6995
1514.85	0.746
1523.96	0.743
1533.07	0.7412
1542.18	0.7293
1551.29	0.7218
1560.39	0.6829
1569.5	0.6653
1578.61	0.6293
1587.72	0.576
1596.82	0.5108
1605.93	0.3775
1615.04	0.2354
1624.15	0.174
1633.26	0.1162
1642.36	0.1231
1651.47	0.1849
1660.58	0.2593
1669.69	0.3263
1678.79	0.425
1687.9	0.5117
1697.01	0.5821
1706.12	0.5999
1715.23	0.48
1724.33	0.0698
1733.44	0.0802
1742.55	0.2854
1751.66	0.5271
1760.76	0.6322
1769.87	0.701
1778.98	0.7293
1788.09	0.7565
1797.2	0.7745
1806.3	0.7902
1815.41	0.8
1824.52	0.827
1833.63	0.8398
1842.73	0.8517
1851.84	0.8556
1860.95	0.857
1870.06	0.851
1879.17	0.8607
1888.27	0.8652
1897.38	0.874
1906.49	0.875
1915.6	0.875
1924.7	0.8752
1933.81	0.871
1942.92	0.8666
1952.03	0.865
1961.14	0.866
1970.24	0.8734
1979.35	0.883
1988.46	0.8845
1997.57	0.886
2006.68	0.886
2015.78	0.888
2024.89	0.888
2034	0.888
2043.11	0.888
2052.21	0.888
2061.32	0.888
2070.43	0.887
2079.54	0.887
2088.65	0.886
2097.75	0.884
2106.86	0.884
2115.97	0.884
2125.08	0.884
2134.18	0.886
2143.29	0.887
2152.4	0.8883
2161.51	0.891
2170.62	0.89
2179.72	0.89
2188.83	0.89
2197.94	0.89
2207.05	0.89
2216.15	0.888
2225.26	0.888
2234.37	0.888
2243.48	0.886
2252.59	0.883
2261.69	0.8817
2270.8	0.878
2279.91	0.878
2289.02	0.877
2298.12	0.875
2307.23	0.875
2316.34	0.875
2325.45	0.875
2334.56	0.875
2343.66	0.875
2352.77	0.874
2361.88	0.8741
2370.99	0.877
2380.09	0.878
2389.2	0.878
2398.31	0.877
2407.42	0.875
2416.53	0.874
2425.63	0.874
2434.74	0.875
2443.85	0.875
2452.96	0.877
2462.06	0.879
2471.17	0.882
2480.28	0.8831
2489.39	0.8857
2498.5	0.877
2507.6	0.877
2516.71	0.877
2525.82	0.8767
2534.93	0.8749
2544.03	0.873
2553.14	0.871
2562.25	0.87
2571.36	0.869
2580.47	0.868
2589.57	0.866
2598.68	0.866
2607.79	0.866
2616.9	0.866
2626	0.866
2635.11	0.865
2644.22	0.8619
2653.33	0.861
2662.44	0.8579
2671.54	0.853
2680.65	0.8529
2689.76	0.847
2698.87	0.843
2707.98	0.838
2717.08	0.835
2726.19	0.829
2735.3	0.8249
2744.41	0.82
2753.51	0.8169
2762.62	0.816
2771.73	0.813
2780.84	0.8037
2789.95	0.7847
2799.05	0.78
2808.16	0.7811
2817.27	0.7891
2826.38	0.791
2835.48	0.7899
2844.59	0.7779
2853.7	0.7517
2862.81	0.7033
2871.92	0.6631
2881.02	0.6981
2890.13	0.703
2899.24	0.6946
2908.35	0.68
2917.45	0.6521
2926.56	0.616
2935.67	0.5557
2944.78	0.548
2953.89	0.547
2962.99	0.5439
2972.1	0.5441
2981.21	0.5905
2990.32	0.7022
2999.42	0.734
3008.53	0.7297
3017.64	0.7037
3026.75	0.6254
3035.86	0.6711
3044.96	0.6727
3054.07	0.6383
3063.18	0.5944
3072.29	0.6329
3081.39	0.6093
3090.5	0.5739
3099.61	0.5441
3108.72	0.4938
3117.83	0.4441
3126.93	0.4087
3136.04	0.3562
3145.15	0.3195
3154.26	0.3091
3163.36	0.311
3172.47	0.3181
3181.58	0.3271
3190.69	0.3455
3199.8	0.3671
3208.9	0.3811
3218.01	0.4
3227.12	0.424
3236.23	0.4239
3245.33	0.42
3254.44	0.406
3263.55	0.4006
3272.66	0.366
3281.77	0.3446
3290.87	0.3355
3299.98	0.3054
3309.09	0.2712
3318.2	0.2479
3327.3	0.2247
3336.41	0.2221
3345.52	0.2311
3354.63	0.2504
3363.74	0.2858
3372.84	0.3229
3381.95	0.3848
3391.06	0.4511
3400.17	0.5095
3409.27	0.5479
3418.38	0.6019
3427.49	0.63
3436.6	0.641
3445.71	0.6689
3454.81	0.7071
3463.92	0.7271
3473.03	0.7411
3482.14	0.7583
3491.25	0.7694
3500.35	0.7811
3509.46	0.787
3518.57	0.7934
3527.68	0.8041
3536.78	0.8151
3545.89	0.822
3555	0.8261
3564.11	0.8341
3573.22	0.843
3582.32	0.849
3591.43	0.8561
3600.54	0.8623
3609.65	0.87
3618.75	0.8753
3627.86	0.88
3636.97	0.883
3646.08	0.886
3655.19	0.887
3664.29	0.892
3673.4	0.895
3682.51	0.893
3691.62	0.8961
3700.72	0.899
3709.83	0.899
3718.94	0.899
3728.05	0.9
3737.16	0.9
3746.26	0.902
3755.37	0.902
3764.48	0.904
3773.59	0.904
3782.69	0.904
3791.8	0.9
3800.91	0.9
3810.02	0.8959
