Infrared Spectrum: CHOLINE, CYTIDINE 5'-PYROPHOSPHATE, MONOSODIUM SALT
Formula: C14 H25 N4 O11 P2 Na
State: SOLID (KBr DISC)
Class: COBLENTZ III
Instrument: CARY 90 (GRATING)
Instrument parameters: GRATING CHANGES AT 3000, 2000, 1200 CM^-^1
Sampling: TRANSMISSION
Resolution: 4
Origin: WESTERN REGIONAL RES. USDA
1/CM	TRANSMITTANCE
455.36	0.317
464.435	0.365
473.511	0.401
482.586	0.364
491.662	0.387
500.737	0.313
509.813	0.181
518.888	0.24
527.964	0.303
537.039	0.349
546.114	0.404
555.19	0.454
564.265	0.455
573.341	0.378
582.416	0.455
591.492	0.51
600.567	0.343
609.643	0.502
618.718	0.531
627.794	0.51
636.869	0.461
645.944	0.446
655.02	0.494
664.095	0.501
673.171	0.517
682.246	0.558
691.322	0.579
700.397	0.567
709.473	0.483
718.548	0.481
727.623	0.474
736.699	0.501
745.774	0.531
754.85	0.438
763.925	0.319
773.001	0.332
782.076	0.294
791.152	0.465
800.227	0.562
809.303	0.562
818.378	0.527
827.453	0.583
836.529	0.59
845.604	0.547
854.68	0.658
863.755	0.463
872.831	0.553
881.906	0.406
890.982	0.593
900.057	0.431
909.132	0.303
918.208	0.319
927.283	0.248
936.359	0.099
945.434	0.101
954.51	0.177
963.585	0.306
972.661	0.302
981.736	0.359
990.812	0.498
999.887	0.58
1008.96	0.462
1018.04	0.384
1027.11	0.189
1036.19	0.251
1045.26	0.149
1054.34	0.249
1063.42	0.355
1072.49	0.181
1081.57	0.197
1090.64	0.224
1099.72	0.312
1108.79	0.224
1117.87	0.118
1126.94	0.257
1136.02	0.266
1145.09	0.346
1154.17	0.593
1163.25	0.676
1172.32	0.678
1181.4	0.625
1190.47	0.475
1199.55	0.11
1208.62	0.11
1217.7	0.206
1226.77	0.331
1235.85	0.404
1244.92	0.434
1254	0.325
1263.07	0.262
1272.15	0.205
1281.23	0.139
1290.3	0.217
1299.38	0.403
1308.45	0.613
1317.53	0.71
1326.6	0.726
1335.68	0.718
1344.75	0.692
1353.83	0.692
1362.9	0.728
1371.98	0.596
1381.06	0.459
1390.13	0.563
1399.21	0.621
1408.28	0.527
1417.36	0.627
1426.43	0.649
1435.51	0.649
1444.58	0.591
1453.66	0.478
1462.73	0.339
1471.81	0.229
1480.89	0.166
1489.96	0.165
1499.04	0.252
1508.11	0.406
1517.19	0.449
1526.26	0.42
1535.34	0.518
1544.41	0.702
1553.49	0.739
1562.56	0.702
1571.64	0.62
1580.72	0.603
1589.79	0.496
1598.87	0.299
1607.94	0.135
1617.02	0.112
1626.09	0.155
1635.17	0.155
1644.24	0.147
1653.32	0.087
1662.39	0.127
1671.47	0.319
1680.55	0.502
1689.62	0.614
1698.7	0.718
1707.77	0.798
1716.85	0.828
1725.92	0.853
1735	0.877
1744.07	0.897
1753.15	0.91
1762.22	0.924
1771.3	0.932
1780.38	0.94
1789.45	0.948
1798.53	0.956
1807.6	0.96
1816.68	0.965
1825.75	0.968
1834.83	0.971
1843.9	0.974
1852.98	0.976
1862.05	0.978
1871.13	0.98
1880.21	0.98
1889.28	0.981
1898.36	0.978
1907.43	0.977
1916.51	0.977
1925.58	0.977
1934.66	0.977
1943.73	0.977
1952.81	0.977
1961.88	0.977
1970.96	0.975
1980.04	0.972
1989.11	0.968
1998.19	0.965
2007.26	0.962
2016.34	0.961
2025.41	0.96
2034.49	0.96
2043.56	0.959
2052.64	0.958
2061.71	0.957
2070.79	0.957
2079.87	0.956
2088.94	0.956
2098.02	0.956
2107.09	0.957
2116.17	0.957
2125.24	0.957
2134.32	0.957
2143.39	0.958
2152.47	0.958
2161.54	0.959
2170.62	0.959
2179.7	0.96
2188.77	0.96
2197.85	0.96
2206.92	0.96
2216	0.96
2225.07	0.96
2234.15	0.959
2243.22	0.9589
2252.3	0.958
2261.37	0.957
2270.45	0.956
2279.53	0.954
2288.6	0.9529
2297.68	0.952
2306.75	0.951
2315.83	0.95
2324.9	0.949
2333.98	0.948
2343.05	0.948
2352.13	0.948
2361.2	0.948
2370.28	0.948
2379.36	0.948
2388.43	0.948
2397.51	0.948
2406.58	0.948
2415.66	0.948
2424.73	0.947
2433.81	0.947
2442.88	0.945
2451.96	0.945
2461.03	0.943
2470.11	0.942
2479.19	0.9408
2488.26	0.9385
2497.34	0.9358
2506.41	0.934
2515.49	0.932
2524.56	0.9295
2533.64	0.9247
2542.71	0.9205
2551.79	0.9157
2560.86	0.9115
2569.94	0.907
2579.02	0.9037
2588.09	0.9007
2597.17	0.899
2606.24	0.9
2615.32	0.9016
2624.39	0.901
2633.47	0.8977
2642.54	0.8934
2651.62	0.8877
2660.69	0.8817
2669.77	0.8747
2678.85	0.8693
2687.92	0.8543
2697	0.8447
2706.07	0.839
2715.15	0.8357
2724.22	0.8313
2733.3	0.8266
2742.37	0.8206
2751.45	0.8156
2760.52	0.8106
2769.6	0.8026
2778.68	0.7946
2787.75	0.7906
2796.83	0.7856
2805.9	0.7816
2814.98	0.7756
2824.05	0.7676
2833.13	0.7604
2842.2	0.7438
2851.28	0.7206
2860.35	0.7044
2869.43	0.6759
2878.5	0.6341
2887.58	0.5933
2896.66	0.5854
2905.73	0.6002
2914.81	0.6124
2923.88	0.6115
2932.96	0.5871
2942.03	0.5924
2951.11	0.599
2960.18	0.5979
2969.26	0.611
2978.33	0.61
2987.41	0.606
2996.49	0.612
3005.56	0.606
3014.64	0.5785
3023.71	0.55
3032.79	0.5265
3041.86	0.5055
3050.94	0.4825
3060.01	0.4644
3069.09	0.4454
3078.16	0.4223
3087.24	0.3963
3096.32	0.3769
3105.39	0.335
3114.47	0.3125
3123.54	0.307
3132.62	0.3019
3141.69	0.2869
3150.77	0.2719
3159.84	0.2599
3168.92	0.2499
3177.99	0.2444
3187.07	0.2486
3196.15	0.2568
3205.22	0.2768
3214.3	0.294
3223.37	0.318
3232.45	0.337
3241.52	0.3614
3250.6	0.3736
3259.67	0.3786
3268.75	0.3856
3277.82	0.3912
3286.9	0.397
3295.98	0.3977
3305.05	0.3884
3314.13	0.3727
3323.2	0.3584
3332.28	0.3527
3341.35	0.342
3350.43	0.3227
3359.5	0.299
3368.58	0.266
3377.65	0.2423
3386.73	0.2256
3395.81	0.22
3404.88	0.2301
3413.96	0.2472
3423.03	0.2773
3432.11	0.3126
3441.18	0.3486
3450.26	0.3756
3459.33	0.4063
3468.41	0.4274
3477.48	0.4459
3486.56	0.4666
3495.64	0.48
3504.71	0.495
3513.79	0.5007
3522.86	0.5087
3531.94	0.515
3541.01	0.5208
3550.09	0.5426
3559.16	0.5716
3568.24	0.6075
3577.31	0.6507
3586.39	0.6905
3595.47	0.7203
3604.54	0.7638
3613.62	0.7968
3622.69	0.823
3631.77	0.8406
3640.84	0.8698
3649.92	0.8839
3658.99	0.8978
3668.07	0.9076
3677.14	0.9148
3686.22	0.9218
3695.3	0.9268
3704.37	0.9328
3713.45	0.936
3722.52	0.937
3731.6	0.9398
3740.67	0.9429
3749.75	0.943
3758.82	0.9411
3767.9	0.9391
3776.97	0.939
3786.05	0.9409
3795.13	0.942
3804.2	0.942
3813.28	0.942
3822.35	0.9411
3831.43	0.941
3840.5	0.94
3849.58	0.939
3858.65	0.937
3867.73	0.9361
3876.8	0.936
3885.88	0.935
3894.96	0.934
3904.03	0.933
3913.11	0.932
3922.18	0.931
3931.26	0.93
3940.33	0.927
3949.41	0.925
3958.48	0.923
3967.56	0.921
3976.63	0.917
3985.71	0.915
