Infrared Spectrum: PYRIDINE, 4,5-DI(HYDROXYMETHYL)-3-MERCAPTO-2-METHYL- , HYDROCHLORIDE
Formula: C8 H12 Cl N O2 S
State: SOLID (2 mg / 650 mg KBr DISC)
Class: COBLENTZ III
Instrument: PERKIN-ELMER 221 (GRATING)
Instrument parameters: GRATING FOR 4000-1428, FILTERS AT 2490, 980, NaCl PRISM FOR 1428-650 CM^-^1
Sampling: TRANSMISSION
Resolution: 4
Origin: SOUTHERN RESEARCH INSTITUTE
1/CM	TRANSMITTANCE
651.989	0.759
660.631	0.766
669.273	0.7502
677.915	0.7535
686.557	0.8089
695.199	0.8021
703.841	0.7602
712.483	0.7671
721.125	0.7933
729.767	0.7415
738.409	0.5694
747.051	0.5793
755.693	0.8445
764.335	0.8525
772.977	0.845
781.619	0.8433
790.261	0.8236
798.903	0.8036
807.545	0.798
816.187	0.7881
824.829	0.7612
833.471	0.7316
842.113	0.6818
850.755	0.5578
859.397	0.3624
868.039	0.5874
876.681	0.7597
885.323	0.7615
893.965	0.7476
902.607	0.7375
911.249	0.744
919.891	0.7357
928.533	0.7188
937.175	0.7036
945.816	0.6709
954.458	0.6131
963.1	0.5517
971.742	0.5062
980.384	0.579
989.026	0.5671
997.668	0.5022
1006.31	0.39
1014.95	0.3598
1023.59	0.1368
1032.24	0.3052
1040.88	0.591
1049.52	0.7291
1058.16	0.7237
1066.8	0.6632
1075.45	0.5743
1084.09	0.677
1092.73	0.6589
1101.37	0.639
1110.01	0.613
1118.66	0.58
1127.3	0.5582
1135.94	0.5303
1144.58	0.4884
1153.22	0.4481
1161.87	0.3837
1170.51	0.337
1179.15	0.3032
1187.79	0.2281
1196.43	0.1642
1205.08	0.2483
1213.72	0.3256
1222.36	0.2598
1231	0.3263
1239.64	0.4957
1248.29	0.6138
1256.93	0.65
1265.57	0.6457
1274.21	0.721
1282.85	0.7174
1291.5	0.7099
1300.14	0.7352
1308.78	0.7122
1317.42	0.6754
1326.06	0.616
1334.71	0.605
1343.35	0.6975
1351.99	0.6865
1360.63	0.6308
1369.27	0.5508
1377.92	0.3948
1386.56	0.5826
1395.2	0.6187
1403.84	0.5017
1412.48	0.4853
1421.13	0.5181
1429.77	0.5906
1438.41	0.5907
1447.05	0.436
1455.69	0.3093
1464.34	0.5803
1472.98	0.4474
1481.62	0.5154
1490.26	0.7402
1498.9	0.737
1507.55	0.674
1516.19	0.5753
1524.83	0.4241
1533.47	0.2063
1542.11	0.4065
1550.76	0.7009
1559.4	0.7693
1568.04	0.79
1576.68	0.795
1585.32	0.79
1593.97	0.779
1602.61	0.7492
1611.25	0.6878
1619.89	0.5234
1628.53	0.523
1637.18	0.7295
1645.82	0.7711
1654.46	0.7707
1663.1	0.766
1671.74	0.761
1680.39	0.759
1689.03	0.7542
1697.67	0.7382
1706.31	0.7308
1714.95	0.708
1723.6	0.686
1732.24	0.6975
1740.88	0.7297
1749.52	0.73
1758.16	0.729
1766.81	0.7212
1775.45	0.714
1784.09	0.7034
1792.73	0.6989
1801.37	0.6905
1810.01	0.6765
1818.66	0.6615
1827.3	0.634
1835.94	0.6354
1844.58	0.665
1853.22	0.679
1861.87	0.675
1870.51	0.665
1879.15	0.66
1887.79	0.6503
1896.43	0.6317
1905.08	0.614
1913.72	0.612
1922.36	0.5854
1931	0.5385
1939.64	0.522
1948.29	0.5333
1956.93	0.5938
1965.57	0.6322
1974.21	0.639
1982.85	0.6339
1991.5	0.628
2000.14	0.6134
2008.78	0.5928
2017.42	0.5953
2026.06	0.6221
2034.71	0.6268
2043.35	0.629
2051.99	0.6217
2060.63	0.6199
2069.27	0.611
2077.92	0.604
2086.56	0.6029
2095.2	0.602
2103.84	0.6009
2112.48	0.598
2121.13	0.5969
2129.77	0.593
2138.41	0.593
2147.05	0.5857
2155.69	0.5809
2164.34	0.5799
2172.98	0.5769
2181.62	0.572
2190.26	0.569
2198.9	0.5638
2207.55	0.5611
2216.19	0.5578
2224.83	0.554
2233.47	0.5489
2242.11	0.5439
2250.76	0.539
2259.4	0.534
2268.04	0.532
2276.68	0.5289
2285.32	0.5229
2293.97	0.5158
2302.61	0.5108
2311.25	0.5058
2319.89	0.4947
2328.53	0.4799
2337.18	0.4709
2345.82	0.462
2354.46	0.4578
2363.1	0.4499
2371.74	0.4449
2380.39	0.444
2389.03	0.4389
2397.67	0.433
2406.31	0.425
2414.95	0.42
2423.6	0.408
2432.24	0.4029
2440.88	0.3857
2449.52	0.3769
2458.16	0.3709
2466.81	0.3599
2475.45	0.3437
2484.09	0.3264
2492.73	0.2963
2501.37	0.2665
2510.02	0.249
2518.66	0.2747
2527.3	0.3512
2535.94	0.37
2544.58	0.3649
2553.23	0.3549
2561.87	0.34
2570.51	0.3326
2579.15	0.3107
2587.79	0.2979
2596.44	0.2799
2605.08	0.2719
2613.72	0.2709
2622.36	0.2649
2631	0.261
2639.65	0.2489
2648.29	0.241
2656.93	0.2339
2665.57	0.2299
2674.21	0.222
2682.86	0.2078
2691.5	0.2
2700.14	0.1959
2708.78	0.185
2717.42	0.1829
2726.07	0.17
2734.71	0.167
2743.35	0.1711
2751.99	0.1791
2760.63	0.177
2769.28	0.176
2777.92	0.1749
2786.56	0.169
2795.2	0.1741
2803.84	0.1923
2812.49	0.1982
2821.13	0.2131
2829.77	0.251
2838.41	0.2801
2847.05	0.2861
2855.7	0.288
2864.34	0.288
2872.98	0.2932
2881.62	0.3021
2890.26	0.308
2898.91	0.309
2907.55	0.306
2916.19	0.301
2924.83	0.3
2933.47	0.2982
2942.11	0.3061
2950.76	0.3111
2959.4	0.3142
2968.04	0.318
2976.68	0.32
2985.32	0.3157
2993.97	0.2949
3002.61	0.2687
3011.25	0.2609
3019.89	0.258
3028.53	0.258
3037.18	0.256
3045.82	0.253
3054.46	0.2489
3063.1	0.2428
3071.74	0.2248
3080.39	0.2169
3089.03	0.209
3097.67	0.2079
3106.31	0.201
3114.95	0.2134
3123.6	0.2403
3132.24	0.2491
3140.88	0.2664
3149.52	0.2774
3158.16	0.2871
3166.81	0.2982
3175.45	0.3181
3184.09	0.3221
3192.73	0.332
3201.37	0.3352
3210.02	0.338
3218.66	0.3349
3227.3	0.3279
3235.94	0.3216
3244.58	0.3009
3253.23	0.279
3261.87	0.276
3270.51	0.274
3279.15	0.27
3287.79	0.2649
3296.44	0.2619
3305.08	0.2489
3313.72	0.243
3322.36	0.2431
3331	0.2591
3339.65	0.2845
3348.29	0.3294
3356.93	0.3824
3365.57	0.4086
3374.21	0.4498
3382.86	0.493
3391.5	0.5415
3400.14	0.5643
3408.78	0.588
3417.42	0.6001
3426.07	0.6142
3434.71	0.6221
3443.35	0.6291
3451.99	0.6442
3460.63	0.661
3469.28	0.6652
3477.92	0.6751
3486.56	0.6811
3495.2	0.682
3503.84	0.6819
3512.49	0.681
3521.13	0.681
3529.77	0.681
3538.41	0.682
3547.05	0.6809
3555.7	0.679
3564.34	0.676
3572.98	0.676
3581.62	0.6759
3590.26	0.669
3598.91	0.667
3607.55	0.665
3616.19	0.665
3624.83	0.665
3633.47	0.6601
3642.12	0.662
3650.76	0.6599
3659.4	0.656
3668.04	0.6509
3676.68	0.638
3685.33	0.637
3693.97	0.637
3702.61	0.6379
3711.25	0.635
3719.89	0.6349
3728.54	0.6268
3737.18	0.6239
3745.82	0.623
3754.46	0.62
3763.1	0.622
3771.75	0.6189
3780.39	0.617
3789.03	0.609
3797.67	0.6067
3806.31	0.602
3814.96	0.602
3823.6	0.598
3832.24	0.597
3840.88	0.595
3849.52	0.586
3858.17	0.5819
3866.81	0.579
3875.45	0.577
3884.09	0.576
3892.73	0.5749
3901.38	0.572
3910.02	0.571
3918.66	0.571
3927.3	0.571
3935.94	0.5688
3944.59	0.569
3953.23	0.567
3961.87	0.566
3970.51	0.562
3979.15	0.561
3987.8	0.561
3996.44	0.561
