Infrared Spectrum: [6H]THIAZOLO[5,4-d]PYRIMIDINE-7-THIONE, 5-AMINO-
Formula: C5 H4 N4 S
State: SOLID (1 mg / 500 mg KBr DISC)
Class: COBLENTZ III
Instrument: PERKIN-ELMER 521 (GRATING)
Sampling: TRANSMISSION
Resolution: 4
Origin: SOUTHERN RESEARCH INSTITUTE
1/CM	TRANSMITTANCE
255.089	0.335
265.656	0.4199
276.223	0.486
286.791	0.569
297.358	0.638
307.925	0.656
318.492	0.609
329.06	0.6469
339.627	0.778
350.194	0.8
360.761	0.82
371.328	0.832
381.896	0.836
392.463	0.832
403.03	0.833
413.597	0.824
424.165	0.82
434.732	0.816
445.299	0.796
455.866	0.762
466.434	0.676
477.001	0.701
487.568	0.643
498.135	0.65
508.702	0.761
519.27	0.786
529.837	0.8369
540.404	0.7042
550.971	0.7959
561.539	0.845
572.106	0.812
582.673	0.8439
593.24	0.856
603.807	0.742
614.375	0.845
624.942	0.841
635.509	0.835
646.076	0.815
656.644	0.688
667.211	0.763
677.778	0.625
688.345	0.8099
698.913	0.831
709.48	0.878
720.047	0.889
730.614	0.883
741.181	0.5348
751.749	0.866
762.316	0.841
772.883	0.729
783.45	0.745
794.018	0.5583
804.585	0.823
815.152	0.794
825.719	0.718
836.286	0.796
846.854	0.854
857.421	0.8081
867.988	0.7549
878.555	0.832
889.123	0.766
899.69	0.5312
910.257	0.5026
920.824	0.864
931.392	0.902
941.959	0.894
952.526	0.885
963.093	0.861
973.66	0.813
984.228	0.686
994.795	0.853
1005.36	0.853
1015.93	0.85
1026.5	0.85
1037.06	0.848
1047.63	0.845
1058.2	0.841
1068.77	0.829
1079.33	0.811
1089.9	0.757
1100.47	0.72
1111.03	0.755
1121.6	0.769
1132.17	0.737
1142.74	0.655
1153.3	0.427
1163.87	0.854
1174.44	0.835
1185	0.802
1195.57	0.716
1206.14	0.572
1216.71	0.4082
1227.27	0.7535
1237.84	0.816
1248.41	0.757
1258.98	0.563
1269.54	0.5754
1280.11	0.839
1290.68	0.817
1301.24	0.757
1311.81	0.646
1322.38	0.6326
1332.95	0.724
1343.51	0.5391
1354.08	0.742
1364.65	0.812
1375.22	0.812
1385.78	0.803
1396.35	0.774
1406.92	0.751
1417.48	0.729
1428.05	0.7
1438.62	0.6261
1449.19	0.5261
1459.75	0.437
1470.32	0.5619
1480.89	0.23
1491.45	0.5287
1502.02	0.711
1512.59	0.671
1523.16	0.556
1533.72	0.3002
1544.29	0.215
1554.86	0.4898
1565.43	0.581
1575.99	0.534
1586.56	0.5091
1597.13	0.3931
1607.69	0.1599
1618.26	0.4779
1628.83	0.569
1639.4	0.554
1649.96	0.4271
1660.53	0.1551
1671.1	0.133
1681.66	0.583
1692.23	0.8099
1702.8	0.873
1713.37	0.907
1723.93	0.926
1734.5	0.939
1745.07	0.949
1755.64	0.947
1766.2	0.952
1776.77	0.956
1787.34	0.953
1797.9	0.948
1808.47	0.944
1819.04	0.943
1829.61	0.941
1840.17	0.94
1850.74	0.939
1861.31	0.936
1871.87	0.935
1882.44	0.932
1893.01	0.928
1903.58	0.926
1914.14	0.924
1924.71	0.922
1935.28	0.919
1945.85	0.912
1956.41	0.908
1966.98	0.91
1977.55	0.908
1988.11	0.908
1998.68	0.912
2009.25	0.911
2019.82	0.908
2030.38	0.9051
2040.95	0.903
2051.52	0.9012
2062.08	0.901
2072.65	0.899
2083.22	0.898
2093.79	0.895
2104.35	0.891
2114.92	0.889
2125.49	0.889
2136.06	0.889
2146.62	0.8864
2157.19	0.885
2167.76	0.885
2178.32	0.8825
2188.89	0.881
2199.46	0.879
2210.03	0.879
2220.59	0.878
2231.16	0.8777
2241.73	0.875
2252.29	0.873
2262.86	0.874
2273.43	0.875
2284	0.875
2294.56	0.8729
2305.13	0.8679
2315.7	0.862
2326.27	0.858
2336.83	0.86
2347.4	0.858
2357.97	0.857
2368.53	0.8579
2379.1	0.858
2389.67	0.857
2400.24	0.854
2410.8	0.849
2421.37	0.849
2431.94	0.846
2442.5	0.845
2453.07	0.844
2463.64	0.839
2474.21	0.835
2484.77	0.831
2495.34	0.829
2505.91	0.828
2516.48	0.827
2527.04	0.825
2537.61	0.8236
2548.18	0.8197
2558.74	0.816
2569.31	0.8127
2579.88	0.8078
2590.45	0.802
2601.01	0.796
2611.58	0.795
2622.15	0.7949
2632.72	0.7858
2643.28	0.778
2653.85	0.771
2664.42	0.767
2674.98	0.7611
2685.55	0.753
2696.12	0.749
2706.69	0.744
2717.25	0.7336
2727.82	0.7129
2738.39	0.6935
2748.95	0.6964
2759.52	0.7087
2770.09	0.711
2780.66	0.708
2791.22	0.7
2801.79	0.6915
2812.36	0.683
2822.93	0.677
2833.49	0.6651
2844.06	0.6488
2854.63	0.6322
2865.19	0.6266
2875.76	0.622
2886.33	0.6114
2896.9	0.5952
2907.46	0.5706
2918.03	0.5604
2928.6	0.5712
2939.16	0.58
2949.73	0.5667
2960.3	0.5459
2970.87	0.5289
2981.43	0.507
2992	0.503
3002.57	0.505
3013.14	0.502
3023.7	0.4863
3034.27	0.4762
3044.84	0.4206
3055.4	0.3615
3065.97	0.4193
3076.54	0.4073
3087.11	0.397
3097.67	0.3797
3108.24	0.3317
3118.81	0.258
3129.37	0.2019
3139.94	0.2085
3150.51	0.2473
3161.08	0.308
3171.64	0.3803
3182.21	0.4242
3192.78	0.4437
3203.35	0.4603
3213.91	0.465
3224.48	0.46
3235.05	0.457
3245.61	0.4424
3256.18	0.4192
3266.75	0.3855
3277.32	0.3432
3287.88	0.2648
3298.45	0.2632
3309.02	0.3249
3319.58	0.4157
3330.15	0.4952
3340.72	0.5779
3351.29	0.6205
3361.85	0.6327
3372.42	0.633
3382.99	0.63
3393.56	0.626
3404.12	0.624
3414.69	0.624
3425.26	0.6256
3435.82	0.627
3446.39	0.634
3456.96	0.641
3467.53	0.6495
3478.09	0.655
3488.66	0.6594
3499.23	0.67
3509.79	0.6768
3520.36	0.6913
3530.93	0.6979
3541.5	0.7153
3552.06	0.7265
3562.63	0.7386
3573.2	0.7482
3583.77	0.7572
3594.33	0.7691
3604.9	0.7811
3615.47	0.7921
3626.03	0.799
3636.6	0.804
3647.17	0.804
3657.74	0.803
3668.3	0.799
3678.87	0.8029
3689.44	0.8068
3700	0.808
3710.57	0.807
3721.14	0.806
3731.71	0.806
3742.27	0.804
3752.84	0.803
3763.41	0.8
3773.98	0.8
3784.54	0.799
3795.11	0.796
3805.68	0.792
3816.24	0.787
3826.81	0.784
3837.38	0.788
3847.95	0.79
3858.51	0.788
3869.08	0.7837
3879.65	0.783
3890.22	0.782
3900.78	0.781
3911.35	0.779
3921.92	0.778
3932.48	0.778
3943.05	0.777
3953.62	0.775
3964.19	0.774
3974.75	0.773
3985.32	0.773
3995.89	0.773
