Infrared Spectrum: BENZENE, 2,4-DIISOCYANATO-1-METHYL- AND BENZENE, 2,6-DIISOCYANATO-1-METHYL-
Formula: C9 H6 N2 O2
State: SOLUTION (10% IN CCl4 FOR 3800-1330 AND 10% IN CS2 FOR 1330-420 CM^-^1)
Class: COBLENTZ
Instrument: DOW KBr FOREPRISM-GRATING
Instrument parameters: BLAZED AT 3.5, 12.0, 20.0 MICRON, CHANGED AT 5.0, 7.5, 14.9 MICRON
Sampling: TRANSMISSION
Path length: 0.011, 0.011 CM
Resolution: 4
Origin: DOW CHEMICAL COMPANY
1/CM	TRANSMITTANCE
405.106	0.916
413.617	0.918
422.127	0.918
430.638	0.914
439.149	0.918
447.659	0.92
456.17	0.99
464.681	1.028
473.191	1.038
481.702	1.05
490.212	1.056
498.723	1.046
507.234	0.993
515.744	1.005
524.255	0.941
532.766	0.948
541.276	0.878
549.787	0.714
558.298	0.417
566.808	0.3
575.319	0.502
583.83	0.617
592.34	0.533
600.851	0.628
609.361	0.625
617.872	0.573
626.383	0.538
634.893	0.552
643.404	0.633
651.915	0.729
660.425	0.825
668.936	0.886
677.447	0.885
685.957	0.892
694.468	0.844
702.979	0.554
711.489	0.865
720	0.926
728.51	0.954
737.021	0.94
745.532	0.856
754.042	0.914
762.553	1.002
771.064	0.984
779.574	0.7279
788.085	0.622
796.596	0.942
805.106	0.758
813.617	0.298
822.128	0.698
830.638	0.928
839.149	0.857
847.66	0.724
856.17	0.509
864.681	0.349
873.191	0.385
881.702	0.62
890.213	0.392
898.723	0.446
907.234	0.677
915.745	0.957
924.255	1.008
932.766	1.01
941.277	1.004
949.787	1.013
958.298	1.001
966.809	1.012
975.319	1
983.83	0.966
992.34	0.8119
1000.85	0.818
1009.36	0.845
1017.87	0.618
1026.38	0.86
1034.89	0.872
1043.4	0.936
1051.91	0.968
1060.43	0.964
1068.94	0.784
1077.45	0.321
1085.96	0.91
1094.47	0.96
1102.98	0.908
1111.49	0.808
1120	0.766
1128.51	0.748
1137.02	0.709
1145.53	0.833
1154.04	0.796
1162.55	0.761
1171.06	0.777
1179.57	0.93
1188.09	0.992
1196.6	1.002
1205.11	0.945
1213.62	0.933
1222.13	1.017
1230.64	1.032
1239.15	1.026
1247.66	1.02
1256.17	0.997
1264.68	0.944
1273.19	0.946
1281.7	0.929
1290.21	0.889
1298.72	0.944
1307.23	1.002
1315.74	1.012
1324.26	1.009
1332.77	1.004
1341.28	1.002
1349.79	0.993
1358.3	0.974
1366.81	0.946
1375.32	0.908
1383.83	0.725
1392.34	0.865
1400.85	0.91
1409.36	0.918
1417.87	0.872
1426.38	0.872
1434.89	0.778
1443.4	0.657
1451.92	0.628
1460.43	0.741
1468.94	0.745
1477.45	0.725
1485.96	0.649
1494.47	0.492
1502.98	0.333
1511.49	0.254
1520	0.117
1528.51	0.053
1537.02	0.198
1545.53	0.261
1554.04	0.341
1562.55	0.321
1571.06	0.137
1579.57	0.061
1588.09	0.1971
1596.6	0.206
1605.11	0.254
1613.62	0.086
1622.13	0.0651
1630.64	0.637
1639.15	0.9
1647.66	0.966
1656.17	0.982
1664.68	0.99
1673.19	0.99
1681.7	1.004
1690.21	1.012
1698.72	1.016
1707.23	1.024
1715.75	1.021
1724.26	1
1732.77	0.993
1741.28	0.998
1749.79	0.996
1758.3	1.002
1766.81	1.009
1775.32	1.004
1783.83	0.998
1792.34	1.006
1800.85	1.016
1809.36	1.016
1817.87	1.013
1826.38	1.016
1834.89	1.018
1843.4	1.009
1851.92	1.008
1860.43	1.014
1868.94	1.01
1877.45	0.984
1885.96	0.974
1894.47	1.002
1902.98	1.014
1911.49	1.014
1920	1.009
1928.51	1.025
1937.02	1.028
1945.53	1.025
1954.04	1.024
1962.55	1.025
1971.06	1.02
1979.58	1.018
1988.09	1.018
1996.6	1.014
2005.11	1.01
2013.62	1.005
2022.13	0.994
2030.64	0.992
2039.15	0.984
2047.66	0.977
2056.17	0.957
2064.68	0.9261
2073.19	0.914
2081.7	0.916
2090.21	0.913
2098.72	0.8931
2107.23	0.8582
2115.75	0.8162
2124.26	0.7368
2132.77	0.6104
2141.28	0.485
2149.79	0.3936
2158.3	0.361
2166.81	0.3532
2175.32	0.3245
2183.83	0.2539
2192.34	0.1934
2200.85	0.129
2209.36	0.0747
2217.87	0.04
2226.38	0.0062
2234.89	0.004
2243.41	0.002
2251.92	0.002
2260.43	0.002
2268.94	0.002
2277.45	0.002
2285.96	0.002
2294.47	0.004
2302.98	0.0059
2311.49	0.0089
2320	0.0312
2328.51	0.1034
2337.02	0.1513
2345.53	0.1845
2354.04	0.2517
2362.55	0.3096
2371.06	0.3232
2379.58	0.3393
2388.09	0.3836
2396.6	0.4352
2405.11	0.578
2413.62	0.7072
2422.13	0.7606
2430.64	0.8296
2439.15	0.8707
2447.66	0.9094
2456.17	0.9377
2464.68	0.9557
2473.19	0.9697
2481.7	0.9817
2490.21	0.9929
2498.72	1.0009
2507.24	1.0002
2515.75	1.0049
2524.26	1.006
2532.77	1.009
2541.28	1.0063
2549.79	1.005
2558.3	1.002
2566.81	0.9962
2575.32	0.9957
2583.83	1.002
2592.34	1.0058
2600.85	1.012
2609.36	1.0156
2617.87	1.017
2626.38	1.0122
2634.89	1.0104
2643.41	1.006
2651.92	1.004
2660.43	0.9984
2668.94	0.9847
2677.45	0.976
2685.96	0.98
2694.47	0.9852
2702.98	0.9898
2711.49	0.9922
2720	0.9884
2728.51	0.985
2737.02	0.9778
2745.53	0.9881
2754.04	1.006
2762.55	1.005
2771.07	1.005
2779.58	1.005
2788.09	1.0048
2796.6	1.005
2805.11	1.0042
2813.62	1.0025
2822.13	1.0002
2830.64	0.9865
2839.15	0.98
2847.66	0.9742
2856.17	0.9349
2864.68	0.8722
2873.19	0.9038
2881.7	0.9068
2890.21	0.89
2898.72	0.8995
2907.24	0.8925
2915.75	0.8388
2924.26	0.7257
2932.77	0.7805
2941.28	0.803
2949.79	0.7887
2958.3	0.8069
2966.81	0.8345
2975.32	0.8109
2983.83	0.8054
2992.34	0.8497
3000.85	0.8943
3009.36	0.906
3017.87	0.8946
3026.38	0.8927
3034.9	0.9155
3043.41	0.9266
3051.92	0.9179
3060.43	0.9114
3068.94	0.92
3077.45	0.9506
3085.96	0.9748
3094.47	0.9874
3102.98	0.9887
3111.49	0.988
3120	0.982
3128.51	0.981
3137.02	0.9803
3145.53	0.9763
3154.04	0.9563
3162.55	0.9346
3171.07	0.932
3179.58	0.9507
3188.09	0.9827
3196.6	1.012
3205.11	1.0193
3213.62	1.0257
3222.13	1.029
3230.64	1.0297
3239.15	1.0313
3247.66	1.032
3256.17	1.026
3264.68	1.026
3273.19	1.026
3281.7	1.0244
3290.21	1.024
3298.73	1.025
3307.24	1.024
3315.75	1.024
3324.26	1.0134
3332.77	1.0042
3341.28	0.9903
3349.79	0.9788
3358.3	0.98
3366.81	0.9832
3375.32	0.9814
3383.83	0.9709
3392.34	0.942
3400.85	0.9214
3409.36	0.92
3417.87	0.916
3426.38	0.914
3434.9	0.9344
3443.41	0.9582
3451.92	0.9798
3460.43	0.9977
3468.94	1.001
3477.45	1.005
3485.96	1.0096
3494.47	1.0166
3502.98	1.0232
3511.49	1.0256
3520	1.0286
3528.51	1.0254
3537.02	1.025
3545.53	1.025
3554.04	1.026
3562.56	1.028
3571.07	1.0269
3579.58	1.025
3588.09	1.025
3596.6	1.022
3605.11	1.0135
3613.62	1.0045
3622.13	0.9948
3630.64	0.9778
3639.15	0.9584
3647.66	0.948
3656.17	0.9375
3664.68	0.937
3673.19	0.9209
3681.7	0.9165
3690.21	0.9295
3698.73	0.933
3707.24	0.938
3715.75	0.95
3724.26	0.96
3732.77	0.965
3741.28	0.9594
3749.79	0.9475
3758.3	0.9405
3766.81	0.9505
3775.32	0.961
3783.83	0.9805
3792.34	0.9895
