Infrared Spectrum: PROPANOIC ACID, 3-HYDROXY-2[3-(2-CHLOROETHYL)UREIDO]-
Formula: C6 H11 Cl N2 O4
State: SOLID (1 mg / 500 mg KBr DISC)
Class: COBLENTZ III
Instrument: PERKIN-ELMER 621
Sampling: TRANSMISSION
Resolution: 4
Origin: SOUTHERN RESEARCH INSTITUTE
1/CM	TRANSMITTANCE
255.236	0.147
265.707	0.2099
276.178	0.277
286.65	0.355
297.121	0.416
307.592	0.471
318.063	0.619
328.535	0.619
339.006	0.613
349.477	0.596
359.948	0.639
370.42	0.7129
380.891	0.752
391.362	0.752
401.833	0.743
412.304	0.739
422.776	0.732
433.247	0.669
443.718	0.747
454.189	0.735
464.661	0.704
475.132	0.674
485.603	0.664
496.074	0.671
506.546	0.664
517.017	0.632
527.488	0.609
537.959	0.654
548.43	0.657
558.902	0.657
569.373	0.649
579.844	0.622
590.315	0.584
600.787	0.508
611.258	0.447
621.729	0.484
632.2	0.445
642.672	0.439
653.143	0.445
663.614	0.492
674.085	0.59
684.556	0.662
695.028	0.72
705.499	0.75
715.97	0.763
726.441	0.75
736.913	0.733
747.384	0.742
757.855	0.789
768.326	0.776
778.798	0.762
789.269	0.7561
799.74	0.8469
810.211	0.862
820.682	0.847
831.154	0.818
841.625	0.7561
852.096	0.762
862.567	0.72
873.039	0.747
883.51	0.762
893.981	0.742
904.452	0.699
914.924	0.677
925.395	0.667
935.866	0.674
946.337	0.703
956.808	0.7179
967.28	0.79
977.751	0.79
988.222	0.784
998.693	0.7421
1009.16	0.687
1019.64	0.5561
1030.11	0.45
1040.58	0.528
1051.05	0.5291
1061.52	0.6159
1071.99	0.637
1082.46	0.62
1092.93	0.694
1103.41	0.6431
1113.88	0.567
1124.35	0.7
1134.82	0.72
1145.29	0.708
1155.76	0.688
1166.23	0.628
1176.7	0.551
1187.18	0.509
1197.65	0.418
1208.12	0.4
1218.59	0.367
1229.06	0.325
1239.53	0.294
1250	0.316
1260.47	0.409
1270.95	0.457
1281.42	0.447
1291.89	0.466
1302.36	0.554
1312.83	0.583
1323.3	0.577
1333.77	0.579
1344.24	0.618
1354.72	0.618
1365.19	0.633
1375.66	0.653
1386.13	0.671
1396.6	0.656
1407.07	0.601
1417.54	0.4921
1428.01	0.444
1438.49	0.564
1448.96	0.643
1459.43	0.614
1469.9	0.703
1480.37	0.713
1490.84	0.658
1501.31	0.583
1511.78	0.55
1522.25	0.503
1532.73	0.471
1543.2	0.349
1553.67	0.209
1564.14	0.126
1574.61	0.129
1585.08	0.175
1595.55	0.283
1606.02	0.254
1616.5	0.162
1626.97	0.054
1637.44	0.132
1647.91	0.287
1658.38	0.343
1668.85	0.299
1679.32	0.324
1689.79	0.307
1700.27	0.35
1710.74	0.377
1721.21	0.176
1731.68	0.3589
1742.15	0.465
1752.62	0.559
1763.09	0.63
1773.56	0.678
1784.04	0.707
1794.51	0.726
1804.98	0.741
1815.45	0.758
1825.92	0.771
1836.39	0.784
1846.86	0.798
1857.33	0.809
1867.81	0.82
1878.28	0.832
1888.75	0.84
1899.22	0.848
1909.69	0.857
1920.16	0.862
1930.63	0.867
1941.1	0.873
1951.58	0.878
1962.05	0.882
1972.52	0.887
1982.99	0.888
1993.46	0.892
2003.93	0.894
2014.4	0.896
2024.87	0.898
2035.35	0.899
2045.82	0.899
2056.29	0.899
2066.76	0.899
2077.23	0.9025
2087.7	0.907
2098.17	0.909
2108.64	0.912
2119.12	0.912
2129.59	0.912
2140.06	0.912
2150.53	0.912
2161	0.911
2171.47	0.908
2181.94	0.907
2192.41	0.905
2202.88	0.904
2213.36	0.901
2223.83	0.901
2234.3	0.899
2244.77	0.895
2255.24	0.894
2265.71	0.8909
2276.18	0.886
2286.65	0.883
2297.13	0.875
2307.6	0.8671
2318.07	0.857
2328.54	0.8521
2339.01	0.847
2349.48	0.8392
2359.95	0.835
2370.42	0.831
2380.9	0.8251
2391.37	0.8183
2401.84	0.8103
2412.31	0.7974
2422.78	0.7884
2433.25	0.7764
2443.72	0.768
2454.19	0.7585
2464.67	0.7436
2475.14	0.7286
2485.61	0.7206
2496.08	0.712
2506.55	0.6987
2517.02	0.6867
2527.49	0.678
2537.96	0.6686
2548.44	0.6595
2558.91	0.648
2569.38	0.648
2579.85	0.648
2590.32	0.648
2600.79	0.639
2611.26	0.628
2621.73	0.624
2632.21	0.6319
2642.68	0.637
2653.15	0.644
2663.62	0.6538
2674.09	0.66
2684.56	0.661
2695.03	0.6573
2705.5	0.65
2715.98	0.645
2726.45	0.6434
2736.92	0.6355
2747.39	0.629
2757.86	0.62
2768.33	0.6146
2778.8	0.6088
2789.27	0.6006
2799.75	0.5897
2810.22	0.5781
2820.69	0.5587
2831.16	0.5458
2841.63	0.5256
2852.1	0.5168
2862.57	0.511
2873.04	0.5
2883.51	0.4919
2893.99	0.4649
2904.46	0.465
2914.93	0.4601
2925.4	0.4375
2935.87	0.43
2946.34	0.4206
2956.81	0.4196
2967.28	0.4365
2977.76	0.4632
2988.23	0.467
2998.7	0.466
3009.17	0.4683
3019.64	0.4736
3030.11	0.4786
3040.58	0.4871
3051.05	0.494
3061.53	0.498
3072	0.5019
3082.47	0.5044
3092.94	0.504
3103.41	0.5007
3113.88	0.499
3124.35	0.499
3134.82	0.5054
3145.3	0.509
3155.77	0.509
3166.24	0.509
3176.71	0.508
3187.18	0.507
3197.65	0.5
3208.12	0.4921
3218.59	0.4832
3229.07	0.4663
3239.54	0.4494
3250.01	0.4267
3260.48	0.3988
3270.95	0.3692
3281.42	0.3169
3291.89	0.2635
3302.36	0.2364
3312.84	0.2065
3323.31	0.1936
3333.78	0.2208
3344.25	0.2516
3354.72	0.275
3365.19	0.2978
3375.66	0.3379
3386.13	0.3943
3396.61	0.4357
3407.08	0.447
3417.55	0.4339
3428.02	0.3926
3438.49	0.3508
3448.96	0.3552
3459.43	0.3937
3469.9	0.4376
3480.38	0.4662
3490.85	0.4992
3501.32	0.555
3511.79	0.5919
3522.26	0.6295
3532.73	0.6645
3543.2	0.6974
3553.67	0.7213
3564.15	0.7499
3574.62	0.7688
3585.09	0.7874
3595.56	0.8057
3606.03	0.8236
3616.5	0.8366
3626.97	0.85
3637.44	0.862
3647.91	0.8665
3658.39	0.87
3668.86	0.87
3679.33	0.8744
3689.8	0.8834
3700.27	0.89
3710.74	0.8913
3721.21	0.892
3731.68	0.898
3742.16	0.899
3752.63	0.9
3763.1	0.9013
3773.57	0.9028
3784.04	0.9041
3794.51	0.905
3804.98	0.907
3815.45	0.907
3825.93	0.907
3836.4	0.907
3846.87	0.908
3857.34	0.908
3867.81	0.9072
3878.28	0.908
3888.75	0.908
3899.22	0.908
3909.7	0.9084
3920.17	0.9086
3930.64	0.911
3941.11	0.911
3951.58	0.9115
3962.05	0.912
3972.52	0.913
3982.99	0.913
3993.47	0.9137
