Infrared Spectrum: 1,3-PROPANEDIAMINE-, 2-BROMO-, DIHYDROBROMIDE
Formula: C3 H11 Br3 N2
State: SOLID (1 mg / 500 mg KBr DISC)
Class: COBLENTZ III
Instrument: PERKIN-ELMER 621
Sampling: TRANSMISSION
Resolution: 4
Origin: SOUTHERN RESEARCH INSTITUTE
1/CM	TRANSMITTANCE
256.184	0.202
266.785	0.238
277.386	0.2939
287.986	0.376
298.587	0.473
309.188	0.559
319.789	0.6209
330.389	0.677
340.99	0.723
351.591	0.771
362.192	0.802
372.792	0.83
383.393	0.844
393.994	0.834
404.595	0.775
415.195	0.802
425.796	0.882
436.397	0.889
446.998	0.886
457.598	0.853
468.199	0.892
478.8	0.894
489.401	0.8421
500.001	0.896
510.602	0.914
521.203	0.91
531.804	0.91
542.404	0.907
553.005	0.909
563.606	0.903
574.207	0.894
584.807	0.892
595.408	0.86
606.009	0.853
616.61	0.843
627.21	0.8
637.811	0.4843
648.412	0.8839
659.013	0.901
669.613	0.903
680.214	0.911
690.815	0.91
701.416	0.911
712.016	0.913
722.617	0.913
733.218	0.911
743.819	0.91
754.419	0.903
765.02	0.894
775.621	0.881
786.222	0.86
796.822	0.7731
807.423	0.8009
818.024	0.884
828.625	0.871
839.225	0.805
849.826	0.886
860.427	0.881
871.028	0.872
881.628	0.864
892.229	0.823
902.83	0.851
913.431	0.856
924.031	0.85
934.632	0.839
945.233	0.819
955.834	0.748
966.434	0.813
977.035	0.792
987.636	0.769
998.237	0.715
1008.84	0.5712
1019.44	0.7388
1030.04	0.61
1040.64	0.613
1051.24	0.7071
1061.84	0.756
1072.44	0.635
1083.04	0.347
1093.64	0.806
1104.24	0.789
1114.85	0.834
1125.45	0.818
1136.05	0.811
1146.65	0.793
1157.25	0.76
1167.85	0.6172
1178.45	0.802
1189.05	0.782
1199.65	0.763
1210.25	0.738
1220.85	0.696
1231.45	0.64
1242.05	0.486
1252.65	0.794
1263.26	0.777
1273.86	0.76
1284.46	0.748
1295.06	0.736
1305.66	0.719
1316.26	0.711
1326.86	0.673
1337.46	0.575
1348.06	0.693
1358.66	0.623
1369.26	0.688
1379.86	0.686
1390.46	0.661
1401.07	0.644
1411.67	0.623
1422.27	0.5519
1432.87	0.557
1443.47	0.5
1454.07	0.601
1464.67	0.56
1475.27	0.4669
1485.87	0.355
1496.47	0.4269
1507.07	0.355
1517.67	0.517
1528.27	0.4069
1538.88	0.213
1549.48	0.251
1560.08	0.602
1570.68	0.4959
1581.28	0.3189
1591.88	0.6429
1602.48	0.794
1613.08	0.832
1623.68	0.819
1634.28	0.819
1644.88	0.821
1655.48	0.834
1666.08	0.836
1676.68	0.832
1687.29	0.823
1697.89	0.817
1708.49	0.807
1719.09	0.801
1729.69	0.792
1740.29	0.778
1750.89	0.771
1761.49	0.764
1772.09	0.759
1782.69	0.752
1793.29	0.74
1803.89	0.731
1814.49	0.723
1825.1	0.715
1835.7	0.703
1846.3	0.689
1856.9	0.678
1867.5	0.68
1878.1	0.673
1888.7	0.675
1899.3	0.677
1909.9	0.681
1920.5	0.705
1931.1	0.711
1941.7	0.711
1952.3	0.713
1962.91	0.711
1973.51	0.706
1984.11	0.69
1994.71	0.688
2005.31	0.689
2015.91	0.696
2026.51	0.698
2037.11	0.682
2047.71	0.684
2058.31	0.686
2068.91	0.68
2079.51	0.677
2090.11	0.672
2100.72	0.669
2111.32	0.668
2121.92	0.661
2132.52	0.659
2143.12	0.655
2153.72	0.653
2164.32	0.648
2174.92	0.64
2185.52	0.632
2196.12	0.639
2206.72	0.632
2217.32	0.627
2227.92	0.625
2238.52	0.617
2249.13	0.605
2259.73	0.6
2270.33	0.594
2280.93	0.593
2291.53	0.586
2302.13	0.575
2312.73	0.563
2323.33	0.563
2333.93	0.559
2344.53	0.547
2355.13	0.544
2365.73	0.542
2376.33	0.535
2386.94	0.525
2397.54	0.515
2408.14	0.506
2418.74	0.505
2429.34	0.5
2439.94	0.476
2450.54	0.461
2461.14	0.473
2471.74	0.464
2482.34	0.456
2492.94	0.438
2503.54	0.419
2514.14	0.428
2524.75	0.41
2535.35	0.393
2545.95	0.386
2556.55	0.377
2567.15	0.386
2577.75	0.363
2588.35	0.365
2598.95	0.401
2609.55	0.393
2620.15	0.369
2630.75	0.372
2641.35	0.367
2651.95	0.342
2662.56	0.326
2673.16	0.33
2683.76	0.334
2694.36	0.335
2704.96	0.313
2715.56	0.288
2726.16	0.29
2736.76	0.275
2747.36	0.268
2757.96	0.257
2768.56	0.243
2779.16	0.228
2789.76	0.218
2800.36	0.21
2810.97	0.201
2821.57	0.196
2832.17	0.192
2842.77	0.185
2853.37	0.184
2863.97	0.181
2874.57	0.184
2885.17	0.184
2895.77	0.184
2906.37	0.184
2916.97	0.181
2927.57	0.182
2938.17	0.185
2948.78	0.188
2959.38	0.19
2969.98	0.189
2980.58	0.188
2991.18	0.19
3001.78	0.193
3012.38	0.188
3022.98	0.206
3033.58	0.227
3044.18	0.248
3054.78	0.253
3065.38	0.265
3075.98	0.272
3086.59	0.278
3097.19	0.303
3107.79	0.318
3118.39	0.331
3128.99	0.381
3139.59	0.425
3150.19	0.465
3160.79	0.525
3171.39	0.557
3181.99	0.593
3192.59	0.656
3203.19	0.718
3213.79	0.748
3224.39	0.784
3235	0.802
3245.6	0.819
3256.2	0.831
3266.8	0.836
3277.4	0.836
3288	0.839
3298.6	0.836
3309.2	0.832
3319.8	0.819
3330.4	0.81
3341	0.792
3351.6	0.776
3362.2	0.761
3372.81	0.746
3383.41	0.728
3394.01	0.714
3404.61	0.706
3415.21	0.7
3425.81	0.696
3436.41	0.692
3447.01	0.689
3457.61	0.693
3468.21	0.694
3478.81	0.694
3489.41	0.697
3500.01	0.7
3510.62	0.703
3521.22	0.71
3531.82	0.715
3542.42	0.723
3553.02	0.727
3563.62	0.73
3574.22	0.735
3584.82	0.739
3595.42	0.746
3606.02	0.747
3616.62	0.753
3627.22	0.753
3637.82	0.757
3648.43	0.752
3659.03	0.751
3669.63	0.743
3680.23	0.739
3690.83	0.748
3701.43	0.744
3712.03	0.74
3722.63	0.738
3733.23	0.735
3743.83	0.731
3754.43	0.728
3765.03	0.726
3775.63	0.722
3786.23	0.721
3796.84	0.717
3807.44	0.714
3818.04	0.711
3828.64	0.709
3839.24	0.707
3849.84	0.702
3860.44	0.701
3871.04	0.7
3881.64	0.693
3892.24	0.692
3902.84	0.688
3913.44	0.686
3924.04	0.682
3934.65	0.681
3945.25	0.678
3955.85	0.669
3966.45	0.668
3977.05	0.668
3987.65	0.668
3998.25	0.668
