Infrared Spectrum: 1,2-CYCLOHEXANEDIAMINE DIHYDROCHLORIDE, TRANS
Formula: C6 H16 Cl2 N2
State: SOLID (SPLIT MULL, FLUOROLUBE FOR 3800-1330 AND NUJOL FOR 1330-400 CM ^-^1)
Class: COBLENTZ III
Instrument: DOW KBr FOREPRISM-GRATING
Instrument parameters: BLAZED AT 3.5, 12.0, 20.0 MICRON, CHANGED AT 5.0, 7.5, 14.9 MICRON
Sampling: TRANSMISSION
Resolution: 4
Origin: DOW CHEMICAL COMPANY
1/CM	TRANSMITTANCE
383.402	0.817
392.169	0.818
400.936	0.818
409.702	0.817
418.469	0.817
427.236	0.809
436.003	0.778
444.77	0.884
453.536	0.964
462.303	0.983
471.07	0.993
479.837	0.998
488.604	0.998
497.37	0.997
506.137	0.98
514.904	0.817
523.671	0.997
532.438	1
541.204	1
549.971	0.998
558.738	0.99
567.505	1.002
576.272	1.002
585.038	1.002
593.805	0.99
602.572	1
611.339	0.997
620.106	0.994
628.872	0.994
637.639	0.99
646.406	0.986
655.173	0.978
663.94	0.968
672.706	0.959
681.473	0.953
690.24	0.949
699.007	0.944
707.774	0.933
716.54	0.912
725.307	0.888
734.074	0.909
742.841	0.924
751.608	0.934
760.374	0.937
769.141	0.937
777.908	0.933
786.675	0.915
795.442	0.945
804.208	0.948
812.975	0.945
821.742	0.945
830.509	0.942
839.276	0.937
848.042	0.935
856.809	0.941
865.576	0.941
874.343	0.934
883.11	0.878
891.876	0.933
900.643	0.933
909.41	0.929
918.177	0.914
926.944	0.918
935.71	0.903
944.477	0.918
953.244	0.916
962.011	0.914
970.777	0.912
979.544	0.912
988.311	0.892
997.078	0.911
1005.84	0.897
1014.61	0.851
1023.38	0.566
1032.15	0.587
1040.91	0.7421
1049.68	0.907
1058.45	0.904
1067.21	0.877
1075.98	0.6931
1084.75	0.881
1093.51	0.851
1102.28	0.7421
1111.05	0.909
1119.81	0.911
1128.58	0.899
1137.35	0.825
1146.11	0.896
1154.88	0.909
1163.65	0.911
1172.41	0.911
1181.18	0.905
1189.95	0.903
1198.71	0.893
1207.48	0.807
1216.25	0.897
1225.01	0.904
1233.78	0.896
1242.55	0.892
1251.32	0.875
1260.08	0.874
1268.85	0.879
1277.62	0.87
1286.38	0.864
1295.15	0.867
1303.92	0.86
1312.68	0.819
1321.45	0.86
1330.22	0.834
1338.98	0.826
1347.75	0.825
1356.52	0.822
1365.28	0.832
1374.05	0.841
1382.82	0.884
1391.58	0.814
1400.35	0.878
1409.12	0.908
1417.88	0.9
1426.65	0.9
1435.42	0.884
1444.18	0.869
1452.95	0.881
1461.72	0.866
1470.49	0.766
1479.25	0.892
1488.02	0.877
1496.79	0.8099
1505.55	0.457
1514.32	0.858
1523.09	0.817
1531.85	0.478
1540.62	0.6
1549.39	0.68
1558.15	0.7241
1566.92	0.852
1575.69	0.843
1584.45	0.789
1593.22	0.643
1601.99	0.38
1610.75	0.623
1619.52	0.566
1628.29	0.836
1637.05	0.956
1645.82	0.969
1654.59	0.976
1663.35	0.976
1672.12	0.976
1680.89	0.975
1689.65	0.98
1698.42	0.978
1707.19	0.979
1715.96	0.975
1724.72	0.972
1733.49	0.971
1742.26	0.967
1751.02	0.969
1759.79	0.968
1768.56	0.968
1777.32	0.964
1786.09	0.96
1794.86	0.957
1803.62	0.954
1812.39	0.948
1821.16	0.942
1829.92	0.938
1838.69	0.931
1847.46	0.927
1856.22	0.918
1864.99	0.905
1873.76	0.901
1882.52	0.901
1891.29	0.899
1900.06	0.897
1908.82	0.894
1917.59	0.893
1926.36	0.89
1935.13	0.881
1943.89	0.874
1952.66	0.874
1961.43	0.877
1970.19	0.882
1978.96	0.882
1987.73	0.881
1996.49	0.877
2005.26	0.871
2014.03	0.87
2022.79	0.871
2031.56	0.877
2040.33	0.8841
2049.09	0.8732
2057.86	0.8769
2066.63	0.8712
2075.39	0.884
2084.16	0.89
2092.93	0.8859
2101.69	0.8787
2110.46	0.8753
2119.23	0.8748
2127.99	0.871
2136.76	0.8662
2145.53	0.874
2154.3	0.8708
2163.06	0.8686
2171.83	0.8628
2180.6	0.86
2189.36	0.864
2198.13	0.8575
2206.9	0.854
2215.66	0.851
2224.43	0.848
2233.2	0.8421
2241.96	0.837
2250.73	0.834
2259.5	0.832
2268.26	0.8286
2277.03	0.8163
2285.8	0.8012
2294.56	0.802
2303.33	0.81
2312.1	0.7984
2320.86	0.792
2329.63	0.785
2338.4	0.7686
2347.16	0.765
2355.93	0.7541
2364.7	0.7475
2373.47	0.7435
2382.23	0.737
2391	0.7336
2399.77	0.747
2408.53	0.7425
2417.3	0.72
2426.07	0.718
2434.83	0.7069
2443.6	0.6904
2452.37	0.6834
2461.13	0.6772
2469.9	0.6548
2478.67	0.6574
2487.43	0.6361
2496.2	0.601
2504.97	0.6113
2513.73	0.5637
2522.5	0.4663
2531.27	0.4702
2540.03	0.4847
2548.8	0.487
2557.57	0.4496
2566.33	0.54
2575.1	0.5024
2583.87	0.4952
2592.64	0.4808
2601.4	0.4428
2610.17	0.4952
2618.94	0.472
2627.7	0.4478
2636.47	0.4544
2645.24	0.487
2654	0.4854
2662.77	0.4524
2671.54	0.451
2680.3	0.4262
2689.07	0.4002
2697.84	0.4241
2706.6	0.3862
2715.37	0.3639
2724.14	0.3504
2732.9	0.3259
2741.67	0.331
2750.44	0.328
2759.2	0.319
2767.97	0.2938
2776.74	0.2608
2785.5	0.2399
2794.27	0.2157
2803.04	0.1859
2811.81	0.1779
2820.57	0.1725
2829.34	0.1512
2838.11	0.1357
2846.87	0.124
2855.64	0.124
2864.41	0.1322
2873.17	0.1362
2881.94	0.1453
2890.71	0.1587
2899.47	0.165
2908.24	0.165
2917.01	0.16
2925.77	0.1635
2934.54	0.1683
2943.31	0.1788
2952.07	0.1661
2960.84	0.198
2969.61	0.2199
2978.37	0.2209
2987.14	0.2276
2995.91	0.2913
3004.67	0.3213
3013.44	0.3367
3022.21	0.3459
3030.98	0.3729
3039.74	0.4014
3048.51	0.4358
3057.28	0.4828
3066.04	0.5
3074.81	0.5114
3083.58	0.5312
3092.34	0.551
3101.11	0.5633
3109.88	0.5858
3118.64	0.614
3127.41	0.6325
3136.18	0.659
3144.94	0.6811
3153.71	0.7044
3162.48	0.7346
3171.24	0.7716
3180.01	0.7971
3188.78	0.8146
3197.54	0.8216
3206.31	0.832
3215.08	0.837
3223.84	0.8499
3232.61	0.8613
3241.38	0.8673
3250.15	0.873
3258.91	0.8764
3267.68	0.878
3276.45	0.879
3285.21	0.877
3293.98	0.8787
3302.75	0.878
3311.51	0.8773
3320.28	0.8755
3329.05	0.873
3337.81	0.871
3346.58	0.87
3355.35	0.869
3364.11	0.8644
3372.88	0.8603
3381.65	0.8582
3390.41	0.8577
3399.18	0.8563
3407.95	0.854
3416.71	0.8511
3425.48	0.851
3434.25	0.849
3443.01	0.848
3451.78	0.845
3460.55	0.844
3469.32	0.843
3478.08	0.84
3486.85	0.839
3495.62	0.834
3504.38	0.834
3513.15	0.834
3521.92	0.833
3530.68	0.832
3539.45	0.832
3548.22	0.8329
3556.98	0.83
3565.75	0.829
3574.52	0.8235
3583.28	0.8213
3592.05	0.825
3600.82	0.8206
3609.58	0.822
3618.35	0.8223
3627.12	0.822
3635.88	0.821
3644.65	0.819
3653.42	0.818
3662.18	0.8178
3670.95	0.815
3679.72	0.814
3688.49	0.811
3697.25	0.811
3706.02	0.8097
3714.79	0.8067
3723.55	0.804
3732.32	0.802
3741.09	0.8
3749.85	0.7987
3758.62	0.798
3767.39	0.796
3776.15	0.795
3784.92	0.793
3793.69	0.792
