Infrared Spectrum: BENZENEMETHANAMINE, N-PHENYLMETHYL-, HYDROCHLORIDE
Formula: C14 H16 Cl N
State: SOLID (NUJOL MULL)
Class: COBLENTZ III
Instrument: DOW KBr FOREPRISM-GRATING
Instrument parameters: BLAZED AT 3.5, 12.0, 20.0 MICRON, CHANGED AT 5.0, 7.5, 14.9 MICRON
Sampling: TRANSMISSION
Resolution: 4
Origin: DOW CHEMICAL COMPANY
1/CM	TRANSMITTANCE
451.02	1.008
459.766	1.006
468.513	1.004
477.259	0.993
486.005	0.894
494.752	0.917
503.498	1.023
512.245	1.054
520.991	1.065
529.737	1.066
538.484	1.072
547.23	1.084
555.976	1.081
564.723	1.078
573.469	1.073
582.215	1.055
590.962	0.963
599.708	1.019
608.455	1.069
617.201	1.067
625.947	1.069
634.694	1.074
643.44	1.073
652.186	1.069
660.933	1.058
669.679	1.048
678.425	1.043
687.172	1.013
695.918	0.889
704.665	0.16
713.411	0.959
722.157	0.94
730.904	0.937
739.65	0.801
748.396	0.076
757.143	0.625
765.889	1
774.635	1.017
783.382	1.023
792.128	1.017
800.875	1.002
809.621	0.974
818.367	0.945
827.114	0.9
835.86	0.998
844.606	1.012
853.353	0.941
862.099	0.956
870.846	1.019
879.592	1.024
888.338	1.02
897.085	1.02
905.831	1.014
914.577	1.002
923.324	0.908
932.07	0.983
940.816	1.002
949.563	1.001
958.309	0.995
967.056	0.968
975.802	0.869
984.548	0.774
993.295	0.933
1002.04	0.959
1010.79	0.881
1019.53	0.976
1028.28	0.948
1037.03	0.932
1045.77	0.945
1054.52	0.99
1063.27	0.982
1072.01	0.971
1080.76	0.967
1089.5	0.93
1098.25	0.975
1107	0.991
1115.74	0.993
1124.49	1.004
1133.24	1.002
1141.98	0.989
1150.73	0.987
1159.48	0.991
1168.22	0.997
1176.97	0.99
1185.71	0.994
1194.46	0.998
1203.21	1.001
1211.95	0.941
1220.7	0.877
1229.45	1.013
1238.19	1.017
1246.94	1.01
1255.69	0.998
1264.43	0.983
1273.18	0.978
1281.92	0.959
1290.67	0.933
1299.42	0.96
1308.16	0.952
1316.91	0.949
1325.66	0.953
1334.4	0.938
1343.15	0.9
1351.9	0.9
1360.64	0.9
1369.39	0.816
1378.13	0.642
1386.88	0.82
1395.63	0.922
1404.37	0.888
1413.12	0.875
1421.87	0.797
1430.61	0.528
1439.36	0.639
1448.11	0.555
1456.85	0.266
1465.6	0.286
1474.34	0.661
1483.09	0.858
1491.84	0.857
1500.58	0.737
1509.33	0.91
1518.08	0.913
1526.82	0.915
1535.57	0.913
1544.32	0.889
1553.06	0.832
1561.81	0.661
1570.55	0.442
1579.3	0.675
1588.05	0.877
1596.79	0.967
1605.54	0.979
1614.29	1.002
1623.03	1.005
1631.78	1.019
1640.53	1.031
1649.27	1.016
1658.02	0.995
1666.76	1.001
1675.51	0.99
1684.26	1.001
1693	1.005
1701.75	0.998
1710.5	1.002
1719.24	1.004
1727.99	1.001
1736.74	0.997
1745.48	1.001
1754.23	1
1762.97	0.995
1771.72	0.986
1780.47	0.991
1789.21	0.99
1797.96	0.99
1806.71	0.985
1815.45	0.976
1824.2	0.975
1832.95	0.987
1841.69	0.995
1850.44	1
1859.18	1
1867.93	0.997
1876.68	0.998
1885.42	0.987
1894.17	0.975
1902.92	0.972
1911.66	0.985
1920.41	0.995
1929.16	0.998
1937.9	0.997
1946.65	0.989
1955.39	0.956
1964.14	0.978
1972.89	0.994
1981.63	0.993
1990.38	0.995
1999.13	0.994
2007.87	0.983
2016.62	0.985
2025.37	0.979
2034.11	0.988
2042.86	0.99
2051.6	0.9865
2060.35	0.985
2069.1	0.98
2077.84	0.98
2086.59	0.979
2095.34	0.976
2104.08	0.9772
2112.83	0.979
2121.58	0.98
2130.32	0.98
2139.07	0.978
2147.81	0.978
2156.56	0.9767
2165.31	0.975
2174.05	0.975
2182.8	0.975
2191.55	0.974
2200.29	0.9713
2209.04	0.97
2217.79	0.966
2226.53	0.961
2235.28	0.963
2244.02	0.9593
2252.77	0.959
2261.52	0.959
2270.26	0.959
2279.01	0.956
2287.76	0.9523
2296.5	0.952
2305.25	0.9455
2314	0.9292
2322.74	0.9219
2331.49	0.9115
2340.23	0.869
2348.98	0.8784
2357.73	0.8808
2366.47	0.8584
2375.22	0.8148
2383.97	0.7865
2392.71	0.7942
2401.46	0.8367
2410.21	0.8597
2418.95	0.8603
2427.7	0.847
2436.44	0.8675
2445.19	0.8867
2453.94	0.891
2462.68	0.889
2471.43	0.8853
2480.18	0.8773
2488.92	0.8654
2497.67	0.8501
2506.42	0.845
2515.16	0.843
2523.91	0.8361
2532.65	0.8311
2541.4	0.8241
2550.15	0.8151
2558.89	0.7881
2567.64	0.7601
2576.39	0.7142
2585.13	0.6392
2593.88	0.5311
2602.63	0.536
2611.37	0.6102
2620.12	0.7011
2628.86	0.725
2637.61	0.726
2646.36	0.7049
2655.1	0.6575
2663.85	0.644
2672.6	0.6408
2681.34	0.6175
2690.09	0.5794
2698.84	0.5304
2707.58	0.4933
2716.33	0.4128
2725.07	0.37
2733.82	0.3384
2742.57	0.3368
2751.31	0.419
2760.06	0.4
2768.81	0.402
2777.55	0.3547
2786.3	0.247
2795.05	0.2573
2803.79	0.3493
2812.54	0.477
2821.28	0.5266
2830.03	0.474
2838.78	0.2672
2847.52	0.063
2856.27	0.039
2865.02	0.0622
2873.76	0.0834
2882.51	0.0808
2891.26	0.0461
2900	0.0215
2908.75	0.0097
2917.49	0.0083
2926.24	0.01
2934.99	0.0145
2943.73	0.0197
2952.48	0.0216
2961.23	0.0339
2969.97	0.0882
2978.72	0.257
2987.47	0.3449
2996.21	0.398
3004.96	0.487
3013.7	0.5592
3022.45	0.6043
3031.2	0.607
3039.94	0.5595
3048.69	0.6486
3057.44	0.6859
3066.18	0.6444
3074.93	0.7566
3083.68	0.7896
3092.42	0.771
3101.17	0.8339
3109.91	0.8454
3118.66	0.861
3127.41	0.869
3136.15	0.8724
3144.9	0.885
3153.65	0.8945
3162.39	0.9009
3171.14	0.9035
3179.89	0.912
3188.63	0.918
3197.38	0.922
3206.12	0.9255
3214.87	0.932
3223.62	0.9365
3232.36	0.94
3241.11	0.9405
3249.86	0.9431
3258.6	0.9461
3267.35	0.948
3276.1	0.9474
3284.84	0.947
3293.59	0.947
3302.33	0.948
3311.08	0.9474
3319.83	0.9458
3328.57	0.944
3337.32	0.942
3346.07	0.944
3354.81	0.9404
3363.56	0.9446
3372.31	0.948
3381.05	0.9474
3389.8	0.947
3398.54	0.9477
3407.29	0.949
3416.04	0.945
3424.78	0.9413
3433.53	0.937
3442.28	0.933
3451.02	0.933
3459.77	0.936
3468.52	0.934
3477.26	0.93
3486.01	0.932
3494.75	0.933
3503.5	0.9332
3512.25	0.932
3520.99	0.929
3529.74	0.9315
3538.49	0.932
3547.23	0.929
3555.98	0.927
3564.73	0.926
3573.47	0.925
3582.22	0.9234
3590.96	0.922
3599.71	0.9193
3608.46	0.917
3617.2	0.9142
3625.95	0.914
3634.7	0.913
3643.44	0.911
3652.19	0.913
3660.94	0.917
3669.68	0.9171
3678.43	0.914
3687.17	0.9168
3695.92	0.915
3704.67	0.913
3713.41	0.911
3722.16	0.9101
3730.91	0.91
3739.65	0.9081
3748.4	0.908
3757.15	0.908
3765.89	0.906
