Infrared Spectrum: 1,3-PROPANEDIAMINE, N-(3-BROMO-2-HYDROXYPROPYL)-, DIHYDROBROMIDE
Formula: C6 H17 Br3 N2 O
State: SOLID (1 mg / 500 mg KBr DISC)
Class: COBLENTZ III
Instrument: PERKIN-ELMER 621
Sampling: TRANSMISSION
Resolution: 4
Origin: SOUTHERN RESEARCH INSTITUTE
1/CM	TRANSMITTANCE
275.726	0.083
286.271	0.1249
296.816	0.2579
307.36	0.2819
317.905	0.3327
328.45	0.4118
338.995	0.5014
349.54	0.5847
360.085	0.6357
370.629	0.6727
381.174	0.7077
391.719	0.727
402.264	0.7241
412.809	0.718
423.354	0.771
433.898	0.7661
444.443	0.7532
454.988	0.7142
465.533	0.6088
476.078	0.4663
486.623	0.6725
497.167	0.8371
507.712	0.8505
518.257	0.8265
528.802	0.8032
539.347	0.7922
549.892	0.7702
560.436	0.7307
570.981	0.6192
581.526	0.742
592.071	0.7472
602.616	0.812
613.16	0.8619
623.705	0.876
634.25	0.887
644.795	0.8795
655.34	0.8376
665.885	0.6983
676.429	0.9329
686.974	0.9687
697.519	0.968
708.064	0.965
718.609	0.9546
729.154	0.9376
739.698	0.8393
750.243	0.814
760.788	0.9361
771.333	0.9723
781.878	0.9567
792.423	0.94
802.967	0.9101
813.512	0.8553
824.057	0.8764
834.602	0.8027
845.147	0.7055
855.691	0.8575
866.236	0.8912
876.781	0.8682
887.326	0.8339
897.871	0.6629
908.416	0.6808
918.96	0.5246
929.505	0.6762
940.05	0.8616
950.595	0.922
961.14	0.9074
971.685	0.8733
982.229	0.802
992.774	0.7798
1003.32	0.7224
1013.86	0.611
1024.41	0.699
1034.95	0.5382
1045.5	0.7655
1056.04	0.6454
1066.59	0.6631
1077.13	0.677
1087.68	0.4526
1098.22	0.6856
1108.77	0.832
1119.31	0.8055
1129.86	0.7139
1140.4	0.5738
1150.95	0.6222
1161.49	0.8015
1172.04	0.856
1182.58	0.8672
1193.13	0.8438
1203.67	0.7694
1214.22	0.6629
1224.76	0.758
1235.31	0.7825
1245.85	0.8236
1256.39	0.7619
1266.94	0.682
1277.48	0.7285
1288.03	0.7436
1298.57	0.5348
1309.12	0.6369
1319.66	0.6836
1330.21	0.6399
1340.75	0.6606
1351.3	0.709
1361.84	0.5702
1372.39	0.4376
1382.93	0.6508
1393.48	0.613
1404.02	0.4466
1414.57	0.6982
1425.11	0.6514
1435.66	0.5769
1446.2	0.4262
1456.75	0.378
1467.29	0.6256
1477.84	0.5682
1488.38	0.4281
1498.93	0.8109
1509.47	0.8977
1520.02	0.91
1530.56	0.8943
1541.11	0.8488
1551.65	0.7733
1562.19	0.761
1572.74	0.7002
1583.28	0.5293
1593.83	0.5887
1604.37	0.6954
1614.92	0.7882
1625.46	0.7952
1636.01	0.8183
1646.55	0.8462
1657.1	0.8742
1667.64	0.9041
1678.19	0.905
1688.73	0.904
1699.28	0.909
1709.82	0.916
1720.37	0.922
1730.91	0.919
1741.46	0.916
1752	0.91
1762.55	0.91
1773.09	0.91
1783.64	0.905
1794.18	0.901
1804.73	0.897
1815.27	0.898
1825.82	0.896
1836.36	0.892
1846.91	0.884
1857.45	0.877
1867.99	0.8701
1878.54	0.8632
1889.08	0.846
1899.63	0.8448
1910.17	0.8488
1920.72	0.8509
1931.26	0.853
1941.81	0.853
1952.35	0.8559
1962.9	0.86
1973.44	0.862
1983.99	0.8657
1994.53	0.87
2005.08	0.8962
2015.62	0.902
2026.17	0.905
2036.71	0.905
2047.26	0.8983
2057.8	0.8933
2068.35	0.8893
2078.89	0.8871
2089.44	0.887
2099.98	0.887
2110.53	0.8832
2121.07	0.8761
2131.62	0.872
2142.16	0.867
2152.71	0.86
2163.25	0.8552
2173.79	0.855
2184.34	0.853
2194.88	0.847
2205.43	0.845
2215.97	0.838
2226.52	0.8321
2237.06	0.8224
2247.61	0.82
2258.15	0.8093
2268.7	0.8
2279.24	0.7973
2289.79	0.796
2300.33	0.7803
2310.88	0.767
2321.42	0.7612
2331.97	0.7441
2342.51	0.7291
2353.06	0.7193
2363.6	0.6992
2374.15	0.6942
2384.69	0.6698
2395.24	0.6212
2405.78	0.6145
2416.33	0.64
2426.87	0.6272
2437.42	0.6327
2447.96	0.654
2458.51	0.6505
2469.05	0.6313
2479.59	0.6062
2490.14	0.5698
2500.68	0.5562
2511.23	0.5657
2521.77	0.587
2532.32	0.5862
2542.86	0.5783
2553.41	0.5643
2563.95	0.5482
2574.5	0.5116
2585.04	0.503
2595.59	0.501
2606.13	0.4823
2616.68	0.4506
2627.22	0.4313
2637.77	0.4109
2648.31	0.3885
2658.86	0.3723
2669.4	0.3542
2679.95	0.3393
2690.49	0.3332
2701.04	0.2958
2711.58	0.2829
2722.13	0.3291
2732.67	0.3138
2743.22	0.2838
2753.76	0.274
2764.31	0.275
2774.85	0.279
2785.39	0.2792
2795.94	0.274
2806.48	0.2895
2817.03	0.3079
2827.57	0.3073
2838.12	0.279
2848.66	0.2612
2859.21	0.2647
2869.75	0.2593
2880.3	0.2452
2890.84	0.2256
2901.39	0.2078
2911.93	0.1926
2922.48	0.178
2933.02	0.1878
2943.57	0.1988
2954.11	0.207
2964.66	0.216
2975.2	0.2082
2985.75	0.2
2996.29	0.202
3006.84	0.2115
3017.38	0.227
3027.93	0.229
3038.47	0.23
3049.02	0.2355
3059.56	0.2454
3070.11	0.2645
3080.65	0.28
3091.19	0.28
3101.74	0.286
3112.28	0.2918
3122.83	0.296
3133.37	0.2921
3143.92	0.2902
3154.46	0.2805
3165.01	0.2702
3175.55	0.2513
3186.1	0.2336
3196.64	0.227
3207.19	0.223
3217.73	0.227
3228.28	0.2444
3238.82	0.2694
3249.37	0.3024
3259.91	0.3409
3270.46	0.3672
3281	0.3975
3291.55	0.4286
3302.09	0.4607
3312.64	0.4817
3323.18	0.4957
3333.73	0.5001
3344.27	0.4943
3354.82	0.488
3365.36	0.4762
3375.91	0.475
3386.45	0.4787
3396.99	0.4837
3407.54	0.4928
3418.08	0.5085
3428.63	0.5197
3439.17	0.5377
3449.72	0.5555
3460.26	0.5725
3470.81	0.5887
3481.35	0.6018
3491.9	0.6229
3502.44	0.6394
3512.99	0.6577
3523.53	0.6805
3534.08	0.7088
3544.62	0.7362
3555.17	0.7627
3565.71	0.7814
3576.26	0.8065
3586.8	0.8294
3597.35	0.8496
3607.89	0.8717
3618.44	0.8927
3628.98	0.9131
3639.53	0.921
3650.07	0.9299
3660.62	0.9256
3671.16	0.909
3681.71	0.9218
3692.25	0.938
3702.79	0.938
3713.34	0.9372
3723.88	0.933
3734.43	0.9222
3744.97	0.9218
3755.52	0.931
3766.06	0.93
3776.61	0.927
3787.15	0.9193
3797.7	0.9143
3808.24	0.9122
3818.79	0.9099
3829.33	0.9042
3839.88	0.9063
3850.42	0.8888
3860.97	0.893
3871.51	0.895
3882.06	0.892
3892.6	0.8893
3903.15	0.892
3913.69	0.889
3924.24	0.889
3934.78	0.889
3945.33	0.885
3955.87	0.883
3966.42	0.88
3976.96	0.88
3987.51	0.88
3998.05	0.88
