Infrared Spectrum: DEUTERIUM OXIDE
Formula: D2 O
State: LIQUID (NEAT)
Class: COBLENTZ III
Instrument: BECKMAN IR-9 (GRATING)
Instrument parameters: ORDER CHANGES AT 670, 1200, 2000 CM^-^1
Sampling: TRANSMISSION
Path length: 0.005 CM, BaF2 CELL
Resolution: 4
Origin: DOW CHEMICAL COMPANY
1/CM	TRANSMITTANCE
699.782	0.001
707.625	0
715.468	0
723.311	0
731.155	0
738.998	0
746.841	0
754.684	0.001
762.527	0.008
770.37	0.01
778.214	0.015
786.057	0.019
793.9	0.027
801.743	0.035
809.586	0.042
817.429	0.049
825.272	0.06
833.116	0.065
840.959	0.077
848.802	0.086
856.645	0.093
864.488	0.101
872.331	0.108
880.174	0.117
888.018	0.123
895.861	0.139
903.704	0.143
911.547	0.153
919.39	0.157
927.233	0.158
935.077	0.162
942.92	0.165
950.763	0.172
958.606	0.172
966.449	0.176
974.292	0.18
982.135	0.183
989.979	0.183
997.822	0.184
1005.66	0.186
1013.51	0.188
1021.35	0.188
1029.19	0.188
1037.04	0.188
1044.88	0.188
1052.72	0.184
1060.57	0.184
1068.41	0.181
1076.25	0.179
1084.1	0.172
1091.94	0.172
1099.78	0.165
1107.63	0.158
1115.47	0.147
1123.31	0.139
1131.16	0.124
1139	0.101
1146.84	0.084
1154.68	0.067
1162.53	0.045
1170.37	0.032
1178.21	0.017
1186.06	0.012
1193.9	0.009
1201.74	0.008
1209.59	0.004
1217.43	0.002
1225.27	0.001
1233.12	0.001
1240.96	0.001
1248.8	0.009
1256.65	0.032
1264.49	0.079
1272.33	0.157
1280.18	0.216
1288.02	0.274
1295.86	0.337
1303.7	0.383
1311.55	0.424
1319.39	0.456
1327.23	0.482
1335.08	0.503
1342.92	0.528
1350.76	0.537
1358.61	0.552
1366.45	0.562
1374.29	0.564
1382.14	0.564
1389.98	0.57
1397.82	0.564
1405.67	0.56
1413.51	0.549
1421.35	0.547
1429.2	0.518
1437.04	0.503
1444.88	0.484
1452.72	0.467
1460.57	0.462
1468.41	0.435
1476.25	0.426
1484.1	0.407
1491.94	0.406
1499.78	0.4
1507.63	0.396
1515.47	0.378
1523.31	0.378
1531.16	0.363
1539	0.361
1546.84	0.362
1554.69	0.347
1562.53	0.348
1570.37	0.348
1578.22	0.355
1586.06	0.354
1593.9	0.366
1601.74	0.38
1609.59	0.389
1617.43	0.406
1625.27	0.415
1633.12	0.421
1640.96	0.441
1648.8	0.458
1656.65	0.481
1664.49	0.488
1672.33	0.506
1680.18	0.515
1688.02	0.548
1695.86	0.558
1703.71	0.584
1711.55	0.592
1719.39	0.615
1727.23	0.625
1735.08	0.645
1742.92	0.658
1750.76	0.662
1758.61	0.675
1766.45	0.69
1774.29	0.709
1782.14	0.714
1789.98	0.723
1797.82	0.737
1805.67	0.749
1813.51	0.763
1821.35	0.768
1829.2	0.786
1837.04	0.793
1844.88	0.807
1852.73	0.812
1860.57	0.822
1868.41	0.83
1876.25	0.831
1884.1	0.838
1891.94	0.848
1899.78	0.85
1907.63	0.852
1915.47	0.852
1923.31	0.852
1931.16	0.852
1939	0.85
1946.84	0.85
1954.69	0.844
1962.53	0.835
1970.37	0.83
1978.22	0.82
1986.06	0.812
1993.9	0.798
2001.75	0.79
2009.59	0.762
2017.43	0.744
2025.27	0.7225
2033.12	0.701
2040.96	0.684
2048.8	0.662
2056.65	0.6435
2064.49	0.616
2072.33	0.5925
2080.18	0.569
2088.02	0.5439
2095.86	0.515
2103.71	0.4834
2111.55	0.4648
2119.39	0.4255
2127.24	0.387
2135.08	0.3504
2142.92	0.3206
2150.77	0.2864
2158.61	0.2569
2166.45	0.2234
2174.29	0.1949
2182.14	0.1639
2189.98	0.1449
2197.82	0.1137
2205.67	0.0909
2213.51	0.0718
2221.35	0.0608
2229.2	0.0465
2237.04	0.032
2244.88	0.0273
2252.73	0.0209
2260.57	0.0155
2268.41	0.012
2276.26	0.012
2284.1	0.009
2291.94	0.009
2299.79	0.008
2307.63	0.0085
2315.47	0.008
2323.31	0.0085
2331.16	0.012
2339	0.017
2346.84	0.019
2354.69	0.019
2362.53	0.0231
2370.37	0.03
2378.22	0.0299
2386.06	0.0154
2393.9	0.012
2401.75	0.0094
2409.59	0.008
2417.43	0.008
2425.28	0.008
2433.12	0.005
2440.96	0.008
2448.8	0.008
2456.65	0.008
2464.49	0.006
2472.33	0.0059
2480.18	0.005
2488.02	0.005
2495.86	0.008
2503.71	0.005
2511.55	0.005
2519.39	0.004
2527.24	0.004
2535.08	0.004
2542.92	0.005
2550.77	0.0061
2558.61	0.006
2566.45	0.0049
2574.3	0.004
2582.14	0.004
2589.98	0.004
2597.82	0.004
2605.67	0.004
2613.51	0.004
2621.35	0.004
2629.2	0.004
2637.04	0.002
2644.88	0.001
2652.73	0.0016
2660.57	0.0041
2668.41	0.006
2676.26	0.008
2684.1	0.008
2691.94	0.008
2699.79	0.006
2707.63	0.006
2715.47	0.006
2723.32	0.006
2731.16	0.006
2739	0.0081
2746.84	0.0304
2754.69	0.0827
2762.53	0.1798
2770.37	0.256
2778.22	0.3276
2786.06	0.3882
2793.9	0.4357
2801.75	0.4702
2809.59	0.5116
2817.43	0.5383
2825.28	0.5695
2833.12	0.5882
2840.96	0.6025
2848.81	0.6273
2856.65	0.6392
2864.49	0.6533
2872.34	0.6655
2880.18	0.6771
2888.02	0.6875
2895.86	0.6992
2903.71	0.7086
2911.55	0.7141
2919.39	0.718
2927.24	0.718
2935.08	0.723
2942.92	0.7304
2950.77	0.7389
2958.61	0.7464
2966.45	0.759
2974.3	0.7631
2982.14	0.7759
2989.98	0.7853
2997.83	0.796
3005.67	0.8124
3013.51	0.8306
3021.36	0.8375
3029.2	0.8486
3037.04	0.8573
3044.88	0.8696
3052.73	0.8824
3060.57	0.891
3068.41	0.9011
3076.26	0.9086
3084.1	0.9153
3091.94	0.9213
3099.79	0.926
3107.63	0.931
3115.47	0.9382
3123.32	0.944
3131.16	0.9503
3139	0.954
3146.85	0.957
3154.69	0.9623
3162.53	0.9642
3170.37	0.967
3178.22	0.9682
3186.06	0.972
3193.9	0.974
3201.75	0.975
3209.59	0.975
3217.43	0.975
3225.28	0.969
3233.12	0.969
3240.96	0.9667
3248.81	0.9603
3256.65	0.953
3264.49	0.9453
3272.34	0.9386
3280.18	0.9313
3288.02	0.9198
3295.87	0.9113
3303.71	0.9008
3311.55	0.894
3319.39	0.8863
3327.24	0.8703
3335.08	0.8579
3342.92	0.8456
3350.77	0.8364
3358.61	0.8246
3366.45	0.8146
3374.3	0.8076
3382.14	0.7992
3389.98	0.7923
3397.83	0.786
3405.67	0.7823
3413.51	0.778
3421.36	0.7773
3429.2	0.7754
3437.04	0.778
3444.89	0.7782
3452.73	0.7841
3460.57	0.7904
3468.41	0.7937
3476.26	0.801
3484.1	0.8098
3491.94	0.8196
3499.79	0.8288
3507.63	0.84
3515.47	0.8511
3523.32	0.8608
3531.16	0.8748
3539	0.8831
3546.85	0.8977
3554.69	0.9064
3562.53	0.9117
3570.38	0.9199
3578.22	0.926
3586.06	0.9342
3593.91	0.9489
3601.75	0.9532
3609.59	0.954
3617.43	0.9672
3625.28	0.969
3633.12	0.9752
3640.96	0.98
3648.81	0.979
3656.65	0.9925
3664.49	0.9898
3672.34	0.9897
3680.18	0.9965
3688.02	0.9833
3695.87	0.979
3703.71	0.9683
3711.55	0.968
3719.4	0.9569
3727.24	0.9482
3735.08	0.9435
3742.93	0.9365
3750.77	0.928
3758.61	0.9194
3766.45	0.8983
3774.3	0.889
3782.14	0.8705
3789.98	0.8543
3797.83	0.838
