Infrared Spectrum: 7-OXABICYCLO[4.1.0]HEPTANE, OXIRANYL-
Formula: C8 H12 O2
State: LIQUID (NEAT)
Class: COBLENTZ III
Instrument: PERKIN-ELMER 521 (GRATING)
Instrument parameters: FILTERS AT 3150, 2500, 2000, 1150, 700, 410 AND GRATING CHANGES AT 2000, 630 CM^-^1
Sampling: TRANSMISSION
Path length: 0.0015 CM KBr CELL
Resolution: 4
Origin: STANDARD OIL OF OHIO
1/CM	TRANSMITTANCE
378.74	0.626
388.288	0.678
397.836	0.679
407.384	0.7
416.932	0.833
426.48	0.855
436.029	0.871
445.577	0.859
455.125	0.813
464.673	0.771
474.221	0.739
483.769	0.71
493.317	0.897
502.865	0.921
512.413	0.928
521.961	0.922
531.51	0.873
541.058	0.78
550.606	0.904
560.154	0.914
569.702	0.889
579.25	0.928
588.798	0.951
598.346	0.955
607.894	0.963
617.442	0.971
626.991	0.978
636.539	0.98
646.087	0.946
655.635	0.951
665.183	0.959
674.731	0.983
684.279	0.976
693.827	0.971
703.375	0.976
712.923	0.97
722.472	0.94
732.02	0.834
741.568	0.65
751.116	0.808
760.664	0.822
770.212	0.7339
779.76	0.4079
789.308	0.321
798.856	0.622
808.404	0.297
817.953	0.6021
827.501	0.773
837.049	0.5899
846.597	0.271
856.145	0.247
865.693	0.363
875.241	0.4071
884.789	0.707
894.337	0.625
903.885	0.6769
913.434	0.563
922.982	0.509
932.53	0.678
942.078	0.682
951.626	0.751
961.174	0.713
970.722	0.498
980.27	0.648
989.818	0.5641
999.366	0.801
1008.91	0.822
1018.46	0.851
1028.01	0.81
1037.56	0.765
1047.11	0.772
1056.65	0.869
1066.2	0.842
1075.75	0.875
1085.3	0.897
1094.85	0.894
1104.4	0.841
1113.94	0.811
1123.49	0.769
1133.04	0.753
1142.59	0.776
1152.14	0.83
1161.68	0.826
1171.23	0.817
1180.78	0.884
1190.33	0.909
1199.88	0.897
1209.42	0.853
1218.97	0.81
1228.52	0.828
1238.07	0.6519
1247.62	0.561
1257.17	0.55
1266.71	0.764
1276.26	0.841
1285.81	0.848
1295.36	0.795
1304.91	0.898
1314.45	0.911
1324	0.883
1333.55	0.771
1343.1	0.758
1352.65	0.742
1362.19	0.816
1371.74	0.867
1381.29	0.878
1390.84	0.825
1400.39	0.692
1409.93	0.6749
1419.48	0.5709
1429.03	0.364
1438.58	0.5001
1448.13	0.596
1457.68	0.7731
1467.22	0.802
1476.77	0.636
1486.32	0.817
1495.87	0.895
1505.42	0.926
1514.96	0.938
1524.51	0.944
1534.06	0.942
1543.61	0.945
1553.16	0.941
1562.7	0.94
1572.25	0.932
1581.8	0.926
1591.35	0.925
1600.9	0.922
1610.44	0.926
1619.99	0.921
1629.54	0.92
1639.09	0.932
1648.64	0.939
1658.19	0.94
1667.73	0.944
1677.28	0.947
1686.83	0.948
1696.38	0.942
1705.93	0.938
1715.47	0.921
1725.02	0.904
1734.57	0.913
1744.12	0.948
1753.67	0.952
1763.21	0.951
1772.76	0.948
1782.31	0.951
1791.86	0.953
1801.41	0.953
1810.95	0.955
1820.5	0.957
1830.05	0.955
1839.6	0.959
1849.15	0.957
1858.7	0.957
1868.24	0.958
1877.79	0.957
1887.34	0.957
1896.89	0.957
1906.44	0.955
1915.98	0.954
1925.53	0.952
1935.08	0.952
1944.63	0.951
1954.18	0.951
1963.72	0.953
1973.27	0.952
1982.82	0.952
1992.37	0.95
2001.92	0.954
2011.46	0.957
2021.01	0.957
2030.56	0.954
2040.11	0.953
2049.66	0.952
2059.21	0.953
2068.75	0.952
2078.3	0.9501
2087.85	0.951
2097.4	0.952
2106.95	0.953
2116.49	0.953
2126.04	0.9539
2135.59	0.953
2145.14	0.952
2154.69	0.948
2164.23	0.948
2173.78	0.9454
2183.33	0.945
2192.88	0.944
2202.43	0.942
2211.97	0.9402
2221.52	0.9393
2231.07	0.9397
2240.62	0.9383
2250.17	0.936
2259.72	0.935
2269.26	0.9347
2278.81	0.935
2288.36	0.935
2297.91	0.938
2307.46	0.95
2317	0.952
2326.55	0.9536
2336.1	0.955
2345.65	0.951
2355.2	0.954
2364.74	0.9524
2374.29	0.954
2383.84	0.9474
2393.39	0.95
2402.94	0.95
2412.48	0.949
2422.03	0.951
2431.58	0.95
2441.13	0.951
2450.68	0.9505
2460.23	0.9516
2469.77	0.948
2479.32	0.9491
2488.87	0.948
2498.42	0.945
2507.97	0.946
2517.51	0.947
2527.06	0.948
2536.61	0.948
2546.16	0.9476
2555.71	0.947
2565.25	0.95
2574.8	0.948
2584.35	0.945
2593.9	0.9434
2603.45	0.9407
2612.99	0.942
2622.54	0.9415
2632.09	0.941
2641.64	0.941
2651.19	0.9388
2660.74	0.9343
2670.28	0.928
2679.83	0.9282
2689.38	0.932
2698.93	0.9316
2708.48	0.93
2718.02	0.933
2727.57	0.933
2737.12	0.93
2746.67	0.928
2756.22	0.9248
2765.76	0.9199
2775.31	0.915
2784.86	0.9079
2794.41	0.8999
2803.96	0.8896
2813.51	0.8638
2823.05	0.8255
2832.6	0.7032
2842.15	0.5658
2851.7	0.542
2861.25	0.552
2870.79	0.592
2880.34	0.5544
2889.89	0.5042
2899.44	0.4027
2908.99	0.2794
2918.53	0.1889
2928.08	0.1815
2937.63	0.2267
2947.18	0.3325
2956.73	0.391
2966.27	0.3646
2975.82	0.3218
2985.37	0.2983
2994.92	0.3196
3004.47	0.4413
3014.02	0.5894
3023.56	0.7107
3033.11	0.7424
3042.66	0.7047
3052.21	0.7056
3061.76	0.7835
3071.3	0.8655
3080.85	0.9015
3090.4	0.9207
3099.95	0.9294
3109.5	0.9337
3119.04	0.9397
3128.59	0.9434
3138.14	0.9477
3147.69	0.95
3157.24	0.951
3166.78	0.9516
3176.33	0.9526
3185.88	0.953
3195.43	0.953
3204.98	0.952
3214.53	0.952
3224.07	0.952
3233.62	0.951
3243.17	0.951
3252.72	0.951
3262.27	0.9505
3271.81	0.9505
3281.36	0.951
3290.91	0.951
3300.46	0.951
3310.01	0.95
3319.55	0.95
3329.1	0.95
3338.65	0.95
3348.2	0.948
3357.75	0.948
3367.29	0.946
3376.84	0.945
3386.39	0.942
3395.94	0.9416
3405.49	0.9386
3415.04	0.935
3424.58	0.934
3434.13	0.9313
3443.68	0.9257
3453.23	0.921
3462.78	0.9157
3472.32	0.9097
3481.87	0.9047
3491.42	0.9017
3500.97	0.897
3510.52	0.896
3520.06	0.897
3529.61	0.9
3539.16	0.9012
3548.71	0.904
3558.26	0.905
3567.8	0.908
3577.35	0.903
3586.9	0.901
3596.45	0.901
3606	0.9071
3615.55	0.909
3625.09	0.9134
3634.64	0.92
3644.19	0.9272
3653.74	0.9381
3663.29	0.9402
3672.83	0.951
3682.38	0.953
3691.93	0.955
3701.48	0.954
3711.03	0.952
3720.57	0.951
3730.12	0.947
3739.67	0.947
3749.22	0.948
3758.77	0.95
3768.31	0.947
3777.86	0.9479
3787.41	0.948
3796.96	0.9509
3806.51	0.9512
3816.06	0.95
3825.6	0.9518
3835.15	0.9529
3844.7	0.9522
3854.25	0.95
3863.8	0.952
3873.34	0.954
3882.89	0.9522
3892.44	0.9512
3901.99	0.951
3911.54	0.952
3921.08	0.9518
3930.63	0.952
3940.18	0.9527
3949.73	0.952
3959.28	0.953
3968.82	0.953
3978.37	0.953
3987.92	0.955
