Infrared Spectrum: 1,2-BENZENEDICARBOXYLIC ACID, (HEPTYL, NONYL)- PHENYLMETHYL ESTER
Formula: C22-24 H26-30 O4
State: SOLUTION (10% IN CCl4 FOR 4000-1300, AND 10% IN CS2 FOR 1300-420 CM^-^1) VS. SOLVENT
Class: COBLENTZ III
Instrument: PERKIN-ELMER 180
Sampling: TRANSMISSION
Path length: 0.011, 0.011 CM
Resolution: 4
Origin: DOW CHEMICAL COMPANY
1/CM	TRANSMITTANCE
419.265	0.888
428.391	0.906
437.516	0.906
446.642	0.899
455.767	0.882
464.893	0.87
474.018	0.852
483.144	0.863
492.269	0.894
501.395	0.903
510.52	0.902
519.646	0.896
528.771	0.88
537.897	0.876
547.022	0.863
556.148	0.803
565.273	0.848
574.399	0.871
583.524	0.838
592.65	0.836
601.775	0.863
610.901	0.92
620.026	0.923
629.152	0.922
638.277	0.899
647.403	0.797
656.528	0.895
665.654	0.889
674.779	0.843
683.905	0.739
693.03	0.257
702.156	0.4449
711.281	0.673
720.407	0.5211
729.532	0.2501
738.658	0.135
747.783	0.276
756.909	0.609
766.034	0.684
775.16	0.696
784.285	0.698
793.411	0.717
802.536	0.809
811.662	0.835
820.787	0.836
829.913	0.851
839.038	0.846
848.164	0.836
857.289	0.831
866.415	0.83
875.54	0.806
884.666	0.781
893.791	0.79
902.917	0.726
912.042	0.7529
921.168	0.8
930.293	0.777
939.419	0.693
948.544	0.61
957.67	0.552
966.795	0.596
975.921	0.672
985.046	0.72
994.172	0.767
1003.3	0.779
1012.42	0.777
1021.55	0.712
1030.67	0.592
1039.8	0.4961
1048.92	0.654
1058.05	0.3488
1067.18	0.11
1076.3	0.3099
1085.43	0.645
1094.55	0.655
1103.68	0.437
1112.8	0.064
1121.93	0.052
1131.05	0.094
1140.18	0.3151
1149.31	0.625
1158.43	0.668
1167.56	0.763
1176.68	0.781
1185.81	0.783
1194.93	0.765
1204.06	0.703
1213.18	0.642
1222.31	0.613
1231.44	0.437
1240.56	0.185
1249.69	0.065
1258.81	0.016
1267.94	0.007
1277.06	0.01
1286.19	0.014
1295.31	0.095
1304.44	0.282
1313.56	0.467
1322.69	0.594
1331.82	0.653
1340.94	0.729
1350.07	0.758
1359.19	0.742
1368.32	0.573
1377.44	0.5
1386.57	0.675
1395.69	0.82
1404.82	0.849
1413.95	0.853
1423.07	0.834
1432.2	0.754
1441.32	0.5881
1450.45	0.429
1459.57	0.443
1468.7	0.61
1477.82	0.768
1486.95	0.695
1496.07	0.603
1505.2	0.851
1514.33	0.868
1523.45	0.873
1532.58	0.874
1541.7	0.878
1550.83	0.875
1559.95	0.866
1569.08	0.811
1578.2	0.645
1587.33	0.78
1596.46	0.665
1605.58	0.801
1614.71	0.851
1623.83	0.858
1632.96	0.858
1642.08	0.853
1651.21	0.845
1660.33	0.833
1669.46	0.807
1678.58	0.751
1687.71	0.675
1696.84	0.6129
1705.96	0.439
1715.09	0.076
1724.21	0.005
1733.34	0.012
1742.46	0.092
1751.59	0.4021
1760.71	0.646
1769.84	0.75
1778.97	0.812
1788.09	0.841
1797.22	0.849
1806.34	0.855
1815.47	0.875
1824.59	0.877
1833.72	0.877
1842.84	0.889
1851.97	0.893
1861.09	0.881
1870.22	0.881
1879.35	0.899
1888.47	0.902
1897.6	0.91
1906.72	0.907
1915.85	0.91
1924.97	0.904
1934.1	0.881
1943.22	0.867
1952.35	0.896
1961.48	0.89
1970.6	0.9
1979.73	0.917
1988.85	0.922
1997.98	0.922
2007.1	0.92
2016.23	0.92
2025.35	0.92
2034.48	0.92
2043.61	0.921
2052.73	0.918
2061.86	0.917
2070.98	0.916
2080.11	0.916
2089.23	0.917
2098.36	0.9185
2107.48	0.921
2116.61	0.921
2125.73	0.922
2134.86	0.92
2143.99	0.9229
2153.11	0.9236
2162.24	0.9249
2171.36	0.922
2180.49	0.9211
2189.61	0.9239
2198.74	0.9229
2207.86	0.922
2216.99	0.924
2226.12	0.922
2235.24	0.919
2244.37	0.9186
2253.49	0.9211
2262.62	0.923
2271.74	0.9211
2280.87	0.9236
2289.99	0.925
2299.12	0.923
2308.24	0.9219
2317.37	0.9194
2326.5	0.9138
2335.62	0.9132
2344.75	0.9171
2353.87	0.9186
2363	0.916
2372.12	0.919
2381.25	0.917
2390.37	0.92
2399.5	0.917
2408.63	0.9157
2417.75	0.9192
2426.88	0.923
2436	0.9262
2445.13	0.928
2454.25	0.9308
2463.38	0.932
2472.5	0.93
2481.63	0.9273
2490.75	0.9268
2499.88	0.926
2509.01	0.9228
2518.13	0.921
2527.26	0.92
2536.38	0.922
2545.51	0.9208
2554.63	0.919
2563.76	0.9188
2572.88	0.9183
2582.01	0.917
2591.14	0.9187
2600.26	0.9178
2609.39	0.915
2618.51	0.9182
2627.64	0.918
2636.76	0.919
2645.89	0.9177
2655.01	0.9148
2664.14	0.913
2673.27	0.9113
2682.39	0.9148
2691.52	0.9163
2700.64	0.9152
2709.77	0.9137
2718.89	0.9105
2728.02	0.901
2737.14	0.9036
2746.27	0.908
2755.39	0.908
2764.52	0.9067
2773.65	0.9042
2782.77	0.8994
2791.9	0.8924
2801.02	0.8801
2810.15	0.862
2819.27	0.8359
2828.4	0.7949
2837.52	0.7133
2846.65	0.4942
2855.78	0.304
2864.9	0.4338
2874.03	0.4592
2883.15	0.5299
2892.28	0.4486
2901.4	0.3906
2910.53	0.2851
2919.65	0.141
2928.78	0.1141
2937.9	0.2073
2947.03	0.2254
2956.16	0.1571
2965.28	0.2416
2974.41	0.4417
2983.53	0.6646
2992.66	0.7503
3001.78	0.7926
3010.91	0.8207
3020.03	0.8046
3029.16	0.6922
3038.29	0.7186
3047.41	0.81
3056.54	0.7664
3065.66	0.6999
3074.79	0.7631
3083.91	0.8221
3093.04	0.836
3102.16	0.8886
3111.29	0.8922
3120.41	0.9142
3129.54	0.9224
3138.67	0.923
3147.79	0.924
3156.92	0.9221
3166.04	0.921
3175.17	0.9219
3184.29	0.9294
3193.42	0.931
3202.54	0.9335
3211.67	0.936
3220.8	0.9375
3229.92	0.939
3239.05	0.941
3248.17	0.939
3257.3	0.94
3266.42	0.94
3275.55	0.941
3284.67	0.941
3293.8	0.9425
3302.92	0.941
3312.05	0.9425
3321.18	0.943
3330.3	0.9435
3339.43	0.946
3348.55	0.947
3357.68	0.947
3366.8	0.947
3375.93	0.946
3385.05	0.946
3394.18	0.947
3403.31	0.9429
3412.43	0.939
3421.56	0.9284
3430.68	0.92
3439.81	0.917
3448.93	0.9231
3458.06	0.9342
3467.18	0.9411
3476.31	0.948
3485.44	0.9511
3494.56	0.953
3503.69	0.954
3512.81	0.954
3521.94	0.953
3531.06	0.9514
3540.19	0.951
3549.31	0.95
3558.44	0.9521
3567.56	0.9546
3576.69	0.9633
3585.82	0.9572
3594.94	0.953
3604.07	0.9494
3613.19	0.949
3622.32	0.949
3631.44	0.95
3640.57	0.949
3649.69	0.944
3658.82	0.946
3667.95	0.946
3677.07	0.9427
3686.2	0.9391
3695.32	0.9426
3704.45	0.946
3713.57	0.948
3722.7	0.9492
3731.82	0.951
3740.95	0.95
3750.07	0.949
3759.2	0.95
3768.33	0.9497
3777.45	0.952
3786.58	0.953
3795.7	0.953
3804.83	0.953
3813.95	0.9502
3823.08	0.953
3832.2	0.953
3841.33	0.953
3850.46	0.953
3859.58	0.952
3868.71	0.9538
3877.83	0.953
3886.96	0.954
3896.08	0.953
3905.21	0.953
3914.33	0.951
3923.46	0.9502
3932.58	0.9527
3941.71	0.952
3950.84	0.9527
3959.96	0.954
3969.09	0.9523
3978.21	0.952
