Infrared Spectrum: ACETIC ACID, HYDROXY-, POTASSIUM SALT
Formula: C2 H3 O3 K
State: SOLID (SPLIT MULL, FLUOROLUBE FOR 3800-1330 AND NUJOL FOR 1330-400 CM ^-^1)
Class: COBLENTZ III
Instrument: DOW KBr FOREPRISM-GRATING
Instrument parameters: BLAZED AT 3.5, 12.0, 20.0 MICRON, CHANGED AT 5.0, 7.5, 14.9 MICRON
Sampling: TRANSMISSION
Resolution: 4
Origin: DOW CHEMICAL COMPANY
1/CM	TRANSMITTANCE
382.867	0.664
391.608	0.678
400.35	0.69
409.091	0.697
417.832	0.708
426.573	0.714
435.315	0.717
444.056	0.721
452.797	0.724
461.538	0.725
470.28	0.723
479.021	0.718
487.762	0.709
496.503	0.694
505.245	0.661
513.986	0.59
522.727	0.372
531.469	0.343
540.21	0.578
548.951	0.635
557.692	0.645
566.434	0.638
575.175	0.62
583.916	0.575
592.657	0.549
601.399	0.532
610.14	0.502
618.881	0.465
627.622	0.427
636.364	0.373
645.105	0.296
653.846	0.201
662.588	0.111
671.329	0.079
680.07	0.088
688.811	0.113
697.553	0.122
706.294	0.143
715.035	0.234
723.776	0.323
732.518	0.357
741.259	0.335
750	0.331
758.741	0.388
767.483	0.417
776.224	0.373
784.965	0.272
793.707	0.241
802.448	0.323
811.189	0.392
819.93	0.448
828.672	0.467
837.413	0.502
846.154	0.563
854.895	0.601
863.637	0.63
872.378	0.652
881.119	0.668
889.86	0.672
898.602	0.667
907.343	0.56
916.084	0.562
924.825	0.691
933.567	0.698
942.308	0.706
951.049	0.703
959.791	0.69
968.532	0.669
977.273	0.648
986.014	0.638
994.756	0.628
1003.5	0.594
1012.24	0.609
1020.98	0.608
1029.72	0.592
1038.46	0.548
1047.2	0.472
1055.94	0.362
1064.69	0.214
1073.43	0.084
1082.17	0.126
1090.91	0.169
1099.65	0.208
1108.39	0.59
1117.13	0.63
1125.87	0.641
1134.62	0.671
1143.36	0.687
1152.1	0.679
1160.84	0.667
1169.58	0.652
1178.32	0.631
1187.06	0.604
1195.8	0.564
1204.55	0.536
1213.29	0.514
1222.03	0.47
1230.77	0.417
1239.51	0.368
1248.25	0.263
1256.99	0.192
1265.73	0.1
1274.48	0.07
1283.22	0.081
1291.96	0.162
1300.7	0.167
1309.44	0.276
1318.18	0.347
1326.92	0.338
1335.67	0.32
1344.41	0.285
1353.15	0.234
1361.89	0.182
1370.63	0.128
1379.37	0.103
1388.11	0.098
1396.85	0.115
1405.6	0.158
1414.34	0.2
1423.08	0.188
1431.82	0.189
1440.56	0.182
1449.3	0.259
1458.04	0.212
1466.78	0.182
1475.53	0.219
1484.27	0.229
1493.01	0.222
1501.75	0.207
1510.49	0.186
1519.23	0.169
1527.97	0.145
1536.71	0.129
1545.46	0.114
1554.2	0.098
1562.94	0.077
1571.68	0.073
1580.42	0.077
1589.16	0.085
1597.9	0.095
1606.64	0.113
1615.39	0.125
1624.13	0.13
1632.87	0.158
1641.61	0.2
1650.35	0.248
1659.09	0.294
1667.83	0.361
1676.57	0.398
1685.32	0.346
1694.06	0.354
1702.8	0.477
1711.54	0.601
1720.28	0.686
1729.02	0.769
1737.76	0.832
1746.5	0.873
1755.25	0.911
1763.99	0.939
1772.73	0.96
1781.47	0.979
1790.21	0.989
1798.95	0.995
1807.69	1
1816.43	1.001
1825.18	1.008
1833.92	1.009
1842.66	1.008
1851.4	1.008
1860.14	1.006
1868.88	1.005
1877.62	1.004
1886.36	1.001
1895.11	0.998
1903.85	0.994
1912.59	0.986
1921.33	0.98
1930.07	0.976
1938.81	0.968
1947.55	0.961
1956.29	0.956
1965.04	0.949
1973.78	0.944
1982.52	0.934
1991.26	0.929
2000	0.927
2008.74	0.924
2017.48	0.918
2026.23	0.9051
2034.97	0.899
2043.71	0.8901
2052.45	0.8821
2061.19	0.8752
2069.93	0.8701
2078.67	0.8631
2087.41	0.8581
2096.16	0.851
2104.9	0.8401
2113.64	0.8331
2122.38	0.8263
2131.12	0.8155
2139.86	0.8062
2148.6	0.7992
2157.34	0.796
2166.09	0.7816
2174.83	0.7744
2183.57	0.772
2192.31	0.769
2201.05	0.7652
2209.79	0.7582
2218.53	0.7515
2227.27	0.7433
2236.02	0.7353
2244.76	0.7216
2253.5	0.7099
2262.24	0.6959
2270.98	0.6873
2279.72	0.6753
2288.46	0.6643
2297.2	0.6533
2305.95	0.6424
2314.69	0.6315
2323.43	0.6058
2332.17	0.5882
2340.91	0.587
2349.65	0.5912
2358.39	0.6232
2367.13	0.6224
2375.88	0.6108
2384.62	0.6085
2393.36	0.616
2402.1	0.62
2410.84	0.619
2419.58	0.616
2428.32	0.6105
2437.06	0.6035
2445.81	0.594
2454.55	0.5841
2463.29	0.5726
2472.03	0.5542
2480.77	0.5457
2489.51	0.5376
2498.25	0.5352
2506.99	0.5296
2515.74	0.5176
2524.48	0.5049
2533.22	0.4899
2541.96	0.4686
2550.7	0.4624
2559.44	0.472
2568.18	0.467
2576.92	0.466
2585.67	0.4587
2594.41	0.451
2603.15	0.447
2611.89	0.4449
2620.63	0.4294
2629.37	0.4102
2638.11	0.3867
2646.85	0.3728
2655.6	0.373
2664.34	0.3718
2673.08	0.3658
2681.82	0.3594
2690.56	0.3556
2699.3	0.3495
2708.04	0.3415
2716.79	0.3202
2725.53	0.305
2734.27	0.308
2743.01	0.3049
2751.75	0.3019
2760.49	0.2958
2769.23	0.2905
2777.97	0.2786
2786.72	0.266
2795.46	0.2548
2804.2	0.2368
2812.94	0.2177
2821.68	0.2161
2830.42	0.2333
2839.16	0.256
2847.9	0.259
2856.65	0.251
2865.39	0.2331
2874.13	0.2152
2882.87	0.1923
2891.61	0.1821
2900.35	0.1967
2909.09	0.2335
2917.83	0.2441
2926.58	0.234
2935.32	0.2261
2944.06	0.2211
2952.8	0.219
2961.54	0.218
2970.28	0.218
2979.02	0.215
2987.76	0.2102
2996.51	0.204
3005.25	0.1974
3013.99	0.1922
3022.73	0.188
3031.47	0.184
3040.21	0.1784
3048.95	0.1742
3057.69	0.17
3066.44	0.166
3075.18	0.16
3083.92	0.1583
3092.66	0.1553
3101.4	0.15
3110.14	0.1456
3118.88	0.1393
3127.62	0.1353
3136.37	0.13
3145.11	0.129
3153.85	0.13
3162.59	0.132
3171.33	0.1356
3180.07	0.1396
3188.81	0.1422
3197.55	0.145
3206.3	0.148
3215.04	0.1506
3223.78	0.155
3232.52	0.158
3241.26	0.163
3250	0.166
3258.74	0.1705
3267.48	0.173
3276.23	0.173
3284.97	0.1765
3293.71	0.181
3302.45	0.188
3311.19	0.1939
3319.93	0.201
3328.67	0.207
3337.41	0.2129
3346.16	0.2214
3354.9	0.225
3363.64	0.2334
3372.38	0.2404
3381.12	0.2454
3389.86	0.2538
3398.6	0.2628
3407.35	0.2784
3416.09	0.2904
3424.83	0.3063
3433.57	0.3273
3442.31	0.3436
3451.05	0.3539
3459.79	0.3662
3468.53	0.3827
3477.28	0.4024
3486.02	0.4258
3494.76	0.4543
3503.5	0.477
3512.24	0.5007
3520.98	0.5237
3529.72	0.5608
3538.46	0.588
3547.21	0.6156
3555.95	0.6427
3564.69	0.6692
3573.43	0.691
3582.17	0.7322
3590.91	0.763
3599.65	0.7886
3608.39	0.8135
3617.14	0.8334
3625.88	0.8545
3634.62	0.8734
3643.36	0.892
3652.1	0.9083
3660.84	0.9202
3669.58	0.9311
3678.32	0.938
3687.07	0.938
3695.81	0.939
3704.55	0.938
3713.29	0.937
3722.03	0.933
3730.77	0.9311
3739.51	0.929
3748.25	0.922
3757	0.918
3765.74	0.914
