Infrared Spectrum: 3,4,5-PYRIDINETRIAMINE, DIHYDROCHLORIDE
Formula: C5 H10 Cl2 N4
State: SOLID (1 mg / 650 mg KBr DISC)
Class: COBLENTZ III
Instrument: PERKIN-ELMER 521 (GRATING)
Sampling: TRANSMISSION
Resolution: 4
Origin: SOUTHERN RESEARCH INSTITUTE
1/CM	TRANSMITTANCE
253.731	0.276
264.267	0.327
274.802	0.366
285.338	0.468
295.873	0.557
306.409	0.596
316.945	0.587
327.48	0.581
338.016	0.625
348.551	0.704
359.087	0.757
369.623	0.808
380.158	0.841
390.694	0.832
401.229	0.835
411.765	0.825
422.3	0.816
432.836	0.811
443.372	0.807
453.907	0.794
464.443	0.769
474.978	0.7081
485.514	0.7179
496.05	0.717
506.585	0.646
517.121	0.621
527.656	0.606
538.192	0.603
548.728	0.6
559.263	0.599
569.799	0.634
580.334	0.646
590.87	0.7508
601.406	0.784
611.941	0.807
622.477	0.819
633.012	0.821
643.548	0.819
654.083	0.829
664.619	0.815
675.155	0.808
685.69	0.81
696.226	0.797
706.761	0.807
717.297	0.794
727.833	0.719
738.368	0.8437
748.904	0.909
759.439	0.9
769.975	0.873
780.511	0.844
791.046	0.874
801.582	0.837
812.117	0.704
822.653	0.568
833.189	0.836
843.724	0.839
854.26	0.755
864.795	0.913
875.331	0.896
885.867	0.884
896.402	0.918
906.938	0.914
917.473	0.897
928.009	0.854
938.544	0.82
949.08	0.882
959.616	0.879
970.151	0.879
980.687	0.876
991.222	0.871
1001.76	0.856
1012.29	0.845
1022.83	0.833
1033.36	0.827
1043.9	0.811
1054.44	0.793
1064.97	0.765
1075.51	0.767
1086.04	0.742
1096.58	0.709
1107.11	0.657
1117.65	0.587
1128.19	0.422
1138.72	0.463
1149.26	0.748
1159.79	0.818
1170.33	0.814
1180.86	0.842
1191.4	0.865
1201.93	0.854
1212.47	0.85
1223.01	0.807
1233.54	0.752
1244.08	0.794
1254.61	0.876
1265.15	0.878
1275.68	0.863
1286.22	0.829
1296.75	0.82
1307.29	0.715
1317.83	0.8119
1328.36	0.815
1338.9	0.831
1349.43	0.718
1359.97	0.6711
1370.5	0.82
1381.04	0.81
1391.57	0.76
1402.11	0.589
1412.65	0.6741
1423.18	0.732
1433.72	0.719
1444.25	0.672
1454.79	0.575
1465.32	0.465
1475.86	0.433
1486.4	0.396
1496.93	0.235
1507.47	0.269
1518	0.413
1528.54	0.547
1539.07	0.489
1549.61	0.391
1560.14	0.147
1570.68	0.1631
1581.22	0.409
1591.75	0.5069
1602.29	0.709
1612.82	0.5619
1623.36	0.472
1633.89	0.2842
1644.43	0.505
1654.96	0.759
1665.5	0.6199
1676.04	0.32
1686.57	0.7228
1697.11	0.943
1707.64	0.989
1718.18	0.992
1728.71	0.986
1739.25	0.973
1749.79	0.962
1760.32	0.947
1770.86	0.95
1781.39	0.948
1791.93	0.933
1802.46	0.929
1813	0.92
1823.53	0.912
1834.07	0.895
1844.61	0.878
1855.14	0.849
1865.68	0.852
1876.21	0.869
1886.75	0.876
1897.28	0.876
1907.82	0.87
1918.35	0.865
1928.89	0.863
1939.43	0.862
1949.96	0.859
1960.5	0.856
1971.03	0.853
1981.57	0.849
1992.1	0.844
2002.64	0.824
2013.17	0.811
2023.71	0.802
2034.25	0.795
2044.78	0.791
2055.32	0.789
2065.85	0.781
2076.39	0.777
2086.92	0.774
2097.46	0.763
2108	0.759
2118.53	0.75
2129.07	0.743
2139.6	0.732
2150.14	0.729
2160.67	0.723
2171.21	0.717
2181.74	0.708
2192.28	0.702
2202.82	0.697
2213.35	0.685
2223.89	0.678
2234.42	0.67
2244.96	0.658
2255.49	0.651
2266.03	0.642
2276.56	0.636
2287.1	0.626
2297.64	0.616
2308.17	0.607
2318.71	0.594
2329.24	0.573
2339.78	0.568
2350.31	0.549
2360.85	0.54
2371.38	0.531
2381.92	0.522
2392.46	0.509
2402.99	0.492
2413.53	0.476
2424.06	0.462
2434.6	0.45
2445.13	0.439
2455.67	0.426
2466.21	0.404
2476.74	0.393
2487.28	0.384
2497.81	0.378
2508.35	0.373
2518.88	0.37
2529.42	0.37
2539.95	0.371
2550.49	0.371
2561.03	0.373
2571.56	0.378
2582.1	0.382
2592.63	0.384
2603.17	0.387
2613.7	0.38
2624.24	0.38
2634.77	0.386
2645.31	0.388
2655.85	0.388
2666.38	0.387
2676.92	0.384
2687.45	0.379
2697.99	0.371
2708.52	0.365
2719.06	0.356
2729.6	0.344
2740.13	0.336
2750.67	0.329
2761.2	0.32
2771.74	0.308
2782.27	0.301
2792.81	0.293
2803.34	0.287
2813.88	0.285
2824.42	0.287
2834.95	0.29
2845.49	0.293
2856.02	0.298
2866.56	0.302
2877.09	0.306
2887.63	0.308
2898.16	0.308
2908.7	0.306
2919.24	0.299
2929.77	0.291
2940.31	0.291
2950.84	0.29
2961.38	0.285
2971.91	0.269
2982.45	0.264
2992.98	0.263
3003.52	0.26
3014.06	0.248
3024.59	0.235
3035.13	0.223
3045.66	0.208
3056.2	0.195
3066.73	0.191
3077.27	0.196
3087.81	0.197
3098.34	0.181
3108.88	0.163
3119.41	0.157
3129.95	0.146
3140.48	0.146
3151.02	0.146
3161.55	0.146
3172.09	0.16
3182.63	0.205
3193.16	0.264
3203.7	0.301
3214.23	0.324
3224.77	0.328
3235.3	0.337
3245.84	0.329
3256.37	0.321
3266.91	0.32
3277.45	0.306
3287.98	0.286
3298.52	0.31
3309.05	0.356
3319.59	0.357
3330.12	0.319
3340.66	0.286
3351.19	0.306
3361.73	0.354
3372.27	0.329
3382.8	0.3581
3393.34	0.429
3403.87	0.485
3414.41	0.59
3424.94	0.641
3435.48	0.66
3446.02	0.67
3456.55	0.678
3467.09	0.681
3477.62	0.683
3488.16	0.688
3498.69	0.693
3509.23	0.697
3519.76	0.705
3530.3	0.713
3540.84	0.721
3551.37	0.726
3561.91	0.736
3572.44	0.743
3582.98	0.753
3593.51	0.756
3604.05	0.764
3614.58	0.773
3625.12	0.777
3635.66	0.777
3646.19	0.777
3656.73	0.774
3667.26	0.764
3677.8	0.761
3688.33	0.764
3698.87	0.763
3709.41	0.756
3719.94	0.753
3730.48	0.747
3741.01	0.742
3751.55	0.738
3762.08	0.735
3772.62	0.732
3783.15	0.726
3793.69	0.719
3804.23	0.714
3814.76	0.709
3825.3	0.705
3835.83	0.702
3846.37	0.697
3856.9	0.691
3867.44	0.685
3877.97	0.681
3888.51	0.675
3899.05	0.672
3909.58	0.668
3920.12	0.666
3930.65	0.663
3941.19	0.66
3951.72	0.658
3962.26	0.655
3972.79	0.653
3983.33	0.651
3993.87	0.647
