Infrared Spectrum: CYCLOPENTANECARBOXAMIDE, CIS-3-ACETOXYMETHYL-
Formula: C9 H15 N O3
State: SOLID (1 mg / 650 mg KBr DISC)
Class: COBLENTZ III
Instrument: PERKIN-ELMER 221 (GRATING)
Instrument parameters: GRATING FOR 4000-1428, FILTERS AT 2490, 980, NaCl PRISM FOR 1428-650 CM^-^1
Sampling: TRANSMISSION
Resolution: 4
Origin: SOUTHERN RESEARCH INSTITUTE
1/CM	TRANSMITTANCE
657.624	0.698
666.74	0.7068
675.857	0.7787
684.973	0.784
694.089	0.7773
703.205	0.7808
712.322	0.8336
721.438	0.8317
730.554	0.8103
739.67	0.8329
748.787	0.865
757.903	0.8983
767.019	0.9155
776.136	0.928
785.252	0.929
794.368	0.928
803.484	0.9213
812.601	0.9097
821.717	0.8957
830.833	0.871
839.949	0.8712
849.066	0.9003
858.182	0.9293
867.298	0.936
876.415	0.936
885.531	0.923
894.647	0.8941
903.763	0.8491
912.88	0.9138
921.996	0.9509
931.112	0.9494
940.228	0.9386
949.345	0.9105
958.461	0.8719
967.577	0.864
976.694	0.8788
985.81	0.8926
994.926	0.8895
1004.04	0.8724
1013.16	0.8272
1022.27	0.7336
1031.39	0.6163
1040.51	0.5099
1049.62	0.685
1058.74	0.8077
1067.86	0.8524
1076.97	0.874
1086.09	0.875
1095.21	0.875
1104.32	0.8709
1113.44	0.8589
1122.55	0.849
1131.67	0.8283
1140.79	0.7788
1149.9	0.855
1159.02	0.8376
1168.14	0.8199
1177.25	0.7764
1186.37	0.7245
1195.48	0.7543
1204.6	0.7128
1213.72	0.6364
1222.83	0.4627
1231.95	0.2599
1241.07	0.2089
1250.18	0.3641
1259.3	0.5047
1268.41	0.5826
1277.53	0.6694
1286.65	0.703
1295.76	0.7068
1304.88	0.7254
1314	0.7079
1323.11	0.5807
1332.23	0.7642
1341.34	0.775
1350.46	0.7616
1359.58	0.6274
1368.69	0.5763
1377.81	0.6313
1386.93	0.6437
1396.04	0.723
1405.16	0.7204
1414.27	0.668
1423.39	0.5194
1432.51	0.4941
1441.62	0.5484
1450.74	0.5594
1459.86	0.6501
1468.97	0.6445
1478.09	0.7509
1487.2	0.8038
1496.32	0.8202
1505.44	0.8257
1514.55	0.832
1523.67	0.833
1532.79	0.8312
1541.9	0.8294
1551.02	0.8395
1560.13	0.8194
1569.25	0.8248
1578.37	0.7998
1587.48	0.775
1596.6	0.7064
1605.72	0.6035
1614.83	0.4391
1623.95	0.3305
1633.07	0.2458
1642.18	0.2749
1651.3	0.3343
1660.41	0.3764
1669.53	0.4219
1678.65	0.5078
1687.76	0.6113
1696.88	0.6803
1706	0.6785
1715.11	0.5415
1724.23	0.4017
1733.34	0.2302
1742.46	0.2946
1751.58	0.5122
1760.69	0.6331
1769.81	0.7129
1778.93	0.7558
1788.04	0.7836
1797.16	0.8023
1806.27	0.8291
1815.39	0.841
1824.51	0.853
1833.62	0.867
1842.74	0.867
1851.86	0.8808
1860.97	0.887
1870.09	0.889
1879.2	0.89
1888.32	0.893
1897.44	0.894
1906.55	0.894
1915.67	0.894
1924.79	0.896
1933.9	0.897
1943.02	0.899
1952.13	0.902
1961.25	0.903
1970.37	0.906
1979.48	0.905
1988.6	0.905
1997.72	0.906
2006.83	0.907
2015.95	0.906
2025.06	0.905
2034.18	0.907
2043.3	0.909
2052.41	0.907
2061.53	0.907
2070.65	0.906
2079.76	0.906
2088.88	0.906
2098	0.906
2107.11	0.906
2116.23	0.906
2125.34	0.903
2134.46	0.902
2143.58	0.9
2152.69	0.907
2161.81	0.91
2170.93	0.911
2180.04	0.914
2189.16	0.914
2198.27	0.914
2207.39	0.914
2216.51	0.912
2225.62	0.912
2234.74	0.911
2243.86	0.909
2252.97	0.906
2262.09	0.906
2271.2	0.905
2280.32	0.902
2289.44	0.905
2298.55	0.9045
2307.67	0.9035
2316.79	0.9028
2325.9	0.896
2335.02	0.892
2344.13	0.897
2353.25	0.897
2362.37	0.894
2371.48	0.9002
2380.6	0.906
2389.72	0.906
2398.83	0.906
2407.95	0.906
2417.06	0.906
2426.18	0.906
2435.3	0.906
2444.41	0.906
2453.53	0.906
2462.65	0.906
2471.76	0.907
2480.88	0.907
2489.99	0.906
2499.11	0.906
2508.23	0.906
2517.34	0.906
2526.46	0.906
2535.58	0.905
2544.69	0.903
2553.81	0.903
2562.92	0.903
2572.04	0.903
2581.16	0.903
2590.27	0.903
2599.39	0.903
2608.51	0.902
2617.62	0.902
2626.74	0.901
2635.86	0.901
2644.97	0.901
2654.09	0.9022
2663.2	0.902
2672.32	0.898
2681.44	0.8978
2690.55	0.8968
2699.67	0.893
2708.79	0.892
2717.9	0.889
2727.02	0.887
2736.13	0.884
2745.25	0.8785
2754.37	0.8718
2763.48	0.87
2772.6	0.8678
2781.72	0.8585
2790.83	0.841
2799.95	0.836
2809.06	0.8482
2818.18	0.85
2827.3	0.853
2836.41	0.854
2845.53	0.8403
2854.65	0.7968
2863.76	0.7298
2872.88	0.7032
2881.99	0.733
2891.11	0.731
2900.23	0.7223
2909.34	0.7028
2918.46	0.6883
2927.58	0.6628
2936.69	0.635
2945.81	0.6
2954.92	0.5258
2964.04	0.52
2973.16	0.5701
2982.27	0.7207
2991.39	0.7882
3000.51	0.8045
3009.62	0.811
3018.74	0.8142
3027.85	0.8158
3036.97	0.812
3046.09	0.8085
3055.2	0.794
3064.32	0.7898
3073.44	0.7743
3082.55	0.7578
3091.67	0.7368
3100.79	0.7108
3109.9	0.687
3119.02	0.6558
3128.13	0.6128
3137.25	0.5738
3146.37	0.5225
3155.48	0.4595
3164.6	0.4515
3173.72	0.4582
3182.83	0.468
3191.95	0.475
3201.06	0.498
3210.18	0.52
3219.3	0.5397
3228.41	0.5615
3237.53	0.5702
3246.65	0.571
3255.76	0.5533
3264.88	0.5418
3273.99	0.529
3283.11	0.5115
3292.23	0.4955
3301.34	0.4693
3310.46	0.4353
3319.58	0.4018
3328.69	0.36
3337.81	0.3238
3346.92	0.3192
3356.04	0.3405
3365.16	0.3655
3374.27	0.4274
3383.39	0.4765
3392.51	0.5287
3401.62	0.5715
3410.74	0.6015
3419.85	0.632
3428.97	0.655
3438.09	0.6767
3447.2	0.6857
3456.32	0.7062
3465.44	0.7192
3474.55	0.7315
3483.67	0.751
3492.78	0.7572
3501.9	0.768
3511.02	0.7742
3520.13	0.7762
3529.25	0.7792
3538.37	0.781
3547.48	0.7842
3556.6	0.788
3565.71	0.793
3574.83	0.802
3583.95	0.8102
3593.06	0.812
3602.18	0.819
3611.3	0.8222
3620.41	0.8272
3629.53	0.8305
3638.65	0.842
3647.76	0.845
3656.88	0.849
3665.99	0.8505
3675.11	0.8502
3684.23	0.853
3693.34	0.853
3702.46	0.854
3711.58	0.854
3720.69	0.854
3729.81	0.853
3738.92	0.853
3748.04	0.853
3757.16	0.854
3766.27	0.857
3775.39	0.8565
3784.51	0.855
3793.62	0.855
3802.74	0.855
3811.85	0.855
3820.97	0.853
3830.09	0.855
3839.2	0.857
3848.32	0.854
3857.44	0.854
3866.55	0.854
3875.67	0.854
3884.78	0.855
3893.9	0.855
3903.02	0.855
3912.13	0.855
3921.25	0.855
3930.37	0.855
3939.48	0.855
3948.6	0.855
3957.71	0.855
3966.83	0.855
3975.95	0.855
3985.06	0.855
3994.18	0.855
4003.3	0.854
