Infrared Spectrum: [1,2,5] THIADIAZOLO[3,4-d]PYRIMIDINE-5,7-BIS (2-HYDROXYETHYLAMINO)-
Formula: C8 H12 N6 O2 S
State: SOLID (1 mg / 650 mg KBr DISC)
Class: COBLENTZ III
Instrument: PERKIN-ELMER 221 (GRATING)
Instrument parameters: GRATING FOR 4000-1428, FILTERS AT 2490, 980, NaCl PRISM FOR 1428-650 CM^-^1
Sampling: TRANSMISSION
Resolution: 4
Origin: SOUTHERN RESEARCH INSTITUTE
1/CM	TRANSMITTANCE
624.646	0.844
633.762	0.843
642.879	0.8471
651.995	0.8223
661.111	0.8221
670.227	0.872
679.344	0.8802
688.46	0.9088
697.576	0.909
706.693	0.8797
715.809	0.8236
724.925	0.9116
734.041	0.9052
743.158	0.835
752.274	0.8605
761.39	0.8595
770.507	0.852
779.623	0.849
788.739	0.8476
797.856	0.676
806.972	0.8342
816.088	0.6494
825.204	0.9228
834.321	0.926
843.437	0.9061
852.553	0.9038
861.67	0.8269
870.786	0.8923
879.902	0.8939
889.018	0.8609
898.135	0.8619
907.251	0.8869
916.367	0.889
925.484	0.8819
934.6	0.9249
943.716	0.928
952.832	0.9244
961.949	0.92
971.065	0.9176
980.181	0.9136
989.298	0.8971
998.414	0.8835
1007.53	0.8497
1016.65	0.792
1025.76	0.7366
1034.88	0.606
1044	0.6565
1053.11	0.5923
1062.23	0.503
1071.34	0.5294
1080.46	0.8227
1089.58	0.8513
1098.69	0.877
1107.81	0.8648
1116.93	0.8912
1126.04	0.891
1135.16	0.889
1144.27	0.8787
1153.39	0.87
1162.51	0.868
1171.62	0.8274
1180.74	0.749
1189.86	0.8581
1198.97	0.8611
1208.09	0.8443
1217.2	0.7848
1226.32	0.8506
1235.44	0.8387
1244.55	0.8496
1253.67	0.8123
1262.79	0.8228
1271.9	0.799
1281.02	0.7663
1290.14	0.7142
1299.25	0.6785
1308.37	0.6372
1317.48	0.6708
1326.6	0.6036
1335.72	0.5232
1344.83	0.5122
1353.95	0.6084
1363.07	0.5219
1372.18	0.5938
1381.3	0.7888
1390.41	0.7825
1399.53	0.7679
1408.65	0.7741
1417.76	0.7895
1426.88	0.6839
1436	0.633
1445.11	0.5834
1454.23	0.4058
1463.34	0.4274
1472.46	0.3467
1481.58	0.3998
1490.69	0.3206
1499.81	0.558
1508.93	0.674
1518.04	0.5904
1527.16	0.371
1536.28	0.1684
1545.39	0.1938
1554.51	0.3957
1563.62	0.4344
1572.74	0.2876
1581.86	0.146
1590.97	0.1784
1600.09	0.266
1609.21	0.2588
1618.32	0.306
1627.44	0.4378
1636.55	0.6238
1645.67	0.7433
1654.79	0.7999
1663.9	0.8558
1673.02	0.8813
1682.14	0.8991
1691.25	0.908
1700.37	0.9131
1709.48	0.93
1718.6	0.933
1727.72	0.937
1736.83	0.937
1745.95	0.941
1755.07	0.943
1764.18	0.943
1773.3	0.9445
1782.41	0.946
1791.53	0.946
1800.65	0.947
1809.76	0.947
1818.88	0.949
1828	0.949
1837.11	0.949
1846.23	0.949
1855.35	0.949
1864.46	0.949
1873.58	0.949
1882.69	0.949
1891.81	0.9484
1900.93	0.947
1910.04	0.9467
1919.16	0.946
1928.28	0.943
1937.39	0.942
1946.51	0.939
1955.62	0.938
1964.74	0.938
1973.86	0.938
1982.97	0.937
1992.09	0.936
2001.21	0.936
2010.32	0.9342
2019.44	0.934
2028.55	0.936
2037.67	0.933
2046.79	0.928
2055.9	0.924
2065.02	0.9222
2074.14	0.922
2083.25	0.92
2092.37	0.92
2101.49	0.92
2110.6	0.92
2119.72	0.9191
2128.83	0.916
2137.95	0.916
2147.07	0.917
2156.18	0.919
2165.3	0.916
2174.42	0.912
2183.53	0.9092
2192.65	0.908
2201.76	0.9061
2210.88	0.903
2220	0.903
2229.11	0.902
2238.23	0.9002
2247.35	0.899
2256.46	0.8962
2265.58	0.892
2274.69	0.8891
2283.81	0.886
2292.93	0.885
2302.04	0.881
2311.16	0.877
2320.28	0.873
2329.39	0.8651
2338.51	0.859
2347.63	0.855
2356.74	0.8511
2365.86	0.847
2374.97	0.8402
2384.09	0.8351
2393.21	0.8282
2402.32	0.8171
2411.44	0.813
2420.56	0.806
2429.67	0.8022
2438.79	0.8001
2447.9	0.798
2457.02	0.7911
2466.14	0.7802
2475.25	0.7711
2484.37	0.766
2493.49	0.755
2502.6	0.75
2511.72	0.7412
2520.83	0.7321
2529.95	0.7271
2539.07	0.727
2548.18	0.727
2557.3	0.727
2566.42	0.725
2575.53	0.7191
2584.65	0.7071
2593.76	0.6934
2602.88	0.6822
2612	0.6731
2621.11	0.664
2630.23	0.6501
2639.35	0.6442
2648.46	0.644
2657.58	0.6538
2666.7	0.6628
2675.81	0.668
2684.93	0.665
2694.04	0.663
2703.16	0.6511
2712.28	0.6382
2721.39	0.6272
2730.51	0.624
2739.63	0.6328
2748.74	0.6558
2757.86	0.6832
2766.97	0.693
2776.09	0.694
2785.21	0.6891
2794.32	0.6822
2803.44	0.6692
2812.56	0.6472
2821.67	0.6421
2830.79	0.631
2839.9	0.63
2849.02	0.63
2858.14	0.6272
2867.25	0.6182
2876.37	0.592
2885.49	0.5881
2894.6	0.582
2903.72	0.5999
2912.84	0.5972
2921.95	0.5716
2931.07	0.5481
2940.18	0.5539
2949.3	0.5598
2958.42	0.5542
2967.53	0.5693
2976.65	0.5858
2985.77	0.6127
2994.88	0.6209
3004	0.621
3013.11	0.621
3022.23	0.62
3031.35	0.62
3040.46	0.62
3049.58	0.622
3058.7	0.622
3067.81	0.626
3076.93	0.6388
3086.04	0.6509
3095.16	0.6549
3104.28	0.652
3113.39	0.6482
3122.51	0.6402
3131.63	0.6162
3140.74	0.612
3149.86	0.6052
3158.97	0.5963
3168.09	0.588
3177.21	0.5842
3186.32	0.58
3195.44	0.5632
3204.56	0.5454
3213.67	0.5232
3222.79	0.5131
3231.91	0.4696
3241.02	0.4432
3250.14	0.432
3259.25	0.432
3268.37	0.434
3277.49	0.4536
3286.6	0.4658
3295.72	0.4837
3304.84	0.5232
3313.95	0.5612
3323.07	0.5965
3332.18	0.6209
3341.3	0.6386
3350.42	0.6508
3359.53	0.6559
3368.65	0.6569
3377.77	0.657
3386.88	0.656
3396	0.652
3405.11	0.6442
3414.23	0.6182
3423.35	0.4958
3432.46	0.4329
3441.58	0.4554
3450.7	0.669
3459.81	0.7338
3468.93	0.7438
3478.05	0.7489
3487.16	0.7608
3496.28	0.771
3505.39	0.7809
3514.51	0.7868
3523.63	0.7929
3532.74	0.8019
3541.86	0.8089
3550.98	0.814
3560.09	0.819
3569.21	0.8309
3578.32	0.836
3587.44	0.8508
3596.56	0.857
3605.67	0.862
3614.79	0.869
3623.91	0.873
3633.02	0.877
3642.14	0.8779
3651.25	0.878
3660.37	0.879
3669.49	0.879
3678.6	0.877
3687.72	0.877
3696.84	0.8789
3705.95	0.878
3715.07	0.878
3724.18	0.877
3733.3	0.877
3742.42	0.874
3751.53	0.874
3760.65	0.875
3769.77	0.8752
3778.88	0.8749
3788	0.872
3797.12	0.87
3806.23	0.868
3815.35	0.868
3824.46	0.87
3833.58	0.87
3842.7	0.865
3851.81	0.862
3860.93	0.8619
3870.05	0.862
3879.16	0.862
3888.28	0.8611
3897.39	0.861
3906.51	0.861
3915.63	0.861
3924.74	0.857
3933.86	0.857
3942.98	0.857
3952.09	0.856
3961.21	0.857
3970.32	0.856
3979.44	0.856
3988.56	0.856
3997.67	0.856
4006.79	0.856
