Infrared Spectrum: ETHYLTHIOSULFURIC ACID, 2-[(1,7,7-TRIMETHYLBICYCLO[2.2.1.]HEPT-2-YL)-AMINO]-
Formula: C12 H23 N O3 S2
State: SOLID (1 mg / 650 mg KBr DISC)
Class: COBLENTZ III
Instrument: PERKIN-ELMER 521 (GRATING)
Instrument parameters: GRATING FOR 2000, 620, FILTERS AT 3130, 2475, 2000, 1150, 700, 410 CM^-^1
Sampling: TRANSMISSION
Resolution: 4
Origin: SOUTHERN RESEARCH INSTITUTE
1/CM	TRANSMITTANCE
250	0.19
259.245	0.2309
268.491	0.2855
277.736	0.3581
286.981	0.4161
296.226	0.4539
305.472	0.4849
314.717	0.5144
323.962	0.5554
333.207	0.573
342.453	0.5687
351.698	0.6237
360.943	0.6724
370.189	0.6913
379.434	0.6895
388.679	0.6864
397.924	0.7003
407.17	0.7197
416.415	0.7425
425.66	0.748
434.905	0.7319
444.151	0.756
453.396	0.7478
462.641	0.7538
471.887	0.772
481.132	0.772
490.377	0.7654
499.622	0.75
508.868	0.7327
518.113	0.6509
527.358	0.5379
536.604	0.5204
545.849	0.6453
555.094	0.7018
564.339	0.7491
573.585	0.7498
582.83	0.7308
592.075	0.706
601.32	0.685
610.566	0.5914
619.811	0.4452
629.056	0.1365
638.302	0.119
647.547	0.299
656.792	0.5967
666.037	0.7012
675.283	0.7703
684.528	0.8148
693.773	0.8369
703.018	0.8474
712.264	0.8553
721.509	0.8603
730.754	0.866
740	0.869
749.245	0.867
758.49	0.869
767.735	0.8585
776.981	0.8435
786.226	0.816
795.471	0.8184
804.716	0.8018
813.962	0.8376
823.207	0.7906
832.452	0.793
841.698	0.834
850.943	0.8239
860.188	0.7965
869.433	0.7612
878.679	0.7968
887.924	0.8258
897.169	0.834
906.415	0.8245
915.66	0.813
924.905	0.7955
934.15	0.7144
943.396	0.7311
952.641	0.767
961.886	0.7542
971.131	0.7411
980.377	0.6655
989.622	0.5072
998.867	0.585
1008.11	0.5762
1017.36	0.3675
1026.6	0.1197
1035.85	0.3731
1045.09	0.6423
1054.34	0.647
1063.58	0.6567
1072.83	0.7262
1082.07	0.6982
1091.32	0.7407
1100.57	0.7439
1109.81	0.7047
1119.06	0.6701
1128.3	0.6536
1137.55	0.6028
1146.79	0.5395
1156.04	0.415
1165.28	0.2416
1174.53	0.0975
1183.77	0.1206
1193.02	0.1667
1202.26	0.2715
1211.51	0.3542
1220.75	0.4208
1230	0.3612
1239.24	0.3232
1248.49	0.1647
1257.73	0.1161
1266.98	0.2965
1276.23	0.4544
1285.47	0.5072
1294.72	0.5642
1303.96	0.6889
1313.21	0.6882
1322.45	0.7207
1331.7	0.8005
1340.94	0.7937
1350.19	0.7379
1359.43	0.7674
1368.68	0.7656
1377.92	0.6923
1387.17	0.6811
1396.41	0.5752
1405.66	0.6278
1414.9	0.5507
1424.15	0.4574
1433.4	0.4756
1442.64	0.4539
1451.89	0.4517
1461.13	0.4794
1470.38	0.5448
1479.62	0.5478
1488.87	0.6572
1498.11	0.6778
1507.36	0.7872
1516.6	0.8311
1525.85	0.8484
1535.09	0.852
1544.34	0.8414
1553.58	0.8146
1562.83	0.8055
1572.07	0.813
1581.32	0.8042
1590.56	0.7696
1599.81	0.741
1609.06	0.6814
1618.3	0.7287
1627.55	0.8122
1636.79	0.8401
1646.04	0.853
1655.28	0.856
1664.53	0.8748
1673.77	0.8819
1683.02	0.8869
1692.26	0.891
1701.51	0.8937
1710.75	0.894
1720	0.895
1729.24	0.9
1738.49	0.904
1747.73	0.906
1756.98	0.908
1766.23	0.911
1775.47	0.911
1784.72	0.911
1793.96	0.9116
1803.21	0.911
1812.45	0.9089
1821.7	0.907
1830.94	0.907
1840.19	0.9065
1849.43	0.904
1858.68	0.904
1867.92	0.906
1877.17	0.906
1886.41	0.903
1895.66	0.903
1904.9	0.9025
1914.15	0.904
1923.39	0.906
1932.64	0.9056
1941.89	0.903
1951.13	0.902
1960.38	0.902
1969.62	0.903
1978.87	0.903
1988.11	0.903
1997.36	0.902
2006.6	0.896
2015.85	0.895
2025.09	0.895
2034.34	0.892
2043.58	0.89
2052.83	0.891
2062.07	0.894
2071.32	0.894
2080.56	0.894
2089.81	0.894
2099.05	0.894
2108.3	0.894
2117.55	0.894
2126.79	0.892
2136.04	0.891
2145.28	0.891
2154.53	0.889
2163.77	0.886
2173.02	0.882
2182.26	0.875
2191.51	0.874
2200.75	0.875
2210	0.878
2219.24	0.878
2228.49	0.878
2237.73	0.877
2246.98	0.877
2256.22	0.874
2265.47	0.869
2274.72	0.869
2283.96	0.873
2293.21	0.874
2302.45	0.874
2311.7	0.869
2320.94	0.865
2330.19	0.863
2339.43	0.861
2348.68	0.859
2357.92	0.853
2367.17	0.852
2376.41	0.848
2385.66	0.848
2394.9	0.845
2404.15	0.838
2413.39	0.833
2422.64	0.828
2431.88	0.812
2441.13	0.809
2450.38	0.822
2459.62	0.817
2468.87	0.811
2478.11	0.833
2487.36	0.833
2496.6	0.832
2505.85	0.832
2515.09	0.834
2524.34	0.83
2533.58	0.83
2542.83	0.817
2552.07	0.813
2561.32	0.809
2570.56	0.797
2579.81	0.789
2589.05	0.783
2598.3	0.774
2607.55	0.772
2616.79	0.774
2626.04	0.771
2635.28	0.759
2644.53	0.752
2653.77	0.752
2663.02	0.746
2672.26	0.735
2681.51	0.737
2690.75	0.739
2700	0.727
2709.24	0.717
2718.49	0.708
2727.73	0.68
2736.98	0.671
2746.22	0.655
2755.47	0.634
2764.71	0.607
2773.96	0.589
2783.21	0.575
2792.45	0.569
2801.7	0.561
2810.94	0.553
2820.19	0.542
2829.43	0.531
2838.68	0.532
2847.92	0.528
2857.17	0.511
2866.41	0.468
2875.66	0.422
2884.9	0.4
2894.15	0.409
2903.39	0.43
2912.64	0.421
2921.88	0.389
2931.13	0.352
2940.37	0.318
2949.62	0.258
2958.87	0.241
2968.11	0.262
2977.36	0.323
2986.6	0.323
2995.85	0.343
3005.09	0.367
3014.34	0.368
3023.58	0.367
3032.83	0.364
3042.07	0.363
3051.32	0.36
3060.56	0.36
3069.81	0.36
3079.05	0.377
3088.3	0.4
3097.54	0.437
3106.79	0.467
3116.04	0.5
3125.28	0.538
3134.53	0.575
3143.77	0.615
3153.02	0.632
3162.26	0.66
3171.51	0.677
3180.75	0.697
3190	0.709
3199.24	0.721
3208.49	0.723
3217.73	0.734
3226.98	0.751
3236.22	0.775
3245.47	0.788
3254.71	0.799
3263.96	0.801
3273.2	0.803
3282.45	0.804
3291.7	0.805
3300.94	0.805
3310.19	0.804
3319.43	0.799
3328.68	0.793
3337.92	0.788
3347.17	0.782
3356.41	0.775
3365.66	0.77
3374.9	0.76
3384.15	0.754
3393.39	0.749
3402.64	0.743
3411.88	0.739
3421.13	0.737
3430.37	0.738
3439.62	0.739
3448.87	0.739
3458.11	0.742
3467.36	0.743
3476.6	0.747
3485.85	0.751
3495.09	0.754
3504.34	0.759
3513.58	0.764
3522.83	0.767
3532.07	0.775
3541.32	0.782
3550.56	0.788
3559.81	0.795
3569.05	0.801
3578.3	0.807
3587.54	0.815
3596.79	0.819
3606.03	0.825
3615.28	0.832
3624.53	0.838
3633.77	0.846
3643.02	0.849
3652.26	0.85
3661.51	0.85
3670.75	0.85
3680	0.85
3689.24	0.85
3698.49	0.856
3707.73	0.858
3716.98	0.858
3726.22	0.859
3735.47	0.859
3744.71	0.859
3753.96	0.859
3763.2	0.859
3772.45	0.858
3781.69	0.858
3790.94	0.858
3800.19	0.856
