Infrared Spectrum: Ethylbenzene
Formula: C6 H5 C2 H5
CAS: 100-41-4
State: gas
Melting point: -94.97 C
Boiling point: 136.2 C
Class: IUPAC A
Instrument: IFS66V (Bruker)
Instrument parameters: KBr Beam Splitter; MCT Detector; Multipass cell
Sampling: 1 L/min Flow
Resolution: 0.4820
Temperature: 23 C
Pressure: 101.3 Pa
Origin: NIST, Analytical Chemistry Division, 301-975-3108
cm-1	(micromol/mol)-1m-1 (base 10)
575.17	3.92589e-06
583.848	2.53022e-08
592.526	-1.13491e-06
601.205	-2.23831e-07
609.883	1.40267e-07
618.561	-2.13726e-07
627.239	3.35725e-07
635.917	-3.74303e-07
644.595	6.9653e-08
653.274	7.53777e-09
661.952	1.07079e-06
670.63	8.34609e-06
679.308	4.94763e-05
687.986	0.000145588
696.665	0.000317109
705.343	0.000171006
714.021	9.8946e-05
722.699	7.77595e-05
731.377	9.47453e-05
740.055	0.000117754
748.734	0.000112804
757.412	8.80713e-05
766.09	6.08944e-05
774.768	4.06014e-05
783.446	2.85929e-05
792.124	1.5323e-05
800.803	9.45876e-06
809.481	5.30366e-06
818.159	2.52555e-06
826.837	1.14973e-06
835.515	6.57745e-07
844.194	1.1913e-07
852.872	-2.90899e-07
861.55	1.66048e-08
870.228	6.18574e-07
878.906	2.44164e-06
887.584	5.41553e-06
896.263	7.33287e-06
904.941	9.37588e-06
913.619	6.15684e-06
922.297	1.37359e-06
930.975	2.80185e-07
939.654	2.42309e-07
948.332	1.32763e-06
957.01	9.31523e-06
965.688	1.13385e-05
974.366	7.52525e-06
983.044	2.14692e-06
991.723	2.04607e-06
1000.4	3.85575e-06
1009.08	4.47041e-06
1017.76	1.07861e-05
1026.44	3.09506e-05
1035.11	3.28839e-05
1043.79	2.09424e-05
1052.47	1.68942e-05
1061.15	2.85739e-05
1069.83	2.86472e-05
1078.5	1.02271e-05
1087.18	1.05546e-05
1095.86	1.17534e-05
1104.54	9.45655e-06
1113.22	7.13182e-06
1121.9	3.89721e-06
1130.57	1.59894e-06
1139.25	9.81321e-07
1147.93	6.84924e-07
1156.61	4.50838e-08
1165.29	9.48401e-08
1173.96	-2.53994e-07
1182.64	1.641e-07
1191.32	9.15254e-07
1200	1.26553e-06
1208.68	1.06833e-06
1217.36	2.18456e-07
1226.03	1.47084e-07
1234.71	1.89438e-06
1243.39	2.36938e-06
1252.07	1.80963e-06
1260.75	1.50308e-06
1269.42	1.70616e-06
1278.1	2.14785e-06
1286.78	3.14893e-06
1295.46	4.73854e-06
1304.14	5.72059e-06
1312.82	7.24119e-06
1321.49	1.57514e-05
1330.17	2.16494e-05
1338.85	1.49049e-05
1347.53	5.97796e-06
1356.21	3.23176e-06
1364.88	5.29081e-06
1373.56	1.20461e-05
1382.24	1.80331e-05
1390.92	1.42955e-05
1399.6	7.70012e-06
1408.28	5.45708e-06
1416.95	6.19096e-06
1425.63	8.22532e-06
1434.31	1.35026e-05
1442.99	3.36431e-05
1451.67	7.39953e-05
1460.34	8.44544e-05
1469.02	6.91938e-05
1477.7	3.67911e-05
1486.38	3.26957e-05
1495.06	9.75773e-05
1503.74	8.54764e-05
1512.41	1.92754e-05
1521.09	5.36453e-06
1529.77	6.23811e-06
1538.45	4.90219e-06
1547.13	3.79299e-06
1555.8	3.26574e-06
1564.48	3.26132e-06
1573.16	3.51053e-06
1581.84	5.91345e-06
1590.52	1.37212e-05
1599.2	3.13155e-05
1607.87	5.13337e-05
1616.55	4.16432e-05
1625.23	6.74008e-06
1633.91	2.73274e-06
1642.59	2.81881e-06
1651.26	3.84901e-06
1659.94	3.6079e-06
1668.62	3.07816e-06
1677.3	2.51466e-06
1685.98	1.23507e-06
1694.66	9.97285e-07
1703.33	6.7515e-07
1712.01	1.00212e-06
1720.69	1.67601e-06
1729.37	4.16452e-06
1738.05	6.42916e-06
1746.72	6.25176e-06
1755.4	2.19159e-06
1764.08	6.20367e-07
1772.76	1.42035e-07
1781.44	1.46118e-06
1790.12	8.18771e-06
1798.79	1.49652e-05
1807.47	9.69377e-06
1816.15	2.95572e-06
1824.83	2.20113e-06
1833.51	7.22301e-07
1842.18	1.03635e-06
1850.86	3.57095e-06
1859.54	9.06673e-06
1868.22	1.088e-05
1876.9	1.09718e-05
1885.58	7.93487e-06
1894.25	1.0352e-06
1902.93	3.58136e-07
1911.61	6.14477e-07
1920.29	2.19958e-06
1928.97	6.45191e-06
1937.64	1.14894e-05
1946.32	1.39673e-05
1955	1.05777e-05
1963.68	7.52946e-06
1972.36	2.45337e-07
1981.04	4.01506e-07
1989.71	4.08798e-07
1998.39	1.93063e-07
2007.07	-2.0587e-08
2015.75	1.27607e-07
2024.43	5.71231e-07
2033.1	6.46875e-07
2041.78	2.75165e-07
2050.46	-1.35491e-07
2059.14	-3.74461e-07
2067.82	-5.22937e-07
2076.5	-3.9873e-07
2085.17	-3.53607e-07
2093.85	-4.18033e-07
2102.53	-1.33556e-07
2111.21	-2.06904e-07
2119.89	1.39021e-07
2128.56	1.72514e-07
2137.24	-7.7083e-08
2145.92	-8.55907e-08
2154.6	-1.94429e-08
2163.28	8.36235e-08
2171.96	6.40201e-08
2180.63	4.20789e-08
2189.31	7.7791e-08
2197.99	3.09405e-08
2206.67	2.44316e-07
2215.35	4.48604e-07
2224.02	5.12414e-07
2232.7	6.06331e-07
2241.38	6.76906e-07
2250.06	5.20519e-07
2258.74	6.09639e-07
2267.42	7.85773e-07
2276.09	1.03426e-06
2284.77	1.07924e-06
2293.45	8.51109e-07
2302.13	7.4014e-07
2310.81	1.75763e-06
2319.48	1.79855e-06
2328.16	1.30224e-06
2336.84	2.32488e-06
2345.52	2.22103e-06
2354.2	1.22555e-06
2362.88	-2.6458e-07
2371.55	6.26843e-07
2380.23	7.61923e-07
2388.91	4.27347e-07
2397.59	1.28203e-07
2406.27	4.78551e-07
2414.94	5.85581e-07
2423.62	9.05913e-07
2432.3	1.0403e-06
2440.98	1.25238e-06
2449.66	6.05977e-07
2458.34	1.73343e-07
2467.01	1.93014e-07
2475.69	3.50809e-08
2484.37	2.15652e-07
2493.05	4.07699e-07
2501.73	4.35411e-07
2510.4	5.34657e-07
2519.08	7.44025e-07
2527.76	9.36693e-07
2536.44	9.49348e-07
2545.12	4.76625e-07
2553.8	6.28048e-07
2562.47	7.55588e-07
2571.15	5.08243e-07
2579.83	8.34001e-07
2588.51	9.85191e-07
2597.19	1.27313e-06
2605.86	1.80125e-06
2614.54	2.08698e-06
2623.22	1.9236e-06
2631.9	2.49411e-06
2640.58	3.20966e-06
2649.26	2.58848e-06
2657.93	1.24956e-06
2666.61	5.75608e-07
2675.29	6.77977e-07
2683.97	8.08072e-07
2692.65	9.64808e-07
2701.32	1.47058e-06
2710	1.5432e-06
2718.68	9.46292e-07
2727.36	1.4757e-06
2736.04	3.54423e-06
2744.71	3.28189e-06
2753.39	2.34367e-06
2762.07	2.75616e-06
2770.75	3.41145e-06
2779.43	5.0241e-06
2788.11	5.92415e-06
2796.78	5.74595e-06
2805.46	4.91686e-06
2814.14	5.53028e-06
2822.82	7.19004e-06
2831.5	1.03958e-05
2840.17	1.41196e-05
2848.85	1.86856e-05
2857.53	3.09042e-05
2866.21	6.21191e-05
2874.89	0.000105117
2883.57	0.000132713
2892.24	0.000117908
2900.92	9.33434e-05
2909.6	8.78539e-05
2918.28	8.01443e-05
2926.96	9.68218e-05
2935.63	0.00016307
2944.31	0.000206335
2952.99	0.000166559
2961.67	0.000146506
2970.35	0.000420074
2979.03	0.000429372
2987.7	0.000144715
2996.38	5.36017e-05
3005.06	4.44749e-05
3013.74	4.90591e-05
3022.42	8.63874e-05
3031.09	0.000209022
3039.77	0.000235369
3048.45	0.000140228
3057.13	6.61042e-05
3065.81	0.00011111
3074.49	0.000167808
3083.16	0.000137897
3091.84	8.5101e-05
3100.52	6.89523e-05
3109.2	4.24499e-05
3117.88	2.85486e-05
3126.55	1.46665e-05
3135.23	4.91014e-06
3143.91	3.22945e-06
3152.59	3.34741e-06
3161.27	3.58308e-06
3169.95	4.60915e-06
3178.62	5.79308e-06
3187.3	6.14766e-06
3195.98	3.53059e-06
3204.66	1.87521e-06
3213.34	7.79248e-07
3222.01	1.10762e-06
3230.69	5.51522e-07
3239.37	4.16665e-07
3248.05	5.63241e-07
3256.73	1.65161e-07
3265.41	5.03806e-07
3274.08	7.03107e-07
3282.76	4.20805e-07
3291.44	4.60818e-07
3300.12	2.30425e-07
3308.8	4.4527e-07
3317.47	2.22568e-07
3326.15	-2.13057e-07
3334.83	2.29972e-07
3343.51	7.71371e-08
3352.19	3.13063e-07
3360.87	-9.11808e-08
3369.54	2.58201e-09
3378.22	2.16569e-07
3386.9	2.97998e-07
3395.58	2.26335e-07
3404.26	8.30069e-08
3412.93	-2.81165e-07
3421.61	7.31267e-09
3430.29	1.78443e-07
3438.97	9.566e-08
3447.65	-1.96526e-07
3456.33	-6.12357e-08
3465	-4.53343e-07
3473.68	2.00057e-07
3482.36	-4.41172e-07
3491.04	-6.51803e-07
3499.72	4.67941e-08
3508.39	-4.74031e-07
3517.07	3.37564e-07
3525.75	4.67962e-07
3534.43	6.12919e-07
3543.11	-1.6147e-07
3551.79	1.55603e-08
3560.46	-7.5485e-08
3569.14	-1.38096e-07
3577.82	6.69054e-08
3586.5	-9.32867e-08
3595.18	-2.60214e-07
3603.85	-2.03111e-07
3612.53	-2.7516e-07
3621.21	5.00027e-07
3629.89	-3.89849e-09
3638.57	3.7429e-07
3647.25	8.40415e-07
3655.92	1.37016e-06
3664.6	1.0442e-06
3673.28	4.31532e-07
3681.96	5.13903e-07
3690.64	5.34055e-07
3699.31	7.79027e-07
3707.99	6.57195e-07
3716.67	5.60611e-07
3725.35	7.34885e-07
3734.03	4.87269e-07
3742.71	5.84898e-07
3751.38	2.29993e-07
3760.06	-1.22216e-08
3768.74	3.81745e-07
3777.42	2.17212e-07
3786.1	1.63972e-07
3794.77	3.16134e-07
3803.45	1.7143e-07
3812.13	3.62737e-07
3820.81	2.83171e-08
3829.49	4.73378e-07
3838.17	7.15051e-07
3846.84	9.02006e-07
3855.52	3.47322e-07
3864.2	1.60438e-07
3872.88	2.25175e-07
3881.56	1.41538e-08
3890.23	1.1032e-07
3898.91	2.19307e-08
3907.59	4.08644e-07
3916.27	2.72847e-07
3924.95	7.56631e-07
3933.63	1.46711e-06
3942.3	1.46503e-06
3950.98	1.15978e-06
3959.66	7.05075e-07
3968.34	1.02236e-06
