Infrared Spectrum: N-Methylaniline
Formula: C7 H9 N
CAS: 100-61-8
State: SOLUTION (10% CCl4 FOR 3800-1335, 10% CS2 FOR 1335-450 CM^-^1)
Class: COBLENTZ III
Instrument: DOW KBr FOREPRISM-GRATING
Instrument parameters: BLAZED AT 3.5, 12.0, 20.0 MICRON AND CHANGED AT 5.0, 7.5, 14.9 MICRON
Sampling: TRANSMISSION
Path length: 0.010 CM, 0.011 CM
Resolution: 2
Origin: DOW CHEMICAL COMPANY
1/CM	TRANSMITTANCE
3796	0.9394
3787	0.94
3778	0.94
3769	0.9408
3760	0.9424
3751	0.9417
3742	0.9423
3733	0.9424
3724	0.9445
3715	0.9447
3706	0.9459
3697	0.9454
3688	0.9424
3679	0.9381
3670	0.9338
3661	0.9298
3652	0.9295
3643	0.9289
3634	0.9285
3625	0.9297
3616	0.9302
3607	0.9312
3598	0.9308
3589	0.9315
3580	0.9313
3571	0.9286
3562	0.9273
3553	0.9261
3544	0.9238
3535	0.9216
3526	0.9143
3517	0.9084
3508	0.9019
3499	0.8947
3490	0.8853
3481	0.8695
3472	0.8323
3463	0.7591
3454	0.7093
3445	0.476
3436	0.3794
3427	0.4243
3418	0.5227
3409	0.6033
3400	0.6839
3391	0.7646
3382	0.8071
3373	0.8285
3364	0.8471
3355	0.8611
3346	0.8752
3337	0.8893
3328	0.8988
3319	0.9088
3310	0.9201
3301	0.9236
3292	0.9245
3283	0.9265
3274	0.9266
3265	0.9267
3256	0.9236
3247	0.9232
3238	0.9211
3229	0.9189
3220	0.9157
3211	0.9119
3202	0.9072
3193	0.9072
3184	0.9046
3175	0.9041
3166	0.9041
3157	0.9052
3148	0.9045
3139	0.904
3130	0.8877
3121	0.8335
3112	0.8135
3103	0.7471
3094	0.6854
3085	0.642
3076	0.6904
3067	0.595
3058	0.3848
3049	0.4052
3040	0.5484
3031	0.5621
3022	0.4431
3013	0.523
3004	0.6606
2995	0.5874
2986	0.482
2977	0.4884
2968	0.5913
2959	0.6274
2950	0.5234
2941	0.5305
2932	0.4529
2923	0.4754
2914	0.4223
2905	0.3427
2896	0.3925
2887	0.3754
2878	0.3429
2869	0.5268
2860	0.5893
2851	0.6819
2842	0.7202
2833	0.7251
2824	0.4587
2815	0.2892
2806	0.4868
2797	0.6834
2788	0.7684
2779	0.8212
2770	0.8496
2761	0.8628
2752	0.8664
2743	0.8679
2734	0.8802
2725	0.8959
2716	0.9026
2707	0.9055
2698	0.907
2689	0.9066
2680	0.9068
2671	0.9076
2662	0.9097
2653	0.9106
2644	0.9061
2635	0.9075
2626	0.9125
2617	0.915
2608	0.9138
2599	0.9056
2590	0.8946
2581	0.8605
2572	0.8551
2563	0.88
2554	0.8997
2545	0.9093
2536	0.9152
2527	0.9205
2518	0.9266
2509	0.9317
2500	0.9311
2491	0.927
2482	0.926
2473	0.9268
2464	0.9277
2455	0.9304
2446	0.936
2437	0.9381
2428	0.9386
2419	0.9311
2410	0.9259
2401	0.9245
2392	0.9255
2383	0.9332
2374	0.9423
2365	0.9396
2356	0.9421
2347	0.9357
2338	0.91
2329	0.9218
2320	0.9362
2311	0.9332
2302	0.9319
2293	0.937
2284	0.9402
2275	0.9402
2266	0.9422
2257	0.9396
2248	0.939
2239	0.9394
2230	0.9391
2221	0.9387
2212	0.9395
2203	0.9401
2194	0.9406
2185	0.939
2176	0.9427
2167	0.9444
2158	0.9422
2149	0.9378
2140	0.933
2131	0.9269
2122	0.9194
2113	0.9192
2104	0.9237
2095	0.9295
2086	0.9329
2077	0.9353
2068	0.9279
2059	0.9271
2050	0.9302
2041	0.9295
2032	0.9307
2023	0.9341
2014	0.933
2005	0.931
1996	0.9145
1987	0.8968
1978	0.8956
1969	0.9001
1960	0.9061
1951	0.8994
1942	0.8655
1933	0.8432
1924	0.8128
1915	0.7854
1906	0.8487
1897	0.8735
1888	0.8825
1879	0.8894
1870	0.8906
1861	0.8892
1852	0.8868
1843	0.8578
1834	0.8436
1825	0.8266
1816	0.8409
1807	0.8728
1798	0.8732
1789	0.8621
1780	0.8613
1771	0.8438
1762	0.8389
1753	0.8592
1744	0.8606
1735	0.8591
1726	0.8575
1717	0.853
1708	0.843
1699	0.8313
1690	0.8068
1681	0.7861
1672	0.811
1663	0.8193
1654	0.8254
1645	0.8074
1636	0.7062
1627	0.4476
1618	0.0485
1609	0.0101
1600	0.055
1591	0.2727
1582	0.4715
1573	0.657
1564	0.6429
1555	0.6651
1546	0.7226
1537	0.6476
1528	0.4274
1519	0.0322
1510	0.009
1501	0.0816
1492	0.2997
1483	0.43
1474	0.3344
1465	0.6336
1456	0.6482
1447	0.4674
1438	0.689
1429	0.6563
1420	0.4621
1411	0.7517
1402	0.8124
1393	0.8257
1384	0.8417
1375	0.7902
1366	0.8081
1357	0.7948
1348	0.7201
1339	0.4524
1330	0.5063
1321	0.0246
1312	0.1728
1303	0.5864
1294	0.7317
1285	0.7338
1276	0.389
1267	0.0844
1258	0.3851
1249	0.7308
1240	0.8492
1231	0.8924
1222	0.9089
1213	0.9173
1204	0.8751
1195	0.8298
1186	0.6955
1177	0.254
1168	0.7653
1159	0.6076
1150	0.4277
1141	0.7699
1132	0.8505
1123	0.8723
1114	0.9057
1105	0.9054
1096	0.9129
1087	0.8777
1078	0.644
1069	0.4515
1060	0.7284
1051	0.8815
1042	0.9429
1033	0.9346
1024	0.7788
1015	0.9327
1006	0.9487
997	0.7959
988	0.8408
979	0.9157
970	0.9321
961	0.9149
952	0.9268
943	0.9177
934	0.9432
925	0.9529
916	0.956
907	0.9564
898	0.9536
889	0.9449
880	0.9116
871	0.6698
862	0.6261
853	0.9273
844	0.9374
835	0.9204
826	0.8957
817	0.8518
808	0.856
799	0.8041
790	0.7608
781	0.7992
772	0.7423
763	0.6115
754	0.1328
745	0.0079
736	0.4553
727	0.719
718	0.7507
709	0.6635
700	0.3606
691	0.0022
682	0.6102
673	0.7337
664	0.7489
655	0.7326
646	0.7335
637	0.7353
628	0.73
619	0.6925
610	0.7148
601	0.7262
592	0.7557
583	0.819
574	0.8792
565	0.8941
556	0.8787
547	0.8271
538	0.7782
529	0.7229
520	0.5987
511	0.3629
502	0.3755
493	0.5392
484	0.5849
475	0.6081
466	0.6236
457	0.6355
