Infrared Spectrum: Ethylbenzene
Formula: C6 H5 C2 H5
CAS: 100-41-4
State: gas
Melting point: -94.97 C
Boiling point: 136.2 C
Class: IUPAC A
Instrument: IFS66V (Bruker)
Instrument parameters: KBr Beam Splitter; MCT Detector; Multipass cell
Sampling: 1 L/min Flow
Resolution: 0.1250
Temperature: 23 C
Pressure: 101.3 Pa
Origin: NIST, Analytical Chemistry Division, 301-975-3108
cm-1	(micromol/mol)-1m-1 (base 10)
575.05	8.19304e-06
583.608	-1.2369e-06
592.165	-2.15839e-06
600.723	-4.42463e-07
609.281	1.49414e-06
617.838	1.36695e-07
626.396	2.60721e-08
634.954	-5.44457e-07
643.511	5.90397e-07
652.069	8.35269e-07
660.626	1.21745e-06
669.184	5.69404e-06
677.742	3.80008e-05
686.299	0.000123305
694.857	0.000222375
703.415	0.000179592
711.972	0.000114581
720.53	7.60669e-05
729.088	8.95124e-05
737.645	0.000113415
746.203	0.000115302
754.761	9.85619e-05
763.318	6.86442e-05
771.876	6.7286e-05
780.434	3.31082e-05
788.991	2.00679e-05
797.549	1.13888e-05
806.106	5.28226e-06
814.664	3.56154e-06
823.222	1.30671e-06
831.779	8.82288e-07
840.337	9.86106e-07
848.895	-1.01518e-07
857.452	-5.55308e-07
866.01	1.74991e-07
874.568	1.32145e-06
883.125	3.62793e-06
891.683	6.90955e-06
900.241	8.02799e-06
908.798	7.44661e-06
917.356	4.66036e-06
925.914	2.67815e-08
934.471	-5.72412e-07
943.029	3.72378e-07
951.586	2.43351e-06
960.144	1.02799e-05
968.702	1.30296e-05
977.259	4.80961e-06
985.817	1.00707e-06
994.375	2.5715e-06
1002.93	3.73253e-06
1011.49	5.36929e-06
1020.05	1.54332e-05
1028.61	2.82844e-05
1037.16	3.22576e-05
1045.72	1.81815e-05
1054.28	1.85765e-05
1062.84	2.47743e-05
1071.39	2.68854e-05
1079.95	1.05318e-05
1088.51	1.01802e-05
1097.07	1.10817e-05
1105.62	9.11703e-06
1114.18	7.01751e-06
1122.74	3.11374e-06
1131.3	1.02295e-06
1139.85	1.14301e-06
1148.41	4.51305e-07
1156.97	2.89651e-08
1165.53	-4.10829e-07
1174.09	-3.9026e-07
1182.64	6.32493e-08
1191.2	1.19188e-06
1199.76	1.50889e-06
1208.32	9.5828e-07
1216.87	6.64309e-07
1225.43	1.89442e-07
1233.99	1.70352e-06
1242.55	2.35818e-06
1251.1	1.8737e-06
1259.66	1.37592e-06
1268.22	1.88873e-06
1276.78	1.72837e-06
1285.33	2.85403e-06
1293.89	4.85226e-06
1302.45	5.82846e-06
1311.01	6.38052e-06
1319.57	1.32998e-05
1328.12	2.10149e-05
1336.68	1.75786e-05
1345.24	7.04949e-06
1353.8	3.48635e-06
1362.35	4.50452e-06
1370.91	9.74294e-06
1379.47	2.0172e-05
1388.03	1.51533e-05
1396.58	9.88081e-06
1405.14	5.76628e-06
1413.7	5.6138e-06
1422.26	7.28253e-06
1430.81	1.05034e-05
1439.37	2.25184e-05
1447.93	5.65374e-05
1456.49	7.74088e-05
1465.05	8.43579e-05
1473.6	4.59916e-05
1482.16	2.72292e-05
1490.72	6.2839e-05
1499.28	0.000103601
1507.83	6.83e-05
1516.39	8.0542e-06
1524.95	6.08964e-06
1533.51	5.52679e-06
1542.06	3.8235e-06
1550.62	3.70502e-06
1559.18	2.86381e-06
1567.74	2.99163e-06
1576.29	2.79934e-06
1584.85	7.43681e-06
1593.41	1.66201e-05
1601.97	4.29781e-05
1610.53	5.18285e-05
1619.08	3.05792e-05
1627.64	4.32845e-06
1636.2	2.38002e-06
1644.76	2.99582e-06
1653.31	1.92525e-06
1661.87	3.43077e-06
1670.43	2.76497e-06
1678.99	2.36853e-06
1687.54	1.14574e-06
1696.1	1.09073e-07
1704.66	7.74988e-07
1713.22	8.68151e-07
1721.77	1.87019e-06
1730.33	4.55543e-06
1738.89	5.98212e-06
1747.45	5.80879e-06
1756.01	2.12669e-06
1764.56	4.12126e-07
1773.12	1.51438e-06
1781.68	1.62507e-06
1790.24	8.40591e-06
1798.79	1.48114e-05
1807.35	9.87368e-06
1815.91	3.29537e-06
1824.47	2.14668e-06
1833.02	1.06954e-06
1841.58	8.79275e-07
1850.14	3.3762e-06
1858.7	8.7856e-06
1867.25	9.81533e-06
1875.81	1.20323e-05
1884.37	6.98194e-06
1892.93	1.55667e-06
1901.49	-3.29295e-08
1910.04	6.21372e-07
1918.6	1.64654e-06
1927.16	4.99319e-06
1935.72	1.17984e-05
1944.27	1.34217e-05
1952.83	1.22901e-05
1961.39	6.63877e-06
1969.95	1.08156e-06
1978.5	2.51889e-07
1987.06	1.48748e-07
1995.62	3.11484e-07
2004.18	-2.62311e-07
2012.73	-2.69761e-07
2021.29	2.79135e-07
2029.85	4.88552e-07
2038.41	5.86065e-07
2046.97	-2.28411e-08
2055.52	-9.37128e-09
2064.08	-4.71462e-07
2072.64	-4.07312e-07
2081.2	-3.50448e-07
2089.75	-2.12887e-07
2098.31	-2.54602e-07
2106.87	-2.47343e-07
2115.43	1.50531e-07
2123.98	1.45361e-07
2132.54	-1.69705e-07
2141.1	1.2738e-07
2149.66	-1.07629e-07
2158.21	-6.30988e-08
2166.77	1.85781e-07
2175.33	3.79717e-07
2183.89	1.98358e-08
2192.45	-3.69954e-08
2201	9.00203e-08
2209.56	3.86048e-07
2218.12	4.87911e-07
2226.68	4.82004e-07
2235.23	1.0671e-06
2243.79	7.80344e-07
2252.35	4.42261e-07
2260.91	5.94815e-07
2269.46	7.23036e-07
2278.02	1.29969e-06
2286.58	1.05004e-06
2295.14	1.00536e-06
2303.69	6.39852e-07
2312.25	1.32147e-06
2320.81	1.75582e-06
2329.37	1.69794e-06
2337.93	1.99358e-06
2346.48	1.96097e-06
2355.04	1.37854e-06
2363.6	1.42659e-06
2372.16	1.40038e-06
2380.71	6.18717e-07
2389.27	5.37755e-07
2397.83	6.4996e-09
2406.39	5.43512e-07
2414.94	5.90183e-07
2423.5	9.78344e-07
2432.06	1.05775e-06
2440.62	1.166e-06
2449.17	8.91932e-07
2457.73	6.55171e-08
2466.29	4.95252e-07
2474.85	2.16714e-07
2483.41	-1.03321e-07
2491.96	5.87648e-07
2500.52	3.63919e-07
2509.08	4.69822e-07
2517.64	6.1778e-07
2526.19	1.11291e-06
2534.75	1.08978e-06
2543.31	6.07002e-07
2551.87	7.53869e-07
2560.42	8.58711e-07
2568.98	8.62489e-07
2577.54	1.13042e-07
2586.1	9.64185e-07
2594.65	1.36034e-06
2603.21	1.67124e-06
2611.77	2.00395e-06
2620.33	1.62711e-06
2628.89	2.2008e-06
2637.44	3.25143e-06
2646	3.14232e-06
2654.56	1.6491e-06
2663.12	1.03854e-06
2671.67	6.05787e-07
2680.23	8.48245e-07
2688.79	6.74008e-07
2697.35	1.19023e-06
2705.9	1.48087e-06
2714.46	4.50665e-07
2723.02	7.39719e-07
2731.58	2.55299e-06
2740.13	3.33249e-06
2748.69	3.02198e-06
2757.25	2.55715e-06
2765.81	2.58192e-06
2774.37	3.73469e-06
2782.92	5.44157e-06
2791.48	6.82866e-06
2800.04	5.39282e-06
2808.6	4.80843e-06
2817.15	5.92859e-06
2825.71	8.60431e-06
2834.27	1.09691e-05
2842.83	1.52726e-05
2851.38	2.16818e-05
2859.94	3.70477e-05
2868.5	7.22019e-05
2877.06	0.000124903
2885.61	0.000151291
2894.17	0.000111401
2902.73	9.2277e-05
2911.29	8.90878e-05
2919.85	7.88695e-05
2928.4	0.000104691
2936.96	0.000175099
2945.52	0.000198599
2954.08	0.000160196
2962.63	0.00016378
2971.19	0.000415791
2979.75	0.000430591
2988.31	0.000131991
2996.86	5.17927e-05
3005.42	4.46998e-05
3013.98	4.94549e-05
3022.54	8.70966e-05
3031.09	0.000208902
3039.65	0.000235589
3048.21	0.000143594
3056.77	6.57046e-05
3065.33	0.000105605
3073.88	0.0001565
3082.44	0.000144622
3091	8.91966e-05
3099.56	7.13039e-05
3108.11	4.4746e-05
3116.67	3.01927e-05
3125.23	1.78806e-05
3133.79	5.78692e-06
3142.34	3.17248e-06
3150.9	3.02498e-06
3159.46	3.28102e-06
3168.02	4.5233e-06
3176.57	5.53834e-06
3185.13	5.80787e-06
3193.69	4.59391e-06
3202.25	1.61011e-06
3210.81	1.12829e-06
3219.36	7.0042e-07
3227.92	4.52523e-07
3236.48	5.79814e-07
3245.04	3.63409e-07
3253.59	5.65246e-07
3262.15	1.40245e-06
3270.71	2.46508e-07
3279.27	4.33327e-07
3287.82	1.37024e-07
3296.38	6.38197e-07
3304.94	5.8907e-08
3313.5	-4.27838e-07
3322.05	-5.86128e-07
3330.61	4.16399e-07
3339.17	-2.75074e-07
3347.73	-4.33781e-07
3356.29	-2.67199e-07
3364.84	4.13537e-07
3373.4	-4.6483e-07
3381.96	1.88725e-07
3390.52	6.93398e-07
3399.07	1.16702e-07
3407.63	-3.88985e-08
3416.19	1.49997e-07
3424.75	-7.25336e-07
3433.3	9.55609e-08
3441.86	-3.68576e-08
3450.42	1.96052e-08
3458.98	-3.52354e-07
3467.53	2.91573e-07
3476.09	2.88368e-07
3484.65	1.81809e-07
3493.21	-1.53516e-08
3501.77	-3.97629e-07
3510.32	5.21336e-07
3518.88	9.63306e-07
3527.44	7.51782e-07
3536	9.26837e-07
3544.55	-8.28286e-07
3553.11	-1.03067e-08
3561.67	-2.3768e-07
3570.23	-4.93397e-08
3578.78	4.21613e-07
3587.34	-3.20197e-07
3595.9	9.3585e-08
3604.46	-1.64632e-07
3613.01	1.31737e-07
3621.57	6.688e-07
3630.13	3.39073e-07
3638.69	7.11966e-07
3647.25	1.21917e-06
3655.8	1.23363e-06
3664.36	1.28767e-06
3672.92	5.23493e-07
3681.48	5.98848e-07
3690.03	6.99056e-07
3698.59	1.00089e-06
3707.15	8.36612e-07
3715.71	7.89951e-07
3724.26	1.43441e-06
3732.82	5.66639e-07
3741.38	4.28246e-07
3749.94	7.16361e-07
3758.49	5.40708e-07
3767.05	7.03904e-07
3775.61	-4.47778e-08
3784.17	1.57731e-07
3792.73	2.96615e-07
3801.28	-3.54105e-07
3809.84	8.54979e-08
3818.4	4.05454e-07
3826.96	5.26643e-07
3835.51	1.01745e-06
3844.07	7.18553e-07
3852.63	6.43767e-07
3861.19	6.36717e-07
3869.74	1.57915e-07
3878.3	4.93389e-07
3886.86	-2.91766e-07
3895.42	1.29895e-07
3903.97	1.33033e-07
3912.53	4.93331e-07
3921.09	6.76192e-07
3929.65	1.13569e-06
3938.21	1.57499e-06
3946.76	1.78206e-06
3955.32	6.16502e-07
3963.88	8.70838e-07
3972.44	8.78297e-07
