Infrared Spectrum: Ethylbenzene
Formula: C6 H5 C2 H5
CAS: 100-41-4
State: gas
Melting point: -94.97 C
Boiling point: 136.2 C
Class: IUPAC A
Instrument: IFS66V (Bruker)
Instrument parameters: KBr Beam Splitter; MCT Detector; Multipass cell
Sampling: 1 L/min Flow
Resolution: 1.9290
Temperature: 23 C
Pressure: 101.3 Pa
Origin: NIST, Analytical Chemistry Division, 301-975-3108
cm-1	(micromol/mol)-1m-1 (base 10)
575.652	4.46672e-06
584.33	1.52506e-06
593.008	2.03366e-07
601.687	-1.00987e-07
610.365	6.88213e-08
619.043	2.95692e-07
627.721	1.16504e-06
636.399	7.89715e-07
645.077	3.70529e-07
653.756	5.0963e-07
662.434	1.8639e-06
671.112	1.06697e-05
679.79	5.51851e-05
688.468	0.000149004
697.147	0.000335531
705.825	0.000167737
714.503	9.62936e-05
723.181	7.94383e-05
731.859	9.60607e-05
740.537	0.000118526
749.216	0.000114849
757.894	8.65781e-05
766.572	6.01291e-05
775.25	4.11165e-05
783.928	2.82231e-05
792.607	1.54264e-05
801.285	9.26172e-06
809.963	5.23377e-06
818.641	2.71475e-06
827.319	1.35746e-06
835.997	6.12802e-07
844.676	3.03559e-07
853.354	-2.67524e-09
862.032	-1.46979e-07
870.71	7.24449e-07
879.388	2.38159e-06
888.066	5.29308e-06
896.745	7.49659e-06
905.423	9.11222e-06
914.101	5.9188e-06
922.779	1.40581e-06
931.457	1.401e-07
940.136	1.26933e-07
948.814	1.35374e-06
957.492	9.37312e-06
966.17	1.16282e-05
974.848	6.8175e-06
983.526	2.20561e-06
992.205	2.19745e-06
1000.88	3.76734e-06
1009.56	4.8595e-06
1018.24	1.20147e-05
1026.92	2.9825e-05
1035.6	3.22846e-05
1044.27	2.02908e-05
1052.95	1.74861e-05
1061.63	2.71108e-05
1070.31	2.74741e-05
1078.99	1.06497e-05
1087.66	1.04691e-05
1096.34	1.14833e-05
1105.02	9.03932e-06
1113.7	7.02178e-06
1122.38	3.61014e-06
1131.06	1.62562e-06
1139.73	9.65774e-07
1148.41	6.54156e-07
1157.09	1.90523e-07
1165.77	6.38778e-08
1174.45	2.90856e-08
1183.12	4.54806e-07
1191.8	9.12491e-07
1200.48	1.27559e-06
1209.16	9.20808e-07
1217.84	2.04578e-07
1226.52	2.5703e-07
1235.19	1.86106e-06
1243.87	2.43546e-06
1252.55	1.86406e-06
1261.23	1.70664e-06
1269.91	1.68431e-06
1278.58	2.1788e-06
1287.26	3.34775e-06
1295.94	4.87192e-06
1304.62	5.92206e-06
1313.3	7.76237e-06
1321.98	1.65622e-05
1330.65	2.10573e-05
1339.33	1.41153e-05
1348.01	5.8074e-06
1356.69	3.78068e-06
1365.37	5.96585e-06
1374.04	1.20591e-05
1382.72	1.72788e-05
1391.4	1.36465e-05
1400.08	7.49154e-06
1408.76	5.63654e-06
1417.44	6.4338e-06
1426.11	8.64279e-06
1434.79	1.45615e-05
1443.47	3.61899e-05
1452.15	7.38434e-05
1460.83	8.22494e-05
1469.5	6.70552e-05
1478.18	3.59948e-05
1486.86	3.61424e-05
1495.54	9.17314e-05
1504.22	8.52191e-05
1512.9	1.87785e-05
1521.57	6.31535e-06
1530.25	6.42098e-06
1538.93	5.02006e-06
1547.61	3.90889e-06
1556.29	3.49925e-06
1564.96	3.39124e-06
1573.64	3.87776e-06
1582.32	6.42673e-06
1591	1.43739e-05
1599.68	3.26732e-05
1608.36	4.99802e-05
1617.03	3.91965e-05
1625.71	6.91039e-06
1634.39	2.84522e-06
1643.07	2.8861e-06
1651.75	3.57618e-06
1660.42	3.65478e-06
1669.1	2.83796e-06
1677.78	2.29246e-06
1686.46	1.33626e-06
1695.14	6.04419e-07
1703.82	7.5668e-07
1712.49	9.50916e-07
1721.17	1.76576e-06
1729.85	4.29275e-06
1738.53	6.04883e-06
1747.21	5.83317e-06
1755.88	2.10005e-06
1764.56	6.44167e-07
1773.24	1.14358e-06
1781.92	1.86531e-06
1790.6	8.59388e-06
1799.28	1.45157e-05
1807.95	9.17115e-06
1816.63	2.99488e-06
1825.31	2.04499e-06
1833.99	8.64041e-07
1842.67	1.25691e-06
1851.34	3.8639e-06
1860.02	8.87799e-06
1868.7	1.0844e-05
1877.38	1.04584e-05
1886.06	7.73025e-06
1894.74	1.15494e-06
1903.41	5.01171e-07
1912.09	7.86232e-07
1920.77	2.42611e-06
1929.45	6.96473e-06
1938.13	1.10178e-05
1946.8	1.36626e-05
1955.48	1.00282e-05
1964.16	6.89151e-06
1972.84	5.3668e-07
1981.52	5.11571e-07
1990.2	4.12162e-07
1998.87	1.6306e-07
2007.55	2.70384e-08
2016.23	1.74919e-07
2024.91	5.1676e-07
2033.59	4.8548e-07
2042.26	2.22829e-07
2050.94	-1.63379e-07
2059.62	-3.37662e-07
2068.3	-4.03949e-07
2076.98	-3.5482e-07
2085.66	-2.86562e-07
2094.33	-1.986e-07
2103.01	-1.3078e-07
2111.69	-1.33375e-07
2120.37	-1.80286e-08
2129.05	6.28305e-08
2137.72	-4.39252e-08
2146.4	-1.64257e-08
2155.08	3.93896e-09
2163.76	9.65513e-08
2172.44	6.78595e-08
2181.12	1.19454e-07
2189.79	1.23521e-07
2198.47	5.34119e-08
2207.15	2.50423e-07
2215.83	4.80055e-07
2224.51	5.8497e-07
2233.18	6.51044e-07
2241.86	6.66729e-07
2250.54	5.52297e-07
2259.22	6.13984e-07
2267.9	7.82651e-07
2276.58	1.0427e-06
2285.25	1.1004e-06
2293.93	9.07474e-07
2302.61	7.33154e-07
2311.29	1.51233e-06
2319.97	1.74035e-06
2328.64	1.23814e-06
2337.32	1.91723e-06
2346	2.05e-06
2354.68	1.20166e-06
2363.36	7.1903e-07
2372.04	9.00637e-07
2380.71	7.76098e-07
2389.39	4.4728e-07
2398.07	2.95693e-07
2406.75	5.15455e-07
2415.43	7.02436e-07
2424.1	7.34793e-07
2432.78	1.07198e-06
2441.46	1.25776e-06
2450.14	7.04565e-07
2458.82	2.14836e-07
2467.5	1.44324e-07
2476.17	2.56246e-07
2484.85	2.62787e-07
2493.53	3.69054e-07
2502.21	4.29119e-07
2510.89	5.32024e-07
2519.56	6.51843e-07
2528.24	8.96649e-07
2536.92	8.97795e-07
2545.6	7.44057e-07
2554.28	6.97349e-07
2562.96	6.80579e-07
2571.63	6.93127e-07
2580.31	8.00533e-07
2588.99	9.49275e-07
2597.67	1.2287e-06
2606.35	1.80307e-06
2615.02	1.82148e-06
2623.7	1.89666e-06
2632.38	2.71483e-06
2641.06	3.24259e-06
2649.74	2.5092e-06
2658.42	1.28825e-06
2667.09	8.50439e-07
2675.77	7.31533e-07
2684.45	6.89236e-07
2693.13	9.71871e-07
2701.81	1.55275e-06
2710.48	1.40537e-06
2719.16	1.11956e-06
2727.84	1.83919e-06
2736.52	3.59852e-06
2745.2	3.34939e-06
2753.88	2.49825e-06
2762.55	2.81506e-06
2771.23	3.69519e-06
2779.91	5.19228e-06
2788.59	6.22762e-06
2797.27	5.84084e-06
2805.94	5.09128e-06
2814.62	5.67984e-06
2823.3	7.70982e-06
2831.98	1.09642e-05
2840.66	1.48148e-05
2849.34	1.95274e-05
2858.01	3.28884e-05
2866.69	6.44694e-05
2875.37	0.000108028
2884.05	0.000134117
2892.73	0.00011597
2901.4	9.34083e-05
2910.08	8.87485e-05
2918.76	8.10387e-05
2927.44	0.000100635
2936.12	0.000166237
2944.8	0.000202311
2953.47	0.000164458
2962.15	0.000161171
2970.83	0.000407316
2979.51	0.000416926
2988.19	0.000139093
2996.86	5.51422e-05
3005.54	4.62772e-05
3014.22	5.25775e-05
3022.9	9.32057e-05
3031.58	0.000207726
3040.26	0.000230776
3048.93	0.000133015
3057.61	6.86646e-05
3066.29	0.000115697
3074.97	0.000163618
3083.65	0.00013075
3092.32	8.33046e-05
3101	6.69765e-05
3109.68	4.20951e-05
3118.36	2.8112e-05
3127.04	1.41886e-05
3135.72	5.16508e-06
3144.39	3.5697e-06
3153.07	3.51473e-06
3161.75	3.82856e-06
3170.43	4.81308e-06
3179.11	6.02196e-06
3187.78	5.82857e-06
3196.46	3.75657e-06
3205.14	1.60527e-06
3213.82	8.57182e-07
3222.5	5.64827e-07
3231.18	4.53824e-07
3239.85	5.14707e-07
3248.53	6.93638e-07
3257.21	5.91515e-07
3265.89	7.42749e-07
3274.57	7.34634e-07
3283.24	5.6615e-07
3291.92	4.8556e-07
3300.6	4.44986e-07
3309.28	3.55958e-07
3317.96	1.42099e-07
3326.64	1.6081e-08
3335.31	9.53399e-08
3343.99	7.67078e-08
3352.67	7.53227e-08
3361.35	-2.75127e-08
3370.03	-4.93206e-08
3378.7	1.5459e-07
3387.38	9.17988e-08
3396.06	1.52796e-07
3404.74	8.59418e-08
3413.42	-1.42817e-07
3422.1	-8.55289e-08
3430.77	5.01555e-08
3439.45	8.4528e-08
3448.13	1.64666e-08
3456.81	-8.80845e-08
3465.49	-2.22216e-07
3474.16	-1.41193e-07
3482.84	-2.87684e-07
3491.52	-3.83163e-07
3500.2	-1.54467e-07
3508.88	-1.19914e-07
3517.56	1.90664e-07
3526.23	3.83898e-07
3534.91	4.34472e-07
3543.59	-9.07047e-08
3552.27	-7.21418e-08
3560.95	-1.17403e-07
3569.62	-1.3046e-07
3578.3	-6.45381e-08
3586.98	-4.257e-08
3595.66	5.64787e-09
3604.34	-3.31283e-08
3613.02	1.23607e-07
3621.69	4.4859e-07
3630.37	3.5007e-07
3639.05	5.81469e-07
3647.73	7.2436e-07
3656.41	1.00769e-06
3665.08	1.08047e-06
3673.76	3.69155e-07
3682.44	4.40593e-07
3691.12	4.73164e-07
3699.8	6.40114e-07
3708.48	5.53893e-07
3717.15	7.01444e-07
3725.83	6.02704e-07
3734.51	2.3168e-07
3743.19	2.53556e-07
3751.87	-1.05116e-07
3760.54	3.03484e-07
3769.22	3.28851e-07
3777.9	4.37679e-07
3786.58	3.58688e-07
3795.26	3.42882e-07
3803.94	3.07668e-07
3812.61	4.27207e-07
3821.29	3.62099e-07
3829.97	5.54766e-07
3838.65	5.34573e-07
3847.33	7.65264e-07
3856	4.03022e-07
3864.68	1.29911e-07
3873.36	9.62616e-08
3882.04	-2.17602e-08
3890.72	-1.5923e-07
3899.4	-1.14132e-07
3908.07	3.23825e-07
3916.75	4.66202e-07
3925.43	8.82149e-07
3934.11	1.47707e-06
3942.79	1.54991e-06
3951.46	1.21616e-06
3960.14	8.67132e-07
3968.82	1.01945e-06
