Infrared Spectrum: 1-CYCLOHEXENE, 4-VINYL-
Formula: C8 H12
CAS: 100-40-3
State: LIQUID (NEAT)
Class: COBLENTZ II
Instrument: PERKIN-ELMER 621 (GRATING)
Instrument parameters: GRATING CHANGE AT 623; ORDER CHANGE AT 2000. FILTERS AT 3146, 2494, 2000, 1146, 698, 497 CM^-^1
Sampling: TRANSMISSION
Path length: 0.0015 CM (CsBr WINDOWS VS CsBr WINDOW; DEMOUNTABLE WINDOWS)
Resolution: 2
Origin: PERKIN-ELMER CORP. (R. HANNAH)
1/CM	TRANSMITTANCE
4000	0.8758
3990	0.8756
3980	0.8755
3970	0.8754
3960	0.8757
3950	0.8766
3940	0.8775
3930	0.8774
3920	0.8767
3910	0.8761
3900	0.8761
3890	0.8762
3880	0.8763
3870	0.8775
3860	0.879
3850	0.8799
3840	0.8804
3830	0.881
3820	0.8816
3810	0.8816
3800	0.8816
3790	0.8816
3780	0.8816
3770	0.8817
3760	0.8818
3750	0.8818
3740	0.8821
3730	0.8821
3720	0.8823
3710	0.8824
3700	0.8825
3690	0.8827
3680	0.8828
3670	0.8828
3660	0.8828
3650	0.8827
3640	0.8825
3630	0.8825
3620	0.8824
3610	0.8825
3600	0.8827
3590	0.8828
3580	0.8828
3570	0.883
3560	0.8831
3550	0.8828
3540	0.8828
3530	0.8827
3520	0.8825
3510	0.8824
3500	0.8823
3490	0.8821
3480	0.8818
3470	0.8817
3460	0.8815
3450	0.8813
3440	0.8811
3430	0.8816
3420	0.882
3410	0.8824
3400	0.8828
3390	0.8828
3380	0.883
3370	0.8831
3360	0.8827
3350	0.8821
3340	0.8816
3330	0.8813
3320	0.8809
3310	0.8777
3300	0.8699
3290	0.8649
3280	0.8677
3270	0.8705
3260	0.8725
3250	0.8738
3240	0.8752
3230	0.8763
3220	0.8775
3210	0.878
3200	0.8775
3190	0.8771
3180	0.8774
3170	0.876
3160	0.874
3150	0.8706
3140	0.8653
3130	0.8598
3120	0.8507
3110	0.8357
3100	0.7915
3090	0.674
3080	0.3914
3070	0.4589
3060	0.5608
3050	0.6598
3040	0.5999
3030	0.2289
3020	0.1607
3010	0.4432
3000	0.4068
2990	0.4238
2980	0.3768
2970	0.3376
2960	0.4377
2950	0.3823
2940	0.176
2930	0.0784
2920	0.041
2910	0.0237
2900	0.0586
2890	0.0941
2880	0.1013
2870	0.1827
2860	0.2775
2850	0.233
2840	0.1445
2830	0.1261
2820	0.6007
2810	0.7011
2800	0.7726
2790	0.7965
2780	0.8067
2770	0.7978
2760	0.8089
2750	0.8395
2740	0.8485
2730	0.8484
2720	0.8481
2710	0.8478
2700	0.8477
2690	0.8475
2680	0.8473
2670	0.8427
2660	0.8091
2650	0.8246
2640	0.8378
2630	0.8486
2620	0.851
2610	0.8503
2600	0.8506
2590	0.8524
2580	0.8536
2570	0.8548
2560	0.8567
2550	0.8588
2540	0.8605
2530	0.8606
2520	0.8613
2510	0.8625
2500	0.8639
2490	0.8639
2480	0.8621
2470	0.863
2460	0.864
2450	0.865
2440	0.8651
2430	0.8643
2420	0.8641
2410	0.8638
2400	0.8634
2390	0.863
2380	0.8632
2370	0.8635
2360	0.8637
2350	0.8638
2340	0.8636
2330	0.8636
2320	0.8637
2310	0.8638
2300	0.8642
2290	0.8647
2280	0.8651
2270	0.8648
2260	0.8635
2250	0.8602
2240	0.859
2230	0.8593
2220	0.8604
2210	0.8614
2200	0.8624
2190	0.8634
2180	0.8644
2170	0.8653
2160	0.8653
2150	0.8652
2140	0.8651
2130	0.865
2120	0.8643
2110	0.8595
2100	0.8595
2090	0.861
2080	0.8625
2070	0.8641
2060	0.8648
2050	0.8655
2040	0.8661
2030	0.8665
2020	0.8665
2010	0.8661
2000	0.8625
1990	0.8568
1980	0.8506
1970	0.8481
1960	0.8509
1950	0.8531
1940	0.8533
1930	0.8535
1920	0.8535
1910	0.852
1900	0.8505
1890	0.8511
1880	0.8475
1870	0.8325
1860	0.8356
1850	0.8362
1840	0.8188
1830	0.7601
1820	0.7548
1810	0.819
1800	0.8337
1790	0.8398
1780	0.8433
1770	0.8462
1760	0.8485
1750	0.8498
1740	0.8492
1730	0.8457
1720	0.835
1710	0.8334
1700	0.8308
1690	0.8072
1680	0.8075
1670	0.8039
1660	0.7294
1650	0.4772
1640	0.2689
1630	0.6567
1620	0.7421
1610	0.7754
1600	0.8026
1590	0.8223
1580	0.8217
1570	0.8231
1560	0.8271
1550	0.8284
1540	0.83
1530	0.8321
1520	0.8351
1510	0.8454
1500	0.8441
1490	0.8335
1480	0.8201
1470	0.801
1460	0.7349
1450	0.5031
1440	0.4302
1430	0.4027
1420	0.4816
1410	0.6968
1400	0.768
1390	0.7578
1380	0.7918
1370	0.7942
1360	0.7928
1350	0.7772
1340	0.7457
1330	0.7256
1320	0.7605
1310	0.7657
1300	0.7542
1290	0.7411
1280	0.7724
1270	0.7565
1260	0.785
1250	0.7041
1240	0.7774
1230	0.8
1220	0.7947
1210	0.7904
1200	0.7941
1190	0.759
1180	0.7485
1170	0.7908
1160	0.8021
1150	0.7908
1140	0.5187
1130	0.6771
1120	0.7339
1110	0.7676
1100	0.7982
1090	0.8092
1080	0.7825
1070	0.7619
1060	0.781
1050	0.7586
1040	0.5214
1030	0.689
1020	0.6675
1010	0.5923
1000	0.3542
990	0.2537
980	0.6606
970	0.6967
960	0.7058
950	0.6418
940	0.651
930	0.4974
920	0.2406
910	0.0216
900	0.3666
890	0.6122
880	0.7315
870	0.5955
860	0.7693
850	0.8015
840	0.8242
830	0.8323
820	0.8358
810	0.8124
800	0.8085
790	0.8388
780	0.8436
770	0.8445
760	0.8083
750	0.8018
740	0.7895
730	0.3968
720	0.6374
710	0.7512
700	0.7483
690	0.7092
680	0.6252
670	0.3332
660	0.1804
650	0.1202
640	0.4201
630	0.6953
620	0.7543
610	0.7707
600	0.7828
590	0.7906
580	0.7926
570	0.794
560	0.7942
550	0.7928
540	0.7896
530	0.789
520	0.7918
510	0.7905
500	0.7943
490	0.7951
480	0.7615
470	0.8005
460	0.8083
450	0.8114
440	0.8122
430	0.8124
420	0.8069
410	0.7861
400	0.7982
390	0.8071
380	0.8094
370	0.8099
360	0.809
350	0.8042
340	0.8055
330	0.8085
320	0.8115
310	0.8134
300	0.8136
290	0.8137
280	0.814
270	0.8136
260	0.8132
250	0.8137
