Infrared Spectrum: Ethylbenzene
Formula: C6 H5 C2 H5
CAS: 100-41-4
State: gas
Melting point: -94.97 C
Boiling point: 136.2 C
Class: IUPAC A
Instrument: IFS66V (Bruker)
Instrument parameters: KBr Beam Splitter; MCT Detector; Multipass cell
Sampling: 1 L/min Flow
Resolution: 0.2410
Temperature: 23 C
Pressure: 101.3 Pa
Origin: NIST, Analytical Chemistry Division, 301-975-3108
cm-1	(micromol/mol)-1m-1 (base 10)
575.05	5.84953e-06
583.608	-1.04906e-06
592.165	-3.82867e-07
600.723	1.19818e-06
609.281	2.56291e-09
617.838	7.11538e-07
626.396	2.60001e-07
634.954	5.2817e-07
643.511	3.77442e-07
652.069	9.02772e-07
660.626	9.08849e-07
669.184	6.1007e-06
677.742	3.76842e-05
686.299	0.000122881
694.857	0.000221218
703.415	0.000179448
711.972	0.000115191
720.53	7.52242e-05
729.088	8.98035e-05
737.645	0.000113695
746.203	0.000115367
754.761	9.85047e-05
763.318	6.86512e-05
771.876	6.63835e-05
780.434	3.29362e-05
788.991	1.98217e-05
797.549	1.15735e-05
806.106	5.41115e-06
814.664	3.78519e-06
823.222	1.81723e-06
831.779	9.895e-07
840.337	4.89267e-07
848.895	3.61535e-07
857.452	-2.57487e-07
866.01	1.31868e-07
874.568	1.51269e-06
883.125	3.39076e-06
891.683	6.34745e-06
900.241	8.9274e-06
908.798	7.4845e-06
917.356	4.1492e-06
925.914	2.7558e-07
934.471	-4.23436e-07
943.029	3.96421e-07
951.586	2.60909e-06
960.144	1.04924e-05
968.702	1.29214e-05
977.259	4.78196e-06
985.817	1.09746e-06
994.375	2.24307e-06
1002.93	3.62309e-06
1011.49	5.23593e-06
1020.05	1.55921e-05
1028.61	2.82204e-05
1037.16	3.15158e-05
1045.72	1.79369e-05
1054.28	1.85985e-05
1062.84	2.47927e-05
1071.39	2.66819e-05
1079.95	1.07364e-05
1088.51	9.81424e-06
1097.07	1.09426e-05
1105.62	8.67914e-06
1114.18	6.93911e-06
1122.74	3.1693e-06
1131.3	1.24514e-06
1139.85	1.20792e-06
1148.41	7.08853e-07
1156.97	5.41682e-08
1165.53	8.44261e-08
1174.09	-2.73903e-07
1182.64	8.09328e-08
1191.2	9.25301e-07
1199.76	1.41095e-06
1208.32	9.08892e-07
1216.87	2.87327e-07
1225.43	1.42691e-07
1233.99	1.89032e-06
1242.55	2.00013e-06
1251.1	1.89388e-06
1259.66	1.49106e-06
1268.22	1.71952e-06
1276.78	1.9495e-06
1285.33	2.97047e-06
1293.89	4.74087e-06
1302.45	5.78142e-06
1311.01	6.47137e-06
1319.57	1.31649e-05
1328.12	2.0652e-05
1336.68	1.74918e-05
1345.24	7.09365e-06
1353.8	3.74001e-06
1362.35	3.81773e-06
1370.91	9.62762e-06
1379.47	1.98186e-05
1388.03	1.55038e-05
1396.58	9.80805e-06
1405.14	5.83423e-06
1413.7	5.73078e-06
1422.26	7.42518e-06
1430.81	1.03564e-05
1439.37	2.2671e-05
1447.93	5.65193e-05
1456.49	7.75144e-05
1465.05	8.42057e-05
1473.6	4.62783e-05
1482.16	2.72217e-05
1490.72	6.30332e-05
1499.28	0.000103578
1507.83	6.83539e-05
1516.39	7.90402e-06
1524.95	6.02029e-06
1533.51	5.48687e-06
1542.06	3.82986e-06
1550.62	3.63496e-06
1559.18	3.18831e-06
1567.74	3.06348e-06
1576.29	2.87414e-06
1584.85	7.38373e-06
1593.41	1.64815e-05
1601.97	4.30855e-05
1610.53	5.1755e-05
1619.08	3.03037e-05
1627.64	4.17109e-06
1636.2	2.50015e-06
1644.76	2.98898e-06
1653.31	1.93857e-06
1661.87	3.56859e-06
1670.43	2.87016e-06
1678.99	2.13542e-06
1687.54	1.33484e-06
1696.1	2.5607e-07
1704.66	8.80284e-07
1713.22	8.53107e-07
1721.77	1.79135e-06
1730.33	4.62718e-06
1738.89	6.0114e-06
1747.45	5.90105e-06
1756.01	2.08214e-06
1764.56	5.33979e-07
1773.12	1.36579e-06
1781.68	1.53345e-06
1790.24	8.33359e-06
1798.79	1.48931e-05
1807.35	9.98235e-06
1815.91	2.99553e-06
1824.47	2.12768e-06
1833.02	9.82297e-07
1841.58	1.0488e-06
1850.14	3.46257e-06
1858.7	8.7671e-06
1867.25	9.80608e-06
1875.81	1.18776e-05
1884.37	7.02924e-06
1892.93	1.55662e-06
1901.49	3.64506e-07
1910.04	4.96343e-07
1918.6	1.67868e-06
1927.16	5.18101e-06
1935.72	1.19208e-05
1944.27	1.33373e-05
1952.83	1.2153e-05
1961.39	6.63638e-06
1969.95	1.13168e-06
1978.5	2.8158e-07
1987.06	2.97838e-07
1995.62	2.39541e-07
2004.18	-3.18137e-07
2012.73	-8.9351e-08
2021.29	1.45375e-07
2029.85	5.20766e-07
2038.41	4.50189e-07
2046.97	3.43474e-08
2055.52	-8.39136e-08
2064.08	-4.23e-07
2072.64	-4.82521e-07
2081.2	-2.87544e-07
2089.75	-3.07942e-07
2098.31	-3.44991e-07
2106.87	-2.28634e-07
2115.43	1.16603e-07
2123.98	1.24551e-07
2132.54	-6.49728e-08
2141.1	3.2292e-08
2149.66	-1.16863e-07
2158.21	-1.24611e-07
2166.77	2.18557e-07
2175.33	3.31785e-07
2183.89	-2.31517e-08
2192.45	1.32361e-07
2201	1.15552e-07
2209.56	3.04601e-07
2218.12	5.91598e-07
2226.68	4.70516e-07
2235.23	7.5289e-07
2243.79	7.93787e-07
2252.35	4.42899e-07
2260.91	5.56076e-07
2269.46	6.99823e-07
2278.02	1.21691e-06
2286.58	9.76556e-07
2295.14	8.72464e-07
2303.69	6.17552e-07
2312.25	1.42084e-06
2320.81	1.86631e-06
2329.37	1.53643e-06
2337.93	2.03905e-06
2346.48	2.13208e-06
2355.04	1.24221e-06
2363.6	1.43667e-06
2372.16	1.3844e-06
2380.71	6.22125e-07
2389.27	4.36499e-07
2397.83	2.60675e-07
2406.39	6.04429e-07
2414.94	5.46499e-07
2423.5	8.49832e-07
2432.06	9.43387e-07
2440.62	1.3082e-06
2449.17	8.0173e-07
2457.73	5.82777e-08
2466.29	3.74543e-07
2474.85	2.43693e-07
2483.41	1.79418e-07
2491.96	3.38583e-07
2500.52	4.55899e-07
2509.08	5.29722e-07
2517.64	7.3984e-07
2526.19	1.00695e-06
2534.75	1.10604e-06
2543.31	6.81056e-07
2551.87	7.76118e-07
2560.42	7.26373e-07
2568.98	7.95826e-07
2577.54	2.67388e-07
2586.1	9.71158e-07
2594.65	1.30161e-06
2603.21	1.3895e-06
2611.77	1.88481e-06
2620.33	1.75243e-06
2628.89	2.22087e-06
2637.44	3.2168e-06
2646	3.06669e-06
2654.56	1.70555e-06
2663.12	9.78872e-07
2671.67	7.23811e-07
2680.23	8.51115e-07
2688.79	5.07568e-07
2697.35	1.21226e-06
2705.9	1.42933e-06
2714.46	5.68418e-07
2723.02	9.26602e-07
2731.58	2.52952e-06
2740.13	3.49112e-06
2748.69	3.04321e-06
2757.25	2.3818e-06
2765.81	2.86177e-06
2774.37	3.70516e-06
2782.92	5.31111e-06
2791.48	6.4519e-06
2800.04	5.27387e-06
2808.6	4.80505e-06
2817.15	6.00293e-06
2825.71	8.12066e-06
2834.27	1.10204e-05
2842.83	1.52245e-05
2851.38	2.14514e-05
2859.94	3.70795e-05
2868.5	7.2381e-05
2877.06	0.00012477
2885.61	0.000151736
2894.17	0.00011163
2902.73	9.25225e-05
2911.29	8.92522e-05
2919.85	7.90547e-05
2928.4	0.000104582
2936.96	0.000174833
2945.52	0.000198838
2954.08	0.000160417
2962.63	0.000164257
2971.19	0.000416184
2979.75	0.000430575
2988.31	0.000131966
2996.86	5.20549e-05
3005.42	4.46799e-05
3013.98	4.93026e-05
3022.54	8.71568e-05
3031.09	0.000208815
3039.65	0.000235433
3048.21	0.0001435
3056.77	6.59198e-05
3065.33	0.000105928
3073.88	0.000155994
3082.44	0.000144947
3091	8.9092e-05
3099.56	7.11343e-05
3108.11	4.47905e-05
3116.67	3.03351e-05
3125.23	1.78884e-05
3133.79	5.82171e-06
3142.34	3.32656e-06
3150.9	3.21052e-06
3159.46	3.5242e-06
3168.02	4.29474e-06
3176.57	5.62793e-06
3185.13	6.12718e-06
3193.69	4.79493e-06
3202.25	1.47917e-06
3210.81	8.89946e-07
3219.36	5.98332e-07
3227.92	5.77274e-07
3236.48	4.54608e-07
3245.04	3.07959e-07
3253.59	6.80531e-07
3262.15	1.01499e-06
3270.71	6.57187e-07
3279.27	4.78357e-07
3287.82	2.04918e-07
3296.38	4.28843e-07
3304.94	4.8407e-07
3313.5	-2.87635e-07
3322.05	5.71108e-08
3330.61	3.01013e-07
3339.17	1.37905e-07
3347.73	-4.89497e-07
3356.29	9.24873e-08
3364.84	3.07629e-07
3373.4	-3.17185e-07
3381.96	9.05428e-08
3390.52	3.26197e-07
3399.07	-1.74919e-07
3407.63	5.43087e-08
3416.19	-3.032e-07
3424.75	-6.09357e-07
3433.3	-3.5654e-07
3441.86	-2.25795e-07
3450.42	-2.05715e-07
3458.98	-1.90747e-07
3467.53	-8.43888e-08
3476.09	2.04874e-08
3484.65	-1.15121e-07
3493.21	-1.17264e-07
3501.77	-9.61807e-08
3510.32	1.59547e-07
3518.88	9.62414e-07
3527.44	5.55744e-07
3536	5.00076e-07
3544.55	-3.27401e-07
3553.11	-4.71688e-07
3561.67	-1.67293e-07
3570.23	-5.14661e-08
3578.78	2.61421e-08
3587.34	-2.49096e-07
3595.9	1.25611e-07
3604.46	2.51639e-08
3613.01	1.57511e-07
3621.57	4.78501e-07
3630.13	2.87407e-07
3638.69	6.23507e-07
3647.25	8.41196e-07
3655.8	9.44343e-07
3664.36	1.15647e-06
3672.92	4.72337e-07
3681.48	6.81226e-07
3690.03	5.41288e-07
3698.59	7.71641e-07
3707.15	6.50988e-07
3715.71	7.26643e-07
3724.26	1.0552e-06
3732.82	3.91425e-07
3741.38	1.31165e-07
3749.94	6.35817e-07
3758.49	3.41744e-07
3767.05	5.81158e-07
3775.61	-2.86895e-08
3784.17	4.99139e-07
3792.73	5.9077e-07
3801.28	-6.12203e-08
3809.84	3.52396e-07
3818.4	1.97855e-07
3826.96	3.87558e-07
3835.51	7.89742e-07
3844.07	7.27914e-07
3852.63	5.90807e-07
3861.19	3.48862e-07
3869.74	5.9741e-08
3878.3	4.28415e-07
3886.86	-3.67805e-07
3895.42	7.60303e-08
3903.97	1.90773e-08
3912.53	5.61559e-07
3921.09	3.66278e-07
3929.65	1.36779e-06
3938.21	1.2764e-06
3946.76	1.78521e-06
3955.32	8.42834e-07
3963.88	6.68956e-07
3972.44	8.10185e-07
