Infrared Spectrum: BENZALDEHYDE
Formula: C7 H6 O
CAS: 100-52-7
State: SOLUTION (1% IN CCl4 FOR 3800-1330, 1% IN CS2 FOR 1330-450 CM^-^1) VS SOLVENT
Class: COBLENTZ II
Instrument: PERKIN-ELMER 180
Sampling: TRANSMISSION
Path length: 0.011, 0.011 CM
Resolution: 4
Origin: DOW CHEMICAL COMPANY
1/CM	TRANSMITTANCE
404.727	0.81
414.18	0.883
423.634	0.9
433.087	0.899
442.541	0.86
451.994	0.891
461.448	0.912
470.901	0.914
480.355	0.914
489.808	0.913
499.262	0.914
508.715	0.918
518.169	0.916
527.622	0.915
537.075	0.915
546.529	0.914
555.982	0.916
565.436	0.918
574.889	0.921
584.343	0.928
593.796	0.935
603.25	0.929
612.703	0.92
622.157	0.915
631.61	0.906
641.063	0.865
650.517	0.7618
659.97	0.893
669.424	0.902
678.877	0.859
688.331	0.615
697.784	0.879
707.238	0.898
716.691	0.913
726.145	0.901
735.598	0.819
745.052	0.5445
754.505	0.89
763.958	0.913
773.412	0.925
782.865	0.927
792.319	0.93
801.772	0.921
811.226	0.911
820.679	0.874
830.133	0.64
839.586	0.916
849.04	0.92
858.493	0.923
867.947	0.932
877.4	0.934
886.853	0.936
896.307	0.935
905.76	0.93
915.214	0.918
924.667	0.933
934.121	0.936
943.574	0.938
953.028	0.938
962.481	0.936
971.935	0.938
981.388	0.936
990.841	0.933
1000.29	0.911
1009.75	0.935
1019.2	0.909
1028.66	0.941
1038.11	0.949
1047.56	0.941
1057.02	0.943
1066.47	0.908
1075.92	0.933
1085.38	0.939
1094.83	0.939
1104.28	0.948
1113.74	0.943
1123.19	0.938
1132.64	0.939
1142.1	0.936
1151.55	0.919
1161	0.809
1170.46	0.941
1179.91	0.95
1189.36	0.939
1198.82	0.6691
1208.27	0.938
1217.72	0.959
1227.18	0.954
1236.63	0.945
1246.08	0.932
1255.54	0.927
1264.99	0.92
1274.45	0.901
1283.9	0.901
1293.35	0.908
1302.81	0.826
1312.26	0.9
1321.71	0.918
1331.17	0.914
1340.62	0.921
1350.07	0.926
1359.53	0.926
1368.98	0.921
1378.43	0.909
1387.89	0.873
1397.34	0.918
1406.79	0.912
1416.25	0.906
1425.7	0.898
1435.15	0.907
1444.61	0.906
1454.06	0.8091
1463.51	0.919
1472.97	0.925
1482.42	0.929
1491.87	0.933
1501.33	0.943
1510.78	0.953
1520.24	0.957
1529.69	0.961
1539.14	0.975
1548.6	0.983
1558.05	0.969
1567.5	0.953
1576.96	0.932
1586.41	0.829
1595.86	0.8301
1605.32	0.846
1614.77	0.9
1624.22	0.913
1633.68	0.907
1643.13	0.902
1652.58	0.876
1662.04	0.9
1671.49	0.898
1680.94	0.899
1690.4	0.871
1699.85	0.7761
1709.3	0.2313
1718.76	0.5358
1728.21	0.843
1737.66	0.88
1747.12	0.894
1756.57	0.913
1766.03	0.914
1775.48	0.908
1784.93	0.919
1794.39	0.926
1803.84	0.92
1813.29	0.914
1822.75	0.921
1832.2	0.923
1841.65	0.932
1851.11	0.929
1860.56	0.933
1870.01	0.933
1879.47	0.929
1888.92	0.921
1898.37	0.928
1907.83	0.927
1917.28	0.929
1926.73	0.928
1936.19	0.93
1945.64	0.93
1955.09	0.926
1964.55	0.925
1974	0.926
1983.45	0.926
1992.91	0.935
2002.36	0.934
2011.82	0.936
2021.27	0.935
2030.72	0.932
2040.18	0.936
2049.63	0.9362
2059.08	0.938
2068.54	0.938
2077.99	0.9381
2087.44	0.9377
2096.9	0.935
2106.35	0.935
2115.8	0.935
2125.26	0.934
2134.71	0.934
2144.16	0.933
2153.62	0.934
2163.07	0.935
2172.52	0.935
2181.98	0.934
2191.43	0.935
2200.88	0.933
2210.34	0.933
2219.79	0.932
2229.24	0.932
2238.7	0.933
2248.15	0.933
2257.61	0.934
2267.06	0.935
2276.51	0.935
2285.97	0.9346
2295.42	0.9311
2304.87	0.934
2314.33	0.9311
2323.78	0.928
2333.23	0.9185
2342.69	0.931
2352.14	0.933
2361.59	0.932
2371.05	0.932
2380.5	0.934
2389.95	0.9312
2399.41	0.929
2408.86	0.93
2418.31	0.933
2427.77	0.932
2437.22	0.9327
2446.67	0.93
2456.13	0.9314
2465.58	0.932
2475.03	0.93
2484.49	0.932
2493.94	0.929
2503.39	0.9298
2512.85	0.93
2522.3	0.93
2531.76	0.929
2541.21	0.927
2550.66	0.928
2560.12	0.929
2569.57	0.93
2579.02	0.9271
2588.48	0.927
2597.93	0.929
2607.38	0.928
2616.84	0.925
2626.29	0.929
2635.74	0.928
2645.2	0.926
2654.65	0.926
2664.1	0.922
2673.56	0.919
2683.01	0.9048
2692.46	0.8918
2701.92	0.9119
2711.37	0.9004
2720.82	0.8353
2730.28	0.7941
2739.73	0.8812
2749.18	0.9117
2758.64	0.919
2768.09	0.9188
2777.55	0.9114
2787	0.8963
2796.45	0.8459
2805.91	0.8135
2815.36	0.8425
2824.81	0.8954
2834.27	0.9023
2843.72	0.8897
2853.17	0.9049
2862.63	0.9153
2872.08	0.919
2881.53	0.921
2890.99	0.922
2900.44	0.92
2909.89	0.9172
2919.35	0.9168
2928.8	0.9204
2938.25	0.9224
2947.71	0.923
2957.16	0.9225
2966.61	0.921
2976.07	0.918
2985.52	0.917
2994.97	0.916
3004.43	0.913
3013.88	0.9084
3023.34	0.8923
3032.79	0.8846
3042.24	0.902
3051.7	0.9014
3061.15	0.8827
3070.6	0.8855
3080.06	0.8927
3089.51	0.8897
3098.96	0.9034
3108.42	0.9134
3117.87	0.9197
3127.32	0.9207
3136.78	0.921
3146.23	0.921
3155.68	0.92
3165.14	0.919
3174.59	0.919
3184.04	0.92
3193.5	0.92
3202.95	0.92
3212.4	0.92
3221.86	0.92
3231.31	0.921
3240.76	0.9201
3250.22	0.92
3259.67	0.92
3269.13	0.92
3278.58	0.92
3288.03	0.921
3297.49	0.922
3306.94	0.922
3316.39	0.922
3325.85	0.922
3335.3	0.922
3344.75	0.921
3354.21	0.921
3363.66	0.921
3373.11	0.92
3382.57	0.92
3392.02	0.9177
3401.47	0.9118
3410.93	0.9183
3420.38	0.923
3429.83	0.925
3439.29	0.926
3448.74	0.927
3458.19	0.927
3467.65	0.927
3477.1	0.928
3486.55	0.928
3496.01	0.929
3505.46	0.929
3514.92	0.929
3524.37	0.929
3533.82	0.929
3543.28	0.929
3552.73	0.93
3562.18	0.933
3571.64	0.9312
3581.09	0.928
3590.54	0.929
3600	0.9345
3609.45	0.938
3618.9	0.936
3628.36	0.9355
3637.81	0.934
3647.26	0.9355
3656.72	0.935
3666.17	0.936
3675.62	0.938
3685.08	0.938
3694.53	0.938
3703.98	0.938
3713.44	0.936
3722.89	0.936
3732.34	0.938
3741.8	0.939
3751.25	0.939
3760.71	0.939
3770.16	0.939
3779.61	0.939
3789.07	0.939
3798.52	0.94
3807.97	0.941
3817.43	0.942
3826.88	0.942
3836.33	0.9402
3845.79	0.9408
3855.24	0.9429
3864.69	0.945
3874.15	0.942
3883.6	0.9401
3893.05	0.939
3902.51	0.941
3911.96	0.942
3921.41	0.941
3930.87	0.941
3940.32	0.941
3949.77	0.941
3959.23	0.941
3968.68	0.94
3978.13	0.939
3987.59	0.941
3997.04	0.9409
4006.49	0.941
