Infrared Spectrum: CYCLOHEXANAMINE, N-METHYL-
Formula: C7 H15 N
CAS: 100-60-7
State: SOLUTION (10% IN CCl4 FOR 3800-400 CM^-^1)
Class: COBLENTZ III
Instrument: DOW KBr FOREPRISM-GRATING
Instrument parameters: BLAZED AT 3.5, 12.0, 20.0 MICRON, CHANGED AT 5.0, 7.5, 14.9 MICRON
Sampling: TRANSMISSION
Path length: 0.010 CM
Resolution: 4
Origin: DOW CHEMICAL COMPANY
1/CM	TRANSMITTANCE
382.081	0.907
390.752	0.895
399.422	0.883
408.093	0.868
416.763	0.838
425.434	0.77
434.104	0.771
442.775	0.788
451.445	0.728
460.116	0.666
468.786	0.713
477.457	0.735
486.127	0.776
494.798	0.842
503.469	0.86
512.139	0.873
520.81	0.877
529.48	0.858
538.151	0.823
546.821	0.758
555.492	0.876
564.162	0.888
572.833	0.868
581.503	0.884
590.174	0.913
598.844	0.913
607.515	0.907
616.186	0.875
624.856	0.801
633.527	0.868
642.197	0.888
650.868	0.864
659.538	0.827
668.209	0.806
676.879	0.788
685.55	0.728
694.22	0.668
702.891	0.587
711.561	0.494
720.232	0.346
728.903	0.172
737.573	0.032
746.244	0
754.914	0
763.585	0
772.255	0
780.926	0.001
789.596	0.002
798.267	0.001
806.937	0
815.608	0.032
824.278	0.256
832.949	0.491
841.62	0.607
850.29	0.725
858.961	0.762
867.631	0.778
876.302	0.815
884.972	0.701
893.643	0.615
902.313	0.819
910.984	0.794
919.654	0.758
928.325	0.751
936.995	0.793
945.666	0.735
954.337	0.844
963.007	0.801
971.678	0.727
980.348	0.684
989.019	0.663
997.689	0.634
1006.36	0.642
1015.03	0.673
1023.7	0.717
1032.37	0.7
1041.04	0.732
1049.71	0.642
1058.38	0.716
1067.05	0.649
1075.72	0.74
1084.39	0.731
1093.07	0.619
1101.74	0.635
1110.41	0.705
1119.08	0.704
1127.75	0.602
1136.42	0.668
1145.09	0.5999
1153.76	0.614
1162.43	0.6741
1171.1	0.802
1179.77	0.817
1188.44	0.837
1197.11	0.805
1205.78	0.77
1214.45	0.698
1223.12	0.713
1231.79	0.744
1240.46	0.72
1249.13	0.668
1257.81	0.631
1266.48	0.689
1275.15	0.811
1283.82	0.861
1292.49	0.865
1301.16	0.853
1309.83	0.801
1318.5	0.821
1327.17	0.813
1335.84	0.806
1344.51	0.74
1353.18	0.662
1361.85	0.69
1370.52	0.444
1379.19	0.732
1387.86	0.798
1396.53	0.814
1405.2	0.81
1413.88	0.794
1422.55	0.709
1431.22	0.729
1439.89	0.5879
1448.56	0.2989
1457.23	0.2132
1465.9	0.416
1474.57	0.4389
1483.24	0.5061
1491.91	0.732
1500.58	0.762
1509.25	0.737
1517.92	0.717
1526.59	0.69
1535.26	0.642
1543.93	0.544
1552.6	0.517
1561.27	0.559
1569.94	0.631
1578.62	0.65
1587.29	0.647
1595.96	0.705
1604.63	0.801
1613.3	0.849
1621.97	0.865
1630.64	0.861
1639.31	0.837
1647.98	0.803
1656.65	0.815
1665.32	0.831
1673.99	0.821
1682.66	0.872
1691.33	0.913
1700	0.912
1708.67	0.916
1717.34	0.888
1726.01	0.908
1734.68	0.893
1743.36	0.916
1752.03	0.95
1760.7	0.961
1769.37	0.963
1778.04	0.969
1786.71	0.969
1795.38	0.969
1804.05	0.967
1812.72	0.969
1821.39	0.967
1830.06	0.963
1838.73	0.962
1847.4	0.961
1856.07	0.962
1864.74	0.982
1873.41	1.001
1882.08	1.013
1890.75	1.01
1899.43	1.014
1908.1	1.012
1916.77	1.012
1925.44	1.013
1934.11	1.013
1942.78	1.01
1951.45	1.016
1960.12	1.016
1968.79	1.009
1977.46	1.005
1986.13	1.006
1994.8	0.995
2003.47	1.001
2012.14	1.001
2020.81	1.0022
2029.48	1.0061
2038.15	1.0019
2046.82	0.9968
2055.49	0.997
2064.17	0.9997
2072.84	0.9978
2081.51	0.9978
2090.18	0.994
2098.85	0.995
2107.52	0.99
2116.19	0.9973
2124.86	0.9924
2133.53	0.985
2142.2	0.9826
2150.87	0.983
2159.54	0.985
2168.21	0.986
2176.88	0.9826
2185.55	0.979
2194.22	0.9775
2202.89	0.977
2211.56	0.975
2220.24	0.974
2228.91	0.9694
2237.58	0.962
2246.25	0.962
2254.92	0.961
2263.59	0.9583
2272.26	0.955
2280.93	0.9526
2289.6	0.948
2298.27	0.943
2306.94	0.948
2315.61	0.947
2324.28	0.9432
2332.95	0.94
2341.62	0.9342
2350.29	0.9301
2358.96	0.9163
2367.63	0.9092
2376.3	0.9089
2384.98	0.912
2393.65	0.907
2402.32	0.901
2410.99	0.8839
2419.66	0.8719
2428.33	0.8659
2437	0.85
2445.67	0.8543
2454.34	0.8739
2463.01	0.8867
2471.68	0.8779
2480.35	0.8632
2489.02	0.8528
2497.69	0.85
2506.36	0.8585
2515.03	0.86
2523.7	0.8613
2532.37	0.862
2541.04	0.8593
2549.72	0.8513
2558.39	0.8456
2567.06	0.8406
2575.73	0.8272
2584.4	0.7979
2593.07	0.7611
2601.74	0.7405
2610.41	0.7631
2619.08	0.7665
2627.75	0.7573
2636.42	0.7301
2645.09	0.6952
2653.76	0.6939
2662.43	0.6361
2671.1	0.6467
2679.77	0.6856
2688.44	0.6927
2697.11	0.692
2705.79	0.69
2714.46	0.685
2723.13	0.6776
2731.8	0.6663
2740.47	0.673
2749.14	0.6456
2757.81	0.5843
2766.48	0.5088
2775.15	0.3737
2783.82	0.2946
2792.49	0.2251
2801.16	0.287
2809.83	0.4234
2818.5	0.4712
2827.17	0.4826
2835.84	0.4105
2844.51	0.2326
2853.18	0.0644
2861.85	0.0302
2870.53	0.1842
2879.2	0.2567
2887.87	0.2567
2896.54	0.164
2905.21	0.0891
2913.88	0.057
2922.55	0.0121
2931.22	0.009
2939.89	0.0107
2948.56	0.0191
2957.23	0.0916
2965.9	0.2385
2974.57	0.3042
2983.24	0.3905
2991.91	0.5928
3000.58	0.7025
3009.25	0.7527
3017.92	0.7921
3026.6	0.8161
3035.27	0.8372
3043.94	0.8512
3052.61	0.8599
3061.28	0.8687
3069.95	0.875
3078.62	0.879
3087.29	0.88
3095.96	0.8825
3104.63	0.8832
3113.3	0.885
3121.97	0.8848
3130.64	0.887
3139.31	0.885
3147.98	0.884
3156.65	0.884
3165.32	0.885
3173.99	0.885
3182.66	0.887
3191.34	0.891
3200.01	0.895
3208.68	0.899
3217.35	0.9
3226.02	0.901
3234.69	0.903
3243.36	0.904
3252.03	0.9007
3260.7	0.8905
3269.37	0.8578
3278.04	0.8768
3286.71	0.8894
3295.38	0.8922
3304.05	0.8963
3312.72	0.901
3321.39	0.9043
3330.06	0.907
3338.73	0.903
3347.4	0.905
3356.08	0.912
3364.75	0.9168
3373.42	0.9224
3382.09	0.924
3390.76	0.927
3399.43	0.929
3408.1	0.933
3416.77	0.9371
3425.44	0.94
3434.11	0.943
3442.78	0.944
3451.45	0.946
3460.12	0.946
3468.79	0.947
3477.46	0.95
3486.13	0.954
3494.8	0.955
3503.47	0.9575
3512.15	0.9606
3520.82	0.9594
3529.49	0.962
3538.16	0.965
3546.83	0.966
3555.5	0.966
3564.17	0.9664
3572.84	0.97
3581.51	0.9711
3590.18	0.966
3598.85	0.973
3607.52	0.974
3616.19	0.967
3624.86	0.9689
3633.53	0.9662
3642.2	0.9709
3650.87	0.9651
3659.54	0.9713
3668.21	0.9725
3676.89	0.9512
3685.56	0.9614
3694.23	0.973
3702.9	0.978
3711.57	0.9739
3720.24	0.978
3728.91	0.975
3737.58	0.974
3746.25	0.971
3754.92	0.9738
3763.59	0.979
3772.26	0.977
3780.93	0.9785
3789.6	0.981
3798.27	0.9785
