Infrared Spectrum: Ethylbenzene
Formula: C6 H5 C2 H5
CAS: 100-41-4
State: gas
Melting point: -94.97 C
Boiling point: 136.2 C
Class: IUPAC A
Instrument: IFS66V (Bruker)
Instrument parameters: KBr Beam Splitter; MCT Detector; Multipass cell
Sampling: 1 L/min Flow
Resolution: 0.4820
Temperature: 23 C
Pressure: 101.3 Pa
Origin: NIST, Analytical Chemistry Division, 301-975-3108
cm-1	(micromol/mol)-1m-1 (base 10)
575.17	4.38125e-06
583.848	7.47086e-07
592.526	-2.16633e-07
601.205	1.58692e-07
609.883	3.23482e-07
618.561	-2.85374e-07
627.239	6.81525e-07
635.917	3.3871e-07
644.595	3.90949e-08
653.274	1.53577e-07
661.952	8.5108e-07
670.63	8.31573e-06
679.308	4.97991e-05
687.986	0.000146325
696.665	0.000316578
705.343	0.000170652
714.021	9.88092e-05
722.699	7.76196e-05
731.377	9.49128e-05
740.055	0.00011811
748.734	0.000114501
757.412	8.83256e-05
766.09	6.08872e-05
774.768	4.08318e-05
783.446	2.87986e-05
792.124	1.55156e-05
800.803	9.39165e-06
809.481	5.18802e-06
818.159	2.61462e-06
826.837	1.15396e-06
835.515	6.15577e-07
844.194	2.29461e-07
852.872	-1.54464e-07
861.55	-1.72012e-07
870.228	6.47489e-07
878.906	2.16585e-06
887.584	5.23022e-06
896.263	7.32367e-06
904.941	9.21207e-06
913.619	6.19231e-06
922.297	1.38978e-06
930.975	1.46843e-07
939.654	8.40864e-08
948.332	1.07849e-06
957.01	9.25689e-06
965.688	1.12597e-05
974.366	7.31348e-06
983.044	2.08046e-06
991.723	1.97994e-06
1000.4	3.70447e-06
1009.08	4.49246e-06
1017.76	1.08749e-05
1026.44	3.08237e-05
1035.11	3.28886e-05
1043.79	2.08007e-05
1052.47	1.67157e-05
1061.15	2.83512e-05
1069.83	2.86532e-05
1078.5	1.02315e-05
1087.18	1.05881e-05
1095.86	1.16899e-05
1104.54	9.45947e-06
1113.22	7.02512e-06
1121.9	3.80184e-06
1130.57	1.56531e-06
1139.25	9.26899e-07
1147.93	6.79528e-07
1156.61	4.85676e-08
1165.29	5.17644e-08
1173.96	-1.45166e-07
1182.64	3.03845e-07
1191.32	8.74619e-07
1200	1.29659e-06
1208.68	9.64104e-07
1217.36	1.40277e-07
1226.03	1.09309e-07
1234.71	1.89151e-06
1243.39	2.31359e-06
1252.07	1.80924e-06
1260.75	1.61756e-06
1269.42	1.66756e-06
1278.1	2.07474e-06
1286.78	3.19287e-06
1295.46	4.72469e-06
1304.14	5.72696e-06
1312.82	7.36844e-06
1321.49	1.58285e-05
1330.17	2.16717e-05
1338.85	1.48856e-05
1347.53	5.90081e-06
1356.21	3.58402e-06
1364.88	5.40747e-06
1373.56	1.17479e-05
1382.24	1.80205e-05
1390.92	1.41961e-05
1399.6	7.60119e-06
1408.28	5.47155e-06
1416.95	6.0982e-06
1425.63	8.13207e-06
1434.31	1.34232e-05
1442.99	3.38458e-05
1451.67	7.39599e-05
1460.34	8.45172e-05
1469.02	6.91103e-05
1477.7	3.67393e-05
1486.38	3.27209e-05
1495.06	9.73003e-05
1503.74	8.53819e-05
1512.41	1.94296e-05
1521.09	5.34307e-06
1529.77	6.26584e-06
1538.45	4.97236e-06
1547.13	3.77841e-06
1555.8	3.34511e-06
1564.48	3.21219e-06
1573.16	3.58974e-06
1581.84	5.98344e-06
1590.52	1.37464e-05
1599.2	3.14278e-05
1607.87	5.14883e-05
1616.55	4.17029e-05
1625.23	6.85944e-06
1633.91	2.79787e-06
1642.59	2.73563e-06
1651.26	3.83166e-06
1659.94	3.55586e-06
1668.62	2.97378e-06
1677.3	2.40675e-06
1685.98	1.33563e-06
1694.66	8.70959e-07
1703.33	7.40674e-07
1712.01	9.29237e-07
1720.69	1.64519e-06
1729.37	4.08299e-06
1738.05	6.36523e-06
1746.72	6.21393e-06
1755.4	2.24349e-06
1764.08	5.64775e-07
1772.76	6.56089e-07
1781.44	1.51406e-06
1790.12	8.13044e-06
1798.79	1.48906e-05
1807.47	9.73144e-06
1816.15	2.96999e-06
1824.83	2.09059e-06
1833.51	7.63504e-07
1842.18	1.11217e-06
1850.86	3.55649e-06
1859.54	9.0115e-06
1868.22	1.08633e-05
1876.9	1.0957e-05
1885.58	7.91939e-06
1894.25	1.09949e-06
1902.93	3.54847e-07
1911.61	6.36373e-07
1920.29	2.17164e-06
1928.97	6.491e-06
1937.64	1.15154e-05
1946.32	1.39878e-05
1955	1.05303e-05
1963.68	7.53402e-06
1972.36	3.64403e-07
1981.04	4.22227e-07
1989.71	4.19079e-07
1998.39	1.32553e-07
2007.07	1.56794e-08
2015.75	1.78411e-07
2024.43	5.3667e-07
2033.1	5.88476e-07
2041.78	2.42586e-07
2050.46	-1.32991e-07
2059.14	-3.71716e-07
2067.82	-4.31139e-07
2076.5	-3.80334e-07
2085.17	-3.47341e-07
2093.85	-2.77386e-07
2102.53	-1.79545e-07
2111.21	-1.66273e-07
2119.89	4.61043e-08
2128.56	1.16086e-07
2137.24	-5.38526e-08
2145.92	-4.65081e-08
2154.6	-2.2431e-08
2163.28	9.6127e-08
2171.96	6.61247e-08
2180.63	2.97e-08
2189.31	1.05911e-07
2197.99	7.44609e-08
2206.67	2.01903e-07
2215.35	4.64451e-07
2224.02	5.84842e-07
2232.7	6.35073e-07
2241.38	6.57741e-07
2250.06	5.25585e-07
2258.74	5.99767e-07
2267.42	8.16261e-07
2276.09	1.02369e-06
2284.77	1.1195e-06
2293.45	8.63868e-07
2302.13	6.63998e-07
2310.81	1.63679e-06
2319.48	1.66093e-06
2328.16	1.29866e-06
2336.84	2.16765e-06
2345.52	2.16052e-06
2354.2	1.04112e-06
2362.88	2.6039e-07
2371.55	7.45818e-07
2380.23	7.22288e-07
2388.91	4.20566e-07
2397.59	2.08472e-07
2406.27	4.75988e-07
2414.94	6.65443e-07
2423.62	7.69158e-07
2432.3	1.05172e-06
2440.98	1.28042e-06
2449.66	6.96591e-07
2458.34	1.6025e-07
2467.01	1.47536e-07
2475.69	1.46072e-07
2484.37	2.07252e-07
2493.05	4.00136e-07
2501.73	3.86644e-07
2510.4	5.49347e-07
2519.08	6.49346e-07
2527.76	9.27603e-07
2536.44	8.8066e-07
2545.12	6.19282e-07
2553.8	6.9298e-07
2562.47	6.38316e-07
2571.15	5.65119e-07
2579.83	7.21893e-07
2588.51	8.96421e-07
2597.19	1.23462e-06
2605.86	1.81706e-06
2614.54	1.92541e-06
2623.22	1.8272e-06
2631.9	2.57204e-06
2640.58	3.25592e-06
2649.26	2.56676e-06
2657.93	1.24621e-06
2666.61	6.87629e-07
2675.29	6.46663e-07
2683.97	7.15255e-07
2692.65	9.65858e-07
2701.32	1.42811e-06
2710	1.47291e-06
2718.68	1.00754e-06
2727.36	1.63746e-06
2736.04	3.54336e-06
2744.71	3.3406e-06
2753.39	2.31786e-06
2762.07	2.67211e-06
2770.75	3.45613e-06
2779.43	5.02362e-06
2788.11	6.01811e-06
2796.78	5.65116e-06
2805.46	4.93812e-06
2814.14	5.37495e-06
2822.82	7.20656e-06
2831.5	1.05003e-05
2840.17	1.41967e-05
2848.85	1.85528e-05
2857.53	3.09986e-05
2866.21	6.20739e-05
2874.89	0.000105074
2883.57	0.000132749
2892.24	0.000117847
2900.92	9.33236e-05
2909.6	8.78238e-05
2918.28	8.03294e-05
2926.96	9.68833e-05
2935.63	0.000162838
2944.31	0.000206073
2952.99	0.00016645
2961.67	0.000146588
2970.35	0.000419685
2979.03	0.00042936
2987.7	0.000144942
2996.38	5.37315e-05
3005.06	4.45319e-05
3013.74	4.90884e-05
3022.42	8.647e-05
3031.09	0.000209021
3039.77	0.000235582
3048.45	0.000140039
3057.13	6.60013e-05
3065.81	0.000111121
3074.49	0.000167759
3083.16	0.000137729
3091.84	8.52459e-05
3100.52	6.88197e-05
3109.2	4.25138e-05
3117.88	2.84154e-05
3126.55	1.4701e-05
3135.23	4.89396e-06
3143.91	3.22371e-06
3152.59	3.28334e-06
3161.27	3.57597e-06
3169.95	4.59835e-06
3178.62	5.92572e-06
3187.3	5.94729e-06
3195.98	3.76402e-06
3204.66	1.72112e-06
3213.34	6.67751e-07
3222.01	6.17478e-07
3230.69	3.80884e-07
3239.37	4.71958e-07
3248.05	5.59744e-07
3256.73	4.27736e-07
3265.41	5.61385e-07
3274.08	5.4157e-07
3282.76	4.75726e-07
3291.44	4.89474e-07
3300.12	2.80897e-07
3308.8	3.03756e-07
3317.47	1.72005e-07
3326.15	-1.94526e-07
3334.83	1.51695e-07
3343.51	1.07041e-07
3352.19	2.31109e-07
3360.87	-1.52184e-07
3369.54	-6.28478e-08
3378.22	1.36843e-07
3386.9	1.89293e-07
3395.58	2.55902e-07
3404.26	6.84143e-08
3412.93	-2.44597e-07
3421.61	-6.54348e-08
3430.29	9.07975e-08
3438.97	1.48253e-07
3447.65	-3.88534e-08
3456.33	-7.36406e-08
3465	-2.64469e-07
3473.68	-5.71226e-08
3482.36	-3.32313e-07
3491.04	-4.75374e-07
3499.72	-1.54391e-07
3508.39	-2.63557e-07
3517.07	2.68579e-07
3525.75	3.31505e-07
3534.43	5.10421e-07
3543.11	-1.71579e-07
3551.79	-4.79078e-08
3560.46	-4.0777e-08
3569.14	-1.45351e-07
3577.82	-7.43409e-09
3586.5	-4.00626e-10
3595.18	-9.50648e-08
3603.85	-1.48194e-07
3612.53	-9.4876e-08
3621.21	4.55825e-07
3629.89	6.37627e-08
3638.57	5.5992e-07
3647.25	6.21392e-07
3655.92	1.0339e-06
3664.6	1.14663e-06
3673.28	4.33616e-07
3681.96	5.11574e-07
3690.64	4.70696e-07
3699.31	6.80739e-07
3707.99	5.99948e-07
3716.67	5.95071e-07
3725.35	6.64612e-07
3734.03	3.65513e-07
3742.71	3.64768e-07
3751.38	1.00447e-07
3760.06	1.75647e-07
3768.74	3.75537e-07
3777.42	3.85531e-07
3786.1	3.36229e-07
3794.77	4.56658e-07
3803.45	2.84961e-07
3812.13	3.64646e-07
3820.81	1.99522e-07
3829.49	6.19902e-07
3838.17	2.32875e-07
3846.84	8.06799e-07
3855.52	4.03113e-07
3864.2	1.37655e-07
3872.88	2.7913e-07
3881.56	-2.23232e-09
3890.23	-4.77936e-08
3898.91	-2.82698e-08
3907.59	2.65217e-07
3916.27	5.09696e-07
3924.95	7.69243e-07
3933.63	1.39533e-06
3942.3	1.501e-06
3950.98	1.20485e-06
3959.66	7.85137e-07
3968.34	1.00871e-06
