Infrared Spectrum: Benzenamine, N-methyl-
Formula: C7 H9 N
CAS: 100-61-8
Instrument: Not specified, most likely a prism, grating, or hybrid spectrometer.
Origin: COBLENTZ
1/CM	TRANSMITTANCE
605.52	0.74
614.49	0.73
623.46	0.716
632.43	0.707
641.4	0.717
650.37	0.721
659.34	0.721
668.31	0.717
677.28	0.719
686.25	0.705
695.219	0.128
704.189	0.376
713.159	0.646
722.129	0.722
731.099	0.727
740.069	0.677
749.039	0.0441
758.009	0.136
766.979	0.4929
775.949	0.682
784.919	0.75
793.889	0.772
802.859	0.765
811.829	0.822
820.799	0.818
829.769	0.81
838.739	0.838
847.709	0.852
856.679	0.851
865.648	0.824
874.618	0.624
883.588	0.729
892.558	0.833
901.528	0.865
910.498	0.874
919.468	0.878
928.438	0.878
937.408	0.878
946.378	0.871
955.348	0.857
964.318	0.858
973.288	0.855
982.258	0.848
991.228	0.824
1000.2	0.705
1009.17	0.857
1018.14	0.865
1027.11	0.819
1036.08	0.802
1045.05	0.853
1054.02	0.841
1062.99	0.746
1071.96	0.576
1080.93	0.5929
1089.9	0.777
1098.87	0.825
1107.84	0.835
1116.81	0.817
1125.78	0.777
1134.75	0.743
1143.72	0.769
1152.69	0.591
1161.66	0.5469
1170.63	0.709
1179.6	0.658
1188.57	0.5479
1197.54	0.753
1206.51	0.798
1215.48	0.805
1224.45	0.817
1233.42	0.81
1242.39	0.793
1251.36	0.744
1260.33	0.4982
1269.3	0.318
1278.27	0.558
1287.24	0.673
1296.21	0.736
1305.18	0.711
1314.15	0.4591
1323.12	0.155
1332.09	0.398
1341.06	0.58
1350.03	0.6929
1359	0.785
1367.97	0.821
1376.94	0.837
1385.91	0.837
1394.88	0.85
1403.85	0.849
1412.82	0.836
1421.79	0.737
1430.76	0.637
1439.73	0.708
1448.69	0.692
1457.66	0.621
1466.63	0.711
1475.6	0.465
1484.57	0.525
1493.54	0.4251
1502.51	0.099
1511.48	0.028
1520.45	0.15
1529.42	0.4189
1538.39	0.631
1547.36	0.735
1556.33	0.758
1565.3	0.733
1574.27	0.716
1583.24	0.6141
1592.21	0.442
1601.18	0.036
1610.15	0.0729
1619.12	0.3389
1628.09	0.576
1637.06	0.74
1646.03	0.799
1655	0.829
1663.97	0.84
1672.94	0.837
1681.91	0.833
1690.88	0.827
1699.85	0.841
1708.82	0.849
1717.79	0.857
1726.76	0.863
1735.73	0.868
1744.7	0.873
1753.67	0.877
1762.64	0.868
1771.61	0.852
1780.58	0.854
1789.55	0.865
1798.52	0.877
1807.49	0.879
1816.46	0.868
1825.43	0.855
1834.4	0.857
1843.37	0.866
1852.34	0.874
1861.31	0.88
1870.28	0.887
1879.25	0.888
1888.22	0.884
1897.19	0.878
1906.16	0.868
1915.13	0.843
1924.1	0.826
1933.07	0.839
1942.04	0.848
1951.01	0.865
1959.98	0.875
1968.95	0.877
1977.92	0.877
1986.89	0.879
1995.86	0.884
2004.83	0.884
2013.8	0.884
2022.77	0.885
2031.74	0.885
2040.71	0.886
2049.68	0.886
2058.65	0.887
2067.62	0.887
2076.59	0.887
2085.56	0.8874
2094.53	0.888
2103.5	0.889
2112.47	0.889
2121.44	0.89
2130.41	0.89
2139.38	0.891
2148.35	0.891
2157.32	0.891
2166.29	0.8911
2175.26	0.892
2184.23	0.892
2193.2	0.893
2202.17	0.8933
2211.14	0.894
2220.11	0.894
2229.08	0.894
2238.05	0.8945
2247.02	0.895
2255.99	0.895
2264.96	0.895
2273.93	0.895
2282.9	0.895
2291.87	0.894
2300.84	0.894
2309.81	0.8932
2318.78	0.891
2327.75	0.8886
2336.72	0.8863
2345.69	0.885
2354.66	0.884
2363.63	0.883
2372.6	0.883
2381.57	0.882
2390.54	0.882
2399.51	0.882
2408.48	0.884
2417.45	0.8854
2426.42	0.887
2435.39	0.888
2444.36	0.891
2453.33	0.8926
2462.3	0.8921
2471.27	0.8908
2480.24	0.889
2489.21	0.887
2498.18	0.887
2507.15	0.887
2516.12	0.887
2525.09	0.886
2534.06	0.885
2543.03	0.8824
2552	0.8791
2560.97	0.877
2569.94	0.8593
2578.91	0.846
2587.88	0.844
2596.85	0.852
2605.82	0.8639
2614.79	0.8747
2623.76	0.8762
2632.73	0.877
2641.7	0.8752
2650.67	0.871
2659.64	0.8704
2668.61	0.8717
2677.58	0.873
2686.55	0.8743
2695.52	0.875
2704.49	0.876
2713.46	0.875
2722.43	0.8735
2731.4	0.8674
2740.37	0.8557
2749.34	0.8466
2758.31	0.8443
2767.28	0.842
2776.25	0.8382
2785.22	0.8133
2794.19	0.7854
2803.16	0.7453
2812.13	0.5652
2821.1	0.5283
2830.07	0.6409
2839.04	0.7447
2848.01	0.7506
2856.98	0.6938
2865.95	0.654
2874.92	0.5964
2883.89	0.5153
2892.86	0.528
2901.83	0.5415
2910.8	0.5113
2919.77	0.5691
2928.74	0.5987
2937.71	0.585
2946.68	0.6156
2955.65	0.6415
2964.62	0.6965
2973.59	0.6837
2982.56	0.6432
2991.53	0.6299
3000.5	0.6748
3009.47	0.699
3018.44	0.6409
3027.41	0.6118
3036.38	0.6619
3045.35	0.6489
3054.32	0.5488
3063.29	0.5991
3072.26	0.671
3081.23	0.7207
3090.2	0.7336
3099.17	0.7447
3108.14	0.7681
3117.11	0.7989
3126.08	0.8296
3135.04	0.8355
3144.01	0.8444
3152.98	0.8487
3161.95	0.852
3170.92	0.852
3179.89	0.852
3188.86	0.852
3197.83	0.851
3206.8	0.85
3215.77	0.849
3224.74	0.8488
3233.71	0.846
3242.68	0.8443
3251.65	0.842
3260.62	0.8387
3269.59	0.8329
3278.56	0.8244
3287.53	0.8157
3296.5	0.8062
3305.47	0.792
3314.44	0.7778
3323.41	0.7551
3332.38	0.7311
3341.35	0.7173
3350.32	0.6968
3359.29	0.6777
3368.26	0.643
3377.23	0.5908
3386.2	0.5621
3395.17	0.498
3404.14	0.4183
3413.11	0.3177
3422.08	0.3458
3431.05	0.4139
3440.02	0.5316
3448.99	0.657
3457.96	0.7415
3466.93	0.7843
3475.9	0.8029
3484.87	0.816
3493.84	0.8229
3502.81	0.8286
3511.78	0.835
3520.75	0.836
3529.72	0.8393
3538.69	0.8455
3547.66	0.849
3556.63	0.8541
3565.6	0.8564
3574.57	0.858
3583.54	0.858
3592.51	0.858
3601.48	0.858
3610.45	0.858
3619.42	0.8561
3628.39	0.855
3637.36	0.8543
3646.33	0.854
3655.3	0.855
3664.27	0.856
3673.24	0.8579
3682.21	0.8612
3691.18	0.864
3700.15	0.8658
3709.12	0.868
3718.09	0.8684
3727.06	0.869
3736.03	0.868
3745	0.868
3753.97	0.868
3762.94	0.867
3771.91	0.865
3780.88	0.864
3789.85	0.863
3798.82	0.862
3807.79	0.861
3816.76	0.8594
3825.73	0.858
3834.7	0.8568
3843.67	0.855
3852.64	0.8542
3861.61	0.8541
3870.58	0.855
3879.55	0.855
3888.52	0.855
3897.49	0.856
3906.46	0.856
3915.43	0.856
3924.4	0.855
3933.37	0.855
3942.34	0.8542
3951.31	0.853
3960.28	0.852
3969.25	0.8503
