Infrared Spectrum: 2-METHYL 6-METHYLENE 2-OCTENE
Formula: C10 H18
CAS: 10054-09-8
Class: COBLENTZ
Instrument: Not specified, most likely a prism, grating, or hybrid spectrometer.
Sampling: TRANSMISSION
Resolution: 4
Origin: INTERNATIONAL FLAVORS & FRAGRANCES, INC.
MICROMETERS	TRANSMITTANCE
2.014	0.967
2.04656	0.967
2.07912	0.965
2.11168	0.964
2.14424	0.963
2.17679	0.961
2.20935	0.959
2.24191	0.954
2.27447	0.935
2.30703	0.887
2.33959	0.885
2.37215	0.893
2.40471	0.912
2.43727	0.926
2.46982	0.93
2.50238	0.931
2.53494	0.935
2.5675	0.938
2.60006	0.943
2.63262	0.947
2.66518	0.951
2.69774	0.952
2.7303	0.956
2.76285	0.958
2.79541	0.96
2.82797	0.959
2.86053	0.959
2.89309	0.957
2.92565	0.959
2.95821	0.957
2.99077	0.956
3.02333	0.952
3.05588	0.949
3.08844	0.945
3.121	0.938
3.15356	0.924
3.18612	0.908
3.21868	0.737
3.25124	0.623
3.2838	0.656
3.31636	0.501
3.34891	0.205
3.38147	0.193
3.41403	0.184
3.44659	0.194
3.47915	0.201
3.51171	0.39
3.54427	0.588
3.57683	0.774
3.60939	0.842
3.64194	0.85
3.6745	0.824
3.70706	0.885
3.73962	0.919
3.77218	0.93
3.80474	0.936
3.8373	0.943
3.86986	0.947
3.90242	0.951
3.93497	0.953
3.96753	0.956
4.00009	0.958
4.03265	0.959
4.06521	0.96
4.09777	0.961
4.13033	0.963
4.16289	0.964
4.19545	0.965
4.228	0.964
4.26056	0.964
4.29312	0.965
4.32568	0.968
4.35824	0.972
4.3908	0.974
4.42336	0.976
4.45592	0.979
4.48848	0.98
4.52103	0.981
4.55359	0.981
4.58615	0.983
4.61871	0.984
4.65127	0.983
4.68383	0.984
4.71639	0.986
4.74895	0.987
4.78151	0.988
4.81406	0.988
4.84662	0.989
4.87918	0.989
4.91174	0.99
4.9443	0.991
4.97686	0.991
5.00942	0.99
5.04198	0.987
5.07454	0.982
5.10709	0.982
5.13965	0.986
5.17221	0.989
5.20477	0.991
5.23733	0.99
5.26989	0.99
5.30245	0.989
5.33501	0.988
5.36757	0.987
5.40012	0.986
5.43268	0.984
5.46524	0.98
5.4978	0.975
5.53036	0.966
5.56292	0.917
5.59548	0.895
5.62804	0.915
5.6606	0.949
5.69315	0.967
5.72571	0.966
5.75827	0.963
5.79083	0.965
5.82339	0.964
5.85595	0.961
5.88851	0.956
5.92107	0.917
5.95363	0.833
5.98618	0.824
6.01874	0.826
6.0513	0.389
6.08386	0.638
6.11642	0.836
6.14898	0.867
6.18154	0.886
6.2141	0.9
6.24666	0.908
6.27921	0.914
6.31177	0.915
6.34433	0.913
6.37689	0.908
6.40945	0.906
6.44201	0.901
6.47457	0.894
6.50713	0.887
6.53969	0.879
6.57224	0.869
6.6048	0.856
6.63736	0.843
6.66992	0.825
6.70248	0.794
6.73504	0.743
6.7676	0.635
6.80016	0.375
6.83272	0.308
6.86527	0.258
6.89783	0.26
6.93039	0.269
6.96295	0.409
6.99551	0.53
7.02807	0.601
7.06063	0.652
7.09319	0.686
7.12575	0.707
7.1583	0.689
7.19086	0.613
7.22342	0.411
7.25598	0.342
7.28854	0.517
7.3211	0.668
7.35366	0.731
7.38622	0.731
7.41878	0.73
7.45133	0.778
7.48389	0.805
7.51645	0.833
7.54901	0.835
7.58157	0.833
7.61413	0.831
7.64669	0.855
7.67925	0.878
7.71181	0.884
7.74436	0.883
7.77692	0.88
7.80948	0.878
7.84204	0.877
7.8746	0.879
7.90716	0.879
7.93972	0.879
7.97228	0.877
8.00484	0.875
8.03739	0.869
8.06995	0.862
8.10251	0.847
8.13507	0.84
8.16763	0.841
8.20019	0.843
8.23275	0.845
8.26531	0.847
8.29787	0.852
8.33042	0.858
8.36298	0.864
8.39554	0.873
8.4281	0.882
8.46066	0.892
8.49322	0.902
8.52578	0.912
8.55834	0.913
8.5909	0.909
8.62345	0.898
8.65601	0.894
8.68857	0.889
8.72113	0.891
8.75369	0.892
8.78625	0.899
8.81881	0.908
8.85137	0.913
8.88393	0.904
8.91648	0.88
8.94904	0.842
8.9816	0.738
9.01416	0.59
9.04672	0.578
9.07928	0.689
9.11184	0.757
9.1444	0.801
9.17696	0.826
9.20951	0.827
9.24207	0.809
9.27463	0.796
9.30719	0.794
9.33975	0.791
9.37231	0.795
9.40487	0.801
9.43743	0.812
9.46999	0.826
9.50254	0.839
9.5351	0.849
9.56766	0.86
9.60022	0.864
9.63278	0.861
9.66534	0.855
9.6979	0.855
9.73046	0.857
9.76302	0.856
9.79557	0.853
9.82813	0.852
9.86069	0.85
9.89325	0.85
9.92581	0.852
9.95837	0.853
9.99093	0.853
10.0235	0.847
10.056	0.839
10.0886	0.828
10.1212	0.811
10.1537	0.796
10.1863	0.798
10.2188	0.809
10.2514	0.819
10.284	0.83
10.3165	0.839
10.3491	0.846
10.3816	0.853
10.4142	0.861
10.4468	0.87
10.4793	0.88
10.5119	0.889
10.5444	0.895
10.577	0.901
10.6095	0.907
10.6421	0.912
10.6747	0.914
10.7072	0.915
10.7398	0.916
10.7723	0.917
10.8049	0.919
10.8375	0.916
10.87	0.914
10.9026	0.907
10.9351	0.897
10.9677	0.877
11.0003	0.861
11.0328	0.835
11.0654	0.811
11.0979	0.747
11.1305	0.667
11.163	0.556
11.1956	0.285
11.2282	0.204
11.2607	0.173
11.2933	0.176
11.3258	0.216
11.3584	0.435
11.391	0.549
11.4235	0.627
11.4561	0.705
11.4886	0.763
11.5212	0.802
11.5538	0.827
11.5863	0.841
11.6189	0.849
11.6514	0.856
11.684	0.857
11.7165	0.852
11.7491	0.836
11.7817	0.82
11.8142	0.791
11.8468	0.739
11.8793	0.676
11.9119	0.618
11.9445	0.593
11.977	0.579
12.0096	0.569
12.0421	0.567
12.0747	0.571
12.1073	0.58
12.1398	0.591
12.1724	0.605
12.2049	0.621
12.2375	0.633
12.2701	0.64
12.3026	0.645
12.3352	0.65
12.3677	0.663
12.4003	0.675
12.4328	0.687
12.4654	0.701
12.498	0.717
12.5305	0.735
12.5631	0.749
12.5956	0.761
12.6282	0.774
12.6608	0.786
12.6933	0.798
12.7259	0.809
12.7584	0.82
12.791	0.831
12.8236	0.841
12.8561	0.85
12.8887	0.861
12.9212	0.872
12.9538	0.885
12.9863	0.898
13.0189	0.92
13.0515	0.929
13.084	0.938
13.1166	0.95
13.1491	0.959
13.1817	0.963
13.2143	0.965
13.2468	0.964
13.2794	0.959
13.3119	0.952
13.3445	0.945
13.3771	0.941
13.4096	0.935
13.4422	0.932
13.4747	0.931
13.5073	0.935
13.5398	0.938
13.5724	0.944
13.605	0.949
13.6375	0.956
13.6701	0.96
13.7026	0.968
13.7352	0.975
13.7678	0.981
13.8003	0.989
13.8329	0.996
13.8654	1
13.898	1.005
13.9306	1.009
13.9631	1.012
13.9957	1.017
14.0282	1.02
14.0608	1.023
14.0933	1.024
14.1259	1.025
14.1585	1.021
14.191	1.023
14.2236	1.024
14.2561	1.023
14.2887	1.019
14.3213	1.015
14.3538	1.01
14.3864	1.009
14.4189	1.005
14.4515	1.005
14.4841	1.003
14.5166	1.003
14.5492	1.001
14.5817	1
14.6143	0.996
14.6468	0.993
14.6794	0.988
14.712	0.984
14.7445	0.98
14.7771	0.975
14.8096	0.968
14.8422	0.964
14.8748	0.958
14.9073	0.952
14.9399	0.946
14.9724	0.944
15.005	0.941
