Infrared Spectrum: Ethylbenzene
Formula: C6 H5 C2 H5
CAS: 100-41-4
State: gas
Melting point: -94.97 C
Boiling point: 136.2 C
Class: IUPAC A
Instrument: IFS66V (Bruker)
Instrument parameters: KBr Beam Splitter; MCT Detector; Multipass cell
Sampling: 1 L/min Flow
Resolution: 0.2410
Temperature: 23 C
Pressure: 101.3 Pa
Origin: NIST, Analytical Chemistry Division, 301-975-3108
cm-1	(micromol/mol)-1m-1 (base 10)
575.05	5.46204e-06
583.608	-5.52332e-08
592.165	-1.54285e-07
600.723	1.1946e-06
609.281	1.58589e-07
617.838	6.92559e-07
626.396	1.27876e-07
634.954	3.23509e-07
643.511	-1.05763e-07
652.069	5.48253e-07
660.626	7.61063e-07
669.184	5.8294e-06
677.742	3.77704e-05
686.299	0.000122532
694.857	0.000221074
703.415	0.000179174
711.972	0.00011586
720.53	7.52613e-05
729.088	8.99916e-05
737.645	0.000113911
746.203	0.000115366
754.761	9.85002e-05
763.318	6.88248e-05
771.876	6.60131e-05
780.434	3.30459e-05
788.991	1.97221e-05
797.549	1.14482e-05
806.106	6.23541e-06
814.664	3.62384e-06
823.222	1.90406e-06
831.779	8.17493e-07
840.337	5.03108e-07
848.895	1.09124e-08
857.452	-3.3058e-07
866.01	-2.02909e-07
874.568	1.35003e-06
883.125	3.25171e-06
891.683	6.36923e-06
900.241	9.08572e-06
908.798	7.61394e-06
917.356	4.02063e-06
925.914	3.69186e-07
934.471	-2.85028e-07
943.029	1.3299e-07
951.586	2.56409e-06
960.144	1.04729e-05
968.702	1.29739e-05
977.259	4.64832e-06
985.817	1.47984e-06
994.375	2.17305e-06
1002.93	3.51872e-06
1011.49	5.39006e-06
1020.05	1.56738e-05
1028.61	2.82856e-05
1037.16	3.15805e-05
1045.72	1.82921e-05
1054.28	1.87844e-05
1062.84	2.5089e-05
1071.39	2.67581e-05
1079.95	1.05307e-05
1088.51	9.99012e-06
1097.07	1.12368e-05
1105.62	8.68666e-06
1114.18	7.05482e-06
1122.74	3.30786e-06
1131.3	1.42062e-06
1139.85	9.95098e-07
1148.41	5.56642e-07
1156.97	6.64762e-08
1165.53	8.70791e-08
1174.09	-1.50398e-07
1182.64	2.14197e-07
1191.2	8.68273e-07
1199.76	1.37548e-06
1208.32	9.59908e-07
1216.87	2.05443e-07
1225.43	9.01217e-08
1233.99	1.87838e-06
1242.55	2.12638e-06
1251.1	1.92967e-06
1259.66	1.56368e-06
1268.22	1.66406e-06
1276.78	1.82258e-06
1285.33	2.99971e-06
1293.89	4.73876e-06
1302.45	5.69968e-06
1311.01	6.60633e-06
1319.57	1.3265e-05
1328.12	2.07497e-05
1336.68	1.75883e-05
1345.24	7.02548e-06
1353.8	3.51262e-06
1362.35	4.1256e-06
1370.91	9.5783e-06
1379.47	1.98119e-05
1388.03	1.57698e-05
1396.58	9.46594e-06
1405.14	5.81195e-06
1413.7	5.8093e-06
1422.26	7.41527e-06
1430.81	1.03468e-05
1439.37	2.25398e-05
1447.93	5.66838e-05
1456.49	7.77495e-05
1465.05	8.39764e-05
1473.6	4.6334e-05
1482.16	2.72098e-05
1490.72	6.29612e-05
1499.28	0.00010359
1507.83	6.82452e-05
1516.39	7.94677e-06
1524.95	6.0285e-06
1533.51	5.34744e-06
1542.06	4.04786e-06
1550.62	3.54592e-06
1559.18	3.23884e-06
1567.74	3.06668e-06
1576.29	2.92433e-06
1584.85	7.46082e-06
1593.41	1.6534e-05
1601.97	4.30261e-05
1610.53	5.17663e-05
1619.08	3.03807e-05
1627.64	4.23171e-06
1636.2	2.46639e-06
1644.76	3.00817e-06
1653.31	2.2749e-06
1661.87	3.69454e-06
1670.43	2.83629e-06
1678.99	2.13991e-06
1687.54	1.31711e-06
1696.1	-1.61096e-07
1704.66	6.91388e-07
1713.22	8.23586e-07
1721.77	1.86505e-06
1730.33	4.64715e-06
1738.89	6.02433e-06
1747.45	5.83451e-06
1756.01	2.02203e-06
1764.56	5.14631e-07
1773.12	1.21042e-06
1781.68	1.57499e-06
1790.24	8.27719e-06
1798.79	1.49316e-05
1807.35	9.92596e-06
1815.91	3.01628e-06
1824.47	2.12151e-06
1833.02	9.61921e-07
1841.58	9.53717e-07
1850.14	3.36985e-06
1858.7	8.74875e-06
1867.25	9.81743e-06
1875.81	1.18036e-05
1884.37	7.00811e-06
1892.93	1.56781e-06
1901.49	3.47084e-07
1910.04	5.22415e-07
1918.6	1.68145e-06
1927.16	5.18295e-06
1935.72	1.19065e-05
1944.27	1.33361e-05
1952.83	1.21644e-05
1961.39	6.62525e-06
1969.95	1.08069e-06
1978.5	3.09655e-07
1987.06	3.56647e-07
1995.62	2.65046e-07
2004.18	-1.89772e-07
2012.73	-3.40109e-08
2021.29	2.55955e-07
2029.85	5.2816e-07
2038.41	3.50331e-07
2046.97	1.44034e-08
2055.52	-2.16393e-07
2064.08	-3.95461e-07
2072.64	-4.37375e-07
2081.2	-3.61252e-07
2089.75	-2.30077e-07
2098.31	-2.1302e-07
2106.87	-2.63366e-07
2115.43	-6.60128e-08
2123.98	9.50611e-08
2132.54	-1.37918e-08
2141.1	-4.23072e-08
2149.66	-8.64179e-08
2158.21	-1.05326e-07
2166.77	9.62839e-08
2175.33	2.11347e-07
2183.89	4.72107e-08
2192.45	3.68594e-08
2201	-6.62465e-09
2209.56	2.22718e-07
2218.12	5.27412e-07
2226.68	4.82335e-07
2235.23	7.47513e-07
2243.79	6.95224e-07
2252.35	4.75893e-07
2260.91	6.10564e-07
2269.46	8.30185e-07
2278.02	1.18306e-06
2286.58	1.09288e-06
2295.14	8.44332e-07
2303.69	7.63863e-07
2312.25	1.40442e-06
2320.81	1.92627e-06
2329.37	1.47353e-06
2337.93	2.0088e-06
2346.48	2.0866e-06
2355.04	1.35116e-06
2363.6	1.32476e-06
2372.16	1.16993e-06
2380.71	7.55119e-07
2389.27	4.74081e-07
2397.83	2.41648e-07
2406.39	5.08735e-07
2414.94	6.25885e-07
2423.5	7.5047e-07
2432.06	1.04616e-06
2440.62	1.38113e-06
2449.17	7.26457e-07
2457.73	2.1225e-07
2466.29	2.44891e-07
2474.85	2.36184e-07
2483.41	2.67087e-07
2491.96	3.34553e-07
2500.52	4.23366e-07
2509.08	4.80329e-07
2517.64	6.8016e-07
2526.19	9.3195e-07
2534.75	1.03658e-06
2543.31	6.98052e-07
2551.87	6.11659e-07
2560.42	7.69632e-07
2568.98	7.22582e-07
2577.54	5.90824e-07
2586.1	8.89343e-07
2594.65	1.14757e-06
2603.21	1.39178e-06
2611.77	1.74824e-06
2620.33	1.71884e-06
2628.89	2.31719e-06
2637.44	3.16042e-06
2646	2.93765e-06
2654.56	1.74801e-06
2663.12	7.46401e-07
2671.67	7.71241e-07
2680.23	7.72874e-07
2688.79	5.29564e-07
2697.35	1.24318e-06
2705.9	1.46299e-06
2714.46	9.02984e-07
2723.02	1.15789e-06
2731.58	2.45401e-06
2740.13	3.48106e-06
2748.69	2.92069e-06
2757.25	2.32661e-06
2765.81	2.92391e-06
2774.37	3.883e-06
2782.92	5.36733e-06
2791.48	6.24597e-06
2800.04	5.2497e-06
2808.6	4.85138e-06
2817.15	5.92047e-06
2825.71	8.23693e-06
2834.27	1.10777e-05
2842.83	1.52715e-05
2851.38	2.13532e-05
2859.94	3.70692e-05
2868.5	7.2527e-05
2877.06	0.000124754
2885.61	0.000151675
2894.17	0.000111933
2902.73	9.25862e-05
2911.29	8.94738e-05
2919.85	7.89165e-05
2928.4	0.00010461
2936.96	0.000174801
2945.52	0.000199119
2954.08	0.000160229
2962.63	0.000164329
2971.19	0.000415814
2979.75	0.000430655
2988.31	0.000131683
2996.86	5.19888e-05
3005.42	4.4664e-05
3013.98	4.95024e-05
3022.54	8.73851e-05
3031.09	0.000209041
3039.65	0.000235771
3048.21	0.000143842
3056.77	6.59058e-05
3065.33	0.000105953
3073.88	0.00015596
3082.44	0.000145101
3091	8.8921e-05
3099.56	7.09926e-05
3108.11	4.48166e-05
3116.67	3.01062e-05
3125.23	1.78699e-05
3133.79	5.48265e-06
3142.34	3.3567e-06
3150.9	3.18041e-06
3159.46	3.52107e-06
3168.02	4.18905e-06
3176.57	5.78899e-06
3185.13	6.2094e-06
3193.69	4.6321e-06
3202.25	1.65439e-06
3210.81	7.51221e-07
3219.36	4.59352e-07
3227.92	4.5134e-07
3236.48	3.11647e-07
3245.04	4.67329e-07
3253.59	6.30724e-07
3262.15	8.11007e-07
3270.71	7.10895e-07
3279.27	6.98505e-07
3287.82	4.349e-07
3296.38	4.94613e-07
3304.94	5.2518e-07
3313.5	-4.6845e-08
3322.05	1.30121e-07
3330.61	1.32594e-07
3339.17	1.31552e-07
3347.73	-2.18211e-07
3356.29	5.78247e-08
3364.84	5.09486e-08
3373.4	-5.29558e-08
3381.96	-9.88023e-08
3390.52	1.45995e-07
3399.07	1.53907e-08
3407.63	1.03893e-07
3416.19	-1.19618e-07
3424.75	-2.22937e-07
3433.3	-2.91017e-07
3441.86	-1.90677e-08
3450.42	-7.92398e-08
3458.98	-8.08178e-08
3467.53	-6.35476e-08
3476.09	6.7613e-08
3484.65	-1.94844e-07
3493.21	-1.04668e-07
3501.77	-1.53717e-07
3510.32	-4.96817e-08
3518.88	3.41933e-07
3527.44	4.53141e-07
3536	4.03508e-07
3544.55	-2.94744e-07
3553.11	-1.75667e-07
3561.67	-3.25858e-08
3570.23	-1.65258e-07
3578.78	-2.56028e-08
3587.34	-1.30339e-07
3595.9	1.12401e-07
3604.46	1.1419e-08
3613.01	2.69011e-07
3621.57	4.33048e-07
3630.13	2.48418e-07
3638.69	5.54368e-07
3647.25	7.6201e-07
3655.8	1.07787e-06
3664.36	1.19317e-06
3672.92	5.59594e-07
3681.48	5.92252e-07
3690.03	6.65578e-07
3698.59	7.05984e-07
3707.15	5.0063e-07
3715.71	4.69542e-07
3724.26	8.12216e-07
3732.82	4.91571e-07
3741.38	8.06927e-08
3749.94	3.13164e-07
3758.49	3.6651e-07
3767.05	4.16685e-07
3775.61	1.78682e-07
3784.17	3.80243e-07
3792.73	3.16806e-07
3801.28	-3.62301e-07
3809.84	4.61841e-07
3818.4	4.54998e-07
3826.96	3.59891e-07
3835.51	6.17528e-07
3844.07	6.62029e-07
3852.63	4.82832e-07
3861.19	3.67281e-07
3869.74	1.65988e-07
3878.3	1.64866e-07
3886.86	-2.20973e-07
3895.42	-1.08401e-07
3903.97	-1.57544e-07
3912.53	5.10487e-07
3921.09	6.60559e-07
3929.65	1.18683e-06
3938.21	1.45136e-06
3946.76	1.69376e-06
3955.32	8.98948e-07
3963.88	8.16823e-07
3972.44	9.65985e-07
