Infrared Spectrum: Ethylbenzene
Formula: C6 H5 C2 H5
CAS: 100-41-4
State: gas
Melting point: -94.97 C
Boiling point: 136.2 C
Class: IUPAC A
Instrument: IFS66V (Bruker)
Instrument parameters: KBr Beam Splitter; MCT Detector; Multipass cell
Sampling: 1 L/min Flow
Resolution: 0.2410
Temperature: 23 C
Pressure: 101.3 Pa
Origin: NIST, Analytical Chemistry Division, 301-975-3108
cm-1	(micromol/mol)-1m-1 (base 10)
575.05	5.52092e-06
583.608	-3.59178e-07
592.165	-8.51546e-08
600.723	1.23458e-06
609.281	1.62158e-07
617.838	7.22102e-07
626.396	1.43819e-07
634.954	3.16494e-07
643.511	-7.45496e-08
652.069	6.66382e-07
660.626	7.95098e-07
669.184	5.8636e-06
677.742	3.77409e-05
686.299	0.000122586
694.857	0.000221132
703.415	0.00017924
711.972	0.000115821
720.53	7.52432e-05
729.088	8.99316e-05
737.645	0.000113819
746.203	0.000115337
754.761	9.84692e-05
763.318	6.8763e-05
771.876	6.60825e-05
780.434	3.3003e-05
788.991	1.97191e-05
797.549	1.1487e-05
806.106	6.10418e-06
814.664	3.67414e-06
823.222	1.91432e-06
831.779	8.25982e-07
840.337	5.29136e-07
848.895	7.32873e-08
857.452	-3.27605e-07
866.01	-1.65434e-07
874.568	1.37558e-06
883.125	3.2572e-06
891.683	6.36567e-06
900.241	9.07805e-06
908.798	7.60088e-06
917.356	4.02982e-06
925.914	3.42361e-07
934.471	-3.14596e-07
943.029	1.77336e-07
951.586	2.57389e-06
960.144	1.04612e-05
968.702	1.29468e-05
977.259	4.66873e-06
985.817	1.39698e-06
994.375	2.17983e-06
1002.93	3.53274e-06
1011.49	5.3724e-06
1020.05	1.56445e-05
1028.61	2.82901e-05
1037.16	3.1558e-05
1045.72	1.82219e-05
1054.28	1.87396e-05
1062.84	2.50331e-05
1071.39	2.67422e-05
1079.95	1.05724e-05
1088.51	9.97322e-06
1097.07	1.12144e-05
1105.62	8.69636e-06
1114.18	7.0415e-06
1122.74	3.27231e-06
1131.3	1.39292e-06
1139.85	1.03558e-06
1148.41	5.81569e-07
1156.97	6.18583e-08
1165.53	8.59786e-08
1174.09	-1.64059e-07
1182.64	1.8066e-07
1191.2	8.85937e-07
1199.76	1.38733e-06
1208.32	9.41906e-07
1216.87	2.186e-07
1225.43	1.06233e-07
1233.99	1.88401e-06
1242.55	2.10448e-06
1251.1	1.92129e-06
1259.66	1.55238e-06
1268.22	1.66921e-06
1276.78	1.84739e-06
1285.33	3.00386e-06
1293.89	4.74166e-06
1302.45	5.71407e-06
1311.01	6.58965e-06
1319.57	1.32347e-05
1328.12	2.07288e-05
1336.68	1.75771e-05
1345.24	7.02291e-06
1353.8	3.53766e-06
1362.35	4.07019e-06
1370.91	9.56565e-06
1379.47	1.98035e-05
1388.03	1.57088e-05
1396.58	9.52751e-06
1405.14	5.82587e-06
1413.7	5.79294e-06
1422.26	7.40846e-06
1430.81	1.03508e-05
1439.37	2.25595e-05
1447.93	5.66289e-05
1456.49	7.7698e-05
1465.05	8.40298e-05
1473.6	4.63118e-05
1482.16	2.72117e-05
1490.72	6.29717e-05
1499.28	0.0001036
1507.83	6.82607e-05
1516.39	7.94077e-06
1524.95	6.0313e-06
1533.51	5.38044e-06
1542.06	3.97048e-06
1550.62	3.56016e-06
1559.18	3.23117e-06
1567.74	3.05735e-06
1576.29	2.88204e-06
1584.85	7.44792e-06
1593.41	1.65205e-05
1601.97	4.30306e-05
1610.53	5.17546e-05
1619.08	3.03641e-05
1627.64	4.21346e-06
1636.2	2.47934e-06
1644.76	3.0037e-06
1653.31	2.16643e-06
1661.87	3.67925e-06
1670.43	2.82883e-06
1678.99	2.14381e-06
1687.54	1.32546e-06
1696.1	-8.60432e-08
1704.66	7.28207e-07
1713.22	8.20601e-07
1721.77	1.8602e-06
1730.33	4.66117e-06
1738.89	6.01462e-06
1747.45	5.8481e-06
1756.01	2.03047e-06
1764.56	5.05911e-07
1773.12	1.2476e-06
1781.68	1.56463e-06
1790.24	8.28586e-06
1798.79	1.493e-05
1807.35	9.93602e-06
1815.91	2.99846e-06
1824.47	2.11051e-06
1833.02	9.78032e-07
1841.58	9.5894e-07
1850.14	3.38763e-06
1858.7	8.75915e-06
1867.25	9.81922e-06
1875.81	1.18245e-05
1884.37	7.01659e-06
1892.93	1.55788e-06
1901.49	3.44189e-07
1910.04	5.14347e-07
1918.6	1.67808e-06
1927.16	5.1886e-06
1935.72	1.191e-05
1944.27	1.33264e-05
1952.83	1.21601e-05
1961.39	6.62784e-06
1969.95	1.09005e-06
1978.5	3.05257e-07
1987.06	3.49137e-07
1995.62	2.64506e-07
2004.18	-2.17937e-07
2012.73	-4.43508e-08
2021.29	2.31017e-07
2029.85	5.14675e-07
2038.41	3.65719e-07
2046.97	9.56136e-09
2055.52	-2.0088e-07
2064.08	-4.01938e-07
2072.64	-4.35278e-07
2081.2	-3.41546e-07
2089.75	-2.41359e-07
2098.31	-2.42165e-07
2106.87	-2.60044e-07
2115.43	-3.15862e-08
2123.98	9.49261e-08
2132.54	-3.44638e-08
2141.1	-2.33204e-08
2149.66	-9.06106e-08
2158.21	-1.14286e-07
2166.77	1.22893e-07
2175.33	2.38884e-07
2183.89	3.70113e-08
2192.45	5.78261e-08
2201	1.01862e-09
2209.56	2.31048e-07
2218.12	5.45432e-07
2226.68	4.68178e-07
2235.23	7.45461e-07
2243.79	7.09345e-07
2252.35	4.7253e-07
2260.91	6.05007e-07
2269.46	8.10105e-07
2278.02	1.19193e-06
2286.58	1.08698e-06
2295.14	8.53371e-07
2303.69	7.45531e-07
2312.25	1.40772e-06
2320.81	1.93445e-06
2329.37	1.47447e-06
2337.93	2.05718e-06
2346.48	2.08946e-06
2355.04	1.32332e-06
2363.6	1.36015e-06
2372.16	1.20315e-06
2380.71	7.24402e-07
2389.27	4.73294e-07
2397.83	2.46041e-07
2406.39	5.2242e-07
2414.94	6.14502e-07
2423.5	7.65375e-07
2432.06	1.02928e-06
2440.62	1.38083e-06
2449.17	7.37875e-07
2457.73	1.90069e-07
2466.29	2.6564e-07
2474.85	2.5191e-07
2483.41	2.55635e-07
2491.96	3.33623e-07
2500.52	4.2294e-07
2509.08	4.90196e-07
2517.64	7.02871e-07
2526.19	9.50276e-07
2534.75	1.06003e-06
2543.31	6.99463e-07
2551.87	6.36973e-07
2560.42	7.66146e-07
2568.98	7.36683e-07
2577.54	5.31566e-07
2586.1	9.18083e-07
2594.65	1.17568e-06
2603.21	1.38568e-06
2611.77	1.76443e-06
2620.33	1.73674e-06
2628.89	2.31113e-06
2637.44	3.16808e-06
2646	2.95897e-06
2654.56	1.75015e-06
2663.12	7.7977e-07
2671.67	7.55909e-07
2680.23	7.9783e-07
2688.79	5.32108e-07
2697.35	1.23482e-06
2705.9	1.44929e-06
2714.46	8.35643e-07
2723.02	1.12124e-06
2731.58	2.47221e-06
2740.13	3.49169e-06
2748.69	2.94366e-06
2757.25	2.34355e-06
2765.81	2.90855e-06
2774.37	3.83283e-06
2782.92	5.35816e-06
2791.48	6.28245e-06
2800.04	5.25289e-06
2808.6	4.84643e-06
2817.15	5.94576e-06
2825.71	8.21401e-06
2834.27	1.10514e-05
2842.83	1.52595e-05
2851.38	2.13845e-05
2859.94	3.70554e-05
2868.5	7.24741e-05
2877.06	0.000124767
2885.61	0.000151709
2894.17	0.00011187
2902.73	9.26005e-05
2911.29	8.94406e-05
2919.85	7.89383e-05
2928.4	0.000104593
2936.96	0.00017482
2945.52	0.000199066
2954.08	0.000160232
2962.63	0.000164313
2971.19	0.000415914
2979.75	0.000430652
2988.31	0.000131731
2996.86	5.19958e-05
3005.42	4.46811e-05
3013.98	4.9462e-05
3022.54	8.73322e-05
3031.09	0.000209013
3039.65	0.000235729
3048.21	0.000143775
3056.77	6.58925e-05
3065.33	0.000105948
3073.88	0.000155961
3082.44	0.000145087
3091	8.89227e-05
3099.56	7.10109e-05
3108.11	4.48199e-05
3116.67	3.01558e-05
3125.23	1.78666e-05
3133.79	5.5321e-06
3142.34	3.35666e-06
3150.9	3.18322e-06
3159.46	3.52684e-06
3168.02	4.2031e-06
3176.57	5.77067e-06
3185.13	6.17051e-06
3193.69	4.66406e-06
3202.25	1.61767e-06
3210.81	7.65149e-07
3219.36	4.82946e-07
3227.92	4.7028e-07
3236.48	3.37431e-07
3245.04	4.50428e-07
3253.59	6.19637e-07
3262.15	8.64571e-07
3270.71	7.06716e-07
3279.27	6.85888e-07
3287.82	4.11861e-07
3296.38	4.95726e-07
3304.94	5.35866e-07
3313.5	-9.57255e-08
3322.05	1.14568e-07
3330.61	1.605e-07
3339.17	1.15896e-07
3347.73	-2.67015e-07
3356.29	7.57751e-08
3364.84	9.85135e-08
3373.4	-7.50826e-08
3381.96	-7.72435e-08
3390.52	1.82808e-07
3399.07	-3.18564e-08
3407.63	1.00714e-07
3416.19	-1.57836e-07
3424.75	-2.96114e-07
3433.3	-3.06717e-07
3441.86	-4.50002e-08
3450.42	-1.01316e-07
3458.98	-8.42306e-08
3467.53	-7.25915e-08
3476.09	7.95731e-08
3484.65	-1.85909e-07
3493.21	-7.17566e-08
3501.77	-1.4103e-07
3510.32	-4.92529e-09
3518.88	4.64169e-07
3527.44	4.72491e-07
3536	4.4191e-07
3544.55	-3.38058e-07
3553.11	-2.26427e-07
3561.67	-3.29204e-08
3570.23	-1.42048e-07
3578.78	5.32319e-09
3587.34	-1.4067e-07
3595.9	1.04571e-07
3604.46	1.89808e-09
3613.01	2.63907e-07
3621.57	4.40048e-07
3630.13	2.4599e-07
3638.69	5.61107e-07
3647.25	7.9895e-07
3655.8	1.04666e-06
3664.36	1.20194e-06
3672.92	5.48431e-07
3681.48	6.09673e-07
3690.03	6.61737e-07
3698.59	7.27735e-07
3707.15	5.21277e-07
3715.71	4.97821e-07
3724.26	8.47749e-07
3732.82	4.72506e-07
3741.38	8.76807e-08
3749.94	3.81079e-07
3758.49	3.74142e-07
3767.05	4.38584e-07
3775.61	1.20461e-07
3784.17	3.9378e-07
3792.73	3.54999e-07
3801.28	-3.39447e-07
3809.84	4.47387e-07
3818.4	4.22358e-07
3826.96	3.71614e-07
3835.51	6.33128e-07
3844.07	6.60025e-07
3852.63	4.90946e-07
3861.19	3.66804e-07
3869.74	1.58845e-07
3878.3	2.05877e-07
3886.86	-2.59698e-07
3895.42	-8.49527e-08
3903.97	-1.32075e-07
3912.53	5.23425e-07
3921.09	6.2679e-07
3929.65	1.2119e-06
3938.21	1.41506e-06
3946.76	1.72408e-06
3955.32	8.77294e-07
3963.88	7.9519e-07
3972.44	9.44324e-07
