Infrared Spectrum: BENZENE, ETHYL-
Formula: C8 H10
CAS: 100-41-4
State: SOLUTION (10% IN CCl4 FOR 3800-1300, 10% IN CS2 FOR 1300-650, AND 10% CCl4 FOR 650-240 CM^-^1) VERSUS SOLVENT
Class: COBLENTZ III
Instrument: PERKIN-ELMER 521 (GRATING)
Instrument parameters: FILTERS AT 3150, 2500, 2000, 1150, 700, 410; GRATING CHANGES AT 2000, 630 CM^-^1
Sampling: TRANSMISSION
Path length: 0.012, 0.012, AND 0.010 CM (CsBr CELL)
Resolution: 4
Origin: DOW CORNING CORP.
1/CM	TRANSMITTANCE
237.233	0.772
246.22	0.78
255.207	0.794
264.195	0.805
273.182	0.808
282.169	0.813
291.156	0.829
300.143	0.838
309.13	0.846
318.118	0.857
327.105	0.866
336.092	0.867
345.079	0.866
354.066	0.864
363.053	0.864
372.041	0.859
381.028	0.853
390.015	0.845
399.002	0.845
407.989	0.848
416.976	0.846
425.964	0.843
434.951	0.836
443.938	0.82
452.925	0.796
461.912	0.758
470.899	0.718
479.887	0.6341
488.874	0.603
497.861	0.779
506.848	0.819
515.835	0.817
524.822	0.812
533.81	0.801
542.797	0.7661
551.784	0.5871
560.771	0.6689
569.758	0.7959
578.745	0.813
587.733	0.817
596.72	0.82
605.707	0.824
614.694	0.822
623.681	0.824
632.668	0.824
641.656	0.826
650.643	0.822
659.63	0.819
668.617	0.803
677.604	0.726
686.591	0.502
695.579	0.0262
704.566	0.2499
713.553	0.42
722.54	0.389
731.527	0.36
740.514	0.25
749.502	0.2379
758.489	0.5819
767.476	0.532
776.463	0.54
785.45	0.575
794.437	0.683
803.425	0.794
812.412	0.833
821.399	0.84
830.386	0.826
839.373	0.806
848.36	0.84
857.348	0.843
866.335	0.848
875.322	0.846
884.309	0.831
893.296	0.8
902.283	0.551
911.271	0.84
920.258	0.866
929.245	0.864
938.232	0.862
947.219	0.848
956.206	0.789
965.194	0.732
974.181	0.803
983.168	0.833
992.155	0.836
1001.14	0.827
1010.13	0.82
1019.12	0.7751
1028.1	0.5842
1037.09	0.554
1046.08	0.732
1055.07	0.725
1064.05	0.692
1073.04	0.777
1082.03	0.7331
1091.01	0.72
1100	0.779
1108.99	0.763
1117.98	0.831
1126.96	0.834
1135.95	0.834
1144.94	0.829
1153.92	0.808
1162.91	0.826
1171.9	0.794
1180.89	0.808
1189.87	0.845
1198.86	0.857
1207.85	0.874
1216.83	0.874
1225.82	0.874
1234.81	0.864
1243.8	0.852
1252.78	0.852
1261.77	0.841
1270.76	0.852
1279.74	0.845
1288.73	0.836
1297.72	0.829
1306.71	0.822
1315.69	0.806
1324.68	0.798
1333.67	0.834
1342.65	0.848
1351.64	0.845
1360.63	0.824
1369.62	0.693
1378.6	0.744
1387.59	0.812
1396.58	0.819
1405.56	0.822
1414.55	0.817
1423.54	0.775
1432.53	0.721
1441.51	0.5821
1450.5	0.2052
1459.49	0.386
1468.48	0.6639
1477.46	0.735
1486.45	0.591
1495.44	0.1441
1504.42	0.796
1513.41	0.826
1522.4	0.831
1531.39	0.806
1540.37	0.812
1549.36	0.822
1558.35	0.833
1567.33	0.827
1576.32	0.784
1585.31	0.772
1594.3	0.6761
1603.28	0.429
1612.27	0.834
1621.26	0.855
1630.24	0.86
1639.23	0.86
1648.22	0.857
1657.21	0.86
1666.19	0.867
1675.18	0.869
1684.17	0.871
1693.15	0.874
1702.14	0.876
1711.13	0.878
1720.12	0.874
1729.1	0.859
1738.09	0.824
1747.08	0.857
1756.06	0.883
1765.05	0.883
1774.04	0.878
1783.03	0.88
1792.01	0.822
1801	0.801
1809.99	0.855
1818.97	0.866
1827.96	0.883
1836.95	0.885
1845.94	0.88
1854.92	0.852
1863.91	0.779
1872.9	0.845
1881.88	0.834
1890.87	0.886
1899.86	0.89
1908.85	0.888
1917.83	0.881
1926.82	0.871
1935.81	0.784
1944.79	0.829
1953.78	0.829
1962.77	0.874
1971.76	0.895
1980.74	0.899
1989.73	0.9
1998.72	0.9
2007.71	0.897
2016.69	0.895
2025.68	0.895
2034.67	0.895
2043.65	0.895
2052.64	0.895
2061.63	0.895
2070.62	0.895
2079.6	0.895
2088.59	0.895
2097.58	0.8951
2106.56	0.895
2115.55	0.893
2124.54	0.8941
2133.53	0.8929
2142.51	0.893
2151.5	0.8859
2160.49	0.8838
2169.47	0.8812
2178.46	0.883
2187.45	0.8832
2196.44	0.8854
2205.42	0.8848
2214.41	0.8818
2223.4	0.8762
2232.38	0.88
2241.37	0.883
2250.36	0.885
2259.35	0.8847
2268.33	0.8843
2277.32	0.8809
2286.31	0.88
2295.29	0.8777
2304.28	0.8767
2313.27	0.876
2322.26	0.876
2331.24	0.8707
2340.23	0.871
2349.22	0.8744
2358.2	0.876
2367.19	0.874
2376.18	0.876
2385.17	0.88
2394.15	0.88
2403.14	0.876
2412.13	0.876
2421.11	0.878
2430.1	0.876
2439.09	0.876
2448.08	0.8785
2457.06	0.8775
2466.05	0.874
2475.04	0.88
2484.03	0.876
2493.01	0.874
2502	0.873
2510.99	0.874
2519.97	0.874
2528.96	0.8696
2537.95	0.871
2546.94	0.8676
2555.92	0.8738
2564.91	0.871
2573.9	0.8726
2582.88	0.864
2591.87	0.866
2600.86	0.8633
2609.85	0.859
2618.83	0.8597
2627.82	0.8533
2636.81	0.8557
2645.79	0.859
2654.78	0.866
2663.77	0.864
2672.76	0.864
2681.74	0.8623
2690.73	0.862
2699.72	0.86
2708.7	0.859
2717.69	0.8534
2726.68	0.843
2735.67	0.8448
2744.65	0.848
2753.64	0.848
2762.63	0.8422
2771.61	0.834
2780.6	0.8243
2789.59	0.824
2798.58	0.8211
2807.56	0.8131
2816.55	0.8049
2825.54	0.7791
2834.52	0.7498
2843.51	0.701
2852.5	0.6266
2861.49	0.5033
2870.47	0.4097
2879.46	0.2955
2888.45	0.4148
2897.43	0.48
2906.42	0.478
2915.41	0.443
2924.4	0.3616
2933.38	0.168
2942.37	0.2618
2951.36	0.3798
2960.34	0.3034
2969.33	0.0271
2978.32	0.126
2987.31	0.3276
2996.29	0.5157
3005.28	0.5733
3014.27	0.5678
3023.26	0.4441
3032.24	0.153
3041.23	0.2871
3050.22	0.593
3059.2	0.5725
3068.19	0.3933
3077.18	0.509
3086.17	0.51
3095.15	0.5179
3104.14	0.723
3113.13	0.7114
3122.11	0.8123
3131.1	0.834
3140.09	0.838
3149.08	0.845
3158.06	0.843
3167.05	0.8433
3176.04	0.8486
3185.02	0.8573
3194.01	0.8597
3203	0.8662
3211.99	0.871
3220.97	0.8732
3229.96	0.876
3238.95	0.878
3247.93	0.8807
3256.92	0.88
3265.91	0.881
3274.9	0.8826
3283.88	0.881
3292.87	0.883
3301.86	0.883
3310.84	0.883
3319.83	0.8815
3328.82	0.883
3337.81	0.881
3346.79	0.88
3355.78	0.881
3364.77	0.8815
3373.75	0.883
3382.74	0.883
3391.73	0.883
3400.72	0.8815
3409.7	0.883
3418.69	0.8836
3427.68	0.8852
3436.66	0.881
3445.65	0.885
3454.64	0.888
3463.63	0.89
3472.61	0.89
3481.6	0.892
3490.59	0.89
3499.58	0.89
3508.56	0.888
3517.55	0.888
3526.54	0.89
3535.52	0.8928
3544.51	0.893
3553.5	0.893
3562.49	0.893
3571.47	0.895
3580.46	0.9
3589.45	0.8972
3598.43	0.893
3607.42	0.893
3616.41	0.892
3625.4	0.892
3634.38	0.89
3643.37	0.8836
3652.36	0.8871
3661.34	0.8902
3670.33	0.8924
3679.32	0.89
3688.31	0.89
3697.29	0.89
3706.28	0.892
3715.27	0.893
3724.25	0.895
3733.24	0.899
3742.23	0.897
3751.22	0.8951
3760.2	0.893
3769.19	0.893
3778.18	0.894
3787.16	0.895
