Infrared Spectrum: Toluene, Alpha-chloro-p-nitro
Formula: C7 H6 Cl N O2
CAS: 100-14-1
State: SOLID (2.0 mg / 300 mg KBr DISC)
Class: COBLENTZ III
Instrument: PERKIN-ELMER 521 (GRATING)
Instrument parameters: FILTERS AT 3150, 2500, 2000, 1150, 700, 410. GRATING CHANGES: 2000, 630
Resolution: 2
Origin: STANDARD OIL OF OHIO
1/CM	TRANSMITTANCE
378	0.8039
387	0.6424
396	0.9456
405	0.9722
414	0.9556
423	0.9541
432	0.9675
441	0.9715
450	0.9702
459	0.968
468	0.9623
477	0.9464
486	0.9193
495	0.5496
504	0.9608
513	0.9784
522	0.9602
531	0.6482
540	0.9818
549	0.9946
558	0.9953
567	0.9939
576	0.9882
585	0.9835
594	0.97
603	0.9512
612	0.9555
621	0.9035
630	0.6617
639	0.8778
648	0.8779
657	0.8297
666	0.4293
675	0.3357
684	0.7861
693	0.4493
702	0.0608
711	0.3422
720	0.7109
729	0.8785
738	0.8941
747	0.9165
756	0.875
765	0.8809
774	0.9293
783	0.9294
792	0.8479
801	0.1164
810	0.6938
819	0.7299
828	0.8412
837	0.8484
846	0.8266
855	0.3882
864	0.2982
873	0.7712
882	0.9042
891	0.9404
900	0.9489
909	0.958
918	0.9513
927	0.9552
936	0.9499
945	0.957
954	0.9563
963	0.9523
972	0.9249
981	0.9429
990	0.9429
999	0.9363
1008	0.8773
1017	0.7175
1026	0.935
1035	0.9288
1044	0.9307
1053	0.9419
1062	0.9433
1071	0.9247
1080	0.8883
1089	0.8609
1098	0.7849
1107	0.2678
1116	0.7998
1125	0.9355
1134	0.9392
1143	0.9135
1152	0.9124
1161	0.9108
1170	0.7927
1179	0.8339
1188	0.8927
1197	0.8479
1206	0.755
1215	0.8808
1224	0.8868
1233	0.8819
1242	0.8118
1251	0.7696
1260	0.6661
1269	0.1711
1278	0.8263
1287	0.8404
1296	0.7057
1305	0.4813
1314	0.2836
1323	0.6075
1332	0.3898
1341	0.1319
1350	0.02
1359	0.1521
1368	0.5986
1377	0.7264
1386	0.7999
1395	0.8211
1404	0.7869
1413	0.6617
1422	0.5733
1431	0.8407
1440	0.8336
1449	0.6604
1458	0.8246
1467	0.8456
1476	0.82
1485	0.6744
1494	0.5819
1503	0.7664
1512	0.6462
1521	0.3244
1530	0.1527
1539	0.0459
1548	0.1491
1557	0.68
1566	0.7517
1575	0.7345
1584	0.7579
1593	0.7173
1602	0.4062
1611	0.047
1620	0.6867
1629	0.8265
1638	0.8453
1647	0.8742
1656	0.8993
1665	0.9051
1674	0.914
1683	0.9139
1692	0.8854
1701	0.8652
1710	0.9002
1719	0.9271
1728	0.9264
1737	0.894
1746	0.9368
1755	0.9448
1764	0.9455
1773	0.9395
1782	0.9403
1791	0.9325
1800	0.9145
1809	0.887
1818	0.8695
1827	0.9267
1836	0.9288
1845	0.9301
1854	0.9364
1863	0.936
1872	0.9299
1881	0.9277
1890	0.9297
1899	0.9297
1908	0.9252
1917	0.9173
1926	0.8994
1935	0.869
1944	0.7745
1953	0.8598
1962	0.8899
1971	0.8978
1980	0.8976
1989	0.9042
1998	0.876
2007	0.8739
2016	0.8729
2025	0.8725
2034	0.8745
2043	0.8714
2052	0.8663
2061	0.8636
2070	0.8648
2079	0.8653
2088	0.8645
2097	0.8633
2106	0.8624
2115	0.8616
2124	0.8616
2133	0.8602
2142	0.8575
2151	0.8543
2160	0.8497
2169	0.8454
2178	0.8433
2187	0.8434
2196	0.8376
2205	0.8267
2214	0.8312
2223	0.8422
2232	0.8433
2241	0.8418
2250	0.8375
2259	0.8328
2268	0.828
2277	0.8229
2286	0.8212
2295	0.8202
2304	0.8142
2313	0.807
2322	0.8043
2331	0.8024
2340	0.8028
2349	0.8076
2358	0.8092
2367	0.8081
2376	0.8069
2385	0.8052
2394	0.8028
2403	0.8032
2412	0.8061
2421	0.8063
2430	0.8027
2439	0.789
2448	0.7437
2457	0.7484
2466	0.8002
2475	0.7997
2484	0.798
2493	0.7855
2502	0.779
2511	0.7751
2520	0.7724
2529	0.7741
2538	0.7771
2547	0.7761
2556	0.7736
2565	0.7711
2574	0.7679
2583	0.764
2592	0.758
2601	0.7513
2610	0.7479
2619	0.7475
2628	0.7476
2637	0.7476
2646	0.7474
2655	0.7468
2664	0.7449
2673	0.7417
2682	0.7373
2691	0.7304
2700	0.7227
2709	0.7231
2718	0.7348
2727	0.7347
2736	0.73
2745	0.7246
2754	0.719
2763	0.715
2772	0.715
2781	0.711
2790	0.7073
2799	0.7081
2808	0.7068
2817	0.7033
2826	0.6946
2835	0.6789
2844	0.6505
2853	0.6081
2862	0.5715
2871	0.6439
2880	0.667
2889	0.6686
2898	0.6655
2907	0.6613
2916	0.6509
2925	0.6445
2934	0.6433
2943	0.6243
2952	0.6276
2961	0.6343
2970	0.6247
2979	0.6296
2988	0.6529
2997	0.6439
3006	0.6362
3015	0.6203
3024	0.5768
3033	0.6045
3042	0.5962
3051	0.5908
3060	0.5403
3069	0.5652
3078	0.5049
3087	0.5422
3096	0.527
3105	0.4838
3114	0.5777
3123	0.6268
3132	0.6313
3141	0.6298
3150	0.6266
3159	0.624
3168	0.623
3177	0.6216
3186	0.6174
3195	0.6129
3204	0.6091
3213	0.6098
3222	0.6115
3231	0.6111
3240	0.6092
3249	0.6062
3258	0.6031
3267	0.599
3276	0.5945
3285	0.5899
3294	0.5849
3303	0.5799
3312	0.5748
3321	0.5694
3330	0.5641
3339	0.5588
3348	0.5536
3357	0.5479
3366	0.5412
3375	0.5346
3384	0.5299
3393	0.5254
3402	0.5216
3411	0.519
3420	0.5167
3429	0.5156
3438	0.5145
3447	0.5142
3456	0.5148
3465	0.5154
3474	0.5167
3483	0.518
3492	0.5189
3501	0.5188
3510	0.5188
3519	0.5191
3528	0.52
3537	0.5221
3546	0.5243
3555	0.527
3564	0.5321
3573	0.5366
3582	0.5394
3591	0.5399
3600	0.5405
3609	0.5409
3618	0.5406
3627	0.5401
3636	0.539
3645	0.5376
3654	0.5369
3663	0.5362
3672	0.5356
3681	0.5347
3690	0.5337
3699	0.5328
3708	0.5319
3717	0.5307
3726	0.5293
3735	0.5279
3744	0.5263
3753	0.5247
3762	0.5232
3771	0.5217
3780	0.5204
3789	0.5202
3798	0.5203
3807	0.5206
3816	0.521
3825	0.5211
3834	0.5184
3843	0.5155
3852	0.5113
3861	0.5057
3870	0.5006
3879	0.4963
3888	0.4941
3897	0.4944
3906	0.4928
