Infrared Spectrum: BENZENE, ETHENYL-
Formula: C8 H8
CAS: 100-42-5
State: SOLUTION (10% IN CCl4 FOR 3800-1333, 10% IN CS2 FOR 1333-660, AND 10% IN CCl4 FOR 660-450 CM^-^1)
Class: COBLENTZ III
Instrument: DOW KBr FOREPRISM-GRATING
Instrument parameters: BLAZED AT 3.5, 12.0, 20.0 MICRON, CHANGED AT 5.0, 7.5, 14.9 MICRON
Sampling: TRANSMISSION
Path length: 0.011, 0.011, AND 0.011 CM
Resolution: 4
Origin: DOW CHEMICAL COMPANY
1/CM	TRANSMITTANCE
453.94	1.035
462.631	1.035
471.321	1.035
480.012	1.035
488.703	1.035
497.393	1.035
506.084	1.035
514.775	1.032
523.465	1.023
532.156	1.002
540.846	0.968
549.537	0.887
558.228	0.955
566.918	1.028
575.609	1.029
584.3	1.027
592.99	1.024
601.681	1.02
610.372	1.004
619.062	0.993
627.753	0.986
636.444	0.968
645.134	0.953
653.825	0.931
662.516	0.9
671.206	0.85
679.897	0.684
688.587	0.4959
697.278	0.008
705.969	0.587
714.659	0.873
723.35	0.912
732.041	0.912
740.731	0.9
749.422	0.881
758.113	0.834
766.803	0.576
775.494	0.009
784.185	0.688
792.875	0.878
801.566	0.915
810.257	0.921
818.947	0.914
827.638	0.889
836.329	0.84
845.019	0.802
853.71	0.772
862.4	0.789
871.091	0.804
879.782	0.798
888.472	0.76
897.163	0.5599
905.854	0.016
914.544	0.3481
923.235	0.806
931.926	0.884
940.616	0.892
949.307	0.889
957.998	0.859
966.688	0.814
975.379	0.556
984.07	0.3399
992.76	0.2811
1001.45	0.782
1010.14	0.809
1018.83	0.57
1027.52	0.893
1036.21	0.937
1044.9	0.944
1053.59	0.942
1062.29	0.929
1070.98	0.893
1079.67	0.691
1088.36	0.94
1097.05	0.949
1105.74	0.953
1114.43	0.976
1123.12	0.976
1131.81	0.968
1140.5	0.951
1149.19	0.933
1157.88	0.933
1166.57	0.931
1175.26	0.923
1183.95	0.925
1192.65	0.9
1201.34	0.842
1210.03	0.976
1218.72	0.994
1227.41	0.994
1236.1	0.989
1244.79	0.983
1253.48	0.967
1262.17	0.953
1270.86	0.934
1279.55	0.9
1288.24	0.869
1296.93	0.927
1305.62	0.926
1314.31	0.903
1323	0.936
1331.7	0.931
1340.39	0.985
1349.08	0.997
1357.77	0.997
1366.46	0.991
1375.15	0.978
1383.84	0.974
1392.53	0.955
1401.22	0.923
1409.91	0.7829
1418.6	0.761
1427.29	0.868
1435.98	0.906
1444.67	0.855
1453.36	0.423
1462.06	0.946
1470.75	0.942
1479.44	0.922
1488.13	0.859
1496.82	0.3718
1505.51	0.78
1514.2	0.753
1522.89	0.704
1531.58	0.643
1540.27	0.552
1548.96	0.53
1557.65	0.585
1566.34	0.601
1575.03	0.567
1583.72	0.68
1592.41	0.721
1601.11	0.707
1609.8	0.838
1618.49	0.834
1627.18	0.748
1635.87	0.4597
1644.56	0.979
1653.25	1.008
1661.94	0.998
1670.63	0.994
1679.32	0.98
1688.01	0.974
1696.7	1.006
1705.39	1.001
1714.08	1
1722.77	0.986
1731.47	0.971
1740.16	0.951
1748.85	0.952
1757.54	0.971
1766.23	0.986
1774.92	0.985
1783.61	0.976
1792.3	0.936
1800.99	0.897
1809.68	0.876
1818.37	0.805
1827.06	0.877
1835.75	0.959
1844.44	0.983
1853.13	0.976
1861.82	0.957
1870.52	0.919
1879.21	0.953
1887.9	0.953
1896.59	0.993
1905.28	0.998
1913.97	0.995
1922.66	0.982
1931.35	0.955
1940.04	0.923
1948.73	0.948
1957.42	0.9551
1966.11	0.99
1974.8	0.994
1983.49	0.998
1992.18	0.998
2000.88	1.009
2009.57	1.0125
2018.26	1.016
2026.95	1.016
2035.64	1.016
2044.33	1.016
2053.02	1.014
2061.71	1.014
2070.4	1.014
2079.09	1.014
2087.78	1.014
2096.47	1.0135
2105.16	1.0135
2113.85	1.014
2122.54	1.014
2131.24	1.013
2139.93	1.0125
2148.62	1.012
2157.31	1.012
2166	1.012
2174.69	1.01
2183.38	1.01
2192.07	1.01
2200.76	1.0096
2209.45	1.009
2218.14	1.008
2226.83	1.0056
2235.52	1.004
2244.21	1.001
2252.9	0.9992
2261.59	0.998
2270.29	0.997
2278.98	0.997
2287.67	0.994
2296.36	0.998
2305.05	1.008
2313.74	1.012
2322.43	1.024
2331.12	1.024
2339.81	1.0234
2348.5	1.028
2357.19	1.031
2365.88	1.0174
2374.57	1.0126
2383.26	1.012
2391.95	1.012
2400.65	1.012
2409.34	1.012
2418.03	1.012
2426.72	1.012
2435.41	1.012
2444.1	1.01
2452.79	1.01
2461.48	1.01
2470.17	1.009
2478.86	1.01
2487.55	1.01
2496.24	1.01
2504.93	1.0093
2513.62	1.01
2522.31	1.0093
2531	1.009
2539.7	1.009
2548.39	1.009
2557.08	1.009
2565.77	1.0087
2574.46	1.009
2583.15	1.008
2591.84	1.008
2600.53	1.008
2609.22	1.008
2617.91	1.008
2626.6	1.008
2635.29	1.008
2643.98	1.006
2652.67	1.006
2661.36	1.006
2670.06	1.006
2678.75	1.006
2687.44	1.006
2696.13	1.0065
2704.82	1.008
2713.51	1.008
2722.2	1.006
2730.89	1.006
2739.58	1.006
2748.27	1.006
2756.96	1.0048
2765.65	1.002
2774.34	1.001
2783.03	1.001
2791.72	1.001
2800.41	1.001
2809.11	1
2817.8	0.998
2826.49	0.997
2835.18	0.993
2843.87	0.987
2852.56	0.9756
2861.25	0.9696
2869.94	0.967
2878.63	0.965
2887.32	0.964
2896.01	0.9598
2904.7	0.953
2913.39	0.948
2922.08	0.9396
2930.77	0.936
2939.47	0.934
2948.16	0.9303
2956.85	0.9063
2965.54	0.8533
2974.23	0.8062
2982.92	0.774
2991.61	0.778
3000.3	0.7566
3008.99	0.586
3017.68	0.5979
3026.37	0.4715
3035.06	0.5311
3043.75	0.6432
3052.44	0.5783
3061.13	0.4959
3069.83	0.556
3078.52	0.5571
3087.21	0.4284
3095.9	0.5924
3104.59	0.8014
3113.28	0.9241
3121.97	0.987
3130.66	1.0028
3139.35	1.0091
3148.04	1.009
3156.73	1.0143
3165.42	1.0241
3174.11	1.028
3182.8	1.029
3191.49	1.031
3200.18	1.032
3208.88	1.0322
3217.57	1.034
3226.26	1.034
3234.95	1.034
3243.64	1.034
3252.33	1.034
3261.02	1.034
3269.71	1.034
3278.4	1.034
3287.09	1.034
3295.78	1.034
3304.47	1.034
3313.16	1.034
3321.85	1.034
3330.54	1.034
3339.24	1.034
3347.93	1.035
3356.62	1.035
3365.31	1.035
3374	1.035
3382.69	1.035
3391.38	1.034
3400.07	1.035
3408.76	1.0339
3417.45	1.031
3426.14	1.028
3434.83	1.027
3443.52	1.025
3452.21	1.024
3460.9	1.024
3469.59	1.024
3478.29	1.023
3486.98	1.021
3495.67	1.02
3504.36	1.019
3513.05	1.019
3521.74	1.019
3530.43	1.019
3539.12	1.02
3547.81	1.019
3556.5	1.019
3565.19	1.019
3573.88	1.017
3582.57	1.017
3591.26	1.017
3599.95	1.016
3608.65	1.016
3617.34	1.016
3626.03	1.016
3634.72	1.016
3643.41	1.0159
3652.1	1.014
3660.79	1.016
3669.48	1.019
3678.17	1.0191
3686.86	1.0189
3695.55	1.017
3704.24	1.02
3712.93	1.02
3721.62	1.019
3730.31	1.02
3739	1.0172
3747.7	1.0142
3756.39	1.01
3765.08	1.009
3773.77	1.008
