Infrared Spectrum: N,N'-BIS-(4-(6-METHYL)1,3,3a,7-TETRAZAINDENYL)-ETHYLENEDIAMINE
Formula: C14 H16 N10
CAS: 100883-07-6
State: SOLID (KBr PRESSING)
Melting point: 330 C
Class: COBLENTZ
Instrument: Not specified, most likely a prism, grating, or hybrid spectrometer.
Sampling: TRANSMISSION
Resolution: 4
Origin: EASTMAN KODAK COMPANY, RESEARCH LABORATORIES, ROCHESTER, N.Y.
MICROMETERS	TRANSMITTANCE
2.03	0.638
2.06514	0.636
2.10027	0.631
2.13541	0.629
2.17055	0.627
2.20568	0.626
2.24082	0.62
2.27595	0.622
2.31109	0.626
2.34623	0.629
2.38136	0.638
2.4165	0.641
2.45164	0.641
2.48677	0.643
2.52191	0.65
2.55704	0.653
2.59218	0.657
2.62732	0.659
2.66245	0.669
2.69759	0.68
2.73273	0.685
2.76786	0.68
2.803	0.62
2.83814	0.533
2.87327	0.457
2.90841	0.41
2.94354	0.379
2.97868	0.373
3.01382	0.382
3.04895	0.387
3.08409	0.351
3.11923	0.313
3.15436	0.309
3.1895	0.313
3.22463	0.323
3.25977	0.339
3.29491	0.325
3.33004	0.342
3.36518	0.337
3.40032	0.346
3.43545	0.33
3.47059	0.36
3.50573	0.406
3.54086	0.45
3.576	0.483
3.61113	0.514
3.64627	0.558
3.68141	0.579
3.71654	0.593
3.75168	0.613
3.78682	0.624
3.82195	0.646
3.85709	0.662
3.89222	0.68
3.92736	0.681
3.9625	0.695
3.99763	0.702
4.03277	0.714
4.06791	0.73
4.10304	0.735
4.13818	0.749
4.17332	0.761
4.20845	0.77
4.24359	0.763
4.27872	0.761
4.31386	0.773
4.349	0.793
4.38413	0.796
4.41927	0.8
4.45441	0.801
4.48954	0.803
4.52468	0.803
4.55981	0.803
4.59495	0.803
4.63009	0.805
4.66522	0.805
4.70036	0.805
4.7355	0.806
4.77063	0.81
4.80577	0.806
4.84091	0.798
4.87604	0.8
4.91118	0.801
4.94631	0.81
4.98145	0.817
5.01659	0.826
5.05172	0.831
5.08686	0.833
5.122	0.84
5.15713	0.84
5.19227	0.85
5.2274	0.86
5.26254	0.864
5.29768	0.864
5.33281	0.873
5.36795	0.871
5.40309	0.88
5.43822	0.874
5.47336	0.873
5.5085	0.867
5.54363	0.853
5.57877	0.869
5.6139	0.885
5.64904	0.881
5.68418	0.883
5.71931	0.871
5.75445	0.859
5.78959	0.845
5.82472	0.831
5.85986	0.834
5.89499	0.8
5.93013	0.754
5.96527	0.655
6.0004	0.525
6.03554	0.448
6.07068	0.267
6.10581	0.107
6.14095	0.045
6.17609	0.052
6.21122	0.153
6.24636	0.067
6.28149	0.034
6.31663	0.046
6.35177	0.153
6.3869	0.299
6.42204	0.398
6.45718	0.509
6.49231	0.523
6.52745	0.566
6.56259	0.518
6.59772	0.309
6.63286	0.337
6.66799	0.431
6.70313	0.53
6.73827	0.601
6.7734	0.469
6.80854	0.537
6.84368	0.511
6.87881	0.471
6.91395	0.333
6.94908	0.189
6.98422	0.248
7.01936	0.358
7.05449	0.413
7.08963	0.478
7.12477	0.568
7.1599	0.643
7.19504	0.706
7.23018	0.699
7.26531	0.657
7.30045	0.568
7.33558	0.671
7.37072	0.669
7.40586	0.64
7.44099	0.499
7.47613	0.36
7.51127	0.398
7.5464	0.488
7.58154	0.412
7.61667	0.313
7.65181	0.419
7.68695	0.563
7.72208	0.65
7.75722	0.683
7.79236	0.68
7.82749	0.695
7.86263	0.732
7.89777	0.735
7.9329	0.643
7.96804	0.427
8.00317	0.302
8.03831	0.36
8.07345	0.297
8.10858	0.499
8.14372	0.633
8.17886	0.72
8.21399	0.744
8.24913	0.653
8.28426	0.307
8.3194	0.234
8.35454	0.429
8.38967	0.575
8.42481	0.631
8.45995	0.605
8.49508	0.485
8.53022	0.471
8.56536	0.594
8.60049	0.631
8.63563	0.612
8.67076	0.584
8.7059	0.521
8.74104	0.54
8.77617	0.631
8.81131	0.721
8.84645	0.775
8.88158	0.798
8.91672	0.81
8.95185	0.815
8.98699	0.82
9.02213	0.822
9.05726	0.82
9.0924	0.822
9.12754	0.812
9.16267	0.803
9.19781	0.793
9.23295	0.798
9.26808	0.805
9.30322	0.815
9.33835	0.805
9.37349	0.798
9.40863	0.782
9.44376	0.772
9.4789	0.751
9.51404	0.704
9.54917	0.624
9.58431	0.61
9.61944	0.657
9.65458	0.666
9.68972	0.695
9.72485	0.733
9.75999	0.766
9.79513	0.796
9.83026	0.803
9.8654	0.805
9.90054	0.801
9.93567	0.8
9.97081	0.808
10.0059	0.815
10.0411	0.812
10.0762	0.789
10.1114	0.801
10.1465	0.813
10.1816	0.834
10.2168	0.836
10.2519	0.845
10.287	0.852
10.3222	0.86
10.3573	0.86
10.3924	0.86
10.4276	0.852
10.4627	0.845
10.4979	0.841
10.533	0.8
10.5681	0.845
10.6033	0.873
10.6384	0.88
10.6735	0.881
10.7087	0.892
10.7438	0.899
10.7789	0.904
10.8141	0.904
10.8492	0.904
10.8844	0.902
10.9195	0.892
10.9546	0.836
10.9898	0.78
11.0249	0.838
11.06	0.883
11.0952	0.911
11.1303	0.921
11.1654	0.935
11.2006	0.939
11.2357	0.939
11.2709	0.939
11.306	0.94
11.3411	0.937
11.3763	0.933
11.4114	0.933
11.4465	0.932
11.4817	0.933
11.5168	0.935
11.5519	0.933
11.5871	0.935
11.6222	0.933
11.6574	0.932
11.6925	0.93
11.7276	0.935
11.7628	0.93
11.7979	0.926
11.833	0.921
11.8682	0.911
11.9033	0.906
11.9384	0.897
11.9736	0.874
12.0087	0.833
12.0439	0.751
12.079	0.699
12.1141	0.697
12.1493	0.706
12.1844	0.697
12.2195	0.692
12.2547	0.706
12.2898	0.737
12.3249	0.753
12.3601	0.763
12.3952	0.758
12.4304	0.744
12.4655	0.742
12.5006	0.753
12.5358	0.773
12.5709	0.796
12.606	0.812
12.6412	0.824
12.6763	0.824
12.7114	0.829
12.7466	0.829
12.7817	0.82
12.8168	0.8
12.852	0.733
12.8871	0.582
12.9223	0.373
12.9574	0.511
12.9925	0.667
13.0277	0.721
13.0628	0.728
13.0979	0.73
13.1331	0.723
13.1682	0.716
13.2033	0.714
13.2385	0.714
13.2736	0.714
13.3088	0.716
13.3439	0.714
13.379	0.713
13.4142	0.718
13.4493	0.721
13.4844	0.72
13.5196	0.725
13.5547	0.723
13.5898	0.726
13.625	0.726
13.6601	0.73
13.6953	0.732
13.7304	0.739
13.7655	0.742
13.8007	0.749
13.8358	0.753
13.8709	0.76
13.9061	0.761
13.9412	0.765
13.9763	0.761
14.0115	0.754
14.0466	0.725
14.0818	0.699
14.1169	0.681
14.152	0.669
14.1872	0.653
14.2223	0.631
14.2574	0.603
14.2926	0.586
14.3277	0.582
14.3628	0.61
14.398	0.659
14.4331	0.7
14.4683	0.681
14.5034	0.646
14.5385	0.648
14.5737	0.673
14.6088	0.699
14.6439	0.721
14.6791	0.732
14.7142	0.74
14.7493	0.751
14.7845	0.754
14.8196	0.758
14.8548	0.756
14.8899	0.749
14.925	0.721
14.9602	0.725
14.9953	0.754
15.0304	0.761
15.0656	0.749
15.1007	0.739
15.1358	0.73
15.171	0.711
15.2061	0.702
15.2413	0.699
15.2764	0.693
15.3115	0.692
15.3467	0.69
15.3818	0.685
15.4169	0.673
15.4521	0.659
15.4872	0.64
15.5223	0.627
15.5575	0.622
15.5926	0.624
15.6278	0.634
15.6629	0.641
15.698	0.655
15.7332	0.662
15.7683	0.673
15.8034	0.681
15.8386	0.69
15.8737	0.692
15.9088	0.69
15.944	0.692
15.9791	0.69
