Infrared Spectrum: Phenol, p-nitro-,
Formula: C6 H5 N O3
CAS: 100-02-7
State: SOLID (OIL MULL)
Melting point: 112-113 C
Class: COBLENTZ III
Instrument: BAIRD (GRATING)
Instrument parameters: NaCl PRISM
Path length: CAPILLARY
Resolution: 2
Origin: WYANDOTTE CHEMICALS CORP.
1/CM	TRANSMITTANCE
626	0.3012
635	0.3886
644	0.5581
653	0.6001
662	0.6243
671	0.7139
680	0.7323
689	0.4879
698	0.6163
707	0.7679
716	0.7606
725	0.7605
734	0.7898
743	0.7865
752	0.4802
761	0.6609
770	0.8443
779	0.8555
788	0.8562
797	0.8398
806	0.7883
815	0.6184
824	0.6427
833	0.7213
842	0.6065
851	0.0323
860	0.4209
869	0.6472
878	0.8789
887	0.8608
896	0.8351
905	0.822
914	0.803
923	0.7882
932	0.7588
941	0.7475
950	0.7145
959	0.5063
968	0.6709
977	0.6948
986	0.6811
995	0.6539
1004	0.5785
1013	0.5798
1022	0.6259
1031	0.6016
1040	0.5811
1049	0.5536
1058	0.5235
1067	0.4885
1076	0.4399
1085	0.3742
1094	0.3008
1103	0.1781
1112	0.0529
1121	0.1899
1130	0.6812
1139	0.5861
1148	0.4641
1157	0.3338
1166	0.1365
1175	0.1539
1184	0.501
1193	0.3089
1202	0.2266
1211	0.1269
1220	0.0337
1229	0.0564
1238	0.2673
1247	0.2813
1256	0.2405
1265	0.1633
1274	0.0808
1283	0.0335
1292	0.0196
1301	0.2958
1310	0.2691
1319	0.0497
1328	0.0182
1337	0.0162
1346	0.0275
1355	0.0592
1364	0.2611
1373	0.4033
1382	0.3932
1391	0.5101
1400	0.7041
1409	0.7768
1418	0.834
1427	0.8334
1436	0.7497
1445	0.331
1454	0.2961
1463	0.1925
1472	0.1778
1481	0.1855
1490	0.1329
1499	0.0597
1508	0.0212
1517	0.0892
1526	0.214
1535	0.4355
1544	0.604
1553	0.6691
1562	0.7221
1571	0.733
1580	0.6774
1589	0.5522
1598	0.2427
1607	0.0281
1616	0.2255
1625	0.1903
1634	0.3878
1643	0.7693
1652	0.9245
1661	0.9394
1670	0.9234
1679	0.8963
1688	0.9092
1697	0.9416
1706	0.9437
1715	0.9337
1724	0.9681
1733	0.972
1742	0.9612
1751	0.9359
1760	0.9573
1769	0.9603
1778	0.9061
1787	0.9132
1796	0.9414
1805	0.9378
1814	0.9285
1823	0.9367
1832	0.9431
1841	0.9365
1850	0.9267
1859	0.9166
1868	0.908
1877	0.9029
1886	0.8989
1895	0.8802
1904	0.8545
1913	0.7708
1922	0.7865
1931	0.8553
1940	0.8448
1949	0.8324
1958	0.8208
1967	0.815
1976	0.8157
1985	0.8166
1994	0.8139
2003	0.8091
2012	0.8019
2021	0.7935
2030	0.7898
2039	0.7861
2048	0.7791
2057	0.7677
2066	0.7586
2075	0.7535
2084	0.7507
2093	0.7484
2102	0.7454
2111	0.7407
2120	0.7327
2129	0.723
2138	0.7145
2147	0.7071
2156	0.7001
2165	0.6932
2174	0.6864
2183	0.6801
2192	0.6756
2201	0.676
2210	0.6777
2219	0.678
2228	0.6753
2237	0.6705
2246	0.6635
2255	0.6476
2264	0.638
2273	0.6352
2282	0.6329
2291	0.6272
2300	0.6143
2309	0.5923
2318	0.5771
2327	0.5654
2336	0.5532
2345	0.5415
2354	0.5374
2363	0.5341
2372	0.5325
2381	0.5311
2390	0.5292
2399	0.5251
2408	0.5055
2417	0.4706
2426	0.4552
2435	0.4626
2444	0.4989
2453	0.5361
2462	0.5386
2471	0.5353
2480	0.5253
2489	0.5141
2498	0.5084
2507	0.5069
2516	0.5011
2525	0.4925
2534	0.4855
2543	0.4855
2552	0.4856
2561	0.4861
2570	0.4865
2579	0.4867
2588	0.4869
2597	0.486
2606	0.4838
2615	0.4783
2624	0.4695
2633	0.4593
2642	0.4545
2651	0.4478
2660	0.4351
2669	0.4268
2678	0.4252
2687	0.4221
2696	0.418
2705	0.4129
2714	0.4079
2723	0.4046
2732	0.4069
2741	0.4137
2750	0.4182
2759	0.4177
2768	0.4143
2777	0.4094
2786	0.404
2795	0.3946
2804	0.3789
2813	0.3525
2822	0.3204
2831	0.263
2840	0.1535
2849	0.0692
2858	0.0497
2867	0.0389
2876	0.0376
2885	0.0392
2894	0.0398
2903	0.0387
2912	0.0335
2921	0.0266
2930	0.0211
2939	0.0189
2948	0.0184
2957	0.0187
2966	0.0196
2975	0.0214
2984	0.0436
2993	0.0716
3002	0.0994
3011	0.1271
3020	0.1546
3029	0.1698
3038	0.1755
3047	0.1765
3056	0.1739
3065	0.167
3074	0.1578
3083	0.151
3092	0.1468
3101	0.1461
3110	0.1468
3119	0.1483
3128	0.1495
3137	0.1489
3146	0.1465
3155	0.1427
3164	0.1373
3173	0.1311
3182	0.1235
3191	0.1156
3200	0.1067
3209	0.0979
3218	0.0895
3227	0.0811
3236	0.0727
3245	0.0644
3254	0.0585
3263	0.0533
3272	0.0482
3281	0.0447
3290	0.044
3299	0.0446
3308	0.046
3317	0.0518
3326	0.0622
3335	0.0739
3344	0.0852
3353	0.095
3362	0.1051
3371	0.1168
3380	0.1287
3389	0.1412
3398	0.1545
3407	0.1674
3416	0.1797
3425	0.1919
3434	0.2041
3443	0.2223
3452	0.252
3461	0.2811
3470	0.3084
3479	0.3382
3488	0.3641
3497	0.3849
3506	0.4051
3515	0.4222
3524	0.436
3533	0.4607
3542	0.4865
3551	0.4927
3560	0.4949
3569	0.4959
3578	0.4949
3587	0.4932
3596	0.4896
3605	0.4836
3614	0.4768
3623	0.4678
3632	0.459
3641	0.4509
3650	0.4453
3659	0.4399
3668	0.4344
3677	0.4289
3686	0.4234
3695	0.418
3704	0.4125
3713	0.4068
3722	0.4011
3731	0.3955
3740	0.3899
3749	0.3851
3758	0.3803
3767	0.3756
3776	0.371
3785	0.3663
3794	0.3617
3803	0.3575
3812	0.354
3821	0.3505
3830	0.347
3839	0.3435
3848	0.34
3857	0.3365
3866	0.3331
3875	0.3301
3884	0.3272
3893	0.3244
3902	0.3216
3911	0.3188
3920	0.316
3929	0.3132
3938	0.3104
3947	0.3077
3956	0.3049
3965	0.302
3974	0.299
3983	0.2961
3992	0.2932
