Infrared Spectrum: Ethylbenzene
Formula: C6 H5 C2 H5
CAS: 100-41-4
State: gas
Melting point: -94.97 C
Boiling point: 136.2 C
Class: IUPAC A
Instrument: IFS66V (Bruker)
Instrument parameters: KBr Beam Splitter; MCT Detector; Multipass cell
Sampling: 1 L/min Flow
Resolution: 0.2410
Temperature: 23 C
Pressure: 101.3 Pa
Origin: NIST, Analytical Chemistry Division, 301-975-3108
cm-1	(micromol/mol)-1m-1 (base 10)
575.05	5.38841e-06
583.608	-2.34911e-07
592.165	-2.41531e-08
600.723	1.13183e-06
609.281	1.74154e-07
617.838	6.32855e-07
626.396	2.34963e-07
634.954	3.75148e-07
643.511	1.84988e-09
652.069	6.502e-07
660.626	8.87303e-07
669.184	6.00132e-06
677.742	3.7917e-05
686.299	0.000122599
694.857	0.000221232
703.415	0.000179101
711.972	0.000115856
720.53	7.54345e-05
729.088	8.99595e-05
737.645	0.00011369
746.203	0.000115451
754.761	9.85889e-05
763.318	6.87932e-05
771.876	6.56886e-05
780.434	3.30103e-05
788.991	1.97926e-05
797.549	1.15232e-05
806.106	6.14448e-06
814.664	3.68739e-06
823.222	1.95619e-06
831.779	8.44822e-07
840.337	5.34655e-07
848.895	8.36553e-08
857.452	-3.22132e-07
866.01	-1.38577e-07
874.568	1.37178e-06
883.125	3.26842e-06
891.683	6.361e-06
900.241	9.09627e-06
908.798	7.61368e-06
917.356	4.0344e-06
925.914	3.70125e-07
934.471	-2.73018e-07
943.029	1.90994e-07
951.586	2.62166e-06
960.144	1.04579e-05
968.702	1.29327e-05
977.259	4.6987e-06
985.817	1.4508e-06
994.375	2.20878e-06
1002.93	3.56487e-06
1011.49	5.40203e-06
1020.05	1.56851e-05
1028.61	2.83212e-05
1037.16	3.14922e-05
1045.72	1.82904e-05
1054.28	1.87874e-05
1062.84	2.51071e-05
1071.39	2.66338e-05
1079.95	1.05914e-05
1088.51	1.00008e-05
1097.07	1.12066e-05
1105.62	8.69764e-06
1114.18	7.04375e-06
1122.74	3.28323e-06
1131.3	1.40559e-06
1139.85	1.03514e-06
1148.41	6.02928e-07
1156.97	6.77517e-08
1165.53	8.70686e-08
1174.09	-1.41765e-07
1182.64	1.99917e-07
1191.2	8.95726e-07
1199.76	1.37608e-06
1208.32	9.66618e-07
1216.87	2.1837e-07
1225.43	1.15131e-07
1233.99	1.87439e-06
1242.55	2.10964e-06
1251.1	1.92844e-06
1259.66	1.57046e-06
1268.22	1.67553e-06
1276.78	1.8471e-06
1285.33	2.99896e-06
1293.89	4.72872e-06
1302.45	5.71074e-06
1311.01	6.61708e-06
1319.57	1.32495e-05
1328.12	2.07019e-05
1336.68	1.75604e-05
1345.24	7.07074e-06
1353.8	3.58711e-06
1362.35	4.096e-06
1370.91	9.58566e-06
1379.47	1.97385e-05
1388.03	1.56791e-05
1396.58	9.53501e-06
1405.14	5.8432e-06
1413.7	5.82015e-06
1422.26	7.42476e-06
1430.81	1.03993e-05
1439.37	2.26217e-05
1447.93	5.66036e-05
1456.49	7.77028e-05
1465.05	8.38269e-05
1473.6	4.65177e-05
1482.16	2.73756e-05
1490.72	6.29614e-05
1499.28	0.000103076
1507.83	6.80245e-05
1516.39	8.10833e-06
1524.95	6.08711e-06
1533.51	5.39076e-06
1542.06	4.05718e-06
1550.62	3.57366e-06
1559.18	3.20641e-06
1567.74	3.10457e-06
1576.29	3.00792e-06
1584.85	7.48853e-06
1593.41	1.65608e-05
1601.97	4.29348e-05
1610.53	5.15897e-05
1619.08	3.03043e-05
1627.64	4.28826e-06
1636.2	2.49399e-06
1644.76	3.00843e-06
1653.31	2.2844e-06
1661.87	3.68087e-06
1670.43	2.83253e-06
1678.99	2.15271e-06
1687.54	1.31768e-06
1696.1	-4.17588e-09
1704.66	7.44188e-07
1713.22	8.36718e-07
1721.77	1.86373e-06
1730.33	4.64998e-06
1738.89	6.00186e-06
1747.45	5.834e-06
1756.01	2.03869e-06
1764.56	5.16237e-07
1773.12	1.22676e-06
1781.68	1.58833e-06
1790.24	8.27499e-06
1798.79	1.48338e-05
1807.35	9.93516e-06
1815.91	3.0282e-06
1824.47	2.12785e-06
1833.02	9.78224e-07
1841.58	9.7388e-07
1850.14	3.38804e-06
1858.7	8.73076e-06
1867.25	9.7815e-06
1875.81	1.17835e-05
1884.37	7.01963e-06
1892.93	1.59905e-06
1901.49	3.60566e-07
1910.04	5.29421e-07
1918.6	1.6886e-06
1927.16	5.19839e-06
1935.72	1.18591e-05
1944.27	1.32746e-05
1952.83	1.21265e-05
1961.39	6.62941e-06
1969.95	1.12585e-06
1978.5	3.16198e-07
1987.06	3.55403e-07
1995.62	2.6534e-07
2004.18	-2.00808e-07
2012.73	-3.77266e-08
2021.29	2.45762e-07
2029.85	5.23209e-07
2038.41	3.65673e-07
2046.97	8.51592e-09
2055.52	-2.07364e-07
2064.08	-4.04246e-07
2072.64	-4.34127e-07
2081.2	-3.46622e-07
2089.75	-2.33695e-07
2098.31	-2.3384e-07
2106.87	-2.49472e-07
2115.43	-3.75388e-08
2123.98	9.08384e-08
2132.54	-3.04521e-08
2141.1	-1.39555e-08
2149.66	-8.2488e-08
2158.21	-1.03911e-07
2166.77	1.19384e-07
2175.33	2.27452e-07
2183.89	4.49561e-08
2192.45	5.85514e-08
2201	1.22675e-08
2209.56	2.34115e-07
2218.12	5.51904e-07
2226.68	4.77209e-07
2235.23	7.34835e-07
2243.79	7.02526e-07
2252.35	4.80775e-07
2260.91	5.98741e-07
2269.46	8.01849e-07
2278.02	1.17853e-06
2286.58	1.0845e-06
2295.14	8.54823e-07
2303.69	7.54186e-07
2312.25	1.40777e-06
2320.81	1.89919e-06
2329.37	1.46481e-06
2337.93	2.04667e-06
2346.48	2.08231e-06
2355.04	1.30456e-06
2363.6	1.29051e-06
2372.16	1.16472e-06
2380.71	7.23425e-07
2389.27	4.75012e-07
2397.83	2.49374e-07
2406.39	5.20634e-07
2414.94	6.25531e-07
2423.5	7.58316e-07
2432.06	1.01848e-06
2440.62	1.37145e-06
2449.17	7.4263e-07
2457.73	1.82735e-07
2466.29	2.54414e-07
2474.85	2.44379e-07
2483.41	2.56063e-07
2491.96	3.45878e-07
2500.52	4.22179e-07
2509.08	4.96335e-07
2517.64	6.9675e-07
2526.19	9.28245e-07
2534.75	1.05416e-06
2543.31	7.04271e-07
2551.87	6.48838e-07
2560.42	7.68191e-07
2568.98	7.47144e-07
2577.54	5.36802e-07
2586.1	9.07839e-07
2594.65	1.17836e-06
2603.21	1.40811e-06
2611.77	1.77161e-06
2620.33	1.74705e-06
2628.89	2.31375e-06
2637.44	3.17561e-06
2646	2.95939e-06
2654.56	1.74555e-06
2663.12	8.09952e-07
2671.67	7.59611e-07
2680.23	7.93618e-07
2688.79	5.59572e-07
2697.35	1.22276e-06
2705.9	1.45791e-06
2714.46	8.56506e-07
2723.02	1.12788e-06
2731.58	2.46687e-06
2740.13	3.49258e-06
2748.69	2.95443e-06
2757.25	2.36118e-06
2765.81	2.92694e-06
2774.37	3.86461e-06
2782.92	5.39112e-06
2791.48	6.29758e-06
2800.04	5.29306e-06
2808.6	4.86835e-06
2817.15	5.9702e-06
2825.71	8.25362e-06
2834.27	1.11113e-05
2842.83	1.53166e-05
2851.38	2.14336e-05
2859.94	3.71626e-05
2868.5	7.25344e-05
2877.06	0.000124422
2885.61	0.000150933
2894.17	0.000111835
2902.73	9.2653e-05
2911.29	8.94528e-05
2919.85	7.91213e-05
2928.4	0.000104741
2936.96	0.000174618
2945.52	0.000199006
2954.08	0.000160318
2962.63	0.000165032
2971.19	0.000414726
2979.75	0.000428846
2988.31	0.000132352
2996.86	5.23894e-05
3005.42	4.4886e-05
3013.98	4.97618e-05
3022.54	8.76301e-05
3031.09	0.000208426
3039.65	0.000235227
3048.21	0.00014377
3056.77	6.62987e-05
3065.33	0.000106007
3073.88	0.000155726
3082.44	0.000144769
3091	8.89175e-05
3099.56	7.09194e-05
3108.11	4.48872e-05
3116.67	3.01894e-05
3125.23	1.78872e-05
3133.79	5.59664e-06
3142.34	3.40589e-06
3150.9	3.21863e-06
3159.46	3.54956e-06
3168.02	4.2371e-06
3176.57	5.77746e-06
3185.13	6.17493e-06
3193.69	4.65784e-06
3202.25	1.65275e-06
3210.81	7.76107e-07
3219.36	5.18939e-07
3227.92	4.72179e-07
3236.48	3.54331e-07
3245.04	4.49653e-07
3253.59	6.35e-07
3262.15	8.54117e-07
3270.71	7.11031e-07
3279.27	6.81378e-07
3287.82	4.18355e-07
3296.38	4.99386e-07
3304.94	5.5161e-07
3313.5	-6.81378e-08
3322.05	1.13007e-07
3330.61	1.63119e-07
3339.17	8.64038e-08
3347.73	-2.49896e-07
3356.29	8.03648e-08
3364.84	8.89767e-08
3373.4	-5.43892e-08
3381.96	-6.39769e-08
3390.52	1.8161e-07
3399.07	-3.73069e-08
3407.63	8.02052e-08
3416.19	-1.82959e-07
3424.75	-2.86594e-07
3433.3	-2.61888e-07
3441.86	-3.55839e-08
3450.42	-7.91875e-08
3458.98	-7.04688e-08
3467.53	-7.69211e-08
3476.09	5.7455e-08
3484.65	-1.80962e-07
3493.21	-8.53874e-08
3501.77	-1.47993e-07
3510.32	-9.35355e-09
3518.88	4.53278e-07
3527.44	4.62828e-07
3536	4.24086e-07
3544.55	-3.12798e-07
3553.11	-2.16468e-07
3561.67	-5.90639e-08
3570.23	-1.40386e-07
3578.78	2.5761e-09
3587.34	-1.36916e-07
3595.9	8.40596e-08
3604.46	-4.75613e-09
3613.01	2.45392e-07
3621.57	4.41976e-07
3630.13	2.45497e-07
3638.69	5.69898e-07
3647.25	7.84163e-07
3655.8	1.04032e-06
3664.36	1.18738e-06
3672.92	5.2399e-07
3681.48	5.98895e-07
3690.03	6.42353e-07
3698.59	7.20173e-07
3707.15	5.33303e-07
3715.71	5.18858e-07
3724.26	8.39133e-07
3732.82	4.47722e-07
3741.38	1.08048e-07
3749.94	3.51203e-07
3758.49	3.66711e-07
3767.05	4.34382e-07
3775.61	1.36038e-07
3784.17	3.95044e-07
3792.73	3.61562e-07
3801.28	-2.84233e-07
3809.84	4.53002e-07
3818.4	4.21907e-07
3826.96	3.9574e-07
3835.51	6.1783e-07
3844.07	6.56457e-07
3852.63	4.70298e-07
3861.19	3.57659e-07
3869.74	1.31364e-07
3878.3	1.79258e-07
3886.86	-2.56367e-07
3895.42	-7.9615e-08
3903.97	-1.07211e-07
3912.53	4.97967e-07
3921.09	6.25992e-07
3929.65	1.21805e-06
3938.21	1.44479e-06
3946.76	1.70735e-06
3955.32	8.90853e-07
3963.88	8.05143e-07
3972.44	9.49689e-07
