Infrared Spectrum: Ethylbenzene
Formula: C6 H5 C2 H5
CAS: 100-41-4
State: gas
Melting point: -94.97 C
Boiling point: 136.2 C
Class: IUPAC A
Instrument: IFS66V (Bruker)
Instrument parameters: KBr Beam Splitter; MCT Detector; Multipass cell
Sampling: 1 L/min Flow
Resolution: 0.9640
Temperature: 23 C
Pressure: 101.3 Pa
Origin: NIST, Analytical Chemistry Division, 301-975-3108
cm-1	(micromol/mol)-1m-1 (base 10)
575.17	4.44935e-06
583.848	1.15501e-06
592.526	-4.62043e-08
601.205	1.96133e-07
609.883	2.16e-07
618.561	-1.58571e-07
627.239	8.03521e-07
635.917	4.38334e-07
644.595	6.17205e-08
653.274	2.00495e-08
661.952	8.74784e-07
670.63	8.20692e-06
679.308	4.98364e-05
687.986	0.000146545
696.665	0.000318196
705.343	0.000170651
714.021	9.87366e-05
722.699	7.76282e-05
731.377	9.49664e-05
740.055	0.000118612
748.734	0.000115043
757.412	8.83236e-05
766.09	6.09606e-05
774.768	4.09262e-05
783.446	2.87983e-05
792.125	1.55746e-05
800.803	9.29691e-06
809.481	5.14785e-06
818.159	2.59528e-06
826.837	1.17347e-06
835.515	5.65407e-07
844.194	2.6639e-07
852.872	-1.25338e-07
861.55	-1.99574e-07
870.228	5.77764e-07
878.906	2.11776e-06
887.584	5.1397e-06
896.263	7.33976e-06
904.941	9.33688e-06
913.619	6.15943e-06
922.297	1.41115e-06
930.975	1.02659e-07
939.654	3.21201e-08
948.332	1.02731e-06
957.01	9.19593e-06
965.688	1.1289e-05
974.366	7.26331e-06
983.044	2.04152e-06
991.723	1.98262e-06
1000.4	3.65215e-06
1009.08	4.48071e-06
1017.76	1.08639e-05
1026.44	3.0782e-05
1035.11	3.28577e-05
1043.79	2.07483e-05
1052.47	1.66967e-05
1061.15	2.83136e-05
1069.83	2.86035e-05
1078.5	1.0263e-05
1087.18	1.06142e-05
1095.86	1.17262e-05
1104.54	9.42873e-06
1113.22	7.0509e-06
1121.9	3.76668e-06
1130.57	1.56021e-06
1139.25	9.3458e-07
1147.93	6.40511e-07
1156.61	7.22809e-08
1165.29	2.87036e-08
1173.96	-1.1763e-07
1182.64	3.27368e-07
1191.32	8.5094e-07
1200	1.29882e-06
1208.68	9.67771e-07
1217.36	1.34255e-07
1226.03	1.07729e-07
1234.71	1.88356e-06
1243.39	2.31943e-06
1252.07	1.8363e-06
1260.75	1.63887e-06
1269.42	1.66745e-06
1278.1	2.05114e-06
1286.78	3.18228e-06
1295.46	4.74695e-06
1304.14	5.74074e-06
1312.82	7.4038e-06
1321.49	1.59114e-05
1330.17	2.16467e-05
1338.85	1.48937e-05
1347.53	5.86063e-06
1356.21	3.55333e-06
1364.88	5.47501e-06
1373.56	1.17033e-05
1382.24	1.79916e-05
1390.92	1.41584e-05
1399.6	7.56864e-06
1408.28	5.44952e-06
1416.95	6.1008e-06
1425.63	8.1392e-06
1434.31	1.34226e-05
1442.99	3.39185e-05
1451.67	7.39339e-05
1460.34	8.45505e-05
1469.02	6.90739e-05
1477.7	3.6755e-05
1486.38	3.27448e-05
1495.06	9.69336e-05
1503.74	8.54758e-05
1512.41	1.95297e-05
1521.09	5.48432e-06
1529.77	6.25613e-06
1538.45	4.87595e-06
1547.13	3.76522e-06
1555.8	3.37597e-06
1564.48	3.19888e-06
1573.16	3.58968e-06
1581.84	5.98905e-06
1590.52	1.3737e-05
1599.2	3.13743e-05
1607.87	5.15046e-05
1616.55	4.1774e-05
1625.23	6.91139e-06
1633.91	2.7701e-06
1642.59	2.70804e-06
1651.26	3.79482e-06
1659.94	3.55982e-06
1668.62	2.92155e-06
1677.3	2.37811e-06
1685.98	1.34989e-06
1694.66	8.38528e-07
1703.33	7.37623e-07
1712.01	9.08571e-07
1720.69	1.63054e-06
1729.37	4.06411e-06
1738.05	6.34878e-06
1746.72	6.21455e-06
1755.4	2.234e-06
1764.08	5.51992e-07
1772.76	8.35494e-07
1781.44	1.51392e-06
1790.12	8.11014e-06
1798.79	1.48408e-05
1807.47	9.746e-06
1816.15	2.99108e-06
1824.83	2.07898e-06
1833.51	7.84126e-07
1842.18	1.11918e-06
1850.86	3.55874e-06
1859.54	9.00157e-06
1868.22	1.08341e-05
1876.9	1.09539e-05
1885.58	7.90622e-06
1894.25	1.12465e-06
1902.93	3.81571e-07
1911.61	6.38768e-07
1920.29	2.17696e-06
1928.97	6.52182e-06
1937.64	1.14956e-05
1946.32	1.39931e-05
1955	1.05282e-05
1963.68	7.49706e-06
1972.36	3.87003e-07
1981.04	4.1434e-07
1989.71	4.224e-07
1998.39	1.36177e-07
2007.07	-3.60927e-09
2015.75	1.5939e-07
2024.43	5.16075e-07
2033.1	5.77148e-07
2041.78	2.32663e-07
2050.46	-1.43931e-07
2059.14	-3.72932e-07
2067.82	-4.32555e-07
2076.5	-3.7605e-07
2085.17	-3.25615e-07
2093.85	-2.49242e-07
2102.53	-1.69289e-07
2111.21	-1.54945e-07
2119.89	3.9044e-09
2128.56	9.52589e-08
2137.24	-5.00005e-08
2145.92	-3.68271e-08
2154.6	-1.48655e-08
2163.28	1.06545e-07
2171.96	5.90907e-08
2180.63	6.53461e-08
2189.31	1.16668e-07
2197.99	6.26754e-08
2206.67	1.96656e-07
2215.35	4.75052e-07
2224.02	5.90086e-07
2232.7	6.45701e-07
2241.38	6.49889e-07
2250.06	5.24244e-07
2258.74	6.11223e-07
2267.42	7.9613e-07
2276.09	1.03533e-06
2284.77	1.10809e-06
2293.45	8.80954e-07
2302.13	6.71523e-07
2310.81	1.61497e-06
2319.48	1.64491e-06
2328.16	1.19821e-06
2336.84	2.11337e-06
2345.52	2.12368e-06
2354.2	1.13538e-06
2362.88	5.20075e-07
2371.55	8.49772e-07
2380.23	7.18911e-07
2388.91	4.45269e-07
2397.59	2.46227e-07
2406.27	4.67965e-07
2414.94	6.90731e-07
2423.62	7.43413e-07
2432.3	1.04968e-06
2440.98	1.27994e-06
2449.66	7.18672e-07
2458.34	1.64863e-07
2467.01	1.43607e-07
2475.69	1.64749e-07
2484.37	2.09694e-07
2493.05	3.6553e-07
2501.73	3.80643e-07
2510.4	5.45557e-07
2519.08	6.41046e-07
2527.76	8.96815e-07
2536.44	8.71708e-07
2545.12	6.60997e-07
2553.8	6.87954e-07
2562.47	6.42179e-07
2571.15	5.98227e-07
2579.83	7.22755e-07
2588.51	8.77643e-07
2597.19	1.21366e-06
2605.86	1.81004e-06
2614.54	1.8673e-06
2623.22	1.8165e-06
2631.9	2.60737e-06
2640.58	3.2511e-06
2649.26	2.57667e-06
2657.93	1.25407e-06
2666.61	7.11605e-07
2675.29	6.51254e-07
2683.97	6.77699e-07
2692.65	9.4586e-07
2701.32	1.44179e-06
2710	1.42819e-06
2718.68	1.04778e-06
2727.36	1.67418e-06
2736.04	3.54154e-06
2744.72	3.32999e-06
2753.39	2.34744e-06
2762.07	2.65758e-06
2770.75	3.46374e-06
2779.43	5.01689e-06
2788.11	6.04118e-06
2796.78	5.64016e-06
2805.46	4.92689e-06
2814.14	5.3481e-06
2822.82	7.22765e-06
2831.5	1.05259e-05
2840.18	1.42123e-05
2848.85	1.85387e-05
2857.53	3.10213e-05
2866.21	6.2036e-05
2874.89	0.000105104
2883.57	0.000132825
2892.24	0.000117785
2900.92	9.32781e-05
2909.6	8.78959e-05
2918.28	8.03871e-05
2926.96	9.69088e-05
2935.63	0.000162769
2944.31	0.000206103
2952.99	0.000166399
2961.67	0.000146968
2970.35	0.000419145
2979.03	0.000428904
2987.7	0.000145165
2996.38	5.37921e-05
3005.06	4.45155e-05
3013.74	4.91116e-05
3022.42	8.65471e-05
3031.09	0.000208883
3039.77	0.000235624
3048.45	0.000140035
3057.13	6.60064e-05
3065.81	0.000111153
3074.49	0.000167613
3083.16	0.000137569
3091.84	8.52564e-05
3100.52	6.87492e-05
3109.2	4.25763e-05
3117.88	2.83956e-05
3126.55	1.46898e-05
3135.23	4.89499e-06
3143.91	3.22217e-06
3152.59	3.25342e-06
3161.27	3.5642e-06
3169.95	4.56963e-06
3178.62	5.93288e-06
3187.3	5.92642e-06
3195.98	3.80499e-06
3204.66	1.6613e-06
3213.34	6.84376e-07
3222.01	5.43521e-07
3230.69	3.62056e-07
3239.37	4.58404e-07
3248.05	5.99664e-07
3256.73	4.6412e-07
3265.41	6.01637e-07
3274.08	5.66644e-07
3282.76	4.99171e-07
3291.44	4.91411e-07
3300.12	3.31018e-07
3308.8	3.27152e-07
3317.47	1.42305e-07
3326.15	-1.31701e-07
3334.83	8.43602e-08
3343.51	9.42644e-08
3352.19	1.35463e-07
3360.87	-1.69555e-07
3369.54	-6.30201e-08
3378.22	1.55754e-07
3386.9	1.29051e-07
3395.58	2.32351e-07
3404.26	6.68795e-08
3412.93	-2.12125e-07
3421.61	-9.30498e-08
3430.29	6.91037e-08
3438.97	1.40487e-07
3447.65	-9.91788e-10
3456.33	-7.65059e-08
3465	-2.44039e-07
3473.68	-1.35089e-07
3482.36	-3.28823e-07
3491.04	-4.31857e-07
3499.72	-1.8235e-07
3508.39	-2.09466e-07
3517.07	2.19466e-07
3525.75	3.37474e-07
3534.43	4.93588e-07
3543.11	-1.49989e-07
3551.79	-4.23959e-08
3560.46	-6.35181e-08
3569.14	-1.35693e-07
3577.82	-2.87023e-08
3586.5	-1.28955e-08
3595.18	-1.37968e-08
3603.85	-1.18678e-07
3612.53	-1.27918e-08
3621.21	4.37452e-07
3629.89	1.50045e-07
3638.57	5.87288e-07
3647.25	5.99488e-07
3655.92	9.9546e-07
3664.6	1.14232e-06
3673.28	4.43791e-07
3681.96	5.07219e-07
3690.64	4.70305e-07
3699.31	6.66548e-07
3707.99	5.87114e-07
3716.67	6.3411e-07
3725.35	6.61578e-07
3734.03	3.10782e-07
3742.71	3.35274e-07
3751.38	5.0563e-08
3760.06	2.44803e-07
3768.74	3.67942e-07
3777.42	4.27334e-07
3786.1	3.41501e-07
3794.77	4.59824e-07
3803.45	3.02996e-07
3812.13	3.82746e-07
3820.81	2.8239e-07
3829.49	6.12122e-07
3838.17	2.05444e-07
3846.84	7.92056e-07
3855.52	4.07466e-07
3864.2	1.38539e-07
3872.88	2.40424e-07
3881.56	-1.14253e-08
3890.23	-7.7439e-08
3898.91	-6.90377e-08
3907.59	3.00112e-07
3916.27	5.46043e-07
3924.95	7.90707e-07
3933.63	1.412e-06
3942.3	1.51724e-06
3950.98	1.2038e-06
3959.66	8.02652e-07
3968.34	1.00917e-06
