Infrared Spectrum: Ethylbenzene
Formula: C6 H5 C2 H5
CAS: 100-41-4
State: gas
Melting point: -94.97 C
Boiling point: 136.2 C
Class: IUPAC A
Instrument: IFS66V (Bruker)
Instrument parameters: KBr Beam Splitter; MCT Detector; Multipass cell
Sampling: 1 L/min Flow
Resolution: 0.4820
Temperature: 23 C
Pressure: 101.3 Pa
Origin: NIST, Analytical Chemistry Division, 301-975-3108
cm-1	(micromol/mol)-1m-1 (base 10)
575.17	4.33697e-06
583.848	5.07212e-07
592.526	-3.97681e-07
601.205	1.07976e-07
609.883	3.42597e-07
618.561	-3.0344e-07
627.239	5.89345e-07
635.917	2.21757e-07
644.595	4.95589e-08
653.274	1.78061e-07
661.952	8.54718e-07
670.63	8.36899e-06
679.308	4.97675e-05
687.986	0.000146169
696.665	0.000316471
705.343	0.000170682
714.021	9.88407e-05
722.699	7.76225e-05
731.377	9.48707e-05
740.055	0.000117885
748.734	0.00011408
757.412	8.83135e-05
766.09	6.08578e-05
774.768	4.07796e-05
783.446	2.87836e-05
792.124	1.54755e-05
800.803	9.43956e-06
809.481	5.21275e-06
818.159	2.60277e-06
826.837	1.14803e-06
835.515	6.30678e-07
844.194	2.01085e-07
852.872	-1.86422e-07
861.55	-1.41758e-07
870.228	6.68872e-07
878.906	2.2121e-06
887.584	5.27873e-06
896.263	7.31525e-06
904.941	9.20033e-06
913.619	6.20016e-06
922.297	1.38197e-06
930.975	1.795e-07
939.654	1.15345e-07
948.332	1.12281e-06
957.01	9.28029e-06
965.688	1.12591e-05
974.366	7.35369e-06
983.044	2.10131e-06
991.723	1.98745e-06
1000.4	3.73759e-06
1009.08	4.49616e-06
1017.76	1.08647e-05
1026.44	3.08503e-05
1035.11	3.28976e-05
1043.79	2.08356e-05
1052.47	1.67407e-05
1061.15	2.83863e-05
1069.83	2.86637e-05
1078.5	1.02243e-05
1087.18	1.05734e-05
1095.86	1.16835e-05
1104.54	9.46803e-06
1113.22	7.03271e-06
1121.9	3.82369e-06
1130.57	1.57365e-06
1139.25	9.25734e-07
1147.93	6.96594e-07
1156.61	4.23149e-08
1165.29	6.54262e-08
1173.96	-1.60343e-07
1182.64	2.77611e-07
1191.32	8.85299e-07
1200	1.29527e-06
1208.68	9.77894e-07
1217.36	1.51337e-07
1226.03	1.12457e-07
1234.71	1.89364e-06
1243.39	2.31897e-06
1252.07	1.80213e-06
1260.75	1.59743e-06
1269.42	1.67068e-06
1278.1	2.09278e-06
1286.78	3.1953e-06
1295.46	4.72015e-06
1304.14	5.72204e-06
1312.82	7.34203e-06
1321.49	1.57952e-05
1330.17	2.16809e-05
1338.85	1.48846e-05
1347.53	5.92597e-06
1356.21	3.54505e-06
1364.88	5.37593e-06
1373.56	1.17944e-05
1382.24	1.80317e-05
1390.92	1.42253e-05
1399.6	7.62522e-06
1408.28	5.47971e-06
1416.95	6.10633e-06
1425.63	8.14029e-06
1434.31	1.34317e-05
1442.99	3.37988e-05
1451.67	7.39695e-05
1460.34	8.45031e-05
1469.02	6.91292e-05
1477.7	3.67404e-05
1486.38	3.27131e-05
1495.06	9.74324e-05
1503.74	8.5372e-05
1512.41	1.93858e-05
1521.09	5.30011e-06
1529.77	6.26433e-06
1538.45	4.99553e-06
1547.13	3.7896e-06
1555.8	3.32773e-06
1564.48	3.22073e-06
1573.16	3.58336e-06
1581.84	5.97321e-06
1590.52	1.3747e-05
1599.2	3.14175e-05
1607.87	5.14675e-05
1616.55	4.16635e-05
1625.23	6.82934e-06
1633.91	2.80199e-06
1642.59	2.75288e-06
1651.26	3.84962e-06
1659.94	3.56196e-06
1668.62	3.00028e-06
1677.3	2.42822e-06
1685.98	1.32144e-06
1694.66	8.90915e-07
1703.33	7.37109e-07
1712.01	9.44956e-07
1720.69	1.65207e-06
1729.37	4.09649e-06
1738.05	6.37728e-06
1746.72	6.21666e-06
1755.4	2.23939e-06
1764.08	5.76967e-07
1772.76	5.3799e-07
1781.44	1.50849e-06
1790.12	8.14009e-06
1798.79	1.49151e-05
1807.47	9.7218e-06
1816.15	2.95956e-06
1824.83	2.11102e-06
1833.51	7.49488e-07
1842.18	1.09613e-06
1850.86	3.55823e-06
1859.54	9.02061e-06
1868.22	1.08736e-05
1876.9	1.09622e-05
1885.58	7.92146e-06
1894.25	1.08437e-06
1902.93	3.42902e-07
1911.61	6.33177e-07
1920.29	2.17327e-06
1928.97	6.47519e-06
1937.64	1.1517e-05
1946.32	1.3981e-05
1955	1.05321e-05
1963.68	7.54302e-06
1972.36	3.45273e-07
1981.04	4.23798e-07
1989.71	4.13457e-07
1998.39	1.38542e-07
2007.07	1.74461e-08
2015.75	1.79351e-07
2024.43	5.48123e-07
2033.1	5.97981e-07
2041.78	2.48311e-07
2050.46	-1.27305e-07
2059.14	-3.70288e-07
2067.82	-4.40156e-07
2076.5	-3.84659e-07
2085.17	-3.54442e-07
2093.85	-3.00485e-07
2102.53	-1.76627e-07
2111.21	-1.77933e-07
2119.89	7.27998e-08
2128.56	1.30351e-07
2137.24	-5.91107e-08
2145.92	-5.55083e-08
2154.6	-2.81998e-08
2163.28	8.86416e-08
2171.96	7.07303e-08
2180.63	2.05638e-08
2189.31	9.98518e-08
2197.99	7.48907e-08
2206.67	2.10276e-07
2215.35	4.60039e-07
2224.02	5.7288e-07
2232.7	6.29362e-07
2241.38	6.67075e-07
2250.06	5.25172e-07
2258.74	5.97969e-07
2267.42	8.18845e-07
2276.09	1.02295e-06
2284.77	1.11976e-06
2293.45	8.57484e-07
2302.13	6.68856e-07
2310.81	1.65843e-06
2319.48	1.68754e-06
2328.16	1.33528e-06
2336.84	2.18257e-06
2345.52	2.18305e-06
2354.2	1.03186e-06
2362.88	1.1614e-07
2371.55	6.9692e-07
2380.23	7.30872e-07
2388.91	4.11416e-07
2397.59	1.85895e-07
2406.27	4.78132e-07
2414.94	6.44984e-07
2423.62	7.9155e-07
2432.3	1.05068e-06
2440.98	1.27626e-06
2449.66	6.78151e-07
2458.34	1.60842e-07
2467.01	1.53411e-07
2475.69	1.29409e-07
2484.37	2.08644e-07
2493.05	4.13506e-07
2501.73	3.92376e-07
2510.4	5.45624e-07
2519.08	6.59081e-07
2527.76	9.3918e-07
2536.44	8.93146e-07
2545.12	5.9159e-07
2553.8	6.88944e-07
2562.47	6.51666e-07
2571.15	5.47486e-07
2579.83	7.3632e-07
2588.51	9.12751e-07
2597.19	1.24357e-06
2605.86	1.81794e-06
2614.54	1.96279e-06
2623.22	1.84021e-06
2631.9	2.55066e-06
2640.58	3.25383e-06
2649.26	2.56951e-06
2657.93	1.24594e-06
2666.61	6.67715e-07
2675.29	6.48323e-07
2683.97	7.38309e-07
2692.65	9.69473e-07
2701.32	1.4265e-06
2710	1.49415e-06
2718.68	9.85345e-07
2727.36	1.60388e-06
2736.04	3.54568e-06
2744.71	3.33805e-06
2753.39	2.31221e-06
2762.07	2.68747e-06
2770.75	3.45139e-06
2779.43	5.02784e-06
2788.11	5.99933e-06
2796.78	5.67357e-06
2805.46	4.93918e-06
2814.14	5.39962e-06
2822.82	7.20453e-06
2831.5	1.0481e-05
2840.17	1.41809e-05
2848.85	1.85714e-05
2857.53	3.09808e-05
2866.21	6.20925e-05
2874.89	0.000105075
2883.57	0.000132729
2892.24	0.000117874
2900.92	9.33444e-05
2909.6	8.78081e-05
2918.28	8.02903e-05
2926.96	9.6869e-05
2935.63	0.000162887
2944.31	0.000206095
2952.99	0.000166485
2961.67	0.000146479
2970.35	0.000419869
2979.03	0.000429477
2987.7	0.000144853
2996.38	5.37003e-05
3005.06	4.45274e-05
3013.74	4.90846e-05
3022.42	8.64392e-05
3031.09	0.000209052
3039.77	0.000235549
3048.45	0.000140061
3057.13	6.60105e-05
3065.81	0.000111104
3074.49	0.000167784
3083.16	0.000137797
3091.84	8.52295e-05
3100.52	6.8863e-05
3109.2	4.24865e-05
3117.88	2.84302e-05
3126.55	1.46966e-05
3135.23	4.89408e-06
3143.91	3.22435e-06
3152.59	3.30648e-06
3161.27	3.58265e-06
3169.95	4.60964e-06
3178.62	5.9072e-06
3187.3	5.97461e-06
3195.98	3.72427e-06
3204.66	1.75823e-06
3213.34	6.73771e-07
3222.01	6.96483e-07
3230.69	4.07182e-07
3239.37	4.65793e-07
3248.05	5.48057e-07
3256.73	3.87973e-07
3265.41	5.40679e-07
3274.08	5.48466e-07
3282.76	4.59579e-07
3291.44	4.86211e-07
3300.12	2.61375e-07
3308.8	3.14244e-07
3317.47	1.93978e-07
3326.15	-2.11352e-07
3334.83	1.87668e-07
3343.51	1.10766e-07
3352.19	2.70371e-07
3360.87	-1.36125e-07
3369.54	-5.90507e-08
3378.22	1.42114e-07
3386.9	2.2254e-07
3395.58	2.63942e-07
3404.26	7.13032e-08
3412.93	-2.54135e-07
3421.61	-4.78523e-08
3430.29	1.01937e-07
3438.97	1.43248e-07
3447.65	-6.86648e-08
3456.33	-7.13905e-08
3465	-2.93768e-07
3473.68	-1.37422e-09
3482.36	-3.4515e-07
3491.04	-5.08249e-07
3499.72	-1.19405e-07
3508.39	-3.04999e-07
3517.07	2.92625e-07
3525.75	3.46508e-07
3534.43	5.17125e-07
3543.11	-1.77703e-07
3551.79	-4.86485e-08
3560.46	-3.61368e-08
3569.14	-1.51944e-07
3577.82	4.25819e-09
3586.5	-6.06578e-09
3595.18	-1.43336e-07
3603.85	-1.64781e-07
3612.53	-1.44327e-07
3621.21	4.65758e-07
3629.89	2.83517e-08
3638.57	5.29947e-07
3647.25	6.60035e-07
3655.92	1.09385e-06
3664.6	1.13764e-06
3673.28	4.30424e-07
3681.96	5.1373e-07
3690.64	4.74735e-07
3699.31	6.94417e-07
3707.99	6.0668e-07
3716.67	5.75161e-07
3725.35	6.71696e-07
3734.03	3.98176e-07
3742.71	4.01646e-07
3751.38	1.18781e-07
3760.06	1.25537e-07
3768.74	3.80404e-07
3777.42	3.49124e-07
3786.1	3.14051e-07
3794.77	4.38462e-07
3803.45	2.66778e-07
3812.13	3.60261e-07
3820.81	1.51057e-07
3829.49	6.0746e-07
3838.17	3.02622e-07
3846.84	8.17838e-07
3855.52	4.00012e-07
3864.2	1.3814e-07
3872.88	2.87712e-07
3881.56	8.56003e-09
3890.23	-2.18994e-08
3898.91	-1.50519e-09
3907.59	2.70156e-07
3916.27	4.69963e-07
3924.95	7.62203e-07
3933.63	1.39915e-06
3942.3	1.49225e-06
3950.98	1.20159e-06
3959.66	7.70621e-07
3968.34	1.00608e-06
