Infrared Spectrum: BENZONITRILE
Formula: C7 H5 N
CAS: 100-47-0
State: SOLUTION (10% IN CCl4 FOR 3800-1300, 10% IN CS2 FOR 1300-650, 10% IN CCl4 FOR 650-240 CM^-^1) VERSUS SOLVENT
Class: COBLENTZ III
Instrument: DOW KBr FOREPRISM-GRATING
Instrument parameters: BLAZED AT 3.5, 12.0, 20.0 MICRON; GRATING CHANGES AT 5.0, 7.5, 14.9 MICRON
Sampling: TRANSMISSION
Path length: 0.011, 0.011, AND 0.010 CM (CsBr CELL)
Resolution: 4
Origin: DOW CORNING CORP.
1/CM	TRANSMITTANCE
234.445	0.878
244.286	0.876
254.128	0.873
263.969	0.872
273.811	0.872
283.652	0.872
293.494	0.874
303.335	0.878
313.177	0.885
323.018	0.889
332.86	0.894
342.701	0.896
352.542	0.898
362.384	0.893
372.225	0.877
382.067	0.853
391.908	0.9
401.75	0.912
411.591	0.914
421.433	0.92
431.274	0.917
441.116	0.917
450.957	0.916
460.799	0.914
470.64	0.938
480.481	0.945
490.323	0.948
500.164	0.948
510.006	0.944
519.847	0.938
529.689	0.922
539.53	0.837
549.372	0.1601
559.213	0.864
569.055	0.913
578.896	0.937
588.737	0.944
598.579	0.949
608.42	0.944
618.262	0.936
628.103	0.929
637.945	0.921
647.786	0.913
657.628	0.906
667.469	0.89
677.311	0.714
687.152	0.4179
696.993	0.27
706.835	0.737
716.676	0.906
726.518	0.944
736.359	0.934
746.201	0.85
756.042	0.261
765.884	0.1731
775.725	0.818
785.567	0.954
795.408	0.966
805.25	0.973
815.091	0.973
824.932	0.968
834.774	0.952
844.615	0.928
854.457	0.976
864.298	0.985
874.14	0.982
883.981	0.977
893.823	0.972
903.664	0.956
913.506	0.892
923.347	0.6559
933.188	0.885
943.03	0.961
952.871	0.969
962.713	0.964
972.554	0.953
982.396	0.958
992.237	0.942
1002.08	0.925
1011.92	0.965
1021.76	0.93
1031.6	0.5451
1041.44	0.974
1051.29	0.976
1061.13	0.949
1070.97	0.788
1080.81	0.949
1090.65	0.94
1100.49	0.924
1110.33	1.02
1120.18	1.012
1130.02	0.996
1139.86	0.977
1149.7	0.956
1159.54	0.898
1169.38	0.896
1179.22	0.766
1189.07	0.893
1198.91	0.928
1208.75	0.958
1218.59	0.964
1228.43	0.985
1238.27	0.988
1248.12	0.982
1257.96	0.977
1267.8	0.966
1277.64	0.934
1287.48	0.774
1297.32	0.878
1307.16	0.886
1317.01	0.888
1326.85	0.88
1336.69	0.824
1346.53	0.888
1356.37	0.89
1366.21	0.882
1376.05	0.877
1385.9	0.85
1395.74	0.87
1405.58	0.893
1415.42	0.893
1425.26	0.889
1435.1	0.868
1444.94	0.745
1454.79	0.3733
1464.63	0.868
1474.47	0.86
1484.31	0.806
1494.15	0.269
1503.99	0.852
1513.83	0.876
1523.68	0.881
1533.52	0.872
1543.36	0.893
1553.2	0.889
1563.04	0.881
1572.88	0.838
1582.72	0.8
1592.57	0.818
1602.41	0.684
1612.25	0.816
1622.09	0.866
1631.93	0.876
1641.77	0.878
1651.61	0.88
1661.46	0.878
1671.3	0.874
1681.14	0.822
1690.98	0.838
1700.82	0.877
1710.66	0.877
1720.51	0.87
1730.35	0.874
1740.19	0.876
1750.03	0.87
1759.87	0.85
1769.71	0.83
1779.55	0.877
1789.4	0.882
1799.24	0.878
1809.08	0.84
1818.92	0.832
1828.76	0.872
1838.6	0.872
1848.44	0.882
1858.29	0.886
1868.13	0.884
1877.97	0.881
1887.81	0.848
1897.65	0.778
1907.49	0.841
1917.33	0.833
1927.18	0.872
1937.02	0.876
1946.86	0.876
1956.7	0.853
1966.54	0.796
1976.38	0.844
1986.22	0.83
1996.07	0.872
2005.91	0.893
2015.75	0.896
2025.59	0.894
2035.43	0.894
2045.27	0.894
2055.11	0.894
2064.96	0.894
2074.8	0.894
2084.64	0.894
2094.48	0.894
2104.32	0.894
2114.16	0.893
2124	0.893
2133.85	0.892
2143.69	0.89
2153.53	0.888
2163.37	0.8879
2173.21	0.881
2183.05	0.874
2192.89	0.876
2202.74	0.8768
2212.58	0.8488
2222.42	0.8187
2232.26	0.5003
2242.1	0.1966
2251.94	0.7112
2261.79	0.8371
2271.63	0.8701
2281.47	0.8732
2291.31	0.882
2301.15	0.882
2310.99	0.8809
2320.83	0.877
2330.68	0.874
2340.52	0.8731
2350.36	0.873
2360.2	0.876
2370.04	0.874
2379.88	0.878
2389.72	0.877
2399.57	0.8782
2409.41	0.8851
2419.25	0.8902
2429.09	0.89
2438.93	0.889
2448.77	0.89
2458.61	0.89
2468.46	0.89
2478.3	0.8877
2488.14	0.885
2497.98	0.882
2507.82	0.8841
2517.66	0.886
2527.5	0.8881
2537.35	0.888
2547.19	0.8859
2557.03	0.8848
2566.87	0.881
2576.71	0.8778
2586.55	0.8812
2596.39	0.882
2606.24	0.881
2616.08	0.8823
2625.92	0.8837
2635.76	0.884
2645.6	0.886
2655.44	0.886
2665.28	0.885
2675.13	0.878
2684.97	0.8756
2694.81	0.876
2704.65	0.8866
2714.49	0.8904
2724.33	0.892
2734.18	0.889
2744.02	0.885
2753.86	0.884
2763.7	0.8796
2773.54	0.874
2783.38	0.8784
2793.22	0.882
2803.07	0.89
2812.91	0.893
2822.75	0.8928
2832.59	0.8915
2842.43	0.8898
2852.27	0.885
2862.11	0.8808
2871.96	0.878
2881.8	0.877
2891.64	0.876
2901.48	0.876
2911.32	0.874
2921.16	0.872
2931	0.87
2940.85	0.8723
2950.69	0.87
2960.53	0.868
2970.37	0.865
2980.21	0.868
2990.05	0.8655
2999.89	0.853
3009.74	0.852
3019.58	0.8476
3029.42	0.8066
3039.26	0.796
3049.1	0.7872
3058.94	0.7567
3068.78	0.6656
3078.63	0.7144
3088.47	0.7509
3098.31	0.7872
3108.15	0.8262
3117.99	0.8739
3127.83	0.881
3137.67	0.882
3147.52	0.882
3157.36	0.882
3167.2	0.89
3177.04	0.893
3186.88	0.893
3196.72	0.8933
3206.57	0.9013
3216.41	0.904
3226.25	0.905
3236.09	0.906
3245.93	0.906
3255.77	0.905
3265.61	0.904
3275.46	0.902
3285.3	0.902
3295.14	0.8993
3304.98	0.897
3314.82	0.894
3324.66	0.8926
3334.5	0.89
3344.35	0.889
3354.19	0.888
3364.03	0.885
3373.87	0.882
3383.71	0.88
3393.55	0.8766
3403.39	0.8632
3413.24	0.864
3423.08	0.8672
3432.92	0.8788
3442.76	0.882
3452.6	0.884
3462.44	0.888
3472.28	0.889
3482.13	0.889
3491.97	0.888
3501.81	0.888
3511.65	0.885
3521.49	0.885
3531.33	0.884
3541.17	0.884
3551.02	0.886
3560.86	0.892
3570.7	0.8949
3580.54	0.9
3590.38	0.9029
3600.22	0.908
3610.06	0.909
3619.91	0.909
3629.75	0.908
3639.59	0.9085
3649.43	0.906
3659.27	0.904
3669.11	0.9095
3678.95	0.904
3688.8	0.908
3698.64	0.9109
3708.48	0.9111
3718.32	0.9095
3728.16	0.9169
3738	0.9304
3747.85	0.925
3757.69	0.92
3767.53	0.92
3777.37	0.918
3787.21	0.919
