Infrared Spectrum: Ethylbenzene
Formula: C6 H5 C2 H5
CAS: 100-41-4
State: gas
Melting point: -94.97 C
Boiling point: 136.2 C
Class: IUPAC A
Instrument: IFS66V (Bruker)
Instrument parameters: KBr Beam Splitter; MCT Detector; Multipass cell
Sampling: 1 L/min Flow
Resolution: 0.9640
Temperature: 23 C
Pressure: 101.3 Pa
Origin: NIST, Analytical Chemistry Division, 301-975-3108
cm-1	(micromol/mol)-1m-1 (base 10)
575.17	4.50506e-06
583.848	1.29503e-06
592.526	-1.14845e-08
601.205	1.69788e-07
609.883	1.35768e-07
618.561	-4.03845e-08
627.239	8.22184e-07
635.917	4.62261e-07
644.595	9.74199e-08
653.274	-5.50736e-08
661.952	8.91254e-07
670.63	8.17871e-06
679.308	4.98878e-05
687.986	0.000146391
696.665	0.000320352
705.343	0.000170801
714.021	9.87672e-05
722.699	7.76767e-05
731.377	9.50181e-05
740.055	0.000118942
748.734	0.000115201
757.412	8.82436e-05
766.09	6.09679e-05
774.768	4.09998e-05
783.446	2.87821e-05
792.125	1.55803e-05
800.803	9.25757e-06
809.481	5.13566e-06
818.159	2.57025e-06
826.837	1.19295e-06
835.515	5.32963e-07
844.194	2.62877e-07
852.872	-1.29223e-07
861.55	-2.0306e-07
870.228	5.56674e-07
878.906	2.11917e-06
887.584	5.10179e-06
896.263	7.35064e-06
904.941	9.76257e-06
913.619	6.12614e-06
922.297	1.41354e-06
930.975	7.55732e-08
939.654	1.12157e-08
948.332	1.0032e-06
957.01	9.14922e-06
965.688	1.13338e-05
974.366	7.25019e-06
983.044	2.04261e-06
991.723	1.99193e-06
1000.4	3.63737e-06
1009.08	4.48538e-06
1017.76	1.08614e-05
1026.44	3.07533e-05
1035.11	3.2823e-05
1043.79	2.07429e-05
1052.47	1.6716e-05
1061.15	2.8288e-05
1069.83	2.85044e-05
1078.5	1.02976e-05
1087.18	1.06181e-05
1095.86	1.17251e-05
1104.54	9.39977e-06
1113.22	7.07221e-06
1121.9	3.74841e-06
1130.57	1.56871e-06
1139.25	9.28225e-07
1147.93	6.24326e-07
1156.61	8.74811e-08
1165.29	1.89467e-08
1173.96	-8.8331e-08
1182.64	3.39514e-07
1191.32	8.48013e-07
1200	1.28915e-06
1208.68	9.81682e-07
1217.36	1.35042e-07
1226.03	1.0829e-07
1234.71	1.87475e-06
1243.39	2.32365e-06
1252.07	1.84916e-06
1260.75	1.63871e-06
1269.42	1.66234e-06
1278.1	2.04387e-06
1286.78	3.18206e-06
1295.46	4.76679e-06
1304.14	5.74996e-06
1312.82	7.40989e-06
1321.49	1.59523e-05
1330.17	2.16191e-05
1338.85	1.49061e-05
1347.53	5.84785e-06
1356.21	3.52398e-06
1364.88	5.50635e-06
1373.56	1.16938e-05
1382.24	1.80125e-05
1390.92	1.41426e-05
1399.6	7.5559e-06
1408.28	5.43972e-06
1416.95	6.10536e-06
1425.63	8.14489e-06
1434.31	1.34269e-05
1442.99	3.39539e-05
1451.67	7.38877e-05
1460.34	8.46192e-05
1469.02	6.90707e-05
1477.7	3.67585e-05
1486.38	3.2787e-05
1495.06	9.65068e-05
1503.74	8.55319e-05
1512.41	1.96424e-05
1521.09	5.56604e-06
1529.77	6.24227e-06
1538.45	4.83604e-06
1547.13	3.77479e-06
1555.8	3.38455e-06
1564.48	3.20756e-06
1573.16	3.59513e-06
1581.84	5.98681e-06
1590.52	1.37242e-05
1599.2	3.12546e-05
1607.87	5.1516e-05
1616.55	4.17741e-05
1625.23	6.9407e-06
1633.91	2.74846e-06
1642.59	2.70221e-06
1651.26	3.76631e-06
1659.94	3.56907e-06
1668.62	2.89119e-06
1677.3	2.37636e-06
1685.98	1.32363e-06
1694.66	8.1184e-07
1703.33	7.32577e-07
1712.01	9.02208e-07
1720.69	1.62418e-06
1729.37	4.06143e-06
1738.05	6.33281e-06
1746.72	6.20906e-06
1755.4	2.21923e-06
1764.08	5.55009e-07
1772.76	9.09504e-07
1781.44	1.51175e-06
1790.12	8.09268e-06
1798.79	1.47963e-05
1807.47	9.77316e-06
1816.15	3.00505e-06
1824.83	2.08759e-06
1833.51	7.87051e-07
1842.18	1.10877e-06
1850.86	3.56434e-06
1859.54	8.99122e-06
1868.22	1.08004e-05
1876.9	1.09588e-05
1885.58	7.87575e-06
1894.25	1.13289e-06
1902.93	3.85208e-07
1911.61	6.37454e-07
1920.29	2.18246e-06
1928.97	6.52939e-06
1937.64	1.1478e-05
1946.32	1.39844e-05
1955	1.05183e-05
1963.68	7.45539e-06
1972.36	3.9754e-07
1981.04	4.13703e-07
1989.71	4.20565e-07
1998.39	1.40244e-07
2007.07	-1.27591e-08
2015.75	1.50268e-07
2024.43	5.07661e-07
2033.1	5.68158e-07
2041.78	2.28833e-07
2050.46	-1.46577e-07
2059.14	-3.66978e-07
2067.82	-4.34927e-07
2076.5	-3.73294e-07
2085.17	-3.16022e-07
2093.85	-2.38537e-07
2102.53	-1.58294e-07
2111.21	-1.58297e-07
2119.89	-1.62474e-08
2128.56	8.76252e-08
2137.24	-5.17067e-08
2145.92	-3.30719e-08
2154.6	-9.52817e-09
2163.28	1.00066e-07
2171.96	6.29015e-08
2180.63	8.66152e-08
2189.31	1.23584e-07
2197.99	5.42628e-08
2206.67	1.9792e-07
2215.35	4.75111e-07
2224.02	5.86511e-07
2232.7	6.48006e-07
2241.38	6.55818e-07
2250.06	5.29174e-07
2258.74	6.16174e-07
2267.42	7.80903e-07
2276.09	1.04461e-06
2284.77	1.10472e-06
2293.45	8.91993e-07
2302.13	6.75739e-07
2310.81	1.61229e-06
2319.48	1.65257e-06
2328.16	1.18623e-06
2336.84	2.00548e-06
2345.52	2.10687e-06
2354.2	1.19473e-06
2362.88	6.32997e-07
2371.55	8.88725e-07
2380.23	7.27298e-07
2388.91	4.50704e-07
2397.59	2.59713e-07
2406.27	4.6728e-07
2414.94	6.93293e-07
2423.62	7.3431e-07
2432.3	1.04832e-06
2440.98	1.27856e-06
2449.66	7.26289e-07
2458.34	1.70349e-07
2467.01	1.4014e-07
2475.69	1.76247e-07
2484.37	2.2011e-07
2493.05	3.53216e-07
2501.73	3.81505e-07
2510.4	5.33898e-07
2519.08	6.30312e-07
2527.76	8.89081e-07
2536.44	8.76828e-07
2545.12	6.78773e-07
2553.8	6.80161e-07
2562.47	6.49115e-07
2571.15	6.18383e-07
2579.83	7.33169e-07
2588.51	8.75538e-07
2597.19	1.20026e-06
2605.86	1.80311e-06
2614.54	1.84144e-06
2623.22	1.8124e-06
2631.9	2.6219e-06
2640.58	3.25334e-06
2649.26	2.58356e-06
2657.93	1.26271e-06
2666.61	7.2893e-07
2675.29	6.60917e-07
2683.97	6.62558e-07
2692.65	9.19959e-07
2701.32	1.44522e-06
2710	1.40214e-06
2718.68	1.05184e-06
2727.36	1.67152e-06
2736.04	3.53282e-06
2744.72	3.32731e-06
2753.39	2.36806e-06
2762.07	2.65808e-06
2770.75	3.47609e-06
2779.43	5.01315e-06
2788.11	6.0529e-06
2796.78	5.66324e-06
2805.46	4.91442e-06
2814.14	5.34004e-06
2822.82	7.25211e-06
2831.5	1.05287e-05
2840.18	1.42103e-05
2848.85	1.85432e-05
2857.53	3.10377e-05
2866.21	6.20234e-05
2874.89	0.000105168
2883.57	0.000133006
2892.24	0.00011774
2900.92	9.32621e-05
2909.6	8.79878e-05
2918.28	8.04228e-05
2926.96	9.69289e-05
2935.63	0.000162732
2944.31	0.000206259
2952.99	0.000166352
2961.67	0.000147373
2970.35	0.0004184
2979.03	0.000428276
2987.7	0.000145431
2996.38	5.38427e-05
3005.06	4.44876e-05
3013.74	4.91831e-05
3022.42	8.66288e-05
3031.09	0.000208675
3039.77	0.000235657
3048.45	0.000140055
3057.13	6.60384e-05
3065.81	0.00011115
3074.49	0.000167122
3083.16	0.000137459
3091.84	8.52565e-05
3100.52	6.87187e-05
3109.2	4.25977e-05
3117.88	2.83705e-05
3126.55	1.46833e-05
3135.23	4.8792e-06
3143.91	3.21849e-06
3152.59	3.25145e-06
3161.27	3.56884e-06
3169.95	4.55609e-06
3178.62	5.93303e-06
3187.3	5.91336e-06
3195.98	3.81061e-06
3204.66	1.63113e-06
3213.34	7.03569e-07
3222.01	5.21379e-07
3230.69	3.69056e-07
3239.37	4.3933e-07
3248.05	6.12459e-07
3256.73	4.77668e-07
3265.41	6.25558e-07
3274.08	5.94327e-07
3282.76	5.0861e-07
3291.44	4.83193e-07
3300.12	3.58154e-07
3308.8	3.4534e-07
3317.47	1.44575e-07
3326.15	-9.26419e-08
3334.83	5.96728e-08
3343.51	7.96668e-08
3352.19	9.15428e-08
3360.87	-1.55869e-07
3369.54	-6.87358e-08
3378.22	1.67933e-07
3386.9	1.10992e-07
3395.58	2.15227e-07
3404.26	6.6829e-08
3412.93	-1.8708e-07
3421.61	-9.462e-08
3430.29	5.49208e-08
3438.97	1.24486e-07
3447.65	8.28491e-09
3456.33	-7.4912e-08
3465	-2.38949e-07
3473.68	-1.51378e-07
3482.36	-3.29801e-07
3491.04	-4.10629e-07
3499.72	-1.79083e-07
3508.39	-1.89856e-07
3517.07	2.09177e-07
3525.75	3.60825e-07
3534.43	4.67917e-07
3543.11	-1.36818e-07
3551.79	-5.58985e-08
3560.46	-7.94313e-08
3569.14	-1.39611e-07
3577.82	-4.0928e-08
3586.5	-2.25092e-08
3595.18	9.78237e-09
3603.85	-1.09058e-07
3612.53	2.37697e-08
3621.21	4.2397e-07
3629.89	1.94442e-07
3638.57	5.88045e-07
3647.25	6.27355e-07
3655.92	1.01252e-06
3664.6	1.13948e-06
3673.28	4.37114e-07
3681.96	5.00308e-07
3690.64	4.71601e-07
3699.31	6.61997e-07
3707.99	5.75915e-07
3716.67	6.4463e-07
3725.35	6.57598e-07
3734.03	2.88325e-07
3742.71	3.30895e-07
3751.38	3.74115e-09
3760.06	2.52878e-07
3768.74	3.63702e-07
3777.42	4.28019e-07
3786.1	3.30004e-07
3794.77	4.37073e-07
3803.45	3.07471e-07
3812.13	3.97832e-07
3820.81	3.0439e-07
3829.49	5.97285e-07
3838.17	2.64733e-07
3846.84	7.874e-07
3855.52	3.88012e-07
3864.2	1.45074e-07
3872.88	2.11387e-07
3881.56	-2.39498e-08
3890.23	-9.80347e-08
3898.91	-7.99847e-08
3907.59	3.08827e-07
3916.27	5.30286e-07
3924.95	8.11981e-07
3933.63	1.42473e-06
3942.3	1.54368e-06
3950.98	1.2001e-06
3959.66	8.17112e-07
3968.34	9.9999e-07
