Infrared Spectrum: Ethylbenzene
Formula: C6 H5 C2 H5
CAS: 100-41-4
State: gas
Melting point: -94.97 C
Boiling point: 136.2 C
Class: IUPAC A
Instrument: IFS66V (Bruker)
Instrument parameters: KBr Beam Splitter; MCT Detector; Multipass cell
Sampling: 1 L/min Flow
Resolution: 0.1250
Temperature: 23 C
Pressure: 101.3 Pa
Origin: NIST, Analytical Chemistry Division, 301-975-3108
cm-1	(micromol/mol)-1m-1 (base 10)
575.05	6.24705e-06
583.608	-4.56088e-07
592.165	-8.4327e-07
600.723	6.27993e-07
609.281	1.85366e-07
617.838	4.57158e-07
626.396	1.38161e-07
634.954	2.24087e-07
643.511	1.77084e-07
652.069	8.52972e-07
660.626	9.31164e-07
669.184	5.88628e-06
677.742	3.79849e-05
686.299	0.000123101
694.857	0.000221374
703.415	0.000179456
711.972	0.000115388
720.53	7.55652e-05
729.088	8.97035e-05
737.645	0.000113667
746.203	0.00011544
754.761	9.85685e-05
763.318	6.87654e-05
771.876	6.62635e-05
780.434	3.3018e-05
788.991	1.98703e-05
797.549	1.15694e-05
806.106	5.72359e-06
814.664	3.64464e-06
823.222	1.64847e-06
831.779	8.37006e-07
840.337	6.71339e-07
848.895	1.60068e-07
857.452	-3.69494e-07
866.01	-4.77504e-08
874.568	1.35425e-06
883.125	3.38677e-06
891.683	6.58538e-06
900.241	8.84644e-06
908.798	7.54292e-06
917.356	4.19683e-06
925.914	2.42613e-07
934.471	-3.91563e-07
943.029	3.22437e-07
951.586	2.52198e-06
960.144	1.03828e-05
968.702	1.29276e-05
977.259	4.76287e-06
985.817	1.26112e-06
994.375	2.29728e-06
1002.93	3.59452e-06
1011.49	5.39622e-06
1020.05	1.5608e-05
1028.61	2.83314e-05
1037.16	3.16921e-05
1045.72	1.82478e-05
1054.28	1.86972e-05
1062.84	2.49682e-05
1071.39	2.67099e-05
1079.95	1.06367e-05
1088.51	9.97677e-06
1097.07	1.1073e-05
1105.62	8.84262e-06
1114.18	7.02846e-06
1122.74	3.20237e-06
1131.3	1.27356e-06
1139.85	1.08242e-06
1148.41	5.76708e-07
1156.97	5.23269e-08
1165.53	-8.74192e-09
1174.09	-2.37956e-07
1182.64	1.18272e-07
1191.2	9.21366e-07
1199.76	1.41762e-06
1208.32	9.59659e-07
1216.87	3.35908e-07
1225.43	1.38913e-07
1233.99	1.82579e-06
1242.55	2.12095e-06
1251.1	1.90431e-06
1259.66	1.5254e-06
1268.22	1.78028e-06
1276.78	1.87169e-06
1285.33	2.95309e-06
1293.89	4.75735e-06
1302.45	5.74469e-06
1311.01	6.50777e-06
1319.57	1.32512e-05
1328.12	2.07897e-05
1336.68	1.75106e-05
1345.24	7.09648e-06
1353.8	3.54257e-06
1362.35	4.10373e-06
1370.91	9.64861e-06
1379.47	1.98727e-05
1388.03	1.54731e-05
1396.58	9.62745e-06
1405.14	5.76663e-06
1413.7	5.74739e-06
1422.26	7.40072e-06
1430.81	1.04253e-05
1439.37	2.25924e-05
1447.93	5.65614e-05
1456.49	7.75764e-05
1465.05	8.40456e-05
1473.6	4.6331e-05
1482.16	2.72773e-05
1490.72	6.29291e-05
1499.28	0.000103348
1507.83	6.81352e-05
1516.39	8.04179e-06
1524.95	6.07628e-06
1533.51	5.46238e-06
1542.06	3.96933e-06
1550.62	3.61781e-06
1559.18	3.10893e-06
1567.74	3.06443e-06
1576.29	2.95299e-06
1584.85	7.43112e-06
1593.41	1.65737e-05
1601.97	4.29612e-05
1610.53	5.17003e-05
1619.08	3.0353e-05
1627.64	4.28639e-06
1636.2	2.50777e-06
1644.76	2.978e-06
1653.31	2.11855e-06
1661.87	3.59082e-06
1670.43	2.81606e-06
1678.99	2.21734e-06
1687.54	1.27298e-06
1696.1	6.71374e-08
1704.66	7.7274e-07
1713.22	8.66247e-07
1721.77	1.87406e-06
1730.33	4.62373e-06
1738.89	6.02621e-06
1747.45	5.84967e-06
1756.01	2.07342e-06
1764.56	5.07688e-07
1773.12	1.29557e-06
1781.68	1.56556e-06
1790.24	8.32025e-06
1798.79	1.48342e-05
1807.35	9.91608e-06
1815.91	3.0793e-06
1824.47	2.16799e-06
1833.02	9.90169e-07
1841.58	9.53996e-07
1850.14	3.39007e-06
1858.7	8.74653e-06
1867.25	9.78151e-06
1875.81	1.18583e-05
1884.37	7.00705e-06
1892.93	1.58374e-06
1901.49	2.87374e-07
1910.04	5.39006e-07
1918.6	1.70025e-06
1927.16	5.15133e-06
1935.72	1.18668e-05
1944.27	1.33315e-05
1952.83	1.21639e-05
1961.39	6.60988e-06
1969.95	1.1166e-06
1978.5	3.16639e-07
1987.06	3.05193e-07
1995.62	2.74387e-07
2004.18	-2.47307e-07
2012.73	-1.37529e-07
2021.29	2.42552e-07
2029.85	4.99461e-07
2038.41	3.92594e-07
2046.97	-7.63099e-09
2055.52	-1.32737e-07
2064.08	-4.03979e-07
2072.64	-4.6727e-07
2081.2	-3.29673e-07
2089.75	-2.46465e-07
2098.31	-2.78769e-07
2106.87	-2.16851e-07
2115.43	5.76265e-08
2123.98	9.11854e-08
2132.54	-4.69133e-08
2141.1	3.39663e-08
2149.66	-8.16604e-08
2158.21	-1.13418e-07
2166.77	1.65178e-07
2175.33	2.88144e-07
2183.89	1.62902e-08
2192.45	5.99215e-08
2201	5.29404e-08
2209.56	3.01126e-07
2218.12	5.36186e-07
2226.68	4.69118e-07
2235.23	8.29e-07
2243.79	7.41736e-07
2252.35	4.60445e-07
2260.91	5.837e-07
2269.46	7.40098e-07
2278.02	1.23398e-06
2286.58	1.01707e-06
2295.14	8.86965e-07
2303.69	6.86272e-07
2312.25	1.39821e-06
2320.81	1.8515e-06
2329.37	1.56356e-06
2337.93	2.03216e-06
2346.48	2.07972e-06
2355.04	1.31518e-06
2363.6	1.35526e-06
2372.16	1.2385e-06
2380.71	6.84006e-07
2389.27	4.96363e-07
2397.83	1.94158e-07
2406.39	5.43486e-07
2414.94	5.98564e-07
2423.5	8.42808e-07
2432.06	1.01123e-06
2440.62	1.28695e-06
2449.17	7.93753e-07
2457.73	8.71928e-08
2466.29	3.16433e-07
2474.85	2.01253e-07
2483.41	1.61329e-07
2491.96	4.17745e-07
2500.52	4.20019e-07
2509.08	5.14768e-07
2517.64	6.90811e-07
2526.19	1.00369e-06
2534.75	1.07339e-06
2543.31	6.79896e-07
2551.87	6.78532e-07
2560.42	7.99674e-07
2568.98	7.41191e-07
2577.54	3.79513e-07
2586.1	9.17781e-07
2594.65	1.25385e-06
2603.21	1.44246e-06
2611.77	1.85621e-06
2620.33	1.72799e-06
2628.89	2.25116e-06
2637.44	3.20912e-06
2646	3.03461e-06
2654.56	1.73232e-06
2663.12	9.22525e-07
2671.67	6.98255e-07
2680.23	7.91918e-07
2688.79	5.71927e-07
2697.35	1.21183e-06
2705.9	1.46386e-06
2714.46	6.9278e-07
2723.02	9.43676e-07
2731.58	2.4658e-06
2740.13	3.45173e-06
2748.69	3.02589e-06
2757.25	2.42095e-06
2765.81	2.84892e-06
2774.37	3.76589e-06
2782.92	5.39963e-06
2791.48	6.43614e-06
2800.04	5.30796e-06
2808.6	4.8711e-06
2817.15	6.01622e-06
2825.71	8.34555e-06
2834.27	1.10667e-05
2842.83	1.53259e-05
2851.38	2.14972e-05
2859.94	3.71115e-05
2868.5	7.2471e-05
2877.06	0.000124623
2885.61	0.000151183
2894.17	0.000111701
2902.73	9.25013e-05
2911.29	8.93295e-05
2919.85	7.90407e-05
2928.4	0.000104676
2936.96	0.000174769
2945.52	0.000198809
2954.08	0.000160316
2962.63	0.000164572
2971.19	0.000415283
2979.75	0.000429823
2988.31	0.000132183
2996.86	5.21721e-05
3005.42	4.47767e-05
3013.98	4.95734e-05
3022.54	8.73718e-05
3031.09	0.000208648
3039.65	0.000235335
3048.21	0.000143668
3056.77	6.60838e-05
3065.33	0.000105866
3073.88	0.000155983
3082.44	0.000144735
3091	8.90103e-05
3099.56	7.10222e-05
3108.11	4.48107e-05
3116.67	3.02384e-05
3125.23	1.79067e-05
3133.79	5.79258e-06
3142.34	3.28612e-06
3150.9	3.18538e-06
3159.46	3.45226e-06
3168.02	4.32434e-06
3176.57	5.7174e-06
3185.13	6.04135e-06
3193.69	4.68484e-06
3202.25	1.59651e-06
3210.81	9.80695e-07
3219.36	5.38151e-07
3227.92	4.93053e-07
3236.48	4.14501e-07
3245.04	3.4617e-07
3253.59	6.69117e-07
3262.15	1.01739e-06
3270.71	6.16034e-07
3279.27	5.61292e-07
3287.82	2.72843e-07
3296.38	4.11435e-07
3304.94	4.39753e-07
3313.5	-2.13179e-07
3322.05	-3.04994e-08
3330.61	3.1345e-07
3339.17	1.30328e-08
3347.73	-3.21763e-07
3356.29	-1.34262e-08
3364.84	2.1635e-07
3373.4	-1.91089e-07
3381.96	9.50316e-09
3390.52	3.58872e-07
3399.07	-4.13045e-08
3407.63	5.67234e-08
3416.19	-1.44842e-07
3424.75	-5.26888e-07
3433.3	-1.73255e-07
3441.86	-3.4673e-08
3450.42	-8.31951e-08
3458.98	-1.61884e-07
3467.53	3.89408e-08
3476.09	1.41904e-07
3484.65	-5.23369e-08
3493.21	-1.67669e-07
3501.77	-1.49342e-07
3510.32	1.75328e-07
3518.88	7.00828e-07
3527.44	5.57403e-07
3536	5.70207e-07
3544.55	-4.74206e-07
3553.11	-3.11502e-07
3561.67	-1.09111e-07
3570.23	-8.70118e-08
3578.78	1.7158e-07
3587.34	-2.1624e-07
3595.9	1.1481e-07
3604.46	-3.29586e-08
3613.01	2.54871e-07
3621.57	4.93687e-07
3630.13	2.68955e-07
3638.69	6.37457e-07
3647.25	9.10195e-07
3655.8	1.07392e-06
3664.36	1.20358e-06
3672.92	4.85564e-07
3681.48	5.91654e-07
3690.03	6.44421e-07
3698.59	7.52864e-07
3707.15	6.73226e-07
3715.71	5.53335e-07
3724.26	1.06995e-06
3732.82	4.43706e-07
3741.38	2.43178e-07
3749.94	4.72282e-07
3758.49	3.77275e-07
3767.05	5.48739e-07
3775.61	8.82969e-09
3784.17	3.48225e-07
3792.73	4.12262e-07
3801.28	-2.23047e-07
3809.84	3.45432e-07
3818.4	3.65023e-07
3826.96	4.46668e-07
3835.51	6.92395e-07
3844.07	6.71597e-07
3852.63	5.62507e-07
3861.19	4.10733e-07
3869.74	9.59215e-08
3878.3	3.43341e-07
3886.86	-2.53497e-07
3895.42	-2.73426e-08
3903.97	4.67973e-08
3912.53	5.38057e-07
3921.09	5.54094e-07
3929.65	1.24203e-06
3938.21	1.41135e-06
3946.76	1.67566e-06
3955.32	8.02521e-07
3963.88	8.07494e-07
3972.44	8.70681e-07
