Infrared Spectrum: Ethylbenzene
Formula: C6 H5 C2 H5
CAS: 100-41-4
State: gas
Melting point: -94.97 C
Boiling point: 136.2 C
Class: IUPAC A
Instrument: IFS66V (Bruker)
Instrument parameters: KBr Beam Splitter; MCT Detector; Multipass cell
Sampling: 1 L/min Flow
Resolution: 0.9640
Temperature: 23 C
Pressure: 101.3 Pa
Origin: NIST, Analytical Chemistry Division, 301-975-3108
cm-1	(micromol/mol)-1m-1 (base 10)
575.17	4.7058e-06
583.848	1.22536e-06
592.526	9.00544e-08
601.205	2.33392e-07
609.883	2.84178e-07
618.561	-1.00398e-07
627.239	8.7032e-07
635.917	5.76151e-07
644.595	2.09983e-07
653.274	2.748e-07
661.952	1.27187e-06
670.63	8.90253e-06
679.308	5.04653e-05
687.986	0.000145357
696.665	0.000309604
705.343	0.000169972
714.021	9.92527e-05
722.699	7.81464e-05
731.377	9.49967e-05
740.055	0.000118014
748.734	0.000115086
757.412	8.8285e-05
766.09	6.11082e-05
774.768	4.1482e-05
783.446	2.88787e-05
792.125	1.57838e-05
800.803	9.43622e-06
809.481	5.27354e-06
818.159	2.73071e-06
826.837	1.28367e-06
835.515	6.48096e-07
844.194	3.11045e-07
852.872	-6.1233e-08
861.55	-1.34651e-07
870.228	6.36387e-07
878.906	2.18668e-06
887.584	5.15361e-06
896.263	7.36529e-06
904.941	9.66408e-06
913.619	6.1448e-06
922.297	1.48623e-06
930.975	1.53781e-07
939.654	8.76302e-08
948.332	1.1286e-06
957.01	9.0915e-06
965.688	1.13371e-05
974.366	7.29622e-06
983.044	2.15804e-06
991.723	2.05561e-06
1000.4	3.68627e-06
1009.08	4.60593e-06
1017.76	1.10409e-05
1026.44	3.04425e-05
1035.11	3.25927e-05
1043.79	2.08193e-05
1052.47	1.68961e-05
1061.15	2.80969e-05
1069.83	2.8125e-05
1078.5	1.04817e-05
1087.18	1.06519e-05
1095.86	1.1672e-05
1104.54	9.39163e-06
1113.22	7.03344e-06
1121.9	3.79951e-06
1130.57	1.61661e-06
1139.25	9.69742e-07
1147.93	6.59401e-07
1156.61	1.08492e-07
1165.29	5.04038e-08
1173.96	-7.78392e-08
1182.64	3.52983e-07
1191.32	8.68056e-07
1200	1.29756e-06
1208.68	9.77711e-07
1217.36	1.66224e-07
1226.03	1.51929e-07
1234.71	1.87352e-06
1243.39	2.32557e-06
1252.07	1.85397e-06
1260.75	1.66436e-06
1269.42	1.68955e-06
1278.1	2.07689e-06
1286.78	3.21217e-06
1295.46	4.76838e-06
1304.14	5.78205e-06
1312.82	7.47423e-06
1321.49	1.58482e-05
1330.17	2.14159e-05
1338.85	1.48274e-05
1347.53	5.95771e-06
1356.21	3.67486e-06
1364.88	5.56938e-06
1373.56	1.17134e-05
1382.24	1.79228e-05
1390.92	1.41012e-05
1399.6	7.66291e-06
1408.28	5.56552e-06
1416.95	6.22365e-06
1425.63	8.30412e-06
1434.31	1.36853e-05
1442.99	3.4088e-05
1451.67	7.32812e-05
1460.34	8.4038e-05
1469.02	6.88352e-05
1477.7	3.70399e-05
1486.38	3.3451e-05
1495.06	9.52671e-05
1503.74	8.46399e-05
1512.41	2.03226e-05
1521.09	5.84529e-06
1529.77	6.36318e-06
1538.45	4.98203e-06
1547.13	3.85552e-06
1555.8	3.42449e-06
1564.48	3.28435e-06
1573.16	3.69218e-06
1581.84	6.11493e-06
1590.52	1.38034e-05
1599.2	3.1264e-05
1607.87	5.10617e-05
1616.55	4.11815e-05
1625.23	7.23393e-06
1633.91	2.88979e-06
1642.59	2.78521e-06
1651.26	3.79918e-06
1659.94	3.58679e-06
1668.62	2.95643e-06
1677.3	2.39748e-06
1685.98	1.36528e-06
1694.66	8.42573e-07
1703.33	7.63473e-07
1712.01	9.34734e-07
1720.69	1.65929e-06
1729.37	4.07203e-06
1738.05	6.28027e-06
1746.72	6.13982e-06
1755.4	2.25716e-06
1764.08	6.03232e-07
1772.76	8.84752e-07
1781.44	1.60963e-06
1790.12	8.0725e-06
1798.79	1.45389e-05
1807.47	9.74749e-06
1816.15	3.0796e-06
1824.83	2.11646e-06
1833.51	8.35734e-07
1842.18	1.17075e-06
1850.86	3.59971e-06
1859.54	8.90175e-06
1868.22	1.0709e-05
1876.9	1.08663e-05
1885.58	7.80334e-06
1894.25	1.2164e-06
1902.93	4.34377e-07
1911.61	6.93117e-07
1920.29	2.22654e-06
1928.97	6.53358e-06
1937.64	1.1384e-05
1946.32	1.38347e-05
1955	1.04834e-05
1963.68	7.36621e-06
1972.36	4.78465e-07
1981.04	4.4515e-07
1989.71	4.34563e-07
1998.39	1.56021e-07
2007.07	1.40192e-08
2015.75	1.73973e-07
2024.43	5.14212e-07
2033.1	5.70434e-07
2041.78	2.36629e-07
2050.46	-1.3572e-07
2059.14	-3.58923e-07
2067.82	-4.18959e-07
2076.5	-3.67002e-07
2085.17	-3.18984e-07
2093.85	-2.41694e-07
2102.53	-1.63197e-07
2111.21	-1.48759e-07
2119.89	7.97341e-09
2128.56	9.2335e-08
2137.24	-4.12013e-08
2145.92	-2.93876e-08
2154.6	-8.77876e-09
2163.28	1.07389e-07
2171.96	6.50528e-08
2180.63	7.47247e-08
2189.31	1.172e-07
2197.99	6.69159e-08
2206.67	2.04721e-07
2215.35	4.7419e-07
2224.02	5.9395e-07
2232.7	6.48426e-07
2241.38	6.50934e-07
2250.06	5.3658e-07
2258.74	6.09632e-07
2267.42	7.98575e-07
2276.09	1.03324e-06
2284.77	1.11091e-06
2293.45	8.90529e-07
2302.13	6.94702e-07
2310.81	1.59969e-06
2319.48	1.63774e-06
2328.16	1.21691e-06
2336.84	2.10761e-06
2345.52	2.11083e-06
2354.2	1.13719e-06
2362.88	5.06968e-07
2371.55	8.40232e-07
2380.23	7.25189e-07
2388.91	4.50599e-07
2397.59	2.56269e-07
2406.27	4.77122e-07
2414.94	6.9973e-07
2423.62	7.50119e-07
2432.3	1.05358e-06
2440.98	1.28231e-06
2449.66	7.2683e-07
2458.34	1.83257e-07
2467.01	1.55957e-07
2475.69	1.78606e-07
2484.37	2.24423e-07
2493.05	3.78793e-07
2501.73	3.95324e-07
2510.4	5.56215e-07
2519.08	6.53553e-07
2527.76	9.02264e-07
2536.44	8.8432e-07
2545.12	6.79259e-07
2553.8	7.01878e-07
2562.47	6.61269e-07
2571.15	6.19698e-07
2579.83	7.36981e-07
2588.51	8.93816e-07
2597.19	1.22834e-06
2605.86	1.80893e-06
2614.54	1.87432e-06
2623.22	1.84171e-06
2631.9	2.61814e-06
2640.58	3.2508e-06
2649.26	2.57711e-06
2657.93	1.28455e-06
2666.61	7.49766e-07
2675.29	6.84094e-07
2683.97	7.08778e-07
2692.65	9.74843e-07
2701.32	1.46547e-06
2710	1.46222e-06
2718.68	1.0884e-06
2727.36	1.71417e-06
2736.04	3.5218e-06
2744.72	3.36172e-06
2753.39	2.41555e-06
2762.07	2.71822e-06
2770.75	3.53454e-06
2779.43	5.06396e-06
2788.11	6.09248e-06
2796.78	5.72379e-06
2805.46	5.02684e-06
2814.14	5.478e-06
2822.82	7.37385e-06
2831.5	1.06657e-05
2840.18	1.439e-05
2848.85	1.88544e-05
2857.53	3.13949e-05
2866.21	6.21547e-05
2874.89	0.000104933
2883.57	0.000132613
2892.24	0.000117552
2900.92	9.3578e-05
2909.6	8.82625e-05
2918.28	8.09538e-05
2926.96	9.75344e-05
2935.63	0.000162393
2944.31	0.000205654
2952.99	0.000166663
2961.67	0.000149985
2970.35	0.000413458
2979.03	0.000423184
2987.7	0.000147343
2996.38	5.53589e-05
3005.06	4.54198e-05
3013.74	5.02278e-05
3022.42	8.76372e-05
3031.09	0.0002067
3039.77	0.000233611
3048.45	0.000140112
3057.13	6.73992e-05
3065.81	0.0001111
3074.49	0.000164779
3083.16	0.000136716
3091.84	8.53315e-05
3100.52	6.85308e-05
3109.2	4.27785e-05
3117.88	2.85758e-05
3126.55	1.49266e-05
3135.23	5.14502e-06
3143.91	3.40618e-06
3152.59	3.38462e-06
3161.27	3.67181e-06
3169.95	4.64958e-06
3178.62	5.97116e-06
3187.3	5.93643e-06
3195.98	3.84233e-06
3204.66	1.70718e-06
3213.34	7.47317e-07
3222.01	5.87071e-07
3230.69	4.03302e-07
3239.37	5.01355e-07
3248.05	6.26899e-07
3256.73	5.08059e-07
3265.41	6.28042e-07
3274.08	6.09179e-07
3282.76	5.30814e-07
3291.44	5.07549e-07
3300.12	3.60859e-07
3308.8	3.40263e-07
3317.47	1.56341e-07
3326.15	-1.09364e-07
3334.83	1.02847e-07
3343.51	1.0603e-07
3352.19	1.44507e-07
3360.87	-1.37912e-07
3369.54	-3.96965e-08
3378.22	1.50309e-07
3386.9	1.33961e-07
3395.58	2.2565e-07
3404.26	7.09845e-08
3412.93	-1.93938e-07
3421.61	-8.35189e-08
3430.29	7.5536e-08
3438.97	1.39987e-07
3447.65	1.36895e-08
3456.33	-6.91614e-08
3465	-2.2666e-07
3473.68	-1.23928e-07
3482.36	-3.01218e-07
3491.04	-4.1307e-07
3499.72	-1.80585e-07
3508.39	-1.95446e-07
3517.07	2.17333e-07
3525.75	3.40129e-07
3534.43	4.8462e-07
3543.11	-1.29044e-07
3551.79	-4.13813e-08
3560.46	-6.36254e-08
3569.14	-1.3194e-07
3577.82	-2.97218e-08
3586.5	-9.59911e-09
3595.18	-2.00208e-08
3603.85	-9.96199e-08
3612.53	-1.60478e-09
3621.21	4.26071e-07
3629.89	1.71669e-07
3638.57	5.8941e-07
3647.25	6.22702e-07
3655.92	1.01417e-06
3664.6	1.12856e-06
3673.28	4.33377e-07
3681.96	5.00953e-07
3690.64	4.77004e-07
3699.31	6.58207e-07
3707.99	5.87279e-07
3716.67	6.39945e-07
3725.35	6.5432e-07
3734.03	3.17358e-07
3742.71	3.19772e-07
3751.38	8.42911e-08
3760.06	2.59872e-07
3768.74	3.71721e-07
3777.42	4.28223e-07
3786.1	3.58164e-07
3794.77	4.49243e-07
3803.45	3.11916e-07
3812.13	3.90646e-07
3820.81	3.00364e-07
3829.49	6.08928e-07
3838.17	2.55647e-07
3846.84	7.92305e-07
3855.52	3.7938e-07
3864.2	1.50277e-07
3872.88	2.29656e-07
3881.56	-1.78372e-08
3890.23	-6.80882e-08
3898.91	-5.37043e-08
3907.59	2.90493e-07
3916.27	5.38502e-07
3924.95	7.98965e-07
3933.63	1.40485e-06
3942.3	1.52394e-06
3950.98	1.20794e-06
3959.66	8.13383e-07
3968.34	1.01266e-06
