Infrared Spectrum: Ethylbenzene
Formula: C6 H5 C2 H5
CAS: 100-41-4
State: gas
Melting point: -94.97 C
Boiling point: 136.2 C
Class: IUPAC A
Instrument: IFS66V (Bruker)
Instrument parameters: KBr Beam Splitter; MCT Detector; Multipass cell
Sampling: 1 L/min Flow
Resolution: 1.9290
Temperature: 23 C
Pressure: 101.3 Pa
Origin: NIST, Analytical Chemistry Division, 301-975-3108
cm-1	(micromol/mol)-1m-1 (base 10)
575.652	3.86078e-06
584.33	1.18442e-06
593.008	4.45662e-07
601.687	-7.89719e-07
610.365	3.46448e-08
619.043	-2.1575e-07
627.721	1.75834e-06
636.399	-1.132e-07
645.077	5.09371e-07
653.756	-5.59782e-07
662.434	1.53912e-06
671.112	8.66417e-06
679.79	5.47879e-05
688.468	0.000151245
697.147	0.000390123
705.825	0.000171839
714.503	9.39589e-05
723.181	7.90868e-05
731.859	9.55687e-05
740.537	0.00012076
749.216	0.000116772
757.894	8.8074e-05
766.572	5.9226e-05
775.25	4.09725e-05
783.928	2.76046e-05
792.607	1.52725e-05
801.285	8.64553e-06
809.963	5.33573e-06
818.641	2.14159e-06
827.319	1.37543e-06
835.997	2.77867e-07
844.676	3.03746e-07
853.354	-2.90892e-07
862.032	-2.16306e-07
870.71	4.58517e-07
879.388	2.39816e-06
888.066	5.24454e-06
896.745	7.47929e-06
905.423	7.60316e-06
914.101	6.19842e-06
922.779	1.11887e-06
931.457	2.05964e-07
940.136	-9.89496e-08
948.814	1.24032e-06
957.492	9.57088e-06
966.17	1.18043e-05
974.848	6.5614e-06
983.526	2.05724e-06
992.205	1.9414e-06
1000.88	3.83123e-06
1009.56	4.54499e-06
1018.24	1.16234e-05
1026.92	3.05792e-05
1035.6	3.32776e-05
1044.27	2.00042e-05
1052.95	1.71018e-05
1061.63	2.72865e-05
1070.31	2.88428e-05
1078.99	1.00671e-05
1087.66	1.03773e-05
1096.34	1.15672e-05
1105.02	9.22681e-06
1113.7	6.98268e-06
1122.38	3.58579e-06
1131.06	1.30515e-06
1139.73	1.00684e-06
1148.41	4.92536e-07
1157.09	1.85233e-07
1165.77	-1.39187e-08
1174.45	-1.18905e-08
1183.12	3.3252e-07
1191.8	9.14965e-07
1200.48	1.20146e-06
1209.16	9.00421e-07
1217.84	9.22486e-08
1226.52	2.31894e-07
1235.19	1.83402e-06
1243.87	2.55442e-06
1252.55	1.8114e-06
1261.23	1.72914e-06
1269.91	1.59692e-06
1278.58	2.20223e-06
1287.26	3.26409e-06
1295.94	4.81198e-06
1304.62	5.82275e-06
1313.3	7.58667e-06
1321.98	1.67616e-05
1330.65	2.16491e-05
1339.33	1.41251e-05
1348.01	5.66499e-06
1356.69	3.66443e-06
1365.37	5.70443e-06
1374.04	1.19483e-05
1382.72	1.72783e-05
1391.4	1.37155e-05
1400.08	7.32468e-06
1408.76	5.29233e-06
1417.44	6.24115e-06
1426.11	8.24873e-06
1434.79	1.40458e-05
1443.47	3.58214e-05
1452.15	7.5383e-05
1460.83	8.22308e-05
1469.5	6.75398e-05
1478.18	3.53889e-05
1486.86	3.45313e-05
1495.54	9.5365e-05
1504.22	8.81298e-05
1512.9	1.68896e-05
1521.57	5.66444e-06
1530.25	6.17565e-06
1538.93	4.7772e-06
1547.61	3.66232e-06
1556.29	3.4372e-06
1564.96	3.13231e-06
1573.64	3.61459e-06
1582.32	6.09766e-06
1591	1.43161e-05
1599.68	3.33331e-05
1608.36	5.05877e-05
1617.03	4.029e-05
1625.71	6.27863e-06
1634.39	2.72317e-06
1643.07	2.81655e-06
1651.75	3.54708e-06
1660.42	3.61965e-06
1669.1	2.57754e-06
1677.78	2.22679e-06
1686.46	1.35593e-06
1695.14	5.85363e-07
1703.82	6.43576e-07
1712.49	9.20435e-07
1721.17	1.63707e-06
1729.85	4.33121e-06
1738.53	6.26079e-06
1747.21	5.97915e-06
1755.88	2.03672e-06
1764.56	5.77737e-07
1773.24	1.0064e-06
1781.92	1.76974e-06
1790.6	8.62663e-06
1799.28	1.59295e-05
1807.95	9.14283e-06
1816.63	2.78009e-06
1825.31	1.93694e-06
1833.99	7.27773e-07
1842.67	1.20349e-06
1851.34	3.77017e-06
1860.02	9.09063e-06
1868.7	1.11554e-05
1877.38	1.06529e-05
1886.06	8.16703e-06
1894.74	9.32734e-07
1903.41	4.42765e-07
1912.09	6.54496e-07
1920.77	2.31134e-06
1929.45	6.97656e-06
1938.13	1.12369e-05
1946.8	1.3967e-05
1955.48	1.00206e-05
1964.16	7.08339e-06
1972.84	3.85143e-07
1981.52	4.11615e-07
1990.2	4.07913e-07
1998.87	6.13672e-08
2007.55	7.8856e-08
2016.23	1.12171e-07
2024.91	6.02275e-07
2033.59	4.37546e-07
2042.26	2.36852e-07
2050.94	-2.41088e-07
2059.62	-3.56085e-07
2068.3	-4.55285e-07
2076.98	-3.4851e-07
2085.66	-3.08589e-07
2094.33	-1.65626e-07
2103.01	-1.55075e-07
2111.69	-6.70546e-08
2120.37	-3.2282e-08
2129.05	8.45607e-08
2137.72	-5.03029e-08
2146.4	-1.64093e-08
2155.08	-3.87925e-08
2163.76	1.30928e-07
2172.44	1.01912e-08
2181.12	9.85667e-08
2189.79	1.10804e-07
2198.47	6.84493e-08
2207.15	1.9044e-07
2215.83	5.01629e-07
2224.51	5.47176e-07
2233.18	6.40939e-07
2241.86	6.50949e-07
2250.54	5.37722e-07
2259.22	6.14145e-07
2267.9	7.84087e-07
2276.58	9.95253e-07
2285.25	1.11735e-06
2293.93	8.6989e-07
2302.61	6.5124e-07
2311.29	1.44379e-06
2319.97	1.97945e-06
2328.64	1.06914e-06
2337.32	1.98369e-06
2346	2.00523e-06
2354.68	1.19934e-06
2363.36	6.82099e-07
2372.04	9.58806e-07
2380.71	7.9805e-07
2389.39	4.70613e-07
2398.07	2.31458e-07
2406.75	5.08789e-07
2415.43	6.42718e-07
2424.1	7.83051e-07
2432.78	1.01426e-06
2441.46	1.26621e-06
2450.14	6.79146e-07
2458.82	2.04884e-07
2467.5	8.26731e-08
2476.17	2.86786e-07
2484.85	2.04986e-07
2493.53	3.55542e-07
2502.21	3.99286e-07
2510.89	4.93969e-07
2519.56	5.981e-07
2528.24	9.01834e-07
2536.92	8.82595e-07
2545.6	7.30723e-07
2554.28	6.5413e-07
2562.96	6.2514e-07
2571.63	6.2062e-07
2580.31	7.90329e-07
2588.99	9.19288e-07
2597.67	1.25343e-06
2606.35	1.85209e-06
2615.02	1.84797e-06
2623.7	1.86275e-06
2632.38	2.70153e-06
2641.06	3.19978e-06
2649.74	2.56263e-06
2658.42	1.18114e-06
2667.09	8.60627e-07
2675.77	6.26593e-07
2684.45	6.64115e-07
2693.13	8.85402e-07
2701.81	1.54115e-06
2710.48	1.35637e-06
2719.16	1.0591e-06
2727.84	1.76504e-06
2736.52	3.73224e-06
2745.2	3.23891e-06
2753.88	2.32553e-06
2762.55	2.63909e-06
2771.23	3.55156e-06
2779.91	5.12689e-06
2788.59	6.14585e-06
2797.27	5.62434e-06
2805.94	4.97078e-06
2814.62	5.38199e-06
2823.3	7.41018e-06
2831.98	1.06807e-05
2840.66	1.45316e-05
2849.34	1.87908e-05
2858.01	3.21507e-05
2866.69	6.42263e-05
2875.37	0.000108464
2884.05	0.000132302
2892.73	0.000116357
2901.4	9.2889e-05
2910.08	8.77346e-05
2918.76	7.98327e-05
2927.44	9.92996e-05
2936.12	0.000167625
2944.8	0.000203959
2953.47	0.00016391
2962.15	0.000154734
2970.83	0.000418661
2979.51	0.000431439
2988.19	0.000134129
2996.86	5.1981e-05
3005.54	4.46475e-05
3014.22	5.02711e-05
3022.9	9.09239e-05
3031.58	0.000212758
3040.26	0.000235139
3048.93	0.00013225
3057.61	6.60101e-05
3066.29	0.000116057
3074.97	0.000176992
3083.65	0.000132102
3092.32	8.29805e-05
3101	6.74683e-05
3109.68	4.16771e-05
3118.36	2.79033e-05
3127.04	1.36413e-05
3135.72	4.74536e-06
3144.39	3.15051e-06
3153.07	3.27177e-06
3161.75	3.59288e-06
3170.43	4.72178e-06
3179.11	5.92752e-06
3187.78	5.87131e-06
3196.46	3.69554e-06
3205.14	1.57164e-06
3213.82	7.53363e-07
3222.5	4.99836e-07
3231.18	3.73709e-07
3239.85	4.5189e-07
3248.53	6.38441e-07
3257.21	4.76713e-07
3265.89	6.89139e-07
3274.57	6.86981e-07
3283.24	4.48224e-07
3291.92	4.38501e-07
3300.6	3.3168e-07
3309.28	3.55453e-07
3317.96	6.21752e-08
3326.64	9.987e-09
3335.31	6.22221e-08
3343.99	6.88981e-08
3352.67	6.85625e-08
3361.35	-1.54823e-07
3370.03	-1.02707e-07
3378.7	1.46436e-07
3387.38	1.55539e-07
3396.06	3.99812e-08
3404.74	7.50517e-08
3413.42	-2.17412e-07
3422.1	-1.43309e-07
3430.77	8.44589e-09
3439.45	8.81395e-08
3448.13	-2.82794e-08
3456.81	-2.2322e-07
3465.49	-3.74092e-07
3474.16	-1.31481e-07
3482.84	-3.16057e-07
3491.52	-5.09192e-07
3500.2	-1.19095e-07
3508.88	-1.00789e-07
3517.56	1.75147e-07
3526.23	3.77427e-07
3534.91	5.25748e-07
3543.59	-1.39893e-07
3552.27	-6.30906e-08
3560.95	-1.29683e-07
3569.62	-1.50678e-07
3578.3	-3.18454e-09
3586.98	-1.2413e-07
3595.66	6.42911e-09
3604.34	-4.77882e-08
3613.02	1.87681e-07
3621.69	4.64915e-07
3630.37	2.65704e-07
3639.05	5.91102e-07
3647.73	7.08342e-07
3656.41	8.76862e-07
3665.08	1.18555e-06
3673.76	4.28914e-07
3682.44	4.35771e-07
3691.12	3.58053e-07
3699.8	6.4726e-07
3708.48	5.85264e-07
3717.15	7.32782e-07
3725.83	5.905e-07
3734.51	7.08317e-08
3743.19	5.1333e-07
3751.87	-4.36315e-07
3760.54	2.39266e-07
3769.22	3.55551e-07
3777.9	4.4543e-07
3786.58	3.62352e-07
3795.26	3.46024e-07
3803.94	2.08836e-07
3812.61	4.85531e-07
3821.29	3.2731e-07
3829.97	5.42287e-07
3838.65	5.55995e-07
3847.33	7.6085e-07
3856	4.74306e-07
3864.68	-4.18138e-08
3873.36	2.05024e-07
3882.04	1.65175e-08
3890.72	-2.17229e-07
3899.4	-3.1961e-07
3908.07	3.77303e-07
3916.75	3.55708e-07
3925.43	9.11943e-07
3934.11	1.45296e-06
3942.79	1.47493e-06
3951.46	1.24176e-06
3960.14	9.02838e-07
3968.82	9.95106e-07
