Infrared Spectrum: Ethylbenzene
Formula: C6 H5 C2 H5
CAS: 100-41-4
State: gas
Melting point: -94.97 C
Boiling point: 136.2 C
Class: IUPAC A
Instrument: IFS66V (Bruker)
Instrument parameters: KBr Beam Splitter; MCT Detector; Multipass cell
Sampling: 1 L/min Flow
Resolution: 0.4820
Temperature: 23 C
Pressure: 101.3 Pa
Origin: NIST, Analytical Chemistry Division, 301-975-3108
cm-1	(micromol/mol)-1m-1 (base 10)
575.17	4.52255e-06
583.848	6.16243e-07
592.526	-3.36231e-07
601.205	1.24134e-07
609.883	3.44025e-07
618.561	-1.98908e-07
627.239	6.27723e-07
635.917	2.88171e-07
644.595	1.48434e-07
653.274	2.49725e-07
661.952	1.05174e-06
670.63	8.70361e-06
679.308	5.01159e-05
687.986	0.000145615
696.665	0.000313345
705.343	0.000170357
714.021	9.90731e-05
722.699	7.78825e-05
731.377	9.48929e-05
740.055	0.000117725
748.734	0.000114135
757.412	8.82913e-05
766.09	6.09442e-05
774.768	4.10822e-05
783.446	2.88206e-05
792.124	1.55893e-05
800.803	9.49486e-06
809.481	5.26539e-06
818.159	2.64711e-06
826.837	1.21126e-06
835.515	6.42848e-07
844.194	2.26454e-07
852.872	-1.60061e-07
861.55	-1.14566e-07
870.228	6.75914e-07
878.906	2.23983e-06
887.584	5.25848e-06
896.263	7.32842e-06
904.941	9.44873e-06
913.619	6.1821e-06
922.297	1.42448e-06
930.975	1.99081e-07
939.654	1.24987e-07
948.332	1.16806e-06
957.01	9.20508e-06
965.688	1.12935e-05
974.366	7.36248e-06
983.044	2.14862e-06
991.723	2.02842e-06
1000.4	3.7416e-06
1009.08	4.5579e-06
1017.76	1.0938e-05
1026.44	3.06711e-05
1035.11	3.27541e-05
1043.79	2.08631e-05
1052.47	1.68419e-05
1061.15	2.82707e-05
1069.83	2.84002e-05
1078.5	1.0346e-05
1087.18	1.05935e-05
1095.86	1.16667e-05
1104.54	9.43538e-06
1113.22	7.04145e-06
1121.9	3.83052e-06
1130.57	1.60704e-06
1139.25	9.40169e-07
1147.93	6.97975e-07
1156.61	7.19549e-08
1165.29	7.27679e-08
1173.96	-1.24629e-07
1182.64	2.90996e-07
1191.32	8.85482e-07
1200	1.29853e-06
1208.68	9.93399e-07
1217.36	1.69615e-07
1226.03	1.32885e-07
1234.71	1.88463e-06
1243.39	2.32741e-06
1252.07	1.8243e-06
1260.75	1.61514e-06
1269.42	1.68056e-06
1278.1	2.10401e-06
1286.78	3.21089e-06
1295.46	4.7427e-06
1304.14	5.74948e-06
1312.82	7.38315e-06
1321.49	1.57944e-05
1330.17	2.15596e-05
1338.85	1.4855e-05
1347.53	5.97218e-06
1356.21	3.56465e-06
1364.88	5.44475e-06
1373.56	1.17914e-05
1382.24	1.79891e-05
1390.92	1.41988e-05
1399.6	7.666e-06
1408.28	5.52891e-06
1416.95	6.16894e-06
1425.63	8.22858e-06
1434.31	1.35647e-05
1442.99	3.38965e-05
1451.67	7.36267e-05
1460.34	8.42653e-05
1469.02	6.89941e-05
1477.7	3.68904e-05
1486.38	3.30786e-05
1495.06	9.64429e-05
1503.74	8.50115e-05
1512.41	1.98243e-05
1521.09	5.53145e-06
1529.77	6.31195e-06
1538.45	5.00947e-06
1547.13	3.83904e-06
1555.8	3.36282e-06
1564.48	3.262e-06
1573.16	3.63699e-06
1581.84	6.03438e-06
1590.52	1.37751e-05
1599.2	3.13129e-05
1607.87	5.12486e-05
1616.55	4.13739e-05
1625.23	7.00539e-06
1633.91	2.85033e-06
1642.59	2.78612e-06
1651.26	3.83794e-06
1659.94	3.58021e-06
1668.62	2.99841e-06
1677.3	2.43007e-06
1685.98	1.32503e-06
1694.66	8.76679e-07
1703.33	7.5046e-07
1712.01	9.5578e-07
1720.69	1.66085e-06
1729.37	4.09517e-06
1738.05	6.33674e-06
1746.72	6.17835e-06
1755.4	2.24557e-06
1764.08	6.0451e-07
1772.76	6.0252e-07
1781.44	1.55312e-06
1790.12	8.11222e-06
1798.79	1.47485e-05
1807.47	9.72681e-06
1816.15	3.00753e-06
1824.83	2.1352e-06
1833.51	7.77068e-07
1842.18	1.1141e-06
1850.86	3.58215e-06
1859.54	8.96903e-06
1868.22	1.08001e-05
1876.9	1.09219e-05
1885.58	7.85857e-06
1894.25	1.13578e-06
1902.93	3.73135e-07
1911.61	6.58623e-07
1920.29	2.20272e-06
1928.97	6.48819e-06
1937.64	1.14495e-05
1946.32	1.38975e-05
1955	1.05029e-05
1963.68	7.46049e-06
1972.36	3.95982e-07
1981.04	4.37276e-07
1989.71	4.15573e-07
1998.39	1.522e-07
2007.07	1.69504e-08
2015.75	1.79083e-07
2024.43	5.44397e-07
2033.1	5.92778e-07
2041.78	2.46367e-07
2050.46	-1.23213e-07
2059.14	-3.60803e-07
2067.82	-4.3571e-07
2076.5	-3.79543e-07
2085.17	-3.438e-07
2093.85	-2.90201e-07
2102.53	-1.66336e-07
2111.21	-1.77801e-07
2119.89	6.8522e-08
2128.56	1.25842e-07
2137.24	-5.5838e-08
2145.92	-5.2879e-08
2154.6	-2.83944e-08
2163.28	8.66653e-08
2171.96	7.63036e-08
2180.63	3.88298e-08
2189.31	1.03526e-07
2197.99	7.33464e-08
2206.67	2.18423e-07
2215.35	4.64842e-07
2224.02	5.70568e-07
2232.7	6.34989e-07
2241.38	6.7253e-07
2250.06	5.31027e-07
2258.74	6.02345e-07
2267.42	8.10859e-07
2276.09	1.03169e-06
2284.77	1.117e-06
2293.45	8.69369e-07
2302.13	6.85506e-07
2310.81	1.65187e-06
2319.48	1.69524e-06
2328.16	1.31817e-06
2336.84	2.13668e-06
2345.52	2.16945e-06
2354.2	1.07131e-06
2362.88	1.76681e-07
2371.55	7.19615e-07
2380.23	7.39908e-07
2388.91	4.18299e-07
2397.59	1.99076e-07
2406.27	4.79085e-07
2414.94	6.50655e-07
2423.62	7.89208e-07
2432.3	1.05023e-06
2440.98	1.27489e-06
2449.66	6.83234e-07
2458.34	1.72446e-07
2467.01	1.57096e-07
2475.69	1.43353e-07
2484.37	2.21164e-07
2493.05	4.08188e-07
2501.73	3.95086e-07
2510.4	5.42725e-07
2519.08	6.57677e-07
2527.76	9.30905e-07
2536.44	9.02397e-07
2545.12	6.1189e-07
2553.8	6.93327e-07
2562.47	6.68583e-07
2571.15	5.65612e-07
2579.83	7.50878e-07
2588.51	9.18887e-07
2597.19	1.24047e-06
2605.86	1.8138e-06
2614.54	1.95311e-06
2623.22	1.85339e-06
2631.9	2.56378e-06
2640.58	3.25451e-06
2649.26	2.58091e-06
2657.93	1.26879e-06
2666.61	6.92177e-07
2675.29	6.68871e-07
2683.97	7.44991e-07
2692.65	9.705e-07
2701.32	1.44176e-06
2710	1.49731e-06
2718.68	1.01076e-06
2727.36	1.62073e-06
2736.04	3.53604e-06
2744.71	3.35036e-06
2753.39	2.36124e-06
2762.07	2.71621e-06
2770.75	3.48946e-06
2779.43	5.05354e-06
2788.11	6.02678e-06
2796.78	5.73172e-06
2805.46	4.98351e-06
2814.14	5.45759e-06
2822.82	7.29454e-06
2831.5	1.05539e-05
2840.17	1.42677e-05
2848.85	1.87293e-05
2857.53	3.1174e-05
2866.21	6.21433e-05
2874.89	0.000105017
2883.57	0.000132668
2892.24	0.000117741
2900.92	9.34865e-05
2909.6	8.80227e-05
2918.28	8.05862e-05
2926.96	9.71939e-05
2935.63	0.000162686
2944.31	0.000205892
2952.99	0.000166608
2961.67	0.000148159
2970.35	0.000416793
2979.03	0.000426398
2987.7	0.000146028
2996.38	5.4503e-05
3005.06	4.49641e-05
3013.74	4.96601e-05
3022.42	8.7013e-05
3031.09	0.00020789
3039.77	0.000234557
3048.45	0.000140102
3057.13	6.67087e-05
3065.81	0.000111079
3074.49	0.000166281
3083.16	0.000137319
3091.84	8.52736e-05
3100.52	6.87443e-05
3109.2	4.26053e-05
3117.88	2.85063e-05
3126.55	1.48038e-05
3135.23	5.01539e-06
3143.91	3.31041e-06
3152.59	3.37447e-06
3161.27	3.63836e-06
3169.95	4.64078e-06
3178.62	5.9222e-06
3187.3	5.9757e-06
3195.98	3.74752e-06
3204.66	1.77047e-06
3213.34	7.13201e-07
3222.01	7.15432e-07
3230.69	4.29618e-07
3239.37	4.7235e-07
3248.05	5.77779e-07
3256.73	4.12771e-07
3265.41	5.66162e-07
3274.08	5.79065e-07
3282.76	4.76596e-07
3291.44	4.95206e-07
3300.12	2.95157e-07
3308.8	3.37438e-07
3317.47	2.04911e-07
3326.15	-1.65195e-07
3334.83	1.85834e-07
3343.51	1.20044e-07
3352.19	2.43325e-07
3360.87	-1.16806e-07
3369.54	-5.3376e-08
3378.22	1.53241e-07
3386.9	2.08596e-07
3395.58	2.56545e-07
3404.26	7.46065e-08
3412.93	-2.26194e-07
3421.61	-4.7107e-08
3430.29	9.10781e-08
3438.97	1.35354e-07
3447.65	-5.49185e-08
3456.33	-6.86735e-08
3465	-2.85034e-07
3473.68	-1.13862e-08
3482.36	-3.34027e-07
3491.04	-4.85132e-07
3499.72	-1.12339e-07
3508.39	-2.87129e-07
3517.07	2.81993e-07
3525.75	3.59821e-07
3534.43	4.90971e-07
3543.11	-1.57499e-07
3551.79	-5.30745e-08
3560.46	-4.44417e-08
3569.14	-1.51477e-07
3577.82	-7.59871e-09
3586.5	-9.40857e-09
3595.18	-1.33122e-07
3603.85	-1.50886e-07
3612.53	-1.20538e-07
3621.21	4.57684e-07
3629.89	7.2913e-08
3638.57	5.34258e-07
3647.25	6.86527e-07
3655.92	1.11624e-06
3664.6	1.12793e-06
3673.28	4.29104e-07
3681.96	5.12538e-07
3690.64	4.76051e-07
3699.31	6.88512e-07
3707.99	6.00146e-07
3716.67	5.83118e-07
3725.35	6.67789e-07
3734.03	3.88813e-07
3742.71	3.96421e-07
3751.38	1.00432e-07
3760.06	1.36537e-07
3768.74	3.7983e-07
3777.42	3.51554e-07
3786.1	3.13994e-07
3794.77	4.23144e-07
3803.45	2.726e-07
3812.13	3.75164e-07
3820.81	1.74793e-07
3829.49	5.9708e-07
3838.17	3.50318e-07
3846.84	8.07399e-07
3855.52	3.95685e-07
3864.2	1.47736e-07
3872.88	2.69315e-07
3881.56	8.4668e-09
3890.23	-2.62517e-08
3898.91	6.11716e-09
3907.59	2.83119e-07
3916.27	4.6572e-07
3924.95	7.74562e-07
3933.63	1.4062e-06
3942.3	1.50088e-06
3950.98	1.20542e-06
3959.66	7.7876e-07
3968.34	1.00299e-06
