Infrared Spectrum: 4-CYCLOHEXENECARBONITRILE
Formula: C7 H9 N
CAS: 100-45-8
State: LIQUID (NEAT)
Class: COBLENTZ III
Instrument: PERKIN-ELMER 521 (GRATING)
Instrument parameters: FILTERS AT 3150, 2500, 2000, 1150, 700, 410 AND GRATING CHANGES AT 2000, 630 CM^-^1
Sampling: TRANSMISSION
Path length: SMEAR
Resolution: 4
Origin: STANDARD OIL OF OHIO
1/CM	TRANSMITTANCE
482.158	0.282
491.071	0.309
499.985	0.343
508.898	0.3689
517.812	0.373
526.725	0.3788
535.639	0.4729
544.552	0.5067
553.465	0.5586
562.379	0.5948
571.292	0.6178
580.206	0.6101
589.119	0.6187
598.032	0.7007
606.946	0.72
615.859	0.72
624.773	0.711
633.686	0.6644
642.6	0.2618
651.513	0.0955
660.426	0.3207
669.34	0.5206
678.253	0.6404
687.167	0.7149
696.08	0.733
704.993	0.6981
713.907	0.4803
722.82	0.7043
731.734	0.7812
740.647	0.6532
749.561	0.4844
758.474	0.8255
767.387	0.8548
776.301	0.8524
785.214	0.8352
794.128	0.835
803.041	0.8594
811.954	0.862
820.868	0.8675
829.781	0.8652
838.695	0.7977
847.608	0.791
856.522	0.7885
865.435	0.7896
874.348	0.7771
883.262	0.6385
892.175	0.7777
901.089	0.6847
910.002	0.4986
918.915	0.6605
927.829	0.7802
936.742	0.7781
945.656	0.578
954.569	0.5098
963.483	0.4598
972.396	0.5271
981.309	0.729
990.223	0.7627
999.136	0.7541
1008.05	0.7172
1016.96	0.8046
1025.88	0.7159
1034.79	0.5824
1043.7	0.6469
1052.62	0.7592
1061.53	0.7686
1070.44	0.6747
1079.36	0.8062
1088.27	0.8304
1097.18	0.842
1106.1	0.841
1115.01	0.8389
1123.92	0.8087
1132.84	0.475
1141.75	0.8157
1150.66	0.842
1159.58	0.8394
1168.49	0.7993
1177.4	0.737
1186.32	0.7141
1195.23	0.7
1204.14	0.8035
1213.06	0.8236
1221.97	0.8089
1230.89	0.7919
1239.8	0.822
1248.71	0.7316
1257.63	0.778
1266.54	0.6736
1275.45	0.7701
1284.37	0.7506
1293.28	0.804
1302.19	0.7792
1311.11	0.7294
1320.02	0.647
1328.93	0.7927
1337.85	0.7283
1346.76	0.6695
1355.67	0.743
1364.59	0.7961
1373.5	0.821
1382.41	0.7605
1391.33	0.7803
1400.24	0.7933
1409.15	0.7576
1418.07	0.6762
1426.98	0.3569
1435.89	0.1828
1444.81	0.3376
1453.72	0.4847
1462.63	0.7652
1471.55	0.829
1480.46	0.8557
1489.37	0.867
1498.29	0.8786
1507.2	0.883
1516.11	0.885
1525.03	0.884
1533.94	0.888
1542.85	0.889
1551.77	0.8877
1560.68	0.8797
1569.59	0.873
1578.51	0.8669
1587.42	0.8557
1596.34	0.8347
1605.25	0.7742
1614.16	0.7168
1623.08	0.7177
1631.99	0.741
1640.9	0.7046
1649.82	0.53
1658.73	0.8119
1667.64	0.8286
1676.56	0.842
1685.47	0.8422
1694.38	0.8602
1703.3	0.8568
1712.21	0.843
1721.12	0.8462
1730.04	0.857
1738.95	0.8693
1747.86	0.878
1756.78	0.878
1765.69	0.8759
1774.6	0.878
1783.52	0.8854
1792.43	0.892
1801.34	0.8929
1810.26	0.89
1819.17	0.8879
1828.08	0.887
1837	0.888
1845.91	0.888
1854.82	0.883
1863.74	0.88
1872.65	0.875
1881.56	0.8791
1890.48	0.889
1899.39	0.8889
1908.3	0.876
1917.22	0.869
1926.13	0.87
1935.04	0.871
1943.96	0.879
1952.87	0.883
1961.79	0.887
1970.7	0.888
1979.61	0.889
1988.53	0.889
1997.44	0.892
2006.35	0.892
2015.27	0.893
2024.18	0.894
2033.09	0.895
2042.01	0.897
2050.92	0.897
2059.83	0.899
2068.75	0.898
2077.66	0.893
2086.57	0.889
2095.49	0.888
2104.4	0.887
2113.31	0.89
2122.23	0.892
2131.14	0.89
2140.05	0.89
2148.97	0.89
2157.88	0.892
2166.79	0.89
2175.71	0.8801
2184.62	0.874
2193.53	0.874
2202.45	0.859
2211.36	0.848
2220.27	0.7893
2229.19	0.4744
2238.1	0.2079
2247.01	0.6051
2255.93	0.8189
2264.84	0.847
2273.75	0.848
2282.67	0.859
2291.58	0.871
2300.5	0.873
2309.41	0.878
2318.32	0.883
2327.24	0.879
2336.15	0.878
2345.06	0.875
2353.98	0.868
2362.89	0.866
2371.8	0.864
2380.72	0.864
2389.63	0.871
2398.54	0.874
2407.46	0.874
2416.37	0.874
2425.28	0.875
2434.2	0.879
2443.11	0.881
2452.02	0.88
2460.94	0.879
2469.85	0.878
2478.76	0.875
2487.68	0.874
2496.59	0.873
2505.5	0.873
2514.42	0.871
2523.33	0.87
2532.24	0.87
2541.16	0.871
2550.07	0.873
2558.98	0.873
2567.9	0.87
2576.81	0.873
2585.72	0.873
2594.64	0.874
2603.55	0.87
2612.46	0.868
2621.38	0.864
2630.29	0.859
2639.2	0.855
2648.12	0.854
2657.03	0.837
2665.95	0.837
2674.86	0.8559
2683.77	0.857
2692.69	0.856
2701.6	0.859
2710.51	0.856
2719.43	0.857
2728.34	0.86
2737.25	0.857
2746.17	0.854
2755.08	0.847
2763.99	0.826
2772.91	0.819
2781.82	0.823
2790.73	0.814
2799.65	0.8001
2808.56	0.7801
2817.47	0.7231
2826.39	0.6184
2835.3	0.339
2844.21	0.166
2853.13	0.3473
2862.04	0.343
2870.95	0.347
2879.87	0.3081
2888.78	0.2441
2897.69	0.199
2906.61	0.1751
2915.52	0.1201
2924.43	0.09
2933.35	0.098
2942.26	0.1519
2951.17	0.2009
2960.09	0.2697
2969	0.4037
2977.91	0.503
2986.83	0.535
2995.74	0.5809
3004.65	0.591
3013.57	0.5302
3022.48	0.3313
3031.4	0.201
3040.31	0.4163
3049.22	0.6276
3058.14	0.709
3067.05	0.7079
3075.96	0.757
3084.88	0.777
3093.79	0.8029
3102.7	0.808
3111.62	0.81
3120.53	0.817
3129.44	0.821
3138.36	0.814
3147.27	0.812
3156.18	0.809
3165.1	0.813
3174.01	0.818
3182.92	0.812
3191.84	0.805
3200.75	0.813
3209.66	0.814
3218.58	0.812
3227.49	0.81
3236.4	0.803
3245.32	0.799
3254.23	0.8
3263.14	0.802
3272.06	0.802
3280.97	0.7931
3289.88	0.777
3298.8	0.776
3307.71	0.777
3316.62	0.77
3325.54	0.769
3334.45	0.767
3343.36	0.767
3352.28	0.767
3361.19	0.769
3370.11	0.779
3379.02	0.786
3387.93	0.785
3396.85	0.781
3405.76	0.78
3414.67	0.77
3423.59	0.758
3432.5	0.748
3441.41	0.739
3450.33	0.746
3459.24	0.747
3468.15	0.748
3477.07	0.747
3485.98	0.742
3494.89	0.733
3503.81	0.723
3512.72	0.7101
3521.63	0.697
3530.55	0.687
3539.46	0.685
3548.37	0.699
3557.29	0.711
3566.2	0.732
3575.11	0.742
3584.03	0.742
3592.94	0.739
3601.85	0.732
3610.77	0.725
3619.68	0.722
3628.59	0.72
3637.51	0.72
3646.42	0.725
3655.33	0.739
3664.25	0.755
3673.16	0.7859
3682.07	0.81
3690.99	0.832
3699.9	0.8449
3708.81	0.854
3717.73	0.855
3726.64	0.856
3735.56	0.859
3744.47	0.857
3753.38	0.859
3762.3	0.859
3771.21	0.859
3780.12	0.859
3789.04	0.859
3797.95	0.859
3806.86	0.856
3815.78	0.854
3824.69	0.852
3833.6	0.855
3842.52	0.855
3851.43	0.854
3860.34	0.855
3869.26	0.854
3878.17	0.85
3887.08	0.848
3896	0.845
