Infrared Spectrum: BENZENE, ETHENYL-
Formula: C8 H8
CAS: 100-42-5
State: SOLUTION (2% IN CCl4 FOR 3800-1333, 2% IN CS2 FOR 1333-660, 2% IN CCl4 FOR 660-450 CM^-^1)
Class: COBLENTZ III
Instrument: DOW KBr FOREPRISM-GRATING
Instrument parameters: BLAZED AT 3.5, 12.0, 20.0 MICRON, CHANGED AT 5.0, 7.5, 14.9 MICRON
Sampling: TRANSMISSION
Path length: 0.011, 0.011, 0.011 CM
Resolution: 4
Origin: DOW CHEMICAL COMPANY
1/CM	TRANSMITTANCE
457.984	0.86
466.75	0.87
475.517	0.885
484.283	0.897
493.05	0.911
501.816	0.919
510.583	0.935
519.349	0.939
528.116	0.939
536.882	0.938
545.649	0.935
554.415	0.907
563.182	0.926
571.948	0.938
580.715	0.942
589.481	0.945
598.248	0.945
607.014	0.942
615.781	0.941
624.547	0.935
633.313	0.926
642.08	0.907
650.846	0.888
659.613	0.899
668.379	0.915
677.146	0.9
685.912	0.4879
694.679	0.765
703.445	0.942
712.212	0.969
720.978	0.979
729.745	0.98
738.511	0.982
747.278	0.978
756.044	0.939
764.811	0.6369
773.577	0.8221
782.343	0.956
791.11	0.972
799.876	0.976
808.643	0.98
817.409	0.976
826.176	0.954
834.942	0.912
843.709	0.826
852.475	0.813
861.242	0.847
870.008	0.875
878.775	0.905
887.541	0.903
896.308	0.6909
905.074	0.7101
913.841	0.941
922.607	0.968
931.374	0.979
940.14	0.983
948.906	0.98
957.673	0.976
966.439	0.954
975.206	0.896
983.972	0.587
992.739	0.926
1001.51	0.968
1010.27	0.954
1019.04	0.937
1027.8	0.978
1036.57	0.986
1045.34	0.991
1054.1	0.993
1062.87	0.99
1071.64	0.978
1080.4	0.927
1089.17	0.989
1097.94	0.991
1106.7	0.995
1115.47	1
1124.24	1.005
1133	1.001
1141.77	0.994
1150.54	0.984
1159.3	0.991
1168.07	0.991
1176.83	0.989
1185.6	0.994
1194.37	0.991
1203.13	0.978
1211.9	1.005
1220.67	1.01
1229.43	1.009
1238.2	1.006
1246.97	1.004
1255.73	1
1264.5	0.997
1273.27	0.993
1282.03	0.979
1290.8	0.975
1299.57	0.989
1308.33	0.986
1317.1	0.98
1325.86	0.987
1334.63	0.971
1343.4	0.984
1352.16	0.989
1360.93	0.99
1369.7	0.993
1378.46	0.991
1387.23	1.002
1396	0.984
1404.76	0.965
1413.53	0.919
1422.3	0.939
1431.06	0.96
1439.83	0.96
1448.6	0.867
1457.36	0.96
1466.13	0.954
1474.89	0.944
1483.66	0.919
1492.43	0.7688
1501.19	0.833
1509.96	0.788
1518.73	0.74
1527.49	0.684
1536.26	0.589
1545.03	0.504
1553.79	0.518
1562.56	0.616
1571.33	0.658
1580.09	0.6931
1588.86	0.758
1597.63	0.811
1606.39	0.903
1615.16	0.93
1623.92	0.8789
1632.69	0.941
1641.46	0.974
1650.22	0.978
1658.99	0.979
1667.76	0.978
1676.52	0.969
1685.29	0.972
1694.06	0.975
1702.82	0.974
1711.59	0.971
1720.36	0.968
1729.12	0.961
1737.89	0.956
1746.66	0.965
1755.42	0.974
1764.19	0.976
1772.95	0.979
1781.72	0.975
1790.49	0.961
1799.25	0.964
1808.02	0.93
1816.79	0.953
1825.55	0.976
1834.32	0.979
1843.09	0.98
1851.85	0.978
1860.62	0.964
1869.39	0.978
1878.15	0.972
1886.92	0.984
1895.69	0.987
1904.45	0.989
1913.22	0.986
1921.98	0.979
1930.75	0.969
1939.52	0.971
1948.28	0.978
1957.05	0.982
1965.82	0.984
1974.58	0.984
1983.35	0.983
1992.12	0.983
2000.88	0.989
2009.65	0.989
2018.42	0.987
2027.18	0.989
2035.95	0.989
2044.72	0.99
2053.48	0.99
2062.25	0.99
2071.01	0.9895
2079.78	0.99
2088.55	0.99
2097.31	0.991
2106.08	0.9905
2114.85	0.99
2123.61	0.989
2132.38	0.99
2141.15	0.989
2149.91	0.9896
2158.68	0.987
2167.45	0.9879
2176.21	0.986
2184.98	0.9805
2193.75	0.9849
2202.51	0.984
2211.28	0.984
2220.04	0.984
2228.81	0.9824
2237.58	0.9808
2246.34	0.979
2255.11	0.978
2263.88	0.974
2272.64	0.9684
2281.41	0.9634
2290.18	0.959
2298.94	0.956
2307.71	0.9566
2316.48	0.959
2325.24	0.96
2334.01	0.9686
2342.78	0.972
2351.54	0.975
2360.31	0.975
2369.08	0.976
2377.84	0.9754
2386.61	0.9744
2395.37	0.9727
2404.14	0.972
2412.91	0.972
2421.67	0.972
2430.44	0.9733
2439.21	0.974
2447.97	0.972
2456.74	0.971
2465.51	0.971
2474.27	0.969
2483.04	0.969
2491.81	0.969
2500.57	0.968
2509.34	0.967
2518.11	0.965
2526.87	0.965
2535.64	0.965
2544.4	0.965
2553.17	0.964
2561.94	0.964
2570.7	0.964
2579.47	0.9633
2588.24	0.963
2597	0.9616
2605.77	0.961
2614.54	0.961
2623.3	0.961
2632.07	0.9603
2640.84	0.96
2649.6	0.96
2658.37	0.96
2667.14	0.96
2675.9	0.96
2684.67	0.96
2693.43	0.96
2702.2	0.959
2710.97	0.959
2719.73	0.957
2728.5	0.957
2737.27	0.9562
2746.03	0.954
2754.8	0.954
2763.57	0.954
2772.33	0.954
2781.1	0.9532
2789.87	0.953
2798.63	0.953
2807.4	0.953
2816.17	0.953
2824.93	0.953
2833.7	0.953
2842.46	0.953
2851.23	0.9504
2860	0.948
2868.76	0.9452
2877.53	0.9424
2886.3	0.944
2895.06	0.941
2903.83	0.9406
2912.6	0.941
2921.36	0.9372
2930.13	0.9313
2938.9	0.93
2947.66	0.9273
2956.43	0.9243
2965.2	0.9163
2973.96	0.8976
2982.73	0.8929
2991.49	0.8987
3000.26	0.8803
3009.03	0.85
3017.79	0.8514
3026.56	0.7927
3035.33	0.8546
3044.09	0.8691
3052.86	0.8302
3061.63	0.8171
3070.39	0.8545
3079.16	0.788
3087.93	0.8278
3096.69	0.8889
3105.46	0.9133
3114.23	0.9288
3122.99	0.931
3131.76	0.934
3140.52	0.935
3149.29	0.935
3158.06	0.937
3166.82	0.938
3175.59	0.938
3184.36	0.938
3193.12	0.938
3201.89	0.938
3210.66	0.938
3219.42	0.938
3228.19	0.939
3236.96	0.939
3245.72	0.939
3254.49	0.941
3263.26	0.939
3272.02	0.941
3280.79	0.942
3289.55	0.942
3298.32	0.9439
3307.09	0.945
3315.85	0.944
3324.62	0.944
3333.39	0.945
3342.15	0.946
3350.92	0.946
3359.69	0.946
3368.45	0.945
3377.22	0.946
3385.99	0.946
3394.75	0.946
3403.52	0.948
3412.29	0.948
3421.05	0.948
3429.82	0.949
3438.58	0.95
3447.35	0.95
3456.12	0.952
3464.88	0.952
3473.65	0.952
3482.42	0.952
3491.18	0.952
3499.95	0.953
3508.72	0.953
3517.48	0.953
3526.25	0.953
3535.02	0.954
3543.78	0.954
3552.55	0.9559
3561.32	0.954
3570.08	0.954
3578.85	0.954
3587.61	0.954
3596.38	0.956
3605.15	0.956
3613.91	0.956
3622.68	0.9539
3631.45	0.956
3640.21	0.956
3648.98	0.9558
3657.75	0.9542
3666.51	0.9518
3675.28	0.9531
3684.05	0.956
3692.81	0.956
3701.58	0.957
3710.35	0.957
3719.11	0.9569
3727.88	0.9561
3736.64	0.956
3745.41	0.956
3754.18	0.956
3762.94	0.956
3771.71	0.956
3780.48	0.956
3789.24	0.956
3798.01	0.954
