Infrared Spectrum: Ethylbenzene
Formula: C6 H5 C2 H5
CAS: 100-41-4
State: gas
Melting point: -94.97 C
Boiling point: 136.2 C
Class: IUPAC A
Instrument: IFS66V (Bruker)
Instrument parameters: KBr Beam Splitter; MCT Detector; Multipass cell
Sampling: 1 L/min Flow
Resolution: 1.9290
Temperature: 23 C
Pressure: 101.3 Pa
Origin: NIST, Analytical Chemistry Division, 301-975-3108
cm-1	(micromol/mol)-1m-1 (base 10)
575.652	4.15179e-06
584.33	1.31042e-06
593.008	6.61983e-08
601.687	-2.7889e-07
610.365	-3.86024e-08
619.043	1.0955e-07
627.721	1.07317e-06
636.399	5.48669e-07
645.077	8.24903e-08
653.756	-1.51765e-08
662.434	1.13336e-06
671.112	9.22421e-06
679.79	5.41839e-05
688.468	0.000150466
697.147	0.000351912
705.825	0.000169666
714.503	9.52107e-05
723.181	7.86475e-05
731.859	9.60232e-05
740.537	0.000119597
749.216	0.000115698
757.894	8.66432e-05
766.572	5.97993e-05
775.25	4.02727e-05
783.928	2.79921e-05
792.607	1.5062e-05
801.285	8.94803e-06
809.963	4.99785e-06
818.641	2.46498e-06
827.319	1.17229e-06
835.997	4.39157e-07
844.676	1.91178e-07
853.354	-1.35936e-07
862.032	-2.71658e-07
870.71	6.0048e-07
879.388	2.29807e-06
888.066	5.25694e-06
896.745	7.43867e-06
905.423	9.1685e-06
914.101	5.92747e-06
922.779	1.2465e-06
931.457	2.03733e-08
940.136	-2.07657e-08
948.814	1.15967e-06
957.492	9.54405e-06
966.17	1.17137e-05
974.848	6.73556e-06
983.526	2.01332e-06
992.205	2.04938e-06
1000.88	3.67096e-06
1009.56	4.61096e-06
1018.24	1.17208e-05
1026.92	3.03077e-05
1035.6	3.27888e-05
1044.27	2.01347e-05
1052.95	1.71542e-05
1061.63	2.73064e-05
1070.31	2.82136e-05
1078.99	1.03016e-05
1087.66	1.03572e-05
1096.34	1.15387e-05
1105.02	9.07811e-06
1113.7	7.05873e-06
1122.38	3.54242e-06
1131.06	1.52788e-06
1139.73	9.0114e-07
1148.41	6.02096e-07
1157.09	1.30908e-07
1165.77	6.59828e-10
1174.45	-2.20867e-08
1183.12	4.08067e-07
1191.8	8.90812e-07
1200.48	1.26043e-06
1209.16	8.96543e-07
1217.84	1.3695e-07
1226.52	1.78325e-07
1235.19	1.85573e-06
1243.87	2.43362e-06
1252.55	1.81528e-06
1261.23	1.66143e-06
1269.91	1.62889e-06
1278.58	2.12201e-06
1287.26	3.2887e-06
1295.94	4.84094e-06
1304.62	5.85509e-06
1313.3	7.61868e-06
1321.98	1.67283e-05
1330.65	2.14545e-05
1339.33	1.42032e-05
1348.01	5.61679e-06
1356.69	3.5672e-06
1365.37	5.8032e-06
1374.04	1.20428e-05
1382.72	1.74617e-05
1391.4	1.37108e-05
1400.08	7.30678e-06
1408.76	5.39992e-06
1417.44	6.18601e-06
1426.11	8.30857e-06
1434.79	1.4044e-05
1443.47	3.59437e-05
1452.15	7.50743e-05
1460.83	8.32122e-05
1469.5	6.76231e-05
1478.18	3.53546e-05
1486.86	3.49278e-05
1495.54	9.38427e-05
1504.22	8.72285e-05
1512.9	1.73866e-05
1521.57	5.68814e-06
1530.25	6.19725e-06
1538.93	4.846e-06
1547.61	3.7334e-06
1556.29	3.35344e-06
1564.96	3.24133e-06
1573.64	3.69177e-06
1582.32	6.16716e-06
1591	1.42165e-05
1599.68	3.28193e-05
1608.36	5.0808e-05
1617.03	4.01852e-05
1625.71	6.32433e-06
1634.39	2.56118e-06
1643.07	2.75835e-06
1651.75	3.48717e-06
1660.42	3.62942e-06
1669.1	2.78076e-06
1677.78	2.26394e-06
1686.46	1.26777e-06
1695.14	5.21198e-07
1703.82	6.98156e-07
1712.49	9.00392e-07
1721.17	1.70068e-06
1729.85	4.30337e-06
1738.53	6.11735e-06
1747.21	5.94642e-06
1755.88	2.02514e-06
1764.56	5.42702e-07
1773.24	1.06905e-06
1781.92	1.70058e-06
1790.6	8.69846e-06
1799.28	1.49214e-05
1807.95	9.21222e-06
1816.63	2.83305e-06
1825.31	1.97733e-06
1833.99	7.61126e-07
1842.67	1.14351e-06
1851.34	3.78731e-06
1860.02	9.05052e-06
1868.7	1.10481e-05
1877.38	1.05767e-05
1886.06	7.91429e-06
1894.74	9.77021e-07
1903.41	4.00951e-07
1912.09	6.79854e-07
1920.77	2.33102e-06
1929.45	6.96351e-06
1938.13	1.11673e-05
1946.8	1.39503e-05
1955.48	1.0066e-05
1964.16	7.06465e-06
1972.84	3.92117e-07
1981.52	4.55647e-07
1990.2	3.80497e-07
1998.87	1.29146e-07
2007.55	-2.80302e-09
2016.23	1.479e-07
2024.91	5.11174e-07
2033.59	4.76517e-07
2042.26	2.14582e-07
2050.94	-1.8579e-07
2059.62	-3.58731e-07
2068.3	-4.31102e-07
2076.98	-3.70439e-07
2085.66	-3.0358e-07
2094.33	-2.11878e-07
2103.01	-1.44964e-07
2111.69	-1.45846e-07
2120.37	-3.31819e-08
2129.05	5.34974e-08
2137.72	-6.47532e-08
2146.4	-2.61189e-08
2155.08	-9.1671e-09
2163.76	9.00726e-08
2172.44	5.08527e-08
2181.12	1.07955e-07
2189.79	1.13811e-07
2198.47	3.52392e-08
2207.15	2.40011e-07
2215.83	4.70339e-07
2224.51	5.7801e-07
2233.18	6.43579e-07
2241.86	6.56286e-07
2250.54	5.36875e-07
2259.22	6.02209e-07
2267.9	7.69592e-07
2276.58	1.04072e-06
2285.25	1.09745e-06
2293.93	8.90216e-07
2302.61	6.96488e-07
2311.29	1.51121e-06
2319.97	1.76809e-06
2328.64	1.19818e-06
2337.32	1.92365e-06
2346	2.06409e-06
2354.68	1.18217e-06
2363.36	6.94837e-07
2372.04	8.9818e-07
2380.71	7.64264e-07
2389.39	4.24025e-07
2398.07	2.67991e-07
2406.75	5.02899e-07
2415.43	6.87835e-07
2424.1	7.15148e-07
2432.78	1.06379e-06
2441.46	1.26034e-06
2450.14	6.81561e-07
2458.82	1.84701e-07
2467.5	1.14896e-07
2476.17	2.3848e-07
2484.85	2.39201e-07
2493.53	3.50198e-07
2502.21	4.06436e-07
2510.89	5.10849e-07
2519.56	6.27393e-07
2528.24	8.88113e-07
2536.92	8.80658e-07
2545.6	7.18973e-07
2554.28	6.71319e-07
2562.96	6.49356e-07
2571.63	6.5631e-07
2580.31	7.73755e-07
2588.99	9.18865e-07
2597.67	1.19068e-06
2606.35	1.78923e-06
2615.02	1.79393e-06
2623.7	1.85196e-06
2632.38	2.69881e-06
2641.06	3.25126e-06
2649.74	2.49809e-06
2658.42	1.22718e-06
2667.09	7.86959e-07
2675.77	6.70375e-07
2684.45	6.25119e-07
2693.13	9.03982e-07
2701.81	1.50775e-06
2710.48	1.33639e-06
2719.16	1.02457e-06
2727.84	1.75554e-06
2736.52	3.60501e-06
2745.2	3.292e-06
2753.88	2.38282e-06
2762.55	2.69564e-06
2771.23	3.57607e-06
2779.91	5.09445e-06
2788.59	6.14013e-06
2797.27	5.70091e-06
2805.94	4.8706e-06
2814.62	5.41955e-06
2823.3	7.42718e-06
2831.98	1.06667e-05
2840.66	1.44542e-05
2849.34	1.89194e-05
2858.01	3.21746e-05
2866.69	6.42502e-05
2875.37	0.000108756
2884.05	0.000135588
2892.73	0.000116377
2901.4	9.28727e-05
2910.08	8.82575e-05
2918.76	7.98811e-05
2927.44	9.94656e-05
2936.12	0.000167138
2944.8	0.0002034
2953.47	0.000163642
2962.15	0.00015604
2970.83	0.000415644
2979.51	0.000427726
2988.19	0.000135177
2996.86	5.21416e-05
3005.54	4.44616e-05
3014.22	5.05672e-05
3022.9	9.13513e-05
3031.58	0.000211589
3040.26	0.00023488
3048.93	0.000132561
3057.61	6.60882e-05
3066.29	0.0001161
3074.97	0.000166864
3083.65	0.000131947
3092.32	8.30386e-05
3101	6.72774e-05
3109.68	4.17189e-05
3118.36	2.77786e-05
3127.04	1.37045e-05
3135.72	4.66414e-06
3144.39	3.21524e-06
3153.07	3.25867e-06
3161.75	3.61575e-06
3170.43	4.66115e-06
3179.11	5.93717e-06
3187.78	5.77906e-06
3196.46	3.66892e-06
3205.14	1.4783e-06
3213.82	7.47288e-07
3222.5	4.62651e-07
3231.18	3.58816e-07
3239.85	4.46311e-07
3248.53	6.30432e-07
3257.21	5.26279e-07
3265.89	6.86528e-07
3274.57	6.89805e-07
3283.24	5.16462e-07
3291.92	4.41261e-07
3300.6	3.96482e-07
3309.28	3.15596e-07
3317.96	9.85203e-08
3326.64	-2.85149e-08
3335.31	6.48091e-08
3343.99	4.2912e-08
3352.67	4.84535e-08
3361.35	-6.39519e-08
3370.03	-8.37081e-08
3378.7	1.42775e-07
3387.38	7.0863e-08
3396.06	1.39095e-07
3404.74	7.17748e-08
3413.42	-1.72388e-07
3422.1	-1.15735e-07
3430.77	3.56621e-08
3439.45	6.57909e-08
3448.13	-8.04435e-09
3456.81	-1.09206e-07
3465.49	-2.45886e-07
3474.16	-1.5694e-07
3482.84	-3.26685e-07
3491.52	-4.13636e-07
3500.2	-1.70175e-07
3508.88	-1.39503e-07
3517.56	1.83735e-07
3526.23	3.72705e-07
3534.91	4.34804e-07
3543.59	-1.18556e-07
3552.27	-8.98625e-08
3560.95	-1.39164e-07
3569.62	-1.48442e-07
3578.3	-7.12027e-08
3586.98	-5.07453e-08
3595.66	-5.37776e-09
3604.34	-5.31427e-08
3613.02	1.13336e-07
3621.69	4.46254e-07
3630.37	3.23204e-07
3639.05	5.72339e-07
3647.73	7.04623e-07
3656.41	9.96697e-07
3665.08	1.08684e-06
3673.76	3.54761e-07
3682.44	4.32128e-07
3691.12	4.77726e-07
3699.8	6.39012e-07
3708.48	5.3633e-07
3717.15	7.01694e-07
3725.83	6.02353e-07
3734.51	2.16996e-07
3743.19	2.22902e-07
3751.87	-1.34883e-07
3760.54	2.9062e-07
3769.22	3.18435e-07
3777.9	4.26397e-07
3786.58	3.51511e-07
3795.26	3.29e-07
3803.94	3.11907e-07
3812.61	4.22271e-07
3821.29	3.51524e-07
3829.97	5.46546e-07
3838.65	5.21618e-07
3847.33	7.8133e-07
3856	3.97063e-07
3864.68	1.19372e-07
3873.36	8.7326e-08
3882.04	-3.36458e-08
3890.72	-1.74921e-07
3899.4	-1.38524e-07
3908.07	3.18358e-07
3916.75	4.50657e-07
3925.43	8.73481e-07
3934.11	1.48373e-06
3942.79	1.55958e-06
3951.46	1.21048e-06
3960.14	8.53381e-07
3968.82	1.01622e-06
