Infrared Spectrum: Ethylbenzene
Formula: C6 H5 C2 H5
CAS: 100-41-4
State: gas
Melting point: -94.97 C
Boiling point: 136.2 C
Class: IUPAC A
Instrument: IFS66V (Bruker)
Instrument parameters: KBr Beam Splitter; MCT Detector; Multipass cell
Sampling: 1 L/min Flow
Resolution: 0.1250
Temperature: 23 C
Pressure: 101.3 Pa
Origin: NIST, Analytical Chemistry Division, 301-975-3108
cm-1	(micromol/mol)-1m-1 (base 10)
575.05	5.80627e-06
583.608	-6.78364e-07
592.165	-3.88555e-07
600.723	1.02905e-06
609.281	3.9325e-08
617.838	6.06539e-07
626.396	1.69625e-07
634.954	2.94236e-07
643.511	4.08384e-08
652.069	8.3953e-07
660.626	8.5558e-07
669.184	5.86431e-06
677.742	3.78097e-05
686.299	0.000122935
694.857	0.000221195
703.415	0.000179451
711.972	0.000115582
720.53	7.53378e-05
729.088	8.9764e-05
737.645	0.000113731
746.203	0.000115375
754.761	9.84793e-05
763.318	6.87314e-05
771.876	6.63174e-05
780.434	3.29725e-05
788.991	1.97827e-05
797.549	1.15683e-05
806.106	5.80403e-06
814.664	3.69354e-06
823.222	1.77766e-06
831.779	8.27292e-07
840.337	6.11307e-07
848.895	1.73482e-07
857.452	-3.53276e-07
866.01	-1.1094e-07
874.568	1.37873e-06
883.125	3.31921e-06
891.683	6.46822e-06
900.241	8.97263e-06
908.798	7.55241e-06
917.356	4.09818e-06
925.914	2.79558e-07
934.471	-3.78128e-07
943.029	2.84458e-07
951.586	2.54426e-06
960.144	1.04125e-05
968.702	1.29173e-05
977.259	4.72558e-06
985.817	1.26025e-06
994.375	2.23118e-06
1002.93	3.55444e-06
1011.49	5.37399e-06
1020.05	1.5607e-05
1028.61	2.83076e-05
1037.16	3.16048e-05
1045.72	1.8182e-05
1054.28	1.86738e-05
1062.84	2.49371e-05
1071.39	2.67406e-05
1079.95	1.06298e-05
1088.51	9.94934e-06
1097.07	1.11261e-05
1105.62	8.77519e-06
1114.18	7.03548e-06
1122.74	3.20599e-06
1131.3	1.3144e-06
1139.85	1.08795e-06
1148.41	6.0766e-07
1156.97	5.73113e-08
1165.53	5.91294e-08
1174.09	-2.12195e-07
1182.64	1.14936e-07
1191.2	9.09638e-07
1199.76	1.41045e-06
1208.32	9.32643e-07
1216.87	2.72654e-07
1225.43	1.26314e-07
1233.99	1.86641e-06
1242.55	2.076e-06
1251.1	1.90275e-06
1259.66	1.52874e-06
1268.22	1.73116e-06
1276.78	1.87837e-06
1285.33	2.98232e-06
1293.89	4.74279e-06
1302.45	5.7299e-06
1311.01	6.52606e-06
1319.57	1.32214e-05
1328.12	2.07498e-05
1336.68	1.75372e-05
1345.24	7.05166e-06
1353.8	3.53759e-06
1362.35	4.00455e-06
1370.91	9.60313e-06
1379.47	1.98411e-05
1388.03	1.55587e-05
1396.58	9.61158e-06
1405.14	5.79614e-06
1413.7	5.75583e-06
1422.26	7.40236e-06
1430.81	1.03781e-05
1439.37	2.25749e-05
1447.93	5.65611e-05
1456.49	7.76061e-05
1465.05	8.413e-05
1473.6	4.62648e-05
1482.16	2.71955e-05
1490.72	6.29623e-05
1499.28	0.000103614
1507.83	6.82632e-05
1516.39	7.94715e-06
1524.95	6.04371e-06
1533.51	5.43702e-06
1542.06	3.89726e-06
1550.62	3.5899e-06
1559.18	3.17344e-06
1567.74	3.04944e-06
1576.29	2.86405e-06
1584.85	7.4189e-06
1593.41	1.65198e-05
1601.97	4.30295e-05
1610.53	5.17591e-05
1619.08	3.03452e-05
1627.64	4.21217e-06
1636.2	2.51527e-06
1644.76	2.97779e-06
1653.31	2.0447e-06
1661.87	3.62755e-06
1670.43	2.82353e-06
1678.99	2.1819e-06
1687.54	1.31004e-06
1696.1	3.16358e-08
1704.66	7.82918e-07
1713.22	8.43836e-07
1721.77	1.86033e-06
1730.33	4.65447e-06
1738.89	6.02169e-06
1747.45	5.86099e-06
1756.01	2.05316e-06
1764.56	5.00551e-07
1773.12	1.28721e-06
1781.68	1.54188e-06
1790.24	8.31507e-06
1798.79	1.48995e-05
1807.35	9.93328e-06
1815.91	3.01176e-06
1824.47	2.13416e-06
1833.02	9.89111e-07
1841.58	9.56834e-07
1850.14	3.40557e-06
1858.7	8.76848e-06
1867.25	9.80293e-06
1875.81	1.18598e-05
1884.37	7.02104e-06
1892.93	1.55652e-06
1901.49	3.25487e-07
1910.04	5.15045e-07
1918.6	1.68475e-06
1927.16	5.17008e-06
1935.72	1.1909e-05
1944.27	1.3337e-05
1952.83	1.21559e-05
1961.39	6.61614e-06
1969.95	1.10279e-06
1978.5	3.14044e-07
1987.06	3.27984e-07
1995.62	2.63561e-07
2004.18	-2.57357e-07
2012.73	-1.02636e-07
2021.29	2.13515e-07
2029.85	4.98719e-07
2038.41	3.79387e-07
2046.97	-4.93347e-09
2055.52	-1.57138e-07
2064.08	-4.03205e-07
2072.64	-4.581e-07
2081.2	-3.246e-07
2089.75	-2.49841e-07
2098.31	-2.8358e-07
2106.87	-2.34423e-07
2115.43	4.09193e-08
2123.98	9.16783e-08
2132.54	-5.02961e-08
2141.1	2.23955e-08
2149.66	-8.24253e-08
2158.21	-1.32945e-07
2166.77	1.70095e-07
2175.33	2.85419e-07
2183.89	2.15606e-08
2192.45	7.72417e-08
2201	3.14694e-08
2209.56	2.67779e-07
2218.12	5.56203e-07
2226.68	4.5425e-07
2235.23	7.76937e-07
2243.79	7.38442e-07
2252.35	4.61092e-07
2260.91	5.94729e-07
2269.46	7.54146e-07
2278.02	1.21491e-06
2286.58	1.03717e-06
2295.14	8.71053e-07
2303.69	6.96365e-07
2312.25	1.40557e-06
2320.81	1.89954e-06
2329.37	1.52413e-06
2337.93	2.06678e-06
2346.48	2.09236e-06
2355.04	1.30331e-06
2363.6	1.39945e-06
2372.16	1.23599e-06
2380.71	6.78225e-07
2389.27	4.84691e-07
2397.83	2.28527e-07
2406.39	5.49669e-07
2414.94	5.89288e-07
2423.5	8.14175e-07
2432.06	9.98647e-07
2440.62	1.33105e-06
2449.17	7.72078e-07
2457.73	1.12938e-07
2466.29	3.08935e-07
2474.85	2.27978e-07
2483.41	2.12897e-07
2491.96	3.7261e-07
2500.52	4.25005e-07
2509.08	5.12886e-07
2517.64	7.18583e-07
2526.19	9.88031e-07
2534.75	1.08202e-06
2543.31	6.99967e-07
2551.87	6.70501e-07
2560.42	7.75216e-07
2568.98	7.46461e-07
2577.54	4.10262e-07
2586.1	9.40188e-07
2594.65	1.23773e-06
2603.21	1.39608e-06
2611.77	1.80658e-06
2620.33	1.74658e-06
2628.89	2.27468e-06
2637.44	3.19975e-06
2646	3.00446e-06
2654.56	1.74342e-06
2663.12	8.73727e-07
2671.67	7.18979e-07
2680.23	8.09322e-07
2688.79	5.50597e-07
2697.35	1.21392e-06
2705.9	1.44638e-06
2714.46	7.09766e-07
2723.02	9.98634e-07
2731.58	2.47316e-06
2740.13	3.48525e-06
2748.69	3.01164e-06
2757.25	2.38223e-06
2765.81	2.85808e-06
2774.37	3.74774e-06
2782.92	5.37022e-06
2791.48	6.36641e-06
2800.04	5.28297e-06
2808.6	4.84539e-06
2817.15	6.00277e-06
2825.71	8.24823e-06
2834.27	1.10216e-05
2842.83	1.52722e-05
2851.38	2.14284e-05
2859.94	3.7057e-05
2868.5	7.24444e-05
2877.06	0.00012478
2885.61	0.000151677
2894.17	0.000111758
2902.73	9.2559e-05
2911.29	8.93611e-05
2919.85	7.89709e-05
2928.4	0.000104569
2936.96	0.000174854
2945.52	0.000198919
2954.08	0.000160254
2962.63	0.000164238
2971.19	0.000415976
2979.75	0.000430717
2988.31	0.000131842
2996.86	5.1995e-05
3005.42	4.46797e-05
3013.98	4.94002e-05
3022.54	8.72364e-05
3031.09	0.000208945
3039.65	0.000235632
3048.21	0.000143665
3056.77	6.58844e-05
3065.33	0.000105894
3073.88	0.000156038
3082.44	0.000144976
3091	8.89645e-05
3099.56	7.1039e-05
3108.11	4.48013e-05
3116.67	3.02308e-05
3125.23	1.78863e-05
3133.79	5.68779e-06
3142.34	3.30783e-06
3150.9	3.18702e-06
3159.46	3.48996e-06
3168.02	4.25468e-06
3176.57	5.73993e-06
3185.13	6.08129e-06
3193.69	4.69675e-06
3202.25	1.55856e-06
3210.81	8.86738e-07
3219.36	5.06203e-07
3227.92	4.94592e-07
3236.48	3.89551e-07
3245.04	3.64844e-07
3253.59	6.32588e-07
3262.15	9.63273e-07
3270.71	6.71897e-07
3279.27	6.17122e-07
3287.82	3.22908e-07
3296.38	4.28942e-07
3304.94	5.07619e-07
3313.5	-1.94896e-07
3322.05	6.25568e-08
3330.61	2.59747e-07
3339.17	5.78588e-08
3347.73	-3.34726e-07
3356.29	4.64644e-08
3364.84	1.94992e-07
3373.4	-1.43641e-07
3381.96	-1.63957e-08
3390.52	2.98081e-07
3399.07	-8.58877e-08
3407.63	7.71694e-08
3416.19	-2.00796e-07
3424.75	-4.80888e-07
3433.3	-2.59491e-07
3441.86	-4.45891e-08
3450.42	-1.12263e-07
3458.98	-1.2608e-07
3467.53	-3.13862e-08
3476.09	1.18886e-07
3484.65	-1.23091e-07
3493.21	-9.66677e-08
3501.77	-1.25683e-07
3510.32	1.15319e-07
3518.88	6.80269e-07
3527.44	5.17655e-07
3536	5.27027e-07
3544.55	-4.32531e-07
3553.11	-3.24489e-07
3561.67	-6.92242e-08
3570.23	-1.10005e-07
3578.78	1.21221e-07
3587.34	-2.02893e-07
3595.9	1.16854e-07
3604.46	-1.19747e-08
3613.01	2.66388e-07
3621.57	4.61851e-07
3630.13	2.50159e-07
3638.69	6.03786e-07
3647.25	8.72467e-07
3655.8	1.02607e-06
3664.36	1.20301e-06
3672.92	5.01026e-07
3681.48	6.08227e-07
3690.03	6.41279e-07
3698.59	7.4147e-07
3707.15	6.10252e-07
3715.71	5.34438e-07
3724.26	9.88621e-07
3732.82	4.45511e-07
3741.38	1.71693e-07
3749.94	4.70833e-07
3758.49	3.75855e-07
3767.05	5.14505e-07
3775.61	2.33859e-08
3784.17	3.80363e-07
3792.73	4.34782e-07
3801.28	-2.46032e-07
3809.84	3.92918e-07
3818.4	3.50118e-07
3826.96	4.13741e-07
3835.51	6.5475e-07
3844.07	6.56849e-07
3852.63	5.42955e-07
3861.19	3.8521e-07
3869.74	1.11344e-07
3878.3	2.96614e-07
3886.86	-2.80191e-07
3895.42	-4.4846e-08
3903.97	-2.13932e-08
3912.53	5.46656e-07
3921.09	5.48962e-07
3929.65	1.25284e-06
3938.21	1.37793e-06
3946.76	1.71841e-06
3955.32	8.23192e-07
3963.88	7.80998e-07
3972.44	8.94981e-07
