Infrared Spectrum: Ethylbenzene
Formula: C6 H5 C2 H5
CAS: 100-41-4
State: gas
Melting point: -94.97 C
Boiling point: 136.2 C
Class: IUPAC A
Instrument: IFS66V (Bruker)
Instrument parameters: KBr Beam Splitter; MCT Detector; Multipass cell
Sampling: 1 L/min Flow
Resolution: 1.9290
Temperature: 23 C
Pressure: 101.3 Pa
Origin: NIST, Analytical Chemistry Division, 301-975-3108
cm-1	(micromol/mol)-1m-1 (base 10)
575.652	4.33792e-06
584.33	1.28853e-06
593.008	4.12586e-08
601.687	-1.97006e-07
610.365	-2.08826e-08
619.043	8.37185e-08
627.721	9.4676e-07
636.399	6.14825e-07
645.077	4.24527e-08
653.756	4.40366e-08
662.434	1.12503e-06
671.112	9.31496e-06
679.79	5.42869e-05
688.468	0.000149574
697.147	0.000334906
705.825	0.00016921
714.503	9.54869e-05
723.181	7.86633e-05
731.859	9.60835e-05
740.537	0.000119322
749.216	0.000117172
757.894	8.66308e-05
766.572	5.99052e-05
775.25	4.05389e-05
783.928	2.80062e-05
792.607	1.50862e-05
801.285	8.97654e-06
809.963	4.97637e-06
818.641	2.50248e-06
827.319	1.19152e-06
835.997	4.71856e-07
844.676	1.70417e-07
853.354	-1.4033e-07
862.032	-2.49183e-07
870.71	6.00531e-07
879.388	2.29728e-06
888.066	5.25171e-06
896.745	7.44911e-06
905.423	9.9463e-06
914.101	5.88993e-06
922.779	1.27024e-06
931.457	-3.01993e-09
940.136	-2.03696e-08
948.814	1.17427e-06
957.492	9.47437e-06
966.17	1.18214e-05
974.848	6.76932e-06
983.526	2.02223e-06
992.205	2.05457e-06
1000.88	3.63315e-06
1009.56	4.63499e-06
1018.24	1.17982e-05
1026.92	3.01861e-05
1035.6	3.26679e-05
1044.27	2.01809e-05
1052.95	1.72548e-05
1061.63	2.73339e-05
1070.31	2.78654e-05
1078.99	1.03767e-05
1087.66	1.03722e-05
1096.34	1.15129e-05
1105.02	9.03425e-06
1113.7	7.04636e-06
1122.38	3.55295e-06
1131.06	1.57149e-06
1139.73	8.92555e-07
1148.41	6.08982e-07
1157.09	1.30687e-07
1165.77	-6.5528e-10
1174.45	-1.31693e-08
1183.12	4.10848e-07
1191.8	8.94094e-07
1200.48	1.26143e-06
1209.16	9.09511e-07
1217.84	1.43773e-07
1226.52	1.83161e-07
1235.19	1.84633e-06
1243.87	2.41697e-06
1252.55	1.8156e-06
1261.23	1.65479e-06
1269.91	1.62277e-06
1278.58	2.10809e-06
1287.26	3.29007e-06
1295.94	4.85894e-06
1304.62	5.86254e-06
1313.3	7.64437e-06
1321.98	1.67285e-05
1330.65	2.13886e-05
1339.33	1.42066e-05
1348.01	5.62218e-06
1356.69	3.54954e-06
1365.37	5.83487e-06
1374.04	1.20602e-05
1382.72	1.75981e-05
1391.4	1.36922e-05
1400.08	7.319e-06
1408.76	5.41994e-06
1417.44	6.16773e-06
1426.11	8.3203e-06
1434.79	1.40569e-05
1443.47	3.60047e-05
1452.15	7.48968e-05
1460.83	8.3661e-05
1469.5	6.7772e-05
1478.18	3.53735e-05
1486.86	3.51841e-05
1495.54	9.31447e-05
1504.22	8.67073e-05
1512.9	1.77016e-05
1521.57	5.74167e-06
1530.25	6.17731e-06
1538.93	4.86694e-06
1547.61	3.739e-06
1556.29	3.30092e-06
1564.96	3.25555e-06
1573.64	3.69124e-06
1582.32	6.18056e-06
1591	1.41863e-05
1599.68	3.27453e-05
1608.36	5.0979e-05
1617.03	3.99487e-05
1625.71	6.37961e-06
1634.39	2.53613e-06
1643.07	2.75593e-06
1651.75	3.4683e-06
1660.42	3.62764e-06
1669.1	2.82331e-06
1677.78	2.28009e-06
1686.46	1.22874e-06
1695.14	5.43955e-07
1703.82	7.13294e-07
1712.49	8.95597e-07
1721.17	1.70685e-06
1729.85	4.3034e-06
1738.53	6.06968e-06
1747.21	5.93038e-06
1755.88	2.02021e-06
1764.56	5.41254e-07
1773.24	1.07872e-06
1781.92	1.71559e-06
1790.6	8.68566e-06
1799.28	1.45024e-05
1807.95	9.29128e-06
1816.63	2.87249e-06
1825.31	1.99279e-06
1833.99	7.72353e-07
1842.67	1.12835e-06
1851.34	3.80333e-06
1860.02	9.00889e-06
1868.7	1.09684e-05
1877.38	1.0548e-05
1886.06	7.79432e-06
1894.74	9.97349e-07
1903.41	3.96467e-07
1912.09	6.86077e-07
1920.77	2.33836e-06
1929.45	6.97257e-06
1938.13	1.112e-05
1946.8	1.39315e-05
1955.48	1.00917e-05
1964.16	6.97763e-06
1972.84	4.08324e-07
1981.52	4.58251e-07
1990.2	3.73094e-07
1998.87	1.35846e-07
2007.55	-1.21702e-08
2016.23	1.52844e-07
2024.91	4.92656e-07
2033.59	4.81093e-07
2042.26	2.08808e-07
2050.94	-1.82035e-07
2059.62	-3.55604e-07
2068.3	-4.23e-07
2076.98	-3.73495e-07
2085.66	-3.06483e-07
2094.33	-2.18564e-07
2103.01	-1.47547e-07
2111.69	-1.56486e-07
2120.37	-3.20655e-08
2129.05	5.00128e-08
2137.72	-6.0982e-08
2146.4	-2.47028e-08
2155.08	-5.67834e-09
2163.76	7.99174e-08
2172.44	6.03867e-08
2181.12	1.09239e-07
2189.79	1.09416e-07
2198.47	3.15389e-08
2207.15	2.40679e-07
2215.83	4.65154e-07
2224.51	5.80603e-07
2233.18	6.48547e-07
2241.86	6.54731e-07
2250.54	5.40057e-07
2259.22	5.92231e-07
2267.9	7.62377e-07
2276.58	1.0471e-06
2285.25	1.09607e-06
2293.93	8.93946e-07
2302.61	7.12034e-07
2311.29	1.50929e-06
2319.97	1.73218e-06
2328.64	1.21665e-06
2337.32	1.9196e-06
2346	2.07042e-06
2354.68	1.17345e-06
2363.36	6.89921e-07
2372.04	8.86098e-07
2380.71	7.5752e-07
2389.39	4.13975e-07
2398.07	2.69865e-07
2406.75	4.98894e-07
2415.43	7.02658e-07
2424.1	7.06907e-07
2432.78	1.07059e-06
2441.46	1.26672e-06
2450.14	6.83026e-07
2458.82	1.82941e-07
2467.5	1.23416e-07
2476.17	2.2795e-07
2484.85	2.41293e-07
2493.53	3.50377e-07
2502.21	4.1061e-07
2510.89	5.14725e-07
2519.56	6.33434e-07
2528.24	8.83997e-07
2536.92	8.8302e-07
2545.6	7.153e-07
2554.28	6.75288e-07
2562.96	6.60015e-07
2571.63	6.63525e-07
2580.31	7.65649e-07
2588.99	9.11304e-07
2597.67	1.18405e-06
2606.35	1.77787e-06
2615.02	1.79171e-06
2623.7	1.85436e-06
2632.38	2.70673e-06
2641.06	3.25353e-06
2649.74	2.48878e-06
2658.42	1.24029e-06
2667.09	7.78431e-07
2675.77	6.79997e-07
2684.45	6.26803e-07
2693.13	9.05163e-07
2701.81	1.49946e-06
2710.48	1.33632e-06
2719.16	1.02233e-06
2727.84	1.74879e-06
2736.52	3.53719e-06
2745.2	3.3007e-06
2753.88	2.40097e-06
2762.55	2.70639e-06
2771.23	3.5886e-06
2779.91	5.08919e-06
2788.59	6.13819e-06
2797.27	5.71842e-06
2805.94	4.85448e-06
2814.62	5.42083e-06
2823.3	7.44199e-06
2831.98	1.06569e-05
2840.66	1.44355e-05
2849.34	1.89783e-05
2858.01	3.2223e-05
2866.69	6.42475e-05
2875.37	0.000109077
2884.05	0.000136614
2892.73	0.000116319
2901.4	9.29765e-05
2910.08	8.84697e-05
2918.76	7.99739e-05
2927.44	9.95565e-05
2936.12	0.000166952
2944.8	0.000204098
2953.47	0.000163392
2962.15	0.000157166
2970.83	0.000413747
2979.51	0.000425021
2988.19	0.000136031
2996.86	5.22588e-05
3005.54	4.44064e-05
3014.22	5.08016e-05
3022.9	9.16987e-05
3031.58	0.000210685
3040.26	0.000234865
3048.93	0.000132727
3057.61	6.62913e-05
3066.29	0.000115995
3074.97	0.000163113
3083.65	0.000131991
3092.32	8.30222e-05
3101	6.71579e-05
3109.68	4.17438e-05
3118.36	2.77836e-05
3127.04	1.3737e-05
3135.72	4.66005e-06
3144.39	3.22648e-06
3153.07	3.25644e-06
3161.75	3.62221e-06
3170.43	4.64563e-06
3179.11	5.94206e-06
3187.78	5.75485e-06
3196.46	3.66365e-06
3205.14	1.46092e-06
3213.82	7.42485e-07
3222.5	4.59424e-07
3231.18	3.54809e-07
3239.85	4.40566e-07
3248.53	6.31106e-07
3257.21	5.40567e-07
3265.89	6.76606e-07
3274.57	6.94165e-07
3283.24	5.26799e-07
3291.92	4.41298e-07
3300.6	4.11698e-07
3309.28	3.08041e-07
3317.96	9.68523e-08
3326.64	-2.88287e-08
3335.31	5.51522e-08
3343.99	3.5989e-08
3352.67	4.11749e-08
3361.35	-3.91422e-08
3370.03	-7.31163e-08
3378.7	1.32649e-07
3387.38	6.26532e-08
3396.06	1.43156e-07
3404.74	6.10138e-08
3413.42	-1.47252e-07
3422.1	-1.10829e-07
3430.77	3.07304e-08
3439.45	6.10202e-08
3448.13	6.6201e-09
3456.81	-9.11153e-08
3465.49	-2.17959e-07
3474.16	-1.56236e-07
3482.84	-3.12998e-07
3491.52	-3.89458e-07
3500.2	-1.78017e-07
3508.88	-1.49348e-07
3517.56	1.77525e-07
3526.23	3.78126e-07
3534.91	4.10294e-07
3543.59	-1.03761e-07
3552.27	-1.04991e-07
3560.95	-1.44862e-07
3569.62	-1.50336e-07
3578.3	-9.12449e-08
3586.98	-5.88311e-08
3595.66	-8.66689e-09
3604.34	-5.49872e-08
3613.02	9.62371e-08
3621.69	4.26419e-07
3630.37	3.36272e-07
3639.05	5.72621e-07
3647.73	7.02397e-07
3656.41	1.04493e-06
3665.08	1.07067e-06
3673.76	3.40554e-07
3682.44	4.29958e-07
3691.12	4.93336e-07
3699.8	6.21426e-07
3708.48	5.42205e-07
3717.15	6.92858e-07
3725.83	6.0443e-07
3734.51	2.33695e-07
3743.19	1.55237e-07
3751.87	-6.07046e-08
3760.54	3.01847e-07
3769.22	3.22388e-07
3777.9	4.13853e-07
3786.58	3.63667e-07
3795.26	3.18355e-07
3803.94	3.25889e-07
3812.61	4.22898e-07
3821.29	3.65093e-07
3829.97	5.39727e-07
3838.65	5.40102e-07
3847.33	7.78502e-07
3856	3.45157e-07
3864.68	1.48954e-07
3873.36	8.06863e-08
3882.04	-5.47398e-08
3890.72	-1.53407e-07
3899.4	-1.02766e-07
3908.07	3.00186e-07
3916.75	4.64665e-07
3925.43	8.74596e-07
3934.11	1.48041e-06
3942.79	1.57972e-06
3951.46	1.1948e-06
3960.14	8.44816e-07
3968.82	1.01921e-06
