Infrared Spectrum: Ethylbenzene
Formula: C6 H5 C2 H5
CAS: 100-41-4
State: gas
Melting point: -94.97 C
Boiling point: 136.2 C
Class: IUPAC A
Instrument: IFS66V (Bruker)
Instrument parameters: KBr Beam Splitter; MCT Detector; Multipass cell
Sampling: 1 L/min Flow
Resolution: 0.2410
Temperature: 23 C
Pressure: 101.3 Pa
Origin: NIST, Analytical Chemistry Division, 301-975-3108
cm-1	(micromol/mol)-1m-1 (base 10)
575.05	5.52231e-06
583.608	-3.88559e-07
592.165	-6.33339e-08
600.723	1.24313e-06
609.281	1.6792e-07
617.838	7.28042e-07
626.396	1.42357e-07
634.954	3.07926e-07
643.511	-8.40532e-08
652.069	6.79517e-07
660.626	7.9698e-07
669.184	5.86196e-06
677.742	3.77379e-05
686.299	0.000122586
694.857	0.00022114
703.415	0.000179244
711.972	0.000115834
720.53	7.52404e-05
729.088	8.99255e-05
737.645	0.000113807
746.203	0.00011533
754.761	9.8463e-05
763.318	6.87553e-05
771.876	6.60847e-05
780.434	3.2998e-05
788.991	1.97153e-05
797.549	1.1491e-05
806.106	6.10403e-06
814.664	3.6797e-06
823.222	1.91898e-06
831.779	8.22159e-07
840.337	5.3511e-07
848.895	7.49048e-08
857.452	-3.29153e-07
866.01	-1.68496e-07
874.568	1.37591e-06
883.125	3.25393e-06
891.683	6.36581e-06
900.241	9.08164e-06
908.798	7.60242e-06
917.356	4.02776e-06
925.914	3.39681e-07
934.471	-3.16277e-07
943.029	1.78013e-07
951.586	2.5743e-06
960.144	1.04583e-05
968.702	1.29428e-05
977.259	4.66857e-06
985.817	1.39225e-06
994.375	2.17872e-06
1002.93	3.53225e-06
1011.49	5.37388e-06
1020.05	1.56411e-05
1028.61	2.82934e-05
1037.16	3.15555e-05
1045.72	1.82187e-05
1054.28	1.87363e-05
1062.84	2.50312e-05
1071.39	2.67412e-05
1079.95	1.05745e-05
1088.51	9.9752e-06
1097.07	1.12194e-05
1105.62	8.69857e-06
1114.18	7.04225e-06
1122.74	3.26944e-06
1131.3	1.39314e-06
1139.85	1.03706e-06
1148.41	5.81608e-07
1156.97	6.15436e-08
1165.53	8.57344e-08
1174.09	-1.63133e-07
1182.64	1.78101e-07
1191.2	8.87573e-07
1199.76	1.38876e-06
1208.32	9.3963e-07
1216.87	2.18778e-07
1225.43	1.07938e-07
1233.99	1.88473e-06
1242.55	2.10415e-06
1251.1	1.92068e-06
1259.66	1.5523e-06
1268.22	1.66839e-06
1276.78	1.84855e-06
1285.33	3.00579e-06
1293.89	4.7424e-06
1302.45	5.7145e-06
1311.01	6.59048e-06
1319.57	1.32316e-05
1328.12	2.07276e-05
1336.68	1.7578e-05
1345.24	7.02011e-06
1353.8	3.53529e-06
1362.35	4.06915e-06
1370.91	9.56132e-06
1379.47	1.98016e-05
1388.03	1.5705e-05
1396.58	9.52901e-06
1405.14	5.82799e-06
1413.7	5.79225e-06
1422.26	7.40674e-06
1430.81	1.03513e-05
1439.37	2.25595e-05
1447.93	5.66229e-05
1456.49	7.76953e-05
1465.05	8.40333e-05
1473.6	4.63088e-05
1482.16	2.72118e-05
1490.72	6.29716e-05
1499.28	0.000103602
1507.83	6.82602e-05
1516.39	7.941e-06
1524.95	6.03197e-06
1533.51	5.38291e-06
1542.06	3.96158e-06
1550.62	3.5604e-06
1559.18	3.23133e-06
1567.74	3.05535e-06
1576.29	2.875e-06
1584.85	7.44762e-06
1593.41	1.65195e-05
1601.97	4.30294e-05
1610.53	5.17524e-05
1619.08	3.03633e-05
1627.64	4.21187e-06
1636.2	2.48071e-06
1644.76	3.00339e-06
1653.31	2.15478e-06
1661.87	3.68005e-06
1670.43	2.82621e-06
1678.99	2.14471e-06
1687.54	1.32666e-06
1696.1	-8.41151e-08
1704.66	7.29536e-07
1713.22	8.19e-07
1721.77	1.86147e-06
1730.33	4.66471e-06
1738.89	6.01291e-06
1747.45	5.84872e-06
1756.01	2.03016e-06
1764.56	5.03592e-07
1773.12	1.25037e-06
1781.68	1.56386e-06
1790.24	8.28574e-06
1798.79	1.49311e-05
1807.35	9.9363e-06
1815.91	2.99541e-06
1824.47	2.10803e-06
1833.02	9.80673e-07
1841.58	9.56938e-07
1850.14	3.38818e-06
1858.7	8.76075e-06
1867.25	9.82008e-06
1875.81	1.18264e-05
1884.37	7.01747e-06
1892.93	1.55606e-06
1901.49	3.42959e-07
1910.04	5.13504e-07
1918.6	1.6775e-06
1927.16	5.18982e-06
1935.72	1.19102e-05
1944.27	1.33244e-05
1952.83	1.21597e-05
1961.39	6.62817e-06
1969.95	1.0903e-06
1978.5	3.05247e-07
1987.06	3.49488e-07
1995.62	2.65269e-07
2004.18	-2.19554e-07
2012.73	-4.45622e-08
2021.29	2.29413e-07
2029.85	5.12091e-07
2038.41	3.65696e-07
2046.97	7.87564e-09
2055.52	-2.01882e-07
2064.08	-4.02264e-07
2072.64	-4.33268e-07
2081.2	-3.3962e-07
2089.75	-2.41193e-07
2098.31	-2.43892e-07
2106.87	-2.60503e-07
2115.43	-3.0343e-08
2123.98	9.39261e-08
2132.54	-3.70286e-08
2141.1	-2.19412e-08
2149.66	-9.04623e-08
2158.21	-1.15452e-07
2166.77	1.24514e-07
2175.33	2.40739e-07
2183.89	3.72264e-08
2192.45	5.91298e-08
2201	-1.36286e-09
2209.56	2.3016e-07
2218.12	5.47049e-07
2226.68	4.65676e-07
2235.23	7.44982e-07
2243.79	7.09127e-07
2252.35	4.72841e-07
2260.91	6.05667e-07
2269.46	8.10291e-07
2278.02	1.1927e-06
2286.58	1.0896e-06
2295.14	8.54393e-07
2303.69	7.46629e-07
2312.25	1.40782e-06
2320.81	1.93836e-06
2329.37	1.4727e-06
2337.93	2.06658e-06
2346.48	2.08847e-06
2355.04	1.32113e-06
2363.6	1.3635e-06
2372.16	1.20311e-06
2380.71	7.2247e-07
2389.27	4.74318e-07
2397.83	2.46334e-07
2406.39	5.2214e-07
2414.94	6.14837e-07
2423.5	7.65396e-07
2432.06	1.02949e-06
2440.62	1.38319e-06
2449.17	7.37897e-07
2457.73	1.90738e-07
2466.29	2.65761e-07
2474.85	2.55097e-07
2483.41	2.56103e-07
2491.96	3.33093e-07
2500.52	4.21718e-07
2509.08	4.90606e-07
2517.64	7.0559e-07
2526.19	9.51751e-07
2534.75	1.06264e-06
2543.31	7.0046e-07
2551.87	6.36773e-07
2560.42	7.66873e-07
2568.98	7.37166e-07
2577.54	5.29983e-07
2586.1	9.21344e-07
2594.65	1.17642e-06
2603.21	1.38447e-06
2611.77	1.76331e-06
2620.33	1.73922e-06
2628.89	2.313e-06
2637.44	3.16784e-06
2646	2.95926e-06
2654.56	1.75215e-06
2663.12	7.78883e-07
2671.67	7.54272e-07
2680.23	8.0045e-07
2688.79	5.33224e-07
2697.35	1.23441e-06
2705.9	1.44764e-06
2714.46	8.32793e-07
2723.02	1.12128e-06
2731.58	2.47346e-06
2740.13	3.49355e-06
2748.69	2.94433e-06
2757.25	2.34539e-06
2765.81	2.90761e-06
2774.37	3.82829e-06
2782.92	5.35797e-06
2791.48	6.28324e-06
2800.04	5.25282e-06
2808.6	4.84712e-06
2817.15	5.94846e-06
2825.71	8.21306e-06
2834.27	1.10478e-05
2842.83	1.52585e-05
2851.38	2.13879e-05
2859.94	3.70522e-05
2868.5	7.24675e-05
2877.06	0.000124769
2885.61	0.000151713
2894.17	0.000111867
2902.73	9.26056e-05
2911.29	8.9441e-05
2919.85	7.89382e-05
2928.4	0.000104591
2936.96	0.000174823
2945.52	0.000199065
2954.08	0.000160227
2962.63	0.000164312
2971.19	0.000415923
2979.75	0.000430655
2988.31	0.000131731
2996.86	5.19951e-05
3005.42	4.46841e-05
3013.98	4.94603e-05
3022.54	8.73288e-05
3031.09	0.000209015
3039.65	0.000235732
3048.21	0.000143772
3056.77	6.58891e-05
3065.33	0.000105948
3073.88	0.00015596
3082.44	0.000145089
3091	8.89178e-05
3099.56	7.10101e-05
3108.11	4.48212e-05
3116.67	3.01585e-05
3125.23	1.78652e-05
3133.79	5.53126e-06
3142.34	3.35758e-06
3150.9	3.183e-06
3159.46	3.52806e-06
3168.02	4.20238e-06
3176.57	5.77221e-06
3185.13	6.16523e-06
3193.69	4.66543e-06
3202.25	1.61599e-06
3210.81	7.63757e-07
3219.36	4.83225e-07
3227.92	4.70193e-07
3236.48	3.38075e-07
3245.04	4.52428e-07
3253.59	6.15487e-07
3262.15	8.69114e-07
3270.71	7.07431e-07
3279.27	6.90651e-07
3287.82	4.14666e-07
3296.38	4.98147e-07
3304.94	5.39304e-07
3313.5	-9.8056e-08
3322.05	1.13622e-07
3330.61	1.60869e-07
3339.17	1.12463e-07
3347.73	-2.67855e-07
3356.29	7.81543e-08
3364.84	1.00126e-07
3373.4	-7.14765e-08
3381.96	-7.87569e-08
3390.52	1.84413e-07
3399.07	-3.52733e-08
3407.63	1.01843e-07
3416.19	-1.59497e-07
3424.75	-2.98499e-07
3433.3	-3.0757e-07
3441.86	-4.38106e-08
3450.42	-1.01785e-07
3458.98	-8.14689e-08
3467.53	-7.38152e-08
3476.09	8.36358e-08
3484.65	-1.86616e-07
3493.21	-6.47577e-08
3501.77	-1.39997e-07
3510.32	-2.44741e-09
3518.88	4.69045e-07
3527.44	4.73116e-07
3536	4.4719e-07
3544.55	-3.46198e-07
3553.11	-2.27626e-07
3561.67	-2.83107e-08
3570.23	-1.40888e-07
3578.78	1.00616e-08
3587.34	-1.38641e-07
3595.9	1.02502e-07
3604.46	-6.31179e-10
3613.01	2.66469e-07
3621.57	4.39907e-07
3630.13	2.44115e-07
3638.69	5.60176e-07
3647.25	8.04205e-07
3655.8	1.04444e-06
3664.36	1.20519e-06
3672.92	5.49248e-07
3681.48	6.10417e-07
3690.03	6.64875e-07
3698.59	7.30133e-07
3707.15	5.20622e-07
3715.71	4.95402e-07
3724.26	8.46906e-07
3732.82	4.71893e-07
3741.38	8.74501e-08
3749.94	3.84763e-07
3758.49	3.76447e-07
3767.05	4.37684e-07
3775.61	1.15257e-07
3784.17	3.92713e-07
3792.73	3.53916e-07
3801.28	-3.44594e-07
3809.84	4.47776e-07
3818.4	4.24182e-07
3826.96	3.73035e-07
3835.51	6.30893e-07
3844.07	6.57625e-07
3852.63	4.88805e-07
3861.19	3.67193e-07
3869.74	1.60795e-07
3878.3	2.05835e-07
3886.86	-2.62923e-07
3895.42	-8.60645e-08
3903.97	-1.3249e-07
3912.53	5.24593e-07
3921.09	6.29317e-07
3929.65	1.2112e-06
3938.21	1.41299e-06
3946.76	1.72727e-06
3955.32	8.74492e-07
3963.88	7.95674e-07
3972.44	9.44964e-07
