Infrared Spectrum: Ethylbenzene
Formula: C6 H5 C2 H5
CAS: 100-41-4
State: gas
Melting point: -94.97 C
Boiling point: 136.2 C
Class: IUPAC A
Instrument: IFS66V (Bruker)
Instrument parameters: KBr Beam Splitter; MCT Detector; Multipass cell
Sampling: 1 L/min Flow
Resolution: 0.1250
Temperature: 23 C
Pressure: 101.3 Pa
Origin: NIST, Analytical Chemistry Division, 301-975-3108
cm-1	(micromol/mol)-1m-1 (base 10)
575.05	6.23884e-06
583.608	-7.64252e-07
592.165	-7.50808e-07
600.723	7.50005e-07
609.281	1.52043e-07
617.838	5.08733e-07
626.396	1.42377e-07
634.954	1.92411e-07
643.511	1.42543e-07
652.069	8.99062e-07
660.626	9.09619e-07
669.184	5.84028e-06
677.742	3.78684e-05
686.299	0.000123109
694.857	0.000221339
703.415	0.000179544
711.972	0.000115377
720.53	7.5457e-05
729.088	8.96726e-05
737.645	0.000113683
746.203	0.000115385
754.761	9.84954e-05
763.318	6.87221e-05
771.876	6.65015e-05
780.434	3.29857e-05
788.991	1.9836e-05
797.549	1.15747e-05
806.106	5.64651e-06
814.664	3.67522e-06
823.222	1.65682e-06
831.779	8.33235e-07
840.337	6.77156e-07
848.895	1.80329e-07
857.452	-3.82049e-07
866.01	-5.83522e-08
874.568	1.3678e-06
883.125	3.37682e-06
891.683	6.56456e-06
900.241	8.83262e-06
908.798	7.52465e-06
917.356	4.18837e-06
925.914	2.27399e-07
934.471	-4.20423e-07
943.029	3.31087e-07
951.586	2.51348e-06
960.144	1.03801e-05
968.702	1.29222e-05
977.259	4.75488e-06
985.817	1.19179e-06
994.375	2.28729e-06
1002.93	3.5803e-06
1011.49	5.37587e-06
1020.05	1.55765e-05
1028.61	2.83117e-05
1037.16	3.17028e-05
1045.72	1.81789e-05
1054.28	1.86472e-05
1062.84	2.48957e-05
1071.39	2.67576e-05
1079.95	1.06395e-05
1088.51	9.9619e-06
1097.07	1.10809e-05
1105.62	8.84312e-06
1114.18	7.0291e-06
1122.74	3.17651e-06
1131.3	1.25424e-06
1139.85	1.10665e-06
1148.41	5.91783e-07
1156.97	5.04598e-08
1165.53	-3.67703e-09
1174.09	-2.49804e-07
1182.64	8.8929e-08
1191.2	9.3896e-07
1199.76	1.42845e-06
1208.32	9.37021e-07
1216.87	3.36393e-07
1225.43	1.38247e-07
1233.99	1.83828e-06
1242.55	2.10199e-06
1251.1	1.89451e-06
1259.66	1.50814e-06
1268.22	1.77497e-06
1276.78	1.87434e-06
1285.33	2.95748e-06
1293.89	4.75826e-06
1302.45	5.74715e-06
1311.01	6.4865e-06
1319.57	1.32294e-05
1328.12	2.07905e-05
1336.68	1.75218e-05
1345.24	7.06786e-06
1353.8	3.52924e-06
1362.35	4.04536e-06
1370.91	9.63434e-06
1379.47	1.98945e-05
1388.03	1.54643e-05
1396.58	9.65959e-06
1405.14	5.7741e-06
1413.7	5.72711e-06
1422.26	7.38854e-06
1430.81	1.04011e-05
1439.37	2.2571e-05
1447.93	5.65433e-05
1456.49	7.75549e-05
1465.05	8.4182e-05
1473.6	4.62189e-05
1482.16	2.71924e-05
1490.72	6.29422e-05
1499.28	0.000103619
1507.83	6.82651e-05
1516.39	7.959e-06
1524.95	6.05171e-06
1533.51	5.46645e-06
1542.06	3.87816e-06
1550.62	3.61331e-06
1559.18	3.11873e-06
1567.74	3.03978e-06
1576.29	2.86151e-06
1584.85	7.40864e-06
1593.41	1.65372e-05
1601.97	4.30208e-05
1610.53	5.17743e-05
1619.08	3.03677e-05
1627.64	4.23066e-06
1636.2	2.51183e-06
1644.76	2.97152e-06
1653.31	2.00429e-06
1661.87	3.58802e-06
1670.43	2.81394e-06
1678.99	2.21591e-06
1687.54	1.28433e-06
1696.1	7.0301e-08
1704.66	7.92856e-07
1713.22	8.56497e-07
1721.77	1.86482e-06
1730.33	4.63816e-06
1738.89	6.02485e-06
1747.45	5.86035e-06
1756.01	2.07068e-06
1764.56	4.93378e-07
1773.12	1.32017e-06
1781.68	1.54452e-06
1790.24	8.33369e-06
1798.79	1.48789e-05
1807.35	9.92316e-06
1815.91	3.05199e-06
1824.47	2.15018e-06
1833.02	9.97953e-07
1841.58	9.48172e-07
1850.14	3.40455e-06
1858.7	8.76949e-06
1867.25	9.7981e-06
1875.81	1.18889e-05
1884.37	7.01532e-06
1892.93	1.55786e-06
1901.49	2.80254e-07
1910.04	5.26968e-07
1918.6	1.68698e-06
1927.16	5.14497e-06
1935.72	1.18959e-05
1944.27	1.33523e-05
1952.83	1.21721e-05
1961.39	6.61257e-06
1969.95	1.10379e-06
1978.5	3.10931e-07
1987.06	3.01133e-07
1995.62	2.69939e-07
2004.18	-2.70144e-07
2012.73	-1.43123e-07
2021.29	2.19257e-07
2029.85	4.92783e-07
2038.41	4.02943e-07
2046.97	-1.08433e-08
2055.52	-1.23732e-07
2064.08	-4.08324e-07
2072.64	-4.64258e-07
2081.2	-3.21814e-07
2089.75	-2.50694e-07
2098.31	-2.93441e-07
2106.87	-2.243e-07
2115.43	7.73672e-08
2123.98	9.46873e-08
2132.54	-6.36468e-08
2141.1	4.55649e-08
2149.66	-8.36185e-08
2158.21	-1.29572e-07
2166.77	1.83347e-07
2175.33	3.07926e-07
2183.89	1.37259e-08
2192.45	6.96775e-08
2201	5.01228e-08
2209.56	2.96714e-07
2218.12	5.47072e-07
2226.68	4.54791e-07
2235.23	8.24466e-07
2243.79	7.51603e-07
2252.35	4.55226e-07
2260.91	5.89535e-07
2269.46	7.31601e-07
2278.02	1.23501e-06
2286.58	1.01741e-06
2295.14	8.90694e-07
2303.69	6.73544e-07
2312.25	1.39696e-06
2320.81	1.86935e-06
2329.37	1.56432e-06
2337.93	2.05489e-06
2346.48	2.08147e-06
2355.04	1.30926e-06
2363.6	1.4096e-06
2372.16	1.26506e-06
2380.71	6.6261e-07
2389.27	4.95205e-07
2397.83	1.96515e-07
2406.39	5.54692e-07
2414.94	5.81907e-07
2423.5	8.49086e-07
2432.06	9.98666e-07
2440.62	1.29285e-06
2449.17	7.96028e-07
2457.73	8.01097e-08
2466.29	3.39008e-07
2474.85	2.13058e-07
2483.41	1.61264e-07
2491.96	4.1189e-07
2500.52	4.19374e-07
2509.08	5.15637e-07
2517.64	7.07975e-07
2526.19	1.01616e-06
2534.75	1.0885e-06
2543.31	6.86015e-07
2551.87	6.86691e-07
2560.42	7.9144e-07
2568.98	7.53888e-07
2577.54	3.42025e-07
2586.1	9.43292e-07
2594.65	1.26997e-06
2603.21	1.43063e-06
2611.77	1.84801e-06
2620.33	1.73479e-06
2628.89	2.25133e-06
2637.44	3.21423e-06
2646	3.03666e-06
2654.56	1.73171e-06
2663.12	9.23722e-07
2671.67	6.91665e-07
2680.23	8.11908e-07
2688.79	5.66561e-07
2697.35	1.20851e-06
2705.9	1.45129e-06
2714.46	6.45774e-07
2723.02	9.25747e-07
2731.58	2.47747e-06
2740.13	3.4618e-06
2748.69	3.03472e-06
2757.25	2.41494e-06
2765.81	2.8186e-06
2774.37	3.72201e-06
2782.92	5.3826e-06
2791.48	6.44333e-06
2800.04	5.30006e-06
2808.6	4.8474e-06
2817.15	6.01433e-06
2825.71	8.30824e-06
2834.27	1.10137e-05
2842.83	1.52835e-05
2851.38	2.14727e-05
2859.94	3.70567e-05
2868.5	7.24155e-05
2877.06	0.000124802
2885.61	0.000151611
2894.17	0.000111688
2902.73	9.24983e-05
2911.29	8.93046e-05
2919.85	7.89658e-05
2928.4	0.000104581
2936.96	0.000174886
2945.52	0.000198828
2954.08	0.000160262
2962.63	0.000164173
2971.19	0.000415958
2979.75	0.000430741
2988.31	0.000131893
2996.86	5.19738e-05
3005.42	4.46776e-05
3013.98	4.93907e-05
3022.54	8.71922e-05
3031.09	0.000208924
3039.65	0.000235587
3048.21	0.000143629
3056.77	6.5868e-05
3065.33	0.00010584
3073.88	0.000156115
3082.44	0.000144894
3091	8.90083e-05
3099.56	7.10754e-05
3108.11	4.47856e-05
3116.67	3.02483e-05
3125.23	1.78951e-05
3133.79	5.76419e-06
3142.34	3.26851e-06
3150.9	3.17116e-06
3159.46	3.44832e-06
3168.02	4.30587e-06
3176.57	5.7067e-06
3185.13	6.02277e-06
3193.69	4.69725e-06
3202.25	1.55226e-06
3210.81	9.67143e-07
3219.36	5.32059e-07
3227.92	4.98181e-07
3236.48	4.23767e-07
3245.04	3.33609e-07
3253.59	6.4126e-07
3262.15	1.04265e-06
3270.71	6.14529e-07
3279.27	5.67016e-07
3287.82	2.65827e-07
3296.38	4.186e-07
3304.94	4.43598e-07
3313.5	-2.50389e-07
3322.05	-2.80238e-08
3330.61	3.16443e-07
3339.17	8.43952e-09
3347.73	-3.61049e-07
3356.29	-3.83346e-09
3364.84	2.46907e-07
3373.4	-2.05035e-07
3381.96	2.1561e-08
3390.52	3.77217e-07
3399.07	-7.24169e-08
3407.63	5.85691e-08
3416.19	-1.67357e-07
3424.75	-5.68478e-07
3433.3	-2.02272e-07
3441.86	-4.47946e-08
3450.42	-1.02831e-07
3458.98	-1.6892e-07
3467.53	2.66987e-08
3476.09	1.53686e-07
3484.65	-6.09779e-08
3493.21	-1.17716e-07
3501.77	-1.46334e-07
3510.32	1.99315e-07
3518.88	7.722e-07
3527.44	5.61756e-07
3536	5.97239e-07
3544.55	-5.04781e-07
3553.11	-3.29925e-07
3561.67	-9.87932e-08
3570.23	-8.84365e-08
3578.78	1.92583e-07
3587.34	-2.33917e-07
3595.9	1.22495e-07
3604.46	-3.18577e-08
3613.01	2.57884e-07
3621.57	4.93565e-07
3630.13	2.63679e-07
3638.69	6.33652e-07
3647.25	9.31925e-07
3655.8	1.04979e-06
3664.36	1.21284e-06
3672.92	4.85963e-07
3681.48	6.02418e-07
3690.03	6.43531e-07
3698.59	7.67691e-07
3707.15	6.70074e-07
3715.71	5.65579e-07
3724.26	1.08751e-06
3732.82	4.48352e-07
3741.38	2.34268e-07
3749.94	5.19913e-07
3758.49	3.89327e-07
3767.05	5.62313e-07
3775.61	-1.57154e-08
3784.17	3.50832e-07
3792.73	4.41214e-07
3801.28	-2.28429e-07
3809.84	3.36957e-07
3818.4	3.37813e-07
3826.96	4.40873e-07
3835.51	7.00987e-07
3844.07	6.65551e-07
3852.63	5.75297e-07
3861.19	4.16421e-07
3869.74	9.99828e-08
3878.3	3.56816e-07
3886.86	-2.80198e-07
3895.42	-1.59405e-08
3903.97	3.82113e-08
3912.53	5.5234e-07
3921.09	5.37309e-07
3929.65	1.25278e-06
3938.21	1.38665e-06
3946.76	1.71283e-06
3955.32	7.84695e-07
3963.88	7.8878e-07
3972.44	8.7059e-07
