Infrared Spectrum: Ethylbenzene
Formula: C6 H5 C2 H5
CAS: 100-41-4
State: gas
Melting point: -94.97 C
Boiling point: 136.2 C
Class: IUPAC A
Instrument: IFS66V (Bruker)
Instrument parameters: KBr Beam Splitter; MCT Detector; Multipass cell
Sampling: 1 L/min Flow
Resolution: 0.4820
Temperature: 23 C
Pressure: 101.3 Pa
Origin: NIST, Analytical Chemistry Division, 301-975-3108
cm-1	(micromol/mol)-1m-1 (base 10)
575.17	4.33355e-06
583.848	5.28702e-07
592.526	-3.91381e-07
601.205	1.06487e-07
609.883	3.34801e-07
618.561	-2.98231e-07
627.239	5.95693e-07
635.917	2.22364e-07
644.595	4.86922e-08
653.274	1.69553e-07
661.952	8.59821e-07
670.63	8.36071e-06
679.308	4.97644e-05
687.986	0.000146177
696.665	0.000316506
705.343	0.000170687
714.021	9.88389e-05
722.699	7.7626e-05
731.377	9.48733e-05
740.055	0.000117914
748.734	0.000114107
757.412	8.83087e-05
766.09	6.0863e-05
774.768	4.07818e-05
783.446	2.87804e-05
792.124	1.54773e-05
800.803	9.43313e-06
809.481	5.21143e-06
818.159	2.60233e-06
826.837	1.14886e-06
835.515	6.28905e-07
844.194	2.02996e-07
852.872	-1.84621e-07
861.55	-1.41999e-07
870.228	6.64186e-07
878.906	2.21166e-06
887.584	5.27526e-06
896.263	7.31689e-06
904.941	9.20579e-06
913.619	6.19789e-06
922.297	1.38287e-06
930.975	1.77606e-07
939.654	1.13974e-07
948.332	1.12209e-06
957.01	9.27778e-06
965.688	1.12613e-05
974.366	7.35256e-06
983.044	2.09936e-06
991.723	1.98793e-06
1000.4	3.73579e-06
1009.08	4.49485e-06
1017.76	1.08638e-05
1026.44	3.08492e-05
1035.11	3.28959e-05
1043.79	2.08334e-05
1052.47	1.67411e-05
1061.15	2.83863e-05
1069.83	2.86618e-05
1078.5	1.02254e-05
1087.18	1.05749e-05
1095.86	1.16865e-05
1104.54	9.46646e-06
1113.22	7.03442e-06
1121.9	3.82247e-06
1130.57	1.57313e-06
1139.25	9.27364e-07
1147.93	6.9374e-07
1156.61	4.33385e-08
1165.29	6.41884e-08
1173.96	-1.60606e-07
1182.64	2.78209e-07
1191.32	8.84396e-07
1200	1.29481e-06
1208.68	9.78389e-07
1217.36	1.51568e-07
1226.03	1.12861e-07
1234.71	1.89333e-06
1243.39	2.31957e-06
1252.07	1.80348e-06
1260.75	1.59792e-06
1269.42	1.67122e-06
1278.1	2.09165e-06
1286.78	3.19368e-06
1295.46	4.72133e-06
1304.14	5.72281e-06
1312.82	7.34314e-06
1321.49	1.57991e-05
1330.17	2.16787e-05
1338.85	1.48852e-05
1347.53	5.92384e-06
1356.21	3.54176e-06
1364.88	5.37827e-06
1373.56	1.17944e-05
1382.24	1.803e-05
1390.92	1.42231e-05
1399.6	7.62378e-06
1408.28	5.47781e-06
1416.95	6.10739e-06
1425.63	8.14146e-06
1434.31	1.34324e-05
1442.99	3.38013e-05
1451.67	7.39688e-05
1460.34	8.45037e-05
1469.02	6.91281e-05
1477.7	3.67417e-05
1486.38	3.27137e-05
1495.06	9.7417e-05
1503.74	8.53766e-05
1512.41	1.93891e-05
1521.09	5.30826e-06
1529.77	6.2638e-06
1538.45	4.98924e-06
1547.13	3.78809e-06
1555.8	3.32857e-06
1564.48	3.22055e-06
1573.16	3.58237e-06
1581.84	5.97307e-06
1590.52	1.37462e-05
1599.2	3.14162e-05
1607.87	5.14669e-05
1616.55	4.16687e-05
1625.23	6.83133e-06
1633.91	2.79942e-06
1642.59	2.75218e-06
1651.26	3.84701e-06
1659.94	3.56236e-06
1668.62	2.99853e-06
1677.3	2.42739e-06
1685.98	1.32129e-06
1694.66	8.90604e-07
1703.33	7.35977e-07
1712.01	9.44243e-07
1720.69	1.65167e-06
1729.37	4.09634e-06
1738.05	6.3769e-06
1746.72	6.21723e-06
1755.4	2.23869e-06
1764.08	5.76388e-07
1772.76	5.44381e-07
1781.44	1.50795e-06
1790.12	8.13999e-06
1798.79	1.49129e-05
1807.47	9.72241e-06
1816.15	2.96094e-06
1824.83	2.11055e-06
1833.51	7.50765e-07
1842.18	1.09682e-06
1850.86	3.55833e-06
1859.54	9.02058e-06
1868.22	1.08723e-05
1876.9	1.09617e-05
1885.58	7.92151e-06
1894.25	1.08524e-06
1902.93	3.45094e-07
1911.61	6.33104e-07
1920.29	2.1738e-06
1928.97	6.47691e-06
1937.64	1.15159e-05
1946.32	1.39816e-05
1955	1.0533e-05
1963.68	7.54138e-06
1972.36	3.4536e-07
1981.04	4.2294e-07
1989.71	4.14091e-07
1998.39	1.39223e-07
2007.07	1.60701e-08
2015.75	1.778e-07
2024.43	5.4715e-07
2033.1	5.97973e-07
2041.78	2.48153e-07
2050.46	-1.28315e-07
2059.14	-3.70636e-07
2067.82	-4.41137e-07
2076.5	-3.84419e-07
2085.17	-3.53349e-07
2093.85	-3.00325e-07
2102.53	-1.75853e-07
2111.21	-1.77088e-07
2119.89	7.08176e-08
2128.56	1.29388e-07
2137.24	-5.88525e-08
2145.92	-5.50822e-08
2154.6	-2.72671e-08
2163.28	8.96324e-08
2171.96	6.9884e-08
2180.63	2.25392e-08
2189.31	1.00103e-07
2197.99	7.36206e-08
2206.67	2.10079e-07
2215.35	4.60465e-07
2224.02	5.72927e-07
2232.7	6.29631e-07
2241.38	6.65988e-07
2250.06	5.25072e-07
2258.74	5.98594e-07
2267.42	8.17546e-07
2276.09	1.02347e-06
2284.77	1.11857e-06
2293.45	8.58276e-07
2302.13	6.70155e-07
2310.81	1.65798e-06
2319.48	1.68682e-06
2328.16	1.32861e-06
2336.84	2.18462e-06
2345.52	2.1808e-06
2354.2	1.03854e-06
2362.88	1.26516e-07
2371.55	7.02173e-07
2380.23	7.30483e-07
2388.91	4.13151e-07
2397.59	1.87599e-07
2406.27	4.77759e-07
2414.94	6.46355e-07
2423.62	7.91378e-07
2432.3	1.0505e-06
2440.98	1.27618e-06
2449.66	6.7878e-07
2458.34	1.61085e-07
2467.01	1.53568e-07
2475.69	1.29318e-07
2484.37	2.08686e-07
2493.05	4.11319e-07
2501.73	3.92594e-07
2510.4	5.45846e-07
2519.08	6.59941e-07
2527.76	9.37306e-07
2536.44	8.92912e-07
2545.12	5.92565e-07
2553.8	6.87911e-07
2562.47	6.52635e-07
2571.15	5.48873e-07
2579.83	7.36919e-07
2588.51	9.12353e-07
2597.19	1.24299e-06
2605.86	1.81734e-06
2614.54	1.9607e-06
2623.22	1.84068e-06
2631.9	2.55218e-06
2640.58	3.25299e-06
2649.26	2.56977e-06
2657.93	1.2461e-06
2666.61	6.68039e-07
2675.29	6.48874e-07
2683.97	7.36845e-07
2692.65	9.68807e-07
2701.32	1.42794e-06
2710	1.49245e-06
2718.68	9.87522e-07
2727.36	1.60517e-06
2736.04	3.54536e-06
2744.71	3.33688e-06
2753.39	2.31403e-06
2762.07	2.68704e-06
2770.75	3.45095e-06
2779.43	5.02725e-06
2788.11	5.99991e-06
2796.78	5.67246e-06
2805.46	4.9384e-06
2814.14	5.3995e-06
2822.82	7.2045e-06
2831.5	1.04814e-05
2840.17	1.41815e-05
2848.85	1.85719e-05
2857.53	3.09813e-05
2866.21	6.20904e-05
2874.89	0.000105076
2883.57	0.000132731
2892.24	0.000117871
2900.92	9.33414e-05
2909.6	8.78116e-05
2918.28	8.0292e-05
2926.96	9.68699e-05
2935.63	0.000162885
2944.31	0.000206098
2952.99	0.000166482
2961.67	0.000146495
2970.35	0.000419849
2979.03	0.000429457
2987.7	0.000144862
2996.38	5.37021e-05
3005.06	4.45266e-05
3013.74	4.90843e-05
3022.42	8.64423e-05
3031.09	0.000209047
3039.77	0.000235549
3048.45	0.000140062
3057.13	6.60116e-05
3065.81	0.000111107
3074.49	0.000167781
3083.16	0.00013779
3091.84	8.52285e-05
3100.52	6.88592e-05
3109.2	4.24896e-05
3117.88	2.84313e-05
3126.55	1.46963e-05
3135.23	4.89455e-06
3143.91	3.22426e-06
3152.59	3.30434e-06
3161.27	3.58167e-06
3169.95	4.60797e-06
3178.62	5.9067e-06
3187.3	5.97531e-06
3195.98	3.72477e-06
3204.66	1.7561e-06
3213.34	6.7572e-07
3222.01	6.9638e-07
3230.69	4.07222e-07
3239.37	4.6532e-07
3248.05	5.50346e-07
3256.73	3.87613e-07
3265.41	5.42636e-07
3274.08	5.51615e-07
3282.76	4.6082e-07
3291.44	4.86082e-07
3300.12	2.63463e-07
3308.8	3.16412e-07
3317.47	1.91601e-07
3326.15	-2.08649e-07
3334.83	1.8371e-07
3343.51	1.09633e-07
3352.19	2.65641e-07
3360.87	-1.37305e-07
3369.54	-5.79666e-08
3378.22	1.43515e-07
3386.9	2.19529e-07
3395.58	2.61793e-07
3404.26	7.11873e-08
3412.93	-2.53413e-07
3421.61	-4.90101e-08
3430.29	1.02274e-07
3438.97	1.42607e-07
3447.65	-6.7789e-08
3456.33	-7.15142e-08
3465	-2.93895e-07
3473.68	-4.12904e-09
3482.36	-3.45816e-07
3491.04	-5.07295e-07
3499.72	-1.19912e-07
3508.39	-3.03562e-07
3517.07	2.90309e-07
3525.75	3.47608e-07
3534.43	5.18489e-07
3543.11	-1.76301e-07
3551.79	-4.67809e-08
3560.46	-3.7898e-08
3569.14	-1.50663e-07
3577.82	4.18861e-09
3586.5	-7.50412e-09
3595.18	-1.39612e-07
3603.85	-1.63415e-07
3612.53	-1.40687e-07
3621.21	4.65317e-07
3629.89	3.2834e-08
3638.57	5.30123e-07
3647.25	6.5951e-07
3655.92	1.0928e-06
3664.6	1.13635e-06
3673.28	4.30937e-07
3681.96	5.13536e-07
3690.64	4.75759e-07
3699.31	6.94735e-07
3707.99	6.06991e-07
3716.67	5.77623e-07
3725.35	6.72379e-07
3734.03	3.95815e-07
3742.71	4.01344e-07
3751.38	1.1905e-07
3760.06	1.29069e-07
3768.74	3.79737e-07
3777.42	3.50849e-07
3786.1	3.13189e-07
3794.77	4.37767e-07
3803.45	2.66875e-07
3812.13	3.61094e-07
3820.81	1.5487e-07
3829.49	6.05611e-07
3838.17	3.03684e-07
3846.84	8.18431e-07
3855.52	3.99346e-07
3864.2	1.38752e-07
3872.88	2.84805e-07
3881.56	7.28448e-09
3890.23	-2.20149e-08
3898.91	-4.56968e-09
3907.59	2.73395e-07
3916.27	4.70457e-07
3924.95	7.63001e-07
3933.63	1.40052e-06
3942.3	1.49264e-06
3950.98	1.20108e-06
3959.66	7.70853e-07
3968.34	1.00692e-06
