Infrared Spectrum: TRANS-1,3-DICHLOROPROPENE
Formula: C3 H4 Cl2
CAS: 10061-02-6
Class: COBLENTZ
Instrument: Not specified, most likely a prism, grating, or hybrid spectrometer.
Sampling: TRANSMISSION
Path length: 0.0025 CM
Resolution: 4
Origin: W.T. BOLLETER
MICROMETERS	TRANSMITTANCE
14.526	0.016
14.5961	0.017
14.6663	0.017
14.7364	0.017
14.8065	0.016
14.8766	0.016
14.9468	0.016
15.0169	0.016
15.087	0.017
15.1571	0.025
15.2273	0.037
15.2974	0.053
15.3675	0.103
15.4376	0.146
15.5078	0.178
15.5779	0.216
15.648	0.253
15.7181	0.312
15.7883	0.38
15.8584	0.45
15.9285	0.5
15.9986	0.537
16.0688	0.569
16.1389	0.589
16.209	0.601
16.2791	0.607
16.3493	0.614
16.4194	0.626
16.4895	0.63
16.5596	0.635
16.6298	0.639
16.6999	0.655
16.77	0.669
16.8401	0.701
16.9103	0.732
16.9804	0.769
17.0505	0.794
17.1206	0.816
17.1908	0.826
17.2609	0.837
17.331	0.844
17.4011	0.841
17.4713	0.826
17.5414	0.792
17.6115	0.742
17.6816	0.655
17.7518	0.582
17.8219	0.567
17.892	0.603
17.9621	0.662
18.0323	0.698
18.1024	0.712
18.1725	0.701
18.2426	0.692
18.3128	0.689
18.3829	0.698
18.453	0.712
18.5231	0.726
18.5933	0.732
18.6634	0.732
18.7335	0.723
18.8036	0.703
18.8738	0.669
18.9439	0.623
19.014	0.535
19.0841	0.45
19.1543	0.328
19.2244	0.233
19.2945	0.162
19.3647	0.139
19.4348	0.166
19.5049	0.241
19.575	0.344
19.6452	0.444
19.7153	0.526
19.7854	0.596
19.8555	0.658
19.9257	0.694
19.9958	0.717
20.0659	0.737
20.136	0.746
20.2062	0.748
20.2763	0.75
20.3464	0.748
20.4165	0.751
20.4867	0.753
20.5568	0.755
20.6269	0.753
20.697	0.748
20.7672	0.739
20.8373	0.726
20.9074	0.719
20.9775	0.707
21.0477	0.685
21.1178	0.671
21.1879	0.653
21.258	0.632
21.3282	0.603
21.3983	0.571
21.4684	0.542
21.5385	0.498
21.6087	0.455
21.6788	0.407
21.7489	0.346
21.819	0.283
21.8892	0.216
21.9593	0.158
22.0294	0.105
22.0995	0.076
22.1697	0.048
22.2398	0.037
22.3099	0.03
22.38	0.028
22.4502	0.026
22.5203	0.026
22.5904	0.032
22.6605	0.041
22.7307	0.055
22.8008	0.098
22.8709	0.15
22.941	0.228
23.0112	0.298
23.0813	0.376
23.1514	0.444
23.2215	0.498
23.2917	0.533
23.3618	0.575
23.4319	0.616
23.502	0.65
23.5722	0.685
23.6423	0.716
23.7124	0.75
23.7825	0.78
23.8527	0.801
23.9228	0.825
23.9929	0.844
24.0631	0.86
24.1332	0.869
24.2033	0.883
24.2734	0.896
24.3436	0.903
24.4137	0.914
24.4838	0.923
24.5539	0.928
24.6241	0.932
24.6942	0.935
24.7643	0.939
24.8344	0.95
24.9046	0.982
24.9747	0.989
25.0448	0.998
25.1149	0.996
25.1851	0.994
25.2552	0.994
25.3253	0.994
25.3954	0.994
25.4656	0.996
25.5357	0.996
25.6058	0.994
25.6759	0.994
25.7461	0.996
25.8162	0.996
25.8863	0.996
25.9564	0.998
26.0266	0.996
26.0967	0.998
26.1668	1
26.2369	1.001
26.3071	1.003
26.3772	1.003
26.4473	1.003
26.5174	1.003
26.5876	1.001
26.6577	1.001
26.7278	1.001
26.7979	1.001
26.8681	1
26.9382	0.998
27.0083	0.998
27.0784	0.998
27.1486	0.994
27.2187	0.989
27.2888	0.982
27.3589	0.978
27.4291	0.976
27.4992	0.973
27.5693	0.967
27.6394	0.966
27.7096	0.966
27.7797	0.966
27.8498	0.966
27.9199	0.966
27.9901	0.967
28.0602	0.967
28.1303	0.964
28.2004	0.96
28.2706	0.958
28.3407	0.958
28.4108	0.955
28.4809	0.953
28.5511	0.951
28.6212	0.948
28.6913	0.939
28.7615	0.939
28.8316	0.937
28.9017	0.935
28.9718	0.933
29.042	0.926
29.1121	0.916
29.1822	0.903
29.2523	0.896
29.3225	0.88
29.3926	0.869
29.4627	0.851
29.5328	0.832
29.603	0.803
29.6731	0.78
29.7432	0.748
29.8133	0.725
29.8835	0.687
29.9536	0.653
30.0237	0.621
30.0938	0.601
30.164	0.587
30.2341	0.576
30.3042	0.575
30.3743	0.578
30.4445	0.589
30.5146	0.61
30.5847	0.648
30.6548	0.669
30.725	0.703
30.7951	0.726
30.8652	0.753
30.9353	0.78
31.0055	0.796
31.0756	0.805
31.1457	0.814
31.2158	0.819
31.286	0.825
31.3561	0.83
31.4262	0.83
31.4963	0.832
31.5665	0.832
31.6366	0.832
31.7067	0.832
31.7768	0.83
31.847	0.828
31.9171	0.828
31.9872	0.825
32.0573	0.819
32.1275	0.814
32.1976	0.808
32.2677	0.803
32.3378	0.798
32.408	0.791
32.4781	0.783
32.5482	0.776
32.6183	0.775
32.6885	0.771
32.7586	0.769
32.8287	0.773
32.8988	0.773
32.969	0.775
33.0391	0.78
33.1092	0.78
33.1793	0.782
33.2495	0.785
33.3196	0.791
33.3897	0.798
33.4599	0.805
33.53	0.814
33.6001	0.819
33.6702	0.825
33.7404	0.83
33.8105	0.832
33.8806	0.833
33.9507	0.839
34.0209	0.842
34.091	0.844
34.1611	0.844
34.2312	0.842
34.3014	0.841
34.3715	0.839
34.4416	0.839
34.5117	0.837
34.5819	0.833
34.652	0.832
34.7221	0.828
34.7922	0.823
34.8624	0.816
34.9325	0.814
35.0026	0.805
35.0727	0.8
35.1429	0.785
35.213	0.775
35.2831	0.767
35.3532	0.766
35.4234	0.76
35.4935	0.755
35.5636	0.748
35.6337	0.744
35.7039	0.739
35.774	0.733
35.8441	0.732
35.9142	0.73
35.9844	0.725
36.0545	0.7
36.1246	0.683
36.1947	0.678
36.2649	0.675
36.335	0.669
36.4051	0.66
36.4752	0.655
36.5454	0.65
36.6155	0.642
36.6856	0.637
36.7557	0.633
36.8259	0.628
36.896	0.621
36.9661	0.614
37.0362	0.607
37.1064	0.601
37.1765	0.596
37.2466	0.589
37.3167	0.571
37.3869	0.567
37.457	0.566
37.5271	0.562
37.5972	0.56
37.6674	0.558
37.7375	0.555
37.8076	0.542
37.8777	0.532
37.9479	0.523
38.018	0.512
