Infrared Spectrum: Ethylbenzene
Formula: C6 H5 C2 H5
CAS: 100-41-4
State: gas
Melting point: -94.97 C
Boiling point: 136.2 C
Class: IUPAC A
Instrument: IFS66V (Bruker)
Instrument parameters: KBr Beam Splitter; MCT Detector; Multipass cell
Sampling: 1 L/min Flow
Resolution: 0.1250
Temperature: 23 C
Pressure: 101.3 Pa
Origin: NIST, Analytical Chemistry Division, 301-975-3108
cm-1	(micromol/mol)-1m-1 (base 10)
575.05	6.24974e-06
583.608	-7.6563e-07
592.165	-7.66327e-07
600.723	7.41419e-07
609.281	1.25958e-07
617.838	5.03699e-07
626.396	1.42274e-07
634.954	1.98879e-07
643.511	1.45399e-07
652.069	9.11132e-07
660.626	9.09113e-07
669.184	5.84147e-06
677.742	3.78744e-05
686.299	0.000123132
694.857	0.000221329
703.415	0.000179558
711.972	0.000115367
720.53	7.54579e-05
729.088	8.96623e-05
737.645	0.000113684
746.203	0.00011539
754.761	9.84962e-05
763.318	6.87231e-05
771.876	6.6508e-05
780.434	3.29841e-05
788.991	1.98379e-05
797.549	1.15822e-05
806.106	5.63086e-06
814.664	3.6763e-06
823.222	1.64718e-06
831.779	8.32981e-07
840.337	6.78213e-07
848.895	1.90975e-07
857.452	-3.81519e-07
866.01	-5.70144e-08
874.568	1.36757e-06
883.125	3.37865e-06
891.683	6.56965e-06
900.241	8.83438e-06
908.798	7.52203e-06
917.356	4.18857e-06
925.914	2.25165e-07
934.471	-4.227e-07
943.029	3.37895e-07
951.586	2.51082e-06
960.144	1.03779e-05
968.702	1.29194e-05
977.259	4.75817e-06
985.817	1.18566e-06
994.375	2.28781e-06
1002.93	3.57965e-06
1011.49	5.37652e-06
1020.05	1.55761e-05
1028.61	2.83131e-05
1037.16	3.17015e-05
1045.72	1.81781e-05
1054.28	1.86447e-05
1062.84	2.48922e-05
1071.39	2.67562e-05
1079.95	1.06447e-05
1088.51	9.95682e-06
1097.07	1.10731e-05
1105.62	8.84583e-06
1114.18	7.0283e-06
1122.74	3.17335e-06
1131.3	1.2513e-06
1139.85	1.10897e-06
1148.41	5.93982e-07
1156.97	5.02269e-08
1165.53	-1.12321e-09
1174.09	-2.5179e-07
1182.64	8.50587e-08
1191.2	9.36009e-07
1199.76	1.429e-06
1208.32	9.36956e-07
1216.87	3.36753e-07
1225.43	1.38482e-07
1233.99	1.83784e-06
1242.55	2.09797e-06
1251.1	1.89367e-06
1259.66	1.50875e-06
1268.22	1.77888e-06
1276.78	1.8783e-06
1285.33	2.9565e-06
1293.89	4.7578e-06
1302.45	5.74743e-06
1311.01	6.48283e-06
1319.57	1.32285e-05
1328.12	2.07902e-05
1336.68	1.75173e-05
1345.24	7.07139e-06
1353.8	3.52911e-06
1362.35	4.03694e-06
1370.91	9.63641e-06
1379.47	1.98946e-05
1388.03	1.54583e-05
1396.58	9.66092e-06
1405.14	5.77064e-06
1413.7	5.72588e-06
1422.26	7.38979e-06
1430.81	1.04017e-05
1439.37	2.25723e-05
1447.93	5.65403e-05
1456.49	7.75512e-05
1465.05	8.41853e-05
1473.6	4.62183e-05
1482.16	2.71907e-05
1490.72	6.29422e-05
1499.28	0.00010362
1507.83	6.82643e-05
1516.39	7.95814e-06
1524.95	6.05183e-06
1533.51	5.4696e-06
1542.06	3.87647e-06
1550.62	3.61441e-06
1559.18	3.11768e-06
1567.74	3.03968e-06
1576.29	2.86307e-06
1584.85	7.40591e-06
1593.41	1.65373e-05
1601.97	4.30209e-05
1610.53	5.1775e-05
1619.08	3.03644e-05
1627.64	4.23059e-06
1636.2	2.51573e-06
1644.76	2.96957e-06
1653.31	1.99977e-06
1661.87	3.5863e-06
1670.43	2.81403e-06
1678.99	2.21686e-06
1687.54	1.28449e-06
1696.1	7.5937e-08
1704.66	7.95404e-07
1713.22	8.58385e-07
1721.77	1.8652e-06
1730.33	4.63796e-06
1738.89	6.02677e-06
1747.45	5.86185e-06
1756.01	2.07184e-06
1764.56	4.94868e-07
1773.12	1.31952e-06
1781.68	1.5422e-06
1790.24	8.33468e-06
1798.79	1.48773e-05
1807.35	9.92309e-06
1815.91	3.05104e-06
1824.47	2.15316e-06
1833.02	9.97022e-07
1841.58	9.49052e-07
1850.14	3.40548e-06
1858.7	8.76915e-06
1867.25	9.79661e-06
1875.81	1.18892e-05
1884.37	7.01551e-06
1892.93	1.5581e-06
1901.49	2.82764e-07
1910.04	5.25923e-07
1918.6	1.68861e-06
1927.16	5.14536e-06
1935.72	1.18968e-05
1944.27	1.33527e-05
1952.83	1.21709e-05
1961.39	6.61128e-06
1969.95	1.10468e-06
1978.5	3.12417e-07
1987.06	3.01514e-07
1995.62	2.69582e-07
2004.18	-2.72682e-07
2012.73	-1.45949e-07
2021.29	2.18132e-07
2029.85	4.92081e-07
2038.41	4.01192e-07
2046.97	-1.14945e-08
2055.52	-1.21433e-07
2064.08	-4.07096e-07
2072.64	-4.67205e-07
2081.2	-3.20409e-07
2089.75	-2.52038e-07
2098.31	-2.96318e-07
2106.87	-2.21834e-07
2115.43	8.15185e-08
2123.98	9.35932e-08
2132.54	-6.25049e-08
2141.1	4.70651e-08
2149.66	-8.29159e-08
2158.21	-1.31406e-07
2166.77	1.85733e-07
2175.33	3.09568e-07
2183.89	1.23134e-08
2192.45	7.19194e-08
2201	5.21914e-08
2209.56	2.98762e-07
2218.12	5.47452e-07
2226.68	4.53943e-07
2235.23	8.24693e-07
2243.79	7.53025e-07
2252.35	4.54593e-07
2260.91	5.88675e-07
2269.46	7.27822e-07
2278.02	1.23611e-06
2286.58	1.01273e-06
2295.14	8.90385e-07
2303.69	6.70591e-07
2312.25	1.39783e-06
2320.81	1.86772e-06
2329.37	1.56695e-06
2337.93	2.05444e-06
2346.48	2.0835e-06
2355.04	1.30802e-06
2363.6	1.41083e-06
2372.16	1.26562e-06
2380.71	6.61176e-07
2389.27	4.95591e-07
2397.83	1.97238e-07
2406.39	5.56088e-07
2414.94	5.80051e-07
2423.5	8.50967e-07
2432.06	9.96555e-07
2440.62	1.29027e-06
2449.17	7.97134e-07
2457.73	7.4862e-08
2466.29	3.39479e-07
2474.85	2.10235e-07
2483.41	1.61025e-07
2491.96	4.12931e-07
2500.52	4.20207e-07
2509.08	5.17586e-07
2517.64	7.09097e-07
2526.19	1.01779e-06
2534.75	1.08957e-06
2543.31	6.86438e-07
2551.87	6.87316e-07
2560.42	7.91905e-07
2568.98	7.51826e-07
2577.54	3.37387e-07
2586.1	9.43259e-07
2594.65	1.27281e-06
2603.21	1.42887e-06
2611.77	1.84991e-06
2620.33	1.73627e-06
2628.89	2.24893e-06
2637.44	3.21572e-06
2646	3.03863e-06
2654.56	1.73228e-06
2663.12	9.2871e-07
2671.67	6.89756e-07
2680.23	8.11291e-07
2688.79	5.65867e-07
2697.35	1.2083e-06
2705.9	1.45125e-06
2714.46	6.4095e-07
2723.02	9.19071e-07
2731.58	2.47568e-06
2740.13	3.46202e-06
2748.69	3.03932e-06
2757.25	2.41585e-06
2765.81	2.81918e-06
2774.37	3.717e-06
2782.92	5.38288e-06
2791.48	6.44406e-06
2800.04	5.30036e-06
2808.6	4.84888e-06
2817.15	6.01918e-06
2825.71	8.30898e-06
2834.27	1.10135e-05
2842.83	1.52858e-05
2851.38	2.14732e-05
2859.94	3.70573e-05
2868.5	7.24173e-05
2877.06	0.000124802
2885.61	0.00015161
2894.17	0.000111686
2902.73	9.24953e-05
2911.29	8.93016e-05
2919.85	7.89683e-05
2928.4	0.000104579
2936.96	0.000174885
2945.52	0.00019882
2954.08	0.000160265
2962.63	0.000164174
2971.19	0.00041596
2979.75	0.00043075
2988.31	0.000131898
2996.86	5.19762e-05
3005.42	4.46764e-05
3013.98	4.93866e-05
3022.54	8.71877e-05
3031.09	0.000208921
3039.65	0.000235579
3048.21	0.000143623
3056.77	6.58705e-05
3065.33	0.000105838
3073.88	0.000156116
3082.44	0.000144889
3091	8.90101e-05
3099.56	7.10742e-05
3108.11	4.47842e-05
3116.67	3.02534e-05
3125.23	1.78974e-05
3133.79	5.77659e-06
3142.34	3.26482e-06
3150.9	3.17343e-06
3159.46	3.4466e-06
3168.02	4.3074e-06
3176.57	5.7064e-06
3185.13	6.01988e-06
3193.69	4.7006e-06
3202.25	1.54914e-06
3210.81	9.75952e-07
3219.36	5.30926e-07
3227.92	5.00355e-07
3236.48	4.24778e-07
3245.04	3.26949e-07
3253.59	6.44927e-07
3262.15	1.04457e-06
3270.71	6.16599e-07
3279.27	5.62757e-07
3287.82	2.60035e-07
3296.38	4.09663e-07
3304.94	4.44922e-07
3313.5	-2.54354e-07
3322.05	-2.52385e-08
3330.61	3.22969e-07
3339.17	8.96702e-09
3347.73	-3.6323e-07
3356.29	-4.08993e-09
3364.84	2.50753e-07
3373.4	-2.07527e-07
3381.96	2.31654e-08
3390.52	3.80633e-07
3399.07	-7.64527e-08
3407.63	5.83682e-08
3416.19	-1.72138e-07
3424.75	-5.78835e-07
3433.3	-2.01999e-07
3441.86	-4.50647e-08
3450.42	-1.05378e-07
3458.98	-1.70718e-07
3467.53	2.79852e-08
3476.09	1.55196e-07
3484.65	-5.82326e-08
3493.21	-1.24377e-07
3501.77	-1.41626e-07
3510.32	2.03535e-07
3518.88	7.82253e-07
3527.44	5.63012e-07
3536	5.9892e-07
3544.55	-5.06574e-07
3553.11	-3.41477e-07
3561.67	-9.93893e-08
3570.23	-8.62646e-08
3578.78	1.9768e-07
3587.34	-2.36907e-07
3595.9	1.24731e-07
3604.46	-3.07868e-08
3613.01	2.60475e-07
3621.57	4.93272e-07
3630.13	2.63569e-07
3638.69	6.36305e-07
3647.25	9.32789e-07
3655.8	1.04753e-06
3664.36	1.21214e-06
3672.92	4.81911e-07
3681.48	6.01343e-07
3690.03	6.41642e-07
3698.59	7.6449e-07
3707.15	6.7494e-07
3715.71	5.63984e-07
3724.26	1.0934e-06
3732.82	4.45059e-07
3741.38	2.38932e-07
3749.94	5.22112e-07
3758.49	3.86688e-07
3767.05	5.66219e-07
3775.61	-2.10927e-08
3784.17	3.51967e-07
3792.73	4.47693e-07
3801.28	-2.20587e-07
3809.84	3.35171e-07
3818.4	3.32981e-07
3826.96	4.42693e-07
3835.51	6.98722e-07
3844.07	6.65368e-07
3852.63	5.78683e-07
3861.19	4.14558e-07
3869.74	9.5841e-08
3878.3	3.62529e-07
3886.86	-2.79895e-07
3895.42	-1.54871e-08
3903.97	4.54399e-08
3912.53	5.55442e-07
3921.09	5.30375e-07
3929.65	1.25682e-06
3938.21	1.38201e-06
3946.76	1.70976e-06
3955.32	7.83487e-07
3963.88	7.87318e-07
3972.44	8.66377e-07
