Infrared Spectrum: BENZONITRILE
Formula: C7 H5 N
CAS: 100-47-0
State: SOLUTION (10.14% IN CCl4 FOR 3800-1300, 10.05% IN CS2 FOR 1300-600, AND 10.14% IN CS2 FOR 600-250 CM^-^1) VERSUS SOLVENT
Class: COBLENTZ
Instrument: PERKIN-ELMER 521 (GRATING)
Instrument parameters: FILTERS AT 3150, 2500, 2000, 1150, 700, 410; GRATING CHANGES AT 2000, 630 CM^-^1
Sampling: TRANSMISSION
Path length: 0.010, 0.010 (NaCl CELL), AND 0.0201 CM (CsBr CELL)
Resolution: 4
Origin: DOW CORNING CORP.
1/CM	TRANSMITTANCE
234.88	0.822
243.84	0.827
252.8	0.829
261.76	0.83
270.72	0.83
279.68	0.829
288.64	0.832
297.6	0.837
306.56	0.837
315.52	0.833
324.481	0.845
333.441	0.829
342.401	0.822
351.361	0.822
360.321	0.806
369.281	0.766
378.241	0.648
387.201	0.76
396.161	0.774
405.121	0.779
414.081	0.785
423.041	0.785
432.001	0.779
440.961	0.782
449.921	0.782
458.881	0.734
467.841	0.785
476.801	0.795
485.761	0.784
494.721	0.776
503.682	0.774
512.642	0.773
521.602	0.766
530.562	0.733
539.522	0.5045
548.482	0.043
557.442	0.664
566.402	0.822
575.362	0.853
584.322	0.865
593.282	0.876
602.242	0.876
611.202	0.876
620.162	0.884
629.122	0.854
638.082	0.854
647.042	0.846
656.002	0.829
664.962	0.824
673.922	0.664
682.883	0.5249
691.843	0.027
700.803	0.549
709.763	0.758
718.723	0.8
727.683	0.822
736.643	0.801
745.603	0.6991
754.563	0.2871
763.523	0.102
772.483	0.6451
781.443	0.808
790.403	0.83
799.363	0.838
808.323	0.853
817.283	0.854
826.243	0.848
835.203	0.829
844.163	0.838
853.123	0.854
862.084	0.857
871.044	0.857
880.004	0.853
888.964	0.83
897.924	0.827
906.884	0.8
915.844	0.725
924.804	0.5168
933.764	0.7789
942.724	0.817
951.684	0.824
960.644	0.821
969.604	0.814
978.564	0.811
987.524	0.811
996.484	0.806
1005.44	0.781
1014.4	0.819
1023.36	0.781
1032.32	0.6111
1041.28	0.833
1050.24	0.835
1059.2	0.817
1068.16	0.736
1077.12	0.7599
1086.08	0.817
1095.04	0.781
1104	0.8299
1112.96	0.849
1121.92	0.843
1130.89	0.837
1139.85	0.829
1148.81	0.816
1157.77	0.779
1166.73	0.744
1175.69	0.725
1184.65	0.753
1193.61	0.7141
1202.57	0.806
1211.53	0.814
1220.49	0.838
1229.45	0.851
1238.41	0.857
1247.37	0.859
1256.33	0.854
1265.29	0.857
1274.25	0.833
1283.21	0.779
1292.17	0.699
1301.13	0.825
1310.09	0.872
1319.05	0.873
1328.01	0.87
1336.97	0.816
1345.93	0.869
1354.89	0.872
1363.85	0.869
1372.81	0.869
1381.77	0.864
1390.73	0.833
1399.69	0.865
1408.65	0.864
1417.61	0.867
1426.57	0.87
1435.53	0.851
1444.49	0.76
1453.45	0.1283
1462.41	0.841
1471.37	0.846
1480.33	0.835
1489.29	0.6368
1498.25	0.3429
1507.21	0.864
1516.17	0.873
1525.13	0.883
1534.09	0.886
1543.05	0.937
1552.01	0.947
1560.97	0.92
1569.93	0.8919
1578.89	0.8399
1587.85	0.803
1596.81	0.801
1605.77	0.7472
1614.73	0.835
1623.69	0.864
1632.65	0.872
1641.61	0.873
1650.57	0.872
1659.53	0.867
1668.49	0.865
1677.45	0.833
1686.41	0.822
1695.37	0.864
1704.33	0.873
1713.29	0.872
1722.25	0.87
1731.21	0.869
1740.17	0.865
1749.13	0.862
1758.09	0.841
1767.05	0.809
1776.01	0.857
1784.97	0.864
1793.93	0.869
1802.89	0.857
1811.85	0.793
1820.81	0.843
1829.77	0.861
1838.73	0.861
1847.69	0.872
1856.65	0.876
1865.61	0.88
1874.57	0.873
1883.53	0.851
1892.49	0.792
1901.45	0.829
1910.41	0.83
1919.37	0.849
1928.33	0.869
1937.29	0.87
1946.25	0.865
1955.21	0.832
1964.17	0.797
1973.13	0.835
1982.09	0.817
1991.05	0.859
2000.01	0.875
2008.97	0.881
2017.93	0.883
2026.89	0.883
2035.85	0.886
2044.81	0.8851
2053.77	0.884
2062.73	0.883
2071.69	0.883
2080.65	0.883
2089.61	0.884
2098.57	0.8836
2107.53	0.883
2116.49	0.88
2125.45	0.878
2134.41	0.878
2143.37	0.876
2152.33	0.873
2161.29	0.87
2170.25	0.867
2179.21	0.862
2188.17	0.864
2197.13	0.8594
2206.09	0.8369
2215.05	0.826
2224.01	0.6495
2232.97	0.1575
2241.93	0.5356
2250.89	0.8092
2259.85	0.8224
2268.81	0.858
2277.77	0.862
2286.73	0.8716
2295.69	0.873
2304.65	0.8722
2313.61	0.8691
2322.57	0.864
2331.53	0.865
2340.49	0.859
2349.45	0.8613
2358.41	0.864
2367.37	0.865
2376.33	0.867
2385.29	0.865
2394.25	0.867
2403.21	0.8705
2412.17	0.872
2421.13	0.873
2430.09	0.873
2439.05	0.873
2448.01	0.873
2456.97	0.873
2465.93	0.873
2474.89	0.872
2483.85	0.873
2492.81	0.872
2501.77	0.872
2510.73	0.869
2519.69	0.87
2528.65	0.873
2537.61	0.873
2546.57	0.873
2555.53	0.8707
2564.49	0.865
2573.45	0.864
2582.41	0.8691
2591.37	0.8677
2600.33	0.8672
2609.29	0.87
2618.25	0.87
2627.21	0.868
2636.17	0.87
2645.13	0.872
2654.09	0.8718
2663.05	0.8683
2672.01	0.8638
2680.97	0.8579
2689.93	0.859
2698.89	0.8657
2707.85	0.873
2716.81	0.873
2725.77	0.872
2734.73	0.8725
2743.69	0.8699
2752.65	0.867
2761.61	0.8639
2770.57	0.8509
2779.53	0.8511
2788.49	0.86
2797.45	0.865
2806.41	0.866
2815.37	0.87
2824.33	0.869
2833.29	0.869
2842.25	0.8626
2851.21	0.853
2860.17	0.851
2869.13	0.851
2878.09	0.851
2887.05	0.851
2896.01	0.851
2904.98	0.848
2913.94	0.846
2922.9	0.843
2931.86	0.843
2940.82	0.8504
2949.78	0.8502
2958.74	0.8508
2967.7	0.848
2976.66	0.848
2985.62	0.8499
2994.58	0.8401
3003.54	0.83
3012.5	0.827
3021.46	0.8129
3030.42	0.7795
3039.38	0.7783
3048.34	0.7711
3057.3	0.7418
3066.26	0.6405
3075.22	0.6648
3084.18	0.739
3093.14	0.7198
3102.1	0.7885
3111.06	0.8029
3120.02	0.8276
3128.98	0.8422
3137.94	0.841
3146.9	0.8377
3155.86	0.835
3164.82	0.8461
3173.78	0.8525
3182.74	0.8563
3191.7	0.8547
3200.66	0.8582
3209.62	0.8715
3218.58	0.872
3227.54	0.8727
3236.5	0.876
3245.46	0.878
3254.42	0.8784
3263.38	0.881
3272.34	0.883
3281.3	0.8837
3290.26	0.884
3299.22	0.8837
3308.18	0.886
3317.14	0.884
3326.1	0.884
3335.06	0.886
3344.02	0.8857
3352.98	0.884
3361.94	0.884
3370.9	0.884
3379.86	0.8827
3388.82	0.8775
3397.78	0.8699
3406.74	0.8644
3415.7	0.862
3424.66	0.8662
3433.62	0.875
3442.58	0.8806
3451.54	0.883
3460.5	0.8836
3469.46	0.884
3478.42	0.884
3487.38	0.886
3496.34	0.8871
3505.3	0.888
3514.26	0.8849
3523.22	0.886
3532.18	0.886
3541.14	0.884
3550.1	0.886
3559.06	0.886
3568.02	0.891
3576.98	0.894
3585.94	0.896
3594.9	0.894
3603.86	0.893
3612.82	0.892
3621.78	0.894
3630.74	0.892
3639.7	0.8929
3648.66	0.8921
3657.62	0.8901
3666.58	0.8887
3675.54	0.897
3684.5	0.891
3693.46	0.891
3702.42	0.892
3711.38	0.8927
3720.34	0.8888
3729.3	0.8923
3738.26	0.899
3747.22	0.9058
3756.18	0.899
3765.14	0.897
3774.1	0.8956
3783.06	0.899
