Infrared Spectrum: Ethylbenzene
Formula: C6 H5 C2 H5
CAS: 100-41-4
State: gas
Melting point: -94.97 C
Boiling point: 136.2 C
Class: IUPAC A
Instrument: IFS66V (Bruker)
Instrument parameters: KBr Beam Splitter; MCT Detector; Multipass cell
Sampling: 1 L/min Flow
Resolution: 0.9640
Temperature: 23 C
Pressure: 101.3 Pa
Origin: NIST, Analytical Chemistry Division, 301-975-3108
cm-1	(micromol/mol)-1m-1 (base 10)
575.17	4.14079e-06
583.848	4.26898e-07
592.526	-1.02221e-07
601.205	6.18164e-08
609.883	3.45367e-07
618.561	-6.13249e-07
627.239	6.16675e-07
635.917	2.85046e-07
644.595	-1.5722e-07
653.274	5.38589e-07
661.952	9.65916e-07
670.63	8.47123e-06
679.308	4.98216e-05
687.986	0.000146231
696.665	0.000316574
705.343	0.000169992
714.021	9.85806e-05
722.699	7.72743e-05
731.377	9.4621e-05
740.055	0.000117068
748.734	0.000112974
757.412	8.92535e-05
766.09	6.10874e-05
774.768	4.11344e-05
783.446	2.894e-05
792.125	1.54711e-05
800.803	9.53101e-06
809.481	5.23714e-06
818.159	2.68505e-06
826.837	1.15305e-06
835.515	6.49414e-07
844.194	2.09806e-07
852.872	-1.10335e-07
861.55	-1.87025e-07
870.228	6.9901e-07
878.906	2.09933e-06
887.584	5.25898e-06
896.263	7.27246e-06
904.941	9.54329e-06
913.619	6.35902e-06
922.297	1.4368e-06
930.975	2.29054e-07
939.654	1.62121e-07
948.332	1.134e-06
957.01	9.36276e-06
965.688	1.13319e-05
974.366	7.32511e-06
983.044	2.0778e-06
991.723	1.95605e-06
1000.4	3.70439e-06
1009.08	4.48396e-06
1017.76	1.09157e-05
1026.44	3.07543e-05
1035.11	3.30046e-05
1043.79	2.08434e-05
1052.47	1.67224e-05
1061.15	2.82598e-05
1069.83	2.87565e-05
1078.5	1.01956e-05
1087.18	1.06205e-05
1095.86	1.17116e-05
1104.54	9.55388e-06
1113.22	6.99223e-06
1121.9	3.82911e-06
1130.57	1.56682e-06
1139.25	9.54071e-07
1147.93	7.35492e-07
1156.61	5.82067e-10
1165.29	1.14829e-07
1173.96	-2.19238e-07
1182.64	3.37232e-07
1191.32	9.28255e-07
1200	1.29442e-06
1208.68	9.44164e-07
1217.36	1.67458e-07
1226.03	1.3927e-07
1234.71	1.89457e-06
1243.39	2.29782e-06
1252.07	1.78809e-06
1260.75	1.62672e-06
1269.42	1.67151e-06
1278.1	2.11357e-06
1286.78	3.17069e-06
1295.46	4.66347e-06
1304.14	5.74785e-06
1312.82	7.33974e-06
1321.49	1.57585e-05
1330.17	2.17002e-05
1338.85	1.48353e-05
1347.53	5.96561e-06
1356.21	3.64759e-06
1364.88	5.41171e-06
1373.56	1.18463e-05
1382.24	1.8015e-05
1390.92	1.42054e-05
1399.6	7.63382e-06
1408.28	5.52271e-06
1416.95	6.15661e-06
1425.63	8.17022e-06
1434.31	1.34309e-05
1442.99	3.37876e-05
1451.67	7.40268e-05
1460.34	8.45302e-05
1469.02	6.91492e-05
1477.7	3.67541e-05
1486.38	3.27526e-05
1495.06	9.76607e-05
1503.74	8.51566e-05
1512.41	1.93119e-05
1521.09	5.22915e-06
1529.77	6.31511e-06
1538.45	5.20015e-06
1547.13	3.73565e-06
1555.8	3.39672e-06
1564.48	3.17597e-06
1573.16	3.55949e-06
1581.84	6.01117e-06
1590.52	1.37554e-05
1599.2	3.15566e-05
1607.87	5.15148e-05
1616.55	4.15345e-05
1625.23	6.8525e-06
1633.91	2.85485e-06
1642.59	2.68397e-06
1651.26	3.68465e-06
1659.94	3.57238e-06
1668.62	3.09559e-06
1677.3	2.3945e-06
1685.98	1.17289e-06
1694.66	7.72593e-07
1703.33	7.6297e-07
1712.01	9.49307e-07
1720.69	1.64605e-06
1729.37	4.08976e-06
1738.05	6.4055e-06
1746.72	6.23648e-06
1755.4	2.24218e-06
1764.08	5.17935e-07
1772.76	5.46205e-07
1781.44	1.54303e-06
1790.12	8.16876e-06
1798.79	1.4996e-05
1807.47	9.74013e-06
1816.15	2.94625e-06
1824.83	2.06951e-06
1833.51	7.72513e-07
1842.18	1.12038e-06
1850.86	3.52952e-06
1859.54	9.00299e-06
1868.22	1.08957e-05
1876.9	1.09339e-05
1885.58	7.95021e-06
1894.25	1.07124e-06
1902.93	3.24009e-07
1911.61	6.55151e-07
1920.29	2.15652e-06
1928.97	6.48198e-06
1937.64	1.15452e-05
1946.32	1.40131e-05
1955	1.05525e-05
1963.68	7.57955e-06
1972.36	3.49995e-07
1981.04	4.151e-07
1989.71	4.07084e-07
1998.39	1.00802e-07
2007.07	6.99113e-08
2015.75	1.92791e-07
2024.43	5.4135e-07
2033.1	5.62534e-07
2041.78	2.3512e-07
2050.46	-1.24923e-07
2059.14	-3.79739e-07
2067.82	-3.91403e-07
2076.5	-4.14707e-07
2085.17	-3.71539e-07
2093.85	-3.20841e-07
2102.53	-2.08934e-07
2111.21	-1.33182e-07
2119.89	9.7926e-08
2128.56	1.36906e-07
2137.24	-5.63455e-08
2145.92	-6.67354e-08
2154.6	-5.94259e-08
2163.28	7.61835e-08
2171.96	4.30325e-08
2180.63	-4.48169e-08
2189.31	9.95048e-08
2197.99	8.64943e-08
2206.67	2.02433e-07
2215.35	4.58355e-07
2224.02	6.09078e-07
2232.7	6.24481e-07
2241.38	6.68552e-07
2250.06	5.27848e-07
2258.74	5.64475e-07
2267.42	8.37722e-07
2276.09	9.96639e-07
2284.77	1.13649e-06
2293.45	8.56743e-07
2302.13	6.78652e-07
2310.81	1.65657e-06
2319.48	1.71497e-06
2328.16	1.21969e-06
2336.84	2.4012e-06
2345.52	2.12981e-06
2354.2	8.98238e-07
2362.88	-4.53489e-08
2371.55	5.85236e-07
2380.23	6.95992e-07
2388.91	4.01213e-07
2397.59	1.72153e-07
2406.27	4.69202e-07
2414.94	6.70645e-07
2423.62	7.5737e-07
2432.3	1.02761e-06
2440.98	1.30675e-06
2449.66	6.58071e-07
2458.34	1.52927e-07
2467.01	1.34983e-07
2475.69	1.39298e-07
2484.37	1.7797e-07
2493.05	3.98996e-07
2501.73	4.00345e-07
2510.4	5.71168e-07
2519.08	6.58382e-07
2527.76	9.25402e-07
2536.44	8.38351e-07
2545.12	5.85911e-07
2553.8	6.89362e-07
2562.47	6.18437e-07
2571.15	5.53018e-07
2579.83	6.91389e-07
2588.51	8.91993e-07
2597.19	1.23273e-06
2605.86	1.80017e-06
2614.54	1.98038e-06
2623.22	1.852e-06
2631.9	2.53645e-06
2640.58	3.24375e-06
2649.26	2.54214e-06
2657.93	1.2225e-06
2666.61	6.63498e-07
2675.29	6.30608e-07
2683.97	7.58389e-07
2692.65	1.0044e-06
2701.32	1.43805e-06
2710	1.50195e-06
2718.68	9.77256e-07
2727.36	1.65415e-06
2736.04	3.50103e-06
2744.72	3.35034e-06
2753.39	2.29745e-06
2762.07	2.68032e-06
2770.75	3.44647e-06
2779.43	5.00938e-06
2788.11	6.0276e-06
2796.78	5.60902e-06
2805.46	4.93839e-06
2814.14	5.42259e-06
2822.82	7.1252e-06
2831.5	1.04815e-05
2840.18	1.42005e-05
2848.85	1.85553e-05
2857.53	3.09721e-05
2866.21	6.20306e-05
2874.89	0.000105039
2883.57	0.000132586
2892.24	0.000117937
2900.92	9.33745e-05
2909.6	8.77733e-05
2918.28	8.02873e-05
2926.96	9.68922e-05
2935.63	0.000162892
2944.31	0.000205992
2952.99	0.000166433
2961.67	0.000146199
2970.35	0.000420162
2979.03	0.000429815
2987.7	0.000144779
2996.38	5.36767e-05
3005.06	4.45039e-05
3013.74	4.90244e-05
3022.42	8.64218e-05
3031.09	0.000209205
3039.77	0.000235494
3048.45	0.000140033
3057.13	6.60464e-05
3065.81	0.000111118
3074.49	0.000167881
3083.16	0.000137811
3091.84	8.52127e-05
3100.52	6.87668e-05
3109.2	4.25256e-05
3117.88	2.85049e-05
3126.55	1.47916e-05
3135.23	4.88103e-06
3143.91	3.25556e-06
3152.59	3.28381e-06
3161.27	3.57816e-06
3169.95	4.6331e-06
3178.62	5.97727e-06
3187.3	5.98598e-06
3195.98	3.76254e-06
3204.66	1.78269e-06
3213.34	6.09645e-07
3222.01	6.19556e-07
3230.69	3.30432e-07
3239.37	5.3235e-07
3248.05	5.34556e-07
3256.73	4.27696e-07
3265.41	5.42392e-07
3274.08	4.48478e-07
3282.76	4.83396e-07
3291.44	5.40337e-07
3300.12	2.70773e-07
3308.8	1.77835e-07
3317.47	1.47412e-07
3326.15	-3.26019e-07
3334.83	1.94437e-07
3343.51	1.17781e-07
3352.19	3.30637e-07
3360.87	-1.16548e-07
3369.54	-1.17135e-07
3378.22	7.6113e-08
3386.9	2.36587e-07
3395.58	2.91335e-07
3404.26	7.72094e-08
3412.93	-2.53823e-07
3421.61	-9.37965e-08
3430.29	7.87673e-08
3438.97	2.04508e-07
3447.65	-8.59572e-08
3456.33	-1.15017e-07
3465	-2.26654e-07
3473.68	-5.13502e-08
3482.36	-3.7355e-07
3491.04	-4.47657e-07
3499.72	-1.60746e-07
3508.39	-3.50294e-07
3517.07	2.67132e-07
3525.75	2.61188e-07
3534.43	5.75516e-07
3543.11	-1.6976e-07
3551.79	-3.40095e-08
3560.46	3.55675e-08
3569.14	-1.43825e-07
3577.82	-3.33866e-08
3586.5	3.02161e-08
3595.18	-1.69162e-07
3603.85	-1.49737e-07
3612.53	-1.88746e-07
3621.21	5.16132e-07
3629.89	6.59855e-08
3638.57	5.73868e-07
3647.25	5.42851e-07
3655.92	1.02657e-06
3664.6	1.17477e-06
3673.28	5.22274e-07
3681.96	5.20083e-07
3690.64	4.68758e-07
3699.31	6.78121e-07
3707.99	6.24198e-07
3716.67	5.97547e-07
3725.35	6.63706e-07
3734.03	4.79983e-07
3742.71	3.24143e-07
3751.38	2.00297e-07
3760.06	1.37179e-07
3768.74	3.28561e-07
3777.42	3.83351e-07
3786.1	3.77301e-07
3794.77	5.14427e-07
3803.45	2.98148e-07
3812.13	3.14915e-07
3820.81	1.3801e-07
3829.49	6.56104e-07
3838.17	1.48659e-07
3846.84	8.0398e-07
3855.52	3.82403e-07
3864.2	1.11985e-07
3872.88	3.18011e-07
3881.56	-1.7829e-08
3890.23	-9.61807e-08
3898.91	-1.08333e-08
3907.59	2.35788e-07
3916.27	5.57252e-07
3924.95	7.32853e-07
3933.63	1.35187e-06
3942.3	1.46014e-06
3950.98	1.2297e-06
3959.66	6.86851e-07
3968.34	1.02599e-06
