Infrared Spectrum: Ethylbenzene
Formula: C6 H5 C2 H5
CAS: 100-41-4
State: gas
Melting point: -94.97 C
Boiling point: 136.2 C
Class: IUPAC A
Instrument: IFS66V (Bruker)
Instrument parameters: KBr Beam Splitter; MCT Detector; Multipass cell
Sampling: 1 L/min Flow
Resolution: 0.9640
Temperature: 23 C
Pressure: 101.3 Pa
Origin: NIST, Analytical Chemistry Division, 301-975-3108
cm-1	(micromol/mol)-1m-1 (base 10)
575.17	4.44952e-06
583.848	1.15534e-06
592.526	-4.17188e-08
601.205	1.88596e-07
609.883	2.08124e-07
618.561	-1.53905e-07
627.239	8.01079e-07
635.917	4.3772e-07
644.595	6.09483e-08
653.274	2.31322e-08
661.952	8.79687e-07
670.63	8.20993e-06
679.308	4.98431e-05
687.986	0.000146514
696.665	0.000318484
705.343	0.000170656
714.021	9.87375e-05
722.699	7.76263e-05
731.377	9.49649e-05
740.055	0.00011862
748.734	0.000115013
757.412	8.83356e-05
766.09	6.09649e-05
774.768	4.09411e-05
783.446	2.87996e-05
792.125	1.55726e-05
800.803	9.29731e-06
809.481	5.14837e-06
818.159	2.59427e-06
826.837	1.17569e-06
835.515	5.62962e-07
844.194	2.64224e-07
852.872	-1.25288e-07
861.55	-1.99825e-07
870.228	5.78118e-07
878.906	2.11774e-06
887.584	5.13747e-06
896.263	7.3396e-06
904.941	9.40597e-06
913.619	6.15983e-06
922.297	1.41206e-06
930.975	1.02062e-07
939.654	3.24821e-08
948.332	1.02658e-06
957.01	9.1937e-06
965.688	1.12966e-05
974.366	7.26305e-06
983.044	2.04281e-06
991.723	1.98323e-06
1000.4	3.65135e-06
1009.08	4.48146e-06
1017.76	1.0865e-05
1026.44	3.07773e-05
1035.11	3.28564e-05
1043.79	2.07501e-05
1052.47	1.67001e-05
1061.15	2.83085e-05
1069.83	2.85933e-05
1078.5	1.02662e-05
1087.18	1.06148e-05
1095.86	1.17256e-05
1104.54	9.42793e-06
1113.22	7.05234e-06
1121.9	3.7656e-06
1130.57	1.56155e-06
1139.25	9.34186e-07
1147.93	6.40641e-07
1156.61	7.24633e-08
1165.29	2.94699e-08
1173.96	-1.16074e-07
1182.64	3.29416e-07
1191.32	8.5264e-07
1200	1.29724e-06
1208.68	9.69134e-07
1217.36	1.35216e-07
1226.03	1.08633e-07
1234.71	1.88257e-06
1243.39	2.31937e-06
1252.07	1.83677e-06
1260.75	1.63851e-06
1269.42	1.66683e-06
1278.1	2.05171e-06
1286.78	3.18189e-06
1295.46	4.74751e-06
1304.14	5.74231e-06
1312.82	7.40287e-06
1321.49	1.59131e-05
1330.17	2.16441e-05
1338.85	1.48939e-05
1347.53	5.86158e-06
1356.21	3.55185e-06
1364.88	5.47782e-06
1373.56	1.17057e-05
1382.24	1.79954e-05
1390.92	1.41573e-05
1399.6	7.56857e-06
1408.28	5.45009e-06
1416.95	6.10301e-06
1425.63	8.14087e-06
1434.31	1.34234e-05
1442.99	3.39201e-05
1451.67	7.39297e-05
1460.34	8.45599e-05
1469.02	6.90757e-05
1477.7	3.67553e-05
1486.38	3.27509e-05
1495.06	9.68912e-05
1503.74	8.54756e-05
1512.41	1.95399e-05
1521.09	5.48908e-06
1529.77	6.25569e-06
1538.45	4.87914e-06
1547.13	3.76587e-06
1555.8	3.37765e-06
1564.48	3.19962e-06
1573.16	3.58974e-06
1581.84	5.98931e-06
1590.52	1.37356e-05
1599.2	3.13617e-05
1607.87	5.15064e-05
1616.55	4.17679e-05
1625.23	6.91398e-06
1633.91	2.76933e-06
1642.59	2.70657e-06
1651.26	3.78791e-06
1659.94	3.56152e-06
1668.62	2.92192e-06
1677.3	2.37846e-06
1685.98	1.34121e-06
1694.66	8.326e-07
1703.33	7.37476e-07
1712.01	9.088e-07
1720.69	1.63007e-06
1729.37	4.06449e-06
1738.05	6.34802e-06
1746.72	6.21436e-06
1755.4	2.232e-06
1764.08	5.51475e-07
1772.76	8.38319e-07
1781.44	1.51432e-06
1790.12	8.10917e-06
1798.79	1.4839e-05
1807.47	9.74985e-06
1816.15	2.9919e-06
1824.83	2.07997e-06
1833.51	7.84178e-07
1842.18	1.11779e-06
1850.86	3.55872e-06
1859.54	9.00013e-06
1868.22	1.08309e-05
1876.9	1.09541e-05
1885.58	7.90306e-06
1894.25	1.12437e-06
1902.93	3.80546e-07
1911.61	6.39037e-07
1920.29	2.17718e-06
1928.97	6.52179e-06
1937.64	1.14944e-05
1946.32	1.39923e-05
1955	1.05275e-05
1963.68	7.49334e-06
1972.36	3.87532e-07
1981.04	4.14259e-07
1989.71	4.21742e-07
1998.39	1.35843e-07
2007.07	-2.87759e-09
2015.75	1.59049e-07
2024.43	5.15552e-07
2033.1	5.75406e-07
2041.78	2.3215e-07
2050.46	-1.4379e-07
2059.14	-3.72277e-07
2067.82	-4.31806e-07
2076.5	-3.7667e-07
2085.17	-3.25486e-07
2093.85	-2.49655e-07
2102.53	-1.68766e-07
2111.21	-1.54858e-07
2119.89	3.49149e-09
2128.56	9.52166e-08
2137.24	-5.0452e-08
2145.92	-3.70836e-08
2154.6	-1.5307e-08
2163.28	1.04821e-07
2171.96	5.91471e-08
2180.63	6.54726e-08
2189.31	1.17184e-07
2197.99	6.20647e-08
2206.67	1.96986e-07
2215.35	4.74551e-07
2224.02	5.90112e-07
2232.7	6.45435e-07
2241.38	6.5122e-07
2250.06	5.25094e-07
2258.74	6.10707e-07
2267.42	7.95078e-07
2276.09	1.03558e-06
2284.77	1.10838e-06
2293.45	8.81897e-07
2302.13	6.72311e-07
2310.81	1.61567e-06
2319.48	1.64789e-06
2328.16	1.19697e-06
2336.84	2.10542e-06
2345.52	2.12133e-06
2354.2	1.13754e-06
2362.88	5.20479e-07
2371.55	8.48064e-07
2380.23	7.19431e-07
2388.91	4.4483e-07
2397.59	2.46116e-07
2406.27	4.67897e-07
2414.94	6.90594e-07
2423.62	7.42465e-07
2432.3	1.04885e-06
2440.98	1.28046e-06
2449.66	7.1811e-07
2458.34	1.65323e-07
2467.01	1.42821e-07
2475.69	1.6573e-07
2484.37	2.10392e-07
2493.05	3.64687e-07
2501.73	3.81271e-07
2510.4	5.4459e-07
2519.08	6.39973e-07
2527.76	8.96522e-07
2536.44	8.71599e-07
2545.12	6.61573e-07
2553.8	6.86857e-07
2562.47	6.42526e-07
2571.15	5.99884e-07
2579.83	7.2341e-07
2588.51	8.77747e-07
2597.19	1.21222e-06
2605.86	1.80876e-06
2614.54	1.86653e-06
2623.22	1.81686e-06
2631.9	2.60748e-06
2640.58	3.25135e-06
2649.26	2.57667e-06
2657.93	1.25438e-06
2666.61	7.12845e-07
2675.29	6.52065e-07
2683.97	6.777e-07
2692.65	9.43713e-07
2701.32	1.44217e-06
2710	1.42647e-06
2718.68	1.04642e-06
2727.36	1.67323e-06
2736.04	3.53923e-06
2744.72	3.33018e-06
2753.39	2.34911e-06
2762.07	2.65823e-06
2770.75	3.46514e-06
2779.43	5.01613e-06
2788.11	6.04248e-06
2796.78	5.64264e-06
2805.46	4.92537e-06
2814.14	5.34896e-06
2822.82	7.22832e-06
2831.5	1.0525e-05
2840.18	1.42118e-05
2848.85	1.85399e-05
2857.53	3.10223e-05
2866.21	6.20341e-05
2874.89	0.000105111
2883.57	0.000132844
2892.24	0.000117782
2900.92	9.32782e-05
2909.6	8.79059e-05
2918.28	8.03896e-05
2926.96	9.69112e-05
2935.63	0.000162767
2944.31	0.000206122
2952.99	0.000166393
2961.67	0.000147005
2970.35	0.000419066
2979.03	0.000428839
2987.7	0.000145192
2996.38	5.37963e-05
3005.06	4.45112e-05
3013.74	4.91195e-05
3022.42	8.65554e-05
3031.09	0.000208862
3039.77	0.000235625
3048.45	0.000140038
3057.13	6.60119e-05
3065.81	0.000111151
3074.49	0.000167549
3083.16	0.00013756
3091.84	8.52552e-05
3100.52	6.87453e-05
3109.2	4.2578e-05
3117.88	2.8395e-05
3126.55	1.46916e-05
3135.23	4.89222e-06
3143.91	3.22251e-06
3152.59	3.25398e-06
3161.27	3.56524e-06
3169.95	4.56944e-06
3178.62	5.93413e-06
3187.3	5.92602e-06
3195.98	3.80459e-06
3204.66	1.66008e-06
3213.34	6.85183e-07
3222.01	5.42276e-07
3230.69	3.62156e-07
3239.37	4.57783e-07
3248.05	5.99693e-07
3256.73	4.65125e-07
3265.41	6.03407e-07
3274.08	5.67526e-07
3282.76	5.00167e-07
3291.44	4.91548e-07
3300.12	3.33283e-07
3308.8	3.25667e-07
3317.47	1.42732e-07
3326.15	-1.31484e-07
3334.83	8.37886e-08
3343.51	9.28761e-08
3352.19	1.34441e-07
3360.87	-1.66195e-07
3369.54	-6.52284e-08
3378.22	1.5539e-07
3386.9	1.29326e-07
3395.58	2.31446e-07
3404.26	6.71415e-08
3412.93	-2.09844e-07
3421.61	-9.33877e-08
3430.29	6.74529e-08
3438.97	1.39833e-07
3447.65	-2.00313e-09
3456.33	-7.73881e-08
3465	-2.42828e-07
3473.68	-1.35156e-07
3482.36	-3.30055e-07
3491.04	-4.29278e-07
3499.72	-1.81341e-07
3508.39	-2.1043e-07
3517.07	2.19299e-07
3525.75	3.38791e-07
3534.43	4.92103e-07
3543.11	-1.48705e-07
3551.79	-4.40961e-08
3560.46	-6.31306e-08
3569.14	-1.36602e-07
3577.82	-3.04894e-08
3586.5	-1.30115e-08
3595.18	-1.47436e-08
3603.85	-1.18136e-07
3612.53	-1.21907e-08
3621.21	4.37577e-07
3629.89	1.54045e-07
3638.57	5.86983e-07
3647.25	6.02286e-07
3655.92	9.98776e-07
3664.6	1.14275e-06
3673.28	4.44717e-07
3681.96	5.06597e-07
3690.64	4.70538e-07
3699.31	6.66222e-07
3707.99	5.86368e-07
3716.67	6.34706e-07
3725.35	6.60988e-07
3734.03	3.12166e-07
3742.71	3.34559e-07
3751.38	4.81356e-08
3760.06	2.43101e-07
3768.74	3.66293e-07
3777.42	4.26275e-07
3786.1	3.40857e-07
3794.77	4.57997e-07
3803.45	3.03711e-07
3812.13	3.8314e-07
3820.81	2.81691e-07
3829.49	6.11229e-07
3838.17	2.12644e-07
3846.84	7.91892e-07
3855.52	4.03756e-07
3864.2	1.38791e-07
3872.88	2.38302e-07
3881.56	-1.35358e-08
3890.23	-8.09492e-08
3898.91	-6.90354e-08
3907.59	2.99574e-07
3916.27	5.43957e-07
3924.95	7.92211e-07
3933.63	1.41216e-06
3942.3	1.51961e-06
3950.98	1.20407e-06
3959.66	8.01621e-07
3968.34	1.0083e-06
