Infrared Spectrum: Cyclotrisilazane, Hexamethyl-
Formula: C6 H21 N3 Si3
CAS: 1009-93-4
State: SOLUTION (10% CCl4 FOR 3800-1300, 2% CS2 FOR 1300-650, AND 10% CCl4 FOR 650-250);
Boiling point: 188 C
Class: COBLENTZ III
Instrument: PERKIN-ELMER 521 (GRATING)
Instrument parameters: FILTERS AT 3150, 2500, 2000, 1150, 700, 410. GRATING CHANGES: 2000, 630 CM^-^1
Sampling: TRANSMISSION
Path length: 0.010 CM, 0.011 CM, AND 0.010 CM
Resolution: 2
Origin: DOW CORNING CORP.
1/CM	TRANSMITTANCE
225	0.7773
234	0.7538
243	0.7261
252	0.6977
261	0.6445
270	0.5789
279	0.5134
288	0.4553
297	0.4462
306	0.4805
315	0.5955
324	0.6938
333	0.6983
342	0.6757
351	0.6498
360	0.6365
369	0.5994
378	0.477
387	0.3289
396	0.2292
405	0.3583
414	0.4851
423	0.5754
432	0.6705
441	0.7425
450	0.7867
459	0.8156
468	0.8357
477	0.8478
486	0.8562
495	0.8607
504	0.8642
513	0.8672
522	0.869
531	0.868
540	0.8637
549	0.8583
558	0.8508
567	0.8365
576	0.7985
585	0.7548
594	0.6812
603	0.4605
612	0.2684
621	0.3179
630	0.4552
639	0.6867
648	0.7516
657	0.8287
666	0.7924
675	0.7507
684	0.7962
693	0.8502
702	0.8569
711	0.8575
720	0.8556
729	0.8531
738	0.8492
747	0.8366
756	0.793
765	0.7162
774	0.6255
783	0.2976
792	0.3291
801	0.5126
810	0.3017
819	0.5894
828	0.7388
837	0.7401
846	0.6617
855	0.5073
864	0.5098
873	0.6792
882	0.6858
891	0.6515
900	0.5537
909	0.2698
918	0.0159
927	0.0307
936	0.2656
945	0.5064
954	0.7141
963	0.8064
972	0.8519
981	0.8722
990	0.8793
999	0.8863
1008	0.9021
1017	0.9114
1026	0.9127
1035	0.9102
1044	0.9034
1053	0.9006
1062	0.9001
1071	0.8966
1080	0.8911
1089	0.8836
1098	0.8617
1107	0.8184
1116	0.7668
1125	0.6574
1134	0.5363
1143	0.3301
1152	0.188
1161	0.2106
1170	0.3833
1179	0.5786
1188	0.7433
1197	0.812
1206	0.8385
1215	0.8348
1224	0.8083
1233	0.727
1242	0.2887
1251	0.3838
1260	0.8459
1269	0.8732
1278	0.8855
1287	0.8892
1296	0.8389
1305	0.7835
1314	0.8065
1323	0.814
1332	0.8128
1341	0.8105
1350	0.805
1359	0.8042
1368	0.8007
1377	0.7736
1386	0.7103
1395	0.6323
1404	0.6273
1413	0.6966
1422	0.715
1431	0.7035
1440	0.7405
1449	0.7972
1458	0.8134
1467	0.8266
1476	0.8311
1485	0.827
1494	0.8302
1503	0.8418
1512	0.8569
1521	0.8628
1530	0.8621
1539	0.8643
1548	0.8699
1557	0.871
1566	0.8712
1575	0.8766
1584	0.8863
1593	0.886
1602	0.8834
1611	0.8838
1620	0.8865
1629	0.8885
1638	0.8898
1647	0.8909
1656	0.8921
1665	0.8927
1674	0.8926
1683	0.8919
1692	0.891
1701	0.8898
1710	0.8885
1719	0.8883
1728	0.8883
1737	0.8877
1746	0.8903
1755	0.8948
1764	0.8935
1773	0.8907
1782	0.8892
1791	0.8927
1800	0.8955
1809	0.8978
1818	0.9018
1827	0.9029
1836	0.9002
1845	0.8958
1854	0.8931
1863	0.889
1872	0.8879
1881	0.8925
1890	0.8995
1899	0.8987
1908	0.8945
1917	0.8862
1926	0.8778
1935	0.887
1944	0.8953
1953	0.8946
1962	0.8931
1971	0.8905
1980	0.8881
1989	0.894
1998	0.9108
2007	0.8989
2016	0.8953
2025	0.8961
2034	0.8978
2043	0.8993
2052	0.8999
2061	0.8993
2070	0.8989
2079	0.8984
2088	0.8981
2097	0.8973
2106	0.8975
2115	0.8995
2124	0.9015
2133	0.9041
2142	0.9051
2151	0.9056
2160	0.9045
2169	0.9029
2178	0.9007
2187	0.9011
2196	0.9032
2205	0.9031
2214	0.902
2223	0.9005
2232	0.8989
2241	0.8966
2250	0.8945
2259	0.8929
2268	0.8924
2277	0.893
2286	0.8951
2295	0.8971
2304	0.9014
2313	0.9076
2322	0.9118
2331	0.9136
2340	0.9143
2349	0.9138
2358	0.9132
2367	0.9124
2376	0.9108
2385	0.9088
2394	0.9065
2403	0.9047
2412	0.9049
2421	0.9052
2430	0.9059
2439	0.9088
2448	0.9089
2457	0.904
2466	0.8986
2475	0.8924
2484	0.889
2493	0.8916
2502	0.8985
2511	0.9013
2520	0.903
2529	0.903
2538	0.9028
2547	0.9025
2556	0.9023
2565	0.9017
2574	0.9011
2583	0.9004
2592	0.8996
2601	0.8985
2610	0.8974
2619	0.8953
2628	0.8926
2637	0.8898
2646	0.8874
2655	0.8898
2664	0.8933
2673	0.8942
2682	0.894
2691	0.893
2700	0.8912
2709	0.8895
2718	0.8877
2727	0.886
2736	0.8834
2745	0.8801
2754	0.8742
2763	0.8636
2772	0.8469
2781	0.8277
2790	0.8092
2799	0.8039
2808	0.8023
2817	0.801
2826	0.7994
2835	0.7945
2844	0.7878
2853	0.7759
2862	0.756
2871	0.7163
2880	0.6704
2889	0.5831
2898	0.4743
2907	0.5453
2916	0.6451
2925	0.6375
2934	0.5958
2943	0.4023
2952	0.0462
2961	0.0421
2970	0.2106
2979	0.5117
2988	0.6339
2997	0.7531
3006	0.7864
3015	0.8091
3024	0.8182
3033	0.8206
3042	0.821
3051	0.8247
3060	0.8318
3069	0.8367
3078	0.8384
3087	0.8387
3096	0.8388
3105	0.8386
3114	0.84
3123	0.8461
3132	0.8553
3141	0.8621
3150	0.8671
3159	0.8717
3168	0.8753
3177	0.8775
3186	0.8799
3195	0.8823
3204	0.8848
3213	0.8868
3222	0.8887
3231	0.8894
3240	0.8902
3249	0.891
3258	0.8916
3267	0.892
3276	0.8925
3285	0.8925
3294	0.8925
3303	0.8923
3312	0.8918
3321	0.8891
3330	0.8848
3339	0.8785
3348	0.8698
3357	0.856
3366	0.8311
3375	0.7853
3384	0.7378
3393	0.6689
3402	0.3876
3411	0.1973
3420	0.4672
3429	0.7072
3438	0.7944
3447	0.8329
3456	0.8535
3465	0.8681
3474	0.8785
3483	0.8853
3492	0.8917
3501	0.896
3510	0.9004
3519	0.9023
3528	0.9035
3537	0.9032
3546	0.9018
3555	0.9003
3564	0.8987
3573	0.8975
3582	0.8999
3591	0.8971
3600	0.8931
3609	0.8903
3618	0.8887
3627	0.8883
3636	0.8883
3645	0.8882
3654	0.8867
3663	0.8839
3672	0.8805
3681	0.8789
3690	0.8771
3699	0.8762
3708	0.8777
3717	0.8813
3726	0.8862
3735	0.8926
3744	0.9011
3753	0.8985
3762	0.8917
3771	0.8943
3780	0.8987
3789	0.9021
3798	0.9048
