Infrared Spectrum: Silicon tetrachloride
Formula: Si Cl 4
CAS: 10026-04-7
State: liquid
Instrument: Bruker Tensor 27 FTIR
Resolution: 0.4821395
Origin: Pacific Northwest National Laboratory Under IARPA Contract
1/cm	dispersion index
7797.62	1.4004
7779.06	1.4004
7760.5	1.40039
7741.94	1.40039
7723.38	1.40039
7704.81	1.40038
7686.25	1.40038
7667.69	1.40037
7649.13	1.40037
7630.57	1.40036
7612.01	1.40036
7593.44	1.40036
7574.88	1.40035
7556.32	1.40035
7537.76	1.40034
7519.2	1.40034
7500.64	1.40033
7482.07	1.40033
7463.51	1.40032
7444.95	1.40032
7426.39	1.40031
7407.83	1.40031
7389.26	1.4003
7370.7	1.4003
7352.14	1.40029
7333.58	1.40029
7315.02	1.40028
7296.46	1.40027
7277.89	1.40027
7259.33	1.40026
7240.77	1.40026
7222.21	1.40025
7203.65	1.40024
7185.09	1.40024
7166.52	1.40023
7147.96	1.40022
7129.4	1.40022
7110.84	1.40021
7092.28	1.4002
7073.71	1.4002
7055.15	1.40019
7036.59	1.40018
7018.03	1.40017
6999.47	1.40017
6980.91	1.40016
6962.34	1.40015
6943.78	1.40014
6925.22	1.40014
6906.66	1.40013
6888.1	1.40012
6869.54	1.40011
6850.97	1.4001
6832.41	1.40009
6813.85	1.40008
6795.29	1.40007
6776.73	1.40006
6758.16	1.40005
6739.6	1.40004
6721.04	1.40003
6702.48	1.40002
6683.92	1.40001
6665.36	1.4
6646.79	1.39999
6628.23	1.39998
6609.67	1.39997
6591.11	1.39996
6572.55	1.39995
6553.99	1.39994
6535.42	1.39992
6516.86	1.39991
6498.3	1.3999
6479.74	1.39988
6461.18	1.39987
6442.61	1.39986
6424.05	1.39984
6405.49	1.39983
6386.93	1.39981
6368.37	1.3998
6349.81	1.39978
6331.24	1.39977
6312.68	1.39975
6294.12	1.39973
6275.56	1.39972
6257	1.3997
6238.44	1.39968
6219.87	1.39966
6201.31	1.39964
6182.75	1.39962
6164.19	1.3996
6145.63	1.39958
6127.06	1.39956
6108.5	1.39954
6089.94	1.39952
6071.38	1.3995
6052.82	1.39948
6034.26	1.39945
6015.69	1.39943
5997.13	1.3994
5978.57	1.39938
5960.01	1.39935
5941.45	1.39932
5922.89	1.3993
5904.32	1.39927
5885.76	1.39924
5867.2	1.39921
5848.64	1.39917
5830.08	1.39914
5811.51	1.39911
5792.95	1.39907
5774.39	1.39904
5755.83	1.399
5737.27	1.39896
5718.71	1.39893
5700.14	1.39889
5681.58	1.39885
5663.02	1.3988
5644.46	1.39876
5625.9	1.39871
5607.34	1.39867
5588.77	1.39862
5570.21	1.39857
5551.65	1.39851
5533.09	1.39846
5514.53	1.3984
5495.96	1.39834
5477.4	1.39828
5458.84	1.39821
5440.28	1.39815
5421.72	1.39807
5403.16	1.39799
5384.59	1.39791
5366.03	1.39786
5347.47	1.39781
5328.91	1.39771
5310.35	1.39766
5291.79	1.39757
5273.22	1.39747
5254.66	1.39737
5236.1	1.39727
5217.54	1.39716
5198.98	1.39704
5180.41	1.39693
5161.85	1.3968
5143.29	1.39667
5124.73	1.39653
5106.17	1.39639
5087.61	1.39623
5069.04	1.39607
5050.48	1.39593
5031.92	1.39575
5013.36	1.39556
4994.8	1.39537
4976.24	1.39516
4957.67	1.39494
4939.11	1.39471
4920.55	1.39446
4901.99	1.3942
4883.43	1.39392
4864.86	1.39362
4846.3	1.39329
4827.74	1.39295
4809.18	1.39259
4790.62	1.39219
4772.06	1.39177
4753.49	1.39131
4734.93	1.39081
4716.37	1.39028
4697.81	1.3897
4679.25	1.38905
4660.69	1.38834
4642.12	1.38755
4623.56	1.3867
4605	1.38575
4586.44	1.38466
4567.88	1.38339
4549.31	1.38184
4530.75	1.37986
4512.19	1.37895
4493.63	1.37904
4475.07	1.37604
4456.51	1.37318
4437.94	1.36952
4419.38	1.36608
4400.82	1.36501
4382.26	1.35895
4363.7	1.35244
4345.14	1.34426
4326.57	1.33329
4308.01	1.31888
4289.45	1.29541
4270.89	1.2761
4252.33	1.21093
4233.76	1.05654
4215.2	0.476698
4196.64	2.95989
4178.08	1.79731
4159.52	1.634
4140.96	1.56944
4122.39	1.53622
4103.83	1.51689
4085.27	1.58132e-06
4066.71	1.44044e-06
4048.15	1.35131e-06
4029.58	1.31393e-06
4011.02	1.27656e-06
3992.46	1.28806e-06
3973.9	1.30243e-06
3955.34	1.28806e-06
3936.78	1.39156e-06
3918.21	1.45482e-06
3899.65	1.42894e-06
3881.09	1.28806e-06
3862.53	1.12705e-06
3843.97	1.0868e-06
3825.41	9.9767e-07
3806.84	8.71165e-07
3788.28	8.10787e-07
3769.72	7.84911e-07
3751.16	7.6191e-07
3732.6	7.59035e-07
3714.03	7.64785e-07
3695.47	8.16537e-07
3676.91	8.97041e-07
3658.35	1.0063e-06
3639.79	1.09255e-06
3621.23	1.06092e-06
3602.66	1.0178e-06
3584.1	9.8617e-07
3565.54	9.37293e-07
3546.98	9.28667e-07
3528.42	9.66044e-07
3509.86	9.9192e-07
3491.29	9.9192e-07
3472.73	9.9192e-07
3454.17	9.51668e-07
3435.61	9.28667e-07
3417.05	9.45918e-07
3398.48	9.83295e-07
3379.92	1.03792e-06
3361.36	1.09255e-06
3342.8	1.17018e-06
3324.24	1.22768e-06
3305.68	1.28806e-06
3287.11	1.35131e-06
3268.55	1.36569e-06
3249.99	1.40306e-06
3231.43	1.45482e-06
3212.87	1.37719e-06
3194.31	1.16443e-06
3175.74	8.45288e-07
3157.18	8.05037e-07
3138.62	1.11268e-06
3120.06	1.09542e-06
3101.5	1.92634e-06
3082.93	2.16785e-06
3064.37	1.77396e-06
3045.81	1.6072e-06
3027.25	2.34611e-06
3008.69	2.56462e-06
2990.13	2.57612e-06
2971.56	2.48699e-06
2953	2.41223e-06
2934.44	2.34611e-06
2915.88	2.30873e-06
2897.32	2.25698e-06
2878.76	2.2081e-06
2860.19	2.15635e-06
2841.63	2.01547e-06
2823.07	1.93784e-06
2804.51	1.79983e-06
2785.95	1.67045e-06
2767.38	1.54395e-06
2748.82	1.42894e-06
2730.26	1.27656e-06
2711.7	1.23918e-06
2693.14	1.28806e-06
2674.58	1.35131e-06
2656.01	1.33981e-06
2637.45	1.37719e-06
2618.89	1.45482e-06
2600.33	1.42894e-06
2581.77	1.42894e-06
2563.21	1.36569e-06
2544.64	1.17305e-06
2526.08	1.23918e-06
2507.52	1.39156e-06
2488.96	1.40306e-06
2470.4	1.45482e-06
2451.83	1.6187e-06
2433.27	2.04134e-06
2414.71	2.07872e-06
2396.15	1.95221e-06
2377.59	2.02697e-06
2359.03	2.04134e-06
2340.46	2.00397e-06
2321.9	2.05284e-06
2303.34	2.0931e-06
2284.78	2.04134e-06
2266.22	1.90046e-06
2247.66	1.90046e-06
2229.09	1.97809e-06
2210.53	1.92634e-06
2191.97	1.92634e-06
2173.41	2.04134e-06
2154.85	2.14197e-06
2136.28	2.29723e-06
2117.72	2.39786e-06
2099.16	2.24548e-06
2080.6	2.41223e-06
2062.04	2.67962e-06
2043.48	4.97398e-06
2024.91	6.07228e-06
2006.35	3.84117e-06
1987.79	3.2029e-06
1969.23	3.3179e-06
1950.67	3.53354e-06
1932.11	3.9418e-06
1913.54	4.3127e-06
1894.98	4.46508e-06
1876.42	4.35007e-06
1857.86	3.97918e-06
1839.3	3.47028e-06
1820.73	3.08789e-06
1802.17	2.90963e-06
1783.61	2.65375e-06
1765.05	2.56462e-06
1746.49	3.01026e-06
1727.93	4.85897e-06
1709.36	7.85773e-06
1690.8	3.13821e-05
1672.24	6.6335e-05
1653.68	5.8299e-05
1635.12	5.71519e-05
1616.56	5.66401e-05
1597.99	2.67905e-05
1579.43	2.20695e-05
1560.87	1.77309e-05
1542.31	1.11354e-05
1523.75	7.13032e-06
1505.18	5.37074e-06
1486.62	4.47658e-06
1468.06	3.58529e-06
1449.5	2.89526e-06
1430.94	2.66525e-06
1412.38	3.01026e-06
1393.81	5.28162e-06
1375.25	1.96458e-05
1356.69	1.12504e-05
1338.13	5.51163e-06
1319.57	4.46508e-06
1301.01	4.06831e-06
1282.44	3.91593e-06
1263.88	3.55941e-06
1245.32	3.38115e-06
1226.76	3.27765e-06
1208.2	3.8268e-06
1189.63	4.19769e-06
1171.07	4.26094e-06
1152.51	4.28682e-06
1133.95	6.96644e-06
1115.39	1.416e-05
1096.83	1.01291e-05
1078.26	2.33461e-05
1059.7	1.76044e-05
1041.14	1.42865e-05
1022.58	2.70435e-05
1004.02	1.8881e-05
985.455	6.76231e-06
966.894	6.41729e-06
948.332	1.1098e-05
929.77	3.85268e-05
911.208	2.24519e-05
892.647	2.57698e-05
874.085	1.28835e-05
855.523	4.79658e-05
836.961	0.000478382
818.399	0.00219417
799.838	0.00193903
781.276	0.000272997
762.714	0.000219418
744.152	0.000316368
725.591	0.00193903
707.029	0.00192628
688.467	0.000151807
669.905	4.36272e-05
651.344	0.000133947
632.782	0.000207935
614.22	0.0012119
595.658	0.00232174
577.096	0.0170941
558.535	0.00135222
539.973	0.00361018
521.411	0.316369
502.849	3.08715
484.288	0.0156909
465.726	0.00122083
447.164	0.00101544
428.602	0.00256412
410.041	0.00477105
