Infrared Spectrum: 2,2,4,4,6,6-HEXAMETHYLCYCLOTRISILAZANE
Formula: C6 H21 N3 Si3
CAS: 1009-93-4
State: SOLID (BETWEEN SALTS)
Class: COBLENTZ
Instrument: BECKMAN IR-4 (HYBRID PRISM-GRATING)
Sampling: TRANSMISSION
Resolution: 4
Origin: PENINSULAR CHEMRESEARCH, INC., GAINESVILLE, FLORIDA
MICROMETERS	TRANSMITTANCE
2.02	0.929
2.05499	0.923
2.08997	0.923
2.12496	0.922
2.15995	0.92
2.19493	0.904
2.22992	0.914
2.26491	0.919
2.29989	0.91
2.33488	0.917
2.36987	0.918
2.40485	0.92
2.43984	0.924
2.47482	0.92
2.50981	0.908
2.5448	0.9
2.57978	0.888
2.61477	0.889
2.64976	0.883
2.68474	0.874
2.71973	0.878
2.75472	0.872
2.7897	0.86
2.82469	0.82
2.85968	0.752
2.89466	0.752
2.92965	0.83
2.96464	0.86
2.99962	0.872
3.03461	0.875
3.0696	0.878
3.10458	0.874
3.13957	0.868
3.17456	0.86
3.20954	0.86
3.24453	0.848
3.27951	0.809
3.3145	0.682
3.34949	0.676
3.38447	0.752
3.41946	0.784
3.45445	0.869
3.48943	0.89
3.52442	0.905
3.55941	0.929
3.59439	0.932
3.62938	0.944
3.66437	0.948
3.69935	0.951
3.73434	0.961
3.76933	0.961
3.80431	0.959
3.8393	0.957
3.87429	0.957
3.90927	0.952
3.94426	0.951
3.97925	0.959
4.01423	0.962
4.04922	0.959
4.0842	0.951
4.11919	0.944
4.15418	0.948
4.18916	0.947
4.22415	0.946
4.25914	0.948
4.29412	0.949
4.32911	0.951
4.3641	0.952
4.39908	0.959
4.43407	0.969
4.46906	0.964
4.50404	0.961
4.53903	0.959
4.57402	0.973
4.609	0.972
4.64399	0.963
4.67898	0.961
4.71396	0.962
4.74895	0.962
4.78394	0.961
4.81892	0.961
4.85391	0.958
4.88889	0.954
4.92388	0.934
4.95887	0.941
4.99385	0.947
5.02884	0.949
5.06383	0.952
5.09881	0.947
5.1338	0.949
5.16879	0.958
5.20377	0.957
5.23876	0.953
5.27375	0.956
5.30873	0.959
5.34372	0.959
5.37871	0.957
5.41369	0.959
5.44868	0.961
5.48367	0.961
5.51865	0.961
5.55364	0.952
5.58863	0.951
5.62361	0.956
5.6586	0.961
5.69358	0.961
5.72857	0.961
5.76356	0.959
5.79854	0.958
5.83353	0.961
5.86852	0.961
5.9035	0.961
5.93849	0.963
5.97348	0.951
6.00846	0.948
6.04345	0.951
6.07844	0.948
6.11342	0.944
6.14841	0.944
6.1834	0.942
6.21838	0.941
6.25337	0.929
6.28836	0.91
6.32334	0.903
6.35833	0.905
6.39332	0.908
6.4283	0.898
6.46329	0.9
6.49827	0.895
6.53326	0.902
6.56825	0.904
6.60323	0.905
6.63822	0.912
6.67321	0.917
6.70819	0.902
6.74318	0.903
6.77817	0.882
6.81315	0.872
6.84814	0.851
6.88313	0.834
6.91811	0.831
6.9531	0.831
6.98809	0.813
7.02307	0.801
7.05806	0.804
7.09305	0.815
7.12803	0.835
7.16302	0.864
7.19801	0.884
7.23299	0.898
7.26798	0.894
7.30296	0.893
7.33795	0.893
7.37294	0.897
7.40792	0.899
7.44291	0.894
7.4779	0.884
7.51288	0.869
7.54787	0.864
7.58286	0.851
7.61784	0.84
7.65283	0.834
7.68782	0.823
7.7228	0.804
7.75779	0.791
7.79278	0.754
7.82776	0.701
7.86275	0.602
7.89774	0.464
7.93272	0.378
7.96771	0.481
8.0027	0.672
8.03768	0.735
8.07267	0.754
8.10765	0.766
8.14264	0.755
8.17763	0.75
8.21261	0.74
8.2476	0.725
8.28259	0.695
8.31757	0.663
8.35256	0.623
8.38755	0.572
8.42253	0.51
8.45752	0.45
8.49251	0.401
8.52749	0.362
8.56248	0.361
8.59747	0.382
8.63245	0.414
8.66744	0.481
8.70243	0.544
8.73741	0.603
8.7724	0.646
8.80739	0.67
8.84237	0.691
8.87736	0.712
8.91235	0.722
8.94733	0.731
8.98232	0.746
9.0173	0.764
9.05229	0.766
9.08728	0.775
9.12226	0.776
9.15725	0.769
9.19224	0.772
9.22722	0.767
9.26221	0.766
9.2972	0.771
9.33218	0.771
9.36717	0.766
9.40216	0.767
9.43714	0.774
9.47213	0.777
9.50712	0.77
9.5421	0.764
9.57709	0.757
9.61208	0.746
9.64706	0.739
9.68205	0.735
9.71704	0.731
9.75202	0.727
9.78701	0.725
9.82199	0.717
9.85698	0.715
9.89197	0.712
9.92695	0.713
9.96194	0.711
9.99693	0.71
10.0319	0.713
10.0669	0.716
10.1019	0.723
10.1369	0.72
10.1719	0.715
10.2068	0.711
10.2418	0.705
10.2768	0.695
10.3118	0.682
10.3468	0.663
10.3818	0.649
10.4168	0.613
10.4518	0.57
10.4867	0.513
10.5217	0.473
10.5567	0.424
10.5917	0.365
10.6267	0.321
10.6617	0.252
10.6967	0.207
10.7316	0.175
10.7666	0.164
10.8016	0.155
10.8366	0.181
10.8716	0.225
10.9066	0.286
10.9416	0.365
10.9765	0.422
11.0115	0.478
11.0465	0.521
11.0815	0.558
11.1165	0.575
11.1515	0.584
11.1865	0.598
11.2215	0.604
11.2564	0.612
11.2914	0.613
11.3264	0.604
11.3614	0.585
11.3964	0.574
11.4314	0.552
11.4664	0.523
11.5013	0.513
11.5363	0.519
11.5713	0.534
11.6063	0.557
11.6413	0.583
11.6763	0.603
11.7113	0.623
11.7463	0.636
11.7812	0.646
11.8162	0.651
11.8512	0.658
11.8862	0.657
11.9212	0.652
11.9562	0.649
11.9912	0.638
12.0261	0.622
12.0611	0.592
12.0961	0.552
12.1311	0.501
12.1661	0.445
12.2011	0.414
12.2361	0.392
12.2711	0.404
12.306	0.43
12.341	0.451
12.376	0.464
12.411	0.466
12.446	0.455
12.481	0.425
12.516	0.383
12.5509	0.341
12.5859	0.319
12.6209	0.299
12.6559	0.296
12.6909	0.311
12.7259	0.362
12.7609	0.404
12.7958	0.444
12.8308	0.481
12.8658	0.516
12.9008	0.542
12.9358	0.559
12.9708	0.577
13.0058	0.594
13.0408	0.599
13.0757	0.622
13.1107	0.628
13.1457	0.644
13.1807	0.652
13.2157	0.662
13.2507	0.666
13.2857	0.677
13.3206	0.682
13.3556	0.69
13.3906	0.691
13.4256	0.693
13.4606	0.701
13.4956	0.703
13.5306	0.708
13.5656	0.717
13.6005	0.721
13.6355	0.725
13.6705	0.726
13.7055	0.726
13.7405	0.735
13.7755	0.736
13.8105	0.737
13.8454	0.735
13.8804	0.73
13.9154	0.736
13.9504	0.732
13.9854	0.734
14.0204	0.73
14.0554	0.728
14.0904	0.73
14.1253	0.717
14.1603	0.712
14.1953	0.7
14.2303	0.695
14.2653	0.688
14.3003	0.68
14.3353	0.666
14.3702	0.661
14.4052	0.652
14.4402	0.634
14.4752	0.612
14.5102	0.593
14.5452	0.583
14.5802	0.553
14.6151	0.539
14.6501	0.533
14.6851	0.53
14.7201	0.528
14.7551	0.529
14.7901	0.529
14.8251	0.523
14.8601	0.51
14.895	0.501
14.93	0.484
14.965	0.475
15	0.466
