Infrared Spectrum: Ethylbenzene
Formula: C6 H5 C2 H5
CAS: 100-41-4
State: gas
Melting point: -94.97 C
Boiling point: 136.2 C
Class: IUPAC A
Instrument: IFS66V (Bruker)
Instrument parameters: KBr Beam Splitter; MCT Detector; Multipass cell
Sampling: 1 L/min Flow
Resolution: 1.9290
Temperature: 23 C
Pressure: 101.3 Pa
Origin: NIST, Analytical Chemistry Division, 301-975-3108
cm-1	(micromol/mol)-1m-1 (base 10)
575.652	4.17035e-06
584.33	1.30464e-06
593.008	7.19631e-08
601.687	-2.80232e-07
610.365	-3.47126e-08
619.043	9.77714e-08
627.721	1.07271e-06
636.399	5.41036e-07
645.077	8.7447e-08
653.756	-2.04128e-08
662.434	1.14186e-06
671.112	9.22363e-06
679.79	5.42128e-05
688.468	0.000150363
697.147	0.00035048
705.825	0.000169652
714.503	9.52185e-05
723.181	7.86606e-05
731.859	9.60204e-05
740.537	0.00011959
749.216	0.000115941
757.894	8.66806e-05
766.572	5.97997e-05
775.25	4.03323e-05
783.928	2.79844e-05
792.607	1.50704e-05
801.285	8.94457e-06
809.963	5.00346e-06
818.641	2.46211e-06
827.319	1.18027e-06
835.997	4.39776e-07
844.676	1.90997e-07
853.354	-1.40525e-07
862.032	-2.67168e-07
870.71	5.96849e-07
879.388	2.30034e-06
888.066	5.25613e-06
896.745	7.44146e-06
905.423	9.23926e-06
914.101	5.92916e-06
922.779	1.24674e-06
931.457	2.17861e-08
940.136	-2.2632e-08
948.814	1.16375e-06
957.492	9.53477e-06
966.17	1.1732e-05
974.848	6.73584e-06
983.526	2.01573e-06
992.205	2.04726e-06
1000.88	3.66971e-06
1009.56	4.61266e-06
1018.24	1.17293e-05
1026.92	3.02962e-05
1035.6	3.27847e-05
1044.27	2.01382e-05
1052.95	1.71671e-05
1061.63	2.73086e-05
1070.31	2.8181e-05
1078.99	1.03062e-05
1087.66	1.03597e-05
1096.34	1.15359e-05
1105.02	9.07555e-06
1113.7	7.05504e-06
1122.38	3.54497e-06
1131.06	1.52831e-06
1139.73	9.02615e-07
1148.41	6.00208e-07
1157.09	1.32228e-07
1165.77	1.95538e-10
1174.45	-2.06989e-08
1183.12	4.06548e-07
1191.8	8.9182e-07
1200.48	1.25905e-06
1209.16	8.98449e-07
1217.84	1.36835e-07
1226.52	1.80395e-07
1235.19	1.85387e-06
1243.87	2.43442e-06
1252.55	1.8153e-06
1261.23	1.66228e-06
1269.91	1.62717e-06
1278.58	2.12208e-06
1287.26	3.28829e-06
1295.94	4.84267e-06
1304.62	5.85536e-06
1313.3	7.62149e-06
1321.98	1.67295e-05
1330.65	2.14501e-05
1339.33	1.42017e-05
1348.01	5.61887e-06
1356.69	3.5673e-06
1365.37	5.80496e-06
1374.04	1.2043e-05
1382.72	1.74762e-05
1391.4	1.37083e-05
1400.08	7.30896e-06
1408.76	5.40003e-06
1417.44	6.18474e-06
1426.11	8.30871e-06
1434.79	1.40458e-05
1443.47	3.59492e-05
1452.15	7.50572e-05
1460.83	8.32518e-05
1469.5	6.76437e-05
1478.18	3.53577e-05
1486.86	3.4954e-05
1495.54	9.3781e-05
1504.22	8.71744e-05
1512.9	1.74185e-05
1521.57	5.69529e-06
1530.25	6.19387e-06
1538.93	4.84707e-06
1547.61	3.73221e-06
1556.29	3.3481e-06
1564.96	3.24034e-06
1573.64	3.68943e-06
1582.32	6.16735e-06
1591	1.42147e-05
1599.68	3.28225e-05
1608.36	5.08272e-05
1617.03	4.01544e-05
1625.71	6.3308e-06
1634.39	2.56208e-06
1643.07	2.75932e-06
1651.75	3.48627e-06
1660.42	3.62873e-06
1669.1	2.78153e-06
1677.78	2.26507e-06
1686.46	1.26456e-06
1695.14	5.26159e-07
1703.82	6.99045e-07
1712.49	9.00041e-07
1721.17	1.70001e-06
1729.85	4.30412e-06
1738.53	6.11444e-06
1747.21	5.94505e-06
1755.88	2.02478e-06
1764.56	5.43415e-07
1773.24	1.06875e-06
1781.92	1.70459e-06
1790.6	8.6948e-06
1799.28	1.48877e-05
1807.95	9.22181e-06
1816.63	2.83733e-06
1825.31	1.97846e-06
1833.99	7.61869e-07
1842.67	1.14296e-06
1851.34	3.78915e-06
1860.02	9.04564e-06
1868.7	1.10394e-05
1877.38	1.05743e-05
1886.06	7.90347e-06
1894.74	9.78797e-07
1903.41	4.01389e-07
1912.09	6.80111e-07
1920.77	2.33146e-06
1929.45	6.96519e-06
1938.13	1.11623e-05
1946.8	1.39481e-05
1955.48	1.00686e-05
1964.16	7.0529e-06
1972.84	3.94132e-07
1981.52	4.54905e-07
1990.2	3.8009e-07
1998.87	1.28302e-07
2007.55	-1.97948e-09
2016.23	1.47689e-07
2024.91	5.10936e-07
2033.59	4.76145e-07
2042.26	2.14305e-07
2050.94	-1.86709e-07
2059.62	-3.5827e-07
2068.3	-4.30494e-07
2076.98	-3.70308e-07
2085.66	-3.0414e-07
2094.33	-2.11636e-07
2103.01	-1.45551e-07
2111.69	-1.45323e-07
2120.37	-3.29323e-08
2129.05	5.38162e-08
2137.72	-6.37877e-08
2146.4	-2.56933e-08
2155.08	-9.45404e-09
2163.76	8.96738e-08
2172.44	5.11737e-08
2181.12	1.07885e-07
2189.79	1.13097e-07
2198.47	3.5567e-08
2207.15	2.38729e-07
2215.83	4.70488e-07
2224.51	5.77538e-07
2233.18	6.44229e-07
2241.86	6.55944e-07
2250.54	5.37359e-07
2259.22	6.01081e-07
2267.9	7.68897e-07
2276.58	1.04039e-06
2285.25	1.09778e-06
2293.93	8.90258e-07
2302.61	6.97438e-07
2311.29	1.50901e-06
2319.97	1.76842e-06
2328.64	1.19749e-06
2337.32	1.92461e-06
2346	2.06348e-06
2354.68	1.18137e-06
2363.36	6.9378e-07
2372.04	8.98043e-07
2380.71	7.64249e-07
2389.39	4.23813e-07
2398.07	2.67287e-07
2406.75	5.02408e-07
2415.43	6.88839e-07
2424.1	7.15734e-07
2432.78	1.06346e-06
2441.46	1.26143e-06
2450.14	6.81753e-07
2458.82	1.84948e-07
2467.5	1.15282e-07
2476.17	2.38249e-07
2484.85	2.38577e-07
2493.53	3.50356e-07
2502.21	4.06843e-07
2510.89	5.10934e-07
2519.56	6.27557e-07
2528.24	8.87844e-07
2536.92	8.81064e-07
2545.6	7.18732e-07
2554.28	6.71384e-07
2562.96	6.50265e-07
2571.63	6.56441e-07
2580.31	7.72999e-07
2588.99	9.17744e-07
2597.67	1.19145e-06
2606.35	1.78931e-06
2615.02	1.79504e-06
2623.7	1.85267e-06
2632.38	2.70001e-06
2641.06	3.25023e-06
2649.74	2.49846e-06
2658.42	1.22786e-06
2667.09	7.87775e-07
2675.77	6.70575e-07
2684.45	6.26417e-07
2693.13	9.03711e-07
2701.81	1.50748e-06
2710.48	1.33699e-06
2719.16	1.02513e-06
2727.84	1.75485e-06
2736.52	3.59853e-06
2745.2	3.2919e-06
2753.88	2.38385e-06
2762.55	2.69566e-06
2771.23	3.57719e-06
2779.91	5.09459e-06
2788.59	6.13997e-06
2797.27	5.70136e-06
2805.94	4.87097e-06
2814.62	5.41876e-06
2823.3	7.4288e-06
2831.98	1.06657e-05
2840.66	1.44536e-05
2849.34	1.89245e-05
2858.01	3.21808e-05
2866.69	6.42494e-05
2875.37	0.000108796
2884.05	0.000135648
2892.73	0.000116368
2901.4	9.2888e-05
2910.08	8.82742e-05
2918.76	7.98929e-05
2927.44	9.94743e-05
2936.12	0.000167124
2944.8	0.000203522
2953.47	0.000163613
2962.15	0.000156166
2970.83	0.000415447
2979.51	0.000427435
2988.19	0.000135271
2996.86	5.2154e-05
3005.54	4.44585e-05
3014.22	5.05935e-05
3022.9	9.13895e-05
3031.58	0.00021149
3040.26	0.000234887
3048.93	0.000132577
3057.61	6.61149e-05
3066.29	0.000116085
3074.97	0.000166593
3083.65	0.000131957
3092.32	8.30348e-05
3101	6.72654e-05
3109.68	4.17214e-05
3118.36	2.77826e-05
3127.04	1.37076e-05
3135.72	4.66564e-06
3144.39	3.21517e-06
3153.07	3.25862e-06
3161.75	3.61608e-06
3170.43	4.66055e-06
3179.11	5.93771e-06
3187.78	5.77801e-06
3196.46	3.66892e-06
3205.14	1.47829e-06
3213.82	7.46818e-07
3222.5	4.63174e-07
3231.18	3.58715e-07
3239.85	4.45546e-07
3248.53	6.30872e-07
3257.21	5.26906e-07
3265.89	6.8514e-07
3274.57	6.90346e-07
3283.24	5.16151e-07
3291.92	4.4113e-07
3300.6	3.96947e-07
3309.28	3.15566e-07
3317.96	9.73112e-08
3326.64	-2.75663e-08
3335.31	6.33335e-08
3343.99	4.26282e-08
3352.67	4.78859e-08
3361.35	-6.27341e-08
3370.03	-8.27236e-08
3378.7	1.41358e-07
3387.38	7.19171e-08
3396.06	1.37079e-07
3404.74	7.02428e-08
3413.42	-1.70026e-07
3422.1	-1.1572e-07
3430.77	3.41742e-08
3439.45	6.56535e-08
3448.13	-6.42775e-09
3456.81	-1.0964e-07
3465.49	-2.45299e-07
3474.16	-1.56156e-07
3482.84	-3.24226e-07
3491.52	-4.12767e-07
3500.2	-1.69915e-07
3508.88	-1.39988e-07
3517.56	1.82638e-07
3526.23	3.73657e-07
3534.91	4.33815e-07
3543.59	-1.17064e-07
3552.27	-9.12881e-08
3560.95	-1.39719e-07
3569.62	-1.48797e-07
3578.3	-7.22782e-08
3586.98	-5.3919e-08
3595.66	-5.55328e-09
3604.34	-5.33001e-08
3613.02	1.12924e-07
3621.69	4.43955e-07
3630.37	3.23522e-07
3639.05	5.72843e-07
3647.73	7.04465e-07
3656.41	1.0004e-06
3665.08	1.08727e-06
3673.76	3.54608e-07
3682.44	4.31923e-07
3691.12	4.7655e-07
3699.8	6.36658e-07
3708.48	5.38631e-07
3717.15	7.01187e-07
3725.83	6.02367e-07
3734.51	2.15327e-07
3743.19	2.21077e-07
3751.87	-1.32479e-07
3760.54	2.9092e-07
3769.22	3.19996e-07
3777.9	4.25208e-07
3786.58	3.53468e-07
3795.26	3.28006e-07
3803.94	3.10943e-07
3812.61	4.24179e-07
3821.29	3.52712e-07
3829.97	5.45495e-07
3838.65	5.2516e-07
3847.33	7.80321e-07
3856	3.91701e-07
3864.68	1.19197e-07
3873.36	8.95788e-08
3882.04	-3.52237e-08
3890.72	-1.73078e-07
3899.4	-1.38293e-07
3908.07	3.17361e-07
3916.75	4.50161e-07
3925.43	8.74663e-07
3934.11	1.48248e-06
3942.79	1.56015e-06
3951.46	1.20907e-06
3960.14	8.53401e-07
3968.82	1.01613e-06
