Infrared Spectrum: trans-1,3-Dichloropropene
Formula: C 3 H 4 Cl 2
CAS: 10061-02-6
State: liquid
Instrument: Bruker Tensor 27 FTIR
Resolution: 0.4821395
Origin: Pacific Northwest National Laboratory Under IARPA Contract
1/cm	dispersion index
7797.62	1.45723
7779.06	1.45724
7760.5	1.45725
7741.94	1.45724
7723.38	1.45724
7704.81	1.45724
7686.25	1.45724
7667.69	1.45724
7649.13	1.45723
7630.57	1.45723
7612.01	1.45723
7593.44	1.45722
7574.88	1.45722
7556.32	1.45721
7537.76	1.45721
7519.2	1.45721
7500.64	1.45721
7482.07	1.4572
7463.51	1.4572
7444.95	1.4572
7426.39	1.45719
7407.83	1.45719
7389.26	1.45718
7370.7	1.45718
7352.14	1.45718
7333.58	1.45717
7315.02	1.45716
7296.46	1.45716
7277.89	1.45715
7259.33	1.45715
7240.77	1.45714
7222.21	1.45714
7203.65	1.45713
7185.09	1.45712
7166.52	1.45712
7147.96	1.45711
7129.4	1.4571
7110.84	1.4571
7092.28	1.45709
7073.71	1.45708
7055.15	1.45707
7036.59	1.45706
7018.03	1.45705
6999.47	1.45704
6980.91	1.45703
6962.34	1.45701
6943.78	1.45698
6925.22	1.45696
6906.66	1.457
6888.1	1.45701
6869.54	1.45704
6850.97	1.45702
6832.41	1.45699
6813.85	1.45699
6795.29	1.45703
6776.73	1.45705
6758.16	1.45704
6739.6	1.45701
6721.04	1.45699
6702.48	1.45697
6683.92	1.45695
6665.36	1.45694
6646.79	1.45693
6628.23	1.45692
6609.67	1.4569
6591.11	1.45689
6572.55	1.45688
6553.99	1.45687
6535.42	1.45685
6516.86	1.45685
6498.3	1.45683
6479.74	1.45682
6461.18	1.4568
6442.61	1.45679
6424.05	1.45677
6405.49	1.45675
6386.93	1.45673
6368.37	1.45671
6349.81	1.45669
6331.24	1.45667
6312.68	1.45665
6294.12	1.45663
6275.56	1.45661
6257	1.45658
6238.44	1.45656
6219.87	1.45653
6201.31	1.4565
6182.75	1.45646
6164.19	1.4564
6145.63	1.45633
6127.06	1.4562
6108.5	1.45638
6089.94	1.45628
6071.38	1.45623
6052.82	1.45659
6034.26	1.45662
6015.69	1.45651
5997.13	1.45653
5978.57	1.45637
5960.01	1.45645
5941.45	1.45639
5922.89	1.45631
5904.32	1.45621
5885.76	1.45628
5867.2	1.45622
5848.64	1.45611
5830.08	1.45627
5811.51	1.45625
5792.95	1.45612
5774.39	1.45607
5755.83	1.45597
5737.27	1.45599
5718.71	1.45598
5700.14	1.45583
5681.58	1.45582
5663.02	1.45577
5644.46	1.45571
5625.9	1.4556
5607.34	1.45549
5588.77	1.45539
5570.21	1.45524
5551.65	1.45512
5533.09	1.45486
5514.53	1.45482
5495.96	1.45451
5477.4	1.45405
5458.84	1.45322
5440.28	1.45155
5421.72	1.45756
5403.16	1.45546
5384.59	1.45309
5366.03	1.45847
5347.47	1.45714
5328.91	1.45717
5310.35	1.45688
5291.79	1.45627
5273.22	1.45591
5254.66	1.45588
5236.1	1.45583
5217.54	1.45546
5198.98	1.45516
5180.41	1.455
5161.85	1.45494
5143.29	1.45488
5124.73	1.45456
5106.17	1.45442
5087.61	1.45402
5069.04	1.45425
5050.48	1.45411
5031.92	1.4537
5013.36	1.45315
4994.8	1.45355
4976.24	1.45301
4957.67	1.45282
4939.11	1.4525
4920.55	1.45208
4901.99	1.45155
4883.43	1.45112
4864.86	1.45045
4846.3	1.44958
4827.74	1.44899
4809.18	1.44762
4790.62	1.44555
4772.06	1.44413
4753.49	1.44711
4734.93	1.43789
4716.37	1.40301
4697.81	1.46883
4679.25	1.45755
4660.69	1.45244
4642.12	1.44784
4623.56	1.43236
4605	1.45217
4586.44	1.44618
4567.88	1.43895
4549.31	1.41609
4530.75	1.45596
4512.19	1.4855
4493.63	1.45701
4475.07	1.46303
4456.51	1.44771
4437.94	1.43551
4419.38	1.43636
4400.82	1.42436
4382.26	1.38713
4363.7	1.52321
4345.14	1.49793
4326.57	1.47547
4308.01	1.48527
4289.45	1.4465
4270.89	1.45902
4252.33	1.38801
4233.76	1.64945
4215.2	1.53364
4196.64	1.50453
4178.08	1.49041
4159.52	1.47063
4140.96	1.47549
4122.39	1.43121
4103.83	1.50276
4085.27	7.73002e-05
4066.71	8.78416e-05
4048.15	8.78416e-05
4029.58	9.23588e-05
4011.02	9.58731e-05
3992.46	9.23588e-05
3973.9	9.18574e-05
3955.34	9.53702e-05
3936.78	9.28617e-05
3918.21	9.23588e-05
3899.65	9.23588e-05
3881.09	8.63359e-05
3862.53	9.53702e-05
3843.97	0.000112939
3825.41	0.000108923
3806.84	0.000103905
3788.28	0.00010792
3769.72	9.73788e-05
3751.16	9.53702e-05
3732.6	9.68774e-05
3714.03	9.23588e-05
3695.47	9.68774e-05
3676.91	0.00010039
3658.35	9.53702e-05
3639.79	8.63359e-05
3621.23	8.43273e-05
3602.66	8.03116e-05
3584.1	7.93088e-05
3565.54	7.83045e-05
3546.98	7.62974e-05
3528.42	7.17787e-05
3509.86	7.0273e-05
3491.29	6.92687e-05
3472.73	6.57559e-05
3454.17	6.22415e-05
3435.61	6.27445e-05
3417.05	6.27445e-05
3398.48	6.27445e-05
3379.92	6.32459e-05
3361.36	6.97716e-05
3342.8	6.47516e-05
3324.24	6.27445e-05
3305.68	6.27445e-05
3287.11	6.7763e-05
3268.55	7.2783e-05
3249.99	9.73788e-05
3231.43	0.000234412
3212.87	0.000642499
3194.31	0.00052705
3175.74	0.000481874
3157.18	0.000313218
3138.62	0.000350362
3120.06	0.000383491
3101.5	0.000652537
3082.93	0.000408087
3064.37	0.000204295
3045.81	0.000106413
3027.25	8.53316e-05
3008.69	8.68373e-05
2990.13	9.43674e-05
2971.56	0.000104907
2953	0.000113943
2934.44	0.000108923
2915.88	9.58731e-05
2897.32	0.000108422
2878.76	9.63745e-05
2860.19	0.000101395
2841.63	0.000112437
2823.07	0.000122476
2804.51	9.13545e-05
2785.95	9.83831e-05
2767.38	8.53316e-05
2748.82	8.48302e-05
2730.26	7.37874e-05
2711.7	8.38259e-05
2693.14	7.78031e-05
2674.58	8.43273e-05
2656.01	0.000126492
2637.45	0.000121975
2618.89	0.000119465
2600.33	0.000134022
2581.77	0.000135025
2563.21	0.000135025
2544.64	0.000158115
2526.08	0.00014657
2507.52	0.000151589
2488.96	0.000146067
2470.4	0.000169659
2451.83	0.000280591
2433.27	0.000403067
2414.71	0.00224372
2396.15	0.0012097
2377.59	0.00242443
2359.03	0.00227384
2340.46	0.00176185
2321.9	0.00121472
2303.34	0.000958728
2284.78	0.00072783
2266.22	0.000953708
2247.66	0.000537088
2229.09	0.000442721
2210.53	0.000547127
2191.97	0.00124484
2173.41	0.000898494
2154.85	0.000833239
2136.28	0.00122978
2117.72	0.000983825
2099.16	0.000547127
2080.6	0.000433687
2062.04	0.000532068
2043.48	0.0012097
2024.91	0.000858338
2006.35	0.000537088
1987.79	0.000853318
1969.23	0.000798103
1950.67	0.000672616
1932.11	0.000612381
1913.54	0.000582264
1894.98	0.000707752
1876.42	0.00071779
1857.86	0.000948688
1839.3	0.0010792
1820.73	0.00192749
1802.17	0.00165644
1783.61	0.00217847
1765.05	0.00358393
1746.49	0.0108924
1727.93	0.0174177
1709.36	0.00672615
1690.8	0.00893474
1672.24	0.0159621
1653.68	0.00532069
1635.12	0.0072783
1616.56	0.00297155
1597.99	0.00118963
1579.43	0.000752928
1560.87	0.00194255
1542.31	0.00156609
1523.75	0.000542108
1505.18	0.00049392
1486.62	0.00110931
1468.06	0.00154099
1449.5	0.00111433
1430.94	0.000828221
1412.38	0.000823201
1393.81	0.000963747
1375.25	0.00228388
1356.69	0.00167652
1338.13	0.000632459
1319.57	0.00111935
1301.01	0.00144562
1282.44	0.000607361
1263.88	0.00102398
1245.32	0.000898494
1226.76	0.000369938
1208.2	0.000402565
1189.63	0.000459788
1171.07	0.000273062
1152.51	0.000562186
1133.95	0.00238427
1115.39	0.00140546
1096.83	0.00257501
1078.26	0.0159621
1059.7	0.0299665
1041.14	0.0103904
1022.58	0.0808142
1004.02	0.047334
985.455	0.0106414
966.894	0.00322253
948.332	0.00383491
929.77	0.0136029
911.208	0.0203792
892.647	0.00988845
874.085	0.0093363
855.523	0.0241439
836.961	0.244952
818.399	0.542108
799.838	0.0134021
781.276	0.0307194
762.714	0.0137535
744.152	0.0161126
725.591	0.0144562
707.029	0.0241439
688.467	0.0346347
669.905	1.19464
651.344	0.114445
632.782	0.0843279
614.22	0.129504
595.658	0.113441
577.096	0.062744
558.535	0.062242
539.973	1.62632
521.411	0.0472838
502.849	0.0110429
484.288	0.00479866
465.726	0.0148076
447.164	0.00918571
428.602	0.0637479
410.041	0.0245956
