Infrared Spectrum: Silane, n-butylchlorodimethyl-,
Formula: C6 H15 Cl Si
CAS: 1000-50-6
State: SOLUTION (11% CCl4 FOR 3800-1300, 2% CS2 FOR 1300-600, AND 11% CCl4 FOR 600-250)
Class: COBLENTZ III
Instrument: PERKIN-ELMER 521 (GRATING)
Instrument parameters: FILTERS AT 3150, 2500, 2000, 1150, 700, 410. GRATING CHANGES: 2000, 630
Path length: 0.012 CM, 0.011 CM, AND 0.010 CM
Resolution: 2
Origin: DOW CORNING CORP.
1/CM	TRANSMITTANCE
242	0.74
251	0.7397
260	0.7465
269	0.7531
278	0.755
287	0.7555
296	0.7547
305	0.7551
314	0.7584
323	0.7618
332	0.7196
341	0.8466
350	0.8513
359	0.8488
368	0.8458
377	0.8406
386	0.8347
395	0.8227
404	0.8069
413	0.7923
422	0.7848
431	0.7645
440	0.7688
449	0.7474
458	0.6338
467	0.4808
476	0.1163
485	0.1802
494	0.2815
503	0.6371
512	0.7346
521	0.7772
530	0.7944
539	0.8097
548	0.8117
557	0.8172
566	0.819
575	0.8184
584	0.8133
593	0.796
602	0.747
611	0.6413
620	0.6991
629	0.7076
638	0.5512
647	0.3422
656	0.7797
665	0.7454
674	0.7929
683	0.8518
692	0.8377
701	0.799
710	0.776
719	0.7955
728	0.8322
737	0.83
746	0.8226
755	0.786
764	0.8167
773	0.7514
782	0.6336
791	0.3704
800	0.5891
809	0.4505
818	0.4564
827	0.6918
836	0.6329
845	0.4029
854	0.4746
863	0.7086
872	0.6628
881	0.6385
890	0.7642
899	0.8669
908	0.8902
917	0.8993
926	0.9008
935	0.9014
944	0.898
953	0.8918
962	0.8563
971	0.9071
980	0.9102
989	0.894
998	0.8672
1007	0.9044
1016	0.8783
1025	0.8684
1034	0.9009
1043	0.8981
1052	0.8886
1061	0.8837
1070	0.8739
1079	0.8034
1088	0.9058
1097	0.9341
1106	0.9367
1115	0.9384
1124	0.9393
1133	0.9398
1142	0.9407
1151	0.9413
1160	0.9353
1169	0.9064
1178	0.8927
1187	0.8682
1196	0.8719
1205	0.9103
1214	0.9111
1223	0.902
1232	0.8846
1241	0.8521
1250	0.3567
1259	0.7881
1268	0.7819
1277	0.7162
1286	0.738
1295	0.6819
1304	0.7741
1313	0.8226
1322	0.8203
1331	0.7842
1340	0.6866
1349	0.7816
1358	0.7873
1367	0.7654
1376	0.4948
1385	0.6849
1394	0.6381
1403	0.4986
1412	0.5398
1421	0.6683
1430	0.7199
1439	0.6589
1448	0.5856
1457	0.4242
1466	0.3114
1475	0.7567
1484	0.8054
1493	0.8254
1502	0.8387
1511	0.8484
1520	0.8517
1529	0.8523
1538	0.8552
1547	0.8568
1556	0.8586
1565	0.8643
1574	0.8678
1583	0.8702
1592	0.8747
1601	0.8786
1610	0.8808
1619	0.8808
1628	0.88
1637	0.8796
1646	0.8804
1655	0.887
1664	0.8804
1673	0.879
1682	0.8813
1691	0.8835
1700	0.8865
1709	0.8877
1718	0.8884
1727	0.8892
1736	0.8899
1745	0.8906
1754	0.8931
1763	0.8954
1772	0.8983
1781	0.899
1790	0.8979
1799	0.8965
1808	0.8964
1817	0.8973
1826	0.8984
1835	0.8988
1844	0.8974
1853	0.8957
1862	0.8936
1871	0.891
1880	0.8859
1889	0.8764
1898	0.8639
1907	0.8781
1916	0.8853
1925	0.8817
1934	0.8793
1943	0.8736
1952	0.8731
1961	0.8785
1970	0.8816
1979	0.8838
1988	0.8859
1997	0.8883
2006	0.8898
2015	0.8906
2024	0.8879
2033	0.8809
2042	0.8755
2051	0.8758
2060	0.8828
2069	0.8848
2078	0.885
2087	0.885
2096	0.8867
2105	0.888
2114	0.8893
2123	0.8906
2132	0.8919
2141	0.8918
2150	0.8916
2159	0.8915
2168	0.8911
2177	0.8905
2186	0.8906
2195	0.8908
2204	0.8909
2213	0.8909
2222	0.891
2231	0.8907
2240	0.8904
2249	0.8903
2258	0.8904
2267	0.8908
2276	0.8913
2285	0.8918
2294	0.8919
2303	0.8917
2312	0.8892
2321	0.8862
2330	0.8848
2339	0.8855
2348	0.886
2357	0.8855
2366	0.8847
2375	0.8849
2384	0.8874
2393	0.8917
2402	0.8918
2411	0.8907
2420	0.8898
2429	0.8889
2438	0.8876
2447	0.8868
2456	0.8861
2465	0.8845
2474	0.8841
2483	0.8825
2492	0.878
2501	0.8755
2510	0.877
2519	0.879
2528	0.8794
2537	0.8797
2546	0.8794
2555	0.879
2564	0.8785
2573	0.8778
2582	0.8761
2591	0.8728
2600	0.8684
2609	0.8633
2618	0.8659
2627	0.8648
2636	0.862
2645	0.859
2654	0.8562
2663	0.8547
2672	0.855
2681	0.8554
2690	0.8584
2699	0.8614
2708	0.8635
2717	0.8556
2726	0.8475
2735	0.838
2744	0.831
2753	0.8379
2762	0.8379
2771	0.8301
2780	0.8073
2789	0.7722
2798	0.7575
2807	0.7591
2816	0.7607
2825	0.7508
2834	0.732
2843	0.7067
2852	0.6754
2861	0.3709
2870	0.1575
2879	0.1603
2888	0.1666
2897	0.3373
2906	0.2754
2915	0.2234
2924	0.1418
2933	0.0313
2942	0.0262
2951	0.1934
2960	0.1395
2969	0.0179
2978	0.0387
2987	0.2307
2996	0.5025
3005	0.5927
3014	0.7272
3023	0.7692
3032	0.7937
3041	0.8103
3050	0.8234
3059	0.8336
3068	0.8396
3077	0.8449
3086	0.8496
3095	0.8531
3104	0.8545
3113	0.8551
3122	0.859
3131	0.8631
3140	0.8649
3149	0.8624
3158	0.8617
3167	0.8641
3176	0.8665
3185	0.8701
3194	0.8723
3203	0.8742
3212	0.8766
3221	0.8813
3230	0.8856
3239	0.8917
3248	0.8939
3257	0.8959
3266	0.8962
3275	0.8953
3284	0.8945
3293	0.8941
3302	0.8938
3311	0.8934
3320	0.893
3329	0.8924
3338	0.8915
3347	0.8905
3356	0.8902
3365	0.8901
3374	0.89
3383	0.8902
3392	0.8906
3401	0.891
3410	0.8915
3419	0.892
3428	0.8926
3437	0.8928
3446	0.8924
3455	0.8919
3464	0.8916
3473	0.8911
3482	0.8908
3491	0.8904
3500	0.8901
3509	0.8896
3518	0.8889
3527	0.8881
3536	0.8874
3545	0.8866
3554	0.8859
3563	0.8853
3572	0.8847
3581	0.8841
3590	0.8839
3599	0.8838
3608	0.8834
3617	0.8827
3626	0.8819
3635	0.881
3644	0.8784
3653	0.8754
3662	0.8723
3671	0.8715
3680	0.8715
3689	0.8714
3698	0.8702
3707	0.8691
3716	0.8685
3725	0.8691
3734	0.8706
3743	0.8724
3752	0.8722
3761	0.8683
3770	0.8663
3779	0.8671
3788	0.8696
3797	0.8733
3806	0.878
3815	0.8827
