Infrared Spectrum: Acetophenone, p-methoxy-
Formula: C9 H10 O2
CAS: 100-06-1
State: SOLUTION (10% CCl4 FOR 3800-1330, 10% CS2 FOR 1330-400 CM^-^1)
Class: COBLENTZ III
Instrument: DOW KBr FOREPRISM-GRATING
Instrument parameters: BLAZED AT 3.5, 12.0, 20.0 MICRON AND CHANGED AT 5.0, 7.5, 14.9 MICRON
Sampling: TRANSMISSION
Path length: 0.011 CM, 0.011 CM
Resolution: 2
Origin: DOW CHEMICAL COMPANY
1/CM	TRANSMITTANCE
3796	0.9211
3787	0.9207
3778	0.9197
3769	0.9199
3760	0.9208
3751	0.9204
3742	0.9206
3733	0.9208
3724	0.9222
3715	0.9224
3706	0.9244
3697	0.9249
3688	0.9243
3679	0.9236
3670	0.925
3661	0.924
3652	0.924
3643	0.9239
3634	0.924
3625	0.9248
3616	0.9244
3607	0.9238
3598	0.9227
3589	0.9229
3580	0.9228
3571	0.9214
3562	0.921
3553	0.9211
3544	0.9213
3535	0.9221
3526	0.9212
3517	0.9213
3508	0.9216
3499	0.9217
3490	0.9222
3481	0.9225
3472	0.9229
3463	0.9233
3454	0.9237
3445	0.924
3436	0.9243
3427	0.9246
3418	0.9249
3409	0.9251
3400	0.9252
3391	0.9253
3382	0.9251
3373	0.9243
3364	0.9203
3355	0.9122
3346	0.9078
3337	0.9112
3328	0.9139
3319	0.9169
3310	0.9208
3301	0.9207
3292	0.92
3283	0.9204
3274	0.9196
3265	0.9194
3256	0.9182
3247	0.9191
3238	0.9188
3229	0.9183
3220	0.918
3211	0.9177
3202	0.9162
3193	0.917
3184	0.9152
3175	0.9145
3166	0.9141
3157	0.9153
3148	0.9144
3139	0.9152
3130	0.9145
3121	0.9135
3112	0.9123
3103	0.9119
3094	0.9149
3085	0.9055
3076	0.8996
3067	0.8963
3058	0.8962
3049	0.897
3040	0.9059
3031	0.9018
3022	0.8936
3013	0.8478
3004	0.8213
2995	0.8512
2986	0.881
2977	0.8823
2968	0.8155
2959	0.8053
2950	0.8343
2941	0.8446
2932	0.8224
2923	0.8579
2914	0.8632
2905	0.8613
2896	0.8721
2887	0.89
2878	0.8984
2869	0.9027
2860	0.9046
2851	0.9034
2842	0.8377
2833	0.8139
2824	0.8819
2815	0.8974
2806	0.9064
2797	0.9097
2788	0.9106
2779	0.911
2770	0.9106
2761	0.9104
2752	0.9101
2743	0.9103
2734	0.9104
2725	0.9107
2716	0.9113
2707	0.9115
2698	0.9116
2689	0.9118
2680	0.9121
2671	0.9123
2662	0.9127
2653	0.9141
2644	0.9082
2635	0.9047
2626	0.9047
2617	0.9043
2608	0.9052
2599	0.9065
2590	0.908
2581	0.9051
2572	0.9014
2563	0.8977
2554	0.8986
2545	0.9019
2536	0.9051
2527	0.9073
2518	0.9058
2509	0.9057
2500	0.906
2491	0.9063
2482	0.9068
2473	0.9086
2464	0.9092
2455	0.9086
2446	0.9099
2437	0.9097
2428	0.9095
2419	0.9095
2410	0.9094
2401	0.9099
2392	0.9094
2383	0.9112
2374	0.9147
2365	0.9132
2356	0.915
2347	0.9135
2338	0.9104
2329	0.9094
2320	0.9099
2311	0.9083
2302	0.9074
2293	0.9075
2284	0.9065
2275	0.9065
2266	0.908
2257	0.9086
2248	0.9099
2239	0.9115
2230	0.9124
2221	0.9121
2212	0.9122
2203	0.9122
2194	0.9122
2185	0.9112
2176	0.9126
2167	0.9117
2158	0.9121
2149	0.9123
2140	0.9124
2131	0.9118
2122	0.9102
2113	0.9111
2104	0.9112
2095	0.9114
2086	0.9108
2077	0.9088
2068	0.8936
2059	0.8912
2050	0.901
2041	0.9015
2032	0.9217
2023	0.9142
2014	0.9085
2005	0.9091
1996	0.9124
1987	0.9297
1978	0.9293
1969	0.9282
1960	0.927
1951	0.9258
1942	0.9246
1933	0.9278
1924	0.9304
1915	0.9293
1906	0.929
1897	0.9287
1888	0.9273
1879	0.928
1870	0.929
1861	0.9288
1852	0.9285
1843	0.9284
1834	0.9273
1825	0.9284
1816	0.9307
1807	0.9298
1798	0.9284
1789	0.9274
1780	0.9259
1771	0.9228
1762	0.9204
1753	0.9214
1744	0.9218
1735	0.919
1726	0.9147
1717	0.9069
1708	0.8936
1699	0.8393
1690	0.5598
1681	0.1341
1672	0.7219
1663	0.8568
1654	0.8875
1645	0.8773
1636	0.8745
1627	0.8253
1618	0.6147
1609	0.3172
1600	0.2589
1591	0.5534
1582	0.5468
1573	0.6963
1564	0.7362
1555	0.722
1546	0.7539
1537	0.8227
1528	0.827
1519	0.7943
1510	0.5429
1501	0.8267
1492	0.8667
1483	0.8872
1474	0.8709
1465	0.7366
1456	0.8024
1447	0.8172
1438	0.8144
1429	0.7832
1420	0.6576
1411	0.8395
1402	0.8894
1393	0.917
1384	0.9339
1375	0.9044
1366	0.7792
1357	0.4848
1348	0.7745
1339	0.8675
1330	0.8763
1321	0.657
1312	0.6705
1303	0.6522
1294	0.73
1285	0.7319
1276	0.4708
1267	0.3802
1258	0.0516
1249	0.2448
1240	0.5741
1231	0.7351
1222	0.7865
1213	0.808
1204	0.8189
1195	0.8114
1186	0.7496
1177	0.4765
1168	0.2843
1159	0.7603
1150	0.7938
1141	0.8063
1132	0.8213
1123	0.814
1114	0.7217
1105	0.8124
1096	0.8316
1087	0.8352
1078	0.8108
1069	0.8254
1060	0.8453
1051	0.8371
1042	0.7831
1033	0.3903
1024	0.7633
1015	0.8275
1006	0.8549
997	0.8714
988	0.8905
979	0.8957
970	0.89
961	0.8372
952	0.6742
943	0.876
934	0.9046
925	0.9169
916	0.925
907	0.9286
898	0.9261
889	0.9135
880	0.9049
871	0.8897
862	0.8772
853	0.8551
844	0.819
835	0.5676
826	0.8263
817	0.865
808	0.6526
799	0.863
790	0.8871
781	0.8915
772	0.8912
763	0.8834
754	0.851
745	0.8801
736	0.8803
727	0.877
718	0.8729
709	0.8692
700	0.8657
691	0.8609
682	0.8546
673	0.8448
664	0.8445
655	0.8231
646	0.8256
637	0.8195
628	0.8134
619	0.8155
610	0.8124
601	0.8022
592	0.6914
583	0.6945
574	0.6773
565	0.5997
556	0.7825
547	0.8013
538	0.8068
529	0.8039
520	0.7946
511	0.7815
502	0.7536
493	0.76
484	0.7687
475	0.771
466	0.7652
457	0.7567
448	0.7649
439	0.7534
430	0.7348
421	0.702
412	0.5457
403	0.3594
394	0.2247
