Infrared Spectrum: Styrene
Formula: C 8 H 8
CAS: 100-42-5
State: liquid
Instrument: Bruker Tensor 27 FTIR
Resolution: 0.4821395
Origin: Pacific Northwest National Laboratory Under IARPA Contract
1/cm	dispersion index
7797.62	1.51623
7779.06	1.51626
7760.5	1.51627
7741.94	1.51627
7723.38	1.51626
7704.81	1.51626
7686.25	1.51626
7667.69	1.51626
7649.13	1.51626
7630.57	1.51626
7612.01	1.51625
7593.44	1.51625
7574.88	1.51625
7556.32	1.51624
7537.76	1.51624
7519.2	1.51624
7500.64	1.51623
7482.07	1.51623
7463.51	1.51623
7444.95	1.51622
7426.39	1.51622
7407.83	1.51621
7389.26	1.51621
7370.7	1.51621
7352.14	1.5162
7333.58	1.5162
7315.02	1.51619
7296.46	1.51619
7277.89	1.51619
7259.33	1.51618
7240.77	1.51618
7222.21	1.51617
7203.65	1.51616
7185.09	1.51616
7166.52	1.51615
7147.96	1.51614
7129.4	1.51614
7110.84	1.51613
7092.28	1.51612
7073.71	1.51611
7055.15	1.5161
7036.59	1.51609
7018.03	1.51607
6999.47	1.51605
6980.91	1.516
6962.34	1.5161
6943.78	1.51607
6925.22	1.51604
6906.66	1.51598
6888.1	1.51603
6869.54	1.5161
6850.97	1.51618
6832.41	1.51615
6813.85	1.51613
6795.29	1.5161
6776.73	1.51609
6758.16	1.51606
6739.6	1.51605
6721.04	1.51604
6702.48	1.51603
6683.92	1.51602
6665.36	1.516
6646.79	1.51599
6628.23	1.51598
6609.67	1.51596
6591.11	1.51595
6572.55	1.51594
6553.99	1.51593
6535.42	1.51591
6516.86	1.5159
6498.3	1.51588
6479.74	1.51587
6461.18	1.51585
6442.61	1.51583
6424.05	1.51581
6405.49	1.51579
6386.93	1.51576
6368.37	1.51575
6349.81	1.51572
6331.24	1.51571
6312.68	1.51567
6294.12	1.51563
6275.56	1.51555
6257	1.5156
6238.44	1.51547
6219.87	1.51564
6201.31	1.51569
6182.75	1.51558
6164.19	1.51561
6145.63	1.51545
6127.06	1.51565
6108.5	1.51552
6089.94	1.51544
6071.38	1.51554
6052.82	1.51553
6034.26	1.51545
6015.69	1.51552
5997.13	1.5154
5978.57	1.5153
5960.01	1.51515
5941.45	1.51512
5922.89	1.51563
5904.32	1.5157
5885.76	1.51562
5867.2	1.51546
5848.64	1.51538
5830.08	1.51526
5811.51	1.51533
5792.95	1.51521
5774.39	1.51514
5755.83	1.51508
5737.27	1.51498
5718.71	1.51504
5700.14	1.51492
5681.58	1.51478
5663.02	1.5147
5644.46	1.51458
5625.9	1.51442
5607.34	1.51429
5588.77	1.51407
5570.21	1.51381
5551.65	1.51354
5533.09	1.51317
5514.53	1.51266
5495.96	1.51189
5477.4	1.51049
5458.84	1.50741
5440.28	1.50778
5421.72	1.51616
5403.16	1.5224
5384.59	1.52379
5366.03	1.51988
5347.47	1.51882
5328.91	1.51798
5310.35	1.51728
5291.79	1.5169
5273.22	1.51656
5254.66	1.51619
5236.1	1.51592
5217.54	1.51564
5198.98	1.51555
5180.41	1.51552
5161.85	1.5152
5143.29	1.51517
5124.73	1.5149
5106.17	1.51472
5087.61	1.51443
5069.04	1.51426
5050.48	1.51451
5031.92	1.51417
5013.36	1.51401
4994.8	1.51367
4976.24	1.51347
4957.67	1.51305
4939.11	1.51265
4920.55	1.51215
4901.99	1.5113
4883.43	1.51004
4864.86	1.51272
4846.3	1.50987
4827.74	1.51088
4809.18	1.51124
4790.62	1.51295
4772.06	1.51204
4753.49	1.5095
4734.93	1.50828
4716.37	1.49249
4697.81	1.51584
4679.25	1.51339
4660.69	1.50815
4642.12	1.52996
4623.56	1.50726
4605	1.51808
4586.44	1.51667
4567.88	1.50884
4549.31	1.5102
4530.75	1.51202
4512.19	1.50732
4493.63	1.50841
4475.07	1.50726
4456.51	1.49982
4437.94	1.50933
4419.38	1.48865
4400.82	1.46604
4382.26	1.51757
4363.7	1.46238
4345.14	1.58127
4326.57	1.52113
4308.01	1.49767
4289.45	1.31832
4270.89	1.53479
4252.33	1.37463
4233.76	1.60404
4215.2	1.56163
4196.64	1.54864
4178.08	1.53189
4159.52	1.54294
4140.96	1.53479
4122.39	1.52679
4103.83	1.54989
4085.27	0.000103573
4066.71	0.000100073
4048.15	9.83246e-05
4029.58	9.51757e-05
4011.02	0.000100424
3992.46	0.000102874
3973.9	0.000105323
3955.34	0.000111271
3936.78	0.000106022
3918.21	0.000103573
3899.65	0.000103573
3881.09	0.000109872
3862.53	0.000106022
3843.97	0.000104622
3825.41	0.000108472
3806.84	0.000106723
3788.28	0.000108472
3769.72	0.000109522
3751.16	0.000108122
3732.6	0.000108472
3714.03	0.000110571
3695.47	0.00011652
3676.91	0.000114071
3658.35	0.000111271
3639.79	0.000108823
3621.23	0.000108472
3602.66	0.000109171
3584.1	0.000109872
3565.54	0.000108472
3546.98	0.000108472
3528.42	0.000105323
3509.86	0.000106022
3491.29	0.000104973
3472.73	0.000104973
3454.17	0.000103224
3435.61	0.000103573
3417.05	0.000103224
3398.48	0.000103224
3379.92	0.000104274
3361.36	0.000105672
3342.8	0.000106022
3324.24	0.000108472
3305.68	0.000122468
3287.11	0.000164458
3268.55	0.000640335
3249.99	0.000262782
3231.43	0.000221493
3212.87	0.000293924
3194.31	0.000675326
3175.74	0.00069632
3157.18	0.00069982
3138.62	0.000398897
3120.06	0.000265232
3101.5	0.000188951
3082.93	0.000163759
3064.37	0.00015641
3045.81	0.000156059
3027.25	0.000160959
3008.69	0.000135415
2990.13	0.000141014
2971.56	0.000138214
2953	0.000143113
2934.44	0.000138915
2915.88	0.000128767
2897.32	0.000135415
2878.76	0.000137515
2860.19	0.000135415
2841.63	0.000132615
2823.07	0.000124218
2804.51	0.000123519
2785.95	0.000122468
2767.38	0.000127367
2748.82	0.000124569
2730.26	0.000128066
2711.7	0.000129118
2693.14	0.000146612
2674.58	0.000165507
2656.01	0.000157459
2637.45	0.000201198
2618.89	0.000163408
2600.33	0.000163058
2581.77	0.000202248
2563.21	0.000706818
2544.64	0.000510868
2526.08	0.00112671
2507.52	0.00108122
2488.96	0.000559855
2470.4	0.000664828
2451.83	0.000829286
2433.27	0.000615841
2414.71	0.000552857
2396.15	0.000843283
2377.59	0.000881773
2359.03	0.000654332
2340.46	0.000790797
2321.9	0.000804793
2303.34	0.000629838
2284.78	0.000668328
2266.22	0.000958752
2247.66	0.00149412
2229.09	0.00332414
2210.53	0.00145912
2191.97	0.000752306
2173.41	0.000507369
2154.85	0.000496873
2136.28	0.000489874
2117.72	0.000808292
2099.16	0.00050037
2080.6	0.00042689
2062.04	0.000598346
2043.48	0.000465381
2024.91	0.00102174
2006.35	0.000591348
1987.79	0.000395398
1969.23	0.00042689
1950.67	0.000346411
1932.11	0.000305472
1913.54	0.000329615
1894.98	0.000231641
1876.42	0.00027153
1857.86	0.000461881
1839.3	0.000489874
1820.73	0.00062284
1802.17	0.000986745
1783.61	0.0015571
1765.05	0.00304422
1746.49	0.0294624
1727.93	0.0538861
1709.36	0.0360407
1690.8	0.0212395
1672.24	0.00374404
1653.68	0.00342562
1635.12	0.00138564
1616.56	0.00058085
1597.99	0.000944757
1579.43	0.000298824
1560.87	0.000181953
1542.31	0.000231641
1523.75	0.000598346
1505.18	0.000727813
1486.62	0.000633336
1468.06	0.00042689
1449.5	0.000685824
1430.94	0.000265232
1412.38	0.000398897
1393.81	0.000388401
1375.25	0.00113371
1356.69	0.00229541
1338.13	0.000577352
1319.57	0.000556356
1301.01	0.000313869
1282.44	0.000160259
1263.88	2.80687e-06
1245.32	0.000131217
1226.76	0.000367405
1208.2	0.000472378
1189.63	0.00412894
1171.07	0.011547
1152.51	0.0030967
1133.95	0.00762804
1115.39	0.0165157
1096.83	0.0089227
1078.26	0.00808292
1059.7	0.00180903
1041.14	0.00794295
1022.58	0.00986746
1004.02	0.015606
985.455	0.0247736
966.894	0.0104273
948.332	0.0836285
929.77	0.00762804
911.208	0.0395398
892.647	0.011547
874.085	0.00468879
855.523	0.011687
836.961	0.0114421
818.399	0.00339063
799.838	0.0360407
781.276	0.0103573
762.714	0.00591348
744.152	0.0246337
725.591	0.0121069
707.029	0.0528364
688.467	0.101474
669.905	0.0264532
651.344	0.444386
632.782	0.0204697
614.22	0.0199799
595.658	0.0486375
577.096	0.0298473
558.535	0.0395398
539.973	0.103573
521.411	0.0102524
502.849	0.00570353
484.288	0.0118969
465.726	0.00734811
447.164	0.0062284
428.602	0.0412894
410.041	0.0307571
