Infrared Spectrum: Acetophenone, p-methoxy-
Formula: C9 H10 O2
CAS: 100-06-1
State: SOLUTION (10% CCl4 FOR 3800-1335, 10% CS2 FOR 1335-400 CM^-^1)
Class: COBLENTZ III
Instrument: DOW KBr FOREPRISM-GRATING
Instrument parameters: BLAZED AT 3.5, 12.0, 20.0 MICRON AND CHANGED AT 5.0, 7.5, 14.9 MICRON
Sampling: TRANSMISSION
Path length: 0.011 CM, 0.011 CM
Resolution: 2
Origin: DOW CHEMICAL COMPANY
1/CM	TRANSMITTANCE
3800	0.916
3791	0.9168
3782	0.9151
3773	0.9161
3764	0.9159
3755	0.9157
3746	0.9159
3737	0.9172
3728	0.9172
3719	0.9162
3710	0.9185
3701	0.9159
3692	0.9092
3683	0.9062
3674	0.9089
3665	0.9119
3656	0.9148
3647	0.9162
3638	0.9166
3629	0.9169
3620	0.9185
3611	0.9183
3602	0.9174
3593	0.9176
3584	0.9165
3575	0.9147
3566	0.9139
3557	0.9135
3548	0.9146
3539	0.9145
3530	0.9152
3521	0.9143
3512	0.9149
3503	0.9153
3494	0.9159
3485	0.9165
3476	0.9171
3467	0.9176
3458	0.9186
3449	0.9194
3440	0.9203
3431	0.9207
3422	0.9206
3413	0.9206
3404	0.9199
3395	0.9186
3386	0.9152
3377	0.9112
3368	0.9021
3359	0.8816
3350	0.8508
3341	0.8619
3332	0.8858
3323	0.899
3314	0.9078
3305	0.9125
3296	0.9098
3287	0.9088
3278	0.909
3269	0.9093
3260	0.9095
3251	0.91
3242	0.9093
3233	0.9085
3224	0.9065
3215	0.9016
3206	0.8953
3197	0.8935
3188	0.8933
3179	0.8933
3170	0.8949
3161	0.889
3152	0.8876
3143	0.8871
3134	0.8864
3125	0.873
3116	0.864
3107	0.8475
3098	0.8419
3089	0.8349
3080	0.7906
3071	0.7863
3062	0.7805
3053	0.7901
3044	0.8028
3035	0.8063
3026	0.744
3017	0.5851
3008	0.5214
2999	0.6741
2990	0.7382
2981	0.6879
2972	0.5379
2963	0.4908
2954	0.5956
2945	0.5676
2936	0.5443
2927	0.6632
2918	0.647
2909	0.6544
2900	0.7026
2891	0.7868
2882	0.8337
2873	0.8428
2864	0.8433
2855	0.8218
2846	0.4857
2837	0.5593
2828	0.7897
2819	0.853
2810	0.8739
2801	0.884
2792	0.8877
2783	0.8829
2774	0.8779
2765	0.8802
2756	0.8867
2747	0.894
2738	0.8992
2729	0.9011
2720	0.9016
2711	0.9012
2702	0.9008
2693	0.8997
2684	0.8987
2675	0.8982
2666	0.9006
2657	0.9007
2648	0.8882
2639	0.8738
2630	0.8627
2621	0.8645
2612	0.8706
2603	0.8736
2594	0.8751
2585	0.8578
2576	0.8367
2567	0.8292
2558	0.846
2549	0.8671
2540	0.8703
2531	0.8771
2522	0.8789
2513	0.8734
2504	0.8797
2495	0.8859
2486	0.8917
2477	0.8978
2468	0.9016
2459	0.9042
2450	0.9021
2441	0.8943
2432	0.8841
2423	0.8823
2414	0.8861
2405	0.8873
2396	0.8916
2387	0.8952
2378	0.8994
2369	0.9012
2360	0.9013
2351	0.8962
2342	0.8927
2333	0.8973
2324	0.893
2315	0.8851
2306	0.8861
2297	0.8883
2288	0.891
2279	0.8969
2270	0.8998
2261	0.902
2252	0.9054
2243	0.9059
2234	0.904
2225	0.904
2216	0.9044
2207	0.9051
2198	0.9009
2189	0.8875
2180	0.8938
2171	0.9023
2162	0.9038
2153	0.905
2144	0.9051
2135	0.9029
2126	0.9007
2117	0.8996
2108	0.8994
2099	0.8969
2090	0.8915
2081	0.881
2072	0.8313
2063	0.8027
2054	0.824
2045	0.8573
2036	0.8738
2027	0.8956
2018	0.8889
2009	0.8885
2000	0.8887
1991	0.8829
1982	0.877
1973	0.8711
1964	0.8652
1955	0.8594
1946	0.8415
1937	0.865
1928	0.8837
1919	0.8874
1910	0.8382
1901	0.8712
1892	0.8866
1883	0.8874
1874	0.8855
1865	0.8824
1856	0.8954
1847	0.9033
1838	0.9023
1829	0.8962
1820	0.8905
1811	0.8861
1802	0.8909
1793	0.8966
1784	0.8784
1775	0.8557
1766	0.861
1757	0.8622
1748	0.8543
1739	0.846
1730	0.8274
1721	0.8154
1712	0.7536
1703	0.634
1694	0.2847
1685	0.0102
1676	0.024
1667	0.3629
1658	0.6701
1649	0.6503
1640	0.6678
1631	0.6176
1622	0.3652
1613	0.0305
1604	0.0103
1595	0.0597
1586	0.2152
1577	0.1755
1568	0.5556
1559	0.6369
1550	0.713
1541	0.7134
1532	0.7117
1523	0.6431
1514	0.0217
1505	0.4992
1496	0.7283
1487	0.7295
1478	0.6569
1469	0.2825
1460	0.3232
1451	0.549
1442	0.4747
1433	0.3619
1424	0.287
1415	0.3712
1406	0.6926
1397	0.7579
1388	0.7848
1379	0.7062
1370	0.4215
1361	0.0397
1352	0.2721
1343	0.635
1334	0.6925
1325	0.2566
1316	0.2445
1307	0.1888
1298	0.4074
1289	0.431
1280	0.2131
1271	0.0153
1262	0.0118
1253	0.01
1244	0.0647
1235	0.2435
1226	0.5372
1217	0.6662
1208	0.7171
1199	0.6893
1190	0.5162
1181	0.146
1172	0.0115
1163	0.4464
1154	0.6271
1145	0.6743
1136	0.7269
1127	0.744
1118	0.4919
1109	0.6381
1100	0.7746
1091	0.7783
1082	0.7418
1073	0.6409
1064	0.7832
1055	0.7784
1046	0.6617
1037	0.074
1028	0.2075
1019	0.4878
1010	0.7199
1001	0.769
992	0.8284
983	0.8352
974	0.8077
965	0.6765
956	0.2296
947	0.5233
938	0.8131
929	0.8748
920	0.896
911	0.9113
902	0.9129
893	0.902
884	0.8799
875	0.8669
866	0.8471
857	0.8047
848	0.6696
839	0.0239
830	0.1992
821	0.6747
812	0.4209
803	0.4671
794	0.8353
785	0.8743
776	0.8845
767	0.8837
758	0.8345
749	0.8799
740	0.8847
731	0.876
722	0.8663
713	0.8679
704	0.8661
695	0.866
686	0.8548
677	0.78
668	0.8468
659	0.8338
650	0.8066
641	0.8081
632	0.6158
623	0.7889
614	0.7853
605	0.7524
596	0.467
587	0.2562
578	0.2131
569	0.4007
560	0.4676
551	0.7486
542	0.7828
533	0.789
524	0.7778
515	0.7438
506	0.6982
497	0.6475
488	0.7377
479	0.7606
470	0.7579
461	0.6908
452	0.7495
443	0.7461
434	0.7231
425	0.7113
416	0.6462
407	0.4891
398	0.2577
