Infrared Spectrum: Methane, diphenyl-
Formula: C13 H12
CAS: 101-81-5
State: LIQUID (NEAT)
Class: COBLENTZ II
Instrument: PERKIN-ELMER 180 (GRATING)
Instrument parameters: GRATINGS: 2000, 1000, 500, 250 CM^-^1; FILTER CHANGE: 2970, 2000, 1485, 1000, 743, 500, 372, 250, 186 CM^-^1.
Sampling: TRANSMISSION
Path length: CAPILLARY (40 C)
Resolution: 2
Origin: K. K. DEB-NCI FREDERICK CANCER RESEARCH CENTER
1/CM	TRANSMITTANCE
398	0.7278
407	0.7609
416	0.8001
425	0.8268
434	0.8368
443	0.8262
452	0.6596
461	0.6423
470	0.7475
479	0.8783
488	0.9033
497	0.9113
506	0.9104
515	0.9186
524	0.9207
533	0.9158
542	0.9047
551	0.6717
560	0.9118
569	0.9176
578	0.9138
587	0.9039
596	0.8637
605	0.3531
614	0.7947
623	0.7871
632	0.8865
641	0.8913
650	0.8867
659	0.8612
668	0.8171
677	0.802
686	0.6389
695	0.0552
704	0.2825
713	0.5947
722	0.3016
731	0.1159
740	0.1983
749	0.645
758	0.783
767	0.838
776	0.8544
785	0.8665
794	0.8519
803	0.819
812	0.8128
821	0.8237
830	0.8648
839	0.8538
848	0.8542
857	0.8849
866	0.8889
875	0.8809
884	0.8638
893	0.8563
902	0.8608
911	0.8377
920	0.8226
929	0.8363
938	0.8339
947	0.8672
956	0.8739
965	0.8549
974	0.8641
983	0.8522
992	0.8602
1001	0.8064
1010	0.8394
1019	0.7973
1028	0.4252
1037	0.8222
1046	0.8517
1055	0.8507
1064	0.8251
1073	0.589
1082	0.672
1091	0.8244
1100	0.8205
1109	0.8134
1118	0.8305
1127	0.8333
1136	0.8367
1145	0.826
1154	0.7902
1163	0.8129
1172	0.8023
1181	0.7687
1190	0.8164
1199	0.812
1208	0.8297
1217	0.8658
1226	0.8748
1235	0.8748
1244	0.8709
1253	0.8724
1262	0.872
1271	0.8607
1280	0.8482
1289	0.8483
1298	0.856
1307	0.8578
1316	0.8404
1325	0.8202
1334	0.827
1343	0.8472
1352	0.8683
1361	0.8727
1370	0.8631
1379	0.8381
1388	0.822
1397	0.839
1406	0.8437
1415	0.8383
1424	0.7886
1433	0.6267
1442	0.6629
1451	0.2389
1460	0.7643
1469	0.8319
1478	0.8221
1487	0.5967
1496	0.148
1505	0.7775
1514	0.8532
1523	0.8657
1532	0.8597
1541	0.8474
1550	0.8477
1559	0.8449
1568	0.8469
1577	0.7936
1586	0.7208
1595	0.5674
1604	0.5508
1613	0.8
1622	0.85
1631	0.8598
1640	0.8616
1649	0.8582
1658	0.8469
1667	0.8551
1676	0.873
1685	0.88
1694	0.88
1703	0.8772
1712	0.8756
1721	0.8724
1730	0.8704
1739	0.8708
1748	0.8679
1757	0.8583
1766	0.8546
1775	0.8555
1784	0.8573
1793	0.8528
1802	0.8176
1811	0.8131
1820	0.848
1829	0.8652
1838	0.8739
1847	0.8653
1856	0.8527
1865	0.8517
1874	0.8422
1883	0.8403
1892	0.8462
1901	0.8508
1910	0.8633
1919	0.8671
1928	0.8592
1937	0.828
1946	0.7861
1955	0.8257
1964	0.8362
1973	0.8649
1982	0.873
1991	0.876
2000	0.8843
2009	0.8859
2018	0.8871
2027	0.8881
2036	0.8886
2045	0.889
2054	0.8894
2063	0.8898
2072	0.8902
2081	0.8902
2090	0.89
2099	0.8898
2108	0.8895
2117	0.8892
2126	0.889
2135	0.8887
2144	0.8884
2153	0.8881
2162	0.8879
2171	0.8876
2180	0.8873
2189	0.8874
2198	0.8877
2207	0.8881
2216	0.8887
2225	0.8883
2234	0.8861
2243	0.8832
2252	0.881
2261	0.8813
2270	0.8834
2279	0.883
2288	0.882
2297	0.8794
2306	0.8751
2315	0.8724
2324	0.8704
2333	0.8687
2342	0.874
2351	0.8726
2360	0.8718
2369	0.8748
2378	0.8789
2387	0.88
2396	0.8794
2405	0.8789
2414	0.879
2423	0.8799
2432	0.8814
2441	0.8814
2450	0.8813
2459	0.8809
2468	0.8802
2477	0.8794
2486	0.8787
2495	0.8779
2504	0.8771
2513	0.876
2522	0.8749
2531	0.8749
2540	0.8751
2549	0.8757
2558	0.8756
2567	0.8748
2576	0.8734
2585	0.8714
2594	0.87
2603	0.8695
2612	0.8692
2621	0.8689
2630	0.8683
2639	0.8692
2648	0.8729
2657	0.8778
2666	0.8794
2675	0.8796
2684	0.8791
2693	0.8784
2702	0.8777
2711	0.8761
2720	0.874
2729	0.8718
2738	0.8695
2747	0.8671
2756	0.8652
2765	0.8635
2774	0.8618
2783	0.8619
2792	0.8631
2801	0.8651
2810	0.8605
2819	0.8363
2828	0.7842
2837	0.7414
2846	0.7567
2855	0.7963
2864	0.8168
2873	0.7942
2882	0.7411
2891	0.6881
2900	0.6361
2909	0.6298
2918	0.6532
2927	0.6965
2936	0.7398
2945	0.783
2954	0.8153
2963	0.8186
2972	0.807
2981	0.7906
2990	0.7764
2999	0.6921
3008	0.6537
3017	0.4663
3026	0.279
3035	0.3952
3044	0.6039
3053	0.5225
3062	0.4247
3071	0.6104
3080	0.5619
3089	0.5893
3098	0.7404
3107	0.7548
3116	0.8018
3125	0.8188
3134	0.8238
3143	0.8253
3152	0.8259
3161	0.8251
3170	0.8254
3179	0.8325
3188	0.8336
3197	0.8338
3206	0.8338
3215	0.8338
3224	0.8337
3233	0.8337
3242	0.8331
3251	0.8322
3260	0.8313
3269	0.8305
3278	0.8298
3287	0.8293
3296	0.8289
3305	0.8283
3314	0.8279
3323	0.8273
3332	0.8268
3341	0.8263
3350	0.8258
3359	0.8252
3368	0.8249
3377	0.8248
3386	0.8248
3395	0.8247
3404	0.825
3413	0.8257
3422	0.8264
3431	0.8271
3440	0.8279
3449	0.8288
3458	0.8298
3467	0.8307
3476	0.8317
3485	0.8335
3494	0.8356
3503	0.8377
3512	0.8398
3521	0.8412
3530	0.8425
3539	0.8437
3548	0.8448
3557	0.8451
3566	0.8454
3575	0.8457
3584	0.8457
3593	0.8448
3602	0.844
3611	0.8429
3620	0.8417
3629	0.8424
3638	0.8419
3647	0.8391
3656	0.8432
3665	0.847
3674	0.8493
3683	0.8513
3692	0.8526
3701	0.8528
3710	0.8529
3719	0.8528
3728	0.8519
3737	0.8509
3746	0.85
3755	0.8492
3764	0.8488
3773	0.8482
3782	0.8467
3791	0.8451
