Infrared Spectrum: 4-Benzylphenylacetonitrile
Formula: C 15 H 13 N
CAS: 101096-72-4
State: gas
Origin: EPA-IR VAPOR PHASE LIBRARY
1/CM	ABSORBANCE
551.7	0.00153
563.274	0.00236
574.848	0.00351
586.421	0.00353
597.995	0.00452
609.569	0.00548
621.143	0.00417
632.717	0.00286
644.291	0.00245
655.864	0.00312
667.438	0.0047
679.012	0.00797
690.586	0.01754
702.16	0.02192
713.734	0.02097
725.307	0.02637
736.881	0.01852
748.455	0.0109
760.029	0.01017
771.603	0.01084
783.177	0.01066
794.75	0.00873
806.324	0.00683
817.898	0.00596
829.472	0.00661
841.046	0.0058
852.619	0.00376
864.193	0.00264
875.767	0.00235
887.341	0.00261
898.915	0.00306
910.489	0.00327
922.062	0.00323
933.636	0.00311
945.21	0.00257
956.784	0.00203
968.358	0.00165
979.932	0.00143
991.505	0.00142
1003.08	0.00182
1014.65	0.00487
1026.23	0.00882
1037.8	0.00286
1049.37	0.00155
1060.95	0.0023
1072.52	0.00304
1084.1	0.00245
1095.67	0.00241
1107.24	0.00312
1118.82	0.00324
1130.39	0.00208
1141.97	0.0015
1153.54	0.00144
1165.11	0.00173
1176.69	0.00252
1188.26	0.00339
1199.83	0.00461
1211.41	0.00359
1222.98	0.00296
1234.56	0.00334
1246.13	0.00247
1257.7	0.0024
1269.28	0.0025
1280.85	0.003
1292.42	0.00357
1304	0.00367
1315.57	0.00351
1327.15	0.00318
1338.72	0.00263
1350.29	0.00218
1361.87	0.00206
1373.44	0.00208
1385.02	0.00233
1396.59	0.00307
1408.16	0.00546
1419.74	0.01009
1431.31	0.01349
1442.88	0.01039
1454.46	0.00829
1466.03	0.00495
1477.61	0.00443
1489.18	0.01104
1500.75	0.01689
1512.33	0.02524
1523.9	0.00934
1535.48	0.00361
1547.05	0.0029
1558.62	0.00277
1570.2	0.003
1581.77	0.0039
1593.34	0.0064
1604.92	0.00843
1616.49	0.00428
1628.07	0.00242
1639.64	0.00198
1651.21	0.00189
1662.79	0.00195
1674.36	0.00177
1685.93	0.00159
1697.51	0.00155
1709.08	0.0015
1720.66	0.00165
1732.23	0.00186
1743.8	0.00204
1755.38	0.00209
1766.95	0.00218
1778.53	0.00288
1790.1	0.00381
1801.67	0.00282
1813.25	0.00187
1824.82	0.00162
1836.39	0.00157
1847.97	0.00177
1859.54	0.00208
1871.12	0.00231
1882.69	0.00242
1894.26	0.00251
1905.84	0.00264
1917.41	0.00252
1928.99	0.00237
1940.56	0.00241
1952.13	0.00237
1963.71	0.00158
1975.28	0.0012
1986.85	0.00107
1998.43	0.0009982
2010	0.0009921
2021.58	0.0009967
2033.15	0.0009154
2044.72	0.0008926
2056.3	0.0008862
2067.87	0.000893
2079.44	0.0008859
2091.02	0.0009055
2102.59	0.0008564
2114.17	0.0008735
2125.74	0.0008443
2137.31	0.0008087
2148.89	0.000788
2160.46	0.0007476
2172.04	0.0007766
2183.61	0.0007564
2195.18	0.0007757
2206.76	0.000798
2218.33	0.0008447
2229.9	0.0009517
2241.48	0.00129
2253.05	0.00192
2264.63	0.0016
2276.2	0.00112
2287.77	0.0009893
2299.35	0.00101
2310.92	0.00114
2322.5	0.00114
2334.07	0.00116
2345.64	0.00118
2357.22	0.00115
2368.79	0.00106
2380.36	0.0009653
2391.94	0.000925
2403.51	0.0009198
2415.09	0.0008975
2426.66	0.0008983
2438.23	0.0008329
2449.81	0.000806
2461.38	0.000785
2472.96	0.0007543
2484.53	0.0007685
2496.1	0.000785
2507.68	0.0008406
2519.25	0.0008331
2530.82	0.0008882
2542.4	0.0008386
2553.97	0.0008969
2565.55	0.0009516
2577.12	0.001
2588.69	0.00113
2600.27	0.00115
2611.84	0.00111
2623.41	0.00112
2634.99	0.00105
2646.56	0.0009571
2658.14	0.0008506
2669.71	0.0008417
2681.28	0.0008221
2692.86	0.0008569
2704.43	0.0009197
2716.01	0.00104
2727.58	0.00106
2739.15	0.00113
2750.73	0.00115
2762.3	0.0011
2773.87	0.00118
2785.45	0.00122
2797.02	0.00128
2808.6	0.00138
2820.17	0.00168
2831.74	0.00243
2843.32	0.00378
2854.89	0.0046
2866.47	0.00365
2878.04	0.00293
2889.61	0.00332
2901.19	0.00526
2912.76	0.01015
2924.33	0.01525
2935.91	0.01236
2947.48	0.00637
2959.06	0.00386
2970.63	0.0031
2982.2	0.00358
2993.78	0.00537
3005.35	0.00818
3016.92	0.01404
3028.5	0.02632
3040.07	0.02357
3051.65	0.01605
3063.22	0.01932
3074.79	0.02123
3086.37	0.01355
3097.94	0.00967
3109.52	0.00614
3121.09	0.00356
3132.66	0.00248
3144.24	0.00172
3155.81	0.00144
3167.38	0.00135
3178.96	0.00119
3190.53	0.00125
3202.11	0.0012
3213.68	0.00104
3225.25	0.0009846
3236.83	0.0009944
3248.4	0.0009108
3259.98	0.0008403
3271.55	0.0008913
3283.12	0.0009435
3294.7	0.0008735
3306.27	0.000903
3317.84	0.0008585
3329.42	0.000815
3340.99	0.0008585
3352.57	0.0008791
3364.14	0.0008712
3375.71	0.0008138
3387.29	0.0008225
3398.86	0.0008716
3410.43	0.0008642
3422.01	0.0008423
3433.58	0.0008534
3445.16	0.0008286
3456.73	0.0009028
3468.3	0.000946
3479.88	0.0009419
3491.45	0.0008735
3503.03	0.0008601
3514.6	0.0009
3526.17	0.000871
3537.75	0.0008426
3549.32	0.0008037
3560.89	0.0008965
3572.47	0.0008804
3584.04	0.0009036
3595.62	0.000896
3607.19	0.0008378
3618.76	0.0009233
3630.34	0.0009978
3641.91	0.00106
3653.49	0.00111
3665.06	0.00113
3676.63	0.00108
3688.21	0.00108
3699.78	0.0009617
3711.35	0.0009715
3722.93	0.0009858
3734.5	0.0008834
3746.08	0.000875
3757.65	0.0008731
3769.22	0.000852
3780.8	0.0009419
3792.37	0.0009308
3803.94	0.0009207
3815.52	0.0009856
3827.09	0.0009935
3838.67	0.00102
3850.24	0.00106
3861.81	0.00114
3873.39	0.00107
3884.96	0.00102
3896.54	0.0008986
3908.11	0.0009571
3919.68	0.0008835
3931.26	0.0009523
3942.83	0.0009
3954.4	0.0008873
3965.98	0.0009699
3977.55	0.0009591
3989.13	0.0009911
4000.7	0.0009334
