Infrared Spectrum: 4,4'-Methylene-bis(2-chloroaniline)
Formula: C 13 H 12 Cl 2 N 2
CAS: 101-14-4
State: solid
Instrument: Bruker Tensor 37 FTIR
Resolution: 0.96450084
Origin: Pacific Northwest National Laboratory Under IARPA Contract
1/cm	Reflectance
7498.99	0.819498
7481.63	0.755451
7464.27	0.808433
7446.91	0.817679
7429.55	0.827831
7412.19	0.80651
7394.84	0.782584
7377.48	0.773271
7360.12	0.770074
7342.76	0.789763
7325.4	0.791182
7308.04	0.796626
7290.68	0.802992
7273.32	0.799394
7255.96	0.786279
7238.6	0.748451
7221.24	0.748325
7203.88	0.73393
7186.52	0.710343
7169.16	0.61088
7151.8	0.63031
7134.44	0.71624
7117.08	0.70161
7099.72	0.61528
7082.36	0.43298
7065	0.28844
7047.64	0.41904
7030.28	0.47884
7012.92	0.50279
6995.56	0.63194
6978.2	0.73462
6960.84	0.76223
6943.48	0.76979
6926.12	0.77076
6908.76	0.77348
6891.4	0.78923
6874.04	0.8023
6856.68	0.80859
6839.32	0.80624
6821.96	0.79333
6804.6	0.763
6787.24	0.73042
6769.88	0.72316
6752.52	0.66461
6735.16	0.54354
6717.8	0.55318
6700.44	0.52201
6683.08	0.65911
6665.72	0.67601
6648.36	0.68938
6631	0.68662
6613.64	0.68955
6596.28	0.69723
6578.92	0.67721
6561.56	0.67912
6544.2	0.68331
6526.85	0.68672
6509.49	0.67872
6492.13	0.68428
6474.77	0.69441
6457.41	0.68772
6440.05	0.66081
6422.69	0.61956
6405.33	0.63601
6387.97	0.66137
6370.61	0.66712
6353.25	0.67178
6335.89	0.66155
6318.53	0.636
6301.17	0.57825
6283.81	0.45758
6266.45	0.29567
6249.09	0.31796
6231.73	0.4482
6214.37	0.54456
6197.01	0.58084
6179.65	0.39734
6162.29	0.56935
6144.93	0.53858
6127.57	0.33958
6110.21	0.50741
6092.85	0.51025
6075.49	0.43025
6058.13	0.36289
6040.77	0.36757
6023.41	0.37566
6006.05	0.36564
5988.69	0.41741
5971.33	0.47554
5953.97	0.45859
5936.61	0.32823
5919.25	0.40987
5901.89	0.44174
5884.53	0.41847
5867.17	0.33103
5849.81	0.39919
5832.45	0.37071
5815.09	0.3677
5797.73	0.29087
5780.37	0.27098
5763.01	0.25742
5745.65	0.23351
5728.29	0.22424
5710.93	0.23898
5693.57	0.28388
5676.21	0.29604
5658.86	0.3183
5641.5	0.30803
5624.14	0.24371
5606.78	0.26834
5589.42	0.28546
5572.06	0.31975
5554.7	0.33084
5537.34	0.33615
5519.98	0.28195
5502.62	0.19679
5485.26	0.12712
5467.9	0.06594
5450.54	0.11412
5433.18	0.04504
5415.82	0.12794
5398.46	0.18469
5381.1	0.21602
5363.74	0.18248
5346.38	0.1454
5329.02	0.21824
5311.66	0.19431
5294.3	0.21909
5276.94	0.17822
5259.58	0.11341
5242.22	0.18886
5224.86	0.2156
5207.5	0.17268
5190.14	0.20727
5172.78	0.21331
5155.42	0.26595
5138.06	0.31718
5120.7	0.28864
5103.34	0.30781
5085.98	0.28071
5068.62	0.289
5051.26	0.25604
5033.9	0.23832
5016.54	0.33972
4999.18	0.31493
4981.82	0.29456
4964.46	0.37835
4947.1	0.2595
4929.74	0.25582
4912.38	0.31452
4895.02	0.30417
4877.66	0.28719
4860.3	0.26184
4842.94	0.22279
4825.58	0.2453
4808.22	0.24278
4790.86	0.22182
4773.51	0.25852
4756.15	0.27435
4738.79	0.26519
4721.43	0.24862
4704.07	0.21631
4686.71	0.19199
4669.35	0.19338
4651.99	0.1731
4634.63	0.14835
4617.27	0.19732
4599.91	0.20326
4582.55	0.12717
4565.19	0.03797
4547.83	0.05305
4530.47	0.06623
4513.11	0.06553
4495.75	0.04277
4478.39	0.10815
4461.03	0.08135
4443.67	0.11831
4426.31	0.15231
4408.95	0.05586
4391.59	0.06619
4374.23	0.06368
4356.87	0.10117
4339.51	0.08719
4322.15	0.08224
4304.79	0.08285
4287.43	0.0663
4270.07	0.04758
4252.71	0.08337
4235.35	0.07164
4217.99	0.0379
4200.63	0.04938
4183.27	0.0495
4165.91	0.0293
4148.55	0.06213
4131.19	0.04674
4113.83	0.02819
4096.47	0.03093
4079.11	0.02864
4061.75	0.02604
4044.39	0.808945
4027.03	0.765283
4009.67	0.809992
3992.31	0.816523
3974.95	0.819635
3957.59	0.782784
3940.23	0.76973
3922.87	0.7652
3905.52	0.770077
3888.16	0.785773
3870.8	0.791496
3853.44	0.787884
3836.08	0.795152
3818.72	0.794507
3801.36	0.76972
3784	0.731236
3766.64	0.738742
3749.28	0.714688
3731.92	0.68643
3714.56	0.454919
3697.2	0.655086
3679.84	0.716024
3662.48	0.665289
3645.12	0.562331
3627.76	0.409868
3610.4	0.304581
3593.04	0.421441
3575.68	0.49475
3558.32	0.508814
3540.96	0.660511
3523.6	0.74384
3506.24	0.745069
3488.88	0.763879
3471.52	0.756081
3454.16	0.771903
3436.8	0.787003
3419.44	0.795189
3402.08	0.805079
3384.72	0.795836
3367.36	0.779615
3350	0.742265
3332.64	0.717609
3315.28	0.711386
3297.92	0.624876
3280.56	0.514681
3263.2	0.538334
3245.84	0.565772
3228.48	0.653145
3211.12	0.657696
3193.76	0.684023
3176.4	0.633461
3159.04	0.681262
3141.68	0.679375
3124.32	0.66983
3106.96	0.662302
3089.6	0.668298
3072.24	0.675988
3054.88	0.669722
3037.53	0.671059
3020.17	0.676344
3002.81	0.659724
2985.45	0.642133
2968.09	0.597427
2950.73	0.625556
2933.37	0.647525
2916.01	0.653468
2898.65	0.651732
2881.29	0.641734
2863.93	0.60873
2846.57	0.530137
2829.21	0.381373
2811.85	0.248497
2794.49	0.340712
2777.13	0.438299
2759.77	0.555235
2742.41	0.545743
2725.05	0.452784
2707.69	0.562083
2690.33	0.480481
2672.97	0.34316
2655.61	0.499959
2638.25	0.441664
2620.89	0.39438
2603.53	0.327823
2586.17	0.381114
2568.81	0.297139
2551.45	0.40385
2534.09	0.422681
2516.73	0.470741
2499.37	0.427988
2482.01	0.394531
2464.65	0.423544
2447.29	0.420287
2429.93	0.385838
2412.57	0.373867
2395.21	0.359414
2377.85	0.347173
2360.49	0.351961
2343.13	0.234788
2325.77	0.254288
2308.41	0.248464
2291.05	0.23262
2273.69	0.211524
2256.33	0.224887
2238.97	0.293256
2221.61	0.297214
2204.25	0.317534
2186.89	0.265635
2169.53	0.264276
2152.18	0.253663
2134.82	0.306005
2117.46	0.309521
2100.1	0.340345
2082.74	0.321212
2065.38	0.250611
2048.02	0.170777
2030.66	0.105784
2013.3	0.099528
1995.94	0.101243
1978.58	0.0505945
1961.22	0.130795
1943.86	0.199207
1926.5	0.202216
1909.14	0.154599
1891.78	0.148785
1874.42	0.218772
1857.06	0.179189
1839.7	0.202443
1822.34	0.0819478
1804.98	0.160584
1787.62	0.218114
1770.26	0.114164
1752.9	0.193836
1735.54	0.198894
1718.18	0.26475
1700.82	0.245994
1683.46	0.299069
1666.1	0.307385
1648.74	0.286451
1631.38	0.289212
1614.02	0.23371
1596.66	0.276194
1579.3	0.255518
1561.94	0.32352
1544.58	0.331663
1527.22	0.310567
1509.86	0.343387
1492.5	0.259961
1475.14	0.228371
1457.78	0.284843
1440.42	0.289373
1423.06	0.253501
1405.7	0.2403
1388.34	0.221306
1370.98	0.238099
1353.62	0.234292
1336.26	0.222148
1318.9	0.251894
1301.54	0.268525
1284.19	0.259972
1266.83	0.225923
1249.47	0.146186
1232.11	0.199488
1214.75	0.189533
1197.39	0.129835
1180.03	0.134182
1162.67	0.190147
1145.31	0.179815
1127.95	0.091536
1110.59	0.029207
1093.23	0.0640224
1075.87	0.0743548
1058.51	0.0349448
1041.15	0.0617574
1023.79	0.0813006
1006.43	0.0486423
989.068	0.144255
971.709	0.136414
954.349	0.0398306
936.989	0.077914
919.629	0.0863914
902.269	0.0612721
884.91	0.0871248
867.55	0.0888073
850.19	0.0609701
832.83	0.0618545
815.47	0.0814301
798.111	0.0809124
780.751	0.0690052
763.391	0.0510691
746.031	0.0401218
728.671	0.0545635
711.312	0.03227
693.952	0.0508857
676.592	0.0443174
659.232	0.0357214
641.872	0.0351282
624.513	0.029056
607.153	0.0305614
