Infrared Spectrum: DIETHYL, ALLYL-(1-ETHYLPROPYL) MALONATE
Formula: C15 H26 O4
CAS: 101107-08-8
State: LIQUID
Class: COBLENTZ
Instrument: PERKIN-ELMER
Sampling: TRANSMISSION
Path length: CAPILLARY
Resolution: 4
Origin: ABBOTT LABORATORIES - WASHBURN
MICROMETERS	TRANSMITTANCE
2.095	0.926
2.13479	0.926
2.17457	0.9309
2.21436	0.9328
2.25414	0.935
2.29393	0.93
2.33372	0.918
2.3735	0.91
2.41329	0.9253
2.45307	0.926
2.49286	0.925
2.53265	0.9329
2.57243	0.9359
2.61222	0.943
2.652	0.943
2.69179	0.938
2.73158	0.9448
2.77136	0.9357
2.81115	0.9308
2.85093	0.921
2.89072	0.9249
2.93051	0.9065
2.97029	0.9105
3.01008	0.9297
3.04986	0.9264
3.08965	0.9299
3.12944	0.925
3.16922	0.921
3.20901	0.9231
3.24879	0.9106
3.28858	0.8443
3.32837	0.8534
3.36815	0.5253
3.40794	0.3315
3.44772	0.4239
3.48751	0.5846
3.5273	0.6762
3.56708	0.8718
3.60687	0.9158
3.64665	0.933
3.68644	0.9251
3.72623	0.9348
3.76601	0.9479
3.8058	0.9411
3.84558	0.943
3.88537	0.94
3.92516	0.9353
3.96494	0.943
4.00473	0.933
4.04451	0.933
4.0843	0.926
4.12409	0.928
4.16387	0.921
4.20366	0.913
4.24344	0.911
4.28323	0.908
4.32302	0.913
4.3628	0.913
4.40259	0.9082
4.44237	0.905
4.48216	0.9056
4.52195	0.905
4.56173	0.903
4.60152	0.901
4.6413	0.898
4.68109	0.898
4.72088	0.892
4.76066	0.8932
4.80045	0.888
4.84023	0.8831
4.88002	0.8883
4.91981	0.89
4.95959	0.887
4.99938	0.8871
5.03916	0.8824
5.07895	0.8892
5.11874	0.89
5.15852	0.885
5.19831	0.8843
5.23809	0.877
5.27788	0.872
5.31767	0.872
5.35745	0.87
5.39724	0.857
5.43702	0.8485
5.47681	0.8509
5.5166	0.8441
5.55638	0.8266
5.59617	0.7832
5.63595	0.6722
5.67574	0.4574
5.71553	0.299
5.75531	0.1645
5.7951	0.1127
5.83488	0.416
5.87467	0.6637
5.91446	0.7369
5.95424	0.7931
5.99403	0.8085
6.03381	0.8008
6.0736	0.692
6.11339	0.8176
6.15317	0.8345
6.19296	0.8456
6.23274	0.852
6.27253	0.852
6.31232	0.855
6.3521	0.853
6.39189	0.855
6.43167	0.852
6.47146	0.855
6.51125	0.852
6.55103	0.848
6.59082	0.8446
6.6306	0.835
6.67039	0.8175
6.71017	0.77
6.74996	0.6543
6.78975	0.5361
6.82953	0.4311
6.86932	0.5087
6.9091	0.5169
6.94889	0.5774
6.98868	0.648
7.02846	0.715
7.06825	0.7175
7.10803	0.7342
7.14782	0.7262
7.18761	0.6315
7.22739	0.5785
7.26718	0.5614
7.30696	0.5248
7.34675	0.6877
7.38654	0.7595
7.42632	0.7626
7.46611	0.7027
7.50589	0.5713
7.54568	0.5666
7.58547	0.5801
7.62525	0.5222
7.66504	0.4573
7.70482	0.44
7.74461	0.4694
7.7844	0.4817
7.82418	0.4364
7.86397	0.3822
7.90375	0.4038
7.94354	0.428
7.98333	0.4005
8.02311	0.3409
8.0629	0.3111
8.10268	0.2386
8.14247	0.198
8.18226	0.1648
8.22204	0.154
8.26183	0.1692
8.30161	0.1938
8.3414	0.2166
8.38119	0.2386
8.42097	0.2749
8.46076	0.3689
8.50054	0.4946
8.54033	0.5133
8.58012	0.5307
8.6199	0.5005
8.65969	0.4498
8.69947	0.4036
8.73926	0.382
8.77905	0.377
8.81883	0.37
8.85862	0.3676
8.8984	0.3756
8.93819	0.3923
8.97798	0.3928
9.01776	0.388
9.05755	0.4098
9.09733	0.425
9.13712	0.4555
9.17691	0.59
9.21669	0.6611
9.25648	0.6683
9.29626	0.642
9.33605	0.5941
9.37584	0.5489
9.41562	0.5331
9.45541	0.477
9.49519	0.42
9.53498	0.406
9.57477	0.4095
9.61455	0.413
9.65434	0.416
9.69412	0.4264
9.73391	0.4625
9.7737	0.5011
9.81348	0.5233
9.85327	0.5383
9.89305	0.567
9.93284	0.5801
9.97263	0.586
10.0124	0.5997
10.0522	0.6313
10.092	0.6769
10.1318	0.7178
10.1716	0.755
10.2113	0.8014
10.2511	0.8171
10.2909	0.8316
10.3307	0.842
10.3705	0.847
10.4103	0.847
10.4501	0.8498
10.4898	0.8418
10.5296	0.8331
10.5694	0.8084
10.6092	0.7751
10.649	0.744
10.6888	0.7086
10.7286	0.6601
10.7683	0.6033
10.8081	0.559
10.8479	0.5238
10.8877	0.513
10.9275	0.5324
10.9673	0.6184
11.0071	0.7084
11.0468	0.7526
11.0866	0.7709
11.1264	0.77
11.1662	0.7697
11.206	0.769
11.2458	0.767
11.2856	0.774
11.3253	0.7694
11.3651	0.7556
11.4049	0.7429
11.4447	0.7259
11.4845	0.7083
11.5243	0.6917
11.5641	0.691
11.6039	0.694
11.6436	0.7064
11.6834	0.7294
11.7232	0.759
11.763	0.8001
11.8028	0.8151
11.8426	0.826
11.8824	0.8311
11.9221	0.8454
11.9619	0.848
12.0017	0.8579
12.0415	0.857
12.0813	0.86
12.1211	0.86
12.1609	0.8624
12.2006	0.8575
12.2404	0.85
12.2802	0.853
12.32	0.853
12.3598	0.863
12.3996	0.8696
12.4394	0.868
12.4791	0.8664
12.5189	0.8689
12.5587	0.8641
12.5985	0.8542
12.6383	0.8445
12.6781	0.8344
12.7179	0.8279
12.7576	0.8072
12.7974	0.799
12.8372	0.7901
12.877	0.7947
12.9168	0.797
12.9566	0.7946
12.9964	0.789
13.0361	0.782
13.0759	0.782
13.1157	0.7851
13.1555	0.7938
13.1953	0.799
13.2351	0.7993
13.2749	0.802
13.3146	0.81
13.3544	0.81
13.3942	0.8106
13.434	0.8117
13.4738	0.817
13.5136	0.8181
13.5534	0.8279
13.5932	0.828
13.6329	0.8238
13.6727	0.825
13.7125	0.8269
13.7523	0.823
13.7921	0.8179
13.8319	0.8071
13.8717	0.805
13.9114	0.7959
13.9512	0.79
13.991	0.785
14.0308	0.776
14.0706	0.7743
14.1104	0.773
14.1502	0.777
14.1899	0.7739
14.2297	0.77
14.2695	0.77
14.3093	0.772
14.3491	0.767
14.3889	0.7609
14.4287	0.755
14.4684	0.7564
14.5082	0.7542
14.548	0.755
14.5878	0.752
14.6276	0.7473
14.6674	0.7495
14.7072	0.744
14.7469	0.735
14.7867	0.7261
14.8265	0.713
14.8663	0.705
14.9061	0.6916
14.9459	0.679
14.9857	0.682
15.0254	0.665
15.0652	0.6595
15.105	0.6513
15.1448	0.649
15.1846	0.6478
15.2244	0.643
15.2642	0.642
15.3039	0.6389
15.3437	0.639
15.3835	0.636
15.4233	0.6363
