Infrared Spectrum: 5,5'-DIPHENYL-[2,2'-AZO-1,3,4-THIADIAZOLE]
Formula: C16 H10 N6 S2
CAS: 101279-08-7
State: SOLID (KBr PELLET)
Class: COBLENTZ
Instrument: Not specified, most likely a prism, grating, or hybrid spectrometer.
Sampling: TRANSMISSION
Resolution: 4
Origin: NORBERT PETRI
MICROMETERS	TRANSMITTANCE
2.03	0.224
2.06613	0.226
2.10225	0.227
2.13838	0.235
2.17451	0.239
2.21064	0.244
2.24676	0.252
2.28289	0.257
2.31902	0.263
2.35514	0.271
2.39127	0.277
2.4274	0.281
2.46352	0.289
2.49965	0.293
2.53578	0.295
2.57191	0.306
2.60803	0.314
2.64416	0.325
2.68029	0.322
2.71641	0.33
2.75254	0.333
2.78867	0.334
2.82479	0.33
2.86092	0.32
2.89705	0.314
2.93318	0.316
2.9693	0.322
3.00543	0.333
3.04156	0.349
3.07768	0.354
3.11381	0.365
3.14994	0.377
3.18606	0.388
3.22219	0.399
3.25832	0.4
3.29445	0.408
3.33057	0.409
3.3667	0.417
3.40283	0.412
3.43895	0.42
3.47508	0.425
3.51121	0.431
3.54734	0.439
3.58346	0.45
3.61959	0.461
3.65572	0.47
3.69184	0.475
3.72797	0.483
3.7641	0.493
3.80022	0.489
3.83635	0.5
3.87248	0.5
3.90861	0.504
3.94473	0.506
3.98086	0.514
4.01699	0.517
4.05311	0.523
4.08924	0.524
4.12537	0.532
4.16149	0.537
4.19762	0.551
4.23375	0.54
4.26988	0.538
4.306	0.542
4.34213	0.548
4.37826	0.566
4.41438	0.568
4.45051	0.573
4.48664	0.574
4.52276	0.583
4.55889	0.577
4.59502	0.574
4.63115	0.582
4.66727	0.593
4.7034	0.6
4.73953	0.609
4.77565	0.607
4.81178	0.61
4.84791	0.613
4.88404	0.621
4.92016	0.622
4.95629	0.626
4.99242	0.626
5.02854	0.63
5.06467	0.627
5.1008	0.633
5.13692	0.638
5.17305	0.651
5.20918	0.652
5.24531	0.654
5.28143	0.654
5.31756	0.66
5.35369	0.663
5.38981	0.672
5.42594	0.669
5.46207	0.668
5.49819	0.672
5.53432	0.673
5.57045	0.683
5.60658	0.685
5.6427	0.689
5.67883	0.68
5.71496	0.672
5.75108	0.678
5.78721	0.682
5.82334	0.682
5.85946	0.677
5.89559	0.683
5.93172	0.679
5.96785	0.678
6.00397	0.671
6.0401	0.665
6.07623	0.668
6.11235	0.669
6.14848	0.674
6.18461	0.685
6.22074	0.679
6.25686	0.615
6.29299	0.676
6.32912	0.689
6.36524	0.707
6.40137	0.713
6.4375	0.722
6.47362	0.722
6.50975	0.73
6.54588	0.738
6.58201	0.746
6.61813	0.753
6.65426	0.756
6.69039	0.747
6.72651	0.766
6.76264	0.774
6.79877	0.772
6.83489	0.773
6.87102	0.543
6.90715	0.568
6.94328	0.718
6.9794	0.753
7.01553	0.771
7.05166	0.783
7.08778	0.799
7.12391	0.68
7.16004	0.425
7.19616	0.203
7.23229	0.113
7.26842	0.249
7.30455	0.476
7.34067	0.542
7.3768	0.607
7.41293	0.647
7.44905	0.668
7.48518	0.669
7.52131	0.643
7.55744	0.66
7.59356	0.638
7.62969	0.615
7.66582	0.668
7.70194	0.69
7.73807	0.695
7.7742	0.704
7.81032	0.7
7.84645	0.712
7.88258	0.724
7.91871	0.733
7.95483	0.728
7.99096	0.652
8.02709	0.41
8.06321	0.533
8.09934	0.617
8.13547	0.641
8.17159	0.658
8.20772	0.688
8.24385	0.714
8.27998	0.719
8.3161	0.673
8.35223	0.71
8.38836	0.722
8.42448	0.716
8.46061	0.649
8.49674	0.68
8.53286	0.719
8.56899	0.733
8.60512	0.741
8.64125	0.745
8.67737	0.741
8.7135	0.739
8.74963	0.751
8.78575	0.756
8.82188	0.763
8.85801	0.772
8.89414	0.769
8.93026	0.769
8.96639	0.751
9.00252	0.591
9.03864	0.316
9.07477	0.241
9.1109	0.465
9.14702	0.465
9.18315	0.557
9.21928	0.64
9.25541	0.667
9.29153	0.683
9.32766	0.679
9.36379	0.612
9.39991	0.596
9.43604	0.671
9.47217	0.702
9.50829	0.723
9.54442	0.733
9.58055	0.749
9.61668	0.751
9.6528	0.756
9.68893	0.736
9.72506	0.65
9.76118	0.701
9.79731	0.729
9.83344	0.75
9.86956	0.76
9.90569	0.762
9.94182	0.771
9.97795	0.746
10.0141	0.679
10.0502	0.746
10.0863	0.757
10.1225	0.766
10.1586	0.766
10.1947	0.767
10.2308	0.771
10.267	0.781
10.3031	0.788
10.3392	0.79
10.3753	0.794
10.4115	0.799
10.4476	0.807
10.4837	0.808
10.5199	0.808
10.556	0.808
10.5921	0.809
10.6282	0.808
10.6644	0.807
10.7005	0.811
10.7366	0.817
10.7727	0.813
10.8089	0.818
10.845	0.82
10.8811	0.816
10.9172	0.8
10.9534	0.781
10.9895	0.774
11.0256	0.806
11.0618	0.818
11.0979	0.816
11.134	0.82
11.1701	0.817
11.2063	0.816
11.2424	0.817
11.2785	0.824
11.3146	0.823
11.3508	0.823
11.3869	0.823
11.423	0.824
11.4592	0.828
11.4953	0.83
11.5314	0.834
11.5675	0.827
11.6037	0.834
11.6398	0.834
11.6759	0.838
11.712	0.835
11.7482	0.839
11.7843	0.831
11.8204	0.819
11.8566	0.817
11.8927	0.824
11.9288	0.834
11.9649	0.838
12.0011	0.842
12.0372	0.848
12.0733	0.842
12.1094	0.85
12.1456	0.847
12.1817	0.848
12.2178	0.846
12.2539	0.847
12.2901	0.851
12.3262	0.85
12.3623	0.852
12.3985	0.846
12.4346	0.848
12.4707	0.848
12.5068	0.846
12.543	0.848
12.5791	0.846
12.6152	0.848
12.6513	0.842
12.6875	0.846
12.7236	0.847
12.7597	0.828
12.7959	0.823
12.832	0.818
12.8681	0.817
12.9042	0.808
12.9404	0.779
12.9765	0.695
13.0126	0.524
13.0487	0.389
13.0849	0.37
13.121	0.5
13.1571	0.634
13.1933	0.705
13.2294	0.753
13.2655	0.779
13.3016	0.803
13.3378	0.813
13.3739	0.818
13.41	0.79
13.4461	0.707
13.4823	0.589
13.5184	0.518
13.5545	0.557
13.5906	0.651
13.6268	0.714
13.6629	0.767
13.699	0.794
13.7352	0.803
13.7713	0.811
13.8074	0.818
13.8435	0.818
13.8797	0.818
13.9158	0.819
13.9519	0.82
13.988	0.82
14.0242	0.823
14.0603	0.823
14.0964	0.822
14.1326	0.822
14.1687	0.825
14.2048	0.827
14.2409	0.819
14.2771	0.819
14.3132	0.811
14.3493	0.799
14.3854	0.768
14.4216	0.673
14.4577	0.573
14.4938	0.529
14.53	0.522
14.5661	0.479
14.6022	0.444
14.6383	0.436
14.6745	0.473
14.7106	0.54
14.7467	0.619
14.7828	0.677
14.819	0.705
14.8551	0.717
14.8912	0.729
14.9273	0.738
14.9635	0.738
14.9996	0.736
15.0357	0.761
15.0719	0.769
15.108	0.768
15.1441	0.769
15.1802	0.769
15.2164	0.774
15.2525	0.778
15.2886	0.774
15.3247	0.779
15.3609	0.775
15.397	0.775
