Infrared Spectrum: DIANILINE, 4,4'-METHYLENE-
Formula: C13 H14 N2
CAS: 101-77-9
State: SOLID (SPLIT MULL)
Class: COBLENTZ III
Instrument: DOW KBr FOREPRISM-GRATING
Instrument parameters: BLAZED AT 3.5, 12.0, 20.0 MICRON AND CHANGED AT 5.0, 7.5, 14.9 MICRON
Sampling: TRANSMISSION
Resolution: 2
Origin: DOW CHEMICAL COMPANY
1/CM	TRANSMITTANCE
450	0.7176
459	0.7201
468	0.7199
477	0.7158
486	0.689
495	0.6071
504	0.5014
513	0.4285
522	0.7269
531	0.7508
540	0.7418
549	0.728
558	0.6937
567	0.5086
576	0.6097
585	0.6803
594	0.6485
603	0.6096
612	0.5682
621	0.5421
630	0.5456
639	0.6122
648	0.599
657	0.6228
666	0.6621
675	0.6933
684	0.7153
693	0.7369
702	0.745
711	0.7346
720	0.7375
729	0.7685
738	0.7961
747	0.8151
756	0.8062
765	0.7208
774	0.7898
783	0.7971
792	0.8128
801	0.7687
810	0.3248
819	0.4806
828	0.5657
837	0.6894
846	0.6708
855	0.8202
864	0.8668
873	0.8725
882	0.8716
891	0.8651
900	0.8521
909	0.7321
918	0.8773
927	0.8788
936	0.8823
945	0.8645
954	0.8752
963	0.8646
972	0.8775
981	0.8852
990	0.8861
999	0.8832
1008	0.8674
1017	0.8844
1026	0.8885
1035	0.887
1044	0.8842
1053	0.8775
1062	0.8648
1071	0.8304
1080	0.8251
1089	0.8468
1098	0.871
1107	0.8728
1116	0.8577
1125	0.771
1134	0.8666
1143	0.8778
1152	0.8715
1161	0.8602
1170	0.7891
1179	0.6159
1188	0.8878
1197	0.8861
1206	0.8183
1215	0.8925
1224	0.8825
1233	0.873
1242	0.8501
1251	0.7846
1260	0.6578
1269	0.4838
1278	0.4789
1287	0.3746
1296	0.7046
1305	0.7228
1314	0.6675
1323	0.7124
1332	0.7421
1341	0.7434
1350	0.8262
1359	0.8675
1368	0.8732
1377	0.8724
1386	0.8668
1395	0.8668
1404	0.8524
1413	0.8387
1422	0.7011
1431	0.7011
1440	0.8334
1449	0.8375
1458	0.8304
1467	0.8396
1476	0.822
1485	0.7758
1494	0.6897
1503	0.5181
1512	0.0557
1521	0.451
1530	0.8516
1539	0.8802
1548	0.88
1557	0.8691
1566	0.8531
1575	0.7762
1584	0.8022
1593	0.7711
1602	0.6303
1611	0.4892
1620	0.335
1629	0.6099
1638	0.8299
1647	0.8886
1656	0.8909
1665	0.8915
1674	0.8968
1683	0.9005
1692	0.9007
1701	0.9003
1710	0.8959
1719	0.8978
1728	0.8953
1737	0.8962
1746	0.8946
1755	0.8854
1764	0.8875
1773	0.8874
1782	0.8808
1791	0.8883
1800	0.8882
1809	0.8883
1818	0.8875
1827	0.8824
1836	0.8782
1845	0.8736
1854	0.8624
1863	0.8551
1872	0.8506
1881	0.8509
1890	0.8586
1899	0.8561
1908	0.8571
1917	0.8689
1926	0.8745
1935	0.8757
1944	0.876
1953	0.8757
1962	0.8742
1971	0.8625
1980	0.8592
1989	0.8584
1998	0.8535
2007	0.853
2016	0.852
2025	0.846
2034	0.8465
2043	0.8464
2052	0.8464
2061	0.8439
2070	0.8411
2079	0.8388
2088	0.8368
2097	0.835
2106	0.8333
2115	0.8316
2124	0.8294
2133	0.8271
2142	0.8255
2151	0.8238
2160	0.8225
2169	0.8208
2178	0.8189
2187	0.8137
2196	0.8098
2205	0.8096
2214	0.8068
2223	0.8046
2232	0.8021
2241	0.799
2250	0.7958
2259	0.7928
2268	0.7889
2277	0.7871
2286	0.7865
2295	0.7834
2304	0.7786
2313	0.7818
2322	0.7811
2331	0.7737
2340	0.7758
2349	0.7788
2358	0.7825
2367	0.7794
2376	0.7756
2385	0.7748
2394	0.7739
2403	0.7733
2412	0.7722
2421	0.7708
2430	0.7694
2439	0.7681
2448	0.7665
2457	0.7651
2466	0.7642
2475	0.7634
2484	0.7626
2493	0.7615
2502	0.7603
2511	0.7582
2520	0.7558
2529	0.7548
2538	0.756
2547	0.7533
2556	0.7496
2565	0.7465
2574	0.7444
2583	0.7422
2592	0.7403
2601	0.7376
2610	0.7348
2619	0.7328
2628	0.7303
2637	0.7303
2646	0.7306
2655	0.7287
2664	0.7235
2673	0.7172
2682	0.7125
2691	0.7125
2700	0.7157
2709	0.7169
2718	0.7161
2727	0.7144
2736	0.7098
2745	0.7061
2754	0.7042
2763	0.7039
2772	0.7014
2781	0.699
2790	0.6978
2799	0.6958
2808	0.6918
2817	0.6769
2826	0.5903
2835	0.6734
2844	0.6775
2853	0.6685
2862	0.6575
2871	0.6525
2880	0.6283
2889	0.5259
2898	0.5906
2907	0.5599
2916	0.6551
2925	0.6558
2934	0.6572
2943	0.6643
2952	0.663
2961	0.6593
2970	0.6548
2979	0.6487
2988	0.6401
2997	0.6285
3006	0.6155
3015	0.6025
3024	0.5779
3033	0.5454
3042	0.5568
3051	0.6084
3060	0.6271
3069	0.6369
3078	0.6417
3087	0.6376
3096	0.6344
3105	0.6346
3114	0.631
3123	0.6253
3132	0.6206
3141	0.6162
3150	0.6096
3159	0.6008
3168	0.5892
3177	0.5737
3186	0.5548
3195	0.5331
3204	0.5084
3213	0.4607
3222	0.4552
3231	0.506
3240	0.5309
3249	0.5386
3258	0.5368
3267	0.5334
3276	0.5264
3285	0.5155
3294	0.5034
3303	0.4907
3312	0.4722
3321	0.445
3330	0.3893
3339	0.2868
3348	0.184
3357	0.2348
3366	0.4912
3375	0.5689
3384	0.5676
3393	0.5514
3402	0.5569
3411	0.5321
3420	0.4437
3429	0.2358
3438	0.1165
3447	0.4842
3456	0.3386
3465	0.252
3474	0.5931
3483	0.6148
3492	0.6221
3501	0.6206
3510	0.6188
3519	0.6189
3528	0.6173
3537	0.6145
3546	0.6088
3555	0.6036
3564	0.6015
3573	0.5986
3582	0.5958
3591	0.5888
3600	0.5879
3609	0.5871
3618	0.5854
3627	0.5844
3636	0.5874
3645	0.5851
3654	0.5757
3663	0.5735
3672	0.5737
3681	0.5678
3690	0.5658
3699	0.5642
3708	0.5607
3717	0.5585
3726	0.5565
3735	0.5546
3744	0.5526
3753	0.5501
3762	0.5477
3771	0.5452
3780	0.5436
3789	0.5412
3798	0.5387
3807	0.5383
3816	0.5379
