Infrared Spectrum: p-Phenylenediamine, N-isopropyl-N'-phenyl
Formula: C15 H18 N2
CAS: 101-72-4
State: SOLID (SPLIT MULL), FLUOROLUBE FOR 3800-1330 CM^-^1, NUJOL FOR 1330-400 CM^-^1
Melting point: 72 C
Class: COBLENTZ III
Instrument: BECKMAN IR-9 (GRATING)
Instrument parameters: ORDER CHANGES: 670, 1200, 2000 CM^-^1
Sampling: TRANSMISSION
Resolution: 2
Origin: DOW CHEMICAL COMPANY
1/CM	TRANSMITTANCE
3798	0.6093
3789	0.6103
3780	0.6116
3771	0.6129
3762	0.6142
3753	0.6155
3744	0.6172
3735	0.6188
3726	0.6205
3717	0.6219
3708	0.6234
3699	0.6247
3690	0.626
3681	0.6275
3672	0.6285
3663	0.6294
3654	0.6302
3645	0.631
3636	0.6319
3627	0.6324
3618	0.633
3609	0.6335
3600	0.634
3591	0.6343
3582	0.6346
3573	0.6349
3564	0.6353
3555	0.6354
3546	0.6354
3537	0.6353
3528	0.6353
3519	0.6353
3510	0.6354
3501	0.6353
3492	0.6342
3483	0.633
3474	0.6319
3465	0.631
3456	0.6303
3447	0.6294
3438	0.628
3429	0.6253
3420	0.617
3411	0.5722
3402	0.4336
3393	0.5243
3384	0.3237
3375	0.3139
3366	0.5547
3357	0.5816
3348	0.5941
3339	0.6014
3330	0.606
3321	0.6107
3312	0.6145
3303	0.6182
3294	0.6218
3285	0.625
3276	0.6282
3267	0.6314
3258	0.6342
3249	0.6368
3240	0.6395
3231	0.6417
3222	0.6432
3213	0.6446
3204	0.6464
3195	0.6492
3186	0.6521
3177	0.6549
3168	0.6578
3159	0.6595
3150	0.6601
3141	0.6606
3132	0.6607
3123	0.6608
3114	0.6608
3105	0.6606
3096	0.6599
3087	0.6578
3078	0.6543
3069	0.6486
3060	0.6401
3051	0.6316
3042	0.6222
3033	0.6036
3024	0.624
3015	0.641
3006	0.649
2997	0.6512
2988	0.6448
2979	0.5317
2970	0.4815
2961	0.4904
2952	0.6105
2943	0.61
2934	0.594
2925	0.6062
2916	0.6215
2907	0.6352
2898	0.6428
2889	0.641
2880	0.6106
2871	0.5986
2862	0.6312
2853	0.6524
2844	0.6712
2835	0.6835
2826	0.6888
2817	0.6935
2808	0.6988
2799	0.7038
2790	0.7078
2781	0.7118
2772	0.7154
2763	0.7178
2754	0.7204
2745	0.7228
2736	0.725
2727	0.7268
2718	0.7287
2709	0.7305
2700	0.7324
2691	0.7343
2682	0.7364
2673	0.7385
2664	0.7405
2655	0.7421
2646	0.7424
2637	0.7421
2628	0.7422
2619	0.7436
2610	0.745
2601	0.746
2592	0.7469
2583	0.748
2574	0.7491
2565	0.7508
2556	0.7534
2547	0.7558
2538	0.7584
2529	0.7607
2520	0.763
2511	0.7641
2502	0.7653
2493	0.7662
2484	0.7671
2475	0.768
2466	0.7688
2457	0.7696
2448	0.7703
2439	0.771
2430	0.7703
2421	0.7695
2412	0.7694
2403	0.7699
2394	0.7711
2385	0.7768
2376	0.7881
2367	0.7858
2358	0.7831
2349	0.7808
2340	0.7801
2331	0.7798
2322	0.7806
2313	0.7818
2304	0.7832
2295	0.7845
2286	0.7865
2277	0.7891
2268	0.7915
2259	0.7939
2250	0.796
2241	0.7981
2232	0.8015
2223	0.8054
2214	0.8086
2205	0.8111
2196	0.8138
2187	0.8158
2178	0.8178
2169	0.8199
2160	0.8215
2151	0.823
2142	0.8246
2133	0.8261
2124	0.8275
2115	0.8291
2106	0.8306
2097	0.832
2088	0.8339
2079	0.8359
2070	0.8378
2061	0.8395
2052	0.8409
2043	0.8421
2034	0.8436
2025	0.8451
2016	0.8468
2007	0.8502
1998	0.8558
1989	0.8607
1980	0.8631
1971	0.8645
1962	0.864
1953	0.8611
1944	0.8535
1935	0.8558
1926	0.8532
1917	0.8614
1908	0.8643
1899	0.8663
1890	0.8598
1881	0.8612
1872	0.8608
1863	0.8616
1854	0.863
1845	0.8577
1836	0.8564
1827	0.8761
1818	0.8784
1809	0.8754
1800	0.8731
1791	0.8733
1782	0.8756
1773	0.8788
1764	0.8804
1755	0.8805
1746	0.8804
1737	0.8799
1728	0.8755
1719	0.8684
1710	0.8605
1701	0.8544
1692	0.8513
1683	0.8506
1674	0.8508
1665	0.8494
1656	0.8471
1647	0.845
1638	0.8255
1629	0.741
1620	0.6017
1611	0.629
1602	0.3402
1593	0.5488
1584	0.7012
1575	0.7603
1566	0.8011
1557	0.8122
1548	0.8024
1539	0.759
1530	0.3426
1521	0.0356
1512	0.2819
1503	0.1915
1494	0.4077
1485	0.5787
1476	0.6397
1467	0.6331
1458	0.6861
1449	0.7081
1440	0.7228
1431	0.7372
1422	0.7532
1413	0.7482
1404	0.6655
1395	0.7135
1386	0.4996
1377	0.7097
1368	0.6032
1359	0.7069
1350	0.6176
1341	0.6284
1332	0.6088
1323	0.2647
1314	0.0991
1305	0.1588
1296	0.1709
1287	0.4408
1278	0.534
1269	0.5834
1260	0.6227
1251	0.6291
1242	0.357
1233	0.3688
1224	0.57
1215	0.6868
1206	0.7261
1197	0.7314
1188	0.6415
1179	0.1217
1170	0.4837
1161	0.5941
1152	0.5906
1143	0.7214
1134	0.7148
1125	0.6476
1116	0.6457
1107	0.7617
1098	0.8126
1089	0.8099
1080	0.6856
1071	0.829
1062	0.8483
1053	0.8574
1044	0.862
1035	0.8566
1026	0.7867
1017	0.8757
1008	0.89
999	0.7795
990	0.8168
981	0.8171
972	0.8462
963	0.8702
954	0.8661
945	0.7565
936	0.8853
927	0.8862
918	0.896
909	0.902
900	0.9008
891	0.8716
882	0.6581
873	0.7561
864	0.8517
855	0.7555
846	0.7538
837	0.6826
828	0.4671
819	0.3655
810	0.5903
801	0.6517
792	0.7011
783	0.8211
774	0.8247
765	0.7668
756	0.5812
747	0.1048
738	0.6107
729	0.7611
720	0.8041
711	0.756
702	0.5712
693	0.5508
684	0.843
675	0.8649
666	0.8659
657	0.8737
648	0.8375
639	0.8678
630	0.8599
621	0.7905
612	0.798
603	0.8291
594	0.8378
585	0.8478
576	0.8735
567	0.863
558	0.8615
549	0.8578
540	0.8518
531	0.8158
522	0.635
513	0.5743
504	0.6908
495	0.6912
486	0.7147
477	0.7019
468	0.6658
459	0.6205
450	0.6304
441	0.5835
432	0.5104
423	0.429
414	0.3788
405	0.3734
