Infrared Spectrum: p-Phenylenediamine, N-isopropyl-N'-phenyl-
Formula: C15 H18 N2
CAS: 101-72-4
State: SOLUTION (10% CCl4 FOR 3800-1330, 10% CS2 FOR 1330-450 CM^-^1)
Class: COBLENTZ III
Instrument: DOW KBr FOREPRISM-GRATING
Instrument parameters: BLAZED AT 3.5, 12.0, 20.0 MICRON AND CHANGED AT 5.0, 7.5, 14.9 MICRON
Sampling: TRANSMISSION
Path length: 0.010 CM, 0.010 CM
Resolution: 2
Origin: DOW CHEMICAL COMPANY
1/CM	TRANSMITTANCE
449	0.5967
458	0.5902
467	0.5775
476	0.5638
485	0.5463
494	0.4823
503	0.4634
512	0.4234
521	0.5712
530	0.7142
539	0.7311
548	0.7373
557	0.7407
566	0.7495
575	0.7501
584	0.7454
593	0.7482
602	0.7433
611	0.6983
620	0.7022
629	0.6892
638	0.6922
647	0.6584
656	0.6583
665	0.7021
674	0.7053
683	0.667
692	0.0696
701	0.6241
710	0.701
719	0.7308
728	0.7204
737	0.4718
746	0.0265
755	0.5187
764	0.7392
773	0.7642
782	0.6635
791	0.491
800	0.4286
809	0.37
818	0.3079
827	0.434
836	0.5641
845	0.5898
854	0.5119
863	0.6653
872	0.5388
881	0.6425
890	0.8157
899	0.8448
908	0.856
917	0.8438
926	0.838
935	0.8465
944	0.815
953	0.8564
962	0.855
971	0.8316
980	0.8034
989	0.8229
998	0.6698
1007	0.8784
1016	0.8811
1025	0.8135
1034	0.8778
1043	0.8948
1052	0.8934
1061	0.8883
1070	0.8722
1079	0.7023
1088	0.8702
1097	0.852
1106	0.7186
1115	0.674
1124	0.5971
1133	0.703
1142	0.7067
1151	0.5602
1160	0.5937
1169	0.4016
1178	0.1395
1187	0.4723
1196	0.712
1205	0.7715
1214	0.7245
1223	0.6324
1232	0.411
1241	0.3618
1250	0.2964
1259	0.0826
1268	0.3659
1277	0.4363
1286	0.3131
1295	0.0566
1304	0.0295
1313	0.0521
1322	0.2044
1331	0.4037
1340	0.4308
1349	0.5713
1358	0.6492
1367	0.3795
1376	0.6323
1385	0.424
1394	0.6061
1403	0.4968
1412	0.6423
1421	0.6123
1430	0.4948
1439	0.5865
1448	0.5577
1457	0.457
1466	0.343
1475	0.3739
1484	0.3116
1493	0.0192
1502	0.0158
1511	0.0092
1520	0.0104
1529	0.0376
1538	0.1951
1547	0.2784
1556	0.3002
1565	0.3651
1574	0.3904
1583	0.351
1592	0.2111
1601	0.0205
1610	0.1218
1619	0.2086
1628	0.4193
1637	0.6717
1646	0.7292
1655	0.7492
1664	0.755
1673	0.7612
1682	0.762
1691	0.7611
1700	0.7688
1709	0.7836
1718	0.7974
1727	0.8108
1736	0.8131
1745	0.8114
1754	0.8121
1763	0.8134
1772	0.8103
1781	0.8151
1790	0.8212
1799	0.8287
1808	0.8262
1817	0.82
1826	0.8107
1835	0.7978
1844	0.7925
1853	0.7924
1862	0.7934
1871	0.7941
1880	0.8068
1889	0.815
1898	0.8258
1907	0.8226
1916	0.8126
1925	0.8026
1934	0.8161
1943	0.829
1952	0.8417
1961	0.862
1970	0.8476
1979	0.8477
1988	0.848
1997	0.8709
2006	0.8712
2015	0.8717
2024	0.8726
2033	0.8734
2042	0.8742
2051	0.8748
2060	0.8749
2069	0.8744
2078	0.8736
2087	0.8715
2096	0.8688
2105	0.87
2114	0.8722
2123	0.8743
2132	0.8763
2141	0.8781
2150	0.8798
2159	0.881
2168	0.8817
2177	0.8817
2186	0.8815
2195	0.8809
2204	0.8799
2213	0.8785
2222	0.8771
2231	0.8753
2240	0.8733
2249	0.8697
2258	0.8644
2267	0.8615
2276	0.8601
2285	0.859
2294	0.8574
2303	0.8563
2312	0.8561
2321	0.8574
2330	0.8487
2339	0.855
2348	0.8605
2357	0.8618
2366	0.8658
2375	0.8692
2384	0.8718
2393	0.8727
2402	0.8727
2411	0.8714
2420	0.8699
2429	0.8674
2438	0.865
2447	0.8625
2456	0.8604
2465	0.8585
2474	0.8578
2483	0.8575
2492	0.8575
2501	0.8532
2510	0.8465
2519	0.8408
2528	0.8365
2537	0.8337
2546	0.8345
2555	0.8376
2564	0.8402
2573	0.8422
2582	0.848
2591	0.8473
2600	0.8459
2609	0.8433
2618	0.8389
2627	0.8418
2636	0.8484
2645	0.8509
2654	0.8523
2663	0.8543
2672	0.855
2681	0.8531
2690	0.8481
2699	0.8422
2708	0.8363
2717	0.8329
2726	0.8329
2735	0.8345
2744	0.8362
2753	0.8368
2762	0.836
2771	0.8331
2780	0.828
2789	0.819
2798	0.808
2807	0.7985
2816	0.7957
2825	0.7942
2834	0.7823
2843	0.7528
2852	0.7102
2861	0.6471
2870	0.5602
2879	0.601
2888	0.6381
2897	0.6326
2906	0.6125
2915	0.5724
2924	0.5134
2933	0.4963
2942	0.5964
2951	0.5179
2960	0.2497
2969	0.2003
2978	0.259
2987	0.4126
2996	0.5815
3005	0.6338
3014	0.5847
3023	0.4645
3032	0.5366
3041	0.5257
3050	0.4622
3059	0.5682
3068	0.6731
3077	0.6932
3086	0.6969
3095	0.7032
3104	0.7588
3113	0.8099
3122	0.8363
3131	0.8444
3140	0.8483
3149	0.85
3158	0.8499
3167	0.8488
3176	0.8477
3185	0.8465
3194	0.8471
3203	0.8511
3212	0.8566
3221	0.86
3230	0.8617
3239	0.8619
3248	0.8615
3257	0.8603
3266	0.8591
3275	0.858
3284	0.8567
3293	0.8548
3302	0.8503
3311	0.8438
3320	0.8353
3329	0.8249
3338	0.8127
3347	0.7995
3356	0.7813
3365	0.7493
3374	0.7139
3383	0.6772
3392	0.6235
3401	0.5565
3410	0.5111
3419	0.4922
3428	0.5362
3437	0.5955
3446	0.8012
3455	0.8308
3464	0.8498
3473	0.8616
3482	0.8698
3491	0.8746
3500	0.8782
3509	0.8807
3518	0.8825
3527	0.8833
3536	0.8838
3545	0.8843
3554	0.8862
3563	0.889
3572	0.8894
3581	0.888
3590	0.8865
3599	0.8851
3608	0.8844
3617	0.8836
3626	0.8831
3635	0.8831
3644	0.8831
3653	0.8835
3662	0.8842
3671	0.8863
3680	0.8883
3689	0.8849
3698	0.8823
3707	0.8821
3716	0.8829
3725	0.8833
3734	0.8831
3743	0.883
3752	0.8828
3761	0.8824
3770	0.8821
3779	0.8819
3788	0.8819
3797	0.8819
