Infrared Spectrum: 1,2,3-Propanetriol, triacetate
Formula: C9 H14 O6
CAS: 102-76-1
State: SOLUTION (5% CCl4 FOR 2.7-7.5, 5% CS2 FOR 7.5-26 MICRON) VS SOLVENT
Class: COBLENTZ III
Instrument: DOW KBr FOREPRISM-GRATING
Instrument parameters: BLAZED AT 3.5, 12.0, 20.0 MICRON AND CHANGED AT 5.0, 7.5, 14.9 MICRON
Sampling: TRANSMISSION
Path length: 0.011 CM, 0.011 CM
Resolution: 2
Origin: DOW CHEMICAL COMPANY
1/CM	TRANSMITTANCE
3796	0.8551
3787	0.858
3778	0.8589
3769	0.8594
3760	0.86
3751	0.8596
3742	0.8578
3733	0.8549
3724	0.8531
3715	0.8533
3706	0.8535
3697	0.8538
3688	0.854
3679	0.8544
3670	0.8548
3661	0.8551
3652	0.8555
3643	0.8559
3634	0.8562
3625	0.8564
3616	0.8542
3607	0.8494
3598	0.8499
3589	0.8509
3580	0.8518
3571	0.8527
3562	0.8524
3553	0.8491
3544	0.8444
3535	0.8395
3526	0.8349
3517	0.8328
3508	0.8336
3499	0.8335
3490	0.8251
3481	0.8167
3472	0.8098
3463	0.8137
3454	0.8242
3445	0.8396
3436	0.852
3427	0.8606
3418	0.8642
3409	0.8671
3400	0.8689
3391	0.8705
3382	0.8717
3373	0.8724
3364	0.8731
3355	0.8737
3346	0.8742
3337	0.8742
3328	0.8742
3319	0.8742
3310	0.8741
3301	0.8737
3292	0.8734
3283	0.873
3274	0.8727
3265	0.8721
3256	0.8717
3247	0.8711
3238	0.8706
3229	0.87
3220	0.8697
3211	0.8692
3202	0.8688
3193	0.8684
3184	0.868
3175	0.8675
3166	0.8671
3157	0.8666
3148	0.8656
3139	0.8646
3130	0.8636
3121	0.8621
3112	0.861
3103	0.8588
3094	0.8566
3085	0.8541
3076	0.8513
3067	0.8474
3058	0.8428
3049	0.837
3040	0.8286
3031	0.8178
3022	0.8067
3013	0.7982
3004	0.7936
2995	0.7797
2986	0.7571
2977	0.7455
2968	0.7294
2959	0.6854
2950	0.6742
2941	0.6926
2932	0.7638
2923	0.7933
2914	0.806
2905	0.8065
2896	0.8056
2887	0.8058
2878	0.8121
2869	0.8271
2860	0.8403
2851	0.8466
2842	0.8468
2833	0.8471
2824	0.8503
2815	0.8537
2806	0.8564
2797	0.8571
2788	0.8581
2779	0.8585
2770	0.8586
2761	0.8588
2752	0.8588
2743	0.8588
2734	0.8588
2725	0.8588
2716	0.8581
2707	0.8573
2698	0.8564
2689	0.8554
2680	0.855
2671	0.8554
2662	0.8567
2653	0.86
2644	0.8621
2635	0.8582
2626	0.8564
2617	0.8571
2608	0.8582
2599	0.8604
2590	0.8627
2581	0.864
2572	0.8645
2563	0.8637
2554	0.8641
2545	0.865
2536	0.8659
2527	0.867
2518	0.8682
2509	0.8693
2500	0.8692
2491	0.8684
2482	0.8675
2473	0.8666
2464	0.8664
2455	0.8668
2446	0.8675
2437	0.8681
2428	0.8686
2419	0.8689
2410	0.8693
2401	0.8696
2392	0.8701
2383	0.8715
2374	0.8728
2365	0.8743
2356	0.8755
2347	0.8767
2338	0.8785
2329	0.88
2320	0.8757
2311	0.87
2302	0.8695
2293	0.8695
2284	0.8699
2275	0.8702
2266	0.8706
2257	0.8711
2248	0.8716
2239	0.8721
2230	0.8727
2221	0.8735
2212	0.8754
2203	0.8775
2194	0.8763
2185	0.8766
2176	0.8815
2167	0.8766
2158	0.874
2149	0.8716
2140	0.869
2131	0.8659
2122	0.8632
2113	0.8625
2104	0.8627
2095	0.8633
2086	0.8639
2077	0.8642
2068	0.8643
2059	0.8638
2050	0.863
2041	0.8623
2032	0.8625
2023	0.8636
2014	0.8648
2005	0.8664
1996	0.8707
1987	0.8724
1978	0.8723
1969	0.8723
1960	0.8718
1951	0.8714
1942	0.871
1933	0.8706
1924	0.8703
1915	0.8695
1906	0.8616
1897	0.8577
1888	0.855
1879	0.8535
1870	0.8503
1861	0.8478
1852	0.8448
1843	0.8375
1834	0.8278
1825	0.8172
1816	0.8062
1807	0.7915
1798	0.7746
1789	0.759
1780	0.7303
1771	0.6269
1762	0.3808
1753	0.0389
1744	0.0069
1735	0.0083
1726	0.1628
1717	0.3418
1708	0.3771
1699	0.603
1690	0.703
1681	0.748
1672	0.7689
1663	0.7833
1654	0.7928
1645	0.7865
1636	0.7882
1627	0.805
1618	0.8199
1609	0.8312
1600	0.8355
1591	0.8373
1582	0.8374
1573	0.8364
1564	0.8344
1555	0.831
1546	0.8255
1537	0.8198
1528	0.8161
1519	0.8158
1510	0.8083
1501	0.8001
1492	0.7922
1483	0.7851
1474	0.7501
1465	0.6832
1456	0.5933
1447	0.5819
1438	0.5273
1429	0.5394
1420	0.5931
1411	0.6208
1402	0.619
1393	0.5915
1384	0.4059
1375	0.2135
1366	0.1289
1357	0.4602
1348	0.6467
1339	0.7276
1330	0.7441
1321	0.7478
1312	0.7324
1303	0.7053
1294	0.6717
1285	0.5142
1276	0.4546
1267	0.3753
1258	0.2982
1249	0.1857
1240	0.1015
1231	0.0608
1222	0.0153
1213	0.0073
1204	0.0105
1195	0.3634
1186	0.5538
1177	0.6478
1168	0.7117
1159	0.7439
1150	0.7521
1141	0.7415
1132	0.7418
1123	0.7442
1114	0.7334
1105	0.6605
1096	0.4496
1087	0.5587
1078	0.5827
1069	0.4551
1060	0.3094
1051	0.2282
1042	0.1491
1033	0.3247
1024	0.473
1015	0.4862
1006	0.4245
997	0.5944
988	0.6965
979	0.7218
970	0.7217
961	0.6386
952	0.5779
943	0.6491
934	0.7201
925	0.7598
916	0.7871
907	0.7947
898	0.771
889	0.7533
880	0.7461
871	0.7578
862	0.7607
853	0.7564
844	0.756
835	0.7588
826	0.7712
817	0.7904
808	0.8147
799	0.8567
790	0.8709
781	0.8754
772	0.8788
763	0.8813
754	0.8825
745	0.8828
736	0.8828
727	0.8816
718	0.88
709	0.8781
700	0.8698
691	0.8487
682	0.8371
673	0.8343
664	0.8275
655	0.8061
646	0.7861
637	0.7685
628	0.7522
619	0.7438
610	0.7446
601	0.6239
592	0.666
583	0.7344
574	0.7719
565	0.795
556	0.809
547	0.8105
538	0.804
529	0.7968
520	0.7947
511	0.7949
502	0.7942
493	0.7925
484	0.7821
475	0.7617
466	0.7585
457	0.7376
448	0.7237
439	0.725
430	0.7239
421	0.7194
412	0.7186
403	0.7188
394	0.7201
