Infrared Spectrum: 1,3,5-TRIETHYLBENZENE
Formula: C12 H18
CAS: 102-25-0
State: SOLUTION (10% IN CCl4 FOR 3800-1340 CM^-^1, 10% IN CS2 FOR 1340-450 CM^-^1)
Class: COBLENTZ III
Instrument: DOW KBr FOREPRISM-GRATING
Instrument parameters: GRATING BLAZED AT 3.5, 12.0, 20.0 MICRONS AND CHANGED AT 5.0, 7.5, 14.9 MICRONS
Sampling: TRANSMISSION
Path length: 0.011 CM, 0.011 CM
Resolution: 4
Origin: DOW CHEMICAL COMPANY
1/CM	TRANSMITTANCE
448.378	1.005
457.174	1.016
465.97	1.018
474.766	1.023
483.562	1.029
492.358	1.037
501.154	1.041
509.95	1.048
518.747	1.054
527.543	1.061
536.339	1.065
545.135	1.07
553.931	1.076
562.727	1.077
571.523	1.072
580.319	1.077
589.115	1.076
597.911	1.07
606.707	1.067
615.503	1.062
624.299	1.054
633.095	1.044
641.891	1.019
650.688	0.991
659.484	1.013
668.28	1.04
677.076	1.024
685.872	1.013
694.668	0.959
703.464	0.582
712.26	0.438
721.056	0.922
729.852	1.004
738.648	1.027
747.444	1.03
756.24	1.03
765.036	1.023
773.832	1.004
782.629	0.943
791.425	0.983
800.221	1.015
809.017	1.02
817.813	1.027
826.609	1.015
835.405	0.99
844.201	0.938
852.997	0.797
861.793	0.169
870.589	0.3931
879.385	0.571
888.181	0.633
896.977	0.911
905.773	0.984
914.57	1.009
923.366	1.02
932.162	1.023
940.958	1.027
949.754	1.029
958.55	1.024
967.346	1.023
976.142	1.03
984.938	1.03
993.734	1.02
1002.53	1.006
1011.33	1.008
1020.12	1.004
1028.92	1.006
1037.71	0.991
1046.51	0.961
1055.31	0.858
1064.1	0.779
1072.9	0.644
1081.69	0.854
1090.49	0.955
1099.29	0.984
1108.08	1.006
1116.88	1.02
1125.68	1.018
1134.47	1.024
1143.27	1.02
1152.06	1.03
1160.86	1.024
1169.66	0.998
1178.45	1.026
1187.25	1.034
1196.04	1.037
1204.84	1.031
1213.64	1.027
1222.43	1.015
1231.23	0.998
1240.02	0.979
1248.82	0.954
1257.62	0.943
1266.41	0.94
1275.21	0.937
1284	0.927
1292.8	0.908
1301.6	0.894
1310.39	0.859
1319.19	0.732
1327.98	0.798
1336.78	0.866
1345.58	0.902
1354.37	0.918
1363.17	0.911
1371.97	0.762
1380.76	0.751
1389.56	0.882
1398.35	0.895
1407.15	0.883
1415.95	0.861
1424.74	0.821
1433.54	0.755
1442.33	0.619
1451.13	0.361
1459.93	0.066
1468.72	0.3391
1477.52	0.733
1486.31	0.796
1495.11	0.798
1503.91	0.769
1512.7	0.739
1521.5	0.71
1530.29	0.669
1539.09	0.582
1547.89	0.511
1556.68	0.528
1565.48	0.599
1574.27	0.647
1583.07	0.604
1591.87	0.504
1600.66	0.1509
1609.46	0.3851
1618.25	0.796
1627.05	0.884
1635.85	0.923
1644.64	0.941
1653.44	0.952
1662.24	0.954
1671.03	0.959
1679.83	0.961
1688.62	0.955
1697.42	0.965
1706.22	0.963
1715.01	0.968
1723.81	0.958
1732.6	0.961
1741.4	0.941
1750.2	0.875
1758.99	0.912
1767.79	0.918
1776.58	0.88
1785.38	0.945
1794.18	0.965
1802.97	0.972
1811.77	0.968
1820.56	0.969
1829.36	0.972
1838.16	0.97
1846.95	0.965
1855.75	0.961
1864.54	0.963
1873.34	0.97
1882.14	0.972
1890.93	0.972
1899.73	0.973
1908.53	0.973
1917.32	0.972
1926.12	0.972
1934.91	0.972
1943.71	0.97
1952.51	0.965
1961.3	0.973
1970.1	0.973
1978.89	0.968
1987.69	0.968
1996.49	0.975
2005.28	0.979
2014.08	0.981
2022.87	0.984
2031.67	0.986
2040.47	0.987
2049.26	0.988
2058.06	0.99
2066.85	0.9939
2075.65	0.9969
2084.45	0.998
2093.24	0.997
2102.04	0.997
2110.83	0.9931
2119.63	0.991
2128.43	0.99
2137.22	0.99
2146.02	0.988
2154.82	0.9908
2163.61	0.993
2172.41	0.994
2181.2	0.993
2190	0.991
2198.8	0.988
2207.59	0.986
2216.39	0.9832
2225.18	0.981
2233.98	0.981
2242.78	0.981
2251.57	0.98
2260.37	0.98
2269.16	0.9763
2277.96	0.9735
2286.76	0.972
2295.55	0.969
2304.35	0.97
2313.14	0.972
2321.94	0.976
2330.74	0.9767
2339.53	0.9824
2348.33	0.9877
2357.12	0.9937
2365.92	0.991
2374.72	0.9874
2383.51	0.984
2392.31	0.986
2401.1	0.987
2409.9	0.988
2418.7	0.9864
2427.49	0.9766
2436.29	0.98
2445.09	0.983
2453.88	0.983
2462.68	0.983
2471.47	0.9876
2480.27	0.991
2489.07	0.9849
2497.86	0.983
2506.66	0.979
2515.45	0.979
2524.25	0.98
2533.05	0.985
2541.84	0.987
2550.64	0.987
2559.43	0.986
2568.23	0.986
2577.03	0.9805
2585.82	0.977
2594.62	0.977
2603.41	0.977
2612.21	0.976
2621.01	0.9726
2629.8	0.97
2638.6	0.9724
2647.39	0.976
2656.19	0.977
2664.99	0.979
2673.78	0.9783
2682.58	0.973
2691.38	0.969
2700.17	0.961
2708.97	0.957
2717.76	0.9521
2726.56	0.9325
2735.36	0.9556
2744.15	0.9564
2752.95	0.9424
2761.74	0.9367
2770.54	0.9285
2779.34	0.9197
2788.13	0.914
2796.93	0.9065
2805.72	0.9
2814.52	0.8823
2823.32	0.834
2832.11	0.765
2840.91	0.6576
2849.7	0.4676
2858.5	0.2789
2867.3	0.2306
2876.09	0.2004
2884.89	0.3248
2893.68	0.2743
2902.48	0.3213
2911.28	0.2611
2920.07	0.1416
2928.87	0.0506
2937.67	0.1288
2946.46	0.2339
2955.26	0.0858
2964.05	0.0108
2972.85	0.0203
2981.65	0.3106
2990.44	0.5062
2999.24	0.5419
3008.03	0.4529
3016.83	0.4133
3025.63	0.5654
3034.42	0.7504
3043.22	0.8031
3052.01	0.815
3060.81	0.8261
3069.61	0.8979
3078.4	0.936
3087.2	0.954
3095.99	0.9609
3104.79	0.965
3113.59	0.966
3122.38	0.965
3131.18	0.962
3139.97	0.959
3148.77	0.957
3157.57	0.957
3166.36	0.959
3175.16	0.9657
3183.95	0.9699
3192.75	0.9729
3201.55	0.9759
3210.34	0.9787
3219.14	0.98
3227.94	0.981
3236.73	0.9827
3245.53	0.984
3254.32	0.987
3263.12	0.988
3271.92	0.99
3280.71	0.991
3289.51	0.994
3298.3	0.994
3307.1	0.994
3315.9	0.994
3324.69	0.995
3333.49	0.995
3342.28	0.995
3351.08	0.995
3359.88	0.995
3368.67	0.995
3377.47	0.995
3386.26	0.995
3395.06	0.9943
3403.86	0.994
3412.65	0.995
3421.45	0.995
3430.24	0.995
3439.04	0.995
3447.84	0.994
3456.63	0.993
3465.43	0.991
3474.23	0.991
3483.02	0.991
3491.82	0.99
3500.61	0.987
3509.41	0.9834
3518.21	0.981
3527	0.9836
3535.8	0.986
3544.59	0.988
3553.39	0.99
3562.19	0.9921
3570.98	0.9945
3579.78	0.997
3588.57	0.995
3597.37	0.994
3606.17	0.9935
3614.96	0.994
3623.76	0.993
3632.55	0.993
3641.35	0.993
3650.15	0.991
3658.94	0.9904
3667.74	0.991
3676.53	0.991
3685.33	0.991
3694.13	0.991
3702.92	0.991
3711.72	0.991
3720.52	0.991
3729.31	0.991
3738.11	0.991
3746.9	0.991
3755.7	0.991
3764.5	0.991
3773.29	0.991
3782.09	0.9917
3790.88	0.993
