Infrared Spectrum: TRIACETIN
Formula: C9 H14 O6
CAS: 102-76-1
State: SOLUTION (10% CCl4 FOR 3800-1340, 10% CS2 FOR 1340-450 CM^-^1)
Class: COBLENTZ III
Instrument: DOW KBr FOREPRISM-GRATING
Instrument parameters: BLAZED AT 3.5, 12.0, 20.0 MICRON AND CHANGED AT 5.0, 7.5, 14.9 MICRON
Sampling: TRANSMISSION
Path length: 0.011 CM, 0.011 CM
Resolution: 2
Origin: DOW CHEMICAL COMPANY
1/CM	TRANSMITTANCE
452	0.822
461	0.845
470	0.9013
479	0.9207
488	0.9435
497	0.9624
506	0.9625
515	0.9787
524	0.999
533	0.999
542	0.9947
551	1.0155
560	1.0409
569	1.0421
578	1.0193
587	0.9218
596	0.8104
605	0.5017
614	0.8065
623	0.865
632	0.8311
641	0.8216
650	0.8325
659	0.8763
668	0.9218
677	0.9152
686	0.9323
695	0.9602
704	0.9932
713	1.019
722	1.0265
731	1.0312
740	1.0295
749	1.035
758	1.0344
767	1.0297
776	1.0215
785	1.0103
794	0.9942
803	0.9554
812	0.8703
821	0.8208
830	0.7701
839	0.6978
848	0.6299
857	0.6131
866	0.6343
875	0.7046
884	0.6974
893	0.7238
902	0.7862
911	0.8463
920	0.8608
929	0.8108
938	0.7561
947	0.6147
956	0.447
965	0.5352
974	0.6651
983	0.7042
992	0.6512
1001	0.5114
1010	0.2415
1019	0.2937
1028	0.2661
1037	0.0855
1046	0.0241
1055	0.0458
1064	0.126
1073	0.2018
1082	0.4539
1091	0.3784
1100	0.267
1109	0.4944
1118	0.7145
1127	0.7654
1136	0.7558
1145	0.7311
1154	0.7618
1163	0.7665
1172	0.7022
1181	0.5797
1190	0.3846
1199	0.0897
1208	0
1217	0.0001
1226	0.0006
1235	0.003
1244	0.0154
1253	0.0325
1262	0.0687
1271	0.1205
1280	0.1909
1289	0.2992
1298	0.4008
1307	0.5375
1316	0.5883
1325	0.6493
1334	0.6768
1343	0.6925
1352	0.5675
1361	0.1042
1370	0.013
1379	0.1128
1388	0.3256
1397	0.4452
1406	0.4921
1415	0.4855
1424	0.4026
1433	0.3594
1442	0.3616
1451	0.4172
1460	0.436
1469	0.5569
1478	0.683
1487	0.7272
1496	0.7048
1505	0.6711
1514	0.6342
1523	0.5948
1532	0.5462
1541	0.4821
1550	0.4451
1559	0.4718
1568	0.5528
1577	0.6079
1586	0.6256
1595	0.6883
1604	0.7588
1613	0.8018
1622	0.8131
1631	0.7917
1640	0.7617
1649	0.7494
1658	0.7598
1667	0.7591
1676	0.7391
1685	0.6925
1694	0.6305
1703	0.4555
1712	0.2231
1721	0.1909
1730	0.0513
1739	0
1748	0
1757	0
1766	0.0287
1775	0.356
1784	0.4587
1793	0.6143
1802	0.6818
1811	0.7222
1820	0.7562
1829	0.7868
1838	0.8115
1847	0.8273
1856	0.8433
1865	0.8621
1874	0.8736
1883	0.8807
1892	0.8835
1901	0.8823
1910	0.8894
1919	0.8985
1928	0.9061
1937	0.9139
1946	0.9137
1955	0.9149
1964	0.9202
1973	0.9258
1982	0.9258
1991	0.9218
2000	0.9342
2009	0.9407
2018	0.932
2027	0.9241
2036	0.9197
2045	0.9217
2054	0.9257
2063	0.9268
2072	0.9259
2081	0.9241
2090	0.9217
2099	0.9188
2108	0.9184
2117	0.9228
2126	0.9293
2135	0.9359
2144	0.9421
2153	0.9465
2162	0.9498
2171	0.9523
2180	0.9534
2189	0.9539
2198	0.9538
2207	0.9533
2216	0.9527
2225	0.9518
2234	0.9504
2243	0.9489
2252	0.9468
2261	0.9447
2270	0.9435
2279	0.9425
2288	0.943
2297	0.9443
2306	0.9466
2315	0.949
2324	0.9521
2333	0.9554
2342	0.9582
2351	0.961
2360	0.9618
2369	0.962
2378	0.96
2387	0.9578
2396	0.9552
2405	0.9528
2414	0.9508
2423	0.9488
2432	0.9468
2441	0.9451
2450	0.945
2459	0.9465
2468	0.9481
2477	0.9509
2486	0.9521
2495	0.9525
2504	0.9525
2513	0.9516
2522	0.9501
2531	0.9478
2540	0.9463
2549	0.9448
2558	0.9434
2567	0.9415
2576	0.9392
2585	0.9368
2594	0.934
2603	0.9301
2612	0.9263
2621	0.9245
2630	0.9283
2639	0.9342
2648	0.9358
2657	0.9347
2666	0.9321
2675	0.9285
2684	0.9246
2693	0.9206
2702	0.917
2711	0.9134
2720	0.9141
2729	0.915
2738	0.9155
2747	0.9159
2756	0.9162
2765	0.9161
2774	0.9161
2783	0.9153
2792	0.914
2801	0.91
2810	0.9045
2819	0.8989
2828	0.8906
2837	0.8808
2846	0.8724
2855	0.8689
2864	0.8598
2873	0.8412
2882	0.8111
2891	0.7904
2900	0.7864
2909	0.7848
2918	0.7718
2927	0.7278
2936	0.6373
2945	0.5312
2954	0.5071
2963	0.5323
2972	0.5873
2981	0.6312
2990	0.6533
2999	0.7026
3008	0.7442
3017	0.7555
3026	0.7628
3035	0.7865
3044	0.8181
3053	0.8313
3062	0.8383
3071	0.8431
3080	0.8466
3089	0.8496
3098	0.8521
3107	0.8535
3116	0.855
3125	0.8564
3134	0.8584
3143	0.8614
3152	0.8658
3161	0.8696
3170	0.8718
3179	0.8725
3188	0.8723
3197	0.8714
3206	0.8705
3215	0.8701
3224	0.8701
3233	0.8701
3242	0.871
3251	0.8725
3260	0.8753
3269	0.8785
3278	0.8802
3287	0.8801
3296	0.8778
3305	0.8759
3314	0.8755
3323	0.8753
3332	0.8768
3341	0.8781
3350	0.8795
3359	0.8808
3368	0.8821
3377	0.8833
3386	0.8839
3395	0.8837
3404	0.8814
3413	0.8789
3422	0.874
3431	0.8653
3440	0.851
3449	0.8258
3458	0.8001
3467	0.7828
3476	0.7837
3485	0.8068
3494	0.8273
3503	0.841
3512	0.8444
3521	0.8504
3530	0.8577
3539	0.8681
3548	0.8788
3557	0.8921
3566	0.8987
3575	0.905
3584	0.9211
3593	0.9209
3602	0.9231
3611	0.929
3620	0.9378
3629	0.9482
3638	0.9545
3647	0.9556
3656	0.9528
3665	0.9475
3674	0.9455
3683	0.9533
3692	0.9628
3701	0.967
3710	0.9732
3719	0.9787
3728	0.9799
3737	0.978
3746	0.9753
3755	0.9718
3764	0.97
3773	0.9694
3782	0.9745
3791	0.974
3800	0.9708
