Infrared Spectrum: Nonanedioic acid, di-(2-ethylhexyl) ester
Formula: C25 H48 O4
CAS: 103-24-2
State: SOLUTION (10% CCl4 FOR 2.7-7.5, 10% CS2 FOR 7.5-26 MICRON) VS SOLVENT
Class: COBLENTZ III
Instrument: DOW KBr FOREPRISM-GRATING
Instrument parameters: BLAZED AT 3.5, 12.0, 20.0 MICRON AND CHANGED AT 5.0, 7.5, 14.9 MICRON
Sampling: TRANSMISSION
Path length: 0.011 CM, 0.011 CM
Resolution: 2
Origin: DOW CHEMICAL COMPANY
1/CM	TRANSMITTANCE
3800	0.8652
3791	0.8656
3782	0.8662
3773	0.8666
3764	0.8671
3755	0.8675
3746	0.868
3737	0.8682
3728	0.8685
3719	0.8687
3710	0.869
3701	0.8693
3692	0.8697
3683	0.87
3674	0.8698
3665	0.8695
3656	0.8694
3647	0.8684
3638	0.8625
3629	0.8583
3620	0.8594
3611	0.8618
3602	0.8648
3593	0.8675
3584	0.8696
3575	0.8714
3566	0.873
3557	0.8727
3548	0.8713
3539	0.8699
3530	0.8695
3521	0.8693
3512	0.8702
3503	0.876
3494	0.8785
3485	0.8795
3476	0.8804
3467	0.881
3458	0.8766
3449	0.8686
3440	0.8618
3431	0.8634
3422	0.8717
3413	0.8794
3404	0.8843
3395	0.8862
3386	0.8877
3377	0.8882
3368	0.8887
3359	0.8889
3350	0.8888
3341	0.8875
3332	0.8859
3323	0.8842
3314	0.8833
3305	0.8824
3296	0.8818
3287	0.8813
3278	0.8808
3269	0.8801
3260	0.8795
3251	0.8789
3242	0.878
3233	0.8771
3224	0.8758
3215	0.874
3206	0.8721
3197	0.8702
3188	0.8677
3179	0.8651
3170	0.8627
3161	0.8604
3152	0.8593
3143	0.8582
3134	0.8564
3125	0.8538
3116	0.8508
3107	0.8468
3098	0.8436
3089	0.8406
3080	0.8363
3071	0.8298
3062	0.8234
3053	0.8162
3044	0.8072
3035	0.7975
3026	0.7826
3017	0.7575
3008	0.7271
2999	0.6481
2990	0.446
2981	0.2658
2972	0.086
2963	0.0277
2954	0.0211
2945	0.0378
2936	0.0343
2927	0.0231
2918	0.0221
2909	0.0492
2900	0.1366
2891	0.2078
2882	0.2599
2873	0.1096
2864	0.1204
2855	0.0864
2846	0.4566
2837	0.5646
2828	0.6428
2819	0.6821
2810	0.7215
2801	0.7467
2792	0.7653
2783	0.7793
2774	0.793
2765	0.8018
2756	0.8069
2747	0.8091
2738	0.8082
2729	0.8028
2720	0.8042
2711	0.8081
2702	0.8111
2693	0.8139
2684	0.8161
2675	0.8162
2666	0.8154
2657	0.8158
2648	0.8209
2639	0.8266
2630	0.8285
2621	0.8297
2612	0.8309
2603	0.8328
2594	0.8351
2585	0.8375
2576	0.8411
2567	0.8446
2558	0.8481
2549	0.8517
2540	0.8552
2531	0.8586
2522	0.8611
2513	0.8637
2504	0.8662
2495	0.8682
2486	0.8703
2477	0.8717
2468	0.8724
2459	0.8727
2450	0.8728
2441	0.8728
2432	0.8728
2423	0.8728
2414	0.8727
2405	0.8723
2396	0.8713
2387	0.8703
2378	0.8697
2369	0.8694
2360	0.8694
2351	0.8695
2342	0.8696
2333	0.8692
2324	0.8666
2315	0.8651
2306	0.8645
2297	0.8653
2288	0.8664
2279	0.8675
2270	0.8684
2261	0.8691
2252	0.8698
2243	0.8713
2234	0.8731
2225	0.8746
2216	0.8758
2207	0.8763
2198	0.8765
2189	0.8774
2180	0.8837
2171	0.8838
2162	0.8784
2153	0.8781
2144	0.8778
2135	0.8777
2126	0.8773
2117	0.8767
2108	0.8762
2099	0.875
2090	0.8743
2081	0.874
2072	0.8742
2063	0.8743
2054	0.8731
2045	0.8716
2036	0.8701
2027	0.8689
2018	0.8694
2009	0.87
2000	0.8708
1991	0.8718
1982	0.872
1973	0.8723
1964	0.872
1955	0.8717
1946	0.8714
1937	0.8711
1928	0.8708
1919	0.8706
1910	0.8703
1901	0.87
1892	0.8697
1883	0.8694
1874	0.8691
1865	0.8688
1856	0.8685
1847	0.8683
1838	0.8634
1829	0.8587
1820	0.8533
1811	0.8455
1802	0.834
1793	0.819
1784	0.7997
1775	0.7735
1766	0.7248
1757	0.6324
1748	0.325
1739	0.0354
1730	0.0068
1721	0.0952
1712	0.2985
1703	0.4205
1694	0.5994
1685	0.6893
1676	0.7469
1667	0.7785
1658	0.8017
1649	0.8181
1640	0.8281
1631	0.8358
1622	0.841
1613	0.8451
1604	0.849
1595	0.851
1586	0.8518
1577	0.8514
1568	0.851
1559	0.854
1550	0.8561
1541	0.8568
1532	0.8484
1523	0.8398
1514	0.8331
1505	0.8205
1496	0.7975
1487	0.7534
1478	0.5918
1469	0.1886
1460	0.2058
1451	0.4092
1442	0.5423
1433	0.5842
1424	0.554
1415	0.5825
1406	0.6533
1397	0.4714
1388	0.403
1379	0.3537
1370	0.497
1361	0.438
1352	0.435
1343	0.469
1334	0.4958
1325	0.5268
1316	0.4907
1307	0.4678
1298	0.4447
1289	0.4371
1280	0.3972
1271	0.372
1262	0.3209
1253	0.2701
1244	0.2395
1235	0.2407
1226	0.2684
1217	0.2915
1208	0.2834
1199	0.2318
1190	0.1716
1181	0.1112
1172	0.087
1163	0.1068
1154	0.1951
1145	0.2854
1136	0.3352
1127	0.3584
1118	0.4657
1109	0.5781
1100	0.5547
1091	0.4559
1082	0.4827
1073	0.5585
1064	0.6222
1055	0.6394
1046	0.6515
1037	0.6175
1028	0.5535
1019	0.5602
1010	0.5422
1001	0.5609
992	0.5908
983	0.6217
974	0.6376
965	0.6432
956	0.6441
947	0.6828
938	0.71
929	0.719
920	0.7275
911	0.7324
902	0.7371
893	0.7605
884	0.7861
875	0.8003
866	0.8015
857	0.8108
848	0.8361
839	0.8408
830	0.824
821	0.8151
812	0.8199
803	0.8232
794	0.8101
785	0.7708
776	0.7417
767	0.7368
758	0.8025
749	0.818
740	0.791
731	0.7178
722	0.701
713	0.8119
704	0.838
695	0.8543
686	0.8607
677	0.8649
668	0.8645
659	0.865
650	0.8495
641	0.8417
632	0.8371
623	0.8321
614	0.8244
605	0.8154
596	0.8128
587	0.8115
578	0.8121
569	0.8154
560	0.8189
551	0.8236
542	0.825
533	0.8233
524	0.814
515	0.8145
506	0.8141
497	0.8098
488	0.7992
479	0.7978
470	0.8017
461	0.8057
452	0.8072
443	0.8067
434	0.8049
425	0.8075
416	0.8085
407	0.8082
398	0.808
