Infrared Spectrum: t-Stilbene
Formula: C14 H12
CAS: 103-30-0
State: SOLUTION (5% CCl4 FOR 3800-1350, 5% CS2 FOR 1350-400 CM^-^1)
Class: COBLENTZ II
Instrument: DOW KBr FOREPRISM-GRATING
Instrument parameters: BLAZED AT 3.5, 12.0, 20.0 MICRON AND CHANGED AT 5.0, 7.5, 14.9 MICRON
Sampling: TRANSMISSION
Path length: 0.011 CM, 0.011 CM
Resolution: 2
Origin: DOW CHEMICAL COMPANY
1/CM	TRANSMITTANCE
3800	0.873
3791	0.8723
3782	0.8715
3773	0.8715
3764	0.8736
3755	0.8781
3746	0.8815
3737	0.8774
3728	0.8751
3719	0.873
3710	0.8721
3701	0.8712
3692	0.8721
3683	0.8755
3674	0.8747
3665	0.8764
3656	0.8714
3647	0.8711
3638	0.8716
3629	0.8758
3620	0.8806
3611	0.8797
3602	0.8813
3593	0.8806
3584	0.8785
3575	0.8778
3566	0.8788
3557	0.8797
3548	0.8807
3539	0.8816
3530	0.8827
3521	0.884
3512	0.8853
3503	0.8864
3494	0.8875
3485	0.8888
3476	0.8898
3467	0.8905
3458	0.8914
3449	0.8921
3440	0.8928
3431	0.8927
3422	0.8925
3413	0.8924
3404	0.8923
3395	0.8923
3386	0.8923
3377	0.8923
3368	0.8924
3359	0.8921
3350	0.892
3341	0.8918
3332	0.8921
3323	0.8925
3314	0.8928
3305	0.8932
3296	0.8928
3287	0.8914
3278	0.8903
3269	0.8891
3260	0.8889
3251	0.889
3242	0.889
3233	0.8878
3224	0.8866
3215	0.8857
3206	0.8854
3197	0.8851
3188	0.8846
3179	0.8837
3170	0.8818
3161	0.8743
3152	0.8721
3143	0.8736
3134	0.8723
3125	0.8659
3116	0.8001
3107	0.7891
3098	0.7619
3089	0.6267
3080	0.6799
3071	0.6105
3062	0.66
3053	0.7191
3044	0.5062
3035	0.3877
3026	0.5901
3017	0.7625
3008	0.8096
2999	0.828
2990	0.8565
2981	0.8598
2972	0.8631
2963	0.8633
2954	0.855
2945	0.858
2936	0.8625
2927	0.8675
2918	0.871
2909	0.8707
2900	0.8674
2891	0.8705
2882	0.8756
2873	0.8795
2864	0.8788
2855	0.8783
2846	0.8784
2837	0.8788
2828	0.8793
2819	0.8788
2810	0.8777
2801	0.8766
2792	0.8763
2783	0.877
2774	0.8777
2765	0.8783
2756	0.8784
2747	0.8784
2738	0.8784
2729	0.8784
2720	0.8785
2711	0.8785
2702	0.8785
2693	0.8785
2684	0.8786
2675	0.8783
2666	0.878
2657	0.8777
2648	0.8774
2639	0.8765
2630	0.8748
2621	0.8731
2612	0.8716
2603	0.8702
2594	0.8692
2585	0.8695
2576	0.8698
2567	0.8693
2558	0.8688
2549	0.8682
2540	0.8675
2531	0.8675
2522	0.8678
2513	0.8682
2504	0.8686
2495	0.8696
2486	0.8705
2477	0.8715
2468	0.871
2459	0.8699
2450	0.8689
2441	0.8678
2432	0.8671
2423	0.8665
2414	0.8663
2405	0.8664
2396	0.8666
2387	0.8667
2378	0.8673
2369	0.868
2360	0.8687
2351	0.8674
2342	0.8657
2333	0.864
2324	0.8628
2315	0.8618
2306	0.8609
2297	0.86
2288	0.8591
2279	0.8582
2270	0.8575
2261	0.8568
2252	0.8562
2243	0.8556
2234	0.855
2225	0.8544
2216	0.8547
2207	0.8542
2198	0.8547
2189	0.8618
2180	0.8574
2171	0.8547
2162	0.8551
2153	0.856
2144	0.8568
2135	0.8563
2126	0.8559
2117	0.8549
2108	0.8535
2099	0.8535
2090	0.8536
2081	0.8535
2072	0.8535
2063	0.8541
2054	0.8554
2045	0.856
2036	0.8564
2027	0.8566
2018	0.857
2009	0.8575
2000	0.8591
1991	0.8637
1982	0.8657
1973	0.8658
1964	0.8317
1955	0.8404
1946	0.8158
1937	0.8011
1928	0.8575
1919	0.8628
1910	0.8662
1901	0.8675
1892	0.8547
1883	0.845
1874	0.8227
1865	0.8378
1856	0.8642
1847	0.869
1838	0.8678
1829	0.8558
1820	0.8494
1811	0.8327
1802	0.8282
1793	0.8168
1784	0.8471
1775	0.8628
1766	0.8682
1757	0.8634
1748	0.8518
1739	0.8461
1730	0.862
1721	0.8706
1712	0.8724
1703	0.8721
1694	0.8602
1685	0.8642
1676	0.8595
1667	0.8631
1658	0.8618
1649	0.8578
1640	0.8574
1631	0.8588
1622	0.8535
1613	0.8313
1604	0.526
1595	0.8074
1586	0.8224
1577	0.8236
1568	0.855
1559	0.8651
1550	0.8675
1541	0.8531
1532	0.8468
1523	0.8547
1514	0.8327
1505	0.6028
1496	0.6803
1487	0.7936
1478	0.8421
1469	0.8415
1460	0.6476
1451	0.7767
1442	0.8189
1433	0.8334
1424	0.8348
1415	0.8355
1406	0.8352
1397	0.8318
1388	0.8188
1379	0.8225
1370	0.8271
1361	0.8336
1352	0.8487
1343	0.8412
1334	0.826
1325	0.8118
1316	0.8327
1307	0.839
1298	0.8368
1289	0.8446
1280	0.8492
1271	0.8447
1262	0.8356
1253	0.8517
1244	0.8592
1235	0.8571
1226	0.8544
1217	0.8354
1208	0.8535
1199	0.86
1190	0.8502
1181	0.8271
1172	0.8401
1163	0.8439
1154	0.8328
1145	0.8594
1136	0.8692
1127	0.8737
1118	0.8781
1109	0.8738
1100	0.8545
1091	0.8708
1082	0.8671
1073	0.6614
1064	0.8482
1055	0.8746
1046	0.8771
1037	0.8639
1028	0.7805
1019	0.8505
1010	0.8506
1001	0.8343
992	0.8298
983	0.5635
974	0.7775
965	0.3349
956	0.3832
947	0.7914
938	0.8374
929	0.8434
920	0.8406
911	0.8017
902	0.8181
893	0.8508
884	0.8547
875	0.8503
866	0.8432
857	0.8325
848	0.8246
839	0.8227
830	0.8312
821	0.8435
812	0.8452
803	0.8438
794	0.8418
785	0.8343
776	0.7921
767	0.303
758	0.3052
749	0.7567
740	0.7424
731	0.7324
722	0.7994
713	0.7885
704	0.678
695	0.1894
686	0.3344
677	0.7097
668	0.7495
659	0.7675
650	0.7815
641	0.7942
632	0.8017
623	0.8086
614	0.8144
605	0.8194
596	0.823
587	0.8243
578	0.8232
569	0.819
560	0.8081
551	0.7724
542	0.533
533	0.2708
524	0.6868
515	0.7978
506	0.8003
497	0.7984
488	0.7965
479	0.7997
470	0.8015
461	0.8026
452	0.8039
443	0.8067
434	0.8094
425	0.8098
416	0.8105
407	0.8117
398	0.8138
