Infrared Spectrum: N,N'-BIS(1-METHYLHEPTYL)-p-PHENYLENEDIAMINE
Formula: C22 H40 N2
CAS: 103-96-8
State: SOLUTION (10% CCl4 FOR 3800-1330, 10% CS2 FOR 1330-450 CM^-^1)
Class: COBLENTZ III
Instrument: DOW KBr FOREPRISM-GRATING
Instrument parameters: BLAZED AT 3.5, 12.0, 20.0 MICRON AND CHANGED AT 5.0, 7.5, 14.9 MICRON
Sampling: TRANSMISSION
Path length: 0.011 CM, 0.011 CM
Resolution: 2
Origin: DOW CHEMICAL COMPANY
1/CM	TRANSMITTANCE
457.018	0.777
465.79	0.778
474.562	0.777
483.334	0.771
492.106	0.761
500.878	0.748
509.65	0.718
518.422	0.709
527.194	0.755
535.965	0.792
544.737	0.811
553.509	0.822
562.281	0.829
571.053	0.834
579.825	0.838
588.597	0.844
597.369	0.85
606.141	0.856
614.913	0.853
623.685	0.85
632.457	0.846
641.229	0.83
650.001	0.818
658.773	0.844
667.545	0.893
676.317	0.931
685.088	0.949
693.86	0.954
702.632	0.954
711.404	0.93
720.176	0.853
728.948	0.833
737.72	0.941
746.492	0.949
755.264	0.954
764.036	0.976
772.808	0.978
781.58	0.934
790.352	0.875
799.124	0.7699
807.896	0.339
816.668	0.37
825.439	0.705
834.211	0.913
842.983	0.902
851.755	0.822
860.527	0.82
869.299	0.834
878.071	0.863
886.843	0.926
895.615	0.976
904.387	0.983
913.159	0.995
921.931	1.004
930.703	1.012
939.475	1.024
948.247	1.016
957.019	1.019
965.791	1.015
974.562	1.012
983.334	1.019
992.106	1.023
1000.88	1.012
1009.65	1.016
1018.42	1.001
1027.19	0.978
1035.97	0.932
1044.74	0.927
1053.51	0.916
1062.28	0.891
1071.05	0.844
1079.83	0.824
1088.6	0.841
1097.37	0.883
1106.14	0.76
1114.91	0.66
1123.69	0.674
1132.46	0.674
1141.23	0.586
1150	0.506
1158.77	0.455
1167.55	0.6631
1176.32	0.749
1185.09	0.8
1193.86	0.793
1202.63	0.85
1211.4	0.85
1220.18	0.7509
1228.95	0.5949
1237.72	0.424
1246.49	0.4559
1255.26	0.28
1264.04	0.4171
1272.81	0.581
1281.58	0.604
1290.35	0.48
1299.12	0.439
1307.9	0.456
1316.67	0.425
1325.44	0.616
1334.21	0.604
1342.98	0.584
1351.76	0.619
1360.53	0.615
1369.3	0.5119
1378.07	0.326
1386.84	0.6891
1395.62	0.708
1404.39	0.633
1413.16	0.734
1421.93	0.755
1430.7	0.6509
1439.48	0.455
1448.25	0.388
1457.02	0.24
1465.79	0.229
1474.56	0.5881
1483.33	0.633
1492.11	0.4909
1500.88	0.2539
1509.65	0.015
1518.42	0.004
1527.19	0.1161
1535.97	0.341
1544.74	0.37
1553.51	0.377
1562.28	0.447
1571.05	0.512
1579.83	0.488
1588.6	0.514
1597.37	0.597
1606.14	0.571
1614.91	0.666
1623.69	0.7591
1632.46	0.846
1641.23	0.875
1650	0.883
1658.77	0.894
1667.55	0.893
1676.32	0.891
1685.09	0.894
1693.86	0.893
1702.63	0.871
1711.41	0.831
1720.18	0.818
1728.95	0.906
1737.72	0.937
1746.49	0.949
1755.27	0.954
1764.04	0.957
1772.81	0.963
1781.58	0.963
1790.35	0.963
1799.12	0.958
1807.9	0.953
1816.67	0.938
1825.44	0.912
1834.21	0.923
1842.98	0.938
1851.76	0.943
1860.53	0.948
1869.3	0.952
1878.07	0.953
1886.84	0.956
1895.62	0.957
1904.39	0.957
1913.16	0.958
1921.93	0.961
1930.7	0.963
1939.48	0.965
1948.25	0.967
1957.02	0.968
1965.79	0.969
1974.56	0.972
1983.34	0.974
1992.11	0.975
2000.88	0.975
2009.65	0.976
2018.42	0.976
2027.2	0.978
2035.97	0.978
2044.74	0.978
2053.51	0.979
2062.28	0.979
2071.05	0.979
2079.83	0.979
2088.6	0.979
2097.37	0.979
2106.14	0.979
2114.91	0.979
2123.69	0.979
2132.46	0.979
2141.23	0.979
2150	0.98
2158.77	0.98
2167.55	0.9815
2176.32	0.982
2185.09	0.982
2193.86	0.982
2202.63	0.982
2211.41	0.982
2220.18	0.98
2228.95	0.979
2237.72	0.979
2246.49	0.9763
2255.27	0.975
2264.04	0.9711
2272.81	0.967
2281.58	0.963
2290.35	0.96
2299.13	0.958
2307.9	0.9599
2316.67	0.965
2325.44	0.9749
2334.21	0.979
2342.99	0.982
2351.76	0.98
2360.53	0.979
2369.3	0.976
2378.07	0.972
2386.84	0.972
2395.62	0.972
2404.39	0.971
2413.16	0.969
2421.93	0.9689
2430.7	0.968
2439.48	0.968
2448.25	0.971
2457.02	0.972
2465.79	0.972
2474.56	0.971
2483.34	0.9678
2492.11	0.9648
2500.88	0.963
2509.65	0.961
2518.42	0.96
2527.2	0.9577
2535.97	0.956
2544.74	0.9514
2553.51	0.9457
2562.28	0.9387
2571.06	0.9334
2579.83	0.9293
2588.6	0.927
2597.37	0.927
2606.14	0.928
2614.92	0.928
2623.69	0.9252
2632.46	0.924
2641.23	0.9226
2650	0.919
2658.77	0.916
2667.55	0.913
2676.32	0.913
2685.09	0.913
2693.86	0.912
2702.63	0.91
2711.41	0.903
2720.18	0.897
2728.95	0.8975
2737.72	0.9046
2746.49	0.906
2755.27	0.9054
2764.04	0.9008
2772.81	0.8894
2781.58	0.8708
2790.35	0.8462
2799.13	0.8143
2807.9	0.7837
2816.67	0.7427
2825.44	0.6799
2834.21	0.5517
2842.99	0.2974
2851.76	0.1032
2860.53	0.0739
2869.3	0.141
2878.07	0.2004
2886.85	0.2618
2895.62	0.1542
2904.39	0.0955
2913.16	0.0347
2921.93	0.0176
2930.71	0.0198
2939.48	0.0457
2948.25	0.0581
2957.02	0.0271
2965.79	0.0619
2974.56	0.1605
2983.34	0.33
2992.11	0.5556
3000.88	0.6448
3009.65	0.6344
3018.42	0.6139
3027.2	0.6614
3035.97	0.751
3044.74	0.741
3053.51	0.756
3062.28	0.8161
3071.06	0.8594
3079.83	0.8932
3088.6	0.8979
3097.37	0.8901
3106.14	0.9133
3114.92	0.9311
3123.69	0.9381
3132.46	0.9421
3141.23	0.9463
3150	0.95
3158.78	0.952
3167.55	0.953
3176.32	0.953
3185.09	0.953
3193.86	0.954
3202.64	0.957
3211.41	0.958
3220.18	0.961
3228.95	0.963
3237.72	0.964
3246.49	0.964
3255.27	0.964
3264.04	0.9637
3272.81	0.961
3281.58	0.9577
3290.35	0.954
3299.13	0.9513
3307.9	0.9443
3316.67	0.9369
3325.44	0.9292
3334.21	0.9196
3342.99	0.9108
3351.76	0.9006
3360.53	0.8921
3369.3	0.8793
3378.07	0.8651
3386.85	0.8496
3395.62	0.8265
3404.39	0.815
3413.16	0.8291
3421.93	0.8771
3430.71	0.9219
3439.48	0.9464
3448.25	0.9617
3457.02	0.9702
3465.79	0.9756
3474.57	0.98
3483.34	0.9826
3492.11	0.9853
3500.88	0.986
3509.65	0.986
3518.43	0.9883
3527.2	0.99
3535.97	0.991
3544.74	0.991
3553.51	0.991
3562.28	0.9875
3571.06	0.9735
3579.83	0.989
3588.6	0.989
3597.37	0.987
3606.14	0.989
3614.92	0.989
3623.69	0.989
3632.46	0.989
3641.23	0.989
3650	0.987
3658.78	0.986
3667.55	0.986
3676.32	0.986
3685.09	0.986
3693.86	0.9899
3702.64	0.9929
3711.41	0.9949
3720.18	0.997
3728.95	0.995
3737.72	0.993
3746.5	0.991
3755.27	0.991
3764.04	0.991
3772.81	0.993
3781.58	0.994
3790.36	0.997
