Infrared Spectrum: BENZYLAMINE, N-METHYL-,
Formula: C8 H11 N
CAS: 103-67-3
State: SOLUTION (10% CCl4 FOR 3800-400 CM^-^1)
Class: COBLENTZ III
Instrument: DOW KBr FOREPRISM-GRATING
Instrument parameters: BLAZED AT 3.5, 12.0, 20.0 MICRON AND CHANGED AT 5.0, 7.5, 14.9 MICRON
Sampling: TRANSMISSION
Path length: 0.011 CM
Resolution: 2
Origin: DOW CHEMICAL COMPANY
1/CM	TRANSMITTANCE
400	0.9336
409	0.9265
418	0.9157
427	0.9037
436	0.8801
445	0.8394
454	0.8136
463	0.7856
472	0.7221
481	0.6946
490	0.7484
499	0.8753
508	0.906
517	0.902
526	0.8871
535	0.8686
544	0.881
553	0.8795
562	0.8637
571	0.8015
580	0.655
589	0.7605
598	0.6753
607	0.8498
616	0.8548
625	0.8108
634	0.8452
643	0.8416
652	0.8092
661	0.7458
670	0.6836
679	0.6314
688	0.4068
697	0.0284
706	0.1154
715	0.1914
724	0.1157
733	0.0075
742	0.0078
751	0.0081
760	0.0084
769	0.0087
778	0.009
787	0.0093
796	0.0096
805	0.0102
814	0.039
823	0.1458
832	0.3696
841	0.5342
850	0.5969
859	0.6611
868	0.7151
877	0.7564
886	0.7708
895	0.7565
904	0.6842
913	0.7651
922	0.7611
931	0.749
940	0.7899
949	0.764
958	0.6506
967	0.61
976	0.5526
985	0.6014
994	0.6638
1003	0.6333
1012	0.6721
1021	0.7058
1030	0.4582
1039	0.8101
1048	0.8065
1057	0.7844
1066	0.6782
1075	0.6098
1084	0.7492
1093	0.7018
1102	0.4534
1111	0.4246
1120	0.4864
1129	0.4231
1138	0.612
1147	0.6336
1156	0.6734
1165	0.7434
1174	0.7771
1183	0.7757
1192	0.7248
1201	0.676
1210	0.6512
1219	0.6803
1228	0.6893
1237	0.6693
1246	0.6373
1255	0.6165
1264	0.6638
1273	0.7811
1282	0.8401
1291	0.8403
1300	0.823
1309	0.7911
1318	0.8003
1327	0.8015
1336	0.7837
1345	0.7511
1354	0.551
1363	0.6847
1372	0.8251
1381	0.8198
1390	0.826
1399	0.8521
1408	0.8402
1417	0.779
1426	0.7689
1435	0.5723
1444	0.2861
1453	0.2894
1462	0.4766
1471	0.4965
1480	0.4794
1489	0.5945
1498	0.2222
1507	0.6846
1516	0.6762
1525	0.643
1534	0.5892
1543	0.4767
1552	0.4685
1561	0.5227
1570	0.5893
1579	0.6125
1588	0.6035
1597	0.6655
1606	0.6893
1615	0.8021
1624	0.8495
1633	0.8595
1642	0.8666
1651	0.8691
1660	0.8759
1669	0.8854
1678	0.8938
1687	0.8991
1696	0.8971
1705	0.9036
1714	0.9015
1723	0.8991
1732	0.8957
1741	0.8918
1750	0.8954
1759	0.9055
1768	0.9045
1777	0.904
1786	0.9023
1795	0.8814
1804	0.8468
1813	0.8687
1822	0.8825
1831	0.893
1840	0.8971
1849	0.8918
1858	0.8787
1867	0.8573
1876	0.8675
1885	0.8778
1894	0.891
1903	0.9035
1912	0.9061
1921	0.905
1930	0.8992
1939	0.8718
1948	0.8302
1957	0.8685
1966	0.8799
1975	0.9039
1984	0.9075
1993	0.9057
2002	0.8337
2011	0.8334
2020	0.8335
2029	0.8338
2038	0.8338
2047	0.8338
2056	0.8339
2065	0.8339
2074	0.8342
2083	0.8349
2092	0.8361
2101	0.837
2110	0.8371
2119	0.8371
2128	0.8371
2137	0.8371
2146	0.8365
2155	0.8358
2164	0.8352
2173	0.8342
2182	0.8331
2191	0.8323
2200	0.8315
2209	0.8306
2218	0.8292
2227	0.8277
2236	0.8262
2245	0.8237
2254	0.8212
2263	0.8187
2272	0.8165
2281	0.8144
2290	0.8124
2299	0.8104
2308	0.8095
2317	0.8087
2326	0.8078
2335	0.8082
2344	0.8101
2353	0.8131
2362	0.8161
2371	0.8203
2380	0.8247
2389	0.8284
2398	0.8318
2407	0.8328
2416	0.833
2425	0.8328
2434	0.8318
2443	0.831
2452	0.8312
2461	0.832
2470	0.8324
2479	0.8314
2488	0.8304
2497	0.8294
2506	0.8282
2515	0.8267
2524	0.8254
2533	0.8239
2542	0.8225
2551	0.8206
2560	0.8185
2569	0.8162
2578	0.8142
2587	0.8121
2596	0.8104
2605	0.8087
2614	0.8089
2623	0.8092
2632	0.8075
2641	0.8048
2650	0.8001
2659	0.7925
2668	0.7841
2677	0.7742
2686	0.7585
2695	0.7358
2704	0.7321
2713	0.755
2722	0.7695
2731	0.7665
2740	0.7565
2749	0.7256
2758	0.6651
2767	0.5931
2776	0.456
2785	0.2419
2794	0.1383
2803	0.2433
2812	0.4009
2821	0.3734
2830	0.341
2839	0.3308
2848	0.2359
2857	0.2634
2866	0.3396
2875	0.3376
2884	0.336
2893	0.3452
2902	0.405
2911	0.4055
2920	0.3788
2929	0.3632
2938	0.3047
2947	0.3282
2956	0.362
2965	0.4585
2974	0.4259
2983	0.3934
2992	0.5569
3001	0.6628
3010	0.658
3019	0.6352
3028	0.4538
3037	0.3182
3046	0.4499
3055	0.6141
3064	0.5433
3073	0.4207
3082	0.5949
3091	0.5567
3100	0.5806
3109	0.7342
3118	0.7496
3127	0.7922
3136	0.8038
3145	0.8044
3154	0.8032
3163	0.8008
3172	0.8017
3181	0.805
3190	0.808
3199	0.8104
3208	0.8122
3217	0.8138
3226	0.8143
3235	0.8128
3244	0.8092
3253	0.8049
3262	0.8001
3271	0.7949
3280	0.7926
3289	0.7915
3298	0.7915
3307	0.7917
3316	0.7906
3325	0.7842
3334	0.7747
3343	0.7701
3352	0.775
3361	0.7833
3370	0.7905
3379	0.7975
3388	0.8043
3397	0.8107
3406	0.8169
3415	0.8234
3424	0.8296
3433	0.8325
3442	0.8356
3451	0.8378
3460	0.8398
3469	0.8417
3478	0.8437
3487	0.8452
3496	0.8466
3505	0.848
3514	0.8494
3523	0.8505
3532	0.851
3541	0.8514
3550	0.852
3559	0.8524
3568	0.8528
3577	0.8528
3586	0.8528
3595	0.8528
3604	0.8528
3613	0.8528
3622	0.8528
3631	0.8527
3640	0.8513
3649	0.8492
3658	0.8461
3667	0.8407
3676	0.8312
3685	0.8365
3694	0.8492
3703	0.8555
3712	0.8544
3721	0.8539
3730	0.8534
3739	0.8531
3748	0.853
3757	0.8528
3766	0.8553
3775	0.8577
3784	0.8594
3793	0.861
