Infrared Spectrum: ACETANILIDE
Formula: C8 H9 N O
CAS: 103-84-4
State: SOLID (SPLIT MULL)
Melting point: 110 C
Class: COBLENTZ III
Instrument: PERKIN-ELMER 521 (GRATING)
Instrument parameters: FILTERS AT 3150, 2500, 2000, 1150, 700, 410. GRATING CHANGES: 2000, 630 CM^-^1
Sampling: TRANSMISSION
Resolution: 2
Origin: DOW CORNING CORP.
1/CM	TRANSMITTANCE
250.26	0.805
259.503	0.85
268.746	0.885
277.99	0.923
287.233	0.962
296.476	0.967
305.719	0.983
314.962	0.987
324.206	0.963
333.449	0.966
342.692	0.632
351.935	0.911
361.179	0.868
370.422	0.863
379.665	0.981
388.908	0.982
398.151	0.985
407.395	0.961
416.638	0.945
425.881	0.983
435.124	0.971
444.367	0.967
453.611	0.953
462.854	0.953
472.097	0.942
481.34	0.931
490.583	0.905
499.827	0.692
509.07	0.233
518.313	0.862
527.556	0.576
536.8	0.685
546.043	0.835
555.286	0.907
564.529	0.92
573.772	0.913
583.016	0.897
592.259	0.817
601.502	0.397
610.745	0.832
619.988	0.853
629.232	0.855
638.475	0.84
647.718	0.82
656.961	0.769
666.204	0.65
675.448	0.755
684.691	0.659
693.934	0.093
703.177	0.475
712.421	0.523
721.664	0.401
730.907	0.329
740.15	0.204
749.393	0.028
758.637	0.021
767.88	0.121
777.123	0.421
786.366	0.538
795.609	0.61
804.853	0.664
814.096	0.684
823.339	0.686
832.582	0.637
841.825	0.602
851.069	0.634
860.312	0.729
869.555	0.735
878.798	0.731
888.042	0.694
897.285	0.609
906.528	0.228
915.771	0.67
925.014	0.71
934.258	0.694
943.501	0.659
952.744	0.523
961.987	0.393
971.23	0.596
980.474	0.575
989.717	0.589
998.96	0.423
1008.2	0.308
1017.45	0.374
1026.69	0.494
1035.93	0.308
1045.18	0.449
1054.42	0.635
1063.66	0.646
1072.91	0.593
1082.15	0.606
1091.39	0.67
1100.64	0.657
1109.88	0.645
1119.12	0.659
1128.36	0.652
1137.61	0.635
1146.85	0.617
1156.09	0.535
1165.34	0.575
1174.58	0.445
1183.82	0.598
1193.07	0.564
1202.31	0.539
1211.55	0.521
1220.8	0.506
1230.04	0.506
1239.28	0.46
1248.53	0.332
1257.77	0.112
1267.01	0.1892
1276.26	0.496
1285.5	0.62
1294.74	0.666
1303.99	0.677
1313.23	0.5479
1322.47	0.441
1331.72	0.828
1340.96	0.81
1350.2	0.775
1359.45	0.662
1368.69	0.599
1377.93	0.782
1387.17	0.765
1396.42	0.775
1405.66	0.744
1414.9	0.676
1424.15	0.546
1433.39	0.429
1442.63	0.595
1451.88	0.791
1461.12	0.795
1470.36	0.744
1479.61	0.626
1488.85	0.5861
1498.09	0.424
1507.34	0.715
1516.58	0.679
1525.82	0.627
1535.07	0.578
1544.31	0.57
1553.55	0.264
1562.8	0.747
1572.04	0.781
1581.28	0.762
1590.53	0.495
1599.77	0.394
1609.01	0.594
1618.26	0.62
1627.5	0.736
1636.74	0.675
1645.98	0.521
1655.23	0.327
1664.47	0.229
1673.71	0.705
1682.96	0.873
1692.2	0.932
1701.44	0.945
1710.69	0.953
1719.93	0.956
1729.17	0.952
1738.42	0.945
1747.66	0.947
1756.9	0.948
1766.15	0.947
1775.39	0.946
1784.63	0.942
1793.88	0.937
1803.12	0.937
1812.36	0.945
1821.61	0.943
1830.85	0.943
1840.09	0.937
1849.34	0.936
1858.58	0.935
1867.82	0.925
1877.06	0.93
1886.31	0.932
1895.55	0.937
1904.79	0.936
1914.04	0.933
1923.28	0.93
1932.52	0.928
1941.77	0.92
1951.01	0.912
1960.25	0.922
1969.5	0.923
1978.74	0.926
1987.98	0.925
1997.23	0.927
2006.47	0.916
2015.71	0.916
2024.96	0.916
2034.2	0.915
2043.44	0.913
2052.69	0.912
2061.93	0.911
2071.17	0.908
2080.42	0.908
2089.66	0.907
2098.9	0.906
2108.15	0.905
2117.39	0.903
2126.63	0.901
2135.87	0.8981
2145.12	0.893
2154.36	0.891
2163.6	0.888
2172.85	0.886
2182.09	0.885
2191.33	0.8847
2200.58	0.882
2209.82	0.881
2219.06	0.8778
2228.31	0.8744
2237.55	0.87
2246.79	0.868
2256.04	0.866
2265.28	0.863
2274.52	0.862
2283.77	0.8625
2293.01	0.863
2302.25	0.861
2311.5	0.8554
2320.74	0.848
2329.98	0.8476
2339.23	0.852
2348.47	0.8503
2357.71	0.8527
2366.96	0.856
2376.2	0.858
2385.44	0.858
2394.68	0.8571
2403.93	0.855
2413.17	0.855
2422.41	0.857
2431.66	0.857
2440.9	0.857
2450.14	0.853
2459.39	0.85
2468.63	0.8548
2477.87	0.8519
2487.12	0.848
2496.36	0.8484
2505.6	0.852
2514.85	0.846
2524.09	0.845
2533.33	0.845
2542.58	0.845
2551.82	0.8454
2561.06	0.846
2570.31	0.846
2579.55	0.844
2588.79	0.842
2598.04	0.8404
2607.28	0.837
2616.52	0.83
2625.77	0.8357
2635.01	0.8353
2644.25	0.835
2653.49	0.8323
2662.74	0.831
2671.98	0.83
2681.22	0.827
2690.47	0.826
2699.71	0.825
2708.95	0.823
2718.2	0.822
2727.44	0.821
2736.68	0.8199
2745.93	0.817
2755.17	0.8148
2764.41	0.8119
2773.66	0.8094
2782.9	0.7986
2792.14	0.785
2801.39	0.7952
2810.63	0.8041
2819.87	0.8027
2829.12	0.7966
2838.36	0.7879
2847.6	0.7796
2856.85	0.7838
2866.09	0.79
2875.33	0.794
2884.57	0.7874
2893.82	0.7794
2903.06	0.7744
2912.3	0.7677
2921.55	0.7593
2930.79	0.7654
2940.03	0.77
2949.28	0.7675
2958.52	0.7592
2967.76	0.7574
2977.01	0.755
2986.25	0.752
2995.49	0.75
3004.74	0.7391
3013.98	0.71
3023.22	0.729
3032.47	0.7198
3041.71	0.7059
3050.95	0.6808
3060.2	0.6823
3069.44	0.689
3078.68	0.6896
3087.93	0.7025
3097.17	0.7035
3106.41	0.696
3115.66	0.6933
3124.9	0.6483
3134.14	0.6484
3143.38	0.6894
3152.63	0.6965
3161.87	0.6905
3171.11	0.6728
3180.36	0.6437
3189.6	0.6166
3198.84	0.6381
3208.09	0.657
3217.33	0.6546
3226.57	0.6277
3235.82	0.5965
3245.06	0.5428
3254.3	0.4943
3263.55	0.5124
3272.79	0.5019
3282.03	0.4368
3291.28	0.4141
3300.52	0.5066
3309.76	0.62
3319.01	0.6764
3328.25	0.7324
3337.49	0.7563
3346.74	0.7774
3355.98	0.7902
3365.22	0.7952
3374.47	0.796
3383.71	0.795
3392.95	0.7934
3402.19	0.791
3411.44	0.789
3420.68	0.7856
3429.92	0.784
3439.17	0.782
3448.41	0.78
3457.65	0.778
3466.9	0.777
3476.14	0.776
3485.38	0.775
3494.63	0.772
3503.87	0.77
3513.11	0.77
3522.36	0.769
3531.6	0.767
3540.84	0.767
3550.09	0.765
3559.33	0.7593
3568.57	0.759
3577.82	0.757
3587.06	0.757
3596.3	0.756
3605.55	0.755
3614.79	0.751
3624.03	0.752
3633.27	0.752
3642.52	0.7401
3651.76	0.7487
3661	0.7432
3670.25	0.73
3679.49	0.7406
3688.73	0.7456
3697.98	0.744
3707.22	0.7329
3716.46	0.7314
3725.71	0.7331
3734.95	0.73
3744.19	0.722
3753.44	0.7276
3762.68	0.7316
3771.92	0.73
3781.17	0.7264
3790.41	0.7243
3799.65	0.721
