Infrared Spectrum: 4-Acetamidophenol
Formula: C 8 H 9 N O 2
CAS: 103-90-2
State: solid
Instrument: Bruker Tensor 37 FTIR
Resolution: 0.96450084
Origin: Pacific Northwest National Laboratory Under IARPA Contract
1/cm	Reflectance
7498.03	0.831461
7480.67	0.834816
7463.31	0.828602
7445.95	0.817745
7428.59	0.814729
7411.23	0.812326
7393.87	0.807174
7376.51	0.802363
7359.15	0.802415
7341.79	0.803904
7324.43	0.799013
7307.07	0.8048
7289.71	0.806892
7272.35	0.812178
7254.99	0.811427
7237.63	0.812918
7220.27	0.819121
7202.91	0.823271
7185.55	0.822536
7168.19	0.823338
7150.83	0.816229
7133.47	0.81436
7116.11	0.806774
7098.75	0.793065
7081.39	0.771969
7064.03	0.7398
7046.67	0.720315
7029.31	0.700824
7011.96	0.693186
6994.6	0.685737
6977.24	0.681691
6959.88	0.669446
6942.52	0.649567
6925.16	0.650998
6907.8	0.648273
6890.44	0.639901
6873.08	0.629741
6855.72	0.620906
6838.36	0.611888
6821	0.601425
6803.64	0.549476
6786.28	0.563497
6768.92	0.571043
6751.56	0.538873
6734.2	0.536358
6716.84	0.56074
6699.48	0.576923
6682.12	0.602815
6664.76	0.604933
6647.4	0.590988
6630.04	0.593447
6612.68	0.597463
6595.32	0.601789
6577.96	0.600669
6560.6	0.611338
6543.24	0.62059
6525.88	0.628716
6508.52	0.634895
6491.16	0.638141
6473.8	0.645143
6456.44	0.650695
6439.08	0.655455
6421.72	0.661276
6404.36	0.670519
6387	0.677783
6369.64	0.6839
6352.28	0.692309
6334.92	0.695854
6317.56	0.697337
6300.2	0.695004
6282.84	0.687063
6265.48	0.668628
6248.12	0.62253
6230.76	0.574347
6213.4	0.55691
6196.04	0.509557
6178.68	0.589751
6161.32	0.577737
6143.97	0.551799
6126.61	0.518476
6109.25	0.451341
6091.89	0.447678
6074.53	0.41374
6057.17	0.454782
6039.81	0.452356
6022.45	0.481899
6005.09	0.505376
5987.73	0.501243
5970.37	0.473143
5953.01	0.449977
5935.65	0.477405
5918.29	0.432435
5900.93	0.407822
5883.57	0.452421
5866.21	0.493903
5848.85	0.446237
5831.49	0.468002
5814.13	0.480272
5796.77	0.44032
5779.41	0.295452
5762.05	0.372625
5744.69	0.404982
5727.33	0.389011
5709.97	0.384766
5692.61	0.446852
5675.25	0.461942
5657.89	0.507855
5640.53	0.457374
5623.17	0.500557
5605.81	0.468947
5588.45	0.454786
5571.09	0.483162
5553.73	0.474676
5536.37	0.431417
5519.01	0.37707
5501.65	0.314852
5484.29	0.250164
5466.93	0.173025
5449.57	0.107891
5432.21	0.0651154
5414.85	0.037295
5397.49	0.0431453
5380.13	0.0416112
5362.77	0.0422657
5345.41	0.0442091
5328.05	0.0474781
5310.69	0.0500142
5293.33	0.0565454
5275.97	0.0619451
5258.62	0.0680344
5241.26	0.0708418
5223.9	0.0835419
5206.54	0.0890315
5189.18	0.0844194
5171.82	0.109811
5154.46	0.0967366
5137.1	0.109578
5119.74	0.127635
5102.38	0.11489
5085.02	0.114331
5067.66	0.152742
5050.3	0.120478
5032.94	0.136476
5015.58	0.191963
4998.22	0.150863
4980.86	0.170143
4963.5	0.249507
4946.14	0.292336
4928.78	0.28669
4911.42	0.346439
4894.06	0.31205
4876.7	0.357769
4859.34	0.341938
4841.98	0.354198
4824.62	0.395253
4807.26	0.305401
4789.9	0.296924
4772.54	0.266501
4755.18	0.308058
4737.82	0.274668
4720.46	0.304826
4703.1	0.217541
4685.74	0.183308
4668.38	0.237257
4651.02	0.250823
4633.66	0.179013
4616.3	0.161369
4598.94	0.122216
4581.58	0.1356
4564.22	0.0461522
4546.86	0.0566197
4529.5	0.0640506
4512.14	0.04265
4494.78	0.0617617
4477.42	0.0360873
4460.06	0.0624687
4442.7	0.0565631
4425.34	0.0686503
4407.98	0.063195
4390.63	0.0699824
4373.27	0.0500546
4355.91	0.0734762
4338.55	0.11957
4321.19	0.190553
4303.83	0.0852864
4286.47	0.200187
4269.11	0.104982
4251.75	0.0937576
4234.39	0.0677438
4217.03	0.224725
4199.67	0.196581
4182.31	0.111023
4164.95	0.0630747
4147.59	0.059164
4130.23	0.0690665
4112.87	0.0436976
4095.51	0.043069
4078.15	0.0718037
4060.79	0.0704286
4043.43	0.832158
4026.07	0.827497
4008.71	0.820483
3991.35	0.805077
3973.99	0.807746
3956.63	0.80537
3939.27	0.797752
3921.91	0.788381
3904.55	0.794378
3887.19	0.789133
3869.83	0.791548
3852.47	0.796008
3835.11	0.798443
3817.75	0.80438
3800.39	0.802064
3783.03	0.805557
3765.67	0.811578
3748.31	0.815996
3730.95	0.814545
3713.59	0.811884
3696.23	0.807457
3678.87	0.800605
3661.51	0.792197
3644.15	0.777202
3626.79	0.751889
3609.43	0.715459
3592.07	0.699807
3574.71	0.690541
3557.35	0.678661
3539.99	0.665973
3522.64	0.659655
3505.28	0.643803
3487.92	0.632474
3470.56	0.634799
3453.2	0.627574
3435.84	0.6195
3418.48	0.610089
3401.12	0.600696
3383.76	0.589994
3366.4	0.572325
3349.04	0.524928
3331.68	0.549862
3314.32	0.543317
3296.96	0.511249
3279.6	0.530774
3262.24	0.53658
3244.88	0.567215
3227.52	0.588508
3210.16	0.583185
3192.8	0.568835
3175.44	0.576173
3158.08	0.578623
3140.72	0.583871
3123.36	0.584276
3106	0.5959
3088.64	0.604019
3071.28	0.612661
3053.92	0.61762
3036.56	0.621227
3019.2	0.626787
3001.84	0.635469
2984.48	0.635113
2967.12	0.644748
2949.76	0.6564
2932.4	0.662027
2915.04	0.668379
2897.68	0.67803
2880.32	0.678031
2862.96	0.680286
2845.6	0.675022
2828.24	0.664835
2810.88	0.642458
2793.52	0.57221
2776.16	0.51099
2758.8	0.537227
2741.44	0.521732
2724.08	0.571551
2706.72	0.550133
2689.36	0.518402
2672	0.483954
2654.64	0.445848
2637.29	0.424038
2619.93	0.402416
2602.57	0.427873
2585.21	0.443019
2567.85	0.471087
2550.49	0.486291
2533.13	0.476513
2515.77	0.436354
2498.41	0.440159
2481.05	0.460744
2463.69	0.387547
2446.33	0.388047
2428.97	0.45716
2411.61	0.467836
2394.25	0.452494
2376.89	0.45982
2359.53	0.440243
2342.17	0.369248
2324.81	0.29951
2307.45	0.359636
2290.09	0.391016
2272.73	0.360882
2255.37	0.394351
2238.01	0.448292
2220.65	0.44203
2203.29	0.483412
2185.93	0.46009
2168.57	0.476716
2151.21	0.441384
2133.85	0.43818
2116.49	0.468643
2099.13	0.45353
2081.77	0.405968
2064.41	0.340777
2047.05	0.285656
2029.69	0.215157
2012.33	0.142493
1994.97	0.0874252
1977.61	0.0508288
1960.25	0.0406218
1942.89	0.0417275
1925.53	0.0410961
1908.17	0.0395206
1890.81	0.0435727
1873.45	0.0478704
1856.09	0.0477785
1838.73	0.0559601
1821.37	0.0584528
1804.01	0.0656925
1786.65	0.0710823
1769.3	0.0765752
1751.94	0.0893714
1734.58	0.091751
1717.22	0.0996224
1699.86	0.082212
1682.5	0.119467
1665.14	0.11215
1647.78	0.114512
1630.42	0.114658
1613.06	0.139286
1595.7	0.106558
1578.34	0.150347
1560.98	0.19252
1543.62	0.143021
1526.26	0.176896
1508.9	0.23209
1491.54	0.303781
1474.18	0.277645
1456.82	0.339656
1439.46	0.31628
1422.1	0.328845
1404.74	0.318161
1387.38	0.363493
1370.02	0.373766
1352.66	0.343699
1335.3	0.289456
1317.94	0.23392
1300.58	0.309535
1283.22	0.274315
1265.86	0.291428
1248.5	0.217762
1231.14	0.234794
1213.78	0.205031
1196.42	0.217948
1179.06	0.143937
1161.7	0.154963
1144.34	0.084395
1126.98	0.0925261
1109.62	0.0369327
1092.26	0.045124
1074.9	0.0541097
1057.54	0.0499406
1040.18	0.0570761
1022.82	0.0518902
1005.46	0.068286
988.104	0.0420574
970.744	0.0649016
953.384	0.0697124
936.025	0.0536492
918.665	0.0490462
901.305	0.107258
883.945	0.138347
866.585	0.175738
849.226	0.187259
831.866	0.187362
814.506	0.0834607
797.146	0.13164
779.786	0.168862
762.427	0.166163
745.067	0.187072
727.707	0.0716583
710.347	0.0600927
692.987	0.0979339
675.628	0.0548844
658.268	0.0454994
640.908	0.0522212
623.548	0.0720481
606.188	0.0893362
