Infrared Spectrum: Aniline, N-ethyl-
Formula: C8 H11 N
CAS: 103-69-5
State: LIQUID (NEAT)
Class: COBLENTZ III
Instrument: BECKMAN IR-4 (HYBRID PRISM-GRATING)
Sampling: TRANSMISSION
Path length: CAPILLARY
Resolution: 2
Origin: UNIVERSITY OF FLORIDA
1/CM	TRANSMITTANCE
667.001	0.314
676.16	0.3067
685.319	0.0953
694.478	0.0101
703.637	0.307
712.795	0.3959
721.954	0.4081
731.113	0.3391
740.272	0.0701
749.431	0.0002
758.59	0.0866
767.749	0.3478
776.908	0.5357
786.066	0.5819
795.225	0.6022
804.384	0.5967
813.543	0.5647
822.702	0.5486
831.861	0.5884
841.02	0.6381
850.179	0.6508
859.338	0.5338
868.496	0.3142
877.655	0.5406
886.814	0.6938
895.973	0.7205
905.132	0.7296
914.291	0.734
923.45	0.6754
932.609	0.6424
941.767	0.7214
950.926	0.7149
960.085	0.7208
969.244	0.704
978.403	0.6885
987.562	0.4129
996.721	0.5984
1005.88	0.7306
1015.04	0.7272
1024.2	0.5613
1033.36	0.5998
1042.52	0.6891
1051.67	0.5947
1060.83	0.4215
1069.99	0.4697
1079.15	0.5379
1088.31	0.5412
1097.47	0.3977
1106.63	0.5438
1115.79	0.6081
1124.95	0.5323
1134.1	0.3644
1143.26	0.1442
1152.42	0.0735
1161.58	0.3195
1170.74	0.4196
1179.9	0.1008
1189.06	0.4793
1198.22	0.5638
1207.37	0.5956
1216.53	0.6242
1225.69	0.6232
1234.85	0.5591
1244.01	0.3859
1253.17	0.0822
1262.33	0.0517
1271.49	0.1312
1280.65	0.1008
1289.8	0.255
1298.96	0.3454
1308.12	0.1744
1317.28	0.0385
1326.44	0.0101
1335.6	0.1572
1344.76	0.4161
1353.92	0.4593
1363.08	0.4944
1372.23	0.3893
1381.39	0.256
1390.55	0.4386
1399.71	0.553
1408.87	0.5622
1418.03	0.4979
1427.19	0.2836
1436.35	0.1776
1445.51	0.3551
1454.66	0.2196
1463.82	0.2968
1472.98	0.2791
1482.14	0.0865
1491.3	0.0864
1500.46	0.0613
1509.62	0.0147
1518.78	0.0072
1527.94	0.0886
1537.09	0.3058
1546.25	0.3935
1555.41	0.5099
1564.57	0.5067
1573.73	0.4689
1582.89	0.2356
1592.05	0.0674
1601.21	0.0085
1610.37	0.0055
1619.52	0.1415
1628.68	0.3323
1637.84	0.5286
1647	0.5988
1656.16	0.6238
1665.32	0.6676
1674.48	0.6769
1683.64	0.6783
1692.8	0.6903
1701.95	0.7023
1711.11	0.7442
1720.27	0.7708
1729.43	0.7873
1738.59	0.7933
1747.75	0.7972
1756.91	0.7935
1766.07	0.7773
1775.23	0.7754
1784.38	0.8011
1793.54	0.8169
1802.7	0.8203
1811.86	0.8131
1821.02	0.7755
1830.18	0.7504
1839.34	0.765
1848.5	0.7842
1857.66	0.8209
1866.81	0.8293
1875.97	0.8335
1885.13	0.8367
1894.29	0.8222
1903.45	0.7776
1912.61	0.734
1921.77	0.7143
1930.93	0.7336
1940.09	0.7681
1949.24	0.8032
1958.4	0.826
1967.56	0.8446
1976.72	0.8508
1985.88	0.8512
1995.04	0.8504
2004.2	0.856
2013.36	0.8649
2022.52	0.868
2031.67	0.8708
2040.83	0.8763
2049.99	0.8769
2059.15	0.8768
2068.31	0.876
2077.47	0.8745
2086.63	0.8751
2095.79	0.8759
2104.95	0.8774
2114.1	0.8783
2123.26	0.8785
2132.42	0.8782
2141.58	0.8784
2150.74	0.879
2159.9	0.8825
2169.06	0.8859
2178.22	0.8869
2187.38	0.8872
2196.53	0.8878
2205.69	0.8886
2214.85	0.8912
2224.01	0.8961
2233.17	0.8995
2242.33	0.8999
2251.49	0.8966
2260.65	0.8919
2269.81	0.8892
2278.96	0.8875
2288.12	0.8875
2297.28	0.8863
2306.44	0.8806
2315.6	0.8783
2324.76	0.8764
2333.92	0.8744
2343.08	0.8728
2352.24	0.8713
2361.39	0.8704
2370.55	0.8731
2379.71	0.8786
2388.87	0.8801
2398.03	0.8752
2407.19	0.8661
2416.35	0.8622
2425.51	0.8628
2434.67	0.8652
2443.82	0.8737
2452.98	0.8832
2462.14	0.8863
2471.3	0.8867
2480.46	0.8857
2489.62	0.884
2498.78	0.8795
2507.94	0.8716
2517.09	0.8652
2526.25	0.8573
2535.41	0.852
2544.57	0.8489
2553.73	0.8411
2562.89	0.8082
2572.05	0.7866
2581.21	0.7747
2590.37	0.7751
2599.52	0.7836
2608.68	0.8012
2617.84	0.8217
2627	0.8391
2636.16	0.8456
2645.32	0.8443
2654.48	0.8386
2663.64	0.835
2672.8	0.8295
2681.95	0.8135
2691.11	0.7955
2700.27	0.7856
2709.43	0.7862
2718.59	0.7925
2727.75	0.8003
2736.91	0.8012
2746.07	0.7987
2755.23	0.7886
2764.38	0.7759
2773.54	0.7601
2782.7	0.7454
2791.86	0.7249
2801.02	0.6985
2810.18	0.6596
2819.34	0.5981
2828.5	0.5255
2837.66	0.4426
2846.81	0.3602
2855.97	0.323
2865.13	0.2644
2874.29	0.2074
2883.45	0.1956
2892.61	0.2011
2901.77	0.2422
2910.93	0.283
2920.09	0.3001
2929.24	0.2841
2938.4	0.2613
2947.56	0.2559
2956.72	0.2178
2965.88	0.1715
2975.04	0.1255
2984.2	0.155
2993.36	0.3285
3002.52	0.3839
3011.67	0.3541
3020.83	0.3278
3029.99	0.3222
3039.15	0.3059
3048.31	0.289
3057.47	0.3027
3066.63	0.3624
3075.79	0.4221
3084.95	0.4816
3094.1	0.5407
3103.26	0.5994
3112.42	0.6564
3121.58	0.7036
3130.74	0.7707
3139.9	0.7839
3149.06	0.806
3158.22	0.8196
3167.38	0.8252
3176.53	0.8267
3185.69	0.8279
3194.85	0.828
3204.01	0.828
3213.17	0.8284
3222.33	0.83
3231.49	0.8326
3240.65	0.8328
3249.81	0.8317
3258.96	0.828
3268.12	0.8204
3277.28	0.8091
3286.44	0.7735
3295.6	0.7472
3304.76	0.7182
3313.92	0.6616
3323.08	0.6037
3332.24	0.5461
3341.39	0.4889
3350.55	0.432
3359.71	0.3755
3368.87	0.3192
3378.03	0.2632
3387.19	0.2078
3396.35	0.1853
3405.51	0.1903
3414.67	0.2925
3423.82	0.4101
3432.98	0.5266
3442.14	0.5854
3451.3	0.6586
3460.46	0.6805
3469.62	0.7044
3478.78	0.7324
3487.94	0.7667
3497.1	0.7935
3506.25	0.8061
3515.41	0.8147
3524.57	0.8233
3533.73	0.8342
3542.89	0.8442
3552.05	0.8508
3561.21	0.8548
3570.37	0.8581
3579.53	0.8605
3588.68	0.8622
3597.84	0.8635
3607	0.8647
3616.16	0.8655
3625.32	0.8662
3634.48	0.8662
3643.64	0.8661
3652.8	0.8659
3661.96	0.8651
3671.11	0.8642
3680.27	0.8634
3689.43	0.8626
3698.59	0.8622
3707.75	0.8624
3716.91	0.863
3726.07	0.8643
3735.23	0.8668
3744.39	0.8688
3753.54	0.8697
3762.7	0.87
3771.86	0.8703
3781.02	0.8705
3790.18	0.8709
3799.34	0.8714
3808.5	0.872
3817.66	0.8735
3826.82	0.8758
3835.97	0.8776
3845.13	0.8789
3854.29	0.879
3863.45	0.879
3872.61	0.8789
3881.77	0.8788
3890.93	0.8785
3900.09	0.8784
3909.24	0.878
3918.4	0.8776
3927.56	0.8772
3936.72	0.8767
3945.88	0.8764
3955.04	0.876
3964.2	0.8756
3973.36	0.8751
3982.52	0.8747
3991.67	0.8743
4000.83	0.8739
4009.99	0.8728
4019.15	0.8715
4028.31	0.8702
4037.47	0.8674
4046.63	0.8619
4055.79	0.8525
