Infrared Spectrum: DIBENZYL SUCCINATE
Formula: C18 H18 O4
CAS: 103-43-5
State: SOLID (MINERAL OIL MULL)
Melting point: 46-48 C
Class: COBLENTZ
Instrument: Not specified, most likely a prism, grating, or hybrid spectrometer.
Sampling: TRANSMISSION
Resolution: 4
Origin: WYANDOTTE CHEMICALS CORP., WYANDOTTE, MICHIGAN, USA
MICROMETERS	TRANSMITTANCE
2.027	0.479
2.06677	0.484
2.10654	0.492
2.14631	0.5
2.18609	0.502
2.22586	0.504
2.26563	0.505
2.3054	0.507
2.34517	0.51
2.38494	0.52
2.42472	0.527
2.46449	0.532
2.50426	0.54
2.54403	0.552
2.5838	0.56
2.62357	0.562
2.66334	0.582
2.70312	0.589
2.74289	0.589
2.78266	0.587
2.82243	0.582
2.8622	0.569
2.90197	0.562
2.94175	0.537
2.98152	0.554
3.02129	0.56
3.06106	0.567
3.10083	0.564
3.1406	0.564
3.18037	0.565
3.22015	0.557
3.25992	0.492
3.29969	0.396
3.33946	0.317
3.37923	0.074
3.419	0.063
3.45878	0.116
3.49855	0.136
3.53832	0.331
3.57809	0.658
3.61786	0.71
3.65763	0.722
3.69741	0.715
3.73718	0.713
3.77695	0.722
3.81672	0.73
3.85649	0.74
3.89626	0.757
3.93603	0.76
3.97581	0.762
4.01558	0.77
4.05535	0.775
4.09512	0.78
4.13489	0.775
4.17466	0.78
4.21444	0.788
4.25421	0.777
4.29398	0.788
4.33375	0.805
4.37352	0.825
4.41329	0.836
4.45306	0.82
4.49284	0.826
4.53261	0.838
4.57238	0.843
4.61215	0.843
4.65192	0.85
4.69169	0.86
4.73147	0.851
4.77124	0.848
4.81101	0.863
4.85078	0.878
4.89055	0.883
4.93032	0.89
4.97009	0.906
5.00987	0.9
5.04964	0.901
5.08941	0.901
5.12918	0.861
5.16895	0.856
5.20872	0.91
5.2485	0.93
5.28827	0.94
5.32804	0.92
5.36781	0.895
5.40758	0.938
5.44735	0.946
5.48712	0.936
5.5269	0.875
5.56667	0.905
5.60644	0.873
5.64621	0.793
5.68598	0.655
5.72575	0.361
5.76553	0.083
5.8053	0.164
5.84507	0.319
5.88484	0.404
5.92461	0.477
5.96438	0.58
6.00416	0.632
6.04393	0.662
6.0837	0.675
6.12347	0.7
6.16324	0.702
6.20301	0.685
6.24278	0.722
6.28256	0.665
6.32233	0.777
6.3621	0.793
6.40187	0.797
6.44164	0.777
6.48141	0.8
6.52119	0.801
6.56096	0.805
6.60073	0.743
6.6405	0.361
6.68027	0.68
6.72004	0.69
6.75981	0.527
6.79959	0.261
6.83936	0.158
6.87913	0.296
6.9189	0.472
6.95867	0.662
6.99844	0.574
7.03822	0.272
7.07799	0.49
7.11776	0.599
7.15753	0.615
7.1973	0.505
7.23707	0.279
7.27684	0.405
7.31662	0.444
7.35639	0.44
7.39616	0.319
7.43593	0.206
7.4757	0.178
7.51547	0.154
7.55525	0.096
7.59502	0.074
7.63479	0.074
7.67456	0.183
7.71433	0.381
7.7541	0.495
7.79387	0.569
7.83365	0.645
7.87342	0.687
7.91319	0.683
7.95296	0.675
7.99273	0.608
8.0325	0.442
8.07228	0.658
8.11205	0.698
8.15182	0.702
8.19159	0.665
8.23136	0.529
8.27113	0.317
8.3109	0.54
8.35068	0.56
8.39045	0.489
8.43022	0.334
8.46999	0.191
8.50976	0.106
8.54953	0.061
8.58931	0.056
8.62908	0.061
8.66885	0.073
8.70862	0.121
8.74839	0.199
8.78816	0.274
8.82794	0.357
8.86771	0.429
8.90748	0.474
8.94725	0.532
8.98702	0.554
9.02679	0.61
9.06656	0.625
9.10634	0.652
9.14611	0.668
9.18588	0.668
9.22565	0.605
9.26542	0.589
9.30519	0.667
9.34497	0.7
9.38474	0.723
9.42451	0.732
9.46428	0.753
9.50405	0.767
9.54382	0.777
9.58359	0.785
9.62337	0.778
9.66314	0.587
9.70291	0.69
9.74268	0.75
9.78245	0.748
9.82222	0.667
9.862	0.49
9.90177	0.189
9.94154	0.096
9.98131	0.161
10.0211	0.357
10.0609	0.459
10.1006	0.562
10.1404	0.632
10.1802	0.67
10.2199	0.692
10.2597	0.68
10.2995	0.712
10.3393	0.735
10.379	0.74
10.4188	0.745
10.4586	0.747
10.4983	0.747
10.5381	0.732
10.5779	0.672
10.6177	0.555
10.6574	0.469
10.6972	0.452
10.737	0.524
10.7767	0.62
10.8165	0.695
10.8563	0.732
10.8961	0.767
10.9358	0.782
10.9756	0.78
11.0154	0.718
11.0551	0.464
11.0949	0.45
11.1347	0.69
11.1745	0.762
11.2142	0.8
11.254	0.816
11.2938	0.828
11.3335	0.84
11.3733	0.845
11.4131	0.853
11.4529	0.86
11.4926	0.863
11.5324	0.87
11.5722	0.875
11.6119	0.88
11.6517	0.883
11.6915	0.886
11.7313	0.883
11.771	0.875
11.8108	0.871
11.8506	0.85
11.8903	0.82
11.9301	0.866
11.9699	0.873
12.0097	0.88
12.0494	0.883
12.0892	0.886
12.129	0.89
12.1687	0.873
12.2085	0.868
12.2483	0.86
12.2881	0.851
12.3278	0.831
12.3676	0.79
12.4074	0.722
12.4471	0.603
12.4869	0.494
12.5267	0.472
12.5665	0.585
12.6062	0.697
12.646	0.772
12.6858	0.818
12.7255	0.851
12.7653	0.863
12.8051	0.878
12.8449	0.886
12.8846	0.89
12.9244	0.888
12.9642	0.89
13.0039	0.89
13.0437	0.886
13.0835	0.88
13.1233	0.873
13.163	0.87
13.2028	0.853
13.2426	0.843
13.2823	0.816
13.3221	0.79
13.3619	0.738
13.4017	0.63
13.4414	0.527
13.4812	0.484
13.521	0.399
13.5607	0.254
13.6005	0.143
13.6403	0.091
13.6801	0.088
13.7198	0.129
13.7596	0.246
13.7994	0.362
13.8392	0.487
13.8789	0.603
13.9187	0.672
13.9585	0.73
13.9982	0.77
14.038	0.803
14.0778	0.818
14.1176	0.823
14.1573	0.818
14.1971	0.767
14.2369	0.672
14.2766	0.502
14.3164	0.322
14.3562	0.279
14.396	0.372
14.4357	0.539
14.4755	0.648
14.5153	0.738
14.555	0.787
14.5948	0.808
14.6346	0.825
14.6744	0.835
14.7141	0.838
14.7539	0.831
14.7937	0.83
14.8334	0.82
14.8732	0.81
14.913	0.808
14.9528	0.798
14.9925	0.768
15.0323	0.738
15.0721	0.695
15.1118	0.697
15.1516	0.705
15.1914	0.722
15.2312	0.727
15.2709	0.727
15.3107	0.727
15.3505	0.725
15.3902	0.73
15.43	0.735
15.4698	0.737
15.5096	0.738
15.5493	0.738
15.5891	0.74
15.6289	0.738
15.6686	0.733
15.7084	0.725
15.7482	0.715
15.788	0.708
15.8277	0.697
15.8675	0.69
15.9073	0.687
15.947	0.67
15.9868	0.662
