Infrared Spectrum: PHENETOLE
Formula: C8 H10 O
CAS: 103-73-1
State: SOLUTION (10% IN CCl4 FOR 4000-1330 CM^-^1, 10% IN CS2 FOR 1330-600 CM^-^1)
Boiling point: 170 C
Class: COBLENTZ III
Instrument: BECKMAN IR-7 (GRATING)
Instrument parameters: GRATING CHANGES AT 3000, 2200, 1150 CM^-^1
Sampling: TRANSMISSION
Path length: 0.011 CM, 0.010 CM
Resolution: 4
Origin: WESTERN REGIONAL RES. USDA
1/CM	TRANSMITTANCE
596.097	0.856
605.205	0.872
614.313	0.836
623.42	0.861
632.528	0.846
641.636	0.822
650.744	0.773
659.852	0.766
668.96	0.764
678.067	0.687
687.175	0.107
696.283	0.5349
705.391	0.759
714.499	0.78
723.606	0.768
732.714	0.696
741.822	0.346
750.93	0.01
760.038	0.461
769.146	0.626
778.253	0.727
787.361	0.651
796.469	0.371
805.577	0.746
814.685	0.766
823.793	0.756
832.9	0.784
842.008	0.763
851.116	0.705
860.224	0.699
869.332	0.664
878.439	0.376
887.547	0.718
896.655	0.696
905.763	0.754
914.871	0.593
923.979	0.495
933.086	0.773
942.194	0.809
951.302	0.815
960.41	0.826
969.518	0.806
978.625	0.829
987.733	0.817
996.841	0.723
1005.95	0.793
1015.06	0.757
1024.16	0.62
1033.27	0.509
1042.38	0.178
1051.49	0.125
1060.6	0.581
1069.7	0.599
1078.81	0.358
1087.92	0.579
1097.03	0.648
1106.13	0.589
1115.24	0.15
1124.35	0.659
1133.46	0.715
1142.57	0.644
1151.67	0.471
1160.78	0.473
1169.89	0.3332
1179	0.682
1188.11	0.702
1197.21	0.648
1206.32	0.589
1215.43	0.2729
1224.54	0.098
1233.64	0.019
1242.75	0.006
1251.86	0.29
1260.97	0.445
1270.08	0.581
1279.18	0.477
1288.29	0.45
1297.4	0.165
1306.51	0.4931
1315.61	0.706
1324.72	0.689
1333.83	0.615
1342.94	0.77
1352.05	0.81
1361.15	0.763
1370.26	0.751
1379.37	0.556
1388.48	0.316
1397.59	0.441
1406.69	0.658
1415.8	0.766
1424.91	0.772
1434.02	0.745
1443.12	0.477
1452.23	0.576
1461.34	0.618
1470.45	0.15
1479.56	0.311
1488.66	0.109
1497.77	0.023
1506.88	0.4291
1515.99	0.58
1525.09	0.583
1534.2	0.518
1543.31	0.452
1552.42	0.441
1561.53	0.473
1570.63	0.447
1579.74	0.209
1588.85	0.166
1597.96	0.0459
1607.07	0.3741
1616.17	0.644
1625.28	0.752
1634.39	0.788
1643.5	0.804
1652.6	0.827
1661.71	0.833
1670.82	0.833
1679.93	0.834
1689.04	0.812
1698.14	0.807
1707.25	0.821
1716.36	0.829
1725.47	0.843
1734.57	0.851
1743.68	0.852
1752.79	0.85
1761.9	0.82
1771.01	0.831
1780.11	0.844
1789.22	0.844
1798.33	0.853
1807.44	0.861
1816.54	0.853
1825.65	0.831
1834.76	0.779
1843.87	0.813
1852.98	0.815
1862.08	0.848
1871.19	0.857
1880.3	0.859
1889.41	0.861
1898.52	0.857
1907.62	0.843
1916.73	0.816
1925.84	0.745
1934.95	0.821
1944.05	0.795
1953.16	0.835
1962.27	0.831
1971.38	0.811
1980.49	0.84
1989.59	0.845
1998.7	0.837
2007.81	0.8411
2016.92	0.8436
2026.02	0.844
2035.13	0.845
2044.24	0.8464
2053.35	0.847
2062.46	0.845
2071.56	0.8429
2080.67	0.8403
2089.78	0.838
2098.89	0.8361
2108	0.834
2117.1	0.8309
2126.21	0.8232
2135.32	0.8134
2144.43	0.8009
2153.53	0.7859
2162.64	0.779
2171.75	0.783
2180.86	0.7959
2189.97	0.8247
2199.07	0.8413
2208.18	0.8584
2217.29	0.875
2226.4	0.874
2235.5	0.873
2244.61	0.8718
2253.72	0.8685
2262.83	0.8644
2271.94	0.8592
2281.04	0.8545
2290.15	0.8449
2299.26	0.8414
2308.37	0.8435
2317.48	0.8488
2326.58	0.8548
2335.69	0.857
2344.8	0.858
2353.91	0.859
2363.01	0.8627
2372.12	0.8653
2381.23	0.8661
2390.34	0.8631
2399.45	0.857
2408.55	0.854
2417.66	0.855
2426.77	0.8568
2435.88	0.858
2444.98	0.858
2454.09	0.856
2463.2	0.8517
2472.31	0.8427
2481.42	0.8335
2490.52	0.831
2499.63	0.8432
2508.74	0.855
2517.85	0.859
2526.95	0.8537
2536.06	0.841
2545.17	0.829
2554.28	0.8355
2563.39	0.8554
2572.49	0.8591
2581.6	0.86
2590.71	0.859
2599.82	0.8582
2608.93	0.856
2618.03	0.855
2627.14	0.8565
2636.25	0.8581
2645.36	0.8627
2654.46	0.867
2663.57	0.868
2672.68	0.868
2681.79	0.868
2690.9	0.868
2700	0.867
2709.11	0.8637
2718.22	0.8529
2727.33	0.8295
2736.43	0.818
2745.54	0.8191
2754.65	0.8237
2763.76	0.8275
2772.87	0.8318
2781.97	0.8348
2791.08	0.838
2800.19	0.8359
2809.3	0.8193
2818.41	0.8075
2827.51	0.8037
2836.62	0.7973
2845.73	0.7618
2854.84	0.679
2863.94	0.5805
2873.05	0.4575
2882.16	0.4403
2891.27	0.4883
2900.38	0.4297
2909.48	0.4407
2918.59	0.4821
2927.7	0.4757
2936.81	0.4415
2945.91	0.537
2955.02	0.5943
2964.13	0.4618
2973.24	0.2532
2982.35	0.174
2991.45	0.2141
3000.56	0.4821
3009.67	0.6592
3018.78	0.698
3027.88	0.6338
3036.99	0.5075
3046.1	0.6029
3055.21	0.6642
3064.32	0.5702
3073.42	0.6048
3082.53	0.6848
3091.64	0.6675
3100.75	0.6754
3109.86	0.7215
3118.96	0.8035
3128.07	0.8444
3137.18	0.8521
3146.29	0.8556
3155.39	0.8572
3164.5	0.858
3173.61	0.858
3182.72	0.858
3191.83	0.857
3200.93	0.856
3210.04	0.858
3219.15	0.859
3228.26	0.861
3237.36	0.863
3246.47	0.865
3255.58	0.8662
3264.69	0.867
3273.8	0.868
3282.9	0.868
3292.01	0.868
3301.12	0.868
3310.23	0.868
3319.34	0.868
3328.44	0.867
3337.55	0.8662
3346.66	0.865
3355.77	0.865
3364.87	0.865
3373.98	0.865
3383.09	0.8657
3392.2	0.866
3401.31	0.866
3410.41	0.865
3419.52	0.864
3428.63	0.863
3437.74	0.863
3446.84	0.863
3455.95	0.863
3465.06	0.8621
3474.17	0.862
3483.28	0.862
3492.38	0.862
3501.49	0.862
3510.6	0.862
3519.71	0.862
3528.82	0.862
3537.92	0.861
3547.03	0.861
3556.14	0.861
3565.25	0.861
3574.35	0.863
3583.46	0.865
3592.57	0.867
3601.68	0.867
3610.79	0.865
3619.89	0.8652
3629	0.867
3638.11	0.867
3647.22	0.867
3656.32	0.868
3665.43	0.868
3674.54	0.865
3683.65	0.8621
3692.76	0.8605
3701.86	0.861
3710.97	0.86
3720.08	0.858
3729.19	0.8588
3738.29	0.8604
3747.4	0.8601
3756.51	0.858
3765.62	0.8591
3774.73	0.863
3783.83	0.863
3792.94	0.861
3802.05	0.86
3811.16	0.859
3820.27	0.859
3829.37	0.858
3838.48	0.858
3847.59	0.858
3856.7	0.858
3865.8	0.858
3874.91	0.859
3884.02	0.859
3893.13	0.858
3902.24	0.8572
3911.34	0.856
3920.45	0.856
3929.56	0.854
3938.67	0.852
3947.77	0.852
3956.88	0.852
3965.99	0.8511
3975.1	0.8505
3984.21	0.85
