Infrared Spectrum: 3-Ethoxy-4-methoxyphenylacetonitrile
Formula: C 11 H 13 N O 2
CAS: 103796-99-2
State: gas
Origin: EPA-IR VAPOR PHASE LIBRARY
1/CM	ABSORBANCE
549.8	0.002183
559.445	0.001803
569.09	0.002693
578.734	0.003013
588.379	0.003513
598.024	0.003553
607.669	0.003623
617.313	0.003793
626.958	0.003273
636.603	0.002763
646.248	0.002093
655.893	0.001353
665.537	0.0010196
675.182	0.001483
684.827	0.001583
694.472	0.001933
704.116	0.002123
713.761	0.002623
723.406	0.003823
733.051	0.004733
742.695	0.005683
752.34	0.007553
761.985	0.009443
771.63	0.008383
781.275	0.006593
790.919	0.009623
800.564	0.015173
810.209	0.016493
819.854	0.013323
829.498	0.007813
839.143	0.005713
848.788	0.006163
858.433	0.006513
868.078	0.006753
877.722	0.007253
887.367	0.006163
897.012	0.005113
906.657	0.005413
916.301	0.006803
925.946	0.007063
935.591	0.006203
945.236	0.005063
954.88	0.005373
964.525	0.007913
974.17	0.010573
983.815	0.010293
993.46	0.010573
1003.1	0.016253
1012.75	0.029343
1022.39	0.047393
1032.04	0.060553
1041.68	0.057963
1051.33	0.034673
1060.97	0.017703
1070.62	0.011473
1080.26	0.011533
1089.91	0.013303
1099.55	0.012743
1109.2	0.017483
1118.84	0.031583
1128.49	0.048153
1138.13	0.051333
1147.78	0.045433
1157.42	0.034683
1167.07	0.022473
1176.71	0.016943
1186.36	0.014983
1196	0.015253
1205.64	0.021503
1215.29	0.037253
1224.93	0.057383
1234.58	0.066673
1244.22	0.063783
1253.87	0.076113
1263.51	0.111213
1273.16	0.125463
1282.8	0.096923
1292.45	0.063543
1302.09	0.044433
1311.74	0.034003
1321.38	0.025243
1331.03	0.017473
1340.67	0.012243
1350.32	0.009383
1359.96	0.009023
1369.61	0.009883
1379.25	0.014763
1388.9	0.022613
1398.54	0.021223
1408.18	0.018183
1417.83	0.027183
1427.47	0.041313
1437.12	0.035983
1446.76	0.031223
1456.41	0.021793
1466.05	0.020853
1475.7	0.022483
1485.34	0.028193
1494.99	0.052023
1504.63	0.112803
1514.28	0.123473
1523.92	0.056173
1533.57	0.021683
1543.21	0.012223
1552.86	0.009533
1562.5	0.009703
1572.15	0.013203
1581.79	0.018233
1591.44	0.017923
1601.08	0.016953
1610.73	0.015243
1620.37	0.008643
1630.01	0.004683
1639.66	0.003483
1649.3	0.002983
1658.95	0.002673
1668.59	0.002553
1678.24	0.002323
1687.88	0.002253
1697.53	0.002063
1707.17	0.001983
1716.82	0.001993
1726.46	0.001963
1736.11	0.001943
1745.75	0.001973
1755.4	0.001983
1765.04	0.001973
1774.69	0.001993
1784.33	0.001883
1793.98	0.001813
1803.62	0.001643
1813.27	0.001613
1822.91	0.001623
1832.55	0.001713
1842.2	0.001893
1851.84	0.002103
1861.49	0.002393
1871.13	0.002453
1880.78	0.002453
1890.42	0.002363
1900.07	0.002143
1909.71	0.002013
1919.36	0.001843
1929	0.001633
1938.65	0.001483
1948.29	0.001413
1957.94	0.001443
1967.58	0.001553
1977.23	0.001673
1986.87	0.001823
1996.52	0.002073
2006.16	0.002523
2015.81	0.002803
2025.45	0.003133
2035.1	0.002933
2044.74	0.002553
2054.38	0.002283
2064.03	0.002073
2073.67	0.001773
2083.32	0.001443
2092.96	0.001217
2102.61	0.0011481
2112.25	0.0010758
2121.9	0.0011349
2131.54	0.0011424
2141.19	0.0010997
2150.83	0.0011158
2160.48	0.0011478
2170.12	0.0011155
2179.77	0.0009967
2189.41	0.0010356
2199.06	0.0010118
2208.7	0.0009599
2218.35	0.0009585
2227.99	0.0012608
2237.64	0.001593
2247.28	0.002293
2256.92	0.002903
2266.57	0.002283
2276.21	0.001773
2285.86	0.001553
2295.5	0.001333
2305.15	0.001232
2314.79	0.0010715
2324.44	0.0010182
2334.08	0.0010424
2343.73	0.0011392
2353.37	0.0011922
2363.02	0.0012001
2372.66	0.0011933
2382.31	0.0010988
2391.95	0.0011409
2401.6	0.0011188
2411.24	0.0011466
2420.89	0.0012739
2430.53	0.0012016
2440.18	0.0012267
2449.82	0.0010454
2459.47	0.0011008
2469.11	0.001169
2478.75	0.0012325
2488.4	0.001313
2498.04	0.001383
2507.69	0.001393
2517.33	0.001533
2526.98	0.001613
2536.62	0.001883
2546.27	0.002113
2555.91	0.002263
2565.56	0.002253
2575.2	0.002113
2584.85	0.002043
2594.49	0.001983
2604.14	0.001653
2613.78	0.001533
2623.43	0.001383
2633.07	0.001303
2642.72	0.0011564
2652.36	0.0011267
2662.01	0.0010238
2671.65	0.0010762
2681.29	0.0011231
2690.94	0.0012147
2700.58	0.001363
2710.23	0.001433
2719.87	0.001613
2729.52	0.001833
2739.16	0.001833
2748.81	0.001973
2758.45	0.002053
2768.1	0.002263
2777.74	0.002423
2787.39	0.002583
2797.03	0.002963
2806.68	0.003653
2816.32	0.005043
2825.97	0.007543
2835.61	0.013333
2845.26	0.017073
2854.9	0.012653
2864.55	0.010813
2874.19	0.012883
2883.84	0.016523
2893.48	0.018893
2903.12	0.021073
2912.77	0.024923
2922.41	0.028373
2932.06	0.033853
2941.7	0.039743
2951.35	0.035483
2960.99	0.029913
2970.64	0.029603
2980.28	0.034613
2989.93	0.036663
2999.57	0.029423
3009.22	0.023243
3018.86	0.014813
3028.51	0.011273
3038.15	0.010923
3047.8	0.010703
3057.44	0.009533
3067.09	0.007813
3076.73	0.005913
3086.38	0.004503
3096.02	0.003513
3105.67	0.002883
3115.31	0.002563
3124.95	0.002353
3134.6	0.001913
3144.24	0.001453
3153.89	0.001383
3163.53	0.0012502
3173.18	0.001333
3182.82	0.001313
3192.47	0.0011384
3202.11	0.0009908
3211.76	0.00092
3221.4	0.0008927
3231.05	0.0009302
3240.69	0.0007173
3250.34	0.0006194
3259.98	0.0004564
3269.63	0.0004573
3279.27	0.0004661
3288.92	0.0004199
3298.56	0.0005778
3308.21	0.00032047
3317.85	0.0004404
3327.49	0.0005192
3337.14	0.0005143
3346.78	0.00027856
3356.43	0.0004782
3366.07	0.00032337
3375.72	0.00036908
3385.36	0.0003085
3395.01	0.00035581
3404.65	0.00035578
3414.3	0.0004611
3423.94	0.0004427
3433.59	0.00027882
3443.23	0.00034041
3452.88	0.00037264
3462.52	0.00033976
3472.17	0.00031254
3481.81	0.000284865
3491.46	0.00030343
3501.1	0.00037939
3510.75	0.0003344
3520.39	0.0004791
3530.04	0.0003942
3539.68	0.00031409
3549.32	0.0001926
3558.97	0.00031958
3568.61	0.00031602
3578.26	0.0002634
3587.9	0.0002342
3597.55	0.0001919
3607.19	0.0004041
3616.84	0.00027947
3626.48	0.0002239
3636.13	0.0003933
3645.77	0.0002577
3655.42	0.0004636
3665.06	0.0004742
3674.71	0.0002275
3684.35	0.0002156
3694	0.0005511
3703.64	0.00029529
3713.29	0.0004124
3722.93	0.00030444
3732.58	0.0004228
3742.22	0.0003984
3751.86	0.0003902
3761.51	0.0004609
3771.15	0.0004186
3780.8	0.0007087
3790.44	0.000318
3800.09	0.0004299
3809.73	0.00034874
3819.38	0.00037909
3829.02	0.0005781
3838.67	0.0005063
3848.31	0.0005597
3857.96	0.0005067
3867.6	0.0006458
3877.25	0.0004762
3886.89	0.00032481
3896.54	0.0003924
3906.18	0.0005984
3915.83	0.0003303
3925.47	0.0004868
3935.12	0.0002484
3944.76	0.0005738
3954.41	0.00067
3964.05	0.000514
3973.69	0.0006283
3983.34	0.0006857
3992.98	0.000685
