Infrared Spectrum: BENZENE, (2-BROMOETHENYL)- (E)
Formula: C8 H7 Br
CAS: 103-64-0
State: SOLUTION (10% IN CCl4 FOR 3800-1333 AND 10% IN CS2 FOR 1333-450 CM^-^1)
Class: COBLENTZ III
Instrument: DOW KBr FOREPRISM-GRATING
Instrument parameters: BLAZED AT 3.5, 12.0, 20.0 MICRON, CHANGED AT 5.0, 7.5, 14.9 MICRON
Sampling: TRANSMISSION
Path length: 0.011, 0.011 CM
Resolution: 4
Origin: DOW CHEMICAL COMPANY
1/CM	TRANSMITTANCE
446.137	0.986
454.842	0.98
463.547	0.979
472.252	0.978
480.958	0.96
489.663	0.856
498.368	0.888
507.073	0.983
515.778	0.997
524.483	1.016
533.188	1.021
541.893	1.021
550.599	1.009
559.304	0.974
568.009	0.343
576.714	0.986
585.419	1.02
594.124	1.02
602.829	1.02
611.534	1
620.24	0.995
628.945	0.963
637.65	0.974
646.355	0.944
655.06	0.927
663.765	0.916
672.47	0.871
681.176	0.636
689.881	0.294
698.586	0.696
707.291	0.805
715.996	0.688
724.701	0.13
733.406	0.128
742.111	0.359
750.817	0.529
759.522	0.836
768.227	0.806
776.932	0.912
785.637	0.892
794.342	0.91
803.047	0.94
811.752	0.946
820.458	0.935
829.163	0.891
837.868	0.856
846.573	0.82
855.278	0.783
863.983	0.81
872.688	0.847
881.394	0.831
890.099	0.91
898.804	0.912
907.509	0.889
916.214	0.877
924.919	0.784
933.624	0.0839
942.329	0.493
951.035	0.843
959.74	0.881
968.445	0.915
977.15	0.876
985.855	0.94
994.56	0.931
1003.27	0.944
1011.97	0.949
1020.68	0.93
1029.38	0.775
1038.09	0.959
1046.79	0.953
1055.5	0.93
1064.2	0.891
1072.91	0.904
1081.61	0.956
1090.32	0.96
1099.02	0.963
1107.73	0.982
1116.43	0.995
1125.14	0.998
1133.84	0.979
1142.55	0.965
1151.25	0.94
1159.96	0.929
1168.66	0.897
1177.37	0.814
1186.07	0.831
1194.78	0.87
1203.48	0.895
1212.19	0.782
1220.89	0.4781
1229.6	0.88
1238.3	0.93
1247.01	0.957
1255.71	0.953
1264.42	0.944
1273.12	0.908
1281.83	0.885
1290.53	0.916
1299.24	0.925
1307.94	0.927
1316.65	0.91
1325.36	0.892
1334.06	0.934
1342.77	0.957
1351.47	0.974
1360.18	0.987
1368.88	0.98
1377.59	0.963
1386.29	0.968
1395	0.965
1403.7	0.967
1412.41	0.961
1421.11	0.956
1429.82	0.946
1438.52	0.888
1447.23	0.6771
1455.93	0.923
1464.64	0.915
1473.34	0.881
1482.05	0.881
1490.75	0.741
1499.46	0.5502
1508.16	0.762
1516.87	0.717
1525.57	0.652
1534.28	0.577
1542.98	0.498
1551.69	0.49
1560.39	0.546
1569.1	0.535
1577.8	0.599
1586.51	0.666
1595.21	0.683
1603.92	0.446
1612.62	0.6521
1621.33	0.874
1630.03	0.933
1638.74	0.971
1647.44	0.979
1656.15	0.963
1664.86	0.931
1673.56	0.91
1682.27	0.933
1690.97	0.918
1699.68	0.901
1708.38	0.923
1717.09	0.942
1725.79	0.919
1734.5	0.904
1743.2	0.916
1751.91	0.946
1760.61	0.957
1769.32	0.955
1778.02	0.934
1786.73	0.95
1795.43	0.931
1804.14	0.931
1812.84	0.94
1821.55	0.942
1830.25	0.955
1838.96	0.953
1847.66	0.948
1856.37	0.946
1865.07	0.933
1873.78	0.91
1882.48	0.937
1891.19	0.931
1899.89	0.953
1908.6	0.96
1917.3	0.956
1926.01	0.95
1934.71	0.946
1943.42	0.885
1952.12	0.941
1960.83	0.934
1969.53	0.941
1978.24	0.956
1986.95	0.956
1995.65	0.985
2004.36	0.985
2013.06	0.986
2021.77	0.989
2030.47	0.9885
2039.18	0.987
2047.88	0.987
2056.59	0.987
2065.29	0.987
2074	0.987
2082.7	0.987
2091.41	0.986
2100.11	0.9856
2108.82	0.9854
2117.52	0.982
2126.23	0.9838
2134.93	0.98
2143.64	0.98
2152.34	0.98
2161.05	0.98
2169.75	0.979
2178.46	0.979
2187.16	0.979
2195.87	0.978
2204.57	0.976
2213.28	0.976
2221.98	0.976
2230.69	0.974
2239.39	0.971
2248.1	0.97
2256.8	0.9643
2265.51	0.963
2274.21	0.9567
2282.92	0.952
2291.62	0.954
2300.33	0.9544
2309.03	0.955
2317.74	0.9637
2326.45	0.976
2335.15	0.978
2343.86	0.975
2352.56	0.975
2361.27	0.975
2369.97	0.97
2378.68	0.967
2387.38	0.967
2396.09	0.967
2404.79	0.9678
2413.5	0.9695
2422.2	0.97
2430.91	0.968
2439.61	0.968
2448.32	0.97
2457.02	0.968
2465.73	0.968
2474.43	0.97
2483.14	0.97
2491.84	0.968
2500.55	0.968
2509.25	0.968
2517.96	0.97
2526.66	0.97
2535.37	0.97
2544.07	0.97
2552.78	0.97
2561.48	0.9671
2570.19	0.967
2578.89	0.97
2587.6	0.9671
2596.3	0.963
2605.01	0.9667
2613.71	0.967
2622.42	0.967
2631.12	0.968
2639.83	0.97
2648.53	0.97
2657.24	0.9709
2665.95	0.97
2674.65	0.97
2683.36	0.97
2692.06	0.97
2700.77	0.97
2709.47	0.97
2718.18	0.97
2726.88	0.968
2735.59	0.968
2744.29	0.967
2753	0.967
2761.7	0.967
2770.41	0.967
2779.11	0.964
2787.82	0.964
2796.52	0.964
2805.23	0.963
2813.93	0.957
2822.64	0.956
2831.34	0.963
2840.05	0.9609
2848.75	0.955
2857.46	0.9601
2866.16	0.961
2874.87	0.956
2883.57	0.953
2892.28	0.953
2900.98	0.953
2909.69	0.945
2918.39	0.9451
2927.1	0.95
2935.8	0.948
2944.51	0.957
2953.21	0.9569
2961.92	0.955
2970.62	0.9548
2979.33	0.9489
2988.03	0.9419
2996.74	0.9248
3005.45	0.9065
3014.15	0.8451
3022.86	0.6767
3031.56	0.7183
3040.27	0.7701
3048.97	0.7568
3057.68	0.7166
3066.38	0.6943
3075.09	0.5799
3083.79	0.5706
3092.5	0.8566
3101.2	0.8899
3109.91	0.8787
3118.61	0.9534
3127.32	0.961
3136.02	0.967
3144.73	0.961
3153.43	0.9654
3162.14	0.9702
3170.84	0.972
3179.55	0.972
3188.25	0.9758
3196.96	0.978
3205.66	0.978
3214.37	0.9793
3223.07	0.98
3231.78	0.9798
3240.48	0.985
3249.19	0.985
3257.89	0.986
3266.6	0.989
3275.3	0.991
3284.01	0.993
3292.71	0.993
3301.42	0.9959
3310.12	0.9977
3318.83	0.995
3327.54	0.995
3336.24	0.9987
3344.95	0.995
3353.65	0.998
3362.36	1
3371.06	1
3379.77	1.001
3388.47	1.001
3397.18	1.0046
3405.88	1.004
3414.59	1.002
3423.29	1
3432	0.998
3440.7	0.995
3449.41	0.994
3458.11	0.991
3466.82	0.99
3475.52	0.987
3484.23	0.986
3492.93	0.986
3501.64	0.986
3510.34	0.9841
3519.05	0.982
3527.75	0.982
3536.46	0.9811
3545.16	0.982
3553.87	0.9825
3562.57	0.986
3571.28	0.9855
3579.98	0.982
3588.69	0.981
3597.39	0.982
3606.1	0.982
3614.8	0.98
3623.51	0.9795
3632.21	0.975
3640.92	0.973
3649.62	0.9751
3658.33	0.978
3667.04	0.9795
3675.74	0.979
3684.45	0.983
3693.15	0.9794
3701.86	0.9794
3710.56	0.978
3719.27	0.9796
3727.97	0.979
3736.68	0.979
3745.38	0.978
3754.09	0.976
3762.79	0.978
3771.5	0.978
3780.2	0.979
3788.91	0.9784
