Infrared Spectrum: TRANS-STILBENE
Formula: C14 H12
CAS: 103-30-0
State: SOLID (SPLIT MULL), FLUOROLUBE FOR 3800-1330 CM^-^1, NUJOL FOR 1330-400 CM^-^1
Melting point: 124 C
Boiling point: 306-307 C
Class: COBLENTZ III
Instrument: BECKMAN IR-9 (GRATING)
Instrument parameters: ORDER CHANGES: 670, 1200, 2000 CM^-^1
Sampling: TRANSMISSION
Resolution: 2
Origin: DOW CHEMICAL COMPANY
1/CM	TRANSMITTANCE
402.667	0.777
411.556	0.746
420.445	0.732
429.334	0.74
438.223	0.795
447.112	0.813
456	0.846
464.889	0.874
473.778	0.864
482.667	0.917
491.556	0.944
500.445	0.954
509.334	0.958
518.223	0.962
527.112	0.5038
536.001	0.76
544.89	0.697
553.779	0.958
562.667	0.99
571.556	0.993
580.445	0.994
589.334	0.993
598.223	0.994
607.112	0.995
616.001	0.997
624.89	0.97
633.779	0.997
642.668	0.997
651.557	0.993
660.446	0.987
669.334	0.958
678.223	0.926
687.112	0.937
696.001	0.036
704.89	0.6301
713.779	0.937
722.668	0.923
731.557	0.901
740.446	0.92
749.335	0.94
758.224	0.912
767.112	0.103
776.001	0.753
784.89	0.944
793.779	0.973
802.668	0.988
811.557	0.99
820.446	0.995
829.335	0.998
838.224	0.998
847.113	0.99
856.002	0.962
864.891	0.986
873.779	0.987
882.668	0.984
891.557	0.98
900.446	0.97
909.335	0.952
918.224	0.91
927.113	0.956
936.002	0.956
944.891	0.947
953.78	0.922
962.669	0.142
971.558	0.3781
980.446	0.8571
989.335	0.649
998.224	0.933
1007.11	0.916
1016	0.947
1024.89	0.937
1033.78	0.823
1042.67	0.947
1051.56	0.956
1060.45	0.949
1069.34	0.91
1078.22	0.6622
1087.11	0.933
1096	0.947
1104.89	0.938
1113.78	0.934
1122.67	0.945
1131.56	0.945
1140.45	0.945
1149.34	0.938
1158.22	0.784
1167.11	0.905
1176	0.938
1184.89	0.937
1193.78	0.944
1202.67	0.938
1211.56	0.944
1220.45	0.913
1229.34	0.881
1238.22	0.933
1247.11	0.938
1256	0.942
1264.89	0.938
1273.78	0.909
1282.67	0.934
1291.56	0.933
1300.45	0.896
1309.34	0.855
1318.23	0.895
1327.11	0.912
1336	0.796
1344.89	0.85
1353.78	0.906
1362.67	0.965
1371.56	0.986
1380.45	0.99
1389.34	0.984
1398.23	0.972
1407.11	1.002
1416	1.001
1424.89	0.997
1433.78	0.998
1442.67	0.974
1451.56	0.7078
1460.45	0.9301
1469.34	1.029
1478.23	1.025
1487.11	0.9729
1496	0.4416
1504.89	0.9651
1513.78	1.029
1522.67	1.05
1531.56	1.051
1540.45	1.034
1549.34	1.048
1558.23	1.052
1567.11	1.048
1576	1.012
1584.89	1.025
1593.78	0.9969
1602.67	0.7891
1611.56	1.033
1620.45	1.043
1629.34	1.03
1638.23	1.047
1647.11	1.038
1656	1.022
1664.89	1.025
1673.78	1.034
1682.67	1.022
1691.56	1.013
1700.45	1.02
1709.34	1.02
1718.23	1.027
1727.12	1.027
1736	1.025
1744.89	1.015
1753.78	0.981
1762.67	0.987
1771.56	1.001
1780.45	1.005
1789.34	1.002
1798.23	0.987
1807.12	0.963
1816	0.963
1824.89	0.944
1833.78	0.976
1842.67	0.991
1851.56	0.997
1860.45	0.997
1869.34	0.986
1878.23	0.941
1887.12	0.944
1896	0.963
1904.89	0.97
1913.78	0.981
1922.67	0.983
1931.56	0.974
1940.45	0.967
1949.34	0.94
1958.23	0.9221
1967.12	0.959
1976	0.944
1984.89	0.958
1993.78	0.966
2002.67	0.966
2011.56	0.965
2020.45	0.962
2029.34	0.96
2038.23	0.957
2047.12	0.955
2056.01	0.952
2064.89	0.9485
2073.78	0.944
2082.67	0.9405
2091.56	0.938
2100.45	0.9345
2109.34	0.9291
2118.23	0.924
2127.12	0.919
2136.01	0.9156
2144.89	0.912
2153.78	0.9086
2162.67	0.9041
2171.56	0.8986
2180.45	0.8931
2189.34	0.8901
2198.23	0.888
2207.12	0.885
2216.01	0.8822
2224.89	0.8772
2233.78	0.8706
2242.67	0.8652
2251.56	0.8566
2260.45	0.85
2269.34	0.8456
2278.23	0.8416
2287.12	0.837
2296.01	0.8346
2304.89	0.8306
2313.78	0.8276
2322.67	0.818
2331.56	0.8152
2340.45	0.813
2349.34	0.813
2358.23	0.811
2367.12	0.8106
2376.01	0.81
2384.89	0.8104
2393.78	0.813
2402.67	0.811
2411.56	0.809
2420.45	0.8057
2429.34	0.805
2438.23	0.807
2447.12	0.807
2456.01	0.806
2464.9	0.8027
2473.78	0.799
2482.67	0.795
2491.56	0.7944
2500.45	0.793
2509.34	0.792
2518.23	0.7887
2527.12	0.7847
2536.01	0.784
2544.9	0.784
2553.78	0.7834
2562.67	0.781
2571.56	0.777
2580.45	0.7734
2589.34	0.77
2598.23	0.766
2607.12	0.763
2616.01	0.761
2624.9	0.76
2633.78	0.7585
2642.67	0.7555
2651.56	0.753
2660.45	0.75
2669.34	0.7465
2678.23	0.7427
2687.12	0.7397
2696.01	0.7375
2704.9	0.7345
2713.78	0.7318
2722.67	0.728
2731.56	0.7265
2740.45	0.7235
2749.34	0.7208
2758.23	0.7178
2767.12	0.715
2776.01	0.714
2784.9	0.7108
2793.78	0.707
2802.67	0.704
2811.56	0.7026
2820.45	0.7
2829.34	0.697
2838.23	0.6938
2847.12	0.6898
2856.01	0.6828
2864.9	0.6718
2873.79	0.671
2882.67	0.671
2891.56	0.6666
2900.45	0.6578
2909.34	0.65
2918.23	0.644
2927.12	0.6358
2936.01	0.629
2944.9	0.619
2953.79	0.622
2962.67	0.625
2971.56	0.625
2980.45	0.623
2989.34	0.6189
2998.23	0.5973
3007.12	0.5721
3016.01	0.5682
3024.9	0.3656
3033.79	0.424
3042.67	0.5072
3051.56	0.5901
3060.45	0.5354
3069.34	0.5098
3078.23	0.5731
3087.12	0.4949
3096.01	0.606
3104.9	0.5974
3113.79	0.616
3122.67	0.618
3131.56	0.618
3140.45	0.6178
3149.34	0.6149
3158.23	0.6119
3167.12	0.6098
3176.01	0.6068
3184.9	0.603
3193.79	0.5998
3202.67	0.5969
3211.56	0.593
3220.45	0.59
3229.34	0.587
3238.23	0.586
3247.12	0.5839
3256.01	0.582
3264.9	0.5789
3273.79	0.575
3282.68	0.572
3291.56	0.568
3300.45	0.565
3309.34	0.561
3318.23	0.558
3327.12	0.555
3336.01	0.551
3344.9	0.548
3353.79	0.545
3362.68	0.541
3371.56	0.538
3380.45	0.537
3389.34	0.534
3398.23	0.532
3407.12	0.53
3416.01	0.527
3424.9	0.525
3433.79	0.523
3442.68	0.52
3451.56	0.518
3460.45	0.516
3469.34	0.513
3478.23	0.511
3487.12	0.509
3496.01	0.506
3504.9	0.504
3513.79	0.501
3522.68	0.5
3531.56	0.5
3540.45	0.498
3549.34	0.4941
3558.23	0.491
3567.12	0.487
3576.01	0.4812
3584.9	0.4801
3593.79	0.479
3602.68	0.477
3611.57	0.476
3620.45	0.474
3629.34	0.473
3638.23	0.47
3647.12	0.467
3656.01	0.463
3664.9	0.462
3673.79	0.461
3682.68	0.459
3691.57	0.456
3700.45	0.455
3709.34	0.452
3718.23	0.4492
3727.12	0.448
3736.01	0.4452
3744.9	0.445
3753.79	0.444
3762.68	0.4411
3771.57	0.44
3780.45	0.437
3789.34	0.4341
3798.23	0.433
