Infrared Spectrum: L (-)-2-BENZOYLAMINO-1,4-BUTANEDIOL DIBENZOATE
Formula: C25 H23 N O5
CAS: 10405-09-1
State: SOLID (MINERAL OIL MULL)
Melting point: 153-154 C
Class: COBLENTZ
Instrument: Not specified, most likely a prism, grating, or hybrid spectrometer.
Sampling: TRANSMISSION
Resolution: 4
Origin: ARTHUR D. LITTLE, INC.
1/CM	TRANSMITTANCE
649.217	0.537
657.565	0.524
665.913	0.507
674.261	0.468
682.608	0.455
690.956	0.423
699.304	0.332
707.652	0.128
716	0.426
724.348	0.527
732.695	0.588
741.043	0.629
749.391	0.647
757.739	0.657
766.087	0.66
774.435	0.664
782.782	0.664
791.13	0.662
799.478	0.637
807.826	0.643
816.174	0.661
824.522	0.665
832.869	0.654
841.217	0.661
849.565	0.657
857.913	0.653
866.261	0.655
874.609	0.662
882.957	0.66
891.304	0.657
899.652	0.653
908	0.644
916.348	0.639
924.696	0.613
933.044	0.595
941.391	0.602
949.739	0.622
958.087	0.602
966.435	0.516
974.783	0.572
983.131	0.587
991.478	0.626
999.826	0.633
1008.17	0.63
1016.52	0.612
1024.87	0.542
1033.22	0.619
1041.57	0.604
1049.91	0.591
1058.26	0.611
1066.61	0.534
1074.96	0.552
1083.3	0.601
1091.65	0.576
1100	0.492
1108.35	0.479
1116.7	0.285
1125.04	0.455
1133.39	0.462
1141.74	0.509
1150.09	0.525
1158.44	0.531
1166.78	0.569
1175.13	0.5
1183.48	0.574
1191.83	0.606
1200.17	0.601
1208.52	0.581
1216.87	0.565
1225.22	0.546
1233.57	0.517
1241.91	0.483
1250.26	0.406
1258.61	0.317
1266.96	0.267
1275.3	0.144
1283.65	0.174
1292	0.303
1300.35	0.416
1308.7	0.365
1317.04	0.285
1325.39	0.447
1333.74	0.479
1342.09	0.444
1350.44	0.404
1358.78	0.381
1367.13	0.285
1375.48	0.271
1383.83	0.355
1392.17	0.521
1400.52	0.548
1408.87	0.544
1417.22	0.524
1425.57	0.5
1433.91	0.437
1442.26	0.381
1450.61	0.197
1458.96	0.187
1467.31	0.253
1475.65	0.552
1484	0.619
1492.35	0.688
1500.7	0.718
1509.04	0.704
1517.39	0.657
1525.74	0.558
1534.09	0.425
1542.44	0.393
1550.78	0.46
1559.13	0.721
1567.48	0.739
1575.83	0.685
1584.18	0.683
1592.52	0.783
1600.87	0.692
1609.22	0.685
1617.57	0.679
1625.91	0.601
1634.26	0.32
1642.61	0.412
1650.96	0.72
1659.31	0.779
1667.65	0.774
1676	0.772
1684.35	0.728
1692.7	0.685
1701.04	0.276
1709.39	0.184
1717.74	0.275
1726.09	0.335
1734.44	0.802
1742.78	0.885
1751.13	0.909
1759.48	0.923
1767.83	0.924
1776.18	0.925
1784.52	0.924
1792.87	0.927
1801.22	0.937
1809.57	0.938
1817.91	0.937
1826.26	0.937
1834.61	0.945
1842.96	0.951
1851.31	0.951
1859.65	0.952
1868	0.953
1876.35	0.953
1884.7	0.953
1893.05	0.951
1901.39	0.949
1909.74	0.944
1918.09	0.948
1926.44	0.951
1934.78	0.952
1943.13	0.955
1951.48	0.952
1959.83	0.946
1968.18	0.944
1976.52	0.952
1984.87	0.953
1993.22	0.956
2001.57	0.96
2009.91	0.96
2018.26	0.96
2026.61	0.96
2034.96	0.958
2043.31	0.956
2051.65	0.956
2060	0.955
2068.35	0.955
2076.7	0.955
2085.05	0.955
2093.39	0.953
2101.74	0.952
2110.09	0.952
2118.44	0.952
2126.78	0.952
2135.13	0.952
2143.48	0.951
2151.83	0.949
2160.18	0.948
2168.52	0.948
2176.87	0.946
2185.22	0.944
2193.57	0.946
2201.92	0.945
2210.26	0.945
2218.61	0.944
2226.96	0.944
2235.31	0.942
2243.65	0.941
2252	0.941
2260.35	0.941
2268.7	0.944
2277.05	0.944
2285.39	0.941
2293.74	0.939
2302.09	0.937
2310.44	0.931
2318.78	0.928
2327.13	0.925
2335.48	0.927
2343.83	0.927
2352.18	0.927
2360.52	0.93
2368.87	0.93
2377.22	0.931
2385.57	0.932
2393.92	0.93
2402.26	0.93
2410.61	0.928
2418.96	0.928
2427.31	0.927
2435.65	0.925
2444	0.925
2452.35	0.927
2460.7	0.927
2469.05	0.925
2477.39	0.925
2485.74	0.925
2494.09	0.923
2502.44	0.92
2510.79	0.917
2519.13	0.914
2527.48	0.911
2535.83	0.909
2544.18	0.904
2552.52	0.9
2560.87	0.895
2569.22	0.89
2577.57	0.883
2585.92	0.872
2594.26	0.868
2602.61	0.865
2610.96	0.862
2619.31	0.857
2627.66	0.851
2636	0.848
2644.35	0.846
2652.7	0.844
2661.05	0.841
2669.39	0.837
2677.74	0.837
2686.09	0.839
2694.44	0.836
2702.79	0.833
2711.13	0.83
2719.48	0.826
2727.83	0.83
2736.18	0.837
2744.52	0.843
2752.87	0.843
2761.22	0.834
2769.57	0.818
2777.92	0.805
2786.26	0.774
2794.61	0.749
2802.96	0.713
2811.31	0.662
2819.66	0.604
2828	0.481
2836.35	0.269
2844.7	0.054
2853.05	0.039
2861.39	0.043
2869.74	0.051
2878.09	0.053
2886.44	0.05
2894.79	0.034
2903.13	0.032
2911.48	0.029
2919.83	0.03
2928.18	0.033
2936.53	0.037
2944.87	0.039
2953.22	0.05
2961.57	0.058
2969.92	0.1
2978.26	0.191
2986.61	0.381
2994.96	0.482
3003.31	0.574
3011.66	0.634
3020	0.692
3028.35	0.7
3036.7	0.718
3045.05	0.725
3053.39	0.724
3061.74	0.73
3070.09	0.741
3078.44	0.759
3086.79	0.773
3095.13	0.794
3103.48	0.802
3111.83	0.805
3120.18	0.806
3128.53	0.804
3136.87	0.804
3145.22	0.804
3153.57	0.802
3161.92	0.802
3170.26	0.801
3178.61	0.8
3186.96	0.801
3195.31	0.801
3203.66	0.801
3212	0.801
3220.35	0.8
3228.7	0.795
3237.05	0.787
3245.4	0.773
3253.74	0.752
3262.09	0.728
3270.44	0.681
3278.79	0.651
3287.13	0.612
3295.48	0.535
3303.83	0.453
3312.18	0.411
3320.53	0.545
3328.87	0.713
3337.22	0.79
3345.57	0.826
3353.92	0.844
3362.26	0.85
3370.61	0.851
3378.96	0.851
3387.31	0.851
3395.66	0.85
3404	0.851
3412.35	0.851
3420.7	0.851
3429.05	0.851
3437.4	0.851
3445.74	0.851
3454.09	0.851
3462.44	0.853
3470.79	0.855
3479.13	0.858
3487.48	0.86
3495.83	0.861
3504.18	0.862
3512.53	0.864
3520.87	0.865
3529.22	0.867
3537.57	0.861
3545.92	0.855
