Infrared Spectrum: p-TOLUALDEHYDE
Formula: C8 H8 O
CAS: 104-87-0
State: SOLUTION (10% IN CCl4 FOR 4000-1330 CM^-^1, 10% IN CS2 FOR 1330-600 CM^-^1)
Boiling point: 204 C
Class: COBLENTZ III
Instrument: BECKMAN IR-7 (GRATING)
Instrument parameters: GRATING CHANGES AT 3000, 2200, 1150 CM^-^1
Sampling: TRANSMISSION
Path length: 0.011 CM, 0.010 CM
Resolution: 4
Origin: WESTERN REGIONAL RES. USDA
1/CM	TRANSMITTANCE
601.322	0.547
609.915	0.686
618.508	0.792
627.101	0.828
635.694	0.811
644.287	0.798
652.88	0.776
661.473	0.813
670.066	0.833
678.659	0.829
687.252	0.848
695.845	0.847
704.438	0.83
713.031	0.843
721.624	0.848
730.217	0.844
738.81	0.823
747.403	0.694
755.996	0.1571
764.589	0.5929
773.183	0.752
781.776	0.74
790.369	0.672
798.962	0.3781
807.555	0.04
816.148	0.4619
824.741	0.696
833.334	0.681
841.927	0.2221
850.52	0.3508
859.113	0.654
867.706	0.727
876.299	0.767
884.892	0.804
893.485	0.834
902.078	0.85
910.671	0.852
919.264	0.853
927.857	0.851
936.45	0.841
945.043	0.806
953.636	0.83
962.229	0.827
970.822	0.826
979.415	0.832
988.008	0.827
996.601	0.811
1005.19	0.752
1013.79	0.747
1022.38	0.753
1030.97	0.703
1039.57	0.662
1048.16	0.746
1056.75	0.8
1065.35	0.825
1073.94	0.834
1082.53	0.829
1091.12	0.815
1099.72	0.686
1108.31	0.699
1116.9	0.685
1125.5	0.804
1134.09	0.827
1142.68	0.814
1151.28	0.763
1159.87	0.4172
1168.46	0.1239
1177.05	0.64
1185.65	0.704
1194.24	0.532
1202.83	0.185
1211.43	0.163
1220.02	0.5099
1228.61	0.732
1237.21	0.792
1245.8	0.798
1254.39	0.796
1262.98	0.815
1271.58	0.809
1280.17	0.748
1288.76	0.651
1297.36	0.414
1305.95	0.2979
1314.54	0.723
1323.14	0.695
1331.73	0.801
1340.32	0.835
1348.92	0.831
1357.51	0.758
1366.1	0.792
1374.69	0.746
1383.29	0.449
1391.88	0.626
1400.47	0.734
1409.07	0.669
1417.66	0.595
1426.25	0.639
1434.85	0.658
1443.44	0.611
1452.03	0.601
1460.62	0.653
1469.22	0.715
1477.81	0.748
1486.4	0.743
1495	0.723
1503.59	0.671
1512.18	0.631
1520.78	0.615
1529.37	0.583
1537.96	0.509
1546.55	0.45
1555.15	0.455
1563.74	0.491
1572.33	0.354
1580.93	0.2681
1589.52	0.434
1598.11	0.149
1606.71	0.039
1615.3	0.238
1623.89	0.499
1632.49	0.669
1641.08	0.674
1649.67	0.65
1658.26	0.654
1666.86	0.54
1675.45	0.451
1684.04	0.0711
1692.64	0.029
1701.23	0.007
1709.82	0.005
1718.42	0.1781
1727.01	0.545
1735.6	0.667
1744.19	0.719
1752.79	0.777
1761.38	0.809
1769.97	0.798
1778.57	0.781
1787.16	0.827
1795.75	0.842
1804.35	0.823
1812.94	0.786
1821.53	0.844
1830.12	0.865
1838.72	0.871
1847.31	0.863
1855.9	0.868
1864.5	0.875
1873.09	0.876
1881.68	0.869
1890.28	0.848
1898.87	0.854
1907.46	0.85
1916.05	0.784
1924.65	0.836
1933.24	0.869
1941.83	0.871
1950.43	0.875
1959.02	0.877
1967.61	0.861
1976.21	0.849
1984.8	0.869
1993.39	0.879
2001.99	0.8782
2010.58	0.875
2019.17	0.8707
2027.76	0.8684
2036.36	0.8633
2044.95	0.8536
2053.54	0.8422
2062.14	0.8384
2070.73	0.8473
2079.32	0.8573
2087.92	0.869
2096.51	0.8727
2105.1	0.877
2113.69	0.879
2122.29	0.879
2130.88	0.8792
2139.47	0.877
2148.07	0.876
2156.66	0.875
2165.25	0.875
2173.85	0.874
2182.44	0.873
2191.03	0.874
2199.62	0.875
2208.22	0.8762
2216.81	0.877
2225.4	0.878
2234	0.8781
2242.59	0.879
2251.18	0.8784
2259.78	0.8741
2268.37	0.8686
2276.96	0.8586
2285.55	0.856
2294.15	0.8667
2302.74	0.8754
2311.33	0.877
2319.93	0.8735
2328.52	0.868
2337.11	0.867
2345.71	0.8686
2354.3	0.8728
2362.89	0.8761
2371.49	0.878
2380.08	0.879
2388.67	0.88
2397.26	0.8758
2405.86	0.871
2414.45	0.873
2423.04	0.879
2431.64	0.881
2440.23	0.882
2448.82	0.8802
2457.42	0.879
2466.01	0.8807
2474.6	0.8826
2483.19	0.883
2491.79	0.8808
2500.38	0.8761
2508.97	0.8706
2517.57	0.865
2526.16	0.864
2534.75	0.865
2543.35	0.866
2551.94	0.8671
2560.53	0.867
2569.12	0.8644
2577.72	0.8506
2586.31	0.839
2594.9	0.8429
2603.5	0.8494
2612.09	0.851
2620.68	0.85
2629.28	0.8565
2637.87	0.8582
2646.46	0.8539
2655.06	0.8487
2663.65	0.8338
2672.24	0.783
2680.83	0.7446
2689.43	0.7278
2698.02	0.6895
2706.61	0.652
2715.21	0.5542
2723.8	0.4159
2732.39	0.3688
2740.99	0.5137
2749.58	0.6932
2758.17	0.7377
2766.76	0.7107
2775.36	0.658
2783.95	0.6116
2792.54	0.5765
2801.14	0.5234
2809.73	0.4495
2818.32	0.4129
2826.92	0.422
2835.51	0.5331
2844.1	0.5864
2852.69	0.671
2861.29	0.6761
2869.88	0.6957
2878.47	0.7127
2887.07	0.716
2895.66	0.7034
2904.25	0.6746
2912.85	0.6335
2921.44	0.5753
2930.03	0.6207
2938.62	0.647
2947.22	0.6551
2955.81	0.6598
2964.4	0.669
2973	0.669
2981.59	0.6615
2990.18	0.6502
2998.78	0.646
3007.37	0.6446
3015.96	0.6382
3024.56	0.6213
3033.15	0.595
3041.74	0.6105
3050.33	0.6261
3058.93	0.6109
3067.52	0.6654
3076.11	0.7301
3084.71	0.724
3093.3	0.7369
3101.89	0.7654
3110.49	0.7967
3119.08	0.798
3127.67	0.8028
3136.26	0.8169
3144.86	0.8238
3153.45	0.826
3162.04	0.8303
3170.64	0.8336
3179.23	0.8348
3187.82	0.835
3196.42	0.835
3205.01	0.834
3213.6	0.833
3222.19	0.8346
3230.79	0.8415
3239.38	0.8452
3247.97	0.848
3256.57	0.849
3265.16	0.8485
3273.75	0.848
3282.35	0.847
3290.94	0.846
3299.53	0.8444
3308.12	0.8431
3316.72	0.844
3325.31	0.846
3333.9	0.8443
3342.5	0.843
3351.09	0.8407
3359.68	0.8339
3368.28	0.8108
3376.87	0.7784
3385.46	0.769
3394.06	0.7958
3402.65	0.8105
3411.24	0.8196
3419.83	0.8283
3428.43	0.8337
3437.02	0.836
3445.61	0.837
3454.21	0.8365
3462.8	0.8352
3471.39	0.833
3479.99	0.8317
3488.58	0.8294
3497.17	0.8271
3505.76	0.825
3514.36	0.823
3522.95	0.821
3531.54	0.8191
3540.14	0.818
3548.73	0.819
3557.32	0.8198
3565.92	0.821
3574.51	0.8243
3583.1	0.8276
3591.69	0.8318
3600.29	0.8464
3608.88	0.8544
3617.47	0.8596
3626.07	0.8658
3634.66	0.8692
3643.25	0.8765
3651.85	0.879
3660.44	0.879
3669.03	0.8745
3677.63	0.869
3686.22	0.8708
3694.81	0.8771
3703.4	0.8813
3712	0.8846
3720.59	0.8879
3729.18	0.8912
3737.78	0.893
3746.37	0.894
3754.96	0.896
3763.56	0.896
3772.15	0.8965
3780.74	0.897
3789.33	0.897
3797.93	0.8973
3806.52	0.898
3815.11	0.898
3823.71	0.898
3832.3	0.898
3840.89	0.898
3849.49	0.898
3858.08	0.898
3866.67	0.897
3875.26	0.896
3883.86	0.896
3892.45	0.894
3901.04	0.8924
3909.64	0.8912
3918.23	0.892
3926.82	0.894
3935.42	0.896
3944.01	0.896
3952.6	0.898
3961.19	0.898
3969.79	0.8963
3978.38	0.896
3986.97	0.896
3995.57	0.895
4004.16	0.895
