Infrared Spectrum: Butyric acid, ethyl ester
Formula: C6 H12 O2
CAS: 105-54-4
State: LIQUID (NEAT)
Class: COBLENTZ III
Instrument: BECKMAN IR-4 (HYBRID PRISM-GRATING)
Sampling: TRANSMISSION
Path length: CAPILLARY
Resolution: 2
Origin: UNIVERSITY OF FLORIDA
1/CM	TRANSMITTANCE
668	0.7245
677	0.7498
686	0.7772
695	0.7906
704	0.7992
713	0.8149
722	0.8298
731	0.8361
740	0.827
749	0.7908
758	0.8191
767	0.8225
776	0.8117
785	0.8233
794	0.8116
803	0.8214
812	0.8448
821	0.8698
830	0.8647
839	0.8428
848	0.8049
857	0.8081
866	0.8397
875	0.8613
884	0.8693
893	0.8637
902	0.865
911	0.8651
920	0.8345
929	0.7995
938	0.8111
947	0.8356
956	0.8734
965	0.8837
974	0.8848
983	0.878
992	0.864
1001	0.8348
1010	0.7659
1019	0.5694
1028	0.4635
1037	0.6369
1046	0.6111
1055	0.7055
1064	0.7294
1073	0.6551
1082	0.5559
1091	0.4516
1100	0.4859
1109	0.5356
1118	0.6619
1127	0.7349
1136	0.7278
1145	0.68
1154	0.5766
1163	0.3879
1172	0.2559
1181	0.1124
1190	0.1156
1199	0.2749
1208	0.4319
1217	0.5618
1226	0.573
1235	0.5462
1244	0.4975
1253	0.3993
1262	0.4459
1271	0.5333
1280	0.5938
1289	0.5735
1298	0.5217
1307	0.5032
1316	0.6572
1325	0.7399
1334	0.7288
1343	0.6502
1352	0.6207
1361	0.6796
1370	0.4623
1379	0.5006
1388	0.6029
1397	0.7007
1406	0.7521
1415	0.7206
1424	0.6859
1433	0.7097
1442	0.6719
1451	0.6003
1460	0.5884
1469	0.5615
1478	0.6964
1487	0.7623
1496	0.8257
1505	0.8432
1514	0.8514
1523	0.8626
1532	0.874
1541	0.8802
1550	0.8792
1559	0.8815
1568	0.8827
1577	0.8825
1586	0.8814
1595	0.882
1604	0.8783
1613	0.8784
1622	0.8753
1631	0.8713
1640	0.8672
1649	0.8597
1658	0.8584
1667	0.8549
1676	0.8294
1685	0.7976
1694	0.7619
1703	0.7153
1712	0.6507
1721	0.453
1730	0.2082
1739	0.07
1748	0.1039
1757	0.5221
1766	0.6739
1775	0.7559
1784	0.8103
1793	0.8347
1802	0.8529
1811	0.864
1820	0.8711
1829	0.8788
1838	0.8926
1847	0.8865
1856	0.8863
1865	0.8883
1874	0.8833
1883	0.8853
1892	0.8886
1901	0.8918
1910	0.8949
1919	0.8982
1928	0.8992
1937	0.898
1946	0.8963
1955	0.8931
1964	0.8923
1973	0.8925
1982	0.895
1991	0.8989
2000	0.9001
2009	0.9003
2018	0.8999
2027	0.8989
2036	0.8946
2045	0.8918
2054	0.8924
2063	0.8937
2072	0.895
2081	0.8993
2090	0.9014
2099	0.9018
2108	0.9023
2117	0.9028
2126	0.9031
2135	0.9035
2144	0.904
2153	0.9046
2162	0.9051
2171	0.9055
2180	0.906
2189	0.9058
2198	0.9049
2207	0.9046
2216	0.9055
2225	0.906
2234	0.9058
2243	0.9053
2252	0.9049
2261	0.9046
2270	0.9045
2279	0.9044
2288	0.9043
2297	0.9043
2306	0.904
2315	0.9034
2324	0.9027
2333	0.9007
2342	0.8981
2351	0.8974
2360	0.8985
2369	0.8996
2378	0.9007
2387	0.9017
2396	0.9029
2405	0.9036
2414	0.9042
2423	0.9045
2432	0.9047
2441	0.9049
2450	0.9052
2459	0.9054
2468	0.9053
2477	0.9052
2486	0.9051
2495	0.905
2504	0.905
2513	0.9049
2522	0.9048
2531	0.9045
2540	0.9042
2549	0.9039
2558	0.9037
2567	0.9034
2576	0.9032
2585	0.903
2594	0.9028
2603	0.9026
2612	0.9025
2621	0.9021
2630	0.9014
2639	0.9005
2648	0.8998
2657	0.899
2666	0.8983
2675	0.8976
2684	0.8987
2693	0.8998
2702	0.9003
2711	0.9
2720	0.8987
2729	0.8962
2738	0.891
2747	0.8864
2756	0.884
2765	0.8836
2774	0.8828
2783	0.8818
2792	0.8804
2801	0.8779
2810	0.8743
2819	0.8685
2828	0.8605
2837	0.8491
2846	0.8335
2855	0.8116
2864	0.7903
2873	0.7043
2882	0.6193
2891	0.6393
2900	0.6502
2909	0.6458
2918	0.6222
2927	0.5671
2936	0.5123
2945	0.471
2954	0.4348
2963	0.3796
2972	0.3377
2981	0.3587
2990	0.4844
2999	0.6093
3008	0.7334
3017	0.8372
3026	0.8483
3035	0.8552
3044	0.8624
3053	0.8675
3062	0.8712
3071	0.8741
3080	0.8765
3089	0.8782
3098	0.8799
3107	0.8811
3116	0.8823
3125	0.8834
3134	0.8847
3143	0.8863
3152	0.8877
3161	0.8887
3170	0.889
3179	0.8894
3188	0.8897
3197	0.8901
3206	0.8902
3215	0.8902
3224	0.8903
3233	0.8903
3242	0.8904
3251	0.8903
3260	0.8901
3269	0.89
3278	0.8897
3287	0.8893
3296	0.8889
3305	0.8885
3314	0.8881
3323	0.8877
3332	0.8874
3341	0.8869
3350	0.8863
3359	0.8858
3368	0.8852
3377	0.8847
3386	0.884
3395	0.8829
3404	0.8818
3413	0.8806
3422	0.8794
3431	0.8766
3440	0.8736
3449	0.8703
3458	0.868
3467	0.8669
3476	0.8682
3485	0.8711
3494	0.8743
3503	0.8774
3512	0.8794
3521	0.8797
3530	0.8792
3539	0.8786
3548	0.8779
3557	0.8771
3566	0.8763
3575	0.8764
3584	0.8766
3593	0.877
3602	0.8776
3611	0.8782
3620	0.8787
3629	0.8793
3638	0.8799
3647	0.8805
3656	0.881
3665	0.8819
3674	0.8828
3683	0.8837
3692	0.8845
3701	0.8854
3710	0.8864
3719	0.8874
3728	0.8885
3737	0.8896
3746	0.8907
3755	0.8919
3764	0.8935
3773	0.895
3782	0.8966
3791	0.8983
3800	0.8997
3809	0.9002
3818	0.9007
3827	0.9013
3836	0.9018
3845	0.902
3854	0.902
3863	0.902
3872	0.9021
3881	0.9021
3890	0.9022
3899	0.9022
3908	0.9022
3917	0.9023
3926	0.9023
3935	0.9023
3944	0.9024
3953	0.9024
3962	0.9025
3971	0.9025
3980	0.9025
3989	0.9026
3998	0.9026
