Infrared Spectrum: CARBONIC ACID, DIETHYL ESTER
Formula: C5 H10 O3
CAS: 105-58-8
State: SOLUTION (10% IN CCl4 FOR 4000-1340 CM^-^1, 10% IN CS2 FOR 1340-600 CM^-^1)
Boiling point: 126 C
Class: COBLENTZ III
Instrument: BECKMAN IR-7 (GRATING)
Instrument parameters: GRATING CHANGES AT 3000, 2200, 1150 CM^-^1
Sampling: TRANSMISSION
Path length: 0.011 CM, 0.010 CM
Resolution: 4
Origin: WESTERN REGIONAL RES. USDA
1/CM	TRANSMITTANCE
600.65	0.893
609.754	0.894
618.857	0.884
627.961	0.84
637.064	0.837
646.168	0.809
655.271	0.808
664.375	0.818
673.479	0.819
682.582	0.829
691.686	0.825
700.789	0.817
709.893	0.815
718.997	0.825
728.1	0.825
737.204	0.832
746.307	0.83
755.411	0.819
764.514	0.777
773.618	0.7
782.722	0.356
791.825	0.178
800.929	0.563
810.032	0.681
819.136	0.756
828.239	0.772
837.343	0.734
846.447	0.5151
855.55	0.125
864.654	0.582
873.757	0.694
882.861	0.732
891.964	0.6661
901.068	0.672
910.172	0.8
919.275	0.823
928.379	0.831
937.482	0.826
946.586	0.812
955.69	0.765
964.793	0.671
973.897	0.582
983	0.576
992.104	0.571
1001.21	0.3772
1010.31	0.127
1019.41	0.007
1028.52	0.105
1037.62	0.417
1046.73	0.6019
1055.83	0.675
1064.93	0.685
1074.04	0.6
1083.14	0.403
1092.24	0.3209
1101.35	0.516
1110.45	0.49
1119.55	0.596
1128.66	0.686
1137.76	0.706
1146.86	0.651
1155.97	0.59
1165.07	0.562
1174.18	0.508
1183.28	0.594
1192.38	0.606
1201.49	0.553
1210.59	0.457
1219.69	0.264
1228.8	0.129
1237.9	0.051
1247	0.005
1256.11	0
1265.21	0.001
1274.31	0.016
1283.42	0.113
1292.52	0.136
1301.63	0.1559
1310.73	0.475
1319.83	0.606
1328.94	0.657
1338.04	0.668
1347.14	0.635
1356.25	0.4371
1365.35	0.126
1374.45	0.156
1383.56	0.252
1392.66	0.358
1401.76	0.235
1410.87	0.3899
1419.97	0.574
1429.08	0.567
1438.18	0.3371
1447.28	0.344
1456.39	0.3151
1465.49	0.171
1474.59	0.261
1483.7	0.5648
1492.8	0.646
1501.9	0.636
1511.01	0.614
1520.11	0.583
1529.21	0.523
1538.32	0.455
1547.42	0.43
1556.53	0.478
1565.63	0.527
1574.73	0.524
1583.84	0.533
1592.94	0.603
1602.04	0.659
1611.15	0.686
1620.25	0.702
1629.35	0.72
1638.46	0.73
1647.56	0.736
1656.66	0.74
1665.77	0.73
1674.87	0.7
1683.98	0.649
1693.08	0.57
1702.18	0.493
1711.29	0.437
1720.39	0.277
1729.49	0.077
1738.6	0.005
1747.7	0.003
1756.8	0.028
1765.91	0.227
1775.01	0.466
1784.12	0.593
1793.22	0.663
1802.32	0.704
1811.43	0.733
1820.53	0.745
1829.63	0.761
1838.74	0.78
1847.84	0.79
1856.94	0.799
1866.05	0.806
1875.15	0.81
1884.25	0.817
1893.36	0.823
1902.46	0.821
1911.57	0.808
1920.67	0.801
1929.77	0.809
1938.88	0.809
1947.98	0.81
1957.08	0.8
1966.19	0.776
1975.29	0.794
1984.39	0.808
1993.5	0.816
2002.6	0.821
2011.7	0.822
2020.81	0.8231
2029.91	0.825
2039.02	0.827
2048.12	0.8277
2057.22	0.8283
2066.33	0.83
2075.43	0.83
2084.53	0.831
2093.64	0.832
2102.74	0.832
2111.84	0.832
2120.95	0.8321
2130.05	0.833
2139.15	0.832
2148.26	0.832
2157.36	0.832
2166.47	0.832
2175.57	0.8306
2184.67	0.83
2193.78	0.828
2202.88	0.827
2211.98	0.8229
2221.09	0.8158
2230.19	0.8104
2239.29	0.8078
2248.4	0.8063
2257.5	0.8063
2266.6	0.8078
2275.71	0.8127
2284.81	0.8188
2293.92	0.8244
2303.02	0.827
2312.12	0.83
2321.23	0.833
2330.33	0.834
2339.43	0.833
2348.54	0.8306
2357.64	0.8265
2366.74	0.8184
2375.85	0.8083
2384.95	0.8088
2394.05	0.8189
2403.16	0.8259
2412.26	0.8285
2421.37	0.83
2430.47	0.8306
2439.57	0.832
2448.68	0.832
2457.78	0.834
2466.88	0.8348
2475.99	0.834
2485.09	0.8321
2494.19	0.8292
2503.3	0.824
2512.4	0.819
2521.5	0.8211
2530.61	0.8266
2539.71	0.8311
2548.82	0.834
2557.92	0.8362
2567.02	0.838
2576.13	0.839
2585.23	0.838
2594.33	0.8366
2603.44	0.836
2612.54	0.834
2621.64	0.8309
2630.75	0.8254
2639.85	0.8221
2648.95	0.8271
2658.06	0.8324
2667.16	0.836
2676.27	0.8373
2685.37	0.8371
2694.47	0.836
2703.58	0.833
2712.68	0.825
2721.78	0.8209
2730.89	0.818
2739.99	0.816
2749.09	0.816
2758.2	0.815
2767.3	0.814
2776.41	0.814
2785.51	0.814
2794.61	0.812
2803.72	0.8012
2812.82	0.7915
2821.92	0.788
2831.03	0.7838
2840.13	0.7736
2849.23	0.7533
2858.34	0.7265
2867.44	0.6613
2876.54	0.6124
2885.65	0.663
2894.75	0.5689
2903.86	0.4904
2912.96	0.421
2922.06	0.502
2931.17	0.4276
2940.27	0.3793
2949.37	0.4322
2958.48	0.4569
2967.58	0.3179
2976.68	0.1605
2985.79	0.1056
2994.89	0.1129
3003.99	0.2065
3013.1	0.4998
3022.2	0.6712
3031.31	0.7319
3040.41	0.7731
3049.51	0.7909
3058.62	0.8016
3067.72	0.8097
3076.82	0.8143
3085.93	0.8168
3095.03	0.818
3104.13	0.819
3113.24	0.82
3122.34	0.821
3131.44	0.823
3140.55	0.823
3149.65	0.823
3158.76	0.827
3167.86	0.83
3176.96	0.8307
3186.07	0.83
3195.17	0.828
3204.27	0.828
3213.38	0.828
3222.48	0.829
3231.58	0.83
3240.69	0.8311
3249.79	0.8326
3258.89	0.834
3268	0.8357
3277.1	0.837
3286.21	0.837
3295.31	0.837
3304.41	0.836
3313.52	0.836
3322.62	0.835
3331.72	0.8345
3340.83	0.834
3349.93	0.834
3359.03	0.833
3368.14	0.832
3377.24	0.832
3386.34	0.831
3395.45	0.83
3404.55	0.83
3413.66	0.831
3422.76	0.83
3431.86	0.8285
3440.97	0.8269
3450.07	0.8184
3459.17	0.8137
3468.28	0.7996
3477.38	0.7977
3486.48	0.8066
3495.59	0.8193
3504.69	0.823
3513.79	0.828
3522.9	0.828
3532	0.827
3541.11	0.825
3550.21	0.825
3559.31	0.828
3568.42	0.8311
3577.52	0.832
3586.62	0.8336
3595.73	0.8353
3604.83	0.837
3613.93	0.837
3623.04	0.838
3632.14	0.839
3641.24	0.839
3650.35	0.837
3659.45	0.836
3668.56	0.8343
3677.66	0.832
3686.76	0.8312
3695.87	0.8297
3704.97	0.8299
3714.07	0.831
3723.18	0.832
3732.28	0.8325
3741.38	0.835
3750.49	0.8366
3759.59	0.8369
3768.69	0.8353
3777.8	0.8338
3786.9	0.832
3796.01	0.832
3805.11	0.831
3814.21	0.83
3823.32	0.831
3832.42	0.832
3841.52	0.833
3850.63	0.833
3859.73	0.832
3868.83	0.831
3877.94	0.8312
3887.04	0.832
3896.15	0.832
3905.25	0.8311
3914.35	0.831
3923.46	0.832
3932.56	0.8305
3941.66	0.83
3950.77	0.829
3959.87	0.8279
3968.97	0.8263
3978.08	0.825
3987.18	0.8232
3996.28	0.8236
4005.39	0.823
