Infrared Spectrum: 2,5-Dimethyl-4-methoxyphenylacetonitrile
Formula: C 11 H 13 N O
CAS: 105909-12-4
State: gas
Origin: EPA-IR VAPOR PHASE LIBRARY
1/CM	ABSORBANCE
549.8	0.005792
559.445	0.006852
569.09	0.005332
578.734	0.003892
588.379	0.003152
598.024	0.003232
607.669	0.002722
617.313	0.002542
626.958	0.003332
636.603	0.002652
646.248	0.001762
655.893	0.001922
665.537	0.002132
675.182	0.002482
684.827	0.002602
694.472	0.002682
704.116	0.002182
713.761	0.001702
723.406	0.001792
733.051	0.002532
742.695	0.004792
752.34	0.005522
761.985	0.002562
771.63	0.001882
781.275	0.001762
790.919	0.001832
800.564	0.002742
810.209	0.004072
819.854	0.005952
829.498	0.009002
839.143	0.013502
848.788	0.014212
858.433	0.013032
868.078	0.018942
877.722	0.020142
887.367	0.010952
897.012	0.005792
906.657	0.004612
916.301	0.004942
925.946	0.005392
935.591	0.005432
945.236	0.005382
954.88	0.005652
964.525	0.007192
974.17	0.010232
983.815	0.014942
993.46	0.019972
1003.1	0.023572
1012.75	0.026892
1022.39	0.022852
1032.04	0.015492
1041.68	0.012152
1051.33	0.012012
1060.97	0.014752
1070.62	0.026472
1080.26	0.065082
1089.91	0.100662
1099.55	0.059942
1109.2	0.020882
1118.84	0.011832
1128.49	0.008982
1138.13	0.010362
1147.78	0.014682
1157.42	0.021822
1167.07	0.032972
1176.71	0.049762
1186.36	0.066032
1196	0.090432
1205.64	0.088942
1215.29	0.047882
1224.93	0.022982
1234.58	0.017372
1244.22	0.024082
1253.87	0.045072
1263.51	0.082812
1273.16	0.106532
1282.8	0.090492
1292.45	0.072512
1302.09	0.062002
1311.74	0.049232
1321.38	0.033802
1331.03	0.020472
1340.67	0.012262
1350.32	0.009492
1359.96	0.009142
1369.61	0.012372
1379.25	0.017212
1388.9	0.022192
1398.54	0.040702
1408.18	0.040092
1417.83	0.030032
1427.47	0.037332
1437.12	0.034482
1446.76	0.035312
1456.41	0.045382
1466.05	0.059822
1475.7	0.052302
1485.34	0.039332
1494.99	0.063912
1504.63	0.138362
1514.28	0.135662
1523.92	0.046522
1533.57	0.023512
1543.21	0.019762
1552.86	0.019092
1562.5	0.020052
1572.15	0.021662
1581.79	0.021462
1591.44	0.016332
1601.08	0.015262
1610.73	0.026872
1620.37	0.030792
1630.01	0.014182
1639.66	0.006662
1649.3	0.004842
1658.95	0.004072
1668.59	0.003792
1678.24	0.003802
1687.88	0.003442
1697.53	0.002752
1707.17	0.002712
1716.82	0.003002
1726.46	0.003552
1736.11	0.003882
1745.75	0.003962
1755.4	0.003362
1765.04	0.002712
1774.69	0.002252
1784.33	0.002062
1793.98	0.001992
1803.62	0.001872
1813.27	0.001822
1822.91	0.001842
1832.55	0.001922
1842.2	0.001802
1851.84	0.001912
1861.49	0.001942
1871.13	0.001852
1880.78	0.001752
1890.42	0.001702
1900.07	0.001782
1909.71	0.001692
1919.36	0.001622
1929	0.001612
1938.65	0.001522
1948.29	0.001602
1957.94	0.001502
1967.58	0.001452
1977.23	0.001432
1986.87	0.001572
1996.52	0.001762
2006.16	0.002082
2015.81	0.002162
2025.45	0.002282
2035.1	0.001952
2044.74	0.001872
2054.38	0.001792
2064.03	0.002132
2073.67	0.002512
2083.32	0.002952
2092.96	0.003142
2102.61	0.002982
2112.25	0.002582
2121.9	0.001932
2131.54	0.001482
2141.19	0.0012188
2150.83	0.0011706
2160.48	0.0012372
2170.12	0.0012027
2179.77	0.001262
2189.41	0.001352
2199.06	0.001272
2208.7	0.001422
2218.35	0.001312
2227.99	0.001592
2237.64	0.002482
2247.28	0.004402
2256.92	0.004732
2266.57	0.002542
2276.21	0.001772
2285.86	0.001582
2295.5	0.001592
2305.15	0.001602
2314.79	0.001402
2324.44	0.001252
2334.08	0.001382
2343.73	0.0012244
2353.37	0.001322
2363.02	0.0012229
2372.66	0.0011357
2382.31	0.0012054
2391.95	0.0012399
2401.6	0.001362
2411.24	0.001302
2420.89	0.0011456
2430.53	0.0011639
2440.18	0.001312
2449.82	0.001442
2459.47	0.001582
2469.11	0.001762
2478.75	0.001742
2488.4	0.001782
2498.04	0.001522
2507.69	0.001322
2517.33	0.001252
2526.98	0.001312
2536.62	0.001392
2546.27	0.001572
2555.91	0.001572
2565.56	0.001922
2575.2	0.002072
2584.85	0.002252
2594.49	0.002282
2604.14	0.002092
2613.78	0.001602
2623.43	0.0012269
2633.07	0.001322
2642.72	0.001422
2652.36	0.001432
2662.01	0.001342
2671.65	0.001342
2681.29	0.001292
2690.94	0.001522
2700.58	0.001762
2710.23	0.001962
2719.87	0.002142
2729.52	0.002472
2739.16	0.003062
2748.81	0.003422
2758.45	0.002762
2768.1	0.002592
2777.74	0.003142
2787.39	0.003752
2797.03	0.004522
2806.68	0.006082
2816.32	0.008682
2825.97	0.013512
2835.61	0.023122
2845.26	0.029372
2854.9	0.029782
2864.55	0.031442
2874.19	0.032362
2883.84	0.031782
2893.48	0.030942
2903.12	0.035232
2912.77	0.045102
2922.41	0.059292
2932.06	0.081372
2941.7	0.090442
2951.35	0.074712
2960.99	0.061152
2970.64	0.048312
2980.28	0.042142
2989.93	0.039112
2999.57	0.045342
3009.22	0.048812
3018.86	0.036392
3028.51	0.029672
3038.15	0.020382
3047.8	0.015412
3057.44	0.014852
3067.09	0.013262
3076.73	0.010382
3086.38	0.007592
3096.02	0.005992
3105.67	0.004922
3115.31	0.004902
3124.95	0.004612
3134.6	0.003932
3144.24	0.002782
3153.89	0.002112
3163.53	0.002102
3173.18	0.002022
3182.82	0.001792
3192.47	0.001462
3202.11	0.001422
3211.76	0.0010264
3221.4	0.0009625
3231.05	0.0006718
3240.69	0.0006398
3250.34	0.0004329
3259.98	0.0004424
3269.63	0.0003887
3279.27	0.0007476
3288.92	0.0005084
3298.56	0.0003915
3308.21	0.0004293
3317.85	0.0005085
3327.49	0.0002114
3337.14	0.0004269
3346.78	0.0002218
3356.43	0.0002028
3366.07	0.0001914
3375.72	0.00026306
3385.36	0.0004119
3395.01	0.0005274
3404.65	0.000251567
3414.3	0.0001807
3423.94	0.0003799
3433.59	6.8e-05
3443.23	0.0001852
3452.88	0.0003746
3462.52	0.000215
3472.17	0.00025323
3481.81	7.4e-05
3491.46	0.000227
3501.1	0.0001706
3510.75	0.00030146
3520.39	0.0004078
3530.04	0.0003544
3539.68	0.00033828
3549.32	0.00030853
3558.97	0.00033422
3568.61	9.6e-05
3578.26	0.00028954
3587.9	0.000223
3597.55	0.0003669
3607.19	0.000227
3616.84	4.5e-05
3626.48	0.000128
3636.13	0.0003115
3645.77	0.00029567
3655.42	0.000121
3665.06	0.0004703
3674.71	0.0002149
3684.35	0.00024081
3694	0.00032839
3703.64	0.00031155
3713.29	0.0004904
3722.93	0.00023473
3732.58	0.000123
3742.22	0.00032939
3751.86	0.0003791
3761.51	0.0002047
3771.15	0.0004007
3780.8	0.00033209
3790.44	0.0003772
3800.09	0.000451
3809.73	0.0003909
3819.38	0.0003351
3829.02	0.0004963
3838.67	0.00031639
3848.31	0.000196
3857.96	0.0004772
3867.6	0.0004127
3877.25	0.0003626
3886.89	0.0005155
3896.54	0.0003991
3906.18	0.000596
3915.83	0.00061
3925.47	0.000445
3935.12	0.0004484
3944.76	0.000621
3954.41	0.0006608
3964.05	0.0005507
3973.69	0.0005128
3983.34	0.0007844
3992.98	0.0005727
