Infrared Spectrum: PROPANOIC ACID, ETHYL ESTER
Formula: C5 H10 O2
CAS: 105-37-3
State: SOLUTION (10% IN CCl4 FOR 3800-1300, 10% IN CS2 FOR 1300-650, AND 10% CCl4 FOR 650-240 CM^-^1) VERSUS SOLVENT
Class: COBLENTZ III
Instrument: PERKIN-ELMER 521 (GRATING)
Instrument parameters: FILTERS AT 3150, 2500, 2000, 1150, 700, 410; GRATING CHANGES AT 2000, 630 CM^-^1
Sampling: TRANSMISSION
Path length: 0.011, 0.010, AND 0.011 CM (CsBr CELL)
Resolution: 4
Origin: DOW CORNING CORP.
1/CM	TRANSMITTANCE
274.672	0.685
283.515	0.681
292.358	0.681
301.2	0.683
310.043	0.683
318.886	0.672
327.729	0.657
336.572	0.652
345.415	0.668
354.257	0.665
363.1	0.606
371.943	0.633
380.786	0.6959
389.629	0.735
398.472	0.74
407.314	0.742
416.157	0.74
425	0.735
433.843	0.73
442.686	0.723
451.529	0.712
460.371	0.735
469.214	0.754
478.057	0.765
486.9	0.779
495.743	0.789
504.586	0.791
513.428	0.794
522.271	0.795
531.114	0.793
539.957	0.79
548.8	0.781
557.642	0.769
566.485	0.74
575.328	0.726
584.171	0.728
593.014	0.726
601.857	0.742
610.699	0.763
619.542	0.816
628.385	0.826
637.228	0.836
646.071	0.846
654.914	0.856
663.756	0.864
672.599	0.869
681.442	0.877
690.285	0.887
699.128	0.897
707.971	0.899
716.813	0.899
725.656	0.899
734.499	0.902
743.342	0.896
752.185	0.893
761.028	0.895
769.87	0.868
778.713	0.824
787.556	0.732
796.399	0.614
805.242	0.534
814.084	0.7439
822.927	0.836
831.77	0.852
840.613	0.834
849.456	0.6451
858.299	0.563
867.141	0.775
875.984	0.852
884.827	0.806
893.67	0.793
902.513	0.889
911.356	0.915
920.198	0.922
929.041	0.922
937.884	0.918
946.727	0.908
955.57	0.903
964.413	0.873
973.255	0.813
982.098	0.754
990.941	0.767
999.784	0.771
1008.63	0.746
1017.47	0.5691
1026.31	0.174
1035.16	0.148
1044	0.467
1052.84	0.488
1061.68	0.316
1070.53	0.154
1079.37	0.096
1088.21	0.253
1097.05	0.315
1105.9	0.42
1114.74	0.497
1123.58	0.582
1132.43	0.555
1141.27	0.479
1150.11	0.316
1158.95	0.1269
1167.8	0.03
1176.64	0
1185.48	0.004
1194.33	0.014
1203.17	0.065
1212.01	0.122
1220.85	0.2
1229.7	0.287
1238.54	0.339
1247.38	0.332
1256.23	0.289
1265.07	0.238
1273.91	0.319
1282.75	0.452
1291.6	0.468
1300.44	0.455
1309.28	0.496
1318.13	0.497
1326.97	0.35
1335.81	0.315
1344.65	0.115
1353.5	0.2838
1362.34	0.499
1371.18	0.0451
1380.03	0.255
1388.87	0.394
1397.71	0.459
1406.55	0.591
1415.4	0.577
1424.24	0.365
1433.08	0.4609
1441.93	0.422
1450.77	0.331
1459.61	0.283
1468.45	0.147
1477.3	0.39
1486.14	0.555
1494.98	0.7
1503.83	0.742
1512.67	0.774
1521.51	0.787
1530.35	0.805
1539.2	0.809
1548.04	0.81
1556.88	0.805
1565.72	0.804
1574.57	0.805
1583.41	0.801
1592.25	0.794
1601.1	0.787
1609.94	0.786
1618.78	0.783
1627.62	0.782
1636.47	0.777
1645.31	0.77
1654.15	0.743
1663	0.716
1671.84	0.699
1680.68	0.661
1689.52	0.605
1698.37	0.507
1707.21	0.445
1716.05	0.304
1724.9	0.048
1733.74	0
1742.58	0
1751.42	0.021
1760.27	0.2001
1769.11	0.401
1777.95	0.516
1786.8	0.608
1795.64	0.668
1804.48	0.716
1813.32	0.765
1822.17	0.795
1831.01	0.814
1839.85	0.826
1848.7	0.833
1857.54	0.837
1866.38	0.838
1875.22	0.834
1884.07	0.83
1892.91	0.826
1901.75	0.834
1910.6	0.834
1919.44	0.828
1928.28	0.826
1937.12	0.829
1945.97	0.833
1954.81	0.841
1963.65	0.846
1972.49	0.846
1981.34	0.849
1990.18	0.851
1999.02	0.853
2007.87	0.865
2016.71	0.864
2025.55	0.856
2034.39	0.8476
2043.24	0.844
2052.08	0.845
2060.92	0.8509
2069.77	0.8584
2078.61	0.8729
2087.45	0.8764
2096.29	0.8799
2105.14	0.8846
2113.98	0.884
2122.82	0.884
2131.67	0.884
2140.51	0.885
2149.35	0.884
2158.19	0.881
2167.04	0.881
2175.88	0.88
2184.72	0.879
2193.57	0.8778
2202.41	0.88
2211.25	0.881
2220.09	0.881
2228.94	0.8783
2237.78	0.88
2246.62	0.8804
2255.47	0.88
2264.31	0.88
2273.15	0.88
2281.99	0.8817
2290.84	0.8848
2299.68	0.888
2308.52	0.8872
2317.37	0.879
2326.21	0.8722
2335.05	0.871
2343.89	0.869
2352.74	0.8677
2361.58	0.8632
2370.42	0.8649
2379.27	0.8688
2388.11	0.871
2396.95	0.8766
2405.79	0.88
2414.64	0.88
2423.48	0.881
2432.32	0.8808
2441.16	0.883
2450.01	0.881
2458.85	0.8785
2467.69	0.8797
2476.54	0.88
2485.38	0.88
2494.22	0.88
2503.06	0.8803
2511.91	0.88
2520.75	0.88
2529.59	0.8774
2538.44	0.879
2547.28	0.8774
2556.12	0.877
2564.96	0.877
2573.81	0.8784
2582.65	0.877
2591.49	0.876
2600.34	0.873
2609.18	0.8743
2618.02	0.8758
2626.86	0.873
2635.71	0.8751
2644.55	0.881
2653.39	0.881
2662.24	0.88
2671.08	0.879
2679.92	0.879
2688.76	0.877
2697.61	0.8724
2706.45	0.8689
2715.29	0.865
2724.14	0.8597
2732.98	0.8514
2741.82	0.849
2750.66	0.8502
2759.51	0.8508
2768.35	0.845
2777.19	0.845
2786.04	0.848
2794.88	0.8379
2803.72	0.8249
2812.56	0.8167
2821.41	0.7948
2830.25	0.7699
2839.09	0.763
2847.93	0.761
2856.78	0.7439
2865.62	0.6967
2874.46	0.5771
2883.31	0.473
2892.15	0.4905
2900.99	0.4571
2909.83	0.41
2918.68	0.441
2927.52	0.3572
2936.36	0.2614
2945.21	0.1829
2954.05	0.3118
2962.89	0.2784
2971.73	0.2177
2980.58	0.0479
2989.42	0.0642
2998.26	0.1729
3007.11	0.3886
3015.95	0.5617
3024.79	0.6922
3033.63	0.7517
3042.48	0.7901
3051.32	0.8157
3060.16	0.8298
3069.01	0.8422
3077.85	0.8519
3086.69	0.856
3095.53	0.857
3104.38	0.8634
3113.22	0.867
3122.06	0.873
3130.91	0.8689
3139.75	0.8724
3148.59	0.873
3157.43	0.873
3166.28	0.873
3175.12	0.873
3183.96	0.8747
3192.81	0.8763
3201.65	0.879
3210.49	0.881
3219.33	0.883
3228.18	0.8833
3237.02	0.887
3245.86	0.8873
3254.7	0.888
3263.55	0.888
3272.39	0.887
3281.23	0.885
3290.08	0.885
3298.92	0.8847
3307.76	0.88
3316.6	0.877
3325.45	0.877
3334.29	0.876
3343.13	0.8758
3351.98	0.8753
3360.82	0.875
3369.66	0.875
3378.5	0.876
3387.35	0.875
3396.19	0.873
3405.03	0.869
3413.88	0.8696
3422.72	0.8638
3431.56	0.8502
3440.4	0.8314
3449.25	0.8139
3458.09	0.808
3466.93	0.815
3475.78	0.8505
3484.62	0.8663
3493.46	0.868
3502.3	0.8687
3511.15	0.8678
3519.99	0.8657
3528.83	0.861
3537.68	0.861
3546.52	0.8631
3555.36	0.8646
3564.2	0.8681
3573.05	0.8749
3581.89	0.8812
3590.73	0.883
3599.58	0.884
3608.42	0.884
3617.26	0.884
3626.1	0.883
3634.95	0.884
3643.79	0.884
3652.63	0.8849
3661.48	0.8818
3670.32	0.8798
3679.16	0.8653
3688	0.8693
3696.85	0.8836
3705.69	0.891
3714.53	0.891
3723.37	0.892
3732.22	0.892
3741.06	0.892
3749.9	0.892
3758.75	0.892
3767.59	0.891
3776.43	0.891
3785.27	0.891
3794.12	0.891
