Infrared Spectrum: 1,4-Diethylbenzene
Formula: C10 H14
CAS: 105-05-5
State: SOLUTION (10% CCl4 FOR 3800-1330, 2% CS2 FOR 1330-400)
Class: COBLENTZ III
Instrument: BECKMAN IR-9 (GRATING)
Instrument parameters: ORDER CHANGES: 670, 1200, 2000 CM^-^1
Sampling: TRANSMISSION
Path length: 0.011 CM, 0.011 CM
Resolution: 2
Origin: DOW CHEMICAL COMPANY
1/CM	TRANSMITTANCE
3814	0.8961
3805	0.8962
3796	0.8956
3787	0.8953
3778	0.8959
3769	0.8967
3760	0.8981
3751	0.8983
3742	0.8979
3733	0.8973
3724	0.898
3715	0.8977
3706	0.8983
3697	0.8977
3688	0.8939
3679	0.8925
3670	0.8958
3661	0.8968
3652	0.8976
3643	0.898
3634	0.8984
3625	0.8999
3616	0.9004
3607	0.9008
3598	0.9005
3589	0.9011
3580	0.9011
3571	0.9
3562	0.9001
3553	0.9005
3544	0.901
3535	0.9017
3526	0.9007
3517	0.9007
3508	0.9001
3499	0.8995
3490	0.8991
3481	0.8986
3472	0.8982
3463	0.8977
3454	0.8972
3445	0.8967
3436	0.8964
3427	0.8963
3418	0.896
3409	0.8959
3400	0.8963
3391	0.8967
3382	0.8971
3373	0.8975
3364	0.8978
3355	0.898
3346	0.8985
3337	0.9003
3328	0.9
3319	0.9006
3310	0.9023
3301	0.9017
3292	0.9024
3283	0.9036
3274	0.9033
3265	0.9027
3256	0.901
3247	0.9009
3238	0.8992
3229	0.8968
3220	0.8965
3211	0.8954
3202	0.888
3193	0.8851
3184	0.8825
3175	0.8825
3166	0.8823
3157	0.8794
3148	0.8712
3139	0.8697
3130	0.8729
3121	0.8712
3112	0.8581
3103	0.8025
3094	0.7529
3085	0.7968
3076	0.8006
3067	0.7506
3058	0.5718
3049	0.6071
3040	0.6435
3031	0.529
3022	0.4162
3013	0.4187
3004	0.4843
2995	0.4959
2986	0.371
2977	0.0339
2968	0.0598
2959	0.1946
2950	0.3151
2941	0.1273
2932	0.1307
2923	0.2356
2914	0.3796
2905	0.4009
2896	0.3612
2887	0.4383
2878	0.2232
2869	0.3195
2860	0.3896
2851	0.53
2842	0.6574
2833	0.755
2824	0.8049
2815	0.8412
2806	0.866
2797	0.8693
2788	0.8676
2779	0.8705
2770	0.8754
2761	0.8803
2752	0.8845
2743	0.8849
2734	0.8799
2725	0.8813
2716	0.8968
2707	0.8991
2698	0.8991
2689	0.8998
2680	0.9024
2671	0.9048
2662	0.9059
2653	0.9048
2644	0.8981
2635	0.8878
2626	0.8907
2617	0.9003
2608	0.9
2599	0.9003
2590	0.9046
2581	0.9077
2572	0.9093
2563	0.9091
2554	0.9085
2545	0.9076
2536	0.9059
2527	0.9068
2518	0.908
2509	0.9094
2500	0.9105
2491	0.9115
2482	0.9126
2473	0.9146
2464	0.9154
2455	0.9118
2446	0.9088
2437	0.9058
2428	0.907
2419	0.9073
2410	0.9071
2401	0.9078
2392	0.9078
2383	0.9098
2374	0.9131
2365	0.9107
2356	0.9119
2347	0.9106
2338	0.9072
2329	0.9067
2320	0.9036
2311	0.895
2302	0.8954
2293	0.9024
2284	0.9056
2275	0.9051
2266	0.9057
2257	0.9052
2248	0.9054
2239	0.9065
2230	0.9076
2221	0.9089
2212	0.9114
2203	0.9142
2194	0.9173
2185	0.9162
2176	0.9131
2167	0.9117
2158	0.9137
2149	0.9145
2140	0.9154
2131	0.9162
2122	0.9159
2113	0.9171
2104	0.9173
2095	0.9175
2086	0.9176
2077	0.9169
2068	0.9123
2059	0.9112
2050	0.9109
2041	0.9069
2032	0.9033
2023	0.901
2014	0.9028
2005	0.9057
1996	0.8794
1987	0.9049
1978	0.9042
1969	0.9035
1960	0.9041
1951	0.9087
1942	0.9082
1933	0.9053
1924	0.9013
1915	0.8956
1906	0.8749
1897	0.7371
1888	0.8197
1879	0.8828
1870	0.8968
1861	0.8968
1852	0.8975
1843	0.8985
1834	0.8996
1825	0.9005
1816	0.9011
1807	0.8961
1798	0.8813
1789	0.8462
1780	0.8876
1771	0.8886
1762	0.8891
1753	0.9005
1744	0.9047
1735	0.9054
1726	0.9041
1717	0.9018
1708	0.9017
1699	0.8995
1690	0.8942
1681	0.8884
1672	0.8747
1663	0.8275
1654	0.8549
1645	0.8803
1636	0.883
1627	0.8807
1618	0.8746
1609	0.8739
1600	0.8599
1591	0.829
1582	0.784
1573	0.7722
1564	0.7536
1555	0.7041
1546	0.7104
1537	0.7411
1528	0.7264
1519	0.5183
1510	0.3533
1501	0.6897
1492	0.7751
1483	0.7677
1474	0.7362
1465	0.4887
1456	0.3623
1447	0.4529
1438	0.6255
1429	0.7188
1420	0.6329
1411	0.753
1402	0.8109
1393	0.8172
1384	0.8044
1375	0.679
1366	0.8062
1357	0.851
1348	0.8482
1339	0.8208
1330	0.7907
1321	0.7564
1312	0.7777
1303	0.8206
1294	0.8421
1285	0.8646
1276	0.8926
1267	0.905
1258	0.9101
1249	0.9052
1240	0.8917
1231	0.9094
1222	0.9197
1213	0.9147
1204	0.9033
1195	0.9026
1186	0.8921
1177	0.888
1168	0.9227
1159	0.931
1150	0.928
1141	0.9201
1132	0.9035
1123	0.8278
1114	0.6867
1105	0.8834
1096	0.8955
1087	0.8911
1078	0.8752
1069	0.8455
1060	0.6
1051	0.7548
1042	0.8233
1033	0.7957
1024	0.8268
1015	0.7537
1006	0.9086
997	0.9159
988	0.9105
979	0.8833
970	0.7978
961	0.8079
952	0.8828
943	0.9113
934	0.9173
925	0.9375
916	0.9441
907	0.9414
898	0.9378
889	0.9289
880	0.8995
871	0.8588
862	0.8331
853	0.8142
844	0.7373
835	0.4287
826	0.0485
817	0.4876
808	0.7699
799	0.7967
790	0.8164
781	0.824
772	0.8539
763	0.8835
754	0.9073
745	0.9268
736	0.9332
727	0.9327
718	0.9283
709	0.9204
700	0.8815
691	0.91
682	0.9505
673	0.9527
664	0.9425
655	0.9089
646	0.9096
637	0.9223
628	0.9404
619	0.949
610	0.9507
601	0.9452
592	0.9369
583	0.9138
574	0.8424
565	0.6138
556	0.6922
547	0.5886
538	0.5648
529	0.7449
520	0.8432
511	0.8664
502	0.8654
493	0.8541
484	0.8428
475	0.8288
466	0.7967
457	0.7486
448	0.7359
439	0.6974
430	0.6374
421	0.5191
412	0.37
403	0.4013
