Infrared Spectrum: Butane
Formula: C4 H10
CAS: 106-97-8
State: gas
Melting point: -138.35 C
Boiling point: -0.5 C
Class: IUPAC A
Instrument: IFS66V (Bruker)
Instrument parameters: KBr Beam Splitter; MCT Detector; Multipass cell
Sampling: 1 L/min Flow
Resolution: 0.2410
Temperature: 23 C
Pressure: 101.3 Pa
Origin: NIST, Analytical Chemistry Division, 301-975-3108
cm-1	(micromol/mol)-1m-1 (base 10)
575.05	-9.38692e-07
583.608	3.43055e-07
592.165	1.3141e-07
600.723	-1.42371e-07
609.281	-8.05171e-08
617.838	-1.83601e-07
626.396	-1.26853e-07
634.954	-7.05073e-08
643.511	1.64718e-08
652.069	-4.52189e-08
660.626	-8.97694e-08
669.184	-9.78247e-08
677.742	2.43212e-07
686.299	5.43277e-07
694.857	9.72475e-07
703.415	2.07187e-06
711.972	3.45153e-06
720.53	5.04447e-06
729.088	6.85826e-06
737.645	8.47567e-06
746.203	9.31346e-06
754.761	8.11644e-06
763.318	6.63792e-06
771.876	3.97502e-06
780.434	3.01562e-06
788.991	1.78115e-06
797.549	1.89893e-06
806.106	1.13497e-06
814.664	5.5543e-07
823.222	1.71467e-07
831.779	5.56062e-09
840.337	-1.4249e-07
848.895	-6.14342e-08
857.452	3.77366e-08
866.01	-2.17414e-08
874.568	1.50821e-08
883.125	4.47069e-08
891.683	-5.13089e-08
900.241	-1.10124e-07
908.798	1.47338e-07
917.356	3.76132e-07
925.914	1.11458e-06
934.471	2.85353e-06
943.029	6.97377e-06
951.586	1.20484e-05
960.144	1.57122e-05
968.702	1.88656e-05
977.259	1.49657e-05
985.817	9.92091e-06
994.375	6.13251e-06
1002.93	2.96745e-06
1011.49	1.62453e-06
1020.05	8.48575e-07
1028.61	4.53567e-07
1037.16	3.81865e-07
1045.72	1.05746e-07
1054.28	1.02042e-07
1062.84	1.20448e-07
1071.39	2.12462e-07
1079.95	1.56022e-07
1088.51	2.76436e-07
1097.07	2.21014e-07
1105.62	3.64824e-07
1114.18	8.96451e-07
1122.74	2.40688e-06
1131.3	2.786e-06
1139.85	2.07646e-06
1148.41	2.00894e-06
1156.97	5.5964e-07
1165.53	1.32486e-07
1174.09	2.15756e-07
1182.64	2.06178e-07
1191.2	1.98454e-07
1199.76	1.16365e-07
1208.32	3.13541e-07
1216.87	3.3561e-07
1225.43	4.34474e-07
1233.99	7.07249e-07
1242.55	9.78992e-07
1251.1	1.45727e-06
1259.66	1.64402e-06
1268.22	2.23972e-06
1276.78	4.10421e-06
1285.33	8.18632e-06
1293.89	9.21727e-06
1302.45	8.65066e-06
1311.01	3.62147e-06
1319.57	1.70539e-06
1328.12	3.32578e-06
1336.68	4.20581e-06
1345.24	3.5143e-06
1353.8	6.62164e-06
1362.35	7.94669e-06
1370.91	1.96477e-05
1379.47	2.62943e-05
1388.03	2.68889e-05
1396.58	3.39245e-05
1405.14	1.2733e-05
1413.7	8.04384e-06
1422.26	8.90091e-06
1430.81	1.47632e-05
1439.37	2.84852e-05
1447.93	4.64814e-05
1456.49	5.97283e-05
1465.05	8.52846e-05
1473.6	6.05152e-05
1482.16	5.82237e-05
1490.72	3.8412e-05
1499.28	2.25902e-05
1507.83	1.20892e-05
1516.39	6.21954e-06
1524.95	2.92194e-06
1533.51	1.48827e-06
1542.06	1.24742e-06
1550.62	8.96596e-07
1559.18	1.17511e-06
1567.74	1.41076e-06
1576.29	1.99133e-06
1584.85	1.46628e-06
1593.41	1.29797e-06
1601.97	9.96023e-07
1610.53	8.72084e-07
1619.08	9.1862e-07
1627.64	1.00493e-06
1636.2	1.14264e-06
1644.76	1.06429e-06
1653.31	1.88551e-06
1661.87	1.33106e-06
1670.43	1.52761e-06
1678.99	1.27042e-06
1687.54	1.26481e-06
1696.1	1.44541e-06
1704.66	1.13218e-06
1713.22	1.0775e-06
1721.77	1.00305e-06
1730.33	8.08317e-07
1738.89	4.94957e-07
1747.45	3.60072e-07
1756.01	2.8442e-07
1764.56	2.23943e-07
1773.12	2.81716e-07
1781.68	3.07354e-07
1790.24	3.41431e-07
1798.79	3.602e-07
1807.35	3.59951e-07
1815.91	3.89094e-07
1824.47	2.75901e-07
1833.02	1.46177e-07
1841.58	5.8844e-08
1850.14	2.12593e-08
1858.7	-2.29919e-09
1867.25	2.28337e-08
1875.81	9.05397e-08
1884.37	1.55572e-07
1892.93	3.43072e-07
1901.49	4.81478e-07
1910.04	4.46843e-07
1918.6	4.8705e-07
1927.16	3.62158e-07
1935.72	3.35508e-07
1944.27	2.14279e-07
1952.83	1.24948e-07
1961.39	2.48e-08
1969.95	-5.39937e-08
1978.5	-4.2214e-08
1987.06	-8.6578e-08
1995.62	-2.16422e-08
2004.18	2.62779e-08
2012.73	8.25817e-08
2021.29	3.12016e-07
2029.85	6.3175e-07
2038.41	6.47932e-07
2046.97	6.9835e-07
2055.52	3.59182e-07
2064.08	2.07977e-07
2072.64	1.57786e-07
2081.2	1.79856e-07
2089.75	2.5593e-07
2098.31	3.15217e-07
2106.87	4.11332e-07
2115.43	5.9631e-07
2123.98	5.89435e-07
2132.54	5.73197e-07
2141.1	6.50065e-07
2149.66	6.03545e-07
2158.21	7.96767e-07
2166.77	6.89185e-07
2175.33	6.82438e-07
2183.89	6.28158e-07
2192.45	6.43882e-07
2201	7.13307e-07
2209.56	7.93491e-07
2218.12	6.33945e-07
2226.68	6.31277e-07
2235.23	4.93888e-07
2243.79	4.09916e-07
2252.35	4.63254e-07
2260.91	5.81549e-07
2269.46	5.73038e-07
2278.02	6.72176e-07
2286.58	7.84584e-07
2295.14	8.22732e-07
2303.69	9.82238e-07
2312.25	9.31364e-07
2320.81	7.79955e-07
2329.37	9.45328e-07
2337.93	9.00127e-07
2346.48	1.14343e-06
2355.04	1.0523e-06
2363.6	9.53383e-07
2372.16	1.23392e-06
2380.71	1.59873e-06
2389.27	1.53121e-06
2397.83	1.72581e-06
2406.39	1.11106e-06
2414.94	1.48729e-06
2423.5	1.61952e-06
2432.06	1.95042e-06
2440.62	1.81603e-06
2449.17	1.60692e-06
2457.73	1.00583e-06
2466.29	6.39299e-07
2474.85	3.71664e-07
2483.41	2.80157e-07
2491.96	2.10797e-07
2500.52	2.42141e-07
2509.08	3.56835e-07
2517.64	5.1026e-07
2526.19	7.8012e-07
2534.75	7.394e-07
2543.31	7.28285e-07
2551.87	5.76249e-07
2560.42	6.76371e-07
2568.98	9.56002e-07
2577.54	1.50125e-06
2586.1	2.11877e-06
2594.65	3.08975e-06
2603.21	3.56804e-06
2611.77	3.94607e-06
2620.33	4.13025e-06
2628.89	4.34331e-06
2637.44	4.58753e-06
2646	4.2399e-06
2654.56	4.81303e-06
2663.12	4.3382e-06
2671.67	3.90049e-06
2680.23	4.40947e-06
2688.79	3.43425e-06
2697.35	3.03553e-06
2705.9	3.42639e-06
2714.46	4.50532e-06
2723.02	6.1331e-06
2731.58	9.02129e-06
2740.13	9.62474e-06
2748.69	1.0591e-05
2757.25	9.19916e-06
2765.81	6.37974e-06
2774.37	5.81984e-06
2782.92	6.45434e-06
2791.48	7.00588e-06
2800.04	8.60857e-06
2808.6	1.12364e-05
2817.15	1.54808e-05
2825.71	2.30727e-05
2834.27	3.24895e-05
2842.83	5.05377e-05
2851.38	7.96231e-05
2859.94	0.000129374
2868.5	0.000175952
2877.06	0.000285221
2885.61	0.000245402
2894.17	0.000282603
2902.73	0.000236335
2911.29	0.000239359
2919.85	0.000290228
2928.4	0.000372214
2936.96	0.000434142
2945.52	0.000475878
2954.08	0.000551627
2962.63	0.000659147
2971.19	0.000578393
2979.75	0.000570914
2988.31	0.000362984
2996.86	0.000158184
3005.42	6.72098e-05
3013.98	2.69388e-05
3022.54	1.2564e-05
3031.09	8.14707e-06
3039.65	6.87189e-06
3048.21	6.36051e-06
3056.77	6.32064e-06
3065.33	6.89554e-06
3073.88	7.70102e-06
3082.44	7.65371e-06
3091	7.33284e-06
3099.56	5.94773e-06
3108.11	4.65799e-06
3116.67	4.11294e-06
3125.23	3.898e-06
3133.79	4.202e-06
3142.34	4.82036e-06
3150.9	5.34762e-06
3159.46	6.41191e-06
3168.02	6.9653e-06
3176.57	7.17125e-06
3185.13	6.99294e-06
3193.69	5.81237e-06
3202.25	4.80655e-06
3210.81	4.12085e-06
3219.36	3.93711e-06
3227.92	3.73478e-06
3236.48	3.02014e-06
3245.04	2.20599e-06
3253.59	1.22179e-06
3262.15	7.36245e-07
3270.71	6.52819e-07
3279.27	6.62985e-07
3287.82	6.88001e-07
3296.38	6.41723e-07
3304.94	5.82753e-07
3313.5	3.6769e-07
3322.05	4.17029e-07
3330.61	4.21919e-07
3339.17	5.54598e-07
3347.73	6.87443e-07
3356.29	7.84719e-07
3364.84	6.79957e-07
3373.4	7.45302e-07
3381.96	9.81643e-07
3390.52	1.15031e-06
3399.07	1.08962e-06
3407.63	9.38877e-07
3416.19	6.74536e-07
3424.75	2.8113e-07
3433.3	1.40484e-07
3441.86	1.22119e-07
3450.42	6.24238e-08
3458.98	1.34408e-07
3467.53	7.82098e-08
3476.09	-1.50002e-08
3484.65	5.08478e-08
3493.21	9.52627e-08
3501.77	5.21556e-08
3510.32	1.23481e-08
3518.88	5.70041e-08
3527.44	6.48003e-08
3536	8.86271e-08
3544.55	6.11623e-08
3553.11	4.27788e-08
3561.67	9.3702e-08
3570.23	7.73066e-08
3578.78	1.27646e-07
3587.34	1.64985e-07
3595.9	2.7937e-07
3604.46	4.68676e-07
3613.01	5.52452e-07
3621.57	6.94414e-07
3630.13	7.91751e-07
3638.69	7.96367e-07
3647.25	8.78802e-07
3655.8	7.77967e-07
3664.36	7.53269e-07
3672.92	8.96501e-07
3681.48	9.48011e-07
3690.03	9.50163e-07
3698.59	9.96855e-07
3707.15	1.01016e-06
3715.71	1.15576e-06
3724.26	1.21595e-06
3732.82	1.22633e-06
3741.38	1.08964e-06
3749.94	6.79433e-07
3758.49	5.85316e-07
3767.05	4.80203e-07
3775.61	5.0945e-07
3784.17	5.81693e-07
3792.73	4.39427e-07
3801.28	8.55732e-07
3809.84	5.17809e-07
3818.4	5.89315e-07
3826.96	8.3151e-07
3835.51	1.24872e-06
3844.07	1.46742e-06
3852.63	1.87559e-06
3861.19	1.75168e-06
3869.74	1.52902e-06
3878.3	1.28984e-06
3886.86	1.07173e-06
3895.42	9.63516e-07
3903.97	9.65786e-07
3912.53	7.27637e-07
3921.09	6.84664e-07
3929.65	6.52354e-07
3938.21	5.2809e-07
3946.76	4.92295e-07
3955.32	5.37265e-07
3963.88	5.35925e-07
3972.44	4.71823e-07
