Infrared Spectrum: 1,4-Dimethylbenzene
Formula: 1,4-( C H3)2 C6 H4
CAS: 106-42-3
State: gas
Melting point: 13.26 C
Boiling point: 138.35 C
Class: IUPAC A
Instrument: IFS66V (Bruker)
Instrument parameters: KBr Beam Splitter; MCT Detector; Multipass cell
Sampling: 1 L/min Flow
Resolution: 0.2410
Temperature: 23 C
Pressure: 101.3 Pa
Origin: NIST, Analytical Chemistry Division, 301-975-3108
cm-1	(micromol/mol)-1m-1 (base 10)
575.05	7.30888e-07
583.608	-4.09838e-07
592.165	7.87629e-07
600.723	-2.48318e-07
609.281	-7.29809e-07
617.838	2.41357e-07
626.396	-7.58334e-07
634.954	-4.4316e-07
643.511	-1.65966e-07
652.069	-8.17647e-07
660.626	1.92192e-07
669.184	-9.04101e-07
677.742	-2.55493e-07
686.299	1.06181e-07
694.857	2.07881e-07
703.415	1.55481e-07
711.972	-2.66198e-07
720.53	2.79853e-07
729.088	1.56783e-07
737.645	2.58816e-07
746.203	9.73664e-08
754.761	9.19342e-07
763.318	3.7577e-06
771.876	2.35063e-05
780.434	9.99849e-05
788.991	0.000171481
797.549	0.000187309
806.106	0.000150192
814.664	4.46901e-05
823.222	8.12337e-06
831.779	4.52268e-06
840.337	3.0666e-06
848.895	1.14351e-06
857.452	7.02215e-07
866.01	8.63002e-07
874.568	1.26537e-06
883.125	8.71633e-07
891.683	1.37024e-06
900.241	1.32714e-06
908.798	1.62832e-06
917.356	2.60932e-06
925.914	2.87204e-06
934.471	2.49353e-06
943.029	2.69689e-06
951.586	3.41002e-06
960.144	4.19713e-06
968.702	4.4815e-06
977.259	4.63653e-06
985.817	4.6903e-06
994.375	4.79315e-06
1002.93	4.87312e-06
1011.49	7.04496e-06
1020.05	2.17272e-05
1028.61	2.69237e-05
1037.16	1.73223e-05
1045.72	2.48882e-05
1054.28	2.34371e-05
1062.84	1.73257e-05
1071.39	1.13471e-05
1079.95	8.76751e-06
1088.51	1.19564e-05
1097.07	1.91373e-05
1105.62	2.57515e-05
1114.18	4.0818e-05
1122.74	3.2075e-05
1131.3	1.98517e-05
1139.85	7.35892e-06
1148.41	3.93589e-06
1156.97	3.1776e-06
1165.53	3.33231e-06
1174.09	3.36538e-06
1182.64	3.31366e-06
1191.2	2.98104e-06
1199.76	2.57282e-06
1208.32	5.30271e-06
1216.87	1.34323e-05
1225.43	1.74392e-05
1233.99	1.38502e-05
1242.55	1.24849e-05
1251.1	5.28824e-06
1259.66	3.30025e-06
1268.22	2.96822e-06
1276.78	2.36598e-06
1285.33	2.40431e-06
1293.89	2.45412e-06
1302.45	3.24145e-06
1311.01	4.93475e-06
1319.57	5.35137e-06
1328.12	6.23448e-06
1336.68	6.80998e-06
1345.24	8.78057e-06
1353.8	8.56757e-06
1362.35	7.71081e-06
1370.91	9.89615e-06
1379.47	1.96623e-05
1388.03	2.58572e-05
1396.58	1.70356e-05
1405.14	1.72737e-05
1413.7	2.26323e-05
1422.26	3.13048e-05
1430.81	3.59695e-05
1439.37	3.62239e-05
1447.93	2.83879e-05
1456.49	3.24673e-05
1465.05	3.98146e-05
1473.6	4.16995e-05
1482.16	3.83147e-05
1490.72	4.02824e-05
1499.28	5.31459e-05
1507.83	8.63291e-05
1516.39	0.000229423
1524.95	0.000240087
1533.51	5.69119e-05
1542.06	1.94831e-05
1550.62	1.50523e-05
1559.18	1.17002e-05
1567.74	9.2518e-06
1576.29	5.46208e-06
1584.85	5.31289e-06
1593.41	5.18642e-06
1601.97	5.78302e-06
1610.53	8.88564e-06
1619.08	1.58702e-05
1627.64	1.40628e-05
1636.2	1.1501e-05
1644.76	4.47883e-06
1653.31	4.97371e-07
1661.87	2.06483e-06
1670.43	1.45649e-06
1678.99	9.15407e-07
1687.54	1.02126e-06
1696.1	-1.21115e-07
1704.66	7.43474e-07
1713.22	1.35354e-06
1721.77	3.11642e-06
1730.33	2.8844e-06
1738.89	2.20838e-06
1747.45	3.20094e-06
1756.01	3.46877e-06
1764.56	2.85573e-06
1773.12	3.61184e-06
1781.68	1.00886e-05
1790.24	1.21687e-05
1798.79	5.97638e-06
1807.35	1.44607e-06
1815.91	9.62406e-07
1824.47	1.28084e-06
1833.02	3.29031e-06
1841.58	4.11946e-06
1850.14	2.76437e-06
1858.7	1.9893e-06
1867.25	4.36381e-06
1875.81	1.09119e-05
1884.37	2.1198e-05
1892.93	2.16523e-05
1901.49	9.80468e-06
1910.04	3.50153e-06
1918.6	2.25607e-06
1927.16	2.11803e-06
1935.72	1.35224e-06
1944.27	7.70504e-07
1952.83	1.02871e-06
1961.39	7.67911e-07
1969.95	9.87085e-07
1978.5	1.24491e-06
1987.06	1.33058e-06
1995.62	1.23625e-06
2004.18	9.39295e-07
2012.73	6.3887e-07
2021.29	4.2464e-07
2029.85	2.62733e-07
2038.41	2.45591e-07
2046.97	1.87211e-07
2055.52	4.61475e-08
2064.08	-5.19846e-08
2072.64	9.25797e-08
2081.2	1.11756e-07
2089.75	5.25883e-07
2098.31	1.55469e-06
2106.87	1.72388e-06
2115.43	1.50408e-06
2123.98	3.66633e-07
2132.54	-1.50786e-07
2141.1	-2.88213e-07
2149.66	-2.04177e-07
2158.21	1.30931e-06
2166.77	1.41101e-07
2175.33	1.22795e-07
2183.89	-1.70566e-08
2192.45	2.16013e-08
2201	4.13956e-07
2209.56	1.14802e-06
2218.12	6.00074e-07
2226.68	-3.44488e-08
2235.23	7.61607e-09
2243.79	-1.93117e-07
2252.35	-6.45911e-08
2260.91	9.05552e-08
2269.46	4.17795e-07
2278.02	4.73749e-07
2286.58	7.38411e-07
2295.14	1.52049e-06
2303.69	2.24308e-06
2312.25	2.7298e-06
2320.81	1.4702e-06
2329.37	1.45174e-06
2337.93	2.65471e-06
2346.48	2.14741e-06
2355.04	1.05127e-06
2363.6	6.89111e-07
2372.16	3.68896e-07
2380.71	6.42786e-07
2389.27	6.04711e-07
2397.83	5.24347e-07
2406.39	1.03092e-06
2414.94	1.42393e-06
2423.5	1.51302e-06
2432.06	1.44966e-06
2440.62	1.24278e-06
2449.17	9.6601e-07
2457.73	8.16649e-07
2466.29	6.76584e-07
2474.85	9.59367e-07
2483.41	7.13778e-07
2491.96	7.89725e-07
2500.52	5.26159e-07
2509.08	3.2965e-07
2517.64	3.69359e-07
2526.19	2.78993e-07
2534.75	1.1233e-07
2543.31	3.19899e-07
2551.87	-5.91105e-08
2560.42	5.22902e-08
2568.98	2.69009e-08
2577.54	1.16325e-06
2586.1	2.77693e-06
2594.65	3.4352e-06
2603.21	1.69256e-06
2611.77	1.14237e-06
2620.33	3.91224e-07
2628.89	7.65963e-08
2637.44	3.54502e-07
2646	1.23782e-07
2654.56	5.02539e-08
2663.12	-2.00511e-07
2671.67	-1.2116e-07
2680.23	-2.65971e-07
2688.79	-2.72138e-07
2697.35	1.16057e-07
2705.9	1.07856e-06
2714.46	1.75648e-06
2723.02	2.20607e-06
2731.58	5.26794e-06
2740.13	1.45478e-05
2748.69	1.68555e-05
2757.25	3.30281e-06
2765.81	1.3418e-06
2774.37	1.05201e-06
2782.92	1.08803e-06
2791.48	2.018e-06
2800.04	2.76938e-06
2808.6	3.53577e-06
2817.15	5.47937e-06
2825.71	7.95906e-06
2834.27	1.16115e-05
2842.83	1.53838e-05
2851.38	2.17249e-05
2859.94	4.30863e-05
2868.5	0.00010066
2877.06	0.000153373
2885.61	0.000151515
2894.17	0.000123439
2902.73	0.000105302
2911.29	9.67821e-05
2919.85	0.000133807
2928.4	0.000245897
2936.96	0.000305487
2945.52	0.000230273
2954.08	0.000118793
2962.63	9.54222e-05
2971.19	7.34359e-05
2979.75	8.77539e-05
2988.31	0.000115476
2996.86	0.0001667
3005.42	0.000209709
3013.98	0.000196532
3022.54	0.00023849
3031.09	0.000229525
3039.65	0.000164768
3048.21	0.000155475
3056.77	0.000147893
3065.33	0.000117859
3073.88	5.70579e-05
3082.44	2.9693e-05
3091	2.54086e-05
3099.56	2.74578e-05
3108.11	2.63847e-05
3116.67	1.69182e-05
3125.23	7.24471e-06
3133.79	6.51353e-06
3142.34	9.38494e-06
3150.9	7.76077e-06
3159.46	2.01438e-06
3168.02	5.23349e-07
3176.57	1.08793e-08
3185.13	3.98438e-08
3193.69	-4.23489e-07
3202.25	-2.16689e-07
3210.81	-2.86301e-07
3219.36	-4.60384e-07
3227.92	-2.39929e-07
3236.48	-2.98302e-07
3245.04	1.0972e-07
3253.59	-1.17952e-07
3262.15	1.0838e-07
3270.71	-1.56067e-07
3279.27	3.69625e-07
3287.82	-1.06904e-07
3296.38	8.20496e-08
3304.94	-2.88809e-08
3313.5	2.91255e-08
3322.05	1.39179e-08
3330.61	-3.12104e-07
3339.17	-1.14916e-07
3347.73	-1.70838e-07
3356.29	-2.687e-08
3364.84	-2.60661e-07
3373.4	1.73304e-07
3381.96	4.03332e-08
3390.52	7.25782e-07
3399.07	2.07175e-07
3407.63	5.23512e-08
3416.19	-6.27312e-08
3424.75	2.5061e-08
3433.3	5.08588e-07
3441.86	2.86934e-07
3450.42	5.11368e-07
3458.98	8.20715e-08
3467.53	-4.19128e-07
3476.09	-2.3697e-07
3484.65	-1.40946e-07
3493.21	-6.24265e-08
3501.77	-2.51137e-07
3510.32	-2.67178e-07
3518.88	-4.74629e-07
3527.44	-4.30124e-07
3536	-2.6561e-07
3544.55	-2.67012e-07
3553.11	-5.72352e-07
3561.67	-5.43772e-07
3570.23	-3.21703e-07
3578.78	-4.28492e-07
3587.34	-3.07901e-07
3595.9	-2.09963e-07
3604.46	-3.80904e-07
3613.01	-5.08587e-09
3621.57	3.88161e-08
3630.13	-6.62836e-08
3638.69	6.79926e-08
3647.25	-8.64698e-08
3655.8	5.98692e-07
3664.36	9.1255e-07
3672.92	1.23715e-06
3681.48	1.05879e-06
3690.03	4.37699e-07
3698.59	3.65558e-07
3707.15	1.50757e-07
3715.71	1.30605e-07
3724.26	7.50784e-08
3732.82	1.60191e-07
3741.38	2.19704e-07
3749.94	5.188e-07
3758.49	8.86167e-07
3767.05	8.09704e-07
3775.61	6.32593e-07
3784.17	5.00256e-07
3792.73	2.52556e-07
3801.28	-7.3651e-07
3809.84	7.52068e-07
3818.4	8.21432e-07
3826.96	7.45623e-07
3835.51	1.40963e-06
3844.07	1.56925e-06
3852.63	1.5059e-06
3861.19	1.6098e-06
3869.74	1.53479e-06
3878.3	1.84919e-06
3886.86	2.14097e-06
3895.42	2.04896e-06
3903.97	2.04572e-06
3912.53	1.88384e-06
3921.09	2.21402e-06
3929.65	2.1052e-06
3938.21	2.18913e-06
3946.76	2.14147e-06
3955.32	1.92945e-06
3963.88	2.19832e-06
3972.44	2.29024e-06
