Infrared Spectrum: Butane
Formula: C4 H10
CAS: 106-97-8
State: gas
Melting point: -138.35 C
Boiling point: -0.5 C
Class: IUPAC A
Instrument: IFS66V (Bruker)
Instrument parameters: KBr Beam Splitter; MCT Detector; Multipass cell
Sampling: 1 L/min Flow
Resolution: 0.1250
Temperature: 23 C
Pressure: 101.3 Pa
Origin: NIST, Analytical Chemistry Division, 301-975-3108
cm-1	(micromol/mol)-1m-1 (base 10)
575.05	-1.02907e-06
583.608	4.64089e-07
592.165	1.43827e-07
600.723	-9.21795e-08
609.281	-7.03954e-08
617.838	-1.68486e-07
626.396	-1.60316e-08
634.954	-4.57628e-08
643.511	5.6784e-08
652.069	-1.21594e-07
660.626	-4.55136e-08
669.184	-6.92731e-08
677.742	2.8088e-07
686.299	5.81105e-07
694.857	8.65513e-07
703.415	2.09554e-06
711.972	3.44922e-06
720.53	5.11742e-06
729.088	6.84758e-06
737.645	8.46137e-06
746.203	9.28177e-06
754.761	8.12124e-06
763.318	6.6572e-06
771.876	3.98718e-06
780.434	3.01884e-06
788.991	1.73546e-06
797.549	1.90659e-06
806.106	1.1549e-06
814.664	5.5427e-07
823.222	1.45938e-07
831.779	3.80121e-08
840.337	-1.92507e-07
848.895	-5.48131e-08
857.452	-1.26483e-08
866.01	-1.96268e-09
874.568	2.478e-08
883.125	7.21171e-08
891.683	-3.86752e-08
900.241	-1.6214e-07
908.798	1.27623e-07
917.356	3.45515e-07
925.914	1.08469e-06
934.471	2.84482e-06
943.029	6.95316e-06
951.586	1.20578e-05
960.144	1.56936e-05
968.702	1.88968e-05
977.259	1.49973e-05
985.817	1.00266e-05
994.375	6.14777e-06
1002.93	2.92925e-06
1011.49	1.64836e-06
1020.05	8.24795e-07
1028.61	4.67958e-07
1037.16	4.0328e-07
1045.72	9.96801e-08
1054.28	1.03671e-07
1062.84	9.25242e-08
1071.39	2.29513e-07
1079.95	1.5697e-07
1088.51	2.47555e-07
1097.07	2.01902e-07
1105.62	3.72689e-07
1114.18	8.78852e-07
1122.74	2.39366e-06
1131.3	2.77053e-06
1139.85	2.07291e-06
1148.41	2.01211e-06
1156.97	5.75845e-07
1165.53	1.16903e-07
1174.09	2.42912e-07
1182.64	2.08747e-07
1191.2	2.13938e-07
1199.76	9.44878e-08
1208.32	3.22674e-07
1216.87	3.50726e-07
1225.43	4.11196e-07
1233.99	7.28248e-07
1242.55	9.80127e-07
1251.1	1.46045e-06
1259.66	1.62678e-06
1268.22	2.26106e-06
1276.78	4.09089e-06
1285.33	8.19713e-06
1293.89	9.26283e-06
1302.45	8.68962e-06
1311.01	3.59713e-06
1319.57	1.67215e-06
1328.12	3.31793e-06
1336.68	4.19756e-06
1345.24	3.41307e-06
1353.8	6.64623e-06
1362.35	7.88888e-06
1370.91	1.96447e-05
1379.47	2.63187e-05
1388.03	2.67942e-05
1396.58	3.40458e-05
1405.14	1.26882e-05
1413.7	8.01707e-06
1422.26	8.83633e-06
1430.81	1.47339e-05
1439.37	2.85565e-05
1447.93	4.66379e-05
1456.49	5.97227e-05
1465.05	8.54756e-05
1473.6	6.07458e-05
1482.16	5.83772e-05
1490.72	3.82269e-05
1499.28	2.26271e-05
1507.83	1.20541e-05
1516.39	6.22661e-06
1524.95	2.90542e-06
1533.51	1.48165e-06
1542.06	1.26728e-06
1550.62	8.78739e-07
1559.18	1.16206e-06
1567.74	1.43037e-06
1576.29	2.01281e-06
1584.85	1.45745e-06
1593.41	1.30103e-06
1601.97	9.81282e-07
1610.53	8.51995e-07
1619.08	9.04064e-07
1627.64	1.01169e-06
1636.2	1.15291e-06
1644.76	1.07252e-06
1653.31	2.0078e-06
1661.87	1.32856e-06
1670.43	1.54087e-06
1678.99	1.27075e-06
1687.54	1.26443e-06
1696.1	1.42923e-06
1704.66	1.11549e-06
1713.22	1.05426e-06
1721.77	9.98008e-07
1730.33	8.14484e-07
1738.89	4.64045e-07
1747.45	3.53574e-07
1756.01	2.89321e-07
1764.56	2.10557e-07
1773.12	2.71719e-07
1781.68	2.96868e-07
1790.24	3.44387e-07
1798.79	3.4388e-07
1807.35	3.41344e-07
1815.91	3.82742e-07
1824.47	2.76489e-07
1833.02	1.38222e-07
1841.58	4.4495e-08
1850.14	3.2638e-08
1858.7	-2.24935e-08
1867.25	1.96595e-08
1875.81	7.448e-08
1884.37	1.60264e-07
1892.93	3.53019e-07
1901.49	4.95196e-07
1910.04	4.22052e-07
1918.6	5.05874e-07
1927.16	3.34831e-07
1935.72	3.36331e-07
1944.27	2.12662e-07
1952.83	1.15314e-07
1961.39	3.67006e-08
1969.95	-5.82819e-08
1978.5	-1.52203e-08
1987.06	-9.64487e-08
1995.62	-2.71501e-08
2004.18	4.46787e-08
2012.73	9.319e-08
2021.29	3.28604e-07
2029.85	6.41387e-07
2038.41	6.24508e-07
2046.97	6.82302e-07
2055.52	3.52264e-07
2064.08	2.07306e-07
2072.64	1.59498e-07
2081.2	1.69639e-07
2089.75	2.52484e-07
2098.31	3.32329e-07
2106.87	4.1957e-07
2115.43	5.87866e-07
2123.98	5.63859e-07
2132.54	5.64298e-07
2141.1	6.40746e-07
2149.66	5.98938e-07
2158.21	8.24466e-07
2166.77	6.78e-07
2175.33	6.93887e-07
2183.89	6.10569e-07
2192.45	6.36168e-07
2201	7.17151e-07
2209.56	8.29459e-07
2218.12	6.18701e-07
2226.68	6.04011e-07
2235.23	4.88534e-07
2243.79	4.055e-07
2252.35	4.57043e-07
2260.91	5.97377e-07
2269.46	5.9175e-07
2278.02	6.92202e-07
2286.58	7.93643e-07
2295.14	8.30637e-07
2303.69	9.87267e-07
2312.25	9.31888e-07
2320.81	7.87857e-07
2329.37	9.4662e-07
2337.93	9.58298e-07
2346.48	1.16451e-06
2355.04	1.07007e-06
2363.6	9.92209e-07
2372.16	1.26298e-06
2380.71	1.58442e-06
2389.27	1.52969e-06
2397.83	1.74402e-06
2406.39	1.09337e-06
2414.94	1.47754e-06
2423.5	1.6136e-06
2432.06	1.98004e-06
2440.62	1.82062e-06
2449.17	1.61828e-06
2457.73	1.01946e-06
2466.29	6.44753e-07
2474.85	3.73002e-07
2483.41	2.84376e-07
2491.96	2.00784e-07
2500.52	2.47359e-07
2509.08	3.58434e-07
2517.64	4.8908e-07
2526.19	7.98104e-07
2534.75	7.41659e-07
2543.31	7.32106e-07
2551.87	5.7825e-07
2560.42	6.75183e-07
2568.98	9.46448e-07
2577.54	1.49781e-06
2586.1	2.10533e-06
2594.65	3.07511e-06
2603.21	3.56311e-06
2611.77	3.92436e-06
2620.33	4.1396e-06
2628.89	4.3375e-06
2637.44	4.58592e-06
2646	4.19608e-06
2654.56	4.81309e-06
2663.12	4.33041e-06
2671.67	3.89632e-06
2680.23	4.41092e-06
2688.79	3.42239e-06
2697.35	3.01707e-06
2705.9	3.39215e-06
2714.46	4.48306e-06
2723.02	6.11442e-06
2731.58	8.98671e-06
2740.13	9.5942e-06
2748.69	1.05546e-05
2757.25	9.1942e-06
2765.81	6.34838e-06
2774.37	5.75946e-06
2782.92	6.42176e-06
2791.48	6.98293e-06
2800.04	8.58091e-06
2808.6	1.11865e-05
2817.15	1.5402e-05
2825.71	2.29933e-05
2834.27	3.23438e-05
2842.83	5.04473e-05
2851.38	7.95097e-05
2859.94	0.000129297
2868.5	0.000175753
2877.06	0.000285948
2885.61	0.000244192
2894.17	0.0002831
2902.73	0.000236106
2911.29	0.000239291
2919.85	0.000290039
2928.4	0.00037242
2936.96	0.000433916
2945.52	0.000475663
2954.08	0.000551565
2962.63	0.00065899
2971.19	0.00057632
2979.75	0.000571649
2988.31	0.00036303
2996.86	0.00015779
3005.42	6.68228e-05
3013.98	2.66517e-05
3022.54	1.23474e-05
3031.09	7.99116e-06
3039.65	6.79453e-06
3048.21	6.24074e-06
3056.77	6.24733e-06
3065.33	6.84159e-06
3073.88	7.67238e-06
3082.44	7.60006e-06
3091	7.30255e-06
3099.56	5.95625e-06
3108.11	4.64387e-06
3116.67	4.11354e-06
3125.23	3.86757e-06
3133.79	4.18726e-06
3142.34	4.78572e-06
3150.9	5.32248e-06
3159.46	6.44522e-06
3168.02	6.95627e-06
3176.57	7.13013e-06
3185.13	6.98287e-06
3193.69	5.8047e-06
3202.25	4.82119e-06
3210.81	4.07027e-06
3219.36	3.88781e-06
3227.92	3.73892e-06
3236.48	3.02769e-06
3245.04	2.17472e-06
3253.59	1.19269e-06
3262.15	7.53313e-07
3270.71	6.62286e-07
3279.27	6.52089e-07
3287.82	6.67956e-07
3296.38	6.23216e-07
3304.94	6.21073e-07
3313.5	3.38064e-07
3322.05	4.5688e-07
3330.61	4.28515e-07
3339.17	5.61919e-07
3347.73	6.68913e-07
3356.29	7.92135e-07
3364.84	6.51651e-07
3373.4	7.53516e-07
3381.96	9.47157e-07
3390.52	1.14756e-06
3399.07	1.05116e-06
3407.63	9.37523e-07
3416.19	6.39583e-07
3424.75	2.94492e-07
3433.3	1.25454e-07
3441.86	1.49748e-07
3450.42	2.94884e-08
3458.98	1.4621e-07
3467.53	8.19332e-08
3476.09	-4.95836e-08
3484.65	4.64913e-08
3493.21	9.0547e-08
3501.77	1.58442e-08
3510.32	1.07547e-08
3518.88	6.20418e-08
3527.44	1.07989e-07
3536	1.22761e-07
3544.55	7.4258e-08
3553.11	9.45788e-08
3561.67	7.37887e-08
3570.23	1.01852e-07
3578.78	1.4305e-07
3587.34	1.29006e-07
3595.9	2.77412e-07
3604.46	5.09079e-07
3613.01	5.31804e-07
3621.57	6.93034e-07
3630.13	8.14744e-07
3638.69	7.84507e-07
3647.25	8.78901e-07
3655.8	7.6454e-07
3664.36	7.42322e-07
3672.92	9.23458e-07
3681.48	9.29632e-07
3690.03	9.16292e-07
3698.59	1.02948e-06
3707.15	9.93874e-07
3715.71	1.11767e-06
3724.26	1.20911e-06
3732.82	1.22987e-06
3741.38	1.07488e-06
3749.94	6.22058e-07
3758.49	5.77683e-07
3767.05	4.78937e-07
3775.61	5.14188e-07
3784.17	6.16164e-07
3792.73	4.46209e-07
3801.28	8.73283e-07
3809.84	4.93777e-07
3818.4	5.87777e-07
3826.96	8.35108e-07
3835.51	1.30889e-06
3844.07	1.42826e-06
3852.63	1.86557e-06
3861.19	1.74858e-06
3869.74	1.54457e-06
3878.3	1.30158e-06
3886.86	1.02559e-06
3895.42	9.44746e-07
3903.97	9.55919e-07
3912.53	7.31508e-07
3921.09	6.51804e-07
3929.65	6.35033e-07
3938.21	5.10045e-07
3946.76	4.86e-07
3955.32	5.30976e-07
3963.88	5.47977e-07
3972.44	4.51942e-07
