Infrared Spectrum: 1,3-Butadiene
Formula: C H2: C H C H: C H2
CAS: 106-99-0
State: gas
Melting point: -108.91 C
Boiling point: -4.41 C
Class: IUPAC A
Instrument: IFS66V (Bruker)
Instrument parameters: KBr Beam splitter; MCT Detector; Multipass cell
Sampling: 1 L/min Flow
Resolution: 1.9290
Temperature: 23 C
Pressure: 101.3 kPa
Origin: NIST, Anayltical Chemistry Division, 301-975-3108
cm-1	(micromol/mol)-1m-1 (base 10)
574.687	4.71378e-06
583.365	3.26377e-06
592.043	1.90312e-06
600.721	1.74984e-06
609.4	8.73279e-07
618.078	6.65759e-07
626.756	7.17813e-07
635.434	1.11131e-06
644.112	1.64558e-06
652.79	2.43182e-06
661.469	2.69415e-06
670.147	3.49361e-06
678.825	2.63279e-06
687.503	2.29743e-06
696.181	1.68067e-06
704.859	1.21222e-06
713.537	6.71377e-07
722.216	7.12923e-07
730.894	7.45499e-07
739.572	1.06658e-06
748.25	9.02189e-07
756.928	1.10881e-06
765.606	8.91968e-07
774.285	7.57089e-07
782.963	5.27091e-07
791.641	6.00689e-07
800.319	4.47026e-07
808.997	7.90092e-07
817.675	1.05723e-06
826.353	2.19291e-06
835.032	4.20575e-06
843.71	8.44663e-06
852.388	1.67427e-05
861.066	3.11257e-05
869.744	5.19491e-05
878.422	8.05581e-05
887.101	0.000108108
895.779	0.000124334
904.457	0.000135361
913.135	0.000136835
921.813	0.000156298
930.491	0.000146282
939.169	0.00010442
947.848	6.17036e-05
956.526	3.55601e-05
965.204	2.5795e-05
973.882	2.95342e-05
982.56	5.07921e-05
991.238	6.34563e-05
999.917	9.28809e-05
1008.59	9.45149e-05
1017.27	7.59026e-05
1025.95	7.32796e-05
1034.63	6.57998e-05
1043.31	5.13853e-05
1051.99	3.78458e-05
1060.66	2.23183e-05
1069.34	1.41059e-05
1078.02	1.00292e-05
1086.7	4.87826e-06
1095.38	1.93646e-06
1104.05	6.11093e-07
1112.73	3.23092e-07
1121.41	2.2045e-07
1130.09	2.89758e-07
1138.77	2.49981e-07
1147.45	2.57157e-07
1156.12	1.87044e-07
1164.8	1.84724e-07
1173.48	1.84113e-07
1182.16	2.21761e-07
1190.84	1.25775e-07
1199.51	1.95484e-07
1208.19	2.84823e-07
1216.87	5.09488e-07
1225.55	8.40755e-07
1234.23	1.41903e-06
1242.9	2.37027e-06
1251.58	3.96565e-06
1260.26	5.71231e-06
1268.94	5.16566e-06
1277.62	7.9438e-06
1286.3	7.11251e-06
1294.97	4.06569e-06
1303.65	6.35796e-06
1312.33	4.46715e-06
1321.01	3.09884e-06
1329.69	2.82453e-06
1338.36	2.74528e-06
1347.04	3.06693e-06
1355.72	4.56267e-06
1364.4	1.28542e-05
1373.08	2.12165e-05
1381.76	1.35704e-05
1390.43	1.92174e-05
1399.11	8.40514e-06
1407.79	5.09577e-06
1416.47	5.59965e-06
1425.15	5.24372e-06
1433.82	4.3856e-06
1442.5	5.33515e-06
1451.18	3.94764e-06
1459.86	3.38636e-06
1468.54	3.91482e-06
1477.22	6.12525e-06
1485.89	5.02245e-06
1494.57	5.45449e-06
1503.25	3.8508e-06
1511.93	2.74641e-06
1520.61	2.67184e-06
1529.28	9.47073e-07
1537.96	1.3833e-06
1546.64	1.00266e-06
1555.32	2.2948e-06
1564	5.68512e-06
1572.67	1.86705e-05
1581.35	6.61445e-05
1590.03	0.00010164
1598.71	6.5197e-05
1607.39	0.000102678
1616.07	1.91658e-05
1624.74	3.66636e-06
1633.42	3.07741e-06
1642.1	3.19052e-06
1650.78	3.02909e-06
1659.46	1.60333e-06
1668.13	2.14626e-06
1676.81	1.18528e-06
1685.49	2.07124e-06
1694.17	7.16965e-07
1702.85	6.1158e-07
1711.53	6.86448e-07
1720.2	1.08676e-06
1728.88	1.7583e-06
1737.56	2.41427e-06
1746.24	3.6875e-06
1754.92	5.2688e-06
1763.59	3.72388e-06
1772.27	4.47081e-06
1780.95	3.09088e-06
1789.63	4.15542e-06
1798.31	9.84722e-06
1806.98	4.22869e-05
1815.66	4.24285e-05
1824.34	4.48566e-05
1833.02	4.43502e-05
1841.7	7.56069e-06
1850.38	1.68021e-06
1859.05	1.90382e-06
1867.73	2.15015e-06
1876.41	2.05852e-06
1885.09	2.2642e-06
1893.77	1.2547e-06
1902.44	1.22838e-06
1911.12	1.42306e-06
1919.8	1.2129e-06
1928.48	1.29463e-06
1937.16	1.33048e-06
1945.84	1.71977e-06
1954.51	2.69002e-06
1963.19	3.67409e-06
1971.87	2.62628e-06
1980.55	2.91158e-06
1989.23	1.43888e-06
1997.9	7.11325e-07
2006.58	4.7182e-07
2015.26	2.02911e-07
2023.94	5.13793e-08
2032.62	1.13003e-08
2041.3	1.62069e-08
2049.97	-2.62867e-08
2058.65	-2.45023e-08
2067.33	-4.22181e-09
2076.01	4.32703e-08
2084.69	9.71343e-08
2093.36	2.24224e-07
2102.04	3.05948e-07
2110.72	3.26365e-07
2119.4	4.04967e-07
2128.08	2.56987e-07
2136.75	1.77265e-07
2145.43	1.88953e-07
2154.11	2.74989e-07
2162.79	3.76971e-07
2171.47	3.75038e-07
2180.15	4.91733e-07
2188.82	4.34148e-07
2197.5	4.5061e-07
2206.18	3.98698e-07
2214.86	4.15676e-07
2223.54	3.74707e-07
2232.21	4.46048e-07
2240.89	6.42765e-07
2249.57	8.49567e-07
2258.25	1.2011e-06
2266.93	9.53495e-07
2275.61	1.15364e-06
2284.28	8.01625e-07
2292.96	5.91941e-07
2301.64	6.0655e-07
2310.32	5.00795e-07
2319	6.03837e-07
2327.67	7.72642e-07
2336.35	9.12405e-07
2345.03	7.41462e-07
2353.71	7.02022e-07
2362.39	1.028e-06
2371.06	6.07641e-07
2379.74	1.89721e-07
2388.42	1.52695e-07
2397.1	1.83871e-07
2405.78	2.7876e-07
2414.46	3.60305e-07
2423.13	3.70868e-07
2431.81	4.32915e-07
2440.49	4.10296e-07
2449.17	4.38743e-07
2457.85	5.48452e-07
2466.52	6.63589e-07
2475.2	1.02671e-06
2483.88	1.6443e-06
2492.56	1.16437e-06
2501.24	1.63146e-06
2509.92	9.98213e-07
2518.59	4.26723e-07
2527.27	3.14959e-07
2535.95	2.58422e-07
2544.63	2.18443e-07
2553.31	2.56682e-07
2561.98	3.59336e-07
2570.66	5.32023e-07
2579.34	4.33527e-07
2588.02	4.84642e-07
2596.7	3.83745e-07
2605.38	1.38833e-07
2614.05	1.19184e-07
2622.73	1.38877e-07
2631.41	1.59974e-07
2640.09	1.81702e-07
2648.77	1.80837e-07
2657.44	1.46305e-07
2666.12	1.2358e-07
2674.8	8.01925e-08
2683.48	1.00715e-07
2692.16	1.16343e-07
2700.83	2.1953e-07
2709.51	2.20402e-07
2718.19	4.09587e-07
2726.87	3.4214e-07
2735.55	3.09192e-07
2744.23	2.54247e-07
2752.9	1.95539e-07
2761.58	1.19427e-07
2770.26	1.94305e-07
2778.94	2.02639e-07
2787.62	3.72715e-07
2796.29	3.52642e-07
2804.97	5.06958e-07
2813.65	3.42637e-07
2822.33	4.04005e-07
2831.01	4.77646e-07
2839.69	9.70527e-07
2848.36	1.66369e-06
2857.04	2.02963e-06
2865.72	2.44298e-06
2874.4	2.64093e-06
2883.08	3.2913e-06
2891.75	4.57375e-06
2900.43	5.13026e-06
2909.11	6.07882e-06
2917.79	8.21386e-06
2926.47	8.31367e-06
2935.14	1.1263e-05
2943.82	1.2393e-05
2952.5	1.62222e-05
2961.18	1.99398e-05
2969.86	3.49924e-05
2978.54	4.2267e-05
2987.21	4.23385e-05
2995.89	5.64673e-05
3004.57	5.58888e-05
3013.25	4.3603e-05
3021.93	5.37978e-05
3030.6	4.28921e-05
3039.28	5.3119e-05
3047.96	5.50482e-05
3056.64	4.64909e-05
3065.32	6.70306e-05
3074	6.06258e-05
3082.67	7.45585e-05
3091.35	9.37657e-05
3100.03	6.05601e-05
3108.71	9.4027e-05
3117.39	5.25616e-05
3126.06	3.17115e-05
3134.74	2.13051e-05
3143.42	1.25637e-05
3152.1	6.73537e-06
3160.78	3.1968e-06
3169.46	1.51219e-06
3178.13	5.83533e-07
3186.81	4.22683e-07
3195.49	2.56379e-07
3204.17	4.64299e-08
3212.85	1.52602e-07
3221.52	5.39773e-07
3230.2	5.58002e-07
3238.88	9.17133e-07
3247.56	6.53018e-07
3256.24	3.49611e-07
3264.91	2.93096e-07
3273.59	1.99468e-07
3282.27	8.48536e-08
3290.95	1.02752e-07
3299.63	2.18594e-07
3308.31	2.2469e-07
3316.98	2.47952e-07
3325.66	1.9104e-07
3334.34	1.10548e-07
3343.02	1.22393e-07
3351.7	3.82909e-08
3360.37	1.06159e-07
3369.05	7.82917e-08
3377.73	2.71403e-07
3386.41	4.87965e-07
3395.09	5.86082e-07
3403.77	6.16685e-07
3412.44	5.68334e-07
3421.12	3.02814e-07
3429.8	1.6815e-07
3438.48	2.28139e-07
3447.16	3.9803e-07
3455.83	2.12395e-07
3464.51	3.53207e-07
3473.19	1.77822e-07
3481.87	2.2021e-07
3490.55	1.91968e-07
3499.22	2.31319e-07
3507.9	2.09373e-07
3516.58	2.8608e-07
3525.26	2.7824e-07
3533.94	3.39664e-07
3542.62	2.24851e-07
3551.29	3.33344e-07
3559.97	2.75666e-07
3568.65	5.07723e-07
3577.33	3.15904e-07
3586.01	5.92304e-07
3594.68	5.57101e-07
3603.36	5.87111e-07
3612.04	7.02306e-07
3620.72	8.39356e-07
3629.4	1.34394e-06
3638.08	1.9439e-07
3646.75	5.91217e-07
3655.43	3.78534e-07
3664.11	3.98634e-08
3672.79	8.24462e-08
3681.47	3.75015e-08
3690.14	3.80452e-07
3698.82	1.01043e-07
3707.5	1.04215e-07
3716.18	6.97298e-08
3724.86	1.91991e-07
3733.54	3.54238e-07
3742.21	1.93088e-07
3750.89	6.44498e-07
3759.57	4.32478e-07
3768.25	7.21427e-08
3776.93	7.44482e-08
3785.6	1.37447e-07
3794.28	9.63194e-08
3802.96	3.97547e-07
3811.64	1.6261e-07
3820.32	7.46866e-07
3828.99	2.25666e-07
3837.67	1.53829e-06
3846.35	2.91269e-07
3855.03	1.55293e-06
3863.71	5.37171e-07
3872.39	4.3234e-07
3881.06	7.13528e-07
3889.74	4.77446e-07
3898.42	6.32037e-07
3907.1	4.32192e-07
3915.78	4.19019e-07
3924.45	5.13017e-07
3933.13	5.4169e-07
3941.81	4.66395e-07
3950.49	4.96178e-07
3959.17	5.75208e-07
3967.85	9.98776e-07
