Infrared Spectrum: 1,4-Dimethylbenzene
Formula: 1,4-( C H3)2 C6 H4
CAS: 106-42-3
State: gas
Melting point: 13.26 C
Boiling point: 138.35 C
Class: IUPAC A
Instrument: IFS66V (Bruker)
Instrument parameters: KBr Beam Splitter; MCT Detector; Multipass cell
Sampling: 1 L/min Flow
Resolution: 0.9640
Temperature: 23 C
Pressure: 101.3 Pa
Origin: NIST, Analytical Chemistry Division, 301-975-3108
cm-1	(micromol/mol)-1m-1 (base 10)
575.17	1.50997e-06
583.848	-3.73937e-07
592.526	1.72348e-09
601.205	-7.62022e-07
609.883	-1.57073e-07
618.561	-4.48261e-07
627.239	-4.61542e-07
635.917	-7.49941e-07
644.595	-3.50431e-07
653.274	-1.65263e-07
661.952	-3.4616e-07
670.63	-2.61344e-07
679.308	1.99568e-07
687.986	3.51882e-09
696.664	3.08954e-07
705.343	1.52632e-07
714.021	2.80868e-07
722.699	2.22359e-07
731.377	3.87648e-07
740.055	3.89681e-07
748.734	5.6362e-07
757.412	1.12325e-06
766.09	6.97653e-06
774.768	4.19244e-05
783.446	0.00013741
792.124	0.000195433
800.803	0.000179919
809.481	0.000105427
818.159	2.0397e-05
826.837	6.11686e-06
835.515	4.33116e-06
844.194	1.78387e-06
852.872	1.0425e-06
861.55	8.03911e-07
870.228	1.12168e-06
878.906	1.17083e-06
887.584	1.25036e-06
896.263	1.48698e-06
904.941	1.49157e-06
913.619	2.3704e-06
922.297	2.94248e-06
930.975	2.66936e-06
939.653	2.60731e-06
948.332	3.22763e-06
957.01	4.26649e-06
965.688	4.55869e-06
974.366	4.55691e-06
983.044	4.46442e-06
991.723	4.78094e-06
1000.4	5.12908e-06
1009.08	5.43827e-06
1017.76	2.17108e-05
1026.44	2.10937e-05
1035.11	1.80166e-05
1043.79	2.36943e-05
1052.47	2.4526e-05
1061.15	1.85333e-05
1069.83	1.23478e-05
1078.5	9.02712e-06
1087.18	1.11021e-05
1095.86	1.8567e-05
1104.54	2.40321e-05
1113.22	3.92574e-05
1121.9	2.87262e-05
1130.57	2.19633e-05
1139.25	7.81285e-06
1147.93	3.94927e-06
1156.61	3.17131e-06
1165.29	3.1786e-06
1173.96	3.29017e-06
1182.64	3.40474e-06
1191.32	2.98044e-06
1200	2.67722e-06
1208.68	5.58124e-06
1217.36	1.30282e-05
1226.03	1.74677e-05
1234.71	1.36902e-05
1243.39	1.20267e-05
1252.07	4.77788e-06
1260.75	3.05963e-06
1269.42	2.89179e-06
1278.1	2.3342e-06
1286.78	2.33159e-06
1295.46	2.53819e-06
1304.14	3.6722e-06
1312.82	5.05767e-06
1321.49	5.80012e-06
1330.17	6.29988e-06
1338.85	7.5958e-06
1347.53	8.53743e-06
1356.21	8.66554e-06
1364.88	8.43276e-06
1373.56	1.13437e-05
1382.24	2.10095e-05
1390.92	2.45747e-05
1399.6	1.58089e-05
1408.28	1.91682e-05
1416.95	2.48146e-05
1425.63	3.48595e-05
1434.31	3.64708e-05
1442.99	3.29711e-05
1451.67	3.23242e-05
1460.34	3.20518e-05
1469.02	4.7285e-05
1477.7	3.6013e-05
1486.38	4.14978e-05
1495.06	4.55113e-05
1503.73	5.76504e-05
1512.41	0.000188796
1521.09	0.000243673
1529.77	0.00013016
1538.45	2.65465e-05
1547.13	1.60053e-05
1555.8	1.28261e-05
1564.48	1.01292e-05
1573.16	7.66024e-06
1581.84	5.7669e-06
1590.52	4.90417e-06
1599.19	5.55872e-06
1607.87	7.59719e-06
1616.55	1.29718e-05
1625.23	1.55446e-05
1633.91	1.42792e-05
1642.59	5.75726e-06
1651.26	2.46882e-06
1659.94	1.79034e-06
1668.62	1.4136e-06
1677.3	1.24068e-06
1685.98	8.74995e-07
1694.65	8.10175e-07
1703.33	8.13602e-07
1712.01	1.11505e-06
1720.69	2.93308e-06
1729.37	2.85769e-06
1738.05	2.26606e-06
1746.72	2.99958e-06
1755.4	3.44237e-06
1764.08	2.81542e-06
1772.76	3.20715e-06
1781.44	9.86377e-06
1790.11	1.19101e-05
1798.79	5.97136e-06
1807.47	1.41398e-06
1816.15	9.2719e-07
1824.83	1.25629e-06
1833.51	3.36443e-06
1842.18	4.09115e-06
1850.86	2.64941e-06
1859.54	2.19304e-06
1868.22	4.75183e-06
1876.9	1.22646e-05
1885.57	2.04223e-05
1894.25	2.18492e-05
1902.93	8.41707e-06
1911.61	3.24654e-06
1920.29	2.33455e-06
1928.97	1.93399e-06
1937.64	1.03563e-06
1946.32	7.7728e-07
1955	1.17309e-06
1963.68	8.96559e-07
1972.36	1.07806e-06
1981.03	1.40526e-06
1989.71	1.26427e-06
1998.39	1.04011e-06
2007.07	8.60354e-07
2015.75	5.74691e-07
2024.43	2.65512e-07
2033.1	3.58843e-07
2041.78	3.54799e-07
2050.46	2.05526e-07
2059.14	-9.04306e-09
2067.82	-1.09405e-07
2076.49	2.54121e-08
2085.17	2.31587e-07
2093.85	8.86431e-07
2102.53	1.96435e-06
2111.21	1.98423e-06
2119.89	6.08305e-07
2128.56	-7.22117e-08
2137.24	-1.5256e-07
2145.92	-1.1351e-07
2154.6	3.26367e-07
2163.28	-6.61927e-09
2171.95	2.91166e-07
2180.63	1.91825e-07
2189.31	1.50103e-07
2197.99	1.2313e-07
2206.67	7.97234e-07
2215.35	7.86653e-07
2224.02	8.89745e-08
2232.7	-1.00999e-08
2241.38	-1.03659e-07
2250.06	-1.8263e-07
2258.74	-4.84986e-08
2267.41	1.2565e-07
2276.09	4.69612e-07
2284.77	6.1643e-07
2293.45	1.25407e-06
2302.13	2.44547e-06
2310.81	2.60884e-06
2319.48	1.73194e-06
2328.16	1.77481e-06
2336.84	2.46762e-06
2345.52	2.48077e-06
2354.2	1.66286e-06
2362.87	1.49562e-06
2371.55	8.52298e-07
2380.23	4.96021e-07
2388.91	5.39007e-07
2397.59	5.50777e-07
2406.27	1.03653e-06
2414.94	1.44184e-06
2423.62	1.54611e-06
2432.3	1.3386e-06
2440.98	1.19434e-06
2449.66	9.19059e-07
2458.33	7.30029e-07
2467.01	8.50404e-07
2475.69	8.21908e-07
2484.37	7.81402e-07
2493.05	6.78753e-07
2501.73	4.67552e-07
2510.4	3.62983e-07
2519.08	2.86779e-07
2527.76	3.25866e-07
2536.44	2.50656e-07
2545.12	1.20893e-07
2553.79	-1.39311e-07
2562.47	-1.44726e-07
2571.15	1.61004e-07
2579.83	1.50245e-06
2588.51	3.00812e-06
2597.19	3.15485e-06
2605.86	1.65221e-06
2614.54	8.26916e-07
2623.22	2.59447e-07
2631.9	1.52308e-07
2640.58	4.15374e-07
2649.25	2.656e-07
2657.93	-7.58014e-08
2666.61	-1.16771e-07
2675.29	-1.31341e-07
2683.97	5.0413e-09
2692.65	1.28312e-07
2701.32	7.50815e-07
2710	1.48357e-06
2718.68	1.95542e-06
2727.36	2.86888e-06
2736.04	1.09973e-05
2744.71	1.72393e-05
2753.39	7.96187e-06
2762.07	1.61867e-06
2770.75	8.79517e-07
2779.43	1.16122e-06
2788.11	1.61699e-06
2796.78	2.34755e-06
2805.46	3.45349e-06
2814.14	4.65606e-06
2822.82	6.98363e-06
2831.5	1.02383e-05
2840.17	1.36793e-05
2848.85	1.922e-05
2857.53	3.4612e-05
2866.21	8.20922e-05
2874.89	0.000143717
2883.57	0.000156195
2892.24	0.000128101
2900.92	0.000108456
2909.6	9.6599e-05
2918.28	0.000121698
2926.96	0.000223623
2935.63	0.000306495
2944.31	0.000250988
2952.99	0.000130796
2961.67	9.75494e-05
2970.35	7.37675e-05
2979.03	8.58167e-05
2987.7	0.000112247
2996.38	0.000162627
3005.06	0.000211012
3013.74	0.000196727
3022.42	0.000237748
3031.09	0.000229986
3039.77	0.000163591
3048.45	0.00015488
3057.13	0.000147671
3065.81	0.000113976
3074.49	5.3975e-05
3083.16	2.87382e-05
3091.84	2.55038e-05
3100.52	2.72752e-05
3109.2	2.51868e-05
3117.88	1.55522e-05
3126.55	6.45772e-06
3135.23	7.24789e-06
3143.91	9.36051e-06
3152.59	6.53671e-06
3161.27	1.36539e-06
3169.95	3.72739e-07
3178.62	-3.07853e-08
3187.3	-2.46043e-07
3195.98	-2.85706e-07
3204.66	-3.88517e-07
3213.34	-3.12919e-07
3222.01	-2.61338e-07
3230.69	-1.82538e-07
3239.37	-2.93444e-07
3248.05	-2.63255e-07
3256.73	-2.45781e-08
3265.41	4.49052e-08
3274.08	-3.35138e-08
3282.76	1.5314e-08
3291.44	1.76113e-07
3300.12	-2.72701e-08
3308.8	-9.93072e-08
3317.47	-1.0551e-08
3326.15	7.6198e-08
3334.83	4.18738e-08
3343.51	-3.0728e-08
3352.19	-2.68763e-08
3360.86	-1.24789e-07
3369.54	-2.69018e-08
3378.22	2.76104e-07
3386.9	3.16046e-07
3395.58	2.13334e-07
3404.26	5.5829e-08
3412.93	4.85031e-08
3421.61	-1.36978e-08
3430.29	1.08802e-07
3438.97	2.23287e-07
3447.65	9.13255e-08
3456.32	6.67075e-08
3465	-2.75784e-07
3473.68	-3.30146e-07
3482.36	-2.83054e-07
3491.04	-1.85589e-07
3499.72	-2.86167e-07
3508.39	-1.48225e-07
3517.07	-2.65204e-07
3525.75	-3.03744e-07
3534.43	-4.7575e-07
3543.11	-1.76967e-07
3551.78	-5.76601e-07
3560.46	-6.1499e-07
3569.14	-6.02117e-07
3577.82	-5.17351e-07
3586.5	-6.40185e-07
3595.18	-2.95086e-07
3603.85	-1.8496e-07
3612.53	-2.90584e-07
3621.21	-1.78919e-07
3629.89	-3.22715e-07
3638.57	4.37992e-08
3647.24	1.165e-07
3655.92	4.56657e-07
3664.6	9.6844e-07
3673.28	1.07601e-06
3681.96	1.02129e-06
3690.64	3.41032e-07
3699.31	4.80568e-07
3707.99	2.30876e-07
3716.67	3.9802e-08
3725.35	1.087e-07
3734.03	8.95857e-08
3742.7	4.49565e-07
3751.38	6.21374e-07
3760.06	7.33819e-07
3768.74	7.42672e-07
3777.42	3.50368e-07
3786.1	2.88205e-07
3794.77	3.92206e-07
3803.45	4.22069e-07
3812.13	6.26965e-07
3820.81	5.72931e-07
3829.49	1.19271e-06
3838.16	7.92295e-07
3846.84	1.62736e-06
3855.52	1.67816e-06
3864.2	1.69261e-06
3872.88	1.81142e-06
3881.56	1.91668e-06
3890.23	2.01849e-06
3898.91	1.83049e-06
3907.59	1.97255e-06
3916.27	2.16007e-06
3924.95	2.30716e-06
3933.62	2.34709e-06
3942.3	2.22091e-06
3950.98	1.98344e-06
3959.66	2.06826e-06
3968.34	2.06268e-06
