Infrared Spectrum: Butane
Formula: C4 H10
CAS: 106-97-8
State: gas
Melting point: -138.35 C
Boiling point: -0.5 C
Class: IUPAC A
Instrument: IFS66V (Bruker)
Instrument parameters: KBr Beam Splitter; MCT Detector; Multipass cell
Sampling: 1 L/min Flow
Resolution: 0.2410
Temperature: 23 C
Pressure: 101.3 Pa
Origin: NIST, Analytical Chemistry Division, 301-975-3108
cm-1	(micromol/mol)-1m-1 (base 10)
575.05	-9.68321e-07
583.608	3.77708e-07
592.165	1.4375e-07
600.723	-1.25943e-07
609.281	-7.68746e-08
617.838	-1.9962e-07
626.396	-1.48328e-07
634.954	-5.7025e-08
643.511	2.93447e-08
652.069	-4.44058e-08
660.626	-8.75211e-08
669.184	-1.0585e-07
677.742	2.59086e-07
686.299	5.53437e-07
694.857	9.82826e-07
703.415	2.07627e-06
711.972	3.44935e-06
720.53	5.05799e-06
729.088	6.85168e-06
737.645	8.47411e-06
746.203	9.29931e-06
754.761	8.12157e-06
763.318	6.64316e-06
771.876	3.9758e-06
780.434	3.02378e-06
788.991	1.79023e-06
797.549	1.8931e-06
806.106	1.12646e-06
814.664	5.52939e-07
823.222	1.68781e-07
831.779	1.65072e-09
840.337	-1.5361e-07
848.895	-6.74441e-08
857.452	3.68316e-08
866.01	-3.09099e-08
874.568	1.23682e-08
883.125	4.559e-08
891.683	-6.05411e-08
900.241	-1.22759e-07
908.798	1.44771e-07
917.356	3.64977e-07
925.914	1.10072e-06
934.471	2.84365e-06
943.029	6.95932e-06
951.586	1.20617e-05
960.144	1.5715e-05
968.702	1.89001e-05
977.259	1.49801e-05
985.817	9.96188e-06
994.375	6.13824e-06
1002.93	2.95438e-06
1011.49	1.62249e-06
1020.05	8.45031e-07
1028.61	4.45343e-07
1037.16	3.83841e-07
1045.72	1.00918e-07
1054.28	1.02324e-07
1062.84	1.17962e-07
1071.39	2.06214e-07
1079.95	1.54448e-07
1088.51	2.73011e-07
1097.07	2.22736e-07
1105.62	3.62953e-07
1114.18	8.85821e-07
1122.74	2.41027e-06
1131.3	2.78497e-06
1139.85	2.07009e-06
1148.41	2.00658e-06
1156.97	5.62395e-07
1165.53	1.24284e-07
1174.09	2.16619e-07
1182.64	2.04856e-07
1191.2	1.95057e-07
1199.76	1.05454e-07
1208.32	3.14671e-07
1216.87	3.31826e-07
1225.43	4.29226e-07
1233.99	7.09327e-07
1242.55	9.69599e-07
1251.1	1.45714e-06
1259.66	1.63241e-06
1268.22	2.23732e-06
1276.78	4.08803e-06
1285.33	8.20824e-06
1293.89	9.28578e-06
1302.45	8.67947e-06
1311.01	3.60816e-06
1319.57	1.68935e-06
1328.12	3.3163e-06
1336.68	4.20028e-06
1345.24	3.42984e-06
1353.8	6.63673e-06
1362.35	7.90783e-06
1370.91	1.96534e-05
1379.47	2.6281e-05
1388.03	2.67949e-05
1396.58	3.40166e-05
1405.14	1.26757e-05
1413.7	8.00204e-06
1422.26	8.856e-06
1430.81	1.47257e-05
1439.37	2.84948e-05
1447.93	4.65527e-05
1456.49	5.9774e-05
1465.05	8.53776e-05
1473.6	6.0614e-05
1482.16	5.83677e-05
1490.72	3.83601e-05
1499.28	2.26008e-05
1507.83	1.20572e-05
1516.39	6.21351e-06
1524.95	2.90284e-06
1533.51	1.46413e-06
1542.06	1.25612e-06
1550.62	8.83251e-07
1559.18	1.15e-06
1567.74	1.40448e-06
1576.29	2.02035e-06
1584.85	1.46229e-06
1593.41	1.29342e-06
1601.97	9.91704e-07
1610.53	8.6906e-07
1619.08	9.11662e-07
1627.64	1.00691e-06
1636.2	1.1359e-06
1644.76	1.06224e-06
1653.31	1.93319e-06
1661.87	1.32545e-06
1670.43	1.52992e-06
1678.99	1.26705e-06
1687.54	1.26221e-06
1696.1	1.46881e-06
1704.66	1.13653e-06
1713.22	1.07389e-06
1721.77	1.0019e-06
1730.33	8.04278e-07
1738.89	4.87639e-07
1747.45	3.60087e-07
1756.01	2.82679e-07
1764.56	2.20119e-07
1773.12	2.72919e-07
1781.68	3.03742e-07
1790.24	3.3618e-07
1798.79	3.56894e-07
1807.35	3.58727e-07
1815.91	3.89976e-07
1824.47	2.72434e-07
1833.02	1.4591e-07
1841.58	5.80655e-08
1850.14	2.27673e-08
1858.7	-3.07862e-09
1867.25	1.89847e-08
1875.81	9.06152e-08
1884.37	1.50054e-07
1892.93	3.42081e-07
1901.49	4.804e-07
1910.04	4.45467e-07
1918.6	4.84489e-07
1927.16	3.57818e-07
1935.72	3.37599e-07
1944.27	2.14713e-07
1952.83	1.25019e-07
1961.39	2.4257e-08
1969.95	-5.64011e-08
1978.5	-4.27087e-08
1987.06	-9.01505e-08
1995.62	-2.20433e-08
2004.18	2.51028e-08
2012.73	8.40269e-08
2021.29	3.10146e-07
2029.85	6.36181e-07
2038.41	6.45349e-07
2046.97	6.94859e-07
2055.52	3.57495e-07
2064.08	2.05194e-07
2072.64	1.53528e-07
2081.2	1.78322e-07
2089.75	2.55061e-07
2098.31	3.11331e-07
2106.87	4.08333e-07
2115.43	6.09304e-07
2123.98	5.82615e-07
2132.54	5.68569e-07
2141.1	6.51328e-07
2149.66	6.01485e-07
2158.21	8.11147e-07
2166.77	6.8713e-07
2175.33	6.79736e-07
2183.89	6.19676e-07
2192.45	6.42392e-07
2201	7.12902e-07
2209.56	7.97879e-07
2218.12	6.288e-07
2226.68	6.31404e-07
2235.23	4.92836e-07
2243.79	4.05672e-07
2252.35	4.63097e-07
2260.91	5.83331e-07
2269.46	5.7285e-07
2278.02	6.69434e-07
2286.58	7.81077e-07
2295.14	8.25118e-07
2303.69	9.77295e-07
2312.25	9.36779e-07
2320.81	7.88536e-07
2329.37	9.66692e-07
2337.93	9.01882e-07
2346.48	1.15769e-06
2355.04	1.07613e-06
2363.6	9.855e-07
2372.16	1.26074e-06
2380.71	1.59771e-06
2389.27	1.53536e-06
2397.83	1.72706e-06
2406.39	1.10209e-06
2414.94	1.48642e-06
2423.5	1.622e-06
2432.06	1.95365e-06
2440.62	1.81936e-06
2449.17	1.60417e-06
2457.73	1.00016e-06
2466.29	6.41796e-07
2474.85	3.64022e-07
2483.41	2.74012e-07
2491.96	2.06238e-07
2500.52	2.40821e-07
2509.08	3.51977e-07
2517.64	5.05671e-07
2526.19	7.76242e-07
2534.75	7.36036e-07
2543.31	7.21924e-07
2551.87	5.69881e-07
2560.42	6.73335e-07
2568.98	9.48583e-07
2577.54	1.4987e-06
2586.1	2.11082e-06
2594.65	3.08911e-06
2603.21	3.56393e-06
2611.77	3.93998e-06
2620.33	4.12787e-06
2628.89	4.33854e-06
2637.44	4.58761e-06
2646	4.22944e-06
2654.56	4.81099e-06
2663.12	4.32663e-06
2671.67	3.8918e-06
2680.23	4.40538e-06
2688.79	3.41922e-06
2697.35	3.02058e-06
2705.9	3.41348e-06
2714.46	4.48791e-06
2723.02	6.1128e-06
2731.58	9.01002e-06
2740.13	9.60034e-06
2748.69	1.05848e-05
2757.25	9.18079e-06
2765.81	6.34915e-06
2774.37	5.77819e-06
2782.92	6.41475e-06
2791.48	6.95319e-06
2800.04	8.55459e-06
2808.6	1.11732e-05
2817.15	1.54069e-05
2825.71	2.29926e-05
2834.27	3.237e-05
2842.83	5.04149e-05
2851.38	7.95125e-05
2859.94	0.000129326
2868.5	0.000175745
2877.06	0.00028586
2885.61	0.000244397
2894.17	0.000283028
2902.73	0.000236165
2911.29	0.000239225
2919.85	0.000290014
2928.4	0.000372361
2936.96	0.000433961
2945.52	0.000475655
2954.08	0.000551679
2962.63	0.000659027
2971.19	0.000576847
2979.75	0.000571837
2988.31	0.000363052
2996.86	0.000157769
3005.42	6.68416e-05
3013.98	2.66416e-05
3022.54	1.23572e-05
3031.09	8.00414e-06
3039.65	6.76635e-06
3048.21	6.27973e-06
3056.77	6.25883e-06
3065.33	6.83792e-06
3073.88	7.65774e-06
3082.44	7.61524e-06
3091	7.2995e-06
3099.56	5.92004e-06
3108.11	4.62486e-06
3116.67	4.09385e-06
3125.23	3.87453e-06
3133.79	4.17889e-06
3142.34	4.8005e-06
3150.9	5.32783e-06
3159.46	6.40146e-06
3168.02	6.95401e-06
3176.57	7.15416e-06
3185.13	6.99334e-06
3193.69	5.80331e-06
3202.25	4.80027e-06
3210.81	4.10647e-06
3219.36	3.92158e-06
3227.92	3.72333e-06
3236.48	3.01956e-06
3245.04	2.19157e-06
3253.59	1.20729e-06
3262.15	7.22605e-07
3270.71	6.42054e-07
3279.27	6.53374e-07
3287.82	6.81588e-07
3296.38	6.31259e-07
3304.94	5.75603e-07
3313.5	3.61721e-07
3322.05	4.16372e-07
3330.61	4.08566e-07
3339.17	5.46053e-07
3347.73	6.87566e-07
3356.29	7.88117e-07
3364.84	6.69594e-07
3373.4	7.36033e-07
3381.96	9.7684e-07
3390.52	1.14587e-06
3399.07	1.07636e-06
3407.63	9.27688e-07
3416.19	6.70848e-07
3424.75	2.72371e-07
3433.3	1.31048e-07
3441.86	1.08742e-07
3450.42	5.56299e-08
3458.98	1.35481e-07
3467.53	7.96395e-08
3476.09	-2.21679e-08
3484.65	4.37738e-08
3493.21	9.36875e-08
3501.77	5.29451e-08
3510.32	6.83118e-09
3518.88	5.87894e-08
3527.44	6.32559e-08
3536	9.79875e-08
3544.55	7.01499e-08
3553.11	4.01731e-08
3561.67	9.60876e-08
3570.23	7.18743e-08
3578.78	1.23811e-07
3587.34	1.51123e-07
3595.9	2.7449e-07
3604.46	4.64573e-07
3613.01	5.45807e-07
3621.57	6.90966e-07
3630.13	7.89126e-07
3638.69	7.96946e-07
3647.25	8.82957e-07
3655.8	7.74297e-07
3664.36	7.49152e-07
3672.92	8.97693e-07
3681.48	9.51558e-07
3690.03	9.45702e-07
3698.59	9.96354e-07
3707.15	1.01017e-06
3715.71	1.14852e-06
3724.26	1.21048e-06
3732.82	1.22396e-06
3741.38	1.09412e-06
3749.94	6.61578e-07
3758.49	5.78203e-07
3767.05	4.72255e-07
3775.61	5.06563e-07
3784.17	5.83879e-07
3792.73	4.36868e-07
3801.28	8.83592e-07
3809.84	5.17639e-07
3818.4	5.8736e-07
3826.96	8.35791e-07
3835.51	1.25101e-06
3844.07	1.4526e-06
3852.63	1.87966e-06
3861.19	1.74757e-06
3869.74	1.52353e-06
3878.3	1.29188e-06
3886.86	1.06976e-06
3895.42	9.60149e-07
3903.97	9.6781e-07
3912.53	7.2205e-07
3921.09	6.85217e-07
3929.65	6.52003e-07
3938.21	5.22949e-07
3946.76	4.89015e-07
3955.32	5.36947e-07
3963.88	5.4776e-07
3972.44	4.63663e-07
