Infrared Spectrum: Butane
Formula: C4 H10
CAS: 106-97-8
State: gas
Melting point: -138.35 C
Boiling point: -0.5 C
Class: IUPAC A
Instrument: IFS66V (Bruker)
Instrument parameters: KBr Beam Splitter; MCT Detector; Multipass cell
Sampling: 1 L/min Flow
Resolution: 0.4820
Temperature: 23 C
Pressure: 101.3 Pa
Origin: NIST, Analytical Chemistry Division, 301-975-3108
cm-1	(micromol/mol)-1m-1 (base 10)
575.17	-4.85173e-07
583.848	-1.72518e-07
592.526	3.2074e-07
601.205	3.95537e-09
609.883	-6.45929e-08
618.561	-1.86755e-08
627.239	1.036e-08
635.917	-1.10144e-07
644.595	1.81571e-08
653.274	-1.52963e-07
661.952	1.85172e-09
670.63	-9.47243e-08
679.308	6.81308e-08
687.986	4.50661e-07
696.664	9.67137e-07
705.343	2.31583e-06
714.021	4.00478e-06
722.699	5.23015e-06
731.377	1.01369e-05
740.055	8.80262e-06
748.734	1.07501e-05
757.412	8.02914e-06
766.09	5.67241e-06
774.768	3.42457e-06
783.446	2.76038e-06
792.124	1.90164e-06
800.803	1.57857e-06
809.481	8.16192e-07
818.159	3.68059e-07
826.837	9.92072e-08
835.515	4.76273e-08
844.193	4.89597e-08
852.872	-1.58215e-08
861.55	-5.30778e-08
870.228	8.80941e-08
878.906	-3.70399e-08
887.584	-1.76286e-08
896.263	-4.51926e-09
904.941	-2.60269e-08
913.619	2.80803e-07
922.297	6.76217e-07
930.975	1.9412e-06
939.653	5.13845e-06
948.332	1.1272e-05
957.01	1.87712e-05
965.688	1.98025e-05
974.366	1.69121e-05
983.044	1.0635e-05
991.723	7.17122e-06
1000.4	3.64018e-06
1009.08	1.84771e-06
1017.76	9.8268e-07
1026.44	4.89093e-07
1035.11	4.00322e-07
1043.79	1.43526e-07
1052.47	3.39131e-08
1061.15	7.61943e-08
1069.83	1.65187e-07
1078.5	1.01485e-07
1087.18	2.51459e-07
1095.86	1.9251e-07
1104.54	3.29907e-07
1113.22	7.95987e-07
1121.9	2.22944e-06
1130.57	2.83331e-06
1139.25	1.89245e-06
1147.93	2.14303e-06
1156.61	5.17467e-07
1165.29	1.66522e-07
1173.96	1.99187e-07
1182.64	2.10345e-07
1191.32	1.77545e-07
1200	1.81793e-07
1208.68	2.47442e-07
1217.36	3.50414e-07
1226.03	4.72356e-07
1234.71	6.62072e-07
1243.39	1.04292e-06
1252.07	1.50505e-06
1260.75	1.72185e-06
1269.42	2.30941e-06
1278.1	4.80881e-06
1286.78	8.22833e-06
1295.46	8.24209e-06
1304.14	7.83338e-06
1312.82	2.89258e-06
1321.49	1.82267e-06
1330.17	3.87412e-06
1338.85	3.77686e-06
1347.53	3.9082e-06
1356.21	6.60977e-06
1364.88	1.01172e-05
1373.56	2.46712e-05
1382.24	2.93654e-05
1390.92	3.73565e-05
1399.6	2.49683e-05
1408.28	9.67085e-06
1416.95	7.956e-06
1425.63	1.0516e-05
1434.31	1.90719e-05
1442.99	3.66389e-05
1451.67	5.22904e-05
1460.34	6.96e-05
1469.02	7.03193e-05
1477.7	5.76452e-05
1486.38	4.91572e-05
1495.06	2.99306e-05
1503.73	1.61685e-05
1512.41	8.33904e-06
1521.09	4.26425e-06
1529.77	1.8379e-06
1538.45	1.08692e-06
1547.13	8.93656e-07
1555.8	9.6304e-07
1564.48	1.2455e-06
1573.16	1.59417e-06
1581.84	1.54793e-06
1590.52	1.41186e-06
1599.19	1.12812e-06
1607.87	8.81902e-07
1616.55	1.27076e-06
1625.23	8.1953e-07
1633.91	1.10139e-06
1642.59	9.92556e-07
1651.26	1.11634e-06
1659.94	1.30595e-06
1668.62	1.44386e-06
1677.3	1.29732e-06
1685.98	1.35038e-06
1694.65	1.16288e-06
1703.33	1.11392e-06
1712.01	1.08336e-06
1720.69	1.02697e-06
1729.37	8.22487e-07
1738.05	5.73e-07
1746.72	3.75874e-07
1755.4	2.71337e-07
1764.08	2.61465e-07
1772.76	4.90366e-07
1781.44	3.12149e-07
1790.11	3.37283e-07
1798.79	3.77278e-07
1807.47	3.74222e-07
1816.15	3.49796e-07
1824.83	3.23478e-07
1833.51	1.57571e-07
1842.18	5.28968e-08
1850.86	2.09428e-08
1859.54	-2.55658e-09
1868.22	2.43234e-08
1876.9	7.20571e-08
1885.57	2.27022e-07
1894.25	3.52407e-07
1902.93	4.7346e-07
1911.61	4.38446e-07
1920.29	4.97272e-07
1928.97	3.74403e-07
1937.64	3.35525e-07
1946.32	1.91239e-07
1955	8.24625e-08
1963.68	-7.54786e-09
1972.36	-5.00238e-08
1981.03	-2.44471e-08
1989.71	-4.93644e-08
1998.39	-3.10091e-08
2007.07	1.31749e-08
2015.75	1.21984e-07
2024.43	4.46945e-07
2033.1	6.31663e-07
2041.78	6.30932e-07
2050.46	5.96984e-07
2059.14	2.21868e-07
2067.82	1.36751e-07
2076.49	1.61003e-07
2085.17	1.86576e-07
2093.85	2.62663e-07
2102.53	3.40475e-07
2111.21	4.85217e-07
2119.89	6.52251e-07
2128.56	5.95226e-07
2137.24	6.11585e-07
2145.92	6.8587e-07
2154.6	7.08231e-07
2163.28	6.65383e-07
2171.95	6.72969e-07
2180.63	6.25174e-07
2189.31	6.49641e-07
2197.99	6.63363e-07
2206.67	7.01407e-07
2215.35	6.78573e-07
2224.02	6.55674e-07
2232.7	5.5823e-07
2241.38	4.13054e-07
2250.06	4.67302e-07
2258.74	5.19395e-07
2267.41	5.74404e-07
2276.09	6.29792e-07
2284.77	7.90109e-07
2293.45	7.92532e-07
2302.13	9.91336e-07
2310.81	8.88369e-07
2319.48	7.81185e-07
2328.16	8.9812e-07
2336.84	1.16871e-06
2345.52	1.06147e-06
2354.2	7.81556e-07
2362.87	-2.682e-08
2371.55	8.08776e-07
2380.23	1.64221e-06
2388.91	1.44998e-06
2397.59	1.70635e-06
2406.27	1.10368e-06
2414.94	1.47911e-06
2423.62	1.61175e-06
2432.3	1.942e-06
2440.98	1.76118e-06
2449.66	1.61687e-06
2458.33	9.61364e-07
2467.01	5.55945e-07
2475.69	3.70678e-07
2484.37	2.3346e-07
2493.05	1.91998e-07
2501.73	1.83864e-07
2510.4	3.52666e-07
2519.08	5.40498e-07
2527.76	7.28479e-07
2536.44	6.94508e-07
2545.12	6.97213e-07
2553.79	5.83843e-07
2562.47	7.21093e-07
2571.15	1.04351e-06
2579.83	1.66635e-06
2588.51	2.44815e-06
2597.19	3.35517e-06
2605.86	3.63887e-06
2614.54	4.14007e-06
2623.22	4.19592e-06
2631.9	4.50522e-06
2640.58	4.34765e-06
2649.25	4.74592e-06
2657.93	4.74881e-06
2666.61	4.2814e-06
2675.29	3.6557e-06
2683.97	4.17344e-06
2692.65	3.21263e-06
2701.32	3.0492e-06
2710	3.82381e-06
2718.68	4.87649e-06
2727.36	7.57006e-06
2736.04	1.01915e-05
2744.71	9.29168e-06
2753.39	1.08814e-05
2762.07	7.04752e-06
2770.75	5.81954e-06
2779.43	6.14007e-06
2788.11	6.57952e-06
2796.78	7.75216e-06
2805.46	9.928e-06
2814.14	1.3761e-05
2822.82	2.00649e-05
2831.5	2.91193e-05
2840.17	4.4659e-05
2848.85	6.80811e-05
2857.53	0.000113493
2866.21	0.000166867
2874.89	0.000248752
2883.57	0.000257625
2892.24	0.000269675
2900.92	0.000249301
2909.6	0.000231792
2918.28	0.000272482
2926.96	0.000357095
2935.63	0.000422606
2944.31	0.000472461
2952.99	0.000534798
2961.67	0.000651483
2970.35	0.000623093
2979.03	0.000571944
2987.7	0.000383219
2996.38	0.000165089
3005.06	6.93151e-05
3013.74	2.73051e-05
3022.42	1.24425e-05
3031.09	8.01276e-06
3039.77	6.73021e-06
3048.45	6.25564e-06
3057.13	6.26641e-06
3065.81	6.90211e-06
3074.49	7.66985e-06
3083.16	7.64673e-06
3091.84	7.22332e-06
3100.52	5.71563e-06
3109.2	4.49818e-06
3117.88	3.92816e-06
3126.55	3.92701e-06
3135.23	4.27853e-06
3143.91	4.87713e-06
3152.59	5.50861e-06
3161.27	6.49022e-06
3169.95	7.23102e-06
3178.62	7.00273e-06
3187.3	7.03493e-06
3195.98	5.47001e-06
3204.66	4.50945e-06
3213.34	4.07594e-06
3222.01	4.13541e-06
3230.69	3.34799e-06
3239.37	2.82478e-06
3248.05	1.83392e-06
3256.73	9.65784e-07
3265.4	6.49122e-07
3274.08	7.14857e-07
3282.76	6.58862e-07
3291.44	7.03095e-07
3300.12	6.64389e-07
3308.8	4.86552e-07
3317.47	3.72415e-07
3326.15	4.20146e-07
3334.83	4.46952e-07
3343.51	6.71732e-07
3352.19	6.73026e-07
3360.86	7.1812e-07
3369.54	7.70659e-07
3378.22	8.59265e-07
3386.9	1.08326e-06
3395.58	1.17493e-06
3404.26	1.07174e-06
3412.93	8.31624e-07
3421.61	3.20639e-07
3430.29	2.03617e-07
3438.97	2.19807e-07
3447.65	1.28947e-07
3456.32	3.58666e-08
3465	1.09388e-07
3473.68	1.23263e-07
3482.36	1.0752e-07
3491.04	6.40336e-08
3499.72	1.18163e-07
3508.39	4.84731e-08
3517.07	4.19939e-08
3525.75	-6.07667e-08
3534.43	-1.02517e-07
3543.11	-2.74129e-08
3551.78	-1.70711e-08
3560.46	2.63652e-08
3569.14	1.76194e-07
3577.82	2.50091e-07
3586.5	3.21819e-07
3595.18	3.62401e-07
3603.85	4.06034e-07
3612.53	6.29554e-07
3621.21	6.51774e-07
3629.89	7.86612e-07
3638.57	7.98422e-07
3647.24	8.77273e-07
3655.92	7.96965e-07
3664.6	7.79637e-07
3673.28	8.16954e-07
3681.96	9.07445e-07
3690.64	9.98233e-07
3699.31	9.68128e-07
3707.99	9.90839e-07
3716.67	1.26989e-06
3725.35	1.19695e-06
3734.03	1.33305e-06
3742.7	9.48641e-07
3751.38	6.83122e-07
3760.06	7.13744e-07
3768.74	5.96309e-07
3777.42	5.60263e-07
3786.1	4.96416e-07
3794.77	4.5674e-07
3803.45	4.44322e-07
3812.13	4.79922e-07
3820.81	7.539e-07
3829.49	7.52933e-07
3838.16	1.44667e-06
3846.84	1.58849e-06
3855.52	1.85968e-06
3864.2	1.65613e-06
3872.88	1.38113e-06
3881.56	1.21965e-06
3890.23	1.06698e-06
3898.91	9.67765e-07
3907.59	8.71482e-07
3916.27	7.65451e-07
3924.95	6.7433e-07
3933.62	6.57274e-07
3942.3	5.5228e-07
3950.98	4.68062e-07
3959.66	4.64989e-07
3968.34	5.09447e-07
