Infrared Spectrum: 3-BROMO-1-PROPENE
Formula: C3 H5 Br
CAS: 106-95-6
State: SOLUTION (10% IN CCl4 FOR 4000-1330 CM^-^1, 10% IN CS2 FOR 1330-600 CM^-^1)
Boiling point: 70 C
Class: COBLENTZ III
Instrument: BECKMAN IR-7 (GRATING)
Instrument parameters: GRATING CHANGES AT 3000, 2200, 1150 CM^-^1
Sampling: TRANSMISSION
Path length: 0.011 CM, 0.010 CM
Resolution: 4
Origin: WESTERN REGIONAL RES. USDA
1/CM	TRANSMITTANCE
598.05	0.804
607.149	0.817
616.249	0.816
625.348	0.797
634.447	0.777
643.547	0.752
652.646	0.714
661.745	0.705
670.845	0.701
679.944	0.549
689.044	0.285
698.143	0.472
707.242	0.694
716.342	0.753
725.441	0.78
734.54	0.793
743.64	0.799
752.739	0.797
761.838	0.795
770.938	0.809
780.037	0.812
789.136	0.806
798.236	0.808
807.335	0.812
816.435	0.81
825.534	0.81
834.633	0.806
843.733	0.772
852.832	0.681
861.931	0.638
871.031	0.631
880.13	0.703
889.229	0.737
898.329	0.758
907.428	0.73
916.527	0.587
925.627	0.112
934.726	0.4219
943.825	0.622
952.925	0.71
962.024	0.73
971.124	0.695
980.223	0.4811
989.322	0.542
998.422	0.71
1007.52	0.775
1016.62	0.791
1025.72	0.798
1034.82	0.802
1043.92	0.804
1053.02	0.803
1062.12	0.8
1071.22	0.768
1080.32	0.79
1089.42	0.803
1098.51	0.811
1107.61	0.813
1116.71	0.81
1125.81	0.811
1134.91	0.81
1144.01	0.806
1153.11	0.796
1162.21	0.79
1171.31	0.781
1180.41	0.745
1189.51	0.688
1198.61	0.605
1207.71	0.1461
1216.81	0.564
1225.91	0.708
1235	0.743
1244.1	0.735
1253.2	0.75
1262.3	0.782
1271.4	0.792
1280.5	0.788
1289.6	0.782
1298.7	0.768
1307.8	0.789
1316.9	0.795
1326	0.8
1335.1	0.805
1344.2	0.807
1353.3	0.81
1362.4	0.809
1371.5	0.801
1380.59	0.792
1389.69	0.786
1398.79	0.749
1407.89	0.543
1416.99	0.663
1426.09	0.734
1435.19	0.715
1444.29	0.509
1453.39	0.721
1462.49	0.752
1471.59	0.764
1480.69	0.773
1489.79	0.755
1498.89	0.734
1507.99	0.688
1517.08	0.636
1526.18	0.593
1535.28	0.526
1544.38	0.461
1553.48	0.432
1562.58	0.487
1571.68	0.553
1580.78	0.576
1589.88	0.6
1598.98	0.663
1608.08	0.725
1617.18	0.757
1626.28	0.775
1635.38	0.739
1644.48	0.728
1653.58	0.769
1662.67	0.797
1671.77	0.804
1680.87	0.803
1689.97	0.806
1699.07	0.81
1708.17	0.813
1717.27	0.815
1726.37	0.812
1735.47	0.815
1744.57	0.814
1753.67	0.815
1762.77	0.817
1771.87	0.821
1780.97	0.822
1790.07	0.82
1799.16	0.819
1808.26	0.818
1817.36	0.817
1826.46	0.811
1835.56	0.808
1844.66	0.794
1853.76	0.751
1862.86	0.735
1871.96	0.759
1881.06	0.787
1890.16	0.802
1899.26	0.81
1908.36	0.815
1917.46	0.815
1926.56	0.817
1935.66	0.819
1944.75	0.813
1953.85	0.811
1962.95	0.81
1972.05	0.808
1981.15	0.81
1990.25	0.813
1999.35	0.815
2008.45	0.816
2017.55	0.816
2026.65	0.815
2035.75	0.815
2044.85	0.814
2053.95	0.8138
2063.05	0.813
2072.15	0.8126
2081.24	0.812
2090.34	0.813
2099.44	0.814
2108.54	0.815
2117.64	0.815
2126.74	0.8168
2135.84	0.8174
2144.94	0.819
2154.04	0.819
2163.14	0.819
2172.24	0.82
2181.34	0.821
2190.44	0.822
2199.54	0.8234
2208.64	0.824
2217.74	0.825
2226.83	0.826
2235.93	0.826
2245.03	0.826
2254.13	0.825
2263.23	0.8225
2272.33	0.8199
2281.43	0.8164
2290.53	0.8128
2299.63	0.8102
2308.73	0.808
2317.83	0.808
2326.93	0.808
2336.03	0.81
2345.13	0.8107
2354.23	0.8112
2363.32	0.8128
2372.42	0.815
2381.52	0.817
2390.62	0.819
2399.72	0.82
2408.82	0.8217
2417.92	0.823
2427.02	0.824
2436.12	0.826
2445.22	0.827
2454.32	0.828
2463.42	0.8292
2472.52	0.83
2481.62	0.83
2490.72	0.83
2499.82	0.83
2508.91	0.83
2518.01	0.83
2527.11	0.829
2536.21	0.828
2545.31	0.828
2554.41	0.828
2563.51	0.828
2572.61	0.828
2581.71	0.827
2590.81	0.827
2599.91	0.827
2609.01	0.8266
2618.11	0.826
2627.21	0.8254
2636.31	0.823
2645.4	0.822
2654.5	0.821
2663.6	0.82
2672.7	0.8215
2681.8	0.823
2690.9	0.824
2700	0.826
2709.1	0.826
2718.2	0.826
2727.3	0.826
2736.4	0.8245
2745.5	0.8241
2754.6	0.825
2763.7	0.825
2772.8	0.825
2781.9	0.8246
2790.99	0.824
2800.09	0.8225
2809.19	0.822
2818.29	0.8203
2827.39	0.8177
2836.49	0.8152
2845.59	0.813
2854.69	0.81
2863.79	0.8084
2872.89	0.806
2881.99	0.804
2891.09	0.802
2900.19	0.8056
2909.29	0.808
2918.39	0.806
2927.48	0.8014
2936.58	0.7978
2945.68	0.7952
2954.78	0.7736
2963.88	0.7304
2972.98	0.6665
2982.08	0.6526
2991.18	0.6773
3000.28	0.7108
3009.38	0.747
3018.48	0.7556
3027.58	0.751
3036.68	0.7568
3045.78	0.7894
3054.88	0.7858
3063.98	0.7637
3073.07	0.754
3082.17	0.748
3091.27	0.739
3100.37	0.6623
3109.47	0.7045
3118.57	0.7628
3127.67	0.801
3136.77	0.806
3145.87	0.8095
3154.97	0.813
3164.07	0.815
3173.17	0.817
3182.27	0.8188
3191.37	0.8193
3200.47	0.82
3209.56	0.822
3218.66	0.824
3227.76	0.823
3236.86	0.822
3245.96	0.821
3255.06	0.8214
3264.16	0.822
3273.26	0.822
3282.36	0.822
3291.46	0.822
3300.56	0.822
3309.66	0.822
3318.76	0.823
3327.86	0.823
3336.96	0.823
3346.06	0.823
3355.15	0.823
3364.25	0.823
3373.35	0.823
3382.45	0.823
3391.55	0.823
3400.65	0.822
3409.75	0.822
3418.85	0.821
3427.95	0.821
3437.05	0.821
3446.15	0.822
3455.25	0.822
3464.35	0.822
3473.45	0.822
3482.55	0.822
3491.64	0.822
3500.74	0.823
3509.84	0.823
3518.94	0.8231
3528.04	0.824
3537.14	0.824
3546.24	0.8249
3555.34	0.8246
3564.44	0.822
3573.54	0.821
3582.64	0.8212
3591.74	0.822
3600.84	0.822
3609.94	0.823
3619.04	0.823
3628.14	0.824
3637.23	0.824
3646.33	0.825
3655.43	0.826
3664.53	0.824
3673.63	0.8221
3682.73	0.821
3691.83	0.821
3700.93	0.821
3710.03	0.821
3719.13	0.821
3728.23	0.821
3737.33	0.821
3746.43	0.821
3755.53	0.821
3764.63	0.82
3773.72	0.82
3782.82	0.82
3791.92	0.82
3801.02	0.82
3810.12	0.819
3819.22	0.819
3828.32	0.818
3837.42	0.817
3846.52	0.816
3855.62	0.815
3864.72	0.814
3873.82	0.8134
3882.92	0.813
3892.02	0.813
3901.12	0.813
3910.22	0.812
3919.31	0.812
3928.41	0.812
3937.51	0.812
3946.61	0.813
3955.71	0.813
3964.81	0.813
3973.91	0.813
3983.01	0.813
