Infrared Spectrum: 1,4-Dimethylbenzene
Formula: 1,4-( C H3)2 C6 H4
CAS: 106-42-3
State: gas
Melting point: 13.26 C
Boiling point: 138.35 C
Class: IUPAC A
Instrument: IFS66V (Bruker)
Instrument parameters: KBr Beam Splitter; MCT Detector; Multipass cell
Sampling: 1 L/min Flow
Resolution: 0.9640
Temperature: 23 C
Pressure: 101.3 Pa
Origin: NIST, Analytical Chemistry Division, 301-975-3108
cm-1	(micromol/mol)-1m-1 (base 10)
575.17	1.56148e-06
583.848	-2.77407e-07
592.526	-2.93256e-08
601.205	-7.68203e-07
609.883	-1.14809e-07
618.561	-4.6444e-07
627.239	-3.76253e-07
635.917	-7.75946e-07
644.595	-3.39986e-07
653.274	-9.82586e-08
661.952	-3.647e-07
670.63	-2.46786e-07
679.308	2.01037e-07
687.986	-2.45881e-08
696.664	3.40124e-07
705.343	1.55022e-07
714.021	2.98714e-07
722.699	3.33848e-07
731.377	4.6111e-07
740.055	5.05786e-07
748.734	7.43594e-07
757.412	1.46693e-06
766.09	7.57525e-06
774.768	4.26352e-05
783.446	0.000136798
792.124	0.000198206
800.803	0.000179973
809.481	0.000105298
818.159	2.13088e-05
826.837	6.58503e-06
835.515	4.56012e-06
844.194	1.96537e-06
852.872	1.16342e-06
861.55	9.0646e-07
870.228	1.16946e-06
878.906	1.21978e-06
887.584	1.32247e-06
896.263	1.52152e-06
904.941	1.52555e-06
913.619	2.39612e-06
922.297	2.96107e-06
930.975	2.69208e-06
939.653	2.67135e-06
948.332	3.24898e-06
957.01	4.28627e-06
965.688	4.59922e-06
974.366	4.58286e-06
983.044	4.5172e-06
991.723	4.79037e-06
1000.4	5.16911e-06
1009.08	5.60274e-06
1017.76	2.1443e-05
1026.44	2.12274e-05
1035.11	1.81234e-05
1043.79	2.35382e-05
1052.47	2.43617e-05
1061.15	1.85289e-05
1069.83	1.23824e-05
1078.5	9.16359e-06
1087.18	1.1221e-05
1095.86	1.85131e-05
1104.54	2.39885e-05
1113.22	3.8851e-05
1121.9	2.8748e-05
1130.57	2.19519e-05
1139.25	7.93971e-06
1147.93	4.04476e-06
1156.61	3.22735e-06
1165.29	3.24508e-06
1173.96	3.33413e-06
1182.64	3.41626e-06
1191.32	3.03898e-06
1200	2.76157e-06
1208.68	5.68677e-06
1217.36	1.29965e-05
1226.03	1.72521e-05
1234.71	1.36225e-05
1243.39	1.19307e-05
1252.07	4.88522e-06
1260.75	3.13467e-06
1269.42	2.93467e-06
1278.1	2.37102e-06
1286.78	2.36115e-06
1295.46	2.57015e-06
1304.14	3.69763e-06
1312.82	5.07056e-06
1321.49	5.79667e-06
1330.17	6.31542e-06
1338.85	7.61112e-06
1347.53	8.56442e-06
1356.21	8.70122e-06
1364.88	8.46937e-06
1373.56	1.14596e-05
1382.24	2.09247e-05
1390.92	2.43862e-05
1399.6	1.59463e-05
1408.28	1.92213e-05
1416.95	2.48862e-05
1425.63	3.47143e-05
1434.31	3.63909e-05
1442.99	3.2971e-05
1451.67	3.23645e-05
1460.34	3.22592e-05
1469.02	4.69709e-05
1477.7	3.62698e-05
1486.38	4.15797e-05
1495.06	4.58451e-05
1503.73	5.859e-05
1512.41	0.000186779
1521.09	0.000240677
1529.77	0.000130001
1538.45	2.75731e-05
1547.13	1.64244e-05
1555.8	1.29985e-05
1564.48	1.02584e-05
1573.16	7.77411e-06
1581.84	5.89501e-06
1590.52	5.00907e-06
1599.19	5.61843e-06
1607.87	7.67731e-06
1616.55	1.2865e-05
1625.23	1.5471e-05
1633.91	1.4164e-05
1642.59	5.80058e-06
1651.26	2.55745e-06
1659.94	1.82613e-06
1668.62	1.48959e-06
1677.3	1.25703e-06
1685.98	9.21718e-07
1694.65	8.41335e-07
1703.33	8.41287e-07
1712.01	1.14848e-06
1720.69	2.91581e-06
1729.37	2.86512e-06
1738.05	2.28649e-06
1746.72	3.00274e-06
1755.4	3.43973e-06
1764.08	2.85089e-06
1772.76	3.19647e-06
1781.44	9.77931e-06
1790.11	1.1785e-05
1798.79	5.99416e-06
1807.47	1.48468e-06
1816.15	9.84006e-07
1824.83	1.29612e-06
1833.51	3.35547e-06
1842.18	4.06598e-06
1850.86	2.68959e-06
1859.54	2.26623e-06
1868.22	4.81167e-06
1876.9	1.22515e-05
1885.57	2.01934e-05
1894.25	2.14934e-05
1902.93	8.47625e-06
1911.61	3.31357e-06
1920.29	2.36592e-06
1928.97	1.95318e-06
1937.64	1.07225e-06
1946.32	8.15658e-07
1955	1.18882e-06
1963.68	9.09955e-07
1972.36	1.09834e-06
1981.03	1.40993e-06
1989.71	1.27476e-06
1998.39	1.04977e-06
2007.07	9.02905e-07
2015.75	5.92073e-07
2024.43	2.81509e-07
2033.1	3.63579e-07
2041.78	3.62235e-07
2050.46	2.05359e-07
2059.14	-8.52192e-10
2067.82	-8.71401e-08
2076.49	2.30055e-08
2085.17	2.42245e-07
2093.85	8.59102e-07
2102.53	1.87724e-06
2111.21	1.99467e-06
2119.89	6.8979e-07
2128.56	-1.08914e-07
2137.24	-1.24334e-07
2145.92	-1.08777e-07
2154.6	4.11538e-07
2163.28	4.17683e-08
2171.95	2.01256e-07
2180.63	1.2079e-07
2189.31	7.4731e-08
2197.99	1.55989e-07
2206.67	7.96316e-07
2215.35	7.79842e-07
2224.02	1.01611e-07
2232.7	-3.28963e-09
2241.38	-1.01245e-07
2250.06	-1.62442e-07
2258.74	-3.71845e-08
2267.41	1.2441e-07
2276.09	4.87699e-07
2284.77	6.30954e-07
2293.45	1.24485e-06
2302.13	2.42675e-06
2310.81	2.60628e-06
2319.48	1.78927e-06
2328.16	1.73093e-06
2336.84	2.26571e-06
2345.52	2.45099e-06
2354.2	1.75758e-06
2362.87	1.73677e-06
2371.55	9.51986e-07
2380.23	4.9949e-07
2388.91	5.43227e-07
2397.59	5.58785e-07
2406.27	1.05286e-06
2414.94	1.43555e-06
2423.62	1.55017e-06
2432.3	1.35175e-06
2440.98	1.17923e-06
2449.66	9.15476e-07
2458.33	7.37005e-07
2467.01	8.71249e-07
2475.69	8.07758e-07
2484.37	7.91025e-07
2493.05	6.75836e-07
2501.73	4.68949e-07
2510.4	3.55488e-07
2519.08	3.02588e-07
2527.76	3.33778e-07
2536.44	2.72385e-07
2545.12	1.49635e-07
2553.79	-1.174e-07
2562.47	-1.34263e-07
2571.15	2.00367e-07
2579.83	1.49347e-06
2588.51	3.00839e-06
2597.19	3.14517e-06
2605.86	1.67646e-06
2614.54	8.58652e-07
2623.22	2.78158e-07
2631.9	1.79841e-07
2640.58	4.44842e-07
2649.25	2.88822e-07
2657.93	-3.56693e-08
2666.61	-8.55102e-08
2675.29	-8.98467e-08
2683.97	3.56365e-08
2692.65	1.62666e-07
2701.32	7.92322e-07
2710	1.51739e-06
2718.68	2.01638e-06
2727.36	2.99128e-06
2736.04	1.09273e-05
2744.71	1.70901e-05
2753.39	8.01607e-06
2762.07	1.74381e-06
2770.75	9.50286e-07
2779.43	1.23355e-06
2788.11	1.71721e-06
2796.78	2.4609e-06
2805.46	3.57499e-06
2814.14	4.79081e-06
2822.82	7.13498e-06
2831.5	1.04261e-05
2840.17	1.39195e-05
2848.85	1.96198e-05
2857.53	3.51332e-05
2866.21	8.2141e-05
2874.89	0.000142821
2883.57	0.000155345
2892.24	0.000128014
2900.92	0.000108669
2909.6	9.72266e-05
2918.28	0.00012244
2926.96	0.000222799
2935.63	0.000303906
2944.31	0.000249262
2952.99	0.00013144
2961.67	9.78018e-05
2970.35	7.45587e-05
2979.03	8.64395e-05
2987.7	0.000112704
2996.38	0.000162374
3005.06	0.00020975
3013.74	0.000196602
3022.42	0.000236481
3031.09	0.000228997
3039.77	0.000163925
3048.45	0.000154544
3057.13	0.000147236
3065.81	0.000113625
3074.49	5.44721e-05
3083.16	2.92622e-05
3091.84	2.57734e-05
3100.52	2.74121e-05
3109.2	2.5209e-05
3117.88	1.56958e-05
3126.55	6.68701e-06
3135.23	7.37737e-06
3143.91	9.38682e-06
3152.59	6.56842e-06
3161.27	1.50976e-06
3169.95	4.40666e-07
3178.62	4.5841e-08
3187.3	-1.89338e-07
3195.98	-2.55267e-07
3204.66	-3.44021e-07
3213.34	-2.85947e-07
3222.01	-2.20707e-07
3230.69	-1.38129e-07
3239.37	-2.7052e-07
3248.05	-2.11027e-07
3256.73	-2.47745e-09
3265.41	6.8702e-08
3274.08	-2.89955e-08
3282.76	8.80659e-08
3291.44	2.49728e-07
3300.12	-2.87308e-08
3308.8	-9.06661e-08
3317.47	8.40278e-09
3326.15	7.51712e-08
3334.83	6.60308e-08
3343.51	-1.01153e-08
3352.19	-5.60792e-09
3360.86	-1.06705e-07
3369.54	-3.19868e-08
3378.22	2.65715e-07
3386.9	3.08715e-07
3395.58	2.58873e-07
3404.26	4.76655e-08
3412.93	7.56077e-08
3421.61	-1.17233e-09
3430.29	1.01547e-07
3438.97	1.82914e-07
3447.65	1.00895e-07
3456.32	1.11607e-07
3465	-2.69052e-07
3473.68	-3.19792e-07
3482.36	-2.89228e-07
3491.04	-1.89881e-07
3499.72	-2.54554e-07
3508.39	-1.50243e-07
3517.07	-2.76085e-07
3525.75	-2.72463e-07
3534.43	-4.93563e-07
3543.11	-1.80179e-07
3551.78	-5.55177e-07
3560.46	-6.19978e-07
3569.14	-6.00951e-07
3577.82	-5.23503e-07
3586.5	-6.57863e-07
3595.18	-3.2691e-07
3603.85	-1.64848e-07
3612.53	-3.03322e-07
3621.21	-1.86053e-07
3629.89	-3.24374e-07
3638.57	5.86539e-08
3647.24	1.03815e-07
3655.92	4.59694e-07
3664.6	9.7156e-07
3673.28	1.03886e-06
3681.96	1.02152e-06
3690.64	3.5381e-07
3699.31	4.88729e-07
3707.99	2.18649e-07
3716.67	5.2845e-08
3725.35	8.5643e-08
3734.03	1.13227e-07
3742.7	4.33198e-07
3751.38	6.89346e-07
3760.06	7.23869e-07
3768.74	7.45683e-07
3777.42	3.72885e-07
3786.1	2.99188e-07
3794.77	4.20527e-07
3803.45	4.00361e-07
3812.13	6.25928e-07
3820.81	5.70218e-07
3829.49	1.17854e-06
3838.16	7.77729e-07
3846.84	1.62548e-06
3855.52	1.68773e-06
3864.2	1.69153e-06
3872.88	1.82049e-06
3881.56	1.90565e-06
3890.23	2.03775e-06
3898.91	1.84875e-06
3907.59	1.98886e-06
3916.27	2.17196e-06
3924.95	2.30789e-06
3933.62	2.35982e-06
3942.3	2.19689e-06
3950.98	2.02478e-06
3959.66	2.0682e-06
3968.34	2.05461e-06
