Infrared Spectrum: 1,4-Dimethylbenzene
Formula: 1,4-( C H3)2 C6 H4
CAS: 106-42-3
State: gas
Melting point: 13.26 C
Boiling point: 138.35 C
Class: IUPAC A
Instrument: IFS66V (Bruker)
Instrument parameters: KBr Beam Splitter; MCT Detector; Multipass cell
Sampling: 1 L/min Flow
Resolution: 0.1250
Temperature: 23 C
Pressure: 101.3 Pa
Origin: NIST, Analytical Chemistry Division, 301-975-3108
cm-1	(micromol/mol)-1m-1 (base 10)
575.05	-4.13651e-06
583.608	-4.42669e-06
592.165	7.89083e-07
600.723	1.18683e-06
609.281	-1.42835e-06
617.838	3.19265e-07
626.396	-4.17414e-07
634.954	4.44286e-07
643.511	-1.21131e-06
652.069	-2.05697e-06
660.626	7.40208e-07
669.184	-1.76504e-06
677.742	-4.44608e-07
686.299	-1.34292e-06
694.857	-4.21057e-07
703.415	2.18627e-07
711.972	-1.30449e-06
720.53	9.8802e-07
729.088	1.25875e-07
737.645	6.71543e-07
746.203	-2.93559e-07
754.761	8.06317e-07
763.318	4.27373e-06
771.876	2.39035e-05
780.434	9.99086e-05
788.991	0.00017129
797.549	0.000188208
806.106	0.000150889
814.664	4.42849e-05
823.222	9.05651e-06
831.779	4.28172e-06
840.337	2.47376e-06
848.895	6.52378e-07
857.452	8.57848e-07
866.01	5.84341e-07
874.568	1.60984e-06
883.125	6.55187e-07
891.683	1.07802e-06
900.241	1.22203e-06
908.798	1.65721e-06
917.356	2.57136e-06
925.914	2.39502e-06
934.471	2.45057e-06
943.029	2.87136e-06
951.586	3.67775e-06
960.144	4.3767e-06
968.702	4.92081e-06
977.259	5.31752e-06
985.817	4.89548e-06
994.375	4.91018e-06
1002.93	4.49648e-06
1011.49	7.42962e-06
1020.05	2.13839e-05
1028.61	2.64344e-05
1037.16	1.75607e-05
1045.72	2.48906e-05
1054.28	2.34313e-05
1062.84	1.75831e-05
1071.39	1.09302e-05
1079.95	8.95593e-06
1088.51	1.18867e-05
1097.07	1.89355e-05
1105.62	2.59606e-05
1114.18	4.10224e-05
1122.74	3.21563e-05
1131.3	1.94923e-05
1139.85	7.35379e-06
1148.41	4.55481e-06
1156.97	3.19992e-06
1165.53	3.57764e-06
1174.09	3.65837e-06
1182.64	3.56791e-06
1191.2	3.0457e-06
1199.76	2.43364e-06
1208.32	5.85314e-06
1216.87	1.34064e-05
1225.43	1.76821e-05
1233.99	1.37578e-05
1242.55	1.26427e-05
1251.1	5.20127e-06
1259.66	3.38646e-06
1268.22	3.33505e-06
1276.78	2.55399e-06
1285.33	2.37045e-06
1293.89	2.31576e-06
1302.45	3.62121e-06
1311.01	5.09184e-06
1319.57	5.63714e-06
1328.12	5.97945e-06
1336.68	6.69672e-06
1345.24	8.90624e-06
1353.8	8.29612e-06
1362.35	6.91973e-06
1370.91	1.0777e-05
1379.47	1.9297e-05
1388.03	2.5631e-05
1396.58	1.73806e-05
1405.14	1.6928e-05
1413.7	2.21572e-05
1422.26	3.13302e-05
1430.81	3.58132e-05
1439.37	3.62562e-05
1447.93	2.82768e-05
1456.49	3.23727e-05
1465.05	3.99392e-05
1473.6	4.16272e-05
1482.16	3.87245e-05
1490.72	3.99799e-05
1499.28	5.31355e-05
1507.83	8.6549e-05
1516.39	0.000229296
1524.95	0.000240286
1533.51	5.7019e-05
1542.06	1.96286e-05
1550.62	1.47646e-05
1559.18	1.19453e-05
1567.74	8.82336e-06
1576.29	5.26315e-06
1584.85	5.41188e-06
1593.41	5.11529e-06
1601.97	5.8269e-06
1610.53	8.8395e-06
1619.08	1.60286e-05
1627.64	1.41314e-05
1636.2	1.14806e-05
1644.76	4.42742e-06
1653.31	2.81978e-08
1661.87	2.07566e-06
1670.43	1.67623e-06
1678.99	1.3281e-06
1687.54	1.29528e-06
1696.1	2.50179e-07
1704.66	7.78566e-07
1713.22	1.5292e-06
1721.77	3.25018e-06
1730.33	2.83105e-06
1738.89	2.41417e-06
1747.45	3.28864e-06
1756.01	3.71772e-06
1764.56	2.86818e-06
1773.12	3.76165e-06
1781.68	9.95852e-06
1790.24	1.22308e-05
1798.79	5.76884e-06
1807.35	1.3586e-06
1815.91	1.01538e-06
1824.47	1.36598e-06
1833.02	3.04375e-06
1841.58	4.16063e-06
1850.14	2.77503e-06
1858.7	1.98336e-06
1867.25	4.54446e-06
1875.81	1.10301e-05
1884.37	2.10825e-05
1892.93	2.15413e-05
1901.49	9.81868e-06
1910.04	3.53485e-06
1918.6	2.31145e-06
1927.16	2.09679e-06
1935.72	1.42048e-06
1944.27	6.79047e-07
1952.83	1.03058e-06
1961.39	6.11513e-07
1969.95	9.20511e-07
1978.5	1.20448e-06
1987.06	9.61928e-07
1995.62	1.13823e-06
2004.18	8.90534e-07
2012.73	9.74951e-07
2021.29	6.05709e-07
2029.85	4.9348e-08
2038.41	2.98011e-07
2046.97	-2.86255e-07
2055.52	-1.88809e-07
2064.08	8.53829e-09
2072.64	4.72744e-07
2081.2	3.02197e-07
2089.75	2.39642e-07
2098.31	1.40377e-06
2106.87	1.40143e-06
2115.43	1.20506e-06
2123.98	4.03534e-07
2132.54	-2.48519e-07
2141.1	-3.54532e-07
2149.66	-2.74584e-07
2158.21	1.24909e-06
2166.77	1.43138e-07
2175.33	7.02399e-09
2183.89	-1.09524e-07
2192.45	5.0464e-08
2201	3.28482e-07
2209.56	1.2141e-06
2218.12	6.44245e-07
2226.68	-1.77004e-07
2235.23	-3.21077e-08
2243.79	-1.90929e-07
2252.35	-3.54562e-07
2260.91	2.39136e-07
2269.46	3.00095e-07
2278.02	2.5089e-07
2286.58	6.0335e-07
2295.14	1.81751e-06
2303.69	2.5065e-06
2312.25	2.98059e-06
2320.81	9.92271e-07
2329.37	1.72496e-06
2337.93	2.65686e-06
2346.48	2.0797e-06
2355.04	1.03695e-06
2363.6	6.53449e-07
2372.16	-1.62308e-08
2380.71	8.58035e-07
2389.27	4.83964e-07
2397.83	3.47853e-07
2406.39	1.18314e-06
2414.94	1.22916e-06
2423.5	1.32075e-06
2432.06	1.23737e-06
2440.62	1.12707e-06
2449.17	7.59359e-07
2457.73	7.87304e-07
2466.29	5.13059e-07
2474.85	8.10176e-07
2483.41	7.56671e-07
2491.96	6.23162e-07
2500.52	6.48016e-07
2509.08	2.91622e-07
2517.64	4.18516e-07
2526.19	3.30569e-07
2534.75	3.65172e-07
2543.31	2.5748e-07
2551.87	2.44841e-07
2560.42	1.09472e-07
2568.98	5.596e-08
2577.54	1.5417e-06
2586.1	2.97984e-06
2594.65	3.20461e-06
2603.21	1.59642e-06
2611.77	1.12168e-06
2620.33	4.30542e-07
2628.89	1.37665e-07
2637.44	3.33337e-07
2646	5.82956e-08
2654.56	-9.2687e-08
2663.12	-2.96026e-07
2671.67	2.34012e-08
2680.23	-7.01551e-07
2688.79	-5.49637e-07
2697.35	1.29818e-07
2705.9	9.99068e-07
2714.46	1.58893e-06
2723.02	2.13031e-06
2731.58	5.37567e-06
2740.13	1.4471e-05
2748.69	1.68704e-05
2757.25	3.25048e-06
2765.81	1.12538e-06
2774.37	7.14687e-07
2782.92	9.69601e-07
2791.48	1.811e-06
2800.04	3.01912e-06
2808.6	4.04717e-06
2817.15	5.73888e-06
2825.71	7.9651e-06
2834.27	1.18072e-05
2842.83	1.54579e-05
2851.38	2.23053e-05
2859.94	4.30098e-05
2868.5	0.000100896
2877.06	0.000153494
2885.61	0.000151508
2894.17	0.000123404
2902.73	0.000105617
2911.29	9.65923e-05
2919.85	0.000133708
2928.4	0.000245995
2936.96	0.000305099
2945.52	0.000230185
2954.08	0.000118499
2962.63	9.51033e-05
2971.19	7.383e-05
2979.75	8.79558e-05
2988.31	0.000115205
2996.86	0.000166208
3005.42	0.00021
3013.98	0.000196796
3022.54	0.000238302
3031.09	0.000229484
3039.65	0.00016471
3048.21	0.000155602
3056.77	0.000147702
3065.33	0.000117801
3073.88	5.75108e-05
3082.44	2.95088e-05
3091	2.5315e-05
3099.56	2.74978e-05
3108.11	2.65828e-05
3116.67	1.68762e-05
3125.23	7.30882e-06
3133.79	6.47052e-06
3142.34	9.86117e-06
3150.9	7.69948e-06
3159.46	2.38213e-06
3168.02	5.41876e-07
3176.57	-3.77899e-07
3185.13	2.36676e-07
3193.69	-6.09161e-07
3202.25	-3.35069e-07
3210.81	2.03682e-07
3219.36	-4.1242e-07
3227.92	-3.55505e-07
3236.48	-6.06309e-07
3245.04	4.55726e-07
3253.59	6.30277e-08
3262.15	-3.06014e-07
3270.71	-4.28765e-07
3279.27	8.79113e-08
3287.82	-2.18592e-07
3296.38	-5.12997e-07
3304.94	-1.69942e-07
3313.5	-3.662e-07
3322.05	-1.50378e-07
3330.61	-7.22958e-07
3339.17	7.58196e-08
3347.73	-3.24903e-07
3356.29	1.91496e-07
3364.84	-4.85691e-07
3373.4	-1.58433e-09
3381.96	2.36008e-07
3390.52	1.06276e-06
3399.07	2.89355e-07
3407.63	7.53606e-07
3416.19	-2.29796e-07
3424.75	-2.0793e-07
3433.3	4.05218e-07
3441.86	-1.67846e-08
3450.42	1.50403e-07
3458.98	-3.24099e-07
3467.53	-4.28805e-07
3476.09	-4.83106e-07
3484.65	-7.4263e-07
3493.21	9.2838e-08
3501.77	2.21678e-07
3510.32	-1.8356e-07
3518.88	-8.02068e-07
3527.44	-6.21755e-08
3536	1.41317e-07
3544.55	-7.37303e-07
3553.11	-4.9469e-07
3561.67	-9.8641e-07
3570.23	-7.42198e-08
3578.78	-1.53442e-07
3587.34	-2.05846e-07
3595.9	-5.41638e-07
3604.46	-2.20033e-07
3613.01	2.49749e-07
3621.57	2.3307e-07
3630.13	4.79092e-08
3638.69	-2.85707e-08
3647.25	-9.92426e-08
3655.8	8.90579e-07
3664.36	1.04356e-06
3672.92	1.14526e-06
3681.48	1.23678e-06
3690.03	5.56517e-07
3698.59	4.83047e-07
3707.15	5.21934e-07
3715.71	2.74631e-07
3724.26	-7.05646e-08
3732.82	-1.78392e-07
3741.38	3.03933e-07
3749.94	5.51333e-07
3758.49	5.10653e-07
3767.05	7.46147e-07
3775.61	1.06752e-06
3784.17	7.6225e-07
3792.73	9.56029e-08
3801.28	-4.79139e-07
3809.84	8.77703e-07
3818.4	7.49306e-07
3826.96	7.9573e-07
3835.51	1.96768e-06
3844.07	2.10896e-06
3852.63	1.68258e-06
3861.19	1.62134e-06
3869.74	1.49886e-06
3878.3	1.41935e-06
3886.86	2.11629e-06
3895.42	2.48003e-06
3903.97	2.64725e-06
3912.53	2.14867e-06
3921.09	2.62211e-06
3929.65	1.76974e-06
3938.21	2.2195e-06
3946.76	2.58212e-06
3955.32	1.74392e-06
3963.88	2.70932e-06
3972.44	2.87454e-06
