Infrared Spectrum: 1,4-Dimethylbenzene
Formula: 1,4-( C H3)2 C6 H4
CAS: 106-42-3
State: gas
Melting point: 13.26 C
Boiling point: 138.35 C
Class: IUPAC A
Instrument: IFS66V (Bruker)
Instrument parameters: KBr Beam Splitter; MCT Detector; Multipass cell
Sampling: 1 L/min Flow
Resolution: 1.9290
Temperature: 23 C
Pressure: 101.3 Pa
Origin: NIST, Analytical Chemistry Division, 301-975-3108
cm-1	(micromol/mol)-1m-1 (base 10)
575.652	1.75656e-06
584.33	-2.65215e-07
593.008	-4.03715e-07
601.687	-9.86112e-07
610.365	-3.94522e-07
619.043	-9.21572e-07
627.721	-7.05868e-07
636.399	-7.819e-07
645.077	-3.28305e-07
653.756	-2.3872e-07
662.434	-4.01548e-07
671.112	-4.65909e-07
679.79	3.32913e-07
688.468	7.77414e-08
697.146	4.41774e-07
705.825	3.59446e-07
714.503	3.29705e-07
723.181	8.99658e-08
731.859	5.10329e-07
740.537	6.48567e-07
749.216	6.26544e-07
757.894	1.12972e-06
766.572	7.80571e-06
775.25	4.5652e-05
783.928	0.000142882
792.606	0.00020837
801.285	0.000178625
809.963	9.89163e-05
818.641	1.78698e-05
827.319	6.12448e-06
835.997	4.18192e-06
844.676	1.76844e-06
853.354	9.87002e-07
862.032	8.2314e-07
870.71	1.02407e-06
879.388	1.12262e-06
888.066	1.18911e-06
896.745	1.58236e-06
905.423	1.48713e-06
914.101	2.44214e-06
922.779	2.91211e-06
931.457	2.85362e-06
940.135	2.45396e-06
948.814	3.29394e-06
957.492	4.14909e-06
966.17	4.61435e-06
974.848	4.49339e-06
983.526	4.58812e-06
992.205	4.81568e-06
1000.88	5.19248e-06
1009.56	5.60346e-06
1018.24	2.2489e-05
1026.92	2.29944e-05
1035.6	1.74841e-05
1044.27	2.40075e-05
1052.95	2.422e-05
1061.63	1.82275e-05
1070.31	1.21333e-05
1078.99	8.97038e-06
1087.66	1.13576e-05
1096.34	1.879e-05
1105.02	2.49477e-05
1113.7	4.03556e-05
1122.38	3.05976e-05
1131.06	2.04924e-05
1139.73	7.50779e-06
1148.41	3.84051e-06
1157.09	3.07834e-06
1165.77	3.11554e-06
1174.45	3.30624e-06
1183.12	3.35902e-06
1191.8	3.01954e-06
1200.48	2.60702e-06
1209.16	6.09835e-06
1217.84	1.25297e-05
1226.52	1.74234e-05
1235.19	1.35162e-05
1243.87	1.20024e-05
1252.55	4.45695e-06
1261.23	3.04979e-06
1269.91	2.92889e-06
1278.58	2.32739e-06
1287.26	2.36688e-06
1295.94	2.62237e-06
1304.62	3.73386e-06
1313.3	5.04869e-06
1321.98	5.87489e-06
1330.65	6.30584e-06
1339.33	7.83972e-06
1348.01	8.37978e-06
1356.69	8.68849e-06
1365.37	8.75212e-06
1374.04	1.17013e-05
1382.72	2.20014e-05
1391.4	2.38779e-05
1400.08	1.57777e-05
1408.76	1.93874e-05
1417.44	2.53506e-05
1426.11	3.52203e-05
1434.79	3.66306e-05
1443.47	3.19195e-05
1452.15	3.30039e-05
1460.83	3.23204e-05
1469.5	4.77797e-05
1478.18	3.56021e-05
1486.86	4.15503e-05
1495.54	4.62239e-05
1504.22	5.86163e-05
1512.9	0.000201977
1521.57	0.000222455
1530.25	0.000116857
1538.93	2.50448e-05
1547.61	1.56649e-05
1556.29	1.2537e-05
1564.96	9.88457e-06
1573.64	7.50218e-06
1582.32	5.56514e-06
1591	4.90117e-06
1599.68	5.58453e-06
1608.36	7.86525e-06
1617.03	1.33338e-05
1625.71	1.51046e-05
1634.39	1.36565e-05
1643.07	5.54122e-06
1651.75	2.128e-06
1660.42	1.79457e-06
1669.1	1.11897e-06
1677.78	1.21293e-06
1686.46	1.05591e-06
1695.14	5.97614e-07
1703.82	7.25305e-07
1712.49	1.21716e-06
1721.17	3.00904e-06
1729.85	2.87534e-06
1738.53	2.27806e-06
1747.21	3.12291e-06
1755.88	3.46254e-06
1764.56	2.9026e-06
1773.24	3.43679e-06
1781.92	1.04528e-05
1790.6	1.23907e-05
1799.28	5.35167e-06
1807.95	1.29081e-06
1816.63	8.88786e-07
1825.31	1.27687e-06
1833.99	3.44056e-06
1842.67	4.14051e-06
1851.34	2.5268e-06
1860.02	2.19022e-06
1868.7	5.01563e-06
1877.38	1.29188e-05
1886.06	1.99642e-05
1894.74	2.15563e-05
1903.41	8.03533e-06
1912.09	3.05172e-06
1920.77	2.4115e-06
1929.45	1.86481e-06
1938.13	9.85744e-07
1946.8	7.31156e-07
1955.48	1.21087e-06
1964.16	9.47593e-07
1972.84	1.03329e-06
1981.52	1.39031e-06
1990.19	1.31727e-06
1998.87	9.51537e-07
2007.55	6.91421e-07
2016.23	4.61412e-07
2024.91	3.06936e-07
2033.59	3.60254e-07
2042.26	4.51201e-07
2050.94	1.58137e-07
2059.62	1.62462e-08
2068.3	-1.32384e-07
2076.98	1.1742e-07
2085.65	3.30227e-07
2094.33	1.30023e-06
2103.01	2.41657e-06
2111.69	2.22877e-06
2120.37	9.75192e-08
2129.05	-2.185e-07
2137.72	-2.08326e-07
2146.4	-2.97221e-09
2155.08	1.63177e-07
2163.76	-1.7483e-07
2172.44	7.53884e-07
2181.11	-3.934e-08
2189.79	3.85428e-07
2198.47	8.65462e-08
2207.15	7.27025e-07
2215.83	8.49764e-07
2224.51	2.80796e-08
2233.18	5.01365e-08
2241.86	-1.72105e-07
2250.54	-1.59344e-07
2259.22	-4.22667e-08
2267.9	1.07105e-07
2276.57	4.21869e-07
2285.25	6.27659e-07
2293.93	1.36332e-06
2302.61	2.44604e-06
2311.29	2.73404e-06
2319.97	1.41401e-06
2328.64	1.94726e-06
2337.32	2.70794e-06
2346	2.47186e-06
2354.68	1.64335e-06
2363.36	1.40447e-06
2372.03	7.62566e-07
2380.71	5.03696e-07
2389.39	5.93196e-07
2398.07	5.50821e-07
2406.75	1.11351e-06
2415.43	1.49474e-06
2424.1	1.57431e-06
2432.78	1.21536e-06
2441.46	1.22008e-06
2450.14	9.19006e-07
2458.82	7.44847e-07
2467.49	8.66134e-07
2476.17	8.86964e-07
2484.85	7.24683e-07
2493.53	6.91252e-07
2502.21	3.9171e-07
2510.89	3.5319e-07
2519.56	3.01674e-07
2528.24	3.31024e-07
2536.92	1.15804e-07
2545.6	1.16952e-07
2554.28	-2.40042e-07
2562.95	-8.00442e-08
2571.63	1.70166e-07
2580.31	1.78046e-06
2588.99	2.99037e-06
2597.67	3.00963e-06
2606.35	1.72895e-06
2615.02	7.33648e-07
2623.7	1.48578e-07
2632.38	1.09853e-07
2641.06	3.68819e-07
2649.74	2.97571e-07
2658.41	-2.22365e-07
2667.09	-1.52173e-07
2675.77	-2.27678e-07
2684.45	5.71778e-08
2693.13	6.94596e-08
2701.81	8.88122e-07
2710.48	1.44584e-06
2719.16	1.97067e-06
2727.84	2.91824e-06
2736.52	1.17314e-05
2745.2	1.55452e-05
2753.87	7.04234e-06
2762.55	1.52973e-06
2771.23	8.44895e-07
2779.91	1.20765e-06
2788.59	1.64661e-06
2797.27	2.34116e-06
2805.94	3.4765e-06
2814.62	4.69824e-06
2823.3	7.21958e-06
2831.98	1.04332e-05
2840.66	1.40298e-05
2849.33	1.94792e-05
2858.01	3.60295e-05
2866.69	8.58805e-05
2875.37	0.000146263
2884.05	0.000155179
2892.73	0.000126749
2901.4	0.000107527
2910.08	9.64956e-05
2918.76	0.000125198
2927.44	0.000231141
2936.12	0.000307576
2944.79	0.000243398
2953.47	0.000125068
2962.15	9.6374e-05
2970.83	7.34254e-05
2979.51	8.70811e-05
2988.19	0.000114723
2996.86	0.000166828
3005.54	0.000208907
3014.22	0.000196289
3022.9	0.000239915
3031.58	0.000230168
3040.25	0.000158803
3048.93	0.00015523
3057.61	0.000147452
3066.29	0.000110324
3074.97	5.15448e-05
3083.65	2.80387e-05
3092.32	2.57154e-05
3101	2.73164e-05
3109.68	2.46704e-05
3118.36	1.48691e-05
3127.04	6.0366e-06
3135.71	7.50198e-06
3144.39	9.19669e-06
3153.07	6.01547e-06
3161.75	1.30968e-06
3170.43	3.27255e-07
3179.11	-4.09853e-08
3187.78	-3.41294e-07
3196.46	-2.98469e-07
3205.14	-4.627e-07
3213.82	-2.78476e-07
3222.5	-2.03548e-07
3231.17	-2.82351e-07
3239.85	-9.04033e-08
3248.53	-3.7058e-07
3257.21	-4.36391e-08
3265.89	1.44912e-07
3274.57	-1.75774e-07
3283.24	-3.84796e-08
3291.92	1.73769e-07
3300.6	-2.11811e-08
3309.28	-9.27862e-08
3317.96	-1.37157e-07
3326.63	2.59859e-08
3335.31	-1.03374e-07
3343.99	-8.69527e-08
3352.67	-1.87271e-07
3361.35	-1.75627e-07
3370.03	-5.82519e-08
3378.7	2.11577e-07
3387.38	2.15485e-07
3396.06	2.08993e-07
3404.74	1.12542e-07
3413.42	-3.92536e-08
3422.09	-2.48856e-07
3430.77	2.47892e-07
3439.45	3.1164e-07
3448.13	1.70395e-07
3456.81	1.13295e-08
3465.49	-1.99658e-07
3474.16	-3.01523e-07
3482.84	-4.59858e-07
3491.52	-2.65285e-07
3500.2	-3.82411e-07
3508.88	-2.08491e-08
3517.55	-5.06486e-08
3526.23	-3.64158e-07
3534.91	-3.16329e-07
3543.59	-6.32123e-08
3552.27	-5.46631e-07
3560.95	-6.19164e-07
3569.62	-6.63636e-07
3578.3	-7.05028e-07
3586.98	-6.4294e-07
3595.66	-2.42797e-07
3604.34	-2.0967e-07
3613.01	-2.19379e-07
3621.69	-1.08799e-07
3630.37	-1.18977e-07
3639.05	8.16813e-08
3647.73	2.7187e-07
3656.41	4.04784e-07
3665.08	1.04482e-06
3673.76	1.0218e-06
3682.44	9.36781e-07
3691.12	2.40805e-07
3699.8	3.90097e-07
3708.47	2.4919e-07
3717.15	1.16648e-07
3725.83	1.51331e-07
3734.51	-1.97681e-07
3743.19	5.75346e-07
3751.87	1.17871e-07
3760.54	9.61504e-07
3769.22	5.17202e-07
3777.9	3.28628e-07
3786.58	3.66826e-07
3795.26	3.84354e-07
3803.93	5.15242e-07
3812.61	6.60363e-07
3821.29	4.95999e-07
3829.97	1.23166e-06
3838.65	1.10259e-06
3847.33	1.72397e-06
3856	1.67386e-06
3864.68	1.54688e-06
3873.36	1.72492e-06
3882.04	1.98388e-06
3890.72	1.91059e-06
3899.39	1.73014e-06
3908.07	1.99362e-06
3916.75	2.04368e-06
3925.43	2.27747e-06
3934.11	2.41165e-06
3942.79	2.1751e-06
3951.46	2.03538e-06
3960.14	2.1445e-06
3968.82	2.2252e-06
