Infrared Spectrum: 1,3-Butadiene
Formula: C H2: C H C H: C H2
CAS: 106-99-0
State: gas
Melting point: -108.91 C
Boiling point: -4.41 C
Class: IUPAC A
Instrument: IFS66V (Bruker)
Instrument parameters: KBr Beam splitter; MCT Detector; Multipass cell
Sampling: 1 L/min Flow
Resolution: 0.1250
Temperature: 23 C
Pressure: 101.3 kPa
Origin: NIST, Anayltical Chemistry Division, 301-975-3108
cm-1	(micromol/mol)-1m-1 (base 10)
574.988	5.95741e-06
583.546	2.95432e-06
592.103	2.73656e-06
600.661	1.19893e-06
609.219	6.62623e-07
617.776	6.68184e-07
626.334	9.06667e-07
634.891	1.20821e-06
643.449	1.52286e-06
652.007	2.37164e-06
660.564	2.77413e-06
669.122	2.9687e-06
677.68	2.77767e-06
686.237	2.24579e-06
694.795	1.70696e-06
703.352	1.20335e-06
711.91	7.93537e-07
720.468	7.42853e-07
729.025	5.84386e-07
737.583	9.44629e-07
746.141	8.63131e-07
754.698	1.10308e-06
763.256	1.1134e-06
771.813	7.9731e-07
780.371	5.16287e-07
788.929	4.60427e-07
797.486	5.5289e-07
806.044	7.35665e-07
814.602	1.06142e-06
823.159	1.64442e-06
831.717	3.04891e-06
840.274	6.02167e-06
848.832	1.51648e-05
857.39	2.52736e-05
865.947	3.78134e-05
874.505	6.10421e-05
883.063	8.96749e-05
891.62	0.000137618
900.178	0.000135515
908.735	0.000501524
917.293	0.000144751
925.851	0.000139091
934.408	0.000114332
942.966	8.57283e-05
951.524	4.94237e-05
960.081	3.03146e-05
968.639	2.76097e-05
977.196	3.27523e-05
985.754	6.4492e-05
994.312	8.9491e-05
1002.87	8.11536e-05
1011.43	0.000122062
1019.98	6.8171e-05
1028.54	7.47391e-05
1037.1	5.99797e-05
1045.66	4.80769e-05
1054.22	3.0584e-05
1062.77	2.18404e-05
1071.33	1.2445e-05
1079.89	8.88061e-06
1088.45	4.16844e-06
1097	1.51511e-06
1105.56	4.51083e-07
1114.12	2.22643e-07
1122.68	2.77884e-07
1131.23	3.15091e-07
1139.79	2.20764e-07
1148.35	1.60105e-07
1156.91	1.37431e-07
1165.46	2.24817e-07
1174.02	1.57731e-07
1182.58	1.9717e-07
1191.14	1.16142e-07
1199.69	1.79215e-07
1208.25	3.87679e-07
1216.81	5.24414e-07
1225.37	8.05541e-07
1233.93	1.40162e-06
1242.48	2.23863e-06
1251.04	3.48459e-06
1259.6	5.28885e-06
1268.16	5.1024e-06
1276.71	6.68665e-06
1285.27	7.44662e-06
1293.83	3.96867e-06
1302.39	6.77607e-06
1310.94	5.82165e-06
1319.5	4.15164e-06
1328.06	2.89807e-06
1336.62	2.99269e-06
1345.17	2.65212e-06
1353.73	4.11648e-06
1362.29	9.3296e-06
1370.85	2.09317e-05
1379.4	7.54547e-06
1387.96	1.97419e-05
1396.52	1.24093e-05
1405.08	5.92443e-06
1413.64	5.7534e-06
1422.19	5.58215e-06
1430.75	4.12006e-06
1439.31	5.15171e-06
1447.87	5.69779e-06
1456.42	5.06779e-06
1464.98	5.44703e-06
1473.54	8.33215e-06
1482.1	5.69536e-06
1490.65	5.90618e-06
1499.21	5.49176e-06
1507.77	3.17061e-06
1516.33	2.52216e-06
1524.88	1.46085e-06
1533.44	1.13635e-06
1542	3.66083e-06
1550.56	1.26009e-06
1559.11	3.33453e-06
1567.67	9.09888e-06
1576.23	3.80819e-05
1584.79	9.44785e-05
1593.35	6.33722e-05
1601.9	0.000100493
1610.46	6.72907e-05
1619.02	8.13624e-06
1627.58	3.05568e-06
1636.13	3.25392e-06
1644.69	3.61311e-06
1653.25	9.63359e-06
1661.81	1.81318e-06
1670.36	1.55848e-06
1678.92	8.96375e-07
1687.48	6.31737e-07
1696.04	6.16279e-06
1704.59	1.38458e-06
1713.15	7.25067e-07
1721.71	1.09668e-06
1730.27	2.1096e-06
1738.83	2.62401e-06
1747.38	3.98601e-06
1755.94	5.1819e-06
1764.5	3.76948e-06
1773.06	4.10177e-06
1781.61	2.98078e-06
1790.17	4.11473e-06
1798.73	1.04329e-05
1807.29	4.37631e-05
1815.84	4.12099e-05
1824.4	4.58194e-05
1832.96	4.51153e-05
1841.52	7.65828e-06
1850.07	1.66494e-06
1858.63	1.91646e-06
1867.19	2.041e-06
1875.75	1.94483e-06
1884.3	2.35128e-06
1892.86	1.24653e-06
1901.42	1.01222e-06
1909.98	1.65956e-06
1918.54	1.27969e-06
1927.09	1.34401e-06
1935.65	1.27876e-06
1944.21	1.49248e-06
1952.77	2.40176e-06
1961.32	3.60259e-06
1969.88	2.83693e-06
1978.44	3.25055e-06
1987	1.7626e-06
1995.55	7.5661e-07
2004.11	5.15517e-07
2012.67	2.73447e-07
2021.23	6.2773e-08
2029.78	5.71906e-08
2038.34	-4.96127e-08
2046.9	-5.31943e-08
2055.46	-7.88382e-08
2064.01	-2.93656e-08
2072.57	5.15554e-08
2081.13	6.32296e-08
2089.69	1.47336e-07
2098.25	3.42892e-07
2106.8	2.36218e-07
2115.36	3.48537e-07
2123.92	2.9643e-07
2132.48	1.62058e-07
2141.03	1.18625e-07
2149.59	2.16731e-07
2158.15	3.55516e-07
2166.71	4.01989e-07
2175.26	3.45797e-07
2183.82	3.34016e-07
2192.38	4.17254e-07
2200.94	4.9839e-07
2209.49	5.02733e-07
2218.05	4.20839e-07
2226.61	3.50634e-07
2235.17	4.96707e-07
2243.72	7.18583e-07
2252.28	9.85898e-07
2260.84	1.07279e-06
2269.4	1.0771e-06
2277.96	9.982e-07
2286.51	7.1523e-07
2295.07	5.43966e-07
2303.63	5.48663e-07
2312.19	4.23027e-07
2320.74	4.91332e-07
2329.3	4.63778e-07
2337.86	1.08024e-06
2346.42	4.17583e-07
2354.97	2.73396e-07
2363.53	2.98153e-07
2372.09	2.43138e-07
2380.65	1.83641e-07
2389.2	2.04106e-07
2397.76	2.01274e-07
2406.32	2.94402e-07
2414.88	3.66439e-07
2423.44	3.29261e-07
2431.99	4.01116e-07
2440.55	4.14498e-07
2449.11	3.97842e-07
2457.67	5.21418e-07
2466.22	7.52447e-07
2474.78	9.78462e-07
2483.34	1.84713e-06
2491.9	1.12765e-06
2500.45	1.56198e-06
2509.01	1.05534e-06
2517.57	4.88875e-07
2526.13	3.0491e-07
2534.68	2.08602e-07
2543.24	2.33313e-07
2551.8	1.98787e-07
2560.36	2.94482e-07
2568.91	4.71705e-07
2577.47	4.6131e-07
2586.03	4.62745e-07
2594.59	4.70375e-07
2603.15	1.8638e-07
2611.7	1.25115e-07
2620.26	1.43532e-07
2628.82	1.58422e-07
2637.38	1.97387e-07
2645.93	2.02489e-07
2654.49	1.74571e-07
2663.05	1.57505e-07
2671.61	1.11711e-07
2680.16	6.32587e-08
2688.72	1.3764e-07
2697.28	1.48874e-07
2705.84	1.70171e-07
2714.39	3.55949e-07
2722.95	4.32553e-07
2731.51	2.20055e-07
2740.07	3.34791e-07
2748.62	2.47971e-07
2757.18	1.05997e-07
2765.74	2.20228e-07
2774.3	1.81782e-07
2782.86	3.48675e-07
2791.41	3.4858e-07
2799.97	4.31513e-07
2808.53	5.61243e-07
2817.09	3.30145e-07
2825.64	4.58809e-07
2834.2	6.30628e-07
2842.76	1.19415e-06
2851.32	1.80286e-06
2859.87	2.07146e-06
2868.43	2.51097e-06
2876.99	2.95859e-06
2885.55	3.43407e-06
2894.1	4.5275e-06
2902.66	4.97566e-06
2911.22	6.1783e-06
2919.78	7.91056e-06
2928.34	9.43488e-06
2936.89	1.11532e-05
2945.45	1.34131e-05
2954.01	1.58319e-05
2962.57	2.29764e-05
2971.12	3.75387e-05
2979.68	4.09178e-05
2988.24	4.68484e-05
2996.8	5.8494e-05
3005.35	5.30461e-05
3013.91	4.56228e-05
3022.47	5.2958e-05
3031.03	4.41681e-05
3039.58	5.30339e-05
3048.14	5.46846e-05
3056.7	4.48938e-05
3065.26	7.12869e-05
3073.81	6.20286e-05
3082.37	7.2044e-05
3090.93	9.30027e-05
3099.49	5.5854e-05
3108.05	9.2903e-05
3116.6	6.24857e-05
3125.16	3.1093e-05
3133.72	2.14666e-05
3142.28	1.3293e-05
3150.83	7.29305e-06
3159.39	3.84512e-06
3167.95	1.83642e-06
3176.51	7.87829e-07
3185.06	3.31274e-07
3193.62	3.48493e-07
3202.18	1.3563e-07
3210.74	8.40933e-08
3219.29	4.13945e-07
3227.85	6.38913e-07
3236.41	8.82687e-07
3244.97	9.00166e-07
3253.52	4.44051e-07
3262.08	2.38192e-07
3270.64	2.37688e-07
3279.2	2.39585e-07
3287.76	2.11058e-07
3296.31	2.09921e-07
3304.87	-4.62512e-08
3313.43	2.53957e-07
3321.99	2.19836e-07
3330.54	2.34776e-07
3339.1	1.59448e-07
3347.66	1.37533e-08
3356.22	7.74431e-08
3364.77	3.13068e-07
3373.33	2.73553e-07
3381.89	2.80436e-07
3390.45	5.49379e-07
3399	4.15282e-07
3407.56	6.474e-07
3416.12	3.21097e-07
3424.68	2.18183e-07
3433.23	1.94445e-07
3441.79	2.49855e-07
3450.35	3.52467e-07
3458.91	3.83219e-07
3467.47	3.13548e-07
3476.02	1.80261e-07
3484.58	1.72281e-07
3493.14	1.71721e-07
3501.7	1.42028e-07
3510.25	2.94795e-07
3518.81	2.69655e-07
3527.37	4.07381e-07
3535.93	2.35905e-07
3544.48	2.15238e-07
3553.04	2.82913e-07
3561.6	2.27127e-07
3570.16	2.60003e-07
3578.71	3.08917e-07
3587.27	4.29921e-07
3595.83	4.75852e-07
3604.39	4.99172e-07
3612.95	6.48943e-07
3621.5	7.3163e-07
3630.06	6.29893e-07
3638.62	2.12126e-07
3647.18	1.3417e-06
3655.73	1.09255e-07
3664.29	1.15627e-07
3672.85	3.22614e-08
3681.41	1.97887e-08
3689.96	1.48687e-07
3698.52	1.72541e-07
3707.08	-2.47199e-08
3715.64	6.34078e-08
3724.19	9.56201e-08
3732.75	3.38736e-07
3741.31	6.01999e-07
3749.87	6.76444e-07
3758.42	8.3533e-08
3766.98	-8.30546e-09
3775.54	6.97197e-08
3784.1	6.24692e-08
3792.66	8.76021e-09
3801.21	1.80779e-06
3809.77	2.23318e-07
3818.33	1.57149e-07
3826.89	8.10863e-07
3835.44	3.11791e-07
3844	5.34767e-07
3852.56	7.10823e-07
3861.12	2.7135e-07
3869.67	6.14146e-07
3878.23	3.65793e-07
3886.79	4.84929e-07
3895.35	4.75489e-07
3903.9	8.02834e-07
3912.46	4.17158e-07
3921.02	2.92537e-07
3929.58	4.49872e-07
3938.13	4.50165e-07
3946.69	5.17996e-07
3955.25	5.92767e-07
3963.81	8.16496e-07
3972.37	1.38095e-06
