Infrared Spectrum: 1,4-Dimethylbenzene
Formula: 1,4-( C H3)2 C6 H4
CAS: 106-42-3
State: gas
Melting point: 13.26 C
Boiling point: 138.35 C
Class: IUPAC A
Instrument: IFS66V (Bruker)
Instrument parameters: KBr Beam Splitter; MCT Detector; Multipass cell
Sampling: 1 L/min Flow
Resolution: 0.9640
Temperature: 23 C
Pressure: 101.3 Pa
Origin: NIST, Analytical Chemistry Division, 301-975-3108
cm-1	(micromol/mol)-1m-1 (base 10)
575.17	2.18946e-06
583.848	-2.81466e-07
592.526	-1.80409e-07
601.205	-1.0908e-06
609.883	-1.54959e-08
618.561	-6.1161e-07
627.239	-2.49414e-07
635.917	-1.13366e-06
644.595	-3.06307e-07
653.274	1.26491e-07
661.952	-5.2878e-07
670.63	-2.41363e-07
679.308	3.0343e-07
687.986	-3.93213e-07
696.664	3.61317e-07
705.343	-1.68401e-08
714.021	1.59772e-07
722.699	4.22572e-07
731.377	3.451e-07
740.055	3.08163e-07
748.734	4.98367e-07
757.412	1.14045e-06
766.09	6.81002e-06
774.768	4.18635e-05
783.446	0.000137653
792.124	0.000192223
800.803	0.000180434
809.481	0.000105586
818.159	2.02853e-05
826.837	6.27539e-06
835.515	4.51176e-06
844.194	1.92681e-06
852.872	1.0439e-06
861.55	8.67046e-07
870.228	9.87968e-07
878.906	1.11787e-06
887.584	1.42842e-06
896.263	1.45252e-06
904.941	1.39309e-06
913.619	2.33599e-06
922.297	2.92849e-06
930.975	2.63839e-06
939.653	2.74555e-06
948.332	3.20324e-06
957.01	4.34943e-06
965.688	4.7218e-06
974.366	4.55571e-06
983.044	4.61609e-06
991.723	4.6582e-06
1000.4	5.08239e-06
1009.08	5.47335e-06
1017.76	2.19906e-05
1026.44	2.10237e-05
1035.11	1.80315e-05
1043.79	2.36085e-05
1052.47	2.4386e-05
1061.15	1.85897e-05
1069.83	1.22925e-05
1078.5	9.15948e-06
1087.18	1.12325e-05
1095.86	1.85791e-05
1104.54	2.39816e-05
1113.22	3.94607e-05
1121.9	2.8557e-05
1130.57	2.19499e-05
1139.25	7.74548e-06
1147.93	3.97301e-06
1156.61	3.14413e-06
1165.29	3.22326e-06
1173.96	3.29497e-06
1182.64	3.36001e-06
1191.32	3.12165e-06
1200	2.74823e-06
1208.68	5.59804e-06
1217.36	1.30876e-05
1226.03	1.75607e-05
1234.71	1.37519e-05
1243.39	1.18629e-05
1252.07	4.79536e-06
1260.75	3.1268e-06
1269.42	2.92822e-06
1278.1	2.35901e-06
1286.78	2.31538e-06
1295.46	2.45112e-06
1304.14	3.61268e-06
1312.82	5.09084e-06
1321.49	5.66988e-06
1330.17	6.2113e-06
1338.85	7.5202e-06
1347.53	8.43676e-06
1356.21	8.92334e-06
1364.88	8.2864e-06
1373.56	1.13037e-05
1382.24	2.06748e-05
1390.92	2.45813e-05
1399.6	1.5824e-05
1408.28	1.9135e-05
1416.95	2.49031e-05
1425.63	3.48068e-05
1434.31	3.64653e-05
1442.99	3.29465e-05
1451.67	3.24721e-05
1460.34	3.20277e-05
1469.02	4.72586e-05
1477.7	3.59485e-05
1486.38	4.14247e-05
1495.06	4.57102e-05
1503.73	5.75163e-05
1512.41	0.000188744
1521.09	0.000244927
1529.77	0.000129809
1538.45	2.68538e-05
1547.13	1.60356e-05
1555.8	1.27832e-05
1564.48	1.00027e-05
1573.16	7.57738e-06
1581.84	5.88512e-06
1590.52	4.87763e-06
1599.19	5.46239e-06
1607.87	7.61012e-06
1616.55	1.24083e-05
1625.23	1.55495e-05
1633.91	1.43333e-05
1642.59	5.69436e-06
1651.26	2.43435e-06
1659.94	1.78746e-06
1668.62	1.58262e-06
1677.3	1.2354e-06
1685.98	8.10682e-07
1694.65	7.44771e-07
1703.33	7.81387e-07
1712.01	1.14653e-06
1720.69	2.91635e-06
1729.37	2.86461e-06
1738.05	2.31866e-06
1746.72	3.01016e-06
1755.4	3.41141e-06
1764.08	2.82026e-06
1772.76	2.8114e-06
1781.44	9.90738e-06
1790.11	1.20541e-05
1798.79	6.0301e-06
1807.47	1.46801e-06
1816.15	1.00383e-06
1824.83	1.26667e-06
1833.51	3.34046e-06
1842.18	4.06041e-06
1850.86	2.65411e-06
1859.54	2.20495e-06
1868.22	4.69477e-06
1876.9	1.22371e-05
1885.57	2.04517e-05
1894.25	2.19e-05
1902.93	8.47477e-06
1911.61	3.26806e-06
1920.29	2.33611e-06
1928.97	1.95662e-06
1937.64	1.0968e-06
1946.32	8.59759e-07
1955	1.23668e-06
1963.68	9.04373e-07
1972.36	1.13758e-06
1981.03	1.43329e-06
1989.71	1.29168e-06
1998.39	1.04374e-06
2007.07	9.82586e-07
2015.75	6.36082e-07
2024.43	2.96168e-07
2033.1	3.41687e-07
2041.78	4.04249e-07
2050.46	1.87296e-07
2059.14	1.69038e-08
2067.82	-4.52935e-08
2076.49	1.48611e-09
2085.17	2.95841e-07
2093.85	8.4909e-07
2102.53	1.6535e-06
2111.21	2.12994e-06
2119.89	1.07947e-06
2128.56	-1.1077e-07
2137.24	-1.63311e-07
2145.92	-1.13534e-07
2154.6	8.13144e-07
2163.28	1.44583e-07
2171.95	-1.75178e-07
2180.63	-9.21586e-08
2189.31	-2.82621e-07
2197.99	1.7603e-07
2206.67	7.96537e-07
2215.35	7.97338e-07
2224.02	9.44915e-08
2232.7	-2.31738e-08
2241.38	-1.48396e-07
2250.06	-1.74669e-07
2258.74	-9.03615e-08
2267.41	6.40454e-08
2276.09	4.92449e-07
2284.77	5.92999e-07
2293.45	1.16256e-06
2302.13	2.39669e-06
2310.81	2.66505e-06
2319.48	1.75447e-06
2328.16	1.5174e-06
2336.84	1.74929e-06
2345.52	2.41603e-06
2354.2	1.97248e-06
2362.87	2.68758e-06
2371.55	1.46707e-06
2380.23	3.68516e-07
2388.91	5.4229e-07
2397.59	4.93407e-07
2406.27	1.08656e-06
2414.94	1.41453e-06
2423.62	1.59202e-06
2432.3	1.34684e-06
2440.98	1.13616e-06
2449.66	9.11087e-07
2458.33	6.89407e-07
2467.01	9.16358e-07
2475.69	7.35975e-07
2484.37	7.63325e-07
2493.05	6.67892e-07
2501.73	3.54573e-07
2510.4	2.60642e-07
2519.08	3.33266e-07
2527.76	3.09236e-07
2536.44	3.06957e-07
2545.12	1.94534e-07
2553.79	-8.35612e-08
2562.47	-2.43839e-07
2571.15	2.10738e-07
2579.83	1.40314e-06
2588.51	2.983e-06
2597.19	3.20952e-06
2605.86	1.70283e-06
2614.54	8.70258e-07
2623.22	2.40272e-07
2631.9	1.61474e-07
2640.58	4.79173e-07
2649.25	3.26468e-07
2657.93	-1.00762e-07
2666.61	-1.34614e-07
2675.29	-1.15573e-07
2683.97	6.08021e-08
2692.65	1.10437e-07
2701.32	7.64047e-07
2710	1.4213e-06
2718.68	1.94039e-06
2727.36	3.01838e-06
2736.04	1.10111e-05
2744.71	1.77523e-05
2753.39	7.82275e-06
2762.07	1.68704e-06
2770.75	6.82079e-07
2779.43	1.12736e-06
2788.11	1.70676e-06
2796.78	2.43049e-06
2805.46	3.47619e-06
2814.14	4.55989e-06
2822.82	6.98378e-06
2831.5	1.02857e-05
2840.17	1.36541e-05
2848.85	1.93868e-05
2857.53	3.46465e-05
2866.21	8.20438e-05
2874.89	0.000143588
2883.57	0.000156107
2892.24	0.000128095
2900.92	0.000108505
2909.6	9.64621e-05
2918.28	0.000121482
2926.96	0.000223706
2935.63	0.000307003
2944.31	0.000251011
2952.99	0.000130948
2961.67	9.73677e-05
2970.35	7.36838e-05
2979.03	8.59957e-05
2987.7	0.000112084
2996.38	0.000162794
3005.06	0.000211579
3013.74	0.000196778
3022.42	0.000238105
3031.09	0.000229388
3039.77	0.000163406
3048.45	0.000155228
3057.13	0.00014745
3065.81	0.000113963
3074.49	5.39349e-05
3083.16	2.87765e-05
3091.84	2.53937e-05
3100.52	2.74315e-05
3109.2	2.52068e-05
3117.88	1.56459e-05
3126.55	6.53432e-06
3135.23	7.27286e-06
3143.91	9.35668e-06
3152.59	6.47821e-06
3161.27	1.46565e-06
3169.95	3.21988e-07
3178.62	-1.04845e-07
3187.3	-2.86262e-07
3195.98	-3.87861e-07
3204.66	-4.57895e-07
3213.34	-4.39528e-07
3222.01	-2.68239e-07
3230.69	-1.28796e-07
3239.37	-3.7866e-07
3248.05	-1.75082e-07
3256.73	-3.9631e-08
3265.41	1.98269e-09
3274.08	-5.35771e-08
3282.76	3.46384e-07
3291.44	4.73036e-07
3300.12	-2.52172e-07
3308.8	-2.55342e-07
3317.47	2.2579e-08
3326.15	-4.361e-08
3334.83	1.25805e-07
3343.51	-5.19792e-08
3352.19	-3.93327e-08
3360.86	-7.69638e-08
3369.54	-1.88213e-07
3378.22	1.71322e-07
3386.9	2.65707e-07
3395.58	4.03925e-07
3404.26	-4.49397e-08
3412.93	4.1189e-08
3421.61	-1.54997e-07
3430.29	4.47887e-08
3438.97	-5.29632e-08
3447.65	8.00697e-08
3456.32	3.0668e-07
3465	-2.63361e-07
3473.68	-2.52156e-07
3482.36	-3.50456e-07
3491.04	-2.48859e-07
3499.72	-2.5471e-07
3508.39	-9.2939e-08
3517.07	-2.95294e-07
3525.75	-1.58914e-07
3534.43	-6.15332e-07
3543.11	-1.93313e-07
3551.78	-5.82051e-07
3560.46	-6.6647e-07
3569.14	-5.60346e-07
3577.82	-6.04105e-07
3586.5	-8.33467e-07
3595.18	-4.03208e-07
3603.85	-5.41992e-08
3612.53	-5.0853e-07
3621.21	-2.00642e-07
3629.89	-3.43781e-07
3638.57	9.53373e-08
3647.24	-2.68772e-08
3655.92	4.66328e-07
3664.6	9.94144e-07
3673.28	1.07746e-06
3681.96	1.08655e-06
3690.64	2.96036e-07
3699.31	5.27072e-07
3707.99	1.02344e-07
3716.67	1.69808e-07
3725.35	-1.3197e-07
3734.03	1.84946e-07
3742.7	4.68068e-07
3751.38	8.16694e-07
3760.06	6.28387e-07
3768.74	7.15619e-07
3777.42	3.20694e-07
3786.1	3.989e-07
3794.77	5.78682e-07
3803.45	3.19986e-07
3812.13	5.22299e-07
3820.81	3.69587e-07
3829.49	1.15459e-06
3838.16	6.08784e-07
3846.84	1.58525e-06
3855.52	1.86645e-06
3864.2	1.61366e-06
3872.88	1.98853e-06
3881.56	1.8177e-06
3890.23	2.0871e-06
3898.91	1.90088e-06
3907.59	2.04502e-06
3916.27	2.10303e-06
3924.95	2.25437e-06
3933.62	2.48593e-06
3942.3	2.17334e-06
3950.98	2.20104e-06
3959.66	2.11182e-06
3968.34	2.00232e-06
