Infrared Spectrum: 1,3-Butadiene
Formula: C H2: C H C H: C H2
CAS: 106-99-0
State: gas
Melting point: -108.91 C
Boiling point: -4.41 C
Class: IUPAC A
Instrument: IFS66V (Bruker)
Instrument parameters: KBr Beam splitter; MCT Detector; Multipass cell
Sampling: 1 L/min Flow
Resolution: 0.2410
Temperature: 23 C
Pressure: 101.3 kPa
Origin: NIST, Anayltical Chemistry Division, 301-975-3108
cm-1	(micromol/mol)-1m-1 (base 10)
575.048	5.27069e-06
583.606	3.03188e-06
592.163	2.46093e-06
600.721	1.13843e-06
609.279	7.25084e-07
617.836	6.40021e-07
626.394	7.62347e-07
634.951	1.17311e-06
643.509	1.55359e-06
652.067	2.43046e-06
660.624	2.80508e-06
669.182	3.20416e-06
677.74	2.78808e-06
686.297	2.18671e-06
694.855	1.6192e-06
703.412	1.23772e-06
711.97	7.43916e-07
720.528	7.55093e-07
729.085	6.84522e-07
737.643	9.56896e-07
746.201	8.94951e-07
754.758	1.05701e-06
763.316	1.11352e-06
771.873	7.89752e-07
780.431	4.85529e-07
788.989	4.74586e-07
797.546	5.55014e-07
806.104	6.99973e-07
814.662	1.02297e-06
823.219	1.67495e-06
831.777	3.12172e-06
840.334	6.06705e-06
848.892	1.56394e-05
857.45	2.42209e-05
866.007	3.8927e-05
874.565	6.14999e-05
883.123	8.92422e-05
891.68	0.00014383
900.238	0.000134052
908.795	0.000471871
917.353	0.000142297
925.911	0.000138205
934.468	0.000114085
943.026	8.93495e-05
951.584	4.9401e-05
960.141	2.99052e-05
968.699	2.73016e-05
977.256	3.31704e-05
985.814	6.46339e-05
994.372	8.97444e-05
1002.93	7.99516e-05
1011.49	0.000120542
1020.04	6.74296e-05
1028.6	7.42022e-05
1037.16	6.03233e-05
1045.72	4.88064e-05
1054.28	3.08627e-05
1062.83	2.20934e-05
1071.39	1.23947e-05
1079.95	8.81092e-06
1088.51	4.2619e-06
1097.06	1.54014e-06
1105.62	5.23048e-07
1114.18	2.54859e-07
1122.74	2.69893e-07
1131.29	2.70693e-07
1139.85	1.95984e-07
1148.41	1.62977e-07
1156.97	1.81218e-07
1165.52	1.83266e-07
1174.08	1.75815e-07
1182.64	2.14578e-07
1191.2	1.61511e-07
1199.75	1.57946e-07
1208.31	3.55336e-07
1216.87	4.7537e-07
1225.43	8.6859e-07
1233.99	1.37959e-06
1242.54	2.23476e-06
1251.1	3.62564e-06
1259.66	5.47348e-06
1268.22	5.12027e-06
1276.77	6.73042e-06
1285.33	7.30823e-06
1293.89	4.14736e-06
1302.45	6.66636e-06
1311	5.5446e-06
1319.56	4.51732e-06
1328.12	2.78959e-06
1336.68	3.0446e-06
1345.23	2.65718e-06
1353.79	4.06642e-06
1362.35	9.73035e-06
1370.91	2.10567e-05
1379.46	7.56744e-06
1388.02	1.97136e-05
1396.58	1.21961e-05
1405.14	5.7081e-06
1413.7	5.84323e-06
1422.25	5.72377e-06
1430.81	4.21252e-06
1439.37	5.19416e-06
1447.93	5.76049e-06
1456.48	5.60452e-06
1465.04	4.85223e-06
1473.6	7.34442e-06
1482.16	5.61142e-06
1490.71	6.10487e-06
1499.27	5.52974e-06
1507.83	3.17767e-06
1516.39	2.40734e-06
1524.94	1.42148e-06
1533.5	1.13801e-06
1542.06	4.09333e-06
1550.62	1.24619e-06
1559.18	3.34759e-06
1567.73	9.09105e-06
1576.29	3.67513e-05
1584.85	9.50443e-05
1593.41	6.2135e-05
1601.96	0.000101221
1610.52	6.66067e-05
1619.08	7.98847e-06
1627.64	3.28779e-06
1636.19	3.13349e-06
1644.75	3.58277e-06
1653.31	9.12109e-06
1661.87	1.84479e-06
1670.42	1.54815e-06
1678.98	9.06589e-07
1687.54	6.46224e-07
1696.1	4.33305e-06
1704.65	1.13232e-06
1713.21	7.18786e-07
1721.77	1.08553e-06
1730.33	2.08929e-06
1738.89	2.61523e-06
1747.44	3.97901e-06
1756	5.2236e-06
1764.56	3.69145e-06
1773.12	4.00442e-06
1781.67	2.97586e-06
1790.23	4.13339e-06
1798.79	1.05283e-05
1807.35	4.3967e-05
1815.9	4.10266e-05
1824.46	4.6288e-05
1833.02	4.47118e-05
1841.58	7.56642e-06
1850.13	1.6581e-06
1858.69	1.88671e-06
1867.25	2.05955e-06
1875.81	1.95545e-06
1884.36	2.3399e-06
1892.92	1.24909e-06
1901.48	1.03837e-06
1910.04	1.6877e-06
1918.6	1.26438e-06
1927.15	1.3336e-06
1935.71	1.29541e-06
1944.27	1.50636e-06
1952.83	2.40651e-06
1961.38	3.60472e-06
1969.94	2.7538e-06
1978.5	3.2577e-06
1987.06	1.76275e-06
1995.61	7.49085e-07
2004.17	5.36615e-07
2012.73	2.7113e-07
2021.29	5.28014e-08
2029.84	5.9417e-08
2038.4	-5.67613e-08
2046.96	-5.63738e-08
2055.52	-7.6479e-08
2064.08	-3.04206e-08
2072.63	4.63985e-08
2081.19	8.22652e-08
2089.75	1.64652e-07
2098.31	3.40615e-07
2106.86	2.52671e-07
2115.42	4.70908e-07
2123.98	2.70197e-07
2132.54	1.772e-07
2141.09	1.25664e-07
2149.65	1.9568e-07
2158.21	5.19759e-07
2166.77	4.27629e-07
2175.32	3.33377e-07
2183.88	3.70559e-07
2192.44	4.17876e-07
2201	4.96614e-07
2209.55	4.46892e-07
2218.11	4.39407e-07
2226.67	3.81336e-07
2235.23	4.69113e-07
2243.79	7.02261e-07
2252.34	9.96903e-07
2260.9	1.07276e-06
2269.46	1.06792e-06
2278.02	1.00898e-06
2286.57	7.37393e-07
2295.13	5.32965e-07
2303.69	5.63542e-07
2312.25	4.31453e-07
2320.8	5.13727e-07
2329.36	4.39662e-07
2337.92	8.42706e-07
2346.48	3.84703e-07
2355.03	2.49484e-07
2363.59	3.50696e-07
2372.15	2.3994e-07
2380.71	2.21788e-07
2389.26	2.00073e-07
2397.82	2.0194e-07
2406.38	2.66954e-07
2414.94	3.69337e-07
2423.5	3.41379e-07
2432.05	4.07421e-07
2440.61	4.35104e-07
2449.17	4.17149e-07
2457.73	5.51144e-07
2466.28	7.32269e-07
2474.84	1.00917e-06
2483.4	1.84761e-06
2491.96	1.11744e-06
2500.51	1.56316e-06
2509.07	1.06941e-06
2517.63	4.94582e-07
2526.19	2.84319e-07
2534.74	2.30719e-07
2543.3	2.27296e-07
2551.86	2.13834e-07
2560.42	3.21143e-07
2568.98	4.61153e-07
2577.53	5.0281e-07
2586.09	4.53923e-07
2594.65	4.45365e-07
2603.21	1.81942e-07
2611.76	1.29286e-07
2620.32	1.69185e-07
2628.88	1.76346e-07
2637.44	2.28278e-07
2645.99	2.10383e-07
2654.55	1.6837e-07
2663.11	1.58651e-07
2671.67	1.01032e-07
2680.22	6.25456e-08
2688.78	1.1437e-07
2697.34	1.44491e-07
2705.9	1.88468e-07
2714.45	3.74504e-07
2723.01	4.71296e-07
2731.57	2.27696e-07
2740.13	3.1126e-07
2748.69	2.02829e-07
2757.24	1.70795e-07
2765.8	2.18923e-07
2774.36	1.90473e-07
2782.92	3.52416e-07
2791.47	3.7674e-07
2800.03	4.54101e-07
2808.59	5.5836e-07
2817.15	3.45626e-07
2825.7	4.21663e-07
2834.26	6.49612e-07
2842.82	1.19035e-06
2851.38	1.81337e-06
2859.93	2.09832e-06
2868.49	2.50478e-06
2877.05	2.96282e-06
2885.61	3.45901e-06
2894.16	4.51744e-06
2902.72	5.05909e-06
2911.28	6.28847e-06
2919.84	7.98895e-06
2928.4	9.50632e-06
2936.95	1.11554e-05
2945.51	1.34292e-05
2954.07	1.59518e-05
2962.63	2.28167e-05
2971.18	3.72512e-05
2979.74	4.07574e-05
2988.3	4.71465e-05
2996.86	5.8898e-05
3005.41	5.27119e-05
3013.97	4.60606e-05
3022.53	5.27916e-05
3031.09	4.47203e-05
3039.64	5.35254e-05
3048.2	5.49864e-05
3056.76	4.55201e-05
3065.32	7.06851e-05
3073.88	6.18088e-05
3082.43	7.15897e-05
3090.99	9.35943e-05
3099.55	5.55678e-05
3108.11	9.31989e-05
3116.66	6.19223e-05
3125.22	3.10528e-05
3133.78	2.13572e-05
3142.34	1.33526e-05
3150.89	7.27053e-06
3159.45	3.89764e-06
3168.01	1.83676e-06
3176.57	7.70989e-07
3185.12	3.82397e-07
3193.68	3.02018e-07
3202.24	1.26592e-07
3210.8	9.44578e-08
3219.35	4.70687e-07
3227.91	6.13629e-07
3236.47	8.77611e-07
3245.03	9.3722e-07
3253.59	3.87352e-07
3262.14	2.98107e-07
3270.7	2.21572e-07
3279.26	2.33408e-07
3287.82	1.68765e-07
3296.37	1.98604e-07
3304.93	9.61695e-08
3313.49	3.08304e-07
3322.05	2.32642e-07
3330.6	2.47922e-07
3339.16	1.39096e-07
3347.72	1.22963e-08
3356.28	3.75965e-08
3364.83	2.4165e-07
3373.39	2.24786e-07
3381.95	3.32397e-07
3390.51	5.38616e-07
3399.06	4.24725e-07
3407.62	6.05304e-07
3416.18	3.44897e-07
3424.74	1.65749e-07
3433.3	1.97701e-07
3441.85	2.59307e-07
3450.41	3.41579e-07
3458.97	3.33217e-07
3467.53	3.54386e-07
3476.08	1.67164e-07
3484.64	1.13965e-07
3493.2	1.69351e-07
3501.76	1.92788e-07
3510.31	2.45604e-07
3518.87	3.96656e-07
3527.43	3.51991e-07
3535.99	2.21916e-07
3544.54	1.68236e-07
3553.1	2.565e-07
3561.66	2.64885e-07
3570.22	2.89784e-07
3578.78	3.11357e-07
3587.33	3.81442e-07
3595.89	4.66688e-07
3604.45	5.34389e-07
3613.01	6.9706e-07
3621.56	7.11238e-07
3630.12	5.79347e-07
3638.68	1.84395e-07
3647.24	1.1473e-06
3655.79	1.72066e-07
3664.35	7.45891e-08
3672.91	1.027e-08
3681.47	4.72353e-08
3690.02	1.04861e-07
3698.58	1.25813e-07
3707.14	3.75437e-09
3715.7	5.9799e-08
3724.25	1.08786e-07
3732.81	2.57828e-07
3741.37	5.04487e-07
3749.93	5.21331e-07
3758.49	9.1622e-08
3767.04	-1.41262e-08
3775.6	3.8426e-08
3784.16	7.63153e-08
3792.72	5.4222e-08
3801.27	3.05162e-06
3809.83	1.9243e-07
3818.39	1.7497e-07
3826.95	6.71529e-07
3835.5	3.18945e-07
3844.06	4.50685e-07
3852.62	6.34118e-07
3861.18	2.59581e-07
3869.73	7.1174e-07
3878.29	3.64022e-07
3886.85	4.78226e-07
3895.41	4.3649e-07
3903.96	1.0838e-06
3912.52	3.74337e-07
3921.08	3.27604e-07
3929.64	4.814e-07
3938.2	5.09092e-07
3946.75	4.75241e-07
3955.31	5.3721e-07
3963.87	8.22219e-07
3972.43	1.36851e-06
