Infrared Spectrum: 1,3-Butadiene
Formula: C H2: C H C H: C H2
CAS: 106-99-0
State: gas
Melting point: -108.91 C
Boiling point: -4.41 C
Class: IUPAC A
Instrument: IFS66V (Bruker)
Instrument parameters: KBr Beam splitter; MCT Detector; Multipass cell
Sampling: 1 L/min Flow
Resolution: 0.9640
Temperature: 23 C
Pressure: 101.3 kPa
Origin: NIST, Anayltical Chemistry Division, 301-975-3108
cm-1	(micromol/mol)-1m-1 (base 10)
575.169	4.73188e-06
583.847	3.1492e-06
592.525	1.93546e-06
601.203	1.90487e-06
609.882	8.34629e-07
618.56	5.3573e-07
627.238	7.47622e-07
635.916	1.08513e-06
644.594	1.76002e-06
653.272	2.33054e-06
661.951	2.632e-06
670.629	3.2511e-06
679.307	2.69687e-06
687.985	2.18846e-06
696.663	1.63251e-06
705.341	1.15529e-06
714.019	6.82854e-07
722.698	7.10712e-07
731.376	8.16015e-07
740.054	1.03707e-06
748.732	9.71109e-07
757.41	1.03141e-06
766.088	9.14725e-07
774.767	6.97076e-07
783.445	5.97675e-07
792.123	5.24159e-07
800.801	5.46927e-07
809.479	7.52644e-07
818.157	1.11153e-06
826.835	2.12364e-06
835.514	4.5862e-06
844.192	8.57552e-06
852.87	1.6578e-05
861.548	3.45816e-05
870.226	5.51982e-05
878.904	8.26683e-05
887.583	0.000109497
896.261	0.000141965
904.939	0.000142993
913.617	0.000137689
922.295	0.000154662
930.973	0.000146305
939.651	0.000104128
948.33	6.14809e-05
957.008	3.43686e-05
965.686	2.60591e-05
974.364	2.8955e-05
983.042	5.3303e-05
991.72	6.88309e-05
1000.4	9.24371e-05
1009.08	9.48809e-05
1017.75	6.95634e-05
1026.43	7.05698e-05
1035.11	6.54734e-05
1043.79	5.03565e-05
1052.47	3.63128e-05
1061.15	2.17319e-05
1069.82	1.36036e-05
1078.5	9.70287e-06
1087.18	4.67538e-06
1095.86	1.80156e-06
1104.54	6.18234e-07
1113.21	2.93426e-07
1121.89	2.39211e-07
1130.57	2.6878e-07
1139.25	2.45542e-07
1147.93	2.44609e-07
1156.61	2.01948e-07
1165.28	1.71899e-07
1173.96	2.02749e-07
1182.64	2.19208e-07
1191.32	1.64583e-07
1200	1.90941e-07
1208.67	3.33372e-07
1217.35	5.03191e-07
1226.03	8.75965e-07
1234.71	1.49408e-06
1243.39	2.46905e-06
1252.07	4.36601e-06
1260.74	5.58262e-06
1269.42	5.37784e-06
1278.1	7.75566e-06
1286.78	7.30159e-06
1295.46	4.10811e-06
1304.13	6.34061e-06
1312.81	4.13221e-06
1321.49	3.0064e-06
1330.17	2.73882e-06
1338.85	2.8143e-06
1347.52	2.96534e-06
1356.2	4.96787e-06
1364.88	1.32823e-05
1373.56	2.11018e-05
1382.24	7.94139e-06
1390.92	1.91804e-05
1399.59	7.79275e-06
1408.27	5.16882e-06
1416.95	5.73603e-06
1425.63	5.00635e-06
1434.31	4.53669e-06
1442.98	5.26768e-06
1451.66	3.75247e-06
1460.34	3.20844e-06
1469.02	4.12366e-06
1477.7	5.9772e-06
1486.38	5.13145e-06
1495.05	5.61174e-06
1503.73	3.73172e-06
1512.41	2.90121e-06
1521.09	3.47889e-06
1529.77	8.78254e-07
1538.44	1.78593e-06
1547.12	9.7543e-07
1555.8	2.05155e-06
1564.48	6.30107e-06
1573.16	1.99659e-05
1581.83	7.10299e-05
1590.51	9.88351e-05
1599.19	6.22386e-05
1607.87	9.81045e-05
1616.55	1.79435e-05
1625.23	3.34259e-06
1633.9	2.97383e-06
1642.58	3.15993e-06
1651.26	2.8581e-06
1659.94	1.57712e-06
1668.62	2.12082e-06
1677.29	1.07464e-06
1685.97	7.99385e-07
1694.65	6.95476e-07
1703.33	5.66471e-07
1712.01	6.86896e-07
1720.69	1.07334e-06
1729.36	1.80735e-06
1738.04	2.40687e-06
1746.72	3.8189e-06
1755.4	5.23203e-06
1764.08	3.81406e-06
1772.75	5.13183e-06
1781.43	2.98648e-06
1790.11	4.30188e-06
1798.79	1.06542e-05
1807.47	4.44901e-05
1816.15	4.03042e-05
1824.82	4.97294e-05
1833.5	4.1532e-05
1842.18	6.72085e-06
1850.86	1.61623e-06
1859.54	1.92777e-06
1868.21	2.13667e-06
1876.89	2.13695e-06
1885.57	2.20506e-06
1894.25	1.23527e-06
1902.93	1.33324e-06
1911.6	1.42028e-06
1920.28	1.18442e-06
1928.96	1.31539e-06
1937.64	1.32479e-06
1946.32	1.77541e-06
1955	2.83567e-06
1963.67	3.67644e-06
1972.35	2.33185e-06
1981.03	2.87745e-06
1989.71	1.35077e-06
1998.39	6.95754e-07
2007.06	4.6119e-07
2015.74	1.95582e-07
2024.42	3.76616e-08
2033.1	1.60096e-08
2041.78	1.45117e-08
2050.46	-3.11579e-08
2059.13	-2.39393e-08
2067.81	-8.6437e-09
2076.49	4.70174e-08
2085.17	1.01056e-07
2093.85	2.26892e-07
2102.52	3.05495e-07
2111.2	3.92566e-07
2119.88	4.57907e-07
2128.56	2.04072e-07
2137.24	1.6158e-07
2145.91	1.80822e-07
2154.59	3.53485e-07
2163.27	3.21019e-07
2171.95	3.9251e-07
2180.63	4.34164e-07
2189.31	4.60562e-07
2197.98	4.18025e-07
2206.66	4.06055e-07
2215.34	4.30743e-07
2224.02	3.77632e-07
2232.7	4.59941e-07
2241.37	6.54007e-07
2250.05	8.80022e-07
2258.73	1.21799e-06
2267.41	9.54847e-07
2276.09	1.14287e-06
2284.77	7.79618e-07
2293.44	5.76743e-07
2302.12	5.82911e-07
2310.8	5.66366e-07
2319.48	6.88108e-07
2328.16	6.84478e-07
2336.83	4.67593e-07
2345.51	6.27679e-07
2354.19	8.53643e-07
2362.87	1.29721e-06
2371.55	6.46126e-07
2380.23	1.82693e-07
2388.9	1.49026e-07
2397.58	1.93529e-07
2406.26	2.98047e-07
2414.94	3.70356e-07
2423.62	3.53851e-07
2432.29	4.47302e-07
2440.97	4.05915e-07
2449.65	4.43311e-07
2458.33	5.59173e-07
2467.01	6.47963e-07
2475.68	1.10336e-06
2484.36	1.62414e-06
2493.04	1.17263e-06
2501.72	1.65344e-06
2510.4	9.89903e-07
2519.08	4.27622e-07
2527.75	3.12025e-07
2536.43	2.39759e-07
2545.11	1.97032e-07
2553.79	2.72041e-07
2562.47	3.51438e-07
2571.14	5.66012e-07
2579.82	4.05826e-07
2588.5	5.02871e-07
2597.18	3.65305e-07
2605.86	1.29823e-07
2614.54	1.10766e-07
2623.21	1.67013e-07
2631.89	1.41451e-07
2640.57	1.82115e-07
2649.25	1.6603e-07
2657.93	1.34678e-07
2666.6	9.61866e-08
2675.28	9.91115e-08
2683.96	1.01405e-07
2692.64	1.2416e-07
2701.32	2.28012e-07
2709.99	2.26728e-07
2718.67	4.22075e-07
2727.35	3.23125e-07
2736.03	3.39831e-07
2744.71	2.61608e-07
2753.39	1.86365e-07
2762.06	2.06119e-07
2770.74	2.01951e-07
2779.42	1.95212e-07
2788.1	3.60013e-07
2796.78	3.79882e-07
2805.45	5.00913e-07
2814.13	3.54528e-07
2822.81	4.08117e-07
2831.49	4.78583e-07
2840.17	1.01392e-06
2848.85	1.67903e-06
2857.52	2.05372e-06
2866.2	2.4433e-06
2874.88	2.64786e-06
2883.56	3.3184e-06
2892.24	4.78474e-06
2900.91	5.29429e-06
2909.59	5.97959e-06
2918.27	7.94072e-06
2926.95	8.60112e-06
2935.63	1.13946e-05
2944.31	1.23367e-05
2952.98	1.6301e-05
2961.66	2.03132e-05
2970.34	3.61818e-05
2979.02	4.24601e-05
2987.7	4.47501e-05
2996.37	5.583e-05
3005.05	5.56014e-05
3013.73	4.48844e-05
3022.41	5.32621e-05
3031.09	4.35464e-05
3039.76	5.47459e-05
3048.44	5.4846e-05
3057.12	4.87392e-05
3065.8	6.58465e-05
3074.48	6.05011e-05
3083.16	7.45104e-05
3091.83	9.59578e-05
3100.51	6.52627e-05
3109.19	9.51921e-05
3117.87	4.91914e-05
3126.55	3.25054e-05
3135.22	2.03287e-05
3143.9	1.1919e-05
3152.58	6.63002e-06
3161.26	3.06574e-06
3169.94	1.42088e-06
3178.62	5.73856e-07
3187.29	4.14925e-07
3195.97	2.99002e-07
3204.65	-1.35713e-08
3213.33	1.43818e-07
3222.01	6.02143e-07
3230.68	5.63938e-07
3239.36	9.20889e-07
3248.04	6.354e-07
3256.72	3.63455e-07
3265.4	3.01119e-07
3274.07	1.85337e-07
3282.75	1.00315e-07
3291.43	6.11161e-08
3300.11	2.25462e-07
3308.79	2.05364e-07
3317.47	2.56499e-07
3326.14	1.90404e-07
3334.82	1.71297e-07
3343.5	1.23713e-07
3352.18	7.41481e-08
3360.86	9.72916e-08
3369.53	9.0556e-08
3378.21	2.92032e-07
3386.89	4.97657e-07
3395.57	5.24406e-07
3404.25	6.56945e-07
3412.93	5.21086e-07
3421.6	2.77511e-07
3430.28	1.49834e-07
3438.96	2.68362e-07
3447.64	3.68847e-07
3456.32	2.42964e-07
3464.99	3.46475e-07
3473.67	1.83731e-07
3482.35	2.55115e-07
3491.03	1.99482e-07
3499.71	2.42368e-07
3508.39	2.22028e-07
3517.06	2.97137e-07
3525.74	2.77807e-07
3534.42	3.16936e-07
3543.1	2.66489e-07
3551.78	3.44112e-07
3560.45	3.03785e-07
3569.13	3.03195e-07
3577.81	3.37791e-07
3586.49	8.86614e-07
3595.17	6.95061e-07
3603.84	5.24727e-07
3612.52	1.05399e-06
3621.2	7.5505e-07
3629.88	1.49881e-06
3638.56	1.83374e-07
3647.24	9.69559e-07
3655.91	7.07198e-07
3664.59	3.69376e-08
3673.27	4.58041e-08
3681.95	5.12783e-08
3690.63	3.83989e-07
3699.3	1.1998e-07
3707.98	9.30325e-08
3716.66	5.9219e-08
3725.34	2.03463e-07
3734.02	2.8375e-07
3742.7	1.29383e-07
3751.37	4.56901e-07
3760.05	6.24818e-07
3768.73	1.04024e-07
3777.41	5.3974e-08
3786.09	1.21919e-07
3794.76	7.53459e-08
3803.44	2.74593e-07
3812.12	1.45313e-07
3820.8	1.17503e-06
3829.48	2.22733e-07
3838.16	2.26368e-06
3846.83	2.74491e-07
3855.51	3.51418e-07
3864.19	5.64331e-07
3872.87	4.04489e-07
3881.55	4.73069e-07
3890.22	4.67469e-07
3898.9	7.95973e-07
3907.58	4.02953e-07
3916.26	4.61201e-07
3924.94	6.34672e-07
3933.61	4.13225e-07
3942.29	5.34829e-07
3950.97	5.04821e-07
3959.65	6.20459e-07
3968.33	9.96049e-07
