Infrared Spectrum: PHENOL, 4-METHYL-
Formula: C7 H8 O
CAS: 106-44-5
State: SOLUTION (10% IN CCl4 FOR 3800-1333, 10% IN CS2 FOR 1333-400 CM^-^1)
Class: COBLENTZ III
Instrument: DOW KBr FOREPRISM-GRATING
Instrument parameters: BLAZED AT 3.5, 12.0, 20.0 MICRON, CHANGED AT 5.0, 7.5, 14.9 MICRON
Sampling: TRANSMISSION
Path length: 0.011, 0.011 CM
Resolution: 4
Origin: DOW CHEMICAL COMPANY
1/CM	TRANSMITTANCE
382.472	0.495
391.178	0.499
399.884	0.542
408.589	0.663
417.295	0.725
426.001	0.773
434.707	0.833
443.412	0.862
452.118	0.873
460.824	0.757
469.53	0.813
478.235	0.897
486.941	0.89
495.647	0.83
504.353	0.218
513.058	0.398
521.764	0.785
530.47	0.836
539.176	0.845
547.881	0.843
556.587	0.837
565.293	0.832
573.999	0.821
582.704	0.813
591.41	0.804
600.116	0.8
608.822	0.795
617.527	0.787
626.233	0.778
634.939	0.77
643.645	0.739
652.35	0.735
661.056	0.778
669.762	0.789
678.468	0.81
687.173	0.822
695.879	0.8
704.585	0.762
713.291	0.826
721.996	0.832
730.702	0.765
739.408	0.287
748.114	0.759
756.819	0.851
765.525	0.878
774.231	0.885
782.937	0.873
791.643	0.824
800.348	0.525
809.054	0.096
817.76	0.02
826.466	0.3691
835.171	0.637
843.877	0.4361
852.583	0.757
861.289	0.813
869.994	0.863
878.7	0.9
887.406	0.948
896.112	0.974
904.817	0.98
913.523	0.968
922.229	0.903
930.935	0.963
939.64	0.971
948.346	0.954
957.052	0.971
965.758	0.976
974.463	0.969
983.169	0.956
991.875	0.963
1000.58	0.961
1009.29	0.935
1017.99	0.904
1026.7	0.914
1035.4	0.844
1044.11	0.848
1052.82	0.909
1061.52	0.929
1070.23	0.929
1078.93	0.916
1087.64	0.889
1096.34	0.742
1105.05	0.4161
1113.76	0.605
1122.46	0.818
1131.17	0.796
1139.87	0.743
1148.58	0.626
1157.28	0.487
1165.99	0.178
1174.7	0.0721
1183.4	0.199
1192.11	0.206
1200.81	0.145
1209.52	0.095
1218.22	0.081
1226.93	0.09
1235.64	0.064
1244.34	0.103
1253.05	0.08
1261.75	0.285
1270.46	0.6781
1279.16	0.817
1287.87	0.792
1296.58	0.733
1305.28	0.84
1313.99	0.826
1322.69	0.6649
1331.4	0.532
1340.11	0.512
1348.81	0.481
1357.52	0.466
1366.22	0.529
1374.93	0.652
1383.63	0.6871
1392.34	0.819
1401.05	0.844
1409.75	0.814
1418.46	0.671
1427.16	0.407
1435.87	0.396
1444.57	0.448
1453.28	0.466
1461.99	0.455
1470.69	0.512
1479.4	0.618
1488.1	0.612
1496.81	0.5469
1505.51	0.1949
1514.22	0.001
1522.93	0.1502
1531.63	0.515
1540.34	0.502
1549.04	0.474
1557.75	0.506
1566.45	0.604
1575.16	0.635
1583.87	0.605
1592.57	0.4119
1601.28	0.2971
1609.98	0.381
1618.69	0.2941
1627.4	0.721
1636.1	0.783
1644.81	0.869
1653.51	0.918
1662.22	0.937
1670.92	0.945
1679.63	0.942
1688.34	0.926
1697.04	0.949
1705.75	0.96
1714.45	0.957
1723.16	0.959
1731.86	0.953
1740.57	0.948
1749.28	0.942
1757.98	0.935
1766.69	0.939
1775.39	0.959
1784.1	0.965
1792.8	0.968
1801.51	0.968
1810.22	0.969
1818.92	0.968
1827.63	0.964
1836.33	0.954
1845.04	0.946
1853.74	0.927
1862.45	0.877
1871.16	0.821
1879.86	0.896
1888.57	0.942
1897.27	0.95
1905.98	0.954
1914.69	0.959
1923.39	0.967
1932.1	0.967
1940.8	0.96
1949.51	0.984
1958.21	0.979
1966.92	0.96
1975.63	0.954
1984.33	0.939
1993.04	0.8999
2001.74	0.949
2010.45	0.944
2019.15	0.945
2027.86	0.954
2036.57	0.994
2045.27	0.9521
2053.98	0.952
2062.68	0.953
2071.39	0.939
2080.09	0.945
2088.8	0.946
2097.51	0.945
2106.21	0.9501
2114.92	0.9541
2123.62	0.954
2132.33	0.9612
2141.03	0.965
2149.74	0.964
2158.45	0.964
2167.15	0.9631
2175.86	0.965
2184.56	0.9639
2193.27	0.96
2201.97	0.9613
2210.68	0.964
2219.39	0.964
2228.09	0.964
2236.8	0.963
2245.5	0.9598
2254.21	0.957
2262.92	0.954
2271.62	0.9498
2280.33	0.9378
2289.03	0.9326
2297.74	0.9334
2306.44	0.935
2315.15	0.933
2323.86	0.9308
2332.56	0.9253
2341.27	0.9136
2349.97	0.914
2358.68	0.9118
2367.38	0.924
2376.09	0.9375
2384.8	0.9453
2393.5	0.9435
2402.21	0.9365
2410.91	0.9307
2419.62	0.9189
2428.32	0.905
2437.03	0.9043
2445.74	0.912
2454.44	0.9101
2463.15	0.907
2471.85	0.909
2480.56	0.9143
2489.26	0.9193
2497.97	0.922
2506.68	0.923
2515.38	0.9317
2524.09	0.937
2532.79	0.934
2541.5	0.9295
2550.21	0.923
2558.91	0.922
2567.62	0.919
2576.32	0.918
2585.03	0.9132
2593.73	0.909
2602.44	0.9114
2611.15	0.9128
2619.85	0.918
2628.56	0.92
2637.26	0.919
2645.97	0.9156
2654.67	0.9116
2663.38	0.908
2672.09	0.9041
2680.79	0.8967
2689.5	0.893
2698.2	0.892
2706.91	0.89
2715.61	0.889
2724.32	0.888
2733.03	0.8771
2741.73	0.8683
2750.44	0.914
2759.14	0.915
2767.85	0.907
2776.55	0.9025
2785.26	0.891
2793.97	0.8829
2802.67	0.8815
2811.38	0.8759
2820.08	0.874
2828.79	0.8654
2837.5	0.8514
2846.2	0.8249
2854.91	0.7496
2863.61	0.6046
2872.32	0.6088
2881.02	0.7176
2889.73	0.729
2898.44	0.7082
2907.14	0.6443
2915.85	0.5323
2924.55	0.4356
2933.26	0.5182
2941.96	0.5776
2950.67	0.5856
2959.38	0.6072
2968.08	0.6196
2976.79	0.645
2985.49	0.6577
2994.2	0.6633
3002.9	0.6387
3011.61	0.5572
3020.32	0.4913
3029.02	0.4406
3037.73	0.4317
3046.43	0.4807
3055.14	0.6258
3063.84	0.6516
3072.55	0.6666
3081.26	0.7028
3089.96	0.7272
3098.67	0.7283
3107.37	0.7178
3116.08	0.6918
3124.79	0.6785
3133.49	0.6617
3142.2	0.6382
3150.9	0.6234
3159.61	0.5986
3168.31	0.5693
3177.02	0.5474
3185.73	0.5125
3194.43	0.4822
3203.14	0.4456
3211.84	0.4146
3220.55	0.3877
3229.25	0.3631
3237.96	0.3363
3246.67	0.3192
3255.37	0.2972
3264.08	0.2725
3272.78	0.2499
3281.49	0.2306
3290.19	0.2146
3298.9	0.2014
3307.61	0.1921
3316.31	0.1841
3325.02	0.1782
3333.72	0.175
3342.43	0.174
3351.13	0.174
3359.84	0.177
3368.55	0.1819
3377.25	0.1859
3385.96	0.1899
3394.66	0.1989
3403.37	0.2067
3412.08	0.2139
3420.78	0.2258
3429.49	0.2378
3438.19	0.2547
3446.9	0.2699
3455.6	0.283
3464.31	0.3019
3473.02	0.3199
3481.72	0.332
3490.43	0.343
3499.13	0.361
3507.84	0.384
3516.54	0.4201
3525.25	0.462
3533.96	0.4892
3542.66	0.5152
3551.37	0.5512
3560.07	0.5703
3568.78	0.6113
3577.48	0.6411
3586.19	0.6327
3594.9	0.5816
3603.6	0.4904
3612.31	0.3746
3621.01	0.3113
3629.72	0.6336
3638.42	0.8228
3647.13	0.8677
3655.84	0.8779
3664.54	0.8739
3673.25	0.8699
3681.95	0.8778
3690.66	0.9055
3699.36	0.9234
3708.07	0.9304
3716.78	0.9353
3725.48	0.9412
3734.19	0.9452
3742.89	0.9458
3751.6	0.9448
3760.31	0.9424
3769.01	0.945
3777.72	0.9418
3786.42	0.942
3795.13	0.945
