Infrared Spectrum: P-BROMOPHENOL
Formula: C6 H5 Br O
CAS: 106-41-2
State: SOLUTION (ETHYL ETHER)
Class: COBLENTZ
Instrument: Not specified, most likely a prism, grating, or hybrid spectrometer.
Sampling: TRANSMISSION
Path length: 0.0200 CM
Resolution: 4
Origin: BATTELLE MEMORIAL INSTITUTE (R. JAKOBSEN)
1/CM	TRANSMITTANCE
298.871	0.316
299.801	0.331
300.73	0.335
301.66	0.349
302.589	0.358
303.519	0.373
304.449	0.402
305.378	0.449
306.308	0.494
307.238	0.513
308.167	0.56
309.097	0.553
310.026	0.565
310.956	0.56
311.886	0.548
312.815	0.525
313.745	0.442
314.674	0.414
315.604	0.401
316.534	0.415
317.463	0.45
318.393	0.494
319.323	0.503
320.252	0.511
321.182	0.532
322.111	0.539
323.041	0.564
323.971	0.547
324.9	0.564
325.83	0.592
326.759	0.585
327.689	0.564
328.619	0.592
329.548	0.593
330.478	0.908
331.408	0.908
332.337	0.903
333.267	0.898
334.196	0.904
335.126	0.912
336.056	0.895
336.985	0.912
337.915	0.903
338.845	0.901
339.774	0.904
340.704	0.9
341.633	0.9
342.563	0.912
343.493	0.912
344.422	0.898
345.352	0.907
346.281	0.909
347.211	0.903
348.141	0.909
349.07	0.905
350	0.9
350.93	0.903
351.859	0.904
352.789	0.907
353.718	0.904
354.648	0.913
355.578	0.907
356.507	0.903
357.437	0.908
358.366	0.912
359.296	0.912
360.226	0.912
361.155	0.912
362.085	0.912
363.015	0.911
363.944	0.908
364.874	0.905
365.803	0.899
366.733	0.89
367.663	0.883
368.592	0.878
369.522	0.878
370.451	0.878
371.381	0.874
372.311	0.867
373.24	0.858
374.17	0.846
375.1	0.842
376.029	0.841
376.959	0.841
377.888	0.827
378.818	0.815
379.748	0.809
380.677	0.809
381.607	0.807
382.536	0.806
383.466	0.811
384.396	0.817
385.325	0.822
386.255	0.825
387.185	0.838
388.114	0.841
389.044	0.842
389.973	0.845
390.903	0.846
391.833	0.851
392.762	0.858
393.692	0.871
394.621	0.876
395.551	0.884
396.481	0.887
397.41	0.896
398.34	0.9
399.27	0.903
400.199	0.905
401.129	0.905
402.058	0.905
402.988	0.904
403.918	0.903
404.847	0.901
405.777	0.903
406.707	0.903
407.636	0.903
408.566	0.899
409.495	0.896
410.425	0.896
411.355	0.896
412.284	0.892
413.214	0.886
414.143	0.878
415.073	0.871
416.003	0.866
416.932	0.867
417.862	0.858
418.792	0.852
419.721	0.856
420.651	0.855
421.58	0.852
422.51	0.849
423.44	0.839
424.369	0.833
425.299	0.822
426.228	0.818
427.158	0.817
428.088	0.801
429.017	0.788
429.947	0.777
430.877	0.769
431.806	0.756
432.736	0.741
433.665	0.724
434.595	0.701
435.525	0.695
436.454	0.688
437.384	0.676
438.313	0.674
439.243	0.674
440.173	0.672
441.102	0.672
442.032	0.672
442.962	0.676
443.891	0.7
444.821	0.716
445.75	0.728
446.68	0.748
447.61	0.761
448.539	0.768
449.469	0.772
450.398	0.781
451.328	0.785
452.258	0.79
453.187	0.801
454.117	0.81
455.047	0.815
455.976	0.821
456.906	0.825
457.835	0.831
458.765	0.831
459.695	0.834
460.624	0.834
461.554	0.835
462.484	0.845
463.413	0.847
464.343	0.847
465.272	0.851
466.202	0.856
467.132	0.856
468.061	0.856
468.991	0.852
469.92	0.851
470.85	0.852
471.78	0.851
472.709	0.847
473.639	0.846
474.569	0.845
475.498	0.847
476.428	0.849
477.357	0.846
478.287	0.841
479.217	0.835
480.146	0.833
481.076	0.829
482.005	0.822
482.935	0.817
483.865	0.809
484.794	0.801
485.724	0.794
486.654	0.782
487.583	0.773
488.513	0.762
489.442	0.752
490.372	0.743
491.302	0.737
492.231	0.72
493.161	0.695
494.09	0.633
495.02	0.58
495.95	0.537
496.879	0.467
497.809	0.381
498.739	0.298
499.668	0.243
500.598	0.209
501.527	0.169
502.457	0.124
503.387	0.064
504.316	0.045
505.246	0.039
506.175	0.043
507.105	0.067
508.035	0.115
508.964	0.162
509.894	0.202
510.824	0.229
511.753	0.28
512.683	0.341
513.612	0.43
514.542	0.482
515.472	0.521
516.401	0.552
517.331	0.584
518.26	0.61
519.19	0.629
520.12	0.638
521.049	0.642
521.979	0.654
522.909	0.668
523.838	0.68
524.768	0.687
525.697	0.696
526.627	0.7
527.557	0.703
528.486	0.704
529.416	0.705
530.346	0.705
531.275	0.705
532.205	0.704
533.134	0.705
534.064	0.709
534.994	0.712
535.923	0.712
536.853	0.712
537.782	0.709
538.712	0.709
539.642	0.709
540.571	0.708
541.501	0.709
542.431	0.712
543.36	0.708
544.29	0.707
545.219	0.701
546.149	0.701
547.079	0.701
548.008	0.695
548.938	0.694
549.867	0.691
550.797	0.69
551.727	0.69
552.656	0.69
553.586	0.674
554.516	0.671
555.445	0.666
556.375	0.662
557.304	0.66
558.234	0.654
559.164	0.651
560.093	0.651
561.023	0.651
561.952	0.65
562.882	0.646
563.812	0.641
564.741	0.631
565.671	0.63
566.601	0.623
567.53	0.61
568.46	0.605
569.389	0.598
570.319	0.588
571.249	0.576
572.178	0.566
573.108	0.553
574.037	0.536
574.967	0.523
575.897	0.508
576.826	0.484
577.756	0.468
578.686	0.455
579.615	0.449
580.545	0.442
581.474	0.438
582.404	0.43
583.334	0.426
584.263	0.423
585.193	0.426
586.122	0.429
587.052	0.429
587.982	0.425
588.911	0.415
589.841	0.414
590.771	0.409
591.7	0.4
592.63	0.381
593.559	0.35
594.489	0.325
595.419	0.292
596.348	0.254
597.278	0.197
598.208	0.137
599.137	0.103
600.067	0.08
600.996	0.059
601.926	0.042
602.856	0.033
603.785	0.037
604.715	0.052
605.644	0.075
606.574	0.117
607.504	0.172
608.433	0.225
609.363	0.263
610.293	0.301
611.222	0.32
612.152	0.348
613.081	0.388
614.011	0.419
614.941	0.439
615.87	0.451
616.8	0.466
617.729	0.472
618.659	0.479
619.589	0.487
620.518	0.49
621.448	0.49
622.378	0.494
623.307	0.498
624.237	0.496
625.166	0.494
626.096	0.492
627.026	0.49
627.955	0.488
628.885	0.491
629.814	0.492
630.744	0.492
631.674	0.494
632.603	0.495
633.533	0.503
634.463	0.505
635.392	0.507
636.322	0.511
637.251	0.516
638.181	0.52
639.111	0.52
640.04	0.516
640.97	0.513
641.899	0.511
642.829	0.508
643.759	0.504
644.688	0.5
645.618	0.499
646.548	0.496
647.477	0.495
648.407	0.494
649.336	0.492
650.266	0.491
651.196	0.49
652.125	0.491
653.055	0.49
653.984	0.487
654.914	0.487
655.844	0.486
656.773	0.486
657.703	0.486
658.633	0.483
659.562	0.48
