Infrared Spectrum: 1,3-Butadiene
Formula: C H2: C H C H: C H2
CAS: 106-99-0
State: gas
Melting point: -108.91 C
Boiling point: -4.41 C
Class: IUPAC A
Instrument: IFS66V (Bruker)
Instrument parameters: KBr Beam splitter; MCT Detector; Multipass cell
Sampling: 1 L/min Flow
Resolution: 0.9640
Temperature: 23 C
Pressure: 101.3 kPa
Origin: NIST, Anayltical Chemistry Division, 301-975-3108
cm-1	(micromol/mol)-1m-1 (base 10)
575.169	4.74688e-06
583.847	3.15223e-06
592.525	1.94465e-06
601.203	1.89193e-06
609.882	8.64789e-07
618.56	5.63622e-07
627.238	7.66219e-07
635.916	1.09925e-06
644.594	1.76958e-06
653.272	2.33346e-06
661.951	2.65946e-06
670.629	3.26515e-06
679.307	2.71415e-06
687.985	2.19834e-06
696.663	1.64487e-06
705.341	1.17137e-06
714.019	7.09822e-07
722.698	7.32821e-07
731.376	8.41531e-07
740.054	1.06054e-06
748.732	9.95986e-07
757.41	1.06225e-06
766.088	9.48207e-07
774.767	7.42198e-07
783.445	6.46112e-07
792.123	5.87054e-07
800.801	6.24001e-07
809.479	8.36114e-07
818.157	1.22935e-06
826.835	2.27064e-06
835.514	4.73203e-06
844.192	8.85667e-06
852.87	1.68717e-05
861.548	3.45513e-05
870.226	5.49496e-05
878.904	8.22772e-05
887.583	0.000109243
896.261	0.000140424
904.939	0.000148096
913.617	0.000140463
922.295	0.000154951
930.973	0.000145977
939.651	0.000103751
948.33	6.17024e-05
957.008	3.48495e-05
965.686	2.64391e-05
974.364	2.94283e-05
983.042	5.32636e-05
991.72	6.90245e-05
1000.4	9.18622e-05
1009.08	9.52864e-05
1017.75	7.12819e-05
1026.43	7.06951e-05
1035.11	6.53327e-05
1043.79	5.0248e-05
1052.47	3.61835e-05
1061.15	2.18537e-05
1069.82	1.37538e-05
1078.5	9.77656e-06
1087.18	4.79625e-06
1095.86	1.90326e-06
1104.54	7.00623e-07
1113.21	3.61456e-07
1121.89	2.93368e-07
1130.57	3.13905e-07
1139.25	2.88095e-07
1147.93	2.7939e-07
1156.61	2.32991e-07
1165.28	2.01603e-07
1173.96	2.29932e-07
1182.64	2.43587e-07
1191.32	1.87099e-07
1200	2.17067e-07
1208.67	3.55372e-07
1217.35	5.29529e-07
1226.03	9.0212e-07
1234.71	1.51412e-06
1243.39	2.47523e-06
1252.07	4.35308e-06
1260.74	5.53466e-06
1269.42	5.38293e-06
1278.1	7.69033e-06
1286.78	7.23889e-06
1295.46	4.18876e-06
1304.13	6.27713e-06
1312.81	4.1141e-06
1321.49	3.02742e-06
1330.17	2.76254e-06
1338.85	2.84083e-06
1347.52	3.00984e-06
1356.2	5.02039e-06
1364.88	1.3242e-05
1373.56	2.07538e-05
1382.24	9.00325e-06
1390.92	1.892e-05
1399.59	7.84396e-06
1408.27	5.23449e-06
1416.95	5.77238e-06
1425.63	5.0491e-06
1434.31	4.58093e-06
1442.98	5.24416e-06
1451.66	3.80526e-06
1460.34	3.2796e-06
1469.02	4.14663e-06
1477.7	5.96134e-06
1486.38	5.12262e-06
1495.05	5.63355e-06
1503.73	3.79519e-06
1512.41	2.92565e-06
1521.09	3.40485e-06
1529.77	9.69843e-07
1538.44	1.76763e-06
1547.12	1.09334e-06
1555.8	2.31151e-06
1564.48	6.51147e-06
1573.16	2.03131e-05
1581.83	7.05299e-05
1590.51	9.74639e-05
1599.19	6.43082e-05
1607.87	9.67557e-05
1616.55	1.84791e-05
1625.23	3.70953e-06
1633.9	3.17271e-06
1642.58	3.26239e-06
1651.26	3.00558e-06
1659.94	1.68361e-06
1668.62	2.12914e-06
1677.29	1.14655e-06
1685.97	9.15613e-07
1694.65	8.30109e-07
1703.33	6.59014e-07
1712.01	7.47198e-07
1720.69	1.12775e-06
1729.36	1.83351e-06
1738.04	2.47259e-06
1746.72	3.84682e-06
1755.4	5.248e-06
1764.08	3.86664e-06
1772.75	5.08694e-06
1781.43	3.08632e-06
1790.11	4.4585e-06
1798.79	1.09499e-05
1807.47	4.40621e-05
1816.15	4.06194e-05
1824.82	4.90995e-05
1833.5	4.11755e-05
1842.18	7.03748e-06
1850.86	1.77553e-06
1859.54	1.99665e-06
1868.21	2.17496e-06
1876.89	2.15796e-06
1885.57	2.21814e-06
1894.25	1.26655e-06
1902.93	1.34859e-06
1911.6	1.43792e-06
1920.28	1.21039e-06
1928.96	1.32893e-06
1937.64	1.33892e-06
1946.32	1.78893e-06
1955	2.82993e-06
1963.67	3.64815e-06
1972.35	2.3842e-06
1981.03	2.85662e-06
1989.71	1.36717e-06
1998.39	7.10314e-07
2007.06	4.7061e-07
2015.74	2.06798e-07
2024.42	4.92502e-08
2033.1	2.41667e-08
2041.78	2.05733e-08
2050.46	-2.29762e-08
2059.13	-1.75475e-08
2067.81	5.72063e-10
2076.49	5.48526e-08
2085.17	1.10427e-07
2093.85	2.32917e-07
2102.52	3.06779e-07
2111.2	3.8923e-07
2119.88	4.51671e-07
2128.56	2.07097e-07
2137.24	1.71047e-07
2145.91	1.88466e-07
2154.59	3.50161e-07
2163.27	3.34533e-07
2171.95	3.95304e-07
2180.63	4.33774e-07
2189.31	4.57971e-07
2197.98	4.28112e-07
2206.66	4.10566e-07
2215.34	4.36551e-07
2224.02	3.85039e-07
2232.7	4.66025e-07
2241.37	6.57729e-07
2250.05	8.81702e-07
2258.73	1.20911e-06
2267.41	9.64697e-07
2276.09	1.14016e-06
2284.77	7.85128e-07
2293.44	5.88e-07
2302.12	5.86859e-07
2310.8	5.70409e-07
2319.48	6.93298e-07
2328.16	6.89951e-07
2336.83	4.78676e-07
2345.51	6.321e-07
2354.19	8.59833e-07
2362.87	1.33051e-06
2371.55	6.61053e-07
2380.23	1.9384e-07
2388.9	1.56123e-07
2397.58	2.00073e-07
2406.26	3.0048e-07
2414.94	3.71101e-07
2423.62	3.57427e-07
2432.29	4.47958e-07
2440.97	4.11162e-07
2449.65	4.4884e-07
2458.33	5.61443e-07
2467.01	6.54636e-07
2475.68	1.10058e-06
2484.36	1.61618e-06
2493.04	1.19465e-06
2501.72	1.63607e-06
2510.4	9.89522e-07
2519.08	4.35348e-07
2527.75	3.16552e-07
2536.43	2.47465e-07
2545.11	2.05635e-07
2553.79	2.76549e-07
2562.47	3.55049e-07
2571.14	5.61914e-07
2579.82	4.13212e-07
2588.5	5.02156e-07
2597.18	3.66668e-07
2605.86	1.35764e-07
2614.54	1.178e-07
2623.21	1.69633e-07
2631.89	1.4983e-07
2640.57	1.88788e-07
2649.25	1.73907e-07
2657.93	1.4232e-07
2666.6	1.05186e-07
2675.28	1.04777e-07
2683.96	1.0886e-07
2692.64	1.31415e-07
2701.32	2.29887e-07
2709.99	2.36001e-07
2718.67	4.24238e-07
2727.35	3.30329e-07
2736.03	3.43287e-07
2744.71	2.69278e-07
2753.39	1.94781e-07
2762.06	2.08985e-07
2770.74	2.10088e-07
2779.42	2.12649e-07
2788.1	3.70409e-07
2796.78	3.89742e-07
2805.45	5.12143e-07
2814.13	3.722e-07
2822.81	4.23984e-07
2831.49	5.07532e-07
2840.17	1.03272e-06
2848.85	1.69154e-06
2857.52	2.06906e-06
2866.2	2.46382e-06
2874.88	2.68261e-06
2883.56	3.35304e-06
2892.24	4.7639e-06
2900.91	5.29769e-06
2909.59	6.0087e-06
2918.27	7.98215e-06
2926.95	8.66203e-06
2935.63	1.14086e-05
2944.31	1.2424e-05
2952.98	1.63248e-05
2961.66	2.04746e-05
2970.34	3.60488e-05
2979.02	4.22142e-05
2987.7	4.47521e-05
2996.37	5.58758e-05
3005.05	5.53821e-05
3013.73	4.51185e-05
3022.41	5.30292e-05
3031.09	4.37677e-05
3039.76	5.45357e-05
3048.44	5.46009e-05
3057.12	4.90299e-05
3065.8	6.54736e-05
3074.48	6.06914e-05
3083.16	7.47813e-05
3091.83	9.47817e-05
3100.51	6.53099e-05
3109.19	9.39858e-05
3117.87	4.96533e-05
3126.55	3.25139e-05
3135.22	2.04151e-05
3143.9	1.20451e-05
3152.58	6.72448e-06
3161.26	3.16497e-06
3169.94	1.50671e-06
3178.62	6.38482e-07
3187.29	4.59597e-07
3195.97	3.30911e-07
3204.65	3.18e-08
3213.33	1.74805e-07
3222.01	6.1931e-07
3230.68	5.8686e-07
3239.36	9.30887e-07
3248.04	6.49778e-07
3256.72	3.76238e-07
3265.4	3.15133e-07
3274.07	1.98591e-07
3282.75	1.13262e-07
3291.43	7.78351e-08
3300.11	2.33836e-07
3308.79	2.17707e-07
3317.47	2.65173e-07
3326.14	2.00171e-07
3334.82	1.72953e-07
3343.5	1.2693e-07
3352.18	8.36467e-08
3360.86	1.04339e-07
3369.53	1.04919e-07
3378.21	2.97372e-07
3386.89	4.99213e-07
3395.57	5.33708e-07
3404.25	6.56789e-07
3412.93	5.21209e-07
3421.6	2.85156e-07
3430.28	1.61116e-07
3438.96	2.72344e-07
3447.64	3.67887e-07
3456.32	2.50848e-07
3464.99	3.44822e-07
3473.67	1.89065e-07
3482.35	2.5183e-07
3491.03	1.99761e-07
3499.71	2.45303e-07
3508.39	2.29696e-07
3517.06	2.97462e-07
3525.74	2.85517e-07
3534.42	3.20036e-07
3543.1	2.70646e-07
3551.78	3.44418e-07
3560.45	3.05468e-07
3569.13	3.1388e-07
3577.81	3.3738e-07
3586.49	8.53417e-07
3595.17	6.88773e-07
3603.84	5.35545e-07
3612.52	1.02255e-06
3621.2	7.7799e-07
3629.88	1.44152e-06
3638.56	1.96324e-07
3647.24	9.21223e-07
3655.91	6.58771e-07
3664.59	5.29208e-08
3673.27	1.24889e-07
3681.95	7.31422e-08
3690.63	3.71796e-07
3699.3	1.29196e-07
3707.98	1.29887e-07
3716.66	7.86109e-08
3725.34	2.21113e-07
3734.02	3.14869e-07
3742.7	2.03936e-07
3751.37	4.41861e-07
3760.05	5.88636e-07
3768.73	1.22999e-07
3777.41	6.0866e-08
3786.09	1.27978e-07
3794.76	1.0026e-07
3803.44	2.88227e-07
3812.12	1.50604e-07
3820.8	1.11508e-06
3829.48	2.4547e-07
3838.16	2.10671e-06
3846.83	2.88087e-07
3855.51	4.74945e-07
3864.19	5.57582e-07
3872.87	4.38861e-07
3881.55	4.96999e-07
3890.22	4.87877e-07
3898.9	7.63003e-07
3907.58	4.23652e-07
3916.26	4.66495e-07
3924.94	6.21205e-07
3933.61	4.25666e-07
3942.29	5.30226e-07
3950.97	5.07844e-07
3959.65	6.27114e-07
3968.33	9.95361e-07
