Infrared Spectrum: 1,4-Dimethylbenzene
Formula: 1,4-( C H3)2 C6 H4
CAS: 106-42-3
State: gas
Melting point: 13.26 C
Boiling point: 138.35 C
Class: IUPAC A
Instrument: IFS66V (Bruker)
Instrument parameters: KBr Beam Splitter; MCT Detector; Multipass cell
Sampling: 1 L/min Flow
Resolution: 0.1250
Temperature: 23 C
Pressure: 101.3 Pa
Origin: NIST, Analytical Chemistry Division, 301-975-3108
cm-1	(micromol/mol)-1m-1 (base 10)
575.05	-1.08718e-06
583.608	-2.24739e-06
592.165	1.48967e-06
600.723	3.98329e-07
609.281	-1.36551e-06
617.838	6.68068e-07
626.396	-6.39307e-07
634.954	-2.31641e-07
643.511	-4.5252e-07
652.069	-1.66737e-06
660.626	4.12369e-07
669.184	-1.44614e-06
677.742	-3.86418e-07
686.299	-4.93474e-07
694.857	5.30806e-08
703.415	1.52375e-07
711.972	-6.37894e-07
720.53	3.31199e-07
729.088	2.04557e-07
737.645	2.6461e-07
746.203	-2.09025e-07
754.761	7.974e-07
763.318	3.99821e-06
771.876	2.36825e-05
780.434	9.98574e-05
788.991	0.000171394
797.549	0.000187668
806.106	0.000150234
814.664	4.44542e-05
823.222	8.20353e-06
831.779	4.3689e-06
840.337	3.02844e-06
848.895	9.72312e-07
857.452	7.08942e-07
866.01	7.76417e-07
874.568	1.31894e-06
883.125	9.31402e-07
891.683	1.23749e-06
900.241	1.24059e-06
908.798	1.64764e-06
917.356	2.56624e-06
925.914	2.67037e-06
934.471	2.49425e-06
943.029	2.67663e-06
951.586	3.55027e-06
960.144	4.20829e-06
968.702	4.59739e-06
977.259	4.87984e-06
985.817	4.82669e-06
994.375	4.82934e-06
1002.93	4.72063e-06
1011.49	7.16309e-06
1020.05	2.16532e-05
1028.61	2.6735e-05
1037.16	1.74442e-05
1045.72	2.47426e-05
1054.28	2.34841e-05
1062.84	1.73971e-05
1071.39	1.10988e-05
1079.95	8.86068e-06
1088.51	1.19569e-05
1097.07	1.90558e-05
1105.62	2.5887e-05
1114.18	4.08196e-05
1122.74	3.2093e-05
1131.3	1.97213e-05
1139.85	7.3019e-06
1148.41	4.25285e-06
1156.97	3.3057e-06
1165.53	3.41471e-06
1174.09	3.53585e-06
1182.64	3.50396e-06
1191.2	2.94465e-06
1199.76	2.44778e-06
1208.32	5.45988e-06
1216.87	1.3504e-05
1225.43	1.75176e-05
1233.99	1.39077e-05
1242.55	1.26294e-05
1251.1	5.21418e-06
1259.66	3.45726e-06
1268.22	3.01044e-06
1276.78	2.49225e-06
1285.33	2.41258e-06
1293.89	2.38076e-06
1302.45	3.32784e-06
1311.01	4.98414e-06
1319.57	5.52098e-06
1328.12	6.12797e-06
1336.68	6.65164e-06
1345.24	8.82019e-06
1353.8	8.46441e-06
1362.35	7.48714e-06
1370.91	1.02854e-05
1379.47	1.95979e-05
1388.03	2.57766e-05
1396.58	1.71566e-05
1405.14	1.71913e-05
1413.7	2.24871e-05
1422.26	3.1264e-05
1430.81	3.59197e-05
1439.37	3.61997e-05
1447.93	2.83061e-05
1456.49	3.23669e-05
1465.05	3.99192e-05
1473.6	4.16593e-05
1482.16	3.85095e-05
1490.72	4.01147e-05
1499.28	5.31354e-05
1507.83	8.64055e-05
1516.39	0.000229394
1524.95	0.000240154
1533.51	5.69853e-05
1542.06	1.94385e-05
1550.62	1.49414e-05
1559.18	1.1748e-05
1567.74	9.11995e-06
1576.29	5.3515e-06
1584.85	5.32826e-06
1593.41	5.16265e-06
1601.97	5.86852e-06
1610.53	8.86049e-06
1619.08	1.59091e-05
1627.64	1.41133e-05
1636.2	1.15525e-05
1644.76	4.48401e-06
1653.31	7.44536e-08
1661.87	2.06632e-06
1670.43	1.59286e-06
1678.99	1.00411e-06
1687.54	1.13438e-06
1696.1	1.59837e-07
1704.66	7.74485e-07
1713.22	1.38371e-06
1721.77	3.21395e-06
1730.33	2.88238e-06
1738.89	2.24807e-06
1747.45	3.26486e-06
1756.01	3.60858e-06
1764.56	2.86258e-06
1773.12	3.68124e-06
1781.68	1.00373e-05
1790.24	1.21237e-05
1798.79	5.89351e-06
1807.35	1.41725e-06
1815.91	1.03867e-06
1824.47	1.31578e-06
1833.02	3.23735e-06
1841.58	4.18849e-06
1850.14	2.72268e-06
1858.7	1.93929e-06
1867.25	4.48435e-06
1875.81	1.08804e-05
1884.37	2.11794e-05
1892.93	2.16055e-05
1901.49	9.80326e-06
1910.04	3.53765e-06
1918.6	2.26095e-06
1927.16	2.17277e-06
1935.72	1.34803e-06
1944.27	7.75545e-07
1952.83	1.06103e-06
1961.39	7.22881e-07
1969.95	9.49938e-07
1978.5	1.20669e-06
1987.06	1.20592e-06
1995.62	1.23746e-06
2004.18	9.23055e-07
2012.73	7.77281e-07
2021.29	4.65272e-07
2029.85	2.5619e-07
2038.41	2.70021e-07
2046.97	5.50332e-09
2055.52	-2.24699e-08
2064.08	-3.08926e-08
2072.64	2.14349e-07
2081.2	1.94922e-07
2089.75	4.47646e-07
2098.31	1.47621e-06
2106.87	1.54027e-06
2115.43	1.30498e-06
2123.98	2.5174e-07
2132.54	-1.80007e-07
2141.1	-3.72298e-07
2149.66	-2.63318e-07
2158.21	1.43533e-06
2166.77	2.12603e-07
2175.33	9.20286e-08
2183.89	-1.15167e-07
2192.45	7.15468e-08
2201	4.00869e-07
2209.56	1.31854e-06
2218.12	6.6038e-07
2226.68	-4.17738e-08
2235.23	4.56528e-08
2243.79	-1.50832e-07
2252.35	-1.06063e-07
2260.91	1.92163e-07
2269.46	4.79461e-07
2278.02	3.36811e-07
2286.58	6.68042e-07
2295.14	1.63234e-06
2303.69	2.24354e-06
2312.25	2.84951e-06
2320.81	1.31059e-06
2329.37	1.57549e-06
2337.93	2.50518e-06
2346.48	2.1438e-06
2355.04	9.94235e-07
2363.6	6.35575e-07
2372.16	1.76193e-07
2380.71	7.75337e-07
2389.27	5.61949e-07
2397.83	3.96636e-07
2406.39	1.05425e-06
2414.94	1.33951e-06
2423.5	1.46014e-06
2432.06	1.40234e-06
2440.62	1.19335e-06
2449.17	9.08084e-07
2457.73	8.20605e-07
2466.29	6.34365e-07
2474.85	9.1541e-07
2483.41	6.9585e-07
2491.96	7.39255e-07
2500.52	6.09408e-07
2509.08	3.347e-07
2517.64	3.81292e-07
2526.19	2.90229e-07
2534.75	2.15966e-07
2543.31	3.25722e-07
2551.87	6.14515e-08
2560.42	4.17993e-08
2568.98	4.74836e-08
2577.54	1.32895e-06
2586.1	2.85986e-06
2594.65	3.29448e-06
2603.21	1.65795e-06
2611.77	1.1548e-06
2620.33	3.96532e-07
2628.89	1.25972e-07
2637.44	3.56807e-07
2646	1.75563e-07
2654.56	4.01103e-08
2663.12	-2.4787e-07
2671.67	-8.10374e-08
2680.23	-4.4269e-07
2688.79	-4.39243e-07
2697.35	2.06745e-08
2705.9	1.06983e-06
2714.46	1.69956e-06
2723.02	2.12175e-06
2731.58	5.35474e-06
2740.13	1.45418e-05
2748.69	1.68935e-05
2757.25	3.26414e-06
2765.81	1.32493e-06
2774.37	9.09542e-07
2782.92	1.12351e-06
2791.48	1.96631e-06
2800.04	2.92464e-06
2808.6	3.69443e-06
2817.15	5.58425e-06
2825.71	8.07907e-06
2834.27	1.15804e-05
2842.83	1.54332e-05
2851.38	2.19696e-05
2859.94	4.29908e-05
2868.5	0.000100756
2877.06	0.000153473
2885.61	0.000151479
2894.17	0.000123401
2902.73	0.000105359
2911.29	9.66241e-05
2919.85	0.00013377
2928.4	0.000245953
2936.96	0.000305408
2945.52	0.000230245
2954.08	0.000118778
2962.63	9.52678e-05
2971.19	7.35765e-05
2979.75	8.77989e-05
2988.31	0.000115298
2996.86	0.000166418
3005.42	0.00020981
3013.98	0.000196521
3022.54	0.00023842
3031.09	0.00022938
3039.65	0.000164703
3048.21	0.000155554
3056.77	0.000147775
3065.33	0.00011778
3073.88	5.72227e-05
3082.44	2.95688e-05
3091	2.54493e-05
3099.56	2.74898e-05
3108.11	2.65367e-05
3116.67	1.68024e-05
3125.23	7.3136e-06
3133.79	6.45895e-06
3142.34	9.51694e-06
3150.9	7.63816e-06
3159.46	2.16599e-06
3168.02	6.00443e-07
3176.57	-1.48176e-07
3185.13	1.11841e-07
3193.69	-6.12306e-07
3202.25	-1.35911e-07
3210.81	1.24682e-08
3219.36	-4.87555e-07
3227.92	-2.30762e-07
3236.48	-4.42594e-07
3245.04	3.84111e-07
3253.59	-3.0166e-08
3262.15	1.3455e-08
3270.71	-2.82268e-07
3279.27	2.77216e-07
3287.82	-2.19402e-07
3296.38	-2.05203e-07
3304.94	-1.72398e-07
3313.5	-1.87186e-07
3322.05	-1.42654e-07
3330.61	-4.86355e-07
3339.17	-1.68804e-07
3347.73	-2.57793e-07
3356.29	1.0908e-07
3364.84	-5.51717e-07
3373.4	2.35403e-08
3381.96	4.36728e-08
3390.52	8.94568e-07
3399.07	2.88377e-07
3407.63	2.82817e-07
3416.19	-2.8961e-07
3424.75	-1.7837e-07
3433.3	3.78006e-07
3441.86	2.31047e-07
3450.42	4.55735e-07
3458.98	-1.0985e-07
3467.53	-4.86996e-07
3476.09	-4.2493e-07
3484.65	-2.76505e-07
3493.21	-7.93994e-08
3501.77	-1.87368e-07
3510.32	-2.07719e-07
3518.88	-7.41506e-07
3527.44	-2.99229e-07
3536	-1.12347e-07
3544.55	-4.39556e-07
3553.11	-6.42345e-07
3561.67	-7.74206e-07
3570.23	-3.677e-07
3578.78	-3.78381e-07
3587.34	-1.22506e-07
3595.9	-1.64764e-07
3604.46	-3.93891e-07
3613.01	1.1066e-07
3621.57	1.7776e-07
3630.13	-7.91857e-08
3638.69	-2.08291e-08
3647.25	-1.83606e-07
3655.8	6.87788e-07
3664.36	1.03322e-06
3672.92	1.1897e-06
3681.48	1.19242e-06
3690.03	4.84364e-07
3698.59	2.08739e-07
3707.15	2.16055e-07
3715.71	2.19923e-07
3724.26	4.77118e-08
3732.82	-1.20034e-07
3741.38	1.65173e-07
3749.94	4.4775e-07
3758.49	7.68366e-07
3767.05	8.20496e-07
3775.61	7.27923e-07
3784.17	5.87527e-07
3792.73	2.49591e-08
3801.28	-5.2793e-07
3809.84	9.04401e-07
3818.4	8.22103e-07
3826.96	7.369e-07
3835.51	1.56954e-06
3844.07	1.76721e-06
3852.63	1.56748e-06
3861.19	1.67592e-06
3869.74	1.59404e-06
3878.3	1.67717e-06
3886.86	2.30152e-06
3895.42	2.1528e-06
3903.97	2.19975e-06
3912.53	1.84582e-06
3921.09	2.45495e-06
3929.65	1.983e-06
3938.21	2.06189e-06
3946.76	2.16995e-06
3955.32	1.81248e-06
3963.88	2.48593e-06
3972.44	2.51045e-06
