Infrared Spectrum: 1,3-Butadiene
Formula: C H2: C H C H: C H2
CAS: 106-99-0
State: gas
Melting point: -108.91 C
Boiling point: -4.41 C
Class: IUPAC A
Instrument: IFS66V (Bruker)
Instrument parameters: KBr Beam splitter; MCT Detector; Multipass cell
Sampling: 1 L/min Flow
Resolution: 0.9640
Temperature: 23 C
Pressure: 101.3 kPa
Origin: NIST, Anayltical Chemistry Division, 301-975-3108
cm-1	(micromol/mol)-1m-1 (base 10)
575.169	4.57425e-06
583.847	3.07138e-06
592.525	1.82961e-06
601.203	2.04402e-06
609.882	7.67146e-07
618.56	3.91184e-07
627.238	6.86365e-07
635.916	1.11336e-06
644.594	1.82664e-06
653.272	2.29073e-06
661.951	2.61254e-06
670.629	3.16417e-06
679.307	2.72306e-06
687.985	2.32785e-06
696.663	1.6153e-06
705.341	1.1879e-06
714.019	6.9188e-07
722.698	7.92049e-07
731.376	8.32023e-07
740.054	1.0672e-06
748.732	9.97569e-07
757.41	1.03083e-06
766.088	9.05716e-07
774.767	7.22184e-07
783.445	6.11368e-07
792.123	5.39744e-07
800.801	6.03488e-07
809.479	7.74782e-07
818.157	1.06663e-06
826.835	2.05656e-06
835.514	4.44981e-06
844.192	8.15777e-06
852.87	1.58245e-05
861.548	3.8915e-05
870.226	4.90234e-05
878.904	7.3729e-05
887.583	0.000100274
896.261	0.000152523
904.939	0.00015275
913.617	0.000125782
922.295	0.000145643
930.973	0.000138934
939.651	0.0001082
948.33	6.35969e-05
957.008	3.44459e-05
965.686	2.58319e-05
974.364	2.77145e-05
983.042	5.27249e-05
991.72	6.83379e-05
1000.4	9.30196e-05
1009.08	9.14971e-05
1017.75	6.96501e-05
1026.43	6.97531e-05
1035.11	6.68212e-05
1043.79	5.13244e-05
1052.47	3.53399e-05
1061.15	2.14629e-05
1069.82	1.3717e-05
1078.5	9.47649e-06
1087.18	4.6779e-06
1095.86	1.79089e-06
1104.54	6.23506e-07
1113.21	3.09458e-07
1121.89	2.35407e-07
1130.57	2.55743e-07
1139.25	2.56222e-07
1147.93	2.6138e-07
1156.61	2.01121e-07
1165.28	1.57005e-07
1173.96	2.25968e-07
1182.64	2.42996e-07
1191.32	1.71868e-07
1200	2.07991e-07
1208.67	3.68358e-07
1217.35	5.00441e-07
1226.03	8.69269e-07
1234.71	1.49357e-06
1243.39	2.43701e-06
1252.07	4.69667e-06
1260.74	5.27613e-06
1269.42	5.33119e-06
1278.1	7.31545e-06
1286.78	7.36043e-06
1295.46	3.97984e-06
1304.13	5.86954e-06
1312.81	3.31917e-06
1321.49	2.72628e-06
1330.17	2.63745e-06
1338.85	2.7883e-06
1347.52	2.73774e-06
1356.2	5.0366e-06
1364.88	1.30367e-05
1373.56	2.13579e-05
1382.24	7.17847e-06
1390.92	1.88103e-05
1399.59	7.32421e-06
1408.27	5.14895e-06
1416.95	5.81069e-06
1425.63	5.0437e-06
1434.31	4.52129e-06
1442.98	5.12222e-06
1451.66	3.66207e-06
1460.34	3.14107e-06
1469.02	4.30356e-06
1477.7	5.88511e-06
1486.38	5.32185e-06
1495.05	5.90163e-06
1503.73	3.6717e-06
1512.41	3.28532e-06
1521.09	4.25335e-06
1529.77	9.50775e-07
1538.44	6.95291e-07
1547.12	1.12797e-06
1555.8	1.91061e-06
1564.48	6.67106e-06
1573.16	2.02822e-05
1581.83	7.19726e-05
1590.51	0.00010015
1599.19	5.96128e-05
1607.87	9.76806e-05
1616.55	1.86763e-05
1625.23	2.89459e-06
1633.9	2.83096e-06
1642.58	3.09644e-06
1651.26	3.21968e-06
1659.94	1.32242e-06
1668.62	1.55738e-06
1677.29	1.01903e-06
1685.97	1.11078e-06
1694.65	9.1421e-07
1703.33	4.96509e-07
1712.01	5.37638e-07
1720.69	1.07594e-06
1729.36	1.67554e-06
1738.04	2.12601e-06
1746.72	3.66672e-06
1755.4	5.24452e-06
1764.08	3.9341e-06
1772.75	6.08525e-06
1781.43	2.75655e-06
1790.11	4.16488e-06
1798.79	1.03807e-05
1807.47	4.44277e-05
1816.15	3.97924e-05
1824.82	4.99988e-05
1833.5	4.15756e-05
1842.18	6.8688e-06
1850.86	1.6355e-06
1859.54	1.95972e-06
1868.21	2.21196e-06
1876.89	2.11672e-06
1885.57	2.20314e-06
1894.25	1.20855e-06
1902.93	1.30396e-06
1911.6	1.33617e-06
1920.28	1.19629e-06
1928.96	1.31767e-06
1937.64	1.28945e-06
1946.32	1.76686e-06
1955	2.84605e-06
1963.67	3.71935e-06
1972.35	2.29571e-06
1981.03	2.86396e-06
1989.71	1.34404e-06
1998.39	6.79675e-07
2007.06	4.57732e-07
2015.74	1.94e-07
2024.42	2.34521e-08
2033.1	-6.52468e-09
2041.78	-1.06738e-08
2050.46	-4.38065e-08
2059.13	-4.91652e-08
2067.81	-1.09121e-08
2076.49	3.79748e-08
2085.17	9.50017e-08
2093.85	2.2657e-07
2102.52	2.3674e-07
2111.2	3.58466e-07
2119.88	5.33447e-07
2128.56	1.89623e-07
2137.24	1.33453e-07
2145.91	1.65858e-07
2154.59	4.11502e-07
2163.27	3.38974e-07
2171.95	3.33281e-07
2180.63	3.83057e-07
2189.31	3.99077e-07
2197.98	4.04392e-07
2206.66	4.00978e-07
2215.34	4.39873e-07
2224.02	3.60938e-07
2232.7	4.48126e-07
2241.37	6.50111e-07
2250.05	8.48818e-07
2258.73	1.20799e-06
2267.41	9.06089e-07
2276.09	1.15086e-06
2284.77	7.37636e-07
2293.44	5.60002e-07
2302.12	5.16772e-07
2310.8	5.27628e-07
2319.48	6.42933e-07
2328.16	5.44546e-07
2336.83	-4.1842e-08
2345.51	5.92244e-07
2354.19	1.06893e-06
2362.87	2.17338e-06
2371.55	1.06436e-06
2380.23	1.62386e-07
2388.9	1.50286e-07
2397.58	1.81432e-07
2406.26	2.88561e-07
2414.94	3.50925e-07
2423.62	3.24893e-07
2432.29	4.23408e-07
2440.97	4.04956e-07
2449.65	4.25407e-07
2458.33	5.46094e-07
2467.01	6.16461e-07
2475.68	1.13941e-06
2484.36	1.61415e-06
2493.04	1.14217e-06
2501.72	1.64577e-06
2510.4	1.05239e-06
2519.08	4.68346e-07
2527.75	2.77565e-07
2536.43	2.16389e-07
2545.11	2.00593e-07
2553.79	2.65957e-07
2562.47	3.43234e-07
2571.14	5.61568e-07
2579.82	4.14462e-07
2588.5	4.90597e-07
2597.18	3.44955e-07
2605.86	1.05181e-07
2614.54	1.11272e-07
2623.21	1.54557e-07
2631.89	1.28234e-07
2640.57	1.72699e-07
2649.25	1.61251e-07
2657.93	1.28566e-07
2666.6	8.3302e-08
2675.28	1.12044e-07
2683.96	9.27789e-08
2692.64	1.1616e-07
2701.32	2.25488e-07
2709.99	2.17739e-07
2718.67	4.50991e-07
2727.35	3.25727e-07
2736.03	3.13288e-07
2744.71	2.58111e-07
2753.39	1.69891e-07
2762.06	2.08568e-07
2770.74	2.31976e-07
2779.42	1.75846e-07
2788.1	3.43784e-07
2796.78	3.74604e-07
2805.45	4.97253e-07
2814.13	3.62825e-07
2822.81	3.89755e-07
2831.49	4.92636e-07
2840.17	1.00869e-06
2848.85	1.65612e-06
2857.52	2.05784e-06
2866.2	2.47585e-06
2874.88	2.62315e-06
2883.56	3.32686e-06
2892.24	4.86232e-06
2900.91	5.39031e-06
2909.59	5.83234e-06
2918.27	7.93228e-06
2926.95	8.61978e-06
2935.63	1.14457e-05
2944.31	1.22926e-05
2952.98	1.64074e-05
2961.66	2.0003e-05
2970.34	3.65011e-05
2979.02	4.28027e-05
2987.7	4.49595e-05
2996.37	5.53201e-05
3005.05	5.63829e-05
3013.73	4.44642e-05
3022.41	5.26273e-05
3031.09	4.49872e-05
3039.76	5.43582e-05
3048.44	5.41996e-05
3057.12	5.01549e-05
3065.8	6.39354e-05
3074.48	6.00969e-05
3083.16	7.40404e-05
3091.83	9.93749e-05
3100.51	7.18402e-05
3109.19	9.80535e-05
3117.87	4.95666e-05
3126.55	3.43094e-05
3135.22	1.91132e-05
3143.9	1.14516e-05
3152.58	6.80169e-06
3161.26	3.01299e-06
3169.94	1.43298e-06
3178.62	6.08587e-07
3187.29	4.12981e-07
3195.97	3.08404e-07
3204.65	-3.4657e-08
3213.33	1.24309e-07
3222.01	6.38171e-07
3230.68	5.31697e-07
3239.36	9.07631e-07
3248.04	5.9712e-07
3256.72	3.36671e-07
3265.4	3.40899e-07
3274.07	2.00133e-07
3282.75	1.04371e-07
3291.43	3.63869e-08
3300.11	2.34408e-07
3308.79	2.03275e-07
3317.47	2.65056e-07
3326.14	2.04801e-07
3334.82	1.77574e-07
3343.5	1.22892e-07
3352.18	6.26675e-08
3360.86	4.9871e-08
3369.53	6.72222e-08
3378.21	3.23396e-07
3386.89	4.80911e-07
3395.57	5.09518e-07
3404.25	6.86421e-07
3412.93	5.05289e-07
3421.6	2.4124e-07
3430.28	1.5774e-07
3438.96	2.62472e-07
3447.64	3.20217e-07
3456.32	2.8901e-07
3464.99	3.7147e-07
3473.67	1.79037e-07
3482.35	2.98533e-07
3491.03	2.04297e-07
3499.71	2.25877e-07
3508.39	2.05323e-07
3517.06	3.47962e-07
3525.74	2.9016e-07
3534.42	3.22129e-07
3543.1	2.88909e-07
3551.78	3.19657e-07
3560.45	3.0537e-07
3569.13	3.09807e-07
3577.81	3.66635e-07
3586.49	1.19979e-06
3595.17	8.22126e-07
3603.84	4.52704e-07
3612.52	1.44769e-06
3621.2	7.6043e-07
3629.88	1.7607e-06
3638.56	1.50648e-07
3647.24	1.31445e-06
3655.91	5.0825e-07
3664.59	-4.62203e-09
3673.27	-2.50239e-07
3681.95	-1.87191e-08
3690.63	3.13494e-07
3699.3	1.40511e-07
3707.98	1.84259e-07
3716.66	2.69718e-08
3725.34	2.41239e-07
3734.02	3.02878e-08
3742.7	2.38508e-07
3751.37	-1.74877e-08
3760.05	9.39052e-07
3768.73	2.4138e-07
3777.41	6.15943e-08
3786.09	1.08191e-07
3794.76	1.57214e-08
3803.44	2.34259e-07
3812.12	2.96841e-07
3820.8	1.69225e-06
3829.48	2.24453e-07
3838.16	2.87076e-06
3846.83	3.69915e-07
3855.51	4.90111e-07
3864.19	6.76109e-07
3872.87	2.36571e-07
3881.55	4.9764e-07
3890.22	5.50043e-07
3898.9	5.69546e-07
3907.58	4.19413e-07
3916.26	5.52826e-07
3924.94	7.11327e-07
3933.61	4.08583e-07
3942.29	5.18906e-07
3950.97	5.09867e-07
3959.65	6.35943e-07
3968.33	9.26634e-07
