Infrared Spectrum: Butane
Formula: C4 H10
CAS: 106-97-8
State: gas
Melting point: -138.35 C
Boiling point: -0.5 C
Class: IUPAC A
Instrument: IFS66V (Bruker)
Instrument parameters: KBr Beam Splitter; MCT Detector; Multipass cell
Sampling: 1 L/min Flow
Resolution: 0.2410
Temperature: 23 C
Pressure: 101.3 Pa
Origin: NIST, Analytical Chemistry Division, 301-975-3108
cm-1	(micromol/mol)-1m-1 (base 10)
575.05	-8.49046e-07
583.608	7.78982e-07
592.165	-3.61068e-09
600.723	-5.67513e-08
609.281	-1.67777e-07
617.838	-9.73591e-08
626.396	9.20586e-08
634.954	-3.3924e-08
643.511	1.56469e-07
652.069	-1.50311e-07
660.626	-8.62851e-08
669.184	-7.15059e-08
677.742	2.99824e-07
686.299	5.81732e-07
694.857	8.48743e-07
703.415	2.13294e-06
711.972	3.43897e-06
720.53	5.18455e-06
729.088	6.78854e-06
737.645	8.35547e-06
746.203	9.29403e-06
754.761	8.15481e-06
763.318	6.62432e-06
771.876	4.00588e-06
780.434	3.00252e-06
788.991	1.71959e-06
797.549	1.91545e-06
806.106	1.10348e-06
814.664	5.96163e-07
823.222	2.16768e-07
831.779	7.32312e-08
840.337	-1.72571e-07
848.895	-6.46829e-09
857.452	-5.59036e-08
866.01	6.30049e-08
874.568	1.09152e-07
883.125	9.19231e-08
891.683	-1.89474e-08
900.241	-2.03685e-07
908.798	9.54201e-08
917.356	3.30795e-07
925.914	1.07244e-06
934.471	2.82712e-06
943.029	6.98407e-06
951.586	1.20566e-05
960.144	1.5623e-05
968.702	1.88799e-05
977.259	1.50125e-05
985.817	1.00978e-05
994.375	6.16902e-06
1002.93	2.91631e-06
1011.49	1.62829e-06
1020.05	8.15121e-07
1028.61	4.72365e-07
1037.16	4.06628e-07
1045.72	6.42864e-08
1054.28	8.72346e-08
1062.84	5.79382e-08
1071.39	2.62063e-07
1079.95	1.46953e-07
1088.51	2.38348e-07
1097.07	2.02884e-07
1105.62	3.88548e-07
1114.18	9.00618e-07
1122.74	2.3799e-06
1131.3	2.74173e-06
1139.85	2.06768e-06
1148.41	2.01013e-06
1156.97	6.02957e-07
1165.53	1.12855e-07
1174.09	2.86908e-07
1182.64	2.08348e-07
1191.2	1.97635e-07
1199.76	6.92249e-08
1208.32	3.45622e-07
1216.87	3.92e-07
1225.43	4.15592e-07
1233.99	7.47725e-07
1242.55	1.0171e-06
1251.1	1.46077e-06
1259.66	1.62614e-06
1268.22	2.26742e-06
1276.78	4.07976e-06
1285.33	8.16618e-06
1293.89	9.23927e-06
1302.45	8.68438e-06
1311.01	3.57235e-06
1319.57	1.68148e-06
1328.12	3.32937e-06
1336.68	4.19441e-06
1345.24	3.35173e-06
1353.8	6.69633e-06
1362.35	7.87608e-06
1370.91	1.9578e-05
1379.47	2.6378e-05
1388.03	2.676e-05
1396.58	3.40934e-05
1405.14	1.26924e-05
1413.7	8.04425e-06
1422.26	8.80216e-06
1430.81	1.47429e-05
1439.37	2.86393e-05
1447.93	4.6738e-05
1456.49	5.96816e-05
1465.05	8.55457e-05
1473.6	6.08402e-05
1482.16	5.84087e-05
1490.72	3.8135e-05
1499.28	2.26481e-05
1507.83	1.20544e-05
1516.39	6.22948e-06
1524.95	2.90291e-06
1533.51	1.48485e-06
1542.06	1.29015e-06
1550.62	8.6321e-07
1559.18	1.18257e-06
1567.74	1.46211e-06
1576.29	1.98487e-06
1584.85	1.43337e-06
1593.41	1.29156e-06
1601.97	9.57833e-07
1610.53	8.47104e-07
1619.08	9.15462e-07
1627.64	1.01557e-06
1636.2	1.17742e-06
1644.76	1.07608e-06
1653.31	2.087e-06
1661.87	1.34912e-06
1670.43	1.56377e-06
1678.99	1.27598e-06
1687.54	1.28861e-06
1696.1	1.37613e-06
1704.66	1.11873e-06
1713.22	1.02706e-06
1721.77	1.0047e-06
1730.33	8.3694e-07
1738.89	4.27503e-07
1747.45	3.42116e-07
1756.01	3.0376e-07
1764.56	1.89972e-07
1773.12	2.63139e-07
1781.68	2.81248e-07
1790.24	3.45516e-07
1798.79	3.43965e-07
1807.35	3.27801e-07
1815.91	3.74534e-07
1824.47	2.77868e-07
1833.02	1.20493e-07
1841.58	2.08237e-08
1850.14	4.02595e-08
1858.7	-3.54819e-08
1867.25	1.77869e-08
1875.81	6.1004e-08
1884.37	1.55003e-07
1892.93	3.70063e-07
1901.49	5.30313e-07
1910.04	3.88274e-07
1918.6	5.20422e-07
1927.16	3.20105e-07
1935.72	3.39934e-07
1944.27	2.22317e-07
1952.83	1.0001e-07
1961.39	3.8767e-08
1969.95	-5.9758e-08
1978.5	6.36006e-09
1987.06	-1.0245e-07
1995.62	-4.37392e-08
2004.18	4.90051e-08
2012.73	9.6837e-08
2021.29	3.28725e-07
2029.85	6.47942e-07
2038.41	5.99986e-07
2046.97	6.77063e-07
2055.52	3.37407e-07
2064.08	2.12581e-07
2072.64	1.50843e-07
2081.2	1.71624e-07
2089.75	2.49361e-07
2098.31	3.7685e-07
2106.87	4.4189e-07
2115.43	5.65384e-07
2123.98	5.73153e-07
2132.54	5.64335e-07
2141.1	6.43596e-07
2149.66	6.14019e-07
2158.21	8.46587e-07
2166.77	6.52958e-07
2175.33	7.06312e-07
2183.89	6.04871e-07
2192.45	6.37271e-07
2201	7.28147e-07
2209.56	8.484e-07
2218.12	6.12968e-07
2226.68	5.8548e-07
2235.23	4.75379e-07
2243.79	3.96431e-07
2252.35	4.3033e-07
2260.91	6.09987e-07
2269.46	6.15716e-07
2278.02	6.99845e-07
2286.58	7.94728e-07
2295.14	8.31805e-07
2303.69	9.79294e-07
2312.25	9.38907e-07
2320.81	7.44605e-07
2329.37	9.40293e-07
2337.93	9.35737e-07
2346.48	1.1851e-06
2355.04	1.06305e-06
2363.6	9.26939e-07
2372.16	1.31849e-06
2380.71	1.54266e-06
2389.27	1.52914e-06
2397.83	1.75337e-06
2406.39	1.07237e-06
2414.94	1.45193e-06
2423.5	1.60953e-06
2432.06	2.00372e-06
2440.62	1.8154e-06
2449.17	1.63154e-06
2457.73	1.00352e-06
2466.29	6.42315e-07
2474.85	3.67446e-07
2483.41	3.00147e-07
2491.96	1.82997e-07
2500.52	2.46991e-07
2509.08	4.07863e-07
2517.64	4.7142e-07
2526.19	8.40177e-07
2534.75	7.47223e-07
2543.31	7.45799e-07
2551.87	5.64558e-07
2560.42	6.9056e-07
2568.98	9.42759e-07
2577.54	1.53661e-06
2586.1	2.09601e-06
2594.65	3.06324e-06
2603.21	3.56935e-06
2611.77	3.89824e-06
2620.33	4.1319e-06
2628.89	4.3351e-06
2637.44	4.60209e-06
2646	4.17785e-06
2654.56	4.82229e-06
2663.12	4.331e-06
2671.67	3.89819e-06
2680.23	4.42323e-06
2688.79	3.43468e-06
2697.35	3.01949e-06
2705.9	3.37468e-06
2714.46	4.48101e-06
2723.02	6.13266e-06
2731.58	8.98441e-06
2740.13	9.62057e-06
2748.69	1.0498e-05
2757.25	9.20365e-06
2765.81	6.34551e-06
2774.37	5.76042e-06
2782.92	6.4373e-06
2791.48	6.99815e-06
2800.04	8.61981e-06
2808.6	1.12078e-05
2817.15	1.54033e-05
2825.71	2.29938e-05
2834.27	3.23144e-05
2842.83	5.04858e-05
2851.38	7.94721e-05
2859.94	0.000129296
2868.5	0.0001758
2877.06	0.000285941
2885.61	0.00024394
2894.17	0.000283179
2902.73	0.000236125
2911.29	0.000239308
2919.85	0.000290098
2928.4	0.000372492
2936.96	0.000433884
2945.52	0.000475759
2954.08	0.000551334
2962.63	0.000659019
2971.19	0.000575831
2979.75	0.000571427
2988.31	0.000362867
2996.86	0.000157762
3005.42	6.67798e-05
3013.98	2.66799e-05
3022.54	1.23634e-05
3031.09	7.98065e-06
3039.65	6.84442e-06
3048.21	6.22772e-06
3056.77	6.23361e-06
3065.33	6.81779e-06
3073.88	7.71674e-06
3082.44	7.57123e-06
3091	7.32294e-06
3099.56	5.98073e-06
3108.11	4.66855e-06
3116.67	4.11418e-06
3125.23	3.82231e-06
3133.79	4.17818e-06
3142.34	4.77393e-06
3150.9	5.33504e-06
3159.46	6.50139e-06
3168.02	6.96875e-06
3176.57	7.11332e-06
3185.13	7.02826e-06
3193.69	5.80314e-06
3202.25	4.79977e-06
3210.81	4.04841e-06
3219.36	3.85228e-06
3227.92	3.75244e-06
3236.48	3.00604e-06
3245.04	2.13574e-06
3253.59	1.16989e-06
3262.15	8.02516e-07
3270.71	6.59822e-07
3279.27	6.3583e-07
3287.82	6.92312e-07
3296.38	6.63876e-07
3304.94	6.30778e-07
3313.5	3.09862e-07
3322.05	4.85367e-07
3330.61	4.43335e-07
3339.17	5.79418e-07
3347.73	6.3401e-07
3356.29	7.68525e-07
3364.84	6.01176e-07
3373.4	7.39359e-07
3381.96	9.04033e-07
3390.52	1.15926e-06
3399.07	9.97767e-07
3407.63	9.28309e-07
3416.19	6.28058e-07
3424.75	3.21076e-07
3433.3	1.26777e-07
3441.86	1.58803e-07
3450.42	9.62786e-09
3458.98	1.53392e-07
3467.53	4.31662e-08
3476.09	-2.60796e-08
3484.65	6.02619e-08
3493.21	1.4126e-07
3501.77	5.66703e-09
3510.32	4.57564e-09
3518.88	9.61013e-08
3527.44	1.40933e-07
3536	1.06106e-07
3544.55	5.57144e-08
3553.11	1.55676e-07
3561.67	8.95657e-08
3570.23	1.30984e-07
3578.78	9.45788e-08
3587.34	1.32605e-07
3595.9	2.74668e-07
3604.46	5.93253e-07
3613.01	4.94948e-07
3621.57	7.28484e-07
3630.13	8.31067e-07
3638.69	8.31276e-07
3647.25	8.64804e-07
3655.8	7.40601e-07
3664.36	7.37792e-07
3672.92	9.41154e-07
3681.48	9.05466e-07
3690.03	8.99723e-07
3698.59	1.04556e-06
3707.15	9.93762e-07
3715.71	1.10452e-06
3724.26	1.16138e-06
3732.82	1.20673e-06
3741.38	1.07982e-06
3749.94	5.72772e-07
3758.49	5.61933e-07
3767.05	4.80147e-07
3775.61	5.1085e-07
3784.17	6.28876e-07
3792.73	4.71269e-07
3801.28	8.76507e-07
3809.84	4.71972e-07
3818.4	5.96494e-07
3826.96	8.26516e-07
3835.51	1.34031e-06
3844.07	1.41354e-06
3852.63	1.83093e-06
3861.19	1.75013e-06
3869.74	1.56981e-06
3878.3	1.31279e-06
3886.86	9.92835e-07
3895.42	9.62025e-07
3903.97	9.67021e-07
3912.53	7.997e-07
3921.09	6.3435e-07
3929.65	6.32981e-07
3938.21	5.0671e-07
3946.76	4.55776e-07
3955.32	5.2112e-07
3963.88	5.67594e-07
3972.44	4.73066e-07
