Infrared Spectrum: 1,3-Butadiene
Formula: C H2: C H C H: C H2
CAS: 106-99-0
State: gas
Melting point: -108.91 C
Boiling point: -4.41 C
Class: IUPAC A
Instrument: IFS66V (Bruker)
Instrument parameters: KBr Beam splitter; MCT Detector; Multipass cell
Sampling: 1 L/min Flow
Resolution: 0.1250
Temperature: 23 C
Pressure: 101.3 kPa
Origin: NIST, Anayltical Chemistry Division, 301-975-3108
cm-1	(micromol/mol)-1m-1 (base 10)
3975.02	1.53398e-06
3966.46	9.33188e-07
3957.9	5.20593e-07
3949.34	5.79093e-07
3940.79	4.93793e-07
3932.23	8.49689e-07
3923.67	5.27493e-07
3915.11	1.78296e-07
3906.56	3.70895e-07
3898	6.94291e-07
3889.44	5.57393e-07
3880.88	6.04092e-07
3872.33	5.74493e-07
3863.77	4.08595e-07
3855.21	2.88397e-07
3846.65	2.92696e-07
3838.09	2.04098e-06
3829.54	6.46284e-08
3820.98	9.99288e-07
3812.42	4.26587e-08
3803.86	1.09198e-07
3795.31	1.11685e-08
3786.75	1.41398e-07
3778.19	-9.85678e-08
3769.63	2.65096e-07
3761.08	5.82383e-08
3752.52	2.02598e-06
3743.96	2.68797e-06
3735.4	9.50788e-07
3726.85	2.23896e-07
3718.29	-1.82496e-07
3709.73	5.21793e-07
3701.17	3.22087e-08
3692.62	-1.32585e-08
3684.06	2.15496e-07
3675.5	3.34595e-07
3666.94	5.30687e-09
3658.38	2.89296e-07
3649.83	3.53695e-07
3641.27	5.13893e-07
3632.71	2.78197e-07
3624.15	4.35095e-07
3615.6	4.67193e-07
3607.04	1.22799e-06
3598.48	7.45791e-07
3589.92	2.58696e-07
3581.37	3.01196e-07
3572.81	3.58294e-07
3564.25	2.09296e-07
3555.69	3.55195e-07
3547.14	4.32494e-07
3538.58	5.59393e-07
3530.02	2.29696e-07
3521.46	2.51896e-07
3512.91	2.40196e-07
3504.35	1.93597e-07
3495.79	2.20297e-07
3487.23	1.82496e-07
3478.67	1.71197e-07
3470.12	3.82794e-07
3461.56	4.11294e-07
3453	2.46596e-07
3444.44	1.52198e-07
3435.89	2.23596e-07
3427.33	2.75196e-07
3418.77	4.59995e-07
3410.21	5.88193e-07
3401.66	8.2989e-07
3393.1	8.36889e-07
3384.54	5.21083e-08
3375.98	2.12896e-07
3367.43	5.62156e-09
3358.87	1.22498e-07
3350.31	4.62685e-08
3341.75	9.17766e-09
3333.2	-1.79488e-08
3324.64	1.56387e-08
3316.08	3.63895e-07
3307.52	4.10094e-07
3298.96	2.07096e-07
3290.41	5.87885e-08
3281.85	1.48898e-07
3273.29	1.62697e-07
3264.73	3.87495e-07
3256.18	2.27696e-07
3247.62	7.55691e-07
3239.06	1.08099e-06
3230.5	5.03693e-07
3221.95	7.16491e-07
3213.39	1.69697e-07
3204.83	1.15598e-07
3196.27	4.06095e-07
3187.72	5.05793e-07
3179.16	5.56493e-07
3170.6	1.37198e-06
3162.04	3.01496e-06
3153.48	6.02593e-06
3144.93	1.13599e-05
3136.37	1.84898e-05
3127.81	2.78097e-05
3119.25	5.19794e-05
3110.7	8.9859e-05
3102.14	5.87693e-05
3093.58	8.32491e-05
3085.02	8.00591e-05
3076.47	6.06693e-05
3067.91	6.82792e-05
3059.35	5.44194e-05
3050.79	4.89694e-05
3042.24	5.74793e-05
3033.68	4.52195e-05
3025.12	4.95594e-05
3016.56	5.10394e-05
3008.01	4.66495e-05
2999.45	6.04393e-05
2990.89	5.31594e-05
2982.33	3.75396e-05
2973.77	4.19395e-05
2965.22	2.78497e-05
2956.66	1.67898e-05
2948.1	1.38498e-05
2939.54	1.09799e-05
2930.99	1.03999e-05
2922.43	7.79391e-06
2913.87	7.21292e-06
2905.31	5.19794e-06
2896.76	4.75695e-06
2888.2	3.56096e-06
2879.64	3.36696e-06
2871.08	2.36297e-06
2862.53	2.22297e-06
2853.97	1.68598e-06
2845.41	1.51698e-06
2836.85	8.12489e-07
2828.3	3.40595e-07
2819.74	3.15895e-07
2811.18	5.16593e-07
2802.62	3.51295e-07
2794.06	5.29593e-07
2785.51	4.14895e-07
2776.95	2.36797e-07
2768.39	1.23298e-07
2759.83	2.27896e-07
2751.28	2.72996e-07
2742.72	2.78496e-07
2734.16	3.38695e-07
2725.6	3.49895e-07
2717.05	2.05597e-07
2708.49	1.35598e-07
2699.93	1.66197e-07
2691.37	1.75297e-07
2682.82	3.71081e-08
2674.26	1.18998e-07
2665.7	1.31398e-07
2657.14	-1.98633e-09
2648.59	2.85096e-07
2640.03	1.18798e-07
2631.47	1.61896e-07
2622.91	1.05098e-07
2614.35	1.32098e-07
2605.8	1.12998e-07
2597.24	3.78295e-07
2588.68	5.29893e-07
2580.12	5.15093e-07
2571.57	6.06693e-07
2563.01	3.35895e-07
2554.45	2.55697e-07
2545.89	2.05396e-07
2537.34	3.09196e-07
2528.78	2.47996e-07
2520.22	3.20195e-07
2511.66	7.40391e-07
2503.11	1.70798e-06
2494.55	2.27597e-06
2485.99	1.71998e-06
2477.43	1.25998e-06
2468.87	7.70791e-07
2460.32	5.33493e-07
2451.76	3.67695e-07
2443.2	3.36495e-07
2434.64	3.80295e-07
2426.09	2.94196e-07
2417.53	4.40094e-07
2408.97	2.94996e-07
2400.41	1.98596e-07
2391.86	1.66597e-07
2383.3	2.17496e-07
2374.74	1.31298e-06
2366.18	3.05796e-07
2357.63	5.85793e-07
2349.07	3.74395e-07
2340.51	5.52093e-07
2331.95	5.12693e-07
2323.4	6.11293e-07
2314.84	3.44895e-07
2306.28	4.47194e-07
2297.72	5.03793e-07
2289.16	6.55791e-07
2280.61	1.01899e-06
2272.05	1.29098e-06
2263.49	1.09899e-06
2254.93	1.10999e-06
2246.38	7.01391e-07
2237.82	4.69693e-07
2229.26	4.60594e-07
2220.7	3.26295e-07
2212.15	3.71095e-07
2203.59	4.39695e-07
2195.03	3.50095e-07
2186.47	5.55393e-07
2177.92	3.93394e-07
2169.36	4.57394e-07
2160.8	2.29896e-07
2152.24	1.83597e-07
2143.69	1.90796e-07
2135.13	1.50798e-07
2126.57	1.98297e-07
2118.01	3.96595e-07
2109.45	2.65997e-07
2100.9	2.59796e-07
2092.34	1.50598e-07
2083.78	2.08497e-07
2075.22	7.68583e-08
2066.67	-4.85986e-08
2058.11	-6.30286e-08
2049.55	-9.40504e-09
2040.99	-2.62488e-08
2032.44	3.42387e-08
2023.88	-1.63981e-08
2015.32	1.96996e-07
2006.76	4.98493e-07
1998.21	6.88891e-07
1989.65	1.38798e-06
1981.09	2.82897e-06
1972.53	2.21997e-06
1963.97	3.59796e-06
1955.42	3.12696e-06
1946.86	1.88898e-06
1938.3	1.39098e-06
1929.74	1.34498e-06
1921.19	1.13799e-06
1912.63	1.41198e-06
1904.07	1.54198e-06
1895.51	1.25698e-06
1886.96	2.11197e-06
1878.4	2.36997e-06
1869.84	1.74798e-06
1861.28	2.12397e-06
1852.73	1.51498e-06
1844.17	7.74491e-06
1835.61	2.89497e-05
1827.05	6.21893e-05
1818.5	5.09994e-05
1809.94	5.45394e-05
1801.38	1.84198e-05
1792.82	6.33093e-06
1784.26	3.27196e-06
1775.71	3.59196e-06
1767.15	4.01295e-06
1758.59	4.68795e-06
1750.03	4.56295e-06
1741.48	2.54697e-06
1732.92	2.29097e-06
1724.36	1.51098e-06
1715.8	9.35388e-07
1707.25	7.16691e-07
1698.69	5.75993e-07
1690.13	1.38298e-06
1681.57	8.4019e-07
1673.02	1.30198e-06
1664.46	2.15997e-06
1655.9	2.05098e-06
1647.34	4.49595e-06
1638.79	3.23996e-06
1630.23	2.97396e-06
1621.67	4.82694e-06
1613.11	3.90196e-05
1604.55	0.000117699
1596	8.3609e-05
1587.44	0.000107799
1578.88	4.67195e-05
1570.32	1.32099e-05
1561.77	4.29595e-06
1553.21	1.47998e-06
1544.65	9.87188e-07
1536.09	7.20791e-07
1527.54	1.24998e-06
1518.98	1.60498e-06
1510.42	2.64997e-06
1501.86	4.99594e-06
1493.31	4.72595e-06
1484.75	4.71195e-06
1476.19	7.02092e-06
1467.63	3.53196e-06
1459.08	3.36696e-06
1450.52	4.70895e-06
1441.96	5.28994e-06
1433.4	4.13895e-06
1424.84	5.47894e-06
1416.29	5.33494e-06
1407.73	4.94794e-06
1399.17	1.06799e-05
1390.61	1.84898e-05
1382.06	7.81291e-06
1373.5	2.06798e-05
1364.94	1.38098e-05
1356.38	4.73995e-06
1347.83	2.78097e-06
1339.27	2.83997e-06
1330.71	2.59597e-06
1322.15	4.80894e-06
1313.6	4.46095e-06
1305.04	6.05893e-06
1296.48	4.39795e-06
1287.92	6.04593e-06
1279.36	7.58991e-06
1270.81	5.09994e-06
1262.25	6.11493e-06
1253.69	3.98395e-06
1245.13	2.40797e-06
1236.58	1.54498e-06
1228.02	9.45288e-07
1219.46	5.32093e-07
1210.9	3.48095e-07
1202.35	2.04796e-07
1193.79	1.78697e-07
1185.23	2.57397e-07
1176.67	1.13698e-07
1168.12	1.74697e-07
1159.56	2.06696e-07
1151	1.50598e-07
1142.44	3.25595e-07
1133.89	1.54498e-07
1125.33	2.90796e-07
1116.77	1.90097e-07
1108.21	3.45395e-07
1099.65	1.07499e-06
1091.1	3.28596e-06
1082.54	7.52991e-06
1073.98	1.11999e-05
1065.42	1.70098e-05
1056.87	2.64397e-05
1048.31	4.77194e-05
1039.75	5.55394e-05
1031.19	6.73092e-05
1022.64	7.78791e-05
1014.08	0.000203298
1005.52	8.6389e-05
996.963	9.74189e-05
988.406	6.55192e-05
979.848	4.11595e-05
971.29	2.91997e-05
962.733	2.73997e-05
954.175	4.02595e-05
945.618	6.86692e-05
937.06	0.000108799
928.502	0.000151698
919.945	0.000144198
911.387	0.000155798
902.829	0.000131299
894.272	0.000151798
885.714	0.000106799
877.157	7.02192e-05
868.599	4.28495e-05
860.041	2.58897e-05
851.484	1.49598e-05
842.926	7.83691e-06
834.368	3.85396e-06
825.811	1.85598e-06
817.253	1.35698e-06
808.696	8.08789e-07
800.138	2.78796e-07
791.58	4.10094e-07
783.023	6.20191e-07
774.465	6.76591e-07
765.907	7.7709e-07
757.35	9.83688e-07
748.792	8.2619e-07
740.235	1.04499e-06
731.677	1.05799e-06
723.119	6.58891e-07
714.562	5.11993e-07
706.004	1.23799e-06
697.446	1.96098e-06
688.889	2.70797e-06
680.331	2.28097e-06
671.774	3.09096e-06
663.216	3.54396e-06
654.658	1.76998e-06
646.101	1.82398e-06
637.543	1.05799e-06
628.985	8.95189e-07
620.428	1.08499e-06
611.87	9.75588e-07
603.313	1.52798e-06
594.755	2.39797e-06
586.197	2.81597e-06
577.64	5.00394e-06
