Infrared Spectrum: Butane
Formula: C4 H10
CAS: 106-97-8
State: gas
Melting point: -138.35 C
Boiling point: -0.5 C
Class: IUPAC A
Instrument: IFS66V (Bruker)
Instrument parameters: KBr Beam Splitter; MCT Detector; Multipass cell
Sampling: 1 L/min Flow
Resolution: 0.2410
Temperature: 23 C
Pressure: 101.3 Pa
Origin: NIST, Analytical Chemistry Division, 301-975-3108
cm-1	(micromol/mol)-1m-1 (base 10)
575.05	-8.87198e-07
583.608	3.0277e-07
592.165	1.42591e-07
600.723	-1.36528e-07
609.281	-7.30584e-08
617.838	-2.224e-07
626.396	-1.99674e-07
634.954	-5.85048e-08
643.511	-9.64059e-09
652.069	-3.098e-08
660.626	-9.97383e-08
669.184	-9.75601e-08
677.742	2.40154e-07
686.299	5.3566e-07
694.857	1.00238e-06
703.415	2.05994e-06
711.972	3.44499e-06
720.53	5.02718e-06
729.088	6.86042e-06
737.645	8.50754e-06
746.203	9.30181e-06
754.761	8.11558e-06
763.318	6.63758e-06
771.876	3.96392e-06
780.434	3.0234e-06
788.991	1.8086e-06
797.549	1.8964e-06
806.106	1.1326e-06
814.664	5.48646e-07
823.222	1.72141e-07
831.779	-1.13613e-08
840.337	-1.45035e-07
848.895	-7.0953e-08
857.452	4.82721e-08
866.01	-4.54599e-08
874.568	-1.93721e-09
883.125	3.19986e-08
891.683	-6.91922e-08
900.241	-1.03782e-07
908.798	1.4738e-07
917.356	3.75911e-07
925.914	1.10682e-06
934.471	2.85245e-06
943.029	6.96249e-06
951.586	1.20562e-05
960.144	1.57276e-05
968.702	1.88963e-05
977.259	1.49799e-05
985.817	9.92299e-06
994.375	6.12904e-06
1002.93	2.96203e-06
1011.49	1.61244e-06
1020.05	8.49186e-07
1028.61	4.37346e-07
1037.16	3.73074e-07
1045.72	1.11541e-07
1054.28	1.04518e-07
1062.84	1.28766e-07
1071.39	1.99053e-07
1079.95	1.57563e-07
1088.51	2.75187e-07
1097.07	2.22909e-07
1105.62	3.56552e-07
1114.18	8.86316e-07
1122.74	2.41702e-06
1131.3	2.78808e-06
1139.85	2.07359e-06
1148.41	2.00553e-06
1156.97	5.5372e-07
1165.53	1.24397e-07
1174.09	2.07294e-07
1182.64	2.06612e-07
1191.2	1.9019e-07
1199.76	1.14734e-07
1208.32	3.01794e-07
1216.87	3.2196e-07
1225.43	4.36934e-07
1233.99	6.97952e-07
1242.55	9.62814e-07
1251.1	1.45601e-06
1259.66	1.63922e-06
1268.22	2.22626e-06
1276.78	4.09033e-06
1285.33	8.21712e-06
1293.89	9.30491e-06
1302.45	8.67396e-06
1311.01	3.61372e-06
1319.57	1.69434e-06
1328.12	3.31626e-06
1336.68	4.19861e-06
1345.24	3.45112e-06
1353.8	6.61739e-06
1362.35	7.91461e-06
1370.91	1.96762e-05
1379.47	2.62754e-05
1388.03	2.68052e-05
1396.58	3.40022e-05
1405.14	1.26751e-05
1413.7	7.9958e-06
1422.26	8.8666e-06
1430.81	1.47188e-05
1439.37	2.84499e-05
1447.93	4.64924e-05
1456.49	5.98048e-05
1465.05	8.53202e-05
1473.6	6.04877e-05
1482.16	5.83093e-05
1490.72	3.84989e-05
1499.28	2.25809e-05
1507.83	1.2055e-05
1516.39	6.20174e-06
1524.95	2.90164e-06
1533.51	1.46191e-06
1542.06	1.24115e-06
1550.62	8.88608e-07
1559.18	1.14411e-06
1567.74	1.39302e-06
1576.29	2.01318e-06
1584.85	1.46699e-06
1593.41	1.29594e-06
1601.97	9.94993e-07
1610.53	8.73356e-07
1619.08	9.1528e-07
1627.64	1.00737e-06
1636.2	1.12673e-06
1644.76	1.05631e-06
1653.31	1.87285e-06
1661.87	1.3257e-06
1670.43	1.5219e-06
1678.99	1.26593e-06
1687.54	1.26103e-06
1696.1	1.48545e-06
1704.66	1.14305e-06
1713.22	1.08279e-06
1721.77	9.99901e-07
1730.33	7.98565e-07
1738.89	5.02157e-07
1747.45	3.62563e-07
1756.01	2.79556e-07
1764.56	2.28416e-07
1773.12	2.80911e-07
1781.68	3.0879e-07
1790.24	3.34471e-07
1798.79	3.63679e-07
1807.35	3.67331e-07
1815.91	3.90157e-07
1824.47	2.75842e-07
1833.02	1.5218e-07
1841.58	6.5295e-08
1850.14	1.90738e-08
1858.7	5.62156e-09
1867.25	1.92221e-08
1875.81	9.52418e-08
1884.37	1.48934e-07
1892.93	3.35365e-07
1901.49	4.69027e-07
1910.04	4.57423e-07
1918.6	4.80208e-07
1927.16	3.66326e-07
1935.72	3.3805e-07
1944.27	2.09648e-07
1952.83	1.28825e-07
1961.39	2.06354e-08
1969.95	-5.68022e-08
1978.5	-5.40292e-08
1987.06	-8.32047e-08
1995.62	-2.1393e-08
2004.18	1.74176e-08
2012.73	8.14357e-08
2021.29	3.03137e-07
2029.85	6.3341e-07
2038.41	6.53046e-07
2046.97	6.97371e-07
2055.52	3.59209e-07
2064.08	2.03892e-07
2072.64	1.53869e-07
2081.2	1.77043e-07
2089.75	2.5212e-07
2098.31	3.00769e-07
2106.87	4.05062e-07
2115.43	6.22709e-07
2123.98	5.99217e-07
2132.54	5.67751e-07
2141.1	6.49792e-07
2149.66	5.9998e-07
2158.21	7.96138e-07
2166.77	6.92953e-07
2175.33	6.71702e-07
2183.89	6.23164e-07
2192.45	6.40729e-07
2201	7.12615e-07
2209.56	7.82275e-07
2218.12	6.35392e-07
2226.68	6.38331e-07
2235.23	4.92579e-07
2243.79	4.09422e-07
2252.35	4.70936e-07
2260.91	5.77013e-07
2269.46	5.65514e-07
2278.02	6.59886e-07
2286.58	7.83014e-07
2295.14	8.26038e-07
2303.69	9.78415e-07
2312.25	9.35473e-07
2320.81	7.80307e-07
2329.37	9.727e-07
2337.93	8.37876e-07
2346.48	1.14777e-06
2355.04	1.07594e-06
2363.6	9.83947e-07
2372.16	1.24489e-06
2380.71	1.60726e-06
2389.27	1.53574e-06
2397.83	1.71884e-06
2406.39	1.10284e-06
2414.94	1.48737e-06
2423.5	1.61984e-06
2432.06	1.9485e-06
2440.62	1.82116e-06
2449.17	1.60084e-06
2457.73	9.9738e-07
2466.29	6.35188e-07
2474.85	3.63576e-07
2483.41	2.68348e-07
2491.96	2.09808e-07
2500.52	2.3549e-07
2509.08	3.40669e-07
2517.64	5.11113e-07
2526.19	7.65854e-07
2534.75	7.3018e-07
2543.31	7.16924e-07
2551.87	5.75708e-07
2560.42	6.68643e-07
2568.98	9.49476e-07
2577.54	1.48589e-06
2586.1	2.11404e-06
2594.65	3.09089e-06
2603.21	3.56278e-06
2611.77	3.95107e-06
2620.33	4.12914e-06
2628.89	4.33813e-06
2637.44	4.58534e-06
2646	4.23912e-06
2654.56	4.81084e-06
2663.12	4.32987e-06
2671.67	3.89159e-06
2680.23	4.40428e-06
2688.79	3.42056e-06
2697.35	3.01851e-06
2705.9	3.41747e-06
2714.46	4.48956e-06
2723.02	6.11231e-06
2731.58	9.01844e-06
2740.13	9.60182e-06
2748.69	1.05995e-05
2757.25	9.17643e-06
2765.81	6.3538e-06
2774.37	5.78138e-06
2782.92	6.41394e-06
2791.48	6.944e-06
2800.04	8.54157e-06
2808.6	1.11676e-05
2817.15	1.54097e-05
2825.71	2.29876e-05
2834.27	3.23888e-05
2842.83	5.04007e-05
2851.38	7.95167e-05
2859.94	0.00012933
2868.5	0.000175733
2877.06	0.000285815
2885.61	0.000244567
2894.17	0.000282966
2902.73	0.000236178
2911.29	0.000239184
2919.85	0.000290004
2928.4	0.000372332
2936.96	0.000433986
2945.52	0.000475688
2954.08	0.00055178
2962.63	0.000659155
2971.19	0.000577393
2979.75	0.000571916
2988.31	0.000363126
2996.86	0.000157761
3005.42	6.68527e-05
3013.98	2.66336e-05
3022.54	1.23513e-05
3031.09	8.00967e-06
3039.65	6.75062e-06
3048.21	6.29158e-06
3056.77	6.26443e-06
3065.33	6.84695e-06
3073.88	7.64868e-06
3082.44	7.6252e-06
3091	7.30134e-06
3099.56	5.90256e-06
3108.11	4.61374e-06
3116.67	4.08235e-06
3125.23	3.8825e-06
3133.79	4.18026e-06
3142.34	4.80992e-06
3150.9	5.32608e-06
3159.46	6.38279e-06
3168.02	6.95364e-06
3176.57	7.16694e-06
3185.13	6.98923e-06
3193.69	5.79429e-06
3202.25	4.8006e-06
3210.81	4.11988e-06
3219.36	3.938e-06
3227.92	3.72419e-06
3236.48	3.01944e-06
3245.04	2.20111e-06
3253.59	1.21674e-06
3262.15	7.07882e-07
3270.71	6.34973e-07
3279.27	6.56455e-07
3287.82	6.85212e-07
3296.38	6.34489e-07
3304.94	5.61925e-07
3313.5	3.78198e-07
3322.05	4.00366e-07
3330.61	3.96189e-07
3339.17	5.3715e-07
3347.73	6.96842e-07
3356.29	7.90442e-07
3364.84	6.90991e-07
3373.4	7.40573e-07
3381.96	9.8477e-07
3390.52	1.14087e-06
3399.07	1.09681e-06
3407.63	9.3188e-07
3416.19	6.80387e-07
3424.75	2.61704e-07
3433.3	1.36627e-07
3441.86	9.63841e-08
3450.42	6.94314e-08
3458.98	1.30701e-07
3467.53	9.16147e-08
3476.09	-1.40416e-08
3484.65	4.06569e-08
3493.21	8.03716e-08
3501.77	7.45327e-08
3510.32	1.00635e-08
3518.88	5.31806e-08
3527.44	3.94409e-08
3536	8.96075e-08
3544.55	6.37198e-08
3553.11	2.25381e-08
3561.67	1.019e-07
3570.23	7.38351e-08
3578.78	1.25919e-07
3587.34	1.59768e-07
3595.9	2.8156e-07
3604.46	4.35979e-07
3613.01	5.5641e-07
3621.57	6.86599e-07
3630.13	7.74018e-07
3638.69	7.96637e-07
3647.25	8.83411e-07
3655.8	7.75296e-07
3664.36	7.58739e-07
3672.92	8.7886e-07
3681.48	9.58531e-07
3690.03	9.62092e-07
3698.59	9.86425e-07
3707.15	1.01316e-06
3715.71	1.15505e-06
3724.26	1.21805e-06
3732.82	1.23057e-06
3741.38	1.08999e-06
3749.94	6.86893e-07
3758.49	5.78185e-07
3767.05	4.72904e-07
3775.61	5.02278e-07
3784.17	5.77913e-07
3792.73	4.42236e-07
3801.28	8.80844e-07
3809.84	5.29085e-07
3818.4	5.91542e-07
3826.96	8.35705e-07
3835.51	1.22877e-06
3844.07	1.47353e-06
3852.63	1.88954e-06
3861.19	1.75231e-06
3869.74	1.52242e-06
3878.3	1.28774e-06
3886.86	1.09136e-06
3895.42	9.61014e-07
3903.97	9.78661e-07
3912.53	7.14231e-07
3921.09	6.94939e-07
3929.65	6.51541e-07
3938.21	5.22517e-07
3946.76	4.92138e-07
3955.32	5.33278e-07
3963.88	5.54105e-07
3972.44	4.66446e-07
