Infrared Spectrum: Butane
Formula: C4 H10
CAS: 106-97-8
State: gas
Melting point: -138.35 C
Boiling point: -0.5 C
Class: IUPAC A
Instrument: IFS66V (Bruker)
Instrument parameters: KBr Beam Splitter; MCT Detector; Multipass cell
Sampling: 1 L/min Flow
Resolution: 1.9290
Temperature: 23 C
Pressure: 101.3 Pa
Origin: NIST, Analytical Chemistry Division, 301-975-3108
cm-1	(micromol/mol)-1m-1 (base 10)
575.652	-5.11324e-08
584.33	2.49229e-07
593.008	-1.82826e-08
601.687	-1.03415e-07
610.365	-2.75517e-07
619.043	-5.05322e-08
627.721	-2.18187e-09
636.399	-2.01071e-07
645.077	-2.95657e-08
653.756	-2.33593e-07
662.434	-7.23627e-08
671.112	2.58932e-08
679.79	1.13503e-07
688.468	4.6577e-07
697.146	1.11278e-06
705.825	2.41119e-06
714.503	3.95769e-06
723.181	5.38597e-06
731.859	1.09547e-05
740.537	8.9491e-06
749.216	1.06481e-05
757.894	7.83123e-06
766.572	5.55473e-06
775.25	3.41456e-06
783.928	2.65801e-06
792.606	1.92903e-06
801.285	1.58614e-06
809.963	7.58499e-07
818.641	3.66561e-07
827.319	1.28863e-07
835.997	4.25769e-08
844.676	4.11299e-08
853.354	-6.21636e-09
862.032	-8.87762e-08
870.71	3.67898e-08
879.388	-2.49964e-08
888.066	-6.3537e-09
896.745	-4.76309e-08
905.423	4.96627e-08
914.101	2.48503e-07
922.779	7.47965e-07
931.457	2.00819e-06
940.135	5.41079e-06
948.814	1.11309e-05
957.492	1.67434e-05
966.17	2.01406e-05
974.848	1.6522e-05
983.526	1.04602e-05
992.205	7.00425e-06
1000.88	3.49313e-06
1009.56	1.78077e-06
1018.24	9.4608e-07
1026.92	5.07142e-07
1035.6	3.46477e-07
1044.27	7.48883e-08
1052.95	3.63159e-08
1061.63	7.8619e-08
1070.31	1.56134e-07
1078.99	1.10825e-07
1087.66	2.56997e-07
1096.34	1.76071e-07
1105.02	3.29527e-07
1113.7	8.68327e-07
1122.38	2.37971e-06
1131.06	2.78049e-06
1139.73	2.02064e-06
1148.41	2.02447e-06
1157.09	5.05333e-07
1165.77	1.13138e-07
1174.45	2.08244e-07
1183.12	2.02241e-07
1191.8	1.98318e-07
1200.48	2.03087e-07
1209.16	2.37793e-07
1217.84	3.13441e-07
1226.52	4.92316e-07
1235.19	6.97138e-07
1243.87	1.06593e-06
1252.55	1.51153e-06
1261.23	1.76285e-06
1269.91	2.31809e-06
1278.58	5.07802e-06
1287.26	8.10652e-06
1295.94	6.86937e-06
1304.62	7.55624e-06
1313.3	2.73396e-06
1321.98	1.83527e-06
1330.65	4.06464e-06
1339.33	3.70608e-06
1348.01	4.27838e-06
1356.69	6.58693e-06
1365.37	1.07805e-05
1374.04	2.53114e-05
1382.72	3.59374e-05
1391.4	3.79676e-05
1400.08	2.35567e-05
1408.76	9.32715e-06
1417.44	8.00716e-06
1426.11	1.07184e-05
1434.79	1.99081e-05
1443.47	3.74074e-05
1452.15	5.38634e-05
1460.83	7.06723e-05
1469.5	6.97813e-05
1478.18	5.84034e-05
1486.86	4.80561e-05
1495.54	2.88838e-05
1504.22	1.56026e-05
1512.9	8.25196e-06
1521.57	3.86014e-06
1530.25	1.85853e-06
1538.93	1.14917e-06
1547.61	9.7243e-07
1556.29	9.08304e-07
1564.96	1.37222e-06
1573.64	1.53657e-06
1582.32	1.58267e-06
1591	1.3347e-06
1599.68	1.13373e-06
1608.36	8.28879e-07
1617.03	1.1782e-06
1625.71	8.22196e-07
1634.39	1.16482e-06
1643.07	9.30426e-07
1651.75	1.28951e-06
1660.42	1.27101e-06
1669.1	1.638e-06
1677.78	1.24028e-06
1686.46	1.31409e-06
1695.14	1.23962e-06
1703.82	1.15656e-06
1712.49	1.0972e-06
1721.17	1.04926e-06
1729.85	7.86361e-07
1738.53	5.52714e-07
1747.21	3.3161e-07
1755.88	3.20314e-07
1764.56	2.2971e-07
1773.24	3.51408e-07
1781.92	2.82662e-07
1790.6	4.0239e-07
1799.28	3.79538e-07
1807.95	4.18912e-07
1816.63	3.37952e-07
1825.31	3.38489e-07
1833.99	1.08458e-07
1842.67	5.14871e-08
1851.34	-3.48198e-08
1860.02	2.83515e-08
1868.7	1.13168e-08
1877.38	1.23449e-07
1886.06	2.07105e-07
1894.74	4.12412e-07
1903.41	4.5487e-07
1912.09	4.55944e-07
1920.77	4.41485e-07
1929.45	3.97369e-07
1938.13	2.98906e-07
1946.8	1.87999e-07
1955.48	5.28004e-08
1964.16	2.36768e-08
1972.84	-6.6049e-08
1981.52	-1.22872e-08
1990.19	-6.76388e-08
1998.87	1.3927e-08
2007.55	-3.70826e-08
2016.23	1.28564e-07
2024.91	4.17812e-07
2033.59	6.23716e-07
2042.26	6.22586e-07
2050.94	5.81562e-07
2059.62	2.34247e-07
2068.3	1.58087e-07
2076.98	1.1144e-07
2085.65	2.37652e-07
2094.33	3.00679e-07
2103.01	4.53724e-07
2111.69	5.17291e-07
2120.37	6.10737e-07
2129.05	5.80367e-07
2137.72	6.20184e-07
2146.4	6.52786e-07
2155.08	6.49828e-07
2163.76	6.226e-07
2172.44	7.92446e-07
2181.11	6.02546e-07
2189.79	7.37836e-07
2198.47	6.49345e-07
2207.15	7.10795e-07
2215.83	6.55449e-07
2224.51	6.48002e-07
2233.18	5.16273e-07
2241.86	4.36826e-07
2250.54	4.58273e-07
2259.22	5.37017e-07
2267.9	5.51228e-07
2276.57	6.71245e-07
2285.25	7.6761e-07
2293.93	8.11221e-07
2302.61	9.21927e-07
2311.29	8.56733e-07
2319.97	8.71341e-07
2328.64	6.75952e-07
2337.32	8.58016e-07
2346	1.00581e-06
2354.68	8.38548e-07
2363.36	5.78607e-07
2372.03	1.04778e-06
2380.71	1.62254e-06
2389.39	1.56598e-06
2398.07	1.72432e-06
2406.75	1.14122e-06
2415.43	1.50642e-06
2424.1	1.61314e-06
2432.78	1.91807e-06
2441.46	1.73315e-06
2450.14	1.61995e-06
2458.82	9.36689e-07
2467.49	5.37881e-07
2476.17	3.25848e-07
2484.85	2.59047e-07
2493.53	1.61829e-07
2502.21	2.02164e-07
2510.89	3.607e-07
2519.56	5.48663e-07
2528.24	7.35928e-07
2536.92	6.86928e-07
2545.6	7.09713e-07
2554.28	5.75778e-07
2562.95	7.38648e-07
2571.63	1.0991e-06
2580.31	1.66925e-06
2588.99	2.43669e-06
2597.67	3.50998e-06
2606.35	3.60257e-06
2615.02	4.1589e-06
2623.7	4.1545e-06
2632.38	4.50337e-06
2641.06	4.32982e-06
2649.74	4.77552e-06
2658.41	4.73725e-06
2667.09	4.24681e-06
2675.77	3.64553e-06
2684.45	4.02021e-06
2693.13	3.12983e-06
2701.81	3.08772e-06
2710.48	3.88964e-06
2719.16	4.95183e-06
2727.84	7.72439e-06
2736.52	1.02504e-05
2745.2	9.3736e-06
2753.87	1.08068e-05
2762.55	6.92878e-06
2771.23	5.85821e-06
2779.91	6.16639e-06
2788.59	6.65388e-06
2797.27	7.79024e-06
2805.94	1.00958e-05
2814.62	1.38676e-05
2823.3	2.05593e-05
2831.98	2.95546e-05
2840.66	4.56331e-05
2849.33	6.98464e-05
2858.01	0.000116604
2866.69	0.000169377
2875.37	0.000256639
2884.05	0.000251104
2892.73	0.000274008
2901.4	0.000245475
2910.08	0.00023406
2918.76	0.000276741
2927.44	0.000362565
2936.12	0.000425951
2944.79	0.000473672
2953.47	0.000543425
2962.15	0.000656587
2970.83	0.00060547
2979.51	0.000571889
2988.19	0.00036774
2996.86	0.000157294
3005.54	6.61672e-05
3014.22	2.57921e-05
3022.9	1.21931e-05
3031.58	7.753e-06
3040.25	6.81147e-06
3048.93	6.09709e-06
3057.61	6.38049e-06
3066.29	6.84072e-06
3074.97	7.7967e-06
3083.65	7.72056e-06
3092.32	7.24232e-06
3101	5.49577e-06
3109.68	4.55291e-06
3118.36	3.79292e-06
3127.04	3.9898e-06
3135.71	4.27979e-06
3144.39	4.95268e-06
3153.07	5.52632e-06
3161.75	6.56581e-06
3170.43	7.1467e-06
3179.11	7.01172e-06
3187.78	7.0973e-06
3196.46	5.47962e-06
3205.14	4.45386e-06
3213.82	4.07928e-06
3222.5	4.12794e-06
3231.17	3.27015e-06
3239.85	2.77679e-06
3248.53	1.80716e-06
3257.21	9.04282e-07
3265.89	6.91557e-07
3274.57	6.29359e-07
3283.24	6.89492e-07
3291.92	6.3971e-07
3300.6	7.25149e-07
3309.28	4.37111e-07
3317.96	4.00129e-07
3326.63	3.6964e-07
3335.31	5.33542e-07
3343.99	6.137e-07
3352.67	7.09088e-07
3361.35	6.88999e-07
3370.03	8.27192e-07
3378.7	8.49791e-07
3387.38	1.16868e-06
3396.06	1.18631e-06
3404.74	1.14669e-06
3413.42	7.86027e-07
3422.09	3.59216e-07
3430.77	2.11471e-07
3439.45	1.80973e-07
3448.13	3.72054e-08
3456.81	7.03318e-08
3465.49	4.66423e-08
3474.16	1.16069e-07
3482.84	5.74379e-08
3491.52	7.00835e-08
3500.2	2.19351e-08
3508.88	1.25203e-07
3517.55	-4.22658e-08
3526.23	-3.723e-08
3534.91	-7.66764e-08
3543.59	5.94443e-09
3552.27	-2.92174e-08
3560.95	4.85831e-08
3569.62	9.11082e-08
3578.3	1.62427e-07
3586.98	2.21911e-07
3595.66	3.61741e-07
3604.34	3.87628e-07
3613.01	6.2514e-07
3621.69	6.56209e-07
3630.37	7.72913e-07
3639.05	7.49141e-07
3647.73	8.32856e-07
3656.41	7.81847e-07
3665.08	7.98467e-07
3673.76	8.14429e-07
3682.44	1.02336e-06
3691.12	1.02531e-06
3699.8	9.816e-07
3708.47	9.86949e-07
3717.15	1.28667e-06
3725.83	1.1601e-06
3734.51	1.36445e-06
3743.19	9.071e-07
3751.87	9.02408e-07
3760.54	6.27594e-07
3769.22	6.10642e-07
3777.9	5.37472e-07
3786.58	5.00526e-07
3795.26	4.6551e-07
3803.93	5.03773e-07
3812.61	4.84892e-07
3821.29	7.47609e-07
3829.97	7.8205e-07
3838.65	1.39636e-06
3847.33	1.58014e-06
3856	1.85315e-06
3864.68	1.68087e-06
3873.36	1.3459e-06
3882.04	1.17059e-06
3890.72	1.08607e-06
3899.39	1.01934e-06
3908.07	8.64103e-07
3916.75	7.20591e-07
3925.43	6.58395e-07
3934.11	5.92711e-07
3942.79	5.97299e-07
3951.46	4.19358e-07
3960.14	4.88766e-07
3968.82	4.53132e-07
