Infrared Spectrum: P-DIBROMOBENZENE
Formula: C6 H4 Br2
CAS: 106-37-6
State: SOLID (MINERAL OIL MULL)
Class: COBLENTZ
Instrument: Not specified, most likely a prism, grating, or hybrid spectrometer.
Sampling: TRANSMISSION
Resolution: 4
Origin: WYANDOTTE CHEMICALS CORP., WYANDOTTE, MICHIGAN, USA
MICROMETERS	TRANSMITTANCE
2.027	0.418
2.06776	0.408
2.10851	0.404
2.14927	0.408
2.19002	0.406
2.23078	0.387
2.27154	0.389
2.31229	0.392
2.35305	0.392
2.39381	0.396
2.43456	0.399
2.47532	0.411
2.51607	0.401
2.55683	0.42
2.59759	0.411
2.63834	0.416
2.6791	0.42
2.71986	0.401
2.76061	0.386
2.80137	0.367
2.84212	0.363
2.88288	0.36
2.92364	0.352
2.96439	0.352
3.00515	0.358
3.04591	0.355
3.08666	0.355
3.12742	0.346
3.16817	0.338
3.20893	0.323
3.24969	0.297
3.29044	0.277
3.3312	0.117
3.37196	0.044
3.41271	0.045
3.45347	0.064
3.49422	0.059
3.53498	0.295
3.57574	0.399
3.61649	0.421
3.65725	0.414
3.69801	0.418
3.73876	0.428
3.77952	0.433
3.82027	0.448
3.86103	0.455
3.90179	0.457
3.94254	0.459
3.9833	0.471
4.02406	0.472
4.06481	0.472
4.10557	0.476
4.14632	0.477
4.18708	0.477
4.22784	0.464
4.26859	0.462
4.30935	0.491
4.3501	0.527
4.39086	0.513
4.43162	0.494
4.47237	0.51
4.51313	0.508
4.55389	0.51
4.59464	0.513
4.6354	0.518
4.67615	0.527
4.71691	0.535
4.75767	0.539
4.79842	0.54
4.83918	0.547
4.87994	0.557
4.92069	0.561
4.96145	0.557
5.0022	0.561
5.04296	0.566
5.08372	0.571
5.12447	0.571
5.16523	0.573
5.20599	0.578
5.24674	0.585
5.2875	0.586
5.32825	0.465
5.36901	0.574
5.40977	0.588
5.45052	0.586
5.49128	0.595
5.53204	0.595
5.57279	0.598
5.61355	0.607
5.6543	0.586
5.69506	0.578
5.73582	0.569
5.77657	0.598
5.81733	0.607
5.85809	0.588
5.89884	0.585
5.9396	0.595
5.98035	0.605
6.02111	0.579
6.06187	0.59
6.10262	0.547
6.14338	0.574
6.18414	0.605
6.22489	0.617
6.26565	0.617
6.3064	0.646
6.34716	0.62
6.38792	0.663
6.42867	0.637
6.46943	0.676
6.51018	0.658
6.55094	0.688
6.5917	0.668
6.63245	0.513
6.67321	0.488
6.71397	0.573
6.75472	0.29
6.79548	0.078
6.83623	0.173
6.87699	0.285
6.91775	0.389
6.9585	0.551
6.99926	0.595
7.04002	0.593
7.08077	0.554
7.12153	0.586
7.16228	0.511
7.20304	0.195
7.2438	0.198
7.28455	0.413
7.32531	0.542
7.36607	0.564
7.40682	0.571
7.44758	0.583
7.48833	0.617
7.52909	0.625
7.56985	0.619
7.6106	0.622
7.65136	0.637
7.69212	0.646
7.73287	0.651
7.77363	0.661
7.81438	0.666
7.85514	0.676
7.8959	0.574
7.93665	0.578
7.97741	0.637
8.01817	0.666
8.05892	0.68
8.09968	0.687
8.14043	0.681
8.18119	0.649
8.22195	0.676
8.2627	0.695
8.30346	0.71
8.34421	0.729
8.38497	0.729
8.42573	0.729
8.46648	0.729
8.50724	0.729
8.548	0.717
8.58875	0.738
8.62951	0.738
8.67026	0.758
8.71102	0.782
8.75178	0.755
8.79253	0.688
8.83329	0.765
8.87405	0.799
8.9148	0.823
8.95556	0.828
8.99631	0.702
9.03707	0.724
9.07783	0.819
9.11858	0.804
9.15934	0.557
9.2001	0.571
9.24085	0.739
9.28161	0.693
9.32236	0.163
9.36312	0.124
9.40388	0.289
9.44463	0.465
9.48539	0.551
9.52615	0.595
9.5669	0.642
9.60766	0.678
9.64841	0.714
9.68917	0.743
9.72993	0.795
9.77068	0.848
9.81144	0.93
9.8522	0.959
9.89295	0.568
9.93371	0.056
9.97446	0.175
10.0152	0.312
10.056	0.384
10.0967	0.474
10.1375	0.525
10.1782	0.545
10.219	0.573
10.2598	0.581
10.3005	0.602
10.3413	0.607
10.382	0.62
10.4228	0.629
10.4635	0.663
10.5043	0.583
10.5451	0.608
10.5858	0.673
10.6266	0.695
10.6673	0.705
10.7081	0.71
10.7488	0.729
10.7896	0.731
10.8303	0.736
10.8711	0.748
10.9119	0.76
10.9526	0.765
10.9934	0.763
11.0341	0.767
11.0749	0.775
11.1156	0.784
11.1564	0.782
11.1972	0.79
11.2379	0.787
11.2787	0.801
11.3194	0.812
11.3602	0.814
11.4009	0.826
11.4417	0.821
11.4824	0.826
11.5232	0.833
11.564	0.833
11.6047	0.829
11.6455	0.829
11.6862	0.829
11.727	0.823
11.7677	0.823
11.8085	0.823
11.8493	0.819
11.89	0.819
11.9308	0.819
11.9715	0.819
12.0123	0.802
12.053	0.799
12.0938	0.77
12.1345	0.734
12.1753	0.688
12.2161	0.585
12.2568	0.489
12.2976	0.357
12.3383	0.18
12.3791	0.079
12.4198	0.093
12.4606	0.139
12.5014	0.292
12.5421	0.44
12.5829	0.545
12.6236	0.578
12.6644	0.619
12.7051	0.671
12.7459	0.695
12.7866	0.724
12.8274	0.739
12.8682	0.748
12.9089	0.763
12.9497	0.775
12.9904	0.784
13.0312	0.797
13.0719	0.801
13.1127	0.814
13.1534	0.818
13.1942	0.819
13.235	0.823
13.2757	0.809
13.3165	0.772
13.3572	0.768
13.398	0.795
13.4387	0.806
13.4795	0.806
13.5203	0.806
13.561	0.802
13.6018	0.801
13.6425	0.804
13.6833	0.801
13.724	0.795
13.7648	0.79
13.8055	0.784
13.8463	0.773
13.8871	0.773
13.9278	0.809
13.9686	0.836
14.0093	0.858
14.0501	0.87
14.0908	0.886
14.1316	0.896
14.1724	0.896
14.2131	0.903
14.2539	0.908
14.2946	0.904
14.3354	0.909
14.3761	0.906
14.4169	0.901
14.4576	0.897
14.4984	0.889
14.5392	0.88
14.5799	0.874
14.6207	0.865
14.6614	0.853
14.7022	0.841
14.7429	0.835
14.7837	0.819
14.8245	0.804
14.8652	0.799
14.906	0.794
14.9467	0.789
14.9875	0.736
15.0282	0.637
15.069	0.571
15.1097	0.588
15.1505	0.649
15.1913	0.705
15.232	0.727
15.2728	0.724
15.3135	0.717
15.3543	0.714
15.395	0.705
15.4358	0.695
15.4766	0.683
15.5173	0.683
15.5581	0.661
15.5988	0.664
15.6396	0.644
15.6803	0.63
15.7211	0.62
15.7618	0.605
15.8026	0.595
15.8434	0.586
15.8841	0.557
15.9249	0.551
15.9656	0.535
