Infrared Spectrum: Butane
Formula: C4 H10
CAS: 106-97-8
State: gas
Melting point: -138.35 C
Boiling point: -0.5 C
Class: IUPAC A
Instrument: IFS66V (Bruker)
Instrument parameters: KBr Beam Splitter; MCT Detector; Multipass cell
Sampling: 1 L/min Flow
Resolution: 0.1250
Temperature: 23 C
Pressure: 101.3 Pa
Origin: NIST, Analytical Chemistry Division, 301-975-3108
cm-1	(micromol/mol)-1m-1 (base 10)
575.05	-8.35709e-07
583.608	3.51967e-07
592.165	1.48319e-07
600.723	-3.72463e-08
609.281	-4.07215e-08
617.838	-1.63222e-07
626.396	3.89935e-08
634.954	-2.79805e-08
643.511	3.18331e-08
652.069	-1.81734e-07
660.626	-2.44453e-08
669.184	-3.17412e-08
677.742	2.94489e-07
686.299	5.68489e-07
694.857	7.92267e-07
703.415	2.08546e-06
711.972	3.43925e-06
720.53	5.11551e-06
729.088	6.86284e-06
737.645	8.50153e-06
746.203	9.27778e-06
754.761	8.10667e-06
763.318	6.65542e-06
771.876	4.00687e-06
780.434	3.01493e-06
788.991	1.72583e-06
797.549	1.93284e-06
806.106	1.18062e-06
814.664	5.65496e-07
823.222	1.31085e-07
831.779	4.11844e-08
840.337	-2.22674e-07
848.895	-3.93209e-08
857.452	-4.23968e-08
866.01	-7.06401e-09
874.568	2.12084e-08
883.125	7.38297e-08
891.683	-2.15567e-08
900.241	-1.57786e-07
908.798	1.1318e-07
917.356	3.40648e-07
925.914	1.08714e-06
934.471	2.85458e-06
943.029	6.95703e-06
951.586	1.20493e-05
960.144	1.56878e-05
968.702	1.88585e-05
977.259	1.50068e-05
985.817	1.00112e-05
994.375	6.14338e-06
1002.93	2.91244e-06
1011.49	1.65949e-06
1020.05	8.13766e-07
1028.61	4.84041e-07
1037.16	4.08816e-07
1045.72	1.20512e-07
1054.28	1.0995e-07
1062.84	8.30455e-08
1071.39	2.44164e-07
1079.95	1.57901e-07
1088.51	2.28999e-07
1097.07	1.82774e-07
1105.62	3.73842e-07
1114.18	8.7324e-07
1122.74	2.38254e-06
1131.3	2.7728e-06
1139.85	2.08899e-06
1148.41	2.01229e-06
1156.97	5.7703e-07
1165.53	1.11695e-07
1174.09	2.62582e-07
1182.64	2.185e-07
1191.2	2.23436e-07
1199.76	1.00981e-07
1208.32	3.14406e-07
1216.87	3.56507e-07
1225.43	4.04186e-07
1233.99	7.32556e-07
1242.55	9.80111e-07
1251.1	1.46456e-06
1259.66	1.63802e-06
1268.22	2.27018e-06
1276.78	4.10215e-06
1285.33	8.19027e-06
1293.89	9.23051e-06
1302.45	8.67525e-06
1311.01	3.59792e-06
1319.57	1.67014e-06
1328.12	3.32229e-06
1336.68	4.19668e-06
1345.24	3.48209e-06
1353.8	6.63691e-06
1362.35	7.92226e-06
1370.91	1.9655e-05
1379.47	2.6344e-05
1388.03	2.68501e-05
1396.58	3.40006e-05
1405.14	1.27272e-05
1413.7	8.03941e-06
1422.26	8.85665e-06
1430.81	1.47489e-05
1439.37	2.85574e-05
1447.93	4.66034e-05
1456.49	5.96778e-05
1465.05	8.54099e-05
1473.6	6.06809e-05
1482.16	5.82532e-05
1490.72	3.82765e-05
1499.28	2.26213e-05
1507.83	1.20634e-05
1516.39	6.2343e-06
1524.95	2.91473e-06
1533.51	1.50173e-06
1542.06	1.25348e-06
1550.62	8.87759e-07
1559.18	1.17189e-06
1567.74	1.44292e-06
1576.29	1.98485e-06
1584.85	1.4594e-06
1593.41	1.31512e-06
1601.97	9.7057e-07
1610.53	8.40754e-07
1619.08	9.08992e-07
1627.64	1.01159e-06
1636.2	1.16363e-06
1644.76	1.07897e-06
1653.31	1.98107e-06
1661.87	1.33154e-06
1670.43	1.54448e-06
1678.99	1.27506e-06
1687.54	1.26157e-06
1696.1	1.40922e-06
1704.66	1.10766e-06
1713.22	1.05118e-06
1721.77	9.89566e-07
1730.33	8.16044e-07
1738.89	4.62326e-07
1747.45	3.49606e-07
1756.01	2.91067e-07
1764.56	2.15429e-07
1773.12	2.79975e-07
1781.68	3.03695e-07
1790.24	3.51482e-07
1798.79	3.39126e-07
1807.35	3.34096e-07
1815.91	3.78576e-07
1824.47	2.93135e-07
1833.02	1.41031e-07
1841.58	4.766e-08
1850.14	3.95328e-08
1858.7	-2.8648e-08
1867.25	1.93076e-08
1875.81	6.38453e-08
1884.37	1.66768e-07
1892.93	3.57583e-07
1901.49	4.97134e-07
1910.04	4.16338e-07
1918.6	5.19312e-07
1927.16	3.25054e-07
1935.72	3.3727e-07
1944.27	2.03432e-07
1952.83	1.11323e-07
1961.39	4.29034e-08
1969.95	-5.69486e-08
1978.5	-2.60569e-09
1987.06	-8.67717e-08
1995.62	-3.22578e-08
2004.18	4.7901e-08
2012.73	1.03045e-07
2021.29	3.34255e-07
2029.85	6.39048e-07
2038.41	6.18559e-07
2046.97	6.72606e-07
2055.52	3.52926e-07
2064.08	2.07325e-07
2072.64	1.70724e-07
2081.2	1.57827e-07
2089.75	2.44105e-07
2098.31	3.40543e-07
2106.87	4.33184e-07
2115.43	5.81081e-07
2123.98	5.64038e-07
2132.54	5.61152e-07
2141.1	6.34381e-07
2149.66	5.92462e-07
2158.21	8.03059e-07
2166.77	6.74667e-07
2175.33	6.99009e-07
2183.89	6.02655e-07
2192.45	6.2797e-07
2201	7.22111e-07
2209.56	8.33752e-07
2218.12	6.19101e-07
2226.68	5.91845e-07
2235.23	4.83126e-07
2243.79	4.14899e-07
2252.35	4.56239e-07
2260.91	5.98474e-07
2269.46	6.02924e-07
2278.02	7.00222e-07
2286.58	8.09887e-07
2295.14	8.40979e-07
2303.69	1.00141e-06
2312.25	9.26003e-07
2320.81	7.79144e-07
2329.37	9.40485e-07
2337.93	9.42877e-07
2346.48	1.15855e-06
2355.04	1.05566e-06
2363.6	9.69436e-07
2372.16	1.24151e-06
2380.71	1.57747e-06
2389.27	1.52401e-06
2397.83	1.74927e-06
2406.39	1.09476e-06
2414.94	1.46868e-06
2423.5	1.60329e-06
2432.06	1.99998e-06
2440.62	1.82404e-06
2449.17	1.63248e-06
2457.73	1.03838e-06
2466.29	6.3966e-07
2474.85	3.82233e-07
2483.41	2.90908e-07
2491.96	1.99482e-07
2500.52	2.53503e-07
2509.08	3.51037e-07
2517.64	4.82946e-07
2526.19	8.03202e-07
2534.75	7.33115e-07
2543.31	7.33094e-07
2551.87	5.99675e-07
2560.42	6.68735e-07
2568.98	9.50245e-07
2577.54	1.48247e-06
2586.1	2.11476e-06
2594.65	3.07275e-06
2603.21	3.55958e-06
2611.77	3.93559e-06
2620.33	4.151e-06
2628.89	4.34551e-06
2637.44	4.58452e-06
2646	4.18598e-06
2654.56	4.81755e-06
2663.12	4.3417e-06
2671.67	3.90849e-06
2680.23	4.41907e-06
2688.79	3.43848e-06
2697.35	3.02186e-06
2705.9	3.39058e-06
2714.46	4.48994e-06
2723.02	6.11722e-06
2731.58	8.98331e-06
2740.13	9.60326e-06
2748.69	1.05469e-05
2757.25	9.21997e-06
2765.81	6.37043e-06
2774.37	5.76462e-06
2782.92	6.44623e-06
2791.48	7.01542e-06
2800.04	8.61593e-06
2808.6	1.12241e-05
2817.15	1.54466e-05
2825.71	2.30201e-05
2834.27	3.23883e-05
2842.83	5.05156e-05
2851.38	7.95752e-05
2859.94	0.000129295
2868.5	0.000175844
2877.06	0.000285655
2885.61	0.000244692
2894.17	0.000282869
2902.73	0.000236177
2911.29	0.000239378
2919.85	0.000290155
2928.4	0.000372353
2936.96	0.000434011
2945.52	0.000475783
2954.08	0.000551552
2962.63	0.000659145
2971.19	0.000577206
2979.75	0.000571115
2988.31	0.000363052
2996.86	0.000158009
3005.42	6.70181e-05
3013.98	2.68077e-05
3022.54	1.24311e-05
3031.09	8.06443e-06
3039.65	6.85584e-06
3048.21	6.25e-06
3056.77	6.27462e-06
3065.33	6.89122e-06
3073.88	7.69409e-06
3082.44	7.60722e-06
3091	7.32044e-06
3099.56	5.99452e-06
3108.11	4.66672e-06
3116.67	4.13912e-06
3125.23	3.8858e-06
3133.79	4.21162e-06
3142.34	4.79292e-06
3150.9	5.33904e-06
3159.46	6.4705e-06
3168.02	6.97471e-06
3176.57	7.13536e-06
3185.13	6.9645e-06
3193.69	5.80064e-06
3202.25	4.84741e-06
3210.81	4.05671e-06
3219.36	3.87544e-06
3227.92	3.75611e-06
3236.48	3.04083e-06
3245.04	2.18071e-06
3253.59	1.20223e-06
3262.15	7.75457e-07
3270.71	6.72135e-07
3279.27	6.49297e-07
3287.82	6.71218e-07
3296.38	6.15992e-07
3304.94	6.58967e-07
3313.5	3.5289e-07
3322.05	4.81288e-07
3330.61	4.44524e-07
3339.17	5.75099e-07
3347.73	6.66868e-07
3356.29	8.04538e-07
3364.84	6.60308e-07
3373.4	7.79757e-07
3381.96	9.29491e-07
3390.52	1.13644e-06
3399.07	1.05429e-06
3407.63	9.59295e-07
3416.19	6.1629e-07
3424.75	3.17418e-07
3433.3	1.28004e-07
3441.86	1.68637e-07
3450.42	2.8859e-08
3458.98	1.48477e-07
3467.53	9.75592e-08
3476.09	-7.22008e-08
3484.65	3.72518e-08
3493.21	7.14741e-08
3501.77	7.35596e-09
3510.32	2.65726e-08
3518.88	5.7467e-08
3527.44	1.15614e-07
3536	1.40673e-07
3544.55	7.72157e-08
3553.11	1.14589e-07
3561.67	6.45365e-08
3570.23	1.37536e-07
3578.78	1.80155e-07
3587.34	1.15674e-07
3595.9	2.86892e-07
3604.46	5.06892e-07
3613.01	5.38529e-07
3621.57	6.8202e-07
3630.13	8.19125e-07
3638.69	7.65918e-07
3647.25	8.6781e-07
3655.8	7.58692e-07
3664.36	7.56574e-07
3672.92	9.23239e-07
3681.48	9.22533e-07
3690.03	9.1714e-07
3698.59	1.04005e-06
3707.15	9.82335e-07
3715.71	1.09718e-06
3724.26	1.20865e-06
3732.82	1.2531e-06
3741.38	1.05792e-06
3749.94	6.27594e-07
3758.49	5.88523e-07
3767.05	4.89096e-07
3775.61	5.17812e-07
3784.17	6.30483e-07
3792.73	4.57203e-07
3801.28	8.5812e-07
3809.84	4.84553e-07
3818.4	6.00023e-07
3826.96	8.34875e-07
3835.51	1.32427e-06
3844.07	1.43255e-06
3852.63	1.86527e-06
3861.19	1.74983e-06
3869.74	1.5571e-06
3878.3	1.30756e-06
3886.86	1.01235e-06
3895.42	9.34218e-07
3903.97	9.5226e-07
3912.53	7.36737e-07
3921.09	6.22633e-07
3929.65	6.18181e-07
3938.21	4.99934e-07
3946.76	4.71707e-07
3955.32	5.30201e-07
3963.88	5.57033e-07
3972.44	4.4683e-07
