Infrared Spectrum: 1,3-Butadiene
Formula: C H2: C H C H: C H2
CAS: 106-99-0
State: gas
Melting point: -108.91 C
Boiling point: -4.41 C
Class: IUPAC A
Instrument: IFS66V (Bruker)
Instrument parameters: KBr Beam splitter; MCT Detector; Multipass cell
Sampling: 1 L/min Flow
Resolution: 0.9640
Temperature: 23 C
Pressure: 101.3 kPa
Origin: NIST, Anayltical Chemistry Division, 301-975-3108
cm-1	(micromol/mol)-1m-1 (base 10)
575.169	4.72487e-06
583.847	3.14791e-06
592.525	1.93348e-06
601.203	1.90206e-06
609.882	8.35357e-07
618.56	5.3644e-07
627.238	7.47553e-07
635.916	1.08654e-06
644.594	1.75861e-06
653.272	2.33117e-06
661.951	2.63446e-06
670.629	3.25552e-06
679.307	2.69481e-06
687.985	2.19164e-06
696.663	1.63526e-06
705.341	1.15491e-06
714.019	6.83847e-07
722.698	7.11226e-07
731.376	8.15697e-07
740.054	1.03717e-06
748.732	9.70735e-07
757.41	1.03208e-06
766.088	9.14957e-07
774.767	6.97196e-07
783.445	5.97332e-07
792.123	5.24645e-07
800.801	5.46112e-07
809.479	7.5337e-07
818.157	1.11193e-06
826.835	2.12426e-06
835.514	4.58173e-06
844.192	8.57097e-06
852.87	1.65867e-05
861.548	3.45515e-05
870.226	5.5131e-05
878.904	8.27169e-05
887.583	0.000109691
896.261	0.00014181
904.939	0.000143287
913.617	0.00013752
922.295	0.000154677
930.973	0.000146151
939.651	0.000104087
948.33	6.1453e-05
957.008	3.43734e-05
965.686	2.6046e-05
974.364	2.89656e-05
983.042	5.32933e-05
991.72	6.87927e-05
1000.4	9.23667e-05
1009.08	9.49196e-05
1017.75	6.96312e-05
1026.43	7.06346e-05
1035.11	6.54713e-05
1043.79	5.03515e-05
1052.47	3.63242e-05
1061.15	2.17299e-05
1069.82	1.36091e-05
1078.5	9.70305e-06
1087.18	4.67526e-06
1095.86	1.80189e-06
1104.54	6.17778e-07
1113.21	2.93296e-07
1121.89	2.3906e-07
1130.57	2.68712e-07
1139.25	2.46076e-07
1147.93	2.44401e-07
1156.61	2.02015e-07
1165.28	1.71963e-07
1173.96	2.02805e-07
1182.64	2.19032e-07
1191.32	1.64147e-07
1200	1.90964e-07
1208.67	3.33093e-07
1217.35	5.03842e-07
1226.03	8.76233e-07
1234.71	1.49396e-06
1243.39	2.47018e-06
1252.07	4.36249e-06
1260.74	5.58126e-06
1269.42	5.37644e-06
1278.1	7.75261e-06
1286.78	7.29028e-06
1295.46	4.10965e-06
1304.13	6.33586e-06
1312.81	4.12674e-06
1321.49	3.00663e-06
1330.17	2.73917e-06
1338.85	2.81391e-06
1347.52	2.96493e-06
1356.2	4.96478e-06
1364.88	1.32825e-05
1373.56	2.1095e-05
1382.24	7.97675e-06
1390.92	1.91667e-05
1399.59	7.7871e-06
1408.27	5.16888e-06
1416.95	5.73556e-06
1425.63	5.00995e-06
1434.31	4.53579e-06
1442.98	5.26652e-06
1451.66	3.75473e-06
1460.34	3.2133e-06
1469.02	4.12245e-06
1477.7	5.98034e-06
1486.38	5.13168e-06
1495.05	5.62521e-06
1503.73	3.73064e-06
1512.41	2.89932e-06
1521.09	3.46401e-06
1529.77	8.79839e-07
1538.44	1.77739e-06
1547.12	9.77151e-07
1555.8	2.05094e-06
1564.48	6.30063e-06
1573.16	1.99715e-05
1581.83	7.10257e-05
1590.51	9.88203e-05
1599.19	6.22718e-05
1607.87	9.80895e-05
1616.55	1.79243e-05
1625.23	3.33829e-06
1633.9	2.97404e-06
1642.58	3.16039e-06
1651.26	2.88214e-06
1659.94	1.5747e-06
1668.62	2.12343e-06
1677.29	1.07209e-06
1685.97	8.28028e-07
1694.65	7.15506e-07
1703.33	5.69351e-07
1712.01	6.84791e-07
1720.69	1.07279e-06
1729.36	1.80875e-06
1738.04	2.40337e-06
1746.72	3.81715e-06
1755.4	5.23336e-06
1764.08	3.81135e-06
1772.75	5.11735e-06
1781.43	2.98647e-06
1790.11	4.30168e-06
1798.79	1.06563e-05
1807.47	4.44895e-05
1816.15	4.03134e-05
1824.82	4.97186e-05
1833.5	4.15314e-05
1842.18	6.72295e-06
1850.86	1.61683e-06
1859.54	1.92865e-06
1868.21	2.13949e-06
1876.89	2.13754e-06
1885.57	2.20502e-06
1894.25	1.23568e-06
1902.93	1.33268e-06
1911.6	1.41884e-06
1920.28	1.18514e-06
1928.96	1.31515e-06
1937.64	1.32482e-06
1946.32	1.77488e-06
1955	2.83482e-06
1963.67	3.67624e-06
1972.35	2.33431e-06
1981.03	2.87655e-06
1989.71	1.3512e-06
1998.39	6.95363e-07
2007.06	4.6098e-07
2015.74	1.95746e-07
2024.42	3.7456e-08
2033.1	1.55557e-08
2041.78	1.4126e-08
2050.46	-3.1438e-08
2059.13	-2.39357e-08
2067.81	-8.25171e-09
2076.49	4.71438e-08
2085.17	1.01416e-07
2093.85	2.28145e-07
2102.52	3.05763e-07
2111.2	3.91038e-07
2119.88	4.56707e-07
2128.56	2.05097e-07
2137.24	1.61122e-07
2145.91	1.81128e-07
2154.59	3.51946e-07
2163.27	3.22048e-07
2171.95	3.92989e-07
2180.63	4.34726e-07
2189.31	4.59925e-07
2197.98	4.1832e-07
2206.66	4.05387e-07
2215.34	4.31165e-07
2224.02	3.77573e-07
2232.7	4.59417e-07
2241.37	6.54083e-07
2250.05	8.79337e-07
2258.73	1.21717e-06
2267.41	9.54731e-07
2276.09	1.14253e-06
2284.77	7.79322e-07
2293.44	5.76738e-07
2302.12	5.82225e-07
2310.8	5.64058e-07
2319.48	6.82921e-07
2328.16	6.8793e-07
2336.83	4.80706e-07
2345.51	6.30382e-07
2354.19	8.49986e-07
2362.87	1.29731e-06
2371.55	6.49973e-07
2380.23	1.82475e-07
2388.9	1.49106e-07
2397.58	1.93199e-07
2406.26	2.9741e-07
2414.94	3.69975e-07
2423.62	3.5374e-07
2432.29	4.46884e-07
2440.97	4.05579e-07
2449.65	4.43432e-07
2458.33	5.58827e-07
2467.01	6.48749e-07
2475.68	1.10258e-06
2484.36	1.6247e-06
2493.04	1.17271e-06
2501.72	1.6531e-06
2510.4	9.89024e-07
2519.08	4.27693e-07
2527.75	3.11549e-07
2536.43	2.402e-07
2545.11	1.97396e-07
2553.79	2.71744e-07
2562.47	3.51479e-07
2571.14	5.65576e-07
2579.82	4.06235e-07
2588.5	5.02533e-07
2597.18	3.6454e-07
2605.86	1.30021e-07
2614.54	1.1109e-07
2623.21	1.6641e-07
2631.89	1.41816e-07
2640.57	1.82161e-07
2649.25	1.663e-07
2657.93	1.34796e-07
2666.6	9.66059e-08
2675.28	9.8895e-08
2683.96	1.01349e-07
2692.64	1.23888e-07
2701.32	2.27492e-07
2709.99	2.26502e-07
2718.67	4.22279e-07
2727.35	3.23524e-07
2736.03	3.39285e-07
2744.71	2.61759e-07
2753.39	1.86288e-07
2762.06	2.05056e-07
2770.74	2.01614e-07
2779.42	1.95352e-07
2788.1	3.59999e-07
2796.78	3.79561e-07
2805.45	5.0113e-07
2814.13	3.54376e-07
2822.81	4.07964e-07
2831.49	4.79312e-07
2840.17	1.01399e-06
2848.85	1.67887e-06
2857.52	2.05364e-06
2866.2	2.44384e-06
2874.88	2.64782e-06
2883.56	3.31827e-06
2892.24	4.78085e-06
2900.91	5.29148e-06
2909.59	5.98172e-06
2918.27	7.94379e-06
2926.95	8.60092e-06
2935.63	1.13933e-05
2944.31	1.23447e-05
2952.98	1.62999e-05
2961.66	2.03157e-05
2970.34	3.61707e-05
2979.02	4.24439e-05
2987.7	4.47372e-05
2996.37	5.58626e-05
3005.05	5.55926e-05
3013.73	4.48799e-05
3022.41	5.32537e-05
3031.09	4.3531e-05
3039.76	5.47276e-05
3048.44	5.48256e-05
3057.12	4.87111e-05
3065.8	6.58511e-05
3074.48	6.04912e-05
3083.16	7.45832e-05
3091.83	9.589e-05
3100.51	6.5179e-05
3109.19	9.51434e-05
3117.87	4.92608e-05
3126.55	3.24823e-05
3135.22	2.03166e-05
3143.9	1.19248e-05
3152.58	6.62811e-06
3161.26	3.06612e-06
3169.94	1.42257e-06
3178.62	5.74151e-07
3187.29	4.15184e-07
3195.97	2.98319e-07
3204.65	-1.31465e-08
3213.33	1.44826e-07
3222.01	6.00193e-07
3230.68	5.63665e-07
3239.36	9.20212e-07
3248.04	6.34738e-07
3256.72	3.62853e-07
3265.4	3.01585e-07
3274.07	1.85243e-07
3282.75	1.00318e-07
3291.43	6.15882e-08
3300.11	2.25667e-07
3308.79	2.05562e-07
3317.47	2.56555e-07
3326.14	1.90409e-07
3334.82	1.70398e-07
3343.5	1.23472e-07
3352.18	7.37461e-08
3360.86	9.70915e-08
3369.53	9.0285e-08
3378.21	2.91688e-07
3386.89	4.97984e-07
3395.57	5.246e-07
3404.25	6.5635e-07
3412.93	5.21222e-07
3421.6	2.77738e-07
3430.28	1.49854e-07
3438.96	2.67948e-07
3447.64	3.68473e-07
3456.32	2.43092e-07
3464.99	3.46398e-07
3473.67	1.84081e-07
3482.35	2.53729e-07
3491.03	1.99247e-07
3499.71	2.41887e-07
3508.39	2.22592e-07
3517.06	2.97171e-07
3525.74	2.78509e-07
3534.42	3.16975e-07
3543.1	2.66257e-07
3551.78	3.43535e-07
3560.45	3.03376e-07
3569.13	3.0738e-07
3577.81	3.3825e-07
3586.49	8.82996e-07
3595.17	6.93043e-07
3603.84	5.25448e-07
3612.52	1.04952e-06
3621.2	7.52611e-07
3629.88	1.48728e-06
3638.56	1.84302e-07
3647.24	9.64132e-07
3655.91	6.98406e-07
3664.59	3.6612e-08
3673.27	4.2601e-08
3681.95	5.0478e-08
3690.63	3.86353e-07
3699.3	1.20447e-07
3707.98	9.56855e-08
3716.66	5.92172e-08
3725.34	2.04717e-07
3734.02	2.83897e-07
3742.7	1.33023e-07
3751.37	4.73376e-07
3760.05	6.21237e-07
3768.73	1.10189e-07
3777.41	5.47016e-08
3786.09	1.21522e-07
3794.76	7.45401e-08
3803.44	2.72716e-07
3812.12	1.47507e-07
3820.8	1.17681e-06
3829.48	2.22481e-07
3838.16	2.24236e-06
3846.83	2.76699e-07
3855.51	3.72006e-07
3864.19	5.72829e-07
3872.87	4.04622e-07
3881.55	4.75844e-07
3890.22	4.75572e-07
3898.9	7.91955e-07
3907.58	4.03451e-07
3916.26	4.64097e-07
3924.94	6.32244e-07
3933.61	4.16284e-07
3942.29	5.34394e-07
3950.97	5.04258e-07
3959.65	6.20467e-07
3968.33	9.96377e-07
