Infrared Spectrum: Butane
Formula: C4 H10
CAS: 106-97-8
State: gas
Melting point: -138.35 C
Boiling point: -0.5 C
Class: IUPAC A
Instrument: IFS66V (Bruker)
Instrument parameters: KBr Beam Splitter; MCT Detector; Multipass cell
Sampling: 1 L/min Flow
Resolution: 0.4820
Temperature: 23 C
Pressure: 101.3 Pa
Origin: NIST, Analytical Chemistry Division, 301-975-3108
cm-1	(micromol/mol)-1m-1 (base 10)
575.17	-4.71326e-07
583.848	-1.62815e-07
592.526	2.7248e-07
601.205	-5.98263e-09
609.883	-6.77925e-08
618.561	-3.35402e-08
627.239	-6.11359e-09
635.917	-1.12953e-07
644.595	1.28629e-08
653.274	-1.49212e-07
661.952	4.05723e-09
670.63	-7.79688e-08
679.308	8.2197e-08
687.986	4.63437e-07
696.664	9.90339e-07
705.343	2.32206e-06
714.021	3.99162e-06
722.699	5.23762e-06
731.377	1.0031e-05
740.055	8.80334e-06
748.734	1.06417e-05
757.412	7.99729e-06
766.09	5.66899e-06
774.768	3.43985e-06
783.446	2.75368e-06
792.124	1.91131e-06
800.803	1.59025e-06
809.481	8.25897e-07
818.159	3.74074e-07
826.837	1.07591e-07
835.515	4.64904e-08
844.193	5.0132e-08
852.872	-1.3676e-08
861.55	-4.54327e-08
870.228	8.38432e-08
878.906	-2.93529e-08
887.584	-1.49275e-08
896.263	1.3415e-09
904.941	-1.38843e-08
913.619	2.89727e-07
922.297	6.97464e-07
930.975	1.96193e-06
939.653	5.14948e-06
948.332	1.12026e-05
957.01	1.85994e-05
965.688	1.96453e-05
974.366	1.68556e-05
983.044	1.06448e-05
991.723	7.1705e-06
1000.4	3.66019e-06
1009.08	1.86086e-06
1017.76	9.97265e-07
1026.44	5.02314e-07
1035.11	4.01643e-07
1043.79	1.48082e-07
1052.47	4.20248e-08
1061.15	8.2217e-08
1069.83	1.70268e-07
1078.5	1.15372e-07
1087.18	2.56367e-07
1095.86	2.02849e-07
1104.54	3.33517e-07
1113.22	8.05064e-07
1121.9	2.22892e-06
1130.57	2.8293e-06
1139.25	1.9128e-06
1147.93	2.13745e-06
1156.61	5.26214e-07
1165.29	1.75127e-07
1173.96	2.02012e-07
1182.64	2.14028e-07
1191.32	1.82619e-07
1200	1.90617e-07
1208.68	2.49747e-07
1217.36	3.54519e-07
1226.03	4.78716e-07
1234.71	6.7136e-07
1243.39	1.04856e-06
1252.07	1.51014e-06
1260.75	1.73695e-06
1269.42	2.32397e-06
1278.1	4.81512e-06
1286.78	8.18385e-06
1295.46	8.2094e-06
1304.14	7.80868e-06
1312.82	2.92156e-06
1321.49	1.85975e-06
1330.17	3.88657e-06
1338.85	3.82322e-06
1347.53	3.97189e-06
1356.21	6.64719e-06
1364.88	1.01793e-05
1373.56	2.45783e-05
1382.24	2.9534e-05
1390.92	3.70859e-05
1399.6	2.49515e-05
1408.28	9.77297e-06
1416.95	8.03593e-06
1425.63	1.06016e-05
1434.31	1.91419e-05
1442.99	3.65963e-05
1451.67	5.22203e-05
1460.34	6.95264e-05
1469.02	7.04939e-05
1477.7	5.75113e-05
1486.38	4.91001e-05
1495.06	2.99184e-05
1503.73	1.62385e-05
1512.41	8.40597e-06
1521.09	4.29462e-06
1529.77	1.88479e-06
1538.45	1.13048e-06
1547.13	9.16302e-07
1555.8	9.87753e-07
1564.48	1.26049e-06
1573.16	1.59539e-06
1581.84	1.55232e-06
1590.52	1.4146e-06
1599.19	1.13171e-06
1607.87	8.89897e-07
1616.55	1.25076e-06
1625.23	8.33571e-07
1633.91	1.1094e-06
1642.59	1.00018e-06
1651.26	1.13158e-06
1659.94	1.31018e-06
1668.62	1.45233e-06
1677.3	1.30485e-06
1685.98	1.35965e-06
1694.65	1.17492e-06
1703.33	1.12096e-06
1712.01	1.08704e-06
1720.69	1.02908e-06
1729.37	8.24805e-07
1738.05	5.80079e-07
1746.72	3.79511e-07
1755.4	2.76625e-07
1764.08	2.66608e-07
1772.76	4.74987e-07
1781.44	3.18891e-07
1790.11	3.44284e-07
1798.79	3.81012e-07
1807.47	3.77847e-07
1816.15	3.53784e-07
1824.83	3.21856e-07
1833.51	1.58559e-07
1842.18	5.66921e-08
1850.86	2.34203e-08
1859.54	1.25964e-09
1868.22	2.84643e-08
1876.9	7.76277e-08
1885.57	2.26886e-07
1894.25	3.54552e-07
1902.93	4.76142e-07
1911.61	4.4317e-07
1920.29	4.96747e-07
1928.97	3.75802e-07
1937.64	3.34172e-07
1946.32	1.91918e-07
1955	8.70573e-08
1963.68	-2.11911e-09
1972.36	-4.60666e-08
1981.03	-2.46954e-08
1989.71	-4.55345e-08
1998.39	-2.86462e-08
2007.07	1.55805e-08
2015.75	1.25028e-07
2024.43	4.47481e-07
2033.1	6.29961e-07
2041.78	6.3282e-07
2050.46	5.95651e-07
2059.14	2.307e-07
2067.82	1.40702e-07
2076.49	1.62255e-07
2085.17	1.92911e-07
2093.85	2.66696e-07
2102.53	3.50251e-07
2111.21	4.79276e-07
2119.89	6.43702e-07
2128.56	6.01813e-07
2137.24	6.13256e-07
2145.92	6.84067e-07
2154.6	7.01854e-07
2163.28	6.70433e-07
2171.95	6.85376e-07
2180.63	6.35191e-07
2189.31	6.60176e-07
2197.99	6.66911e-07
2206.67	7.05469e-07
2215.35	6.81762e-07
2224.02	6.6013e-07
2232.7	5.60396e-07
2241.38	4.19315e-07
2250.06	4.70915e-07
2258.74	5.23419e-07
2267.41	5.78107e-07
2276.09	6.34431e-07
2284.77	7.92993e-07
2293.45	7.98941e-07
2302.13	9.9248e-07
2310.81	9.00961e-07
2319.48	7.9729e-07
2328.16	8.76367e-07
2336.84	1.12248e-06
2345.52	1.05802e-06
2354.2	8.03828e-07
2362.87	3.22723e-08
2371.55	8.30912e-07
2380.23	1.63598e-06
2388.91	1.4522e-06
2397.59	1.70305e-06
2406.27	1.11507e-06
2414.94	1.48162e-06
2423.62	1.61394e-06
2432.3	1.9413e-06
2440.98	1.76439e-06
2449.66	1.61604e-06
2458.33	9.71802e-07
2467.01	5.65233e-07
2475.69	3.7592e-07
2484.37	2.45953e-07
2493.05	2.02261e-07
2501.73	1.99023e-07
2510.4	3.6307e-07
2519.08	5.53318e-07
2527.76	7.39181e-07
2536.44	7.06311e-07
2545.12	7.06562e-07
2553.79	5.9682e-07
2562.47	7.32127e-07
2571.15	1.05989e-06
2579.83	1.67656e-06
2588.51	2.45989e-06
2597.19	3.36425e-06
2605.86	3.64925e-06
2614.54	4.14666e-06
2623.22	4.20706e-06
2631.9	4.51282e-06
2640.58	4.36709e-06
2649.25	4.75175e-06
2657.93	4.75752e-06
2666.61	4.29313e-06
2675.29	3.68471e-06
2683.97	4.1841e-06
2692.65	3.24049e-06
2701.32	3.08767e-06
2710	3.86323e-06
2718.68	4.92305e-06
2727.36	7.60109e-06
2736.04	1.01926e-05
2744.71	9.35758e-06
2753.39	1.089e-05
2762.07	7.11723e-06
2770.75	5.89894e-06
2779.43	6.21555e-06
2788.11	6.67275e-06
2796.78	7.86688e-06
2805.46	1.00487e-05
2814.14	1.38922e-05
2822.82	2.02237e-05
2831.5	2.93131e-05
2840.17	4.48277e-05
2848.85	6.83821e-05
2857.53	0.000113637
2866.21	0.000166883
2874.89	0.000248636
2883.57	0.000257972
2892.24	0.000269502
2900.92	0.000249356
2909.6	0.000232252
2918.28	0.000273122
2926.96	0.000357078
2935.63	0.000423248
2944.31	0.000472437
2952.99	0.000534729
2961.67	0.000650752
2970.35	0.000622302
2979.03	0.00057033
2987.7	0.000382841
2996.38	0.000165951
3005.06	7.00769e-05
3013.74	2.78957e-05
3022.42	1.28561e-05
3031.09	8.30492e-06
3039.77	6.94386e-06
3048.45	6.42067e-06
3057.13	6.39705e-06
3065.81	7.01176e-06
3074.49	7.75063e-06
3083.16	7.72642e-06
3091.84	7.28023e-06
3100.52	5.77208e-06
3109.2	4.55636e-06
3117.88	3.98773e-06
3126.55	3.97642e-06
3135.23	4.32509e-06
3143.91	4.91278e-06
3152.59	5.54092e-06
3161.27	6.50981e-06
3169.95	7.24385e-06
3178.62	7.02194e-06
3187.3	7.0394e-06
3195.98	5.48946e-06
3204.66	4.53899e-06
3213.34	4.10031e-06
3222.01	4.14816e-06
3230.69	3.3628e-06
3239.37	2.83781e-06
3248.05	1.85234e-06
3256.73	9.86437e-07
3265.4	6.67781e-07
3274.08	7.21936e-07
3282.76	6.74423e-07
3291.44	7.16298e-07
3300.12	6.75369e-07
3308.8	4.98273e-07
3317.47	3.85621e-07
3326.15	4.27854e-07
3334.83	4.58894e-07
3343.51	6.75869e-07
3352.19	6.82706e-07
3360.86	7.28104e-07
3369.54	7.78354e-07
3378.22	8.66666e-07
3386.9	1.09263e-06
3395.58	1.18244e-06
3404.26	1.07687e-06
3412.93	8.38879e-07
3421.61	3.33966e-07
3430.29	2.12302e-07
3438.97	2.22176e-07
3447.65	1.33079e-07
3456.32	4.3279e-08
3465	1.11119e-07
3473.68	1.25e-07
3482.36	1.10419e-07
3491.04	7.03882e-08
3499.72	1.22229e-07
3508.39	5.70459e-08
3517.07	4.38101e-08
3525.75	-4.70534e-08
3534.43	-9.24942e-08
3543.11	-1.76505e-08
3551.78	-9.17039e-09
3560.46	3.30636e-08
3569.14	1.75995e-07
3577.82	2.43639e-07
3586.5	3.16883e-07
3595.18	3.63031e-07
3603.85	4.09449e-07
3612.53	6.32809e-07
3621.21	6.57761e-07
3629.89	7.80727e-07
3638.57	7.97231e-07
3647.24	8.73945e-07
3655.92	7.95241e-07
3664.6	7.84278e-07
3673.28	8.2313e-07
3681.96	9.15393e-07
3690.64	1.00589e-06
3699.31	9.71557e-07
3707.99	9.96839e-07
3716.67	1.26825e-06
3725.35	1.20104e-06
3734.03	1.32873e-06
3742.7	9.53224e-07
3751.38	6.99471e-07
3760.06	7.06013e-07
3768.74	5.97733e-07
3777.42	5.60917e-07
3786.1	4.99863e-07
3794.77	4.63081e-07
3803.45	4.55685e-07
3812.13	4.88634e-07
3820.81	7.49784e-07
3829.49	7.64928e-07
3838.16	1.43049e-06
3846.84	1.58957e-06
3855.52	1.85807e-06
3864.2	1.65421e-06
3872.88	1.38383e-06
3881.56	1.22365e-06
3890.23	1.06825e-06
3898.91	9.70809e-07
3907.59	8.70617e-07
3916.27	7.64862e-07
3924.95	6.74675e-07
3933.62	6.55358e-07
3942.3	5.52059e-07
3950.98	4.69997e-07
3959.66	4.68527e-07
3968.34	5.13578e-07
