Infrared Spectrum: 1,4-Dimethylbenzene
Formula: 1,4-( C H3)2 C6 H4
CAS: 106-42-3
State: gas
Melting point: 13.26 C
Boiling point: 138.35 C
Class: IUPAC A
Instrument: IFS66V (Bruker)
Instrument parameters: KBr Beam Splitter; MCT Detector; Multipass cell
Sampling: 1 L/min Flow
Resolution: 0.9640
Temperature: 23 C
Pressure: 101.3 Pa
Origin: NIST, Analytical Chemistry Division, 301-975-3108
cm-1	(micromol/mol)-1m-1 (base 10)
575.17	1.62924e-06
583.848	-3.5042e-07
592.526	-1.83353e-08
601.205	-8.36681e-07
609.883	-9.04824e-08
618.561	-4.6827e-07
627.239	-3.90283e-07
635.917	-8.29419e-07
644.595	-3.48955e-07
653.274	-1.01698e-07
661.952	-3.96268e-07
670.63	-2.77783e-07
679.308	2.07671e-07
687.986	-5.28532e-08
696.664	3.00684e-07
705.343	1.06613e-07
714.021	2.4902e-07
722.699	2.59942e-07
731.377	3.76625e-07
740.055	3.58003e-07
748.734	5.51334e-07
757.412	1.12877e-06
766.09	6.94466e-06
774.768	4.18752e-05
783.446	0.000137534
792.124	0.000194141
800.803	0.000180053
809.481	0.000105399
818.159	2.03373e-05
826.837	6.13632e-06
835.515	4.33623e-06
844.194	1.79413e-06
852.872	1.05394e-06
861.55	8.05861e-07
870.228	1.10898e-06
878.906	1.16581e-06
887.584	1.25859e-06
896.263	1.4816e-06
904.941	1.47457e-06
913.619	2.36895e-06
922.297	2.94903e-06
930.975	2.66631e-06
939.653	2.64537e-06
948.332	3.22426e-06
957.01	4.28366e-06
965.688	4.5881e-06
974.366	4.55992e-06
983.044	4.48328e-06
991.723	4.75203e-06
1000.4	5.11457e-06
1009.08	5.43607e-06
1017.76	2.18044e-05
1026.44	2.10509e-05
1035.11	1.8e-05
1043.79	2.36819e-05
1052.47	2.45176e-05
1061.15	1.85451e-05
1069.83	1.23251e-05
1078.5	9.05283e-06
1087.18	1.11157e-05
1095.86	1.85718e-05
1104.54	2.40319e-05
1113.22	3.93163e-05
1121.9	2.86776e-05
1130.57	2.19592e-05
1139.25	7.81036e-06
1147.93	3.94521e-06
1156.61	3.16338e-06
1165.29	3.19326e-06
1173.96	3.28024e-06
1182.64	3.39817e-06
1191.32	3.00646e-06
1200	2.68885e-06
1208.68	5.58509e-06
1217.36	1.30553e-05
1226.03	1.75106e-05
1234.71	1.37058e-05
1243.39	1.19927e-05
1252.07	4.7876e-06
1260.75	3.07341e-06
1269.42	2.90016e-06
1278.1	2.33127e-06
1286.78	2.31995e-06
1295.46	2.52196e-06
1304.14	3.65947e-06
1312.82	5.06821e-06
1321.49	5.7783e-06
1330.17	6.28056e-06
1338.85	7.57341e-06
1347.53	8.5427e-06
1356.21	8.68639e-06
1364.88	8.39176e-06
1373.56	1.13362e-05
1382.24	2.08756e-05
1390.92	2.45726e-05
1399.6	1.57998e-05
1408.28	1.91552e-05
1416.95	2.48158e-05
1425.63	3.48419e-05
1434.31	3.64841e-05
1442.99	3.29761e-05
1451.67	3.2343e-05
1460.34	3.20432e-05
1469.02	4.7291e-05
1477.7	3.59876e-05
1486.38	4.14806e-05
1495.06	4.55933e-05
1503.73	5.75915e-05
1512.41	0.000188838
1521.09	0.000244334
1529.77	0.000129988
1538.45	2.65653e-05
1547.13	1.60097e-05
1555.8	1.28046e-05
1564.48	1.011e-05
1573.16	7.65268e-06
1581.84	5.77913e-06
1590.52	4.90027e-06
1599.19	5.53676e-06
1607.87	7.59752e-06
1616.55	1.28424e-05
1625.23	1.55359e-05
1633.91	1.43021e-05
1642.59	5.74647e-06
1651.26	2.50998e-06
1659.94	1.77619e-06
1668.62	1.4367e-06
1677.3	1.2339e-06
1685.98	9.08367e-07
1694.65	8.36865e-07
1703.33	8.2187e-07
1712.01	1.11158e-06
1720.69	2.93653e-06
1729.37	2.85641e-06
1738.05	2.26492e-06
1746.72	2.98835e-06
1755.4	3.43947e-06
1764.08	2.81011e-06
1772.76	3.11472e-06
1781.44	9.87668e-06
1790.11	1.19613e-05
1798.79	5.97751e-06
1807.47	1.42801e-06
1816.15	9.44177e-07
1824.83	1.2447e-06
1833.51	3.36942e-06
1842.18	4.0818e-06
1850.86	2.656e-06
1859.54	2.19736e-06
1868.22	4.74516e-06
1876.9	1.22494e-05
1885.57	2.04383e-05
1894.25	2.18846e-05
1902.93	8.4313e-06
1911.61	3.25081e-06
1920.29	2.33624e-06
1928.97	1.93423e-06
1937.64	1.04199e-06
1946.32	7.89617e-07
1955	1.17763e-06
1963.68	8.9183e-07
1972.36	1.0858e-06
1981.03	1.41666e-06
1989.71	1.27045e-06
1998.39	1.03628e-06
2007.07	8.93668e-07
2015.75	5.88182e-07
2024.43	2.72096e-07
2033.1	3.6022e-07
2041.78	3.62004e-07
2050.46	2.03835e-07
2059.14	-2.99859e-09
2067.82	-1.03091e-07
2076.49	6.44101e-09
2085.17	2.1744e-07
2093.85	8.43522e-07
2102.53	1.90514e-06
2111.21	2.05282e-06
2119.89	7.14414e-07
2128.56	-1.1961e-07
2137.24	-1.45225e-07
2145.92	-1.20967e-07
2154.6	4.332e-07
2163.28	-1.31976e-08
2171.95	2.05493e-07
2180.63	1.10636e-07
2189.31	8.00433e-08
2197.99	1.25951e-07
2206.67	8.02828e-07
2215.35	7.86037e-07
2224.02	9.08962e-08
2232.7	-1.17224e-08
2241.38	-1.08759e-07
2250.06	-1.79682e-07
2258.74	-4.93971e-08
2267.41	1.10496e-07
2276.09	4.75112e-07
2284.77	6.09439e-07
2293.45	1.2336e-06
2302.13	2.45394e-06
2310.81	2.63114e-06
2319.48	1.76968e-06
2328.16	1.72089e-06
2336.84	2.27565e-06
2345.52	2.45938e-06
2354.2	1.74196e-06
2362.87	1.68858e-06
2371.55	9.3397e-07
2380.23	4.85025e-07
2388.91	5.36545e-07
2397.59	5.37505e-07
2406.27	1.0413e-06
2414.94	1.44098e-06
2423.62	1.55521e-06
2432.3	1.33462e-06
2440.98	1.17039e-06
2449.66	9.12661e-07
2458.33	7.22837e-07
2467.01	8.67182e-07
2475.69	7.952e-07
2484.37	7.82321e-07
2493.05	6.64222e-07
2501.73	4.52126e-07
2510.4	3.46313e-07
2519.08	2.8795e-07
2527.76	3.26519e-07
2536.44	2.60596e-07
2545.12	1.36625e-07
2553.79	-1.36471e-07
2562.47	-1.5929e-07
2571.15	1.72159e-07
2579.83	1.48296e-06
2588.51	3.01003e-06
2597.19	3.16408e-06
2605.86	1.65718e-06
2614.54	8.34423e-07
2623.22	2.52261e-07
2631.9	1.52689e-07
2640.58	4.2906e-07
2649.25	2.68007e-07
2657.93	-6.38135e-08
2666.61	-1.14943e-07
2675.29	-1.17281e-07
2683.97	1.31849e-08
2692.65	1.22737e-07
2701.32	7.59281e-07
2710	1.47551e-06
2718.68	1.95977e-06
2727.36	2.89231e-06
2736.04	1.0988e-05
2744.71	1.74195e-05
2753.39	7.92868e-06
2762.07	1.62938e-06
2770.75	8.39994e-07
2779.43	1.15076e-06
2788.11	1.63525e-06
2796.78	2.3583e-06
2805.46	3.4621e-06
2814.14	4.64353e-06
2822.82	6.98461e-06
2831.5	1.02427e-05
2840.17	1.3663e-05
2848.85	1.92309e-05
2857.53	3.4612e-05
2866.21	8.20746e-05
2874.89	0.000143726
2883.57	0.000156194
2892.24	0.00012809
2900.92	0.000108462
2909.6	9.65639e-05
2918.28	0.000121618
2926.96	0.00022365
2935.63	0.000306696
2944.31	0.000251071
2952.99	0.00013083
2961.67	9.75034e-05
2970.35	7.37184e-05
2979.03	8.58449e-05
2987.7	0.000112157
2996.38	0.000162685
3005.06	0.00021125
3013.74	0.000196691
3022.42	0.000237871
3031.09	0.000229798
3039.77	0.000163535
3048.45	0.000155006
3057.13	0.000147579
3065.81	0.000113992
3074.49	5.39589e-05
3083.16	2.87388e-05
3091.84	2.54777e-05
3100.52	2.72917e-05
3109.2	2.51893e-05
3117.88	1.55868e-05
3126.55	6.46168e-06
3135.23	7.25809e-06
3143.91	9.35996e-06
3152.59	6.52181e-06
3161.27	1.37292e-06
3169.95	3.58093e-07
3178.62	-3.29435e-08
3187.3	-2.54271e-07
3195.98	-3.00218e-07
3204.66	-3.96326e-07
3213.34	-3.25429e-07
3222.01	-2.57632e-07
3230.69	-1.62178e-07
3239.37	-3.06632e-07
3248.05	-2.50146e-07
3256.73	-3.13447e-08
3265.41	5.06413e-08
3274.08	-4.58456e-08
3282.76	5.12861e-08
3291.44	2.31619e-07
3300.12	-5.76653e-08
3308.8	-1.26851e-07
3317.47	-1.45391e-08
3326.15	6.7847e-08
3334.83	5.35544e-08
3343.51	-2.83179e-08
3352.19	-1.86991e-08
3360.86	-1.27355e-07
3369.54	-5.25212e-08
3378.22	2.72891e-07
3386.9	2.99242e-07
3395.58	2.37991e-07
3404.26	4.21412e-08
3412.93	6.79353e-08
3421.61	-1.06137e-08
3430.29	9.32737e-08
3438.97	1.71233e-07
3447.65	8.71592e-08
3456.32	1.15484e-07
3465	-2.91085e-07
3473.68	-3.30713e-07
3482.36	-2.91664e-07
3491.04	-1.84524e-07
3499.72	-2.83795e-07
3508.39	-1.50613e-07
3517.07	-2.73966e-07
3525.75	-2.74775e-07
3534.43	-5.17994e-07
3543.11	-1.73789e-07
3551.78	-5.83432e-07
3560.46	-6.40059e-07
3569.14	-6.13871e-07
3577.82	-5.3572e-07
3586.5	-6.85517e-07
3595.18	-3.16471e-07
3603.85	-1.54109e-07
3612.53	-3.21645e-07
3621.21	-1.9177e-07
3629.89	-3.49482e-07
3638.57	5.14498e-08
3647.24	8.45335e-08
3655.92	4.41049e-07
3664.6	9.60116e-07
3673.28	1.06806e-06
3681.96	1.03648e-06
3690.64	3.34871e-07
3699.31	4.86405e-07
3707.99	2.21374e-07
3716.67	4.90861e-08
3725.35	7.89765e-08
3734.03	1.06335e-07
3742.7	4.47093e-07
3751.38	6.74748e-07
3760.06	7.12655e-07
3768.74	7.57372e-07
3777.42	3.59905e-07
3786.1	2.89969e-07
3794.77	4.12203e-07
3803.45	3.9679e-07
3812.13	6.21158e-07
3820.81	5.40239e-07
3829.49	1.18624e-06
3838.16	7.26022e-07
3846.84	1.64189e-06
3855.52	1.731e-06
3864.2	1.69936e-06
3872.88	1.8393e-06
3881.56	1.9085e-06
3890.23	2.03961e-06
3898.91	1.82372e-06
3907.59	1.97568e-06
3916.27	2.16481e-06
3924.95	2.30715e-06
3933.62	2.36259e-06
3942.3	2.20313e-06
3950.98	2.02815e-06
3959.66	2.07982e-06
3968.34	2.06018e-06
