Infrared Spectrum: 1,3-Butadiene
Formula: C H2: C H C H: C H2
CAS: 106-99-0
State: gas
Melting point: -108.91 C
Boiling point: -4.41 C
Class: IUPAC A
Instrument: IFS66V (Bruker)
Instrument parameters: KBr Beam splitter; MCT Detector; Multipass cell
Sampling: 1 L/min Flow
Resolution: 1.9290
Temperature: 23 C
Pressure: 101.3 kPa
Origin: NIST, Anayltical Chemistry Division, 301-975-3108
cm-1	(micromol/mol)-1m-1 (base 10)
574.687	4.768e-06
583.365	3.46767e-06
592.043	1.71293e-06
600.721	2.01346e-06
609.4	5.38097e-07
618.078	9.72569e-07
626.756	4.22471e-07
635.434	1.481e-06
644.112	1.3979e-06
652.79	2.84482e-06
661.469	2.41091e-06
670.147	3.93868e-06
678.825	2.24081e-06
687.503	2.68224e-06
696.181	1.32483e-06
704.859	1.64849e-06
713.537	3.04723e-07
722.216	1.09718e-06
730.894	3.2541e-07
739.572	1.52238e-06
748.25	4.4478e-07
756.928	1.61277e-06
765.606	4.05434e-07
774.285	1.30885e-06
782.963	2.68569e-09
791.641	1.1991e-06
800.319	-2.29284e-07
808.997	1.51374e-06
817.675	2.96093e-07
826.353	3.06691e-06
835.032	3.36123e-06
843.71	9.10644e-06
852.388	1.62297e-05
861.066	3.34078e-05
869.744	4.91972e-05
878.422	7.55861e-05
887.101	8.67432e-05
895.779	0.000111341
904.457	0.000109518
913.135	0.000121499
921.813	0.000131717
930.491	0.000132253
939.169	0.000108189
947.848	6.02031e-05
956.526	3.6587e-05
965.204	2.52195e-05
973.882	3.0703e-05
982.56	4.89289e-05
991.238	6.47117e-05
999.917	9.74481e-05
1008.59	9.33423e-05
1017.27	6.98036e-05
1025.95	7.33303e-05
1034.63	6.67309e-05
1043.31	5.47224e-05
1051.99	3.65515e-05
1060.66	2.2953e-05
1069.34	1.3967e-05
1078.02	1.02476e-05
1086.7	4.62297e-06
1095.38	2.2056e-06
1104.05	3.63867e-07
1112.73	5.7257e-07
1121.41	1.21106e-08
1130.09	4.81973e-07
1138.77	6.13926e-08
1147.45	4.39459e-07
1156.12	1.97112e-08
1164.8	3.33243e-07
1173.48	6.32643e-08
1182.16	3.58114e-07
1190.84	1.33721e-08
1199.51	3.04977e-07
1208.19	2.00604e-07
1216.87	5.55057e-07
1225.55	7.21757e-07
1234.23	1.43226e-06
1242.9	2.22604e-06
1251.58	4.05359e-06
1260.26	6.24939e-06
1268.94	4.91368e-06
1277.62	8.8603e-06
1286.3	6.94897e-06
1294.97	3.78613e-06
1303.65	6.05721e-06
1312.33	4.74714e-06
1321.01	2.86585e-06
1329.69	3.00672e-06
1338.36	2.55429e-06
1347.04	3.30296e-06
1355.72	4.20283e-06
1364.4	1.35606e-05
1373.08	2.07833e-05
1381.76	7.32106e-06
1390.43	1.87973e-05
1399.11	8.88818e-06
1407.79	4.93229e-06
1416.47	5.55292e-06
1425.15	5.20374e-06
1433.82	4.35834e-06
1442.5	5.46662e-06
1451.18	3.84698e-06
1459.86	2.98308e-06
1468.54	3.89786e-06
1477.22	5.971e-06
1485.89	5.18603e-06
1494.57	5.15176e-06
1503.25	3.87219e-06
1511.93	2.86022e-06
1520.61	3.03555e-06
1529.28	9.12438e-07
1537.96	1.10144e-06
1546.64	7.57237e-07
1555.32	2.08002e-06
1564	5.42267e-06
1572.67	1.90699e-05
1581.35	6.51847e-05
1590.03	0.000104455
1598.71	6.24861e-05
1607.39	0.000102641
1616.07	1.93072e-05
1624.74	3.19204e-06
1633.42	3.43744e-06
1642.1	3.12914e-06
1650.78	2.90373e-06
1659.46	1.4783e-06
1668.13	1.77822e-06
1676.81	7.15499e-07
1685.49	2.3624e-06
1694.17	1.42306e-07
1702.85	6.26311e-07
1711.53	5.0384e-07
1720.2	1.0622e-06
1728.88	1.62173e-06
1737.56	2.59408e-06
1746.24	3.64669e-06
1754.92	5.1601e-06
1763.59	3.62375e-06
1772.27	4.72013e-06
1780.95	3.15774e-06
1789.63	4.09031e-06
1798.31	9.69567e-06
1806.98	4.22746e-05
1815.66	4.21497e-05
1824.34	4.55634e-05
1833.02	4.45165e-05
1841.7	7.61283e-06
1850.38	1.62657e-06
1859.05	1.94572e-06
1867.73	2.10934e-06
1876.41	2.0692e-06
1885.09	2.28588e-06
1893.77	1.27075e-06
1902.44	1.18861e-06
1911.12	1.40004e-06
1919.8	1.1422e-06
1928.48	1.28008e-06
1937.16	1.30995e-06
1945.84	1.72728e-06
1954.51	2.6316e-06
1963.19	3.67087e-06
1971.87	2.56438e-06
1980.55	2.91676e-06
1989.23	1.47578e-06
1997.9	6.87291e-07
2006.58	5.05336e-07
2015.26	2.00448e-07
2023.94	6.04722e-08
2032.62	3.24957e-09
2041.3	2.53272e-08
2049.97	-2.25287e-08
2058.65	-2.0115e-08
2067.33	-2.79629e-08
2076.01	5.04179e-08
2084.69	6.87185e-08
2093.36	2.18572e-07
2102.04	2.37516e-07
2110.72	2.78583e-07
2119.4	4.4757e-07
2128.08	3.19082e-07
2136.75	1.36996e-07
2145.43	1.98399e-07
2154.11	2.6892e-07
2162.79	4.25892e-07
2171.47	3.04131e-07
2180.15	5.65295e-07
2188.82	4.01338e-07
2197.5	4.71658e-07
2206.18	3.74494e-07
2214.86	4.30626e-07
2223.54	3.29074e-07
2232.21	4.85575e-07
2240.89	6.06402e-07
2249.57	8.58926e-07
2258.25	1.21366e-06
2266.93	9.81514e-07
2275.61	1.16021e-06
2284.28	8.01284e-07
2292.96	5.40848e-07
2301.64	6.36855e-07
2310.32	3.98731e-07
2319	8.09253e-07
2327.67	6.23441e-07
2336.35	9.94982e-07
2345.03	6.98407e-07
2353.71	7.5765e-07
2362.39	9.71326e-07
2371.06	6.44264e-07
2379.74	1.48932e-07
2388.42	1.9423e-07
2397.1	1.28914e-07
2405.78	3.33335e-07
2414.46	3.13427e-07
2423.13	4.13848e-07
2431.81	3.80998e-07
2440.49	4.70079e-07
2449.17	3.80885e-07
2457.85	5.8204e-07
2466.52	6.07194e-07
2475.2	1.0859e-06
2483.88	1.61971e-06
2492.56	1.18791e-06
2501.24	1.63567e-06
2509.92	1.04551e-06
2518.59	3.73005e-07
2527.27	3.47042e-07
2535.95	2.15824e-07
2544.63	2.70732e-07
2553.31	2.16552e-07
2561.98	4.1735e-07
2570.66	4.77474e-07
2579.34	4.95613e-07
2588.02	4.34196e-07
2596.7	4.54795e-07
2605.38	8.67317e-08
2614.05	1.53472e-07
2622.73	9.0667e-08
2631.41	2.10541e-07
2640.09	1.33564e-07
2648.77	2.1822e-07
2657.44	8.37486e-08
2666.12	1.47848e-07
2674.8	2.93889e-08
2683.48	1.65126e-07
2692.16	7.2571e-08
2700.83	3.05432e-07
2709.51	1.54233e-07
2718.19	4.7754e-07
2726.87	2.90333e-07
2735.55	3.32486e-07
2744.23	1.84317e-07
2752.9	2.69525e-07
2761.58	6.02849e-08
2770.26	2.6485e-07
2778.94	1.25587e-07
2787.62	4.39676e-07
2796.29	3.00443e-07
2804.97	5.63351e-07
2813.65	2.66932e-07
2822.33	4.7017e-07
2831.01	3.92537e-07
2839.69	1.02e-06
2848.36	1.60409e-06
2857.04	2.08474e-06
2865.72	2.39097e-06
2874.4	2.70347e-06
2883.08	3.21793e-06
2891.75	4.78449e-06
2900.43	5.22092e-06
2909.11	6.39573e-06
2917.79	8.00502e-06
2926.47	8.33931e-06
2935.14	1.10842e-05
2943.82	1.23285e-05
2952.5	1.6823e-05
2961.18	1.94701e-05
2969.86	3.51702e-05
2978.54	4.25196e-05
2987.21	4.15726e-05
2995.89	5.43238e-05
3004.57	5.72648e-05
3013.25	4.24518e-05
3021.93	5.49804e-05
3030.6	4.23812e-05
3039.28	5.14872e-05
3047.96	5.42528e-05
3056.64	4.57581e-05
3065.32	6.93015e-05
3074	6.13763e-05
3082.67	7.04345e-05
3091.35	9.6049e-05
3100.03	6.18932e-05
3108.71	9.73872e-05
3117.39	4.8771e-05
3126.06	3.27945e-05
3134.74	2.23696e-05
3143.42	1.23051e-05
3152.1	6.83992e-06
3160.78	3.00646e-06
3169.46	1.54008e-06
3178.13	5.12659e-07
3186.81	4.81455e-07
3195.49	1.78743e-07
3204.17	1.5386e-07
3212.85	4.54422e-08
3221.52	6.49022e-07
3230.2	4.86118e-07
3238.88	1.05253e-06
3247.56	5.73991e-07
3256.24	4.26005e-07
3264.91	2.17115e-07
3273.59	3.0177e-07
3282.27	-6.80837e-09
3290.95	1.85405e-07
3299.63	1.31192e-07
3308.31	2.96608e-07
3316.98	1.55979e-07
3325.66	2.91304e-07
3334.34	7.72421e-09
3343.02	2.24205e-07
3351.7	-8.84951e-08
3360.37	1.82966e-07
3369.05	-3.7677e-08
3377.73	3.56706e-07
3386.41	4.08888e-07
3395.09	6.95989e-07
3403.77	5.19892e-07
3412.44	6.74924e-07
3421.12	1.8592e-07
3429.8	2.5443e-07
3438.48	1.23438e-07
3447.16	5.47406e-07
3455.83	1.46227e-07
3464.51	4.8443e-07
3473.19	4.62643e-08
3481.87	3.48674e-07
3490.55	1.07661e-07
3499.22	3.39424e-07
3507.9	4.453e-08
3516.58	3.84327e-07
3525.26	1.99033e-07
3533.94	4.59657e-07
3542.62	1.29219e-07
3551.29	4.11033e-07
3559.97	2.09651e-07
3568.65	6.9885e-07
3577.33	2.10817e-07
3586.01	7.7142e-07
3594.68	4.37845e-07
3603.36	6.77424e-07
3612.04	6.83461e-07
3620.72	7.32758e-07
3629.4	1.54725e-06
3638.08	3.09559e-07
3646.75	7.11358e-07
3655.43	4.54454e-07
3664.11	-8.20678e-08
3672.79	2.06977e-07
3681.47	-2.41559e-07
3690.14	1.97239e-08
3698.82	-4.00653e-08
3707.5	2.05756e-07
3716.18	-7.92421e-08
3724.86	3.73468e-07
3733.54	-4.73505e-07
3742.21	4.50562e-07
3750.89	-6.66645e-07
3759.57	7.26796e-07
3768.25	-8.18359e-08
3776.93	1.8102e-07
3785.6	5.02315e-08
3794.28	1.76297e-07
3802.96	-1.22469e-07
3811.64	5.0245e-07
3820.32	6.79931e-07
3828.99	3.58344e-07
3837.67	2.40675e-06
3846.35	4.38435e-07
3855.03	1.09296e-06
3863.71	4.59e-07
3872.39	3.39569e-07
3881.06	8.57458e-07
3889.74	2.35444e-07
3898.42	5.35734e-07
3907.1	2.44348e-07
3915.78	4.61776e-07
3924.45	4.26472e-07
3933.13	6.61889e-07
3941.81	2.6882e-07
3950.49	6.07739e-07
3959.17	4.30458e-07
3967.85	1.14869e-06
