Infrared Spectrum: Butane
Formula: C4 H10
CAS: 106-97-8
State: gas
Melting point: -138.35 C
Boiling point: -0.5 C
Class: IUPAC A
Instrument: IFS66V (Bruker)
Instrument parameters: KBr Beam Splitter; MCT Detector; Multipass cell
Sampling: 1 L/min Flow
Resolution: 0.1250
Temperature: 23 C
Pressure: 101.3 Pa
Origin: NIST, Analytical Chemistry Division, 301-975-3108
cm-1	(micromol/mol)-1m-1 (base 10)
575.05	-9.10346e-07
583.608	4.25808e-07
592.165	1.50139e-07
600.723	-3.48899e-08
609.281	-4.61457e-08
617.838	-1.60329e-07
626.396	5.83893e-08
634.954	-2.72229e-08
643.511	6.05638e-08
652.069	-1.83461e-07
660.626	-2.20379e-08
669.184	-4.05787e-08
677.742	3.08992e-07
686.299	5.89289e-07
694.857	7.86914e-07
703.415	2.1014e-06
711.972	3.44034e-06
720.53	5.13855e-06
729.088	6.85219e-06
737.645	8.48405e-06
746.203	9.27278e-06
754.761	8.11434e-06
763.318	6.65815e-06
771.876	4.00564e-06
780.434	3.01826e-06
788.991	1.71684e-06
797.549	1.92498e-06
806.106	1.16947e-06
814.664	5.6185e-07
823.222	1.28868e-07
831.779	4.85586e-08
840.337	-2.3182e-07
848.895	-4.08979e-08
857.452	-4.54499e-08
866.01	-8.46735e-10
874.568	2.94702e-08
883.125	8.05253e-08
891.683	-2.35667e-08
900.241	-1.73642e-07
908.798	1.14621e-07
917.356	3.32681e-07
925.914	1.07987e-06
934.471	2.84189e-06
943.029	6.94633e-06
951.586	1.20576e-05
960.144	1.56849e-05
968.702	1.88805e-05
977.259	1.5014e-05
985.817	1.005e-05
994.375	6.15185e-06
1002.93	2.905e-06
1011.49	1.66317e-06
1020.05	8.11285e-07
1028.61	4.84254e-07
1037.16	4.15967e-07
1045.72	1.10624e-07
1054.28	1.09061e-07
1062.84	7.77123e-08
1071.39	2.43828e-07
1079.95	1.5519e-07
1088.51	2.29299e-07
1097.07	1.78771e-07
1105.62	3.77816e-07
1114.18	8.7069e-07
1122.74	2.38293e-06
1131.3	2.77027e-06
1139.85	2.08327e-06
1148.41	2.01126e-06
1156.97	5.84036e-07
1165.53	1.10775e-07
1174.09	2.65602e-07
1182.64	2.12895e-07
1191.2	2.22652e-07
1199.76	9.21677e-08
1208.32	3.22664e-07
1216.87	3.59681e-07
1225.43	4.00224e-07
1233.99	7.38985e-07
1242.55	9.80809e-07
1251.1	1.46465e-06
1259.66	1.62762e-06
1268.22	2.27283e-06
1276.78	4.09291e-06
1285.33	8.19694e-06
1293.89	9.25427e-06
1302.45	8.69273e-06
1311.01	3.58972e-06
1319.57	1.65843e-06
1328.12	3.31889e-06
1336.68	4.19379e-06
1345.24	3.42231e-06
1353.8	6.65701e-06
1362.35	7.89524e-06
1370.91	1.96434e-05
1379.47	2.63392e-05
1388.03	2.67959e-05
1396.58	3.40552e-05
1405.14	1.2697e-05
1413.7	8.02149e-06
1422.26	8.82764e-06
1430.81	1.47347e-05
1439.37	2.85831e-05
1447.93	4.66701e-05
1456.49	5.96928e-05
1465.05	8.54979e-05
1473.6	6.07894e-05
1482.16	5.83566e-05
1490.72	3.8185e-05
1499.28	2.26379e-05
1507.83	1.20497e-05
1516.39	6.23475e-06
1524.95	2.90371e-06
1533.51	1.49e-06
1542.06	1.26647e-06
1550.62	8.78809e-07
1559.18	1.1637e-06
1567.74	1.44588e-06
1576.29	2.00318e-06
1584.85	1.45495e-06
1593.41	1.31176e-06
1601.97	9.67914e-07
1610.53	8.37409e-07
1619.08	9.02935e-07
1627.64	1.01143e-06
1636.2	1.16541e-06
1644.76	1.08046e-06
1653.31	2.03715e-06
1661.87	1.32899e-06
1670.43	1.54937e-06
1678.99	1.27342e-06
1687.54	1.26185e-06
1696.1	1.41082e-06
1704.66	1.10463e-06
1713.22	1.04703e-06
1721.77	9.91693e-07
1730.33	8.1848e-07
1738.89	4.51751e-07
1747.45	3.48549e-07
1756.01	2.91432e-07
1764.56	2.09145e-07
1773.12	2.73425e-07
1781.68	2.97208e-07
1790.24	3.50402e-07
1798.79	3.35107e-07
1807.35	3.29661e-07
1815.91	3.79743e-07
1824.47	2.88471e-07
1833.02	1.37086e-07
1841.58	4.17701e-08
1850.14	3.95737e-08
1858.7	-3.34119e-08
1867.25	1.86764e-08
1875.81	6.22828e-08
1884.37	1.65903e-07
1892.93	3.59936e-07
1901.49	5.02647e-07
1910.04	4.08662e-07
1918.6	5.1942e-07
1927.16	3.19803e-07
1935.72	3.36143e-07
1944.27	2.06619e-07
1952.83	1.07389e-07
1961.39	4.31426e-08
1969.95	-5.95752e-08
1978.5	1.52976e-09
1987.06	-9.25352e-08
1995.62	-3.14738e-08
2004.18	5.27459e-08
2012.73	1.04357e-07
2021.29	3.37451e-07
2029.85	6.42522e-07
2038.41	6.14446e-07
2046.97	6.69598e-07
2055.52	3.50374e-07
2064.08	2.06583e-07
2072.64	1.6773e-07
2081.2	1.61034e-07
2089.75	2.4664e-07
2098.31	3.43281e-07
2106.87	4.31099e-07
2115.43	5.79349e-07
2123.98	5.53363e-07
2132.54	5.58722e-07
2141.1	6.34091e-07
2149.66	5.93681e-07
2158.21	8.21522e-07
2166.77	6.71504e-07
2175.33	7.02425e-07
2183.89	5.99226e-07
2192.45	6.29569e-07
2201	7.19634e-07
2209.56	8.43319e-07
2218.12	6.12329e-07
2226.68	5.88491e-07
2235.23	4.82662e-07
2243.79	4.10141e-07
2252.35	4.5262e-07
2260.91	6.03214e-07
2269.46	6.04154e-07
2278.02	7.04203e-07
2286.58	8.06639e-07
2295.14	8.40167e-07
2303.69	9.98781e-07
2312.25	9.2987e-07
2320.81	7.87776e-07
2329.37	9.4481e-07
2337.93	9.74646e-07
2346.48	1.16941e-06
2355.04	1.06717e-06
2363.6	9.90441e-07
2372.16	1.26092e-06
2380.71	1.57524e-06
2389.27	1.52708e-06
2397.83	1.75414e-06
2406.39	1.09048e-06
2414.94	1.47101e-06
2423.5	1.60552e-06
2432.06	2.00068e-06
2440.62	1.8211e-06
2449.17	1.63076e-06
2457.73	1.03565e-06
2466.29	6.44504e-07
2474.85	3.77387e-07
2483.41	2.90712e-07
2491.96	1.96922e-07
2500.52	2.54685e-07
2509.08	3.54604e-07
2517.64	4.78881e-07
2526.19	8.04748e-07
2534.75	7.36258e-07
2543.31	7.34439e-07
2551.87	5.90883e-07
2560.42	6.68768e-07
2568.98	9.45054e-07
2577.54	1.48791e-06
2586.1	2.1076e-06
2594.65	3.07164e-06
2603.21	3.5574e-06
2611.77	3.92568e-06
2620.33	4.14865e-06
2628.89	4.34224e-06
2637.44	4.58466e-06
2646	4.17836e-06
2654.56	4.81352e-06
2663.12	4.33323e-06
2671.67	3.90217e-06
2680.23	4.41733e-06
2688.79	3.42888e-06
2697.35	3.01308e-06
2705.9	3.38076e-06
2714.46	4.48055e-06
2723.02	6.10904e-06
2731.58	8.97352e-06
2740.13	9.58817e-06
2748.69	1.05377e-05
2757.25	9.20986e-06
2765.81	6.35242e-06
2774.37	5.74156e-06
2782.92	6.42759e-06
2791.48	6.99324e-06
2800.04	8.59403e-06
2808.6	1.11907e-05
2817.15	1.54034e-05
2825.71	2.29855e-05
2834.27	3.23187e-05
2842.83	5.04605e-05
2851.38	7.95148e-05
2859.94	0.000129274
2868.5	0.000175746
2877.06	0.000286011
2885.61	0.000244104
2894.17	0.000283125
2902.73	0.000236083
2911.29	0.00023933
2919.85	0.000290051
2928.4	0.000372437
2936.96	0.000433901
2945.52	0.000475649
2954.08	0.000551545
2962.63	0.000659011
2971.19	0.000576154
2979.75	0.000571558
2988.31	0.000363047
2996.86	0.000157798
3005.42	6.68203e-05
3013.98	2.66553e-05
3022.54	1.23307e-05
3031.09	7.98756e-06
3039.65	6.80896e-06
3048.21	6.20584e-06
3056.77	6.23766e-06
3065.33	6.85639e-06
3073.88	7.67582e-06
3082.44	7.58345e-06
3091	7.29993e-06
3099.56	5.98537e-06
3108.11	4.65659e-06
3116.67	4.13253e-06
3125.23	3.86933e-06
3133.79	4.19576e-06
3142.34	4.77461e-06
3150.9	5.32732e-06
3159.46	6.47478e-06
3168.02	6.96631e-06
3176.57	7.12083e-06
3185.13	6.96737e-06
3193.69	5.79905e-06
3202.25	4.84179e-06
3210.81	4.04385e-06
3219.36	3.86241e-06
3227.92	3.75223e-06
3236.48	3.03789e-06
3245.04	2.1709e-06
3253.59	1.18995e-06
3262.15	7.72282e-07
3270.71	6.66301e-07
3279.27	6.43975e-07
3287.82	6.65866e-07
3296.38	6.10296e-07
3304.94	6.60123e-07
3313.5	3.39293e-07
3322.05	4.87002e-07
3330.61	4.4226e-07
3339.17	5.72873e-07
3347.73	6.64587e-07
3356.29	8.03639e-07
3364.84	6.44616e-07
3373.4	7.71888e-07
3381.96	9.26452e-07
3390.52	1.13764e-06
3399.07	1.04232e-06
3407.63	9.52048e-07
3416.19	6.13111e-07
3424.75	3.16873e-07
3433.3	1.2337e-07
3441.86	1.71402e-07
3450.42	1.7806e-08
3458.98	1.52353e-07
3467.53	8.91882e-08
3476.09	-8.42361e-08
3484.65	3.65497e-08
3493.21	7.93385e-08
3501.77	-3.79439e-09
3510.32	1.89001e-08
3518.88	6.26575e-08
3527.44	1.25284e-07
3536	1.4572e-07
3544.55	8.48163e-08
3553.11	1.19046e-07
3561.67	6.32878e-08
3570.23	1.3062e-07
3578.78	1.72695e-07
3587.34	1.0883e-07
3595.9	2.79797e-07
3604.46	5.23317e-07
3613.01	5.28526e-07
3621.57	6.84449e-07
3630.13	8.26096e-07
3638.69	7.66683e-07
3647.25	8.70095e-07
3655.8	7.55604e-07
3664.36	7.47222e-07
3672.92	9.3308e-07
3681.48	9.179e-07
3690.03	9.05305e-07
3698.59	1.04529e-06
3707.15	9.83189e-07
3715.71	1.09618e-06
3724.26	1.20753e-06
3732.82	1.24996e-06
3741.38	1.06114e-06
3749.94	6.08272e-07
3758.49	5.83062e-07
3767.05	4.87883e-07
3775.61	5.17981e-07
3784.17	6.33281e-07
3792.73	4.52228e-07
3801.28	8.73038e-07
3809.84	4.79246e-07
3818.4	5.9158e-07
3826.96	8.405e-07
3835.51	1.33893e-06
3844.07	1.41526e-06
3852.63	1.86246e-06
3861.19	1.74624e-06
3869.74	1.55326e-06
3878.3	1.31049e-06
3886.86	1.00043e-06
3895.42	9.34137e-07
3903.97	9.49821e-07
3912.53	7.35133e-07
3921.09	6.21347e-07
3929.65	6.21033e-07
3938.21	5.01352e-07
3946.76	4.685e-07
3955.32	5.3291e-07
3963.88	5.54326e-07
3972.44	4.42584e-07
