Infrared Spectrum: Butane
Formula: C4 H10
CAS: 106-97-8
State: gas
Melting point: -138.35 C
Boiling point: -0.5 C
Class: IUPAC A
Instrument: IFS66V (Bruker)
Instrument parameters: KBr Beam Splitter; MCT Detector; Multipass cell
Sampling: 1 L/min Flow
Resolution: 0.2410
Temperature: 23 C
Pressure: 101.3 Pa
Origin: NIST, Analytical Chemistry Division, 301-975-3108
cm-1	(micromol/mol)-1m-1 (base 10)
575.05	-9.85974e-07
583.608	3.77186e-07
592.165	1.48903e-07
600.723	-1.25748e-07
609.281	-7.43908e-08
617.838	-1.99116e-07
626.396	-1.47421e-07
634.954	-5.75662e-08
643.511	3.21841e-08
652.069	-4.32517e-08
660.626	-8.53293e-08
669.184	-1.08638e-07
677.742	2.61225e-07
686.299	5.55613e-07
694.857	9.83936e-07
703.415	2.07738e-06
711.972	3.45052e-06
720.53	5.05925e-06
729.088	6.85224e-06
737.645	8.47216e-06
746.203	9.29905e-06
754.761	8.12144e-06
763.318	6.6448e-06
771.876	3.97693e-06
780.434	3.02469e-06
788.991	1.78947e-06
797.549	1.89171e-06
806.106	1.1261e-06
814.664	5.52284e-07
823.222	1.66599e-07
831.779	1.55432e-09
840.337	-1.54475e-07
848.895	-6.87847e-08
857.452	3.7803e-08
866.01	-3.14811e-08
874.568	1.15987e-08
883.125	4.65122e-08
891.683	-6.04565e-08
900.241	-1.23442e-07
908.798	1.45973e-07
917.356	3.64153e-07
925.914	1.10052e-06
934.471	2.84277e-06
943.029	6.958e-06
951.586	1.20629e-05
960.144	1.57159e-05
968.702	1.89014e-05
977.259	1.49791e-05
985.817	9.96423e-06
994.375	6.13882e-06
1002.93	2.95424e-06
1011.49	1.62408e-06
1020.05	8.4533e-07
1028.61	4.45851e-07
1037.16	3.85004e-07
1045.72	1.00187e-07
1054.28	1.02426e-07
1062.84	1.18058e-07
1071.39	2.05582e-07
1079.95	1.54102e-07
1088.51	2.73766e-07
1097.07	2.23445e-07
1105.62	3.63197e-07
1114.18	8.85242e-07
1122.74	2.41009e-06
1131.3	2.78589e-06
1139.85	2.0696e-06
1148.41	2.00663e-06
1156.97	5.6258e-07
1165.53	1.24612e-07
1174.09	2.15964e-07
1182.64	2.04414e-07
1191.2	1.95893e-07
1199.76	1.04991e-07
1208.32	3.15878e-07
1216.87	3.31547e-07
1225.43	4.283e-07
1233.99	7.10113e-07
1242.55	9.69184e-07
1251.1	1.45723e-06
1259.66	1.63142e-06
1268.22	2.23828e-06
1276.78	4.08791e-06
1285.33	8.2081e-06
1293.89	9.28387e-06
1302.45	8.68023e-06
1311.01	3.60838e-06
1319.57	1.68876e-06
1328.12	3.3159e-06
1336.68	4.20076e-06
1345.24	3.42875e-06
1353.8	6.63837e-06
1362.35	7.9077e-06
1370.91	1.96519e-05
1379.47	2.62788e-05
1388.03	2.67942e-05
1396.58	3.40166e-05
1405.14	1.26752e-05
1413.7	8.00177e-06
1422.26	8.85593e-06
1430.81	1.47263e-05
1439.37	2.84979e-05
1447.93	4.6557e-05
1456.49	5.97716e-05
1465.05	8.53824e-05
1473.6	6.06287e-05
1482.16	5.83769e-05
1490.72	3.83427e-05
1499.28	2.26027e-05
1507.83	1.20578e-05
1516.39	6.21508e-06
1524.95	2.90311e-06
1533.51	1.46381e-06
1542.06	1.25765e-06
1550.62	8.82927e-07
1559.18	1.1499e-06
1567.74	1.40457e-06
1576.29	2.02276e-06
1584.85	1.46239e-06
1593.41	1.29301e-06
1601.97	9.92228e-07
1610.53	8.69027e-07
1619.08	9.10905e-07
1627.64	1.00658e-06
1636.2	1.13618e-06
1644.76	1.06286e-06
1653.31	1.93873e-06
1661.87	1.32456e-06
1670.43	1.53022e-06
1678.99	1.26694e-06
1687.54	1.26157e-06
1696.1	1.46897e-06
1704.66	1.13606e-06
1713.22	1.07386e-06
1721.77	1.00212e-06
1730.33	8.04188e-07
1738.89	4.87044e-07
1747.45	3.60267e-07
1756.01	2.82553e-07
1764.56	2.19687e-07
1773.12	2.71794e-07
1781.68	3.03596e-07
1790.24	3.36149e-07
1798.79	3.56151e-07
1807.35	3.58283e-07
1815.91	3.90447e-07
1824.47	2.71651e-07
1833.02	1.45684e-07
1841.58	5.80282e-08
1850.14	2.28828e-08
1858.7	-3.51882e-09
1867.25	1.89438e-08
1875.81	9.07562e-08
1884.37	1.50081e-07
1892.93	3.42293e-07
1901.49	4.80757e-07
1910.04	4.45241e-07
1918.6	4.84046e-07
1927.16	3.57614e-07
1935.72	3.37463e-07
1944.27	2.15352e-07
1952.83	1.25211e-07
1961.39	2.44244e-08
1969.95	-5.61947e-08
1978.5	-4.23177e-08
1987.06	-9.09626e-08
1995.62	-2.14349e-08
2004.18	2.56513e-08
2012.73	8.40851e-08
2021.29	3.10738e-07
2029.85	6.36309e-07
2038.41	6.45485e-07
2046.97	6.94987e-07
2055.52	3.57886e-07
2064.08	2.0513e-07
2072.64	1.53507e-07
2081.2	1.78769e-07
2089.75	2.55785e-07
2098.31	3.11037e-07
2106.87	4.07859e-07
2115.43	6.08421e-07
2123.98	5.79981e-07
2132.54	5.68841e-07
2141.1	6.51867e-07
2149.66	6.01343e-07
2158.21	8.12596e-07
2166.77	6.87228e-07
2175.33	6.80282e-07
2183.89	6.1949e-07
2192.45	6.42834e-07
2201	7.12448e-07
2209.56	7.9894e-07
2218.12	6.28138e-07
2226.68	6.31724e-07
2235.23	4.93442e-07
2243.79	4.05311e-07
2252.35	4.62783e-07
2260.91	5.83542e-07
2269.46	5.72745e-07
2278.02	6.70072e-07
2286.58	7.80298e-07
2295.14	8.24763e-07
2303.69	9.76986e-07
2312.25	9.36996e-07
2320.81	7.91606e-07
2329.37	9.66638e-07
2337.93	9.12199e-07
2346.48	1.15847e-06
2355.04	1.07668e-06
2363.6	9.87214e-07
2372.16	1.26166e-06
2380.71	1.59778e-06
2389.27	1.53549e-06
2397.83	1.72764e-06
2406.39	1.10289e-06
2414.94	1.48738e-06
2423.5	1.62282e-06
2432.06	1.9529e-06
2440.62	1.81922e-06
2449.17	1.60383e-06
2457.73	1.00053e-06
2466.29	6.42993e-07
2474.85	3.63984e-07
2483.41	2.7417e-07
2491.96	2.06338e-07
2500.52	2.41564e-07
2509.08	3.52126e-07
2517.64	5.05859e-07
2526.19	7.75969e-07
2534.75	7.36704e-07
2543.31	7.21986e-07
2551.87	5.69059e-07
2560.42	6.73625e-07
2568.98	9.48607e-07
2577.54	1.49975e-06
2586.1	2.11072e-06
2594.65	3.08965e-06
2603.21	3.56394e-06
2611.77	3.93941e-06
2620.33	4.12753e-06
2628.89	4.33872e-06
2637.44	4.58756e-06
2646	4.22946e-06
2654.56	4.81066e-06
2663.12	4.32586e-06
2671.67	3.89172e-06
2680.23	4.40499e-06
2688.79	3.41851e-06
2697.35	3.02104e-06
2705.9	3.4141e-06
2714.46	4.48784e-06
2723.02	6.11222e-06
2731.58	9.00936e-06
2740.13	9.59946e-06
2748.69	1.05851e-05
2757.25	9.18079e-06
2765.81	6.3485e-06
2774.37	5.77823e-06
2782.92	6.41419e-06
2791.48	6.95329e-06
2800.04	8.55477e-06
2808.6	1.1173e-05
2817.15	1.54066e-05
2825.71	2.29934e-05
2834.27	3.23685e-05
2842.83	5.04151e-05
2851.38	7.95132e-05
2859.94	0.000129326
2868.5	0.000175745
2877.06	0.000285866
2885.61	0.000244382
2894.17	0.000283034
2902.73	0.000236165
2911.29	0.00023923
2919.85	0.000290013
2928.4	0.000372362
2936.96	0.00043396
2945.52	0.000475646
2954.08	0.000551673
2962.63	0.000659005
2971.19	0.000576785
2979.75	0.000571837
2988.31	0.000363044
2996.86	0.000157771
3005.42	6.68417e-05
3013.98	2.66417e-05
3022.54	1.2358e-05
3031.09	8.00397e-06
3039.65	6.76654e-06
3048.21	6.27937e-06
3056.77	6.25868e-06
3065.33	6.83698e-06
3073.88	7.65738e-06
3082.44	7.61503e-06
3091	7.29844e-06
3099.56	5.92113e-06
3108.11	4.62531e-06
3116.67	4.09521e-06
3125.23	3.8749e-06
3133.79	4.17875e-06
3142.34	4.7997e-06
3150.9	5.32789e-06
3159.46	6.40152e-06
3168.02	6.95359e-06
3176.57	7.15322e-06
3185.13	6.99295e-06
3193.69	5.80495e-06
3202.25	4.80027e-06
3210.81	4.10601e-06
3219.36	3.92097e-06
3227.92	3.72221e-06
3236.48	3.02005e-06
3245.04	2.19165e-06
3253.59	1.20674e-06
3262.15	7.2254e-07
3270.71	6.42702e-07
3279.27	6.5345e-07
3287.82	6.80664e-07
3296.38	6.29556e-07
3304.94	5.76063e-07
3313.5	3.60578e-07
3322.05	4.16945e-07
3330.61	4.09562e-07
3339.17	5.46444e-07
3347.73	6.87712e-07
3356.29	7.88338e-07
3364.84	6.68e-07
3373.4	7.35062e-07
3381.96	9.77784e-07
3390.52	1.14633e-06
3399.07	1.07528e-06
3407.63	9.26859e-07
3416.19	6.70488e-07
3424.75	2.72547e-07
3433.3	1.30231e-07
3441.86	1.09213e-07
3450.42	5.47731e-08
3458.98	1.35751e-07
3467.53	7.87546e-08
3476.09	-2.33812e-08
3484.65	4.37892e-08
3493.21	9.44869e-08
3501.77	5.07823e-08
3510.32	6.34005e-09
3518.88	5.8643e-08
3527.44	6.48103e-08
3536	9.92381e-08
3544.55	7.18206e-08
3553.11	3.94855e-08
3561.67	9.53082e-08
3570.23	6.95123e-08
3578.78	1.24438e-07
3587.34	1.50153e-07
3595.9	2.73228e-07
3604.46	4.65306e-07
3613.01	5.45637e-07
3621.57	6.90412e-07
3630.13	7.90423e-07
3638.69	7.95885e-07
3647.25	8.83468e-07
3655.8	7.75279e-07
3664.36	7.47795e-07
3672.92	8.99577e-07
3681.48	9.51894e-07
3690.03	9.444e-07
3698.59	9.96467e-07
3707.15	1.01028e-06
3715.71	1.14881e-06
3724.26	1.21066e-06
3732.82	1.22343e-06
3741.38	1.09531e-06
3749.94	6.60054e-07
3758.49	5.78734e-07
3767.05	4.71825e-07
3775.61	5.07151e-07
3784.17	5.83438e-07
3792.73	4.34828e-07
3801.28	8.84246e-07
3809.84	5.17111e-07
3818.4	5.86365e-07
3826.96	8.36089e-07
3835.51	1.25202e-06
3844.07	1.45014e-06
3852.63	1.87955e-06
3861.19	1.7467e-06
3869.74	1.5222e-06
3878.3	1.29198e-06
3886.86	1.06848e-06
3895.42	9.59888e-07
3903.97	9.65837e-07
3912.53	7.20895e-07
3921.09	6.85203e-07
3929.65	6.52723e-07
3938.21	5.23506e-07
3946.76	4.89578e-07
3955.32	5.38067e-07
3963.88	5.46059e-07
3972.44	4.62857e-07
