Infrared Spectrum: 1,4-Dimethylbenzene
Formula: 1,4-( C H3)2 C6 H4
CAS: 106-42-3
State: gas
Melting point: 13.26 C
Boiling point: 138.35 C
Class: IUPAC A
Instrument: IFS66V (Bruker)
Instrument parameters: KBr Beam Splitter; MCT Detector; Multipass cell
Sampling: 1 L/min Flow
Resolution: 0.2410
Temperature: 23 C
Pressure: 101.3 Pa
Origin: NIST, Analytical Chemistry Division, 301-975-3108
cm-1	(micromol/mol)-1m-1 (base 10)
575.05	4.02766e-07
583.608	-5.78407e-07
592.165	9.30999e-07
600.723	-1.71596e-07
609.281	-9.36374e-07
617.838	3.83015e-07
626.396	-7.4324e-07
634.954	-3.81361e-07
643.511	-2.34639e-07
652.069	-1.00382e-06
660.626	2.83255e-07
669.184	-1.09454e-06
677.742	-2.9723e-07
686.299	1.60289e-08
694.857	1.92166e-07
703.415	1.75939e-07
711.972	-4.08468e-07
720.53	2.38035e-07
729.088	1.91422e-07
737.645	2.16421e-07
746.203	3.15811e-08
754.761	8.82954e-07
763.318	3.79449e-06
771.876	2.35275e-05
780.434	9.98565e-05
788.991	0.000171448
797.549	0.000187323
806.106	0.000150139
814.664	4.46627e-05
823.222	8.09356e-06
831.779	4.4562e-06
840.337	3.12719e-06
848.895	1.15521e-06
857.452	6.64182e-07
866.01	8.54742e-07
874.568	1.28662e-06
883.125	8.87808e-07
891.683	1.34915e-06
900.241	1.29177e-06
908.798	1.66501e-06
917.356	2.59821e-06
925.914	2.83595e-06
934.471	2.48889e-06
943.029	2.67037e-06
951.586	3.42094e-06
960.144	4.18115e-06
968.702	4.47139e-06
977.259	4.68941e-06
985.817	4.7296e-06
994.375	4.7907e-06
1002.93	4.86539e-06
1011.49	7.04035e-06
1020.05	2.17378e-05
1028.61	2.69059e-05
1037.16	1.73538e-05
1045.72	2.48179e-05
1054.28	2.34318e-05
1062.84	1.73154e-05
1071.39	1.12777e-05
1079.95	8.78758e-06
1088.51	1.19484e-05
1097.07	1.91506e-05
1105.62	2.57757e-05
1114.18	4.07932e-05
1122.74	3.20646e-05
1131.3	1.98316e-05
1139.85	7.3466e-06
1148.41	4.00622e-06
1156.97	3.22631e-06
1165.53	3.36072e-06
1174.09	3.39822e-06
1182.64	3.35049e-06
1191.2	2.96338e-06
1199.76	2.52311e-06
1208.32	5.32684e-06
1216.87	1.34607e-05
1225.43	1.74725e-05
1233.99	1.38659e-05
1242.55	1.25387e-05
1251.1	5.28125e-06
1259.66	3.33772e-06
1268.22	2.95598e-06
1276.78	2.4021e-06
1285.33	2.40642e-06
1293.89	2.42162e-06
1302.45	3.24193e-06
1311.01	4.96238e-06
1319.57	5.37633e-06
1328.12	6.21536e-06
1336.68	6.7422e-06
1345.24	8.77536e-06
1353.8	8.45217e-06
1362.35	7.65224e-06
1370.91	9.98557e-06
1379.47	1.96628e-05
1388.03	2.58607e-05
1396.58	1.70512e-05
1405.14	1.72726e-05
1413.7	2.26016e-05
1422.26	3.12777e-05
1430.81	3.59775e-05
1439.37	3.62275e-05
1447.93	2.83506e-05
1456.49	3.24506e-05
1465.05	3.98195e-05
1473.6	4.16773e-05
1482.16	3.83347e-05
1490.72	4.02472e-05
1499.28	5.31517e-05
1507.83	8.63369e-05
1516.39	0.00022943
1524.95	0.000240108
1533.51	5.69458e-05
1542.06	1.94349e-05
1550.62	1.50475e-05
1559.18	1.16966e-05
1567.74	9.23348e-06
1576.29	5.41441e-06
1584.85	5.29933e-06
1593.41	5.17282e-06
1601.97	5.80057e-06
1610.53	8.89442e-06
1619.08	1.58798e-05
1627.64	1.40693e-05
1636.2	1.15227e-05
1644.76	4.48795e-06
1653.31	3.30042e-07
1661.87	2.07338e-06
1670.43	1.47838e-06
1678.99	9.04921e-07
1687.54	1.03813e-06
1696.1	-3.35693e-08
1704.66	7.63813e-07
1713.22	1.35221e-06
1721.77	3.14408e-06
1730.33	2.89477e-06
1738.89	2.22249e-06
1747.45	3.222e-06
1756.01	3.49576e-06
1764.56	2.85362e-06
1773.12	3.63308e-06
1781.68	1.00766e-05
1790.24	1.21478e-05
1798.79	5.96976e-06
1807.35	1.44637e-06
1815.91	9.81133e-07
1824.47	1.28897e-06
1833.02	3.29548e-06
1841.58	4.14813e-06
1850.14	2.75171e-06
1858.7	1.96054e-06
1867.25	4.3967e-06
1875.81	1.08843e-05
1884.37	2.11913e-05
1892.93	2.16485e-05
1901.49	9.78682e-06
1910.04	3.50144e-06
1918.6	2.24264e-06
1927.16	2.13628e-06
1935.72	1.35143e-06
1944.27	7.87687e-07
1952.83	1.04407e-06
1961.39	7.4912e-07
1969.95	9.74328e-07
1978.5	1.23155e-06
1987.06	1.31156e-06
1995.62	1.2409e-06
2004.18	9.46584e-07
2012.73	6.4797e-07
2021.29	4.22488e-07
2029.85	2.68914e-07
2038.41	2.64097e-07
2046.97	1.70658e-07
2055.52	4.03013e-08
2064.08	-6.54924e-08
2072.64	9.51145e-08
2081.2	1.29884e-07
2089.75	5.30807e-07
2098.31	1.53563e-06
2106.87	1.68263e-06
2115.43	1.41844e-06
2123.98	2.8582e-07
2132.54	-1.50407e-07
2141.1	-2.95289e-07
2149.66	-2.15099e-07
2158.21	1.41688e-06
2166.77	1.69636e-07
2175.33	1.11972e-07
2183.89	-5.36326e-08
2192.45	4.99983e-08
2201	4.13007e-07
2209.56	1.22202e-06
2218.12	6.35988e-07
2226.68	-3.36821e-08
2235.23	2.12293e-08
2243.79	-1.9517e-07
2252.35	-5.04021e-08
2260.91	1.11449e-07
2269.46	4.46706e-07
2278.02	4.30571e-07
2286.58	7.29886e-07
2295.14	1.53583e-06
2303.69	2.23181e-06
2312.25	2.75168e-06
2320.81	1.44519e-06
2329.37	1.47456e-06
2337.93	2.52928e-06
2346.48	2.16013e-06
2355.04	1.01566e-06
2363.6	6.95432e-07
2372.16	3.30293e-07
2380.71	6.69064e-07
2389.27	5.99607e-07
2397.83	4.94344e-07
2406.39	1.01628e-06
2414.94	1.41155e-06
2423.5	1.50207e-06
2432.06	1.45788e-06
2440.62	1.23518e-06
2449.17	9.51301e-07
2457.73	8.26707e-07
2466.29	6.77972e-07
2474.85	9.59753e-07
2483.41	7.1401e-07
2491.96	7.70118e-07
2500.52	5.37082e-07
2509.08	3.43267e-07
2517.64	3.77498e-07
2526.19	2.88281e-07
2534.75	1.22353e-07
2543.31	3.28115e-07
2551.87	-4.73653e-08
2560.42	4.27469e-08
2568.98	4.02104e-08
2577.54	1.18845e-06
2586.1	2.79449e-06
2594.65	3.40163e-06
2603.21	1.69056e-06
2611.77	1.14284e-06
2620.33	3.74697e-07
2628.89	1.05336e-07
2637.44	3.58194e-07
2646	1.40035e-07
2654.56	4.71843e-08
2663.12	-2.26766e-07
2671.67	-1.1256e-07
2680.23	-3.01315e-07
2688.79	-3.03003e-07
2697.35	7.39779e-08
2705.9	1.07055e-06
2714.46	1.75081e-06
2723.02	2.19699e-06
2731.58	5.27222e-06
2740.13	1.45692e-05
2748.69	1.6875e-05
2757.25	3.30563e-06
2765.81	1.35618e-06
2774.37	1.03218e-06
2782.92	1.12067e-06
2791.48	2.03195e-06
2800.04	2.81016e-06
2808.6	3.5468e-06
2817.15	5.48418e-06
2825.71	7.99281e-06
2834.27	1.15831e-05
2842.83	1.53828e-05
2851.38	2.17511e-05
2859.94	4.30544e-05
2868.5	0.00010067
2877.06	0.000153415
2885.61	0.000151511
2894.17	0.000123427
2902.73	0.000105286
2911.29	9.67489e-05
2919.85	0.000133789
2928.4	0.00024592
2936.96	0.000305482
2945.52	0.000230261
2954.08	0.000118789
2962.63	9.53438e-05
2971.19	7.34636e-05
2979.75	8.77525e-05
2988.31	0.000115438
2996.86	0.000166658
3005.42	0.000209742
3013.98	0.000196538
3022.54	0.000238463
3031.09	0.000229478
3039.65	0.00016478
3048.21	0.000155537
3056.77	0.000147883
3065.33	0.000117854
3073.88	5.71087e-05
3082.44	2.96586e-05
3091	2.54352e-05
3099.56	2.74684e-05
3108.11	2.64179e-05
3116.67	1.68774e-05
3125.23	7.25955e-06
3133.79	6.50987e-06
3142.34	9.38437e-06
3150.9	7.70157e-06
3159.46	2.01242e-06
3168.02	5.3988e-07
3176.57	-1.61307e-08
3185.13	4.19475e-08
3193.69	-4.61218e-07
3202.25	-1.98644e-07
3210.81	-2.13978e-07
3219.36	-4.68033e-07
3227.92	-2.29822e-07
3236.48	-3.56403e-07
3245.04	1.94233e-07
3253.59	-9.00786e-08
3262.15	1.0504e-07
3270.71	-1.96282e-07
3279.27	3.68762e-07
3287.82	-1.38857e-07
3296.38	4.14573e-08
3304.94	-5.47795e-08
3313.5	5.37327e-09
3322.05	-3.88007e-08
3330.61	-3.39205e-07
3339.17	-1.55907e-07
3347.73	-1.99559e-07
3356.29	1.09466e-08
3364.84	-3.48124e-07
3373.4	1.55056e-07
3381.96	3.45834e-08
3390.52	7.55965e-07
3399.07	2.47095e-07
3407.63	1.03539e-07
3416.19	-1.30153e-07
3424.75	-4.28533e-08
3433.3	4.76194e-07
3441.86	3.02273e-07
3450.42	5.48844e-07
3458.98	7.7645e-08
3467.53	-4.45775e-07
3476.09	-2.58721e-07
3484.65	-1.2054e-07
3493.21	-7.02817e-08
3501.77	-2.86399e-07
3510.32	-2.34595e-07
3518.88	-5.66432e-07
3527.44	-4.23821e-07
3536	-2.44765e-07
3544.55	-3.08571e-07
3553.11	-6.00445e-07
3561.67	-5.88551e-07
3570.23	-3.60455e-07
3578.78	-4.29325e-07
3587.34	-2.53019e-07
3595.9	-1.935e-07
3604.46	-3.96746e-07
3613.01	4.17356e-08
3621.57	5.9146e-08
3630.13	-5.82292e-08
3638.69	4.88523e-08
3647.25	-1.51951e-07
3655.8	6.27778e-07
3664.36	9.28328e-07
3672.92	1.22925e-06
3681.48	1.09035e-06
3690.03	4.3656e-07
3698.59	2.92627e-07
3707.15	1.61891e-07
3715.71	1.55766e-07
3724.26	7.99533e-08
3732.82	1.08643e-07
3741.38	2.10762e-07
3749.94	4.73701e-07
3758.49	8.75609e-07
3767.05	8.46189e-07
3775.61	6.63638e-07
3784.17	5.04688e-07
3792.73	2.04582e-07
3801.28	-7.22472e-07
3809.84	8.13843e-07
3818.4	8.26846e-07
3826.96	7.39253e-07
3835.51	1.44261e-06
3844.07	1.63346e-06
3852.63	1.48605e-06
3861.19	1.60628e-06
3869.74	1.56352e-06
3878.3	1.82805e-06
3886.86	2.18289e-06
3895.42	2.02214e-06
3903.97	2.08277e-06
3912.53	1.83614e-06
3921.09	2.25726e-06
3929.65	2.05364e-06
3938.21	2.15388e-06
3946.76	2.14928e-06
3955.32	1.90698e-06
3963.88	2.27643e-06
3972.44	2.31673e-06
