Infrared Spectrum: 1,3-Butadiene
Formula: C H2: C H C H: C H2
CAS: 106-99-0
State: gas
Melting point: -108.91 C
Boiling point: -4.41 C
Class: IUPAC A
Instrument: IFS66V (Bruker)
Instrument parameters: KBr Beam splitter; MCT Detector; Multipass cell
Sampling: 1 L/min Flow
Resolution: 0.4820
Temperature: 23 C
Pressure: 101.3 kPa
Origin: NIST, Anayltical Chemistry Division, 301-975-3108
cm-1	(micromol/mol)-1m-1 (base 10)
574.928	5.48073e-06
583.606	3.17767e-06
592.284	2.07877e-06
600.962	1.73516e-06
609.641	9.28822e-07
618.319	5.01047e-07
626.997	7.51186e-07
635.675	1.17031e-06
644.353	1.79737e-06
653.031	2.36016e-06
661.71	2.6588e-06
670.388	3.22028e-06
679.066	2.70791e-06
687.744	2.33722e-06
696.422	1.61748e-06
705.1	1.21013e-06
713.778	6.89586e-07
722.457	6.59078e-07
731.135	8.53716e-07
739.813	1.04651e-06
748.491	9.60833e-07
757.169	1.07064e-06
765.847	9.0746e-07
774.526	6.56297e-07
783.204	5.80768e-07
791.882	5.60713e-07
800.56	5.40923e-07
809.238	7.74676e-07
817.916	1.09347e-06
826.594	2.0658e-06
835.273	4.42052e-06
843.951	8.15376e-06
852.629	1.60936e-05
861.307	3.31793e-05
869.985	5.02203e-05
878.663	7.39581e-05
887.342	9.73418e-05
896.02	0.000109503
904.698	0.000134561
913.376	0.000131563
922.054	0.00014437
930.732	0.000144373
939.41	0.000112667
948.089	6.16648e-05
956.767	3.54263e-05
965.445	2.58028e-05
974.123	2.86551e-05
982.801	5.13185e-05
991.479	6.63727e-05
1000.16	9.69453e-05
1008.84	9.17095e-05
1017.51	7.02344e-05
1026.19	7.00281e-05
1034.87	6.63711e-05
1043.55	5.29072e-05
1052.23	3.58335e-05
1060.9	2.16191e-05
1069.58	1.39125e-05
1078.26	9.71536e-06
1086.94	4.82906e-06
1095.62	1.8626e-06
1104.3	6.26115e-07
1112.97	3.18392e-07
1121.65	2.61426e-07
1130.33	2.522e-07
1139.01	2.25941e-07
1147.69	2.70317e-07
1156.36	2.23214e-07
1165.04	1.61236e-07
1173.72	2.31547e-07
1182.4	2.1984e-07
1191.08	1.75666e-07
1199.76	1.80692e-07
1208.43	3.43958e-07
1217.11	4.75068e-07
1225.79	8.78767e-07
1234.47	1.37454e-06
1243.15	2.39127e-06
1251.82	3.90431e-06
1260.5	5.83905e-06
1269.18	4.76147e-06
1277.86	8.20183e-06
1286.54	6.96782e-06
1295.21	4.01064e-06
1303.89	6.18523e-06
1312.57	4.36612e-06
1321.25	2.96739e-06
1329.93	2.86132e-06
1338.61	2.8227e-06
1347.28	3.00262e-06
1355.96	4.52125e-06
1364.64	1.29936e-05
1373.32	2.07497e-05
1382	7.84119e-06
1390.67	1.8787e-05
1399.35	8.52313e-06
1408.03	5.00356e-06
1416.71	5.73168e-06
1425.39	5.0246e-06
1434.07	4.44463e-06
1442.74	5.34245e-06
1451.42	3.71415e-06
1460.1	3.14233e-06
1468.78	4.0529e-06
1477.46	6.01149e-06
1486.13	5.20499e-06
1494.81	5.47171e-06
1503.49	3.62754e-06
1512.17	3.15915e-06
1520.85	2.40191e-06
1529.52	8.55688e-07
1538.2	1.12657e-06
1546.88	9.44544e-07
1555.56	1.9939e-06
1564.24	5.93842e-06
1572.92	1.94689e-05
1581.59	6.8544e-05
1590.27	0.00010086
1598.95	5.89855e-05
1607.63	0.000101
1616.31	1.76777e-05
1624.98	3.44983e-06
1633.66	3.17081e-06
1642.34	3.18473e-06
1651.02	2.83104e-06
1659.7	1.58986e-06
1668.38	2.09587e-06
1677.05	1.03106e-06
1685.73	8.05463e-07
1694.41	6.17649e-07
1703.09	5.81755e-07
1711.77	6.71808e-07
1720.44	1.08169e-06
1729.12	1.64438e-06
1737.8	2.42261e-06
1746.48	3.66243e-06
1755.16	5.19573e-06
1763.84	3.81979e-06
1772.51	5.23413e-06
1781.19	2.96889e-06
1789.87	4.39459e-06
1798.55	1.01882e-05
1807.23	4.33741e-05
1815.9	4.10203e-05
1824.58	4.74089e-05
1833.26	4.31997e-05
1841.94	7.10923e-06
1850.62	1.61595e-06
1859.29	1.90783e-06
1867.97	2.28541e-06
1876.65	2.07573e-06
1885.33	2.26336e-06
1894.01	1.24749e-06
1902.69	1.27189e-06
1911.36	1.44381e-06
1920.04	1.18023e-06
1928.72	1.30817e-06
1937.4	1.30712e-06
1946.08	1.75817e-06
1954.75	2.72181e-06
1963.43	3.69208e-06
1972.11	2.46734e-06
1980.79	2.93819e-06
1989.47	1.38475e-06
1998.15	6.84901e-07
2006.82	4.86908e-07
2015.5	2.03362e-07
2024.18	5.21229e-08
2032.86	6.11359e-09
2041.54	1.86882e-08
2050.21	-1.88883e-08
2058.89	-1.94795e-08
2067.57	-1.52358e-08
2076.25	3.72e-08
2084.93	7.94912e-08
2093.6	2.16098e-07
2102.28	2.75947e-07
2110.96	2.60076e-07
2119.64	5.92746e-07
2128.32	2.02398e-07
2137	1.87404e-07
2145.67	1.79175e-07
2154.35	3.28619e-07
2163.03	3.29643e-07
2171.71	3.73151e-07
2180.39	4.45039e-07
2189.06	4.66396e-07
2197.74	4.11728e-07
2206.42	4.53463e-07
2215.1	4.15595e-07
2223.78	3.87563e-07
2232.46	4.26442e-07
2241.13	6.52334e-07
2249.81	8.30688e-07
2258.49	1.23486e-06
2267.17	9.48947e-07
2275.85	1.20036e-06
2284.52	7.69047e-07
2293.2	5.91747e-07
2301.88	5.82507e-07
2310.56	4.90217e-07
2319.24	1.03727e-06
2327.92	3.97658e-07
2336.59	4.06595e-07
2345.27	4.47289e-07
2353.95	4.1579e-07
2362.63	1.57986e-06
2371.31	8.95562e-07
2379.98	2.08528e-07
2388.66	1.34586e-07
2397.34	1.78293e-07
2406.02	3.00808e-07
2414.7	3.67601e-07
2423.37	3.49428e-07
2432.05	4.26916e-07
2440.73	4.27822e-07
2449.41	4.4049e-07
2458.09	5.48026e-07
2466.77	6.41089e-07
2475.44	1.04384e-06
2484.12	1.62888e-06
2492.8	1.15206e-06
2501.48	1.66959e-06
2510.16	9.61429e-07
2518.83	4.22507e-07
2527.51	2.87628e-07
2536.19	2.11473e-07
2544.87	2.16386e-07
2553.55	2.84414e-07
2562.23	3.60562e-07
2570.9	5.34302e-07
2579.58	4.32977e-07
2588.26	4.84896e-07
2596.94	3.91599e-07
2605.62	1.27638e-07
2614.29	1.26452e-07
2622.97	1.68778e-07
2631.65	1.22559e-07
2640.33	1.68503e-07
2649.01	1.38439e-07
2657.68	1.51898e-07
2666.36	6.04083e-08
2675.04	8.29728e-08
2683.72	9.11418e-08
2692.4	1.54077e-07
2701.08	2.42272e-07
2709.75	2.34117e-07
2718.43	4.41188e-07
2727.11	3.25994e-07
2735.79	2.69304e-07
2744.47	2.67781e-07
2753.14	1.83391e-07
2761.82	1.9002e-07
2770.5	2.10429e-07
2779.18	1.92996e-07
2787.86	3.91335e-07
2796.54	3.88985e-07
2805.21	4.98501e-07
2813.89	3.50188e-07
2822.57	4.04032e-07
2831.25	4.69768e-07
2839.93	9.89729e-07
2848.6	1.67031e-06
2857.28	2.01429e-06
2865.96	2.43609e-06
2874.64	2.64124e-06
2883.32	3.3523e-06
2892	4.85463e-06
2900.67	5.39294e-06
2909.35	6.07202e-06
2918.03	7.98675e-06
2926.71	8.40006e-06
2935.39	1.13637e-05
2944.06	1.21386e-05
2952.74	1.66667e-05
2961.42	1.99981e-05
2970.1	3.7029e-05
2978.78	4.25766e-05
2987.45	4.43271e-05
2996.13	5.46913e-05
3004.81	5.7408e-05
3013.49	4.34067e-05
3022.17	5.38405e-05
3030.85	4.3011e-05
3039.52	5.28644e-05
3048.2	5.50063e-05
3056.88	4.71745e-05
3065.56	6.68886e-05
3074.24	6.17746e-05
3082.91	7.22608e-05
3091.59	9.5851e-05
3100.27	6.51941e-05
3108.95	9.66439e-05
3117.63	4.81207e-05
3126.31	3.3425e-05
3134.98	2.14809e-05
3143.66	1.19344e-05
3152.34	6.87052e-06
3161.02	3.06629e-06
3169.7	1.46727e-06
3178.37	6.25795e-07
3187.05	4.07199e-07
3195.73	3.07935e-07
3204.41	6.44101e-09
3213.09	1.13252e-07
3221.77	6.00249e-07
3230.44	5.55451e-07
3239.12	9.64672e-07
3247.8	6.39686e-07
3256.48	3.03149e-07
3265.16	3.35242e-07
3273.83	2.43281e-07
3282.51	7.5233e-08
3291.19	9.28153e-08
3299.87	2.22774e-07
3308.55	2.19242e-07
3317.22	2.29879e-07
3325.9	2.27089e-07
3334.58	1.34048e-07
3343.26	1.67415e-07
3351.94	6.1276e-08
3360.62	8.6287e-08
3369.29	9.15456e-08
3377.97	2.70559e-07
3386.65	4.99994e-07
3395.33	5.78769e-07
3404.01	6.88227e-07
3412.68	5.4372e-07
3421.36	2.36335e-07
3430.04	1.16937e-07
3438.72	2.66544e-07
3447.4	4.53239e-07
3456.08	1.80685e-07
3464.75	3.19777e-07
3473.43	1.34255e-07
3482.11	2.72987e-07
3490.79	1.76477e-07
3499.47	2.23396e-07
3508.14	1.67483e-07
3516.82	2.97994e-07
3525.5	2.85249e-07
3534.18	3.54799e-07
3542.86	2.36988e-07
3551.53	3.02287e-07
3560.21	3.77462e-07
3568.89	3.06946e-07
3577.57	3.21245e-07
3586.25	6.94408e-07
3594.93	5.46631e-07
3603.6	5.02271e-07
3612.28	8.87597e-07
3620.96	7.59788e-07
3629.64	2.59954e-06
3638.32	1.65544e-07
3646.99	8.25637e-07
3655.67	1.54495e-07
3664.35	5.58354e-08
3673.03	4.69752e-08
3681.71	4.45304e-08
3690.39	2.63416e-07
3699.06	1.05406e-07
3707.74	6.52559e-08
3716.42	7.51293e-08
3725.1	2.98149e-07
3733.78	1.18092e-07
3742.45	1.19442e-07
3751.13	2.56551e-07
3759.81	1.01794e-06
3768.49	6.89812e-08
3777.17	6.00118e-08
3785.85	7.02599e-08
3794.52	6.29331e-08
3803.2	3.7907e-07
3811.88	1.35187e-07
3820.56	1.27466e-06
3829.24	2.19675e-07
3837.91	4.253e-06
3846.59	2.89749e-07
3855.27	3.02353e-07
3863.95	4.86073e-07
3872.63	3.66261e-07
3881.3	5.50505e-07
3889.98	4.80529e-07
3898.66	4.64733e-07
3907.34	3.83243e-07
3916.02	3.87883e-07
3924.7	5.25052e-07
3933.37	3.61158e-07
3942.05	4.21469e-07
3950.73	5.01373e-07
3959.41	5.7102e-07
3968.09	9.72936e-07
