Infrared Spectrum: Butane
Formula: C4 H10
CAS: 106-97-8
State: gas
Melting point: -138.35 C
Boiling point: -0.5 C
Class: IUPAC A
Instrument: IFS66V (Bruker)
Instrument parameters: KBr Beam Splitter; MCT Detector; Multipass cell
Sampling: 1 L/min Flow
Resolution: 0.9640
Temperature: 23 C
Pressure: 101.3 Pa
Origin: NIST, Analytical Chemistry Division, 301-975-3108
cm-1	(micromol/mol)-1m-1 (base 10)
575.17	-4.04392e-07
583.848	3.28008e-08
592.526	1.80717e-07
601.205	-7.12031e-08
609.883	-1.6044e-07
618.561	-4.24659e-08
627.239	3.02405e-09
635.917	-1.32087e-07
644.595	-5.17727e-08
653.274	-1.2313e-07
661.952	-4.40348e-08
670.63	-2.493e-08
679.308	9.45688e-08
687.986	4.17895e-07
696.664	1.02381e-06
705.343	2.32636e-06
714.021	3.94003e-06
722.699	5.289e-06
731.377	1.00659e-05
740.055	8.89632e-06
748.734	1.05134e-05
757.412	7.95433e-06
766.09	5.68612e-06
774.768	3.43878e-06
783.446	2.70756e-06
792.124	1.91258e-06
800.803	1.61693e-06
809.481	8.2212e-07
818.159	3.63997e-07
826.837	1.09821e-07
835.515	2.97931e-08
844.194	3.52664e-08
852.872	-1.10676e-08
861.55	-4.4063e-08
870.228	3.74519e-08
878.906	-2.91473e-08
887.584	-1.9213e-08
896.263	-2.80687e-08
904.941	-8.58559e-09
913.619	2.58066e-07
922.297	6.97642e-07
930.975	1.93624e-06
939.653	5.12763e-06
948.332	1.11171e-05
957.01	1.91735e-05
965.688	1.93589e-05
974.366	1.6908e-05
983.044	1.06979e-05
991.723	7.16471e-06
1000.4	3.64687e-06
1009.08	1.84733e-06
1017.76	9.66721e-07
1026.44	5.26398e-07
1035.11	3.68365e-07
1043.79	1.31555e-07
1052.47	5.54907e-08
1061.15	9.72754e-08
1069.83	1.66824e-07
1078.5	1.18164e-07
1087.18	2.50217e-07
1095.86	1.91273e-07
1104.54	3.14646e-07
1113.22	8.22211e-07
1121.9	2.26253e-06
1130.57	2.82175e-06
1139.25	1.90014e-06
1147.93	2.13707e-06
1156.61	5.32517e-07
1165.29	1.52844e-07
1173.96	1.95107e-07
1182.64	2.05412e-07
1191.32	1.93542e-07
1200	1.76517e-07
1208.68	2.47838e-07
1217.36	3.21893e-07
1226.03	4.7391e-07
1234.71	6.76691e-07
1243.39	1.03802e-06
1252.07	1.494e-06
1260.75	1.72401e-06
1269.42	2.30155e-06
1278.1	4.80714e-06
1286.78	8.22784e-06
1295.46	8.23109e-06
1304.14	7.86689e-06
1312.82	2.87769e-06
1321.49	1.81686e-06
1330.17	3.8911e-06
1338.85	3.8045e-06
1347.53	3.92068e-06
1356.21	6.60891e-06
1364.88	1.0127e-05
1373.56	2.46647e-05
1382.24	3.00868e-05
1390.92	3.71575e-05
1399.6	2.50044e-05
1408.28	9.66359e-06
1416.95	7.95268e-06
1425.63	1.05048e-05
1434.31	1.90673e-05
1442.99	3.65291e-05
1451.67	5.21625e-05
1460.34	6.89977e-05
1469.02	7.04367e-05
1477.7	5.72201e-05
1486.38	4.93691e-05
1495.06	2.96932e-05
1503.73	1.62981e-05
1512.41	8.38345e-06
1521.09	4.19343e-06
1529.77	1.84205e-06
1538.45	1.14448e-06
1547.13	8.86785e-07
1555.8	9.79769e-07
1564.48	1.24771e-06
1573.16	1.58243e-06
1581.84	1.52919e-06
1590.52	1.40443e-06
1599.19	1.11109e-06
1607.87	8.83444e-07
1616.55	1.16679e-06
1625.23	8.27085e-07
1633.91	1.10694e-06
1642.59	9.91822e-07
1651.26	1.1426e-06
1659.94	1.29939e-06
1668.62	1.47103e-06
1677.3	1.29235e-06
1685.98	1.36101e-06
1694.65	1.18046e-06
1703.33	1.11418e-06
1712.01	1.09162e-06
1720.69	1.01977e-06
1729.37	8.21202e-07
1738.05	5.56557e-07
1746.72	3.72609e-07
1755.4	2.6138e-07
1764.08	2.56488e-07
1772.76	4.00524e-07
1781.44	3.18598e-07
1790.11	3.45757e-07
1798.79	3.88519e-07
1807.47	3.84596e-07
1816.15	3.63272e-07
1824.83	3.16417e-07
1833.51	1.57013e-07
1842.18	5.76353e-08
1850.86	9.97892e-09
1859.54	6.76479e-09
1868.22	3.02478e-08
1876.9	7.85208e-08
1885.57	2.21924e-07
1894.25	3.64676e-07
1902.93	4.82934e-07
1911.61	4.39238e-07
1920.29	4.9539e-07
1928.97	3.77071e-07
1937.64	3.27994e-07
1946.32	1.91178e-07
1955	8.79631e-08
1963.68	-6.55469e-09
1972.36	-5.19573e-08
1981.03	-3.5351e-08
1989.71	-4.71671e-08
1998.39	-2.75921e-08
2007.07	1.49275e-08
2015.75	1.10777e-07
2024.43	4.28595e-07
2033.1	6.19226e-07
2041.78	6.32538e-07
2050.46	5.98353e-07
2059.14	2.37313e-07
2067.82	1.40465e-07
2076.49	1.57577e-07
2085.17	1.93068e-07
2093.85	2.65118e-07
2102.53	3.55773e-07
2111.21	5.02107e-07
2119.89	6.33226e-07
2128.56	6.12461e-07
2137.24	6.03878e-07
2145.92	6.72554e-07
2154.6	6.62161e-07
2163.28	6.65642e-07
2171.95	6.89423e-07
2180.63	6.31673e-07
2189.31	6.56509e-07
2197.99	6.66367e-07
2206.67	7.2059e-07
2215.35	6.85051e-07
2224.02	6.50791e-07
2232.7	5.36122e-07
2241.38	4.09569e-07
2250.06	4.67788e-07
2258.74	5.20272e-07
2267.41	5.7573e-07
2276.09	6.37405e-07
2284.77	7.89116e-07
2293.45	8.0878e-07
2302.13	9.78218e-07
2310.81	8.79962e-07
2319.48	7.42089e-07
2328.16	7.63591e-07
2336.84	1.08802e-06
2345.52	1.00153e-06
2354.2	8.25886e-07
2362.87	4.12894e-07
2371.55	9.44383e-07
2380.23	1.61873e-06
2388.91	1.47134e-06
2397.59	1.71201e-06
2406.27	1.10414e-06
2414.94	1.47171e-06
2423.62	1.59279e-06
2432.3	1.92949e-06
2440.98	1.77477e-06
2449.66	1.61642e-06
2458.33	9.58397e-07
2467.01	5.58941e-07
2475.69	3.60299e-07
2484.37	2.43518e-07
2493.05	1.90846e-07
2501.73	1.86994e-07
2510.4	3.59407e-07
2519.08	5.28476e-07
2527.76	7.47926e-07
2536.44	6.85179e-07
2545.12	7.0165e-07
2553.79	5.7653e-07
2562.47	7.05412e-07
2571.15	1.04777e-06
2579.83	1.6389e-06
2588.51	2.42593e-06
2597.19	3.36196e-06
2605.86	3.62436e-06
2614.54	4.14785e-06
2623.22	4.18939e-06
2631.9	4.49763e-06
2640.58	4.37595e-06
2649.25	4.72429e-06
2657.93	4.74334e-06
2666.61	4.25754e-06
2675.29	3.65216e-06
2683.97	4.1557e-06
2692.65	3.1958e-06
2701.32	3.04958e-06
2710	3.83265e-06
2718.68	4.88195e-06
2727.36	7.5688e-06
2736.04	1.01852e-05
2744.71	9.33087e-06
2753.39	1.08969e-05
2762.07	7.07773e-06
2770.75	5.85314e-06
2779.43	6.14684e-06
2788.11	6.58569e-06
2796.78	7.74076e-06
2805.46	9.93414e-06
2814.14	1.37185e-05
2822.82	2.0054e-05
2831.5	2.90684e-05
2840.17	4.45857e-05
2848.85	6.81247e-05
2857.53	0.000113438
2866.21	0.000166853
2874.89	0.000248888
2883.57	0.000257737
2892.24	0.000269727
2900.92	0.00024937
2909.6	0.000231878
2918.28	0.000273245
2926.96	0.000357536
2935.63	0.000423264
2944.31	0.000472466
2952.99	0.000535687
2961.67	0.000650721
2970.35	0.000621563
2979.03	0.000571924
2987.7	0.000383483
2996.38	0.000165295
3005.06	6.93796e-05
3013.74	2.73216e-05
3022.42	1.24382e-05
3031.09	7.99845e-06
3039.77	6.71295e-06
3048.45	6.26135e-06
3057.13	6.25943e-06
3065.81	6.90159e-06
3074.49	7.68169e-06
3083.16	7.68023e-06
3091.84	7.22094e-06
3100.52	5.71884e-06
3109.2	4.5142e-06
3117.88	3.92205e-06
3126.55	3.92244e-06
3135.23	4.29791e-06
3143.91	4.86583e-06
3152.59	5.53136e-06
3161.27	6.49655e-06
3169.95	7.24116e-06
3178.62	7.05249e-06
3187.3	7.02746e-06
3195.98	5.47263e-06
3204.66	4.54219e-06
3213.34	4.07771e-06
3222.01	4.11744e-06
3230.69	3.32354e-06
3239.37	2.84248e-06
3248.05	1.83236e-06
3256.73	9.86699e-07
3265.41	6.45652e-07
3274.08	7.0012e-07
3282.76	6.58757e-07
3291.44	6.8466e-07
3300.12	6.71114e-07
3308.8	4.92292e-07
3317.47	3.61111e-07
3326.15	4.23007e-07
3334.83	4.72122e-07
3343.51	6.74762e-07
3352.19	6.87478e-07
3360.86	7.0973e-07
3369.54	7.59005e-07
3378.22	8.86924e-07
3386.9	1.10489e-06
3395.58	1.20689e-06
3404.26	1.09989e-06
3412.93	8.52137e-07
3421.61	3.4286e-07
3430.29	2.11686e-07
3438.97	1.73723e-07
3447.65	1.00889e-07
3456.32	3.22405e-08
3465	9.30845e-08
3473.68	1.06076e-07
3482.36	1.19213e-07
3491.04	6.31677e-08
3499.72	9.10263e-08
3508.39	6.54187e-08
3517.07	1.72967e-08
3525.75	-5.16654e-08
3534.43	-5.07286e-08
3543.11	-4.34172e-08
3551.78	-9.3441e-09
3560.46	1.54059e-08
3569.14	1.48425e-07
3577.82	2.14655e-07
3586.5	2.80017e-07
3595.18	3.31663e-07
3603.85	3.92615e-07
3612.53	5.96602e-07
3621.21	6.58825e-07
3629.89	8.11308e-07
3638.57	8.04542e-07
3647.24	8.50563e-07
3655.92	8.06475e-07
3664.6	7.83462e-07
3673.28	8.28566e-07
3681.96	9.37565e-07
3690.64	1.0072e-06
3699.31	9.66693e-07
3707.99	9.98006e-07
3716.67	1.2556e-06
3725.35	1.17726e-06
3734.03	1.29199e-06
3742.7	9.5309e-07
3751.38	7.04567e-07
3760.06	6.72042e-07
3768.74	5.70449e-07
3777.42	5.38728e-07
3786.1	4.99158e-07
3794.77	4.66573e-07
3803.45	4.72668e-07
3812.13	5.08057e-07
3820.81	7.11057e-07
3829.49	7.81783e-07
3838.16	1.46673e-06
3846.84	1.59794e-06
3855.52	1.84961e-06
3864.2	1.63892e-06
3872.88	1.36288e-06
3881.56	1.22428e-06
3890.23	1.05159e-06
3898.91	9.88575e-07
3907.59	8.52163e-07
3916.27	7.4484e-07
3924.95	6.63743e-07
3933.62	6.41092e-07
3942.3	5.69641e-07
3950.98	4.82066e-07
3959.66	4.51687e-07
3968.34	4.86547e-07
