Infrared Spectrum: 1-OCTANOL, 3,7-DIMETHYL-
Formula: C10 H22 O
CAS: 106-21-8
State: LIQUID (NEAT)
Class: COBLENTZ II
Instrument: PERKIN-ELMER 621 (GRATING)
Instrument parameters: GRATING CHANGE AT 623; ORDER CHANGE AT 2000. FILTERS AT 3146, 2494, 2000, 1146, 698, 497 CM^-^1
Sampling: TRANSMISSION
Path length: 0.0015 CM (CsBr WINDOWS VS CsBr WINDOW; DEMOUNTABLE WINDOWS)
Resolution: 2
Origin: PERKIN-ELMER CORP. (R. HANNAH)
1/CM	TRANSMITTANCE
4000	0.874
3990	0.8738
3980	0.8735
3970	0.8733
3960	0.873
3950	0.8728
3940	0.8725
3930	0.8725
3920	0.8727
3910	0.8728
3900	0.8728
3890	0.8728
3880	0.8728
3870	0.8725
3860	0.8725
3850	0.8724
3840	0.8721
3830	0.8721
3820	0.872
3810	0.8718
3800	0.8718
3790	0.8717
3780	0.8716
3770	0.8714
3760	0.8712
3750	0.8709
3740	0.8707
3730	0.8705
3720	0.8702
3710	0.87
3700	0.8702
3690	0.8703
3680	0.8704
3670	0.8707
3660	0.8698
3650	0.8659
3640	0.8582
3630	0.8565
3620	0.8551
3610	0.8537
3600	0.8517
3590	0.8497
3580	0.8449
3570	0.8348
3560	0.8202
3550	0.8072
3540	0.7917
3530	0.7742
3520	0.7569
3510	0.7399
3500	0.723
3490	0.7071
3480	0.694
3470	0.6741
3460	0.6528
3450	0.6344
3440	0.6175
3430	0.604
3420	0.5876
3410	0.5691
3400	0.5514
3390	0.5349
3380	0.5205
3370	0.5066
3360	0.4968
3350	0.4895
3340	0.4858
3330	0.4843
3320	0.4868
3310	0.4919
3300	0.5021
3290	0.5162
3280	0.5314
3270	0.546
3260	0.5666
3250	0.5832
3240	0.5998
3230	0.6168
3220	0.6343
3210	0.6547
3200	0.6728
3190	0.6905
3180	0.7062
3170	0.7195
3160	0.7332
3150	0.7472
3140	0.7592
3130	0.7708
3120	0.7798
3110	0.7875
3100	0.7947
3090	0.8017
3080	0.8061
3070	0.8068
3060	0.8074
3050	0.8081
3040	0.8089
3030	0.8078
3020	0.8058
3010	0.7969
3000	0.7688
2990	0.7474
2980	0.6537
2970	0.4696
2960	0.1837
2950	0.1292
2940	0.2183
2930	0.1694
2920	0.1273
2910	0.2099
2900	0.2507
2890	0.2905
2880	0.3375
2870	0.2921
2860	0.3206
2850	0.4162
2840	0.4249
2830	0.6615
2820	0.72
2810	0.7412
2800	0.7582
2790	0.7726
2780	0.7868
2770	0.801
2760	0.8106
2750	0.8136
2740	0.8148
2730	0.8158
2720	0.8165
2710	0.8187
2700	0.8227
2690	0.8268
2680	0.8291
2670	0.8307
2660	0.8328
2650	0.8349
2640	0.8366
2630	0.8383
2620	0.8393
2610	0.84
2600	0.841
2590	0.8421
2580	0.8434
2570	0.8446
2560	0.8458
2550	0.8471
2540	0.8487
2530	0.8502
2520	0.8517
2510	0.8535
2500	0.8554
2490	0.8573
2480	0.8592
2470	0.8603
2460	0.8609
2450	0.8614
2440	0.8614
2430	0.8613
2420	0.8611
2410	0.861
2400	0.8618
2390	0.8628
2380	0.8637
2370	0.8658
2360	0.868
2350	0.8694
2340	0.8702
2330	0.8704
2320	0.8699
2310	0.8693
2300	0.8687
2290	0.8678
2280	0.8671
2270	0.8664
2260	0.8657
2250	0.866
2240	0.8667
2230	0.8675
2220	0.8682
2210	0.869
2200	0.8697
2190	0.8696
2180	0.8693
2170	0.869
2160	0.8687
2150	0.8685
2140	0.8684
2130	0.8684
2120	0.8684
2110	0.8685
2100	0.8685
2090	0.8686
2080	0.8687
2070	0.8689
2060	0.869
2050	0.8691
2040	0.8696
2030	0.8703
2020	0.871
2010	0.8716
2000	0.8721
1990	0.8734
1980	0.8738
1970	0.8734
1960	0.8725
1950	0.8721
1940	0.8734
1930	0.8741
1920	0.8735
1910	0.8728
1900	0.8721
1890	0.8713
1880	0.8705
1870	0.8698
1860	0.8694
1850	0.869
1840	0.8686
1830	0.8678
1820	0.8664
1810	0.865
1800	0.8636
1790	0.8621
1780	0.8618
1770	0.8616
1760	0.8614
1750	0.8613
1740	0.8623
1730	0.8634
1720	0.8644
1710	0.8639
1700	0.8625
1690	0.8614
1680	0.8611
1670	0.8612
1660	0.8613
1650	0.8614
1640	0.8616
1630	0.8603
1620	0.8588
1610	0.8578
1600	0.8571
1590	0.8577
1580	0.8583
1570	0.8586
1560	0.8593
1550	0.8597
1540	0.8589
1530	0.8578
1520	0.8534
1510	0.8435
1500	0.833
1490	0.8118
1480	0.7408
1470	0.5641
1460	0.5009
1450	0.6327
1440	0.7258
1430	0.734
1420	0.7507
1410	0.7615
1400	0.7641
1390	0.7576
1380	0.6046
1370	0.6837
1360	0.718
1350	0.7558
1340	0.765
1330	0.7631
1320	0.7704
1310	0.7812
1300	0.7893
1290	0.7931
1280	0.7976
1270	0.8056
1260	0.8074
1250	0.808
1240	0.8084
1230	0.8075
1220	0.8049
1210	0.7991
1200	0.804
1190	0.8045
1180	0.8043
1170	0.7806
1160	0.7911
1150	0.7945
1140	0.7932
1130	0.7814
1120	0.7845
1110	0.8017
1100	0.8071
1090	0.7911
1080	0.7328
1070	0.6292
1060	0.5291
1050	0.4998
1040	0.6035
1030	0.7225
1020	0.73
1010	0.6785
1000	0.7084
990	0.7571
980	0.7768
970	0.7692
960	0.7699
950	0.8021
940	0.8216
930	0.8327
920	0.8418
910	0.8392
900	0.847
890	0.8508
880	0.8531
870	0.8511
860	0.835
850	0.8246
840	0.834
830	0.8355
820	0.8371
810	0.839
800	0.8402
790	0.8393
780	0.8347
770	0.8297
760	0.8306
750	0.8314
740	0.8117
730	0.7953
720	0.8085
710	0.8144
700	0.8153
690	0.8101
680	0.8095
670	0.8069
660	0.8083
650	0.8064
640	0.8065
630	0.8067
620	0.8054
610	0.8058
600	0.8068
590	0.8081
580	0.8094
570	0.8108
560	0.8121
550	0.8111
540	0.8134
530	0.82
520	0.8206
510	0.8225
500	0.8268
490	0.8287
480	0.8295
470	0.8311
460	0.8325
450	0.8341
440	0.8361
430	0.8385
420	0.8409
410	0.8432
400	0.8456
390	0.848
380	0.8497
370	0.8508
360	0.8515
350	0.852
340	0.8521
330	0.853
320	0.854
310	0.8554
300	0.8595
