Infrared Spectrum: 1,4-Dimethylbenzene
Formula: 1,4-( C H3)2 C6 H4
CAS: 106-42-3
State: gas
Melting point: 13.26 C
Boiling point: 138.35 C
Class: IUPAC A
Instrument: IFS66V (Bruker)
Instrument parameters: KBr Beam Splitter; MCT Detector; Multipass cell
Sampling: 1 L/min Flow
Resolution: 1.9290
Temperature: 23 C
Pressure: 101.3 Pa
Origin: NIST, Analytical Chemistry Division, 301-975-3108
cm-1	(micromol/mol)-1m-1 (base 10)
575.652	1.34434e-06
584.33	-1.9711e-07
593.008	-1.45842e-07
601.687	-5.9354e-07
610.365	-3.149e-07
619.043	-5.60561e-07
627.721	-6.30964e-07
636.399	-5.10402e-07
645.077	-4.04387e-07
653.756	-3.20524e-07
662.434	-2.64786e-07
671.112	-2.74718e-07
679.79	1.33798e-07
688.468	7.82016e-08
697.146	3.21732e-07
705.825	2.36516e-07
714.503	2.64912e-07
723.181	1.51784e-07
731.859	4.0502e-07
740.537	6.27384e-07
749.216	5.8581e-07
757.894	1.20764e-06
766.572	7.97235e-06
775.25	4.62027e-05
783.928	0.000142091
792.606	0.000227836
801.285	0.000178949
809.963	9.90895e-05
818.641	1.85616e-05
827.319	5.90883e-06
835.997	4.31375e-06
844.676	1.63004e-06
853.354	9.53287e-07
862.032	8.41755e-07
870.71	1.11442e-06
879.388	1.15722e-06
888.066	1.32416e-06
896.745	1.4882e-06
905.423	1.55619e-06
914.101	2.40448e-06
922.779	2.93043e-06
931.457	2.70025e-06
940.135	2.548e-06
948.814	3.25966e-06
957.492	4.26038e-06
966.17	4.54284e-06
974.848	4.51753e-06
983.526	4.48904e-06
992.205	4.86184e-06
1000.88	5.14788e-06
1009.56	5.72762e-06
1018.24	2.18158e-05
1026.92	2.27013e-05
1035.6	1.77668e-05
1044.27	2.41054e-05
1052.95	2.41851e-05
1061.63	1.82095e-05
1070.31	1.21113e-05
1078.99	8.94177e-06
1087.66	1.1433e-05
1096.34	1.8702e-05
1105.02	2.47857e-05
1113.7	3.98991e-05
1122.38	3.05368e-05
1131.06	2.06367e-05
1139.73	7.44428e-06
1148.41	3.88543e-06
1157.09	3.16302e-06
1165.77	3.18582e-06
1174.45	3.39211e-06
1183.12	3.35376e-06
1191.8	2.90793e-06
1200.48	2.697e-06
1209.16	6.12552e-06
1217.84	1.27374e-05
1226.52	1.71026e-05
1235.19	1.34564e-05
1243.87	1.19555e-05
1252.55	4.56848e-06
1261.23	3.01218e-06
1269.91	2.87593e-06
1278.58	2.33108e-06
1287.26	2.37777e-06
1295.94	2.60963e-06
1304.62	3.86148e-06
1313.3	5.01394e-06
1321.98	5.89981e-06
1330.65	6.37901e-06
1339.33	7.8474e-06
1348.01	8.41632e-06
1356.69	8.56386e-06
1365.37	8.63919e-06
1374.04	1.18581e-05
1382.72	2.25037e-05
1391.4	2.39115e-05
1400.08	1.58306e-05
1408.76	1.94502e-05
1417.44	2.54065e-05
1426.11	3.52865e-05
1434.79	3.64267e-05
1443.47	3.21427e-05
1452.15	3.2973e-05
1460.83	3.25705e-05
1469.5	4.74477e-05
1478.18	3.59368e-05
1486.86	4.14441e-05
1495.54	4.59974e-05
1504.22	5.93094e-05
1512.9	0.000200332
1521.57	0.000228982
1530.25	0.000118478
1538.93	2.542e-05
1547.61	1.57754e-05
1556.29	1.25818e-05
1564.96	1.00026e-05
1573.64	7.53984e-06
1582.32	5.71526e-06
1591	4.94895e-06
1599.68	5.61357e-06
1608.36	7.84659e-06
1617.03	1.37067e-05
1625.71	1.51661e-05
1634.39	1.35135e-05
1643.07	5.45638e-06
1651.75	2.03867e-06
1660.42	1.82054e-06
1669.1	1.37145e-06
1677.78	1.20246e-06
1686.46	8.57456e-07
1695.14	5.4199e-07
1703.82	7.79565e-07
1712.49	1.2057e-06
1721.17	2.95615e-06
1729.85	2.85297e-06
1738.53	2.25052e-06
1747.21	3.0864e-06
1755.88	3.39755e-06
1764.56	2.86567e-06
1773.24	3.55621e-06
1781.92	1.02859e-05
1790.6	1.1817e-05
1799.28	5.41484e-06
1807.95	1.3153e-06
1816.63	8.87672e-07
1825.31	1.37624e-06
1833.99	3.3715e-06
1842.67	4.07103e-06
1851.34	2.53541e-06
1860.02	2.23908e-06
1868.7	5.03415e-06
1877.38	1.30241e-05
1886.06	1.97328e-05
1894.74	2.12127e-05
1903.41	7.92977e-06
1912.09	3.13454e-06
1920.77	2.33032e-06
1929.45	1.91617e-06
1938.13	9.79955e-07
1946.8	7.72218e-07
1955.48	1.22298e-06
1964.16	9.4374e-07
1972.84	1.11565e-06
1981.52	1.37243e-06
1990.19	1.24192e-06
1998.87	1.04021e-06
2007.55	7.86341e-07
2016.23	5.06248e-07
2024.91	2.76039e-07
2033.59	3.49255e-07
2042.26	3.43738e-07
2050.94	1.92209e-07
2059.62	-5.94088e-08
2068.3	-9.25315e-08
2076.98	1.08225e-07
2085.65	3.67963e-07
2094.33	1.13753e-06
2103.01	2.11379e-06
2111.69	1.66196e-06
2120.37	2.9738e-07
2129.05	-5.96553e-08
2137.72	-1.62561e-07
2146.4	-7.16414e-08
2155.08	8.78986e-08
2163.76	1.09633e-07
2172.44	4.50107e-07
2181.11	1.89447e-07
2189.79	2.28991e-07
2198.47	2.01406e-07
2207.15	7.71389e-07
2215.83	7.59074e-07
2224.51	7.74131e-08
2233.18	-6.64655e-09
2241.86	-1.41301e-07
2250.54	-1.62277e-07
2259.22	-3.43487e-08
2267.9	1.82417e-07
2276.57	4.80039e-07
2285.25	6.6852e-07
2293.93	1.35333e-06
2302.61	2.35648e-06
2311.29	2.60055e-06
2319.97	1.60753e-06
2328.64	1.86291e-06
2337.32	2.69422e-06
2346	2.41838e-06
2354.68	1.56426e-06
2363.36	1.37144e-06
2372.03	7.33657e-07
2380.71	4.81708e-07
2389.39	5.41435e-07
2398.07	5.94886e-07
2406.75	1.0931e-06
2415.43	1.45465e-06
2424.1	1.51766e-06
2432.78	1.3578e-06
2441.46	1.21681e-06
2450.14	8.97939e-07
2458.82	7.35755e-07
2467.49	8.12059e-07
2476.17	8.94895e-07
2484.85	7.8787e-07
2493.53	7.20064e-07
2502.21	4.77778e-07
2510.89	3.55898e-07
2519.56	2.91685e-07
2528.24	2.98024e-07
2536.92	2.3873e-07
2545.6	6.44446e-08
2554.28	-1.49629e-07
2562.95	-1.20772e-07
2571.63	1.80595e-07
2580.31	1.654e-06
2588.99	3.07884e-06
2597.67	3.02817e-06
2606.35	1.69364e-06
2615.02	7.7108e-07
2623.7	2.48173e-07
2632.38	1.55505e-07
2641.06	4.09363e-07
2649.74	2.7621e-07
2658.41	-1.24728e-07
2667.09	-1.30797e-07
2675.77	-1.88645e-07
2684.45	-3.50781e-08
2693.13	1.5464e-07
2701.81	7.97374e-07
2710.48	1.52744e-06
2719.16	1.99175e-06
2727.84	2.99491e-06
2736.52	1.16858e-05
2745.2	1.59222e-05
2753.87	7.18304e-06
2762.55	1.52203e-06
2771.23	9.68283e-07
2779.91	1.16757e-06
2788.59	1.57294e-06
2797.27	2.40903e-06
2805.94	3.51022e-06
2814.62	4.79925e-06
2823.3	7.12735e-06
2831.98	1.04711e-05
2840.66	1.40197e-05
2849.33	1.96819e-05
2858.01	3.62515e-05
2866.69	8.60032e-05
2875.37	0.000145913
2884.05	0.000155133
2892.73	0.000126889
2901.4	0.000107639
2910.08	9.66816e-05
2918.76	0.000125597
2927.44	0.000230962
2936.12	0.000305755
2944.79	0.000242515
2953.47	0.000125656
2962.15	9.61908e-05
2970.83	7.37455e-05
2979.51	8.73869e-05
2988.19	0.000115337
2996.86	0.000165983
3005.54	0.000207968
3014.22	0.000196851
3022.9	0.000238855
3031.58	0.000230826
3040.25	0.00015933
3048.93	0.000154929
3057.61	0.000147571
3066.29	0.000110183
3074.97	5.18938e-05
3083.65	2.81391e-05
3092.32	2.57677e-05
3101	2.72446e-05
3109.68	2.47015e-05
3118.36	1.48206e-05
3127.04	6.20778e-06
3135.71	7.45719e-06
3144.39	9.3087e-06
3153.07	6.12338e-06
3161.75	1.35417e-06
3170.43	3.50045e-07
3179.11	-3.56247e-09
3187.78	-2.65027e-07
3196.46	-3.08417e-07
3205.14	-3.88144e-07
3213.82	-3.34459e-07
3222.5	-2.67147e-07
3231.17	-2.51813e-07
3239.85	-2.51017e-07
3248.53	-2.59121e-07
3257.21	2.37122e-08
3265.89	4.17692e-08
3274.57	-7.84572e-08
3283.24	3.96801e-08
3291.92	1.02801e-07
3300.6	4.81393e-09
3309.28	-3.04861e-08
3317.96	4.67205e-09
3326.63	7.26992e-08
3335.31	-7.25045e-09
3343.99	-3.78093e-08
3352.67	-9.26779e-08
3361.35	-1.27235e-07
3370.03	5.80236e-08
3378.7	2.16036e-07
3387.38	3.01693e-07
3396.06	2.45676e-07
3404.74	7.75295e-08
3413.42	-3.20586e-08
3422.09	-8.83879e-08
3430.77	1.53139e-07
3439.45	3.45528e-07
3448.13	1.05208e-07
3456.81	-4.06487e-08
3465.49	-2.20825e-07
3474.16	-2.95185e-07
3482.84	-3.46253e-07
3491.52	-2.39265e-07
3500.2	-2.13886e-07
3508.88	-1.40344e-07
3517.55	-2.52155e-07
3526.23	-3.63954e-07
3534.91	-3.48723e-07
3543.59	-1.97451e-07
3552.27	-5.20291e-07
3560.95	-5.59308e-07
3569.62	-5.59597e-07
3578.3	-4.84585e-07
3586.98	-5.52997e-07
3595.66	-3.10152e-07
3604.34	-2.69003e-07
3613.01	-2.03949e-07
3621.69	-1.39942e-07
3630.37	-1.54972e-07
3639.05	1.59243e-08
3647.73	1.72043e-07
3656.41	5.17057e-07
3665.08	1.07578e-06
3673.76	9.69353e-07
3682.44	9.88511e-07
3691.12	3.77787e-07
3699.8	4.80121e-07
3708.47	1.81721e-07
3717.15	4.84131e-08
3725.83	1.28387e-07
3734.51	3.39504e-08
3743.19	3.20219e-07
3751.87	5.04298e-07
3760.54	8.19937e-07
3769.22	6.16422e-07
3777.9	3.19912e-07
3786.58	3.19946e-07
3795.26	3.60316e-07
3803.93	4.88405e-07
3812.61	6.19144e-07
3821.29	6.25946e-07
3829.97	1.17431e-06
3838.65	1.07484e-06
3847.33	1.54954e-06
3856	1.56206e-06
3864.68	1.61373e-06
3873.36	1.70651e-06
3882.04	1.94487e-06
3890.72	1.93987e-06
3899.39	1.90364e-06
3908.07	2.01391e-06
3916.75	2.15763e-06
3925.43	2.31463e-06
3934.11	2.38664e-06
3942.79	2.20763e-06
3951.46	1.93326e-06
3960.14	2.03654e-06
3968.82	2.05594e-06
