Infrared Spectrum: 1,4-Dimethylbenzene
Formula: 1,4-( C H3)2 C6 H4
CAS: 106-42-3
State: gas
Melting point: 13.26 C
Boiling point: 138.35 C
Class: IUPAC A
Instrument: IFS66V (Bruker)
Instrument parameters: KBr Beam Splitter; MCT Detector; Multipass cell
Sampling: 1 L/min Flow
Resolution: 0.4820
Temperature: 23 C
Pressure: 101.3 Pa
Origin: NIST, Analytical Chemistry Division, 301-975-3108
cm-1	(micromol/mol)-1m-1 (base 10)
575.17	1.84416e-06
583.848	-2.10284e-07
592.526	-1.5649e-07
601.205	-8.97436e-07
609.883	-3.91226e-08
618.561	-6.97954e-07
627.239	-3.72272e-07
635.917	-1.00512e-06
644.595	-2.20527e-07
653.274	-3.18285e-08
661.952	-4.72864e-07
670.63	-3.87169e-07
679.308	2.91332e-07
687.986	-1.53748e-07
696.664	3.25991e-07
705.343	1.71398e-07
714.021	2.34564e-07
722.699	4.47851e-07
731.377	4.89667e-07
740.055	4.60429e-07
748.734	6.28349e-07
757.412	1.30769e-06
766.09	7.28341e-06
774.768	4.23707e-05
783.446	0.000137288
792.124	0.000195327
800.803	0.000179935
809.481	0.000105329
818.159	2.0617e-05
826.837	6.48957e-06
835.515	4.50576e-06
844.193	1.88717e-06
852.872	1.08558e-06
861.55	8.39839e-07
870.228	1.08265e-06
878.906	1.16423e-06
887.584	1.41919e-06
896.263	1.49292e-06
904.941	1.40524e-06
913.619	2.34509e-06
922.297	2.93538e-06
930.975	2.63517e-06
939.653	2.63918e-06
948.332	3.22683e-06
957.01	4.34024e-06
965.688	4.65379e-06
974.366	4.57733e-06
983.044	4.60535e-06
991.723	4.70677e-06
1000.4	5.15954e-06
1009.08	5.5502e-06
1017.76	2.17706e-05
1026.44	2.10827e-05
1035.11	1.80466e-05
1043.79	2.36202e-05
1052.47	2.44107e-05
1061.15	1.85885e-05
1069.83	1.23073e-05
1078.5	9.08014e-06
1087.18	1.11789e-05
1095.86	1.84751e-05
1104.54	2.39485e-05
1113.22	3.91422e-05
1121.9	2.86751e-05
1130.57	2.19688e-05
1139.25	7.82356e-06
1147.93	4.01308e-06
1156.61	3.17506e-06
1165.29	3.23315e-06
1173.96	3.33084e-06
1182.64	3.33374e-06
1191.32	3.03929e-06
1200	2.77364e-06
1208.68	5.60175e-06
1217.36	1.30482e-05
1226.03	1.74332e-05
1234.71	1.36734e-05
1243.39	1.18967e-05
1252.07	4.86156e-06
1260.75	3.08534e-06
1269.42	2.90797e-06
1278.1	2.3628e-06
1286.78	2.33052e-06
1295.46	2.54357e-06
1304.14	3.61918e-06
1312.82	5.08642e-06
1321.49	5.76329e-06
1330.17	6.23772e-06
1338.85	7.59592e-06
1347.53	8.46574e-06
1356.21	8.91024e-06
1364.88	8.36778e-06
1373.56	1.14538e-05
1382.24	2.08217e-05
1390.92	2.44038e-05
1399.6	1.58627e-05
1408.28	1.92153e-05
1416.95	2.48821e-05
1425.63	3.47702e-05
1434.31	3.63863e-05
1442.99	3.29809e-05
1451.67	3.24818e-05
1460.34	3.21123e-05
1469.02	4.71089e-05
1477.7	3.6111e-05
1486.38	4.14822e-05
1495.06	4.583e-05
1503.73	5.80634e-05
1512.41	0.000187719
1521.09	0.000242619
1529.77	0.000129865
1538.45	2.71231e-05
1547.13	1.6242e-05
1555.8	1.28167e-05
1564.48	1.02428e-05
1573.16	7.71705e-06
1581.84	5.89755e-06
1590.52	4.98588e-06
1599.19	5.48569e-06
1607.87	7.67607e-06
1616.55	1.2631e-05
1625.23	1.54832e-05
1633.91	1.42022e-05
1642.59	5.79424e-06
1651.26	2.55704e-06
1659.94	1.78923e-06
1668.62	1.48337e-06
1677.3	1.23028e-06
1685.98	9.13155e-07
1694.65	8.63976e-07
1703.33	8.06226e-07
1712.01	1.13944e-06
1720.69	2.9293e-06
1729.37	2.89117e-06
1738.05	2.26896e-06
1746.72	3.00254e-06
1755.4	3.46098e-06
1764.08	2.84611e-06
1772.76	2.93282e-06
1781.44	9.8234e-06
1790.11	1.19021e-05
1798.79	5.98667e-06
1807.47	1.45279e-06
1816.15	9.77142e-07
1824.83	1.27865e-06
1833.51	3.36262e-06
1842.18	4.07692e-06
1850.86	2.67907e-06
1859.54	2.22568e-06
1868.22	4.79057e-06
1876.9	1.22422e-05
1885.57	2.03497e-05
1894.25	2.16988e-05
1902.93	8.44182e-06
1911.61	3.28056e-06
1920.29	2.33455e-06
1928.97	1.95817e-06
1937.64	1.0997e-06
1946.32	8.78255e-07
1955	1.2039e-06
1963.68	9.12528e-07
1972.36	1.06594e-06
1981.03	1.39993e-06
1989.71	1.30214e-06
1998.39	1.05607e-06
2007.07	8.53221e-07
2015.75	5.91851e-07
2024.43	2.76428e-07
2033.1	3.5701e-07
2041.78	3.76347e-07
2050.46	1.42951e-07
2059.14	2.90473e-08
2067.82	-8.68481e-08
2076.49	-3.70081e-08
2085.17	2.29665e-07
2093.85	8.00605e-07
2102.53	1.88063e-06
2111.21	1.84944e-06
2119.89	7.99481e-07
2128.56	-9.53909e-08
2137.24	-1.25627e-07
2145.92	-1.1458e-07
2154.6	8.19388e-07
2163.28	2.81951e-08
2171.95	1.8111e-07
2180.63	8.64625e-08
2189.31	4.82257e-08
2197.99	1.6831e-07
2206.67	7.25787e-07
2215.35	7.68234e-07
2224.02	1.00525e-07
2232.7	-1.93685e-08
2241.38	-7.60943e-08
2250.06	-1.67208e-07
2258.74	-9.17548e-08
2267.41	9.5431e-08
2276.09	5.48742e-07
2284.77	6.24455e-07
2293.45	1.22408e-06
2302.13	2.41038e-06
2310.81	2.64515e-06
2319.48	1.71064e-06
2328.16	1.46282e-06
2336.84	2.2242e-06
2345.52	2.35176e-06
2354.2	1.823e-06
2362.87	2.37922e-06
2371.55	1.17479e-06
2380.23	4.04677e-07
2388.91	5.4158e-07
2397.59	5.1586e-07
2406.27	1.06605e-06
2414.94	1.44128e-06
2423.62	1.59598e-06
2432.3	1.32584e-06
2440.98	1.16077e-06
2449.66	8.87401e-07
2458.33	7.06235e-07
2467.01	8.88422e-07
2475.69	7.66901e-07
2484.37	7.71822e-07
2493.05	6.65317e-07
2501.73	4.37836e-07
2510.4	3.21574e-07
2519.08	3.43446e-07
2527.76	3.2136e-07
2536.44	2.93324e-07
2545.12	2.1604e-07
2553.79	-7.79306e-08
2562.47	-2.17495e-07
2571.15	1.85686e-07
2579.83	1.41718e-06
2588.51	3.00773e-06
2597.19	3.20416e-06
2605.86	1.70725e-06
2614.54	8.86036e-07
2623.22	3.11294e-07
2631.9	1.53841e-07
2640.58	4.70775e-07
2649.25	2.94497e-07
2657.93	-3.11946e-08
2666.61	-1.47732e-07
2675.29	-1.28228e-07
2683.97	2.53748e-09
2692.65	8.99395e-08
2701.32	7.94308e-07
2710	1.46144e-06
2718.68	1.99279e-06
2727.36	3.01391e-06
2736.04	1.09488e-05
2744.71	1.74041e-05
2753.39	7.88546e-06
2762.07	1.68448e-06
2770.75	7.8665e-07
2779.43	1.17753e-06
2788.11	1.71661e-06
2796.78	2.44724e-06
2805.46	3.4986e-06
2814.14	4.65186e-06
2822.82	7.03868e-06
2831.5	1.03375e-05
2840.17	1.38603e-05
2848.85	1.95323e-05
2857.53	3.48621e-05
2866.21	8.21365e-05
2874.89	0.000143191
2883.57	0.000155698
2892.24	0.000128037
2900.92	0.0001086
2909.6	9.68232e-05
2918.28	0.00012202
2926.96	0.000223216
2935.63	0.000305428
2944.31	0.000250189
2952.99	0.000131154
2961.67	9.7708e-05
2970.35	7.4149e-05
2979.03	8.62625e-05
2987.7	0.000112395
2996.38	0.000162576
3005.06	0.000210631
3013.74	0.000196667
3022.42	0.000237316
3031.09	0.000229243
3039.77	0.000163699
3048.45	0.000154807
3057.13	0.00014729
3065.81	0.000113783
3074.49	5.42243e-05
3083.16	2.8975e-05
3091.84	2.56198e-05
3100.52	2.74164e-05
3109.2	2.51825e-05
3117.88	1.56952e-05
3126.55	6.59388e-06
3135.23	7.29557e-06
3143.91	9.37386e-06
3152.59	6.51343e-06
3161.27	1.4991e-06
3169.95	4.11975e-07
3178.62	-9.29308e-08
3187.3	-1.82335e-07
3195.98	-3.47554e-07
3204.66	-3.57702e-07
3213.34	-3.19755e-07
3222.01	-2.60273e-07
3230.69	-1.93914e-07
3239.37	-3.34653e-07
3248.05	-2.57827e-07
3256.73	-2.64407e-08
3265.4	7.02908e-08
3274.08	1.94549e-08
3282.76	2.1593e-07
3291.44	3.57762e-07
3300.12	-1.13453e-07
3308.8	-2.3161e-07
3317.47	3.56611e-08
3326.15	-2.14749e-08
3334.83	1.47237e-07
3343.51	-1.78933e-08
3352.19	-1.22536e-08
3360.86	-2.37577e-08
3369.54	-4.69924e-08
3378.22	2.16541e-07
3386.9	2.67669e-07
3395.58	1.78384e-07
3404.26	1.69347e-09
3412.93	3.56174e-08
3421.61	-1.10202e-07
3430.29	1.33294e-07
3438.97	7.67255e-08
3447.65	1.12475e-07
3456.32	2.28853e-07
3465	-3.43107e-07
3473.68	-2.90655e-07
3482.36	-3.48177e-07
3491.04	-2.75761e-07
3499.72	-3.25374e-07
3508.39	-1.17509e-07
3517.07	-2.92703e-07
3525.75	-2.24545e-07
3534.43	-5.00537e-07
3543.11	-1.43866e-07
3551.78	-6.30088e-07
3560.46	-6.53974e-07
3569.14	-5.93583e-07
3577.82	-5.33519e-07
3586.5	-7.41216e-07
3595.18	-4.2364e-07
3603.85	-1.44471e-07
3612.53	-4.60854e-07
3621.21	-2.45645e-07
3629.89	-3.09264e-07
3638.57	4.62712e-08
3647.24	1.5073e-08
3655.92	5.63427e-07
3664.6	1.02662e-06
3673.28	1.03743e-06
3681.96	1.09909e-06
3690.64	2.91142e-07
3699.31	4.96963e-07
3707.99	2.1513e-07
3716.67	4.86468e-08
3725.35	3.81604e-08
3734.03	1.31741e-07
3742.7	5.26932e-07
3751.38	6.60022e-07
3760.06	6.90494e-07
3768.74	7.34232e-07
3777.42	3.5711e-07
3786.1	2.99148e-07
3794.77	4.87079e-07
3803.45	4.10648e-07
3812.13	6.15044e-07
3820.81	3.89875e-07
3829.49	1.15747e-06
3838.16	7.52899e-07
3846.84	1.6621e-06
3855.52	1.83676e-06
3864.2	1.64351e-06
3872.88	1.88396e-06
3881.56	1.9138e-06
3890.23	2.09771e-06
3898.91	2.00844e-06
3907.59	1.97287e-06
3916.27	2.1141e-06
3924.95	2.32917e-06
3933.62	2.47189e-06
3942.3	2.18542e-06
3950.98	2.12802e-06
3959.66	2.13369e-06
3968.34	2.03494e-06
