Infrared Spectrum: 1,3-Butadiene
Formula: C H2: C H C H: C H2
CAS: 106-99-0
State: gas
Melting point: -108.91 C
Boiling point: -4.41 C
Class: IUPAC A
Instrument: IFS66V (Bruker)
Instrument parameters: KBr Beam splitter; MCT Detector; Multipass cell
Sampling: 1 L/min Flow
Resolution: 0.4820
Temperature: 23 C
Pressure: 101.3 kPa
Origin: NIST, Anayltical Chemistry Division, 301-975-3108
cm-1	(micromol/mol)-1m-1 (base 10)
574.928	5.98627e-06
583.606	3.16435e-06
592.284	2.13293e-06
600.962	1.84755e-06
609.641	1.0982e-06
618.319	3.86364e-07
626.997	8.39487e-07
635.675	1.30427e-06
644.353	1.74161e-06
653.031	2.32209e-06
661.71	2.5614e-06
670.388	3.15953e-06
679.066	2.64801e-06
687.744	2.35102e-06
696.422	1.56316e-06
705.1	1.1914e-06
713.778	6.51217e-07
722.457	5.66923e-07
731.135	8.28227e-07
739.813	1.05311e-06
748.491	9.52547e-07
757.169	1.07693e-06
765.847	8.94216e-07
774.526	5.3512e-07
783.204	4.30254e-07
791.882	5.83196e-07
800.56	4.71052e-07
809.238	7.86707e-07
817.916	1.02831e-06
826.594	2.02112e-06
835.273	4.48668e-06
843.951	7.89196e-06
852.629	1.56837e-05
861.307	3.1721e-05
869.985	5.0628e-05
878.663	7.52653e-05
887.342	9.55689e-05
896.02	0.000102981
904.698	0.000132959
913.376	0.000131246
922.054	0.000146049
930.732	0.000143729
939.41	0.000120529
948.089	6.12949e-05
956.767	3.59326e-05
965.445	2.56792e-05
974.123	2.80276e-05
982.801	5.10177e-05
991.479	6.54033e-05
1000.16	9.71092e-05
1008.84	9.04849e-05
1017.51	6.97485e-05
1026.19	6.97707e-05
1034.87	6.56216e-05
1043.55	5.31717e-05
1052.23	3.58254e-05
1060.9	2.10052e-05
1069.58	1.39012e-05
1078.26	9.59163e-06
1086.94	4.84779e-06
1095.62	1.87011e-06
1104.3	6.40321e-07
1112.97	3.42918e-07
1121.65	3.02034e-07
1130.33	2.7814e-07
1139.01	2.1914e-07
1147.69	2.8463e-07
1156.36	2.59599e-07
1165.04	1.4128e-07
1173.72	2.42797e-07
1182.4	2.16899e-07
1191.08	1.99258e-07
1199.76	1.79395e-07
1208.43	3.29836e-07
1217.11	4.56984e-07
1225.79	9.03717e-07
1234.47	1.3385e-06
1243.15	2.2937e-06
1251.82	3.57541e-06
1260.5	5.51008e-06
1269.18	4.72328e-06
1277.86	8.27802e-06
1286.54	6.85297e-06
1295.21	3.95942e-06
1303.89	6.12115e-06
1312.57	3.90446e-06
1321.25	3.12991e-06
1329.93	2.8039e-06
1338.61	2.97925e-06
1347.28	2.81795e-06
1355.96	4.4376e-06
1364.64	1.28443e-05
1373.32	2.05877e-05
1382	7.80557e-06
1390.67	1.87402e-05
1399.35	8.32677e-06
1408.03	4.86421e-06
1416.71	5.77288e-06
1425.39	5.02038e-06
1434.07	4.45508e-06
1442.74	5.30813e-06
1451.42	3.77271e-06
1460.1	3.06291e-06
1468.78	3.94667e-06
1477.46	6.02036e-06
1486.13	5.23982e-06
1494.81	5.5013e-06
1503.49	3.68368e-06
1512.17	3.32099e-06
1520.85	1.73329e-06
1529.52	8.49635e-07
1538.2	1.00327e-06
1546.88	8.93267e-07
1555.56	1.98844e-06
1564.24	5.97981e-06
1572.92	1.94186e-05
1581.59	6.83483e-05
1590.27	0.000100325
1598.95	5.89881e-05
1607.63	0.000101195
1616.31	1.69694e-05
1624.98	3.39544e-06
1633.66	3.35805e-06
1642.34	3.20371e-06
1651.02	2.69254e-06
1659.7	1.6712e-06
1668.38	2.27511e-06
1677.05	1.07488e-06
1685.73	5.23071e-07
1694.41	7.87591e-07
1703.09	4.64517e-07
1711.77	6.336e-07
1720.44	1.20497e-06
1729.12	1.61691e-06
1737.8	2.5013e-06
1746.48	3.73428e-06
1755.16	5.12924e-06
1763.84	3.86483e-06
1772.51	4.99594e-06
1781.19	2.92872e-06
1789.87	4.58211e-06
1798.55	1.01517e-05
1807.23	4.35096e-05
1815.9	4.11335e-05
1824.58	4.73664e-05
1833.26	4.31447e-05
1841.94	7.09061e-06
1850.62	1.58764e-06
1859.29	1.88894e-06
1867.97	2.33547e-06
1876.65	2.07227e-06
1885.33	2.27335e-06
1894.01	1.24091e-06
1902.69	1.26016e-06
1911.36	1.45696e-06
1920.04	1.20045e-06
1928.72	1.33409e-06
1937.4	1.27519e-06
1946.08	1.74214e-06
1954.75	2.73569e-06
1963.43	3.69908e-06
1972.11	2.49959e-06
1980.79	2.98751e-06
1989.47	1.39536e-06
1998.15	6.94028e-07
2006.82	4.84278e-07
2015.5	1.86191e-07
2024.18	6.80171e-08
2032.86	-5.98808e-09
2041.54	-1.30967e-10
2050.21	-2.85835e-08
2058.89	-2.03926e-08
2067.57	-4.14582e-08
2076.25	2.11002e-09
2084.93	7.4078e-08
2093.6	2.06392e-07
2102.28	2.54288e-07
2110.96	2.87452e-07
2119.64	7.81996e-07
2128.32	2.44662e-07
2137	2.05716e-07
2145.67	1.70808e-07
2154.35	2.86811e-07
2163.03	3.77198e-07
2171.71	4.10346e-07
2180.39	5.03706e-07
2189.06	4.7857e-07
2197.74	4.31662e-07
2206.42	4.89162e-07
2215.1	4.28075e-07
2223.78	3.84263e-07
2232.46	4.13647e-07
2241.13	6.65576e-07
2249.81	8.20353e-07
2258.49	1.21359e-06
2267.17	9.33115e-07
2275.85	1.18966e-06
2284.52	7.57531e-07
2293.2	5.92627e-07
2301.88	5.63918e-07
2310.56	5.19486e-07
2319.24	1.36456e-06
2327.92	3.91113e-07
2336.59	6.12942e-07
2345.27	3.66002e-07
2353.95	3.36686e-07
2362.63	1.80866e-06
2371.31	1.14782e-06
2379.98	2.3226e-07
2388.66	1.48645e-07
2397.34	1.75464e-07
2406.02	3.18198e-07
2414.7	3.7425e-07
2423.37	3.58901e-07
2432.05	4.16228e-07
2440.73	4.65917e-07
2449.41	4.71692e-07
2458.09	5.48572e-07
2466.77	6.50256e-07
2475.44	1.00197e-06
2484.12	1.65167e-06
2492.8	1.12462e-06
2501.48	1.68772e-06
2510.16	9.35081e-07
2518.83	3.70308e-07
2527.51	2.81636e-07
2536.19	2.10973e-07
2544.87	2.26719e-07
2553.55	2.97776e-07
2562.23	3.74553e-07
2570.9	5.01744e-07
2579.58	4.53122e-07
2588.26	4.85902e-07
2596.94	3.8371e-07
2605.62	1.13382e-07
2614.29	1.42537e-07
2622.97	1.654e-07
2631.65	1.12437e-07
2640.33	1.41373e-07
2649.01	1.05776e-07
2657.68	1.29888e-07
2666.36	4.46741e-08
2675.04	6.98161e-08
2683.72	8.32402e-08
2692.4	1.77391e-07
2701.08	2.50885e-07
2709.75	2.73276e-07
2718.43	4.64768e-07
2727.11	2.95906e-07
2735.79	2.44051e-07
2744.47	2.80128e-07
2753.14	1.69815e-07
2761.82	2.00026e-07
2770.5	1.94383e-07
2779.18	1.93583e-07
2787.86	4.20002e-07
2796.54	4.27873e-07
2805.21	5.15581e-07
2813.89	3.72944e-07
2822.57	4.18978e-07
2831.25	5.00116e-07
2839.93	9.66459e-07
2848.6	1.68207e-06
2857.28	1.99953e-06
2865.96	2.41099e-06
2874.64	2.64192e-06
2883.32	3.41294e-06
2892	4.89769e-06
2900.67	5.4354e-06
2909.35	5.97749e-06
2918.03	7.98761e-06
2926.71	8.37591e-06
2935.39	1.13871e-05
2944.06	1.20346e-05
2952.74	1.67668e-05
2961.42	1.99639e-05
2970.1	3.80598e-05
2978.78	4.24025e-05
2987.45	4.49773e-05
2996.13	5.46291e-05
3004.81	5.79795e-05
3013.49	4.30774e-05
3022.17	5.3514e-05
3030.85	4.26741e-05
3039.52	5.2328e-05
3048.2	5.51886e-05
3056.88	4.68137e-05
3065.56	6.63372e-05
3074.24	6.24071e-05
3082.91	7.1819e-05
3091.59	9.45763e-05
3100.27	6.39626e-05
3108.95	9.49061e-05
3117.63	4.77609e-05
3126.31	3.34482e-05
3134.98	2.11171e-05
3143.66	1.18441e-05
3152.34	6.99542e-06
3161.02	3.08565e-06
3169.7	1.52571e-06
3178.37	6.57834e-07
3187.05	4.33599e-07
3195.73	3.47829e-07
3204.41	1.09375e-08
3213.09	8.43552e-08
3221.77	5.74789e-07
3230.44	5.20108e-07
3239.12	1.02875e-06
3247.8	6.29898e-07
3256.48	3.30929e-07
3265.16	3.53937e-07
3273.83	2.80547e-07
3282.51	5.48914e-08
3291.19	4.3832e-08
3299.87	1.76261e-07
3308.55	2.63945e-07
3317.22	2.6028e-07
3325.9	2.61164e-07
3334.58	1.42443e-07
3343.26	2.57473e-07
3351.94	4.25478e-08
3360.62	1.12122e-07
3369.29	7.12404e-08
3377.97	3.05392e-07
3386.65	4.48993e-07
3395.33	6.04302e-07
3404.01	7.26197e-07
3412.68	5.3444e-07
3421.36	2.14647e-07
3430.04	9.73936e-08
3438.72	2.46463e-07
3447.4	5.05769e-07
3456.08	8.43024e-08
3464.75	3.23227e-07
3473.43	7.78251e-08
3482.11	2.72458e-07
3490.79	1.49915e-07
3499.47	2.30221e-07
3508.14	1.61364e-07
3516.82	3.42427e-07
3525.5	2.80107e-07
3534.18	3.5399e-07
3542.86	2.83466e-07
3551.53	3.07268e-07
3560.21	4.60655e-07
3568.89	3.73808e-07
3577.57	2.92725e-07
3586.25	5.09527e-07
3594.93	4.83234e-07
3603.6	4.80796e-07
3612.28	6.19552e-07
3620.96	7.37138e-07
3629.64	3.56405e-06
3638.32	1.08171e-07
3646.99	9.42501e-07
3655.67	3.03579e-07
3664.35	1.14314e-07
3673.03	4.45377e-08
3681.71	-2.0851e-08
3690.39	2.7716e-07
3699.06	9.42705e-08
3707.74	4.23477e-08
3716.42	1.11298e-07
3725.1	4.02251e-07
3733.78	1.49387e-07
3742.45	1.79106e-07
3751.13	3.33543e-07
3759.81	1.36852e-06
3768.49	-9.36229e-09
3777.17	3.1241e-08
3785.85	-2.76667e-09
3794.52	5.45348e-08
3803.2	2.48664e-07
3811.88	6.20381e-08
3820.56	1.33387e-06
3829.24	2.42514e-07
3837.91	6.25027e-06
3846.59	3.16985e-07
3855.27	-3.64305e-08
3863.95	4.34205e-07
3872.63	3.58577e-07
3881.3	4.44193e-07
3889.98	4.4053e-07
3898.66	4.00265e-07
3907.34	3.84292e-07
3916.02	3.15091e-07
3924.7	4.6635e-07
3933.37	3.16357e-07
3942.05	4.24897e-07
3950.73	4.804e-07
3959.41	5.22513e-07
3968.09	1.00114e-06
