Infrared Spectrum: 1,3-Butadiene
Formula: C H2: C H C H: C H2
CAS: 106-99-0
State: gas
Melting point: -108.91 C
Boiling point: -4.41 C
Class: IUPAC A
Instrument: IFS66V (Bruker)
Instrument parameters: KBr Beam splitter; MCT Detector; Multipass cell
Sampling: 1 L/min Flow
Resolution: 0.1250
Temperature: 23 C
Pressure: 101.3 kPa
Origin: NIST, Anayltical Chemistry Division, 301-975-3108
cm-1	(micromol/mol)-1m-1 (base 10)
574.988	6.13951e-06
583.546	3.02684e-06
592.103	2.82156e-06
600.661	1.16672e-06
609.219	6.10311e-07
617.776	6.68928e-07
626.334	9.59321e-07
634.891	1.22407e-06
643.449	1.50824e-06
652.007	2.34567e-06
660.564	2.73273e-06
669.122	2.93329e-06
677.68	2.77755e-06
686.237	2.25064e-06
694.795	1.72515e-06
703.352	1.17506e-06
711.91	8.24704e-07
720.468	7.51373e-07
729.025	5.75101e-07
737.583	9.51117e-07
746.141	8.72023e-07
754.698	1.11082e-06
763.256	1.10602e-06
771.813	7.7765e-07
780.371	5.23461e-07
788.929	4.45466e-07
797.486	5.33289e-07
806.044	7.59728e-07
814.602	1.06546e-06
823.159	1.62602e-06
831.717	3.04906e-06
840.274	6.01338e-06
848.832	1.5195e-05
857.39	2.53574e-05
865.947	3.7764e-05
874.505	6.09906e-05
883.063	8.92428e-05
891.62	0.00013699
900.178	0.00013562
908.735	0.000500344
917.293	0.000145087
925.851	0.000138503
934.408	0.000114016
942.966	8.54649e-05
951.524	4.95532e-05
960.081	3.03493e-05
968.639	2.76704e-05
977.196	3.26488e-05
985.754	6.44874e-05
994.312	8.95552e-05
1002.87	8.12453e-05
1011.43	0.0001221
1019.98	6.81927e-05
1028.54	7.47407e-05
1037.1	5.98711e-05
1045.66	4.80758e-05
1054.22	3.05808e-05
1062.77	2.18103e-05
1071.33	1.24196e-05
1079.89	8.85581e-06
1088.45	4.15047e-06
1097	1.49376e-06
1105.56	4.25401e-07
1114.12	2.16084e-07
1122.68	2.8618e-07
1131.23	3.27493e-07
1139.79	2.25572e-07
1148.35	1.55857e-07
1156.91	1.3202e-07
1165.46	2.45211e-07
1174.02	1.48116e-07
1182.58	2.0469e-07
1191.14	9.42577e-08
1199.69	1.84696e-07
1208.25	4.0353e-07
1216.81	5.30078e-07
1225.37	7.93324e-07
1233.93	1.39441e-06
1242.48	2.2511e-06
1251.04	3.47218e-06
1259.6	5.28179e-06
1268.16	5.08943e-06
1276.71	6.67613e-06
1285.27	7.4512e-06
1293.83	3.94371e-06
1302.39	6.74067e-06
1310.94	5.92972e-06
1319.5	4.12532e-06
1328.06	2.90656e-06
1336.62	2.99146e-06
1345.17	2.65525e-06
1353.73	4.15772e-06
1362.29	9.29833e-06
1370.85	2.08967e-05
1379.4	7.53672e-06
1387.96	1.97516e-05
1396.52	1.24614e-05
1405.08	5.95703e-06
1413.64	5.7432e-06
1422.19	5.56748e-06
1430.75	4.10768e-06
1439.31	5.15881e-06
1447.87	5.69341e-06
1456.42	5.01465e-06
1464.98	5.48522e-06
1473.54	8.58808e-06
1482.1	5.69689e-06
1490.65	5.88187e-06
1499.21	5.47506e-06
1507.77	3.17538e-06
1516.33	2.5329e-06
1524.88	1.46637e-06
1533.44	1.12006e-06
1542	3.65491e-06
1550.56	1.26146e-06
1559.11	3.31745e-06
1567.67	9.08685e-06
1576.23	3.83125e-05
1584.79	9.45665e-05
1593.35	6.34722e-05
1601.9	0.000100445
1610.46	6.72397e-05
1619.02	8.11866e-06
1627.58	3.02734e-06
1636.13	3.25185e-06
1644.69	3.64742e-06
1653.25	9.94925e-06
1661.81	1.80158e-06
1670.36	1.55432e-06
1678.92	9.04581e-07
1687.48	6.30651e-07
1696.04	6.05608e-06
1704.59	1.34456e-06
1713.15	7.26422e-07
1721.71	1.09684e-06
1730.27	2.09931e-06
1738.83	2.62229e-06
1747.38	3.99259e-06
1755.94	5.17442e-06
1764.5	3.78139e-06
1773.06	4.08218e-06
1781.61	2.97901e-06
1790.17	4.1027e-06
1798.73	1.0433e-05
1807.29	4.37807e-05
1815.84	4.12072e-05
1824.4	4.58704e-05
1832.96	4.5102e-05
1841.52	7.65265e-06
1850.07	1.66224e-06
1858.63	1.92171e-06
1867.19	2.04222e-06
1875.75	1.94112e-06
1884.3	2.35442e-06
1892.86	1.24019e-06
1901.42	1.01033e-06
1909.98	1.66716e-06
1918.54	1.27666e-06
1927.09	1.35017e-06
1935.65	1.27386e-06
1944.21	1.48635e-06
1952.77	2.41015e-06
1961.32	3.59558e-06
1969.88	2.84424e-06
1978.44	3.24997e-06
1987	1.76006e-06
1995.55	7.54366e-07
2004.11	5.138e-07
2012.67	2.67692e-07
2021.23	6.77425e-08
2029.78	5.88531e-08
2038.34	-4.26805e-08
2046.9	-4.79429e-08
2055.46	-8.46153e-08
2064.01	-3.39003e-08
2072.57	4.93635e-08
2081.13	6.06066e-08
2089.69	1.43528e-07
2098.25	3.43014e-07
2106.8	2.25475e-07
2115.36	3.29532e-07
2123.92	2.91075e-07
2132.48	1.53886e-07
2141.03	1.19405e-07
2149.59	2.26232e-07
2158.15	3.41337e-07
2166.71	4.00207e-07
2175.26	3.47971e-07
2183.82	3.28764e-07
2192.38	4.1834e-07
2200.94	4.96924e-07
2209.49	5.17734e-07
2218.05	4.24883e-07
2226.61	3.42487e-07
2235.17	4.97109e-07
2243.72	7.27237e-07
2252.28	9.8085e-07
2260.84	1.07779e-06
2269.4	1.07978e-06
2277.96	9.90868e-07
2286.51	7.08955e-07
2295.07	5.42018e-07
2303.63	5.42938e-07
2312.19	4.24341e-07
2320.74	4.96203e-07
2329.3	4.7272e-07
2337.86	1.01915e-06
2346.42	4.22786e-07
2354.97	2.86884e-07
2363.53	2.83704e-07
2372.09	2.39096e-07
2380.65	1.90651e-07
2389.2	2.10909e-07
2397.76	2.05465e-07
2406.32	3.02458e-07
2414.88	3.6711e-07
2423.44	3.24633e-07
2431.99	3.8912e-07
2440.55	4.19846e-07
2449.11	3.85533e-07
2457.67	5.11806e-07
2466.22	7.6156e-07
2474.78	9.76563e-07
2483.34	1.85446e-06
2491.9	1.12316e-06
2500.45	1.55958e-06
2509.01	1.05583e-06
2517.57	4.74363e-07
2526.13	2.98236e-07
2534.68	2.00515e-07
2543.24	2.28264e-07
2551.8	2.01383e-07
2560.36	2.98698e-07
2568.91	4.66019e-07
2577.47	4.55393e-07
2586.03	4.48502e-07
2594.59	4.68782e-07
2603.15	1.84023e-07
2611.7	1.28411e-07
2620.26	1.32213e-07
2628.82	1.67683e-07
2637.38	1.90715e-07
2645.93	1.99848e-07
2654.49	1.95882e-07
2663.05	1.62411e-07
2671.61	1.13171e-07
2680.16	5.31924e-08
2688.72	1.41571e-07
2697.28	1.4934e-07
2705.84	1.73507e-07
2714.39	3.51036e-07
2722.95	4.16837e-07
2731.51	2.23123e-07
2740.07	3.39693e-07
2748.62	2.48331e-07
2757.18	7.78633e-08
2765.74	2.26385e-07
2774.3	1.68716e-07
2782.86	3.43827e-07
2791.41	3.43003e-07
2799.97	4.18727e-07
2808.53	5.84284e-07
2817.09	3.24422e-07
2825.64	4.59824e-07
2834.2	6.14682e-07
2842.76	1.19171e-06
2851.32	1.79803e-06
2859.87	2.07464e-06
2868.43	2.49666e-06
2876.99	2.97495e-06
2885.55	3.43319e-06
2894.1	4.52648e-06
2902.66	4.95038e-06
2911.22	6.18336e-06
2919.78	7.88475e-06
2928.34	9.42571e-06
2936.89	1.11521e-05
2945.45	1.34088e-05
2954.01	1.5812e-05
2962.57	2.29957e-05
2971.12	3.76091e-05
2979.68	4.0872e-05
2988.24	4.68909e-05
2996.8	5.8479e-05
3005.35	5.3071e-05
3013.91	4.56029e-05
3022.47	5.29902e-05
3031.03	4.41499e-05
3039.58	5.3007e-05
3048.14	5.46247e-05
3056.7	4.48723e-05
3065.26	7.13274e-05
3073.81	6.20383e-05
3082.37	7.20633e-05
3090.93	9.29079e-05
3099.49	5.5893e-05
3108.05	9.28874e-05
3116.6	6.25829e-05
3125.16	3.11167e-05
3133.72	2.14331e-05
3142.28	1.32954e-05
3150.83	7.27505e-06
3159.39	3.85553e-06
3167.95	1.83182e-06
3176.51	7.99982e-07
3185.06	3.3644e-07
3193.62	3.60807e-07
3202.18	1.30515e-07
3210.74	7.98769e-08
3219.29	4.21832e-07
3227.85	6.43679e-07
3236.41	8.91206e-07
3244.97	8.94483e-07
3253.52	4.49053e-07
3262.08	2.3507e-07
3270.64	2.34166e-07
3279.2	2.5463e-07
3287.76	2.18267e-07
3296.31	2.32149e-07
3304.87	-6.91776e-08
3313.43	2.41069e-07
3321.99	2.03959e-07
3330.54	2.31076e-07
3339.1	1.7129e-07
3347.66	1.53722e-08
3356.22	7.61098e-08
3364.77	3.4171e-07
3373.33	2.77487e-07
3381.89	2.45117e-07
3390.45	5.47162e-07
3399	4.1195e-07
3407.56	6.75475e-07
3416.12	3.04896e-07
3424.68	2.28917e-07
3433.23	2.05758e-07
3441.79	2.44334e-07
3450.35	3.56085e-07
3458.91	3.88079e-07
3467.47	2.9384e-07
3476.02	1.76748e-07
3484.58	1.84925e-07
3493.14	1.70408e-07
3501.7	1.24697e-07
3510.25	2.95768e-07
3518.81	2.48125e-07
3527.37	4.11888e-07
3535.93	2.3045e-07
3544.48	2.17046e-07
3553.04	2.96188e-07
3561.6	2.13037e-07
3570.16	2.5318e-07
3578.71	3.12852e-07
3587.27	4.39687e-07
3595.83	4.91523e-07
3604.39	4.89735e-07
3612.95	6.21209e-07
3621.5	7.29747e-07
3630.06	6.35137e-07
3638.62	2.23007e-07
3647.18	1.39541e-06
3655.73	1.02498e-07
3664.29	1.26705e-07
3672.85	4.99838e-08
3681.41	1.0732e-10
3689.96	1.81985e-07
3698.52	1.94102e-07
3707.08	-2.08692e-08
3715.64	6.0994e-08
3724.19	9.10872e-08
3732.75	3.36353e-07
3741.31	6.5561e-07
3749.87	6.50738e-07
3758.42	6.837e-08
3766.98	-1.37224e-08
3775.54	6.13469e-08
3784.1	6.88393e-08
3792.66	-2.13148e-08
3801.21	1.71417e-06
3809.77	2.33277e-07
3818.33	1.56412e-07
3826.89	7.8559e-07
3835.44	3.04117e-07
3844	5.313e-07
3852.56	7.00173e-07
3861.12	2.85085e-07
3869.67	5.95572e-07
3878.23	3.36897e-07
3886.79	4.70858e-07
3895.35	4.7698e-07
3903.9	7.88792e-07
3912.46	4.30629e-07
3921.02	2.82981e-07
3929.58	4.21916e-07
3938.13	4.46167e-07
3946.69	5.26722e-07
3955.25	6.08969e-07
3963.81	8.19165e-07
3972.37	1.38755e-06
