Infrared Spectrum: Butane
Formula: C4 H10
CAS: 106-97-8
State: gas
Melting point: -138.35 C
Boiling point: -0.5 C
Class: IUPAC A
Instrument: IFS66V (Bruker)
Instrument parameters: KBr Beam Splitter; MCT Detector; Multipass cell
Sampling: 1 L/min Flow
Resolution: 1.9290
Temperature: 23 C
Pressure: 101.3 Pa
Origin: NIST, Analytical Chemistry Division, 301-975-3108
cm-1	(micromol/mol)-1m-1 (base 10)
575.652	-2.09604e-07
584.33	1.27708e-07
593.008	-4.73772e-08
601.687	-8.52392e-08
610.365	-2.05818e-07
619.043	-5.96953e-08
627.721	-7.88955e-08
636.399	-1.39259e-07
645.077	-5.57927e-08
653.756	-1.40957e-07
662.434	-3.81558e-08
671.112	3.02387e-08
679.79	1.5683e-07
688.468	5.02912e-07
697.146	1.17624e-06
705.825	2.40408e-06
714.503	3.9816e-06
723.181	5.37258e-06
731.859	1.02761e-05
740.537	8.86422e-06
749.216	1.01257e-05
757.894	7.7845e-06
766.572	5.51247e-06
775.25	3.44843e-06
783.928	2.63342e-06
792.606	1.98946e-06
801.285	1.59805e-06
809.963	8.29358e-07
818.641	3.58304e-07
827.319	1.23317e-07
835.997	3.27335e-08
844.676	5.50796e-08
853.354	-9.19131e-09
862.032	-1.41926e-08
870.71	3.10445e-08
879.388	1.28147e-08
888.066	-3.78166e-09
896.745	2.8558e-09
905.423	7.81507e-08
914.101	3.07762e-07
922.779	8.35188e-07
931.457	2.13464e-06
940.135	5.42787e-06
948.814	1.10552e-05
957.492	1.70616e-05
966.17	1.91756e-05
974.848	1.63748e-05
983.526	1.04699e-05
992.205	6.97714e-06
1000.88	3.57087e-06
1009.56	1.84359e-06
1018.24	1.00026e-06
1026.92	5.57308e-07
1035.6	3.74814e-07
1044.27	1.26647e-07
1052.95	8.59132e-08
1061.63	1.22552e-07
1070.31	1.9949e-07
1078.99	1.61323e-07
1087.66	2.74655e-07
1096.34	2.23474e-07
1105.02	3.49084e-07
1113.7	9.09052e-07
1122.38	2.33051e-06
1131.06	2.80204e-06
1139.73	2.10903e-06
1148.41	2.00981e-06
1157.09	5.22176e-07
1165.77	1.69494e-07
1174.45	2.20285e-07
1183.12	2.16389e-07
1191.8	2.10118e-07
1200.48	2.21906e-07
1209.16	2.61968e-07
1217.84	3.50862e-07
1226.52	5.08068e-07
1235.19	7.35353e-07
1243.87	1.07841e-06
1252.55	1.54262e-06
1261.23	1.83329e-06
1269.91	2.42029e-06
1278.58	5.0721e-06
1287.26	7.95894e-06
1295.94	7.33592e-06
1304.62	7.50172e-06
1313.3	2.82547e-06
1321.98	2.02719e-06
1330.65	4.05121e-06
1339.33	3.97956e-06
1348.01	4.38197e-06
1356.69	6.78671e-06
1365.37	1.09211e-05
1374.04	2.50083e-05
1382.72	3.33858e-05
1391.4	3.68513e-05
1400.08	2.35982e-05
1408.76	9.79087e-06
1417.44	8.28843e-06
1426.11	1.11592e-05
1434.79	2.00637e-05
1443.47	3.74397e-05
1452.15	5.29361e-05
1460.83	7.21255e-05
1469.5	7.13279e-05
1478.18	5.75059e-05
1486.86	4.80054e-05
1495.54	2.87523e-05
1504.22	1.60259e-05
1512.9	8.32804e-06
1521.57	4.14067e-06
1530.25	1.94891e-06
1538.93	1.30939e-06
1547.61	9.77708e-07
1556.29	1.08864e-06
1564.96	1.332e-06
1573.64	1.59491e-06
1582.32	1.53196e-06
1591	1.41363e-06
1599.68	1.11186e-06
1608.36	9.10421e-07
1617.03	1.08079e-06
1625.71	8.99108e-07
1634.39	1.16195e-06
1643.07	1.02083e-06
1651.75	1.29216e-06
1660.42	1.32564e-06
1669.1	1.52966e-06
1677.78	1.30204e-06
1686.46	1.34721e-06
1695.14	1.2792e-06
1703.82	1.14215e-06
1712.49	1.11531e-06
1721.17	1.01475e-06
1729.85	8.26551e-07
1738.53	5.71527e-07
1747.21	3.77314e-07
1755.88	2.96604e-07
1764.56	2.72506e-07
1773.24	3.2758e-07
1781.92	3.4534e-07
1790.6	3.72404e-07
1799.28	4.10891e-07
1807.95	4.01529e-07
1816.63	3.70575e-07
1825.31	3.00097e-07
1833.99	1.50313e-07
1842.67	7.2852e-08
1851.34	1.55177e-08
1860.02	1.42617e-08
1868.7	4.96873e-08
1877.38	1.04782e-07
1886.06	2.38264e-07
1894.74	3.8163e-07
1903.41	4.798e-07
1912.09	4.5044e-07
1920.77	4.82385e-07
1929.45	3.83319e-07
1938.13	3.10222e-07
1946.8	1.90817e-07
1955.48	9.56256e-08
1964.16	1.06074e-08
1972.84	-3.53692e-08
1981.52	-3.26752e-08
1990.19	-3.26807e-08
1998.87	-1.13541e-08
2007.55	1.75768e-08
2016.23	1.40743e-07
2024.91	4.47402e-07
2033.59	6.08357e-07
2042.26	6.54485e-07
2050.94	5.69441e-07
2059.62	2.65665e-07
2068.3	1.61546e-07
2076.98	1.60313e-07
2085.65	2.31253e-07
2094.33	3.15267e-07
2103.01	4.04789e-07
2111.69	4.92721e-07
2120.37	6.03224e-07
2129.05	6.18406e-07
2137.72	6.16201e-07
2146.4	6.64411e-07
2155.08	6.3217e-07
2163.76	6.78535e-07
2172.44	7.51608e-07
2181.11	6.6129e-07
2189.79	7.00676e-07
2198.47	6.81732e-07
2207.15	7.16734e-07
2215.83	6.91527e-07
2224.51	6.58051e-07
2233.18	5.42122e-07
2241.86	4.37433e-07
2250.54	4.78286e-07
2259.22	5.41188e-07
2267.9	5.85325e-07
2276.57	6.61745e-07
2285.25	8.00901e-07
2293.93	8.26352e-07
2302.61	9.74308e-07
2311.29	9.08918e-07
2319.97	8.03875e-07
2328.64	7.48984e-07
2337.32	8.48384e-07
2346	1.0132e-06
2354.68	8.77627e-07
2363.36	6.17763e-07
2372.03	1.04882e-06
2380.71	1.59244e-06
2389.39	1.49164e-06
2398.07	1.68949e-06
2406.75	1.17104e-06
2415.43	1.50752e-06
2424.1	1.62629e-06
2432.78	1.92233e-06
2441.46	1.76072e-06
2450.14	1.60763e-06
2458.82	9.67374e-07
2467.49	5.78611e-07
2476.17	3.77138e-07
2484.85	2.91297e-07
2493.53	2.2552e-07
2502.21	2.48046e-07
2510.89	4.06882e-07
2519.56	5.97989e-07
2528.24	7.76864e-07
2536.92	7.43818e-07
2545.6	7.37371e-07
2554.28	6.28376e-07
2562.95	7.74224e-07
2571.63	1.14716e-06
2580.31	1.7168e-06
2588.99	2.54077e-06
2597.67	3.50624e-06
2606.35	3.67693e-06
2615.02	4.19133e-06
2623.7	4.22634e-06
2632.38	4.54169e-06
2641.06	4.41184e-06
2649.74	4.79378e-06
2658.41	4.76241e-06
2667.09	4.3015e-06
2675.77	3.78704e-06
2684.45	4.08948e-06
2693.13	3.27986e-06
2701.81	3.22965e-06
2710.48	4.06029e-06
2719.16	5.13846e-06
2727.84	7.86108e-06
2736.52	1.02196e-05
2745.2	9.58589e-06
2753.87	1.08091e-05
2762.55	7.23897e-06
2771.23	6.15227e-06
2779.91	6.49387e-06
2788.59	6.99154e-06
2797.27	8.27203e-06
2805.94	1.05921e-05
2814.62	1.44937e-05
2823.3	2.11624e-05
2831.98	3.041e-05
2840.66	4.63412e-05
2849.33	7.11257e-05
2858.01	0.000117117
2866.69	0.000169319
2875.37	0.000255286
2884.05	0.000254006
2892.73	0.000272343
2901.4	0.000246158
2910.08	0.000235448
2918.76	0.000279527
2927.44	0.000362086
2936.12	0.000427727
2944.79	0.00047384
2953.47	0.000542436
2962.15	0.000653268
2970.83	0.000601895
2979.51	0.000565052
2988.19	0.000366502
2996.86	0.0001611
3005.54	6.89689e-05
3014.22	2.83392e-05
3022.9	1.36594e-05
3031.58	9.04307e-06
3040.25	7.52633e-06
3048.93	6.89559e-06
3057.61	6.80383e-06
3066.29	7.3822e-06
3074.97	8.01136e-06
3083.65	8.0826e-06
3092.32	7.39259e-06
3101	5.86255e-06
3109.68	4.70681e-06
3118.36	4.13145e-06
3127.04	4.12925e-06
3135.71	4.506e-06
3144.39	5.03742e-06
3153.07	5.71585e-06
3161.75	6.5958e-06
3170.43	7.30578e-06
3179.11	7.04583e-06
3187.78	7.06227e-06
3196.46	5.48396e-06
3205.14	4.63392e-06
3213.82	4.13623e-06
3222.5	4.174e-06
3231.17	3.31017e-06
3239.85	2.8623e-06
3248.53	1.84499e-06
3257.21	1.03674e-06
3265.89	7.22441e-07
3274.57	7.28718e-07
3283.24	7.32419e-07
3291.92	7.28377e-07
3300.6	7.05305e-07
3309.28	5.32572e-07
3317.96	4.21272e-07
3326.63	4.45874e-07
3335.31	5.45625e-07
3343.99	6.86951e-07
3352.67	7.24775e-07
3361.35	7.51563e-07
3370.03	7.94278e-07
3378.7	9.14644e-07
3387.38	1.14401e-06
3396.06	1.23876e-06
3404.74	1.11302e-06
3413.42	8.43039e-07
3422.09	3.77142e-07
3430.77	2.61767e-07
3439.45	1.71143e-07
3448.13	1.1386e-07
3456.81	6.81608e-08
3465.49	9.07616e-08
3474.16	1.08583e-07
3482.84	1.2286e-07
3491.52	7.82316e-08
3500.2	9.29726e-08
3508.88	9.4054e-08
3517.55	2.69036e-08
3526.23	-4.38829e-09
3534.91	-5.13862e-10
3543.59	-2.23371e-09
3552.27	2.46572e-08
3560.95	6.56752e-08
3569.62	1.38273e-07
3578.3	1.84633e-07
3586.98	2.62457e-07
3595.66	3.36658e-07
3604.34	4.26462e-07
3613.01	6.04618e-07
3621.69	6.79951e-07
3630.37	7.72395e-07
3639.05	7.96214e-07
3647.73	8.45288e-07
3656.41	7.96936e-07
3665.08	8.01937e-07
3673.76	8.69381e-07
3682.44	9.8361e-07
3691.12	1.03433e-06
3699.8	9.85487e-07
3708.47	1.03604e-06
3717.15	1.24778e-06
3725.83	1.21164e-06
3734.51	1.27956e-06
3743.19	9.85549e-07
3751.87	8.00664e-07
3760.54	6.47108e-07
3769.22	5.89166e-07
3777.9	5.60125e-07
3786.58	5.15153e-07
3795.26	5.01282e-07
3803.93	5.05687e-07
3812.61	5.42544e-07
3821.29	7.05556e-07
3829.97	8.42141e-07
3838.65	1.3921e-06
3847.33	1.61992e-06
3856	1.84082e-06
3864.68	1.65435e-06
3873.36	1.3663e-06
3882.04	1.2059e-06
3890.72	1.07423e-06
3899.39	9.95517e-07
3908.07	8.40269e-07
3916.75	7.60788e-07
3925.43	6.57337e-07
3934.11	6.2717e-07
3942.79	5.65555e-07
3951.46	4.65994e-07
3960.14	4.7455e-07
3968.82	4.83335e-07
