Infrared Spectrum: 1,4-Dimethylbenzene
Formula: 1,4-( C H3)2 C6 H4
CAS: 106-42-3
State: gas
Melting point: 13.26 C
Boiling point: 138.35 C
Class: IUPAC A
Instrument: IFS66V (Bruker)
Instrument parameters: KBr Beam Splitter; MCT Detector; Multipass cell
Sampling: 1 L/min Flow
Resolution: 0.2410
Temperature: 23 C
Pressure: 101.3 Pa
Origin: NIST, Analytical Chemistry Division, 301-975-3108
cm-1	(micromol/mol)-1m-1 (base 10)
575.05	4.28888e-07
583.608	-5.78898e-07
592.165	9.30138e-07
600.723	-1.7905e-07
609.281	-9.2714e-07
617.838	3.77413e-07
626.396	-7.53414e-07
634.954	-3.86824e-07
643.511	-2.43934e-07
652.069	-1.00461e-06
660.626	2.69699e-07
669.184	-1.08574e-06
677.742	-2.92141e-07
686.299	1.54886e-08
694.857	1.9361e-07
703.415	1.731e-07
711.972	-3.91453e-07
720.53	2.37041e-07
729.088	1.89211e-07
737.645	2.16837e-07
746.203	3.21596e-08
754.761	8.802e-07
763.318	3.78459e-06
771.876	2.35288e-05
780.434	9.98654e-05
788.991	0.000171453
797.549	0.00018733
806.106	0.000150138
814.664	4.46568e-05
823.222	8.08808e-06
831.779	4.45857e-06
840.337	3.12422e-06
848.895	1.15235e-06
857.452	6.65364e-07
866.01	8.55958e-07
874.568	1.28332e-06
883.125	8.88966e-07
891.683	1.34603e-06
900.241	1.29449e-06
908.798	1.66563e-06
917.356	2.59722e-06
925.914	2.83956e-06
934.471	2.48948e-06
943.029	2.67299e-06
951.586	3.42327e-06
960.144	4.18182e-06
968.702	4.47528e-06
977.259	4.68732e-06
985.817	4.72654e-06
994.375	4.79275e-06
1002.93	4.86526e-06
1011.49	7.04148e-06
1020.05	2.17393e-05
1028.61	2.69081e-05
1037.16	1.73517e-05
1045.72	2.48233e-05
1054.28	2.34332e-05
1062.84	1.73187e-05
1071.39	1.1279e-05
1079.95	8.78674e-06
1088.51	1.19515e-05
1097.07	1.91466e-05
1105.62	2.57776e-05
1114.18	4.07934e-05
1122.74	3.20665e-05
1131.3	1.98302e-05
1139.85	7.34862e-06
1148.41	4.00652e-06
1156.97	3.22623e-06
1165.53	3.35831e-06
1174.09	3.39643e-06
1182.64	3.35244e-06
1191.2	2.96174e-06
1199.76	2.52726e-06
1208.32	5.32475e-06
1216.87	1.34581e-05
1225.43	1.74682e-05
1233.99	1.38653e-05
1242.55	1.25343e-05
1251.1	5.27679e-06
1259.66	3.3347e-06
1268.22	2.95574e-06
1276.78	2.40052e-06
1285.33	2.40549e-06
1293.89	2.42378e-06
1302.45	3.24144e-06
1311.01	4.96045e-06
1319.57	5.3763e-06
1328.12	6.213e-06
1336.68	6.74371e-06
1345.24	8.77955e-06
1353.8	8.46072e-06
1362.35	7.65802e-06
1370.91	9.98276e-06
1379.47	1.96623e-05
1388.03	2.58557e-05
1396.58	1.70514e-05
1405.14	1.72721e-05
1413.7	2.26049e-05
1422.26	3.12774e-05
1430.81	3.59773e-05
1439.37	3.6227e-05
1447.93	2.83532e-05
1456.49	3.24533e-05
1465.05	3.98204e-05
1473.6	4.16809e-05
1482.16	3.83366e-05
1490.72	4.02502e-05
1499.28	5.31495e-05
1507.83	8.63369e-05
1516.39	0.000229428
1524.95	0.000240106
1533.51	5.69418e-05
1542.06	1.94414e-05
1550.62	1.50462e-05
1559.18	1.16967e-05
1567.74	9.23221e-06
1576.29	5.4213e-06
1584.85	5.29949e-06
1593.41	5.17402e-06
1601.97	5.79985e-06
1610.53	8.89258e-06
1619.08	1.58797e-05
1627.64	1.40703e-05
1636.2	1.15204e-05
1644.76	4.4885e-06
1653.31	3.4567e-07
1661.87	2.07063e-06
1670.43	1.47943e-06
1678.99	9.06206e-07
1687.54	1.03898e-06
1696.1	-3.61741e-08
1704.66	7.62526e-07
1713.22	1.35357e-06
1721.77	3.14139e-06
1730.33	2.89341e-06
1738.89	2.22197e-06
1747.45	3.22167e-06
1756.01	3.49585e-06
1764.56	2.85415e-06
1773.12	3.63184e-06
1781.68	1.00795e-05
1790.24	1.21487e-05
1798.79	5.9701e-06
1807.35	1.44638e-06
1815.91	9.79334e-07
1824.47	1.28732e-06
1833.02	3.29361e-06
1841.58	4.14743e-06
1850.14	2.75323e-06
1858.7	1.9617e-06
1867.25	4.39695e-06
1875.81	1.08856e-05
1884.37	2.11936e-05
1892.93	2.16491e-05
1901.49	9.788e-06
1910.04	3.50147e-06
1918.6	2.2449e-06
1927.16	2.13535e-06
1935.72	1.35187e-06
1944.27	7.89439e-07
1952.83	1.04305e-06
1961.39	7.4944e-07
1969.95	9.74298e-07
1978.5	1.23079e-06
1987.06	1.31264e-06
1995.62	1.24044e-06
2004.18	9.44365e-07
2012.73	6.47634e-07
2021.29	4.21253e-07
2029.85	2.70455e-07
2038.41	2.63788e-07
2046.97	1.7023e-07
2055.52	3.90317e-08
2064.08	-6.35815e-08
2072.64	9.34292e-08
2081.2	1.29895e-07
2089.75	5.30278e-07
2098.31	1.53618e-06
2106.87	1.68577e-06
2115.43	1.42189e-06
2123.98	2.98494e-07
2132.54	-1.49833e-07
2141.1	-2.94821e-07
2149.66	-2.15742e-07
2158.21	1.404e-06
2166.77	1.67268e-07
2175.33	1.1345e-07
2183.89	-5.26667e-08
2192.45	4.91297e-08
2201	4.12183e-07
2209.56	1.21576e-06
2218.12	6.31646e-07
2226.68	-3.26989e-08
2235.23	2.22188e-08
2243.79	-1.91043e-07
2252.35	-5.26149e-08
2260.91	1.09721e-07
2269.46	4.454e-07
2278.02	4.33379e-07
2286.58	7.30359e-07
2295.14	1.53386e-06
2303.69	2.23349e-06
2312.25	2.75183e-06
2320.81	1.45035e-06
2329.37	1.47417e-06
2337.93	2.54888e-06
2346.48	2.15753e-06
2355.04	1.01942e-06
2363.6	6.95573e-07
2372.16	3.29264e-07
2380.71	6.69149e-07
2389.27	5.98648e-07
2397.83	4.93545e-07
2406.39	1.01848e-06
2414.94	1.41243e-06
2423.5	1.50466e-06
2432.06	1.45719e-06
2440.62	1.23382e-06
2449.17	9.50726e-07
2457.73	8.25249e-07
2466.29	6.7697e-07
2474.85	9.59255e-07
2483.41	7.13646e-07
2491.96	7.70962e-07
2500.52	5.3837e-07
2509.08	3.43745e-07
2517.64	3.75094e-07
2526.19	2.86131e-07
2534.75	1.22841e-07
2543.31	3.26852e-07
2551.87	-4.77255e-08
2560.42	4.34563e-08
2568.98	3.96137e-08
2577.54	1.18846e-06
2586.1	2.79475e-06
2594.65	3.40197e-06
2603.21	1.69068e-06
2611.77	1.14442e-06
2620.33	3.76328e-07
2628.89	1.03872e-07
2637.44	3.58593e-07
2646	1.41779e-07
2654.56	4.83576e-08
2663.12	-2.23947e-07
2671.67	-1.12845e-07
2680.23	-2.9856e-07
2688.79	-3.02499e-07
2697.35	7.43335e-08
2705.9	1.07101e-06
2714.46	1.75153e-06
2723.02	2.19485e-06
2731.58	5.27395e-06
2740.13	1.45655e-05
2748.69	1.68746e-05
2757.25	3.30249e-06
2765.81	1.3546e-06
2774.37	1.03113e-06
2782.92	1.12146e-06
2791.48	2.0287e-06
2800.04	2.80755e-06
2808.6	3.54827e-06
2817.15	5.48475e-06
2825.71	7.98956e-06
2834.27	1.1584e-05
2842.83	1.53855e-05
2851.38	2.1752e-05
2859.94	4.30572e-05
2868.5	0.000100671
2877.06	0.00015341
2885.61	0.000151511
2894.17	0.000123428
2902.73	0.000105287
2911.29	9.6752e-05
2919.85	0.000133791
2928.4	0.000245918
2936.96	0.00030548
2945.52	0.000230265
2954.08	0.000118791
2962.63	9.53457e-05
2971.19	7.3463e-05
2979.75	8.77532e-05
2988.31	0.000115438
2996.86	0.000166656
3005.42	0.000209741
3013.98	0.000196534
3022.54	0.000238463
3031.09	0.000229476
3039.65	0.000164774
3048.21	0.000155529
3056.77	0.000147883
3065.33	0.000117853
3073.88	5.71047e-05
3082.44	2.96585e-05
3091	2.54351e-05
3099.56	2.74663e-05
3108.11	2.64137e-05
3116.67	1.68777e-05
3125.23	7.25982e-06
3133.79	6.50924e-06
3142.34	9.38312e-06
3150.9	7.70312e-06
3159.46	2.01348e-06
3168.02	5.39487e-07
3176.57	-1.60598e-08
3185.13	4.46532e-08
3193.69	-4.62001e-07
3202.25	-1.97754e-07
3210.81	-2.16216e-07
3219.36	-4.68905e-07
3227.92	-2.30567e-07
3236.48	-3.52454e-07
3245.04	1.90324e-07
3253.59	-8.96766e-08
3262.15	1.02716e-07
3270.71	-1.91742e-07
3279.27	3.64205e-07
3287.82	-1.36571e-07
3296.38	4.23049e-08
3304.94	-5.1107e-08
3313.5	1.89447e-09
3322.05	-3.79785e-08
3330.61	-3.38353e-07
3339.17	-1.53582e-07
3347.73	-2.01879e-07
3356.29	9.10854e-09
3364.84	-3.43807e-07
3373.4	1.51251e-07
3381.96	3.43651e-08
3390.52	7.54408e-07
3399.07	2.43393e-07
3407.63	1.00914e-07
3416.19	-1.25997e-07
3424.75	-4.54408e-08
3433.3	4.72959e-07
3441.86	3.01902e-07
3450.42	5.41644e-07
3458.98	7.67619e-08
3467.53	-4.44559e-07
3476.09	-2.63502e-07
3484.65	-1.23308e-07
3493.21	-7.39952e-08
3501.77	-2.82955e-07
3510.32	-2.3881e-07
3518.88	-5.63282e-07
3527.44	-4.24283e-07
3536	-2.44544e-07
3544.55	-3.09212e-07
3553.11	-5.99372e-07
3561.67	-5.84878e-07
3570.23	-3.53867e-07
3578.78	-4.2804e-07
3587.34	-2.54177e-07
3595.9	-1.91634e-07
3604.46	-3.97884e-07
3613.01	3.7803e-08
3621.57	5.62201e-08
3630.13	-6.0241e-08
3638.69	4.97373e-08
3647.25	-1.48944e-07
3655.8	6.24862e-07
3664.36	9.29783e-07
3672.92	1.2264e-06
3681.48	1.08852e-06
3690.03	4.4153e-07
3698.59	2.97115e-07
3707.15	1.60762e-07
3715.71	1.56932e-07
3724.26	8.08964e-08
3732.82	1.08343e-07
3741.38	2.13e-07
3749.94	4.73993e-07
3758.49	8.77069e-07
3767.05	8.40876e-07
3775.61	6.60907e-07
3784.17	5.05525e-07
3792.73	2.04517e-07
3801.28	-7.15742e-07
3809.84	8.09271e-07
3818.4	8.26394e-07
3826.96	7.38403e-07
3835.51	1.43832e-06
3844.07	1.63057e-06
3852.63	1.4859e-06
3861.19	1.61124e-06
3869.74	1.56305e-06
3878.3	1.82719e-06
3886.86	2.18404e-06
3895.42	2.02835e-06
3903.97	2.07853e-06
3912.53	1.83928e-06
3921.09	2.259e-06
3929.65	2.06222e-06
3938.21	2.15457e-06
3946.76	2.14772e-06
3955.32	1.90923e-06
3963.88	2.27019e-06
3972.44	2.32008e-06
