Infrared Spectrum: 1,4-Dimethylbenzene
Formula: 1,4-( C H3)2 C6 H4
CAS: 106-42-3
State: gas
Melting point: 13.26 C
Boiling point: 138.35 C
Class: IUPAC A
Instrument: IFS66V (Bruker)
Instrument parameters: KBr Beam Splitter; MCT Detector; Multipass cell
Sampling: 1 L/min Flow
Resolution: 0.9640
Temperature: 23 C
Pressure: 101.3 Pa
Origin: NIST, Analytical Chemistry Division, 301-975-3108
cm-1	(micromol/mol)-1m-1 (base 10)
575.17	1.62743e-06
583.848	-3.51363e-07
592.526	-2.00952e-08
601.205	-8.32254e-07
609.883	-9.80612e-08
618.561	-4.69592e-07
627.239	-3.96862e-07
635.917	-8.26193e-07
644.595	-3.48263e-07
653.274	-1.04657e-07
661.952	-3.92608e-07
670.63	-2.7444e-07
679.308	2.08998e-07
687.986	-5.40501e-08
696.664	3.03745e-07
705.343	1.09912e-07
714.021	2.51214e-07
722.699	2.5896e-07
731.377	3.77208e-07
740.055	3.61372e-07
748.734	5.51743e-07
757.412	1.12821e-06
766.09	6.94562e-06
774.768	4.1882e-05
783.446	0.00013752
792.124	0.000194275
800.803	0.000180043
809.481	0.000105408
818.159	2.03442e-05
826.837	6.13713e-06
835.515	4.34017e-06
844.194	1.79632e-06
852.872	1.05189e-06
861.55	8.07237e-07
870.228	1.10746e-06
878.906	1.16513e-06
887.584	1.26203e-06
896.263	1.48161e-06
904.941	1.47487e-06
913.619	2.36834e-06
922.297	2.94747e-06
930.975	2.66585e-06
939.653	2.64255e-06
948.332	3.22418e-06
957.01	4.28295e-06
965.688	4.58747e-06
974.366	4.55941e-06
983.044	4.48419e-06
991.723	4.75359e-06
1000.4	5.11577e-06
1009.08	5.43737e-06
1017.76	2.17961e-05
1026.44	2.10552e-05
1035.11	1.80034e-05
1043.79	2.36818e-05
1052.47	2.45152e-05
1061.15	1.85446e-05
1069.83	1.23275e-05
1078.5	9.05196e-06
1087.18	1.11169e-05
1095.86	1.85714e-05
1104.54	2.40308e-05
1113.22	3.93116e-05
1121.9	2.86812e-05
1130.57	2.19595e-05
1139.25	7.80899e-06
1147.93	3.94657e-06
1156.61	3.16391e-06
1165.29	3.19196e-06
1173.96	3.28218e-06
1182.64	3.39793e-06
1191.32	3.00577e-06
1200	2.68874e-06
1208.68	5.58491e-06
1217.36	1.30521e-05
1226.03	1.75058e-05
1234.71	1.37047e-05
1243.39	1.1994e-05
1252.07	4.78644e-06
1260.75	3.07294e-06
1269.42	2.89974e-06
1278.1	2.33241e-06
1286.78	2.32153e-06
1295.46	2.5224e-06
1304.14	3.66003e-06
1312.82	5.06728e-06
1321.49	5.77864e-06
1330.17	6.28147e-06
1338.85	7.57527e-06
1347.53	8.53905e-06
1356.21	8.68967e-06
1364.88	8.3947e-06
1373.56	1.13364e-05
1382.24	2.08901e-05
1390.92	2.4573e-05
1399.6	1.58017e-05
1408.28	1.91565e-05
1416.95	2.48179e-05
1425.63	3.48435e-05
1434.31	3.64815e-05
1442.99	3.29745e-05
1451.67	3.23438e-05
1460.34	3.2044e-05
1469.02	4.72894e-05
1477.7	3.59902e-05
1486.38	4.14816e-05
1495.06	4.55844e-05
1503.73	5.7598e-05
1512.41	0.00018883
1521.09	0.000244254
1529.77	0.000130008
1538.45	2.65705e-05
1547.13	1.60099e-05
1555.8	1.28069e-05
1564.48	1.01099e-05
1573.16	7.65195e-06
1581.84	5.78036e-06
1590.52	4.90019e-06
1599.19	5.5379e-06
1607.87	7.5979e-06
1616.55	1.28494e-05
1625.23	1.55375e-05
1633.91	1.42996e-05
1642.59	5.74655e-06
1651.26	2.50202e-06
1659.94	1.77839e-06
1668.62	1.43735e-06
1677.3	1.23503e-06
1685.98	9.00706e-07
1694.65	8.30288e-07
1703.33	8.19471e-07
1712.01	1.11308e-06
1720.69	2.93561e-06
1729.37	2.85691e-06
1738.05	2.26653e-06
1746.72	2.99053e-06
1755.4	3.43915e-06
1764.08	2.81123e-06
1772.76	3.11979e-06
1781.44	9.87563e-06
1790.11	1.19563e-05
1798.79	5.97801e-06
1807.47	1.4271e-06
1816.15	9.4336e-07
1824.83	1.24699e-06
1833.51	3.36791e-06
1842.18	4.08268e-06
1850.86	2.65499e-06
1859.54	2.19699e-06
1868.22	4.74467e-06
1876.9	1.22513e-05
1885.57	2.04364e-05
1894.25	2.188e-05
1902.93	8.43043e-06
1911.61	3.2506e-06
1920.29	2.336e-06
1928.97	1.93479e-06
1937.64	1.04255e-06
1946.32	7.89755e-07
1955	1.17861e-06
1963.68	8.92813e-07
1972.36	1.08606e-06
1981.03	1.41549e-06
1989.71	1.27011e-06
1998.39	1.03708e-06
2007.07	8.91317e-07
2015.75	5.87522e-07
2024.43	2.7169e-07
2033.1	3.59581e-07
2041.78	3.62099e-07
2050.46	2.03613e-07
2059.14	-3.36966e-09
2067.82	-1.02411e-07
2076.49	9.10672e-09
2085.17	2.21704e-07
2093.85	8.49845e-07
2102.53	1.90679e-06
2111.21	2.04502e-06
2119.89	7.0894e-07
2128.56	-1.12714e-07
2137.24	-1.46797e-07
2145.92	-1.19594e-07
2154.6	4.28163e-07
2163.28	-7.57423e-09
2171.95	2.0753e-07
2180.63	1.16994e-07
2189.31	8.01843e-08
2197.99	1.26911e-07
2206.67	8.01885e-07
2215.35	7.86562e-07
2224.02	9.07071e-08
2232.7	-1.17633e-08
2241.38	-1.09103e-07
2250.06	-1.7991e-07
2258.74	-5.03075e-08
2267.41	1.11438e-07
2276.09	4.7485e-07
2284.77	6.10055e-07
2293.45	1.2346e-06
2302.13	2.45117e-06
2310.81	2.62892e-06
2319.48	1.76397e-06
2328.16	1.72321e-06
2336.84	2.28939e-06
2345.52	2.46137e-06
2354.2	1.73678e-06
2362.87	1.68883e-06
2371.55	9.36949e-07
2380.23	4.83573e-07
2388.91	5.37039e-07
2397.59	5.38233e-07
2406.27	1.04182e-06
2414.94	1.44034e-06
2423.62	1.55484e-06
2432.3	1.33561e-06
2440.98	1.1729e-06
2449.66	9.13499e-07
2458.33	7.2301e-07
2467.01	8.66178e-07
2475.69	7.97482e-07
2484.37	7.81666e-07
2493.05	6.66392e-07
2501.73	4.51733e-07
2510.4	3.46347e-07
2519.08	2.89026e-07
2527.76	3.25938e-07
2536.44	2.60385e-07
2545.12	1.359e-07
2553.79	-1.35506e-07
2562.47	-1.59508e-07
2571.15	1.71635e-07
2579.83	1.48358e-06
2588.51	3.00908e-06
2597.19	3.16393e-06
2605.86	1.65762e-06
2614.54	8.34314e-07
2623.22	2.52935e-07
2631.9	1.52899e-07
2640.58	4.28452e-07
2649.25	2.69277e-07
2657.93	-6.65919e-08
2666.61	-1.15737e-07
2675.29	-1.19285e-07
2683.97	1.32849e-08
2692.65	1.232e-07
2701.32	7.58154e-07
2710	1.4752e-06
2718.68	1.95862e-06
2727.36	2.89224e-06
2736.04	1.09899e-05
2744.71	1.74023e-05
2753.39	7.93063e-06
2762.07	1.6294e-06
2770.75	8.4145e-07
2779.43	1.15156e-06
2788.11	1.63451e-06
2796.78	2.35866e-06
2805.46	3.46118e-06
2814.14	4.64313e-06
2822.82	6.9844e-06
2831.5	1.02433e-05
2840.17	1.3665e-05
2848.85	1.92336e-05
2857.53	3.4613e-05
2866.21	8.20761e-05
2874.89	0.00014372
2883.57	0.000156192
2892.24	0.000128091
2900.92	0.000108462
2909.6	9.65662e-05
2918.28	0.000121626
2926.96	0.000223647
2935.63	0.000306675
2944.31	0.000251057
2952.99	0.000130828
2961.67	9.75065e-05
2970.35	7.37245e-05
2979.03	8.58449e-05
2987.7	0.000112168
2996.38	0.000162679
3005.06	0.000211224
3013.74	0.000196698
3022.42	0.000237859
3031.09	0.000229814
3039.77	0.000163539
3048.45	0.000154993
3057.13	0.000147589
3065.81	0.000113989
3074.49	5.39605e-05
3083.16	2.87398e-05
3091.84	2.54791e-05
3100.52	2.7293e-05
3109.2	2.51894e-05
3117.88	1.55834e-05
3126.55	6.463e-06
3135.23	7.25711e-06
3143.91	9.35996e-06
3152.59	6.52274e-06
3161.27	1.37426e-06
3169.95	3.59087e-07
3178.62	-3.45633e-08
3187.3	-2.53965e-07
3195.98	-3.00501e-07
3204.66	-3.9693e-07
3213.34	-3.26736e-07
3222.01	-2.58443e-07
3230.69	-1.64196e-07
3239.37	-3.06675e-07
3248.05	-2.50068e-07
3256.73	-3.06625e-08
3265.41	4.83321e-08
3274.08	-4.44277e-08
3282.76	5.43084e-08
3291.44	2.30291e-07
3300.12	-5.84966e-08
3308.8	-1.2635e-07
3317.47	-1.30193e-08
3326.15	6.5828e-08
3334.83	5.38846e-08
3343.51	-2.91737e-08
3352.19	-2.03253e-08
3360.86	-1.25598e-07
3369.54	-5.26486e-08
3378.22	2.70423e-07
3386.9	3.00702e-07
3395.58	2.39029e-07
3404.26	4.16064e-08
3412.93	6.44374e-08
3421.61	-1.49538e-08
3430.29	9.40967e-08
3438.97	1.7258e-07
3447.65	8.76939e-08
3456.32	1.13609e-07
3465	-2.87989e-07
3473.68	-3.2861e-07
3482.36	-2.92068e-07
3491.04	-1.86555e-07
3499.72	-2.83223e-07
3508.39	-1.48644e-07
3517.07	-2.73445e-07
3525.75	-2.75777e-07
3534.43	-5.14571e-07
3543.11	-1.74743e-07
3551.78	-5.82387e-07
3560.46	-6.37011e-07
3569.14	-6.10811e-07
3577.82	-5.3486e-07
3586.5	-6.82855e-07
3595.18	-3.1584e-07
3603.85	-1.55918e-07
3612.53	-3.22159e-07
3621.21	-1.90135e-07
3629.89	-3.4546e-07
3638.57	5.16609e-08
3647.24	8.63288e-08
3655.92	4.44001e-07
3664.6	9.62313e-07
3673.28	1.06923e-06
3681.96	1.03546e-06
3690.64	3.34781e-07
3699.31	4.86673e-07
3707.99	2.19473e-07
3716.67	5.08769e-08
3725.35	7.74804e-08
3734.03	1.06067e-07
3742.7	4.48155e-07
3751.38	6.71217e-07
3760.06	7.13477e-07
3768.74	7.54005e-07
3777.42	3.57557e-07
3786.1	2.92552e-07
3794.77	4.13879e-07
3803.45	3.98581e-07
3812.13	6.19359e-07
3820.81	5.40431e-07
3829.49	1.18625e-06
3838.16	7.32603e-07
3846.84	1.63832e-06
3855.52	1.72673e-06
3864.2	1.69606e-06
3872.88	1.83917e-06
3881.56	1.90725e-06
3890.23	2.03786e-06
3898.91	1.82691e-06
3907.59	1.97716e-06
3916.27	2.16243e-06
3924.95	2.3057e-06
3933.62	2.36364e-06
3942.3	2.20481e-06
3950.98	2.02635e-06
3959.66	2.07898e-06
3968.34	2.059e-06
