Infrared Spectrum: 1,4-Dimethylbenzene
Formula: 1,4-( C H3)2 C6 H4
CAS: 106-42-3
State: gas
Melting point: 13.26 C
Boiling point: 138.35 C
Class: IUPAC A
Instrument: IFS66V (Bruker)
Instrument parameters: KBr Beam Splitter; MCT Detector; Multipass cell
Sampling: 1 L/min Flow
Resolution: 0.1250
Temperature: 23 C
Pressure: 101.3 Pa
Origin: NIST, Analytical Chemistry Division, 301-975-3108
cm-1	(micromol/mol)-1m-1 (base 10)
575.05	-3.68994e-07
583.608	-1.50421e-06
592.165	1.35158e-06
600.723	1.4097e-07
609.281	-1.2212e-06
617.838	6.15684e-07
626.396	-6.91442e-07
634.954	-3.10634e-07
643.511	-3.41107e-07
652.069	-1.42341e-06
660.626	3.52257e-07
669.184	-1.33407e-06
677.742	-3.43419e-07
686.299	-2.61097e-07
694.857	1.20649e-07
703.415	1.64365e-07
711.972	-5.3962e-07
720.53	2.42701e-07
729.088	2.15385e-07
737.645	2.0574e-07
746.203	-1.37142e-07
754.761	8.17829e-07
763.318	3.90155e-06
771.876	2.362e-05
780.434	9.98346e-05
788.991	0.000171413
797.549	0.000187511
806.106	0.00015015
814.664	4.45345e-05
823.222	8.09988e-06
831.779	4.39375e-06
840.337	3.11691e-06
848.895	1.06345e-06
857.452	6.80403e-07
866.01	8.17554e-07
874.568	1.29016e-06
883.125	9.31569e-07
891.683	1.27536e-06
900.241	1.26019e-06
908.798	1.6578e-06
917.356	2.5791e-06
925.914	2.74165e-06
934.471	2.49261e-06
943.029	2.65514e-06
951.586	3.49876e-06
960.144	4.1832e-06
968.702	4.52939e-06
977.259	4.78918e-06
985.817	4.78628e-06
994.375	4.80559e-06
1002.93	4.78438e-06
1011.49	7.10627e-06
1020.05	2.17049e-05
1028.61	2.68107e-05
1037.16	1.74169e-05
1045.72	2.4748e-05
1054.28	2.34636e-05
1062.84	1.73515e-05
1071.39	1.11603e-05
1079.95	8.82873e-06
1088.51	1.19615e-05
1097.07	1.91042e-05
1105.62	2.58504e-05
1114.18	4.07906e-05
1122.74	3.20735e-05
1131.3	1.97705e-05
1139.85	7.31062e-06
1148.41	4.15368e-06
1156.97	3.2934e-06
1165.53	3.38946e-06
1174.09	3.48033e-06
1182.64	3.45103e-06
1191.2	2.9401e-06
1199.76	2.47063e-06
1208.32	5.38661e-06
1216.87	1.3503e-05
1225.43	1.7496e-05
1233.99	1.39036e-05
1242.55	1.26065e-05
1251.1	5.23885e-06
1259.66	3.42581e-06
1268.22	2.96511e-06
1276.78	2.4621e-06
1285.33	2.41196e-06
1293.89	2.39839e-06
1302.45	3.27773e-06
1311.01	4.97578e-06
1319.57	5.46518e-06
1328.12	6.16527e-06
1336.68	6.67011e-06
1345.24	8.79953e-06
1353.8	8.45899e-06
1362.35	7.576e-06
1370.91	1.01641e-05
1379.47	1.96387e-05
1388.03	2.5819e-05
1396.58	1.71092e-05
1405.14	1.72367e-05
1413.7	2.25445e-05
1422.26	3.12611e-05
1430.81	3.59515e-05
1439.37	3.62105e-05
1447.93	2.83178e-05
1456.49	3.2394e-05
1465.05	3.98838e-05
1473.6	4.16628e-05
1482.16	3.84328e-05
1490.72	4.0169e-05
1499.28	5.31421e-05
1507.83	8.63711e-05
1516.39	0.000229412
1524.95	0.000240126
1533.51	5.69703e-05
1542.06	1.94206e-05
1550.62	1.49911e-05
1559.18	1.17117e-05
1567.74	9.17505e-06
1576.29	5.37542e-06
1584.85	5.30702e-06
1593.41	5.16768e-06
1601.97	5.85028e-06
1610.53	8.87366e-06
1619.08	1.5892e-05
1627.64	1.40991e-05
1636.2	1.15511e-05
1644.76	4.49166e-06
1653.31	1.46176e-07
1661.87	2.0702e-06
1670.43	1.55097e-06
1678.99	9.45994e-07
1687.54	1.09343e-06
1696.1	1.0177e-07
1704.66	7.74825e-07
1713.22	1.36499e-06
1721.77	3.19154e-06
1730.33	2.89097e-06
1738.89	2.23133e-06
1747.45	3.25387e-06
1756.01	3.56887e-06
1764.56	2.85875e-06
1773.12	3.66091e-06
1781.68	1.00564e-05
1790.24	1.21197e-05
1798.79	5.92519e-06
1807.35	1.43157e-06
1815.91	1.0214e-06
1824.47	1.3043e-06
1833.02	3.27299e-06
1841.58	4.18395e-06
1850.14	2.72924e-06
1858.7	1.93842e-06
1867.25	4.45146e-06
1875.81	1.08652e-05
1884.37	2.11898e-05
1892.93	2.16266e-05
1901.49	9.79351e-06
1910.04	3.52425e-06
1918.6	2.24745e-06
1927.16	2.16742e-06
1935.72	1.34342e-06
1944.27	7.92078e-07
1952.83	1.05952e-06
1961.39	7.34571e-07
1969.95	9.58635e-07
1978.5	1.21353e-06
1987.06	1.25828e-06
1995.62	1.24686e-06
2004.18	9.37057e-07
2012.73	7.21204e-07
2021.29	4.37473e-07
2029.85	2.73214e-07
2038.41	2.69671e-07
2046.97	8.43634e-08
2055.52	6.89212e-09
2064.08	-4.74226e-08
2072.64	1.51798e-07
2081.2	1.63776e-07
2089.75	4.94462e-07
2098.31	1.49455e-06
2106.87	1.59107e-06
2115.43	1.33111e-06
2123.98	2.49437e-07
2132.54	-1.61835e-07
2141.1	-3.48397e-07
2149.66	-2.48441e-07
2158.21	1.45531e-06
2166.77	2.10354e-07
2175.33	1.01707e-07
2183.89	-9.71463e-08
2192.45	7.14395e-08
2201	4.09458e-07
2209.56	1.30019e-06
2218.12	6.57474e-07
2226.68	-2.89018e-08
2235.23	4.70816e-08
2243.79	-1.64082e-07
2252.35	-6.90767e-08
2260.91	1.61996e-07
2269.46	4.799e-07
2278.02	3.71458e-07
2286.58	6.94583e-07
2295.14	1.58863e-06
2303.69	2.22004e-06
2312.25	2.81118e-06
2320.81	1.37773e-06
2329.37	1.53021e-06
2337.93	2.49017e-06
2346.48	2.15819e-06
2355.04	9.92795e-07
2363.6	6.52359e-07
2372.16	2.42519e-07
2380.71	7.35696e-07
2389.27	5.80213e-07
2397.83	4.30874e-07
2406.39	1.03201e-06
2414.94	1.37145e-06
2423.5	1.48552e-06
2432.06	1.43281e-06
2440.62	1.21206e-06
2449.17	9.28074e-07
2457.73	8.2302e-07
2466.29	6.61926e-07
2474.85	9.3688e-07
2483.41	6.96867e-07
2491.96	7.53485e-07
2500.52	5.8405e-07
2509.08	3.43223e-07
2517.64	3.7813e-07
2526.19	2.90959e-07
2534.75	1.75904e-07
2543.31	3.28758e-07
2551.87	6.5747e-09
2560.42	3.44042e-08
2568.98	4.98091e-08
2577.54	1.2688e-06
2586.1	2.83215e-06
2594.65	3.3353e-06
2603.21	1.67368e-06
2611.77	1.15563e-06
2620.33	3.86953e-07
2628.89	1.24648e-07
2637.44	3.57234e-07
2646	1.70042e-07
2654.56	4.65168e-08
2663.12	-2.39582e-07
2671.67	-9.48471e-08
2680.23	-3.78882e-07
2688.79	-3.84633e-07
2697.35	2.63516e-08
2705.9	1.07725e-06
2714.46	1.72471e-06
2723.02	2.14895e-06
2731.58	5.3275e-06
2740.13	1.4559e-05
2748.69	1.68928e-05
2757.25	3.27969e-06
2765.81	1.35127e-06
2774.37	9.65637e-07
2782.92	1.14201e-06
2791.48	2.00163e-06
2800.04	2.88407e-06
2808.6	3.61666e-06
2817.15	5.53733e-06
2825.71	8.05744e-06
2834.27	1.15599e-05
2842.83	1.5414e-05
2851.38	2.18754e-05
2859.94	4.30079e-05
2868.5	0.000100717
2877.06	0.000153455
2885.61	0.000151488
2894.17	0.000123409
2902.73	0.000105308
2911.29	9.66696e-05
2919.85	0.000133779
2928.4	0.000245949
2936.96	0.000305455
2945.52	0.000230253
2954.08	0.00011879
2962.63	9.5281e-05
2971.19	7.35269e-05
2979.75	8.77692e-05
2988.31	0.000115346
2996.86	0.000166507
3005.42	0.000209776
3013.98	0.000196518
3022.54	0.000238447
3031.09	0.000229398
3039.65	0.000164731
3048.21	0.000155553
3056.77	0.00014782
3065.33	0.000117807
3073.88	5.71755e-05
3082.44	2.95996e-05
3091	2.54604e-05
3099.56	2.74838e-05
3108.11	2.64899e-05
3116.67	1.68221e-05
3125.23	7.29485e-06
3133.79	6.47881e-06
3142.34	9.4433e-06
3150.9	7.64991e-06
3159.46	2.09327e-06
3168.02	5.79879e-07
3176.57	-8.76812e-08
3185.13	7.93048e-08
3193.69	-5.62289e-07
3202.25	-1.40874e-07
3210.81	-7.30048e-08
3219.36	-4.85681e-07
3227.92	-2.18128e-07
3236.48	-4.11777e-07
3245.04	3.23992e-07
3253.59	-5.28132e-08
3262.15	6.89148e-08
3270.71	-2.45429e-07
3279.27	3.18716e-07
3287.82	-1.90946e-07
3296.38	-1.06849e-07
3304.94	-1.32486e-07
3313.5	-1.05098e-07
3322.05	-1.17619e-07
3330.61	-4.19597e-07
3339.17	-1.88944e-07
3347.73	-2.32232e-07
3356.29	7.84135e-08
3364.84	-4.93107e-07
3373.4	6.54514e-08
3381.96	3.61231e-08
3390.52	8.36605e-07
3399.07	2.81899e-07
3407.63	1.94759e-07
3416.19	-2.36075e-07
3424.75	-1.39767e-07
3433.3	4.04476e-07
3441.86	2.79469e-07
3450.42	5.09737e-07
3458.98	-2.52001e-08
3467.53	-4.81252e-07
3476.09	-3.63868e-07
3484.65	-1.77701e-07
3493.21	-9.48216e-08
3501.77	-2.53549e-07
3510.32	-2.04212e-07
3518.88	-6.86799e-07
3527.44	-3.60495e-07
3536	-1.73841e-07
3544.55	-3.791e-07
3553.11	-6.37155e-07
3561.67	-6.98713e-07
3570.23	-3.94347e-07
3578.78	-4.09748e-07
3587.34	-1.5922e-07
3595.9	-1.47104e-07
3604.46	-4.11827e-07
3613.01	8.18468e-08
3621.57	1.29923e-07
3630.13	-7.62025e-08
3638.69	5.04767e-10
3647.25	-1.88033e-07
3655.8	6.55605e-07
3664.36	9.92113e-07
3672.92	1.20786e-06
3681.48	1.15433e-06
3690.03	4.61499e-07
3698.59	2.1676e-07
3707.15	1.81564e-07
3715.71	1.95076e-07
3724.26	7.34077e-08
3732.82	-4.29843e-08
3741.38	1.68557e-07
3749.94	4.46558e-07
3758.49	8.23427e-07
3767.05	8.37094e-07
3775.61	6.82059e-07
3784.17	5.5011e-07
3792.73	7.92993e-08
3801.28	-5.92954e-07
3809.84	8.81342e-07
3818.4	8.34591e-07
3826.96	7.35993e-07
3835.51	1.50289e-06
3844.07	1.69988e-06
3852.63	1.52498e-06
3861.19	1.65561e-06
3869.74	1.58438e-06
3878.3	1.74533e-06
3886.86	2.27905e-06
3895.42	2.08104e-06
3903.97	2.12898e-06
3912.53	1.81756e-06
3921.09	2.38528e-06
3929.65	2.01915e-06
3938.21	2.07451e-06
3946.76	2.13746e-06
3955.32	1.85076e-06
3963.88	2.40663e-06
3972.44	2.4141e-06
