Infrared Spectrum: Butane
Formula: C4 H10
CAS: 106-97-8
State: gas
Melting point: -138.35 C
Boiling point: -0.5 C
Class: IUPAC A
Instrument: IFS66V (Bruker)
Instrument parameters: KBr Beam Splitter; MCT Detector; Multipass cell
Sampling: 1 L/min Flow
Resolution: 0.1250
Temperature: 23 C
Pressure: 101.3 Pa
Origin: NIST, Analytical Chemistry Division, 301-975-3108
cm-1	(micromol/mol)-1m-1 (base 10)
575.05	1.68745e-07
583.608	-8.06063e-08
592.165	2.31356e-07
600.723	3.06544e-07
609.281	9.79412e-08
617.838	-1.50762e-07
626.396	2.81363e-07
634.954	6.55406e-08
643.511	9.43223e-08
652.069	-4.02059e-07
660.626	3.06325e-08
669.184	3.57311e-08
677.742	4.76841e-07
686.299	6.05832e-07
694.857	5.48151e-07
703.415	2.1442e-06
711.972	3.36537e-06
720.53	5.1525e-06
729.088	6.88158e-06
737.645	8.66558e-06
746.203	9.27814e-06
754.761	8.07476e-06
763.318	6.6136e-06
771.876	4.10239e-06
780.434	3.02639e-06
788.991	1.72219e-06
797.549	2.01263e-06
806.106	1.15125e-06
814.664	6.04764e-07
823.222	7.73558e-08
831.779	3.19895e-08
840.337	-4.27752e-07
848.895	2.88263e-08
857.452	-1.44296e-07
866.01	-5.65566e-08
874.568	6.3577e-08
883.125	6.77616e-08
891.683	2.92065e-08
900.241	-1.45675e-07
908.798	8.44407e-08
917.356	2.9575e-07
925.914	1.10433e-06
934.471	2.78203e-06
943.029	6.90127e-06
951.586	1.20805e-05
960.144	1.56812e-05
968.702	1.8771e-05
977.259	1.50776e-05
985.817	1.00599e-05
994.375	6.16448e-06
1002.93	2.79019e-06
1011.49	1.70898e-06
1020.05	7.76959e-07
1028.61	5.5227e-07
1037.16	4.66503e-07
1045.72	1.76363e-07
1054.28	1.39744e-07
1062.84	3.87543e-08
1071.39	2.92618e-07
1079.95	1.27695e-07
1088.51	1.82552e-07
1097.07	4.95299e-08
1105.62	4.05793e-07
1114.18	8.39407e-07
1122.74	2.35416e-06
1131.3	2.82162e-06
1139.85	2.1499e-06
1148.41	1.98366e-06
1156.97	6.21877e-07
1165.53	1.06185e-07
1174.09	3.59454e-07
1182.64	2.08769e-07
1191.2	2.30066e-07
1199.76	1.09151e-07
1208.32	3.19796e-07
1216.87	3.78037e-07
1225.43	3.72072e-07
1233.99	7.7904e-07
1242.55	9.64701e-07
1251.1	1.48742e-06
1259.66	1.64176e-06
1268.22	2.29138e-06
1276.78	4.0949e-06
1285.33	8.21727e-06
1293.89	9.21829e-06
1302.45	8.68927e-06
1311.01	3.57137e-06
1319.57	1.59294e-06
1328.12	3.32562e-06
1336.68	4.17522e-06
1345.24	3.50743e-06
1353.8	6.76061e-06
1362.35	7.99322e-06
1370.91	1.9611e-05
1379.47	2.63709e-05
1388.03	2.6791e-05
1396.58	3.40393e-05
1405.14	1.27207e-05
1413.7	8.01736e-06
1422.26	8.80306e-06
1430.81	1.47322e-05
1439.37	2.86409e-05
1447.93	4.6719e-05
1456.49	5.961e-05
1465.05	8.54494e-05
1473.6	6.08801e-05
1482.16	5.82581e-05
1490.72	3.80993e-05
1499.28	2.267e-05
1507.83	1.20314e-05
1516.39	6.26763e-06
1524.95	2.87295e-06
1533.51	1.49211e-06
1542.06	1.25325e-06
1550.62	8.89732e-07
1559.18	1.14516e-06
1567.74	1.50002e-06
1576.29	1.96707e-06
1584.85	1.43972e-06
1593.41	1.36627e-06
1601.97	8.9186e-07
1610.53	7.73573e-07
1619.08	9.08631e-07
1627.64	9.82368e-07
1636.2	1.22841e-06
1644.76	1.11669e-06
1653.31	2.11525e-06
1661.87	1.32114e-06
1670.43	1.59864e-06
1678.99	1.28334e-06
1687.54	1.23744e-06
1696.1	1.37096e-06
1704.66	1.07194e-06
1713.22	1.05642e-06
1721.77	9.6622e-07
1730.33	8.27429e-07
1738.89	4.15044e-07
1747.45	3.31613e-07
1756.01	2.87293e-07
1764.56	2.18679e-07
1773.12	2.82192e-07
1781.68	3.09097e-07
1790.24	3.7606e-07
1798.79	3.01119e-07
1807.35	2.83857e-07
1815.91	3.85434e-07
1824.47	3.62877e-07
1833.02	1.42475e-07
1841.58	4.72216e-08
1850.14	5.6442e-08
1858.7	-6.46338e-08
1867.25	1.19598e-08
1875.81	1.57505e-08
1884.37	1.8291e-07
1892.93	3.84354e-07
1901.49	5.30609e-07
1910.04	3.58747e-07
1918.6	5.55387e-07
1927.16	2.73403e-07
1935.72	3.31679e-07
1944.27	1.73402e-07
1952.83	6.27657e-08
1961.39	5.15799e-08
1969.95	-6.98688e-08
1978.5	4.81402e-08
1987.06	-4.86186e-08
1995.62	-4.21931e-08
2004.18	6.60626e-08
2012.73	1.6394e-07
2021.29	3.5915e-07
2029.85	6.35544e-07
2038.41	6.03347e-07
2046.97	6.05303e-07
2055.52	3.4948e-07
2064.08	1.92435e-07
2072.64	2.11824e-07
2081.2	1.4017e-07
2089.75	2.2025e-07
2098.31	3.70192e-07
2106.87	4.83554e-07
2115.43	5.59222e-07
2123.98	5.08667e-07
2132.54	5.26631e-07
2141.1	6.12865e-07
2149.66	5.66553e-07
2158.21	7.89502e-07
2166.77	6.45879e-07
2175.33	7.42491e-07
2183.89	5.43719e-07
2192.45	6.08546e-07
2201	7.15055e-07
2209.56	8.64222e-07
2218.12	5.80718e-07
2226.68	5.52586e-07
2235.23	4.50336e-07
2243.79	4.44989e-07
2252.35	4.26766e-07
2260.91	6.10865e-07
2269.46	6.3905e-07
2278.02	7.32236e-07
2286.58	8.6297e-07
2295.14	8.91781e-07
2303.69	1.05901e-06
2312.25	9.38663e-07
2320.81	8.16501e-07
2329.37	9.87888e-07
2337.93	1.01097e-06
2346.48	1.19795e-06
2355.04	1.07121e-06
2363.6	9.67877e-07
2372.16	1.25507e-06
2380.71	1.54158e-06
2389.27	1.53447e-06
2397.83	1.7893e-06
2406.39	1.10253e-06
2414.94	1.46053e-06
2423.5	1.57242e-06
2432.06	2.06344e-06
2440.62	1.80036e-06
2449.17	1.6762e-06
2457.73	1.099e-06
2466.29	6.50412e-07
2474.85	3.78337e-07
2483.41	3.16288e-07
2491.96	1.93569e-07
2500.52	2.96976e-07
2509.08	3.16886e-07
2517.64	4.54515e-07
2526.19	7.84404e-07
2534.75	6.87416e-07
2543.31	7.32521e-07
2551.87	6.46355e-07
2560.42	6.09253e-07
2568.98	9.35531e-07
2577.54	1.43247e-06
2586.1	2.1349e-06
2594.65	3.09785e-06
2603.21	3.5116e-06
2611.77	3.97117e-06
2620.33	4.17523e-06
2628.89	4.38614e-06
2637.44	4.57517e-06
2646	4.15606e-06
2654.56	4.79753e-06
2663.12	4.32778e-06
2671.67	3.93074e-06
2680.23	4.45473e-06
2688.79	3.46524e-06
2697.35	2.98523e-06
2705.9	3.3591e-06
2714.46	4.47999e-06
2723.02	6.06253e-06
2731.58	8.93538e-06
2740.13	9.54663e-06
2748.69	1.04904e-05
2757.25	9.29108e-06
2765.81	6.38295e-06
2774.37	5.65836e-06
2782.92	6.45679e-06
2791.48	6.97914e-06
2800.04	8.62275e-06
2808.6	1.11691e-05
2817.15	1.54197e-05
2825.71	2.29421e-05
2834.27	3.217e-05
2842.83	5.04818e-05
2851.38	7.95777e-05
2859.94	0.000129195
2868.5	0.000175691
2877.06	0.000286299
2885.61	0.000243905
2894.17	0.000283199
2902.73	0.000236091
2911.29	0.000239494
2919.85	0.000290096
2928.4	0.000372398
2936.96	0.000433896
2945.52	0.000475403
2954.08	0.000551693
2962.63	0.000659012
2971.19	0.000575807
2979.75	0.000571398
2988.31	0.000363106
2996.86	0.000157808
3005.42	6.68437e-05
3013.98	2.66486e-05
3022.54	1.22615e-05
3031.09	7.99761e-06
3039.65	6.8466e-06
3048.21	6.0544e-06
3056.77	6.18435e-06
3065.33	6.95017e-06
3073.88	7.66377e-06
3082.44	7.49417e-06
3091	7.25134e-06
3099.56	6.1075e-06
3108.11	4.71317e-06
3116.67	4.22785e-06
3125.23	3.89897e-06
3133.79	4.22187e-06
3142.34	4.70604e-06
3150.9	5.384e-06
3159.46	6.58751e-06
3168.02	7.0321e-06
3176.57	7.11807e-06
3185.13	6.88447e-06
3193.69	5.75941e-06
3202.25	4.93199e-06
3210.81	3.94062e-06
3219.36	3.76375e-06
3227.92	3.81579e-06
3236.48	3.08534e-06
3245.04	2.19924e-06
3253.59	1.19767e-06
3262.15	8.21241e-07
3270.71	6.12261e-07
3279.27	5.81748e-07
3287.82	7.0004e-07
3296.38	5.33949e-07
3304.94	8.31724e-07
3313.5	4.03917e-07
3322.05	6.04589e-07
3330.61	5.01379e-07
3339.17	6.03629e-07
3347.73	6.93947e-07
3356.29	8.77089e-07
3364.84	6.17609e-07
3373.4	8.47067e-07
3381.96	8.64779e-07
3390.52	1.05725e-06
3399.07	1.03895e-06
3407.63	1.03514e-06
3416.19	5.11868e-07
3424.75	4.38162e-07
3433.3	1.30878e-07
3441.86	2.30662e-07
3450.42	-1.46064e-09
3458.98	1.71451e-07
3467.53	1.06799e-07
3476.09	-3.00951e-07
3484.65	-5.84675e-08
3493.21	3.09509e-08
3501.77	-6.85755e-08
3510.32	4.94126e-08
3518.88	7.36805e-08
3527.44	1.33444e-07
3536	2.47017e-07
3544.55	1.73482e-07
3553.11	1.37306e-07
3561.67	4.28051e-08
3570.23	2.35282e-07
3578.78	3.37324e-07
3587.34	2.84543e-08
3595.9	2.72125e-07
3604.46	5.43245e-07
3613.01	5.33099e-07
3621.57	6.12895e-07
3630.13	8.57404e-07
3638.69	6.61489e-07
3647.25	8.12752e-07
3655.8	7.14515e-07
3664.36	7.84966e-07
3672.92	9.51589e-07
3681.48	8.89343e-07
3690.03	8.97577e-07
3698.59	1.0702e-06
3707.15	9.66304e-07
3715.71	1.05165e-06
3724.26	1.21265e-06
3732.82	1.39395e-06
3741.38	1.02189e-06
3749.94	6.1127e-07
3758.49	6.2154e-07
3767.05	5.52523e-07
3775.61	5.28472e-07
3784.17	6.53238e-07
3792.73	4.53066e-07
3801.28	9.17024e-07
3809.84	4.31418e-07
3818.4	5.93429e-07
3826.96	9.08266e-07
3835.51	1.41619e-06
3844.07	1.36039e-06
3852.63	1.87174e-06
3861.19	1.71407e-06
3869.74	1.53478e-06
3878.3	1.3506e-06
3886.86	9.18336e-07
3895.42	9.04274e-07
3903.97	9.22e-07
3912.53	7.33057e-07
3921.09	4.82963e-07
3929.65	5.787e-07
3938.21	5.05397e-07
3946.76	3.17402e-07
3955.32	5.86989e-07
3963.88	5.70032e-07
3972.44	4.13385e-07
