Infrared Spectrum: Butane
Formula: C4 H10
CAS: 106-97-8
State: gas
Melting point: -138.35 C
Boiling point: -0.5 C
Class: IUPAC A
Instrument: IFS66V (Bruker)
Instrument parameters: KBr Beam Splitter; MCT Detector; Multipass cell
Sampling: 1 L/min Flow
Resolution: 0.9640
Temperature: 23 C
Pressure: 101.3 Pa
Origin: NIST, Analytical Chemistry Division, 301-975-3108
cm-1	(micromol/mol)-1m-1 (base 10)
575.17	-4.05233e-07
583.848	3.24233e-08
592.526	1.84428e-07
601.205	-7.14086e-08
609.883	-1.61503e-07
618.561	-4.10262e-08
627.239	6.06721e-09
635.917	-1.31802e-07
644.595	-5.15908e-08
653.274	-1.22426e-07
661.952	-4.44368e-08
670.63	-2.49719e-08
679.308	9.42104e-08
687.986	4.17968e-07
696.664	1.0233e-06
705.343	2.32664e-06
714.021	3.93986e-06
722.699	5.29007e-06
731.377	1.00694e-05
740.055	8.89712e-06
748.734	1.05243e-05
757.412	7.95539e-06
766.09	5.68612e-06
774.768	3.43858e-06
783.446	2.70758e-06
792.124	1.91164e-06
800.803	1.61738e-06
809.481	8.21576e-07
818.159	3.63398e-07
826.837	1.10318e-07
835.515	3.04215e-08
844.194	3.52273e-08
852.872	-1.07411e-08
861.55	-4.4706e-08
870.228	3.75992e-08
878.906	-2.96703e-08
887.584	-1.90447e-08
896.263	-2.85707e-08
904.941	-9.3059e-09
913.619	2.58588e-07
922.297	6.96958e-07
930.975	1.93628e-06
939.653	5.12877e-06
948.332	1.11218e-05
957.01	1.91886e-05
965.688	1.9366e-05
974.366	1.6907e-05
983.044	1.06967e-05
991.723	7.16466e-06
1000.4	3.64575e-06
1009.08	1.84729e-06
1017.76	9.66048e-07
1026.44	5.26121e-07
1035.11	3.68353e-07
1043.79	1.3194e-07
1052.47	5.55753e-08
1061.15	9.69689e-08
1069.83	1.66527e-07
1078.5	1.17721e-07
1087.18	2.50239e-07
1095.86	1.90853e-07
1104.54	3.14551e-07
1113.22	8.2249e-07
1121.9	2.26204e-06
1130.57	2.82144e-06
1139.25	1.90009e-06
1147.93	2.13667e-06
1156.61	5.33223e-07
1165.29	1.52708e-07
1173.96	1.94966e-07
1182.64	2.05612e-07
1191.32	1.93398e-07
1200	1.76287e-07
1208.68	2.47681e-07
1217.36	3.21673e-07
1226.03	4.74202e-07
1234.71	6.76965e-07
1243.39	1.03806e-06
1252.07	1.49383e-06
1260.75	1.7236e-06
1269.42	2.30152e-06
1278.1	4.80742e-06
1286.78	8.22884e-06
1295.46	8.23262e-06
1304.14	7.86731e-06
1312.82	2.87756e-06
1321.49	1.81675e-06
1330.17	3.89131e-06
1338.85	3.80427e-06
1347.53	3.91963e-06
1356.21	6.60874e-06
1364.88	1.01273e-05
1373.56	2.4667e-05
1382.24	3.00625e-05
1390.92	3.71657e-05
1399.6	2.50028e-05
1408.28	9.66225e-06
1416.95	7.95219e-06
1425.63	1.05035e-05
1434.31	1.90679e-05
1442.99	3.65286e-05
1451.67	5.21549e-05
1460.34	6.89699e-05
1469.02	7.04219e-05
1477.7	5.72239e-05
1486.38	4.93652e-05
1495.06	2.9693e-05
1503.73	1.62975e-05
1512.41	8.38139e-06
1521.09	4.19511e-06
1529.77	1.84156e-06
1538.45	1.14509e-06
1547.13	8.87185e-07
1555.8	9.79885e-07
1564.48	1.24762e-06
1573.16	1.58318e-06
1581.84	1.52932e-06
1590.52	1.40465e-06
1599.19	1.11099e-06
1607.87	8.834e-07
1616.55	1.16867e-06
1625.23	8.27191e-07
1633.91	1.10671e-06
1642.59	9.91735e-07
1651.26	1.14015e-06
1659.94	1.29959e-06
1668.62	1.47098e-06
1677.3	1.29249e-06
1685.98	1.35811e-06
1694.65	1.17856e-06
1703.33	1.11384e-06
1712.01	1.09201e-06
1720.69	1.01979e-06
1729.37	8.2134e-07
1738.05	5.56698e-07
1746.72	3.72834e-07
1755.4	2.6098e-07
1764.08	2.56546e-07
1772.76	4.02077e-07
1781.44	3.18344e-07
1790.11	3.45279e-07
1798.79	3.88401e-07
1807.47	3.84421e-07
1816.15	3.63326e-07
1824.83	3.16792e-07
1833.51	1.57212e-07
1842.18	5.74461e-08
1850.86	1.00626e-08
1859.54	6.85483e-09
1868.22	2.99322e-08
1876.9	7.82925e-08
1885.57	2.21967e-07
1894.25	3.64911e-07
1902.93	4.83383e-07
1911.61	4.39033e-07
1920.29	4.95517e-07
1928.97	3.76952e-07
1937.64	3.28041e-07
1946.32	1.91259e-07
1955	8.77194e-08
1963.68	-6.79207e-09
1972.36	-5.23202e-08
1981.03	-3.51509e-08
1989.71	-4.72153e-08
1998.39	-2.74466e-08
2007.07	1.50475e-08
2015.75	1.10823e-07
2024.43	4.28327e-07
2033.1	6.19298e-07
2041.78	6.32433e-07
2050.46	5.98624e-07
2059.14	2.36928e-07
2067.82	1.40275e-07
2076.49	1.57643e-07
2085.17	1.9255e-07
2093.85	2.64192e-07
2102.53	3.55462e-07
2111.21	5.02923e-07
2119.89	6.34105e-07
2128.56	6.11634e-07
2137.24	6.03981e-07
2145.92	6.72678e-07
2154.6	6.63084e-07
2163.28	6.65071e-07
2171.95	6.88595e-07
2180.63	6.30402e-07
2189.31	6.56027e-07
2197.99	6.66476e-07
2206.67	7.2077e-07
2215.35	6.84921e-07
2224.02	6.5087e-07
2232.7	5.35865e-07
2241.38	4.09336e-07
2250.06	4.67961e-07
2258.74	5.20093e-07
2267.41	5.75857e-07
2276.09	6.37458e-07
2284.77	7.8896e-07
2293.45	8.08836e-07
2302.13	9.77961e-07
2310.81	8.78704e-07
2319.48	7.39248e-07
2328.16	7.64781e-07
2336.84	1.09588e-06
2345.52	1.00315e-06
2354.2	8.23809e-07
2362.87	4.12893e-07
2371.55	9.46813e-07
2380.23	1.61913e-06
2388.91	1.47152e-06
2397.59	1.71232e-06
2406.27	1.10376e-06
2414.94	1.47198e-06
2423.62	1.59287e-06
2432.3	1.92993e-06
2440.98	1.77481e-06
2449.66	1.61649e-06
2458.33	9.58195e-07
2467.01	5.59074e-07
2475.69	3.60106e-07
2484.37	2.43349e-07
2493.05	1.90762e-07
2501.73	1.8663e-07
2510.4	3.59542e-07
2519.08	5.28141e-07
2527.76	7.47761e-07
2536.44	6.84609e-07
2545.12	7.01666e-07
2553.79	5.7642e-07
2562.47	7.05051e-07
2571.15	1.04746e-06
2579.83	1.63894e-06
2588.51	2.42584e-06
2597.19	3.36113e-06
2605.86	3.62477e-06
2614.54	4.14792e-06
2623.22	4.18952e-06
2631.9	4.49802e-06
2640.58	4.3757e-06
2649.25	4.72449e-06
2657.93	4.74349e-06
2666.61	4.25796e-06
2675.29	3.65199e-06
2683.97	4.15638e-06
2692.65	3.19612e-06
2701.32	3.04941e-06
2710	3.83227e-06
2718.68	4.88141e-06
2727.36	7.56825e-06
2736.04	1.01859e-05
2744.71	9.32862e-06
2753.39	1.08972e-05
2762.07	7.07741e-06
2770.75	5.8527e-06
2779.43	6.14662e-06
2788.11	6.5853e-06
2796.78	7.74019e-06
2805.46	9.9342e-06
2814.14	1.37192e-05
2822.82	2.00547e-05
2831.5	2.90673e-05
2840.17	4.45909e-05
2848.85	6.81214e-05
2857.53	0.000113437
2866.21	0.000166858
2874.89	0.000248863
2883.57	0.000257709
2892.24	0.000269728
2900.92	0.000249372
2909.6	0.000231873
2918.28	0.000273233
2926.96	0.00035755
2935.63	0.000423178
2944.31	0.000472448
2952.99	0.00053568
2961.67	0.000650687
2970.35	0.000621692
2979.03	0.000571944
2987.7	0.000383483
2996.38	0.000165287
3005.06	6.9377e-05
3013.74	2.73206e-05
3022.42	1.2438e-05
3031.09	7.99819e-06
3039.77	6.71296e-06
3048.45	6.26153e-06
3057.13	6.26014e-06
3065.81	6.90134e-06
3074.49	7.68245e-06
3083.16	7.67895e-06
3091.84	7.22087e-06
3100.52	5.71929e-06
3109.2	4.51454e-06
3117.88	3.9217e-06
3126.55	3.92263e-06
3135.23	4.29784e-06
3143.91	4.86538e-06
3152.59	5.53136e-06
3161.27	6.497e-06
3169.95	7.24169e-06
3178.62	7.05214e-06
3187.3	7.02711e-06
3195.98	5.47293e-06
3204.66	4.54106e-06
3213.34	4.0777e-06
3222.01	4.11734e-06
3230.69	3.32415e-06
3239.37	2.84228e-06
3248.05	1.8326e-06
3256.73	9.87222e-07
3265.41	6.4556e-07
3274.08	7.00607e-07
3282.76	6.58498e-07
3291.44	6.84495e-07
3300.12	6.71263e-07
3308.8	4.92653e-07
3317.47	3.60759e-07
3326.15	4.23731e-07
3334.83	4.71926e-07
3343.51	6.75393e-07
3352.19	6.87384e-07
3360.86	7.10041e-07
3369.54	7.58883e-07
3378.22	8.87136e-07
3386.9	1.10552e-06
3395.58	1.20658e-06
3404.26	1.10019e-06
3412.93	8.51922e-07
3421.61	3.4225e-07
3430.29	2.11273e-07
3438.97	1.73676e-07
3447.65	1.01455e-07
3456.32	3.19067e-08
3465	9.32182e-08
3473.68	1.06715e-07
3482.36	1.18899e-07
3491.04	6.3255e-08
3499.72	9.09954e-08
3508.39	6.5727e-08
3517.07	1.76696e-08
3525.75	-5.24949e-08
3534.43	-5.09906e-08
3543.11	-4.36537e-08
3551.78	-9.67243e-09
3560.46	1.45337e-08
3569.14	1.48312e-07
3577.82	2.15747e-07
3586.5	2.80211e-07
3595.18	3.32138e-07
3603.85	3.92539e-07
3612.53	5.97042e-07
3621.21	6.59488e-07
3629.89	8.12482e-07
3638.57	8.0511e-07
3647.24	8.5033e-07
3655.92	8.07687e-07
3664.6	7.83834e-07
3673.28	8.29e-07
3681.96	9.38078e-07
3690.64	1.00688e-06
3699.31	9.66473e-07
3707.99	9.97593e-07
3716.67	1.25647e-06
3725.35	1.17641e-06
3734.03	1.29252e-06
3742.7	9.53161e-07
3751.38	7.03611e-07
3760.06	6.72238e-07
3768.74	5.6986e-07
3777.42	5.38989e-07
3786.1	4.98944e-07
3794.77	4.6675e-07
3803.45	4.71894e-07
3812.13	5.07876e-07
3820.81	7.11051e-07
3829.49	7.81306e-07
3838.16	1.46922e-06
3846.84	1.59727e-06
3855.52	1.84873e-06
3864.2	1.63805e-06
3872.88	1.36282e-06
3881.56	1.22449e-06
3890.23	1.05093e-06
3898.91	9.89407e-07
3907.59	8.52242e-07
3916.27	7.44225e-07
3924.95	6.64011e-07
3933.62	6.40958e-07
3942.3	5.70363e-07
3950.98	4.83233e-07
3959.66	4.51425e-07
3968.34	4.86712e-07
