Infrared Spectrum: BENZENE, 1,4-DIMETHYL-
Formula: C8 H10
CAS: 106-42-3
State: VAPOR (0.5 MICROLITER AT 195 C)
Boiling point: 139 C
Class: COBLENTZ
Instrument: NICOLET FTIR
Instrument parameters: Hg-Cd-Te DETECTOR - TYPE A, DEAD BELOW 680 CM^-^1, LOW S/N 710 - 680
Sampling: TRANSMISSION
Path length: 0.2 CM x 30 CM GOLD-PLATED LIGHT PIPE. HELIUM CARRIER. INTERFEROGRAMS CO-ADDED FOR FULL TRANSIT TIME.
Resolution: 4 CM^-^1
Origin: MONSANTO (JOHN J. FREEMAN)
1/CM	TRANSMITTANCE
708.41	0.988
716.82	0.975
725.231	0.998
733.641	0.984
742.052	0.986
750.462	0.994
758.872	0.985
767.283	0.9211
775.693	0.7762
784.104	0.6071
792.514	0.438
800.924	0.4826
809.335	0.5489
817.745	0.77
826.156	0.9319
834.566	0.969
842.976	0.983
851.387	0.991
859.797	0.997
868.207	0.997
876.618	0.995
885.028	0.994
893.439	0.995
901.849	0.994
910.259	0.99
918.67	0.989
927.08	0.988
935.491	0.988
943.901	0.986
952.311	0.982
960.722	0.979
969.132	0.974
977.543	0.97
985.953	0.964
994.363	0.959
1002.77	0.951
1011.18	0.917
1019.59	0.897
1028	0.89
1036.42	0.918
1044.83	0.9
1053.24	0.887
1061.65	0.896
1070.06	0.912
1078.47	0.936
1086.88	0.939
1095.29	0.93
1103.7	0.9051
1112.11	0.873
1120.52	0.886
1128.93	0.887
1137.34	0.941
1145.75	0.972
1154.16	0.984
1162.57	0.988
1170.98	0.986
1179.39	0.986
1187.8	0.988
1196.21	0.988
1204.62	0.982
1213.03	0.96
1221.44	0.951
1229.85	0.929
1238.26	0.943
1246.68	0.949
1255.09	0.97
1263.5	0.981
1271.91	0.983
1280.32	0.985
1288.73	0.986
1297.14	0.984
1305.55	0.978
1313.96	0.972
1322.37	0.968
1330.78	0.961
1339.19	0.955
1347.6	0.95
1356.01	0.951
1364.42	0.951
1372.83	0.944
1381.24	0.916
1389.65	0.9
1398.06	0.905
1406.47	0.915
1414.88	0.897
1423.29	0.878
1431.7	0.865
1440.11	0.87
1448.52	0.885
1456.94	0.88
1465.35	0.874
1473.76	0.851
1482.17	0.858
1490.58	0.847
1498.99	0.811
1507.4	0.685
1515.81	0.438
1524.22	0.439
1532.63	0.527
1541.04	0.877
1549.45	0.916
1557.86	0.93
1566.27	0.939
1574.68	0.951
1583.09	0.959
1591.5	0.961
1599.91	0.959
1608.32	0.946
1616.73	0.933
1625.14	0.934
1633.55	0.94
1641.96	0.958
1650.37	0.977
1658.78	0.985
1667.19	0.989
1675.61	0.994
1684.02	1.004
1692.43	0.993
1700.84	0.999
1709.25	0.993
1717.66	0.983
1726.07	0.975
1734.48	0.982
1742.89	0.989
1751.3	0.987
1759.71	0.985
1768.12	0.982
1776.53	0.966
1784.94	0.959
1793.35	0.966
1801.76	0.979
1810.17	0.996
1818.58	0.997
1826.99	0.995
1835.4	0.988
1843.81	0.988
1852.22	0.986
1860.63	0.983
1869.04	0.968
1877.45	0.936
1885.87	0.933
1894.28	0.928
1902.69	0.961
1911.1	0.975
1919.51	0.988
1927.92	0.991
1936.33	0.996
1944.74	0.998
1953.15	0.997
1961.56	0.997
1969.97	0.997
1978.38	0.997
1986.79	0.998
1995.2	0.997
2003.61	0.999
2012.02	1
2020.43	1
2028.84	1
2037.25	1
2045.66	1
2054.07	1
2062.48	1
2070.89	0.9987
2079.3	0.998
2087.71	0.9967
2096.13	0.995
2104.54	0.9952
2112.95	0.9977
2121.36	1
2129.77	1.001
2138.18	1.002
2146.59	1.002
2155	1.0009
2163.41	1
2171.82	1
2180.23	1
2188.64	1
2197.05	0.998
2205.46	0.997
2213.87	0.997
2222.28	0.997
2230.69	0.9994
2239.1	1
2247.51	1
2255.92	0.9992
2264.33	0.998
2272.74	0.998
2281.15	0.996
2289.56	0.9923
2297.97	0.9916
2306.38	0.989
2314.8	0.987
2323.21	0.9876
2331.62	0.988
2340.03	0.989
2348.44	0.9911
2356.85	0.9945
2365.26	0.995
2373.67	0.996
2382.08	0.996
2390.49	0.996
2398.9	0.995
2407.31	0.994
2415.72	0.9931
2424.13	0.9916
2432.54	0.9918
2440.95	0.994
2449.36	0.995
2457.77	0.996
2466.18	0.996
2474.59	0.9958
2483	0.996
2491.41	0.997
2499.82	0.9963
2508.23	0.997
2516.64	0.997
2525.06	0.997
2533.47	0.997
2541.88	0.998
2550.29	0.998
2558.7	0.998
2567.11	0.995
2575.52	0.9901
2583.93	0.986
2592.34	0.985
2600.75	0.989
2609.16	0.99
2617.57	0.992
2625.98	0.993
2634.39	0.9933
2642.8	0.995
2651.21	0.9953
2659.62	0.996
2668.03	0.996
2676.44	0.995
2684.85	0.9938
2693.26	0.9903
2701.67	0.9869
2710.08	0.9844
2718.49	0.9797
2726.9	0.968
2735.31	0.9449
2743.73	0.9366
2752.14	0.957
2760.55	0.9769
2768.96	0.982
2777.37	0.9806
2785.78	0.9761
2794.19	0.9708
2802.6	0.9603
2811.01	0.9516
2819.42	0.9379
2827.83	0.9267
2836.24	0.9087
2844.65	0.8717
2853.06	0.8297
2861.47	0.7101
2869.88	0.5775
2878.29	0.5283
2886.7	0.5225
2895.11	0.5658
2903.52	0.594
2911.93	0.5721
2920.34	0.4394
2928.75	0.3107
2937.16	0.3101
2945.57	0.4097
2953.99	0.5984
2962.4	0.6662
2970.81	0.6931
2979.22	0.6373
2987.63	0.57
2996.04	0.5048
3004.45	0.4457
3012.86	0.3847
3021.27	0.3523
3029.68	0.3593
3038.09	0.4315
3046.5	0.4843
3054.91	0.5004
3063.32	0.5863
3071.73	0.7239
3080.14	0.8007
3088.55	0.8333
3096.96	0.8687
3105.37	0.8904
3113.78	0.9273
3122.19	0.9461
3130.6	0.95
3139.01	0.959
3147.42	0.9729
3155.83	0.9876
3164.25	0.9924
3172.66	0.995
3181.07	0.9964
3189.48	0.997
3197.89	0.998
3206.3	0.998
3214.71	0.998
3223.12	0.998
3231.53	0.998
3239.94	0.998
3248.35	0.998
3256.76	0.997
3265.17	0.997
3273.58	0.9964
3281.99	0.997
3290.4	0.996
3298.81	0.998
3307.22	0.9965
3315.63	0.997
3324.04	0.997
3332.45	0.996
3340.86	0.998
3349.27	0.998
3357.68	0.999
3366.09	0.9973
3374.5	0.9963
3382.92	0.997
3391.33	0.9973
3399.74	0.998
3408.15	0.998
3416.56	0.996
3424.97	0.9988
3433.38	0.998
3441.79	0.999
3450.2	1
3458.61	1.002
3467.02	1.0014
3475.43	1
3483.84	1
3492.25	1
3500.66	1
3509.07	1
3517.48	1.0021
3525.89	1
3534.3	1.0004
3542.71	1.002
3551.12	1.0024
3559.53	1.0031
3567.94	1.002
3576.35	1.0002
3584.76	1
3593.18	1.0028
3601.59	0.9997
3610	0.999
3618.41	0.9988
3626.82	0.996
3635.23	0.9948
3643.64	0.9914
3652.05	0.9891
3660.46	0.9884
3668.87	0.9871
3677.28	0.9921
3685.69	0.988
3694.1	0.9925
3702.51	0.996
3710.92	0.9905
3719.33	0.9958
3727.74	0.991
3736.15	0.9957
3744.56	0.9974
3752.97	0.997
3761.38	0.997
3769.79	0.998
3778.2	0.998
3786.61	0.997
3795.02	0.997
3803.43	0.9983
3811.85	0.9948
3820.26	0.9963
3828.67	0.9939
3837.08	0.9944
3845.49	0.993
3853.9	0.993
3862.31	0.9939
3870.72	0.9935
3879.13	0.995
3887.54	0.993
3895.95	0.994
3904.36	0.9916
3912.77	0.9891
3921.18	0.991
3929.59	0.9929
3938	0.9926
3946.41	0.992
3954.82	0.9923
3963.23	0.994
3971.64	0.994
3980.05	0.9915
3988.46	0.9935
3996.87	0.993
