Infrared Spectrum: 1,3-Butadiene
Formula: C H2: C H C H: C H2
CAS: 106-99-0
State: gas
Melting point: -108.91 C
Boiling point: -4.41 C
Class: IUPAC A
Instrument: IFS66V (Bruker)
Instrument parameters: KBr Beam splitter; MCT Detector; Multipass cell
Sampling: 1 L/min Flow
Resolution: 0.2410
Temperature: 23 C
Pressure: 101.3 kPa
Origin: NIST, Anayltical Chemistry Division, 301-975-3108
cm-1	(micromol/mol)-1m-1 (base 10)
575.048	5.26649e-06
583.606	3.03999e-06
592.163	2.45836e-06
600.721	1.14196e-06
609.279	7.29451e-07
617.836	6.44063e-07
626.394	7.63684e-07
634.951	1.17025e-06
643.509	1.55491e-06
652.067	2.43011e-06
660.624	2.80435e-06
669.182	3.20958e-06
677.74	2.78709e-06
686.297	2.18688e-06
694.855	1.6219e-06
703.412	1.23556e-06
711.97	7.41665e-07
720.528	7.52494e-07
729.085	6.8587e-07
737.643	9.55812e-07
746.201	8.9462e-07
754.758	1.05619e-06
763.316	1.1138e-06
771.873	7.89656e-07
780.431	4.86965e-07
788.989	4.76227e-07
797.546	5.55393e-07
806.104	6.99229e-07
814.662	1.02356e-06
823.219	1.67392e-06
831.777	3.12433e-06
840.334	6.0674e-06
848.892	1.56175e-05
857.45	2.42098e-05
866.007	3.89485e-05
874.565	6.1475e-05
883.123	8.93398e-05
891.68	0.000143623
900.238	0.000134013
908.795	0.000472295
917.353	0.000142241
925.911	0.000138323
934.468	0.000114195
943.026	8.93117e-05
951.584	4.9401e-05
960.141	2.99073e-05
968.699	2.72873e-05
977.256	3.31806e-05
985.814	6.46336e-05
994.372	8.97561e-05
1002.93	7.9959e-05
1011.49	0.000120572
1020.04	6.74265e-05
1028.6	7.41902e-05
1037.16	6.03397e-05
1045.72	4.88161e-05
1054.28	3.08596e-05
1062.83	2.20748e-05
1071.39	1.23967e-05
1079.95	8.81389e-06
1088.51	4.26116e-06
1097.06	1.53932e-06
1105.62	5.22418e-07
1114.18	2.5477e-07
1122.74	2.69034e-07
1131.29	2.70571e-07
1139.85	1.96937e-07
1148.41	1.63732e-07
1156.97	1.81894e-07
1165.52	1.81907e-07
1174.08	1.75903e-07
1182.64	2.14716e-07
1191.2	1.62309e-07
1199.75	1.58128e-07
1208.31	3.54687e-07
1216.87	4.75287e-07
1225.43	8.68454e-07
1233.99	1.37873e-06
1242.54	2.23534e-06
1251.1	3.62681e-06
1259.66	5.47226e-06
1268.22	5.11921e-06
1276.77	6.73295e-06
1285.33	7.30694e-06
1293.89	4.14722e-06
1302.45	6.67039e-06
1311	5.53286e-06
1319.56	4.50445e-06
1328.12	2.78896e-06
1336.68	3.0447e-06
1345.23	2.65961e-06
1353.79	4.06366e-06
1362.35	9.72956e-06
1370.91	2.10597e-05
1379.46	7.56876e-06
1388.02	1.97116e-05
1396.58	1.21853e-05
1405.14	5.70138e-06
1413.7	5.84099e-06
1422.25	5.7258e-06
1430.81	4.21197e-06
1439.37	5.19393e-06
1447.93	5.75431e-06
1456.48	5.59353e-06
1465.04	4.84539e-06
1473.6	7.32409e-06
1482.16	5.61272e-06
1490.71	6.09812e-06
1499.27	5.53057e-06
1507.83	3.17764e-06
1516.39	2.41158e-06
1524.94	1.42223e-06
1533.5	1.14353e-06
1542.06	4.07257e-06
1550.62	1.24788e-06
1559.18	3.34983e-06
1567.73	9.09217e-06
1576.29	3.67222e-05
1584.85	9.50444e-05
1593.41	6.21549e-05
1601.96	0.000101233
1610.52	6.66024e-05
1619.08	7.98777e-06
1627.64	3.28987e-06
1636.19	3.13518e-06
1644.75	3.57998e-06
1653.31	9.07311e-06
1661.87	1.84567e-06
1670.42	1.54874e-06
1678.98	9.07349e-07
1687.54	6.4694e-07
1696.1	4.32778e-06
1704.65	1.13407e-06
1713.21	7.19336e-07
1721.77	1.08645e-06
1730.33	2.09195e-06
1738.89	2.61452e-06
1747.44	3.98087e-06
1756	5.22368e-06
1764.56	3.69166e-06
1773.12	4.00825e-06
1781.67	2.97644e-06
1790.23	4.13502e-06
1798.79	1.05297e-05
1807.35	4.39666e-05
1815.9	4.10268e-05
1824.46	4.62885e-05
1833.02	4.47088e-05
1841.58	7.56616e-06
1850.13	1.65785e-06
1858.69	1.88708e-06
1867.25	2.06057e-06
1875.81	1.95503e-06
1884.36	2.34007e-06
1892.92	1.24946e-06
1901.48	1.03858e-06
1910.04	1.6844e-06
1918.6	1.26566e-06
1927.15	1.33346e-06
1935.71	1.29582e-06
1944.27	1.50613e-06
1952.83	2.40704e-06
1961.38	3.60484e-06
1969.94	2.755e-06
1978.5	3.25682e-06
1987.06	1.76186e-06
1995.61	7.49282e-07
2004.17	5.36741e-07
2012.73	2.70782e-07
2021.29	5.36617e-08
2029.84	5.89968e-08
2038.4	-5.68559e-08
2046.96	-5.61446e-08
2055.52	-7.63626e-08
2064.08	-3.02442e-08
2072.63	4.61348e-08
2081.19	8.21651e-08
2089.75	1.65145e-07
2098.31	3.40846e-07
2106.86	2.53198e-07
2115.42	4.73186e-07
2123.98	2.73289e-07
2132.54	1.76839e-07
2141.09	1.26272e-07
2149.65	1.9585e-07
2158.21	5.17523e-07
2166.77	4.27482e-07
2175.32	3.33485e-07
2183.88	3.7041e-07
2192.44	4.16992e-07
2201	4.96689e-07
2209.55	4.46305e-07
2218.11	4.39604e-07
2226.67	3.81444e-07
2235.23	4.69626e-07
2243.79	7.02097e-07
2252.34	9.97107e-07
2260.9	1.07386e-06
2269.46	1.06813e-06
2278.02	1.00976e-06
2286.57	7.37313e-07
2295.13	5.32983e-07
2303.69	5.62567e-07
2312.25	4.32191e-07
2320.8	5.19173e-07
2329.36	4.39125e-07
2337.92	8.5748e-07
2346.48	3.85078e-07
2355.03	2.51561e-07
2363.59	3.52622e-07
2372.15	2.39447e-07
2380.71	2.21528e-07
2389.26	1.99115e-07
2397.82	2.02376e-07
2406.38	2.66979e-07
2414.94	3.68724e-07
2423.5	3.40957e-07
2432.05	4.07552e-07
2440.61	4.34673e-07
2449.17	4.17683e-07
2457.73	5.50847e-07
2466.28	7.31439e-07
2474.84	1.00834e-06
2483.4	1.84581e-06
2491.96	1.11767e-06
2500.51	1.56353e-06
2509.07	1.06905e-06
2517.63	4.94415e-07
2526.19	2.8554e-07
2534.74	2.3045e-07
2543.3	2.26614e-07
2551.86	2.14259e-07
2560.42	3.21588e-07
2568.98	4.60618e-07
2577.53	5.03381e-07
2586.09	4.52866e-07
2594.65	4.45574e-07
2603.21	1.81347e-07
2611.76	1.29249e-07
2620.32	1.68854e-07
2628.88	1.76672e-07
2637.44	2.2806e-07
2645.99	2.10469e-07
2654.55	1.68247e-07
2663.11	1.58577e-07
2671.67	1.00308e-07
2680.22	6.27221e-08
2688.78	1.14614e-07
2697.34	1.44594e-07
2705.9	1.89216e-07
2714.45	3.73737e-07
2723.01	4.70721e-07
2731.57	2.28431e-07
2740.13	3.10709e-07
2748.69	2.03082e-07
2757.24	1.71081e-07
2765.8	2.17954e-07
2774.36	1.91235e-07
2782.92	3.51936e-07
2791.47	3.77324e-07
2800.03	4.54723e-07
2808.59	5.57588e-07
2817.15	3.45777e-07
2825.7	4.21098e-07
2834.26	6.49563e-07
2842.82	1.19073e-06
2851.38	1.81322e-06
2859.93	2.09911e-06
2868.49	2.50589e-06
2877.05	2.96063e-06
2885.61	3.45892e-06
2894.16	4.51701e-06
2902.72	5.06014e-06
2911.28	6.2931e-06
2919.84	7.98929e-06
2928.4	9.5063e-06
2936.95	1.1156e-05
2945.51	1.34275e-05
2954.07	1.595e-05
2962.63	2.2805e-05
2971.18	3.72492e-05
2979.74	4.07579e-05
2988.3	4.71374e-05
2996.86	5.88907e-05
3005.41	5.2721e-05
3013.97	4.60658e-05
3022.53	5.27897e-05
3031.09	4.47146e-05
3039.64	5.35307e-05
3048.2	5.49867e-05
3056.76	4.55298e-05
3065.32	7.06618e-05
3073.88	6.18016e-05
3082.43	7.15903e-05
3090.99	9.35828e-05
3099.55	5.55807e-05
3108.11	9.32042e-05
3116.66	6.18915e-05
3125.22	3.10511e-05
3133.78	2.13632e-05
3142.34	1.33542e-05
3150.89	7.27002e-06
3159.45	3.89546e-06
3168.01	1.83587e-06
3176.57	7.70676e-07
3185.12	3.84114e-07
3193.68	3.02244e-07
3202.24	1.26345e-07
3210.8	9.49235e-08
3219.35	4.71336e-07
3227.91	6.13151e-07
3236.47	8.76648e-07
3245.03	9.35532e-07
3253.59	3.88263e-07
3262.14	2.9758e-07
3270.7	2.20831e-07
3279.26	2.32762e-07
3287.82	1.67663e-07
3296.37	1.97798e-07
3304.93	9.83468e-08
3313.49	3.06394e-07
3322.05	2.33126e-07
3330.6	2.46619e-07
3339.16	1.39396e-07
3347.72	1.26692e-08
3356.28	3.89225e-08
3364.83	2.39933e-07
3373.39	2.2519e-07
3381.95	3.31331e-07
3390.51	5.38247e-07
3399.06	4.24743e-07
3407.62	6.0564e-07
3416.18	3.44324e-07
3424.74	1.67306e-07
3433.3	1.979e-07
3441.85	2.59599e-07
3450.41	3.40036e-07
3458.97	3.31304e-07
3467.53	3.54739e-07
3476.08	1.66604e-07
3484.64	1.13845e-07
3493.2	1.69278e-07
3501.76	1.93185e-07
3510.31	2.46521e-07
3518.87	3.95645e-07
3527.43	3.53268e-07
3535.99	2.21754e-07
3544.54	1.69112e-07
3553.1	2.57586e-07
3561.66	2.64771e-07
3570.22	2.89365e-07
3578.78	3.11622e-07
3587.33	3.82493e-07
3595.89	4.68689e-07
3604.45	5.35233e-07
3613.01	6.98266e-07
3621.56	7.11028e-07
3630.12	5.78807e-07
3638.68	1.83912e-07
3647.24	1.1471e-06
3655.79	1.73429e-07
3664.35	7.3716e-08
3672.91	1.04428e-08
3681.47	4.75518e-08
3690.02	1.06179e-07
3698.58	1.26086e-07
3707.14	4.32553e-09
3715.7	6.05775e-08
3724.25	1.0808e-07
3732.81	2.58393e-07
3741.37	5.01882e-07
3749.93	5.2881e-07
3758.49	9.07344e-08
3767.04	-1.33822e-08
3775.6	3.89589e-08
3784.16	7.7263e-08
3792.72	5.36763e-08
3801.27	3.04666e-06
3809.83	1.91428e-07
3818.39	1.76001e-07
3826.95	6.70518e-07
3835.5	3.2012e-07
3844.06	4.569e-07
3852.62	6.36763e-07
3861.18	2.61535e-07
3869.73	7.1575e-07
3878.29	3.64493e-07
3886.85	4.77915e-07
3895.41	4.35555e-07
3903.96	1.0924e-06
3912.52	3.74273e-07
3921.08	3.28577e-07
3929.64	4.82379e-07
3938.2	5.08256e-07
3946.75	4.757e-07
3955.31	5.37549e-07
3963.87	8.21462e-07
3972.43	1.3687e-06
