Infrared Spectrum: 1,4-Dimethylbenzene
Formula: 1,4-( C H3)2 C6 H4
CAS: 106-42-3
State: gas
Melting point: 13.26 C
Boiling point: 138.35 C
Class: IUPAC A
Instrument: IFS66V (Bruker)
Instrument parameters: KBr Beam Splitter; MCT Detector; Multipass cell
Sampling: 1 L/min Flow
Resolution: 0.1250
Temperature: 23 C
Pressure: 101.3 Pa
Origin: NIST, Analytical Chemistry Division, 301-975-3108
cm-1	(micromol/mol)-1m-1 (base 10)
575.05	-1.00357e-06
583.608	-2.17626e-06
592.165	1.34126e-06
600.723	3.94946e-07
609.281	-1.27287e-06
617.838	5.65712e-07
626.396	-6.16564e-07
634.954	-2.6985e-07
643.511	-4.18421e-07
652.069	-1.53755e-06
660.626	3.49701e-07
669.184	-1.28683e-06
677.742	-3.79447e-07
686.299	-4.87527e-07
694.857	8.58495e-08
703.415	1.46136e-07
711.972	-5.26155e-07
720.53	3.67119e-07
729.088	2.07904e-07
737.645	3.10154e-07
746.203	-1.1801e-07
754.761	8.6079e-07
763.318	4.04736e-06
771.876	2.37876e-05
780.434	9.99281e-05
788.991	0.000171486
797.549	0.00018906
806.106	0.000150131
814.664	4.45828e-05
823.222	8.32072e-06
831.779	4.45917e-06
840.337	3.00566e-06
848.895	9.92747e-07
857.452	7.42532e-07
866.01	7.91627e-07
874.568	1.31813e-06
883.125	9.41458e-07
891.683	1.26983e-06
900.241	1.26633e-06
908.798	1.64533e-06
917.356	2.5636e-06
925.914	2.69491e-06
934.471	2.50628e-06
943.029	2.69603e-06
951.586	3.54919e-06
960.144	4.22872e-06
968.702	4.62044e-06
977.259	4.85573e-06
985.817	4.80935e-06
994.375	4.86266e-06
1002.93	4.74252e-06
1011.49	7.18913e-06
1020.05	2.1607e-05
1028.61	2.66837e-05
1037.16	1.74317e-05
1045.72	2.47594e-05
1054.28	2.34811e-05
1062.84	1.7409e-05
1071.39	1.11504e-05
1079.95	8.87804e-06
1088.51	1.19646e-05
1097.07	1.90258e-05
1105.62	2.58599e-05
1114.18	4.07687e-05
1122.74	3.20695e-05
1131.3	1.97363e-05
1139.85	7.32596e-06
1148.41	4.22824e-06
1156.97	3.28469e-06
1165.53	3.40142e-06
1174.09	3.52699e-06
1182.64	3.48981e-06
1191.2	2.96225e-06
1199.76	2.48541e-06
1208.32	5.47001e-06
1216.87	1.34604e-05
1225.43	1.74591e-05
1233.99	1.38861e-05
1242.55	1.25801e-05
1251.1	5.22787e-06
1259.66	3.43889e-06
1268.22	3.02912e-06
1276.78	2.47924e-06
1285.33	2.41639e-06
1293.89	2.40166e-06
1302.45	3.34399e-06
1311.01	4.9656e-06
1319.57	5.51194e-06
1328.12	6.14091e-06
1336.68	6.70945e-06
1345.24	8.82467e-06
1353.8	8.51103e-06
1362.35	7.53578e-06
1370.91	1.02318e-05
1379.47	1.95747e-05
1388.03	2.57309e-05
1396.58	1.71564e-05
1405.14	1.72026e-05
1413.7	2.25072e-05
1422.26	3.12722e-05
1430.81	3.59086e-05
1439.37	3.61776e-05
1447.93	2.8357e-05
1456.49	3.239e-05
1465.05	3.99238e-05
1473.6	4.16997e-05
1482.16	3.85349e-05
1490.72	4.01853e-05
1499.28	5.3162e-05
1507.83	8.65677e-05
1516.39	0.000229055
1524.95	0.000239525
1533.51	5.71635e-05
1542.06	1.95871e-05
1550.62	1.49706e-05
1559.18	1.17685e-05
1567.74	9.15067e-06
1576.29	5.44307e-06
1584.85	5.35802e-06
1593.41	5.18872e-06
1601.97	5.8701e-06
1610.53	8.86809e-06
1619.08	1.58908e-05
1627.64	1.41111e-05
1636.2	1.15204e-05
1644.76	4.48575e-06
1653.31	2.32599e-07
1661.87	2.05551e-06
1670.43	1.58311e-06
1678.99	1.02959e-06
1687.54	1.12519e-06
1696.1	1.42434e-07
1704.66	7.67459e-07
1713.22	1.37963e-06
1721.77	3.18583e-06
1730.33	2.87847e-06
1738.89	2.25113e-06
1747.45	3.24888e-06
1756.01	3.58843e-06
1764.56	2.8721e-06
1773.12	3.66847e-06
1781.68	1.00294e-05
1790.24	1.21071e-05
1798.79	5.90297e-06
1807.35	1.42401e-06
1815.91	1.03356e-06
1824.47	1.31498e-06
1833.02	3.22837e-06
1841.58	4.16343e-06
1850.14	2.73347e-06
1858.7	1.97386e-06
1867.25	4.47356e-06
1875.81	1.09046e-05
1884.37	2.11456e-05
1892.93	2.15523e-05
1901.49	9.82179e-06
1910.04	3.55472e-06
1918.6	2.27659e-06
1927.16	2.15733e-06
1935.72	1.35488e-06
1944.27	7.63339e-07
1952.83	1.05084e-06
1961.39	7.48463e-07
1969.95	9.57051e-07
1978.5	1.21279e-06
1987.06	1.21351e-06
1995.62	1.23113e-06
2004.18	9.18375e-07
2012.73	7.67614e-07
2021.29	4.65661e-07
2029.85	2.54886e-07
2038.41	2.63721e-07
2046.97	1.43399e-08
2055.52	-2.18359e-08
2064.08	-2.79914e-08
2072.64	2.14965e-07
2081.2	1.96766e-07
2089.75	4.45372e-07
2098.31	1.4966e-06
2106.87	1.58176e-06
2115.43	1.32358e-06
2123.98	2.86407e-07
2132.54	-1.7772e-07
2141.1	-3.61995e-07
2149.66	-2.51966e-07
2158.21	1.324e-06
2166.77	1.95581e-07
2175.33	1.11071e-07
2183.89	-7.99078e-08
2192.45	5.66185e-08
2201	3.98377e-07
2209.56	1.26203e-06
2218.12	6.36023e-07
2226.68	-4.2063e-08
2235.23	2.76894e-08
2243.79	-1.49721e-07
2252.35	-1.13999e-07
2260.91	1.7924e-07
2269.46	4.61052e-07
2278.02	3.60182e-07
2286.58	6.72891e-07
2295.14	1.62663e-06
2303.69	2.24956e-06
2312.25	2.82515e-06
2320.81	1.33819e-06
2329.37	1.58906e-06
2337.93	2.56112e-06
2346.48	2.14615e-06
2355.04	1.03758e-06
2363.6	6.77556e-07
2372.16	2.13537e-07
2380.71	7.54121e-07
2389.27	5.61032e-07
2397.83	4.16121e-07
2406.39	1.06177e-06
2414.94	1.34526e-06
2423.5	1.46077e-06
2432.06	1.39399e-06
2440.62	1.1966e-06
2449.17	9.18464e-07
2457.73	8.16637e-07
2466.29	6.33626e-07
2474.85	9.15893e-07
2483.41	7.06768e-07
2491.96	7.50279e-07
2500.52	6.01863e-07
2509.08	3.31471e-07
2517.64	3.81336e-07
2526.19	2.86014e-07
2534.75	2.11643e-07
2543.31	3.20529e-07
2551.87	6.17207e-08
2560.42	4.89078e-08
2568.98	3.52109e-08
2577.54	1.30948e-06
2586.1	2.8501e-06
2594.65	3.31748e-06
2603.21	1.66775e-06
2611.77	1.14877e-06
2620.33	4.07109e-07
2628.89	1.09634e-07
2637.44	3.56371e-07
2646	1.78982e-07
2654.56	4.81393e-08
2663.12	-2.28548e-07
2671.67	-8.41597e-08
2680.23	-4.16352e-07
2688.79	-4.04865e-07
2697.35	6.1276e-08
2705.9	1.07333e-06
2714.46	1.71155e-06
2723.02	2.13717e-06
2731.58	5.35738e-06
2740.13	1.45142e-05
2748.69	1.68281e-05
2757.25	3.28581e-06
2765.81	1.32078e-06
2774.37	9.22254e-07
2782.92	1.11639e-06
2791.48	1.95195e-06
2800.04	2.9092e-06
2808.6	3.71957e-06
2817.15	5.60301e-06
2825.71	8.08175e-06
2834.27	1.16247e-05
2842.83	1.54747e-05
2851.38	2.20014e-05
2859.94	4.30845e-05
2868.5	0.000100706
2877.06	0.000153306
2885.61	0.000151375
2894.17	0.000123393
2902.73	0.000105423
2911.29	9.67349e-05
2919.85	0.00013389
2928.4	0.000245733
2936.96	0.000305042
2945.52	0.000230118
2954.08	0.000118929
2962.63	9.53456e-05
2971.19	7.36618e-05
2979.75	8.78882e-05
2988.31	0.00011539
2996.86	0.000166381
3005.42	0.000209605
3013.98	0.000196503
3022.54	0.000238223
3031.09	0.000229344
3039.65	0.000164754
3048.21	0.000155408
3056.77	0.000147752
3065.33	0.000117705
3073.88	5.72479e-05
3082.44	2.96653e-05
3091	2.54517e-05
3099.56	2.74951e-05
3108.11	2.65125e-05
3116.67	1.68396e-05
3125.23	7.33465e-06
3133.79	6.47479e-06
3142.34	9.52771e-06
3150.9	7.67806e-06
3159.46	2.19739e-06
3168.02	6.14272e-07
3176.57	-1.2954e-07
3185.13	1.13637e-07
3193.69	-5.78943e-07
3202.25	-1.5606e-07
3210.81	-1.96595e-08
3219.36	-4.72767e-07
3227.92	-2.41361e-07
3236.48	-4.03825e-07
3245.04	3.24702e-07
3253.59	-3.45906e-08
3262.15	8.04899e-09
3270.71	-2.599e-07
3279.27	2.73817e-07
3287.82	-2.00361e-07
3296.38	-1.74295e-07
3304.94	-1.61578e-07
3313.5	-1.79257e-07
3322.05	-9.75337e-08
3330.61	-4.59007e-07
3339.17	-1.40059e-07
3347.73	-2.44911e-07
3356.29	8.8155e-08
3364.84	-5.02746e-07
3373.4	4.81866e-08
3381.96	5.2081e-08
3390.52	8.61845e-07
3399.07	2.65767e-07
3407.63	2.52952e-07
3416.19	-2.61487e-07
3424.75	-1.27347e-07
3433.3	3.7923e-07
3441.86	2.17264e-07
3450.42	4.22998e-07
3458.98	-1.19685e-07
3467.53	-4.67774e-07
3476.09	-4.22701e-07
3484.65	-3.11368e-07
3493.21	-7.42371e-08
3501.77	-1.63883e-07
3510.32	-2.41892e-07
3518.88	-6.85112e-07
3527.44	-2.87775e-07
3536	-1.21833e-07
3544.55	-4.27172e-07
3553.11	-6.23382e-07
3561.67	-7.49681e-07
3570.23	-3.55683e-07
3578.78	-3.78251e-07
3587.34	-1.65735e-07
3595.9	-1.86227e-07
3604.46	-3.72723e-07
3613.01	7.91693e-08
3621.57	1.61816e-07
3630.13	-9.21868e-08
3638.69	-3.53337e-09
3647.25	-1.34644e-07
3655.8	6.78609e-07
3664.36	1.03421e-06
3672.92	1.18163e-06
3681.48	1.1795e-06
3690.03	4.84017e-07
3698.59	2.37337e-07
3707.15	2.21996e-07
3715.71	2.03825e-07
3724.26	5.01902e-08
3732.82	-9.03678e-08
3741.38	1.8474e-07
3749.94	4.63053e-07
3758.49	7.63071e-07
3767.05	8.06505e-07
3775.61	7.11504e-07
3784.17	5.71353e-07
3792.73	5.50778e-08
3801.28	-4.97951e-07
3809.84	8.62123e-07
3818.4	8.10772e-07
3826.96	7.53359e-07
3835.51	1.54256e-06
3844.07	1.74315e-06
3852.63	1.57238e-06
3861.19	1.66852e-06
3869.74	1.56956e-06
3878.3	1.68974e-06
3886.86	2.26204e-06
3895.42	2.16711e-06
3903.97	2.18996e-06
3912.53	1.88689e-06
3921.09	2.43285e-06
3929.65	2.01488e-06
3938.21	2.09057e-06
3946.76	2.1585e-06
3955.32	1.82088e-06
3963.88	2.43513e-06
3972.44	2.50132e-06
