Infrared Spectrum: 1,3-Butadiene
Formula: C H2: C H C H: C H2
CAS: 106-99-0
State: gas
Melting point: -108.91 C
Boiling point: -4.41 C
Class: IUPAC A
Instrument: IFS66V (Bruker)
Instrument parameters: KBr Beam splitter; MCT Detector; Multipass cell
Sampling: 1 L/min Flow
Resolution: 0.2410
Temperature: 23 C
Pressure: 101.3 kPa
Origin: NIST, Anayltical Chemistry Division, 301-975-3108
cm-1	(micromol/mol)-1m-1 (base 10)
575.048	5.20595e-06
583.606	3.04059e-06
592.163	2.42927e-06
600.721	1.1798e-06
609.279	7.4757e-07
617.836	6.50811e-07
626.394	7.72821e-07
634.951	1.15418e-06
643.509	1.54595e-06
652.067	2.42448e-06
660.624	2.79689e-06
669.182	3.25706e-06
677.74	2.7869e-06
686.297	2.20235e-06
694.855	1.65061e-06
703.412	1.24328e-06
711.97	7.39959e-07
720.528	7.51221e-07
729.085	6.97301e-07
737.643	9.68185e-07
746.201	9.0519e-07
754.758	1.06512e-06
763.316	1.10636e-06
771.873	7.96484e-07
780.431	5.05738e-07
788.989	4.99896e-07
797.546	5.70525e-07
806.104	7.18155e-07
814.662	1.04799e-06
823.219	1.70444e-06
831.777	3.17888e-06
840.334	6.14543e-06
848.892	1.5403e-05
857.45	2.41627e-05
866.007	3.9202e-05
874.565	6.20905e-05
883.123	9.09967e-05
891.68	0.000142728
900.238	0.00013386
908.795	0.000475763
917.353	0.000142892
925.911	0.000139975
934.468	0.000115561
943.026	8.87726e-05
951.584	4.94065e-05
960.141	2.99861e-05
968.699	2.72582e-05
977.256	3.33423e-05
985.814	6.44444e-05
994.372	8.98111e-05
1002.93	8.00874e-05
1011.49	0.000120976
1020.04	6.78072e-05
1028.6	7.40786e-05
1037.16	6.05179e-05
1045.72	4.86941e-05
1054.28	3.08756e-05
1062.83	2.19437e-05
1071.39	1.24422e-05
1079.95	8.84787e-06
1088.51	4.28085e-06
1097.06	1.5666e-06
1105.62	5.39619e-07
1114.18	2.71055e-07
1122.74	2.81651e-07
1131.29	2.8638e-07
1139.85	2.09585e-07
1148.41	1.77334e-07
1156.97	1.87137e-07
1165.52	1.91091e-07
1174.08	1.79506e-07
1182.64	2.2173e-07
1191.2	1.66215e-07
1199.75	1.6628e-07
1208.31	3.56507e-07
1216.87	4.87776e-07
1225.43	8.69589e-07
1233.99	1.38213e-06
1242.54	2.24725e-06
1251.1	3.64635e-06
1259.66	5.48017e-06
1268.22	5.12067e-06
1276.77	6.79845e-06
1285.33	7.33402e-06
1293.89	4.14817e-06
1302.45	6.63533e-06
1311	5.44022e-06
1319.56	4.40057e-06
1328.12	2.79002e-06
1336.68	3.04226e-06
1345.23	2.69254e-06
1353.79	4.0887e-06
1362.35	9.73694e-06
1370.91	2.10384e-05
1379.46	7.97929e-06
1388.02	1.96787e-05
1396.58	1.20957e-05
1405.14	5.67093e-06
1413.7	5.82717e-06
1422.25	5.72438e-06
1430.81	4.23147e-06
1439.37	5.19857e-06
1447.93	5.66636e-06
1456.48	5.59152e-06
1465.04	4.7379e-06
1473.6	7.14324e-06
1482.16	5.61017e-06
1490.71	6.0257e-06
1499.27	5.54626e-06
1507.83	3.23592e-06
1516.39	2.43206e-06
1524.94	1.45173e-06
1533.5	1.21177e-06
1542.06	3.85067e-06
1550.62	1.30683e-06
1559.18	3.54006e-06
1567.73	9.17425e-06
1576.29	3.64545e-05
1584.85	9.47363e-05
1593.41	6.26895e-05
1601.96	0.000100909
1610.52	6.65488e-05
1619.08	8.16237e-06
1627.64	3.33072e-06
1636.19	3.22735e-06
1644.75	3.58903e-06
1653.31	8.6591e-06
1661.87	1.87736e-06
1670.42	1.59246e-06
1678.98	9.28715e-07
1687.54	6.71027e-07
1696.1	4.02893e-06
1704.65	1.10008e-06
1713.21	7.38575e-07
1721.77	1.09804e-06
1730.33	2.09767e-06
1738.89	2.62627e-06
1747.44	4.00198e-06
1756	5.23067e-06
1764.56	3.70705e-06
1773.12	4.09111e-06
1781.67	3.00516e-06
1790.23	4.20263e-06
1798.79	1.06177e-05
1807.35	4.38692e-05
1815.9	4.11105e-05
1824.46	4.61806e-05
1833.02	4.45659e-05
1841.58	7.66557e-06
1850.13	1.70673e-06
1858.69	1.90338e-06
1867.25	2.07918e-06
1875.81	1.96209e-06
1884.36	2.34058e-06
1892.92	1.26143e-06
1901.48	1.05134e-06
1910.04	1.66241e-06
1918.6	1.28481e-06
1927.15	1.33541e-06
1935.71	1.3007e-06
1944.27	1.51693e-06
1952.83	2.40805e-06
1961.38	3.59826e-06
1969.94	2.77263e-06
1978.5	3.23879e-06
1987.06	1.76247e-06
1995.61	7.59317e-07
2004.17	5.33394e-07
2012.73	2.71415e-07
2021.29	5.55062e-08
2029.84	5.5619e-08
2038.4	-5.26922e-08
2046.96	-4.50761e-08
2055.52	-7.27628e-08
2064.08	-2.38978e-08
2072.63	4.68387e-08
2081.19	8.36767e-08
2089.75	1.6831e-07
2098.31	3.40664e-07
2106.86	2.63947e-07
2115.42	4.64778e-07
2123.98	2.7684e-07
2132.54	1.80179e-07
2141.09	1.31198e-07
2149.65	1.98896e-07
2158.21	4.96321e-07
2166.77	4.27304e-07
2175.32	3.40242e-07
2183.88	3.77467e-07
2192.44	4.18644e-07
2201	4.934e-07
2209.55	4.40248e-07
2218.11	4.41008e-07
2226.67	3.81506e-07
2235.23	4.73479e-07
2243.79	7.02132e-07
2252.34	9.96857e-07
2260.9	1.07774e-06
2269.46	1.07367e-06
2278.02	1.01358e-06
2286.57	7.40236e-07
2295.13	5.39142e-07
2303.69	5.62745e-07
2312.25	4.39826e-07
2320.8	5.48201e-07
2329.36	4.77009e-07
2337.92	8.47954e-07
2346.48	4.11342e-07
2355.03	3.05094e-07
2363.59	4.14365e-07
2372.15	2.85947e-07
2380.71	2.19411e-07
2389.26	1.97638e-07
2397.82	2.01388e-07
2406.38	2.69527e-07
2414.94	3.69404e-07
2423.5	3.44291e-07
2432.05	4.08232e-07
2440.61	4.34674e-07
2449.17	4.21534e-07
2457.73	5.51187e-07
2466.28	7.25857e-07
2474.84	1.00851e-06
2483.4	1.82442e-06
2491.96	1.12298e-06
2500.51	1.56177e-06
2509.07	1.07057e-06
2517.63	4.91308e-07
2526.19	2.92292e-07
2534.74	2.37073e-07
2543.3	2.27605e-07
2551.86	2.17257e-07
2560.42	3.22278e-07
2568.98	4.58896e-07
2577.53	5.04234e-07
2586.09	4.51811e-07
2594.65	4.47098e-07
2603.21	1.83226e-07
2611.76	1.30295e-07
2620.32	1.66175e-07
2628.88	1.78949e-07
2637.44	2.27587e-07
2645.99	2.13177e-07
2654.55	1.70329e-07
2663.11	1.56256e-07
2671.67	1.03336e-07
2680.22	6.62545e-08
2688.78	1.13515e-07
2697.34	1.4665e-07
2705.9	1.95577e-07
2714.45	3.65286e-07
2723.01	4.68078e-07
2731.57	2.33797e-07
2740.13	3.13503e-07
2748.69	2.05647e-07
2757.24	1.7418e-07
2765.8	2.18494e-07
2774.36	1.95906e-07
2782.92	3.49661e-07
2791.47	3.78733e-07
2800.03	4.51007e-07
2808.59	5.56788e-07
2817.15	3.47482e-07
2825.7	4.26489e-07
2834.26	6.59579e-07
2842.82	1.20015e-06
2851.38	1.81057e-06
2859.93	2.10695e-06
2868.49	2.51365e-06
2877.05	2.96825e-06
2885.61	3.46887e-06
2894.16	4.52665e-06
2902.72	5.08058e-06
2911.28	6.33425e-06
2919.84	7.99192e-06
2928.4	9.51398e-06
2936.95	1.11875e-05
2945.51	1.33864e-05
2954.07	1.59856e-05
2962.63	2.27292e-05
2971.18	3.71733e-05
2979.74	4.07268e-05
2988.3	4.70823e-05
2996.86	5.87417e-05
3005.41	5.28644e-05
3013.97	4.60795e-05
3022.53	5.27839e-05
3031.09	4.45613e-05
3039.64	5.35509e-05
3048.2	5.49162e-05
3056.76	4.5742e-05
3065.32	7.02102e-05
3073.88	6.17219e-05
3082.43	7.17671e-05
3090.99	9.33666e-05
3099.55	5.60445e-05
3108.11	9.29768e-05
3116.66	6.13823e-05
3125.22	3.11857e-05
3133.78	2.14537e-05
3142.34	1.34143e-05
3150.89	7.31259e-06
3159.45	3.89423e-06
3168.01	1.85032e-06
3176.57	7.84533e-07
3185.12	4.02811e-07
3193.68	3.07871e-07
3202.24	1.36214e-07
3210.8	1.0468e-07
3219.35	4.77224e-07
3227.91	6.17176e-07
3236.47	8.76226e-07
3245.03	9.24928e-07
3253.59	3.89604e-07
3262.14	2.99724e-07
3270.7	2.29315e-07
3279.26	2.32573e-07
3287.82	1.64472e-07
3296.37	1.99922e-07
3304.93	1.12069e-07
3313.49	3.025e-07
3322.05	2.32338e-07
3330.6	2.49388e-07
3339.16	1.33419e-07
3347.72	2.51238e-08
3356.28	5.14426e-08
3364.83	2.3787e-07
3373.39	2.30277e-07
3381.95	3.34036e-07
3390.51	5.40494e-07
3399.06	4.40581e-07
3407.62	6.13238e-07
3416.18	3.44618e-07
3424.74	1.68725e-07
3433.3	1.9832e-07
3441.85	2.64462e-07
3450.41	3.40135e-07
3458.97	3.27869e-07
3467.53	3.51376e-07
3476.08	1.69551e-07
3484.64	1.20287e-07
3493.2	1.67701e-07
3501.76	1.98858e-07
3510.31	2.49348e-07
3518.87	3.82957e-07
3527.43	3.46361e-07
3535.99	2.32835e-07
3544.54	1.83413e-07
3553.1	2.67776e-07
3561.66	2.63503e-07
3570.22	2.95817e-07
3578.78	3.17388e-07
3587.33	4.1289e-07
3595.89	4.89169e-07
3604.45	5.37294e-07
3613.01	7.1793e-07
3621.56	7.13848e-07
3630.12	6.3185e-07
3638.68	1.9665e-07
3647.24	1.11132e-06
3655.79	2.07011e-07
3664.35	7.57696e-08
3672.91	2.65917e-08
3681.47	5.02275e-08
3690.02	1.36976e-07
3698.58	1.25886e-07
3707.14	2.06927e-08
3715.7	6.96251e-08
3724.25	1.16402e-07
3732.81	3.01692e-07
3741.37	4.85211e-07
3749.93	6.22628e-07
3758.49	1.04137e-07
3767.04	-3.86715e-09
3775.6	3.64978e-08
3784.16	8.83988e-08
3792.72	6.11396e-08
3801.27	2.82249e-06
3809.83	1.89165e-07
3818.39	1.91531e-07
3826.95	6.30839e-07
3835.5	3.5353e-07
3844.06	4.71174e-07
3852.62	7.17337e-07
3861.18	2.89407e-07
3869.73	8.07913e-07
3878.29	3.7413e-07
3886.85	4.93407e-07
3895.41	4.3084e-07
3903.96	1.06864e-06
3912.52	3.74674e-07
3921.08	3.4229e-07
3929.64	4.76398e-07
3938.2	5.05942e-07
3946.75	4.79194e-07
3955.31	5.423e-07
3963.87	8.1801e-07
3972.43	1.36603e-06
