Infrared Spectrum: PHENOL, 4-CHLORO-
Formula: C6 H5 Cl O
CAS: 106-48-9
State: SOLUTION (10% IN CCl4 FOR 3800-1300, 10% IN CS2 FOR 1300-650, 10% IN CCl4 FOR 650-250 CM^-^1) VERSUS SOLVENT
Class: COBLENTZ III
Instrument: PERKIN-ELMER 521 (GRATING)
Instrument parameters: FILTERS AT 3150, 2500, 2000, 1150, 700, 410; GRATING CHANGES AT 2000, 630 CM^-^1
Sampling: TRANSMISSION
Path length: 0.011, 0.010, AND 0.011 CM (CsBr CELL)
Resolution: 4
Origin: DOW CORNING CORP.
1/CM	TRANSMITTANCE
249.127	0.573
258.952	0.567
268.778	0.559
278.603	0.547
288.428	0.526
298.254	0.519
308.079	0.515
317.904	0.511
327.73	0.511
337.555	0.52
347.38	0.581
357.206	0.638
367.031	0.676
376.856	0.673
386.681	0.641
396.507	0.735
406.332	0.736
416.157	0.724
425.983	0.646
435.808	0.703
445.633	0.742
455.459	0.766
465.284	0.774
475.109	0.778
484.935	0.77
494.76	0.738
504.585	0.3179
514.411	0.4551
524.236	0.683
534.061	0.711
543.887	0.715
553.712	0.707
563.537	0.702
573.363	0.696
583.188	0.692
593.013	0.689
602.839	0.688
612.664	0.681
622.489	0.663
632.315	0.624
642.14	0.383
651.965	0.2561
661.79	0.697
671.616	0.753
681.441	0.769
691.266	0.77
701.092	0.731
710.917	0.795
720.742	0.817
730.568	0.817
740.393	0.83
750.218	0.837
760.044	0.852
769.869	0.861
779.694	0.863
789.52	0.842
799.345	0.7389
809.17	0.591
818.996	0.354
828.821	0.076
838.646	0.515
848.472	0.763
858.297	0.83
868.122	0.869
877.948	0.896
887.773	0.914
897.598	0.915
907.423	0.904
917.249	0.897
927.074	0.885
936.899	0.895
946.725	0.892
956.55	0.907
966.375	0.916
976.201	0.918
986.026	0.918
995.851	0.903
1005.68	0.7909
1015.5	0.7071
1025.33	0.893
1035.15	0.926
1044.98	0.928
1054.8	0.919
1064.63	0.897
1074.45	0.855
1084.28	0.754
1094.1	0.077
1103.93	0.677
1113.76	0.724
1123.58	0.774
1133.41	0.734
1143.23	0.648
1153.06	0.499
1162.88	0.1849
1172.71	0.056
1182.53	0.128
1192.36	0.242
1202.18	0.218
1212.01	0.216
1221.83	0.224
1231.66	0.249
1241.48	0.198
1251.31	0.179
1261.14	0.103
1270.96	0.492
1280.79	0.676
1290.61	0.746
1300.44	0.754
1310.26	0.653
1320.09	0.373
1329.91	0.511
1339.74	0.515
1349.56	0.519
1359.39	0.567
1369.21	0.691
1379.04	0.786
1388.86	0.805
1398.69	0.794
1408.51	0.781
1418.34	0.551
1428.17	0.186
1437.99	0.375
1447.82	0.542
1457.64	0.614
1467.47	0.587
1477.29	0.433
1487.12	0.081
1496.94	0.016
1506.77	0.633
1516.59	0.715
1526.42	0.778
1536.24	0.813
1546.07	0.82
1555.89	0.834
1565.72	0.825
1575.55	0.74
1585.37	0.4409
1595.2	0.252
1605.02	0.412
1614.85	0.693
1624.67	0.754
1634.5	0.777
1644.32	0.834
1654.15	0.849
1663.97	0.873
1673.8	0.88
1683.62	0.884
1693.45	0.885
1703.27	0.885
1713.1	0.884
1722.93	0.875
1732.75	0.863
1742.58	0.865
1752.4	0.879
1762.23	0.889
1772.05	0.893
1781.88	0.897
1791.7	0.893
1801.53	0.888
1811.35	0.883
1821.18	0.88
1831	0.877
1840.83	0.867
1850.65	0.852
1860.48	0.832
1870.3	0.736
1880.13	0.836
1889.96	0.86
1899.78	0.876
1909.61	0.897
1919.43	0.902
1929.26	0.902
1939.08	0.904
1948.91	0.908
1958.73	0.908
1968.56	0.908
1978.38	0.906
1988.21	0.907
1998.03	0.908
2007.86	0.916
2017.68	0.914
2027.51	0.915
2037.34	0.916
2047.16	0.911
2056.99	0.906
2066.81	0.9
2076.64	0.8999
2086.46	0.9079
2096.29	0.9149
2106.11	0.9219
2115.94	0.9239
2125.76	0.926
2135.59	0.926
2145.41	0.924
2155.24	0.924
2165.06	0.923
2174.89	0.92
2184.72	0.922
2194.54	0.922
2204.37	0.924
2214.19	0.9221
2224.02	0.918
2233.84	0.918
2243.67	0.9151
2253.49	0.9112
2263.32	0.9097
2273.14	0.912
2282.97	0.9142
2292.79	0.914
2302.62	0.911
2312.44	0.912
2322.27	0.914
2332.09	0.915
2341.92	0.915
2351.75	0.915
2361.57	0.9142
2371.4	0.9124
2381.22	0.91
2391.05	0.9025
2400.87	0.8882
2410.7	0.875
2420.52	0.8559
2430.35	0.8528
2440.17	0.8705
2450	0.881
2459.82	0.881
2469.65	0.8825
2479.47	0.8775
2489.3	0.8807
2499.13	0.881
2508.95	0.8763
2518.78	0.88
2528.6	0.881
2538.43	0.881
2548.25	0.881
2558.08	0.883
2567.9	0.8816
2577.73	0.881
2587.55	0.879
2597.38	0.8763
2607.2	0.8757
2617.03	0.8797
2626.85	0.8834
2636.68	0.8777
2646.51	0.875
2656.33	0.8697
2666.16	0.869
2675.98	0.871
2685.81	0.871
2695.63	0.873
2705.46	0.8782
2715.28	0.8806
2725.11	0.885
2734.93	0.8834
2744.76	0.8818
2754.58	0.8778
2764.41	0.873
2774.23	0.872
2784.06	0.872
2793.89	0.8741
2803.71	0.876
2813.54	0.8795
2823.36	0.8835
2833.19	0.8845
2843.01	0.884
2852.84	0.878
2862.66	0.876
2872.49	0.875
2882.31	0.878
2892.14	0.881
2901.96	0.8795
2911.79	0.871
2921.61	0.868
2931.44	0.869
2941.26	0.867
2951.09	0.865
2960.92	0.868
2970.74	0.869
2980.57	0.867
2990.39	0.8621
3000.22	0.848
3010.04	0.8034
3019.87	0.7833
3029.69	0.7645
3039.52	0.73
3049.34	0.7894
3059.17	0.7826
3068.99	0.7664
3078.82	0.7792
3088.64	0.7816
3098.47	0.7719
3108.3	0.7645
3118.12	0.773
3127.95	0.7689
3137.77	0.7493
3147.6	0.7339
3157.42	0.7159
3167.25	0.6956
3177.07	0.67
3186.9	0.6413
3196.72	0.624
3206.55	0.6093
3216.37	0.5924
3226.2	0.5657
3236.02	0.5374
3245.85	0.5128
3255.68	0.4884
3265.5	0.4625
3275.33	0.4423
3285.15	0.4239
3294.98	0.3969
3304.8	0.3817
3314.63	0.3657
3324.45	0.3577
3334.28	0.348
3344.1	0.344
3353.93	0.3428
3363.75	0.339
3373.58	0.339
3383.4	0.34
3393.23	0.342
3403.05	0.3444
3412.88	0.3502
3422.71	0.3542
3432.53	0.3612
3442.36	0.3694
3452.18	0.382
3462.01	0.3897
3471.83	0.4027
3481.66	0.4189
3491.48	0.4468
3501.31	0.4728
3511.13	0.5032
3520.96	0.5266
3530.78	0.5386
3540.61	0.551
3550.43	0.5477
3560.26	0.5184
3570.09	0.4768
3579.91	0.4207
3589.74	0.3234
3599.56	0.2061
3609.39	0.2225
3619.21	0.5435
3629.04	0.7968
3638.86	0.8465
3648.69	0.853
3658.51	0.8519
3668.34	0.8513
3678.16	0.8693
3687.99	0.8871
3697.81	0.8991
3707.64	0.911
3717.47	0.915
3727.29	0.916
3737.12	0.918
3746.94	0.92
3756.77	0.922
3766.59	0.922
3776.42	0.919
3786.24	0.92
