Infrared Spectrum: Butane
Formula: C4 H10
CAS: 106-97-8
State: gas
Melting point: -138.35 C
Boiling point: -0.5 C
Class: IUPAC A
Instrument: IFS66V (Bruker)
Instrument parameters: KBr Beam Splitter; MCT Detector; Multipass cell
Sampling: 1 L/min Flow
Resolution: 1.9290
Temperature: 23 C
Pressure: 101.3 Pa
Origin: NIST, Analytical Chemistry Division, 301-975-3108
cm-1	(micromol/mol)-1m-1 (base 10)
575.652	-2.33254e-07
584.33	1.40793e-07
593.008	-4.72116e-08
601.687	-9.79375e-08
610.365	-2.21605e-07
619.043	-6.76015e-08
627.721	-9.33682e-08
636.399	-1.60794e-07
645.077	-6.76042e-08
653.756	-1.63801e-07
662.434	-4.98955e-08
671.112	1.98578e-08
679.79	1.32029e-07
688.468	4.67587e-07
697.146	1.14016e-06
705.825	2.38327e-06
714.503	3.99033e-06
723.181	5.36796e-06
731.859	1.05869e-05
740.537	8.94087e-06
749.216	1.0317e-05
757.894	7.84049e-06
766.572	5.52716e-06
775.25	3.41342e-06
783.928	2.6267e-06
792.606	1.97739e-06
801.285	1.58877e-06
809.963	8.00925e-07
818.641	3.33196e-07
827.319	9.86842e-08
835.997	1.37524e-08
844.676	3.81458e-08
853.354	-2.74884e-08
862.032	-3.51572e-08
870.71	1.69329e-08
879.388	-1.06838e-08
888.066	-2.7523e-08
896.745	-2.93783e-08
905.423	4.09552e-08
914.101	2.549e-07
922.779	7.70319e-07
931.457	2.04629e-06
940.135	5.37765e-06
948.814	1.11426e-05
957.492	1.74311e-05
966.17	1.94986e-05
974.848	1.65656e-05
983.526	1.04826e-05
992.205	6.97555e-06
1000.88	3.50485e-06
1009.56	1.78551e-06
1018.24	9.52744e-07
1026.92	5.18688e-07
1035.6	3.46178e-07
1044.27	9.38084e-08
1052.95	5.78827e-08
1061.63	9.98083e-08
1070.31	1.8061e-07
1078.99	1.35092e-07
1087.66	2.55856e-07
1096.34	1.97006e-07
1105.02	3.19632e-07
1113.7	8.78195e-07
1122.38	2.35556e-06
1131.06	2.81309e-06
1139.73	2.05906e-06
1148.41	2.02405e-06
1157.09	4.80238e-07
1165.77	1.37966e-07
1174.45	2.00524e-07
1183.12	1.95339e-07
1191.8	1.88691e-07
1200.48	1.98998e-07
1209.16	2.39622e-07
1217.84	3.23306e-07
1226.52	4.81125e-07
1235.19	7.05345e-07
1243.87	1.04919e-06
1252.55	1.51709e-06
1261.23	1.80051e-06
1269.91	2.35021e-06
1278.58	5.06258e-06
1287.26	8.07871e-06
1295.94	7.38069e-06
1304.62	7.60024e-06
1313.3	2.70606e-06
1321.98	1.89156e-06
1330.65	4.02541e-06
1339.33	3.81512e-06
1348.01	4.19244e-06
1356.69	6.63914e-06
1365.37	1.07101e-05
1374.04	2.53417e-05
1382.72	3.40935e-05
1391.4	3.7652e-05
1400.08	2.36392e-05
1408.76	9.40609e-06
1417.44	7.96975e-06
1426.11	1.08124e-05
1434.79	1.98043e-05
1443.47	3.75506e-05
1452.15	5.32828e-05
1460.83	7.31366e-05
1469.5	7.17595e-05
1478.18	5.78666e-05
1486.86	4.83572e-05
1495.54	2.86849e-05
1504.22	1.58132e-05
1512.9	8.12555e-06
1521.57	3.94477e-06
1530.25	1.794e-06
1538.93	1.18869e-06
1547.61	8.87777e-07
1556.29	1.01032e-06
1564.96	1.28207e-06
1573.64	1.55027e-06
1582.32	1.50638e-06
1591	1.38183e-06
1599.68	1.08462e-06
1608.36	8.72282e-07
1617.03	1.06987e-06
1625.71	8.618e-07
1634.39	1.15702e-06
1643.07	9.85028e-07
1651.75	1.28901e-06
1660.42	1.30649e-06
1669.1	1.53322e-06
1677.78	1.2745e-06
1686.46	1.34606e-06
1695.14	1.26931e-06
1703.82	1.12956e-06
1712.49	1.09919e-06
1721.17	1.00779e-06
1729.85	8.09565e-07
1738.53	5.59578e-07
1747.21	3.57504e-07
1755.88	2.833e-07
1764.56	2.5193e-07
1773.24	3.19473e-07
1781.92	3.31334e-07
1790.6	3.65022e-07
1799.28	3.98487e-07
1807.95	3.94487e-07
1816.63	3.58687e-07
1825.31	2.93528e-07
1833.99	1.34594e-07
1842.67	6.3687e-08
1851.34	-1.46246e-09
1860.02	3.59612e-09
1868.7	3.44715e-08
1877.38	9.37966e-08
1886.06	2.26031e-07
1894.74	3.77047e-07
1903.41	4.73076e-07
1912.09	4.4372e-07
1920.77	4.75648e-07
1929.45	3.76138e-07
1938.13	3.01035e-07
1946.8	1.82172e-07
1955.48	8.2579e-08
1964.16	-6.66656e-10
1972.84	-5.0946e-08
1981.52	-4.27806e-08
1990.19	-4.82748e-08
1998.87	-2.36513e-08
2007.55	9.17675e-10
2016.23	1.27303e-07
2024.91	4.4075e-07
2033.59	6.03666e-07
2042.26	6.49435e-07
2050.94	5.65277e-07
2059.62	2.48613e-07
2068.3	1.46707e-07
2076.98	1.43953e-07
2085.65	2.19786e-07
2094.33	3.0304e-07
2103.01	3.96865e-07
2111.69	4.83071e-07
2120.37	5.95181e-07
2129.05	6.07375e-07
2137.72	6.07035e-07
2146.4	6.5444e-07
2155.08	6.20407e-07
2163.76	6.65879e-07
2172.44	7.41688e-07
2181.11	6.47186e-07
2189.79	6.89471e-07
2198.47	6.67766e-07
2207.15	7.05242e-07
2215.83	6.76512e-07
2224.51	6.47727e-07
2233.18	5.24902e-07
2241.86	4.19799e-07
2250.54	4.61262e-07
2259.22	5.27214e-07
2267.9	5.67298e-07
2276.57	6.4732e-07
2285.25	7.86256e-07
2293.93	8.11447e-07
2302.61	9.64615e-07
2311.29	8.90991e-07
2319.97	7.87171e-07
2328.64	7.21657e-07
2337.32	8.31312e-07
2346	9.97962e-07
2354.68	8.57178e-07
2363.36	5.80354e-07
2372.03	1.02736e-06
2380.71	1.59565e-06
2389.39	1.47836e-06
2398.07	1.6939e-06
2406.75	1.13445e-06
2415.43	1.49089e-06
2424.1	1.60132e-06
2432.78	1.91456e-06
2441.46	1.74491e-06
2450.14	1.59903e-06
2458.82	9.33756e-07
2467.49	5.4165e-07
2476.17	3.3673e-07
2484.85	2.53086e-07
2493.53	1.82118e-07
2502.21	2.03015e-07
2510.89	3.67228e-07
2519.56	5.57071e-07
2528.24	7.42388e-07
2536.92	7.00376e-07
2545.6	6.93111e-07
2554.28	5.70474e-07
2562.95	7.14345e-07
2571.63	1.08731e-06
2580.31	1.65996e-06
2588.99	2.49527e-06
2597.67	3.48616e-06
2606.35	3.62769e-06
2615.02	4.16021e-06
2623.7	4.17486e-06
2632.38	4.49745e-06
2641.06	4.34848e-06
2649.74	4.75146e-06
2658.41	4.70763e-06
2667.09	4.22725e-06
2675.77	3.66835e-06
2684.45	4.00617e-06
2693.13	3.14629e-06
2701.81	3.07962e-06
2710.48	3.91124e-06
2719.16	4.96251e-06
2727.84	7.7483e-06
2736.52	1.01805e-05
2745.2	9.39416e-06
2753.87	1.07612e-05
2762.55	6.98019e-06
2771.23	5.8633e-06
2779.91	6.18317e-06
2788.59	6.6246e-06
2797.27	7.8283e-06
2805.94	1.00969e-05
2814.62	1.39123e-05
2823.3	2.05211e-05
2831.98	2.96137e-05
2840.66	4.5473e-05
2849.33	7.003e-05
2858.01	0.00011662
2866.69	0.000168958
2875.37	0.000257118
2884.05	0.000252406
2892.73	0.000273552
2901.4	0.0002457
2910.08	0.000233917
2918.76	0.000278088
2927.44	0.000362411
2936.12	0.000427461
2944.79	0.000474037
2953.47	0.000543717
2962.15	0.000656238
2970.83	0.000601121
2979.51	0.000571493
2988.19	0.000367665
2996.86	0.000157982
3005.54	6.61086e-05
3014.22	2.60455e-05
3022.9	1.20578e-05
3031.58	7.88767e-06
3040.25	6.69432e-06
3048.93	6.22444e-06
3057.61	6.27694e-06
3066.29	6.94872e-06
3074.97	7.68867e-06
3083.65	7.80179e-06
3092.32	7.16218e-06
3101	5.61147e-06
3109.68	4.47631e-06
3118.36	3.90715e-06
3127.04	3.93897e-06
3135.71	4.32913e-06
3144.39	4.89665e-06
3153.07	5.58453e-06
3161.75	6.50885e-06
3170.43	7.24409e-06
3179.11	6.9796e-06
3187.78	7.03898e-06
3196.46	5.4033e-06
3205.14	4.546e-06
3213.82	4.06075e-06
3222.5	4.12179e-06
3231.17	3.237e-06
3239.85	2.8056e-06
3248.53	1.77737e-06
3257.21	9.49544e-07
3265.89	6.51036e-07
3274.57	6.61004e-07
3283.24	6.76755e-07
3291.92	6.70477e-07
3300.6	6.63715e-07
3309.28	4.7956e-07
3317.96	3.75047e-07
3326.63	3.95305e-07
3335.31	5.07788e-07
3343.99	6.48821e-07
3352.67	6.93468e-07
3361.35	7.11392e-07
3370.03	7.61173e-07
3378.7	8.80125e-07
3387.38	1.12496e-06
3396.06	1.21908e-06
3404.74	1.09865e-06
3413.42	8.20817e-07
3422.09	3.44598e-07
3430.77	2.28259e-07
3439.45	1.4809e-07
3448.13	8.30019e-08
3456.81	4.10935e-08
3465.49	6.47029e-08
3474.16	8.65925e-08
3482.84	9.80458e-08
3491.52	5.61919e-08
3500.2	6.87529e-08
3508.88	7.666e-08
3517.55	1.48793e-09
3526.23	-2.41288e-08
3534.91	-2.36577e-08
3543.59	-2.19733e-08
3552.27	3.23324e-09
3560.95	4.89979e-08
3569.62	1.20161e-07
3578.3	1.70588e-07
3586.98	2.44117e-07
3595.66	3.21677e-07
3604.34	4.03945e-07
3613.01	5.96804e-07
3621.69	6.66482e-07
3630.37	7.67157e-07
3639.05	7.85903e-07
3647.73	8.38971e-07
3656.41	7.79218e-07
3665.08	7.88088e-07
3673.76	8.48651e-07
3682.44	9.77055e-07
3691.12	1.01861e-06
3699.8	9.75829e-07
3708.47	1.01894e-06
3717.15	1.2482e-06
3725.83	1.20341e-06
3734.51	1.28383e-06
3743.19	9.78968e-07
3751.87	7.90995e-07
3760.54	6.34616e-07
3769.22	5.79525e-07
3777.9	5.50219e-07
3786.58	5.03465e-07
3795.26	4.87495e-07
3803.93	4.87053e-07
3812.61	5.22065e-07
3821.29	6.94475e-07
3829.97	8.23352e-07
3838.65	1.39778e-06
3847.33	1.61711e-06
3856	1.85581e-06
3864.68	1.65076e-06
3873.36	1.36085e-06
3882.04	1.19742e-06
3890.72	1.06681e-06
3899.39	9.87592e-07
3908.07	8.32944e-07
3916.75	7.4955e-07
3925.43	6.48997e-07
3934.11	6.19176e-07
3942.79	5.60086e-07
3951.46	4.52506e-07
3960.14	4.66603e-07
3968.82	4.7197e-07
