Infrared Spectrum: 1,3-Butadiene
Formula: C H2: C H C H: C H2
CAS: 106-99-0
State: gas
Melting point: -108.91 C
Boiling point: -4.41 C
Class: IUPAC A
Instrument: IFS66V (Bruker)
Instrument parameters: KBr Beam splitter; MCT Detector; Multipass cell
Sampling: 1 L/min Flow
Resolution: 0.1250
Temperature: 23 C
Pressure: 101.3 kPa
Origin: NIST, Anayltical Chemistry Division, 301-975-3108
cm-1	(micromol/mol)-1m-1 (base 10)
574.988	6.13256e-06
583.546	3.02615e-06
592.103	2.81406e-06
600.661	1.16796e-06
609.219	6.1113e-07
617.776	6.68884e-07
626.334	9.56065e-07
634.891	1.22312e-06
643.449	1.50965e-06
652.007	2.34766e-06
660.564	2.73324e-06
669.122	2.93829e-06
677.68	2.77965e-06
686.237	2.25014e-06
694.795	1.72323e-06
703.352	1.17768e-06
711.91	8.22445e-07
720.468	7.51271e-07
729.025	5.78927e-07
737.583	9.51485e-07
746.141	8.71668e-07
754.698	1.10962e-06
763.256	1.10543e-06
771.813	7.7872e-07
780.371	5.22256e-07
788.929	4.4615e-07
797.486	5.33882e-07
806.044	7.59559e-07
814.602	1.0645e-06
823.159	1.62841e-06
831.717	3.04942e-06
840.274	6.01286e-06
848.832	1.51942e-05
857.39	2.53467e-05
865.947	3.77692e-05
874.505	6.0993e-05
883.063	8.92841e-05
891.62	0.000137041
900.178	0.000135605
908.735	0.000500483
917.293	0.000145058
925.851	0.000138558
934.408	0.000114047
942.966	8.54901e-05
951.524	4.95409e-05
960.081	3.03464e-05
968.639	2.76637e-05
977.196	3.2661e-05
985.754	6.44903e-05
994.312	8.95499e-05
1002.87	8.12348e-05
1011.43	0.000122097
1019.98	6.81897e-05
1028.54	7.47378e-05
1037.1	5.98825e-05
1045.66	4.80769e-05
1054.22	3.05807e-05
1062.77	2.18124e-05
1071.33	1.24223e-05
1079.89	8.85839e-06
1088.45	4.15211e-06
1097	1.4943e-06
1105.56	4.26711e-07
1114.12	2.16781e-07
1122.68	2.85347e-07
1131.23	3.27224e-07
1139.79	2.25559e-07
1148.35	1.56445e-07
1156.91	1.33324e-07
1165.46	2.43503e-07
1174.02	1.4926e-07
1182.58	2.04401e-07
1191.14	9.59312e-08
1199.69	1.83768e-07
1208.25	4.02471e-07
1216.81	5.28965e-07
1225.37	7.9425e-07
1233.93	1.39464e-06
1242.48	2.25057e-06
1251.04	3.47356e-06
1259.6	5.28281e-06
1268.16	5.08971e-06
1276.71	6.67702e-06
1285.27	7.45035e-06
1293.83	3.94602e-06
1302.39	6.74326e-06
1310.94	5.92009e-06
1319.5	4.12723e-06
1328.06	2.90516e-06
1336.62	2.99105e-06
1345.17	2.655e-06
1353.73	4.15482e-06
1362.29	9.30147e-06
1370.85	2.08992e-05
1379.4	7.53779e-06
1387.96	1.97512e-05
1396.52	1.24563e-05
1405.08	5.95377e-06
1413.64	5.74517e-06
1422.19	5.56817e-06
1430.75	4.10884e-06
1439.31	5.15869e-06
1447.87	5.69306e-06
1456.42	5.01508e-06
1464.98	5.4802e-06
1473.54	8.56505e-06
1482.1	5.69635e-06
1490.65	5.88478e-06
1499.21	5.47641e-06
1507.77	3.17512e-06
1516.33	2.53149e-06
1524.88	1.46604e-06
1533.44	1.12096e-06
1542	3.65534e-06
1550.56	1.26205e-06
1559.11	3.31889e-06
1567.67	9.08766e-06
1576.23	3.82871e-05
1584.79	9.4558e-05
1593.35	6.34639e-05
1601.9	0.000100451
1610.46	6.7243e-05
1619.02	8.11971e-06
1627.58	3.02973e-06
1636.13	3.25183e-06
1644.69	3.64455e-06
1653.25	9.91943e-06
1661.81	1.80262e-06
1670.36	1.5547e-06
1678.92	9.03957e-07
1687.48	6.30928e-07
1696.04	6.05938e-06
1704.59	1.34774e-06
1713.15	7.26306e-07
1721.71	1.09737e-06
1730.27	2.10037e-06
1738.83	2.62278e-06
1747.38	3.99188e-06
1755.94	5.1749e-06
1764.5	3.78066e-06
1773.06	4.08442e-06
1781.61	2.97868e-06
1790.17	4.10355e-06
1798.73	1.04331e-05
1807.29	4.37792e-05
1815.84	4.12078e-05
1824.4	4.58653e-05
1832.96	4.51035e-05
1841.52	7.65252e-06
1850.07	1.66236e-06
1858.63	1.92141e-06
1867.19	2.04235e-06
1875.75	1.94072e-06
1884.3	2.35363e-06
1892.86	1.24028e-06
1901.42	1.01118e-06
1909.98	1.66685e-06
1918.54	1.27651e-06
1927.09	1.34988e-06
1935.65	1.27417e-06
1944.21	1.48639e-06
1952.77	2.41002e-06
1961.32	3.59544e-06
1969.88	2.84422e-06
1978.44	3.2503e-06
1987	1.75998e-06
1995.55	7.54324e-07
2004.11	5.13966e-07
2012.67	2.68076e-07
2021.23	6.73004e-08
2029.78	5.91314e-08
2038.34	-4.29734e-08
2046.9	-4.78992e-08
2055.46	-8.39405e-08
2064.01	-3.34656e-08
2072.57	4.92016e-08
2081.13	6.12378e-08
2089.69	1.44109e-07
2098.25	3.42687e-07
2106.8	2.25492e-07
2115.36	3.31109e-07
2123.92	2.92463e-07
2132.48	1.53595e-07
2141.03	1.19825e-07
2149.59	2.25417e-07
2158.15	3.43431e-07
2166.71	4.00841e-07
2175.26	3.47487e-07
2183.82	3.2927e-07
2192.38	4.18025e-07
2200.94	4.96918e-07
2209.49	5.16068e-07
2218.05	4.25574e-07
2226.61	3.43474e-07
2235.17	4.96642e-07
2243.72	7.2639e-07
2252.28	9.809e-07
2260.84	1.07797e-06
2269.4	1.07953e-06
2277.96	9.91253e-07
2286.51	7.09495e-07
2295.07	5.42256e-07
2303.63	5.43073e-07
2312.19	4.24188e-07
2320.74	4.96063e-07
2329.3	4.71998e-07
2337.86	1.0267e-06
2346.42	4.23548e-07
2354.97	2.86719e-07
2363.53	2.84752e-07
2372.09	2.38987e-07
2380.65	1.90542e-07
2389.2	2.10991e-07
2397.76	2.05461e-07
2406.32	3.01894e-07
2414.88	3.66717e-07
2423.44	3.24781e-07
2431.99	3.89758e-07
2440.55	4.19013e-07
2449.11	3.85822e-07
2457.67	5.12197e-07
2466.22	7.6039e-07
2474.78	9.76889e-07
2483.34	1.85356e-06
2491.9	1.12326e-06
2500.45	1.55944e-06
2509.01	1.05625e-06
2517.57	4.74532e-07
2526.13	2.98431e-07
2534.68	2.01696e-07
2543.24	2.28098e-07
2551.8	2.0157e-07
2560.36	2.9904e-07
2568.91	4.66483e-07
2577.47	4.56417e-07
2586.03	4.47997e-07
2594.59	4.68846e-07
2603.15	1.84146e-07
2611.7	1.28229e-07
2620.26	1.33007e-07
2628.82	1.67799e-07
2637.38	1.91411e-07
2645.93	1.99649e-07
2654.49	1.95433e-07
2663.05	1.62604e-07
2671.61	1.1264e-07
2680.16	5.33652e-08
2688.72	1.41004e-07
2697.28	1.49475e-07
2705.84	1.73909e-07
2714.39	3.51352e-07
2722.95	4.17721e-07
2731.51	2.24151e-07
2740.07	3.39753e-07
2748.62	2.47489e-07
2757.18	7.98532e-08
2765.74	2.25181e-07
2774.3	1.68263e-07
2782.86	3.43183e-07
2791.41	3.42976e-07
2799.97	4.19351e-07
2808.53	5.83178e-07
2817.09	3.2473e-07
2825.64	4.59111e-07
2834.2	6.15839e-07
2842.76	1.19166e-06
2851.32	1.79928e-06
2859.87	2.07572e-06
2868.43	2.49707e-06
2876.99	2.97367e-06
2885.55	3.433e-06
2894.1	4.52659e-06
2902.66	4.95263e-06
2911.22	6.18464e-06
2919.78	7.88645e-06
2928.34	9.42668e-06
2936.89	1.1153e-05
2945.45	1.34089e-05
2954.01	1.58129e-05
2962.57	2.29893e-05
2971.12	3.76059e-05
2979.68	4.08737e-05
2988.24	4.68879e-05
2996.8	5.84782e-05
3005.35	5.30714e-05
3013.91	4.56035e-05
3022.47	5.29874e-05
3031.03	4.41521e-05
3039.58	5.30098e-05
3048.14	5.46292e-05
3056.7	4.48751e-05
3065.26	7.1323e-05
3073.81	6.20342e-05
3082.37	7.20599e-05
3090.93	9.29154e-05
3099.49	5.5895e-05
3108.05	9.28887e-05
3116.6	6.25729e-05
3125.16	3.1114e-05
3133.72	2.14363e-05
3142.28	1.32965e-05
3150.83	7.27572e-06
3159.39	3.85567e-06
3167.95	1.83192e-06
3176.51	7.98989e-07
3185.06	3.37142e-07
3193.62	3.60365e-07
3202.18	1.30728e-07
3210.74	8.12648e-08
3219.29	4.22282e-07
3227.85	6.42857e-07
3236.41	8.90645e-07
3244.97	8.96663e-07
3253.52	4.48e-07
3262.08	2.34447e-07
3270.64	2.32624e-07
3279.2	2.53278e-07
3287.76	2.17152e-07
3296.31	2.30114e-07
3304.87	-6.62272e-08
3313.43	2.42388e-07
3321.99	2.0479e-07
3330.54	2.3025e-07
3339.1	1.70762e-07
3347.66	1.57214e-08
3356.22	7.48874e-08
3364.77	3.38536e-07
3373.33	2.76809e-07
3381.89	2.47678e-07
3390.45	5.47508e-07
3399	4.10142e-07
3407.56	6.73627e-07
3416.12	3.05796e-07
3424.68	2.27831e-07
3433.23	2.04804e-07
3441.79	2.44764e-07
3450.35	3.54559e-07
3458.91	3.8608e-07
3467.47	2.95672e-07
3476.02	1.76174e-07
3484.58	1.82635e-07
3493.14	1.69449e-07
3501.7	1.27616e-07
3510.25	2.9569e-07
3518.81	2.5025e-07
3527.37	4.11864e-07
3535.93	2.30021e-07
3544.48	2.16342e-07
3553.04	2.95582e-07
3561.6	2.13734e-07
3570.16	2.52309e-07
3578.71	3.12825e-07
3587.27	4.39602e-07
3595.83	4.91412e-07
3604.39	4.91539e-07
3612.95	6.23501e-07
3621.5	7.29047e-07
3630.06	6.35994e-07
3638.62	2.21255e-07
3647.18	1.38971e-06
3655.73	1.03087e-07
3664.29	1.25017e-07
3672.85	4.89069e-08
3681.41	1.61707e-09
3689.96	1.81045e-07
3698.52	1.93014e-07
3707.08	-1.92339e-08
3715.64	6.0974e-08
3724.19	9.10454e-08
3732.75	3.35436e-07
3741.31	6.51904e-07
3749.87	6.52135e-07
3758.42	6.86538e-08
3766.98	-1.40571e-08
3775.54	6.14997e-08
3784.1	6.8983e-08
3792.66	-1.92757e-08
3801.21	1.725e-06
3809.77	2.32497e-07
3818.33	1.56936e-07
3826.89	7.86407e-07
3835.44	3.0439e-07
3844	5.32901e-07
3852.56	7.00105e-07
3861.12	2.85271e-07
3869.67	5.96389e-07
3878.23	3.37968e-07
3886.79	4.71552e-07
3895.35	4.76091e-07
3903.9	7.9056e-07
3912.46	4.29092e-07
3921.02	2.82866e-07
3929.58	4.24539e-07
3938.13	4.47344e-07
3946.69	5.24905e-07
3955.25	6.06626e-07
3963.81	8.18827e-07
3972.37	1.38638e-06
