Infrared Spectrum: 1,4-Dimethylbenzene
Formula: 1,4-( C H3)2 C6 H4
CAS: 106-42-3
State: gas
Melting point: 13.26 C
Boiling point: 138.35 C
Class: IUPAC A
Instrument: IFS66V (Bruker)
Instrument parameters: KBr Beam Splitter; MCT Detector; Multipass cell
Sampling: 1 L/min Flow
Resolution: 0.4820
Temperature: 23 C
Pressure: 101.3 Pa
Origin: NIST, Analytical Chemistry Division, 301-975-3108
cm-1	(micromol/mol)-1m-1 (base 10)
575.17	1.95699e-06
583.848	-2.18012e-07
592.526	-1.80045e-07
601.205	-9.34537e-07
609.883	1.75613e-08
618.561	-7.3412e-07
627.239	-3.35914e-07
635.917	-1.07254e-06
644.595	-2.41236e-07
653.274	-8.77658e-10
661.952	-5.47679e-07
670.63	-4.09816e-07
679.308	3.05977e-07
687.986	-1.90365e-07
696.664	3.2897e-07
705.343	1.19563e-07
714.021	1.89118e-07
722.699	4.35936e-07
731.377	4.3097e-07
740.055	3.8021e-07
748.734	5.34913e-07
757.412	1.13388e-06
766.09	6.94578e-06
774.768	4.19788e-05
783.446	0.000137722
792.124	0.000192922
800.803	0.000180005
809.481	0.000105358
818.159	2.01132e-05
826.837	6.25923e-06
835.515	4.39112e-06
844.193	1.80551e-06
852.872	1.03011e-06
861.55	7.91891e-07
870.228	1.04045e-06
878.906	1.13113e-06
887.584	1.39695e-06
896.263	1.46471e-06
904.941	1.37005e-06
913.619	2.32806e-06
922.297	2.92587e-06
930.975	2.61501e-06
939.653	2.64217e-06
948.332	3.21608e-06
957.01	4.34272e-06
965.688	4.66271e-06
974.366	4.56966e-06
983.044	4.60368e-06
991.723	4.66863e-06
1000.4	5.12457e-06
1009.08	5.45765e-06
1017.76	2.19939e-05
1026.44	2.09731e-05
1035.11	1.79787e-05
1043.79	2.36892e-05
1052.47	2.44773e-05
1061.15	1.85977e-05
1069.83	1.22641e-05
1078.5	9.03443e-06
1087.18	1.11348e-05
1095.86	1.85035e-05
1104.54	2.39742e-05
1113.22	3.9396e-05
1121.9	2.86145e-05
1130.57	2.19708e-05
1139.25	7.76184e-06
1147.93	3.96248e-06
1156.61	3.13164e-06
1165.29	3.2195e-06
1173.96	3.30579e-06
1182.64	3.3174e-06
1191.32	3.03298e-06
1200	2.73944e-06
1208.68	5.56066e-06
1217.36	1.30819e-05
1226.03	1.75698e-05
1234.71	1.37169e-05
1243.39	1.19064e-05
1252.07	4.82225e-06
1260.75	3.06686e-06
1269.42	2.89499e-06
1278.1	2.3406e-06
1286.78	2.29788e-06
1295.46	2.50624e-06
1304.14	3.59261e-06
1312.82	5.08895e-06
1321.49	5.74119e-06
1330.17	6.20786e-06
1338.85	7.57315e-06
1347.53	8.45965e-06
1356.21	8.89842e-06
1364.88	8.30565e-06
1373.56	1.13909e-05
1382.24	2.07564e-05
1390.92	2.44944e-05
1399.6	1.57867e-05
1408.28	1.91733e-05
1416.95	2.48503e-05
1425.63	3.48265e-05
1434.31	3.6436e-05
1442.99	3.29864e-05
1451.67	3.24776e-05
1460.34	3.20003e-05
1469.02	4.72624e-05
1477.7	3.59597e-05
1486.38	4.14203e-05
1495.06	4.57378e-05
1503.73	5.75469e-05
1512.41	0.000188753
1521.09	0.00024464
1529.77	0.000129802
1538.45	2.66499e-05
1547.13	1.60365e-05
1555.8	1.27013e-05
1564.48	1.01576e-05
1573.16	7.65501e-06
1581.84	5.85283e-06
1590.52	4.9267e-06
1599.19	5.43227e-06
1607.87	7.64015e-06
1616.55	1.25529e-05
1625.23	1.55089e-05
1633.91	1.42787e-05
1642.59	5.76201e-06
1651.26	2.5478e-06
1659.94	1.75046e-06
1668.62	1.47445e-06
1677.3	1.21507e-06
1685.98	9.16186e-07
1694.65	8.75108e-07
1703.33	7.94342e-07
1712.01	1.12252e-06
1720.69	2.9453e-06
1729.37	2.88958e-06
1738.05	2.25736e-06
1746.72	2.99093e-06
1755.4	3.45604e-06
1764.08	2.82624e-06
1772.76	2.84391e-06
1781.44	9.87749e-06
1790.11	1.20064e-05
1798.79	5.98301e-06
1807.47	1.43494e-06
1816.15	9.68351e-07
1824.83	1.25262e-06
1833.51	3.36811e-06
1842.18	4.07977e-06
1850.86	2.66494e-06
1859.54	2.19385e-06
1868.22	4.74885e-06
1876.9	1.22347e-05
1885.57	2.04791e-05
1894.25	2.19071e-05
1902.93	8.42939e-06
1911.61	3.25671e-06
1920.29	2.32099e-06
1928.97	1.95251e-06
1937.64	1.09353e-06
1946.32	8.74247e-07
1955	1.20519e-06
1963.68	9.00815e-07
1972.36	1.0642e-06
1981.03	1.41232e-06
1989.71	1.30403e-06
1998.39	1.05174e-06
2007.07	8.6995e-07
2015.75	5.96514e-07
2024.43	2.69572e-07
2033.1	3.57713e-07
2041.78	3.79976e-07
2050.46	1.42029e-07
2059.14	2.99895e-08
2067.82	-8.19405e-08
2076.49	-5.27895e-08
2085.17	2.11392e-07
2093.85	7.78997e-07
2102.53	1.84987e-06
2111.21	1.91991e-06
2119.89	8.69462e-07
2128.56	-1.16265e-07
2137.24	-1.3239e-07
2145.92	-1.18802e-07
2154.6	8.83744e-07
2163.28	-2.05909e-09
2171.95	1.29541e-07
2180.63	4.83849e-08
2189.31	-9.97256e-09
2197.99	1.49192e-07
2206.67	7.37582e-07
2215.35	7.72176e-07
2224.02	9.72327e-08
2232.7	-2.41579e-08
2241.38	-8.32092e-08
2250.06	-1.72443e-07
2258.74	-9.52191e-08
2267.41	8.20315e-08
2276.09	5.44957e-07
2284.77	6.09125e-07
2293.45	1.20732e-06
2302.13	2.42693e-06
2310.81	2.67651e-06
2319.48	1.73187e-06
2328.16	1.39076e-06
2336.84	2.15142e-06
2345.52	2.34931e-06
2354.2	1.8556e-06
2362.87	2.46684e-06
2371.55	1.21505e-06
2380.23	3.88498e-07
2388.91	5.36361e-07
2397.59	4.98697e-07
2406.27	1.06696e-06
2414.94	1.44139e-06
2423.62	1.60071e-06
2432.3	1.3227e-06
2440.98	1.14327e-06
2449.66	8.7949e-07
2458.33	6.97594e-07
2467.01	8.99367e-07
2475.69	7.43971e-07
2484.37	7.66146e-07
2493.05	6.55392e-07
2501.73	4.20804e-07
2510.4	3.08058e-07
2519.08	3.36455e-07
2527.76	3.14582e-07
2536.44	2.90537e-07
2545.12	2.16959e-07
2553.79	-8.74302e-08
2562.47	-2.39045e-07
2571.15	1.78989e-07
2579.83	1.40094e-06
2588.51	3.00894e-06
2597.19	3.21838e-06
2605.86	1.69828e-06
2614.54	8.75879e-07
2623.22	2.92307e-07
2631.9	1.45433e-07
2640.58	4.71708e-07
2649.25	2.85733e-07
2657.93	-4.89242e-08
2666.61	-1.56639e-07
2675.29	-1.37322e-07
2683.97	9.54964e-11
2692.65	6.16307e-08
2701.32	7.77597e-07
2710	1.43694e-06
2718.68	1.96437e-06
2727.36	2.97993e-06
2736.04	1.09771e-05
2744.71	1.76339e-05
2753.39	7.82774e-06
2762.07	1.63243e-06
2770.75	7.1724e-07
2779.43	1.12598e-06
2788.11	1.68457e-06
2796.78	2.39882e-06
2805.46	3.44896e-06
2814.14	4.57438e-06
2822.82	6.96305e-06
2831.5	1.02499e-05
2840.17	1.37199e-05
2848.85	1.9348e-05
2857.53	3.45997e-05
2866.21	8.20878e-05
2874.89	0.000143635
2883.57	0.000156124
2892.24	0.000128064
2900.92	0.000108498
2909.6	9.64741e-05
2918.28	0.000121573
2926.96	0.000223666
2935.63	0.000306902
2944.31	0.000251106
2952.99	0.000130865
2961.67	9.75269e-05
2970.35	7.37136e-05
2979.03	8.59859e-05
2987.7	0.000112089
2996.38	0.000162747
3005.06	0.000211464
3013.74	0.000196709
3022.42	0.000238056
3031.09	0.000229562
3039.77	0.000163487
3048.45	0.000155085
3057.13	0.000147421
3065.81	0.00011397
3074.49	5.39622e-05
3083.16	2.8717e-05
3091.84	2.54564e-05
3100.52	2.73739e-05
3109.2	2.51742e-05
3117.88	1.56571e-05
3126.55	6.4794e-06
3135.23	7.24469e-06
3143.91	9.36316e-06
3152.59	6.48251e-06
3161.27	1.43602e-06
3169.95	3.55735e-07
3178.62	-1.23562e-07
3187.3	-2.24365e-07
3195.98	-3.83773e-07
3204.66	-3.90397e-07
3213.34	-3.488e-07
3222.01	-2.73676e-07
3230.69	-1.9697e-07
3239.37	-3.64928e-07
3248.05	-2.68575e-07
3256.73	-4.1581e-08
3265.4	5.95107e-08
3274.08	-3.29599e-09
3282.76	2.23461e-07
3291.44	3.88752e-07
3300.12	-1.47125e-07
3308.8	-2.59798e-07
3317.47	2.21233e-08
3326.15	-3.24415e-08
3334.83	1.47181e-07
3343.51	-2.88927e-08
3352.19	-1.32695e-08
3360.86	-4.14764e-08
3369.54	-7.54795e-08
3378.22	2.155e-07
3386.9	2.53312e-07
3395.58	1.95067e-07
3404.26	-1.02127e-08
3412.93	5.0514e-08
3421.61	-1.15887e-07
3430.29	1.1923e-07
3438.97	4.15446e-08
3447.65	1.15027e-07
3456.32	2.66564e-07
3465	-3.50481e-07
3473.68	-2.97975e-07
3482.36	-3.60168e-07
3491.04	-2.74034e-07
3499.72	-3.32023e-07
3508.39	-1.14213e-07
3517.07	-3.07695e-07
3525.75	-2.11893e-07
3534.43	-5.34038e-07
3543.11	-1.39648e-07
3551.78	-6.45823e-07
3560.46	-6.76837e-07
3569.14	-6.13081e-07
3577.82	-5.42772e-07
3586.5	-7.77752e-07
3595.18	-4.34278e-07
3603.85	-1.18758e-07
3612.53	-4.75305e-07
3621.21	-2.54235e-07
3629.89	-3.41116e-07
3638.57	4.71598e-08
3647.24	-8.38186e-09
3655.92	5.44929e-07
3664.6	1.02906e-06
3673.28	1.0309e-06
3681.96	1.11031e-06
3690.64	2.93e-07
3699.31	5.01662e-07
3707.99	2.0316e-07
3716.67	5.5106e-08
3725.35	1.17979e-08
3734.03	1.34809e-07
3742.7	5.25661e-07
3751.38	6.8506e-07
3760.06	6.69e-07
3768.74	7.44473e-07
3777.42	3.6355e-07
3786.1	2.95735e-07
3794.77	4.92031e-07
3803.45	3.96583e-07
3812.13	6.06092e-07
3820.81	3.49829e-07
3829.49	1.15061e-06
3838.16	6.96814e-07
3846.84	1.67816e-06
3855.52	1.87663e-06
3864.2	1.64385e-06
3872.88	1.90466e-06
3881.56	1.91097e-06
3890.23	2.10267e-06
3898.91	1.99504e-06
3907.59	1.97308e-06
3916.27	2.10612e-06
3924.95	2.32446e-06
3933.62	2.4802e-06
3942.3	2.16961e-06
3950.98	2.15382e-06
3959.66	2.14204e-06
3968.34	2.03592e-06
