Infrared Spectrum: Butane
Formula: C4 H10
CAS: 106-97-8
State: gas
Melting point: -138.35 C
Boiling point: -0.5 C
Class: IUPAC A
Instrument: IFS66V (Bruker)
Instrument parameters: KBr Beam Splitter; MCT Detector; Multipass cell
Sampling: 1 L/min Flow
Resolution: 0.1250
Temperature: 23 C
Pressure: 101.3 Pa
Origin: NIST, Analytical Chemistry Division, 301-975-3108
cm-1	(micromol/mol)-1m-1 (base 10)
575.05	-9.25031e-07
583.608	4.36666e-07
592.165	1.48109e-07
600.723	-3.60776e-08
609.281	-4.67842e-08
617.838	-1.59429e-07
626.396	6.42637e-08
634.954	-2.71783e-08
643.511	6.01619e-08
652.069	-1.87138e-07
660.626	-1.97841e-08
669.184	-3.80303e-08
677.742	3.08388e-07
686.299	5.90368e-07
694.857	7.80844e-07
703.415	2.10123e-06
711.972	3.44126e-06
720.53	5.14187e-06
729.088	6.85195e-06
737.645	8.48206e-06
746.203	9.2711e-06
754.761	8.11447e-06
763.318	6.65964e-06
771.876	4.00549e-06
780.434	3.01794e-06
788.991	1.71336e-06
797.549	1.92522e-06
806.106	1.17256e-06
814.664	5.61681e-07
823.222	1.27608e-07
831.779	5.10779e-08
840.337	-2.32259e-07
848.895	-4.06715e-08
857.452	-4.79974e-08
866.01	1.3033e-09
874.568	2.92265e-08
883.125	8.24753e-08
891.683	-2.27454e-08
900.241	-1.76668e-07
908.798	1.134e-07
917.356	3.31741e-07
925.914	1.07823e-06
934.471	2.84338e-06
943.029	6.9466e-06
951.586	1.20568e-05
960.144	1.56836e-05
968.702	1.88813e-05
977.259	1.50148e-05
985.817	1.00538e-05
994.375	6.15222e-06
1002.93	2.90457e-06
1011.49	1.66424e-06
1020.05	8.10076e-07
1028.61	4.84881e-07
1037.16	4.16565e-07
1045.72	1.1029e-07
1054.28	1.0901e-07
1062.84	7.63853e-08
1071.39	2.44695e-07
1079.95	1.55782e-07
1088.51	2.2766e-07
1097.07	1.78825e-07
1105.62	3.77824e-07
1114.18	8.70386e-07
1122.74	2.38203e-06
1131.3	2.76845e-06
1139.85	2.08293e-06
1148.41	2.01198e-06
1156.97	5.84308e-07
1165.53	1.09879e-07
1174.09	2.6653e-07
1182.64	2.13671e-07
1191.2	2.23902e-07
1199.76	9.11964e-08
1208.32	3.22741e-07
1216.87	3.60676e-07
1225.43	3.99313e-07
1233.99	7.39572e-07
1242.55	9.81529e-07
1251.1	1.46464e-06
1259.66	1.62728e-06
1268.22	2.27426e-06
1276.78	4.0932e-06
1285.33	8.19624e-06
1293.89	9.25394e-06
1302.45	8.69337e-06
1311.01	3.58906e-06
1319.57	1.6582e-06
1328.12	3.3189e-06
1336.68	4.1937e-06
1345.24	3.42097e-06
1353.8	6.65574e-06
1362.35	7.893e-06
1370.91	1.96442e-05
1379.47	2.63418e-05
1388.03	2.67963e-05
1396.58	3.40574e-05
1405.14	1.26977e-05
1413.7	8.02246e-06
1422.26	8.82694e-06
1430.81	1.47349e-05
1439.37	2.85859e-05
1447.93	4.66741e-05
1456.49	5.96904e-05
1465.05	8.55035e-05
1473.6	6.0794e-05
1482.16	5.83562e-05
1490.72	3.81807e-05
1499.28	2.26387e-05
1507.83	1.20496e-05
1516.39	6.23506e-06
1524.95	2.90441e-06
1533.51	1.49137e-06
1542.06	1.2668e-06
1550.62	8.7846e-07
1559.18	1.1646e-06
1567.74	1.44685e-06
1576.29	2.00262e-06
1584.85	1.455e-06
1593.41	1.31187e-06
1601.97	9.68087e-07
1610.53	8.36955e-07
1619.08	9.02544e-07
1627.64	1.01238e-06
1636.2	1.16556e-06
1644.76	1.08066e-06
1653.31	2.03981e-06
1661.87	1.32934e-06
1670.43	1.54922e-06
1678.99	1.27354e-06
1687.54	1.26229e-06
1696.1	1.40885e-06
1704.66	1.10382e-06
1713.22	1.04547e-06
1721.77	9.91443e-07
1730.33	8.18939e-07
1738.89	4.50784e-07
1747.45	3.48226e-07
1756.01	2.91967e-07
1764.56	2.08589e-07
1773.12	2.73488e-07
1781.68	2.9679e-07
1790.24	3.50624e-07
1798.79	3.34747e-07
1807.35	3.29165e-07
1815.91	3.7902e-07
1824.47	2.88105e-07
1833.02	1.3672e-07
1841.58	4.10544e-08
1850.14	4.02022e-08
1858.7	-3.42969e-08
1867.25	1.87482e-08
1875.81	6.16625e-08
1884.37	1.66364e-07
1892.93	3.6032e-07
1901.49	5.03046e-07
1910.04	4.07905e-07
1918.6	5.20629e-07
1927.16	3.18715e-07
1935.72	3.36208e-07
1944.27	2.06646e-07
1952.83	1.07413e-07
1961.39	4.39711e-08
1969.95	-5.95025e-08
1978.5	2.94402e-09
1987.06	-9.33028e-08
1995.62	-3.18713e-08
2004.18	5.37672e-08
2012.73	1.0437e-07
2021.29	3.38285e-07
2029.85	6.42979e-07
2038.41	6.13004e-07
2046.97	6.69451e-07
2055.52	3.50037e-07
2064.08	2.069e-07
2072.64	1.6767e-07
2081.2	1.60283e-07
2089.75	2.46507e-07
2098.31	3.4434e-07
2106.87	4.31377e-07
2115.43	5.78536e-07
2123.98	5.53054e-07
2132.54	5.58763e-07
2141.1	6.33552e-07
2149.66	5.93704e-07
2158.21	8.22158e-07
2166.77	6.71222e-07
2175.33	7.02616e-07
2183.89	5.99102e-07
2192.45	6.29125e-07
2201	7.20161e-07
2209.56	8.45069e-07
2218.12	6.12231e-07
2226.68	5.86915e-07
2235.23	4.82669e-07
2243.79	4.0977e-07
2252.35	4.52709e-07
2260.91	6.04034e-07
2269.46	6.05162e-07
2278.02	7.05411e-07
2286.58	8.07097e-07
2295.14	8.40138e-07
2303.69	9.98792e-07
2312.25	9.29266e-07
2320.81	7.86845e-07
2329.37	9.42975e-07
2337.93	9.761e-07
2346.48	1.16929e-06
2355.04	1.06653e-06
2363.6	9.90797e-07
2372.16	1.26078e-06
2380.71	1.57476e-06
2389.27	1.52638e-06
2397.83	1.75476e-06
2406.39	1.08952e-06
2414.94	1.47025e-06
2423.5	1.60518e-06
2432.06	2.00221e-06
2440.62	1.82181e-06
2449.17	1.63142e-06
2457.73	1.03637e-06
2466.29	6.44257e-07
2474.85	3.78084e-07
2483.41	2.90998e-07
2491.96	1.96351e-07
2500.52	2.54559e-07
2509.08	3.55206e-07
2517.64	4.77897e-07
2526.19	8.06582e-07
2534.75	7.36993e-07
2543.31	7.34973e-07
2551.87	5.91243e-07
2560.42	6.69618e-07
2568.98	9.45077e-07
2577.54	1.48802e-06
2586.1	2.10704e-06
2594.65	3.07012e-06
2603.21	3.55788e-06
2611.77	3.92438e-06
2620.33	4.14939e-06
2628.89	4.34157e-06
2637.44	4.58477e-06
2646	4.17601e-06
2654.56	4.81407e-06
2663.12	4.33389e-06
2671.67	3.90224e-06
2680.23	4.41722e-06
2688.79	3.42883e-06
2697.35	3.01326e-06
2705.9	3.37941e-06
2714.46	4.48012e-06
2723.02	6.10971e-06
2731.58	8.97246e-06
2740.13	9.58847e-06
2748.69	1.05363e-05
2757.25	9.20984e-06
2765.81	6.3522e-06
2774.37	5.74113e-06
2782.92	6.42775e-06
2791.48	6.99555e-06
2800.04	8.59543e-06
2808.6	1.11921e-05
2817.15	1.5403e-05
2825.71	2.29857e-05
2834.27	3.23192e-05
2842.83	5.04622e-05
2851.38	7.95136e-05
2859.94	0.000129272
2868.5	0.000175746
2877.06	0.000286013
2885.61	0.000244095
2894.17	0.000283127
2902.73	0.000236079
2911.29	0.000239331
2919.85	0.000290051
2928.4	0.000372441
2936.96	0.000433899
2945.52	0.000475654
2954.08	0.000551537
2962.63	0.000659015
2971.19	0.000576136
2979.75	0.000571548
2988.31	0.000363048
2996.86	0.000157799
3005.42	6.68189e-05
3013.98	2.6656e-05
3022.54	1.23301e-05
3031.09	7.98662e-06
3039.65	6.81029e-06
3048.21	6.20479e-06
3056.77	6.23767e-06
3065.33	6.85587e-06
3073.88	7.67683e-06
3082.44	7.58354e-06
3091	7.30107e-06
3099.56	5.98636e-06
3108.11	4.65696e-06
3116.67	4.13265e-06
3125.23	3.86866e-06
3133.79	4.19635e-06
3142.34	4.77481e-06
3150.9	5.32619e-06
3159.46	6.47634e-06
3168.02	6.96583e-06
3176.57	7.11924e-06
3185.13	6.96743e-06
3193.69	5.79928e-06
3202.25	4.84244e-06
3210.81	4.04262e-06
3219.36	3.86127e-06
3227.92	3.75255e-06
3236.48	3.03805e-06
3245.04	2.16925e-06
3253.59	1.18917e-06
3262.15	7.73922e-07
3270.71	6.68687e-07
3279.27	6.44635e-07
3287.82	6.6439e-07
3296.38	6.10588e-07
3304.94	6.61224e-07
3313.5	3.37346e-07
3322.05	4.88429e-07
3330.61	4.42592e-07
3339.17	5.73695e-07
3347.73	6.62924e-07
3356.29	8.03204e-07
3364.84	6.44238e-07
3373.4	7.7263e-07
3381.96	9.24836e-07
3390.52	1.13856e-06
3399.07	1.04098e-06
3407.63	9.51849e-07
3416.19	6.11813e-07
3424.75	3.16721e-07
3433.3	1.22852e-07
3441.86	1.73327e-07
3450.42	1.63672e-08
3458.98	1.52868e-07
3467.53	8.98549e-08
3476.09	-8.32629e-08
3484.65	3.80212e-08
3493.21	7.90092e-08
3501.77	-5.03494e-09
3510.32	1.92566e-08
3518.88	6.24983e-08
3527.44	1.2798e-07
3536	1.46331e-07
3544.55	8.37495e-08
3553.11	1.22737e-07
3561.67	6.21755e-08
3570.23	1.32242e-07
3578.78	1.72327e-07
3587.34	1.08006e-07
3595.9	2.80484e-07
3604.46	5.25259e-07
3613.01	5.27715e-07
3621.57	6.85343e-07
3630.13	8.2707e-07
3638.69	7.67093e-07
3647.25	8.70432e-07
3655.8	7.5532e-07
3664.36	7.46775e-07
3672.92	9.34121e-07
3681.48	9.1665e-07
3690.03	9.03605e-07
3698.59	1.04732e-06
3707.15	9.81958e-07
3715.71	1.09395e-06
3724.26	1.20717e-06
3732.82	1.24883e-06
3741.38	1.05993e-06
3749.94	6.05761e-07
3758.49	5.82641e-07
3767.05	4.87388e-07
3775.61	5.1826e-07
3784.17	6.35675e-07
3792.73	4.53343e-07
3801.28	8.71511e-07
3809.84	4.7827e-07
3818.4	5.9206e-07
3826.96	8.39277e-07
3835.51	1.34181e-06
3844.07	1.41477e-06
3852.63	1.86163e-06
3861.19	1.74699e-06
3869.74	1.5554e-06
3878.3	1.3108e-06
3886.86	9.98699e-07
3895.42	9.3333e-07
3903.97	9.49777e-07
3912.53	7.35809e-07
3921.09	6.20689e-07
3929.65	6.20026e-07
3938.21	4.99702e-07
3946.76	4.70426e-07
3955.32	5.3138e-07
3963.88	5.54911e-07
3972.44	4.41938e-07
