Infrared Spectrum: Butane
Formula: C4 H10
CAS: 106-97-8
State: gas
Melting point: -138.35 C
Boiling point: -0.5 C
Class: IUPAC A
Instrument: IFS66V (Bruker)
Instrument parameters: KBr Beam Splitter; MCT Detector; Multipass cell
Sampling: 1 L/min Flow
Resolution: 0.9640
Temperature: 23 C
Pressure: 101.3 Pa
Origin: NIST, Analytical Chemistry Division, 301-975-3108
cm-1	(micromol/mol)-1m-1 (base 10)
575.17	-3.83808e-07
583.848	5.71951e-08
592.526	1.06389e-07
601.205	-8.68508e-08
609.883	-1.7614e-07
618.561	-6.92258e-08
627.239	-2.0147e-08
635.917	-1.45662e-07
644.595	-6.59517e-08
653.274	-1.16015e-07
661.952	-5.49232e-08
670.63	-2.6639e-09
679.308	1.05416e-07
687.986	4.23216e-07
696.664	1.0447e-06
705.343	2.33158e-06
714.021	3.9192e-06
722.699	5.30332e-06
731.377	1.00352e-05
740.055	8.92305e-06
748.734	1.04285e-05
757.412	7.93112e-06
766.09	5.6894e-06
774.768	3.45015e-06
783.446	2.69842e-06
792.124	1.91706e-06
800.803	1.62608e-06
809.481	8.24123e-07
818.159	3.66154e-07
826.837	1.13969e-07
835.515	1.82235e-08
844.194	3.40377e-08
852.872	-1.4922e-08
861.55	-3.3924e-08
870.228	2.58677e-08
878.906	-2.41861e-08
887.584	-2.25399e-08
896.263	-3.16057e-08
904.941	-1.20326e-09
913.619	2.54358e-07
922.297	7.03614e-07
930.975	1.93571e-06
939.653	5.12343e-06
948.332	1.10597e-05
957.01	1.91816e-05
965.688	1.92466e-05
974.366	1.68997e-05
983.044	1.07197e-05
991.723	7.1603e-06
1000.4	3.65171e-06
1009.08	1.84581e-06
1017.76	9.6667e-07
1026.44	5.32621e-07
1035.11	3.5905e-07
1043.79	1.25145e-07
1052.47	5.90641e-08
1061.15	9.86005e-08
1069.83	1.68285e-07
1078.5	1.28123e-07
1087.18	2.48987e-07
1095.86	1.95668e-07
1104.54	3.09894e-07
1113.22	8.24861e-07
1121.9	2.2725e-06
1130.57	2.81828e-06
1139.25	1.90269e-06
1147.93	2.13847e-06
1156.61	5.31947e-07
1165.29	1.51902e-07
1173.96	1.9362e-07
1182.64	2.03224e-07
1191.32	1.95036e-07
1200	1.7898e-07
1208.68	2.44772e-07
1217.36	3.1831e-07
1226.03	4.74434e-07
1234.71	6.81404e-07
1243.39	1.03477e-06
1252.07	1.49182e-06
1260.75	1.7268e-06
1269.42	2.29928e-06
1278.1	4.80917e-06
1286.78	8.22094e-06
1295.46	8.22119e-06
1304.14	7.87707e-06
1312.82	2.87708e-06
1321.49	1.82173e-06
1330.17	3.89621e-06
1338.85	3.81576e-06
1347.53	3.92915e-06
1356.21	6.61689e-06
1364.88	1.01311e-05
1373.56	2.46603e-05
1382.24	3.0514e-05
1390.92	3.70511e-05
1399.6	2.5014e-05
1408.28	9.6622e-06
1416.95	7.94751e-06
1425.63	1.05024e-05
1434.31	1.90576e-05
1442.99	3.64961e-05
1451.67	5.21531e-05
1460.34	6.89971e-05
1469.02	7.06141e-05
1477.7	5.71121e-05
1486.38	4.9415e-05
1495.06	2.96195e-05
1503.73	1.6328e-05
1512.41	8.40847e-06
1521.09	4.17237e-06
1529.77	1.84742e-06
1538.45	1.16425e-06
1547.13	8.83485e-07
1555.8	9.85621e-07
1564.48	1.24655e-06
1573.16	1.57083e-06
1581.84	1.52392e-06
1590.52	1.40012e-06
1599.19	1.10674e-06
1607.87	8.81967e-07
1616.55	1.13145e-06
1625.23	8.31764e-07
1633.91	1.11134e-06
1642.59	9.90394e-07
1651.26	1.15359e-06
1659.94	1.29883e-06
1668.62	1.48338e-06
1677.3	1.29112e-06
1685.98	1.37164e-06
1694.65	1.18713e-06
1703.33	1.11982e-06
1712.01	1.09353e-06
1720.69	1.01679e-06
1729.37	8.19477e-07
1738.05	5.57612e-07
1746.72	3.7163e-07
1755.4	2.61918e-07
1764.08	2.56832e-07
1772.76	3.74764e-07
1781.44	3.24627e-07
1790.11	3.52021e-07
1798.79	3.92082e-07
1807.47	3.85309e-07
1816.15	3.64406e-07
1824.83	3.10339e-07
1833.51	1.53316e-07
1842.18	5.73461e-08
1850.86	7.42053e-09
1859.54	8.43006e-09
1868.22	3.17412e-08
1876.9	8.09346e-08
1885.57	2.20621e-07
1894.25	3.66127e-07
1902.93	4.84258e-07
1911.61	4.41673e-07
1920.29	4.92756e-07
1928.97	3.75477e-07
1937.64	3.24839e-07
1946.32	1.88741e-07
1955	8.97949e-08
1963.68	-4.79301e-09
1972.36	-5.13116e-08
1981.03	-3.93491e-08
1989.71	-4.6303e-08
1998.39	-2.94848e-08
2007.07	1.32549e-08
2015.75	1.0874e-07
2024.43	4.25412e-07
2033.1	6.15489e-07
2041.78	6.31966e-07
2050.46	5.95282e-07
2059.14	2.43679e-07
2067.82	1.41418e-07
2076.49	1.53856e-07
2085.17	1.96739e-07
2093.85	2.67349e-07
2102.53	3.66556e-07
2111.21	4.93571e-07
2119.89	6.18938e-07
2128.56	6.20805e-07
2137.24	6.00473e-07
2145.92	6.65506e-07
2154.6	6.49259e-07
2163.28	6.64822e-07
2171.95	7.04902e-07
2180.63	6.43822e-07
2189.31	6.64203e-07
2197.99	6.62602e-07
2206.67	7.2204e-07
2215.35	6.85218e-07
2224.02	6.50109e-07
2232.7	5.31645e-07
2241.38	4.08796e-07
2250.06	4.65473e-07
2258.74	5.20136e-07
2267.41	5.74244e-07
2276.09	6.37404e-07
2284.77	7.86856e-07
2293.45	8.10231e-07
2302.13	9.73716e-07
2310.81	8.8625e-07
2319.48	7.5199e-07
2328.16	7.46813e-07
2336.84	9.87826e-07
2345.52	9.91545e-07
2354.2	8.60536e-07
2362.87	5.17823e-07
2371.55	9.75344e-07
2380.23	1.61274e-06
2388.91	1.47468e-06
2397.59	1.71181e-06
2406.27	1.10625e-06
2414.94	1.46885e-06
2423.62	1.58697e-06
2432.3	1.92463e-06
2440.98	1.77737e-06
2449.66	1.61252e-06
2458.33	9.59416e-07
2467.01	5.5938e-07
2475.69	3.54816e-07
2484.37	2.48428e-07
2493.05	1.88817e-07
2501.73	1.90136e-07
2510.4	3.5847e-07
2519.08	5.29847e-07
2527.76	7.51868e-07
2536.44	6.85823e-07
2545.12	6.99325e-07
2553.79	5.7431e-07
2562.47	7.01349e-07
2571.15	1.0489e-06
2579.83	1.6325e-06
2588.51	2.42078e-06
2597.19	3.36526e-06
2605.86	3.62207e-06
2614.54	4.14688e-06
2623.22	4.18796e-06
2631.9	4.49179e-06
2640.58	4.38364e-06
2649.25	4.71592e-06
2657.93	4.73902e-06
2666.61	4.2484e-06
2675.29	3.64883e-06
2683.97	4.14557e-06
2692.65	3.18825e-06
2701.32	3.05004e-06
2710	3.83518e-06
2718.68	4.88495e-06
2727.36	7.57084e-06
2736.04	1.01767e-05
2744.71	9.34936e-06
2753.39	1.09001e-05
2762.07	7.08559e-06
2770.75	5.86083e-06
2779.43	6.14501e-06
2788.11	6.58729e-06
2796.78	7.74126e-06
2805.46	9.9305e-06
2814.14	1.37009e-05
2822.82	2.00508e-05
2831.5	2.90574e-05
2840.17	4.45283e-05
2848.85	6.81491e-05
2857.53	0.00011343
2866.21	0.000166808
2874.89	0.000249069
2883.57	0.000257882
2892.24	0.000269758
2900.92	0.000249384
2909.6	0.00023194
2918.28	0.000273538
2926.96	0.000357627
2935.63	0.000423818
2944.31	0.00047251
2952.99	0.000535925
2961.67	0.00065067
2970.35	0.000620289
2979.03	0.000571811
2987.7	0.000383536
2996.38	0.000165394
3005.06	6.94198e-05
3013.74	2.73341e-05
3022.42	1.24415e-05
3031.09	8.00403e-06
3039.77	6.71292e-06
3048.45	6.25905e-06
3057.13	6.25441e-06
3065.81	6.90462e-06
3074.49	7.6822e-06
3083.16	7.69295e-06
3091.84	7.21826e-06
3100.52	5.71671e-06
3109.2	4.51459e-06
3117.88	3.9255e-06
3126.55	3.92495e-06
3135.23	4.30599e-06
3143.91	4.8637e-06
3152.59	5.53245e-06
3161.27	6.49527e-06
3169.95	7.23865e-06
3178.62	7.06241e-06
3187.3	7.03148e-06
3195.98	5.47106e-06
3204.66	4.55693e-06
3213.34	4.08028e-06
3222.01	4.1192e-06
3230.69	3.31702e-06
3239.37	2.84155e-06
3248.05	1.83232e-06
3256.73	9.8975e-07
3265.41	6.46352e-07
3274.08	6.88556e-07
3282.76	6.6198e-07
3291.44	6.81664e-07
3300.12	6.71071e-07
3308.8	4.92497e-07
3317.47	3.61217e-07
3326.15	4.16992e-07
3334.83	4.73416e-07
3343.51	6.74195e-07
3352.19	6.85331e-07
3360.86	7.09406e-07
3369.54	7.56826e-07
3378.22	8.87028e-07
3386.9	1.10865e-06
3395.58	1.21304e-06
3404.26	1.10467e-06
3412.93	8.57614e-07
3421.61	3.49406e-07
3430.29	2.14799e-07
3438.97	1.6412e-07
3447.65	9.3964e-08
3456.32	3.36875e-08
3465	8.75702e-08
3473.68	9.7872e-08
3482.36	1.18965e-07
3491.04	6.43801e-08
3499.72	8.9804e-08
3508.39	7.10675e-08
3517.07	7.50966e-09
3525.75	-4.19902e-08
3534.43	-4.06951e-08
3543.11	-3.6999e-08
3551.78	-6.019e-09
3560.46	1.94431e-08
3569.14	1.43879e-07
3577.82	2.00825e-07
3586.5	2.6612e-07
3595.18	3.24475e-07
3603.85	3.92173e-07
3612.53	5.93812e-07
3621.21	6.62885e-07
3629.89	8.01638e-07
3638.57	8.0279e-07
3647.24	8.42896e-07
3655.92	8.01775e-07
3664.6	7.85298e-07
3673.28	8.31985e-07
3681.96	9.43718e-07
3690.64	1.01062e-06
3699.31	9.65793e-07
3707.99	9.999e-07
3716.67	1.25195e-06
3725.35	1.17886e-06
3734.03	1.28563e-06
3742.7	9.54939e-07
3751.38	7.2617e-07
3760.06	6.60471e-07
3768.74	5.68492e-07
3777.42	5.38211e-07
3786.1	5.00447e-07
3794.77	4.70791e-07
3803.45	4.81542e-07
3812.13	5.15012e-07
3820.81	7.05321e-07
3829.49	7.93547e-07
3838.16	1.45046e-06
3846.84	1.60074e-06
3855.52	1.85235e-06
3864.2	1.63713e-06
3872.88	1.36183e-06
3881.56	1.2245e-06
3890.23	1.05104e-06
3898.91	9.88968e-07
3907.59	8.46818e-07
3916.27	7.41136e-07
3924.95	6.61709e-07
3933.62	6.3669e-07
3942.3	5.69434e-07
3950.98	4.81386e-07
3959.66	4.54239e-07
3968.34	4.87186e-07
