Infrared Spectrum: 1,4-Dimethylbenzene
Formula: 1,4-( C H3)2 C6 H4
CAS: 106-42-3
State: gas
Melting point: 13.26 C
Boiling point: 138.35 C
Class: IUPAC A
Instrument: IFS66V (Bruker)
Instrument parameters: KBr Beam Splitter; MCT Detector; Multipass cell
Sampling: 1 L/min Flow
Resolution: 0.2410
Temperature: 23 C
Pressure: 101.3 Pa
Origin: NIST, Analytical Chemistry Division, 301-975-3108
cm-1	(micromol/mol)-1m-1 (base 10)
575.05	-4.64246e-07
583.608	-1.54052e-06
592.165	1.67805e-06
600.723	-5.87067e-08
609.281	-1.71091e-06
617.838	9.08269e-07
626.396	-1.02714e-06
634.954	-2.57528e-07
643.511	-9.26113e-07
652.069	-2.0526e-06
660.626	2.77788e-07
669.184	-1.79546e-06
677.742	-3.16278e-07
686.299	-4.79881e-07
694.857	1.57352e-07
703.415	1.82281e-07
711.972	-5.25626e-07
720.53	-1.06356e-08
729.088	2.91122e-07
737.645	2.37286e-09
746.203	-2.94888e-07
754.761	6.07781e-07
763.318	3.64295e-06
771.876	2.36803e-05
780.434	9.94922e-05
788.991	0.00017146
797.549	0.000187658
806.106	0.000149819
814.664	4.43047e-05
823.222	7.73199e-06
831.779	4.19824e-06
840.337	3.34075e-06
848.895	1.09597e-06
857.452	5.07859e-07
866.01	8.50692e-07
874.568	1.27662e-06
883.125	1.02293e-06
891.683	1.12332e-06
900.241	1.19623e-06
908.798	1.88504e-06
917.356	2.50581e-06
925.914	2.78225e-06
934.471	2.48383e-06
943.029	2.63119e-06
951.586	3.56239e-06
960.144	4.11902e-06
968.702	4.56049e-06
977.259	4.90117e-06
985.817	4.8295e-06
994.375	4.85349e-06
1002.93	4.81988e-06
1011.49	7.05293e-06
1020.05	2.18512e-05
1028.61	2.68962e-05
1037.16	1.74366e-05
1045.72	2.46443e-05
1054.28	2.34531e-05
1062.84	1.73905e-05
1071.39	1.0966e-05
1079.95	8.86733e-06
1088.51	1.20324e-05
1097.07	1.90655e-05
1105.62	2.59654e-05
1114.18	4.06694e-05
1122.74	3.20818e-05
1131.3	1.96751e-05
1139.85	7.36098e-06
1148.41	4.39889e-06
1156.97	3.48278e-06
1165.53	3.42427e-06
1174.09	3.50523e-06
1182.64	3.61565e-06
1191.2	2.81009e-06
1199.76	2.40655e-06
1208.32	5.37731e-06
1216.87	1.35094e-05
1225.43	1.74941e-05
1233.99	1.39253e-05
1242.55	1.26573e-05
1251.1	5.08096e-06
1259.66	3.42145e-06
1268.22	2.88404e-06
1276.78	2.53665e-06
1285.33	2.37676e-06
1293.89	2.32108e-06
1302.45	3.22575e-06
1311.01	5.04145e-06
1319.57	5.51362e-06
1328.12	6.02705e-06
1336.68	6.43222e-06
1345.24	8.90977e-06
1353.8	8.1485e-06
1362.35	7.55083e-06
1370.91	1.03504e-05
1379.47	1.96621e-05
1388.03	2.56835e-05
1396.58	1.71383e-05
1405.14	1.72532e-05
1413.7	2.25591e-05
1422.26	3.11221e-05
1430.81	3.60141e-05
1439.37	3.62257e-05
1447.93	2.82483e-05
1456.49	3.24659e-05
1465.05	3.98733e-05
1473.6	4.16926e-05
1482.16	3.85139e-05
1490.72	4.01711e-05
1499.28	5.31006e-05
1507.83	8.6373e-05
1516.39	0.00022939
1524.95	0.000240157
1533.51	5.69831e-05
1542.06	1.94101e-05
1550.62	1.49708e-05
1559.18	1.16809e-05
1567.74	9.09087e-06
1576.29	5.41015e-06
1584.85	5.23687e-06
1593.41	5.1432e-06
1601.97	5.86625e-06
1610.53	8.87828e-06
1619.08	1.59288e-05
1627.64	1.41434e-05
1636.2	1.15469e-05
1644.76	4.55774e-06
1653.31	1.19271e-08
1661.87	2.01681e-06
1670.43	1.6291e-06
1678.99	8.97633e-07
1687.54	1.15562e-06
1696.1	3.36124e-07
1704.66	8.29955e-07
1713.22	1.39582e-06
1721.77	3.19666e-06
1730.33	2.89584e-06
1738.89	2.28121e-06
1747.45	3.31833e-06
1756.01	3.63704e-06
1764.56	2.86354e-06
1773.12	3.70027e-06
1781.68	1.01177e-05
1790.24	1.20738e-05
1798.79	5.94598e-06
1807.35	1.44331e-06
1815.91	1.01944e-06
1824.47	1.27355e-06
1833.02	3.25404e-06
1841.58	4.27098e-06
1850.14	2.73638e-06
1858.7	1.84734e-06
1867.25	4.58313e-06
1875.81	1.07894e-05
1884.37	2.12331e-05
1892.93	2.16458e-05
1901.49	9.73537e-06
1910.04	3.50343e-06
1918.6	2.2567e-06
1927.16	2.20095e-06
1935.72	1.36356e-06
1944.27	9.46152e-07
1952.83	1.08711e-06
1961.39	6.60855e-07
1969.95	9.04596e-07
1978.5	1.13293e-06
1987.06	1.24659e-06
1995.62	1.24745e-06
2004.18	9.0199e-07
2012.73	6.83751e-07
2021.29	3.67294e-07
2029.85	3.55461e-07
2038.41	3.48092e-07
2046.97	6.29212e-08
2055.52	-3.35102e-08
2064.08	-7.27419e-08
2072.64	4.68078e-08
2081.2	2.29734e-07
2089.75	5.36223e-07
2098.31	1.46889e-06
2106.87	1.58727e-06
2115.43	1.09208e-06
2123.98	3.11279e-07
2132.54	-1.31768e-07
2141.1	-3.14423e-07
2149.66	-2.96988e-07
2158.21	1.52201e-06
2166.77	2.24262e-07
2175.33	1.12609e-07
2183.89	-2.19754e-07
2192.45	1.68471e-07
2201	3.81916e-07
2209.56	1.38757e-06
2218.12	6.66382e-07
2226.68	6.00718e-09
2235.23	1.23942e-07
2243.79	-5.18437e-08
2252.35	-5.46631e-08
2260.91	1.56255e-07
2269.46	5.56407e-07
2278.02	2.9947e-07
2286.58	7.0138e-07
2295.14	1.54487e-06
2303.69	2.23436e-06
2312.25	2.87014e-06
2320.81	1.48704e-06
2329.37	1.58205e-06
2337.93	2.57361e-06
2346.48	2.13958e-06
2355.04	9.54128e-07
2363.6	7.65396e-07
2372.16	8.59332e-08
2380.71	8.10468e-07
2389.27	5.37689e-07
2397.83	3.05921e-07
2406.39	1.0116e-06
2414.94	1.37455e-06
2423.5	1.53781e-06
2432.06	1.48357e-06
2440.62	1.14155e-06
2449.17	8.5611e-07
2457.73	8.3482e-07
2466.29	6.45646e-07
2474.85	9.46137e-07
2483.41	7.0152e-07
2491.96	6.94378e-07
2500.52	6.41581e-07
2509.08	4.32504e-07
2517.64	3.30738e-07
2526.19	2.51308e-07
2534.75	1.93148e-07
2543.31	3.27536e-07
2551.87	5.78981e-09
2560.42	2.36376e-08
2568.98	8.61624e-08
2577.54	1.31984e-06
2586.1	2.89271e-06
2594.65	3.23222e-06
2603.21	1.68559e-06
2611.77	1.20639e-06
2620.33	3.43634e-07
2628.89	2.07398e-07
2637.44	3.94006e-07
2646	2.94346e-07
2654.56	8.03634e-08
2663.12	-2.6627e-07
2671.67	-7.77987e-08
2680.23	-3.8577e-07
2688.79	-4.46055e-07
2697.35	-1.37939e-07
2705.9	1.03873e-06
2714.46	1.74474e-06
2723.02	2.07151e-06
2731.58	5.3573e-06
2740.13	1.45436e-05
2748.69	1.6956e-05
2757.25	3.20939e-06
2765.81	1.37413e-06
2774.37	8.88562e-07
2782.92	1.32195e-06
2791.48	1.99271e-06
2800.04	2.93341e-06
2808.6	3.66289e-06
2817.15	5.53002e-06
2825.71	8.05151e-06
2834.27	1.14633e-05
2842.83	1.54645e-05
2851.38	2.19304e-05
2859.94	4.29984e-05
2868.5	0.000100774
2877.06	0.000153443
2885.61	0.000151488
2894.17	0.000123399
2902.73	0.000105249
2911.29	9.66821e-05
2919.85	0.000133761
2928.4	0.000245962
2936.96	0.000305394
2945.52	0.000230351
2954.08	0.000118868
2962.63	9.50003e-05
2971.19	7.35823e-05
2979.75	8.77797e-05
2988.31	0.000115247
2996.86	0.000166352
3005.42	0.000209874
3013.98	0.000196439
3022.54	0.000238318
3031.09	0.00022913
3039.65	0.000164641
3048.21	0.000155579
3056.77	0.000147818
3065.33	0.000117797
3073.88	5.72221e-05
3082.44	2.94721e-05
3091	2.55732e-05
3099.56	2.74517e-05
3108.11	2.64501e-05
3116.67	1.66659e-05
3125.23	7.35657e-06
3133.79	6.46749e-06
3142.34	9.34099e-06
3150.9	7.44461e-06
3159.46	2.03896e-06
3168.02	6.18523e-07
3176.57	-1.57246e-07
3185.13	1.5189e-07
3193.69	-6.95773e-07
3202.25	-6.52605e-08
3210.81	9.77929e-08
3219.36	-5.41664e-07
3227.92	-2.01329e-07
3236.48	-5.25156e-07
3245.04	5.05488e-07
3253.59	6.87802e-08
3262.15	-8.61287e-10
3270.71	-2.40924e-07
3279.27	2.01642e-07
3287.82	-2.32994e-07
3296.38	-1.41016e-07
3304.94	-5.3116e-08
3313.5	-2.55693e-07
3322.05	-2.90477e-07
3330.61	-4.50983e-07
3339.17	-2.77178e-07
3347.73	-4.45828e-07
3356.29	1.36859e-07
3364.84	-6.6139e-07
3373.4	-8.68154e-08
3381.96	-8.6447e-09
3390.52	8.62766e-07
3399.07	3.21045e-07
3407.63	2.8616e-07
3416.19	-3.37354e-07
3424.75	-5.07541e-07
3433.3	1.82947e-07
3441.86	3.64886e-07
3450.42	4.86764e-07
3458.98	1.85199e-08
3467.53	-5.39185e-07
3476.09	-5.36249e-07
3484.65	-1.22525e-07
3493.21	-2.48833e-07
3501.77	-3.50891e-07
3510.32	-2.18265e-07
3518.88	-9.41923e-07
3527.44	-4.09523e-07
3536	-1.29883e-07
3544.55	-5.61831e-07
3553.11	-7.19581e-07
3561.67	-6.92512e-07
3570.23	-3.21152e-07
3578.78	-3.82373e-07
3587.34	3.77529e-09
3595.9	-3.65688e-08
3604.46	-5.17131e-07
3613.01	1.48224e-07
3621.57	6.96269e-08
3630.13	-9.0698e-08
3638.69	-1.89065e-08
3647.25	-3.84501e-07
3655.8	6.75785e-07
3664.36	1.07065e-06
3672.92	1.08011e-06
3681.48	1.19098e-06
3690.03	6.19179e-07
3698.59	7.12613e-08
3707.15	1.6705e-07
3715.71	3.42967e-07
3724.26	1.33159e-07
3732.82	-1.77278e-07
3741.38	2.54912e-07
3749.94	2.43203e-07
3758.49	8.75336e-07
3767.05	8.41045e-07
3775.61	7.28655e-07
3784.17	5.56533e-07
3792.73	-5.06349e-08
3801.28	-3.98527e-07
3809.84	9.84286e-07
3818.4	8.2482e-07
3826.96	6.69888e-07
3835.51	1.45656e-06
3844.07	1.87182e-06
3852.63	1.3647e-06
3861.19	1.77532e-06
3869.74	1.71349e-06
3878.3	1.67797e-06
3886.86	2.44436e-06
3895.42	2.09519e-06
3903.97	2.13264e-06
3912.53	1.69298e-06
3921.09	2.53624e-06
3929.65	2.09088e-06
3938.21	1.99859e-06
3946.76	2.14166e-06
3955.32	1.87181e-06
3963.88	2.4653e-06
3972.44	2.58014e-06
