Infrared Spectrum: 1,3-Butadiene
Formula: C H2: C H C H: C H2
CAS: 106-99-0
State: gas
Melting point: -108.91 C
Boiling point: -4.41 C
Class: IUPAC A
Instrument: IFS66V (Bruker)
Instrument parameters: KBr Beam splitter; MCT Detector; Multipass cell
Sampling: 1 L/min Flow
Resolution: 0.2410
Temperature: 23 C
Pressure: 101.3 kPa
Origin: NIST, Anayltical Chemistry Division, 301-975-3108
cm-1	(micromol/mol)-1m-1 (base 10)
575.048	5.21982e-06
583.606	3.08037e-06
592.163	2.31138e-06
600.721	1.25185e-06
609.279	7.54611e-07
617.836	6.56062e-07
626.394	7.47992e-07
634.951	1.17324e-06
643.509	1.55953e-06
652.067	2.42551e-06
660.624	2.80054e-06
669.182	3.25038e-06
677.74	2.79119e-06
686.297	2.20328e-06
694.855	1.61906e-06
703.412	1.24321e-06
711.97	7.33023e-07
720.528	7.45691e-07
729.085	7.01712e-07
737.643	9.41233e-07
746.201	8.84117e-07
754.758	1.04881e-06
763.316	1.09443e-06
771.873	7.98854e-07
780.431	4.96301e-07
788.989	5.00316e-07
797.546	5.56357e-07
806.104	6.99592e-07
814.662	9.98391e-07
823.219	1.68201e-06
831.777	3.13004e-06
840.334	6.04993e-06
848.892	1.54109e-05
857.45	2.41146e-05
866.007	3.89768e-05
874.565	6.12902e-05
883.123	9.02152e-05
891.68	0.000141605
900.238	0.000133594
908.795	0.000474728
917.353	0.00014182
925.911	0.000139647
934.468	0.000115372
943.026	8.91229e-05
951.584	4.93142e-05
960.141	2.99335e-05
968.699	2.71301e-05
977.256	3.33643e-05
985.814	6.46319e-05
994.372	8.9826e-05
1002.93	7.99651e-05
1011.49	0.000120767
1020.04	6.73449e-05
1028.6	7.41367e-05
1037.16	6.04726e-05
1045.72	4.89034e-05
1054.28	3.08275e-05
1062.83	2.19094e-05
1071.39	1.24368e-05
1079.95	8.85627e-06
1088.51	4.25236e-06
1097.06	1.53878e-06
1105.62	5.25205e-07
1114.18	2.57708e-07
1122.74	2.51154e-07
1131.29	2.73909e-07
1139.85	2.04351e-07
1148.41	1.78991e-07
1156.97	1.85681e-07
1165.52	1.81574e-07
1174.08	1.87437e-07
1182.64	2.16886e-07
1191.2	1.60701e-07
1199.75	1.69156e-07
1208.31	3.49102e-07
1216.87	4.71723e-07
1225.43	8.62655e-07
1233.99	1.37887e-06
1242.54	2.24006e-06
1251.1	3.63697e-06
1259.66	5.48238e-06
1268.22	5.12209e-06
1276.77	6.75711e-06
1285.33	7.29463e-06
1293.89	4.17264e-06
1302.45	6.71654e-06
1311	5.39608e-06
1319.56	4.37531e-06
1328.12	2.78367e-06
1336.68	3.03118e-06
1345.23	2.66545e-06
1353.79	4.03514e-06
1362.35	9.71163e-06
1370.91	2.10596e-05
1379.46	7.5747e-06
1388.02	1.97315e-05
1396.58	1.20363e-05
1405.14	5.6623e-06
1413.7	5.82147e-06
1422.25	5.7507e-06
1430.81	4.2074e-06
1439.37	5.18987e-06
1447.93	5.64124e-06
1456.48	5.41057e-06
1465.04	4.84169e-06
1473.6	7.16128e-06
1482.16	5.63011e-06
1490.71	6.06678e-06
1499.27	5.5402e-06
1507.83	3.15617e-06
1516.39	2.43804e-06
1524.94	1.42662e-06
1533.5	1.18388e-06
1542.06	3.92742e-06
1550.62	1.26445e-06
1559.18	3.38002e-06
1567.73	9.10939e-06
1576.29	3.65517e-05
1584.85	9.49169e-05
1593.41	6.22994e-05
1601.96	0.000101237
1610.52	6.66382e-05
1619.08	8.00744e-06
1627.64	3.33255e-06
1636.19	3.14106e-06
1644.75	3.53948e-06
1653.31	8.53761e-06
1661.87	1.8545e-06
1670.42	1.55454e-06
1678.98	8.99298e-07
1687.54	6.50034e-07
1696.1	4.52434e-06
1704.65	1.17851e-06
1713.21	7.20603e-07
1721.77	1.08694e-06
1730.33	2.10478e-06
1738.89	2.61018e-06
1747.44	3.98949e-06
1756	5.23132e-06
1764.56	3.69337e-06
1773.12	4.05134e-06
1781.67	2.97573e-06
1790.23	4.15471e-06
1798.79	1.05397e-05
1807.35	4.39343e-05
1815.9	4.101e-05
1824.46	4.62645e-05
1833.02	4.47231e-05
1841.58	7.56587e-06
1850.13	1.65489e-06
1858.69	1.89458e-06
1867.25	2.05743e-06
1875.81	1.95769e-06
1884.36	2.34213e-06
1892.92	1.25008e-06
1901.48	1.03698e-06
1910.04	1.65835e-06
1918.6	1.26297e-06
1927.15	1.33605e-06
1935.71	1.2939e-06
1944.27	1.50643e-06
1952.83	2.4081e-06
1961.38	3.60453e-06
1969.94	2.75407e-06
1978.5	3.25726e-06
1987.06	1.74883e-06
1995.61	7.53891e-07
2004.17	5.37558e-07
2012.73	2.70006e-07
2021.29	6.07648e-08
2029.84	5.96498e-08
2038.4	-5.84056e-08
2046.96	-4.48288e-08
2055.52	-7.04982e-08
2064.08	-2.87854e-08
2072.63	4.18074e-08
2081.19	8.66162e-08
2089.75	1.64238e-07
2098.31	3.4285e-07
2106.86	2.53566e-07
2115.42	5.08596e-07
2123.98	2.85091e-07
2132.54	1.77076e-07
2141.09	1.29802e-07
2149.65	1.99877e-07
2158.21	5.07197e-07
2166.77	4.31509e-07
2175.32	3.38509e-07
2183.88	3.70828e-07
2192.44	4.13782e-07
2201	4.95714e-07
2209.55	4.34314e-07
2218.11	4.38713e-07
2226.67	3.8253e-07
2235.23	4.70492e-07
2243.79	7.00373e-07
2252.34	9.94653e-07
2260.9	1.07902e-06
2269.46	1.06918e-06
2278.02	1.015e-06
2286.57	7.30475e-07
2295.13	5.309e-07
2303.69	5.52606e-07
2312.25	4.34891e-07
2320.8	5.45181e-07
2329.36	4.3102e-07
2337.92	9.62539e-07
2346.48	3.97338e-07
2355.03	2.68516e-07
2363.59	3.56844e-07
2372.15	2.49395e-07
2380.71	2.09614e-07
2389.26	1.88461e-07
2397.82	2.0676e-07
2406.38	2.79541e-07
2414.94	3.67097e-07
2423.5	3.41055e-07
2432.05	4.18091e-07
2440.61	4.31307e-07
2449.17	4.23302e-07
2457.73	5.47449e-07
2466.28	7.23161e-07
2474.84	1.00314e-06
2483.4	1.81421e-06
2491.96	1.12111e-06
2500.51	1.56947e-06
2509.07	1.06335e-06
2517.63	4.93064e-07
2526.19	2.94695e-07
2534.74	2.29095e-07
2543.3	2.33202e-07
2551.86	2.20622e-07
2560.42	3.25759e-07
2568.98	4.67974e-07
2577.53	5.01838e-07
2586.09	4.47842e-07
2594.65	4.49987e-07
2603.21	1.69325e-07
2611.76	1.27114e-07
2620.32	1.67515e-07
2628.88	1.79524e-07
2637.44	2.24888e-07
2645.99	2.08753e-07
2654.55	1.6272e-07
2663.11	1.61007e-07
2671.67	1.01812e-07
2680.22	6.3426e-08
2688.78	1.13626e-07
2697.34	1.48227e-07
2705.9	1.87035e-07
2714.45	3.70071e-07
2723.01	4.60249e-07
2731.57	2.34079e-07
2740.13	3.03701e-07
2748.69	2.079e-07
2757.24	1.75319e-07
2765.8	2.08695e-07
2774.36	1.85612e-07
2782.92	3.45011e-07
2791.47	3.79306e-07
2800.03	4.48071e-07
2808.59	5.35073e-07
2817.15	3.47151e-07
2825.7	4.11961e-07
2834.26	6.43939e-07
2842.82	1.18619e-06
2851.38	1.81518e-06
2859.93	2.09709e-06
2868.49	2.50684e-06
2877.05	2.9385e-06
2885.61	3.46128e-06
2894.16	4.52468e-06
2902.72	5.06313e-06
2911.28	6.33282e-06
2919.84	7.98031e-06
2928.4	9.50892e-06
2936.95	1.11673e-05
2945.51	1.34311e-05
2954.07	1.59563e-05
2962.63	2.27245e-05
2971.18	3.72191e-05
2979.74	4.07706e-05
2988.3	4.70557e-05
2996.86	5.88324e-05
3005.41	5.27722e-05
3013.97	4.61378e-05
3022.53	5.27734e-05
3031.09	4.4679e-05
3039.64	5.35819e-05
3048.2	5.50137e-05
3056.76	4.56151e-05
3065.32	7.04675e-05
3073.88	6.17602e-05
3082.43	7.16331e-05
3090.99	9.35106e-05
3099.55	5.5672e-05
3108.11	9.32323e-05
3116.66	6.16478e-05
3125.22	3.10503e-05
3133.78	2.14238e-05
3142.34	1.33743e-05
3150.89	7.27026e-06
3159.45	3.88022e-06
3168.01	1.81312e-06
3176.57	7.51441e-07
3185.12	3.83919e-07
3193.68	3.06214e-07
3202.24	1.19454e-07
3210.8	9.92981e-08
3219.35	4.5238e-07
3227.91	6.14148e-07
3236.47	8.60878e-07
3245.03	9.36691e-07
3253.59	3.887e-07
3262.14	2.9756e-07
3270.7	2.18039e-07
3279.26	2.02991e-07
3287.82	1.47645e-07
3296.37	1.95033e-07
3304.93	9.92217e-08
3313.49	2.90184e-07
3322.05	2.34108e-07
3330.6	2.20946e-07
3339.16	1.39601e-07
3347.72	2.64116e-09
3356.28	4.03795e-08
3364.83	2.09568e-07
3373.39	2.34638e-07
3381.95	3.49173e-07
3390.51	5.53285e-07
3399.06	4.13969e-07
3407.62	6.08791e-07
3416.18	3.58674e-07
3424.74	1.8336e-07
3433.3	1.94582e-07
3441.85	2.71896e-07
3450.41	3.26392e-07
3458.97	3.22698e-07
3467.53	3.78119e-07
3476.08	1.57531e-07
3484.64	1.1102e-07
3493.2	1.75139e-07
3501.76	2.10209e-07
3510.31	2.60096e-07
3518.87	3.73146e-07
3527.43	3.70512e-07
3535.99	2.30618e-07
3544.54	1.72368e-07
3553.1	2.65669e-07
3561.66	2.75052e-07
3570.22	2.66521e-07
3578.78	3.06907e-07
3587.33	3.86835e-07
3595.89	4.6279e-07
3604.45	5.53044e-07
3613.01	6.9903e-07
3621.56	7.16447e-07
3630.12	5.87483e-07
3638.68	1.66742e-07
3647.24	1.12928e-06
3655.79	1.86722e-07
3664.35	6.36588e-08
3672.91	1.57633e-08
3681.47	5.52861e-08
3690.02	1.01315e-07
3698.58	1.24362e-07
3707.14	1.03464e-08
3715.7	6.01337e-08
3724.25	9.83559e-08
3732.81	2.57366e-07
3741.37	4.71956e-07
3749.93	5.77501e-07
3758.49	9.8043e-08
3767.04	-5.65703e-10
3775.6	4.62967e-08
3784.16	8.8568e-08
3792.72	5.36344e-08
3801.27	3.13315e-06
3809.83	1.82065e-07
3818.39	1.82196e-07
3826.95	6.84884e-07
3835.5	3.28875e-07
3844.06	4.84815e-07
3852.62	6.57672e-07
3861.18	2.81152e-07
3869.73	7.50915e-07
3878.29	3.86793e-07
3886.85	4.85086e-07
3895.41	4.38072e-07
3903.96	1.16079e-06
3912.52	3.80314e-07
3921.08	3.26625e-07
3929.64	5.00196e-07
3938.2	4.97316e-07
3946.75	4.70856e-07
3955.31	5.36854e-07
3963.87	8.08584e-07
3972.43	1.36186e-06
