Infrared Spectrum: Butane
Formula: C4 H10
CAS: 106-97-8
State: gas
Melting point: -138.35 C
Boiling point: -0.5 C
Class: IUPAC A
Instrument: IFS66V (Bruker)
Instrument parameters: KBr Beam Splitter; MCT Detector; Multipass cell
Sampling: 1 L/min Flow
Resolution: 0.9640
Temperature: 23 C
Pressure: 101.3 Pa
Origin: NIST, Analytical Chemistry Division, 301-975-3108
cm-1	(micromol/mol)-1m-1 (base 10)
575.17	-4.87974e-07
583.848	-8.32902e-08
592.526	4.61402e-07
601.205	1.59252e-08
609.883	-4.71534e-08
618.561	5.49714e-08
627.239	3.20368e-08
635.917	-7.28065e-08
644.595	1.92612e-08
653.274	-1.83266e-07
661.952	2.58495e-08
670.63	-1.42584e-07
679.308	4.55864e-08
687.986	3.86939e-07
696.664	9.26993e-07
705.343	2.29096e-06
714.021	4.05101e-06
722.699	5.18471e-06
731.377	1.01199e-05
740.055	8.73739e-06
748.734	1.06315e-05
757.412	8.04478e-06
766.09	5.66634e-06
774.768	3.3834e-06
783.446	2.75234e-06
792.124	1.91822e-06
800.803	1.55477e-06
809.481	8.26072e-07
818.159	3.69893e-07
826.837	7.32612e-08
835.515	7.05691e-08
844.194	4.4806e-08
852.872	1.46701e-09
861.55	-7.89255e-08
870.228	9.36829e-08
878.906	-4.05296e-08
887.584	-7.34777e-09
896.263	6.3828e-09
904.941	-2.70892e-08
913.619	2.60322e-07
922.297	6.85451e-07
930.975	1.93517e-06
939.653	5.11391e-06
948.332	1.12818e-05
957.01	1.86715e-05
965.688	1.97464e-05
974.366	1.69829e-05
983.044	1.06178e-05
991.723	7.1896e-06
1000.4	3.65624e-06
1009.08	1.85634e-06
1017.76	9.87097e-07
1026.44	5.02167e-07
1035.11	4.20336e-07
1043.79	1.5524e-07
1052.47	3.34601e-08
1061.15	9.99357e-08
1069.83	1.67482e-07
1078.5	7.62571e-08
1087.18	2.56282e-07
1095.86	1.81032e-07
1104.54	3.43737e-07
1113.22	7.99481e-07
1121.9	2.22371e-06
1130.57	2.8497e-06
1139.25	1.88806e-06
1147.93	2.14157e-06
1156.61	5.14759e-07
1165.29	1.60825e-07
1173.96	2.07318e-07
1182.64	2.11119e-07
1191.32	1.89847e-07
1200	1.69708e-07
1208.68	2.68905e-07
1217.36	3.47755e-07
1226.03	4.63127e-07
1234.71	6.43246e-07
1243.39	1.0539e-06
1252.07	1.51145e-06
1260.75	1.72263e-06
1269.42	2.31294e-06
1278.1	4.78784e-06
1286.78	8.23322e-06
1295.46	8.23302e-06
1304.14	7.79908e-06
1312.82	2.88402e-06
1321.49	1.79505e-06
1330.17	3.85677e-06
1338.85	3.75034e-06
1347.53	3.90856e-06
1356.21	6.56812e-06
1364.88	1.00964e-05
1373.56	2.46187e-05
1382.24	2.85541e-05
1390.92	3.74842e-05
1399.6	2.50047e-05
1408.28	9.71468e-06
1416.95	7.99593e-06
1425.63	1.0554e-05
1434.31	1.91051e-05
1442.99	3.67159e-05
1451.67	5.24209e-05
1460.34	6.98472e-05
1469.02	6.99777e-05
1477.7	5.76631e-05
1486.38	4.92403e-05
1495.06	3.00838e-05
1503.73	1.61548e-05
1512.41	8.31331e-06
1521.09	4.25442e-06
1529.77	1.82821e-06
1538.45	1.02248e-06
1547.13	8.93425e-07
1555.8	9.42743e-07
1564.48	1.25814e-06
1573.16	1.62321e-06
1581.84	1.55295e-06
1590.52	1.421e-06
1599.19	1.13727e-06
1607.87	8.92951e-07
1616.55	1.29888e-06
1625.23	7.98507e-07
1633.91	1.09197e-06
1642.59	1.00273e-06
1651.26	1.16195e-06
1659.94	1.29507e-06
1668.62	1.40707e-06
1677.3	1.29605e-06
1685.98	1.39165e-06
1694.65	1.19937e-06
1703.33	1.09224e-06
1712.01	1.06958e-06
1720.69	1.03604e-06
1729.37	8.27228e-07
1738.05	5.45148e-07
1746.72	3.71093e-07
1755.4	2.7008e-07
1764.08	2.54085e-07
1772.76	4.90302e-07
1781.44	2.93723e-07
1790.11	3.2683e-07
1798.79	3.73275e-07
1807.47	3.86289e-07
1816.15	3.55275e-07
1824.83	3.37858e-07
1833.51	1.71233e-07
1842.18	6.61172e-08
1850.86	2.10756e-08
1859.54	-4.78301e-09
1868.22	3.22632e-08
1876.9	7.25446e-08
1885.57	2.27719e-07
1894.25	3.49581e-07
1902.93	4.62873e-07
1911.61	4.32601e-07
1920.29	5.05833e-07
1928.97	3.89231e-07
1937.64	3.44093e-07
1946.32	2.0192e-07
1955	8.59896e-08
1963.68	-8.73201e-09
1972.36	-4.42494e-08
1981.03	-1.92375e-08
1989.71	-4.98528e-08
1998.39	-2.15731e-08
2007.07	2.07309e-08
2015.75	1.1967e-07
2024.43	4.53507e-07
2033.1	6.36927e-07
2041.78	6.38467e-07
2050.46	6.07341e-07
2059.14	2.14933e-07
2067.82	1.40749e-07
2076.49	1.75512e-07
2085.17	1.8916e-07
2093.85	2.81302e-07
2102.53	3.08492e-07
2111.21	5.22806e-07
2119.89	6.82846e-07
2128.56	5.94765e-07
2137.24	6.19018e-07
2145.92	7.06357e-07
2154.6	7.01911e-07
2163.28	6.86443e-07
2171.95	6.33626e-07
2180.63	6.04915e-07
2189.31	6.30079e-07
2197.99	6.83099e-07
2206.67	7.08221e-07
2215.35	6.87854e-07
2224.02	6.52442e-07
2232.7	5.67527e-07
2241.38	4.21305e-07
2250.06	4.74967e-07
2258.74	5.27593e-07
2267.41	5.79849e-07
2276.09	6.36279e-07
2284.77	8.0683e-07
2293.45	7.99342e-07
2302.13	1.01161e-06
2310.81	8.86182e-07
2319.48	7.78883e-07
2328.16	8.18076e-07
2336.84	1.38654e-06
2345.52	1.00686e-06
2354.2	7.05541e-07
2362.87	-1.25752e-07
2371.55	7.11455e-07
2380.23	1.64071e-06
2388.91	1.44759e-06
2397.59	1.7029e-06
2406.27	1.10506e-06
2414.94	1.4789e-06
2423.62	1.62147e-06
2432.3	1.94077e-06
2440.98	1.75944e-06
2449.66	1.63484e-06
2458.33	9.59633e-07
2467.01	5.52736e-07
2475.69	3.94573e-07
2484.37	2.23515e-07
2493.05	2.04524e-07
2501.73	1.81536e-07
2510.4	3.59812e-07
2519.08	5.30745e-07
2527.76	7.32878e-07
2536.44	6.99823e-07
2545.12	7.13293e-07
2553.79	5.91924e-07
2562.47	7.39015e-07
2571.15	1.05261e-06
2579.83	1.67102e-06
2588.51	2.45696e-06
2597.19	3.36686e-06
2605.86	3.62423e-06
2614.54	4.15022e-06
2623.22	4.1945e-06
2631.9	4.51671e-06
2640.58	4.34265e-06
2649.25	4.76165e-06
2657.93	4.76197e-06
2666.61	4.29326e-06
2675.29	3.67498e-06
2683.97	4.18981e-06
2692.65	3.22692e-06
2701.32	3.05349e-06
2710	3.83185e-06
2718.68	4.88207e-06
2727.36	7.57547e-06
2736.04	1.02077e-05
2744.71	9.30209e-06
2753.39	1.08755e-05
2762.07	7.04585e-06
2770.75	5.82569e-06
2779.43	6.16404e-06
2788.11	6.58983e-06
2796.78	7.75995e-06
2805.46	9.95255e-06
2814.14	1.37909e-05
2822.82	2.00501e-05
2831.5	2.91583e-05
2840.17	4.47391e-05
2848.85	6.80977e-05
2857.53	0.000113503
2866.21	0.000166959
2874.89	0.000248651
2883.57	0.000257816
2892.24	0.000269515
2900.92	0.000249252
2909.6	0.000231703
2918.28	0.000272077
2926.96	0.000356663
2935.63	0.000422965
2944.31	0.000472774
2952.99	0.000534653
2961.67	0.000651966
2970.35	0.000624502
2979.03	0.000571948
2987.7	0.000383198
2996.38	0.000165023
3005.06	6.9249e-05
3013.74	2.72839e-05
3022.42	1.24243e-05
3031.09	7.97537e-06
3039.77	6.71174e-06
3048.45	6.26729e-06
3057.13	6.26216e-06
3065.81	6.89248e-06
3074.49	7.65539e-06
3083.16	7.65128e-06
3091.84	7.23684e-06
3100.52	5.71711e-06
3109.2	4.50066e-06
3117.88	3.91361e-06
3126.55	3.9019e-06
3135.23	4.25645e-06
3143.91	4.88988e-06
3152.59	5.52486e-06
3161.27	6.48825e-06
3169.95	7.23713e-06
3178.62	7.00995e-06
3187.3	7.01439e-06
3195.98	5.47309e-06
3204.66	4.4964e-06
3213.34	4.06512e-06
3222.01	4.11211e-06
3230.69	3.33755e-06
3239.37	2.8523e-06
3248.05	1.82479e-06
3256.73	9.54623e-07
3265.41	6.44584e-07
3274.08	7.47579e-07
3282.76	6.49942e-07
3291.44	7.05129e-07
3300.12	6.68073e-07
3308.8	4.80124e-07
3317.47	3.71145e-07
3326.15	4.33407e-07
3334.83	4.70978e-07
3343.51	6.60665e-07
3352.19	7.01765e-07
3360.86	7.01466e-07
3369.54	7.74071e-07
3378.22	8.797e-07
3386.9	1.06662e-06
3395.58	1.18329e-06
3404.26	1.06522e-06
3412.93	8.31738e-07
3421.61	3.26684e-07
3430.29	2.07797e-07
3438.97	2.26894e-07
3447.65	1.20301e-07
3456.32	3.45952e-08
3465	1.1667e-07
3473.68	1.29401e-07
3482.36	1.30168e-07
3491.04	5.18209e-08
3499.72	9.83268e-08
3508.39	2.60114e-08
3517.07	5.71214e-08
3525.75	-7.7916e-08
3534.43	-9.54592e-08
3543.11	-7.13313e-08
3551.78	-1.66109e-08
3560.46	2.05135e-08
3569.14	1.7602e-07
3577.82	2.54341e-07
3586.5	3.47026e-07
3595.18	3.54674e-07
3603.85	3.96698e-07
3612.53	5.98588e-07
3621.21	6.18086e-07
3629.89	8.25685e-07
3638.57	7.9599e-07
3647.24	9.00989e-07
3655.92	7.93148e-07
3664.6	7.61541e-07
3673.28	7.95144e-07
3681.96	8.89102e-07
3690.64	1.0007e-06
3699.31	9.77931e-07
3707.99	9.98784e-07
3716.67	1.24661e-06
3725.35	1.19409e-06
3734.03	1.30889e-06
3742.7	9.43105e-07
3751.38	6.2159e-07
3760.06	7.28165e-07
3768.74	5.97808e-07
3777.42	5.3245e-07
3786.1	4.98179e-07
3794.77	4.38218e-07
3803.45	4.52218e-07
3812.13	4.77925e-07
3820.81	7.42966e-07
3829.49	7.3358e-07
3838.16	1.4778e-06
3846.84	1.60265e-06
3855.52	1.85936e-06
3864.2	1.6751e-06
3872.88	1.36858e-06
3881.56	1.21602e-06
3890.23	1.07395e-06
3898.91	9.60427e-07
3907.59	8.78224e-07
3916.27	7.81962e-07
3924.95	6.667e-07
3933.62	6.69873e-07
3942.3	5.4843e-07
3950.98	4.52064e-07
3959.66	4.45618e-07
3968.34	4.77975e-07
