Infrared Spectrum: 1,3-Butadiene
Formula: C H2: C H C H: C H2
CAS: 106-99-0
State: gas
Melting point: -108.91 C
Boiling point: -4.41 C
Class: IUPAC A
Instrument: IFS66V (Bruker)
Instrument parameters: KBr Beam splitter; MCT Detector; Multipass cell
Sampling: 1 L/min Flow
Resolution: 1.9290
Temperature: 23 C
Pressure: 101.3 kPa
Origin: NIST, Anayltical Chemistry Division, 301-975-3108
cm-1	(micromol/mol)-1m-1 (base 10)
574.687	4.78882e-06
583.365	3.24931e-06
592.043	1.97159e-06
600.721	1.73329e-06
609.4	9.40093e-07
618.078	6.86887e-07
626.756	7.86635e-07
635.434	1.12332e-06
644.112	1.70798e-06
652.79	2.41064e-06
661.469	2.73953e-06
670.147	3.46035e-06
678.825	2.69956e-06
687.503	2.29235e-06
696.181	1.75139e-06
704.859	1.21814e-06
713.537	7.69197e-07
722.216	7.27307e-07
730.894	8.38167e-07
739.572	1.07139e-06
748.25	1.00983e-06
756.928	1.12037e-06
765.606	1.01266e-06
774.285	7.94677e-07
782.963	6.84446e-07
791.641	6.65742e-07
800.319	6.57617e-07
808.997	8.98406e-07
817.675	1.34669e-06
826.353	2.39029e-06
835.032	4.62625e-06
843.71	8.75024e-06
852.388	1.73378e-05
861.066	3.14878e-05
869.744	5.23421e-05
878.422	7.99458e-05
887.101	0.000106941
895.779	0.00012317
904.457	0.000143369
913.135	0.000144915
921.813	0.000154909
930.491	0.000145648
939.169	0.000103774
947.848	6.24432e-05
956.526	3.62967e-05
965.204	2.67977e-05
973.882	3.02844e-05
982.56	5.09568e-05
991.238	6.44077e-05
999.917	9.22799e-05
1008.59	9.47291e-05
1017.27	7.80222e-05
1025.95	7.29196e-05
1034.63	6.5661e-05
1043.31	5.14513e-05
1051.99	3.77428e-05
1060.66	2.25235e-05
1069.34	1.44259e-05
1078.02	1.01496e-05
1086.7	5.13417e-06
1095.38	2.11778e-06
1104.05	8.09001e-07
1112.73	4.35111e-07
1121.41	3.52707e-07
1130.09	3.59557e-07
1138.77	3.49613e-07
1147.45	3.09425e-07
1156.12	2.68832e-07
1164.8	2.31738e-07
1173.48	2.55248e-07
1182.16	2.6072e-07
1190.84	1.94044e-07
1199.51	2.36049e-07
1208.19	3.47871e-07
1216.87	5.48868e-07
1225.55	9.00058e-07
1234.23	1.45997e-06
1242.9	2.41729e-06
1251.58	3.97528e-06
1260.26	5.70909e-06
1268.94	5.19372e-06
1277.62	7.90836e-06
1286.3	7.02494e-06
1294.97	4.19576e-06
1303.65	6.29182e-06
1312.33	4.51406e-06
1321.01	3.14509e-06
1329.69	2.89867e-06
1338.36	2.80421e-06
1347.04	3.18152e-06
1355.72	4.71344e-06
1364.4	1.28439e-05
1373.08	2.06201e-05
1381.76	1.33723e-05
1390.43	1.87372e-05
1399.11	8.57815e-06
1407.79	5.20345e-06
1416.47	5.68365e-06
1425.15	5.26737e-06
1433.82	4.49325e-06
1442.5	5.32452e-06
1451.18	4.01709e-06
1459.86	3.49438e-06
1468.54	4.0055e-06
1477.22	6.08023e-06
1485.89	5.05935e-06
1494.57	5.43936e-06
1503.25	3.94324e-06
1511.93	2.85662e-06
1520.61	2.70927e-06
1529.28	1.09157e-06
1537.96	1.4926e-06
1546.64	1.23592e-06
1555.32	2.63985e-06
1564	6.21585e-06
1572.67	1.9411e-05
1581.35	6.55946e-05
1590.03	9.90846e-05
1598.71	6.63899e-05
1607.39	9.99069e-05
1616.07	2.02566e-05
1624.74	4.32324e-06
1633.42	3.3606e-06
1642.1	3.38402e-06
1650.78	3.16515e-06
1659.46	1.77689e-06
1668.13	2.19653e-06
1676.81	1.26519e-06
1685.49	2.04205e-06
1694.17	7.71501e-07
1702.85	7.34893e-07
1711.53	7.81473e-07
1720.2	1.18821e-06
1728.88	1.82526e-06
1737.56	2.51256e-06
1746.24	3.74802e-06
1754.92	5.24239e-06
1763.59	3.82362e-06
1772.27	4.4886e-06
1780.95	3.25738e-06
1789.63	4.45647e-06
1798.31	1.03808e-05
1806.98	4.15461e-05
1815.66	4.23891e-05
1824.34	4.43682e-05
1833.02	4.35277e-05
1841.7	8.1534e-06
1850.38	2.0029e-06
1859.05	2.04612e-06
1867.73	2.21573e-06
1876.41	2.11113e-06
1885.09	2.28597e-06
1893.77	1.30967e-06
1902.44	1.27392e-06
1911.12	1.44958e-06
1919.8	1.2474e-06
1928.48	1.31854e-06
1937.16	1.36224e-06
1945.84	1.74784e-06
1954.51	2.68399e-06
1963.19	3.61695e-06
1971.87	2.65339e-06
1980.55	2.87335e-06
1989.23	1.46446e-06
1997.9	7.36726e-07
2006.58	4.90232e-07
2015.26	2.23192e-07
2023.94	6.97162e-08
2032.62	2.81993e-08
2041.3	2.7921e-08
2049.97	-1.08892e-08
2058.65	-1.21907e-08
2067.33	8.95383e-09
2076.01	5.50163e-08
2084.69	1.09948e-07
2093.36	2.33012e-07
2102.04	3.15279e-07
2110.72	3.34927e-07
2119.4	4.0445e-07
2128.08	2.63024e-07
2136.75	1.89436e-07
2145.43	1.96049e-07
2154.11	2.83715e-07
2162.79	3.80729e-07
2171.47	3.84679e-07
2180.15	4.90968e-07
2188.82	4.41593e-07
2197.5	4.53637e-07
2206.18	4.11372e-07
2214.86	4.19226e-07
2223.54	3.89581e-07
2232.21	4.53414e-07
2240.89	6.51254e-07
2249.57	8.51332e-07
2258.25	1.19304e-06
2266.93	9.65102e-07
2275.61	1.15104e-06
2284.28	8.04045e-07
2292.96	6.07755e-07
2301.64	6.07425e-07
2310.32	5.20013e-07
2319	5.96197e-07
2327.67	7.87699e-07
2336.35	9.01739e-07
2345.03	7.47833e-07
2353.71	7.0209e-07
2362.39	1.01996e-06
2371.06	6.07318e-07
2379.74	2.11201e-07
2388.42	1.60639e-07
2397.1	1.97769e-07
2405.78	2.82887e-07
2414.46	3.71851e-07
2423.13	3.74417e-07
2431.81	4.42254e-07
2440.49	4.14921e-07
2449.17	4.51589e-07
2457.85	5.51115e-07
2466.52	6.79245e-07
2475.2	1.02984e-06
2483.88	1.62658e-06
2492.56	1.17317e-06
2501.24	1.60877e-06
2509.92	9.96577e-07
2518.59	4.49606e-07
2527.27	3.21221e-07
2535.95	2.75712e-07
2544.63	2.26897e-07
2553.31	2.72186e-07
2561.98	3.60647e-07
2570.66	5.37077e-07
2579.34	4.39782e-07
2588.02	4.92248e-07
2596.7	3.83118e-07
2605.38	1.56605e-07
2614.05	1.24949e-07
2622.73	1.55214e-07
2631.41	1.65171e-07
2640.09	1.98092e-07
2648.77	1.85949e-07
2657.44	1.62348e-07
2666.12	1.28794e-07
2674.8	9.87486e-08
2683.48	1.07573e-07
2692.16	1.37136e-07
2700.83	2.23751e-07
2709.51	2.41109e-07
2718.19	4.10396e-07
2726.87	3.60392e-07
2735.55	3.14865e-07
2744.23	2.74913e-07
2752.9	2.0864e-07
2761.58	1.49363e-07
2770.26	2.07696e-07
2778.94	2.31606e-07
2787.62	3.84665e-07
2796.29	3.85449e-07
2804.97	5.19492e-07
2813.65	3.8368e-07
2822.33	4.31801e-07
2831.01	5.28816e-07
2839.69	1.00492e-06
2848.36	1.69595e-06
2857.04	2.05483e-06
2865.72	2.48355e-06
2874.4	2.69541e-06
2883.08	3.36199e-06
2891.75	4.5904e-06
2900.43	5.19326e-06
2909.11	6.1671e-06
2917.79	8.20894e-06
2926.47	8.43491e-06
2935.14	1.13131e-05
2943.82	1.25102e-05
2952.5	1.63389e-05
2961.18	2.02072e-05
2969.86	3.48877e-05
2978.54	4.19824e-05
2987.21	4.2662e-05
2995.89	5.60198e-05
3004.57	5.55483e-05
3013.25	4.40109e-05
3021.93	5.34263e-05
3030.6	4.33059e-05
3039.28	5.28678e-05
3047.96	5.47393e-05
3056.64	4.70311e-05
3065.32	6.64909e-05
3074	6.0896e-05
3082.67	7.40542e-05
3091.35	9.21929e-05
3100.03	6.13764e-05
3108.71	9.21558e-05
3117.39	5.24782e-05
3126.06	3.20207e-05
3134.74	2.14614e-05
3143.42	1.27785e-05
3152.1	6.94648e-06
3160.78	3.40195e-06
3169.46	1.6606e-06
3178.13	7.28481e-07
3186.81	5.08244e-07
3195.49	3.39021e-07
3204.17	1.14862e-07
3212.85	2.26768e-07
3221.52	5.73826e-07
3230.2	6.15599e-07
3238.88	9.33217e-07
3247.56	6.93275e-07
3256.24	3.7539e-07
3264.91	3.29596e-07
3273.59	2.1952e-07
3282.27	1.22791e-07
3290.95	1.20986e-07
3299.63	2.44679e-07
3308.31	2.35184e-07
3316.98	2.72481e-07
3325.66	2.01173e-07
3334.34	1.36708e-07
3343.02	1.26065e-07
3351.7	6.57081e-08
3360.37	1.11636e-07
3369.05	1.0915e-07
3377.73	2.7679e-07
3386.41	5.02741e-07
3395.09	5.83081e-07
3403.77	6.28147e-07
3412.44	5.59312e-07
3421.12	3.22224e-07
3429.8	1.74262e-07
3438.48	2.5023e-07
3447.16	3.89039e-07
3455.83	2.37732e-07
3464.51	3.49228e-07
3473.19	1.99331e-07
3481.87	2.15791e-07
3490.55	2.09242e-07
3499.22	2.29923e-07
3507.9	2.28498e-07
3516.58	2.81772e-07
3525.26	2.96922e-07
3533.94	3.37898e-07
3542.62	2.49129e-07
3551.29	3.28939e-07
3559.97	2.92903e-07
3568.65	4.92141e-07
3577.33	3.35815e-07
3586.01	5.86384e-07
3594.68	5.62007e-07
3603.36	5.84745e-07
3612.04	7.31899e-07
3620.72	8.15182e-07
3629.4	1.28694e-06
3638.08	2.08436e-07
3646.75	6.14092e-07
3655.43	3.52828e-07
3664.11	8.12057e-08
3672.79	1.07774e-07
3681.47	8.90381e-08
3690.14	3.21391e-07
3698.82	1.41328e-07
3707.5	1.07105e-07
3716.18	1.03103e-07
3724.86	1.89164e-07
3733.54	3.65589e-07
3742.21	2.41241e-07
3750.89	5.70801e-07
3759.57	4.24061e-07
3768.25	9.12409e-08
3776.93	9.0164e-08
3785.6	1.47459e-07
3794.28	1.12646e-07
3802.96	3.77461e-07
3811.64	1.75805e-07
3820.32	7.1761e-07
3828.99	2.50636e-07
3837.67	1.49875e-06
3846.35	3.10119e-07
3855.03	1.50983e-06
3863.71	5.14103e-07
3872.39	4.70201e-07
3881.06	6.99085e-07
3889.74	4.84305e-07
3898.42	6.2234e-07
3907.1	4.72349e-07
3915.78	4.0881e-07
3924.45	5.26468e-07
3933.13	5.28914e-07
3941.81	4.85872e-07
3950.49	4.95183e-07
3959.17	6.01962e-07
3967.85	9.88788e-07
