Infrared Spectrum: 1,4-Dimethylbenzene
Formula: 1,4-( C H3)2 C6 H4
CAS: 106-42-3
State: gas
Melting point: 13.26 C
Boiling point: 138.35 C
Class: IUPAC A
Instrument: IFS66V (Bruker)
Instrument parameters: KBr Beam Splitter; MCT Detector; Multipass cell
Sampling: 1 L/min Flow
Resolution: 0.2410
Temperature: 23 C
Pressure: 101.3 Pa
Origin: NIST, Analytical Chemistry Division, 301-975-3108
cm-1	(micromol/mol)-1m-1 (base 10)
575.05	5.19975e-07
583.608	-5.54127e-07
592.165	8.413e-07
600.723	-1.59376e-07
609.281	-9.06913e-07
617.838	3.84261e-07
626.396	-7.20242e-07
634.954	-3.74272e-07
643.511	-2.70986e-07
652.069	-9.29194e-07
660.626	2.06603e-07
669.184	-9.99329e-07
677.742	-3.03646e-07
686.299	-2.37795e-08
694.857	2.16041e-07
703.415	1.94293e-07
711.972	-3.4884e-07
720.53	2.30417e-07
729.088	2.40014e-07
737.645	2.38068e-07
746.203	9.4778e-08
754.761	9.33742e-07
763.318	3.88603e-06
771.876	2.37873e-05
780.434	9.98825e-05
788.991	0.000171597
797.549	0.000190057
806.106	0.000149866
814.664	4.48665e-05
823.222	8.23653e-06
831.779	4.54177e-06
840.337	3.1797e-06
848.895	1.21151e-06
857.452	7.12655e-07
866.01	8.86417e-07
874.568	1.28693e-06
883.125	9.23477e-07
891.683	1.35163e-06
900.241	1.32382e-06
908.798	1.68858e-06
917.356	2.59876e-06
925.914	2.83861e-06
934.471	2.49947e-06
943.029	2.67639e-06
951.586	3.44732e-06
960.144	4.1897e-06
968.702	4.50693e-06
977.259	4.68091e-06
985.817	4.70499e-06
994.375	4.82666e-06
1002.93	4.89596e-06
1011.49	7.1024e-06
1020.05	2.16707e-05
1028.61	2.67817e-05
1037.16	1.7384e-05
1045.72	2.47724e-05
1054.28	2.34096e-05
1062.84	1.73157e-05
1071.39	1.129e-05
1079.95	8.82086e-06
1088.51	1.19702e-05
1097.07	1.91167e-05
1105.62	2.57721e-05
1114.18	4.06597e-05
1122.74	3.19874e-05
1131.3	1.98355e-05
1139.85	7.36959e-06
1148.41	4.02134e-06
1156.97	3.24208e-06
1165.53	3.35469e-06
1174.09	3.40248e-06
1182.64	3.37964e-06
1191.2	2.97031e-06
1199.76	2.55328e-06
1208.32	5.34286e-06
1216.87	1.34275e-05
1225.43	1.73882e-05
1233.99	1.38369e-05
1242.55	1.25074e-05
1251.1	5.30805e-06
1259.66	3.34625e-06
1268.22	2.95809e-06
1276.78	2.41759e-06
1285.33	2.41085e-06
1293.89	2.44511e-06
1302.45	3.26783e-06
1311.01	4.95467e-06
1319.57	5.3869e-06
1328.12	6.22012e-06
1336.68	6.77516e-06
1345.24	8.78312e-06
1353.8	8.48017e-06
1362.35	7.71472e-06
1370.91	9.99505e-06
1379.47	1.96071e-05
1388.03	2.57783e-05
1396.58	1.70802e-05
1405.14	1.7288e-05
1413.7	2.26074e-05
1422.26	3.12714e-05
1430.81	3.59728e-05
1439.37	3.62075e-05
1447.93	2.84138e-05
1456.49	3.24736e-05
1465.05	3.98472e-05
1473.6	4.1731e-05
1482.16	3.83897e-05
1490.72	4.03631e-05
1499.28	5.32013e-05
1507.83	8.66584e-05
1516.39	0.000228778
1524.95	0.000238873
1533.51	5.7306e-05
1542.06	1.96895e-05
1550.62	1.51018e-05
1559.18	1.17081e-05
1567.74	9.263e-06
1576.29	5.55884e-06
1584.85	5.32655e-06
1593.41	5.21399e-06
1601.97	5.83207e-06
1610.53	8.90161e-06
1619.08	1.58487e-05
1627.64	1.40877e-05
1636.2	1.1491e-05
1644.76	4.50542e-06
1653.31	4.88396e-07
1661.87	2.05845e-06
1670.43	1.49065e-06
1678.99	9.37654e-07
1687.54	1.04376e-06
1696.1	4.03504e-08
1704.66	7.70226e-07
1713.22	1.35215e-06
1721.77	3.12402e-06
1730.33	2.89282e-06
1738.89	2.23665e-06
1747.45	3.22112e-06
1756.01	3.50204e-06
1764.56	2.86479e-06
1773.12	3.62377e-06
1781.68	1.00575e-05
1790.24	1.20769e-05
1798.79	5.97315e-06
1807.35	1.46339e-06
1815.91	9.86477e-07
1824.47	1.29634e-06
1833.02	3.29187e-06
1841.58	4.14864e-06
1850.14	2.76563e-06
1858.7	1.99777e-06
1867.25	4.40378e-06
1875.81	1.08897e-05
1884.37	2.11342e-05
1892.93	2.15473e-05
1901.49	9.80564e-06
1910.04	3.53794e-06
1918.6	2.25813e-06
1927.16	2.12834e-06
1935.72	1.35842e-06
1944.27	7.97726e-07
1952.83	1.04686e-06
1961.39	7.72793e-07
1969.95	9.78313e-07
1978.5	1.22468e-06
1987.06	1.31552e-06
1995.62	1.24161e-06
2004.18	9.47395e-07
2012.73	6.51174e-07
2021.29	4.08612e-07
2029.85	2.74932e-07
2038.41	2.68952e-07
2046.97	1.7824e-07
2055.52	2.88608e-08
2064.08	-6.61699e-08
2072.64	8.5111e-08
2081.2	1.31766e-07
2089.75	5.39654e-07
2098.31	1.53534e-06
2106.87	1.7111e-06
2115.43	1.34053e-06
2123.98	3.09847e-07
2132.54	-1.35379e-07
2141.1	-2.89961e-07
2149.66	-2.14691e-07
2158.21	1.28899e-06
2166.77	1.84686e-07
2175.33	1.26663e-07
2183.89	-2.01452e-08
2192.45	5.60419e-08
2201	4.10393e-07
2209.56	1.17766e-06
2218.12	6.21935e-07
2226.68	-2.41715e-08
2235.23	2.05035e-08
2243.79	-1.89745e-07
2252.35	-6.40017e-08
2260.91	1.07205e-07
2269.46	4.31858e-07
2278.02	4.40555e-07
2286.58	7.40292e-07
2295.14	1.53677e-06
2303.69	2.22574e-06
2312.25	2.73269e-06
2320.81	1.48789e-06
2329.37	1.50934e-06
2337.93	2.54529e-06
2346.48	2.18115e-06
2355.04	1.07227e-06
2363.6	7.57476e-07
2372.16	3.82294e-07
2380.71	6.55764e-07
2389.27	5.92059e-07
2397.83	5.012e-07
2406.39	1.02745e-06
2414.94	1.41408e-06
2423.5	1.50566e-06
2432.06	1.44177e-06
2440.62	1.23912e-06
2449.17	9.4363e-07
2457.73	8.15296e-07
2466.29	6.96919e-07
2474.85	9.48227e-07
2483.41	7.2824e-07
2491.96	7.65952e-07
2500.52	5.45635e-07
2509.08	3.55298e-07
2517.64	3.74567e-07
2526.19	3.06655e-07
2534.75	1.3891e-07
2543.31	3.11884e-07
2551.87	-5.04349e-08
2560.42	2.95211e-08
2568.98	5.03812e-08
2577.54	1.18233e-06
2586.1	2.79773e-06
2594.65	3.41376e-06
2603.21	1.70742e-06
2611.77	1.15192e-06
2620.33	3.98153e-07
2628.89	1.11418e-07
2637.44	3.52842e-07
2646	1.52965e-07
2654.56	4.58428e-08
2663.12	-2.03298e-07
2671.67	-1.01037e-07
2680.23	-2.77358e-07
2688.79	-2.65384e-07
2697.35	1.07102e-07
2705.9	1.09001e-06
2714.46	1.76582e-06
2723.02	2.22353e-06
2731.58	5.29825e-06
2740.13	1.45317e-05
2748.69	1.67705e-05
2757.25	3.3399e-06
2765.81	1.36453e-06
2774.37	1.04658e-06
2782.92	1.1648e-06
2791.48	2.01545e-06
2800.04	2.82469e-06
2808.6	3.59318e-06
2817.15	5.5184e-06
2825.71	8.02657e-06
2834.27	1.16283e-05
2842.83	1.54671e-05
2851.38	2.18566e-05
2859.94	4.31985e-05
2868.5	0.000100592
2877.06	0.000153123
2885.61	0.000151309
2894.17	0.000123409
2902.73	0.000105365
2911.29	9.69451e-05
2919.85	0.000134015
2928.4	0.000245548
2936.96	0.000304784
2945.52	0.000230008
2954.08	0.000119052
2962.63	9.53627e-05
2971.19	7.36765e-05
2979.75	8.79041e-05
2988.31	0.00011556
2996.86	0.000166519
3005.42	0.000209375
3013.98	0.000196525
3022.54	0.000238089
3031.09	0.000229335
3039.65	0.000164876
3048.21	0.000155294
3056.77	0.000147833
3065.33	0.000117692
3073.88	5.72369e-05
3082.44	2.98121e-05
3091	2.54913e-05
3099.56	2.74841e-05
3108.11	2.63849e-05
3116.67	1.69132e-05
3125.23	7.30453e-06
3133.79	6.54494e-06
3142.34	9.37282e-06
3150.9	7.72904e-06
3159.46	2.06198e-06
3168.02	5.51597e-07
3176.57	8.27636e-09
3185.13	4.5731e-08
3193.69	-4.33337e-07
3202.25	-2.07215e-07
3210.81	-2.18535e-07
3219.36	-4.46529e-07
3227.92	-2.30516e-07
3236.48	-3.37089e-07
3245.04	1.77642e-07
3253.59	-6.56061e-08
3262.15	1.14339e-07
3270.71	-1.7177e-07
3279.27	3.29969e-07
3287.82	-1.17315e-07
3296.38	4.05833e-08
3304.94	-5.59209e-08
3313.5	2.17159e-08
3322.05	-3.48407e-08
3330.61	-2.99168e-07
3339.17	-1.57978e-07
3347.73	-1.77197e-07
3356.29	2.08573e-08
3364.84	-3.26629e-07
3373.4	1.53557e-07
3381.96	7.41989e-08
3390.52	7.21367e-07
3399.07	2.5969e-07
3407.63	9.04142e-08
3416.19	-1.17483e-07
3424.75	-3.19613e-08
3433.3	4.39276e-07
3441.86	3.12463e-07
3450.42	4.91288e-07
3458.98	6.32086e-08
3467.53	-4.33094e-07
3476.09	-2.83e-07
3484.65	-1.30536e-07
3493.21	-9.9289e-08
3501.77	-2.68925e-07
3510.32	-2.35703e-07
3518.88	-5.48328e-07
3527.44	-4.11149e-07
3536	-2.3937e-07
3544.55	-3.06218e-07
3553.11	-5.7591e-07
3561.67	-5.90117e-07
3570.23	-3.98466e-07
3578.78	-4.36557e-07
3587.34	-2.8531e-07
3595.9	-1.96996e-07
3604.46	-3.87892e-07
3613.01	1.31139e-08
3621.57	3.02333e-08
3630.13	-6.99671e-08
3638.69	4.26915e-08
3647.25	-1.3301e-07
3655.8	6.20981e-07
3664.36	9.30915e-07
3672.92	1.21242e-06
3681.48	1.08674e-06
3690.03	4.2689e-07
3698.59	3.0025e-07
3707.15	1.8964e-07
3715.71	1.29202e-07
3724.26	1.0525e-07
3732.82	9.4355e-08
3741.38	2.21621e-07
3749.94	4.63057e-07
3758.49	8.61946e-07
3767.05	8.39338e-07
3775.61	6.37489e-07
3784.17	4.9686e-07
3792.73	2.12014e-07
3801.28	-6.16003e-07
3809.84	7.88943e-07
3818.4	8.39585e-07
3826.96	7.77792e-07
3835.51	1.40781e-06
3844.07	1.60716e-06
3852.63	1.47764e-06
3861.19	1.59997e-06
3869.74	1.50918e-06
3878.3	1.83549e-06
3886.86	2.18016e-06
3895.42	2.03878e-06
3903.97	2.06576e-06
3912.53	1.86303e-06
3921.09	2.29069e-06
3929.65	2.09503e-06
3938.21	2.1434e-06
3946.76	2.13956e-06
3955.32	1.91321e-06
3963.88	2.24946e-06
3972.44	2.29074e-06
