Infrared Spectrum: 1,4-Dimethylbenzene
Formula: 1,4-( C H3)2 C6 H4
CAS: 106-42-3
State: gas
Melting point: 13.26 C
Boiling point: 138.35 C
Class: IUPAC A
Instrument: IFS66V (Bruker)
Instrument parameters: KBr Beam Splitter; MCT Detector; Multipass cell
Sampling: 1 L/min Flow
Resolution: 1.9290
Temperature: 23 C
Pressure: 101.3 Pa
Origin: NIST, Analytical Chemistry Division, 301-975-3108
cm-1	(micromol/mol)-1m-1 (base 10)
575.652	1.5057e-06
584.33	-2.16049e-07
593.008	-1.8214e-07
601.687	-6.55567e-07
610.365	-2.86751e-07
619.043	-6.3757e-07
627.721	-6.62172e-07
636.399	-5.517e-07
645.077	-4.01656e-07
653.756	-2.97759e-07
662.434	-2.71772e-07
671.112	-2.92093e-07
679.79	1.83366e-07
688.468	7.91666e-08
697.146	3.38079e-07
705.825	2.56981e-07
714.503	2.65756e-07
723.181	1.36629e-07
731.859	4.23143e-07
740.537	6.48578e-07
749.216	5.90927e-07
757.894	1.191e-06
766.572	7.91089e-06
775.25	4.60101e-05
783.928	0.000142306
792.606	0.000218154
801.285	0.000179196
809.963	9.89104e-05
818.641	1.8355e-05
827.319	5.91248e-06
835.997	4.31122e-06
844.676	1.64708e-06
853.354	9.62699e-07
862.032	8.36647e-07
870.71	1.11422e-06
879.388	1.13815e-06
888.066	1.30064e-06
896.745	1.49704e-06
905.423	1.55137e-06
914.101	2.39746e-06
922.779	2.93421e-06
931.457	2.72912e-06
940.135	2.54264e-06
948.814	3.26449e-06
957.492	4.25974e-06
966.17	4.55563e-06
974.848	4.51937e-06
983.526	4.50405e-06
992.205	4.85815e-06
1000.88	5.15214e-06
1009.56	5.69621e-06
1018.24	2.2064e-05
1026.92	2.25912e-05
1035.6	1.76858e-05
1044.27	2.41601e-05
1052.95	2.42075e-05
1061.63	1.82098e-05
1070.31	1.21166e-05
1078.99	8.93336e-06
1087.66	1.14059e-05
1096.34	1.87467e-05
1105.02	2.48386e-05
1113.7	4.00732e-05
1122.38	3.05538e-05
1131.06	2.05727e-05
1139.73	7.43932e-06
1148.41	3.87761e-06
1157.09	3.14198e-06
1165.77	3.16819e-06
1174.45	3.37229e-06
1183.12	3.35342e-06
1191.8	2.92352e-06
1200.48	2.68133e-06
1209.16	6.08391e-06
1217.84	1.26516e-05
1226.52	1.7244e-05
1235.19	1.34974e-05
1243.87	1.197e-05
1252.55	4.53321e-06
1261.23	3.00972e-06
1269.91	2.88501e-06
1278.58	2.32843e-06
1287.26	2.3806e-06
1295.94	2.60507e-06
1304.62	3.85035e-06
1313.3	5.02819e-06
1321.98	5.89932e-06
1330.65	6.36448e-06
1339.33	7.84029e-06
1348.01	8.40199e-06
1356.69	8.58068e-06
1365.37	8.65049e-06
1374.04	1.18098e-05
1382.72	2.25418e-05
1391.4	2.39464e-05
1400.08	1.5795e-05
1408.76	1.94397e-05
1417.44	2.53976e-05
1426.11	3.52996e-05
1434.79	3.64694e-05
1443.47	3.20948e-05
1452.15	3.3015e-05
1460.83	3.24794e-05
1469.5	4.76216e-05
1478.18	3.58206e-05
1486.86	4.14598e-05
1495.54	4.60711e-05
1504.22	5.90087e-05
1512.9	0.000201074
1521.57	0.000227477
1530.25	0.000117769
1538.93	2.52641e-05
1547.61	1.57502e-05
1556.29	1.2599e-05
1564.96	9.98203e-06
1573.64	7.55112e-06
1582.32	5.69709e-06
1591	4.92955e-06
1599.68	5.6142e-06
1608.36	7.84729e-06
1617.03	1.36348e-05
1625.71	1.51466e-05
1634.39	1.35446e-05
1643.07	5.45953e-06
1651.75	2.03916e-06
1660.42	1.80471e-06
1669.1	1.32707e-06
1677.78	1.21126e-06
1686.46	9.0493e-07
1695.14	5.22059e-07
1703.82	7.71028e-07
1712.49	1.20801e-06
1721.17	2.97667e-06
1729.85	2.84927e-06
1738.53	2.25205e-06
1747.21	3.09102e-06
1755.88	3.40974e-06
1764.56	2.87396e-06
1773.24	3.52359e-06
1781.92	1.0329e-05
1790.6	1.19988e-05
1799.28	5.38656e-06
1807.95	1.31352e-06
1816.63	8.87137e-07
1825.31	1.35661e-06
1833.99	3.38628e-06
1842.67	4.0957e-06
1851.34	2.52775e-06
1860.02	2.23324e-06
1868.7	5.01906e-06
1877.38	1.29937e-05
1886.06	1.98145e-05
1894.74	2.13657e-05
1903.41	7.93461e-06
1912.09	3.12806e-06
1920.77	2.34128e-06
1929.45	1.90893e-06
1938.13	9.74755e-07
1946.8	7.64013e-07
1955.48	1.21684e-06
1964.16	9.4644e-07
1972.84	1.09983e-06
1981.52	1.3819e-06
1990.19	1.25033e-06
1998.87	1.02675e-06
2007.55	7.6607e-07
2016.23	5.01881e-07
2024.91	2.76845e-07
2033.59	3.56382e-07
2042.26	3.57541e-07
2050.94	1.95576e-07
2059.62	-4.98673e-08
2068.3	-9.5611e-08
2076.98	1.15779e-07
2085.65	3.76839e-07
2094.33	1.16589e-06
2103.01	2.1821e-06
2111.69	1.75642e-06
2120.37	2.97761e-07
2129.05	-1.03557e-07
2137.72	-1.88369e-07
2146.4	-5.57417e-08
2155.08	1.12106e-07
2163.76	2.28791e-08
2172.44	5.33865e-07
2181.11	1.26697e-07
2189.79	2.83323e-07
2198.47	1.64391e-07
2207.15	7.66735e-07
2215.83	7.80428e-07
2224.51	7.46e-08
2233.18	2.97221e-09
2241.86	-1.46351e-07
2250.54	-1.62604e-07
2259.22	-3.3974e-08
2267.9	1.73124e-07
2276.57	4.72103e-07
2285.25	6.56962e-07
2293.93	1.34986e-06
2302.61	2.36999e-06
2311.29	2.62908e-06
2319.97	1.58185e-06
2328.64	1.8693e-06
2337.32	2.70869e-06
2346	2.42408e-06
2354.68	1.5689e-06
2363.36	1.375e-06
2372.03	7.34019e-07
2380.71	4.88551e-07
2389.39	5.49862e-07
2398.07	5.82972e-07
2406.75	1.09357e-06
2415.43	1.46791e-06
2424.1	1.52652e-06
2432.78	1.33522e-06
2441.46	1.2111e-06
2450.14	9.05447e-07
2458.82	7.32973e-07
2467.49	8.24548e-07
2476.17	8.96161e-07
2484.85	7.8721e-07
2493.53	7.14156e-07
2502.21	4.65804e-07
2510.89	3.53407e-07
2519.56	2.94602e-07
2528.24	3.01491e-07
2536.92	2.25161e-07
2545.6	6.38944e-08
2554.28	-1.58165e-07
2562.95	-1.23319e-07
2571.63	1.81328e-07
2580.31	1.67134e-06
2588.99	3.06452e-06
2597.67	3.02595e-06
2606.35	1.69295e-06
2615.02	7.65649e-07
2623.7	2.36949e-07
2632.38	1.42025e-07
2641.06	4.12284e-07
2649.74	2.81946e-07
2658.41	-1.41958e-07
2667.09	-1.36231e-07
2675.77	-1.91818e-07
2684.45	-1.25137e-08
2693.13	1.40312e-07
2701.81	8.15511e-07
2710.48	1.51443e-06
2719.16	1.98455e-06
2727.84	2.97844e-06
2736.52	1.17108e-05
2745.2	1.5902e-05
2753.87	7.11041e-06
2762.55	1.52882e-06
2771.23	9.39123e-07
2779.91	1.16847e-06
2788.59	1.58108e-06
2797.27	2.39699e-06
2805.94	3.50349e-06
2814.62	4.77835e-06
2823.3	7.14438e-06
2831.98	1.04602e-05
2840.66	1.40089e-05
2849.33	1.96346e-05
2858.01	3.6173e-05
2866.69	8.59675e-05
2875.37	0.000146039
2884.05	0.0001552
2892.73	0.000126831
2901.4	0.000107607
2910.08	9.65986e-05
2918.76	0.000125408
2927.44	0.000231039
2936.12	0.000306446
2944.79	0.000242893
2953.47	0.000125475
2962.15	9.63041e-05
2970.83	7.36093e-05
2979.51	8.72613e-05
2988.19	0.000115131
2996.86	0.000166238
3005.54	0.000208415
3014.22	0.000196619
3022.9	0.000239287
3031.58	0.000230625
3040.25	0.000159111
3048.93	0.000155113
3057.61	0.000147465
3066.29	0.000110244
3074.97	5.17872e-05
3083.65	2.80809e-05
3092.32	2.57412e-05
3101	2.72453e-05
3109.68	2.47085e-05
3118.36	1.48279e-05
3127.04	6.17188e-06
3135.71	7.46386e-06
3144.39	9.29203e-06
3153.07	6.09936e-06
3161.75	1.3333e-06
3170.43	3.48599e-07
3179.11	-6.9485e-09
3187.78	-2.82864e-07
3196.46	-3.03249e-07
3205.14	-4.04493e-07
3213.82	-3.38545e-07
3222.5	-2.65064e-07
3231.17	-2.47106e-07
3239.85	-2.33645e-07
3248.53	-2.81494e-07
3257.21	8.25635e-09
3265.89	5.35026e-08
3274.57	-1.01796e-07
3283.24	2.96685e-08
3291.92	1.17938e-07
3300.6	-2.70573e-09
3309.28	-5.43211e-08
3317.96	-2.02161e-08
3326.63	6.7908e-08
3335.31	-1.3023e-08
3343.99	-4.24204e-08
3352.67	-1.03461e-07
3361.35	-1.41112e-07
3370.03	4.14827e-08
3378.7	2.13051e-07
3387.38	2.85629e-07
3396.06	2.42766e-07
3404.74	8.67317e-08
3413.42	-3.73346e-08
3422.09	-1.15874e-07
3430.77	1.65183e-07
3439.45	3.42849e-07
3448.13	1.09681e-07
3456.81	-2.90664e-08
3465.49	-2.18993e-07
3474.16	-2.9633e-07
3482.84	-3.64746e-07
3491.52	-2.4102e-07
3500.2	-2.40576e-07
3508.88	-1.15257e-07
3517.55	-2.27169e-07
3526.23	-3.62877e-07
3534.91	-3.49251e-07
3543.59	-1.64824e-07
3552.27	-5.38917e-07
3560.95	-5.66994e-07
3569.62	-5.72645e-07
3578.3	-5.06208e-07
3586.98	-5.71073e-07
3595.66	-3.00618e-07
3604.34	-2.55953e-07
3613.01	-2.07466e-07
3621.69	-1.33255e-07
3630.37	-1.41122e-07
3639.05	2.46917e-08
3647.73	1.91603e-07
3656.41	4.86921e-07
3665.08	1.06547e-06
3673.76	9.86984e-07
3682.44	9.91889e-07
3691.12	3.50913e-07
3699.8	4.74198e-07
3708.47	1.88144e-07
3717.15	6.13951e-08
3725.83	1.23028e-07
3734.51	1.06792e-08
3743.19	3.69697e-07
3751.87	4.30242e-07
3760.54	8.4266e-07
3769.22	5.93148e-07
3777.9	3.28083e-07
3786.58	3.2228e-07
3795.26	3.56179e-07
3803.93	5.09752e-07
3812.61	6.13481e-07
3821.29	5.84466e-07
3829.97	1.18854e-06
3838.65	1.066e-06
3847.33	1.57605e-06
3856	1.60837e-06
3864.68	1.60005e-06
3873.36	1.70294e-06
3882.04	1.95254e-06
3890.72	1.93169e-06
3899.39	1.86965e-06
3908.07	2.00945e-06
3916.75	2.13855e-06
3925.43	2.31409e-06
3934.11	2.39508e-06
3942.79	2.20282e-06
3951.46	1.94936e-06
3960.14	2.06074e-06
3968.82	2.08333e-06
