Infrared Spectrum: 1,4-Dimethylbenzene
Formula: 1,4-( C H3)2 C6 H4
CAS: 106-42-3
State: gas
Melting point: 13.26 C
Boiling point: 138.35 C
Class: IUPAC A
Instrument: IFS66V (Bruker)
Instrument parameters: KBr Beam Splitter; MCT Detector; Multipass cell
Sampling: 1 L/min Flow
Resolution: 1.9290
Temperature: 23 C
Pressure: 101.3 Pa
Origin: NIST, Analytical Chemistry Division, 301-975-3108
cm-1	(micromol/mol)-1m-1 (base 10)
575.652	1.45636e-06
584.33	-1.66714e-07
593.008	-1.55399e-07
601.687	-6.11167e-07
610.365	-2.88211e-07
619.043	-6.17013e-07
627.721	-5.9589e-07
636.399	-5.01649e-07
645.077	-3.57067e-07
653.756	-2.38265e-07
662.434	-2.13738e-07
671.112	-2.1926e-07
679.79	2.01265e-07
688.468	1.45048e-07
697.146	4.12553e-07
705.825	3.5404e-07
714.503	3.70306e-07
723.181	2.97032e-07
731.859	5.99619e-07
740.537	8.83051e-07
749.216	9.78015e-07
757.894	1.89855e-06
766.572	9.1335e-06
775.25	4.73315e-05
783.928	0.00014084
792.606	0.000222373
801.285	0.000178438
809.963	9.88602e-05
818.641	2.0172e-05
827.319	6.78169e-06
835.997	4.74278e-06
844.676	1.9966e-06
853.354	1.2126e-06
862.032	1.02456e-06
870.71	1.25349e-06
879.388	1.24639e-06
888.066	1.40426e-06
896.745	1.57546e-06
905.423	1.64473e-06
914.101	2.44299e-06
922.779	2.97677e-06
931.457	2.78206e-06
940.135	2.61938e-06
948.814	3.31389e-06
957.492	4.27859e-06
966.17	4.58927e-06
974.848	4.57973e-06
983.526	4.56484e-06
992.205	4.93586e-06
1000.88	5.25345e-06
1009.56	6.03353e-06
1018.24	2.1468e-05
1026.92	2.26637e-05
1035.6	1.79114e-05
1044.27	2.38483e-05
1052.95	2.39613e-05
1061.63	1.81761e-05
1070.31	1.22344e-05
1078.99	9.1667e-06
1087.66	1.15966e-05
1096.34	1.86462e-05
1105.02	2.4723e-05
1113.7	3.91317e-05
1122.38	3.03801e-05
1131.06	2.06e-05
1139.73	7.69416e-06
1148.41	4.06793e-06
1157.09	3.26564e-06
1165.77	3.26694e-06
1174.45	3.43383e-06
1183.12	3.41818e-06
1191.8	3.00598e-06
1200.48	2.83139e-06
1209.16	6.23355e-06
1217.84	1.26493e-05
1226.52	1.68538e-05
1235.19	1.33937e-05
1243.87	1.1824e-05
1252.55	4.70281e-06
1261.23	3.11439e-06
1269.91	2.95155e-06
1278.58	2.40797e-06
1287.26	2.45408e-06
1295.94	2.68865e-06
1304.62	3.8973e-06
1313.3	5.05447e-06
1321.98	5.919e-06
1330.65	6.41978e-06
1339.33	7.88628e-06
1348.01	8.46308e-06
1356.69	8.64746e-06
1365.37	8.79287e-06
1374.04	1.20244e-05
1382.72	2.22585e-05
1391.4	2.36566e-05
1400.08	1.60722e-05
1408.76	1.95726e-05
1417.44	2.55007e-05
1426.11	3.50246e-05
1434.79	3.63221e-05
1443.47	3.21734e-05
1452.15	3.29828e-05
1460.83	3.28727e-05
1469.5	4.70282e-05
1478.18	3.63515e-05
1486.86	4.16886e-05
1495.54	4.67093e-05
1504.22	6.10001e-05
1512.9	0.000196235
1521.57	0.000223269
1530.25	0.000118095
1538.93	2.70892e-05
1547.61	1.65358e-05
1556.29	1.30264e-05
1564.96	1.02614e-05
1573.64	7.76723e-06
1582.32	5.91183e-06
1591	5.1363e-06
1599.68	5.78631e-06
1608.36	7.98131e-06
1617.03	1.358e-05
1625.71	1.50746e-05
1634.39	1.33797e-05
1643.07	5.57103e-06
1651.75	2.22083e-06
1660.42	1.89358e-06
1669.1	1.41856e-06
1677.78	1.25462e-06
1686.46	9.71226e-07
1695.14	6.04723e-07
1703.82	8.27724e-07
1712.49	1.26324e-06
1721.17	2.9446e-06
1729.85	2.85196e-06
1738.53	2.30972e-06
1747.21	3.1118e-06
1755.88	3.42807e-06
1764.56	2.93214e-06
1773.24	3.64708e-06
1781.92	1.01159e-05
1790.6	1.17361e-05
1799.28	5.43878e-06
1807.95	1.43041e-06
1816.63	9.68309e-07
1825.31	1.44096e-06
1833.99	3.3795e-06
1842.67	4.07166e-06
1851.34	2.60461e-06
1860.02	2.36773e-06
1868.7	5.1452e-06
1877.38	1.29394e-05
1886.06	1.94472e-05
1894.74	2.07291e-05
1903.41	8.03352e-06
1912.09	3.2569e-06
1920.77	2.39396e-06
1929.45	1.94591e-06
1938.13	1.03387e-06
1946.8	8.15145e-07
1955.48	1.22122e-06
1964.16	9.75759e-07
1972.84	1.11016e-06
1981.52	1.38299e-06
1990.19	1.25895e-06
1998.87	1.04077e-06
2007.55	7.79282e-07
2016.23	5.24492e-07
2024.91	2.95787e-07
2033.59	3.69203e-07
2042.26	3.62782e-07
2050.94	2.06271e-07
2059.62	-3.04297e-08
2068.3	-6.69594e-08
2076.98	1.27189e-07
2085.65	3.98582e-07
2094.33	1.16269e-06
2103.01	2.13513e-06
2111.69	1.70343e-06
2120.37	3.35756e-07
2129.05	-7.73248e-08
2137.72	-1.61693e-07
2146.4	-4.39984e-08
2155.08	1.25368e-07
2163.76	4.37783e-08
2172.44	5.37877e-07
2181.11	1.42903e-07
2189.79	2.9927e-07
2198.47	1.86986e-07
2207.15	7.60115e-07
2215.83	7.65025e-07
2224.51	9.80321e-08
2233.18	1.55523e-08
2241.86	-1.20316e-07
2250.54	-1.43933e-07
2259.22	-1.44081e-08
2267.9	1.8764e-07
2276.57	4.89961e-07
2285.25	6.82012e-07
2293.93	1.36478e-06
2302.61	2.33563e-06
2311.29	2.57865e-06
2319.97	1.62531e-06
2328.64	1.87877e-06
2337.32	2.68397e-06
2346	2.40679e-06
2354.68	1.59114e-06
2363.36	1.38616e-06
2372.03	7.60232e-07
2380.71	5.17629e-07
2389.39	5.68316e-07
2398.07	6.15597e-07
2406.75	1.10525e-06
2415.43	1.47385e-06
2424.1	1.52883e-06
2432.78	1.35193e-06
2441.46	1.21724e-06
2450.14	9.29109e-07
2458.82	7.55558e-07
2467.49	8.43032e-07
2476.17	9.01856e-07
2484.85	8.03777e-07
2493.53	7.24732e-07
2502.21	4.94129e-07
2510.89	3.78369e-07
2519.56	3.2428e-07
2528.24	3.24669e-07
2536.92	2.50658e-07
2545.6	9.53337e-08
2554.28	-1.15421e-07
2562.95	-7.90583e-08
2571.63	2.40474e-07
2580.31	1.6889e-06
2588.99	3.04561e-06
2597.67	2.99431e-06
2606.35	1.71777e-06
2615.02	8.13582e-07
2623.7	2.91098e-07
2632.38	1.87178e-07
2641.06	4.43116e-07
2649.74	3.1855e-07
2658.41	-8.16604e-08
2667.09	-7.75049e-08
2675.77	-1.20522e-07
2684.45	5.41601e-08
2693.13	2.19521e-07
2701.81	8.86502e-07
2710.48	1.59653e-06
2719.16	2.08957e-06
2727.84	3.19194e-06
2736.52	1.15539e-05
2745.2	1.56182e-05
2753.87	7.28762e-06
2762.55	1.75946e-06
2771.23	1.12668e-06
2779.91	1.34407e-06
2788.59	1.77047e-06
2797.27	2.5979e-06
2805.94	3.72239e-06
2814.62	5.05813e-06
2823.3	7.45288e-06
2831.98	1.08192e-05
2840.66	1.45091e-05
2849.33	2.03927e-05
2858.01	3.71649e-05
2866.69	8.59574e-05
2875.37	0.000144238
2884.05	0.000153609
2892.73	0.000126676
2901.4	0.00010803
2910.08	9.79105e-05
2918.76	0.00012686
2927.44	0.000228982
2936.12	0.000301291
2944.79	0.000240035
2953.47	0.000126941
2962.15	9.6954e-05
2970.83	7.51923e-05
2979.51	8.83488e-05
2988.19	0.000115911
2996.86	0.000165573
3005.54	0.000206218
3014.22	0.000196489
3022.9	0.000236653
3031.58	0.000228487
3040.25	0.000160018
3048.93	0.000154357
3057.61	0.000146546
3066.29	0.000109666
3074.97	5.27791e-05
3083.65	2.90821e-05
3092.32	2.62943e-05
3101	2.74737e-05
3109.68	2.47694e-05
3118.36	1.50812e-05
3127.04	6.63287e-06
3135.71	7.67709e-06
3144.39	9.35747e-06
3153.07	6.21822e-06
3161.75	1.57537e-06
3170.43	5.17633e-07
3179.11	1.36296e-07
3187.78	-1.56912e-07
3196.46	-1.96862e-07
3205.14	-3.03757e-07
3213.82	-2.45902e-07
3222.5	-1.93666e-07
3231.17	-1.7708e-07
3239.85	-1.64067e-07
3248.53	-2.01279e-07
3257.21	4.71789e-08
3265.89	1.02774e-07
3274.57	-4.57055e-08
3283.24	7.02981e-08
3291.92	1.57642e-07
3300.6	4.84685e-08
3309.28	-1.447e-08
3317.96	2.06291e-08
3326.63	9.37821e-08
3335.31	1.64609e-08
3343.99	-1.70247e-08
3352.67	-7.09502e-08
3361.35	-1.07313e-07
3370.03	6.66511e-08
3378.7	2.31899e-07
3387.38	3.14268e-07
3396.06	2.60088e-07
3404.74	1.09213e-07
3413.42	-1.49102e-08
3422.09	-7.94712e-08
3430.77	1.82012e-07
3439.45	3.51201e-07
3448.13	1.21773e-07
3456.81	-7.32321e-09
3465.49	-2.01696e-07
3474.16	-2.77456e-07
3482.84	-3.39978e-07
3491.52	-2.29064e-07
3500.2	-2.28231e-07
3508.88	-1.10401e-07
3517.55	-2.174e-07
3526.23	-3.42852e-07
3534.91	-3.3001e-07
3543.59	-1.62194e-07
3552.27	-5.12584e-07
3560.95	-5.42643e-07
3569.62	-5.53882e-07
3578.3	-4.96096e-07
3586.98	-5.50222e-07
3595.66	-2.97159e-07
3604.34	-2.47034e-07
3613.01	-1.96417e-07
3621.69	-1.2214e-07
3630.37	-1.16654e-07
3639.05	3.64342e-08
3647.73	2.17586e-07
3656.41	4.99319e-07
3665.08	1.05805e-06
3673.76	9.72991e-07
3682.44	9.79451e-07
3691.12	3.60003e-07
3699.8	4.77255e-07
3708.47	2.02595e-07
3717.15	8.14485e-08
3725.83	1.35424e-07
3734.51	3.42459e-08
3743.19	3.95366e-07
3751.87	4.39321e-07
3760.54	8.47766e-07
3769.22	5.94141e-07
3777.9	3.51843e-07
3786.58	3.43435e-07
3795.26	3.69423e-07
3803.93	4.95037e-07
3812.61	6.17808e-07
3821.29	6.17666e-07
3829.97	1.1831e-06
3838.65	1.09192e-06
3847.33	1.56246e-06
3856	1.61828e-06
3864.68	1.59209e-06
3873.36	1.70616e-06
3882.04	1.94814e-06
3890.72	1.94079e-06
3899.39	1.87699e-06
3908.07	2.02138e-06
3916.75	2.14255e-06
3925.43	2.31631e-06
3934.11	2.38324e-06
3942.79	2.20427e-06
3951.46	1.95787e-06
3960.14	2.05919e-06
3968.82	2.07685e-06
