Infrared Spectrum: 1,3-Butadiene
Formula: C H2: C H C H: C H2
CAS: 106-99-0
State: gas
Melting point: -108.91 C
Boiling point: -4.41 C
Class: IUPAC A
Instrument: IFS66V (Bruker)
Instrument parameters: KBr Beam splitter; MCT Detector; Multipass cell
Sampling: 1 L/min Flow
Resolution: 0.1250
Temperature: 23 C
Pressure: 101.3 kPa
Origin: NIST, Anayltical Chemistry Division, 301-975-3108
cm-1	(micromol/mol)-1m-1 (base 10)
574.988	6.04346e-06
583.546	3.09296e-06
592.103	2.71238e-06
600.661	1.20088e-06
609.219	6.35048e-07
617.776	6.70883e-07
626.334	9.38783e-07
634.891	1.21169e-06
643.449	1.52512e-06
652.007	2.34656e-06
660.564	2.72419e-06
669.122	2.99562e-06
677.68	2.78695e-06
686.237	2.2591e-06
694.795	1.73299e-06
703.352	1.18274e-06
711.91	8.18188e-07
720.468	7.46453e-07
729.025	6.05569e-07
737.583	9.49193e-07
746.141	8.77856e-07
754.698	1.10393e-06
763.256	1.09712e-06
771.813	7.77832e-07
780.371	5.31755e-07
788.929	4.68144e-07
797.486	5.36468e-07
806.044	7.68543e-07
814.602	1.06507e-06
823.159	1.64465e-06
831.717	3.09353e-06
840.274	6.04308e-06
848.832	1.50696e-05
857.39	2.51589e-05
865.947	3.7976e-05
874.505	6.12494e-05
883.063	9.05385e-05
891.62	0.000136762
900.178	0.00013531
908.735	0.000503478
917.293	0.00014496
925.851	0.000139916
934.408	0.000115023
942.966	8.55905e-05
951.524	4.95184e-05
960.081	3.03586e-05
968.639	2.75678e-05
977.196	3.2839e-05
985.754	6.43813e-05
994.312	8.95686e-05
1002.87	8.12054e-05
1011.43	0.000122269
1019.98	6.83486e-05
1028.54	7.45851e-05
1037.1	6.00701e-05
1045.66	4.80928e-05
1054.22	3.0625e-05
1062.77	2.17172e-05
1071.33	1.24582e-05
1079.89	8.88884e-06
1088.45	4.17192e-06
1097	1.5093e-06
1105.56	4.45208e-07
1114.12	2.28755e-07
1122.68	2.85785e-07
1131.23	3.30567e-07
1139.79	2.34137e-07
1148.35	1.6924e-07
1156.91	1.46479e-07
1165.46	2.43456e-07
1174.02	1.57988e-07
1182.58	2.14087e-07
1191.14	1.03214e-07
1199.69	1.88404e-07
1208.25	3.98791e-07
1216.81	5.25998e-07
1225.37	7.98409e-07
1233.93	1.39125e-06
1242.48	2.25968e-06
1251.04	3.50056e-06
1259.6	5.30155e-06
1268.16	5.09361e-06
1276.71	6.71544e-06
1285.27	7.45281e-06
1293.83	3.97676e-06
1302.39	6.72794e-06
1310.94	5.79953e-06
1319.5	4.06921e-06
1328.06	2.89286e-06
1336.62	2.98682e-06
1345.17	2.67956e-06
1353.73	4.14801e-06
1362.29	9.349e-06
1370.85	2.08953e-05
1379.4	7.73712e-06
1387.96	1.97361e-05
1396.52	1.23544e-05
1405.08	5.89976e-06
1413.64	5.73849e-06
1422.19	5.59273e-06
1430.75	4.1293e-06
1439.31	5.16167e-06
1447.87	5.62526e-06
1456.42	4.96999e-06
1464.98	5.34763e-06
1473.54	8.29934e-06
1482.1	5.69141e-06
1490.65	5.86684e-06
1499.21	5.50227e-06
1507.77	3.2104e-06
1516.33	2.53609e-06
1524.88	1.4763e-06
1533.44	1.1644e-06
1542	3.53981e-06
1550.56	1.30002e-06
1559.11	3.42579e-06
1567.67	9.1323e-06
1576.23	3.7888e-05
1584.79	9.43774e-05
1593.35	6.37037e-05
1601.9	0.000100304
1610.46	6.72109e-05
1619.02	8.2096e-06
1627.58	3.08881e-06
1636.13	3.30764e-06
1644.69	3.63351e-06
1653.25	9.47379e-06
1661.81	1.82181e-06
1670.36	1.58048e-06
1678.92	9.1626e-07
1687.48	6.45812e-07
1696.04	5.7291e-06
1704.59	1.31626e-06
1713.15	7.36829e-07
1721.71	1.10666e-06
1730.27	2.11014e-06
1738.83	2.62492e-06
1747.38	4.0044e-06
1755.94	5.18496e-06
1764.5	3.78394e-06
1773.06	4.14291e-06
1781.61	2.99147e-06
1790.17	4.14453e-06
1798.73	1.04825e-05
1807.29	4.37086e-05
1815.84	4.12459e-05
1824.4	4.57934e-05
1832.96	4.50203e-05
1841.52	7.70237e-06
1850.07	1.68622e-06
1858.63	1.92986e-06
1867.19	2.054e-06
1875.75	1.94256e-06
1884.3	2.35367e-06
1892.86	1.24649e-06
1901.42	1.02041e-06
1909.98	1.64985e-06
1918.54	1.28779e-06
1927.09	1.35196e-06
1935.65	1.27807e-06
1944.21	1.49216e-06
1952.77	2.41442e-06
1961.32	3.58885e-06
1969.88	2.84764e-06
1978.44	3.24154e-06
1987	1.75614e-06
1995.55	7.59224e-07
2004.11	5.16618e-07
2012.67	2.66692e-07
2021.23	7.2832e-08
2029.78	5.87021e-08
2038.34	-4.12126e-08
2046.9	-3.76784e-08
2055.46	-7.95003e-08
2064.01	-3.06989e-08
2072.57	4.61039e-08
2081.13	6.69257e-08
2089.69	1.47608e-07
2098.25	3.43485e-07
2106.8	2.30141e-07
2115.36	3.49333e-07
2123.92	3.01936e-07
2132.48	1.54646e-07
2141.03	1.25986e-07
2149.59	2.27e-07
2158.15	3.48904e-07
2166.71	4.05691e-07
2175.26	3.50097e-07
2183.82	3.37328e-07
2192.38	4.17179e-07
2200.94	4.93924e-07
2209.49	5.03694e-07
2218.05	4.3052e-07
2226.61	3.48795e-07
2235.17	4.95961e-07
2243.72	7.22874e-07
2252.28	9.80792e-07
2260.84	1.08401e-06
2269.4	1.08188e-06
2277.96	9.95721e-07
2286.51	7.10172e-07
2295.07	5.4344e-07
2303.63	5.39864e-07
2312.19	4.30103e-07
2320.74	5.13091e-07
2329.3	4.87012e-07
2337.86	1.0636e-06
2346.42	4.41692e-07
2354.97	3.23311e-07
2363.53	3.25306e-07
2372.09	2.55508e-07
2380.65	1.93519e-07
2389.2	2.06942e-07
2397.76	2.07356e-07
2406.32	3.04472e-07
2414.88	3.67707e-07
2423.44	3.27787e-07
2431.99	3.9304e-07
2440.55	4.21569e-07
2449.11	3.90666e-07
2457.67	5.13453e-07
2466.22	7.53156e-07
2474.78	9.77292e-07
2483.34	1.83352e-06
2491.9	1.12462e-06
2500.45	1.55878e-06
2509.01	1.05823e-06
2517.57	4.69859e-07
2526.13	3.02567e-07
2534.68	2.04761e-07
2543.24	2.28122e-07
2551.8	2.08082e-07
2560.36	3.08153e-07
2568.91	4.63703e-07
2577.47	4.63118e-07
2586.03	4.39828e-07
2594.59	4.67616e-07
2603.15	1.7655e-07
2611.7	1.28222e-07
2620.26	1.32173e-07
2628.82	1.75164e-07
2637.38	1.93356e-07
2645.93	1.99942e-07
2654.49	1.97403e-07
2663.05	1.64239e-07
2671.61	1.12186e-07
2680.16	5.15572e-08
2688.72	1.37224e-07
2697.28	1.53216e-07
2705.84	1.78051e-07
2714.39	3.46825e-07
2722.95	4.15251e-07
2731.51	2.32036e-07
2740.07	3.36295e-07
2748.62	2.43532e-07
2757.18	8.75893e-08
2765.74	2.2063e-07
2774.3	1.68719e-07
2782.86	3.37503e-07
2791.41	3.46763e-07
2799.97	4.20348e-07
2808.53	5.77193e-07
2817.09	3.27651e-07
2825.64	4.54523e-07
2834.2	6.18706e-07
2842.76	1.19298e-06
2851.32	1.80169e-06
2859.87	2.08505e-06
2868.43	2.49649e-06
2876.99	2.96929e-06
2885.55	3.44161e-06
2894.1	4.532e-06
2902.66	4.97193e-06
2911.22	6.22217e-06
2919.78	7.89358e-06
2928.34	9.4335e-06
2936.89	1.11714e-05
2945.45	1.33933e-05
2954.01	1.58384e-05
2962.57	2.28907e-05
2971.12	3.75301e-05
2979.68	4.08622e-05
2988.24	4.68379e-05
2996.8	5.83908e-05
3005.35	5.31618e-05
3013.91	4.56474e-05
3022.47	5.29761e-05
3031.03	4.41147e-05
3039.58	5.30539e-05
3048.14	5.46398e-05
3056.7	4.50475e-05
3065.26	7.09807e-05
3073.81	6.19369e-05
3082.37	7.21173e-05
3090.93	9.28362e-05
3099.49	5.61599e-05
3108.05	9.27919e-05
3116.6	6.22389e-05
3125.16	3.11811e-05
3133.72	2.15054e-05
3142.28	1.33414e-05
3150.83	7.29942e-06
3159.39	3.86394e-06
3167.95	1.8329e-06
3176.51	7.99793e-07
3185.06	3.561e-07
3193.62	3.61264e-07
3202.18	1.3206e-07
3210.74	9.09963e-08
3219.29	4.27702e-07
3227.85	6.39855e-07
3236.41	8.90838e-07
3244.97	8.95899e-07
3253.52	4.43144e-07
3262.08	2.43727e-07
3270.64	2.30936e-07
3279.2	2.43536e-07
3287.76	2.03482e-07
3296.31	2.31402e-07
3304.87	-4.14964e-08
3313.43	2.38181e-07
3321.99	2.0405e-07
3330.54	2.22376e-07
3339.1	1.70247e-07
3347.66	1.6047e-08
3356.22	7.23135e-08
3364.77	3.17954e-07
3373.33	2.7481e-07
3381.89	2.53591e-07
3390.45	5.51347e-07
3399	4.14062e-07
3407.56	6.79027e-07
3416.12	3.08826e-07
3424.68	2.28562e-07
3433.23	2.07087e-07
3441.79	2.5332e-07
3450.35	3.45677e-07
3458.91	3.70352e-07
3467.47	3.04999e-07
3476.02	1.7221e-07
3484.58	1.7754e-07
3493.14	1.69287e-07
3501.7	1.43443e-07
3510.25	2.96827e-07
3518.81	2.53488e-07
3527.37	4.09201e-07
3535.93	2.3096e-07
3544.48	2.18094e-07
3553.04	2.98125e-07
3561.6	2.21994e-07
3570.16	2.47398e-07
3578.71	3.14009e-07
3587.27	4.52699e-07
3595.83	5.06446e-07
3604.39	5.02182e-07
3612.95	6.42198e-07
3621.5	7.27912e-07
3630.06	6.74274e-07
3638.62	2.16486e-07
3647.18	1.33429e-06
3655.73	1.29719e-07
3664.29	1.16287e-07
3672.85	5.78563e-08
3681.41	6.32277e-09
3689.96	1.94293e-07
3698.52	1.88084e-07
3707.08	-1.52612e-09
3715.64	6.49903e-08
3724.19	9.17403e-08
3732.75	3.4953e-07
3741.31	6.26717e-07
3749.87	7.19383e-07
3758.42	7.54458e-08
3766.98	-5.62974e-09
3775.54	5.69213e-08
3784.1	7.77887e-08
3792.66	-1.70893e-08
3801.21	1.76735e-06
3809.77	2.26037e-07
3818.33	1.70136e-07
3826.89	7.52159e-07
3835.44	3.35494e-07
3844	5.51547e-07
3852.56	7.53751e-07
3861.12	3.08306e-07
3869.67	6.46042e-07
3878.23	3.44966e-07
3886.79	4.80243e-07
3895.35	4.65157e-07
3903.9	8.22845e-07
3912.46	4.27413e-07
3921.02	2.91419e-07
3929.58	4.32548e-07
3938.13	4.516e-07
3946.69	5.20763e-07
3955.25	6.01424e-07
3963.81	8.10572e-07
3972.37	1.38121e-06
