Infrared Spectrum: Butane
Formula: C4 H10
CAS: 106-97-8
State: gas
Melting point: -138.35 C
Boiling point: -0.5 C
Class: IUPAC A
Instrument: IFS66V (Bruker)
Instrument parameters: KBr Beam Splitter; MCT Detector; Multipass cell
Sampling: 1 L/min Flow
Resolution: 0.9640
Temperature: 23 C
Pressure: 101.3 Pa
Origin: NIST, Analytical Chemistry Division, 301-975-3108
cm-1	(micromol/mol)-1m-1 (base 10)
575.17	-3.87224e-07
583.848	1.93212e-08
592.526	1.71703e-07
601.205	-6.57652e-08
609.883	-1.47335e-07
618.561	-3.50581e-08
627.239	2.94129e-09
635.917	-1.1628e-07
644.595	-4.74881e-08
653.274	-1.13653e-07
661.952	-3.64514e-08
670.63	-2.00333e-08
679.308	1.13406e-07
687.986	4.39459e-07
696.664	1.05066e-06
705.343	2.33132e-06
714.021	3.94209e-06
722.699	5.28291e-06
731.377	9.888e-06
740.055	8.84877e-06
748.734	1.04324e-05
757.412	7.92111e-06
766.09	5.67966e-06
774.768	3.45632e-06
783.446	2.7116e-06
792.124	1.92363e-06
800.803	1.62117e-06
809.481	8.38508e-07
818.159	3.74263e-07
826.837	1.18465e-07
835.515	4.29461e-08
844.194	3.937e-08
852.872	-3.95173e-09
861.55	-3.3632e-08
870.228	4.51298e-08
878.906	-1.80416e-08
887.584	-6.69476e-09
896.263	-1.14277e-08
904.941	1.70975e-08
913.619	2.83666e-07
922.297	7.36218e-07
930.975	1.98448e-06
939.653	5.1609e-06
948.332	1.10458e-05
957.01	1.87681e-05
965.688	1.91535e-05
974.366	1.68011e-05
983.044	1.0694e-05
991.723	7.16537e-06
1000.4	3.68142e-06
1009.08	1.87657e-06
1017.76	9.94267e-07
1026.44	5.44637e-07
1035.11	3.81733e-07
1043.79	1.47458e-07
1052.47	7.1264e-08
1061.15	1.08973e-07
1069.83	1.78389e-07
1078.5	1.35516e-07
1087.18	2.61357e-07
1095.86	2.06343e-07
1104.54	3.28864e-07
1113.22	8.38801e-07
1121.9	2.25095e-06
1130.57	2.81668e-06
1139.25	1.93825e-06
1147.93	2.12658e-06
1156.61	5.51345e-07
1165.29	1.70868e-07
1173.96	2.05665e-07
1182.64	2.14985e-07
1191.32	2.0278e-07
1200	1.9135e-07
1208.68	2.58422e-07
1217.36	3.34492e-07
1226.03	4.86521e-07
1234.71	6.92292e-07
1243.39	1.05198e-06
1252.07	1.50572e-06
1260.75	1.7523e-06
1269.42	2.33712e-06
1278.1	4.82072e-06
1286.78	8.14713e-06
1295.46	8.165e-06
1304.14	7.80358e-06
1312.82	2.94032e-06
1321.49	1.88745e-06
1330.17	3.90943e-06
1338.85	3.88842e-06
1347.53	4.03766e-06
1356.21	6.67337e-06
1364.88	1.02567e-05
1373.56	2.44857e-05
1382.24	2.98904e-05
1390.92	3.6703e-05
1399.6	2.49526e-05
1408.28	9.86653e-06
1416.95	8.1154e-06
1425.63	1.06795e-05
1434.31	1.92167e-05
1442.99	3.64652e-05
1451.67	5.20474e-05
1460.34	6.89233e-05
1469.02	7.06613e-05
1477.7	5.71095e-05
1486.38	4.91659e-05
1495.06	2.97477e-05
1503.73	1.64077e-05
1512.41	8.48933e-06
1521.09	4.28098e-06
1529.77	1.92787e-06
1538.45	1.20012e-06
1547.13	9.35018e-07
1555.8	1.02835e-06
1564.48	1.27487e-06
1573.16	1.59666e-06
1581.84	1.54361e-06
1590.52	1.41696e-06
1599.19	1.12514e-06
1607.87	8.99305e-07
1616.55	1.16197e-06
1625.23	8.50417e-07
1633.91	1.11679e-06
1642.59	1.00727e-06
1651.26	1.15759e-06
1659.94	1.30959e-06
1668.62	1.46927e-06
1677.3	1.30548e-06
1685.98	1.36511e-06
1694.65	1.19303e-06
1703.33	1.12462e-06
1712.01	1.09887e-06
1720.69	1.0243e-06
1729.37	8.26436e-07
1738.05	5.70459e-07
1746.72	3.80771e-07
1755.4	2.72739e-07
1764.08	2.64299e-07
1772.76	4.0087e-07
1781.44	3.24371e-07
1790.11	3.50904e-07
1798.79	3.92943e-07
1807.47	3.89781e-07
1816.15	3.68562e-07
1824.83	3.18401e-07
1833.51	1.62571e-07
1842.18	6.53459e-08
1850.86	1.68428e-08
1859.54	1.20335e-08
1868.22	3.53419e-08
1876.9	8.56221e-08
1885.57	2.25158e-07
1894.25	3.67192e-07
1902.93	4.82912e-07
1911.61	4.44698e-07
1920.29	4.96702e-07
1928.97	3.81993e-07
1937.64	3.28257e-07
1946.32	1.9622e-07
1955	9.30135e-08
1963.68	9.00395e-11
1972.36	-4.55409e-08
1981.03	-3.09272e-08
1989.71	-4.10898e-08
1998.39	-2.06318e-08
2007.07	2.17204e-08
2015.75	1.21069e-07
2024.43	4.31504e-07
2033.1	6.19722e-07
2041.78	6.37822e-07
2050.46	5.98525e-07
2059.14	2.47066e-07
2067.82	1.49502e-07
2076.49	1.64793e-07
2085.17	1.99954e-07
2093.85	2.72284e-07
2102.53	3.58184e-07
2111.21	5.02651e-07
2119.89	6.31367e-07
2128.56	6.12573e-07
2137.24	6.10924e-07
2145.92	6.75032e-07
2154.6	6.63798e-07
2163.28	6.74065e-07
2171.95	6.92992e-07
2180.63	6.39424e-07
2189.31	6.62583e-07
2197.99	6.75737e-07
2206.67	7.2297e-07
2215.35	6.91996e-07
2224.02	6.58062e-07
2232.7	5.43999e-07
2241.38	4.19243e-07
2250.06	4.73338e-07
2258.74	5.27079e-07
2267.41	5.82897e-07
2276.09	6.43417e-07
2284.77	7.94837e-07
2293.45	8.16669e-07
2302.13	9.80156e-07
2310.81	8.86113e-07
2319.48	7.48729e-07
2328.16	7.74384e-07
2336.84	1.09471e-06
2345.52	1.00782e-06
2354.2	8.30207e-07
2362.87	4.08276e-07
2371.55	9.51081e-07
2380.23	1.6097e-06
2388.91	1.46829e-06
2397.59	1.70603e-06
2406.27	1.12551e-06
2414.94	1.48003e-06
2423.62	1.60591e-06
2432.3	1.93392e-06
2440.98	1.77971e-06
2449.66	1.62071e-06
2458.33	9.75303e-07
2467.01	5.76736e-07
2475.69	3.81167e-07
2484.37	2.63217e-07
2493.05	2.12546e-07
2501.73	2.10266e-07
2510.4	3.80691e-07
2519.08	5.51545e-07
2527.76	7.63211e-07
2536.44	7.08675e-07
2545.12	7.236e-07
2553.79	6.0451e-07
2562.47	7.32913e-07
2571.15	1.0766e-06
2579.83	1.66712e-06
2588.51	2.45477e-06
2597.19	3.3792e-06
2605.86	3.64961e-06
2614.54	4.16455e-06
2623.22	4.21258e-06
2631.9	4.51887e-06
2640.58	4.40494e-06
2649.25	4.74492e-06
2657.93	4.76458e-06
2666.61	4.29488e-06
2675.29	3.7149e-06
2683.97	4.1887e-06
2692.65	3.2597e-06
2701.32	3.12553e-06
2710	3.90821e-06
2718.68	4.97318e-06
2727.36	7.62721e-06
2736.04	1.01952e-05
2744.71	9.44447e-06
2753.39	1.09071e-05
2762.07	7.20859e-06
2770.75	6.00293e-06
2779.43	6.2989e-06
2788.11	6.76904e-06
2796.78	7.96783e-06
2805.46	1.01813e-05
2814.14	1.40024e-05
2822.82	2.03685e-05
2831.5	2.94672e-05
2840.17	4.49748e-05
2848.85	6.86994e-05
2857.53	0.000113721
2866.21	0.000166902
2874.89	0.000248513
2883.57	0.000258297
2892.24	0.000269368
2900.92	0.000249484
2909.6	0.00023274
2918.28	0.000274214
2926.96	0.000357378
2935.63	0.000424042
2944.31	0.000472458
2952.99	0.000535192
2961.67	0.000649394
2970.35	0.000621523
2979.03	0.000568768
2987.7	0.000382708
2996.38	0.00016692
3005.06	7.08727e-05
3013.74	2.85027e-05
3022.42	1.32728e-05
3031.09	8.5827e-06
3039.77	7.14359e-06
3048.45	6.59808e-06
3057.13	6.5334e-06
3065.81	7.11894e-06
3074.49	7.84564e-06
3083.16	7.82994e-06
3091.84	7.3435e-06
3100.52	5.83883e-06
3109.2	4.63387e-06
3117.88	4.03579e-06
3126.55	4.02197e-06
3135.23	4.38181e-06
3143.91	4.94188e-06
3152.59	5.59634e-06
3161.27	6.54153e-06
3169.95	7.26945e-06
3178.62	7.08034e-06
3187.3	7.03063e-06
3195.98	5.51219e-06
3204.66	4.59146e-06
3213.34	4.11965e-06
3222.01	4.13905e-06
3230.69	3.36409e-06
3239.37	2.87087e-06
3248.05	1.86979e-06
3256.73	1.02791e-06
3265.41	6.85447e-07
3274.08	7.27812e-07
3282.76	6.88969e-07
3291.44	7.1289e-07
3300.12	6.89588e-07
3308.8	5.16006e-07
3317.47	3.88588e-07
3326.15	4.41534e-07
3334.83	4.97255e-07
3343.51	6.84342e-07
3352.19	7.08046e-07
3360.86	7.3067e-07
3369.54	7.7669e-07
3378.22	9.02332e-07
3386.9	1.11503e-06
3395.58	1.21586e-06
3404.26	1.10647e-06
3412.93	8.57094e-07
3421.61	3.62553e-07
3430.29	2.26215e-07
3438.97	1.87012e-07
3447.65	1.17346e-07
3456.32	4.88114e-08
3465	1.06051e-07
3473.68	1.17696e-07
3482.36	1.27351e-07
3491.04	7.78432e-08
3499.72	9.95928e-08
3508.39	7.39488e-08
3517.07	3.13465e-08
3525.75	-3.90744e-08
3534.43	-3.96419e-08
3543.11	-2.90991e-08
3551.78	1.55341e-09
3560.46	2.73102e-08
3569.14	1.5365e-07
3577.82	2.20815e-07
3586.5	2.86195e-07
3595.18	3.41114e-07
3603.85	4.03946e-07
3612.53	5.99921e-07
3621.21	6.66477e-07
3629.89	8.14935e-07
3638.57	8.07024e-07
3647.24	8.52581e-07
3655.92	8.13101e-07
3664.6	7.91943e-07
3673.28	8.4196e-07
3681.96	9.47658e-07
3690.64	1.01299e-06
3699.31	9.7536e-07
3707.99	1.01026e-06
3716.67	1.25523e-06
3725.35	1.18711e-06
3734.03	1.29243e-06
3742.7	9.64899e-07
3751.38	7.09449e-07
3760.06	6.72587e-07
3768.74	5.74133e-07
3777.42	5.46715e-07
3786.1	5.08608e-07
3794.77	4.77885e-07
3803.45	4.81677e-07
3812.13	5.16269e-07
3820.81	7.08515e-07
3829.49	7.91735e-07
3838.16	1.45389e-06
3846.84	1.59904e-06
3855.52	1.85432e-06
3864.2	1.6387e-06
3872.88	1.37145e-06
3881.56	1.22826e-06
3890.23	1.05582e-06
3898.91	9.9058e-07
3907.59	8.55595e-07
3916.27	7.51883e-07
3924.95	6.69184e-07
3933.62	6.41733e-07
3942.3	5.71694e-07
3950.98	4.86081e-07
3959.66	4.58094e-07
3968.34	4.90617e-07
