Infrared Spectrum: 1,3-Butadiene
Formula: C H2: C H C H: C H2
CAS: 106-99-0
State: gas
Melting point: -108.91 C
Boiling point: -4.41 C
Class: IUPAC A
Instrument: IFS66V (Bruker)
Instrument parameters: KBr Beam splitter; MCT Detector; Multipass cell
Sampling: 1 L/min Flow
Resolution: 0.4820
Temperature: 23 C
Pressure: 101.3 kPa
Origin: NIST, Anayltical Chemistry Division, 301-975-3108
cm-1	(micromol/mol)-1m-1 (base 10)
574.928	5.43793e-06
583.606	3.1666e-06
592.284	2.07396e-06
600.962	1.7472e-06
609.641	9.41993e-07
618.319	5.27435e-07
626.997	7.58858e-07
635.675	1.17767e-06
644.353	1.78349e-06
653.031	2.35323e-06
661.71	2.66122e-06
670.388	3.24467e-06
679.066	2.70201e-06
687.744	2.33559e-06
696.422	1.62789e-06
705.1	1.21618e-06
713.778	7.11187e-07
722.457	6.71882e-07
731.135	8.61989e-07
739.813	1.05774e-06
748.491	9.74708e-07
757.169	1.09e-06
765.847	9.30441e-07
774.526	6.83444e-07
783.204	6.04418e-07
791.882	5.9614e-07
800.56	5.77297e-07
809.238	8.21639e-07
817.916	1.16067e-06
826.594	2.14823e-06
835.273	4.52265e-06
843.951	8.32489e-06
852.629	1.62516e-05
861.307	3.30013e-05
869.985	5.13149e-05
878.663	7.49793e-05
887.342	9.97524e-05
896.02	0.00011073
904.698	0.000138089
913.376	0.00013354
922.054	0.000145853
930.732	0.000144801
939.41	0.000111914
948.089	6.16498e-05
956.767	3.56164e-05
965.445	2.60048e-05
974.123	2.88979e-05
982.801	5.14261e-05
991.479	6.64592e-05
1000.16	9.59748e-05
1008.84	9.22281e-05
1017.51	7.13385e-05
1026.19	7.03601e-05
1034.87	6.6175e-05
1043.55	5.2605e-05
1052.23	3.59273e-05
1060.9	2.16927e-05
1069.58	1.39866e-05
1078.26	9.75478e-06
1086.94	4.88281e-06
1095.62	1.91342e-06
1104.3	6.67859e-07
1112.97	3.49524e-07
1121.65	2.87914e-07
1130.33	2.76887e-07
1139.01	2.47965e-07
1147.69	2.83857e-07
1156.36	2.37519e-07
1165.04	1.72423e-07
1173.72	2.39843e-07
1182.4	2.29788e-07
1191.08	1.86122e-07
1199.76	1.94311e-07
1208.43	3.48955e-07
1217.11	4.92192e-07
1225.79	8.88877e-07
1234.47	1.39488e-06
1243.15	2.40363e-06
1251.82	3.88973e-06
1260.5	5.78713e-06
1269.18	4.83437e-06
1277.86	8.12609e-06
1286.54	6.96021e-06
1295.21	4.05964e-06
1303.89	6.21367e-06
1312.57	4.33637e-06
1321.25	3.01891e-06
1329.93	2.8559e-06
1338.61	2.84452e-06
1347.28	3.02168e-06
1355.96	4.61567e-06
1364.64	1.29619e-05
1373.32	2.06351e-05
1382	8.48247e-06
1390.67	1.87327e-05
1399.35	8.49619e-06
1408.03	5.04569e-06
1416.71	5.74232e-06
1425.39	5.04978e-06
1434.07	4.46789e-06
1442.74	5.32707e-06
1451.42	3.75584e-06
1460.1	3.21143e-06
1468.78	4.0619e-06
1477.46	6.00463e-06
1486.13	5.19227e-06
1494.81	5.48318e-06
1503.49	3.68784e-06
1512.17	3.15013e-06
1520.85	2.37601e-06
1529.52	8.99969e-07
1538.2	1.25456e-06
1546.88	1.01897e-06
1555.56	2.12533e-06
1564.24	6.07173e-06
1572.92	1.96493e-05
1581.59	6.83379e-05
1590.27	0.000100066
1598.95	6.0395e-05
1607.63	0.000100195
1616.31	1.79353e-05
1624.98	3.61613e-06
1633.66	3.24e-06
1642.34	3.22919e-06
1651.02	2.92914e-06
1659.7	1.63059e-06
1668.38	2.12221e-06
1677.05	1.068e-06
1685.73	9.35549e-07
1694.41	6.61534e-07
1703.09	6.31768e-07
1711.77	7.01919e-07
1720.44	1.10458e-06
1729.12	1.68426e-06
1737.8	2.43866e-06
1746.48	3.68477e-06
1755.16	5.20501e-06
1763.84	3.83201e-06
1772.51	5.12821e-06
1781.19	3.01967e-06
1789.87	4.4563e-06
1798.55	1.03401e-05
1807.23	4.3163e-05
1815.9	4.11397e-05
1824.58	4.71641e-05
1833.26	4.29741e-05
1841.94	7.27755e-06
1850.62	1.70037e-06
1859.29	1.94507e-06
1867.97	2.29214e-06
1876.65	2.08967e-06
1885.33	2.26796e-06
1894.01	1.26208e-06
1902.69	1.28082e-06
1911.36	1.45119e-06
1920.04	1.19233e-06
1928.72	1.31525e-06
1937.4	1.31472e-06
1946.08	1.76189e-06
1954.75	2.72559e-06
1963.43	3.67436e-06
1972.11	2.4878e-06
1980.79	2.92422e-06
1989.47	1.39189e-06
1998.15	6.93859e-07
2006.82	4.888e-07
2015.5	2.07211e-07
2024.18	5.48277e-08
2032.86	1.12067e-08
2041.54	2.19987e-08
2050.21	-1.65163e-08
2058.89	-1.62853e-08
2067.57	-1.00717e-08
2076.25	3.9028e-08
2084.93	8.56376e-08
2093.6	2.22298e-07
2102.28	2.8072e-07
2110.96	2.69235e-07
2119.64	5.76535e-07
2128.32	2.11744e-07
2137	1.88234e-07
2145.67	1.82036e-07
2154.35	3.21261e-07
2163.03	3.33055e-07
2171.71	3.75503e-07
2180.39	4.51955e-07
2189.06	4.6456e-07
2197.74	4.1599e-07
2206.42	4.511e-07
2215.1	4.19877e-07
2223.78	3.91035e-07
2232.46	4.30116e-07
2241.13	6.54564e-07
2249.81	8.36478e-07
2258.49	1.22702e-06
2267.17	9.55008e-07
2275.85	1.19032e-06
2284.52	7.75615e-07
2293.2	5.97853e-07
2301.88	5.89732e-07
2310.56	4.96638e-07
2319.24	1.00189e-06
2327.92	4.54298e-07
2336.59	4.82781e-07
2345.27	4.90019e-07
2353.95	4.25509e-07
2362.63	1.50699e-06
2371.31	8.71155e-07
2379.98	2.10927e-07
2388.66	1.37591e-07
2397.34	1.82618e-07
2406.02	3.01412e-07
2414.7	3.68835e-07
2423.37	3.51512e-07
2432.05	4.29478e-07
2440.73	4.26527e-07
2449.41	4.43073e-07
2458.09	5.49274e-07
2466.77	6.46891e-07
2475.44	1.04052e-06
2484.12	1.62863e-06
2492.8	1.16393e-06
2501.48	1.65807e-06
2510.16	9.58804e-07
2518.83	4.24916e-07
2527.51	2.93078e-07
2536.19	2.18845e-07
2544.87	2.19866e-07
2553.55	2.86853e-07
2562.23	3.6283e-07
2570.9	5.32628e-07
2579.58	4.34321e-07
2588.26	4.86004e-07
2596.94	3.89287e-07
2605.62	1.32616e-07
2614.29	1.30659e-07
2622.97	1.68223e-07
2631.65	1.27991e-07
2640.33	1.73094e-07
2649.01	1.43281e-07
2657.68	1.53844e-07
2666.36	6.76442e-08
2675.04	8.56248e-08
2683.72	9.46597e-08
2692.4	1.54788e-07
2701.08	2.42483e-07
2709.75	2.38968e-07
2718.43	4.39918e-07
2727.11	3.28511e-07
2735.79	2.77143e-07
2744.47	2.73247e-07
2753.14	1.88384e-07
2761.82	1.90947e-07
2770.5	2.12502e-07
2779.18	2.02742e-07
2787.86	3.95133e-07
2796.54	3.91372e-07
2805.21	5.04316e-07
2813.89	3.60706e-07
2822.57	4.13967e-07
2831.25	4.85553e-07
2839.93	1.00029e-06
2848.6	1.67682e-06
2857.28	2.02493e-06
2865.96	2.44685e-06
2874.64	2.65832e-06
2883.32	3.3665e-06
2892	4.8246e-06
2900.67	5.37459e-06
2909.35	6.08255e-06
2918.03	8.01041e-06
2926.71	8.43884e-06
2935.39	1.13711e-05
2944.06	1.22095e-05
2952.74	1.66308e-05
2961.42	2.01102e-05
2970.1	3.68656e-05
2978.78	4.24323e-05
2987.45	4.42862e-05
2996.13	5.48779e-05
3004.81	5.70915e-05
3013.49	4.36553e-05
3022.17	5.36584e-05
3030.85	4.30623e-05
3039.52	5.29413e-05
3048.2	5.49143e-05
3056.88	4.73048e-05
3065.56	6.66508e-05
3074.24	6.17252e-05
3082.91	7.26514e-05
3091.59	9.49724e-05
3100.27	6.47061e-05
3108.95	9.55699e-05
3117.63	4.86666e-05
3126.31	3.31911e-05
3134.98	2.14251e-05
3143.66	1.20485e-05
3152.34	6.90106e-06
3161.02	3.12308e-06
3169.7	1.51191e-06
3178.37	6.49379e-07
3187.05	4.32957e-07
3195.73	3.19475e-07
3204.41	2.8136e-08
3213.09	1.31339e-07
3221.77	6.00147e-07
3230.44	5.66927e-07
3239.12	9.65193e-07
3247.8	6.45905e-07
3256.48	3.18733e-07
3265.16	3.35866e-07
3273.83	2.42455e-07
3282.51	8.29819e-08
3291.19	9.97074e-08
3299.87	2.25643e-07
3308.55	2.24539e-07
3317.22	2.35967e-07
3325.9	2.27267e-07
3334.58	1.34797e-07
3343.26	1.65174e-07
3351.94	6.53687e-08
3360.62	9.33009e-08
3369.29	9.51472e-08
3377.97	2.74953e-07
3386.65	4.99383e-07
3395.33	5.81753e-07
3404.01	6.82132e-07
3412.68	5.47289e-07
3421.36	2.46354e-07
3430.04	1.2625e-07
3438.72	2.67745e-07
3447.4	4.44599e-07
3456.08	1.86398e-07
3464.75	3.18676e-07
3473.43	1.34725e-07
3482.11	2.67243e-07
3490.79	1.74255e-07
3499.47	2.26008e-07
3508.14	1.78204e-07
3516.82	2.95708e-07
3525.5	2.88048e-07
3534.18	3.54526e-07
3542.86	2.41699e-07
3551.53	3.11968e-07
3560.21	3.72533e-07
3568.89	3.22582e-07
3577.57	3.20928e-07
3586.25	6.66876e-07
3594.93	5.43217e-07
3603.6	5.12061e-07
3612.28	8.4759e-07
3620.96	7.66909e-07
3629.64	2.46572e-06
3638.32	1.74422e-07
3646.99	8.03023e-07
3655.67	1.97654e-07
3664.35	5.39455e-08
3673.03	8.06281e-08
3681.71	5.51351e-08
3690.39	2.88328e-07
3699.06	1.10861e-07
3707.74	7.72466e-08
3716.42	8.51974e-08
3725.1	2.93783e-07
3733.78	1.54137e-07
3742.45	1.58653e-07
3751.13	3.21568e-07
3759.81	9.66102e-07
3768.49	8.55484e-08
3777.17	7.0078e-08
3785.85	8.04753e-08
3794.52	7.33267e-08
3803.2	3.97273e-07
3811.88	1.46641e-07
3820.56	1.21581e-06
3829.24	2.26021e-07
3837.91	3.97282e-06
3846.59	3.00219e-07
3855.27	4.52031e-07
3863.95	5.03248e-07
3872.63	3.88394e-07
3881.3	5.50967e-07
3889.98	5.04474e-07
3898.66	4.99597e-07
3907.34	3.95339e-07
3916.02	3.96358e-07
3924.7	5.16365e-07
3933.37	3.89056e-07
3942.05	4.38039e-07
3950.73	5.07479e-07
3959.41	5.74257e-07
3968.09	9.75494e-07
