Infrared Spectrum: 1,3-Butadiene
Formula: C H2: C H C H: C H2
CAS: 106-99-0
State: gas
Melting point: -108.91 C
Boiling point: -4.41 C
Class: IUPAC A
Instrument: IFS66V (Bruker)
Instrument parameters: KBr Beam splitter; MCT Detector; Multipass cell
Sampling: 1 L/min Flow
Resolution: 0.4820
Temperature: 23 C
Pressure: 101.3 kPa
Origin: NIST, Anayltical Chemistry Division, 301-975-3108
cm-1	(micromol/mol)-1m-1 (base 10)
574.928	5.30006e-06
583.606	3.19311e-06
592.284	2.06026e-06
600.962	1.71783e-06
609.641	8.92841e-07
618.319	5.20734e-07
626.997	7.39654e-07
635.675	1.142e-06
644.353	1.80028e-06
653.031	2.3772e-06
661.71	2.68175e-06
670.388	3.24361e-06
679.066	2.7175e-06
687.744	2.319e-06
696.422	1.64384e-06
705.1	1.2059e-06
713.778	6.95251e-07
722.457	6.75547e-07
731.135	8.47732e-07
739.813	1.04263e-06
748.491	9.64012e-07
757.169	1.0636e-06
765.847	9.12979e-07
774.526	6.77175e-07
783.204	6.04529e-07
791.882	5.49363e-07
800.56	5.43611e-07
809.238	7.64539e-07
817.916	1.10265e-06
826.594	2.0814e-06
835.273	4.40156e-06
843.951	8.20008e-06
852.629	1.63581e-05
861.307	3.3266e-05
869.985	5.01492e-05
878.663	7.44605e-05
887.342	9.74402e-05
896.02	0.000113606
904.698	0.000134911
913.376	0.000132531
922.054	0.000144601
930.732	0.000143699
939.41	0.000110407
948.089	6.1734e-05
956.767	3.52768e-05
965.445	2.58781e-05
974.123	2.89002e-05
982.801	5.14013e-05
991.479	6.65009e-05
1000.16	9.66672e-05
1008.84	9.24016e-05
1017.51	7.04213e-05
1026.19	7.02341e-05
1034.87	6.64276e-05
1043.55	5.26946e-05
1052.23	3.60509e-05
1060.9	2.17815e-05
1069.58	1.38972e-05
1078.26	9.76778e-06
1086.94	4.81893e-06
1095.62	1.85968e-06
1104.3	6.2516e-07
1112.97	3.13045e-07
1121.65	2.53289e-07
1130.33	2.52131e-07
1139.01	2.32966e-07
1147.69	2.651e-07
1156.36	2.14261e-07
1165.04	1.68434e-07
1173.72	2.26527e-07
1182.4	2.20861e-07
1191.08	1.69602e-07
1199.76	1.8188e-07
1208.43	3.43141e-07
1217.11	4.79365e-07
1225.79	8.74009e-07
1234.47	1.39027e-06
1243.15	2.40395e-06
1251.82	4.0029e-06
1260.5	5.89734e-06
1269.18	4.82641e-06
1277.86	8.21249e-06
1286.54	7.01673e-06
1295.21	4.01721e-06
1303.89	6.18592e-06
1312.57	4.46026e-06
1321.25	2.93809e-06
1329.93	2.87723e-06
1338.61	2.78388e-06
1347.28	3.04662e-06
1355.96	4.53714e-06
1364.64	1.30841e-05
1373.32	2.08259e-05
1382	7.89595e-06
1390.67	1.88134e-05
1399.35	8.53248e-06
1408.03	5.03619e-06
1416.71	5.70873e-06
1425.39	5.03822e-06
1434.07	4.44578e-06
1442.74	5.35583e-06
1451.42	3.71771e-06
1460.1	3.15447e-06
1468.78	4.06484e-06
1477.46	6.0176e-06
1486.13	5.18885e-06
1494.81	5.47297e-06
1503.49	3.63338e-06
1512.17	3.08452e-06
1520.85	2.6305e-06
1529.52	8.61207e-07
1538.2	1.12881e-06
1546.88	9.50388e-07
1555.56	1.99783e-06
1564.24	5.94028e-06
1572.92	1.94553e-05
1581.59	6.8553e-05
1590.27	0.000100894
1598.95	5.91944e-05
1607.63	0.000100957
1616.31	1.79147e-05
1624.98	3.46607e-06
1633.66	3.12277e-06
1642.34	3.19046e-06
1651.02	2.8437e-06
1659.7	1.58176e-06
1668.38	2.06454e-06
1677.05	1.03261e-06
1685.73	8.50533e-07
1694.41	6.0816e-07
1703.09	5.89271e-07
1711.77	6.7741e-07
1720.44	1.06521e-06
1729.12	1.66026e-06
1737.8	2.41639e-06
1746.48	3.67044e-06
1755.16	5.20566e-06
1763.84	3.80764e-06
1772.51	5.19537e-06
1781.19	2.99408e-06
1789.87	4.34421e-06
1798.55	1.01982e-05
1807.23	4.33729e-05
1815.9	4.10283e-05
1824.58	4.74093e-05
1833.26	4.31809e-05
1841.94	7.10158e-06
1850.62	1.62004e-06
1859.29	1.91003e-06
1867.97	2.25823e-06
1876.65	2.08057e-06
1885.33	2.25813e-06
1894.01	1.24826e-06
1902.69	1.27486e-06
1911.36	1.43601e-06
1920.04	1.18077e-06
1928.72	1.30179e-06
1937.4	1.31566e-06
1946.08	1.75931e-06
1954.75	2.72182e-06
1963.43	3.68841e-06
1972.11	2.45674e-06
1980.79	2.92571e-06
1989.47	1.38651e-06
1998.15	6.85499e-07
2006.82	4.84533e-07
2015.5	2.05763e-07
2024.18	5.02712e-08
2032.86	8.30728e-09
2041.54	1.97487e-08
2050.21	-1.8339e-08
2058.89	-1.95595e-08
2067.57	-1.10448e-08
2076.25	4.36228e-08
2084.93	8.27236e-08
2093.6	2.17319e-07
2102.28	2.81445e-07
2110.96	2.72971e-07
2119.64	5.45425e-07
2128.32	2.03802e-07
2137	1.82509e-07
2145.67	1.81127e-07
2154.35	3.32704e-07
2163.03	3.24975e-07
2171.71	3.69004e-07
2180.39	4.4446e-07
2189.06	4.60297e-07
2197.74	4.11759e-07
2206.42	4.41257e-07
2215.1	4.13711e-07
2223.78	3.85342e-07
2232.46	4.32766e-07
2241.13	6.48859e-07
2249.81	8.35512e-07
2258.49	1.23547e-06
2267.17	9.50677e-07
2275.85	1.19816e-06
2284.52	7.70469e-07
2293.2	5.87352e-07
2301.88	5.83392e-07
2310.56	4.92267e-07
2319.24	9.41633e-07
2327.92	4.0319e-07
2336.59	4.19922e-07
2345.27	4.68555e-07
2353.95	4.83987e-07
2362.63	1.47605e-06
2371.31	8.10059e-07
2379.98	2.02212e-07
2388.66	1.37078e-07
2397.34	1.78875e-07
2406.02	2.95461e-07
2414.7	3.67556e-07
2423.37	3.51683e-07
2432.05	4.29339e-07
2440.73	4.20865e-07
2449.41	4.37223e-07
2458.09	5.48661e-07
2466.77	6.43151e-07
2475.44	1.0553e-06
2484.12	1.626e-06
2492.8	1.15318e-06
2501.48	1.6668e-06
2510.16	9.72134e-07
2518.83	4.29443e-07
2527.51	2.91732e-07
2536.19	2.19251e-07
2544.87	2.12402e-07
2553.55	2.78686e-07
2562.23	3.57881e-07
2570.9	5.41772e-07
2579.58	4.28945e-07
2588.26	4.8693e-07
2596.94	3.91896e-07
2605.62	1.30084e-07
2614.29	1.19693e-07
2622.97	1.67419e-07
2631.65	1.29022e-07
2640.33	1.74133e-07
2649.01	1.47214e-07
2657.68	1.52703e-07
2666.36	6.8008e-08
2675.04	8.86225e-08
2683.72	9.34083e-08
2692.4	1.47123e-07
2701.08	2.38286e-07
2709.75	2.26971e-07
2718.43	4.32517e-07
2727.11	3.32782e-07
2735.79	2.80137e-07
2744.47	2.62197e-07
2753.14	1.85954e-07
2761.82	1.84801e-07
2770.5	2.11596e-07
2779.18	1.93916e-07
2787.86	3.82271e-07
2796.54	3.83319e-07
2805.21	4.95994e-07
2813.89	3.46308e-07
2822.57	4.01736e-07
2831.25	4.65799e-07
2839.93	9.91217e-07
2848.6	1.67048e-06
2857.28	2.01867e-06
2865.96	2.43989e-06
2874.64	2.64078e-06
2883.32	3.33645e-06
2892	4.83225e-06
2900.67	5.36992e-06
2909.35	6.0995e-06
2918.03	7.98959e-06
2926.71	8.40744e-06
2935.39	1.13495e-05
2944.06	1.21752e-05
2952.74	1.66273e-05
2961.42	2.00036e-05
2970.1	3.66441e-05
2978.78	4.25877e-05
2987.45	4.41146e-05
2996.13	5.47758e-05
3004.81	5.71393e-05
3013.49	4.34881e-05
3022.17	5.3933e-05
3030.85	4.30855e-05
3039.52	5.29708e-05
3048.2	5.49515e-05
3056.88	4.72398e-05
3065.56	6.70421e-05
3074.24	6.15625e-05
3082.91	7.24644e-05
3091.59	9.60294e-05
3100.27	6.506e-05
3108.95	9.67824e-05
3117.63	4.82991e-05
3126.31	3.33057e-05
3134.98	2.1496e-05
3143.66	1.19625e-05
3152.34	6.82149e-06
3161.02	3.07441e-06
3169.7	1.45518e-06
3178.37	6.1897e-07
3187.05	4.02788e-07
3195.73	3.02793e-07
3204.41	7.05582e-09
3213.09	1.24607e-07
3221.77	5.99974e-07
3230.44	5.64271e-07
3239.12	9.52047e-07
3247.8	6.44659e-07
3256.48	3.04414e-07
3265.16	3.28557e-07
3273.83	2.3224e-07
3282.51	8.14303e-08
3291.19	9.59639e-08
3299.87	2.29184e-07
3308.55	2.09836e-07
3317.22	2.32424e-07
3325.9	2.17683e-07
3334.58	1.37104e-07
3343.26	1.50863e-07
3351.94	6.22928e-08
3360.62	8.45935e-08
3369.29	9.38721e-08
3377.97	2.64833e-07
3386.65	5.0578e-07
3395.33	5.70758e-07
3404.01	6.79231e-07
3412.68	5.42287e-07
3421.36	2.47861e-07
3430.04	1.2551e-07
3438.72	2.662e-07
3447.4	4.38451e-07
3456.08	2.02249e-07
3464.75	3.26203e-07
3473.43	1.51905e-07
3482.11	2.66106e-07
3490.79	1.88337e-07
3499.47	2.23172e-07
3508.14	1.74588e-07
3516.82	2.91131e-07
3525.5	2.8528e-07
3534.18	3.49068e-07
3542.86	2.32411e-07
3551.53	3.00967e-07
3560.21	3.55096e-07
3568.89	3.13341e-07
3577.57	3.28237e-07
3586.25	7.28878e-07
3594.93	5.69905e-07
3603.6	5.15463e-07
3612.28	9.26236e-07
3620.96	7.54273e-07
3629.64	2.30222e-06
3638.32	1.75137e-07
3646.99	8.14099e-07
3655.67	1.81858e-07
3664.35	5.24357e-08
3673.03	4.17183e-08
3681.71	5.20301e-08
3690.39	2.52858e-07
3699.06	1.08921e-07
3707.74	7.01453e-08
3716.42	6.92322e-08
3725.1	2.71083e-07
3733.78	1.36691e-07
3742.45	1.08127e-07
3751.13	2.5901e-07
3759.81	9.00108e-07
3768.49	7.71702e-08
3777.17	6.31659e-08
3785.85	8.59941e-08
3794.52	6.96578e-08
3803.2	3.8006e-07
3811.88	1.41087e-07
3820.56	1.21926e-06
3829.24	2.18465e-07
3837.91	3.68292e-06
3846.59	2.78913e-07
3855.27	3.56487e-07
3863.95	4.97813e-07
3872.63	3.73919e-07
3881.3	5.64839e-07
3889.98	4.7437e-07
3898.66	4.93347e-07
3907.34	3.85882e-07
3916.02	4.02353e-07
3924.7	5.44906e-07
3933.37	3.71097e-07
3942.05	4.27262e-07
3950.73	4.99195e-07
3959.41	5.84826e-07
3968.09	9.76583e-07
