Infrared Spectrum: 1,3-Butadiene
Formula: C H2: C H C H: C H2
CAS: 106-99-0
State: gas
Melting point: -108.91 C
Boiling point: -4.41 C
Class: IUPAC A
Instrument: IFS66V (Bruker)
Instrument parameters: KBr Beam splitter; MCT Detector; Multipass cell
Sampling: 1 L/min Flow
Resolution: 0.9640
Temperature: 23 C
Pressure: 101.3 kPa
Origin: NIST, Anayltical Chemistry Division, 301-975-3108
cm-1	(micromol/mol)-1m-1 (base 10)
575.169	4.71236e-06
583.847	3.15534e-06
592.525	1.94216e-06
601.203	1.85833e-06
609.882	8.5207e-07
618.56	5.67918e-07
627.238	7.58903e-07
635.916	1.08991e-06
644.594	1.73755e-06
653.272	2.34329e-06
661.951	2.6516e-06
670.629	3.29906e-06
679.307	2.67718e-06
687.985	2.18503e-06
696.663	1.65561e-06
705.341	1.14711e-06
714.019	6.88458e-07
722.698	6.9969e-07
731.376	8.1068e-07
740.054	1.03182e-06
748.732	9.64037e-07
757.41	1.03657e-06
766.088	9.18459e-07
774.767	6.93328e-07
783.445	5.93026e-07
792.123	5.24637e-07
800.801	5.30908e-07
809.479	7.53752e-07
818.157	1.12241e-06
826.835	2.13975e-06
835.514	4.58069e-06
844.192	8.61963e-06
852.87	1.67723e-05
861.548	3.35722e-05
870.226	5.58801e-05
878.904	8.46948e-05
887.583	0.000112631
896.261	0.000138966
904.939	0.000143476
913.617	0.000138644
922.295	0.000156421
930.973	0.000146553
939.651	0.000103123
948.33	6.09006e-05
957.008	3.43843e-05
965.686	2.60142e-05
974.364	2.92659e-05
983.042	5.33476e-05
991.72	6.8667e-05
1000.4	9.18528e-05
1009.08	9.58208e-05
1017.75	7.0026e-05
1026.43	7.11712e-05
1035.11	6.51983e-05
1043.79	5.01407e-05
1052.47	3.6579e-05
1061.15	2.1771e-05
1069.82	1.36208e-05
1078.5	9.74661e-06
1087.18	4.67377e-06
1095.86	1.80583e-06
1104.54	6.14175e-07
1113.21	2.89371e-07
1121.89	2.39026e-07
1130.57	2.70829e-07
1139.25	2.47193e-07
1147.93	2.40171e-07
1156.61	2.02434e-07
1165.28	1.7526e-07
1173.96	1.98749e-07
1182.64	2.13549e-07
1191.32	1.60433e-07
1200	1.88045e-07
1208.67	3.24906e-07
1217.35	5.08418e-07
1226.03	8.79248e-07
1234.71	1.49376e-06
1243.39	2.48457e-06
1252.07	4.27776e-06
1260.74	5.6332e-06
1269.42	5.37876e-06
1278.1	7.82156e-06
1286.78	7.21443e-06
1295.46	4.14316e-06
1304.13	6.39957e-06
1312.81	4.25294e-06
1321.49	3.06379e-06
1330.17	2.76187e-06
1338.85	2.81785e-06
1347.52	3.00855e-06
1356.2	4.93655e-06
1364.88	1.3334e-05
1373.56	2.10115e-05
1382.24	8.31665e-06
1390.92	1.91551e-05
1399.59	7.84362e-06
1408.27	5.17231e-06
1416.95	5.71545e-06
1425.63	5.02325e-06
1434.31	4.53165e-06
1442.98	5.28916e-06
1451.66	3.78466e-06
1460.34	3.25501e-06
1469.02	4.0832e-06
1477.7	6.01692e-06
1486.38	5.09746e-06
1495.05	5.64718e-06
1503.73	3.74168e-06
1512.41	2.81572e-06
1521.09	3.2302e-06
1529.77	8.74929e-07
1538.44	1.93711e-06
1547.12	9.62974e-07
1555.8	2.07227e-06
1564.48	6.23359e-06
1573.16	1.99541e-05
1581.83	7.08323e-05
1590.51	9.84942e-05
1599.19	6.29426e-05
1607.87	9.80744e-05
1616.55	1.76703e-05
1625.23	3.39271e-06
1633.9	3.00164e-06
1642.58	3.17386e-06
1651.26	2.9577e-06
1659.94	1.6052e-06
1668.62	2.24369e-06
1677.29	1.06871e-06
1685.97	9.34648e-07
1694.65	7.85489e-07
1703.33	5.95552e-07
1712.01	6.99618e-07
1720.69	1.07061e-06
1729.36	1.84263e-06
1738.04	2.4345e-06
1746.72	3.83478e-06
1755.4	5.23689e-06
1764.08	3.77313e-06
1772.75	4.85094e-06
1781.43	3.028e-06
1790.11	4.32377e-06
1798.79	1.07196e-05
1807.47	4.44952e-05
1816.15	4.04566e-05
1824.82	4.96059e-05
1833.5	4.15205e-05
1842.18	6.71028e-06
1850.86	1.6169e-06
1859.54	1.92788e-06
1868.21	2.14132e-06
1876.89	2.14472e-06
1885.57	2.20516e-06
1894.25	1.24276e-06
1902.93	1.33463e-06
1911.6	1.42528e-06
1920.28	1.18718e-06
1928.96	1.31322e-06
1937.64	1.3317e-06
1946.32	1.77309e-06
1955	2.82722e-06
1963.67	3.66667e-06
1972.35	2.35438e-06
1981.03	2.87355e-06
1989.71	1.35479e-06
1998.39	6.95754e-07
2007.06	4.6e-07
2015.74	1.96748e-07
2024.42	3.86102e-08
2033.1	1.69109e-08
2041.78	1.64561e-08
2050.46	-3.08341e-08
2059.13	-1.92491e-08
2067.81	-5.71608e-09
2076.49	4.93757e-08
2085.17	1.04521e-07
2093.85	2.35533e-07
2102.52	3.20172e-07
2111.2	3.88129e-07
2119.88	4.35318e-07
2128.56	2.13971e-07
2137.24	1.63434e-07
2145.91	1.85376e-07
2154.59	3.31679e-07
2163.27	3.23989e-07
2171.95	4.06728e-07
2180.63	4.4737e-07
2189.31	4.67711e-07
2197.98	4.2235e-07
2206.66	4.02298e-07
2215.34	4.31652e-07
2224.02	3.80062e-07
2232.7	4.5836e-07
2241.37	6.5486e-07
2250.05	8.81269e-07
2258.73	1.21396e-06
2267.41	9.62856e-07
2276.09	1.13873e-06
2284.77	7.85256e-07
2293.44	5.79334e-07
2302.12	5.90142e-07
2310.8	5.56859e-07
2319.48	6.59938e-07
2328.16	7.339e-07
2336.83	6.5229e-07
2345.51	6.52548e-07
2354.19	7.88144e-07
2362.87	1.12674e-06
2371.55	5.92017e-07
2380.23	1.84392e-07
2388.9	1.49233e-07
2397.58	1.93365e-07
2406.26	2.9538e-07
2414.94	3.71719e-07
2423.62	3.58562e-07
2432.29	4.48845e-07
2440.97	4.03727e-07
2449.65	4.47458e-07
2458.33	5.59267e-07
2467.01	6.59379e-07
2475.68	1.09115e-06
2484.36	1.62973e-06
2493.04	1.17839e-06
2501.72	1.65257e-06
2510.4	9.72062e-07
2519.08	4.20624e-07
2527.75	3.15418e-07
2536.43	2.47103e-07
2545.11	1.98866e-07
2553.79	2.71088e-07
2562.47	3.53249e-07
2571.14	5.63904e-07
2579.82	4.07118e-07
2588.5	5.02799e-07
2597.18	3.63744e-07
2605.86	1.35838e-07
2614.54	1.12772e-07
2623.21	1.65184e-07
2631.89	1.4634e-07
2640.57	1.84041e-07
2649.25	1.68595e-07
2657.93	1.36703e-07
2666.6	1.01491e-07
2675.28	9.5278e-08
2683.96	1.02395e-07
2692.64	1.23659e-07
2701.32	2.24949e-07
2709.99	2.26692e-07
2718.67	4.18029e-07
2727.35	3.25356e-07
2736.03	3.40938e-07
2744.71	2.63214e-07
2753.39	1.88916e-07
2762.06	1.98455e-07
2770.74	1.94222e-07
2779.42	1.99446e-07
2788.1	3.62957e-07
2796.78	3.78897e-07
2805.45	5.02884e-07
2814.13	3.51906e-07
2822.81	4.10483e-07
2831.49	4.80835e-07
2840.17	1.01543e-06
2848.85	1.68232e-06
2857.52	2.05231e-06
2866.2	2.44087e-06
2874.88	2.65229e-06
2883.56	3.31595e-06
2892.24	4.74358e-06
2900.91	5.25701e-06
2909.59	6.02365e-06
2918.27	7.96226e-06
2926.95	8.5966e-06
2935.63	1.13761e-05
2944.31	1.23987e-05
2952.98	1.62737e-05
2961.66	2.03913e-05
2970.34	3.60472e-05
2979.02	4.22886e-05
2987.7	4.46208e-05
2996.37	5.61403e-05
3005.05	5.53914e-05
3013.73	4.49323e-05
3022.41	5.33312e-05
3031.09	4.31706e-05
3039.76	5.46947e-05
3048.44	5.48348e-05
3057.12	4.82844e-05
3065.8	6.62456e-05
3074.48	6.0505e-05
3083.16	7.50876e-05
3091.83	9.48428e-05
3100.51	6.34605e-05
3109.19	9.4313e-05
3117.87	4.95838e-05
3126.55	3.2005e-05
3135.22	2.04764e-05
3143.9	1.20459e-05
3152.58	6.58539e-06
3161.26	3.07914e-06
3169.94	1.43e-06
3178.62	5.69616e-07
3187.29	4.17068e-07
3195.97	2.92886e-07
3204.65	-6.90386e-09
3213.33	1.54877e-07
3222.01	5.81721e-07
3230.68	5.6817e-07
3239.36	9.18613e-07
3248.04	6.38142e-07
3256.72	3.64225e-07
3265.4	2.96836e-07
3274.07	1.81894e-07
3282.75	9.9629e-08
3291.43	6.92469e-08
3300.11	2.25361e-07
3308.79	2.06936e-07
3317.47	2.55333e-07
3326.14	1.87829e-07
3334.82	1.64067e-07
3343.5	1.22436e-07
3352.18	7.3355e-08
3360.86	1.04903e-07
3369.53	9.28797e-08
3378.21	2.83827e-07
3386.89	5.02916e-07
3395.57	5.28543e-07
3404.25	6.47278e-07
3412.93	5.25207e-07
3421.6	2.85824e-07
3430.28	1.48534e-07
3438.96	2.66608e-07
3447.64	3.75231e-07
3456.32	2.34883e-07
3464.99	3.41609e-07
3473.67	1.87074e-07
3482.35	2.37612e-07
3491.03	1.97327e-07
3499.71	2.41996e-07
3508.39	2.29146e-07
3517.06	2.88201e-07
3525.74	2.80255e-07
3534.42	3.16246e-07
3543.1	2.60783e-07
3551.78	3.44908e-07
3560.45	3.0074e-07
3569.13	3.3024e-07
3577.81	3.359e-07
3586.49	8.032e-07
3595.17	6.57117e-07
3603.84	5.42936e-07
3612.52	9.50584e-07
3621.2	7.36064e-07
3629.88	1.36917e-06
3638.56	1.96487e-07
3647.24	8.71466e-07
3655.91	6.83095e-07
3664.59	4.22153e-08
3673.27	7.53613e-08
3681.95	5.78193e-08
3690.63	4.16903e-07
3699.3	1.1906e-07
3707.98	9.34291e-08
3716.66	6.48305e-08
3725.34	2.03651e-07
3734.02	3.33442e-07
3742.7	1.38521e-07
3751.37	6.66122e-07
3760.05	5.41902e-07
3768.73	1.20429e-07
3777.41	5.85987e-08
3786.09	1.21402e-07
3794.76	8.07282e-08
3803.44	2.73908e-07
3812.12	1.34301e-07
3820.8	1.08946e-06
3829.48	2.19789e-07
3838.16	2.0046e-06
3846.83	2.73477e-07
3855.51	4.61991e-07
3864.19	6.0309e-07
3872.87	4.35122e-07
3881.55	4.87158e-07
3890.22	5.06829e-07
3898.9	8.11546e-07
3907.58	4.026e-07
3916.26	4.63446e-07
3924.94	6.03351e-07
3933.61	4.34695e-07
3942.29	5.3479e-07
3950.97	5.00741e-07
3959.65	6.17577e-07
3968.33	1.01165e-06
