Infrared Spectrum: 1,4-Dimethylbenzene
Formula: 1,4-( C H3)2 C6 H4
CAS: 106-42-3
State: gas
Melting point: 13.26 C
Boiling point: 138.35 C
Class: IUPAC A
Instrument: IFS66V (Bruker)
Instrument parameters: KBr Beam Splitter; MCT Detector; Multipass cell
Sampling: 1 L/min Flow
Resolution: 0.1250
Temperature: 23 C
Pressure: 101.3 Pa
Origin: NIST, Analytical Chemistry Division, 301-975-3108
cm-1	(micromol/mol)-1m-1 (base 10)
575.05	-1.06896e-06
583.608	-2.199e-06
592.165	1.44966e-06
600.723	3.83817e-07
609.281	-1.34694e-06
617.838	6.5085e-07
626.396	-6.40315e-07
634.954	-2.24872e-07
643.511	-4.56575e-07
652.069	-1.64198e-06
660.626	4.12767e-07
669.184	-1.43788e-06
677.742	-3.82284e-07
686.299	-4.83641e-07
694.857	5.03121e-08
703.415	1.55871e-07
711.972	-6.41584e-07
720.53	3.36379e-07
729.088	2.04132e-07
737.645	2.67337e-07
746.203	-2.00324e-07
754.761	8.00848e-07
763.318	3.99192e-06
771.876	2.36792e-05
780.434	9.98554e-05
788.991	0.000171394
797.549	0.00018766
806.106	0.00015024
814.664	4.44614e-05
823.222	8.21237e-06
831.779	4.3704e-06
840.337	3.02577e-06
848.895	9.7713e-07
857.452	7.08613e-07
866.01	7.77155e-07
874.568	1.32294e-06
883.125	9.23868e-07
891.683	1.23912e-06
900.241	1.2429e-06
908.798	1.64947e-06
917.356	2.5679e-06
925.914	2.67319e-06
934.471	2.49297e-06
943.029	2.6787e-06
951.586	3.5461e-06
960.144	4.20943e-06
968.702	4.59636e-06
977.259	4.87864e-06
985.817	4.82295e-06
994.375	4.82858e-06
1002.93	4.72385e-06
1011.49	7.16199e-06
1020.05	2.16532e-05
1028.61	2.67378e-05
1037.16	1.74433e-05
1045.72	2.47475e-05
1054.28	2.34799e-05
1062.84	1.73956e-05
1071.39	1.11032e-05
1079.95	8.85885e-06
1088.51	1.19553e-05
1097.07	1.90595e-05
1105.62	2.58834e-05
1114.18	4.08211e-05
1122.74	3.20921e-05
1131.3	1.97222e-05
1139.85	7.30455e-06
1148.41	4.24664e-06
1156.97	3.30095e-06
1165.53	3.41556e-06
1174.09	3.53131e-06
1182.64	3.49783e-06
1191.2	2.94687e-06
1199.76	2.45068e-06
1208.32	5.46031e-06
1216.87	1.3501e-05
1225.43	1.75189e-05
1233.99	1.39031e-05
1242.55	1.26264e-05
1251.1	5.21729e-06
1259.66	3.45083e-06
1268.22	3.01293e-06
1276.78	2.4895e-06
1285.33	2.41151e-06
1293.89	2.38148e-06
1302.45	3.32866e-06
1311.01	4.98579e-06
1319.57	5.51597e-06
1328.12	6.12937e-06
1336.68	6.65585e-06
1345.24	8.81935e-06
1353.8	8.45842e-06
1362.35	7.48442e-06
1370.91	1.02808e-05
1379.47	1.95956e-05
1388.03	2.5779e-05
1396.58	1.71557e-05
1405.14	1.71907e-05
1413.7	2.24864e-05
1422.26	3.12653e-05
1430.81	3.59213e-05
1439.37	3.62026e-05
1447.93	2.83069e-05
1456.49	3.23709e-05
1465.05	3.99146e-05
1473.6	4.1659e-05
1482.16	3.85044e-05
1490.72	4.01188e-05
1499.28	5.31364e-05
1507.83	8.64044e-05
1516.39	0.000229394
1524.95	0.000240153
1533.51	5.69841e-05
1542.06	1.94411e-05
1550.62	1.49437e-05
1559.18	1.17484e-05
1567.74	9.12007e-06
1576.29	5.35266e-06
1584.85	5.32763e-06
1593.41	5.16212e-06
1601.97	5.86464e-06
1610.53	8.862e-06
1619.08	1.59099e-05
1627.64	1.41115e-05
1636.2	1.15503e-05
1644.76	4.48354e-06
1653.31	8.36094e-08
1661.87	2.06715e-06
1670.43	1.58902e-06
1678.99	1.00461e-06
1687.54	1.13276e-06
1696.1	1.53751e-07
1704.66	7.74594e-07
1713.22	1.38475e-06
1721.77	3.21151e-06
1730.33	2.88235e-06
1738.89	2.25024e-06
1747.45	3.26386e-06
1756.01	3.60565e-06
1764.56	2.86229e-06
1773.12	3.68045e-06
1781.68	1.00379e-05
1790.24	1.21262e-05
1798.79	5.89484e-06
1807.35	1.41776e-06
1815.91	1.03556e-06
1824.47	1.31544e-06
1833.02	3.23717e-06
1841.58	4.18689e-06
1850.14	2.72503e-06
1858.7	1.94047e-06
1867.25	4.48119e-06
1875.81	1.08824e-05
1884.37	2.11782e-05
1892.93	2.16068e-05
1901.49	9.80228e-06
1910.04	3.53562e-06
1918.6	2.26034e-06
1927.16	2.16981e-06
1935.72	1.3494e-06
1944.27	7.7505e-07
1952.83	1.05989e-06
1961.39	7.21725e-07
1969.95	9.50359e-07
1978.5	1.20768e-06
1987.06	1.20684e-06
1995.62	1.23606e-06
2004.18	9.24222e-07
2012.73	7.7437e-07
2021.29	4.65161e-07
2029.85	2.53041e-07
2038.41	2.7081e-07
2046.97	9.02305e-09
2055.52	-2.27754e-08
2064.08	-3.2246e-08
2072.64	2.12435e-07
2081.2	1.93542e-07
2089.75	4.48749e-07
2098.31	1.47695e-06
2106.87	1.54387e-06
2115.43	1.30617e-06
2123.98	2.55235e-07
2132.54	-1.79324e-07
2141.1	-3.68334e-07
2149.66	-2.61373e-07
2158.21	1.43315e-06
2166.77	2.10306e-07
2175.33	9.12682e-08
2183.89	-1.12256e-07
2192.45	7.08684e-08
2201	4.00032e-07
2209.56	1.3131e-06
2218.12	6.59542e-07
2226.68	-4.36792e-08
2235.23	4.35109e-08
2243.79	-1.53959e-07
2252.35	-1.07297e-07
2260.91	1.8908e-07
2269.46	4.74705e-07
2278.02	3.39472e-07
2286.58	6.70009e-07
2295.14	1.63112e-06
2303.69	2.24729e-06
2312.25	2.84744e-06
2320.81	1.31185e-06
2329.37	1.57311e-06
2337.93	2.50676e-06
2346.48	2.14416e-06
2355.04	9.95156e-07
2363.6	6.38537e-07
2372.16	1.80545e-07
2380.71	7.71804e-07
2389.27	5.62496e-07
2397.83	4.00271e-07
2406.39	1.05447e-06
2414.94	1.34111e-06
2423.5	1.45988e-06
2432.06	1.4022e-06
2440.62	1.19421e-06
2449.17	9.07099e-07
2457.73	8.20083e-07
2466.29	6.34904e-07
2474.85	9.15805e-07
2483.41	6.9778e-07
2491.96	7.38284e-07
2500.52	6.06644e-07
2509.08	3.3472e-07
2517.64	3.82045e-07
2526.19	2.91335e-07
2534.75	2.14028e-07
2543.31	3.24429e-07
2551.87	5.85566e-08
2560.42	4.27033e-08
2568.98	4.7801e-08
2577.54	1.32591e-06
2586.1	2.85911e-06
2594.65	3.29807e-06
2603.21	1.65859e-06
2611.77	1.1537e-06
2620.33	3.95879e-07
2628.89	1.25946e-07
2637.44	3.56271e-07
2646	1.71666e-07
2654.56	3.74855e-08
2663.12	-2.48059e-07
2671.67	-8.02998e-08
2680.23	-4.40589e-07
2688.79	-4.34265e-07
2697.35	2.45844e-08
2705.9	1.0688e-06
2714.46	1.70032e-06
2723.02	2.12585e-06
2731.58	5.35117e-06
2740.13	1.45425e-05
2748.69	1.68928e-05
2757.25	3.26614e-06
2765.81	1.32328e-06
2774.37	9.12183e-07
2782.92	1.12174e-06
2791.48	1.96702e-06
2800.04	2.9212e-06
2808.6	3.69283e-06
2817.15	5.58177e-06
2825.71	8.07295e-06
2834.27	1.15837e-05
2842.83	1.54313e-05
2851.38	2.19647e-05
2859.94	4.29937e-05
2868.5	0.000100754
2877.06	0.000153471
2885.61	0.000151481
2894.17	0.000123402
2902.73	0.000105359
2911.29	9.66296e-05
2919.85	0.00013377
2928.4	0.000245954
2936.96	0.000305406
2945.52	0.000230245
2954.08	0.000118773
2962.63	9.52659e-05
2971.19	7.35759e-05
2979.75	8.7799e-05
2988.31	0.000115302
2996.86	0.000166426
3005.42	0.00020981
3013.98	0.000196528
3022.54	0.00023842
3031.09	0.000229386
3039.65	0.000164707
3048.21	0.000155555
3056.77	0.00014778
3065.33	0.000117784
3073.88	5.72234e-05
3082.44	2.95717e-05
3091	2.54468e-05
3099.56	2.74891e-05
3108.11	2.65312e-05
3116.67	1.68073e-05
3125.23	7.31077e-06
3133.79	6.46203e-06
3142.34	9.51599e-06
3150.9	7.6415e-06
3159.46	2.16162e-06
3168.02	5.96284e-07
3176.57	-1.45836e-07
3185.13	1.10532e-07
3193.69	-6.04871e-07
3202.25	-1.4232e-07
3210.81	5.31142e-09
3219.36	-4.85188e-07
3227.92	-2.3246e-07
3236.48	-4.42522e-07
3245.04	3.76998e-07
3253.59	-3.09117e-08
3262.15	1.25792e-08
3270.71	-2.81232e-07
3279.27	2.78391e-07
3287.82	-2.15362e-07
3296.38	-1.99164e-07
3304.94	-1.66761e-07
3313.5	-1.80381e-07
3322.05	-1.38797e-07
3330.61	-4.83178e-07
3339.17	-1.65056e-07
3347.73	-2.56094e-07
3356.29	1.06909e-07
3364.84	-5.41609e-07
3373.4	2.94056e-08
3381.96	4.76291e-08
3390.52	8.90586e-07
3399.07	2.87301e-07
3407.63	2.82726e-07
3416.19	-2.8049e-07
3424.75	-1.7311e-07
3433.3	3.82579e-07
3441.86	2.31137e-07
3450.42	4.55574e-07
3458.98	-1.03514e-07
3467.53	-4.84682e-07
3476.09	-4.17846e-07
3484.65	-2.75149e-07
3493.21	-7.66718e-08
3501.77	-1.859e-07
3510.32	-2.06934e-07
3518.88	-7.35147e-07
3527.44	-3.01326e-07
3536	-1.14377e-07
3544.55	-4.39058e-07
3553.11	-6.37619e-07
3561.67	-7.68974e-07
3570.23	-3.63605e-07
3578.78	-3.76736e-07
3587.34	-1.30245e-07
3595.9	-1.72682e-07
3604.46	-3.91639e-07
3613.01	1.10328e-07
3621.57	1.72414e-07
3630.13	-7.54267e-08
3638.69	-1.76887e-08
3647.25	-1.8183e-07
3655.8	6.8888e-07
3664.36	1.02766e-06
3672.92	1.1911e-06
3681.48	1.18827e-06
3690.03	4.8296e-07
3698.59	2.16922e-07
3707.15	2.1958e-07
3715.71	2.17894e-07
3724.26	4.82512e-08
3732.82	-1.10193e-07
3741.38	1.69489e-07
3749.94	4.50345e-07
3758.49	7.69175e-07
3767.05	8.21141e-07
3775.61	7.30722e-07
3784.17	5.86565e-07
3792.73	3.46907e-08
3801.28	-5.36278e-07
3809.84	9.0019e-07
3818.4	8.21843e-07
3826.96	7.38374e-07
3835.51	1.57089e-06
3844.07	1.76716e-06
3852.63	1.56457e-06
3861.19	1.67124e-06
3869.74	1.59003e-06
3878.3	1.68008e-06
3886.86	2.29284e-06
3895.42	2.1512e-06
3903.97	2.20191e-06
3912.53	1.85011e-06
3921.09	2.44929e-06
3929.65	1.98214e-06
3938.21	2.0682e-06
3946.76	2.17621e-06
3955.32	1.81597e-06
3963.88	2.48047e-06
3972.44	2.50675e-06
