Infrared Spectrum: BENZENE, 1,4-DIMETHYL-
Formula: C8 H10
CAS: 106-42-3
State: SOLUTION (10% IN CCl4 FOR 3800-1300, 10% IN CS2 FOR 1300-650, AND 10% CCl4 FOR 650-240 CM^-^1) VERSUS SOLVENT
Class: COBLENTZ III
Instrument: PERKIN-ELMER 521 (GRATING)
Instrument parameters: FILTERS AT 3150, 2500, 2000, 1150, 700, 410; GRATING CHANGES AT 2000, 630 CM^-^1
Sampling: TRANSMISSION
Path length: 0.012, 0.012, AND 0.011 CM (CsBr CELL)
Resolution: 4
Origin: DOW CORNING CORP.
1/CM	TRANSMITTANCE
234.615	0.905
243.589	0.895
252.564	0.891
261.538	0.889
270.513	0.886
279.487	0.867
288.461	0.875
297.436	0.879
306.41	0.877
315.385	0.875
324.359	0.882
333.333	0.881
342.308	0.881
351.282	0.889
360.257	0.893
369.231	0.895
378.205	0.896
387.18	0.9
396.154	0.903
405.129	0.909
414.103	0.912
423.077	0.914
432.052	0.905
441.026	0.896
450.001	0.881
458.975	0.858
467.949	0.816
476.924	0.4166
485.898	0.3886
494.873	0.833
503.847	0.867
512.821	0.882
521.796	0.877
530.77	0.875
539.745	0.877
548.719	0.884
557.693	0.886
566.668	0.893
575.642	0.896
584.617	0.9
593.591	0.896
602.565	0.896
611.54	0.9
620.514	0.893
629.489	0.896
638.463	0.893
647.437	0.896
656.412	0.891
665.386	0.881
674.361	0.87
683.335	0.868
692.309	0.863
701.284	0.868
710.258	0.867
719.233	0.861
728.207	0.868
737.181	0.875
746.156	0.863
755.13	0.856
764.105	0.837
773.079	0.786
782.053	0.5683
791.028	0
800.002	0.2531
808.977	0.7229
817.951	0.786
826.925	0.784
835.9	0.8019
844.874	0.828
853.849	0.833
862.823	0.846
871.797	0.858
880.772	0.865
889.746	0.865
898.721	0.861
907.695	0.854
916.669	0.847
925.644	0.828
934.618	0.826
943.593	0.825
952.567	0.805
961.541	0.816
970.516	0.825
979.49	0.821
988.465	0.816
997.439	0.805
1006.41	0.781
1015.39	0.7011
1024.36	0.657
1033.34	0.547
1042.31	0.58
1051.29	0.704
1060.26	0.748
1069.23	0.776
1078.21	0.784
1087.18	0.756
1096.16	0.627
1105.13	0.699
1114.11	0.4401
1123.08	0.793
1132.06	0.833
1141.03	0.847
1150	0.867
1158.98	0.851
1167.95	0.828
1176.93	0.805
1185.9	0.837
1194.88	0.84
1203.85	0.844
1212.82	0.725
1221.8	0.847
1230.77	0.83
1239.75	0.837
1248.72	0.856
1257.7	0.867
1266.67	0.851
1275.65	0.854
1284.62	0.846
1293.59	0.867
1302.57	0.868
1311.54	0.86
1320.52	0.856
1329.49	0.854
1338.47	0.835
1347.44	0.83
1356.42	0.821
1365.39	0.784
1374.36	0.573
1383.34	0.783
1392.31	0.779
1401.29	0.741
1410.26	0.695
1419.24	0.666
1428.21	0.596
1437.18	0.506
1446.16	0.452
1455.13	0.449
1464.11	0.531
1473.08	0.62
1482.06	0.639
1491.03	0.604
1500.01	0.4891
1508.98	0.1529
1517.95	0.4593
1526.93	0.729
1535.9	0.762
1544.88	0.784
1553.85	0.807
1562.83	0.818
1571.8	0.83
1580.78	0.842
1589.75	0.847
1598.72	0.84
1607.7	0.83
1616.67	0.786
1625.65	0.755
1634.62	0.84
1643.6	0.865
1652.57	0.875
1661.54	0.868
1670.52	0.882
1679.49	0.882
1688.47	0.888
1697.44	0.881
1706.42	0.875
1715.39	0.872
1724.37	0.872
1733.34	0.874
1742.31	0.874
1751.29	0.874
1760.26	0.874
1769.24	0.874
1778.21	0.858
1787.19	0.8141
1796.16	0.877
1805.14	0.886
1814.11	0.882
1823.08	0.872
1832.06	0.877
1841.03	0.881
1850.01	0.879
1858.98	0.874
1867.96	0.856
1876.93	0.7809
1885.9	0.704
1894.88	0.856
1903.85	0.882
1912.83	0.881
1921.8	0.889
1930.78	0.893
1939.75	0.888
1948.73	0.888
1957.7	0.893
1966.67	0.889
1975.65	0.884
1984.62	0.893
1993.6	0.884
2002.57	0.889
2011.55	0.898
2020.52	0.9
2029.5	0.8955
2038.47	0.8949
2047.44	0.896
2056.42	0.896
2065.39	0.896
2074.37	0.8961
2083.34	0.8941
2092.32	0.8823
2101.29	0.8838
2110.26	0.893
2119.24	0.896
2128.21	0.893
2137.19	0.8954
2146.16	0.895
2155.14	0.8922
2164.11	0.889
2173.09	0.8918
2182.06	0.8912
2191.03	0.8886
2200.01	0.886
2208.98	0.8872
2217.96	0.886
2226.93	0.886
2235.91	0.8889
2244.88	0.889
2253.86	0.8882
2262.83	0.8846
2271.8	0.881
2280.78	0.875
2289.75	0.874
2298.73	0.8657
2307.7	0.8741
2316.68	0.881
2325.65	0.8724
2334.62	0.8756
2343.6	0.882
2352.57	0.8826
2361.55	0.8844
2370.52	0.8811
2379.5	0.8748
2388.47	0.8756
2397.45	0.8742
2406.42	0.8677
2415.39	0.87
2424.37	0.87
2433.34	0.872
2442.32	0.874
2451.29	0.869
2460.27	0.8665
2469.24	0.868
2478.22	0.8735
2487.19	0.8686
2496.16	0.874
2505.14	0.8726
2514.11	0.87
2523.09	0.867
2532.06	0.8676
2541.04	0.872
2550.01	0.874
2558.98	0.8726
2567.96	0.8674
2576.93	0.8553
2585.91	0.8563
2594.88	0.8593
2603.86	0.867
2612.83	0.867
2621.81	0.8678
2630.78	0.8637
2639.75	0.867
2648.73	0.8707
2657.7	0.8653
2666.68	0.865
2675.65	0.863
2684.63	0.8604
2693.6	0.861
2702.58	0.8548
2711.55	0.8467
2720.52	0.8242
2729.5	0.7544
2738.47	0.8332
2747.45	0.8542
2756.42	0.858
2765.4	0.854
2774.37	0.8499
2783.34	0.8439
2792.32	0.8348
2801.29	0.8139
2810.27	0.8002
2819.24	0.7766
2828.22	0.7524
2837.19	0.7106
2846.17	0.6215
2855.14	0.4834
2864.11	0.3777
2873.09	0.389
2882.06	0.4428
2891.04	0.472
2900.01	0.4519
2908.99	0.3352
2917.96	0.2121
2926.94	0.2143
2935.91	0.3025
2944.88	0.3117
2953.86	0.3498
2962.83	0.3839
2971.81	0.3605
2980.78	0.3599
2989.76	0.3569
2998.73	0.2561
3007.7	0.3527
3016.68	0.2481
3025.65	0.3883
3034.63	0.3961
3043.6	0.3283
3052.58	0.3763
3061.55	0.6409
3070.53	0.7229
3079.5	0.705
3088.47	0.672
3097.45	0.7161
3106.42	0.781
3115.4	0.8218
3124.37	0.8102
3133.35	0.8001
3142.32	0.8445
3151.3	0.8534
3160.27	0.858
3169.24	0.8617
3178.22	0.865
3187.19	0.868
3196.17	0.8717
3205.14	0.8757
3214.12	0.8753
3223.09	0.881
3232.06	0.879
3241.04	0.879
3250.01	0.881
3258.99	0.8796
3267.96	0.881
3276.94	0.882
3285.91	0.8812
3294.89	0.8798
3303.86	0.882
3312.83	0.881
3321.81	0.879
3330.78	0.877
3339.76	0.877
3348.73	0.877
3357.71	0.877
3366.68	0.879
3375.66	0.8785
3384.63	0.881
3393.6	0.879
3402.58	0.8818
3411.55	0.8796
3420.53	0.8774
3429.5	0.879
3438.48	0.881
3447.45	0.882
3456.42	0.884
3465.4	0.884
3474.37	0.8844
3483.35	0.886
3492.32	0.886
3501.3	0.888
3510.27	0.888
3519.25	0.889
3528.22	0.8893
3537.19	0.8897
3546.17	0.889
3555.14	0.8923
3564.12	0.896
3573.09	0.9
3582.07	0.8948
3591.04	0.891
3600.02	0.893
3608.99	0.893
3617.96	0.8928
3626.94	0.891
3635.91	0.8889
3644.89	0.8828
3653.86	0.8811
3662.84	0.886
3671.81	0.886
3680.78	0.8886
3689.76	0.893
3698.73	0.895
3707.71	0.895
3716.68	0.895
3725.66	0.8949
3734.63	0.893
3743.61	0.889
3752.58	0.888
3761.55	0.891
3770.53	0.894
3779.5	0.895
3788.48	0.895
