Infrared Spectrum: 1,4-Dimethylbenzene
Formula: 1,4-( C H3)2 C6 H4
CAS: 106-42-3
State: gas
Melting point: 13.26 C
Boiling point: 138.35 C
Class: IUPAC A
Instrument: IFS66V (Bruker)
Instrument parameters: KBr Beam Splitter; MCT Detector; Multipass cell
Sampling: 1 L/min Flow
Resolution: 0.4820
Temperature: 23 C
Pressure: 101.3 Pa
Origin: NIST, Analytical Chemistry Division, 301-975-3108
cm-1	(micromol/mol)-1m-1 (base 10)
575.17	1.94822e-06
583.848	-2.36379e-07
592.526	-1.7441e-07
601.205	-9.29222e-07
609.883	1.29048e-08
618.561	-7.33549e-07
627.239	-3.46082e-07
635.917	-1.06248e-06
644.595	-2.45815e-07
653.274	-5.90714e-09
661.952	-5.38825e-07
670.63	-4.11645e-07
679.308	2.96104e-07
687.986	-1.85433e-07
696.664	3.28713e-07
705.343	1.22325e-07
714.021	1.96383e-07
722.699	4.28968e-07
731.377	4.29631e-07
740.055	3.83659e-07
748.734	5.35657e-07
757.412	1.136e-06
766.09	6.94649e-06
774.768	4.19752e-05
783.446	0.000137719
792.124	0.000192958
800.803	0.000180004
809.481	0.000105362
818.159	2.01219e-05
826.837	6.26081e-06
835.515	4.39212e-06
844.193	1.80636e-06
852.872	1.02916e-06
861.55	7.94844e-07
870.228	1.04283e-06
878.906	1.13114e-06
887.584	1.39366e-06
896.263	1.4654e-06
904.941	1.37313e-06
913.619	2.32843e-06
922.297	2.9261e-06
930.975	2.61527e-06
939.653	2.64271e-06
948.332	3.21591e-06
957.01	4.34095e-06
965.688	4.66041e-06
974.366	4.57014e-06
983.044	4.59906e-06
991.723	4.67131e-06
1000.4	5.12378e-06
1009.08	5.45732e-06
1017.76	2.19889e-05
1026.44	2.0975e-05
1035.11	1.79792e-05
1043.79	2.36909e-05
1052.47	2.44785e-05
1061.15	1.85961e-05
1069.83	1.22645e-05
1078.5	9.03233e-06
1087.18	1.1133e-05
1095.86	1.85048e-05
1104.54	2.39758e-05
1113.22	3.9394e-05
1121.9	2.8616e-05
1130.57	2.19717e-05
1139.25	7.76425e-06
1147.93	3.9645e-06
1156.61	3.13293e-06
1165.29	3.21868e-06
1173.96	3.3052e-06
1182.64	3.32008e-06
1191.32	3.03047e-06
1200	2.73874e-06
1208.68	5.56093e-06
1217.36	1.30802e-05
1226.03	1.75692e-05
1234.71	1.37144e-05
1243.39	1.19088e-05
1252.07	4.82047e-06
1260.75	3.06637e-06
1269.42	2.89632e-06
1278.1	2.33945e-06
1286.78	2.29724e-06
1295.46	2.50559e-06
1304.14	3.59367e-06
1312.82	5.08934e-06
1321.49	5.74318e-06
1330.17	6.21022e-06
1338.85	7.57401e-06
1347.53	8.46237e-06
1356.21	8.89353e-06
1364.88	8.3061e-06
1373.56	1.13893e-05
1382.24	2.07582e-05
1390.92	2.44964e-05
1399.6	1.57877e-05
1408.28	1.91727e-05
1416.95	2.48477e-05
1425.63	3.48269e-05
1434.31	3.64362e-05
1442.99	3.29869e-05
1451.67	3.24754e-05
1460.34	3.20011e-05
1469.02	4.72643e-05
1477.7	3.59606e-05
1486.38	4.14232e-05
1495.06	4.5734e-05
1503.73	5.75488e-05
1512.41	0.000188755
1521.09	0.000244634
1529.77	0.000129806
1538.45	2.66442e-05
1547.13	1.60359e-05
1555.8	1.27033e-05
1564.48	1.0158e-05
1573.16	7.65603e-06
1581.84	5.85098e-06
1590.52	4.92765e-06
1599.19	5.43496e-06
1607.87	7.63936e-06
1616.55	1.25633e-05
1625.23	1.551e-05
1633.91	1.42792e-05
1642.59	5.76253e-06
1651.26	2.54442e-06
1659.94	1.7506e-06
1668.62	1.47485e-06
1677.3	1.21576e-06
1685.98	9.14652e-07
1694.65	8.74331e-07
1703.33	7.93623e-07
1712.01	1.12305e-06
1720.69	2.94632e-06
1729.37	2.88982e-06
1738.05	2.25831e-06
1746.72	2.99157e-06
1755.4	3.45548e-06
1764.08	2.82537e-06
1772.76	2.85009e-06
1781.44	9.87814e-06
1790.11	1.20044e-05
1798.79	5.98358e-06
1807.47	1.4349e-06
1816.15	9.67457e-07
1824.83	1.25235e-06
1833.51	3.36974e-06
1842.18	4.08047e-06
1850.86	2.66482e-06
1859.54	2.19484e-06
1868.22	4.74869e-06
1876.9	1.22359e-05
1885.57	2.04789e-05
1894.25	2.19072e-05
1902.93	8.42855e-06
1911.61	3.25613e-06
1920.29	2.3214e-06
1928.97	1.95143e-06
1937.64	1.0925e-06
1946.32	8.71797e-07
1955	1.20327e-06
1963.68	8.99998e-07
1972.36	1.06459e-06
1981.03	1.41101e-06
1989.71	1.30346e-06
1998.39	1.05248e-06
2007.07	8.73422e-07
2015.75	5.96619e-07
2024.43	2.70065e-07
2033.1	3.57783e-07
2041.78	3.7857e-07
2050.46	1.42764e-07
2059.14	2.91373e-08
2067.82	-8.29519e-08
2076.49	-5.09787e-08
2085.17	2.11888e-07
2093.85	7.80474e-07
2102.53	1.85056e-06
2111.21	1.91876e-06
2119.89	8.59966e-07
2128.56	-1.17656e-07
2137.24	-1.32811e-07
2145.92	-1.18853e-07
2154.6	8.74686e-07
2163.28	-3.46152e-09
2171.95	1.28101e-07
2180.63	4.71461e-08
2189.31	-7.65518e-09
2197.99	1.47375e-07
2206.67	7.37581e-07
2215.35	7.71393e-07
2224.02	9.88743e-08
2232.7	-2.51829e-08
2241.38	-8.40396e-08
2250.06	-1.73585e-07
2258.74	-9.29899e-08
2267.41	8.39477e-08
2276.09	5.4375e-07
2284.77	6.08676e-07
2293.45	1.20954e-06
2302.13	2.42944e-06
2310.81	2.67453e-06
2319.48	1.73062e-06
2328.16	1.40647e-06
2336.84	2.14757e-06
2345.52	2.35615e-06
2354.2	1.84929e-06
2362.87	2.44724e-06
2371.55	1.20579e-06
2380.23	3.90098e-07
2388.91	5.36236e-07
2397.59	5.015e-07
2406.27	1.0656e-06
2414.94	1.44104e-06
2423.62	1.5999e-06
2432.3	1.32214e-06
2440.98	1.14437e-06
2449.66	8.78356e-07
2458.33	6.97631e-07
2467.01	8.98963e-07
2475.69	7.44635e-07
2484.37	7.67009e-07
2493.05	6.5368e-07
2501.73	4.21253e-07
2510.4	3.08001e-07
2519.08	3.3494e-07
2527.76	3.15104e-07
2536.44	2.90606e-07
2545.12	2.1594e-07
2553.79	-8.87217e-08
2562.47	-2.37795e-07
2571.15	1.78701e-07
2579.83	1.40253e-06
2588.51	3.00966e-06
2597.19	3.21725e-06
2605.86	1.69596e-06
2614.54	8.76232e-07
2623.22	2.91254e-07
2631.9	1.4421e-07
2640.58	4.7071e-07
2649.25	2.85741e-07
2657.93	-4.78346e-08
2666.61	-1.57375e-07
2675.29	-1.36242e-07
2683.97	-1.57251e-09
2692.65	6.29358e-08
2701.32	7.77941e-07
2710	1.43767e-06
2718.68	1.96317e-06
2727.36	2.97609e-06
2736.04	1.09777e-05
2744.71	1.76277e-05
2753.39	7.83016e-06
2762.07	1.63105e-06
2770.75	7.20006e-07
2779.43	1.12673e-06
2788.11	1.68242e-06
2796.78	2.3988e-06
2805.46	3.449e-06
2814.14	4.57639e-06
2822.82	6.96465e-06
2831.5	1.02498e-05
2840.17	1.37191e-05
2848.85	1.93448e-05
2857.53	3.46003e-05
2866.21	8.20877e-05
2874.89	0.000143638
2883.57	0.000156126
2892.24	0.000128065
2900.92	0.000108496
2909.6	9.64766e-05
2918.28	0.000121577
2926.96	0.000223664
2935.63	0.000306895
2944.31	0.000251105
2952.99	0.000130863
2961.67	9.75273e-05
2970.35	7.37138e-05
2979.03	8.59826e-05
2987.7	0.000112092
2996.38	0.000162746
3005.06	0.000211458
3013.74	0.000196707
3022.42	0.000238049
3031.09	0.000229568
3039.77	0.000163488
3048.45	0.000155082
3057.13	0.000147428
3065.81	0.000113971
3074.49	5.39643e-05
3083.16	2.87168e-05
3091.84	2.54585e-05
3100.52	2.73693e-05
3109.2	2.51753e-05
3117.88	1.56559e-05
3126.55	6.47978e-06
3135.23	7.24374e-06
3143.91	9.36202e-06
3152.59	6.48324e-06
3161.27	1.43224e-06
3169.95	3.54797e-07
3178.62	-1.17831e-07
3187.3	-2.24248e-07
3195.98	-3.78491e-07
3204.66	-3.9056e-07
3213.34	-3.46975e-07
3222.01	-2.71901e-07
3230.69	-1.96534e-07
3239.37	-3.61644e-07
3248.05	-2.68897e-07
3256.73	-4.05733e-08
3265.4	5.90932e-08
3274.08	-2.18732e-09
3282.76	2.19388e-07
3291.44	3.84178e-07
3300.12	-1.44081e-07
3308.8	-2.56519e-07
3317.47	2.04362e-08
3326.15	-3.14483e-08
3334.83	1.42842e-07
3343.51	-2.62442e-08
3352.19	-1.30139e-08
3360.86	-4.75609e-08
3369.54	-7.34859e-08
3378.22	2.19869e-07
3386.9	2.5697e-07
3395.58	1.95143e-07
3404.26	-9.8234e-09
3412.93	5.43739e-08
3421.61	-1.12048e-07
3430.29	1.16598e-07
3438.97	4.40548e-08
3447.65	1.15182e-07
3456.32	2.64545e-07
3465	-3.51042e-07
3473.68	-2.97709e-07
3482.36	-3.58918e-07
3491.04	-2.7105e-07
3499.72	-3.34196e-07
3508.39	-1.14919e-07
3517.07	-3.07869e-07
3525.75	-2.12217e-07
3534.43	-5.34212e-07
3543.11	-1.37812e-07
3551.78	-6.4589e-07
3560.46	-6.74239e-07
3569.14	-6.14758e-07
3577.82	-5.39979e-07
3586.5	-7.74503e-07
3595.18	-4.30915e-07
3603.85	-1.19373e-07
3612.53	-4.69366e-07
3621.21	-2.54314e-07
3629.89	-3.41208e-07
3638.57	4.70261e-08
3647.24	-6.11905e-09
3655.92	5.4477e-07
3664.6	1.02698e-06
3673.28	1.03221e-06
3681.96	1.10937e-06
3690.64	2.93664e-07
3699.31	5.0042e-07
3707.99	2.02228e-07
3716.67	5.54152e-08
3725.35	1.38588e-08
3734.03	1.34179e-07
3742.7	5.24971e-07
3751.38	6.84977e-07
3760.06	6.71055e-07
3768.74	7.45543e-07
3777.42	3.63296e-07
3786.1	2.95238e-07
3794.77	4.88995e-07
3803.45	3.95725e-07
3812.13	6.05732e-07
3820.81	3.56222e-07
3829.49	1.15137e-06
3838.16	7.0121e-07
3846.84	1.67687e-06
3855.52	1.87164e-06
3864.2	1.64439e-06
3872.88	1.90312e-06
3881.56	1.9124e-06
3890.23	2.09985e-06
3898.91	1.98987e-06
3907.59	1.97082e-06
3916.27	2.10753e-06
3924.95	2.32313e-06
3933.62	2.47614e-06
3942.3	2.17131e-06
3950.98	2.15047e-06
3959.66	2.14243e-06
3968.34	2.03876e-06
