Infrared Spectrum: Butane
Formula: C4 H10
CAS: 106-97-8
State: gas
Melting point: -138.35 C
Boiling point: -0.5 C
Class: IUPAC A
Instrument: IFS66V (Bruker)
Instrument parameters: KBr Beam Splitter; MCT Detector; Multipass cell
Sampling: 1 L/min Flow
Resolution: 1.9290
Temperature: 23 C
Pressure: 101.3 Pa
Origin: NIST, Analytical Chemistry Division, 301-975-3108
cm-1	(micromol/mol)-1m-1 (base 10)
575.652	-2.53519e-07
584.33	1.06946e-07
593.008	-5.45139e-08
601.687	-1.00405e-07
610.365	-2.02914e-07
619.043	-7.42253e-08
627.721	-1.07152e-07
636.399	-1.52873e-07
645.077	-7.56368e-08
653.756	-1.50988e-07
662.434	-4.72244e-08
671.112	1.97032e-08
679.79	1.39621e-07
688.468	4.70057e-07
697.146	1.15048e-06
705.825	2.37847e-06
714.503	3.99039e-06
723.181	5.36597e-06
731.859	1.03493e-05
740.537	8.93418e-06
749.216	1.02503e-05
757.894	7.83223e-06
766.572	5.52702e-06
775.25	3.41206e-06
783.928	2.61852e-06
792.606	1.98446e-06
801.285	1.58847e-06
809.963	8.0452e-07
818.641	3.29485e-07
827.319	9.35265e-08
835.997	1.041e-08
844.676	3.39976e-08
853.354	-2.88745e-08
862.032	-2.49046e-08
870.71	1.27338e-08
879.388	-1.23727e-08
888.066	-3.10764e-08
896.745	-2.54785e-08
905.423	4.34336e-08
914.101	2.56454e-07
922.779	7.76526e-07
931.457	2.05315e-06
940.135	5.37821e-06
948.814	1.11127e-05
957.492	1.75093e-05
966.17	1.92973e-05
974.848	1.65716e-05
983.526	1.05005e-05
992.205	6.97156e-06
1000.88	3.51538e-06
1009.56	1.78576e-06
1018.24	9.55072e-07
1026.92	5.1944e-07
1035.6	3.45357e-07
1044.27	1.01101e-07
1052.95	6.32259e-08
1061.63	1.04735e-07
1070.31	1.84447e-07
1078.99	1.4247e-07
1087.66	2.58e-07
1096.34	2.0502e-07
1105.02	3.18871e-07
1113.7	8.82736e-07
1122.38	2.35075e-06
1131.06	2.82634e-06
1139.73	2.06369e-06
1148.41	2.02298e-06
1157.09	4.76582e-07
1165.77	1.44075e-07
1174.45	1.99088e-07
1183.12	1.94011e-07
1191.8	1.87309e-07
1200.48	1.98812e-07
1209.16	2.39525e-07
1217.84	3.23386e-07
1226.52	4.79305e-07
1235.19	7.06135e-07
1243.87	1.04599e-06
1252.55	1.51482e-06
1261.23	1.81421e-06
1269.91	2.35767e-06
1278.58	5.06576e-06
1287.26	8.05085e-06
1295.94	7.52839e-06
1304.62	7.59678e-06
1313.3	2.7096e-06
1321.98	1.90218e-06
1330.65	4.0176e-06
1339.33	3.85919e-06
1348.01	4.18395e-06
1356.69	6.64039e-06
1365.37	1.07243e-05
1374.04	2.52927e-05
1382.72	3.34823e-05
1391.4	3.74782e-05
1400.08	2.36725e-05
1408.76	9.43993e-06
1417.44	7.97727e-06
1426.11	1.08328e-05
1434.79	1.98128e-05
1443.47	3.75297e-05
1452.15	5.32081e-05
1460.83	7.34233e-05
1469.5	7.24457e-05
1478.18	5.77331e-05
1486.86	4.83744e-05
1495.54	2.8678e-05
1504.22	1.58469e-05
1512.9	8.11759e-06
1521.57	3.94531e-06
1530.25	1.79294e-06
1538.93	1.18313e-06
1547.61	8.80582e-07
1556.29	1.03439e-06
1564.96	1.27222e-06
1573.64	1.55178e-06
1582.32	1.49976e-06
1591	1.38391e-06
1599.68	1.07975e-06
1608.36	8.76248e-07
1617.03	1.04622e-06
1625.71	8.71171e-07
1634.39	1.15692e-06
1643.07	9.94258e-07
1651.75	1.2909e-06
1660.42	1.31156e-06
1669.1	1.51372e-06
1677.78	1.28293e-06
1686.46	1.36005e-06
1695.14	1.26428e-06
1703.82	1.12752e-06
1712.49	1.09838e-06
1721.17	1.00353e-06
1729.85	8.0968e-07
1738.53	5.63802e-07
1747.21	3.60347e-07
1755.88	2.79123e-07
1764.56	2.54954e-07
1773.24	3.13272e-07
1781.92	3.35413e-07
1790.6	3.63643e-07
1799.28	3.98949e-07
1807.95	3.92052e-07
1816.63	3.61064e-07
1825.31	2.87294e-07
1833.99	1.37552e-07
1842.67	6.94505e-08
1851.34	1.86718e-09
1860.02	1.61253e-09
1868.7	3.56738e-08
1877.38	9.11927e-08
1886.06	2.24308e-07
1894.74	3.71339e-07
1903.41	4.73818e-07
1912.09	4.45577e-07
1920.77	4.80797e-07
1929.45	3.74614e-07
1938.13	2.994e-07
1946.8	1.82363e-07
1955.48	8.53393e-08
1964.16	-2.70482e-09
1972.84	-5.00574e-08
1981.52	-4.67687e-08
1990.19	-4.58347e-08
1998.87	-2.77431e-08
2007.55	7.56969e-09
2016.23	1.29036e-07
2024.91	4.42428e-07
2033.59	5.99835e-07
2042.26	6.55031e-07
2050.94	5.63843e-07
2059.62	2.51593e-07
2068.3	1.45377e-07
2076.98	1.47917e-07
2085.65	2.15306e-07
2094.33	2.99815e-07
2103.01	3.85919e-07
2111.69	4.73619e-07
2120.37	5.87997e-07
2129.05	6.11405e-07
2137.72	6.07362e-07
2146.4	6.51361e-07
2155.08	6.11986e-07
2163.76	6.76148e-07
2172.44	7.3004e-07
2181.11	6.58487e-07
2189.79	6.8005e-07
2198.47	6.72645e-07
2207.15	7.05247e-07
2215.83	6.79327e-07
2224.51	6.50216e-07
2233.18	5.24416e-07
2241.86	4.17589e-07
2250.54	4.59027e-07
2259.22	5.26796e-07
2267.9	5.67604e-07
2276.57	6.42084e-07
2285.25	7.88873e-07
2293.93	8.10401e-07
2302.61	9.70377e-07
2311.29	8.94674e-07
2319.97	7.79706e-07
2328.64	7.26195e-07
2337.32	8.26386e-07
2346	9.96189e-07
2354.68	8.61571e-07
2363.36	5.80203e-07
2372.03	1.02298e-06
2380.71	1.58663e-06
2389.39	1.45083e-06
2398.07	1.6847e-06
2406.75	1.13337e-06
2415.43	1.48853e-06
2424.1	1.60072e-06
2432.78	1.91564e-06
2441.46	1.7446e-06
2450.14	1.59498e-06
2458.82	9.33448e-07
2467.49	5.41921e-07
2476.17	3.39024e-07
2484.85	2.52773e-07
2493.53	1.86327e-07
2502.21	2.0488e-07
2510.89	3.68597e-07
2519.56	5.58802e-07
2528.24	7.44648e-07
2536.92	7.03887e-07
2545.6	6.91027e-07
2554.28	5.71206e-07
2562.95	7.10441e-07
2571.63	1.08506e-06
2580.31	1.65818e-06
2588.99	2.50954e-06
2597.67	3.46998e-06
2606.35	3.63436e-06
2615.02	4.16213e-06
2623.7	4.17763e-06
2632.38	4.49467e-06
2641.06	4.35011e-06
2649.74	4.74121e-06
2658.41	4.69512e-06
2667.09	4.22193e-06
2675.77	3.6767e-06
2684.45	4.00646e-06
2693.13	3.14829e-06
2701.81	3.08037e-06
2710.48	3.91862e-06
2719.16	4.97287e-06
2727.84	7.75201e-06
2736.52	1.01577e-05
2745.2	9.43558e-06
2753.87	1.07395e-05
2762.55	6.99141e-06
2771.23	5.87051e-06
2779.91	6.1838e-06
2788.59	6.62547e-06
2797.27	7.85505e-06
2805.94	1.01004e-05
2814.62	1.39224e-05
2823.3	2.05126e-05
2831.98	2.96343e-05
2840.66	4.54208e-05
2849.33	7.01325e-05
2858.01	0.000116631
2866.69	0.000168801
2875.37	0.00025751
2884.05	0.000253723
2892.73	0.000273337
2901.4	0.000245799
2910.08	0.000233995
2918.76	0.000278811
2927.44	0.000362263
2936.12	0.000429187
2944.79	0.000474696
2953.47	0.000543773
2962.15	0.000657325
2970.83	0.000602968
2979.51	0.000570895
2988.19	0.00036781
2996.86	0.00015825
3005.54	6.61856e-05
3014.22	2.61068e-05
3022.9	1.20583e-05
3031.58	7.90131e-06
3040.25	6.68323e-06
3048.93	6.23911e-06
3057.61	6.26668e-06
3066.29	6.96053e-06
3074.97	7.67703e-06
3083.65	7.80143e-06
3092.32	7.15514e-06
3101	5.62267e-06
3109.68	4.46816e-06
3118.36	3.92336e-06
3127.04	3.9348e-06
3135.71	4.33156e-06
3144.39	4.89268e-06
3153.07	5.58949e-06
3161.75	6.50037e-06
3170.43	7.25334e-06
3179.11	6.97444e-06
3187.78	7.00293e-06
3196.46	5.39608e-06
3205.14	4.55906e-06
3213.82	4.06408e-06
3222.5	4.11524e-06
3231.17	3.23941e-06
3239.85	2.80804e-06
3248.53	1.77617e-06
3257.21	9.53714e-07
3265.89	6.49572e-07
3274.57	6.6172e-07
3283.24	6.76932e-07
3291.92	6.75306e-07
3300.6	6.5284e-07
3309.28	4.82292e-07
3317.96	3.73676e-07
3326.63	3.94468e-07
3335.31	5.06324e-07
3343.99	6.47058e-07
3352.67	6.95171e-07
3361.35	7.15726e-07
3370.03	7.52416e-07
3378.7	8.83387e-07
3387.38	1.11763e-06
3396.06	1.22212e-06
3404.74	1.0918e-06
3413.42	8.24851e-07
3422.09	3.46844e-07
3430.77	2.26195e-07
3439.45	1.47672e-07
3448.13	9.06725e-08
3456.81	4.18256e-08
3465.49	6.90458e-08
3474.16	8.09883e-08
3482.84	1.01448e-07
3491.52	5.80682e-08
3500.2	7.45182e-08
3508.88	6.78252e-08
3517.55	6.25911e-09
3526.23	-2.12211e-08
3534.91	-1.93749e-08
3543.59	-2.16068e-08
3552.27	6.64564e-09
3560.95	4.98746e-08
3569.62	1.22527e-07
3578.3	1.71373e-07
3586.98	2.47268e-07
3595.66	3.17657e-07
3604.34	4.05744e-07
3613.01	5.91273e-07
3621.69	6.69286e-07
3630.37	7.65841e-07
3639.05	7.89895e-07
3647.73	8.42717e-07
3656.41	7.76119e-07
3665.08	7.85551e-07
3673.76	8.5591e-07
3682.44	9.74439e-07
3691.12	1.01739e-06
3699.8	9.79862e-07
3708.47	1.02272e-06
3717.15	1.23876e-06
3725.83	1.21155e-06
3734.51	1.27617e-06
3743.19	9.93224e-07
3751.87	7.70931e-07
3760.54	6.29521e-07
3769.22	5.70098e-07
3777.9	5.51376e-07
3786.58	5.06963e-07
3795.26	4.92429e-07
3803.93	4.92214e-07
3812.61	5.27501e-07
3821.29	6.81275e-07
3829.97	8.32022e-07
3838.65	1.39186e-06
3847.33	1.62191e-06
3856	1.86829e-06
3864.68	1.63901e-06
3873.36	1.36447e-06
3882.04	1.20118e-06
3890.72	1.0607e-06
3899.39	9.79277e-07
3908.07	8.28587e-07
3916.75	7.52246e-07
3925.43	6.50552e-07
3934.11	6.21152e-07
3942.79	5.54853e-07
3951.46	4.59711e-07
3960.14	4.64471e-07
3968.82	4.7737e-07
