Infrared Spectrum: 1,3-Butadiene
Formula: C H2: C H C H: C H2
CAS: 106-99-0
State: gas
Melting point: -108.91 C
Boiling point: -4.41 C
Class: IUPAC A
Instrument: IFS66V (Bruker)
Instrument parameters: KBr Beam splitter; MCT Detector; Multipass cell
Sampling: 1 L/min Flow
Resolution: 0.2410
Temperature: 23 C
Pressure: 101.3 kPa
Origin: NIST, Anayltical Chemistry Division, 301-975-3108
cm-1	(micromol/mol)-1m-1 (base 10)
575.048	5.39661e-06
583.606	3.0738e-06
592.163	3.1687e-06
600.721	6.74256e-07
609.279	7.29729e-07
617.836	6.98778e-07
626.394	8.82906e-07
634.951	1.07436e-06
643.509	1.58365e-06
652.067	2.44744e-06
660.624	2.80482e-06
669.182	3.14938e-06
677.74	2.7384e-06
686.297	2.09955e-06
694.855	1.71809e-06
703.412	1.12874e-06
711.97	7.22823e-07
720.528	7.1164e-07
729.085	6.43686e-07
737.643	9.95086e-07
746.201	9.41544e-07
754.758	1.06748e-06
763.316	1.23037e-06
771.873	7.37325e-07
780.431	4.79669e-07
788.989	3.95173e-07
797.546	5.62367e-07
806.104	6.72073e-07
814.662	1.17617e-06
823.219	1.59907e-06
831.777	3.17668e-06
840.334	6.16949e-06
848.892	1.60544e-05
857.45	2.43818e-05
866.007	3.94241e-05
874.565	6.17254e-05
883.123	8.78109e-05
891.68	0.000147967
900.238	0.000135062
908.795	0.000472097
917.353	0.000142763
925.911	0.000134953
934.468	0.00011119
943.026	8.91785e-05
951.584	4.98465e-05
960.141	2.98311e-05
968.699	2.76953e-05
977.256	3.2509e-05
985.814	6.46434e-05
994.372	8.97363e-05
1002.93	8.01492e-05
1011.49	0.000120403
1020.04	6.77809e-05
1028.6	7.41235e-05
1037.16	6.01417e-05
1045.72	4.86508e-05
1054.28	3.09403e-05
1062.83	2.23944e-05
1071.39	1.22449e-05
1079.95	8.67738e-06
1088.51	4.28864e-06
1097.06	1.51751e-06
1105.62	4.89648e-07
1114.18	2.3797e-07
1122.74	3.38891e-07
1131.29	2.46266e-07
1139.85	1.8743e-07
1148.41	1.04728e-07
1156.97	1.85621e-07
1165.52	1.42544e-07
1174.08	1.19198e-07
1182.64	2.06682e-07
1191.2	1.96217e-07
1199.75	1.04171e-07
1208.31	3.65246e-07
1216.87	4.89371e-07
1225.43	8.96946e-07
1233.99	1.3531e-06
1242.54	2.23058e-06
1251.1	3.60588e-06
1259.66	5.38794e-06
1268.22	5.07194e-06
1276.77	6.68958e-06
1285.33	7.33637e-06
1293.89	4.01362e-06
1302.45	6.54437e-06
1311	5.90799e-06
1319.56	4.80207e-06
1328.12	2.8027e-06
1336.68	3.11579e-06
1345.23	2.7035e-06
1353.79	4.14038e-06
1362.35	9.80248e-06
1370.91	2.11467e-05
1379.46	7.57478e-06
1388.02	1.95615e-05
1396.58	1.26547e-05
1405.14	5.70581e-06
1413.7	5.87916e-06
1422.25	5.65321e-06
1430.81	4.22015e-06
1439.37	5.2071e-06
1447.93	6.16953e-06
1456.48	6.22892e-06
1465.04	4.6623e-06
1473.6	7.5771e-06
1482.16	5.55868e-06
1490.71	6.05863e-06
1499.27	5.51137e-06
1507.83	3.29917e-06
1516.39	2.39065e-06
1524.94	1.43008e-06
1533.5	1.08962e-06
1542.06	4.22312e-06
1550.62	1.20758e-06
1559.18	3.25422e-06
1567.73	9.03751e-06
1576.29	3.67553e-05
1584.85	9.57075e-05
1593.41	6.19819e-05
1601.96	0.00010156
1610.52	6.62737e-05
1619.08	7.86082e-06
1627.64	3.12778e-06
1636.19	3.17021e-06
1644.75	3.7132e-06
1653.31	1.04705e-05
1661.87	1.82665e-06
1670.42	1.53683e-06
1678.98	9.76117e-07
1687.54	6.52997e-07
1696.1	3.12722e-06
1704.65	9.51759e-07
1713.21	7.31528e-07
1721.77	1.11353e-06
1730.33	2.10033e-06
1738.89	2.61682e-06
1747.44	3.98755e-06
1756	5.18651e-06
1764.56	3.68848e-06
1773.12	3.88472e-06
1781.67	2.998e-06
1790.23	4.0785e-06
1798.79	1.05262e-05
1807.35	4.41286e-05
1815.9	4.11123e-05
1824.46	4.64277e-05
1833.02	4.45403e-05
1841.58	7.55962e-06
1850.13	1.66674e-06
1858.69	1.85859e-06
1867.25	2.10937e-06
1875.81	1.92757e-06
1884.36	2.33436e-06
1892.92	1.25618e-06
1901.48	1.05279e-06
1910.04	1.72324e-06
1918.6	1.3199e-06
1927.15	1.31437e-06
1935.71	1.3182e-06
1944.27	1.49675e-06
1952.83	2.41806e-06
1961.38	3.61115e-06
1969.94	2.7977e-06
1978.5	3.22695e-06
1987.06	1.8038e-06
1995.61	7.30348e-07
2004.17	5.38476e-07
2012.73	2.63696e-07
2021.29	4.27297e-08
2029.84	4.39265e-08
2038.4	-5.13462e-08
2046.96	-1.1178e-07
2055.52	-1.02378e-07
2064.08	-3.26489e-08
2072.63	6.08794e-08
2081.19	5.53316e-08
2089.75	1.85494e-07
2098.31	3.38216e-07
2106.86	2.68771e-07
2115.42	3.52085e-07
2123.98	3.02387e-07
2132.54	1.63828e-07
2141.09	1.25833e-07
2149.65	1.78888e-07
2158.21	5.05849e-07
2166.77	4.00059e-07
2175.32	3.10684e-07
2183.88	3.62324e-07
2192.44	4.06991e-07
2201	5.03634e-07
2209.55	4.93611e-07
2218.11	4.50743e-07
2226.67	3.80647e-07
2235.23	4.80573e-07
2243.79	7.05959e-07
2252.34	1.0164e-06
2260.9	1.0795e-06
2269.46	1.06977e-06
2278.02	1.00539e-06
2286.57	7.70358e-07
2295.13	5.4493e-07
2303.69	5.84786e-07
2312.25	4.37925e-07
2320.8	5.35637e-07
2329.36	4.61233e-07
2337.92	7.39284e-07
2346.48	3.3467e-07
2355.03	2.21963e-07
2363.59	4.08687e-07
2372.15	1.70406e-07
2380.71	2.77467e-07
2389.26	2.26217e-07
2397.82	1.92532e-07
2406.38	2.00912e-07
2414.94	3.60851e-07
2423.5	3.28935e-07
2432.05	3.56684e-07
2440.61	4.37967e-07
2449.17	4.02353e-07
2457.73	5.60277e-07
2466.28	7.51033e-07
2474.84	1.00951e-06
2483.4	1.96018e-06
2491.96	1.10722e-06
2500.51	1.54228e-06
2509.07	1.08864e-06
2517.63	4.97809e-07
2526.19	2.72616e-07
2534.74	2.29399e-07
2543.3	1.71015e-07
2551.86	1.92599e-07
2560.42	3.13676e-07
2568.98	4.0538e-07
2577.53	5.2948e-07
2586.09	4.48089e-07
2594.65	4.27215e-07
2603.21	2.25679e-07
2611.76	1.39816e-07
2620.32	1.66409e-07
2628.88	1.72476e-07
2637.44	2.39147e-07
2645.99	2.22134e-07
2654.55	1.93925e-07
2663.11	1.44582e-07
2671.67	7.02163e-08
2680.22	6.35461e-08
2688.78	1.27314e-07
2697.34	1.28864e-07
2705.9	2.22343e-07
2714.45	3.71487e-07
2723.01	5.08949e-07
2731.57	2.21157e-07
2740.13	3.31596e-07
2748.69	1.83171e-07
2757.24	1.5609e-07
2765.8	2.36957e-07
2774.36	2.44445e-07
2782.92	3.73915e-07
2791.47	3.83259e-07
2800.03	5.11999e-07
2808.59	6.55459e-07
2817.15	3.43509e-07
2825.7	4.51656e-07
2834.26	6.76737e-07
2842.82	1.22564e-06
2851.38	1.8004e-06
2859.93	2.13348e-06
2868.49	2.53414e-06
2877.05	3.01106e-06
2885.61	3.4436e-06
2894.16	4.46333e-06
2902.72	5.07891e-06
2911.28	6.21728e-06
2919.84	8.04863e-06
2928.4	9.49136e-06
2936.95	1.11097e-05
2945.51	1.33614e-05
2954.07	1.58643e-05
2962.63	2.28877e-05
2971.18	3.73501e-05
2979.74	4.0705e-05
2988.3	4.72968e-05
2996.86	5.89822e-05
3005.41	5.27228e-05
3013.97	4.58384e-05
3022.53	5.28182e-05
3031.09	4.47251e-05
3039.64	5.34088e-05
3048.2	5.48514e-05
3056.76	4.53782e-05
3065.32	7.09888e-05
3073.88	6.18209e-05
3082.43	7.13944e-05
3090.99	9.36201e-05
3099.55	5.54871e-05
3108.11	9.32022e-05
3116.66	6.22633e-05
3125.22	3.10034e-05
3133.78	2.1216e-05
3142.34	1.32957e-05
3150.89	7.25286e-06
3159.45	3.91223e-06
3168.01	1.93093e-06
3176.57	8.6423e-07
3185.12	4.35489e-07
3193.68	2.87595e-07
3202.24	1.56081e-07
3210.8	8.56358e-08
3219.35	5.89555e-07
3227.91	5.91554e-07
3236.47	9.32198e-07
3245.03	8.78624e-07
3253.59	4.15468e-07
3262.14	2.83866e-07
3270.7	2.12013e-07
3279.26	3.70192e-07
3287.82	2.43909e-07
3296.37	1.88186e-07
3304.93	1.57214e-07
3313.49	3.36535e-07
3322.05	2.44118e-07
3330.6	3.41886e-07
3339.16	1.50568e-07
3347.72	7.62316e-08
3356.28	6.81663e-08
3364.83	3.47762e-07
3373.39	1.85163e-07
3381.95	2.04206e-07
3390.51	4.46078e-07
3399.06	4.80547e-07
3407.62	5.97517e-07
3416.18	2.49375e-07
3424.74	1.30037e-07
3433.3	2.21601e-07
3441.85	2.04764e-07
3450.41	3.6275e-07
3458.97	3.19982e-07
3467.53	2.40649e-07
3476.08	1.94876e-07
3484.64	1.2335e-07
3493.2	1.3728e-07
3501.76	1.14641e-07
3510.31	2.01774e-07
3518.87	4.8613e-07
3527.43	3.04716e-07
3535.99	1.69944e-07
3544.54	1.78247e-07
3553.1	2.44946e-07
3561.66	2.10143e-07
3570.22	3.96927e-07
3578.78	3.43553e-07
3587.33	3.88934e-07
3595.89	5.61223e-07
3604.45	4.66525e-07
3613.01	7.34691e-07
3621.56	6.75187e-07
3630.12	5.29012e-07
3638.68	2.59701e-07
3647.24	1.23125e-06
3655.79	1.55599e-07
3664.35	1.0316e-07
3672.91	-1.26947e-08
3681.47	1.439e-08
3690.02	1.70266e-07
3698.58	1.44205e-07
3707.14	-1.29966e-08
3715.7	8.42606e-08
3724.25	1.37575e-07
3732.81	2.78686e-07
3741.37	5.82523e-07
3749.93	4.91125e-07
3758.49	2.5955e-08
3767.04	-5.78963e-08
3775.6	1.861e-08
3784.16	4.49324e-08
3792.72	3.63923e-08
3801.27	2.43897e-06
3809.83	2.11231e-07
3818.39	1.71155e-07
3826.95	5.67371e-07
3835.5	3.18531e-07
3844.06	4.90883e-07
3852.62	6.20329e-07
3861.18	2.13961e-07
3869.73	6.56022e-07
3878.29	2.59485e-07
3886.85	4.30163e-07
3895.41	3.9179e-07
3903.96	9.82726e-07
3912.52	3.41728e-07
3921.08	3.67492e-07
3929.64	4.19375e-07
3938.2	5.42009e-07
3946.75	5.18067e-07
3955.31	5.50191e-07
3963.87	8.68065e-07
3972.43	1.40911e-06
