Infrared Spectrum: 1,3-Butadiene
Formula: C H2: C H C H: C H2
CAS: 106-99-0
State: gas
Melting point: -108.91 C
Boiling point: -4.41 C
Class: IUPAC A
Instrument: IFS66V (Bruker)
Instrument parameters: KBr Beam splitter; MCT Detector; Multipass cell
Sampling: 1 L/min Flow
Resolution: 0.4820
Temperature: 23 C
Pressure: 101.3 kPa
Origin: NIST, Anayltical Chemistry Division, 301-975-3108
cm-1	(micromol/mol)-1m-1 (base 10)
574.928	5.49543e-06
583.606	3.17574e-06
592.284	2.07999e-06
600.962	1.73441e-06
609.641	9.2965e-07
618.319	5.01413e-07
626.997	7.50531e-07
635.675	1.17071e-06
644.353	1.79876e-06
653.031	2.35859e-06
661.71	2.65803e-06
670.388	3.21836e-06
679.066	2.70837e-06
687.744	2.3399e-06
696.422	1.6147e-06
705.1	1.21142e-06
713.778	6.8967e-07
722.457	6.59213e-07
731.135	8.55583e-07
739.813	1.04692e-06
748.491	9.60494e-07
757.169	1.07157e-06
765.847	9.06852e-07
774.526	6.56523e-07
783.204	5.8147e-07
791.882	5.61876e-07
800.56	5.42705e-07
809.238	7.75928e-07
817.916	1.09383e-06
826.594	2.0643e-06
835.273	4.42132e-06
843.951	8.15399e-06
852.629	1.606e-05
861.307	3.3213e-05
869.985	5.02103e-05
878.663	7.38392e-05
887.342	9.73971e-05
896.02	0.000109005
904.698	0.000134549
913.376	0.000131402
922.054	0.000144281
930.732	0.000144511
939.41	0.000112803
948.089	6.16647e-05
956.767	3.54362e-05
965.445	2.57934e-05
974.123	2.86334e-05
982.801	5.13141e-05
991.479	6.63822e-05
1000.16	9.69894e-05
1008.84	9.16287e-05
1017.51	7.02174e-05
1026.19	7.00003e-05
1034.87	6.63848e-05
1043.55	5.29358e-05
1052.23	3.57952e-05
1060.9	2.16107e-05
1069.58	1.39157e-05
1078.26	9.71038e-06
1086.94	4.83029e-06
1095.62	1.86293e-06
1104.3	6.25806e-07
1112.97	3.18509e-07
1121.65	2.61524e-07
1130.33	2.51359e-07
1139.01	2.24957e-07
1147.69	2.70764e-07
1156.36	2.23625e-07
1165.04	1.60732e-07
1173.72	2.32115e-07
1182.4	2.19771e-07
1191.08	1.75944e-07
1199.76	1.80512e-07
1208.43	3.44626e-07
1217.11	4.74905e-07
1225.79	8.78849e-07
1234.47	1.3729e-06
1243.15	2.39239e-06
1251.82	3.89793e-06
1260.5	5.83954e-06
1269.18	4.75108e-06
1277.86	8.19719e-06
1286.54	6.96272e-06
1295.21	4.01136e-06
1303.89	6.18707e-06
1312.57	4.36521e-06
1321.25	2.96723e-06
1329.93	2.86054e-06
1338.61	2.82448e-06
1347.28	3.00109e-06
1355.96	4.52061e-06
1364.64	1.29827e-05
1373.32	2.07413e-05
1382	7.83357e-06
1390.67	1.87837e-05
1399.35	8.52779e-06
1408.03	5.00218e-06
1416.71	5.73429e-06
1425.39	5.02235e-06
1434.07	4.44402e-06
1442.74	5.34127e-06
1451.42	3.7118e-06
1460.1	3.14264e-06
1468.78	4.05417e-06
1477.46	6.01024e-06
1486.13	5.20647e-06
1494.81	5.47077e-06
1503.49	3.62473e-06
1512.17	3.16666e-06
1520.85	2.38349e-06
1529.52	8.55081e-07
1538.2	1.13073e-06
1546.88	9.45046e-07
1555.56	1.99321e-06
1564.24	5.93646e-06
1572.92	1.94727e-05
1581.59	6.8549e-05
1590.27	0.000100872
1598.95	5.89488e-05
1607.63	0.000101002
1616.31	1.76598e-05
1624.98	3.44892e-06
1633.66	3.17332e-06
1642.34	3.18308e-06
1651.02	2.83305e-06
1659.7	1.58881e-06
1668.38	2.09612e-06
1677.05	1.02946e-06
1685.73	8.07867e-07
1694.41	6.1465e-07
1703.09	5.84009e-07
1711.77	6.72006e-07
1720.44	1.08069e-06
1729.12	1.64249e-06
1737.8	2.42145e-06
1746.48	3.65865e-06
1755.16	5.19612e-06
1763.84	3.82057e-06
1772.51	5.24875e-06
1781.19	2.96575e-06
1789.87	4.39736e-06
1798.55	1.01878e-05
1807.23	4.33699e-05
1815.9	4.10159e-05
1824.58	4.741e-05
1833.26	4.32049e-05
1841.94	7.11101e-06
1850.62	1.6162e-06
1859.29	1.90804e-06
1867.97	2.28849e-06
1876.65	2.075e-06
1885.33	2.2639e-06
1894.01	1.24758e-06
1902.69	1.27179e-06
1911.36	1.4447e-06
1920.04	1.17956e-06
1928.72	1.30847e-06
1937.4	1.30672e-06
1946.08	1.7585e-06
1954.75	2.7213e-06
1963.43	3.69251e-06
1972.11	2.4682e-06
1980.79	2.93877e-06
1989.47	1.38409e-06
1998.15	6.84497e-07
2006.82	4.87401e-07
2015.5	2.03502e-07
2024.18	5.19519e-08
2032.86	6.1045e-09
2041.54	1.91066e-08
2050.21	-1.86791e-08
2058.89	-1.94358e-08
2067.57	-1.51376e-08
2076.25	3.72618e-08
2084.93	7.90929e-08
2093.6	2.16164e-07
2102.28	2.75785e-07
2110.96	2.56869e-07
2119.64	5.94816e-07
2128.32	2.00639e-07
2137	1.87688e-07
2145.67	1.79128e-07
2154.35	3.29294e-07
2163.03	3.29015e-07
2171.71	3.728e-07
2180.39	4.43053e-07
2189.06	4.6718e-07
2197.74	4.11104e-07
2206.42	4.54434e-07
2215.1	4.1549e-07
2223.78	3.88043e-07
2232.46	4.25752e-07
2241.13	6.52514e-07
2249.81	8.30159e-07
2258.49	1.23545e-06
2267.17	9.49156e-07
2275.85	1.20109e-06
2284.52	7.69161e-07
2293.2	5.92471e-07
2301.88	5.82878e-07
2310.56	4.88858e-07
2319.24	1.04327e-06
2327.92	3.97307e-07
2336.59	3.97192e-07
2345.27	4.46298e-07
2353.95	4.06748e-07
2362.63	1.59096e-06
2371.31	9.02409e-07
2379.98	2.08879e-07
2388.66	1.33686e-07
2397.34	1.78295e-07
2406.02	3.01181e-07
2414.7	3.67387e-07
2423.37	3.48738e-07
2432.05	4.26853e-07
2440.73	4.2783e-07
2449.41	4.40068e-07
2458.09	5.47919e-07
2466.77	6.40436e-07
2475.44	1.04321e-06
2484.12	1.62859e-06
2492.8	1.15273e-06
2501.48	1.66947e-06
2510.16	9.60436e-07
2518.83	4.23015e-07
2527.51	2.87115e-07
2536.19	2.10112e-07
2544.87	2.16764e-07
2553.55	2.84961e-07
2562.23	3.60551e-07
2570.9	5.3408e-07
2579.58	4.33043e-07
2588.26	4.84502e-07
2596.94	3.91785e-07
2605.62	1.27683e-07
2614.29	1.27105e-07
2622.97	1.69162e-07
2631.65	1.21768e-07
2640.33	1.68396e-07
2649.01	1.37999e-07
2657.68	1.52494e-07
2666.36	5.96644e-08
2675.04	8.23652e-08
2683.72	9.10127e-08
2692.4	1.54522e-07
2701.08	2.42666e-07
2709.75	2.34086e-07
2718.43	4.41967e-07
2727.11	3.25821e-07
2735.79	2.68198e-07
2744.47	2.68369e-07
2753.14	1.83384e-07
2761.82	1.90624e-07
2770.5	2.107e-07
2779.18	1.92768e-07
2787.86	3.92007e-07
2796.54	3.88745e-07
2805.21	4.98395e-07
2813.89	3.50101e-07
2822.57	4.03894e-07
2831.25	4.69475e-07
2839.93	9.90224e-07
2848.6	1.66992e-06
2857.28	2.01399e-06
2865.96	2.43622e-06
2874.64	2.64132e-06
2883.32	3.35309e-06
2892	4.85715e-06
2900.67	5.39557e-06
2909.35	6.07022e-06
2918.03	7.98614e-06
2926.71	8.39954e-06
2935.39	1.13653e-05
2944.06	1.21356e-05
2952.74	1.66703e-05
2961.42	1.9998e-05
2970.1	3.70631e-05
2978.78	4.25802e-05
2987.45	4.43433e-05
2996.13	5.46794e-05
3004.81	5.74365e-05
3013.49	4.34034e-05
3022.17	5.38351e-05
3030.85	4.30089e-05
3039.52	5.28639e-05
3048.2	5.50104e-05
3056.88	4.7175e-05
3065.56	6.68798e-05
3074.24	6.17909e-05
3082.91	7.22387e-05
3091.59	9.58617e-05
3100.27	6.52597e-05
3108.95	9.66776e-05
3117.63	4.8102e-05
3126.31	3.34461e-05
3134.98	2.14908e-05
3143.66	1.19329e-05
3152.34	6.87514e-06
3161.02	3.06431e-06
3169.7	1.46749e-06
3178.37	6.26057e-07
3187.05	4.07099e-07
3195.73	3.07564e-07
3204.41	6.18635e-09
3213.09	1.12271e-07
3221.77	6.01157e-07
3230.44	5.5506e-07
3239.12	9.64769e-07
3247.8	6.39164e-07
3256.48	3.0198e-07
3265.16	3.35893e-07
3273.83	2.44049e-07
3282.51	7.48365e-08
3291.19	9.38757e-08
3299.87	2.23187e-07
3308.55	2.19465e-07
3317.22	2.28404e-07
3325.9	2.27633e-07
3334.58	1.3326e-07
3343.26	1.67393e-07
3351.94	6.17307e-08
3360.62	8.57176e-08
3369.29	9.18712e-08
3377.97	2.70444e-07
3386.65	5.00689e-07
3395.33	5.79285e-07
3404.01	6.88528e-07
3412.68	5.44217e-07
3421.36	2.35032e-07
3430.04	1.15991e-07
3438.72	2.67243e-07
3447.4	4.54177e-07
3456.08	1.79977e-07
3464.75	3.18605e-07
3473.43	1.33177e-07
3482.11	2.74195e-07
3490.79	1.75326e-07
3499.47	2.23211e-07
3508.14	1.66402e-07
3516.82	2.97791e-07
3525.5	2.85454e-07
3534.18	3.55792e-07
3542.86	2.3626e-07
3551.53	3.02294e-07
3560.21	3.78663e-07
3568.89	3.03693e-07
3577.57	3.21006e-07
3586.25	6.94539e-07
3594.93	5.4461e-07
3603.6	5.00601e-07
3612.28	8.8991e-07
3620.96	7.61321e-07
3629.64	2.61969e-06
3638.32	1.65785e-07
3646.99	8.23532e-07
3655.67	1.44265e-07
3664.35	5.46731e-08
3673.03	4.79101e-08
3681.71	4.53454e-08
3690.39	2.65145e-07
3699.06	1.05152e-07
3707.74	6.5225e-08
3716.42	7.49511e-08
3725.1	2.99537e-07
3733.78	1.13925e-07
3742.45	1.19598e-07
3751.13	2.54053e-07
3759.81	1.02689e-06
3768.49	7.00235e-08
3777.17	6.02683e-08
3785.85	6.97652e-08
3794.52	6.19617e-08
3803.2	3.82744e-07
3811.88	1.36496e-07
3820.56	1.28231e-06
3829.24	2.19131e-07
3837.91	4.28738e-06
3846.59	2.9084e-07
3855.27	3.03397e-07
3863.95	4.85584e-07
3872.63	3.65175e-07
3881.3	5.51744e-07
3889.98	4.82606e-07
3898.66	4.61619e-07
3907.34	3.82717e-07
3916.02	3.87577e-07
3924.7	5.23546e-07
3933.37	3.60713e-07
3942.05	4.20201e-07
3950.73	5.02371e-07
3959.41	5.70177e-07
3968.09	9.71388e-07
