Infrared Spectrum: 1,4-DIMETHYL BENZENE
Formula: C8 H10
CAS: 106-42-3
State: LIQUID
Class: COBLENTZ
Instrument: PERKIN-ELMER
Sampling: TRANSMISSION
Path length: 0.0025 CM
Resolution: 4
Origin: STANDARD OIL OF OHIO
1/CM	TRANSMITTANCE
604.73	0.631
613.155	0.634
621.579	0.6439
630.004	0.6509
638.428	0.6659
646.853	0.6915
655.278	0.7168
663.702	0.7363
672.127	0.7537
680.551	0.7686
688.976	0.7847
697.401	0.7909
705.825	0.8078
714.25	0.8147
722.675	0.818
731.099	0.8332
739.524	0.8342
747.948	0.8259
756.373	0.8172
764.798	0.7975
773.222	0.7346
781.647	0.5684
790.071	0.1651
798.496	0.021
806.921	0.2328
815.345	0.6485
823.77	0.7503
832.194	0.7513
840.619	0.7674
849.044	0.8108
857.468	0.8389
865.893	0.8516
874.317	0.8616
882.742	0.864
891.167	0.862
899.591	0.8579
908.016	0.856
916.441	0.8515
924.865	0.8414
933.29	0.829
941.714	0.827
950.139	0.8146
958.564	0.8
966.988	0.8059
975.413	0.8159
983.837	0.815
992.262	0.8112
1000.69	0.798
1009.11	0.7784
1017.54	0.7126
1025.96	0.5952
1034.39	0.5489
1042.81	0.4637
1051.23	0.6117
1059.66	0.7039
1068.08	0.7611
1076.51	0.79
1084.93	0.7831
1093.36	0.6695
1101.78	0.58
1110.21	0.6163
1118.63	0.4188
1127.06	0.7752
1135.48	0.836
1143.9	0.849
1152.33	0.847
1160.75	0.8437
1169.18	0.8293
1177.6	0.8
1186.03	0.83
1194.45	0.839
1202.88	0.837
1211.3	0.7797
1219.73	0.7233
1228.15	0.8267
1236.58	0.81
1245	0.8292
1253.42	0.851
1261.85	0.849
1270.27	0.849
1278.7	0.849
1287.12	0.846
1295.55	0.839
1303.97	0.8183
1312.4	0.8001
1320.82	0.795
1329.25	0.7837
1337.67	0.7731
1346.1	0.7564
1354.52	0.7344
1362.94	0.673
1371.37	0.5001
1379.79	0.6421
1388.22	0.685
1396.64	0.6578
1405.07	0.5886
1413.49	0.5242
1421.92	0.4836
1430.34	0.4587
1438.77	0.3889
1447.19	0.3287
1455.62	0.304
1464.04	0.328
1472.46	0.4163
1480.89	0.4784
1489.31	0.5007
1497.74	0.466
1506.16	0.3432
1514.59	0.137
1523.01	0.2167
1531.44	0.5796
1539.86	0.6955
1548.29	0.7366
1556.71	0.7658
1565.14	0.788
1573.56	0.8025
1581.98	0.819
1590.41	0.827
1598.83	0.8235
1607.26	0.8125
1615.68	0.7966
1624.11	0.7448
1632.53	0.67
1640.96	0.7903
1649.38	0.8482
1657.81	0.874
1666.23	0.874
1674.66	0.8868
1683.08	0.895
1691.5	0.898
1699.93	0.896
1708.35	0.896
1716.78	0.8877
1725.2	0.878
1733.63	0.878
1742.05	0.879
1750.48	0.879
1758.9	0.8787
1767.33	0.878
1775.75	0.878
1784.18	0.8595
1792.6	0.8007
1801.02	0.834
1809.45	0.8803
1817.87	0.891
1826.3	0.8827
1834.72	0.873
1843.15	0.8784
1851.57	0.884
1860	0.8789
1868.42	0.8658
1876.85	0.8364
1885.27	0.7647
1893.7	0.634
1902.12	0.7375
1910.54	0.8495
1918.97	0.876
1927.39	0.876
1935.82	0.898
1944.24	0.9
1952.67	0.8961
1961.09	0.8949
1969.52	0.898
1977.94	0.8952
1986.37	0.893
1994.79	0.891
2003.22	0.893
2011.64	0.901
2020.06	0.908
2028.49	0.908
2036.91	0.9051
2045.34	0.9078
2053.76	0.908
2062.19	0.9118
2070.61	0.91
2079.04	0.91
2087.46	0.908
2095.89	0.9001
2104.31	0.8901
2112.74	0.9025
2121.16	0.908
2129.58	0.9118
2138.01	0.91
2146.43	0.91
2154.86	0.91
2163.28	0.908
2171.71	0.908
2180.13	0.908
2188.56	0.908
2196.98	0.906
2205.41	0.9001
2213.83	0.9
2222.25	0.906
2230.68	0.908
2239.1	0.908
2247.53	0.906
2255.95	0.9078
2264.38	0.91
2272.8	0.9062
2281.23	0.9001
2289.65	0.8932
2298.08	0.89
2306.5	0.8685
2314.93	0.8887
2323.35	0.8982
2331.77	0.8862
2340.2	0.8858
2348.62	0.8957
2357.05	0.9
2365.47	0.898
2373.9	0.896
2382.32	0.895
2390.75	0.895
2399.17	0.891
2407.6	0.8862
2416.02	0.8831
2424.45	0.8839
2432.87	0.888
2441.29	0.8928
2449.72	0.8978
2458.14	0.898
2466.57	0.896
2474.99	0.896
2483.42	0.898
2491.84	0.8998
2500.27	0.9017
2508.69	0.901
2517.12	0.901
2525.54	0.9001
2533.97	0.893
2542.39	0.9
2550.81	0.905
2559.24	0.901
2567.66	0.9001
2576.09	0.8953
2584.51	0.8683
2592.94	0.8687
2601.36	0.8789
2609.79	0.8905
2618.21	0.898
2626.64	0.8962
2635.06	0.896
2643.49	0.8959
2651.91	0.8998
2660.33	0.9
2668.76	0.9
2677.18	0.9
2685.61	0.898
2694.03	0.8882
2702.46	0.883
2710.88	0.8715
2719.31	0.8592
2727.73	0.8399
2736.16	0.7423
2744.58	0.7689
2753.01	0.8633
2761.43	0.871
2769.85	0.8692
2778.28	0.8681
2786.7	0.859
2795.13	0.851
2803.55	0.8391
2811.98	0.8175
2820.4	0.7919
2828.83	0.7499
2837.25	0.7123
2845.68	0.6499
2854.1	0.5336
2862.53	0.3961
2870.95	0.2701
2879.37	0.2208
2887.8	0.2643
2896.22	0.3106
2904.65	0.314
2913.07	0.2859
2921.5	0.1688
2929.92	0.0605
2938.35	0.092
2946.77	0.1858
2955.2	0.191
2963.62	0.2171
2972.05	0.248
2980.47	0.2264
2988.89	0.2278
2997.32	0.2232
3005.74	0.1603
3014.17	0.1753
3022.59	0.1797
3031.02	0.1295
3039.44	0.248
3047.87	0.2435
3056.29	0.2089
3064.72	0.3454
3073.14	0.5733
3081.57	0.6572
3089.99	0.6762
3098.41	0.6336
3106.84	0.6957
3115.26	0.7762
3123.69	0.8297
3132.11	0.832
3140.54	0.7892
3148.96	0.8251
3157.39	0.8676
3165.81	0.879
3174.24	0.8837
3182.66	0.888
3191.09	0.888
3199.51	0.89
3207.93	0.891
3216.36	0.891
3224.78	0.89
3233.21	0.891
3241.63	0.8912
3250.06	0.891
3258.48	0.89
3266.91	0.89
3275.33	0.891
3283.76	0.891
3292.18	0.893
3300.6	0.891
3309.03	0.891
3317.45	0.891
3325.88	0.8912
3334.3	0.891
3342.73	0.89
3351.15	0.89
3359.58	0.89
3368	0.8882
3376.43	0.888
3384.85	0.886
3393.28	0.891
3401.7	0.891
3410.12	0.8928
3418.55	0.891
3426.97	0.891
3435.4	0.891
3443.82	0.891
3452.25	0.893
3460.67	0.8948
3469.1	0.891
3477.52	0.89
3485.95	0.891
3494.37	0.89
3502.8	0.8912
3511.22	0.895
3519.64	0.895
3528.07	0.895
3536.49	0.898
3544.92	0.898
3553.34	0.8982
3561.77	0.898
3570.19	0.898
3578.62	0.9
3587.04	0.9
3595.47	0.898
3603.89	0.898
3612.32	0.9
3620.74	0.898
3629.16	0.8912
3637.59	0.89
3646.01	0.8882
3654.44	0.8842
3662.86	0.8812
3671.29	0.879
3679.71	0.888
3688.14	0.89
3696.56	0.891
3704.99	0.891
3713.41	0.893
3721.84	0.891
3730.26	0.8912
3738.68	0.89
3747.11	0.89
3755.53	0.89
3763.96	0.89
3772.38	0.89
3780.81	0.89
3789.23	0.89
3797.66	0.89
3806.08	0.888
3814.51	0.886
3822.93	0.883
3831.36	0.879
3839.78	0.879
3848.2	0.878
3856.63	0.8762
3865.05	0.876
3873.48	0.874
3881.9	0.874
3890.33	0.874
3898.75	0.874
3907.18	0.874
3915.6	0.874
3924.03	0.876
3932.45	0.876
3940.88	0.874
