Infrared Spectrum: 1,4-Dimethylbenzene
Formula: 1,4-( C H3)2 C6 H4
CAS: 106-42-3
State: gas
Melting point: 13.26 C
Boiling point: 138.35 C
Class: IUPAC A
Instrument: IFS66V (Bruker)
Instrument parameters: KBr Beam Splitter; MCT Detector; Multipass cell
Sampling: 1 L/min Flow
Resolution: 0.4820
Temperature: 23 C
Pressure: 101.3 Pa
Origin: NIST, Analytical Chemistry Division, 301-975-3108
cm-1	(micromol/mol)-1m-1 (base 10)
575.17	1.8601e-06
583.848	-2.19876e-07
592.526	-1.36233e-07
601.205	-9.13492e-07
609.883	-1.28438e-08
618.561	-6.08723e-07
627.239	-3.05168e-07
635.917	-9.95377e-07
644.595	-2.94871e-07
653.274	-2.28664e-08
661.952	-5.22007e-07
670.63	-3.33808e-07
679.308	2.91635e-07
687.986	-1.50002e-07
696.664	3.26259e-07
705.343	8.39632e-08
714.021	1.91429e-07
722.699	3.81045e-07
731.377	4.01054e-07
740.055	3.56802e-07
748.734	5.39418e-07
757.412	1.12342e-06
766.09	6.93211e-06
774.768	4.19257e-05
783.446	0.000137673
792.124	0.000193237
800.803	0.00018004
809.481	0.000105355
818.159	2.01948e-05
826.837	6.18127e-06
835.515	4.35612e-06
844.193	1.79978e-06
852.872	1.04121e-06
861.55	7.91188e-07
870.228	1.06028e-06
878.906	1.14633e-06
887.584	1.33454e-06
896.263	1.46732e-06
904.941	1.40813e-06
913.619	2.34533e-06
922.297	2.93643e-06
930.975	2.6384e-06
939.653	2.65361e-06
948.332	3.22111e-06
957.01	4.31661e-06
965.688	4.63665e-06
974.366	4.56326e-06
983.044	4.56107e-06
991.723	4.69207e-06
1000.4	5.11564e-06
1009.08	5.44381e-06
1017.76	2.19323e-05
1026.44	2.09962e-05
1035.11	1.79847e-05
1043.79	2.36764e-05
1052.47	2.44894e-05
1061.15	1.85763e-05
1069.83	1.22884e-05
1078.5	9.05731e-06
1087.18	1.11339e-05
1095.86	1.85356e-05
1104.54	2.40014e-05
1113.22	3.93728e-05
1121.9	2.86298e-05
1130.57	2.19618e-05
1139.25	7.7819e-06
1147.93	3.94641e-06
1156.61	3.13844e-06
1165.29	3.21502e-06
1173.96	3.29397e-06
1182.64	3.34847e-06
1191.32	3.03312e-06
1200	2.71649e-06
1208.68	5.57799e-06
1217.36	1.30779e-05
1226.03	1.75442e-05
1234.71	1.37214e-05
1243.39	1.19315e-05
1252.07	4.81544e-06
1260.75	3.07788e-06
1269.42	2.89349e-06
1278.1	2.33718e-06
1286.78	2.3042e-06
1295.46	2.50953e-06
1304.14	3.62216e-06
1312.82	5.07935e-06
1321.49	5.7478e-06
1330.17	6.2352e-06
1338.85	7.56868e-06
1347.53	8.5e-06
1356.21	8.79893e-06
1364.88	8.33863e-06
1373.56	1.13624e-05
1382.24	2.07893e-05
1390.92	2.45277e-05
1399.6	1.57882e-05
1408.28	1.91599e-05
1416.95	2.48406e-05
1425.63	3.48262e-05
1434.31	3.64614e-05
1442.99	3.29784e-05
1451.67	3.2417e-05
1460.34	3.20172e-05
1469.02	4.72694e-05
1477.7	3.59644e-05
1486.38	4.14367e-05
1495.06	4.56891e-05
1503.73	5.75529e-05
1512.41	0.000188797
1521.09	0.000244608
1529.77	0.000129854
1538.45	2.66371e-05
1547.13	1.60259e-05
1555.8	1.27406e-05
1564.48	1.01237e-05
1573.16	7.64991e-06
1581.84	5.82581e-06
1590.52	4.90554e-06
1599.19	5.4738e-06
1607.87	7.62277e-06
1616.55	1.26352e-05
1625.23	1.55137e-05
1633.91	1.42896e-05
1642.59	5.74928e-06
1651.26	2.54427e-06
1659.94	1.75464e-06
1668.62	1.4627e-06
1677.3	1.22059e-06
1685.98	9.17131e-07
1694.65	8.62421e-07
1703.33	8.11154e-07
1712.01	1.11615e-06
1720.69	2.94017e-06
1729.37	2.87412e-06
1738.05	2.25619e-06
1746.72	2.98304e-06
1755.4	3.44792e-06
1764.08	2.8219e-06
1772.76	2.94314e-06
1781.44	9.87868e-06
1790.11	1.19978e-05
1798.79	5.98176e-06
1807.47	1.43741e-06
1816.15	9.63948e-07
1824.83	1.24892e-06
1833.51	3.36221e-06
1842.18	4.07601e-06
1850.86	2.66237e-06
1859.54	2.19404e-06
1868.22	4.7415e-06
1876.9	1.22347e-05
1885.57	2.04601e-05
1894.25	2.1901e-05
1902.93	8.43941e-06
1911.61	3.25906e-06
1920.29	2.32774e-06
1928.97	1.94736e-06
1937.64	1.0735e-06
1946.32	8.40878e-07
1955	1.19903e-06
1963.68	8.97142e-07
1972.36	1.07888e-06
1981.03	1.42374e-06
1989.71	1.29018e-06
1998.39	1.0412e-06
2007.07	8.85988e-07
2015.75	5.96223e-07
2024.43	2.68555e-07
2033.1	3.58464e-07
2041.78	3.77213e-07
2050.46	1.73663e-07
2059.14	1.72039e-08
2067.82	-8.23088e-08
2076.49	-2.90782e-08
2085.17	2.13632e-07
2093.85	8.04302e-07
2102.53	1.84909e-06
2111.21	2.02133e-06
2119.89	8.50724e-07
2128.56	-1.27117e-07
2137.24	-1.34597e-07
2145.92	-1.17565e-07
2154.6	7.03832e-07
2163.28	-7.35141e-09
2171.95	1.41158e-07
2180.63	6.22264e-08
2189.31	-3.94628e-09
2197.99	1.40772e-07
2206.67	7.78448e-07
2215.35	7.8296e-07
2224.02	9.01232e-08
2232.7	-1.40707e-08
2241.38	-9.69953e-08
2250.06	-1.71375e-07
2258.74	-7.68164e-08
2267.41	8.72374e-08
2276.09	5.14176e-07
2284.77	6.07198e-07
2293.45	1.20831e-06
2302.13	2.43454e-06
2310.81	2.66843e-06
2319.48	1.77477e-06
2328.16	1.47647e-06
2336.84	2.178e-06
2345.52	2.38585e-06
2354.2	1.84392e-06
2362.87	2.17781e-06
2371.55	1.12408e-06
2380.23	4.29418e-07
2388.91	5.36118e-07
2397.59	5.07066e-07
2406.27	1.06117e-06
2414.94	1.44104e-06
2423.62	1.58038e-06
2432.3	1.33349e-06
2440.98	1.14685e-06
2449.66	8.98306e-07
2458.33	7.11302e-07
2467.01	8.90842e-07
2475.69	7.591e-07
2484.37	7.72963e-07
2493.05	6.6378e-07
2501.73	4.3315e-07
2510.4	3.22904e-07
2519.08	3.14879e-07
2527.76	3.1924e-07
2536.44	2.75901e-07
2545.12	1.81163e-07
2553.79	-1.10482e-07
2562.47	-2.06342e-07
2571.15	1.80243e-07
2579.83	1.43328e-06
2588.51	3.00863e-06
2597.19	3.19584e-06
2605.86	1.68439e-06
2614.54	8.54415e-07
2623.22	2.70734e-07
2631.9	1.55807e-07
2640.58	4.58856e-07
2649.25	2.75966e-07
2657.93	-6.07239e-08
2666.61	-1.29147e-07
2675.29	-1.26854e-07
2683.97	1.57578e-08
2692.65	8.6035e-08
2701.32	7.68293e-07
2710	1.45272e-06
2718.68	1.96626e-06
2727.36	2.95321e-06
2736.04	1.09793e-05
2744.71	1.75766e-05
2753.39	7.86593e-06
2762.07	1.63872e-06
2770.75	7.64016e-07
2779.43	1.13121e-06
2788.11	1.6683e-06
2796.78	2.38125e-06
2805.46	3.45831e-06
2814.14	4.60335e-06
2822.82	6.96904e-06
2831.5	1.02494e-05
2840.17	1.36849e-05
2848.85	1.93038e-05
2857.53	3.46058e-05
2866.21	8.20713e-05
2874.89	0.000143669
2883.57	0.00015616
2892.24	0.000128069
2900.92	0.000108488
2909.6	9.65035e-05
2918.28	0.000121562
2926.96	0.000223681
2935.63	0.000306862
2944.31	0.000251094
2952.99	0.000130863
2961.67	9.74928e-05
2970.35	7.37045e-05
2979.03	8.59325e-05
2987.7	0.0001121
2996.38	0.00016273
3005.06	0.000211416
3013.74	0.000196706
3022.42	0.000238003
3031.09	0.00022962
3039.77	0.000163498
3048.45	0.000155081
3057.13	0.000147463
3065.81	0.000113978
3074.49	5.39483e-05
3083.16	2.87336e-05
3091.84	2.54506e-05
3100.52	2.73541e-05
3109.2	2.51814e-05
3117.88	1.56324e-05
3126.55	6.46877e-06
3135.23	7.2602e-06
3143.91	9.36704e-06
3152.59	6.49646e-06
3161.27	1.41434e-06
3169.95	3.51797e-07
3178.62	-8.93101e-08
3187.3	-2.47401e-07
3195.98	-3.64326e-07
3204.66	-3.96083e-07
3213.34	-3.49959e-07
3222.01	-2.68352e-07
3230.69	-1.72978e-07
3239.37	-3.53393e-07
3248.05	-2.51579e-07
3256.73	-3.87088e-08
3265.4	5.48077e-08
3274.08	-3.78148e-08
3282.76	1.615e-07
3291.44	3.43634e-07
3300.12	-1.18286e-07
3308.8	-2.03648e-07
3317.47	5.72797e-09
3326.15	1.48592e-08
3334.83	1.13131e-07
3343.51	-3.6355e-08
3352.19	-1.06374e-08
3360.86	-6.96206e-08
3369.54	-7.83489e-08
3378.22	2.29218e-07
3386.9	2.59174e-07
3395.58	2.32884e-07
3404.26	9.50781e-09
3412.93	5.87985e-08
3421.61	-7.04327e-08
3430.29	1.07151e-07
3438.97	8.5412e-08
3447.65	1.05576e-07
3456.32	2.09828e-07
3465	-3.14648e-07
3473.68	-3.16659e-07
3482.36	-3.34175e-07
3491.04	-2.3856e-07
3499.72	-2.93731e-07
3508.39	-1.27537e-07
3517.07	-2.995e-07
3525.75	-2.34692e-07
3534.43	-5.37828e-07
3543.11	-1.63582e-07
3551.78	-6.10705e-07
3560.46	-6.73275e-07
3569.14	-6.13889e-07
3577.82	-5.51304e-07
3586.5	-7.54839e-07
3595.18	-3.90389e-07
3603.85	-1.24392e-07
3612.53	-4.14394e-07
3621.21	-2.23377e-07
3629.89	-3.52238e-07
3638.57	5.24603e-08
3647.24	2.54293e-08
3655.92	4.83197e-07
3664.6	1.00255e-06
3673.28	1.0349e-06
3681.96	1.07457e-06
3690.64	3.17852e-07
3699.31	5.00932e-07
3707.99	2.09536e-07
3716.67	5.46831e-08
3725.35	2.64652e-08
3734.03	1.23415e-07
3742.7	4.78054e-07
3751.38	7.01491e-07
3760.06	6.80187e-07
3768.74	7.49304e-07
3777.42	3.69382e-07
3786.1	2.93024e-07
3794.77	4.65621e-07
3803.45	3.94118e-07
3812.13	6.12857e-07
3820.81	4.15019e-07
3829.49	1.16318e-06
3838.16	6.78972e-07
3846.84	1.66612e-06
3855.52	1.82581e-06
3864.2	1.67348e-06
3872.88	1.88347e-06
3881.56	1.90192e-06
3890.23	2.08139e-06
3898.91	1.91789e-06
3907.59	1.98853e-06
3916.27	2.1313e-06
3924.95	2.31819e-06
3933.62	2.43753e-06
3942.3	2.17093e-06
3950.98	2.11191e-06
3959.66	2.10941e-06
3968.34	2.03907e-06
