Infrared Spectrum: Butane
Formula: C4 H10
CAS: 106-97-8
State: gas
Melting point: -138.35 C
Boiling point: -0.5 C
Class: IUPAC A
Instrument: IFS66V (Bruker)
Instrument parameters: KBr Beam Splitter; MCT Detector; Multipass cell
Sampling: 1 L/min Flow
Resolution: 0.4820
Temperature: 23 C
Pressure: 101.3 Pa
Origin: NIST, Analytical Chemistry Division, 301-975-3108
cm-1	(micromol/mol)-1m-1 (base 10)
575.17	-4.8394e-07
583.848	-1.64127e-07
592.526	3.15277e-07
601.205	3.74073e-09
609.883	-6.85883e-08
618.561	-1.93567e-08
627.239	8.71655e-09
635.917	-1.13795e-07
644.595	1.59597e-08
653.274	-1.50517e-07
661.952	1.42608e-09
670.63	-9.26679e-08
679.308	6.90494e-08
687.986	4.50943e-07
696.664	9.68485e-07
705.343	2.31593e-06
714.021	4.00188e-06
722.699	5.23339e-06
731.377	1.01347e-05
740.055	8.80553e-06
748.734	1.07434e-05
757.412	8.02877e-06
766.09	5.67179e-06
774.768	3.42406e-06
783.446	2.75862e-06
792.124	1.90278e-06
800.803	1.58014e-06
809.481	8.15949e-07
818.159	3.67738e-07
826.837	9.90144e-08
835.515	4.77646e-08
844.193	4.92871e-08
852.872	-1.51057e-08
861.55	-5.22638e-08
870.228	8.67499e-08
878.906	-3.68443e-08
887.584	-1.74795e-08
896.263	-5.22138e-09
904.941	-2.57977e-08
913.619	2.81192e-07
922.297	6.76401e-07
930.975	1.94136e-06
939.653	5.13833e-06
948.332	1.12672e-05
957.01	1.87835e-05
965.688	1.97923e-05
974.366	1.6912e-05
983.044	1.06367e-05
991.723	7.17084e-06
1000.4	3.63989e-06
1009.08	1.84753e-06
1017.76	9.82276e-07
1026.44	4.89875e-07
1035.11	3.99362e-07
1043.79	1.42807e-07
1052.47	3.42987e-08
1061.15	7.65572e-08
1069.83	1.65117e-07
1078.5	1.02234e-07
1087.18	2.5172e-07
1095.86	1.92588e-07
1104.54	3.29462e-07
1113.22	7.96278e-07
1121.9	2.2302e-06
1130.57	2.83325e-06
1139.25	1.89256e-06
1147.93	2.14271e-06
1156.61	5.17704e-07
1165.29	1.66237e-07
1173.96	1.9879e-07
1182.64	2.10402e-07
1191.32	1.77946e-07
1200	1.81744e-07
1208.68	2.47506e-07
1217.36	3.4988e-07
1226.03	4.72739e-07
1234.71	6.62623e-07
1243.39	1.0426e-06
1252.07	1.50492e-06
1260.75	1.72187e-06
1269.42	2.30939e-06
1278.1	4.80889e-06
1286.78	8.22837e-06
1295.46	8.24335e-06
1304.14	7.83495e-06
1312.82	2.89213e-06
1321.49	1.82268e-06
1330.17	3.87448e-06
1338.85	3.77766e-06
1347.53	3.90853e-06
1356.21	6.61019e-06
1364.88	1.01171e-05
1373.56	2.46714e-05
1382.24	2.9384e-05
1390.92	3.73515e-05
1399.6	2.49697e-05
1408.28	9.67056e-06
1416.95	7.95579e-06
1425.63	1.05157e-05
1434.31	1.90714e-05
1442.99	3.66371e-05
1451.67	5.22885e-05
1460.34	6.95808e-05
1469.02	7.03207e-05
1477.7	5.76357e-05
1486.38	4.91584e-05
1495.06	2.99207e-05
1503.73	1.61732e-05
1512.41	8.3406e-06
1521.09	4.26191e-06
1529.77	1.83751e-06
1538.45	1.08967e-06
1547.13	8.93452e-07
1555.8	9.63206e-07
1564.48	1.24613e-06
1573.16	1.59402e-06
1581.84	1.54722e-06
1590.52	1.41146e-06
1599.19	1.12744e-06
1607.87	8.82008e-07
1616.55	1.26754e-06
1625.23	8.19834e-07
1633.91	1.10177e-06
1642.59	9.92526e-07
1651.26	1.11728e-06
1659.94	1.3057e-06
1668.62	1.44455e-06
1677.3	1.29729e-06
1685.98	1.35095e-06
1694.65	1.16284e-06
1703.33	1.11428e-06
1712.01	1.08331e-06
1720.69	1.0266e-06
1729.37	8.22391e-07
1738.05	5.72914e-07
1746.72	3.75812e-07
1755.4	2.71287e-07
1764.08	2.61687e-07
1772.76	4.88529e-07
1781.44	3.12177e-07
1790.11	3.37334e-07
1798.79	3.77246e-07
1807.47	3.74143e-07
1816.15	3.50055e-07
1824.83	3.23409e-07
1833.51	1.57534e-07
1842.18	5.31724e-08
1850.86	2.04126e-08
1859.54	-2.21825e-09
1868.22	2.46308e-08
1876.9	7.18261e-08
1885.57	2.26786e-07
1894.25	3.52675e-07
1902.93	4.73923e-07
1911.61	4.38345e-07
1920.29	4.96619e-07
1928.97	3.74436e-07
1937.64	3.35354e-07
1946.32	1.91477e-07
1955	8.27445e-08
1963.68	-7.47055e-09
1972.36	-5.01302e-08
1981.03	-2.47008e-08
1989.71	-4.93389e-08
1998.39	-3.1241e-08
2007.07	1.33095e-08
2015.75	1.21471e-07
2024.43	4.46193e-07
2033.1	6.31389e-07
2041.78	6.3091e-07
2050.46	5.9697e-07
2059.14	2.22461e-07
2067.82	1.36825e-07
2076.49	1.61002e-07
2085.17	1.86834e-07
2093.85	2.62677e-07
2102.53	3.40621e-07
2111.21	4.84773e-07
2119.89	6.51044e-07
2128.56	5.95495e-07
2137.24	6.10945e-07
2145.92	6.85643e-07
2154.6	7.07133e-07
2163.28	6.65078e-07
2171.95	6.72813e-07
2180.63	6.24775e-07
2189.31	6.49719e-07
2197.99	6.63211e-07
2206.67	7.01802e-07
2215.35	6.78554e-07
2224.02	6.5544e-07
2232.7	5.57516e-07
2241.38	4.12737e-07
2250.06	4.67364e-07
2258.74	5.19447e-07
2267.41	5.74655e-07
2276.09	6.30045e-07
2284.77	7.89784e-07
2293.45	7.92686e-07
2302.13	9.90895e-07
2310.81	8.88464e-07
2319.48	7.80568e-07
2328.16	8.92318e-07
2336.84	1.17037e-06
2345.52	1.05844e-06
2354.2	7.84676e-07
2362.87	-1.57333e-08
2371.55	8.13107e-07
2380.23	1.64147e-06
2388.91	1.45066e-06
2397.59	1.70662e-06
2406.27	1.10382e-06
2414.94	1.47903e-06
2423.62	1.61111e-06
2432.3	1.94199e-06
2440.98	1.76165e-06
2449.66	1.61691e-06
2458.33	9.61576e-07
2467.01	5.55744e-07
2475.69	3.70468e-07
2484.37	2.34181e-07
2493.05	1.91981e-07
2501.73	1.84104e-07
2510.4	3.52966e-07
2519.08	5.40202e-07
2527.76	7.29223e-07
2536.44	6.93849e-07
2545.12	6.97128e-07
2553.79	5.83346e-07
2562.47	7.20878e-07
2571.15	1.04334e-06
2579.83	1.66587e-06
2588.51	2.44719e-06
2597.19	3.35544e-06
2605.86	3.63858e-06
2614.54	4.13987e-06
2623.22	4.19588e-06
2631.9	4.50481e-06
2640.58	4.34833e-06
2649.25	4.74527e-06
2657.93	4.74838e-06
2666.61	4.28102e-06
2675.29	3.65532e-06
2683.97	4.17268e-06
2692.65	3.21235e-06
2701.32	3.04948e-06
2710	3.82412e-06
2718.68	4.8769e-06
2727.36	7.56981e-06
2736.04	1.01917e-05
2744.71	9.29246e-06
2753.39	1.08817e-05
2762.07	7.0482e-06
2770.75	5.82021e-06
2779.43	6.13966e-06
2788.11	6.57964e-06
2796.78	7.75176e-06
2805.46	9.92849e-06
2814.14	1.37599e-05
2822.82	2.00642e-05
2831.5	2.91179e-05
2840.17	4.46565e-05
2848.85	6.80825e-05
2857.53	0.000113491
2866.21	0.000166866
2874.89	0.000248753
2883.57	0.000257625
2892.24	0.000269677
2900.92	0.000249302
2909.6	0.000231795
2918.28	0.000272504
2926.96	0.00035711
2935.63	0.000422619
2944.31	0.000472456
2952.99	0.000534829
2961.67	0.000651467
2970.35	0.000623057
2979.03	0.000571943
2987.7	0.000383223
2996.38	0.000165096
3005.06	6.93168e-05
3013.74	2.73054e-05
3022.42	1.24422e-05
3031.09	8.01224e-06
3039.77	6.72981e-06
3048.45	6.25589e-06
3057.13	6.26623e-06
3065.81	6.90172e-06
3074.49	7.67029e-06
3083.16	7.64716e-06
3091.84	7.22338e-06
3100.52	5.71616e-06
3109.2	4.49854e-06
3117.88	3.92778e-06
3126.55	3.92743e-06
3135.23	4.27929e-06
3143.91	4.87667e-06
3152.59	5.50909e-06
3161.27	6.4905e-06
3169.95	7.23072e-06
3178.62	7.00373e-06
3187.3	7.03425e-06
3195.98	5.46964e-06
3204.66	4.51083e-06
3213.34	4.07634e-06
3222.01	4.13518e-06
3230.69	3.34739e-06
3239.37	2.82452e-06
3248.05	1.8337e-06
3256.73	9.66398e-07
3265.4	6.49452e-07
3274.08	7.15575e-07
3282.76	6.59443e-07
3291.44	7.02091e-07
3300.12	6.64429e-07
3308.8	4.86574e-07
3317.47	3.72195e-07
3326.15	4.20447e-07
3334.83	4.47709e-07
3343.51	6.71841e-07
3352.19	6.72738e-07
3360.86	7.18811e-07
3369.54	7.70859e-07
3378.22	8.60057e-07
3386.9	1.0839e-06
3395.58	1.17599e-06
3404.26	1.07254e-06
3412.93	8.32081e-07
3421.61	3.21548e-07
3430.29	2.04014e-07
3438.97	2.18527e-07
3447.65	1.27611e-07
3456.32	3.53037e-08
3465	1.08951e-07
3473.68	1.23819e-07
3482.36	1.07113e-07
3491.04	6.37161e-08
3499.72	1.17659e-07
3508.39	4.87841e-08
3517.07	4.09007e-08
3525.75	-6.16307e-08
3534.43	-1.01964e-07
3543.11	-2.79986e-08
3551.78	-1.63535e-08
3560.46	2.66544e-08
3569.14	1.75641e-07
3577.82	2.49492e-07
3586.5	3.21037e-07
3595.18	3.62414e-07
3603.85	4.05864e-07
3612.53	6.28996e-07
3621.21	6.52503e-07
3629.89	7.86405e-07
3638.57	7.98735e-07
3647.24	8.76445e-07
3655.92	7.97829e-07
3664.6	7.79859e-07
3673.28	8.17511e-07
3681.96	9.0848e-07
3690.64	9.98559e-07
3699.31	9.67806e-07
3707.99	9.91302e-07
3716.67	1.26942e-06
3725.35	1.19649e-06
3734.03	1.332e-06
3742.7	9.47912e-07
3751.38	6.83494e-07
3760.06	7.12489e-07
3768.74	5.95649e-07
3777.42	5.60173e-07
3786.1	4.97308e-07
3794.77	4.56557e-07
3803.45	4.45302e-07
3812.13	4.81208e-07
3820.81	7.52919e-07
3829.49	7.53955e-07
3838.16	1.4465e-06
3846.84	1.58854e-06
3855.52	1.8599e-06
3864.2	1.65535e-06
3872.88	1.3813e-06
3881.56	1.21994e-06
3890.23	1.06686e-06
3898.91	9.6884e-07
3907.59	8.70721e-07
3916.27	7.6461e-07
3924.95	6.74029e-07
3933.62	6.56735e-07
3942.3	5.53574e-07
3950.98	4.68466e-07
3959.66	4.64543e-07
3968.34	5.09128e-07
