Infrared Spectrum: 1,4-Dimethylbenzene
Formula: 1,4-( C H3)2 C6 H4
CAS: 106-42-3
State: gas
Melting point: 13.26 C
Boiling point: 138.35 C
Class: IUPAC A
Instrument: IFS66V (Bruker)
Instrument parameters: KBr Beam Splitter; MCT Detector; Multipass cell
Sampling: 1 L/min Flow
Resolution: 0.4820
Temperature: 23 C
Pressure: 101.3 Pa
Origin: NIST, Analytical Chemistry Division, 301-975-3108
cm-1	(micromol/mol)-1m-1 (base 10)
575.17	2.16471e-06
583.848	-8.88102e-07
592.526	-2.13871e-07
601.205	-8.22026e-07
609.883	2.48809e-08
618.561	-1.39937e-06
627.239	-8.66555e-07
635.917	-1.11194e-06
644.595	-1.34364e-07
653.274	-6.6752e-08
661.952	-3.88708e-07
670.63	-8.80116e-07
679.308	2.82178e-08
687.986	-2.14708e-07
696.664	3.5237e-07
705.343	4.10738e-07
714.021	4.39868e-07
722.699	4.73626e-07
731.377	5.3117e-07
740.055	6.33801e-07
748.734	5.44673e-07
757.412	1.26041e-06
766.09	7.03548e-06
774.768	4.21275e-05
783.446	0.000137867
792.124	0.000192585
800.803	0.000179787
809.481	0.000105498
818.159	2.00135e-05
826.837	6.72679e-06
835.515	4.61444e-06
844.193	1.86874e-06
852.872	9.3547e-07
861.55	9.05447e-07
870.228	1.02122e-06
878.906	1.0505e-06
887.584	1.61486e-06
896.263	1.47184e-06
904.941	1.27964e-06
913.619	2.24655e-06
922.297	2.8733e-06
930.975	2.49823e-06
939.653	2.59908e-06
948.332	3.18734e-06
957.01	4.41527e-06
965.688	4.71862e-06
974.366	4.62345e-06
983.044	4.66427e-06
991.723	4.64114e-06
1000.4	5.14337e-06
1009.08	5.5108e-06
1017.76	2.21413e-05
1026.44	2.09209e-05
1035.11	1.7963e-05
1043.79	2.38214e-05
1052.47	2.44536e-05
1061.15	1.86478e-05
1069.83	1.21441e-05
1078.5	8.83175e-06
1087.18	1.10746e-05
1095.86	1.83776e-05
1104.54	2.38888e-05
1113.22	3.94424e-05
1121.9	2.85867e-05
1130.57	2.2048e-05
1139.25	7.74702e-06
1147.93	4.12471e-06
1156.61	3.13858e-06
1165.29	3.2157e-06
1173.96	3.35024e-06
1182.64	3.25127e-06
1191.32	2.93792e-06
1200	2.83326e-06
1208.68	5.48306e-06
1217.36	1.30348e-05
1226.03	1.76768e-05
1234.71	1.36004e-05
1243.39	1.18627e-05
1252.07	4.79379e-06
1260.75	2.99191e-06
1269.42	2.95229e-06
1278.1	2.3165e-06
1286.78	2.23452e-06
1295.46	2.45895e-06
1304.14	3.47191e-06
1312.82	5.15409e-06
1321.49	5.7748e-06
1330.17	6.14477e-06
1338.85	7.633e-06
1347.53	8.34532e-06
1356.21	9.23707e-06
1364.88	8.14584e-06
1373.56	1.1484e-05
1382.24	2.06456e-05
1390.92	2.43951e-05
1399.6	1.58183e-05
1408.28	1.92242e-05
1416.95	2.48089e-05
1425.63	3.48494e-05
1434.31	3.63102e-05
1442.99	3.30494e-05
1451.67	3.27153e-05
1460.34	3.19373e-05
1469.02	4.72913e-05
1477.7	3.59672e-05
1486.38	4.14375e-05
1495.06	4.58629e-05
1503.73	5.75876e-05
1512.41	0.000188597
1521.09	0.000244568
1529.77	0.00012969
1538.45	2.65224e-05
1547.13	1.60672e-05
1555.8	1.25651e-05
1564.48	1.03507e-05
1573.16	7.71741e-06
1581.84	5.93158e-06
1590.52	5.07248e-06
1599.19	5.31023e-06
1607.87	7.70481e-06
1616.55	1.24942e-05
1625.23	1.5526e-05
1633.91	1.42432e-05
1642.59	5.85109e-06
1651.26	2.43784e-06
1659.94	1.7306e-06
1668.62	1.55529e-06
1677.3	1.20997e-06
1685.98	8.53987e-07
1694.65	9.21622e-07
1703.33	6.73656e-07
1712.01	1.17781e-06
1720.69	3.01222e-06
1729.37	2.9802e-06
1738.05	2.30073e-06
1746.72	3.05921e-06
1755.4	3.47546e-06
1764.08	2.81752e-06
1772.76	2.54227e-06
1781.44	9.89553e-06
1790.11	1.19765e-05
1798.79	6.01052e-06
1807.47	1.42248e-06
1816.15	9.60568e-07
1824.83	1.26596e-06
1833.51	3.4576e-06
1842.18	4.12375e-06
1850.86	2.67345e-06
1859.54	2.22794e-06
1868.22	4.77842e-06
1876.9	1.22771e-05
1885.57	2.05757e-05
1894.25	2.19461e-05
1902.93	8.34676e-06
1911.61	3.22882e-06
1920.29	2.30047e-06
1928.97	1.94298e-06
1937.64	1.16704e-06
1946.32	9.63368e-07
1955	1.16995e-06
1963.68	8.90331e-07
1972.36	1.00056e-06
1981.03	1.30578e-06
1989.71	1.35704e-06
1998.39	1.13841e-06
2007.07	9.13981e-07
2015.75	6.01768e-07
2024.43	2.90025e-07
2033.1	3.57709e-07
2041.78	3.4294e-07
2050.46	7.98532e-10
2059.14	6.66074e-08
2067.82	-1.09666e-07
2076.49	-1.12242e-07
2085.17	2.14988e-07
2093.85	7.06488e-07
2102.53	1.87029e-06
2111.21	1.34295e-06
2119.89	6.2351e-07
2128.56	-9.45215e-08
2137.24	-1.38482e-07
2145.92	-1.25038e-07
2154.6	1.50597e-06
2163.28	-3.5763e-08
2171.95	7.93348e-09
2180.63	-6.17562e-08
2189.31	2.70173e-08
2197.99	1.18639e-07
2206.67	5.23797e-07
2215.35	6.8485e-07
2224.02	1.97116e-07
2232.7	-1.16643e-07
2241.38	-4.03823e-08
2250.06	-2.20408e-07
2258.74	-1.09608e-07
2267.41	1.25512e-07
2276.09	6.61162e-07
2284.77	6.00228e-07
2293.45	1.28408e-06
2302.13	2.4783e-06
2310.81	2.65031e-06
2319.48	1.46084e-06
2328.16	1.48283e-06
2336.84	1.89063e-06
2345.52	2.40834e-06
2354.2	1.67828e-06
2362.87	3.27242e-06
2371.55	1.36012e-06
2380.23	2.24843e-07
2388.91	5.33206e-07
2397.59	5.5806e-07
2406.27	1.05157e-06
2414.94	1.431e-06
2423.62	1.6794e-06
2432.3	1.24914e-06
2440.98	1.16493e-06
2449.66	7.36073e-07
2458.33	6.26871e-07
2467.01	9.32498e-07
2475.69	6.85536e-07
2484.37	7.59081e-07
2493.05	5.50577e-07
2501.73	3.6966e-07
2510.4	2.28292e-07
2519.08	3.95885e-07
2527.76	3.06273e-07
2536.44	3.69723e-07
2545.12	3.69679e-07
2553.79	-1.21808e-08
2562.47	-3.68057e-07
2571.15	1.62628e-07
2579.83	1.28753e-06
2588.51	3.03388e-06
2597.19	3.29808e-06
2605.86	1.68534e-06
2614.54	1.00165e-06
2623.22	3.66779e-07
2631.9	4.8534e-08
2640.58	5.029e-07
2649.25	3.39102e-07
2657.93	4.43176e-08
2666.61	-3.26333e-07
2675.29	-1.55483e-07
2683.97	-1.38929e-07
2692.65	-2.49946e-08
2701.32	8.35745e-07
2710	1.37938e-06
2718.68	1.90645e-06
2727.36	2.985e-06
2736.04	1.09913e-05
2744.71	1.77065e-05
2753.39	7.71257e-06
2762.07	1.54728e-06
2770.75	5.74578e-07
2779.43	1.12405e-06
2788.11	1.69468e-06
2796.78	2.48862e-06
2805.46	3.40329e-06
2814.14	4.49417e-06
2822.82	6.99042e-06
2831.5	1.02495e-05
2840.17	1.38741e-05
2848.85	1.94661e-05
2857.53	3.45835e-05
2866.21	8.21696e-05
2874.89	0.000143585
2883.57	0.000155981
2892.24	0.000128066
2900.92	0.000108457
2909.6	9.64048e-05
2918.28	0.000121767
2926.96	0.000223498
2935.63	0.000306864
2944.31	0.000251146
2952.99	0.000130789
2961.67	9.77193e-05
2970.35	7.37738e-05
2979.03	8.61478e-05
2987.7	0.000112142
2996.38	0.000162782
3005.06	0.000211509
3013.74	0.00019668
3022.42	0.000238095
3031.09	0.000229483
3039.77	0.000163473
3048.45	0.000155
3057.13	0.000147437
3065.81	0.000113945
3074.49	5.41171e-05
3083.16	2.86217e-05
3091.84	2.55647e-05
3100.52	2.73184e-05
3109.2	2.51743e-05
3117.88	1.57427e-05
3126.55	6.54724e-06
3135.23	7.12823e-06
3143.91	9.30397e-06
3152.59	6.43736e-06
3161.27	1.41563e-06
3169.95	3.39145e-07
3178.62	-8.62769e-08
3187.3	-1.01657e-07
3195.98	-2.94442e-07
3204.66	-3.67491e-07
3213.34	-2.7559e-07
3222.01	-2.34276e-07
3230.69	-3.09391e-07
3239.37	-3.06554e-07
3248.05	-3.68435e-07
3256.73	-1.7283e-08
3265.4	6.7637e-08
3274.08	2.18895e-07
3282.76	4.04486e-07
3291.44	4.67377e-07
3300.12	-1.93615e-07
3308.8	-4.3648e-07
3317.47	4.8896e-08
3326.15	-2.4721e-07
3334.83	1.6811e-07
3343.51	1.03064e-07
3352.19	-1.91539e-08
3360.86	-1.23148e-07
3369.54	8.77567e-09
3378.22	3.06388e-07
3386.9	3.57293e-07
3395.58	7.05219e-09
3404.26	-9.96137e-08
3412.93	1.5633e-07
3421.61	-2.1993e-07
3430.29	8.59795e-08
3438.97	-1.01585e-07
3447.65	1.78062e-07
3456.32	5.07534e-07
3465	-5.54998e-07
3473.68	-1.88016e-07
3482.36	-4.5592e-07
3491.04	-3.50355e-07
3499.72	-6.16344e-07
3508.39	-6.75524e-08
3517.07	-3.64824e-07
3525.75	-1.04085e-07
3534.43	-5.20629e-07
3543.11	5.58336e-08
3551.78	-8.36886e-07
3560.46	-6.01029e-07
3569.14	-6.75694e-07
3577.82	-3.89202e-07
3586.5	-7.81859e-07
3595.18	-5.44407e-07
3603.85	-1.0426e-07
3612.53	-5.74578e-07
3621.21	-4.21941e-07
3629.89	-2.92764e-07
3638.57	1.31658e-08
3647.24	-1.05627e-07
3655.92	8.66251e-07
3664.6	1.10278e-06
3673.28	1.04965e-06
3681.96	1.26614e-06
3690.64	1.95815e-07
3699.31	4.61268e-07
3707.99	1.27154e-07
3716.67	7.68947e-08
3725.35	3.70071e-09
3734.03	1.71272e-07
3742.7	7.50959e-07
3751.38	5.90022e-07
3760.06	6.78185e-07
3768.74	7.58932e-07
3777.42	3.26624e-07
3786.1	2.95695e-07
3794.77	5.17832e-07
3803.45	3.73759e-07
3812.13	5.50886e-07
3820.81	2.29933e-07
3829.49	1.10481e-06
3838.16	9.53236e-07
3846.84	1.69466e-06
3855.52	1.96555e-06
3864.2	1.49737e-06
3872.88	1.96069e-06
3881.56	2.01271e-06
3890.23	2.10384e-06
3898.91	2.21478e-06
3907.59	1.80969e-06
3916.27	2.01617e-06
3924.95	2.30331e-06
3933.62	2.55631e-06
3942.3	2.22044e-06
3950.98	2.25548e-06
3959.66	2.32806e-06
3968.34	2.12299e-06
