Infrared Spectrum: 1,3-Butadiene
Formula: C H2: C H C H: C H2
CAS: 106-99-0
State: gas
Melting point: -108.91 C
Boiling point: -4.41 C
Class: IUPAC A
Instrument: IFS66V (Bruker)
Instrument parameters: KBr Beam splitter; MCT Detector; Multipass cell
Sampling: 1 L/min Flow
Resolution: 1.9290
Temperature: 23 C
Pressure: 101.3 kPa
Origin: NIST, Anayltical Chemistry Division, 301-975-3108
cm-1	(micromol/mol)-1m-1 (base 10)
574.687	4.71119e-06
583.365	3.26022e-06
592.043	1.90672e-06
600.721	1.74753e-06
609.4	8.76822e-07
618.078	6.62787e-07
626.756	7.21884e-07
635.434	1.10759e-06
644.112	1.65074e-06
652.79	2.42691e-06
661.469	2.69908e-06
670.147	3.48418e-06
678.825	2.63748e-06
687.503	2.29424e-06
696.181	1.68539e-06
704.859	1.20683e-06
713.537	6.76864e-07
722.216	7.07118e-07
730.894	7.51466e-07
739.572	1.06082e-06
748.25	9.09545e-07
756.928	1.10162e-06
765.606	8.99115e-07
774.285	7.48896e-07
782.963	5.34781e-07
791.641	5.92208e-07
800.319	4.556e-07
808.997	7.79932e-07
817.675	1.06766e-06
826.353	2.18072e-06
835.032	4.21991e-06
843.71	8.42344e-06
852.388	1.67667e-05
861.066	3.11242e-05
869.744	5.19732e-05
878.422	8.04635e-05
887.101	0.000108013
895.779	0.000124194
904.457	0.000135623
913.135	0.000136915
921.813	0.000156595
930.491	0.000146501
939.169	0.000104357
947.848	6.17136e-05
956.526	3.55419e-05
965.204	2.58044e-05
973.882	2.9518e-05
982.56	5.08059e-05
991.238	6.33536e-05
999.917	9.28698e-05
1008.59	9.44328e-05
1017.27	7.58086e-05
1025.95	7.32973e-05
1034.63	6.57864e-05
1043.31	5.13781e-05
1051.99	3.79068e-05
1060.66	2.23061e-05
1069.34	1.4107e-05
1078.02	1.00252e-05
1086.7	4.88013e-06
1095.38	1.93246e-06
1104.05	6.14651e-07
1112.73	3.19655e-07
1121.41	2.23303e-07
1130.09	2.86891e-07
1138.77	2.52669e-07
1147.45	2.5461e-07
1156.12	1.89782e-07
1164.8	1.82436e-07
1173.48	1.86156e-07
1182.16	2.20065e-07
1190.84	1.27616e-07
1199.51	1.93651e-07
1208.19	2.86285e-07
1216.87	5.08226e-07
1225.55	8.41635e-07
1234.23	1.41764e-06
1242.9	2.37159e-06
1251.58	3.96486e-06
1260.26	5.71309e-06
1268.94	5.16462e-06
1277.62	7.93993e-06
1286.3	7.11155e-06
1294.97	4.0633e-06
1303.65	6.36287e-06
1312.33	4.46665e-06
1321.01	3.09885e-06
1329.69	2.82291e-06
1338.36	2.74534e-06
1347.04	3.06436e-06
1355.72	4.56504e-06
1364.4	1.28474e-05
1373.08	2.1236e-05
1381.76	1.36145e-05
1390.43	1.92287e-05
1399.11	8.40612e-06
1407.79	5.09507e-06
1416.47	5.59965e-06
1425.15	5.24364e-06
1433.82	4.38498e-06
1442.5	5.33651e-06
1451.18	3.9489e-06
1459.86	3.38587e-06
1468.54	3.91615e-06
1477.22	6.13201e-06
1485.89	5.02463e-06
1494.57	5.45223e-06
1503.25	3.84075e-06
1511.93	2.74844e-06
1520.61	2.67883e-06
1529.28	9.45742e-07
1537.96	1.37886e-06
1546.64	1.00149e-06
1555.32	2.29301e-06
1564	5.69133e-06
1572.67	1.86608e-05
1581.35	6.61479e-05
1590.03	0.000101687
1598.71	6.4818e-05
1607.39	0.000102727
1616.07	1.91493e-05
1624.74	3.66783e-06
1633.42	3.06485e-06
1642.1	3.1925e-06
1650.78	3.00793e-06
1659.46	1.60279e-06
1668.13	2.15064e-06
1676.81	1.18423e-06
1685.49	2.07905e-06
1694.17	7.06551e-07
1702.85	5.99113e-07
1711.53	6.88109e-07
1720.2	1.08061e-06
1728.88	1.75906e-06
1737.56	2.40711e-06
1746.24	3.68711e-06
1754.92	5.2693e-06
1763.59	3.7194e-06
1772.27	4.47944e-06
1780.95	3.09141e-06
1789.63	4.15537e-06
1798.31	9.8365e-06
1806.98	4.22918e-05
1815.66	4.23858e-05
1824.34	4.48918e-05
1833.02	4.43545e-05
1841.7	7.54867e-06
1850.38	1.6795e-06
1859.05	1.90382e-06
1867.73	2.15023e-06
1876.41	2.05905e-06
1885.09	2.26419e-06
1893.77	1.25346e-06
1902.44	1.22856e-06
1911.12	1.4234e-06
1919.8	1.21094e-06
1928.48	1.29414e-06
1937.16	1.3311e-06
1945.84	1.72006e-06
1954.51	2.69017e-06
1963.19	3.67575e-06
1971.87	2.62731e-06
1980.55	2.91173e-06
1989.23	1.43849e-06
1997.9	7.11696e-07
2006.58	4.71811e-07
2015.26	2.02909e-07
2023.94	5.14329e-08
2032.62	1.14776e-08
2041.3	1.6397e-08
2049.97	-2.61239e-08
2058.65	-2.46687e-08
2067.33	-4.23909e-09
2076.01	4.28192e-08
2084.69	9.68933e-08
2093.36	2.23517e-07
2102.04	3.06486e-07
2110.72	3.27808e-07
2119.4	4.05791e-07
2128.08	2.57507e-07
2136.75	1.7758e-07
2145.43	1.88704e-07
2154.11	2.76171e-07
2162.79	3.76936e-07
2171.47	3.74517e-07
2180.15	4.93053e-07
2188.82	4.33989e-07
2197.5	4.50114e-07
2206.18	3.99169e-07
2214.86	4.14584e-07
2223.54	3.75127e-07
2232.21	4.45381e-07
2240.89	6.43785e-07
2249.57	8.48698e-07
2258.25	1.20182e-06
2266.93	9.52471e-07
2275.61	1.15404e-06
2284.28	8.01328e-07
2292.96	5.92428e-07
2301.64	6.06572e-07
2310.32	5.02506e-07
2319	6.00668e-07
2327.67	7.75028e-07
2336.35	9.11433e-07
2345.03	7.43058e-07
2353.71	7.01292e-07
2362.39	1.02871e-06
2371.06	6.07017e-07
2379.74	1.90254e-07
2388.42	1.52099e-07
2397.1	1.8434e-07
2405.78	2.77977e-07
2414.46	3.60945e-07
2423.13	3.70449e-07
2431.81	4.33714e-07
2440.49	4.09582e-07
2449.17	4.39347e-07
2457.85	5.47872e-07
2466.52	6.64394e-07
2475.2	1.02601e-06
2483.88	1.64518e-06
2492.56	1.16003e-06
2501.24	1.63245e-06
2509.92	9.97489e-07
2518.59	4.27589e-07
2527.27	3.1415e-07
2535.95	2.59044e-07
2544.63	2.17572e-07
2553.31	2.57361e-07
2561.98	3.58707e-07
2570.66	5.33356e-07
2579.34	4.32379e-07
2588.02	4.85714e-07
2596.7	3.83081e-07
2605.38	1.39733e-07
2614.05	1.18492e-07
2622.73	1.39618e-07
2631.41	1.58571e-07
2640.09	1.82208e-07
2648.77	1.79882e-07
2657.44	1.47083e-07
2666.12	1.22747e-07
2674.8	8.07609e-08
2683.48	9.95826e-08
2692.16	1.17156e-07
2700.83	2.18865e-07
2709.51	2.21154e-07
2718.19	4.08898e-07
2726.87	3.43163e-07
2735.55	3.08518e-07
2744.23	2.5493e-07
2752.9	1.94577e-07
2761.58	1.19896e-07
2770.26	1.93531e-07
2778.94	2.0306e-07
2787.62	3.71611e-07
2796.29	3.53295e-07
2804.97	5.06093e-07
2813.65	3.43219e-07
2822.33	4.03246e-07
2831.01	4.77933e-07
2839.69	9.69311e-07
2848.36	1.66513e-06
2857.04	2.02887e-06
2865.72	2.44423e-06
2874.4	2.63885e-06
2883.08	3.29097e-06
2891.75	4.57592e-06
2900.43	5.13315e-06
2909.11	6.07871e-06
2917.79	8.22055e-06
2926.47	8.30888e-06
2935.14	1.12674e-05
2943.82	1.23942e-05
2952.5	1.62249e-05
2961.18	1.99381e-05
2969.86	3.49855e-05
2978.54	4.22773e-05
2987.21	4.23343e-05
2995.89	5.64651e-05
3004.57	5.5875e-05
3013.25	4.35497e-05
3021.93	5.37951e-05
3030.6	4.28834e-05
3039.28	5.31346e-05
3047.96	5.50585e-05
3056.64	4.64481e-05
3065.32	6.70306e-05
3074	6.06056e-05
3082.67	7.454e-05
3091.35	9.3772e-05
3100.03	6.05423e-05
3108.71	9.40433e-05
3117.39	5.25659e-05
3126.06	3.16926e-05
3134.74	2.1294e-05
3143.42	1.25626e-05
3152.1	6.73226e-06
3160.78	3.19757e-06
3169.46	1.51024e-06
3178.13	5.84308e-07
3186.81	4.21902e-07
3195.49	2.57194e-07
3204.17	4.45272e-08
3212.85	1.54057e-07
3221.52	5.38822e-07
3230.2	5.59182e-07
3238.88	9.16344e-07
3247.56	6.54146e-07
3256.24	3.48622e-07
3264.91	2.94223e-07
3273.59	1.98499e-07
3282.27	8.60277e-08
3290.95	1.01101e-07
3299.63	2.20201e-07
3308.31	2.23625e-07
3316.98	2.48926e-07
3325.66	1.8888e-07
3334.34	1.11841e-07
3343.02	1.21299e-07
3351.7	3.92277e-08
3360.37	1.0459e-07
3369.05	7.92948e-08
3377.73	2.70498e-07
3386.41	4.89864e-07
3395.09	5.84346e-07
3403.77	6.18325e-07
3412.44	5.67395e-07
3421.12	3.04311e-07
3429.8	1.66265e-07
3438.48	2.29317e-07
3447.16	3.96989e-07
3455.83	2.13155e-07
3464.51	3.52037e-07
3473.19	1.79216e-07
3481.87	2.19377e-07
3490.55	1.93591e-07
3499.22	2.29894e-07
3507.9	2.10402e-07
3516.58	2.84882e-07
3525.26	2.79057e-07
3533.94	3.38258e-07
3542.62	2.25789e-07
3551.29	3.31927e-07
3559.97	2.76942e-07
3568.65	5.06994e-07
3577.33	3.17652e-07
3586.01	5.92026e-07
3594.68	5.58911e-07
3603.36	5.8577e-07
3612.04	7.03827e-07
3620.72	8.39767e-07
3629.4	1.35522e-06
3638.08	1.91261e-07
3646.75	5.90995e-07
3655.43	3.79552e-07
3664.11	4.18315e-08
3672.79	6.44867e-08
3681.47	3.95642e-08
3690.14	3.71393e-07
3698.82	1.03088e-07
3707.5	9.77855e-08
3716.18	7.11159e-08
3724.86	1.86953e-07
3733.54	3.56908e-07
3742.21	1.74468e-07
3750.89	6.41406e-07
3759.57	4.34182e-07
3768.25	6.80591e-08
3776.93	7.216e-08
3785.6	1.39461e-07
3794.28	9.25696e-08
3802.96	3.94881e-07
3811.64	1.57193e-07
3820.32	7.50761e-07
3828.99	2.21155e-07
3837.67	1.54885e-06
3846.35	2.8787e-07
3855.03	1.56808e-06
3863.71	5.32527e-07
3872.39	4.24535e-07
3881.06	7.14027e-07
3889.74	4.76268e-07
3898.42	6.35536e-07
3907.1	4.33907e-07
3915.78	4.16345e-07
3924.45	5.16265e-07
3933.13	5.40607e-07
3941.81	4.69392e-07
3950.49	4.93267e-07
3959.17	5.76387e-07
3967.85	9.9648e-07
