Infrared Spectrum: Butane
Formula: C4 H10
CAS: 106-97-8
State: gas
Melting point: -138.35 C
Boiling point: -0.5 C
Class: IUPAC A
Instrument: IFS66V (Bruker)
Instrument parameters: KBr Beam Splitter; MCT Detector; Multipass cell
Sampling: 1 L/min Flow
Resolution: 1.9290
Temperature: 23 C
Pressure: 101.3 Pa
Origin: NIST, Analytical Chemistry Division, 301-975-3108
cm-1	(micromol/mol)-1m-1 (base 10)
575.652	-2.35883e-07
584.33	1.43291e-07
593.008	-4.67496e-08
601.687	-9.74227e-08
610.365	-2.23029e-07
619.043	-6.70249e-08
627.721	-9.39685e-08
636.399	-1.60885e-07
645.077	-6.74369e-08
653.756	-1.63759e-07
662.434	-4.95135e-08
671.112	1.96486e-08
679.79	1.31347e-07
688.468	4.67174e-07
697.146	1.13924e-06
705.825	2.38322e-06
714.503	3.99145e-06
723.181	5.36774e-06
731.859	1.06168e-05
740.537	8.94182e-06
749.216	1.03176e-05
757.894	7.84209e-06
766.572	5.52639e-06
775.25	3.41355e-06
783.928	2.62713e-06
792.606	1.97775e-06
801.285	1.58894e-06
809.963	8.01646e-07
818.641	3.32777e-07
827.319	9.85842e-08
835.997	1.34168e-08
844.676	3.8727e-08
853.354	-2.79159e-08
862.032	-3.52364e-08
870.71	1.70884e-08
879.388	-9.9571e-09
888.066	-2.75648e-08
896.745	-2.9523e-08
905.423	4.02968e-08
914.101	2.54789e-07
922.779	7.70015e-07
931.457	2.0463e-06
940.135	5.37661e-06
948.814	1.11481e-05
957.492	1.74403e-05
966.17	1.95128e-05
974.848	1.65658e-05
983.526	1.04803e-05
992.205	6.97531e-06
1000.88	3.50338e-06
1009.56	1.78566e-06
1018.24	9.52558e-07
1026.92	5.18957e-07
1035.6	3.46344e-07
1044.27	9.31418e-08
1052.95	5.7628e-08
1061.63	9.96619e-08
1070.31	1.80755e-07
1078.99	1.34588e-07
1087.66	2.55432e-07
1096.34	1.96286e-07
1105.02	3.19456e-07
1113.7	8.77697e-07
1122.38	2.35566e-06
1131.06	2.81177e-06
1139.73	2.05962e-06
1148.41	2.02426e-06
1157.09	4.80031e-07
1165.77	1.3772e-07
1174.45	2.00526e-07
1183.12	1.95328e-07
1191.8	1.8864e-07
1200.48	1.98875e-07
1209.16	2.39743e-07
1217.84	3.23587e-07
1226.52	4.81098e-07
1235.19	7.05457e-07
1243.87	1.04922e-06
1252.55	1.51766e-06
1261.23	1.79941e-06
1269.91	2.3499e-06
1278.58	5.06159e-06
1287.26	8.08251e-06
1295.94	7.37168e-06
1304.62	7.60219e-06
1313.3	2.70467e-06
1321.98	1.89149e-06
1330.65	4.02557e-06
1339.33	3.81093e-06
1348.01	4.19173e-06
1356.69	6.64047e-06
1365.37	1.07056e-05
1374.04	2.53506e-05
1382.72	3.414e-05
1391.4	3.76721e-05
1400.08	2.3636e-05
1408.76	9.40274e-06
1417.44	7.96733e-06
1426.11	1.08116e-05
1434.79	1.97998e-05
1443.47	3.75585e-05
1452.15	5.32779e-05
1460.83	7.31668e-05
1469.5	7.17043e-05
1478.18	5.78731e-05
1486.86	4.83634e-05
1495.54	2.86801e-05
1504.22	1.58138e-05
1512.9	8.12316e-06
1521.57	3.94726e-06
1530.25	1.79227e-06
1538.93	1.19077e-06
1547.61	8.86384e-07
1556.29	1.00934e-06
1564.96	1.28094e-06
1573.64	1.55025e-06
1582.32	1.50522e-06
1591	1.38289e-06
1599.68	1.08397e-06
1608.36	8.72924e-07
1617.03	1.07057e-06
1625.71	8.61334e-07
1634.39	1.1569e-06
1643.07	9.85052e-07
1651.75	1.28879e-06
1660.42	1.30665e-06
1669.1	1.5333e-06
1677.78	1.27399e-06
1686.46	1.34474e-06
1695.14	1.27108e-06
1703.82	1.12915e-06
1712.49	1.09927e-06
1721.17	1.00731e-06
1729.85	8.10248e-07
1738.53	5.59166e-07
1747.21	3.57826e-07
1755.88	2.82905e-07
1764.56	2.52051e-07
1773.24	3.19569e-07
1781.92	3.32138e-07
1790.6	3.64091e-07
1799.28	3.98951e-07
1807.95	3.94177e-07
1816.63	3.58887e-07
1825.31	2.9321e-07
1833.99	1.34887e-07
1842.67	6.31359e-08
1851.34	-1.00771e-09
1860.02	3.18867e-09
1868.7	3.49535e-08
1877.38	9.33337e-08
1886.06	2.26913e-07
1894.74	3.76951e-07
1903.41	4.73483e-07
1912.09	4.43049e-07
1920.77	4.7581e-07
1929.45	3.75747e-07
1938.13	3.01362e-07
1946.8	1.81985e-07
1955.48	8.30455e-08
1964.16	-1.08502e-09
1972.84	-5.06286e-08
1981.52	-4.30289e-08
1990.19	-4.81302e-08
1998.87	-2.41251e-08
2007.55	9.6315e-10
2016.23	1.26996e-07
2024.91	4.41178e-07
2033.59	6.03736e-07
2042.26	6.49333e-07
2050.94	5.65012e-07
2059.62	2.48513e-07
2068.3	1.46627e-07
2076.98	1.44296e-07
2085.65	2.20014e-07
2094.33	3.03655e-07
2103.01	3.96986e-07
2111.69	4.83652e-07
2120.37	5.95913e-07
2129.05	6.075e-07
2137.72	6.06607e-07
2146.4	6.54998e-07
2155.08	6.20954e-07
2163.76	6.65425e-07
2172.44	7.42119e-07
2181.11	6.46616e-07
2189.79	6.89574e-07
2198.47	6.67487e-07
2207.15	7.05072e-07
2215.83	6.76702e-07
2224.51	6.4731e-07
2233.18	5.25228e-07
2241.86	4.19659e-07
2250.54	4.6173e-07
2259.22	5.27003e-07
2267.9	5.67741e-07
2276.57	6.47504e-07
2285.25	7.86363e-07
2293.93	8.11683e-07
2302.61	9.64977e-07
2311.29	8.91406e-07
2319.97	7.85856e-07
2328.64	7.22241e-07
2337.32	8.31343e-07
2346	9.98007e-07
2354.68	8.5702e-07
2363.36	5.80447e-07
2372.03	1.02746e-06
2380.71	1.59634e-06
2389.39	1.4803e-06
2398.07	1.69452e-06
2406.75	1.13443e-06
2415.43	1.49078e-06
2424.1	1.60103e-06
2432.78	1.91424e-06
2441.46	1.74534e-06
2450.14	1.59906e-06
2458.82	9.33705e-07
2467.49	5.41743e-07
2476.17	3.36673e-07
2484.85	2.5297e-07
2493.53	1.82031e-07
2502.21	2.02707e-07
2510.89	3.67233e-07
2519.56	5.57021e-07
2528.24	7.42208e-07
2536.92	7.00204e-07
2545.6	6.92937e-07
2554.28	5.70159e-07
2562.95	7.1424e-07
2571.63	1.0873e-06
2580.31	1.65998e-06
2588.99	2.49471e-06
2597.67	3.48822e-06
2606.35	3.62735e-06
2615.02	4.1599e-06
2623.7	4.17505e-06
2632.38	4.49774e-06
2641.06	4.34882e-06
2649.74	4.75248e-06
2658.41	4.70882e-06
2667.09	4.22757e-06
2675.77	3.66767e-06
2684.45	4.00565e-06
2693.13	3.14645e-06
2701.81	3.07925e-06
2710.48	3.91062e-06
2719.16	4.9611e-06
2727.84	7.74838e-06
2736.52	1.01822e-05
2745.2	9.38734e-06
2753.87	1.07635e-05
2762.55	6.97989e-06
2771.23	5.86227e-06
2779.91	6.18353e-06
2788.59	6.6236e-06
2797.27	7.82466e-06
2805.94	1.00964e-05
2814.62	1.39119e-05
2823.3	2.05214e-05
2831.98	2.96119e-05
2840.66	4.5477e-05
2849.33	7.00179e-05
2858.01	0.000116619
2866.69	0.000168973
2875.37	0.000257066
2884.05	0.000252208
2892.73	0.000273576
2901.4	0.00024569
2910.08	0.000233899
2918.76	0.000278003
2927.44	0.000362435
2936.12	0.000427199
2944.79	0.000473936
2953.47	0.000543717
2962.15	0.000656057
2970.83	0.000600645
2979.51	0.000571583
2988.19	0.000367638
2996.86	0.000157958
3005.54	6.60939e-05
3014.22	2.60428e-05
3022.9	1.20537e-05
3031.58	7.88938e-06
3040.25	6.69273e-06
3048.93	6.22581e-06
3057.61	6.27558e-06
3066.29	6.94997e-06
3074.97	7.68736e-06
3083.65	7.80436e-06
3092.32	7.16098e-06
3101	5.61315e-06
3109.68	4.47535e-06
3118.36	3.90794e-06
3127.04	3.93817e-06
3135.71	4.33017e-06
3144.39	4.89564e-06
3153.07	5.58548e-06
3161.75	6.50857e-06
3170.43	7.24552e-06
3179.11	6.9796e-06
3187.78	7.04328e-06
3196.46	5.40214e-06
3205.14	4.54663e-06
3213.82	4.05971e-06
3222.5	4.12261e-06
3231.17	3.23561e-06
3239.85	2.806e-06
3248.53	1.77672e-06
3257.21	9.50206e-07
3265.89	6.50063e-07
3274.57	6.61802e-07
3283.24	6.76389e-07
3291.92	6.70542e-07
3300.6	6.63698e-07
3309.28	4.80384e-07
3317.96	3.74558e-07
3326.63	3.96202e-07
3335.31	5.07277e-07
3343.99	6.50234e-07
3352.67	6.92764e-07
3361.35	7.11271e-07
3370.03	7.60596e-07
3378.7	8.8047e-07
3387.38	1.12489e-06
3396.06	1.21954e-06
3404.74	1.09831e-06
3413.42	8.21195e-07
3422.09	3.43814e-07
3430.77	2.29062e-07
3439.45	1.47206e-07
3448.13	8.30992e-08
3456.81	4.00285e-08
3465.49	6.45028e-08
3474.16	8.66471e-08
3482.84	9.87288e-08
3491.52	5.54734e-08
3500.2	6.92313e-08
3508.88	7.67009e-08
3517.55	2.0318e-09
3526.23	-2.41324e-08
3534.91	-2.27045e-08
3543.59	-2.29119e-08
3552.27	3.70162e-09
3560.95	4.89087e-08
3569.62	1.20663e-07
3578.3	1.70782e-07
3586.98	2.4422e-07
3595.66	3.21115e-07
3604.34	4.04081e-07
3613.01	5.96912e-07
3621.69	6.66281e-07
3630.37	7.6727e-07
3639.05	7.86368e-07
3647.73	8.38573e-07
3656.41	7.79595e-07
3665.08	7.88231e-07
3673.76	8.48391e-07
3682.44	9.761e-07
3691.12	1.01845e-06
3699.8	9.75012e-07
3708.47	1.0193e-06
3717.15	1.24862e-06
3725.83	1.20337e-06
3734.51	1.28256e-06
3743.19	9.78826e-07
3751.87	7.9079e-07
3760.54	6.3571e-07
3769.22	5.80202e-07
3777.9	5.50436e-07
3786.58	5.02971e-07
3795.26	4.87357e-07
3803.93	4.85569e-07
3812.61	5.223e-07
3821.29	6.9506e-07
3829.97	8.23147e-07
3838.65	1.3989e-06
3847.33	1.61738e-06
3856	1.85383e-06
3864.68	1.65176e-06
3873.36	1.36078e-06
3882.04	1.19763e-06
3890.72	1.06724e-06
3899.39	9.87934e-07
3908.07	8.32775e-07
3916.75	7.49952e-07
3925.43	6.48473e-07
3934.11	6.19668e-07
3942.79	5.59804e-07
3951.46	4.52317e-07
3960.14	4.66296e-07
3968.82	4.71585e-07
