Infrared Spectrum: 1,4-Dimethylbenzene
Formula: 1,4-( C H3)2 C6 H4
CAS: 106-42-3
State: gas
Melting point: 13.26 C
Boiling point: 138.35 C
Class: IUPAC A
Instrument: IFS66V (Bruker)
Instrument parameters: KBr Beam Splitter; MCT Detector; Multipass cell
Sampling: 1 L/min Flow
Resolution: 1.9290
Temperature: 23 C
Pressure: 101.3 Pa
Origin: NIST, Analytical Chemistry Division, 301-975-3108
cm-1	(micromol/mol)-1m-1 (base 10)
575.652	1.48929e-06
584.33	-2.14998e-07
593.008	-1.82787e-07
601.687	-6.55545e-07
610.365	-2.93797e-07
619.043	-6.34409e-07
627.721	-6.5859e-07
636.399	-5.51923e-07
645.077	-4.00398e-07
653.756	-2.99229e-07
662.434	-2.74096e-07
671.112	-2.94363e-07
679.79	1.79924e-07
688.468	7.91629e-08
697.146	3.3858e-07
705.825	2.56873e-07
714.503	2.6724e-07
723.181	1.37616e-07
731.859	4.22855e-07
740.537	6.45415e-07
749.216	5.911e-07
757.894	1.19175e-06
766.572	7.91671e-06
775.25	4.60282e-05
783.928	0.000142291
792.606	0.000219353
801.285	0.000179139
809.963	9.89361e-05
818.641	1.83719e-05
827.319	5.91742e-06
835.997	4.30841e-06
844.676	1.64755e-06
853.354	9.62139e-07
862.032	8.36874e-07
870.71	1.11195e-06
879.388	1.14034e-06
888.066	1.30118e-06
896.745	1.49793e-06
905.423	1.55046e-06
914.101	2.39953e-06
922.779	2.93319e-06
931.457	2.72817e-06
940.135	2.54112e-06
948.814	3.26449e-06
957.492	4.25677e-06
966.17	4.55529e-06
974.848	4.51851e-06
983.526	4.50411e-06
992.205	4.85763e-06
1000.88	5.15248e-06
1009.56	5.6984e-06
1018.24	2.20388e-05
1026.92	2.26205e-05
1035.6	1.7692e-05
1044.27	2.4148e-05
1052.95	2.42044e-05
1061.63	1.82102e-05
1070.31	1.21162e-05
1078.99	8.93554e-06
1087.66	1.14085e-05
1096.34	1.87415e-05
1105.02	2.48338e-05
1113.7	4.00559e-05
1122.38	3.05522e-05
1131.06	2.05799e-05
1139.73	7.44185e-06
1148.41	3.87776e-06
1157.09	3.14325e-06
1165.77	3.16945e-06
1174.45	3.37322e-06
1183.12	3.35372e-06
1191.8	2.9238e-06
1200.48	2.68164e-06
1209.16	6.09021e-06
1217.84	1.26612e-05
1226.52	1.72286e-05
1235.19	1.34919e-05
1243.87	1.19688e-05
1252.55	4.53615e-06
1261.23	3.01108e-06
1269.91	2.885e-06
1278.58	2.32875e-06
1287.26	2.3798e-06
1295.94	2.60619e-06
1304.62	3.8488e-06
1313.3	5.02672e-06
1321.98	5.89879e-06
1330.65	6.36494e-06
1339.33	7.84128e-06
1348.01	8.40341e-06
1356.69	8.58139e-06
1365.37	8.65151e-06
1374.04	1.18138e-05
1382.72	2.25212e-05
1391.4	2.39395e-05
1400.08	1.57996e-05
1408.76	1.94398e-05
1417.44	2.53976e-05
1426.11	3.52957e-05
1434.79	3.64677e-05
1443.47	3.2097e-05
1452.15	3.30086e-05
1460.83	3.24885e-05
1469.5	4.76007e-05
1478.18	3.58315e-05
1486.86	4.146e-05
1495.54	4.60645e-05
1504.22	5.9041e-05
1512.9	0.000200993
1521.57	0.000227558
1530.25	0.000117846
1538.93	2.52805e-05
1547.61	1.57514e-05
1556.29	1.25949e-05
1564.96	9.98227e-06
1573.64	7.54795e-06
1582.32	5.6963e-06
1591	4.93158e-06
1599.68	5.61331e-06
1608.36	7.84757e-06
1617.03	1.36372e-05
1625.71	1.5148e-05
1634.39	1.35433e-05
1643.07	5.46103e-06
1651.75	2.04172e-06
1660.42	1.80664e-06
1669.1	1.32795e-06
1677.78	1.20975e-06
1686.46	9.02236e-07
1695.14	5.26927e-07
1703.82	7.71222e-07
1712.49	1.20777e-06
1721.17	2.97472e-06
1729.85	2.85061e-06
1738.53	2.25261e-06
1747.21	3.09128e-06
1755.88	3.40946e-06
1764.56	2.87342e-06
1773.24	3.52595e-06
1781.92	1.03261e-05
1790.6	1.1983e-05
1799.28	5.38968e-06
1807.95	1.31318e-06
1816.63	8.8717e-07
1825.31	1.35734e-06
1833.99	3.38557e-06
1842.67	4.09338e-06
1851.34	2.52877e-06
1860.02	2.23292e-06
1868.7	5.0211e-06
1877.38	1.29962e-05
1886.06	1.98066e-05
1894.74	2.13489e-05
1903.41	7.9365e-06
1912.09	3.12696e-06
1920.77	2.34149e-06
1929.45	1.90884e-06
1938.13	9.75801e-07
1946.8	7.6437e-07
1955.48	1.21756e-06
1964.16	9.46097e-07
1972.84	1.10021e-06
1981.52	1.38081e-06
1990.19	1.25089e-06
1998.87	1.02666e-06
2007.55	7.66902e-07
2016.23	5.01516e-07
2024.91	2.7745e-07
2033.59	3.55558e-07
2042.26	3.58028e-07
2050.94	1.94114e-07
2059.62	-4.94826e-08
2068.3	-9.60703e-08
2076.98	1.1463e-07
2085.65	3.74394e-07
2094.33	1.16535e-06
2103.01	2.17844e-06
2111.69	1.75503e-06
2120.37	2.9257e-07
2129.05	-1.00305e-07
2137.72	-1.85149e-07
2146.4	-5.66585e-08
2155.08	1.09955e-07
2163.76	3.01896e-08
2172.44	5.27605e-07
2181.11	1.31371e-07
2189.79	2.78161e-07
2198.47	1.67654e-07
2207.15	7.66337e-07
2215.83	7.79188e-07
2224.51	7.37869e-08
2233.18	2.80578e-09
2241.86	-1.46291e-07
2250.54	-1.62519e-07
2259.22	-3.4195e-08
2267.9	1.72599e-07
2276.57	4.71922e-07
2285.25	6.5779e-07
2293.93	1.35072e-06
2302.61	2.37009e-06
2311.29	2.62771e-06
2319.97	1.5813e-06
2328.64	1.87029e-06
2337.32	2.70662e-06
2346	2.42455e-06
2354.68	1.57022e-06
2363.36	1.37534e-06
2372.03	7.34691e-07
2380.71	4.88021e-07
2389.39	5.49796e-07
2398.07	5.83818e-07
2406.75	1.094e-06
2415.43	1.46679e-06
2424.1	1.52645e-06
2432.78	1.33531e-06
2441.46	1.21206e-06
2450.14	9.04829e-07
2458.82	7.33644e-07
2467.49	8.23943e-07
2476.17	8.9567e-07
2484.85	7.85619e-07
2493.53	7.14326e-07
2502.21	4.6556e-07
2510.89	3.53726e-07
2519.56	2.94385e-07
2528.24	3.0177e-07
2536.92	2.24159e-07
2545.6	6.53623e-08
2554.28	-1.59114e-07
2562.95	-1.21814e-07
2571.63	1.80965e-07
2580.31	1.67182e-06
2588.99	3.06463e-06
2597.67	3.02574e-06
2606.35	1.6941e-06
2615.02	7.65529e-07
2623.7	2.3624e-07
2632.38	1.42993e-07
2641.06	4.10666e-07
2649.74	2.81566e-07
2658.41	-1.41665e-07
2667.09	-1.35903e-07
2675.77	-1.92311e-07
2684.45	-1.38788e-08
2693.13	1.40478e-07
2701.81	8.14838e-07
2710.48	1.51452e-06
2719.16	1.98508e-06
2727.84	2.97927e-06
2736.52	1.17077e-05
2745.2	1.58951e-05
2753.87	7.11909e-06
2762.55	1.52787e-06
2771.23	9.40774e-07
2779.91	1.1694e-06
2788.59	1.58167e-06
2797.27	2.39718e-06
2805.94	3.50363e-06
2814.62	4.77931e-06
2823.3	7.14388e-06
2831.98	1.04611e-05
2840.66	1.4011e-05
2849.33	1.96372e-05
2858.01	3.61803e-05
2866.69	8.59703e-05
2875.37	0.000146027
2884.05	0.00015519
2892.73	0.000126837
2901.4	0.00010761
2910.08	9.66076e-05
2918.76	0.000125429
2927.44	0.000231031
2936.12	0.000306377
2944.79	0.000242852
2953.47	0.000125489
2962.15	9.62897e-05
2970.83	7.3624e-05
2979.51	8.72745e-05
2988.19	0.00011515
2996.86	0.000166217
3005.54	0.000208364
3014.22	0.000196644
3022.9	0.000239242
3031.58	0.000230642
3040.25	0.000159134
3048.93	0.000155089
3057.61	0.00014748
3066.29	0.000110238
3074.97	5.17959e-05
3083.65	2.80881e-05
3092.32	2.57444e-05
3101	2.72471e-05
3109.68	2.47064e-05
3118.36	1.48279e-05
3127.04	6.17346e-06
3135.71	7.46389e-06
3144.39	9.29183e-06
3153.07	6.10059e-06
3161.75	1.33571e-06
3170.43	3.48063e-07
3179.11	-7.32049e-09
3187.78	-2.81879e-07
3196.46	-3.03854e-07
3205.14	-4.03747e-07
3213.82	-3.36208e-07
3222.5	-2.63808e-07
3231.17	-2.48679e-07
3239.85	-2.32316e-07
3248.53	-2.80617e-07
3257.21	8.95939e-09
3265.89	5.43284e-08
3274.57	-1.0042e-07
3283.24	2.9211e-08
3291.92	1.1722e-07
3300.6	-1.98542e-09
3309.28	-5.19583e-08
3317.96	-1.98169e-08
3326.63	6.7456e-08
3335.31	-1.45955e-08
3343.99	-4.29961e-08
3352.67	-1.04173e-07
3361.35	-1.4007e-07
3370.03	4.11208e-08
3378.7	2.13451e-07
3387.38	2.86177e-07
3396.06	2.42206e-07
3404.74	8.61251e-08
3413.42	-3.67416e-08
3422.09	-1.15419e-07
3430.77	1.65661e-07
3439.45	3.42427e-07
3448.13	1.10617e-07
3456.81	-2.95393e-08
3465.49	-2.18813e-07
3474.16	-2.96335e-07
3482.84	-3.64645e-07
3491.52	-2.41401e-07
3500.2	-2.40556e-07
3508.88	-1.16278e-07
3517.55	-2.26062e-07
3526.23	-3.63059e-07
3534.91	-3.48269e-07
3543.59	-1.66731e-07
3552.27	-5.36424e-07
3560.95	-5.67266e-07
3569.62	-5.73265e-07
3578.3	-5.08489e-07
3586.98	-5.70415e-07
3595.66	-3.00495e-07
3604.34	-2.56541e-07
3613.01	-2.07183e-07
3621.69	-1.33575e-07
3630.37	-1.4246e-07
3639.05	2.49173e-08
3647.73	1.91078e-07
3656.41	4.88939e-07
3665.08	1.06649e-06
3673.76	9.85187e-07
3682.44	9.89998e-07
3691.12	3.51635e-07
3699.8	4.72884e-07
3708.47	1.88916e-07
3717.15	6.09558e-08
3725.83	1.24566e-07
3734.51	8.33639e-09
3743.19	3.68279e-07
3751.87	4.32251e-07
3760.54	8.42616e-07
3769.22	5.94372e-07
3777.9	3.26964e-07
3786.58	3.23197e-07
3795.26	3.57587e-07
3803.93	5.06615e-07
3812.61	6.15585e-07
3821.29	5.88061e-07
3829.97	1.18757e-06
3838.65	1.06833e-06
3847.33	1.57605e-06
3856	1.60371e-06
3864.68	1.6004e-06
3873.36	1.70416e-06
3882.04	1.95232e-06
3890.72	1.93231e-06
3899.39	1.87065e-06
3908.07	2.00975e-06
3916.75	2.13872e-06
3925.43	2.3132e-06
3934.11	2.39431e-06
3942.79	2.20277e-06
3951.46	1.94931e-06
3960.14	2.05958e-06
3968.82	2.08309e-06
