Infrared Spectrum: Butane
Formula: C4 H10
CAS: 106-97-8
State: gas
Melting point: -138.35 C
Boiling point: -0.5 C
Class: IUPAC A
Instrument: IFS66V (Bruker)
Instrument parameters: KBr Beam Splitter; MCT Detector; Multipass cell
Sampling: 1 L/min Flow
Resolution: 0.4820
Temperature: 23 C
Pressure: 101.3 Pa
Origin: NIST, Analytical Chemistry Division, 301-975-3108
cm-1	(micromol/mol)-1m-1 (base 10)
575.17	-6.17969e-07
583.848	-2.62501e-07
592.526	2.7641e-07
601.205	1.72232e-07
609.883	-4.09552e-08
618.561	-4.67278e-08
627.239	-1.18908e-07
635.917	-2.90501e-07
644.595	7.88528e-08
653.274	-1.00174e-07
661.952	9.94264e-08
670.63	-1.49474e-07
679.308	4.97737e-08
687.986	5.67233e-07
696.664	9.02894e-07
705.343	2.29892e-06
714.021	3.99342e-06
722.699	5.26192e-06
731.377	1.01615e-05
740.055	8.76828e-06
748.734	1.08768e-05
757.412	8.17529e-06
766.09	5.60268e-06
774.768	3.37799e-06
783.446	2.78954e-06
792.124	1.94056e-06
800.803	1.577e-06
809.481	7.95034e-07
818.159	3.72883e-07
826.837	7.24636e-08
835.515	7.73421e-08
844.193	1.06506e-07
852.872	4.77209e-09
861.55	-2.11629e-08
870.228	1.36807e-07
878.906	-4.47205e-08
887.584	-1.24255e-08
896.263	2.27272e-08
904.941	-5.58791e-08
913.619	3.52525e-07
922.297	6.31312e-07
930.975	1.95414e-06
939.653	5.1401e-06
948.332	1.13456e-05
957.01	1.8333e-05
965.688	2.0361e-05
974.366	1.6915e-05
983.044	1.05833e-05
991.723	7.16369e-06
1000.4	3.61962e-06
1009.08	1.83812e-06
1017.76	1.01204e-06
1026.44	4.35802e-07
1035.11	4.297e-07
1043.79	1.27731e-07
1052.47	-5.05404e-09
1061.15	3.55965e-08
1069.83	1.58699e-07
1078.5	1.10002e-07
1087.18	2.68108e-07
1095.86	2.081e-07
1104.54	3.39746e-07
1113.22	7.41472e-07
1121.9	2.19416e-06
1130.57	2.86196e-06
1139.25	1.87834e-06
1147.93	2.14491e-06
1156.61	4.87359e-07
1165.29	1.88384e-07
1173.96	1.84897e-07
1182.64	2.22057e-07
1191.32	1.54857e-07
1200	1.97504e-07
1208.68	2.41353e-07
1217.36	3.99379e-07
1226.03	4.89731e-07
1234.71	6.53837e-07
1243.39	1.0312e-06
1252.07	1.52555e-06
1260.75	1.72324e-06
1269.42	2.32152e-06
1278.1	4.81518e-06
1286.78	8.22068e-06
1295.46	8.33681e-06
1304.14	7.83923e-06
1312.82	2.90534e-06
1321.49	1.84283e-06
1330.17	3.85058e-06
1338.85	3.7489e-06
1347.53	3.90818e-06
1356.21	6.64802e-06
1364.88	1.00727e-05
1373.56	2.46781e-05
1382.24	2.91461e-05
1390.92	3.75274e-05
1399.6	2.49822e-05
1408.28	9.68617e-06
1416.95	7.95338e-06
1425.63	1.05334e-05
1434.31	1.9046e-05
1442.99	3.68269e-05
1451.67	5.25301e-05
1460.34	7.01805e-05
1469.02	7.01407e-05
1477.7	5.81174e-05
1486.38	4.86945e-05
1495.06	2.99131e-05
1503.73	1.6105e-05
1512.41	8.34954e-06
1521.09	4.29808e-06
1529.77	1.81283e-06
1538.45	1.10741e-06
1547.13	8.98816e-07
1555.8	9.25628e-07
1564.48	1.28099e-06
1573.16	1.60282e-06
1581.84	1.55217e-06
1590.52	1.4014e-06
1599.19	1.13299e-06
1607.87	8.83313e-07
1616.55	1.33624e-06
1625.23	8.18584e-07
1633.91	1.11172e-06
1642.59	9.95768e-07
1651.26	1.11223e-06
1659.94	1.30328e-06
1668.62	1.4296e-06
1677.3	1.31027e-06
1685.98	1.36835e-06
1694.65	1.12655e-06
1703.33	1.13943e-06
1712.01	1.05889e-06
1720.69	1.02764e-06
1729.37	8.22383e-07
1738.05	6.09269e-07
1746.72	3.79479e-07
1755.4	2.99286e-07
1764.08	2.90139e-07
1772.76	6.01676e-07
1781.44	3.07315e-07
1790.11	3.30721e-07
1798.79	3.51985e-07
1807.47	3.42389e-07
1816.15	3.27797e-07
1824.83	3.30988e-07
1833.51	1.52833e-07
1842.18	5.70196e-08
1850.86	2.18114e-08
1859.54	-6.48648e-09
1868.22	2.73766e-08
1876.9	4.25387e-08
1885.57	2.23292e-07
1894.25	3.34952e-07
1902.93	4.75234e-07
1911.61	4.3687e-07
1920.29	4.63684e-07
1928.97	3.67699e-07
1937.64	3.44119e-07
1946.32	2.00797e-07
1955	8.89618e-08
1963.68	-5.05676e-10
1972.36	-4.91807e-08
1981.03	-1.29048e-08
1989.71	-5.14353e-08
1998.39	-5.81146e-08
2007.07	1.30957e-08
2015.75	1.21379e-07
2024.43	4.52971e-07
2033.1	6.47219e-07
2041.78	6.21782e-07
2050.46	5.86169e-07
2059.14	2.24635e-07
2067.82	1.30106e-07
2076.49	1.65223e-07
2085.17	1.90273e-07
2093.85	2.59921e-07
2102.53	3.32259e-07
2111.21	3.9253e-07
2119.89	6.15081e-07
2128.56	5.83863e-07
2137.24	5.9151e-07
2145.92	7.00002e-07
2154.6	7.55375e-07
2163.28	6.51129e-07
2171.95	6.5322e-07
2180.63	6.11366e-07
2189.31	6.53117e-07
2197.99	6.3937e-07
2206.67	6.74993e-07
2215.35	6.60164e-07
2224.02	6.58558e-07
2232.7	5.77432e-07
2241.38	4.09502e-07
2250.06	4.68473e-07
2258.74	5.21859e-07
2267.41	5.81076e-07
2276.09	6.2458e-07
2284.77	7.7579e-07
2293.45	7.60608e-07
2302.13	1.00286e-06
2310.81	9.44633e-07
2319.48	9.00763e-07
2328.16	8.90055e-07
2336.84	1.29581e-06
2345.52	1.06167e-06
2354.2	9.07545e-07
2362.87	-4.90447e-07
2371.55	7.12517e-07
2380.23	1.66402e-06
2388.91	1.43532e-06
2397.59	1.70396e-06
2406.27	1.11475e-06
2414.94	1.49034e-06
2423.62	1.61861e-06
2432.3	1.96807e-06
2440.98	1.75163e-06
2449.66	1.61252e-06
2458.33	9.88843e-07
2467.01	5.36136e-07
2475.69	3.76122e-07
2484.37	2.56092e-07
2493.05	1.91053e-07
2501.73	1.96554e-07
2510.4	3.44041e-07
2519.08	5.61733e-07
2527.76	7.23705e-07
2536.44	6.88524e-07
2545.12	6.74402e-07
2553.79	5.7397e-07
2562.47	7.47886e-07
2571.15	1.02869e-06
2579.83	1.70661e-06
2588.51	2.45439e-06
2597.19	3.35227e-06
2605.86	3.65915e-06
2614.54	4.10183e-06
2623.22	4.21072e-06
2631.9	4.49396e-06
2640.58	4.32007e-06
2649.25	4.76007e-06
2657.93	4.73575e-06
2666.61	4.30966e-06
2675.29	3.63974e-06
2683.97	4.1684e-06
2692.65	3.23454e-06
2701.32	3.06713e-06
2710	3.82599e-06
2718.68	4.8891e-06
2727.36	7.5677e-06
2736.04	1.02065e-05
2744.71	9.25394e-06
2753.39	1.08699e-05
2762.07	7.01308e-06
2770.75	5.77641e-06
2779.43	6.09926e-06
2788.11	6.5744e-06
2796.78	7.76792e-06
2805.46	9.9293e-06
2814.14	1.37892e-05
2822.82	2.00653e-05
2831.5	2.91716e-05
2840.17	4.46459e-05
2848.85	6.80829e-05
2857.53	0.000113568
2866.21	0.000166816
2874.89	0.00024867
2883.57	0.000257549
2892.24	0.000269672
2900.92	0.000249159
2909.6	0.000231824
2918.28	0.00027195
2926.96	0.000356733
2935.63	0.000422302
2944.31	0.000472221
2952.99	0.000534476
2961.67	0.000652707
2970.35	0.00062288
2979.03	0.000571838
2987.7	0.00038275
2996.38	0.000164985
3005.06	6.92731e-05
3013.74	2.72746e-05
3022.42	1.24323e-05
3031.09	8.02891e-06
3039.77	6.75309e-06
3048.45	6.24007e-06
3057.13	6.25728e-06
3065.81	6.88535e-06
3074.49	7.65676e-06
3083.16	7.59476e-06
3091.84	7.22407e-06
3100.52	5.72348e-06
3109.2	4.46363e-06
3117.88	3.93256e-06
3126.55	3.96601e-06
3135.23	4.2788e-06
3143.91	4.87802e-06
3152.59	5.46707e-06
3161.27	6.47954e-06
3169.95	7.18017e-06
3178.62	6.92972e-06
3187.3	7.031e-06
3195.98	5.44213e-06
3204.66	4.50835e-06
3213.34	4.09653e-06
3222.01	4.18082e-06
3230.69	3.37071e-06
3239.37	2.7504e-06
3248.05	1.82263e-06
3256.73	9.37729e-07
3265.4	6.70785e-07
3274.08	7.74119e-07
3282.76	6.96679e-07
3291.44	6.95918e-07
3300.12	6.56706e-07
3308.8	4.71425e-07
3317.47	3.98142e-07
3326.15	4.22636e-07
3334.83	4.12607e-07
3343.51	6.7057e-07
3352.19	6.0716e-07
3360.86	7.7802e-07
3369.54	8.13894e-07
3378.22	8.18286e-07
3386.9	1.06175e-06
3395.58	1.14987e-06
3404.26	1.03741e-06
3412.93	8.17575e-07
3421.61	3.22818e-07
3430.29	1.99186e-07
3438.97	2.69308e-07
3447.65	1.27255e-07
3456.32	1.7545e-08
3465	1.13741e-07
3473.68	1.85615e-07
3482.36	4.74726e-08
3491.04	4.348e-08
3499.72	1.67084e-07
3508.39	3.3652e-08
3517.07	2.76139e-08
3525.75	-1.15635e-07
3534.43	-2.0494e-07
3543.11	-1.16051e-09
3551.78	7.21862e-09
3560.46	8.40096e-08
3569.14	2.21629e-07
3577.82	2.89893e-07
3586.5	3.77588e-07
3595.18	4.36391e-07
3603.85	4.32634e-07
3612.53	6.92633e-07
3621.21	6.77043e-07
3629.89	6.77176e-07
3638.57	7.92023e-07
3647.24	8.98466e-07
3655.92	7.96617e-07
3664.6	7.79517e-07
3673.28	8.10951e-07
3681.96	8.81935e-07
3690.64	1.00547e-06
3699.31	9.49144e-07
3707.99	1.00202e-06
3716.67	1.27702e-06
3725.35	1.22982e-06
3734.03	1.37382e-06
3742.7	8.91947e-07
3751.38	6.85593e-07
3760.06	7.42464e-07
3768.74	6.32618e-07
3777.42	6.09846e-07
3786.1	5.3634e-07
3794.77	4.18583e-07
3803.45	4.38047e-07
3812.13	4.81918e-07
3820.81	8.16647e-07
3829.49	7.48946e-07
3838.16	1.34738e-06
3846.84	1.567e-06
3855.52	1.89483e-06
3864.2	1.66087e-06
3872.88	1.43558e-06
3881.56	1.23074e-06
3890.23	1.09592e-06
3898.91	9.66832e-07
3907.59	8.78154e-07
3916.27	7.66676e-07
3924.95	6.80414e-07
3933.62	6.75065e-07
3942.3	5.67384e-07
3950.98	4.46914e-07
3959.66	4.79429e-07
3968.34	5.57098e-07
