Infrared Spectrum: Aniline, p-bromo
Formula: C6 H6 Br N
CAS: 106-40-1
State: SOLUTION (CCl4 FOR 2-10.2, CS2 FOR 9.8-16 MICRON) VS SOLVENT
Melting point: 62-64 C
Class: COBLENTZ III
Instrument: BAIRD (GRATING)
Instrument parameters: NaCl PRISM
Sampling: TRANSMISSION
Path length: 0.01 CM, AND 0.01 CM , REFERENCES : 0.005 CM
Resolution: 2
Origin: WYANDOTTE CHEMICALS CORP..
1/CM	TRANSMITTANCE
626	0.6339
635	0.5786
644	0.5442
653	0.5159
662	0.5143
671	0.4631
680	0.4536
689	0.4578
698	0.4813
707	0.4889
716	0.5065
725	0.5249
734	0.5403
743	0.5541
752	0.5675
761	0.5679
770	0.557
779	0.5373
788	0.4648
797	0.2451
806	0.0563
815	0.045
824	0.1108
833	0.2588
842	0.4157
851	0.5026
860	0.5658
869	0.6247
878	0.68
887	0.7106
896	0.7154
905	0.7245
914	0.7062
923	0.7035
932	0.7306
941	0.7492
950	0.7791
959	0.7951
968	0.7988
977	0.7917
986	0.751
995	0.633
1004	0.2576
1013	0.4684
1022	0.7874
1031	0.8284
1040	0.8351
1049	0.8247
1058	0.7419
1067	0.5886
1076	0.1509
1085	0.7363
1094	0.7446
1103	0.7284
1112	0.6689
1121	0.5358
1130	0.6646
1139	0.7916
1148	0.8147
1157	0.8046
1166	0.7421
1175	0.3524
1184	0.8078
1193	0.8238
1202	0.8016
1211	0.7647
1220	0.7518
1229	0.749
1238	0.7138
1247	0.6056
1256	0.4876
1265	0.2775
1274	0.0668
1283	0.0496
1292	0.2141
1301	0.4509
1310	0.6515
1319	0.7839
1328	0.882
1337	0.9115
1346	0.9181
1355	0.921
1364	0.9197
1373	0.912
1382	0.9028
1391	0.9012
1400	0.894
1409	0.8744
1418	0.7955
1427	0.6558
1436	0.708
1445	0.8867
1454	0.8903
1463	0.8719
1472	0.8253
1481	0.7606
1490	0.31
1499	0.0933
1508	0.2197
1517	0.4897
1526	0.6008
1535	0.6129
1544	0.6079
1553	0.6096
1562	0.6147
1571	0.6283
1580	0.6296
1589	0.6088
1598	0.534
1607	0.221
1616	0.2362
1625	0.1161
1634	0.1065
1643	0.3342
1652	0.5595
1661	0.7696
1670	0.8406
1679	0.8935
1688	0.9189
1697	0.9282
1706	0.9289
1715	0.9275
1724	0.9239
1733	0.9215
1742	0.9235
1751	0.9292
1760	0.9371
1769	0.9456
1778	0.9485
1787	0.9473
1796	0.9456
1805	0.9428
1814	0.9386
1823	0.9313
1832	0.9081
1841	0.8769
1850	0.8462
1859	0.823
1868	0.8432
1877	0.9235
1886	0.9481
1895	0.9594
1904	0.9635
1913	0.9649
1922	0.9659
1931	0.9665
1940	0.9663
1949	0.965
1958	0.9639
1967	0.9629
1976	0.9624
1985	0.9629
1994	0.9635
2003	0.9638
2012	0.9645
2021	0.9651
2030	0.9658
2039	0.9666
2048	0.9674
2057	0.9666
2066	0.9656
2075	0.9645
2084	0.9635
2093	0.9627
2102	0.9621
2111	0.9615
2120	0.9614
2129	0.9614
2138	0.9614
2147	0.9621
2156	0.9628
2165	0.9628
2174	0.9628
2183	0.9632
2192	0.9643
2201	0.9636
2210	0.9599
2219	0.9554
2228	0.9522
2237	0.9492
2246	0.9475
2255	0.946
2264	0.9444
2273	0.9426
2282	0.9459
2291	0.9539
2300	0.9657
2309	0.9687
2318	0.968
2327	0.9647
2336	0.9612
2345	0.9562
2354	0.9511
2363	0.9461
2372	0.9412
2381	0.9395
2390	0.9381
2399	0.9389
2408	0.9411
2417	0.9435
2426	0.9461
2435	0.949
2444	0.9518
2453	0.9543
2462	0.9565
2471	0.9542
2480	0.951
2489	0.9481
2498	0.9467
2507	0.9458
2516	0.9452
2525	0.9443
2534	0.9406
2543	0.9369
2552	0.9343
2561	0.9319
2570	0.9295
2579	0.9272
2588	0.9267
2597	0.9265
2606	0.9267
2615	0.9275
2624	0.9283
2633	0.9292
2642	0.9291
2651	0.9268
2660	0.9262
2669	0.9291
2678	0.9308
2687	0.9301
2696	0.9295
2705	0.9292
2714	0.9289
2723	0.9286
2732	0.9282
2741	0.9274
2750	0.9266
2759	0.9257
2768	0.9249
2777	0.9247
2786	0.9249
2795	0.9251
2804	0.9253
2813	0.9251
2822	0.9248
2831	0.9192
2840	0.9118
2849	0.9063
2858	0.9016
2867	0.8977
2876	0.8947
2885	0.8917
2894	0.8887
2903	0.8869
2912	0.8862
2921	0.8855
2930	0.8856
2939	0.886
2948	0.8864
2957	0.8869
2966	0.8874
2975	0.8879
2984	0.8866
2993	0.883
3002	0.8764
3011	0.8655
3020	0.8465
3029	0.8169
3038	0.7832
3047	0.7499
3056	0.7166
3065	0.6902
3074	0.694
3083	0.7409
3092	0.7923
3101	0.8218
3110	0.8287
3119	0.8348
3128	0.8478
3137	0.8678
3146	0.8754
3155	0.877
3164	0.8756
3173	0.8734
3182	0.8686
3191	0.8629
3200	0.8571
3209	0.85
3218	0.8424
3227	0.832
3236	0.822
3245	0.822
3254	0.8248
3263	0.8311
3272	0.8392
3281	0.8409
3290	0.8402
3299	0.8381
3308	0.8312
3317	0.8108
3326	0.767
3335	0.7156
3344	0.6645
3353	0.6136
3362	0.5631
3371	0.5127
3380	0.4627
3389	0.4129
3398	0.3662
3407	0.3544
3416	0.3553
3425	0.3835
3434	0.4302
3443	0.4767
3452	0.5229
3461	0.5689
3470	0.5935
3479	0.5873
3488	0.5643
3497	0.5414
3506	0.5186
3515	0.4961
3524	0.4744
3533	0.4699
3542	0.4706
3551	0.5075
3560	0.6001
3569	0.6928
3578	0.7841
3587	0.8299
3596	0.8482
3605	0.8592
3614	0.869
3623	0.8772
3632	0.8842
3641	0.8869
3650	0.8891
3659	0.8899
3668	0.8906
3677	0.8912
3686	0.8909
3695	0.8904
3704	0.8898
3713	0.8892
3722	0.8887
3731	0.8882
3740	0.8874
3749	0.8866
3758	0.8858
3767	0.8851
3776	0.8848
3785	0.8845
3794	0.8848
3803	0.8864
3812	0.8879
3821	0.8885
3830	0.8881
3839	0.8877
3848	0.8869
3857	0.8841
3866	0.8806
3875	0.8795
3884	0.8795
3893	0.8795
3902	0.8792
3911	0.8789
3920	0.8786
3929	0.8783
3938	0.8779
3947	0.8776
3956	0.8772
3965	0.877
3974	0.8766
3983	0.8763
3992	0.8759
