Infrared Spectrum: Butane
Formula: C4 H10
CAS: 106-97-8
State: gas
Melting point: -138.35 C
Boiling point: -0.5 C
Class: IUPAC A
Instrument: IFS66V (Bruker)
Instrument parameters: KBr Beam Splitter; MCT Detector; Multipass cell
Sampling: 1 L/min Flow
Resolution: 0.4820
Temperature: 23 C
Pressure: 101.3 Pa
Origin: NIST, Analytical Chemistry Division, 301-975-3108
cm-1	(micromol/mol)-1m-1 (base 10)
575.17	-4.50747e-07
583.848	-9.76247e-08
592.526	2.91241e-07
601.205	-2.86171e-08
609.883	-9.67488e-08
618.561	-1.7756e-08
627.239	2.33084e-08
635.917	-1.01708e-07
644.595	-8.17904e-09
653.274	-1.45245e-07
661.952	-1.99178e-08
670.63	-7.06756e-08
679.308	7.77778e-08
687.986	4.30615e-07
696.664	9.88398e-07
705.343	2.31958e-06
714.021	3.9868e-06
722.699	5.24635e-06
731.377	1.01167e-05
740.055	8.82829e-06
748.734	1.06811e-05
757.412	7.99939e-06
766.09	5.68132e-06
774.768	3.42966e-06
783.446	2.74307e-06
792.124	1.90214e-06
800.803	1.58897e-06
809.481	8.18342e-07
818.159	3.65154e-07
826.837	1.02707e-07
835.515	4.29625e-08
844.193	4.07442e-08
852.872	-1.47001e-08
861.55	-5.29205e-08
870.228	6.98461e-08
878.906	-3.42041e-08
887.584	-1.7334e-08
896.263	-1.4279e-08
904.941	-1.81416e-08
913.619	2.70123e-07
922.297	6.85961e-07
930.975	1.93999e-06
939.653	5.13732e-06
948.332	1.12249e-05
957.01	1.89354e-05
965.688	1.9627e-05
974.366	1.69113e-05
983.044	1.06568e-05
991.723	7.16981e-06
1000.4	3.64225e-06
1009.08	1.84847e-06
1017.76	9.74288e-07
1026.44	5.04507e-07
1035.11	3.88512e-07
1043.79	1.41585e-07
1052.47	4.40784e-08
1061.15	8.65262e-08
1069.83	1.66167e-07
1078.5	1.04843e-07
1087.18	2.5017e-07
1095.86	1.90107e-07
1104.54	3.25215e-07
1113.22	8.08287e-07
1121.9	2.24145e-06
1130.57	2.82749e-06
1139.25	1.89573e-06
1147.93	2.1407e-06
1156.61	5.24831e-07
1165.29	1.60313e-07
1173.96	1.99455e-07
1182.64	2.08473e-07
1191.32	1.84694e-07
1200	1.78336e-07
1208.68	2.49265e-07
1217.36	3.37635e-07
1226.03	4.71782e-07
1234.71	6.67468e-07
1243.39	1.0427e-06
1252.07	1.50029e-06
1260.75	1.72184e-06
1269.42	2.30712e-06
1278.1	4.80822e-06
1286.78	8.23018e-06
1295.46	8.23176e-06
1304.14	7.8428e-06
1312.82	2.88723e-06
1321.49	1.819e-06
1330.17	3.88076e-06
1338.85	3.78742e-06
1347.53	3.91039e-06
1356.21	6.60504e-06
1364.88	1.0125e-05
1373.56	2.46716e-05
1382.24	2.95313e-05
1390.92	3.72903e-05
1399.6	2.49758e-05
1408.28	9.66622e-06
1416.95	7.9551e-06
1425.63	1.05111e-05
1434.31	1.90733e-05
1442.99	3.65905e-05
1451.67	5.22326e-05
1460.34	6.93597e-05
1469.02	7.03608e-05
1477.7	5.74933e-05
1486.38	4.92489e-05
1495.06	2.98643e-05
1503.73	1.62132e-05
1512.41	8.34835e-06
1521.09	4.24188e-06
1529.77	1.83962e-06
1538.45	1.10127e-06
1547.13	8.91322e-07
1555.8	9.71156e-07
1564.48	1.24315e-06
1573.16	1.59166e-06
1581.84	1.54223e-06
1590.52	1.41126e-06
1599.19	1.12284e-06
1607.87	8.82354e-07
1616.55	1.23613e-06
1625.23	8.21643e-07
1633.91	1.102e-06
1642.59	9.91772e-07
1651.26	1.12373e-06
1659.94	1.30456e-06
1668.62	1.45099e-06
1677.3	1.29445e-06
1685.98	1.35091e-06
1694.65	1.16891e-06
1703.33	1.1116e-06
1712.01	1.08763e-06
1720.69	1.02419e-06
1729.37	8.21911e-07
1738.05	5.65306e-07
1746.72	3.74742e-07
1755.4	2.65842e-07
1764.08	2.57536e-07
1772.76	4.56926e-07
1781.44	3.13107e-07
1790.11	3.38789e-07
1798.79	3.81937e-07
1807.47	3.79577e-07
1816.15	3.55551e-07
1824.83	3.21557e-07
1833.51	1.58261e-07
1842.18	5.4171e-08
1850.86	1.70557e-08
1859.54	5.11133e-10
1868.22	2.58359e-08
1876.9	7.58251e-08
1885.57	2.26293e-07
1894.25	3.57529e-07
1902.93	4.75996e-07
1911.61	4.37951e-07
1920.29	4.99054e-07
1928.97	3.75987e-07
1937.64	3.32842e-07
1946.32	1.91256e-07
1955	8.31301e-08
1963.68	-8.48463e-09
1972.36	-5.09242e-08
1981.03	-2.82106e-08
1989.71	-4.8786e-08
1998.39	-2.75184e-08
2007.07	1.42235e-08
2015.75	1.18631e-07
2024.43	4.40442e-07
2033.1	6.26917e-07
2041.78	6.32499e-07
2050.46	5.98941e-07
2059.14	2.25415e-07
2067.82	1.38669e-07
2076.49	1.60301e-07
2085.17	1.87579e-07
2093.85	2.63576e-07
2102.53	3.42751e-07
2111.21	4.99786e-07
2119.89	6.5087e-07
2128.56	5.99302e-07
2137.24	6.10894e-07
2145.92	6.81539e-07
2154.6	6.9172e-07
2163.28	6.6569e-07
2171.95	6.75471e-07
2180.63	6.2527e-07
2189.31	6.49054e-07
2197.99	6.66587e-07
2206.67	7.08904e-07
2215.35	6.82019e-07
2224.02	6.53316e-07
2232.7	5.49625e-07
2241.38	4.11324e-07
2250.06	4.6723e-07
2258.74	5.19387e-07
2267.41	5.74771e-07
2276.09	6.32357e-07
2284.77	7.90521e-07
2293.45	7.99342e-07
2302.13	9.85982e-07
2310.81	8.77993e-07
2319.48	7.54143e-07
2328.16	8.6205e-07
2336.84	1.15436e-06
2345.52	1.04077e-06
2354.2	7.80154e-07
2362.87	1.37994e-07
2371.55	8.5652e-07
2380.23	1.6331e-06
2388.91	1.4573e-06
2397.59	1.70868e-06
2406.27	1.1027e-06
2414.94	1.47642e-06
2423.62	1.60621e-06
2432.3	1.93696e-06
2440.98	1.76633e-06
2449.66	1.61808e-06
2458.33	9.57509e-07
2467.01	5.58223e-07
2475.69	3.68553e-07
2484.37	2.34363e-07
2493.05	1.9198e-07
2501.73	1.82891e-07
2510.4	3.56199e-07
2519.08	5.34306e-07
2527.76	7.34552e-07
2536.44	6.91294e-07
2545.12	7.00965e-07
2553.79	5.82279e-07
2562.47	7.14882e-07
2571.15	1.04508e-06
2579.83	1.65557e-06
2588.51	2.44038e-06
2597.19	3.35762e-06
2605.86	3.63317e-06
2614.54	4.14604e-06
2623.22	4.19294e-06
2631.9	4.50443e-06
2640.58	4.35752e-06
2649.25	4.73876e-06
2657.93	4.74837e-06
2666.61	4.2738e-06
2675.29	3.65613e-06
2683.97	4.1693e-06
2692.65	3.20668e-06
2701.32	3.04796e-06
2710	3.82579e-06
2718.68	4.8771e-06
2727.36	7.56881e-06
2736.04	1.01898e-05
2744.71	9.30415e-06
2753.39	1.08861e-05
2762.07	7.05868e-06
2770.75	5.8323e-06
2779.43	6.14497e-06
2788.11	6.58142e-06
2796.78	7.74644e-06
2805.46	9.93144e-06
2814.14	1.37482e-05
2822.82	2.00596e-05
2831.5	2.90994e-05
2840.17	4.4644e-05
2848.85	6.80909e-05
2857.53	0.000113467
2866.21	0.000166868
2874.89	0.000248776
2883.57	0.000257637
2892.24	0.00026969
2900.92	0.000249335
2909.6	0.00023181
2918.28	0.000272731
2926.96	0.000357262
2935.63	0.000422753
2944.31	0.000472481
2952.99	0.000535068
2961.67	0.000651145
2970.35	0.000622881
2979.03	0.000571958
2987.7	0.000383337
2996.38	0.000165151
3005.06	6.93352e-05
3013.74	2.73134e-05
3022.42	1.2443e-05
3031.09	8.00642e-06
3039.77	6.72321e-06
3048.45	6.26042e-06
3057.13	6.26703e-06
3065.81	6.90246e-06
3074.49	7.67549e-06
3083.16	7.6597e-06
3091.84	7.22397e-06
3100.52	5.71818e-06
3109.2	4.50724e-06
3117.88	3.92445e-06
3126.55	3.92281e-06
3135.23	4.2837e-06
3143.91	4.87387e-06
3152.59	5.51981e-06
3161.27	6.4943e-06
3169.95	7.2383e-06
3178.62	7.02344e-06
3187.3	7.03085e-06
3195.98	5.47269e-06
3204.66	4.51956e-06
3213.34	4.07436e-06
3222.01	4.12524e-06
3230.69	3.33952e-06
3239.37	2.83686e-06
3248.05	1.83442e-06
3256.73	9.75388e-07
3265.4	6.47558e-07
3274.08	7.08931e-07
3282.76	6.56141e-07
3291.44	6.97301e-07
3300.12	6.6609e-07
3308.8	4.8957e-07
3317.47	3.66263e-07
3326.15	4.21528e-07
3334.83	4.58769e-07
3343.51	6.73056e-07
3352.19	6.83173e-07
3360.86	7.11623e-07
3369.54	7.64023e-07
3378.22	8.72364e-07
3386.9	1.09128e-06
3395.58	1.18705e-06
3404.26	1.0838e-06
3412.93	8.37514e-07
3421.61	3.26745e-07
3430.29	2.07239e-07
3438.97	2.0159e-07
3447.65	1.19988e-07
3456.32	3.56502e-08
3465	1.05568e-07
3473.68	1.15158e-07
3482.36	1.16216e-07
3491.04	6.56397e-08
3499.72	1.05439e-07
3508.39	5.32952e-08
3517.07	3.67861e-08
3525.75	-5.68349e-08
3534.43	-7.92266e-08
3543.11	-3.63259e-08
3551.78	-1.67182e-08
3560.46	1.79442e-08
3569.14	1.63946e-07
3577.82	2.38674e-07
3586.5	3.06062e-07
3595.18	3.48488e-07
3603.85	4.00152e-07
3612.53	6.1334e-07
3621.21	6.51984e-07
3629.89	8.05764e-07
3638.57	8.01982e-07
3647.24	8.6793e-07
3655.92	8.03075e-07
3664.6	7.81013e-07
3673.28	8.21976e-07
3681.96	9.19211e-07
3690.64	9.98909e-07
3699.31	9.69443e-07
3707.99	9.92048e-07
3716.67	1.26486e-06
3725.35	1.18784e-06
3734.03	1.318e-06
3742.7	9.54422e-07
3751.38	6.85146e-07
3760.06	7.00074e-07
3768.74	5.84823e-07
3777.42	5.50603e-07
3786.1	4.9532e-07
3794.77	4.62638e-07
3803.45	4.52343e-07
3812.13	4.88455e-07
3820.81	7.35697e-07
3829.49	7.60746e-07
3838.16	1.4642e-06
3846.84	1.5931e-06
3855.52	1.85522e-06
3864.2	1.65017e-06
3872.88	1.37201e-06
3881.56	1.21931e-06
3890.23	1.06086e-06
3898.91	9.74889e-07
3907.59	8.64919e-07
3916.27	7.59651e-07
3924.95	6.71276e-07
3933.62	6.50431e-07
3942.3	5.58481e-07
3950.98	4.74721e-07
3959.66	4.59221e-07
3968.34	4.97858e-07
