Infrared Spectrum: 1,3-Butadiene
Formula: C H2: C H C H: C H2
CAS: 106-99-0
State: gas
Melting point: -108.91 C
Boiling point: -4.41 C
Class: IUPAC A
Instrument: IFS66V (Bruker)
Instrument parameters: KBr Beam splitter; MCT Detector; Multipass cell
Sampling: 1 L/min Flow
Resolution: 1.9290
Temperature: 23 C
Pressure: 101.3 kPa
Origin: NIST, Anayltical Chemistry Division, 301-975-3108
cm-1	(micromol/mol)-1m-1 (base 10)
574.687	4.71347e-06
583.365	3.25001e-06
592.043	1.91405e-06
600.721	1.71723e-06
609.4	9.12732e-07
618.078	6.28877e-07
626.756	7.46267e-07
635.434	1.06673e-06
644.112	1.65816e-06
652.79	2.38619e-06
661.469	2.71616e-06
670.147	3.46612e-06
678.825	2.67703e-06
687.503	2.24735e-06
696.181	1.71558e-06
704.859	1.16643e-06
713.537	7.03458e-07
722.216	6.79353e-07
730.894	7.84967e-07
739.572	1.01976e-06
748.25	9.40078e-07
756.928	1.06172e-06
765.606	9.35669e-07
774.285	7.07305e-07
782.963	5.74237e-07
791.641	5.44702e-07
800.319	5.16203e-07
808.997	7.2183e-07
817.675	1.13022e-06
826.353	2.1094e-06
835.032	4.27182e-06
843.71	8.46834e-06
852.388	1.66859e-05
861.066	3.07258e-05
869.744	5.23167e-05
878.422	8.20931e-05
887.101	0.000112717
895.779	0.000127729
904.457	0.000139453
913.135	0.000138716
921.813	0.000159322
930.491	0.000147589
939.169	0.00010414
947.848	6.19082e-05
956.526	3.54891e-05
965.204	2.58353e-05
973.882	2.94128e-05
982.56	5.10652e-05
991.238	6.38067e-05
999.917	9.20573e-05
1008.59	9.51625e-05
1017.27	7.75851e-05
1025.95	7.32028e-05
1034.63	6.56808e-05
1043.31	5.07881e-05
1051.99	3.77464e-05
1060.66	2.22739e-05
1069.34	1.41196e-05
1078.02	1.00146e-05
1086.7	4.91145e-06
1095.38	1.91224e-06
1104.05	6.33956e-07
1112.73	2.98917e-07
1121.41	2.40362e-07
1130.09	2.72713e-07
1138.77	2.67408e-07
1147.45	2.39904e-07
1156.12	2.00709e-07
1164.8	1.71886e-07
1173.48	1.93153e-07
1182.16	2.07634e-07
1190.84	1.34704e-07
1199.51	1.86837e-07
1208.19	2.9095e-07
1216.87	5.09627e-07
1225.55	8.5715e-07
1234.23	1.42589e-06
1242.9	2.3899e-06
1251.58	3.95514e-06
1260.26	5.60216e-06
1268.94	5.2235e-06
1277.62	7.78478e-06
1286.3	7.15313e-06
1294.97	4.13257e-06
1303.65	6.38718e-06
1312.33	4.41514e-06
1321.01	3.14522e-06
1329.69	2.7976e-06
1338.36	2.78261e-06
1347.04	3.03573e-06
1355.72	4.619e-06
1364.4	1.27553e-05
1373.08	2.11883e-05
1381.76	1.45008e-05
1390.43	1.92397e-05
1399.11	8.30383e-06
1407.79	5.13346e-06
1416.47	5.60516e-06
1425.15	5.25185e-06
1433.82	4.39231e-06
1442.5	5.30319e-06
1451.18	3.95989e-06
1459.86	3.46322e-06
1468.54	3.91156e-06
1477.22	6.11516e-06
1485.89	4.98261e-06
1494.57	5.52489e-06
1503.25	3.90614e-06
1511.93	2.71057e-06
1520.61	2.56355e-06
1529.28	9.62839e-07
1537.96	1.46432e-06
1546.64	1.05558e-06
1555.32	2.34339e-06
1564	5.70098e-06
1572.67	1.86552e-05
1581.35	6.62936e-05
1590.03	0.00010087
1598.71	6.78169e-05
1607.39	0.000102385
1616.07	1.92426e-05
1624.74	3.744e-06
1633.42	3.0829e-06
1642.1	3.19202e-06
1650.78	3.171e-06
1659.46	1.62968e-06
1668.13	2.19056e-06
1676.81	1.27949e-06
1685.49	1.97374e-06
1694.17	8.84878e-07
1702.85	6.76702e-07
1711.53	7.10946e-07
1720.2	1.12407e-06
1728.88	1.77916e-06
1737.56	2.42074e-06
1746.24	3.69521e-06
1754.92	5.28805e-06
1763.59	3.76756e-06
1772.27	4.37677e-06
1780.95	3.07679e-06
1789.63	4.16612e-06
1798.31	9.93768e-06
1806.98	4.22597e-05
1815.66	4.27365e-05
1824.34	4.45291e-05
1833.02	4.42906e-05
1841.7	7.61991e-06
1850.38	1.69471e-06
1859.05	1.89618e-06
1867.73	2.1578e-06
1876.41	2.05353e-06
1885.09	2.26008e-06
1893.77	1.25949e-06
1902.44	1.23452e-06
1911.12	1.42536e-06
1919.8	1.23726e-06
1928.48	1.30036e-06
1937.16	1.33052e-06
1945.84	1.71689e-06
1954.51	2.70042e-06
1963.19	3.66561e-06
1971.87	2.63165e-06
1980.55	2.90956e-06
1989.23	1.43391e-06
1997.9	7.14022e-07
2006.58	4.65447e-07
2015.26	2.03437e-07
2023.94	4.94166e-08
2032.62	1.16986e-08
2041.3	1.34458e-08
2049.97	-2.79429e-08
2058.65	-2.41958e-08
2067.33	2.68297e-10
2076.01	4.45227e-08
2084.69	1.03824e-07
2093.36	2.29394e-07
2102.04	3.15188e-07
2110.72	3.27045e-07
2119.4	3.92798e-07
2128.08	2.42809e-07
2136.75	1.82509e-07
2145.43	1.88934e-07
2154.11	2.69238e-07
2162.79	3.68431e-07
2171.47	3.90703e-07
2180.15	4.71125e-07
2188.82	4.40676e-07
2197.5	4.49847e-07
2206.18	4.0011e-07
2214.86	4.19536e-07
2223.54	3.80398e-07
2232.21	4.42859e-07
2240.89	6.43494e-07
2249.57	8.5331e-07
2258.25	1.19409e-06
2266.93	9.54507e-07
2275.61	1.14947e-06
2284.28	8.04009e-07
2292.96	5.98402e-07
2301.64	6.01064e-07
2310.32	5.08759e-07
2319	5.85821e-07
2327.67	7.85095e-07
2336.35	9.03638e-07
2345.03	7.39508e-07
2353.71	6.96451e-07
2362.39	1.03385e-06
2371.06	6.04992e-07
2379.74	1.93751e-07
2388.42	1.48896e-07
2397.1	1.90971e-07
2405.78	2.73599e-07
2414.46	3.64809e-07
2423.13	3.65789e-07
2431.81	4.37358e-07
2440.49	4.03767e-07
2449.17	4.45532e-07
2457.85	5.46262e-07
2466.52	6.68893e-07
2475.2	1.02002e-06
2483.88	1.64315e-06
2492.56	1.18524e-06
2501.24	1.62414e-06
2509.92	9.94202e-07
2518.59	4.31076e-07
2527.27	3.14531e-07
2535.95	2.62142e-07
2544.63	2.14192e-07
2553.31	2.59681e-07
2561.98	3.5287e-07
2570.66	5.33959e-07
2579.34	4.2928e-07
2588.02	4.87199e-07
2596.7	3.74879e-07
2605.38	1.42857e-07
2614.05	1.17461e-07
2622.73	1.42823e-07
2631.41	1.59273e-07
2640.09	1.8701e-07
2648.77	1.79977e-07
2657.44	1.52777e-07
2666.12	1.24568e-07
2674.8	8.57121e-08
2683.48	9.58583e-08
2692.16	1.19038e-07
2700.83	2.08084e-07
2709.51	2.2767e-07
2718.19	4.01573e-07
2726.87	3.45214e-07
2735.55	3.09538e-07
2744.23	2.62608e-07
2752.9	1.87906e-07
2761.58	1.26963e-07
2770.26	1.86341e-07
2778.94	2.13974e-07
2787.62	3.67302e-07
2796.29	3.57847e-07
2804.97	5.02153e-07
2813.65	3.52669e-07
2822.33	3.96756e-07
2831.01	4.91229e-07
2839.69	9.69074e-07
2848.36	1.66566e-06
2857.04	2.0246e-06
2865.72	2.44467e-06
2874.4	2.6421e-06
2883.08	3.30586e-06
2891.75	4.52252e-06
2900.43	5.09565e-06
2909.11	6.0179e-06
2917.79	8.21532e-06
2926.47	8.33752e-06
2935.14	1.12714e-05
2943.82	1.24007e-05
2952.5	1.60897e-05
2961.18	2.00424e-05
2969.86	3.49936e-05
2978.54	4.21582e-05
2987.21	4.24982e-05
2995.89	5.68939e-05
3004.57	5.56941e-05
3013.25	4.41262e-05
3021.93	5.35868e-05
3030.6	4.30381e-05
3039.28	5.33413e-05
3047.96	5.51401e-05
3056.64	4.68781e-05
3065.32	6.65955e-05
3074	6.05881e-05
3082.67	7.54699e-05
3091.35	9.32895e-05
3100.03	6.04158e-05
3108.71	9.32792e-05
3117.39	5.32761e-05
3126.06	3.16061e-05
3134.74	2.11729e-05
3143.42	1.26191e-05
3152.1	6.73447e-06
3160.78	3.22783e-06
3169.46	1.51954e-06
3178.13	5.91199e-07
3186.81	4.17415e-07
3195.49	2.65128e-07
3204.17	3.84219e-08
3212.85	1.62918e-07
3221.52	5.25856e-07
3230.2	5.63685e-07
3238.88	8.97635e-07
3247.56	6.60041e-07
3256.24	3.42331e-07
3264.91	2.99591e-07
3273.59	1.87038e-07
3282.27	9.42103e-08
3290.95	9.79401e-08
3299.63	2.24658e-07
3308.31	2.18312e-07
3316.98	2.58394e-07
3325.66	1.85563e-07
3334.34	1.21306e-07
3343.02	1.10997e-07
3351.7	5.54883e-08
3360.37	1.02004e-07
3369.05	9.32326e-08
3377.73	2.61837e-07
3386.41	4.90809e-07
3395.09	5.76331e-07
3403.77	6.24239e-07
3412.44	5.55087e-07
3421.12	3.15014e-07
3429.8	1.64027e-07
3438.48	2.39585e-07
3447.16	3.77433e-07
3455.83	2.19055e-07
3464.51	3.36529e-07
3473.19	1.93098e-07
3481.87	2.02432e-07
3490.55	1.97063e-07
3499.22	2.20682e-07
3507.9	2.33092e-07
3516.58	2.75915e-07
3525.26	2.87261e-07
3533.94	3.26078e-07
3542.62	2.35955e-07
3551.29	3.28275e-07
3559.97	2.80023e-07
3568.65	4.77171e-07
3577.33	3.23809e-07
3586.01	5.60463e-07
3594.68	5.68961e-07
3603.36	5.79775e-07
3612.04	6.93937e-07
3620.72	8.58155e-07
3629.4	1.24094e-06
3638.08	1.92237e-07
3646.75	5.66409e-07
3655.43	3.62491e-07
3664.11	4.90865e-08
3672.79	1.63519e-07
3681.47	7.40071e-08
3690.14	5.03604e-07
3698.82	1.13177e-07
3707.5	1.23252e-07
3716.18	9.00876e-08
3724.86	1.88232e-07
3733.54	4.91642e-07
3742.21	2.481e-07
3750.89	9.11026e-07
3759.57	3.68465e-07
3768.25	1.22912e-07
3776.93	6.71324e-08
3785.6	1.41909e-07
3794.28	1.02283e-07
3802.96	5.11989e-07
3811.64	1.32418e-07
3820.32	7.38659e-07
3828.99	2.2612e-07
3837.67	1.31284e-06
3846.35	2.85789e-07
3855.03	1.54874e-06
3863.71	5.81167e-07
3872.39	4.90632e-07
3881.06	6.84371e-07
3889.74	5.30852e-07
3898.42	6.32361e-07
3907.1	4.543e-07
3915.78	4.28446e-07
3924.45	5.0907e-07
3933.13	5.27148e-07
3941.81	4.84552e-07
3950.49	4.93512e-07
3959.17	5.93667e-07
3967.85	9.85675e-07
