Infrared Spectrum: 1,2-Dichloroethane
Formula: Cl C H2 C H2 Cl
CAS: 107-06-2
State: gas
Melting point: -35.36 C
Boiling point: 83.47 C
Class: IUPAC A
Instrument: IFS66V (Bruker)
Instrument parameters: KBr Beam Splitter; MCT Detector; Multipass cell
Sampling: 1 L/min Flow
Resolution: 0.2410
Temperature: 23 C
Pressure: 101.3 Pa
Origin: NIST, Analytical Chemistry Division, 301-975-3108
cm-1	(micromol/mol)-1m-1 (base 10)
575.05	8.37853e-07
583.608	6.16219e-07
592.165	5.27442e-07
600.723	-1.53559e-07
609.281	-4.66368e-08
617.838	-3.29567e-07
626.396	-1.86053e-07
634.954	4.92066e-07
643.511	2.54483e-06
652.069	7.46063e-06
660.626	1.47286e-05
669.184	1.42704e-05
677.742	2.44836e-05
686.299	4.07356e-05
694.857	2.98028e-05
703.415	3.86386e-05
711.972	0.000134043
720.53	0.000495417
729.088	0.000517781
737.645	0.000221908
746.203	6.31457e-06
754.761	6.48497e-06
763.318	6.55117e-06
771.876	9.33909e-06
780.434	5.06466e-06
788.991	4.11901e-06
797.549	3.28306e-06
806.106	1.75592e-06
814.664	1.54912e-06
823.222	1.74013e-06
831.779	2.37005e-06
840.337	1.53798e-06
848.895	6.32518e-07
857.452	1.00935e-06
866.01	1.32593e-06
874.568	4.96787e-06
883.125	2.12384e-05
891.683	1.71754e-05
900.241	1.62142e-05
908.798	3.02435e-06
917.356	1.61229e-06
925.914	3.11969e-06
934.471	6.93841e-06
943.029	9.26785e-06
951.586	9.58296e-06
960.144	6.25697e-06
968.702	2.76776e-06
977.259	1.91167e-06
985.817	3.02229e-06
994.375	3.49382e-06
1002.93	1.62105e-06
1011.49	2.02052e-06
1020.05	3.71738e-06
1028.61	4.52426e-06
1037.16	2.60844e-06
1045.72	1.07568e-06
1054.28	4.10696e-07
1062.84	-2.71965e-08
1071.39	3.01332e-08
1079.95	3.01118e-07
1088.51	4.84629e-07
1097.07	1.09522e-06
1105.62	1.89266e-06
1114.18	2.70814e-06
1122.74	5.19005e-06
1131.3	2.2487e-06
1139.85	3.33984e-06
1148.41	2.45832e-06
1156.97	1.90006e-06
1165.53	1.24846e-06
1174.09	8.57403e-07
1182.64	1.06211e-06
1191.2	1.84643e-06
1199.76	4.29394e-06
1208.32	6.31771e-06
1216.87	1.62245e-05
1225.43	0.000141983
1233.99	0.000125617
1242.55	8.9156e-05
1251.1	1.29078e-05
1259.66	6.27872e-06
1268.22	4.54978e-06
1276.78	1.0633e-05
1285.33	4.40433e-05
1293.89	2.11625e-05
1302.45	3.1766e-05
1311.01	1.12446e-05
1319.57	1.31103e-05
1328.12	8.03757e-06
1336.68	4.62864e-06
1345.24	3.35384e-06
1353.8	2.81149e-06
1362.35	2.4172e-06
1370.91	1.7948e-06
1379.47	1.20818e-06
1388.03	8.584e-07
1396.58	7.40309e-07
1405.14	1.11798e-06
1413.7	2.90328e-06
1422.26	7.43819e-06
1430.81	1.67699e-05
1439.37	2.07315e-05
1447.93	2.47059e-05
1456.49	3.03215e-05
1465.05	3.2851e-05
1473.6	1.47104e-05
1482.16	9.74236e-06
1490.72	5.2926e-06
1499.28	2.74488e-06
1507.83	9.44182e-07
1516.39	1.23912e-06
1524.95	2.08493e-06
1533.51	2.4382e-06
1542.06	1.84428e-07
1550.62	4.93869e-07
1559.18	6.36343e-08
1567.74	2.07952e-07
1576.29	-1.19973e-06
1584.85	2.54906e-07
1593.41	8.5121e-08
1601.97	-1.67684e-07
1610.53	3.98429e-08
1619.08	-6.06748e-08
1627.64	-3.07938e-07
1636.2	-1.32688e-07
1644.76	-5.85148e-08
1653.31	-2.10217e-06
1661.87	-7.11921e-08
1670.43	1.79073e-07
1678.99	3.04668e-07
1687.54	2.09031e-07
1696.1	-8.57297e-07
1704.66	-1.17824e-07
1713.22	1.63992e-07
1721.77	2.18252e-07
1730.33	2.51865e-08
1738.89	-2.8508e-08
1747.45	4.69706e-08
1756.01	1.76059e-08
1764.56	8.95829e-08
1773.12	-1.56987e-08
1781.68	1.17638e-07
1790.24	3.77211e-08
1798.79	-8.95038e-08
1807.35	-8.19269e-08
1815.91	5.11443e-08
1824.47	-1.76859e-08
1833.02	-2.20606e-08
1841.58	3.097e-08
1850.14	6.33496e-08
1858.7	9.09263e-08
1867.25	-2.03698e-08
1875.81	-1.29329e-08
1884.37	-3.38821e-08
1892.93	1.68269e-07
1901.49	1.40566e-07
1910.04	-2.10338e-08
1918.6	5.26158e-08
1927.16	-2.8909e-08
1935.72	-9.54601e-08
1944.27	-1.08392e-07
1952.83	-7.07774e-08
1961.39	-3.40477e-08
1969.95	3.85624e-10
1978.5	-6.842e-08
1987.06	5.28032e-08
1995.62	-7.96477e-08
2004.18	7.18261e-08
2012.73	3.52601e-07
2021.29	1.09116e-06
2029.85	1.97764e-06
2038.41	1.84876e-06
2046.97	6.62339e-07
2055.52	2.53597e-07
2064.08	1.52208e-07
2072.64	8.68745e-09
2081.2	2.97449e-08
2089.75	7.80588e-08
2098.31	2.91982e-07
2106.87	2.36338e-07
2115.43	4.82249e-07
2123.98	2.70675e-07
2132.54	4.20553e-07
2141.1	2.12025e-07
2149.66	5.39846e-08
2158.21	1.71674e-07
2166.77	1.67725e-07
2175.33	2.71098e-07
2183.89	5.84258e-07
2192.45	7.84783e-07
2201	1.15609e-06
2209.56	1.21722e-06
2218.12	1.64666e-06
2226.68	1.54758e-06
2235.23	1.44891e-06
2243.79	9.30322e-07
2252.35	7.18176e-07
2260.91	3.32575e-07
2269.46	2.21282e-07
2278.02	1.62547e-07
2286.58	2.51185e-07
2295.14	9.16775e-08
2303.69	1.71756e-07
2312.25	3.34905e-07
2320.81	-7.76614e-09
2329.37	2.98933e-07
2337.93	-1.52074e-07
2346.48	1.26678e-07
2355.04	2.27001e-07
2363.6	-1.1465e-08
2372.16	3.40564e-07
2380.71	8.44256e-07
2389.27	1.1332e-06
2397.83	5.77297e-07
2406.39	6.73553e-07
2414.94	6.60432e-07
2423.5	7.73395e-07
2432.06	4.85781e-07
2440.62	6.55114e-07
2449.17	4.18185e-07
2457.73	5.85991e-07
2466.29	5.80065e-07
2474.85	3.26239e-07
2483.41	2.46464e-07
2491.96	3.34639e-07
2500.52	5.69904e-07
2509.08	6.93639e-07
2517.64	7.00743e-07
2526.19	6.69424e-07
2534.75	5.11389e-07
2543.31	3.06673e-07
2551.87	2.06371e-07
2560.42	3.43696e-08
2568.98	-1.01445e-07
2577.54	-4.96718e-08
2586.1	1.37932e-07
2594.65	-8.83324e-08
2603.21	-7.62371e-08
2611.77	-2.4978e-07
2620.33	-1.64451e-07
2628.89	1.59252e-09
2637.44	-1.08452e-07
2646	-2.47072e-08
2654.56	5.96353e-08
2663.12	-1.62817e-08
2671.67	3.33388e-07
2680.23	1.49674e-06
2688.79	1.47065e-06
2697.35	1.01472e-06
2705.9	1.81619e-07
2714.46	1.22282e-07
2723.02	5.31407e-07
2731.58	2.93215e-07
2740.13	6.59338e-07
2748.69	6.75837e-07
2757.25	2.10057e-06
2765.81	1.8725e-06
2774.37	1.19209e-06
2782.92	1.49849e-07
2791.48	6.48794e-08
2800.04	4.55518e-08
2808.6	-9.08071e-08
2817.15	2.02271e-09
2825.71	3.18551e-07
2834.27	6.37615e-07
2842.83	1.71484e-06
2851.38	3.62254e-06
2859.94	3.86647e-06
2868.5	4.73046e-06
2877.06	5.17124e-06
2885.61	1.26626e-05
2894.17	1.0046e-05
2902.73	1.05983e-05
2911.29	3.33503e-06
2919.85	2.14469e-06
2928.4	2.16801e-06
2936.96	4.75574e-06
2945.52	1.2062e-05
2954.08	2.57124e-05
2962.63	2.53503e-05
2971.19	4.87142e-05
2979.75	5.3708e-05
2988.31	5.76361e-05
2996.86	3.75896e-05
3005.42	2.88863e-05
3013.98	2.40327e-05
3022.54	1.83857e-05
3031.09	1.33247e-05
3039.65	9.52764e-06
3048.21	8.14681e-06
3056.77	5.43799e-06
3065.33	3.13424e-06
3073.88	1.6583e-06
3082.44	9.53528e-07
3091	7.21204e-07
3099.56	4.90802e-07
3108.11	5.46105e-07
3116.67	5.16866e-07
3125.23	3.20653e-07
3133.79	-1.76323e-08
3142.34	3.4808e-08
3150.9	-4.4636e-08
3159.46	1.04173e-08
3168.02	-8.65962e-08
3176.57	-2.38764e-07
3185.13	-5.70814e-08
3193.69	1.43954e-07
3202.25	2.62477e-07
3210.81	1.46216e-07
3219.36	1.11509e-07
3227.92	5.22293e-08
3236.48	-1.9333e-07
3245.04	6.5164e-08
3253.59	4.03031e-08
3262.15	2.53309e-07
3270.71	4.86895e-08
3279.27	1.47631e-07
3287.82	6.13724e-08
3296.38	6.6049e-08
3304.94	-1.64426e-07
3313.5	6.85101e-08
3322.05	2.94031e-07
3330.61	-1.11008e-07
3339.17	-1.26224e-07
3347.73	-1.30566e-07
3356.29	2.45982e-07
3364.84	-1.08563e-07
3373.4	-1.48143e-07
3381.96	-1.57195e-07
3390.52	1.01034e-07
3399.07	2.39457e-07
3407.63	1.69475e-07
3416.19	9.42632e-08
3424.75	-1.99578e-08
3433.3	-9.4868e-08
3441.86	-1.26738e-07
3450.42	-1.2344e-07
3458.98	2.20715e-08
3467.53	2.11065e-07
3476.09	7.1395e-09
3484.65	-1.72249e-07
3493.21	2.4147e-08
3501.77	-2.3603e-07
3510.32	-2.89384e-07
3518.88	-7.98623e-08
3527.44	1.45027e-07
3536	-4.23695e-08
3544.55	-5.3327e-08
3553.11	-1.04475e-07
3561.67	5.17063e-08
3570.23	-2.44604e-07
3578.78	-1.61023e-07
3587.34	-1.43192e-07
3595.9	1.38738e-07
3604.46	-1.36864e-07
3613.01	-2.32457e-08
3621.57	9.93827e-08
3630.13	2.35616e-07
3638.69	2.79469e-07
3647.25	-1.9165e-07
3655.8	2.37034e-07
3664.36	3.59883e-07
3672.92	4.62196e-07
3681.48	3.27296e-07
3690.03	2.70156e-07
3698.59	4.05804e-07
3707.15	2.0247e-07
3715.71	2.1399e-07
3724.26	2.26618e-07
3732.82	4.94787e-07
3741.38	6.45079e-07
3749.94	1.12443e-06
3758.49	1.49948e-06
3767.05	9.31165e-07
3775.61	1.33827e-06
3784.17	1.01224e-06
3792.73	1.02402e-06
3801.28	-3.43001e-07
3809.84	5.81279e-07
3818.4	5.98019e-07
3826.96	5.51758e-07
3835.51	2.05038e-07
3844.07	2.45882e-07
3852.63	-3.94037e-08
3861.19	1.60114e-07
3869.74	2.95039e-08
3878.3	-2.98003e-08
3886.86	2.40529e-07
3895.42	3.00013e-07
3903.97	-2.18062e-07
3912.53	-1.70815e-07
3921.09	1.42926e-08
3929.65	-1.34414e-08
3938.21	-3.3411e-08
3946.76	1.75396e-07
3955.32	4.03685e-07
3963.88	3.78693e-07
3972.44	6.01144e-07
