Infrared Spectrum: 1,2-Dichloroethane
Formula: Cl C H2 C H2 Cl
CAS: 107-06-2
State: gas
Melting point: -35.36 C
Boiling point: 83.47 C
Class: IUPAC A
Instrument: IFS66V (Bruker)
Instrument parameters: KBr Beam Splitter; MCT Detector; Multipass cell
Sampling: 1 L/min Flow
Resolution: 0.1250
Temperature: 23 C
Pressure: 101.3 Pa
Origin: NIST, Analytical Chemistry Division, 301-975-3108
cm-1	(micromol/mol)-1m-1 (base 10)
575.05	1.84913e-06
583.608	2.19169e-07
592.165	8.57603e-07
600.723	-1.84458e-07
609.281	-2.05218e-07
617.838	-2.13896e-07
626.396	-3.59919e-07
634.954	1.22406e-07
643.511	2.75174e-06
652.069	7.31892e-06
660.626	1.45795e-05
669.184	1.40409e-05
677.742	2.45531e-05
686.299	4.05947e-05
694.857	2.94491e-05
703.415	3.87137e-05
711.972	0.000133968
720.53	0.000495538
729.088	0.000517272
737.645	0.00022144
746.203	6.42537e-06
754.761	6.71163e-06
763.318	6.50228e-06
771.876	9.62065e-06
780.434	4.99518e-06
788.991	4.16378e-06
797.549	3.35206e-06
806.106	1.52163e-06
814.664	1.57171e-06
823.222	1.71472e-06
831.779	2.26206e-06
840.337	1.21062e-06
848.895	5.63665e-07
857.452	8.8144e-07
866.01	1.29849e-06
874.568	4.97882e-06
883.125	2.12808e-05
891.683	1.7315e-05
900.241	1.61484e-05
908.798	3.0304e-06
917.356	1.65038e-06
925.914	3.05082e-06
934.471	6.93755e-06
943.029	9.1933e-06
951.586	9.53445e-06
960.144	6.29201e-06
968.702	2.74166e-06
977.259	1.97334e-06
985.817	3.12002e-06
994.375	3.59958e-06
1002.93	1.70697e-06
1011.49	2.10484e-06
1020.05	3.73775e-06
1028.61	4.64933e-06
1037.16	2.65711e-06
1045.72	1.13065e-06
1054.28	4.66616e-07
1062.84	-8.32829e-08
1071.39	1.32243e-07
1079.95	3.24722e-07
1088.51	4.76242e-07
1097.07	1.17909e-06
1105.62	1.95669e-06
1114.18	2.71717e-06
1122.74	5.18668e-06
1131.3	2.26104e-06
1139.85	3.41794e-06
1148.41	2.38243e-06
1156.97	1.96665e-06
1165.53	1.18455e-06
1174.09	8.47789e-07
1182.64	1.14683e-06
1191.2	1.83174e-06
1199.76	4.33844e-06
1208.32	6.24655e-06
1216.87	1.61734e-05
1225.43	0.000141854
1233.99	0.000125422
1242.55	8.93652e-05
1251.1	1.30546e-05
1259.66	6.14093e-06
1268.22	4.53794e-06
1276.78	1.06905e-05
1285.33	4.41091e-05
1293.89	2.11644e-05
1302.45	3.186e-05
1311.01	1.1208e-05
1319.57	1.32398e-05
1328.12	8.05159e-06
1336.68	4.6541e-06
1345.24	3.3025e-06
1353.8	2.68957e-06
1362.35	2.40327e-06
1370.91	1.91338e-06
1379.47	1.18457e-06
1388.03	7.85122e-07
1396.58	7.34218e-07
1405.14	1.08482e-06
1413.7	2.95534e-06
1422.26	7.45199e-06
1430.81	1.66646e-05
1439.37	2.06235e-05
1447.93	2.45299e-05
1456.49	3.0121e-05
1465.05	3.30917e-05
1473.6	1.4708e-05
1482.16	9.88486e-06
1490.72	5.19337e-06
1499.28	2.75059e-06
1507.83	9.95397e-07
1516.39	1.23037e-06
1524.95	2.13515e-06
1533.51	2.48303e-06
1542.06	2.18199e-07
1550.62	5.68302e-07
1559.18	5.74016e-08
1567.74	2.06307e-07
1576.29	-1.17312e-06
1584.85	3.07113e-07
1593.41	1.01305e-07
1601.97	-2.11174e-07
1610.53	3.21105e-08
1619.08	-7.78905e-08
1627.64	-2.65439e-07
1636.2	-1.73473e-07
1644.76	-8.12102e-08
1653.31	-2.42915e-06
1661.87	-2.42952e-08
1670.43	1.80536e-07
1678.99	3.3589e-07
1687.54	1.77719e-07
1696.1	-6.16384e-07
1704.66	-8.13366e-08
1713.22	1.67663e-07
1721.77	2.57016e-07
1730.33	1.89447e-08
1738.89	-9.10127e-09
1747.45	7.21053e-08
1756.01	2.82588e-08
1764.56	9.69544e-08
1773.12	5.30142e-09
1781.68	4.50661e-08
1790.24	3.24988e-08
1798.79	-6.02055e-08
1807.35	-1.06937e-07
1815.91	1.65318e-08
1824.47	3.34065e-08
1833.02	-2.52784e-08
1841.58	1.08293e-08
1850.14	5.63684e-08
1858.7	1.11273e-07
1867.25	-4.61239e-08
1875.81	1.86927e-08
1884.37	-3.51381e-08
1892.93	2.20775e-07
1901.49	1.6772e-07
1910.04	-3.84969e-08
1918.6	6.59307e-08
1927.16	-2.32684e-08
1935.72	-9.11109e-08
1944.27	-8.80159e-08
1952.83	-6.6672e-08
1961.39	4.77482e-09
1969.95	-3.96356e-08
1978.5	-1.02539e-07
1987.06	3.48162e-08
1995.62	-8.78258e-08
2004.18	1.30169e-07
2012.73	3.82176e-07
2021.29	1.16939e-06
2029.85	1.92249e-06
2038.41	1.93217e-06
2046.97	6.92367e-07
2055.52	2.70119e-07
2064.08	1.44834e-07
2072.64	-1.03e-08
2081.2	2.65726e-08
2089.75	3.40722e-08
2098.31	3.51346e-07
2106.87	2.14678e-07
2115.43	4.44811e-07
2123.98	1.86287e-07
2132.54	5.17737e-07
2141.1	2.44018e-07
2149.66	8.02343e-08
2158.21	2.12687e-07
2166.77	1.30264e-07
2175.33	2.119e-07
2183.89	5.49708e-07
2192.45	7.52401e-07
2201	1.18676e-06
2209.56	1.11178e-06
2218.12	1.58839e-06
2226.68	1.63681e-06
2235.23	1.48634e-06
2243.79	9.07031e-07
2252.35	7.09474e-07
2260.91	3.61735e-07
2269.46	1.80183e-07
2278.02	1.1385e-07
2286.58	2.3725e-07
2295.14	5.10597e-08
2303.69	1.05053e-07
2312.25	2.99244e-07
2320.81	-7.60688e-08
2329.37	3.28156e-07
2337.93	-8.88281e-08
2346.48	1.34188e-07
2355.04	3.08055e-07
2363.6	-5.11434e-08
2372.16	3.34263e-07
2380.71	7.92305e-07
2389.27	1.22145e-06
2397.83	5.59486e-07
2406.39	6.24311e-07
2414.94	6.3896e-07
2423.5	7.95483e-07
2432.06	4.24729e-07
2440.62	6.62348e-07
2449.17	4.02357e-07
2457.73	6.1939e-07
2466.29	5.14912e-07
2474.85	2.9322e-07
2483.41	2.27255e-07
2491.96	2.89808e-07
2500.52	6.15564e-07
2509.08	7.15163e-07
2517.64	6.17964e-07
2526.19	6.09785e-07
2534.75	5.33477e-07
2543.31	2.91435e-07
2551.87	1.5936e-07
2560.42	3.79539e-08
2568.98	-1.32453e-07
2577.54	-1.1077e-07
2586.1	1.40348e-07
2594.65	-8.27063e-08
2603.21	-1.82762e-08
2611.77	-2.98698e-07
2620.33	-1.28576e-07
2628.89	1.15893e-07
2637.44	-1.11272e-07
2646	-3.76565e-08
2654.56	7.01335e-08
2663.12	3.11919e-08
2671.67	3.21653e-07
2680.23	1.51629e-06
2688.79	1.46275e-06
2697.35	1.01542e-06
2705.9	1.15627e-07
2714.46	1.09905e-07
2723.02	5.06798e-07
2731.58	2.67999e-07
2740.13	7.33473e-07
2748.69	6.83711e-07
2757.25	2.06325e-06
2765.81	1.85055e-06
2774.37	1.17866e-06
2782.92	1.8736e-07
2791.48	1.12756e-07
2800.04	1.25928e-07
2808.6	-1.05881e-07
2817.15	-1.80394e-07
2825.71	3.09578e-07
2834.27	5.49975e-07
2842.83	1.70359e-06
2851.38	3.73398e-06
2859.94	3.94791e-06
2868.5	4.74863e-06
2877.06	5.18363e-06
2885.61	1.26128e-05
2894.17	1.00717e-05
2902.73	1.07315e-05
2911.29	3.30138e-06
2919.85	2.09379e-06
2928.4	2.22399e-06
2936.96	4.64381e-06
2945.52	1.20063e-05
2954.08	2.54541e-05
2962.63	2.52537e-05
2971.19	4.85445e-05
2979.75	5.35296e-05
2988.31	5.75909e-05
2996.86	3.76187e-05
3005.42	2.8935e-05
3013.98	2.4031e-05
3022.54	1.84094e-05
3031.09	1.32635e-05
3039.65	9.4042e-06
3048.21	8.24206e-06
3056.77	5.3681e-06
3065.33	3.12558e-06
3073.88	1.60726e-06
3082.44	1.02078e-06
3091	6.8519e-07
3099.56	4.12859e-07
3108.11	5.01361e-07
3116.67	5.3868e-07
3125.23	3.8662e-07
3133.79	-4.02668e-08
3142.34	-6.42746e-08
3150.9	-2.0397e-07
3159.46	9.74309e-08
3168.02	-1.12391e-07
3176.57	-2.989e-07
3185.13	-1.88235e-07
3193.69	1.92749e-07
3202.25	4.05097e-07
3210.81	8.25135e-08
3219.36	5.18182e-08
3227.92	1.5431e-07
3236.48	-1.59545e-07
3245.04	1.24313e-07
3253.59	7.64699e-08
3262.15	1.69964e-07
3270.71	1.17289e-07
3279.27	1.6841e-08
3287.82	1.37107e-07
3296.38	-4.07179e-08
3304.94	3.72436e-09
3313.5	1.43809e-07
3322.05	3.73546e-07
3330.61	-7.58888e-08
3339.17	-2.55757e-07
3347.73	-1.93448e-07
3356.29	3.8629e-07
3364.84	4.14109e-08
3373.4	-1.82061e-07
3381.96	-1.11577e-07
3390.52	1.04844e-07
3399.07	2.3719e-07
3407.63	2.16937e-07
3416.19	1.25055e-08
3424.75	-4.28279e-09
3433.3	-2.12475e-08
3441.86	-1.56346e-07
3450.42	-1.43304e-07
3458.98	1.32883e-07
3467.53	1.53788e-07
3476.09	5.96716e-08
3484.65	-7.02099e-08
3493.21	1.20415e-07
3501.77	-3.84528e-07
3510.32	-2.14601e-07
3518.88	6.28812e-08
3527.44	2.22373e-07
3536	-1.3577e-07
3544.55	2.75666e-08
3553.11	-6.92104e-08
3561.67	1.33102e-07
3570.23	-2.66259e-07
3578.78	-1.44144e-07
3587.34	-2.66725e-07
3595.9	1.58657e-07
3604.46	-7.54376e-08
3613.01	-1.10167e-08
3621.57	8.18596e-08
3630.13	1.92892e-07
3638.69	3.02567e-07
3647.25	-3.82296e-07
3655.8	3.08203e-07
3664.36	3.05872e-07
3672.92	5.66754e-07
3681.48	3.59603e-07
3690.03	3.29063e-07
3698.59	4.57754e-07
3707.15	1.51003e-07
3715.71	9.60885e-08
3724.26	1.44691e-07
3732.82	4.88108e-07
3741.38	7.04291e-07
3749.94	1.13788e-06
3758.49	1.58605e-06
3767.05	8.76234e-07
3775.61	1.4437e-06
3784.17	9.72487e-07
3792.73	1.04482e-06
3801.28	-2.2594e-07
3809.84	5.82979e-07
3818.4	6.21535e-07
3826.96	7.0073e-07
3835.51	2.76074e-07
3844.07	2.15883e-07
3852.63	-1.972e-07
3861.19	2.42958e-07
3869.74	-1.58524e-09
3878.3	-1.30661e-07
3886.86	3.83727e-07
3895.42	3.95639e-07
3903.97	-1.84465e-07
3912.53	-1.88158e-07
3921.09	3.51836e-08
3929.65	5.92887e-08
3938.21	-2.15937e-07
3946.76	2.24444e-07
3955.32	4.02428e-07
3963.88	3.71792e-07
3972.44	6.38838e-07
