Infrared Spectrum: HEXAMETHYLDISILOXANE
Formula: C6 H18 O Si2
CAS: 107-46-0
State: SOLUTION (10% IN CCl4 FOR 3800-1300, 2% IN CS2 FOR 1300-650, AND 10% IN CCl4 FOR 650-250 CM^-^1)
Boiling point: 100 C
Class: COBLENTZ III
Instrument: PERKIN-ELMER 521 (GRATING)
Instrument parameters: FILTERS AT 3160, 2500, 2000, 1150, 700, 410. GRATING CHANGES: 2000, 630 CM^-^1
Sampling: TRANSMISSION
Path length: 0.012 CM, 0.011 CM, AND 0.010 CM
Resolution: 2
Origin: DOW CORNING CORP.
1/CM	TRANSMITTANCE
216.166	0.764
225.404	0.742
234.642	0.755
243.88	0.767
253.118	0.776
262.355	0.787
271.593	0.796
280.831	0.801
290.069	0.794
299.307	0.772
308.545	0.69
317.783	0.397
327.021	0.134
336.259	0.618
345.496	0.82
354.734	0.855
363.972	0.88
373.21	0.891
382.448	0.883
391.686	0.89
400.924	0.889
410.162	0.889
419.399	0.88
428.637	0.872
437.875	0.869
447.113	0.851
456.351	0.833
465.589	0.821
474.827	0.808
484.065	0.797
493.303	0.769
502.54	0.723
511.778	0.681
521.016	0.685
530.254	0.724
539.492	0.772
548.73	0.788
557.968	0.797
567.206	0.803
576.444	0.811
585.681	0.813
594.919	0.812
604.157	0.782
613.395	0.383
622.633	0.7839
631.871	0.816
641.109	0.81
650.347	0.779
659.585	0.768
668.822	0.776
678.06	0.72
687.298	0.669
696.536	0.758
705.774	0.777
715.012	0.774
724.25	0.757
733.488	0.734
742.726	0.617
751.963	0.328
761.201	0.638
770.439	0.718
779.677	0.725
788.915	0.713
798.153	0.64
807.391	0.476
816.629	0.191
825.866	0.189
835.104	0.041
844.342	0.052
853.58	0.391
862.818	0.539
872.056	0.618
881.294	0.644
890.532	0.708
899.77	0.748
909.007	0.773
918.245	0.793
927.483	0.794
936.721	0.794
945.959	0.793
955.197	0.791
964.435	0.778
973.673	0.771
982.911	0.748
992.148	0.7
1001.39	0.61
1010.62	0.523
1019.86	0.467
1029.1	0.303
1038.34	0.089
1047.58	0.059
1056.81	0.127
1066.05	0.305
1075.29	0.476
1084.53	0.596
1093.77	0.667
1103	0.706
1112.24	0.725
1121.48	0.739
1130.72	0.762
1139.95	0.783
1149.19	0.801
1158.43	0.815
1167.67	0.821
1176.91	0.821
1186.14	0.817
1195.38	0.813
1204.62	0.806
1213.86	0.782
1223.1	0.752
1232.33	0.66
1241.57	0.381
1250.81	0.086
1260.05	0.654
1269.29	0.737
1278.52	0.767
1287.76	0.776
1297	0.769
1306.24	0.789
1315.47	0.837
1324.71	0.84
1333.95	0.833
1343.19	0.813
1352.43	0.812
1361.66	0.812
1370.9	0.816
1380.14	0.794
1389.38	0.675
1398.62	0.594
1407.85	0.571
1417.09	0.672
1426.33	0.66
1435.57	0.618
1444.8	0.642
1454.04	0.738
1463.28	0.84
1472.52	0.875
1481.76	0.883
1490.99	0.886
1500.23	0.89
1509.47	0.898
1518.71	0.901
1527.95	0.899
1537.18	0.889
1546.42	0.866
1555.66	0.82
1564.9	0.733
1574.14	0.734
1583.37	0.859
1592.61	0.913
1601.85	0.92
1611.09	0.924
1620.32	0.927
1629.56	0.924
1638.8	0.927
1648.04	0.924
1657.28	0.928
1666.51	0.928
1675.75	0.925
1684.99	0.927
1694.23	0.916
1703.47	0.898
1712.7	0.889
1721.94	0.884
1731.18	0.884
1740.42	0.875
1749.66	0.895
1758.89	0.918
1768.13	0.927
1777.37	0.928
1786.61	0.934
1795.84	0.942
1805.08	0.943
1814.32	0.943
1823.56	0.944
1832.8	0.942
1842.03	0.942
1851.27	0.937
1860.51	0.915
1869.75	0.89
1878.99	0.929
1888.22	0.934
1897.46	0.927
1906.7	0.915
1915.94	0.894
1925.17	0.885
1934.41	0.869
1943.65	0.893
1952.89	0.915
1962.13	0.927
1971.36	0.928
1980.6	0.929
1989.84	0.925
1999.08	0.924
2008.32	0.925
2017.55	0.9275
2026.79	0.935
2036.03	0.9344
2045.27	0.933
2054.51	0.932
2063.74	0.932
2072.98	0.921
2082.22	0.9066
2091.46	0.9105
2100.69	0.9157
2109.93	0.92
2119.17	0.925
2128.41	0.927
2137.65	0.927
2146.88	0.928
2156.12	0.928
2165.36	0.9289
2174.6	0.93
2183.84	0.934
2193.07	0.933
2202.31	0.929
2211.55	0.929
2220.79	0.929
2230.03	0.928
2239.26	0.927
2248.5	0.9271
2257.74	0.929
2266.98	0.93
2276.21	0.93
2285.45	0.933
2294.69	0.9355
2303.93	0.9365
2313.17	0.935
2322.4	0.934
2331.64	0.9333
2340.88	0.934
2350.12	0.934
2359.36	0.934
2368.59	0.9336
2377.83	0.932
2387.07	0.932
2396.31	0.93
2405.54	0.93
2414.78	0.93
2424.02	0.93
2433.26	0.93
2442.5	0.9258
2451.73	0.9184
2460.97	0.9153
2470.21	0.919
2479.45	0.9059
2488.69	0.8951
2497.92	0.913
2507.16	0.9198
2516.4	0.923
2525.64	0.924
2534.88	0.9223
2544.11	0.9229
2553.35	0.925
2562.59	0.9231
2571.83	0.923
2581.06	0.922
2590.3	0.92
2599.54	0.92
2608.78	0.919
2618.02	0.9179
2627.25	0.9159
2636.49	0.9089
2645.73	0.901
2654.97	0.9031
2664.21	0.908
2673.44	0.908
2682.68	0.909
2691.92	0.9076
2701.16	0.9047
2710.4	0.9008
2719.63	0.905
2728.87	0.905
2738.11	0.9007
2747.35	0.898
2756.58	0.8878
2765.82	0.8756
2775.06	0.8655
2784.3	0.8311
2793.54	0.815
2802.77	0.817
2812.01	0.822
2821.25	0.8014
2830.49	0.7914
2839.73	0.7848
2848.96	0.771
2858.2	0.7674
2867.44	0.7597
2876.68	0.7151
2885.92	0.6243
2895.15	0.5033
2904.39	0.4702
2913.63	0.6006
2922.87	0.6072
2932.1	0.5507
2941.34	0.3554
2950.58	0.0263
2959.82	0.0065
2969.06	0.1201
2978.29	0.4137
2987.53	0.6208
2996.77	0.7338
3006.01	0.776
3015.25	0.7921
3024.48	0.8172
3033.72	0.8252
3042.96	0.8321
3052.2	0.8371
3061.43	0.846
3070.67	0.8502
3079.91	0.8542
3089.15	0.8574
3098.39	0.861
3107.62	0.86
3116.86	0.8553
3126.1	0.872
3135.34	0.8763
3144.58	0.8844
3153.81	0.8921
3163.05	0.8994
3172.29	0.9044
3181.53	0.9095
3190.77	0.914
3200	0.9105
3209.24	0.9095
3218.48	0.9151
3227.72	0.9226
3236.95	0.9296
3246.19	0.933
3255.43	0.933
3264.67	0.9307
3273.91	0.928
3283.14	0.9243
3292.38	0.922
3301.62	0.9247
3310.86	0.927
3320.1	0.927
3329.33	0.925
3338.57	0.923
3347.81	0.923
3357.05	0.923
3366.29	0.925
3375.52	0.9289
3384.76	0.9319
3394	0.932
3403.24	0.932
3412.47	0.934
3421.71	0.935
3430.95	0.934
3440.19	0.934
3449.43	0.934
3458.66	0.934
3467.9	0.934
3477.14	0.934
3486.38	0.934
3495.62	0.934
3504.85	0.934
3514.09	0.934
3523.33	0.933
3532.57	0.932
3541.8	0.929
3551.04	0.927
3560.28	0.9196
3569.52	0.915
3578.76	0.9207
3587.99	0.9241
3597.23	0.917
3606.47	0.9155
3615.71	0.9105
3624.95	0.8994
3634.18	0.8944
3643.42	0.8922
3652.66	0.8969
3661.9	0.9066
3671.14	0.911
3680.37	0.91
3689.61	0.9053
3698.85	0.895
3708.09	0.8832
3717.32	0.881
3726.56	0.883
3735.8	0.885
3745.04	0.8939
3754.28	0.9028
3763.51	0.9059
3772.75	0.9031
3781.99	0.8981
