Infrared Spectrum: 1,2-Dichloroethane
Formula: Cl C H2 C H2 Cl
CAS: 107-06-2
State: gas
Melting point: -35.36 C
Boiling point: 83.47 C
Class: IUPAC A
Instrument: IFS66V (Bruker)
Instrument parameters: KBr Beam Splitter; MCT Detector; Multipass cell
Sampling: 1 L/min Flow
Resolution: 0.4820
Temperature: 23 C
Pressure: 101.3 Pa
Origin: NIST, Analytical Chemistry Division, 301-975-3108
cm-1	(micromol/mol)-1m-1 (base 10)
575.17	6.27193e-07
583.848	2.05966e-06
592.526	1.48988e-06
601.205	-6.45901e-07
609.883	-4.13662e-07
618.561	3.91696e-07
627.239	9.24618e-07
635.917	6.601e-07
644.595	2.94498e-06
653.274	8.35806e-06
661.952	1.53657e-05
670.63	1.59433e-05
679.308	2.58391e-05
687.986	3.99501e-05
696.664	3.08703e-05
705.343	4.1042e-05
714.021	0.000201669
722.699	0.000551258
731.377	0.000617433
740.055	5.70306e-05
748.734	5.64334e-06
757.412	6.94411e-06
766.09	7.75932e-06
774.768	6.17813e-06
783.446	4.54573e-06
792.124	4.13827e-06
800.803	2.84234e-06
809.481	1.96618e-06
818.159	1.83879e-06
826.837	1.72436e-06
835.515	1.70405e-06
844.193	9.55727e-07
852.872	8.71568e-07
861.55	1.0846e-06
870.228	2.2447e-06
878.906	1.24448e-05
887.584	1.96319e-05
896.263	2.18667e-05
904.941	6.313e-06
913.619	2.20363e-06
922.297	2.28264e-06
930.975	5.20106e-06
939.653	9.31937e-06
948.332	7.64967e-06
957.01	8.19207e-06
965.688	3.65195e-06
974.366	1.8216e-06
983.044	2.7665e-06
991.723	3.4176e-06
1000.4	2.01919e-06
1009.08	1.86665e-06
1017.76	3.23835e-06
1026.44	4.75317e-06
1035.11	3.11227e-06
1043.79	1.03721e-06
1052.47	4.01911e-07
1061.15	5.47067e-08
1069.83	3.05243e-08
1078.5	3.15127e-07
1087.18	4.21944e-07
1095.86	9.34578e-07
1104.54	1.82272e-06
1113.22	1.98615e-06
1121.9	3.96285e-06
1130.57	4.31289e-06
1139.25	3.17692e-06
1147.93	2.50086e-06
1156.61	1.90484e-06
1165.29	1.2963e-06
1173.96	9.69839e-07
1182.64	1.0849e-06
1191.32	2.00311e-06
1200	3.85462e-06
1208.68	7.1921e-06
1217.36	1.84609e-05
1226.03	0.00015287
1234.71	0.000139553
1243.39	6.94399e-05
1252.07	9.01534e-06
1260.75	5.79303e-06
1269.42	4.73924e-06
1278.1	1.47702e-05
1286.78	4.30484e-05
1295.46	3.52207e-05
1304.14	2.38456e-05
1312.82	9.46966e-06
1321.49	1.15606e-05
1330.17	6.95374e-06
1338.85	4.16782e-06
1347.53	2.93627e-06
1356.21	2.84479e-06
1364.88	2.3815e-06
1373.56	1.06111e-06
1382.24	1.26106e-06
1390.92	9.49488e-07
1399.6	8.61189e-07
1408.28	1.56124e-06
1416.95	3.94791e-06
1425.63	1.13115e-05
1434.31	1.80247e-05
1442.99	2.73415e-05
1451.67	3.06251e-05
1460.34	1.80134e-05
1469.02	2.02936e-05
1477.7	1.36702e-05
1486.38	8.19868e-06
1495.06	3.99206e-06
1503.73	1.87308e-06
1512.41	5.26757e-07
1521.09	1.29107e-06
1529.77	2.67537e-06
1538.45	1.59249e-06
1547.13	7.24874e-07
1555.8	1.24297e-07
1564.48	1.51591e-07
1573.16	2.29166e-07
1581.84	2.69742e-07
1590.52	1.74819e-07
1599.19	-5.23884e-08
1607.87	9.97256e-09
1616.55	-1.17146e-06
1625.23	8.70273e-08
1633.91	-7.64481e-08
1642.59	-2.6047e-07
1651.26	-1.81696e-07
1659.94	-2.02925e-08
1668.62	6.87847e-08
1677.3	1.28123e-07
1685.98	-3.33874e-09
1694.65	2.03579e-07
1703.33	3.87397e-08
1712.01	2.5925e-07
1720.69	2.13295e-07
1729.37	-7.16524e-08
1738.05	9.42195e-08
1746.72	-1.70029e-08
1755.4	-1.08575e-08
1764.08	2.13448e-08
1772.76	-1.16241e-06
1781.44	1.18435e-07
1790.11	8.23862e-08
1798.79	-1.00662e-07
1807.47	-1.78081e-07
1816.15	9.75346e-08
1824.83	-3.14574e-08
1833.51	5.81082e-08
1842.18	-5.96962e-08
1850.86	1.15957e-07
1859.54	-4.46005e-08
1868.22	4.35018e-08
1876.9	5.85793e-08
1885.57	1.58345e-07
1894.25	2.71574e-09
1902.93	9.6858e-08
1911.61	-5.4754e-08
1920.29	2.65216e-08
1928.97	-9.74091e-08
1937.64	-2.6347e-08
1946.32	-1.52811e-07
1955	-6.80726e-08
1963.68	-2.26827e-08
1972.36	-3.6768e-08
1981.03	-5.69359e-08
1989.71	-4.46496e-08
1998.39	-8.50955e-08
2007.07	7.05128e-08
2015.75	3.50868e-07
2024.43	1.46736e-06
2033.1	2.02799e-06
2041.78	1.4456e-06
2050.46	2.30506e-07
2059.14	1.27262e-07
2067.82	2.14876e-08
2076.49	9.2506e-08
2085.17	6.25756e-08
2093.85	1.6243e-07
2102.53	3.64964e-07
2111.21	3.2994e-07
2119.89	2.82352e-07
2128.56	1.26043e-07
2137.24	1.92194e-07
2145.92	2.01661e-07
2154.6	3.08981e-08
2163.28	8.61323e-08
2171.95	2.88929e-07
2180.63	4.73069e-07
2189.31	9.25488e-07
2197.99	1.07189e-06
2206.67	1.18845e-06
2215.35	1.79942e-06
2224.02	1.53621e-06
2232.7	1.42534e-06
2241.38	1.07526e-06
2250.06	7.00287e-07
2258.74	3.07361e-07
2267.41	1.59065e-07
2276.09	1.81476e-07
2284.77	1.81516e-07
2293.45	2.40626e-07
2302.13	1.48414e-07
2310.81	2.01829e-07
2319.48	3.98427e-07
2328.16	3.29621e-07
2336.84	4.37805e-07
2345.52	-4.88242e-08
2354.2	-3.26317e-07
2362.87	-2.95255e-06
2371.55	-8.26686e-07
2380.23	1.14991e-06
2388.91	1.21457e-06
2397.59	7.492e-07
2406.27	5.83188e-07
2414.94	6.67916e-07
2423.62	7.49792e-07
2432.3	7.13264e-07
2440.98	6.55231e-07
2449.66	5.69675e-07
2458.33	8.26485e-07
2467.01	4.6919e-07
2475.69	3.17233e-07
2484.37	3.36808e-07
2493.05	3.36921e-07
2501.73	3.63573e-07
2510.4	5.92462e-07
2519.08	7.49036e-07
2527.76	7.31029e-07
2536.44	5.21848e-07
2545.12	3.05713e-07
2553.79	3.81594e-07
2562.47	-4.13791e-08
2571.15	7.7786e-08
2579.83	1.24855e-08
2588.51	7.1977e-08
2597.19	-1.03957e-07
2605.86	-2.73879e-07
2614.54	-1.35198e-07
2623.22	3.88734e-08
2631.9	-1.0069e-08
2640.58	1.60705e-07
2649.25	-3.78639e-08
2657.93	4.62958e-08
2666.61	1.62801e-07
2675.29	6.23968e-07
2683.97	1.73647e-06
2692.65	1.75572e-06
2701.32	2.73586e-07
2710	2.64719e-07
2718.68	4.03796e-07
2727.36	3.23021e-07
2736.04	6.82341e-07
2744.71	3.18937e-07
2753.39	1.00549e-06
2762.07	2.29431e-06
2770.75	2.46867e-06
2779.43	-4.85668e-09
2788.11	1.70034e-07
2796.78	2.42161e-08
2805.46	-1.41872e-07
2814.14	-4.24323e-08
2822.82	1.50057e-08
2831.5	4.93484e-07
2840.17	1.2773e-06
2848.85	3.03272e-06
2857.53	3.55112e-06
2866.21	4.38526e-06
2874.89	5.11417e-06
2883.57	8.92417e-06
2892.24	1.13749e-05
2900.92	1.37518e-05
2909.6	3.60818e-06
2918.28	2.48076e-06
2926.96	2.08496e-06
2935.63	3.94481e-06
2944.31	1.08027e-05
2952.99	2.3945e-05
2961.67	2.85636e-05
2970.35	4.50602e-05
2979.03	5.8688e-05
2987.7	6.00458e-05
2996.38	3.65592e-05
3005.06	2.87215e-05
3013.74	2.4344e-05
3022.42	1.86091e-05
3031.09	1.32355e-05
3039.77	9.46215e-06
3048.45	7.93496e-06
3057.13	5.48273e-06
3065.81	2.94965e-06
3074.49	1.44155e-06
3083.16	8.76948e-07
3091.84	4.49106e-07
3100.52	6.74438e-07
3109.2	5.87003e-07
3117.88	2.39147e-07
3126.55	3.53124e-07
3135.23	-2.64052e-08
3143.91	2.42185e-07
3152.59	9.29381e-08
3161.27	-5.42856e-08
3169.95	-1.95189e-07
3178.62	-3.26536e-07
3187.3	1.27056e-08
3195.98	2.84759e-07
3204.66	1.81963e-07
3213.34	-1.60179e-07
3222.01	5.71533e-08
3230.69	3.65051e-08
3239.37	-4.13263e-08
3248.05	1.10935e-07
3256.73	1.35971e-07
3265.4	-7.69856e-08
3274.08	-1.1788e-07
3282.76	1.60674e-07
3291.44	4.25087e-08
3300.12	1.10989e-07
3308.8	2.28582e-08
3317.47	3.56884e-08
3326.15	-2.11447e-07
3334.83	-2.17201e-07
3343.51	-1.18788e-07
3352.19	6.53569e-08
3360.86	4.08206e-08
3369.54	-6.25838e-08
3378.22	-3.77939e-08
3386.9	-1.35532e-07
3395.58	-5.73533e-08
3404.26	5.24921e-08
3412.93	3.02804e-07
3421.61	-2.13868e-07
3430.29	-5.28796e-08
3438.97	1.68001e-08
3447.65	-7.37605e-08
3456.32	-1.17165e-07
3465	9.83559e-08
3473.68	-3.4993e-07
3482.36	1.98817e-07
3491.04	1.8521e-07
3499.72	3.03306e-08
3508.39	-5.51506e-08
3517.07	-3.9764e-07
3525.75	6.33742e-08
3534.43	-1.8509e-07
3543.11	-2.23936e-07
3551.78	1.16169e-08
3560.46	-1.43898e-07
3569.14	-2.0875e-07
3577.82	-2.65273e-07
3586.5	-3.2245e-07
3595.18	-8.64689e-08
3603.85	6.90176e-08
3612.53	-1.62383e-07
3621.21	1.75603e-07
3629.89	2.32819e-07
3638.57	1.53536e-07
3647.24	-2.51944e-07
3655.92	1.63916e-07
3664.6	2.84203e-07
3673.28	1.40874e-07
3681.96	4.16456e-07
3690.64	-4.05069e-08
3699.31	3.30899e-07
3707.99	3.4144e-07
3716.67	1.0242e-07
3725.35	1.95889e-07
3734.03	4.94238e-07
3742.7	1.23439e-06
3751.38	1.09048e-06
3760.06	9.55086e-07
3768.74	9.73567e-07
3777.42	9.80676e-07
3786.1	8.23185e-07
3794.77	6.80618e-07
3803.45	8.75684e-07
3812.13	4.92238e-07
3820.81	-1.49693e-07
3829.49	3.49741e-07
3838.16	5.5779e-09
3846.84	3.7069e-07
3855.52	-2.98595e-08
3864.2	-1.66482e-07
3872.88	1.04811e-07
3881.56	-3.31163e-08
3890.23	2.30788e-07
3898.91	1.81327e-07
3907.59	1.47063e-07
3916.27	-7.33676e-08
3924.95	2.27054e-08
3933.62	-1.38681e-07
3942.3	1.91664e-07
3950.98	3.6477e-07
3959.66	3.51545e-07
3968.34	-1.64372e-08
