Infrared Spectrum: Nitrile-Propenoic Acid
Formula: C H2: C H C N
CAS: 107-13-1
State: gas
Melting point: -83.5 C
Boiling point: 77.5 C
Class: IUPAC A
Instrument: IFS66V (Bruker)
Instrument parameters: KBr Beam splitter; MCT Detector; Multipass cell
Sampling: 1 L/min Flow
Resolution: 0.1250
Temperature: 23 C
Pressure: 101.3 kPa
Origin: NIST, Anayltical Chemistry Division, 301-975-3108
cm-1	(micromol/mol)-1m-1 (base 10)
3975.02	1.73994e-07
3966.46	-1.5609e-08
3957.9	1.54095e-07
3949.34	1.63794e-07
3940.79	-2.34691e-08
3932.23	5.22782e-07
3923.67	3.75987e-07
3915.11	4.6338e-08
3906.56	2.36292e-07
3898	2.69991e-07
3889.44	9.01263e-08
3880.88	4.76784e-07
3872.33	1.24696e-07
3863.77	2.68591e-07
3855.21	2.9269e-07
3846.65	4.67084e-07
3838.09	2.47292e-06
3829.54	1.28195e-07
3820.98	9.98666e-07
3812.42	-2.6419e-08
3803.86	1.27796e-07
3795.31	7.52172e-08
3786.75	-4.28585e-07
3778.19	-2.86382e-08
3769.63	5.32882e-07
3761.08	1.86307e-09
3752.52	2.33892e-06
3743.96	2.9739e-06
3735.4	1.19496e-06
3726.85	3.38088e-07
3718.29	-4.51921e-09
3709.73	4.15686e-07
3701.17	1.58113e-09
3692.62	1.01996e-07
3684.06	1.55395e-07
3675.5	7.25876e-07
3666.94	1.93993e-07
3658.38	6.29478e-07
3649.83	7.72073e-07
3641.27	3.36388e-07
3632.71	1.99593e-07
3624.15	1.17196e-07
3615.6	7.04874e-08
3607.04	1.02696e-06
3598.48	1.54395e-07
3589.92	5.75574e-08
3581.37	-1.38195e-07
3572.81	1.94488e-08
3564.25	2.27288e-08
3555.69	1.30147e-09
3547.14	3.23989e-07
3538.58	1.7929e-08
3530.02	6.75771e-08
3521.46	1.37095e-07
3512.91	4.27985e-07
3504.35	2.17792e-07
3495.79	2.68187e-08
3487.23	1.83494e-07
3478.67	7.12873e-08
3470.12	2.12593e-07
3461.56	1.78694e-07
3453	-1.95893e-07
3444.44	7.05802e-09
3435.89	-1.74594e-07
3427.33	-2.8849e-07
3418.77	-1.77994e-07
3410.21	-1.54395e-07
3401.66	-7.52872e-08
3393.1	1.63194e-07
3384.54	1.37595e-07
3375.98	-1.32395e-07
3367.43	4.9558e-08
3358.87	1.54395e-07
3350.31	5.19581e-08
3341.75	7.21175e-07
3333.2	7.28575e-07
3324.64	4.63884e-07
3316.08	1.13096e-07
3307.52	3.74683e-08
3298.96	1.85094e-07
3290.41	-1.07796e-07
3281.85	-1.16795e-07
3273.29	-1.91193e-07
3264.73	-9.70365e-08
3256.18	-1.91393e-07
3247.62	2.01291e-08
3239.06	-1.81594e-07
3230.5	-9.18366e-08
3221.95	-1.91793e-07
3213.39	-7.7977e-08
3204.83	2.32792e-07
3196.27	-2.07993e-07
3187.72	7.75573e-08
3179.16	5.28882e-07
3170.6	5.59381e-07
3162.04	8.13572e-07
3153.48	1.22896e-06
3144.93	2.43992e-06
3136.37	8.49472e-06
3127.81	5.71281e-06
3119.25	7.00777e-06
3110.7	8.73571e-06
3102.14	3.44388e-06
3093.58	2.08293e-06
3085.02	1.13796e-06
3076.47	1.18196e-06
3067.91	1.73994e-06
3059.35	5.23583e-06
3050.79	7.69074e-06
3042.24	7.63474e-06
3033.68	6.75077e-06
3025.12	3.0679e-06
3016.56	1.02597e-06
3008.01	6.38578e-07
2999.45	2.24992e-07
2990.89	4.92783e-07
2982.33	4.92083e-07
2973.77	1.55095e-07
2965.22	-4.07283e-08
2956.66	-1.00096e-07
2948.1	1.50928e-09
2939.54	-9.53763e-08
2930.99	9.29766e-08
2922.43	4.12581e-08
2913.87	4.03382e-08
2905.31	3.77087e-07
2896.76	1.91593e-07
2888.2	3.40588e-07
2879.64	3.43383e-08
2871.08	-4.03282e-08
2862.53	2.59088e-08
2853.97	-1.27895e-07
2845.41	-4.66081e-08
2836.85	-2.50489e-08
2828.3	-2.45091e-07
2819.74	-2.23992e-07
2811.18	6.83774e-08
2802.62	2.02793e-07
2794.06	-3.82882e-08
2785.51	1.09396e-07
2776.95	1.79594e-07
2768.39	1.80494e-07
2759.83	1.11296e-07
2751.28	6.56072e-08
2742.72	7.83772e-08
2734.16	2.55191e-07
2725.6	4.35285e-07
2717.05	6.01979e-07
2708.49	1.40195e-06
2699.93	5.59081e-07
2691.37	3.17989e-07
2682.82	1.13896e-07
2674.26	5.22978e-08
2665.7	1.09996e-07
2657.14	1.50494e-07
2648.59	-5.83772e-08
2640.03	-3.00283e-08
2631.47	1.53193e-08
2622.91	-3.47685e-08
2614.35	1.49591e-08
2605.8	6.81974e-08
2597.24	1.11096e-07
2588.68	2.00893e-07
2580.12	1.72994e-07
2571.57	2.06093e-07
2563.01	4.63984e-07
2554.45	1.74194e-07
2545.89	2.38792e-07
2537.34	3.36588e-07
2528.78	1.94693e-07
2520.22	3.56684e-08
2511.66	1.18296e-07
2503.11	2.8399e-07
2494.55	5.9818e-07
2485.99	5.41581e-07
2477.43	6.45978e-07
2468.87	7.55074e-07
2460.32	6.25579e-07
2451.76	5.35882e-07
2443.2	2.18292e-07
2434.64	2.7039e-07
2426.09	1.45495e-07
2417.53	2.32292e-07
2408.97	2.20792e-07
2400.41	5.97679e-07
2391.86	5.9448e-07
2383.3	6.09379e-07
2374.74	6.34179e-07
2366.18	5.65181e-07
2357.63	3.63787e-07
2349.07	2.36187e-08
2340.51	8.42465e-08
2331.95	6.81073e-08
2323.4	1.94893e-07
2314.84	3.38988e-07
2306.28	4.86384e-07
2297.72	8.44371e-07
2289.16	1.57895e-06
2280.61	1.10896e-06
2272.05	1.23696e-06
2263.49	7.36675e-07
2254.93	1.40595e-06
2246.38	2.79891e-06
2237.82	2.09393e-06
2229.26	2.31992e-06
2220.7	1.25696e-06
2212.15	4.74484e-07
2203.59	1.58495e-07
2195.03	3.41382e-08
2186.47	5.63973e-08
2177.92	1.03096e-07
2169.36	-9.61138e-09
2160.8	3.51082e-08
2152.24	5.2658e-08
2143.69	1.54589e-08
2135.13	-1.84888e-08
2126.57	1.77289e-08
2118.01	2.75486e-08
2109.45	-5.1728e-08
2100.9	6.85671e-08
2092.34	3.91581e-08
2083.78	7.42872e-08
2075.22	6.38973e-08
2066.67	9.62662e-08
2058.11	1.12396e-07
2049.55	-3.75683e-08
2040.99	5.34078e-08
2032.44	1.05896e-07
2023.88	1.7879e-08
2015.32	9.42262e-08
2006.76	8.71964e-08
1998.21	1.83994e-07
1989.65	3.48088e-07
1981.09	5.38182e-07
1972.53	7.60374e-07
1963.97	1.27396e-06
1955.42	1.59095e-06
1946.86	3.15089e-06
1938.3	3.44788e-06
1929.74	5.59981e-06
1921.19	1.49895e-05
1912.63	1.68294e-05
1904.07	1.46695e-05
1895.51	1.50495e-05
1886.96	6.52078e-06
1878.4	2.49692e-06
1869.84	1.06296e-06
1861.28	7.17776e-07
1852.73	8.42872e-07
1844.17	4.56985e-06
1835.61	6.48178e-07
1827.05	5.62581e-07
1818.5	1.34495e-07
1809.94	1.13896e-07
1801.38	1.03896e-06
1792.82	1.32296e-06
1784.26	-4.8558e-08
1775.71	6.66778e-07
1767.15	1.02296e-07
1758.59	2.9379e-07
1750.03	2.33192e-07
1741.48	6.99072e-08
1732.92	4.58684e-07
1724.36	1.95493e-07
1715.8	4.59385e-07
1707.25	4.87983e-07
1698.69	7.74474e-07
1690.13	1.68494e-06
1681.57	1.58295e-06
1673.02	3.52988e-06
1664.46	6.64278e-06
1655.9	6.1448e-06
1647.34	8.8297e-06
1638.79	8.09073e-06
1630.23	1.11596e-05
1621.67	1.56995e-05
1613.11	7.85574e-06
1604.55	1.42295e-05
1596	7.34476e-06
1587.44	2.23992e-06
1578.88	1.35495e-06
1570.32	1.19596e-06
1561.77	6.08179e-07
1553.21	4.49885e-07
1544.65	3.26089e-07
1536.09	2.32792e-07
1527.54	3.26788e-07
1518.98	1.74094e-07
1510.42	2.60591e-07
1501.86	4.43885e-07
1493.31	2.27992e-07
1484.75	3.73087e-07
1476.19	2.12993e-06
1467.63	1.31896e-06
1459.08	2.29292e-06
1450.52	3.94387e-06
1441.96	7.44375e-06
1433.4	1.09196e-05
1424.84	3.14589e-05
1416.29	1.13496e-05
1407.73	2.21593e-05
1399.17	1.76994e-05
1390.61	6.32179e-06
1382.06	4.86284e-06
1373.5	4.70884e-06
1364.94	2.9919e-06
1356.38	3.0329e-06
1347.83	2.80191e-06
1339.27	3.16689e-06
1330.71	2.38992e-06
1322.15	2.37892e-06
1313.6	2.8259e-06
1305.04	1.81394e-06
1296.48	2.82491e-06
1287.92	3.55788e-06
1279.36	1.67194e-06
1270.81	2.71991e-06
1262.25	1.00897e-06
1253.69	3.43088e-07
1245.13	2.36692e-07
1236.58	1.78494e-07
1228.02	3.87587e-07
1219.46	2.21192e-07
1210.9	3.26888e-07
1202.35	2.57291e-07
1193.79	2.98989e-07
1185.23	1.95893e-07
1176.67	7.09672e-08
1168.12	2.17992e-07
1159.56	9.98263e-08
1151	3.63783e-08
1142.44	1.36195e-07
1133.89	1.44294e-07
1125.33	4.57484e-07
1116.77	1.42195e-06
1108.21	6.1728e-06
1099.65	7.63574e-06
1091.1	5.8728e-06
1082.54	1.28496e-05
1073.98	4.45085e-06
1065.42	1.87694e-06
1056.87	1.32795e-06
1048.31	1.23696e-06
1039.75	3.0249e-06
1031.19	7.52775e-06
1022.64	1.72794e-05
1014.08	2.81791e-05
1005.52	5.51481e-05
996.963	5.9048e-05
988.406	8.48871e-05
979.848	7.79974e-05
971.29	0.000342089
962.733	8.67471e-05
954.175	0.000244292
945.618	8.35672e-05
937.06	9.46768e-05
928.502	5.54382e-05
919.945	3.82687e-05
911.387	2.9679e-05
902.829	1.59195e-05
894.272	7.95773e-06
885.714	6.26879e-06
877.157	8.45072e-06
868.599	1.10596e-05
860.041	8.77371e-06
851.484	4.29686e-06
842.926	7.40975e-07
834.368	2.42692e-07
825.811	1.38395e-07
817.253	5.99675e-08
808.696	8.15072e-07
800.138	3.15089e-06
791.58	3.72888e-06
783.023	3.66688e-06
774.465	4.61385e-06
765.907	1.71694e-06
757.35	1.59195e-06
748.792	2.39992e-06
740.235	4.42785e-06
731.677	5.41482e-06
723.119	8.10773e-06
714.562	1.27596e-05
706.004	1.47195e-05
697.446	1.77394e-05
688.889	1.72094e-05
680.331	4.67385e-05
671.774	2.21793e-05
663.216	3.47888e-05
654.658	1.57195e-05
646.101	1.18496e-05
637.543	5.19483e-06
628.985	3.17689e-06
620.428	1.24196e-06
611.87	7.90073e-07
603.313	7.25575e-07
594.755	1.03197e-06
586.197	7.44775e-07
577.64	6.50477e-07
