Infrared Spectrum: Nitrile-Propenoic Acid
Formula: C H2: C H C N
CAS: 107-13-1
State: gas
Melting point: -83.5 C
Boiling point: 77.5 C
Class: IUPAC A
Instrument: IFS66V (Bruker)
Instrument parameters: KBr Beam splitter; MCT Detector; Multipass cell
Sampling: 1 L/min Flow
Resolution: 0.4820
Temperature: 23 C
Pressure: 101.3 kPa
Origin: NIST, Anayltical Chemistry Division, 301-975-3108
cm-1	(micromol/mol)-1m-1 (base 10)
574.928	1.33356e-07
583.606	3.968e-07
592.284	4.81278e-07
600.962	3.97279e-07
609.641	5.88866e-07
618.319	1.17027e-06
626.997	2.5197e-06
635.675	4.85925e-06
644.353	9.1923e-06
653.031	1.98521e-05
661.71	1.69346e-05
670.388	1.7069e-05
679.066	3.33889e-05
687.744	1.83058e-05
696.422	1.62211e-05
705.1	2.17979e-05
713.778	1.11565e-05
722.457	1.33633e-05
731.135	5.70715e-06
739.813	4.79091e-06
748.491	2.22655e-06
757.169	1.47356e-06
765.847	1.86945e-06
774.526	4.55922e-06
783.204	3.82742e-06
791.882	3.81163e-06
800.56	2.92897e-06
809.238	5.62663e-07
817.916	2.16474e-07
826.594	1.20503e-07
835.273	1.34935e-07
843.951	9.46535e-07
852.629	4.72494e-06
861.307	8.48934e-06
869.985	4.04684e-06
878.663	8.73663e-06
887.342	6.77313e-06
896.02	1.04269e-05
904.698	1.63081e-05
913.376	2.61381e-05
922.054	4.6172e-05
930.732	9.10529e-05
939.41	7.03748e-05
948.089	0.000140458
956.767	9.91981e-05
965.445	8.58364e-05
974.123	9.05209e-05
982.801	8.78336e-05
991.479	7.71752e-05
1000.16	6.06294e-05
1008.84	4.34977e-05
1017.51	2.3022e-05
1026.19	1.25316e-05
1034.87	5.3991e-06
1043.55	2.11575e-06
1052.23	1.36554e-06
1060.9	1.20037e-06
1069.58	1.81214e-06
1078.26	7.92491e-06
1086.94	1.25989e-05
1095.62	9.12755e-06
1104.3	8.32339e-06
1112.97	3.23011e-06
1121.65	5.3018e-07
1130.33	3.19621e-07
1139.01	1.72972e-07
1147.69	1.26084e-07
1156.36	1.44979e-07
1165.04	2.05466e-07
1173.72	2.04726e-07
1182.4	2.03081e-07
1191.08	3.38849e-07
1199.76	2.74256e-07
1208.43	5.03942e-07
1217.11	2.24409e-07
1225.79	2.59542e-07
1234.47	2.05824e-07
1243.15	1.31734e-07
1251.82	2.19244e-07
1260.5	7.15716e-07
1269.18	2.40331e-06
1277.86	2.10527e-06
1286.54	3.14745e-06
1295.21	3.19913e-06
1303.89	1.72123e-06
1312.57	2.62488e-06
1321.25	2.27461e-06
1329.93	2.52975e-06
1338.61	3.40777e-06
1347.28	2.91796e-06
1355.96	3.27637e-06
1364.64	3.25443e-06
1373.32	4.71203e-06
1382	4.95921e-06
1390.67	6.61261e-06
1399.35	1.64873e-05
1408.03	2.23012e-05
1416.71	1.20399e-05
1425.39	2.28973e-05
1434.07	1.13335e-05
1442.74	9.34627e-06
1451.42	4.5523e-06
1460.1	2.50016e-06
1468.78	1.51975e-06
1477.46	6.35044e-07
1486.13	4.06036e-07
1494.81	2.21926e-07
1503.49	1.39148e-07
1512.17	9.50086e-07
1520.85	1.32107e-06
1529.52	1.5161e-07
1538.2	6.66811e-07
1546.88	2.97832e-07
1555.56	4.9295e-07
1564.24	7.49421e-07
1572.92	1.09045e-06
1581.59	1.60403e-06
1590.27	3.08872e-06
1598.95	1.07699e-05
1607.63	1.36246e-05
1616.31	6.81734e-06
1624.98	1.67655e-05
1633.66	9.33431e-06
1642.34	9.46252e-06
1651.02	5.09432e-06
1659.7	7.68165e-06
1668.38	5.39188e-06
1677.05	1.96569e-06
1685.73	1.42014e-06
1694.41	1.10254e-06
1703.09	5.18962e-07
1711.77	2.66644e-07
1720.44	1.99373e-07
1729.12	1.90994e-07
1737.8	2.45177e-07
1746.48	3.10038e-07
1755.16	1.66816e-07
1763.84	5.49672e-08
1772.51	2.05347e-06
1781.19	9.72684e-08
1789.87	9.53167e-08
1798.55	1.29937e-08
1807.23	2.70934e-08
1815.9	5.23838e-08
1824.58	4.04297e-07
1833.26	7.27431e-07
1841.94	5.87984e-07
1850.62	9.50087e-07
1859.29	7.00283e-07
1867.97	1.36162e-06
1876.65	1.82439e-06
1885.33	5.48904e-06
1894.01	1.43409e-05
1902.69	1.52548e-05
1911.36	1.40846e-05
1920.04	1.63695e-05
1928.72	7.46844e-06
1937.4	2.9034e-06
1946.08	3.61923e-06
1954.75	1.6091e-06
1963.43	1.14846e-06
1972.11	6.43538e-07
1980.79	4.73672e-07
1989.47	2.76213e-07
1998.15	2.04858e-07
2006.82	9.63089e-08
2015.5	3.57294e-08
2024.18	8.1539e-08
2032.86	8.05731e-08
2041.54	7.97796e-08
2050.21	1.05199e-07
2058.89	7.8072e-08
2067.57	1.10004e-07
2076.25	8.18987e-08
2084.93	5.731e-08
2093.6	8.71841e-08
2102.28	5.44542e-08
2110.96	3.8808e-08
2119.64	2.35523e-08
2128.32	3.10406e-09
2137	7.72967e-09
2145.67	3.42115e-08
2154.35	5.61117e-08
2163.03	7.28853e-08
2171.71	6.05909e-08
2180.39	8.01816e-08
2189.06	9.26046e-08
2197.74	7.29162e-08
2206.42	1.8079e-07
2215.1	6.14698e-07
2223.78	1.83016e-06
2232.46	2.32014e-06
2241.13	2.6858e-06
2249.81	2.73434e-06
2258.49	8.16085e-07
2267.17	9.5189e-07
2275.85	1.10937e-06
2284.52	9.58752e-07
2293.2	1.45883e-06
2301.88	4.6369e-07
2310.56	4.87795e-07
2319.24	2.72713e-07
2327.92	1.48023e-07
2336.59	1.36778e-07
2345.27	1.62144e-07
2353.95	2.72054e-07
2362.63	5.47692e-07
2371.31	5.06052e-07
2379.98	7.01405e-07
2388.66	6.14623e-07
2397.34	5.53228e-07
2406.02	3.67232e-07
2414.7	2.20151e-07
2423.37	2.18478e-07
2432.05	2.41175e-07
2440.73	3.02306e-07
2449.41	5.92564e-07
2458.09	5.77886e-07
2466.77	5.27589e-07
2475.44	7.98368e-07
2484.12	6.34028e-07
2492.8	4.37025e-07
2501.48	2.81616e-07
2510.16	2.20277e-07
2518.83	2.15319e-07
2527.51	2.14231e-07
2536.19	2.38438e-07
2544.87	3.26769e-07
2553.55	4.38668e-07
2562.23	4.50108e-07
2570.9	3.37825e-07
2579.58	2.29238e-07
2588.26	1.65775e-07
2596.94	1.47239e-07
2605.62	8.28564e-08
2614.29	7.73626e-08
2622.97	4.7684e-09
2631.65	1.34176e-08
2640.33	-1.42556e-08
2649.01	-3.49872e-08
2657.68	2.10167e-08
2666.36	-1.00793e-08
2675.04	1.14785e-07
2683.72	2.17011e-07
2692.4	4.79189e-07
2701.08	6.99208e-07
2709.75	5.5141e-07
2718.43	5.84469e-07
2727.11	2.40205e-07
2735.79	1.60543e-07
2744.47	1.18312e-07
2753.14	1.64943e-08
2761.82	4.65076e-08
2770.5	1.40076e-07
2779.18	1.88824e-07
2787.86	1.35536e-07
2796.54	1.29829e-07
2805.21	2.51803e-07
2813.89	2.46992e-08
2822.57	6.57804e-08
2831.25	4.10312e-09
2839.93	-1.04232e-07
2848.6	-1.67746e-07
2857.28	-8.67226e-08
2865.96	-2.98973e-08
2874.64	7.06561e-08
2883.32	1.18576e-07
2892	3.1398e-07
2900.67	3.44683e-07
2909.35	2.72559e-07
2918.03	2.07677e-07
2926.71	9.59547e-09
2935.39	8.3196e-08
2944.06	2.10126e-08
2952.74	5.05384e-08
2961.42	1.1112e-08
2970.1	1.05652e-07
2978.78	1.22834e-07
2987.45	4.14597e-07
2996.13	2.32218e-07
3004.81	5.14721e-07
3013.49	5.61153e-07
3022.17	2.11079e-06
3030.85	6.05963e-06
3039.52	5.52794e-06
3048.2	6.25979e-06
3056.88	6.68157e-06
3065.56	2.13784e-06
3074.24	1.12665e-06
3082.91	1.06417e-06
3091.59	1.93332e-06
3100.27	2.5783e-06
3108.95	6.26401e-06
3117.63	9.02153e-06
3126.31	3.50439e-06
3134.98	1.03182e-05
3143.66	4.36523e-06
3152.34	2.1766e-06
3161.02	1.19742e-06
3169.7	5.23229e-07
3178.37	3.6975e-07
3187.05	1.05424e-07
3195.73	-8.69918e-09
3204.41	-1.00146e-07
3213.09	-1.37858e-07
3221.77	-7.86482e-08
3230.44	-5.08695e-08
3239.12	-1.20936e-07
3247.8	-1.93285e-07
3256.48	-1.09382e-07
3265.16	-9.01872e-08
3273.83	-9.52994e-08
3282.51	-1.41044e-07
3291.19	-1.08412e-07
3299.87	-7.08849e-09
3308.55	6.88585e-08
3317.22	2.04503e-07
3325.9	2.17802e-07
3334.58	2.69873e-07
3343.26	4.97916e-07
3351.94	1.74013e-07
3360.62	1.43745e-07
3369.29	-3.3684e-08
3377.97	7.05347e-09
3386.65	-4.41725e-08
3395.33	-1.16368e-09
3404.01	-4.84416e-08
3412.68	-4.51079e-08
3421.36	-1.26108e-08
3430.04	-3.4769e-08
3438.72	5.94977e-08
3447.4	3.18104e-08
3456.08	6.16741e-08
3464.75	-5.33496e-08
3473.43	-2.75441e-08
3482.11	3.30291e-08
3490.79	1.85779e-08
3499.47	1.15203e-07
3508.14	8.37063e-08
3516.82	2.32382e-07
3525.5	2.27422e-07
3534.18	1.61831e-07
3542.86	1.57404e-07
3551.53	8.52051e-08
3560.21	1.97122e-07
3568.89	1.22626e-07
3577.57	2.46801e-08
3586.25	4.59619e-07
3594.93	1.80902e-07
3603.6	6.89018e-08
3612.28	7.53088e-07
3620.96	2.93896e-07
3629.64	2.59647e-06
3638.32	4.02191e-07
3646.99	9.83127e-07
3655.67	6.83318e-07
3664.35	3.08607e-07
3673.03	3.10686e-07
3681.71	1.16337e-07
3690.39	3.04527e-07
3699.06	6.77986e-08
3707.74	-1.90218e-09
3716.42	5.66515e-09
3725.1	3.07777e-07
3733.78	6.24294e-08
3742.45	4.16692e-08
3751.13	2.35835e-07
3759.81	8.59415e-07
3768.49	3.68835e-08
3777.17	-4.52293e-08
3785.85	-1.52993e-08
3794.52	-5.41154e-08
3803.2	2.32929e-07
3811.88	-1.57363e-08
3820.56	1.23636e-06
3829.24	1.44319e-07
3837.91	4.43901e-06
3846.59	3.41475e-07
3855.27	5.12321e-07
3863.95	3.7761e-07
3872.63	5.41805e-08
3881.3	3.37559e-07
3889.98	5.68166e-08
3898.66	3.03136e-07
3907.34	2.37704e-07
3916.02	3.14151e-07
3924.7	3.36042e-07
3933.37	1.57132e-07
3942.05	6.21025e-08
3950.73	8.27063e-08
3959.41	1.3068e-07
3968.09	2.31722e-07
