Infrared Spectrum: 1,2-Dichloroethane
Formula: Cl C H2 C H2 Cl
CAS: 107-06-2
State: gas
Melting point: -35.36 C
Boiling point: 83.47 C
Class: IUPAC A
Instrument: IFS66V (Bruker)
Instrument parameters: KBr Beam Splitter; MCT Detector; Multipass cell
Sampling: 1 L/min Flow
Resolution: 0.4820
Temperature: 23 C
Pressure: 101.3 Pa
Origin: NIST, Analytical Chemistry Division, 301-975-3108
cm-1	(micromol/mol)-1m-1 (base 10)
575.17	4.0244e-08
583.848	8.52149e-07
592.526	1.00027e-06
601.205	-2.63929e-07
609.883	-5.275e-07
618.561	1.45154e-07
627.239	5.72187e-07
635.917	6.80778e-07
644.595	3.29888e-06
653.274	8.37524e-06
661.952	1.53726e-05
670.63	1.55906e-05
679.308	2.6059e-05
687.986	3.9784e-05
696.664	3.08791e-05
705.343	4.10029e-05
714.021	0.000201121
722.699	0.000550236
731.377	0.000597307
740.055	5.781e-05
748.734	6.08927e-06
757.412	7.09941e-06
766.09	7.74693e-06
774.768	6.12122e-06
783.446	4.58898e-06
792.124	4.01242e-06
800.803	2.67612e-06
809.481	1.80852e-06
818.159	1.6792e-06
826.837	2.01771e-06
835.515	1.86326e-06
844.193	1.13e-06
852.872	6.6965e-07
861.55	8.80796e-07
870.228	2.36346e-06
878.906	1.2486e-05
887.584	1.97402e-05
896.263	2.17594e-05
904.941	6.42333e-06
913.619	2.07034e-06
922.297	2.22183e-06
930.975	5.12496e-06
939.653	9.16495e-06
948.332	7.61002e-06
957.01	8.48792e-06
965.688	3.61775e-06
974.366	1.75628e-06
983.044	2.66293e-06
991.723	3.28527e-06
1000.4	2.12085e-06
1009.08	1.72109e-06
1017.76	3.33581e-06
1026.44	4.78258e-06
1035.11	3.17216e-06
1043.79	1.14168e-06
1052.47	4.51967e-07
1061.15	9.29644e-08
1069.83	9.51936e-08
1078.5	2.90621e-07
1087.18	4.77491e-07
1095.86	1.03133e-06
1104.54	1.80596e-06
1113.22	2.23598e-06
1121.9	4.05494e-06
1130.57	3.60318e-06
1139.25	3.01396e-06
1147.93	2.42113e-06
1156.61	1.95189e-06
1165.29	1.26557e-06
1173.96	8.40535e-07
1182.64	9.78979e-07
1191.32	1.84196e-06
1200	3.81167e-06
1208.68	6.99719e-06
1217.36	1.84319e-05
1226.03	0.000152592
1234.71	0.000142164
1243.39	7.02327e-05
1252.07	9.42862e-06
1260.75	6.12412e-06
1269.42	4.76184e-06
1278.1	1.48855e-05
1286.78	4.31071e-05
1295.46	3.51889e-05
1304.14	2.38801e-05
1312.82	9.4914e-06
1321.49	1.14878e-05
1330.17	7.05928e-06
1338.85	4.06344e-06
1347.53	2.97967e-06
1356.21	2.96593e-06
1364.88	2.28757e-06
1373.56	1.18858e-06
1382.24	1.16529e-06
1390.92	8.86375e-07
1399.6	8.57381e-07
1408.28	1.72387e-06
1416.95	3.9395e-06
1425.63	1.12408e-05
1434.31	1.7968e-05
1442.99	2.64418e-05
1451.67	3.0312e-05
1460.34	1.82244e-05
1469.02	2.21796e-05
1477.7	1.28078e-05
1486.38	7.86146e-06
1495.06	4.02082e-06
1503.73	1.77708e-06
1512.41	7.3273e-07
1521.09	1.46498e-06
1529.77	2.74929e-06
1538.45	1.53094e-06
1547.13	7.19065e-07
1555.8	1.92002e-07
1564.48	1.62366e-07
1573.16	2.46387e-07
1581.84	2.00702e-07
1590.52	9.09117e-08
1599.19	2.28728e-08
1607.87	3.13547e-08
1616.55	-9.51496e-07
1625.23	5.76071e-09
1633.91	-7.38851e-08
1642.59	-1.70859e-07
1651.26	-1.23247e-07
1659.94	-4.02131e-08
1668.62	9.43323e-09
1677.3	1.90236e-07
1685.98	1.76688e-07
1694.65	1.37113e-07
1703.33	8.90845e-08
1712.01	2.28779e-07
1720.69	1.67794e-07
1729.37	9.45624e-08
1738.05	1.37951e-08
1746.72	-5.43402e-08
1755.4	6.45365e-08
1764.08	5.32088e-08
1772.76	-6.25763e-07
1781.44	9.31636e-08
1790.11	7.79833e-08
1798.79	-3.46325e-08
1807.47	-9.8928e-08
1816.15	5.41347e-08
1824.83	-9.63441e-08
1833.51	-1.61862e-08
1842.18	-1.14532e-08
1850.86	9.51408e-08
1859.54	2.63743e-08
1868.22	-4.10407e-08
1876.9	8.61251e-08
1885.57	1.25179e-07
1894.25	2.52347e-08
1902.93	4.6424e-08
1911.61	-4.02213e-08
1920.29	-1.18134e-08
1928.97	-3.16057e-08
1937.64	-4.65104e-08
1946.32	-7.2148e-08
1955	-4.39657e-08
1963.68	-1.57387e-08
1972.36	-8.77931e-09
1981.03	1.9584e-08
1989.71	7.23954e-10
1998.39	-3.39749e-08
2007.07	1.30535e-07
2015.75	3.78351e-07
2024.43	1.46597e-06
2033.1	2.04506e-06
2041.78	1.48236e-06
2050.46	3.30568e-07
2059.14	1.09202e-07
2067.82	6.84127e-08
2076.49	7.06819e-08
2085.17	7.67155e-08
2093.85	1.37208e-07
2102.53	3.29022e-07
2111.21	3.31955e-07
2119.89	3.01059e-07
2128.56	1.769e-07
2137.24	1.99315e-07
2145.92	1.83501e-07
2154.6	8.07409e-08
2163.28	8.86907e-08
2171.95	3.09351e-07
2180.63	4.62695e-07
2189.31	8.51052e-07
2197.99	9.80126e-07
2206.67	1.24177e-06
2215.35	1.65491e-06
2224.02	1.4946e-06
2232.7	1.4433e-06
2241.38	1.11615e-06
2250.06	6.83607e-07
2258.74	3.8644e-07
2267.41	2.31781e-07
2276.09	1.69786e-07
2284.77	1.93998e-07
2293.45	1.86674e-07
2302.13	1.8389e-07
2310.81	8.45034e-08
2319.48	4.29925e-08
2328.16	2.13485e-07
2336.84	1.86851e-07
2345.52	-1.07413e-07
2354.2	-6.58879e-07
2362.87	-1.70253e-06
2371.55	-4.2138e-07
2380.23	1.03231e-06
2388.91	1.12103e-06
2397.59	6.60572e-07
2406.27	6.01458e-07
2414.94	6.08447e-07
2423.62	7.53834e-07
2432.3	6.14533e-07
2440.98	6.06636e-07
2449.66	4.79679e-07
2458.33	7.7031e-07
2467.01	5.66318e-07
2475.69	3.70814e-07
2484.37	2.57251e-07
2493.05	3.6676e-07
2501.73	4.14777e-07
2510.4	6.32716e-07
2519.08	8.07359e-07
2527.76	6.10365e-07
2536.44	5.08077e-07
2545.12	3.53293e-07
2553.79	2.59056e-07
2562.47	-5.64111e-08
2571.15	3.92836e-08
2579.83	-6.46465e-08
2588.51	-4.19384e-08
2597.19	-1.4089e-07
2605.86	-1.88143e-07
2614.54	-1.44906e-07
2623.22	-8.08364e-08
2631.9	-3.28235e-09
2640.58	7.15823e-08
2649.25	-3.0527e-08
2657.93	-2.26254e-08
2666.61	9.23232e-08
2675.29	5.58637e-07
2683.97	1.77794e-06
2692.65	1.79287e-06
2701.32	3.39735e-07
2710	1.98631e-07
2718.68	3.34257e-07
2727.36	4.14041e-07
2736.04	6.19888e-07
2744.71	4.00258e-07
2753.39	1.1318e-06
2762.07	2.31999e-06
2770.75	2.43758e-06
2779.43	1.44802e-07
2788.11	1.00815e-07
2796.78	1.86736e-08
2805.46	-9.70262e-08
2814.14	4.01367e-08
2822.82	9.09927e-08
2831.5	4.65397e-07
2840.17	1.32789e-06
2848.85	2.98587e-06
2857.53	3.55951e-06
2866.21	4.48896e-06
2874.89	4.94427e-06
2883.57	9.0169e-06
2892.24	1.13545e-05
2900.92	1.34674e-05
2909.6	3.67908e-06
2918.28	2.48765e-06
2926.96	2.0585e-06
2935.63	4.06505e-06
2944.31	1.08504e-05
2952.99	2.43116e-05
2961.67	2.84152e-05
2970.35	4.47397e-05
2979.03	5.82172e-05
2987.7	5.96475e-05
2996.38	3.64578e-05
3005.06	2.86764e-05
3013.74	2.44244e-05
3022.42	1.83674e-05
3031.09	1.34373e-05
3039.77	9.51784e-06
3048.45	7.93545e-06
3057.13	5.4234e-06
3065.81	2.91836e-06
3074.49	1.65389e-06
3083.16	9.48624e-07
3091.84	5.94012e-07
3100.52	6.28379e-07
3109.2	5.18823e-07
3117.88	3.87167e-07
3126.55	3.42834e-07
3135.23	2.40105e-08
3143.91	1.13763e-07
3152.59	1.05734e-07
3161.27	-5.47358e-08
3169.95	-9.18476e-08
3178.62	-1.46703e-07
3187.3	1.10173e-07
3195.98	2.7369e-07
3204.66	1.43968e-07
3213.34	1.93594e-08
3222.01	6.14133e-08
3230.69	1.50639e-07
3239.37	4.41466e-09
3248.05	8.36303e-08
3256.73	2.1177e-07
3265.4	-3.46961e-08
3274.08	6.2522e-08
3282.76	1.01754e-07
3291.44	1.0892e-07
3300.12	-8.96757e-10
3308.8	-9.58602e-09
3317.47	-1.3899e-07
3326.15	-1.83646e-07
3334.83	-1.00852e-07
3343.51	-8.5282e-08
3352.19	-6.75842e-08
3360.86	2.05199e-08
3369.54	-8.44443e-08
3378.22	4.36237e-08
3386.9	-1.04936e-07
3395.58	-1.16376e-07
3404.26	1.12986e-07
3412.93	2.11913e-07
3421.61	-9.73018e-08
3430.29	-5.31924e-08
3438.97	1.49818e-07
3447.65	-1.03113e-07
3456.32	-9.54555e-08
3465	-2.32193e-08
3473.68	-1.60803e-07
3482.36	7.045e-08
3491.04	8.62251e-08
3499.72	-3.99803e-08
3508.39	-8.39869e-08
3517.07	-1.24225e-07
3525.75	-2.20097e-08
3534.43	-1.6842e-07
3543.11	-1.10567e-07
3551.78	-3.15347e-08
3560.46	-7.90183e-08
3569.14	-1.69589e-07
3577.82	-1.68634e-07
3586.5	-2.31309e-07
3595.18	-1.34723e-07
3603.85	4.07897e-08
3612.53	-1.12528e-07
3621.21	1.5012e-07
3629.89	-6.34879e-08
3638.57	2.55509e-07
3647.24	5.18955e-09
3655.92	8.3624e-08
3664.6	2.84088e-07
3673.28	3.43713e-07
3681.96	3.28018e-07
3690.64	1.49475e-08
3699.31	2.22037e-07
3707.99	2.15405e-07
3716.67	1.64547e-07
3725.35	2.04777e-07
3734.03	4.0684e-07
3742.7	9.23475e-07
3751.38	1.09557e-06
3760.06	1.01924e-06
3768.74	9.94799e-07
3777.42	1.03143e-06
3786.1	9.27324e-07
3794.77	6.90346e-07
3803.45	9.0523e-07
3812.13	5.02873e-07
3820.81	8.78176e-08
3829.49	3.11721e-07
3838.16	-3.94901e-07
3846.84	3.51659e-07
3855.52	5.7287e-08
3864.2	-3.3049e-08
3872.88	5.62629e-08
3881.56	3.91108e-08
3890.23	1.77557e-07
3898.91	4.41903e-08
3907.59	8.78204e-08
3916.27	2.99186e-08
3924.95	2.93029e-08
3933.62	-1.68092e-08
3942.3	1.58509e-07
3950.98	2.79745e-07
3959.66	3.07288e-07
3968.34	2.51959e-07
