Infrared Spectrum: 1,2-Dichloroethane
Formula: Cl C H2 C H2 Cl
CAS: 107-06-2
State: gas
Melting point: -35.36 C
Boiling point: 83.47 C
Class: IUPAC A
Instrument: IFS66V (Bruker)
Instrument parameters: KBr Beam Splitter; MCT Detector; Multipass cell
Sampling: 1 L/min Flow
Resolution: 0.2410
Temperature: 23 C
Pressure: 101.3 Pa
Origin: NIST, Analytical Chemistry Division, 301-975-3108
cm-1	(micromol/mol)-1m-1 (base 10)
575.05	2.18378e-06
583.608	-4.17166e-07
592.165	1.27736e-06
600.723	-1.58992e-07
609.281	4.80038e-08
617.838	-2.2366e-07
626.396	-2.82005e-07
634.954	3.79539e-08
643.511	2.52422e-06
652.069	7.51634e-06
660.626	1.45611e-05
669.184	1.39537e-05
677.742	2.46715e-05
686.299	4.07177e-05
694.857	2.92265e-05
703.415	3.85953e-05
711.972	0.00013412
720.53	0.00049554
729.088	0.00051714
737.645	0.000221202
746.203	6.38047e-06
754.761	6.76833e-06
763.318	6.57491e-06
771.876	9.84331e-06
780.434	4.91515e-06
788.991	4.17687e-06
797.549	3.32357e-06
806.106	1.53466e-06
814.664	1.58115e-06
823.222	1.97186e-06
831.779	2.50563e-06
840.337	9.8225e-07
848.895	4.94727e-07
857.452	8.98749e-07
866.01	1.25389e-06
874.568	4.97339e-06
883.125	2.11857e-05
891.683	1.72803e-05
900.241	1.6104e-05
908.798	3.07044e-06
917.356	1.67454e-06
925.914	3.07235e-06
934.471	7.03103e-06
943.029	9.19083e-06
951.586	9.45279e-06
960.144	6.31031e-06
968.702	2.72912e-06
977.259	2.0741e-06
985.817	3.28037e-06
994.375	3.60174e-06
1002.93	1.708e-06
1011.49	2.05465e-06
1020.05	3.85032e-06
1028.61	4.64757e-06
1037.16	2.70449e-06
1045.72	1.203e-06
1054.28	6.24196e-07
1062.84	-1.41312e-07
1071.39	6.01364e-08
1079.95	3.24021e-07
1088.51	5.26823e-07
1097.07	1.19992e-06
1105.62	1.9788e-06
1114.18	2.85401e-06
1122.74	5.17644e-06
1131.3	2.23344e-06
1139.85	3.46167e-06
1148.41	2.37718e-06
1156.97	1.92595e-06
1165.53	1.18046e-06
1174.09	8.97968e-07
1182.64	1.18046e-06
1191.2	1.81666e-06
1199.76	4.37543e-06
1208.32	6.29255e-06
1216.87	1.6135e-05
1225.43	0.000141769
1233.99	0.000125356
1242.55	8.93995e-05
1251.1	1.31483e-05
1259.66	6.09074e-06
1268.22	4.56934e-06
1276.78	1.07142e-05
1285.33	4.41483e-05
1293.89	2.1108e-05
1302.45	3.19059e-05
1311.01	1.12037e-05
1319.57	1.32511e-05
1328.12	8.05206e-06
1336.68	4.66605e-06
1345.24	3.36641e-06
1353.8	2.76768e-06
1362.35	2.37876e-06
1370.91	1.93403e-06
1379.47	1.20732e-06
1388.03	8.02863e-07
1396.58	7.23281e-07
1405.14	1.08773e-06
1413.7	2.96652e-06
1422.26	7.47873e-06
1430.81	1.66285e-05
1439.37	2.05937e-05
1447.93	2.43685e-05
1456.49	3.01681e-05
1465.05	3.31492e-05
1473.6	1.48106e-05
1482.16	9.92714e-06
1490.72	5.13279e-06
1499.28	2.79527e-06
1507.83	9.46552e-07
1516.39	1.22972e-06
1524.95	2.13195e-06
1533.51	2.49413e-06
1542.06	2.24258e-07
1550.62	5.83679e-07
1559.18	4.68606e-08
1567.74	2.34967e-07
1576.29	-1.11243e-06
1584.85	2.76653e-07
1593.41	9.50171e-08
1601.97	-2.41717e-07
1610.53	6.20236e-08
1619.08	-1.08796e-07
1627.64	-2.43296e-07
1636.2	-1.85469e-07
1644.76	-4.43995e-08
1653.31	-2.54526e-06
1661.87	-2.92919e-08
1670.43	2.15857e-07
1678.99	3.41481e-07
1687.54	1.71101e-07
1696.1	-4.16704e-07
1704.66	-8.94056e-08
1713.22	1.9319e-07
1721.77	2.51687e-07
1730.33	-2.99122e-08
1738.89	-1.06265e-08
1747.45	9.23432e-08
1756.01	-1.00144e-08
1764.56	1.09681e-07
1773.12	7.34486e-08
1781.68	3.40513e-08
1790.24	-2.41651e-09
1798.79	-9.61249e-08
1807.35	-4.70516e-08
1815.91	5.46531e-08
1824.47	1.1375e-08
1833.02	-9.54355e-08
1841.58	1.15232e-09
1850.14	7.0601e-08
1858.7	1.15275e-07
1867.25	-3.46443e-08
1875.81	5.74407e-08
1884.37	-4.42167e-08
1892.93	2.2592e-07
1901.49	1.58008e-07
1910.04	-2.89718e-08
1918.6	5.93269e-08
1927.16	-5.45539e-08
1935.72	-8.76867e-08
1944.27	-8.26099e-08
1952.83	-5.60773e-08
1961.39	7.36414e-08
1969.95	-6.96487e-09
1978.5	-1.51675e-07
1987.06	7.52421e-09
1995.62	-8.66962e-08
2004.18	8.09892e-08
2012.73	3.90577e-07
2021.29	1.227e-06
2029.85	1.90125e-06
2038.41	1.89053e-06
2046.97	6.50592e-07
2055.52	2.9795e-07
2064.08	1.30006e-07
2072.64	-1.4761e-08
2081.2	4.86159e-08
2089.75	1.16169e-08
2098.31	3.23647e-07
2106.87	2.608e-07
2115.43	4.23091e-07
2123.98	1.99367e-07
2132.54	5.38487e-07
2141.1	2.35788e-07
2149.66	1.22235e-07
2158.21	2.04697e-07
2166.77	1.27835e-07
2175.33	2.07639e-07
2183.89	5.25151e-07
2192.45	7.64337e-07
2201	1.19768e-06
2209.56	1.11544e-06
2218.12	1.52222e-06
2226.68	1.61281e-06
2235.23	1.50933e-06
2243.79	8.98033e-07
2252.35	7.64728e-07
2260.91	3.32052e-07
2269.46	1.05565e-07
2278.02	1.38212e-07
2286.58	2.72297e-07
2295.14	1.13413e-08
2303.69	8.88235e-08
2312.25	3.62021e-07
2320.81	-1.89086e-07
2329.37	3.63783e-07
2337.93	-1.62238e-07
2346.48	2.06949e-07
2355.04	2.81076e-07
2363.6	-1.81472e-07
2372.16	3.5944e-07
2380.71	7.67007e-07
2389.27	1.18425e-06
2397.83	5.63207e-07
2406.39	6.25343e-07
2414.94	6.66768e-07
2423.5	8.28046e-07
2432.06	4.09843e-07
2440.62	6.84224e-07
2449.17	4.03085e-07
2457.73	6.85225e-07
2466.29	5.41623e-07
2474.85	2.36508e-07
2483.41	2.02774e-07
2491.96	3.01828e-07
2500.52	6.25851e-07
2509.08	6.92839e-07
2517.64	5.73152e-07
2526.19	6.2659e-07
2534.75	5.67941e-07
2543.31	3.38816e-07
2551.87	1.66017e-07
2560.42	2.08519e-08
2568.98	-8.24498e-08
2577.54	-1.38611e-07
2586.1	8.59959e-08
2594.65	-7.15596e-08
2603.21	-4.548e-08
2611.77	-3.71293e-07
2620.33	-1.93526e-07
2628.89	1.11147e-07
2637.44	-1.51102e-07
2646	-5.66976e-08
2654.56	5.27359e-08
2663.12	5.24212e-08
2671.67	3.14068e-07
2680.23	1.50697e-06
2688.79	1.45659e-06
2697.35	1.02819e-06
2705.9	9.88779e-08
2714.46	1.27553e-07
2723.02	4.89368e-07
2731.58	2.17071e-07
2740.13	7.34874e-07
2748.69	7.94108e-07
2757.25	2.11834e-06
2765.81	1.87249e-06
2774.37	1.19942e-06
2782.92	1.82379e-07
2791.48	6.84773e-08
2800.04	1.46145e-07
2808.6	-1.93701e-07
2817.15	-2.50258e-07
2825.71	3.15803e-07
2834.27	5.1748e-07
2842.83	1.65076e-06
2851.38	3.66587e-06
2859.94	4.02972e-06
2868.5	4.70646e-06
2877.06	5.13559e-06
2885.61	1.26153e-05
2894.17	1.015e-05
2902.73	1.07554e-05
2911.29	3.26633e-06
2919.85	2.1772e-06
2928.4	2.2603e-06
2936.96	4.75711e-06
2945.52	1.18864e-05
2954.08	2.53433e-05
2962.63	2.53767e-05
2971.19	4.84379e-05
2979.75	5.34734e-05
2988.31	5.75036e-05
2996.86	3.75323e-05
3005.42	2.90011e-05
3013.98	2.41239e-05
3022.54	1.83945e-05
3031.09	1.32942e-05
3039.65	9.40712e-06
3048.21	8.26889e-06
3056.77	5.30403e-06
3065.33	3.23211e-06
3073.88	1.56406e-06
3082.44	9.36679e-07
3091	7.27292e-07
3099.56	3.56706e-07
3108.11	5.62465e-07
3116.67	5.36097e-07
3125.23	3.60984e-07
3133.79	-1.72576e-08
3142.34	9.45333e-08
3150.9	-1.78322e-07
3159.46	8.8969e-08
3168.02	-1.41791e-07
3176.57	-3.31957e-07
3185.13	-1.65091e-07
3193.69	2.41653e-07
3202.25	3.13774e-07
3210.81	8.3563e-08
3219.36	1.73376e-08
3227.92	1.34359e-07
3236.48	-2.29858e-07
3245.04	1.45879e-07
3253.59	1.90494e-07
3262.15	1.14593e-07
3270.71	-4.89551e-08
3279.27	4.02649e-08
3287.82	1.73258e-07
3296.38	1.67337e-08
3304.94	-1.81018e-07
3313.5	1.91323e-07
3322.05	4.53676e-07
3330.61	-2.87372e-08
3339.17	-3.07355e-07
3347.73	-2.39018e-07
3356.29	3.22555e-07
3364.84	2.10547e-09
3373.4	-2.79453e-07
3381.96	-8.7261e-08
3390.52	5.02257e-08
3399.07	1.49156e-07
3407.63	2.08265e-07
3416.19	2.93338e-08
3424.75	-1.14893e-07
3433.3	-1.23281e-07
3441.86	-8.57904e-08
3450.42	-3.73027e-08
3458.98	1.21773e-07
3467.53	2.02912e-07
3476.09	8.65571e-08
3484.65	-7.8409e-08
3493.21	1.12504e-07
3501.77	-2.64726e-07
3510.32	-2.51406e-07
3518.88	3.44069e-08
3527.44	2.89595e-07
3536	-1.13556e-07
3544.55	-6.96879e-08
3553.11	1.45118e-08
3561.67	2.10439e-07
3570.23	-2.22775e-07
3578.78	-2.94627e-07
3587.34	-2.61958e-07
3595.9	1.27337e-07
3604.46	-9.2587e-08
3613.01	-4.31953e-08
3621.57	6.31695e-08
3630.13	8.20596e-08
3638.69	2.89567e-07
3647.25	-4.4145e-07
3655.8	3.1382e-07
3664.36	2.76899e-07
3672.92	5.31873e-07
3681.48	3.56549e-07
3690.03	3.1784e-07
3698.59	3.92911e-07
3707.15	1.24387e-07
3715.71	-2.1212e-08
3724.26	3.53391e-08
3732.82	5.05948e-07
3741.38	6.92234e-07
3749.94	1.20743e-06
3758.49	1.6544e-06
3767.05	8.15723e-07
3775.61	1.57713e-06
3784.17	8.80595e-07
3792.73	1.05195e-06
3801.28	-8.93665e-08
3809.84	5.3671e-07
3818.4	5.87541e-07
3826.96	7.7027e-07
3835.51	2.70117e-07
3844.07	2.56081e-07
3852.63	-1.47932e-07
3861.19	2.87976e-07
3869.74	-7.12649e-08
3878.3	-2.54075e-08
3886.86	3.44773e-07
3895.42	3.73954e-07
3903.97	-1.67151e-07
3912.53	-2.86719e-07
3921.09	-9.64687e-08
3929.65	3.10918e-08
3938.21	-2.80095e-07
3946.76	1.87327e-07
3955.32	3.6853e-07
3963.88	4.08636e-07
3972.44	6.58696e-07
