Infrared Spectrum: Nitrile-Propenoic Acid
Formula: C H2: C H C N
CAS: 107-13-1
State: gas
Melting point: -83.5 C
Boiling point: 77.5 C
Class: IUPAC A
Instrument: IFS66V (Bruker)
Instrument parameters: KBr Beam splitter; MCT Detector; Multipass cell
Sampling: 1 L/min Flow
Resolution: 0.9640
Temperature: 23 C
Pressure: 101.3 kPa
Origin: NIST, Anayltical Chemistry Division, 301-975-3108
cm-1	(micromol/mol)-1m-1 (base 10)
575.169	2.76125e-07
583.847	2.82621e-07
592.525	4.15787e-07
601.203	3.61663e-07
609.882	5.80417e-07
618.56	1.1286e-06
627.238	2.64311e-06
635.916	5.16187e-06
644.594	9.78055e-06
653.272	1.84578e-05
661.951	1.69261e-05
670.629	1.90396e-05
679.307	3.6841e-05
687.985	1.75577e-05
696.663	1.72647e-05
705.341	2.30794e-05
714.019	1.15166e-05
722.698	1.12494e-05
731.376	5.78231e-06
740.054	4.37043e-06
748.732	2.2006e-06
757.41	1.52011e-06
766.088	1.99998e-06
774.767	4.63197e-06
783.445	3.77967e-06
792.123	3.86299e-06
800.801	2.85084e-06
809.479	5.82162e-07
818.157	2.08603e-07
826.835	1.42063e-07
835.514	1.34254e-07
844.192	1.05046e-06
852.87	4.89879e-06
861.548	8.44309e-06
870.226	4.60398e-06
878.904	8.73025e-06
887.583	6.55476e-06
896.261	1.05449e-05
904.939	1.81766e-05
913.617	2.77958e-05
922.295	4.46543e-05
930.973	8.05519e-05
939.651	8.76377e-05
948.33	0.000123466
957.008	0.000109513
965.686	9.14577e-05
974.364	0.000101349
983.042	9.82372e-05
991.72	7.70914e-05
1000.4	6.44785e-05
1009.08	3.92558e-05
1017.75	2.28786e-05
1026.43	1.23973e-05
1035.11	5.21532e-06
1043.79	2.08605e-06
1052.47	1.28982e-06
1061.15	1.16879e-06
1069.82	1.88701e-06
1078.5	8.20647e-06
1087.18	1.2342e-05
1095.86	8.98072e-06
1104.54	8.29886e-06
1113.21	2.90238e-06
1121.89	6.1304e-07
1130.57	2.9037e-07
1139.25	1.87017e-07
1147.93	1.05103e-07
1156.61	1.19819e-07
1165.28	1.81183e-07
1173.96	2.1102e-07
1182.64	2.21659e-07
1191.32	2.77689e-07
1200	2.66887e-07
1208.67	4.56501e-07
1217.35	2.2844e-07
1226.03	2.41164e-07
1234.71	2.33898e-07
1243.39	1.61805e-07
1252.07	2.29999e-07
1260.74	7.2935e-07
1269.42	2.42998e-06
1278.1	2.08707e-06
1286.78	3.17255e-06
1295.46	3.21073e-06
1304.13	1.75889e-06
1312.81	2.63852e-06
1321.49	2.28775e-06
1330.17	2.5456e-06
1338.85	3.29987e-06
1347.52	2.93472e-06
1356.2	3.12996e-06
1364.88	3.28202e-06
1373.56	4.93932e-06
1382.24	5.40702e-06
1390.92	7.04337e-06
1399.59	1.671e-05
1408.27	2.18745e-05
1416.95	1.24498e-05
1425.63	2.24865e-05
1434.31	1.00038e-05
1442.98	7.98322e-06
1451.66	4.17822e-06
1460.34	2.28096e-06
1469.02	1.34806e-06
1477.7	6.39309e-07
1486.38	4.37067e-07
1495.05	2.96092e-07
1503.73	1.5121e-07
1512.41	6.26137e-07
1521.09	2.16919e-06
1529.77	1.35844e-07
1538.44	1.63028e-06
1547.12	3.00568e-07
1555.8	5.26473e-07
1564.48	9.64333e-07
1573.16	1.13556e-06
1581.83	1.64548e-06
1590.51	3.17013e-06
1599.19	1.02393e-05
1607.87	1.34498e-05
1616.55	8.29899e-06
1625.23	1.65057e-05
1633.9	9.04877e-06
1642.58	9.27711e-06
1651.26	5.15085e-06
1659.94	7.6253e-06
1668.62	5.6931e-06
1677.29	1.98853e-06
1685.97	1.46768e-06
1694.65	1.17542e-06
1703.33	5.82491e-07
1712.01	2.83449e-07
1720.69	2.0073e-07
1729.36	3.24081e-07
1738.04	2.35498e-07
1746.72	4.09301e-07
1755.4	1.52238e-07
1764.08	5.11219e-08
1772.75	1.60585e-06
1781.43	1.03595e-07
1790.11	1.44435e-07
1798.79	8.9772e-08
1807.47	6.32325e-08
1816.15	7.21509e-08
1824.82	6.71234e-07
1833.5	7.08323e-07
1842.18	5.94082e-07
1850.86	9.44613e-07
1859.54	7.09099e-07
1868.21	1.2356e-06
1876.89	1.96436e-06
1885.57	5.53163e-06
1894.25	1.435e-05
1902.93	1.52637e-05
1911.6	1.50141e-05
1920.28	1.64159e-05
1928.96	6.92449e-06
1937.64	3.03951e-06
1946.32	3.45883e-06
1955	1.66202e-06
1963.67	1.17136e-06
1972.35	6.72353e-07
1981.03	4.71941e-07
1989.71	2.72043e-07
1998.39	2.00931e-07
2007.06	1.0722e-07
2015.74	6.61747e-08
2024.42	5.89252e-08
2033.1	8.41983e-08
2041.78	8.28932e-08
2050.46	7.35392e-08
2059.13	8.51551e-08
2067.81	1.0214e-07
2076.49	9.20398e-08
2085.17	8.2333e-08
2093.85	7.74513e-08
2102.52	6.2022e-08
2111.2	2.22773e-08
2119.88	2.32809e-08
2128.56	1.06286e-08
2137.24	6.37455e-09
2145.91	4.52112e-08
2154.59	6.51506e-08
2163.27	7.26465e-08
2171.95	7.31231e-08
2180.63	1.06106e-07
2189.31	7.85777e-08
2197.98	7.81234e-08
2206.66	1.59061e-07
2215.34	6.32023e-07
2224.02	1.87958e-06
2232.7	2.33024e-06
2241.37	2.21462e-06
2250.05	2.71255e-06
2258.73	8.06883e-07
2267.41	9.9698e-07
2276.09	1.07552e-06
2284.77	9.98123e-07
2293.44	1.43567e-06
2302.12	4.55753e-07
2310.8	4.94071e-07
2319.48	2.46551e-07
2328.16	1.9095e-07
2336.83	1.64387e-07
2345.51	1.95274e-07
2354.19	3.05105e-07
2362.87	4.87122e-07
2371.55	4.78532e-07
2380.23	6.97317e-07
2388.9	5.78505e-07
2397.58	5.50314e-07
2406.26	3.83992e-07
2414.94	2.2087e-07
2423.62	2.21471e-07
2432.29	2.56484e-07
2440.97	3.08525e-07
2449.65	5.20134e-07
2458.33	5.58177e-07
2467.01	5.40884e-07
2475.68	8.05647e-07
2484.36	6.38203e-07
2493.04	4.45891e-07
2501.72	2.95166e-07
2510.4	2.33796e-07
2519.08	2.23636e-07
2527.75	2.17922e-07
2536.43	2.40618e-07
2545.11	3.28598e-07
2553.79	3.50526e-07
2562.47	4.35529e-07
2571.14	3.1338e-07
2579.82	2.5704e-07
2588.5	1.81886e-07
2597.18	1.29835e-07
2605.86	8.23152e-08
2614.54	7.51167e-08
2623.21	-7.59871e-10
2631.89	-3.09905e-09
2640.57	-2.13591e-08
2649.25	-3.7401e-08
2657.93	4.72793e-09
2666.6	2.32704e-08
2675.28	1.05724e-07
2683.96	2.58628e-07
2692.64	4.86502e-07
2701.32	6.24344e-07
2709.99	5.51986e-07
2718.67	5.66614e-07
2727.35	2.4466e-07
2736.03	1.36271e-07
2744.71	1.17206e-07
2753.39	2.20558e-08
2762.06	4.33031e-08
2770.74	1.25817e-07
2779.42	1.94805e-07
2788.1	1.37125e-07
2796.78	1.35311e-07
2805.45	2.23241e-07
2814.13	2.0898e-08
2822.81	3.78235e-08
2831.49	2.18916e-08
2840.17	-1.07921e-07
2848.85	-1.54452e-07
2857.52	-1.03267e-07
2866.2	-4.85408e-08
2874.88	7.70625e-08
2883.56	1.16385e-07
2892.24	2.99211e-07
2900.91	2.90579e-07
2909.59	2.56885e-07
2918.27	2.56281e-07
2926.95	3.88493e-08
2935.63	5.45647e-08
2944.31	4.39797e-08
2952.98	3.14344e-08
2961.66	2.44518e-08
2970.34	8.48672e-08
2979.02	1.56364e-07
2987.7	4.21535e-07
2996.37	2.98068e-07
3005.05	5.37571e-07
3013.73	5.91603e-07
3022.41	2.17703e-06
3031.09	6.10747e-06
3039.76	5.36158e-06
3048.44	6.3795e-06
3057.12	6.5367e-06
3065.8	2.12638e-06
3074.48	1.14055e-06
3083.16	1.10418e-06
3091.83	1.98433e-06
3100.51	2.78365e-06
3109.19	6.44586e-06
3117.87	8.82188e-06
3126.55	3.81254e-06
3135.22	9.65062e-06
3143.9	3.63246e-06
3152.58	1.72438e-06
3161.26	1.03998e-06
3169.94	5.10105e-07
3178.62	3.64528e-07
3187.29	1.01021e-07
3195.97	-1.89808e-08
3204.65	-8.41064e-08
3213.33	-9.79669e-08
3222.01	-6.51197e-08
3230.68	1.4468e-08
3239.36	-1.35298e-07
3248.04	-1.88996e-07
3256.72	-1.28807e-07
3265.4	-7.65823e-08
3274.07	-9.90265e-08
3282.75	-1.1432e-07
3291.43	-1.04924e-07
3300.11	6.70105e-09
3308.79	2.79979e-08
3317.47	2.20354e-07
3326.14	2.27638e-07
3334.82	2.63485e-07
3343.5	4.87082e-07
3352.18	1.44811e-07
3360.86	1.46317e-07
3369.53	-5.0658e-09
3378.21	-8.63551e-09
3386.89	-5.2587e-08
3395.57	-2.12536e-08
3404.25	-6.41984e-08
3412.93	-2.32686e-08
3421.6	3.64838e-09
3430.28	-5.48676e-08
3438.96	4.41871e-08
3447.64	-1.38014e-09
3456.32	6.76549e-08
3464.99	-3.91145e-08
3473.67	-3.51432e-08
3482.35	3.92582e-08
3491.03	2.65746e-08
3499.71	7.60334e-08
3508.39	8.44179e-08
3517.06	2.11233e-07
3525.74	2.06244e-07
3534.42	1.07954e-07
3543.1	1.77851e-07
3551.78	1.46571e-07
3560.45	9.9925e-08
3569.13	1.33649e-07
3577.81	1.33002e-08
3586.49	5.47486e-07
3595.17	2.76421e-07
3603.84	1.09516e-07
3612.52	7.70677e-07
3621.2	2.62945e-07
3629.88	1.45998e-06
3638.56	3.66877e-07
3647.24	1.09641e-06
3655.91	1.26607e-06
3664.59	3.18735e-07
3673.27	3.43107e-07
3681.95	1.08089e-07
3690.63	5.07657e-07
3699.3	5.93477e-08
3707.98	3.5397e-08
3716.66	-1.07892e-08
3725.34	1.73836e-07
3734.02	2.74588e-07
3742.7	1.04059e-07
3751.37	6.7965e-07
3760.05	4.94237e-07
3768.73	4.93779e-08
3777.41	-1.68686e-08
3786.09	-2.36215e-08
3794.76	-4.39211e-08
3803.44	1.15578e-07
3812.12	1.27414e-08
3820.8	1.13133e-06
3829.48	1.54163e-07
3838.16	2.48049e-06
3846.83	3.17428e-07
3855.51	6.33622e-07
3864.19	5.29866e-07
3872.87	7.81198e-08
3881.55	2.49111e-07
3890.22	1.60053e-07
3898.9	6.8525e-07
3907.58	2.52884e-07
3916.26	3.41939e-07
3924.94	4.26804e-07
3933.61	1.7828e-07
3942.29	1.96085e-07
3950.97	8.47376e-08
3959.65	1.25505e-07
3968.33	2.1368e-07
