Infrared Spectrum: 1,2-Dichloroethane
Formula: Cl C H2 C H2 Cl
CAS: 107-06-2
State: gas
Melting point: -35.36 C
Boiling point: 83.47 C
Class: IUPAC A
Instrument: IFS66V (Bruker)
Instrument parameters: KBr Beam Splitter; MCT Detector; Multipass cell
Sampling: 1 L/min Flow
Resolution: 0.2410
Temperature: 23 C
Pressure: 101.3 Pa
Origin: NIST, Analytical Chemistry Division, 301-975-3108
cm-1	(micromol/mol)-1m-1 (base 10)
575.05	5.92612e-07
583.608	6.87508e-07
592.165	3.58048e-07
600.723	-1.80238e-07
609.281	-1.09195e-07
617.838	-3.77174e-07
626.396	-1.3058e-07
634.954	5.63817e-07
643.511	2.57701e-06
652.069	7.43551e-06
660.626	1.47475e-05
669.184	1.42984e-05
677.742	2.44628e-05
686.299	4.07171e-05
694.857	3.00922e-05
703.415	3.86717e-05
711.972	0.000134059
720.53	0.000495391
729.088	0.000518313
737.645	0.000222058
746.203	6.31078e-06
754.761	6.42969e-06
763.318	6.58481e-06
771.876	9.20484e-06
780.434	5.10745e-06
788.991	4.09331e-06
797.549	3.25072e-06
806.106	1.81111e-06
814.664	1.52554e-06
823.222	1.70261e-06
831.779	2.32567e-06
840.337	1.62102e-06
848.895	6.46619e-07
857.452	1.00224e-06
866.01	1.32472e-06
874.568	4.96941e-06
883.125	2.12423e-05
891.683	1.71701e-05
900.241	1.62253e-05
908.798	3.02952e-06
917.356	1.61032e-06
925.914	3.10943e-06
934.471	6.92271e-06
943.029	9.27938e-06
951.586	9.60517e-06
960.144	6.26415e-06
968.702	2.77417e-06
977.259	1.87223e-06
985.817	2.96907e-06
994.375	3.46536e-06
1002.93	1.59818e-06
1011.49	2.02042e-06
1020.05	3.71963e-06
1028.61	4.51105e-06
1037.16	2.5888e-06
1045.72	1.05411e-06
1054.28	3.65488e-07
1062.84	-8.85207e-09
1071.39	3.9903e-08
1079.95	3.01567e-07
1088.51	4.85947e-07
1097.07	1.07663e-06
1105.62	1.8788e-06
1114.18	2.66628e-06
1122.74	5.18913e-06
1131.3	2.26987e-06
1139.85	3.30278e-06
1148.41	2.48632e-06
1156.97	1.88512e-06
1165.53	1.26118e-06
1174.09	8.54741e-07
1182.64	1.03521e-06
1191.2	1.84178e-06
1199.76	4.2474e-06
1208.32	6.33175e-06
1216.87	1.62519e-05
1225.43	0.000142016
1233.99	0.000125862
1242.55	8.90806e-05
1251.1	1.28049e-05
1259.66	6.33859e-06
1268.22	4.55188e-06
1276.78	1.06333e-05
1285.33	4.40192e-05
1293.89	2.11794e-05
1302.45	3.1747e-05
1311.01	1.12469e-05
1319.57	1.30722e-05
1328.12	8.02742e-06
1336.68	4.62043e-06
1345.24	3.34672e-06
1353.8	2.8485e-06
1362.35	2.44151e-06
1370.91	1.7529e-06
1379.47	1.21833e-06
1388.03	8.64502e-07
1396.58	7.46823e-07
1405.14	1.12563e-06
1413.7	2.89387e-06
1422.26	7.42858e-06
1430.81	1.6816e-05
1439.37	2.08358e-05
1447.93	2.48275e-05
1456.49	3.03722e-05
1465.05	3.27741e-05
1473.6	1.46297e-05
1482.16	9.67227e-06
1490.72	5.3338e-06
1499.28	2.72055e-06
1507.83	9.48284e-07
1516.39	1.23811e-06
1524.95	2.06727e-06
1533.51	2.41479e-06
1542.06	2.07659e-07
1550.62	4.71724e-07
1559.18	6.12105e-08
1567.74	1.95837e-07
1576.29	-1.16995e-06
1584.85	2.35491e-07
1593.41	8.34339e-08
1601.97	-1.3767e-07
1610.53	3.63223e-08
1619.08	-4.68915e-08
1627.64	-3.00953e-07
1636.2	-1.32337e-07
1644.76	-5.81937e-08
1653.31	-1.9434e-06
1661.87	-7.52658e-08
1670.43	1.74247e-07
1678.99	2.86117e-07
1687.54	2.24829e-07
1696.1	-9.49728e-07
1704.66	-1.2143e-07
1713.22	1.55072e-07
1721.77	1.97892e-07
1730.33	3.0829e-08
1738.89	-2.26554e-08
1747.45	3.75665e-08
1756.01	2.22598e-08
1764.56	8.86962e-08
1773.12	-3.87506e-08
1781.68	1.28174e-07
1790.24	4.63649e-08
1798.79	-7.83589e-08
1807.35	-8.55721e-08
1815.91	4.9147e-08
1824.47	-2.35876e-08
1833.02	-1.9132e-08
1841.58	3.6185e-08
1850.14	5.92105e-08
1858.7	7.45955e-08
1867.25	-2.03235e-08
1875.81	-2.10411e-08
1884.37	-2.73065e-08
1892.93	1.50688e-07
1901.49	1.2942e-07
1910.04	-1.30985e-08
1918.6	4.30016e-08
1927.16	-2.79304e-08
1935.72	-8.95784e-08
1944.27	-1.08358e-07
1952.83	-6.8591e-08
1961.39	-4.94954e-08
1969.95	9.94982e-10
1978.5	-5.29296e-08
1987.06	5.08341e-08
1995.62	-6.66529e-08
2004.18	6.75224e-08
2012.73	3.44083e-07
2021.29	1.06046e-06
2029.85	1.98936e-06
2038.41	1.83537e-06
2046.97	6.58793e-07
2055.52	2.40432e-07
2064.08	1.49027e-07
2072.64	1.39416e-08
2081.2	3.1904e-08
2089.75	8.06718e-08
2098.31	2.79732e-07
2106.87	2.41341e-07
2115.43	4.90715e-07
2123.98	2.86147e-07
2132.54	3.98742e-07
2141.1	2.07379e-07
2149.66	4.28979e-08
2158.21	1.56636e-07
2166.77	1.74565e-07
2175.33	2.96485e-07
2183.89	5.91014e-07
2192.45	7.92472e-07
2201	1.15903e-06
2209.56	1.24991e-06
2218.12	1.67057e-06
2226.68	1.53001e-06
2235.23	1.44677e-06
2243.79	9.34827e-07
2252.35	7.10056e-07
2260.91	3.314e-07
2269.46	2.45425e-07
2278.02	1.77669e-07
2286.58	2.49002e-07
2295.14	1.14367e-07
2303.69	1.88977e-07
2312.25	3.24109e-07
2320.81	-3.08044e-09
2329.37	2.85258e-07
2337.93	-2.69518e-07
2346.48	1.12e-07
2355.04	1.99524e-07
2363.6	-4.65659e-09
2372.16	3.38635e-07
2380.71	8.69607e-07
2389.27	1.13069e-06
2397.83	5.79755e-07
2406.39	6.74191e-07
2414.94	6.49063e-07
2423.5	7.68799e-07
2432.06	5.16319e-07
2440.62	6.43621e-07
2449.17	4.26178e-07
2457.73	5.7679e-07
2466.29	5.84599e-07
2474.85	3.50841e-07
2483.41	2.51542e-07
2491.96	3.44415e-07
2500.52	5.54893e-07
2509.08	6.95791e-07
2517.64	7.32216e-07
2526.19	6.75777e-07
2534.75	5.12218e-07
2543.31	3.03412e-07
2551.87	2.13779e-07
2560.42	4.38756e-08
2568.98	-1.04717e-07
2577.54	-3.42914e-08
2586.1	1.4885e-07
2594.65	-1.04067e-07
2603.21	-9.3461e-08
2611.77	-2.17741e-07
2620.33	-1.55591e-07
2628.89	-1.71475e-08
2637.44	-9.90025e-08
2646	-1.02691e-08
2654.56	6.08403e-08
2663.12	-3.52273e-08
2671.67	3.23716e-07
2680.23	1.47392e-06
2688.79	1.47082e-06
2697.35	1.02171e-06
2705.9	2.09968e-07
2714.46	1.27427e-07
2723.02	5.35076e-07
2731.58	3.13035e-07
2740.13	6.47368e-07
2748.69	6.55082e-07
2757.25	2.1003e-06
2765.81	1.88261e-06
2774.37	1.19389e-06
2782.92	1.40156e-07
2791.48	6.29485e-08
2800.04	3.98811e-08
2808.6	-5.76544e-08
2817.15	4.95417e-08
2825.71	3.05057e-07
2834.27	6.6314e-07
2842.83	1.72776e-06
2851.38	3.60408e-06
2859.94	3.83418e-06
2868.5	4.73493e-06
2877.06	5.16548e-06
2885.61	1.26703e-05
2894.17	1.00086e-05
2902.73	1.05273e-05
2911.29	3.34104e-06
2919.85	2.14877e-06
2928.4	2.14534e-06
2936.96	4.76724e-06
2945.52	1.20855e-05
2954.08	2.584e-05
2962.63	2.53474e-05
2971.19	4.87361e-05
2979.75	5.37848e-05
2988.31	5.76854e-05
2996.86	3.75502e-05
3005.42	2.88627e-05
3013.98	2.4026e-05
3022.54	1.83726e-05
3031.09	1.33394e-05
3039.65	9.5464e-06
3048.21	8.12415e-06
3056.77	5.45589e-06
3065.33	3.11826e-06
3073.88	1.6914e-06
3082.44	9.51709e-07
3091	7.24709e-07
3099.56	5.1292e-07
3108.11	5.49226e-07
3116.67	5.24971e-07
3125.23	3.18414e-07
3133.79	-2.10829e-08
3142.34	3.55119e-08
3150.9	-2.17723e-08
3159.46	-7.05855e-09
3168.02	-7.64708e-08
3176.57	-2.10104e-07
3185.13	-2.29128e-08
3193.69	1.21478e-07
3202.25	2.32004e-07
3210.81	1.55654e-07
3219.36	1.36277e-07
3227.92	4.82775e-08
3236.48	-1.73114e-07
3245.04	4.69088e-08
3253.59	-4.94126e-09
3262.15	2.52728e-07
3270.71	7.09948e-08
3279.27	1.6466e-07
3287.82	2.90773e-08
3296.38	7.44245e-08
3304.94	-1.58479e-07
3313.5	3.5712e-08
3322.05	2.45e-07
3330.61	-1.13879e-07
3339.17	-8.40087e-08
3347.73	-9.52354e-08
3356.29	2.07828e-07
3364.84	-1.29529e-07
3373.4	-1.13938e-07
3381.96	-1.59533e-07
3390.52	9.92244e-08
3399.07	2.59338e-07
3407.63	1.70015e-07
3416.19	1.19301e-07
3424.75	-2.84943e-09
3433.3	-9.8666e-08
3441.86	-1.35836e-07
3450.42	-1.45643e-07
3458.98	4.43013e-09
3467.53	1.78919e-07
3476.09	-8.26363e-09
3484.65	-1.73354e-07
3493.21	1.77487e-08
3501.77	-2.27933e-07
3510.32	-2.8281e-07
3518.88	-1.00637e-07
3527.44	1.19342e-07
3536	-2.78868e-08
3544.55	-4.52289e-08
3553.11	-1.20931e-07
3561.67	2.28973e-08
3570.23	-2.37737e-07
3578.78	-1.44527e-07
3587.34	-1.20248e-07
3595.9	1.26162e-07
3604.46	-1.37306e-07
3613.01	-1.97723e-08
3621.57	1.23627e-07
3630.13	2.50637e-07
3638.69	2.7446e-07
3647.25	-1.31461e-07
3655.8	2.18439e-07
3664.36	3.65861e-07
3672.92	4.31606e-07
3681.48	3.28975e-07
3690.03	2.55121e-07
3698.59	4.00746e-07
3707.15	2.24943e-07
3715.71	2.47974e-07
3724.26	2.66773e-07
3732.82	4.92127e-07
3741.38	6.38337e-07
3749.94	1.0943e-06
3758.49	1.44478e-06
3767.05	9.67193e-07
3775.61	1.2927e-06
3784.17	1.02889e-06
3792.73	9.88595e-07
3801.28	-3.67236e-07
3809.84	6.02664e-07
3818.4	5.91831e-07
3826.96	5.01932e-07
3835.51	1.94284e-07
3844.07	2.39523e-07
3852.63	-1.47492e-08
3861.19	1.28434e-07
3869.74	2.49346e-08
3878.3	-2.19014e-08
3886.86	2.24785e-07
3895.42	2.62999e-07
3903.97	-2.3256e-07
3912.53	-1.49751e-07
3921.09	1.58679e-08
3929.65	-1.16333e-08
3938.21	3.74628e-08
3946.76	1.74583e-07
3955.32	4.16277e-07
3963.88	3.74842e-07
3972.44	5.72906e-07
