Infrared Spectrum: 1,2-Dichloroethane
Formula: Cl C H2 C H2 Cl
CAS: 107-06-2
State: gas
Melting point: -35.36 C
Boiling point: 83.47 C
Class: IUPAC A
Instrument: IFS66V (Bruker)
Instrument parameters: KBr Beam Splitter; MCT Detector; Multipass cell
Sampling: 1 L/min Flow
Resolution: 0.1250
Temperature: 23 C
Pressure: 101.3 Pa
Origin: NIST, Analytical Chemistry Division, 301-975-3108
cm-1	(micromol/mol)-1m-1 (base 10)
575.05	1.73937e-06
583.608	2.48263e-07
592.165	7.77762e-07
600.723	-2.38294e-07
609.281	-2.35285e-07
617.838	-2.23223e-07
626.396	-3.11321e-07
634.954	1.68539e-07
643.511	2.81067e-06
652.069	7.31451e-06
660.626	1.45961e-05
669.184	1.40754e-05
677.742	2.45946e-05
686.299	4.05665e-05
694.857	2.99969e-05
703.415	3.89377e-05
711.972	0.000134296
720.53	0.000494636
729.088	0.000517511
737.645	0.00022185
746.203	6.71596e-06
754.761	6.82651e-06
763.318	6.62273e-06
771.876	9.53449e-06
780.434	5.048e-06
788.991	4.16937e-06
797.549	3.3342e-06
806.106	1.57146e-06
814.664	1.57276e-06
823.222	1.71396e-06
831.779	2.23911e-06
840.337	1.25232e-06
848.895	5.77954e-07
857.452	8.74554e-07
866.01	1.32563e-06
874.568	5.00295e-06
883.125	2.12547e-05
891.683	1.73786e-05
900.241	1.61327e-05
908.798	3.0599e-06
917.356	1.67081e-06
925.914	3.04949e-06
934.471	6.92928e-06
943.029	9.195e-06
951.586	9.53553e-06
960.144	6.2994e-06
968.702	2.75125e-06
977.259	1.96356e-06
985.817	3.09131e-06
994.375	3.57824e-06
1002.93	1.70807e-06
1011.49	2.11126e-06
1020.05	3.74492e-06
1028.61	4.64074e-06
1037.16	2.63844e-06
1045.72	1.1178e-06
1054.28	4.50243e-07
1062.84	-7.14122e-08
1071.39	1.52957e-07
1079.95	3.32794e-07
1088.51	4.81593e-07
1097.07	1.17875e-06
1105.62	1.94856e-06
1114.18	2.68322e-06
1122.74	5.15509e-06
1131.3	2.30786e-06
1139.85	3.38363e-06
1148.41	2.40283e-06
1156.97	1.96757e-06
1165.53	1.19024e-06
1174.09	8.56583e-07
1182.64	1.14695e-06
1191.2	1.84167e-06
1199.76	4.30306e-06
1208.32	6.30122e-06
1216.87	1.63685e-05
1225.43	0.00014152
1233.99	0.000125792
1242.55	8.93539e-05
1251.1	1.30237e-05
1259.66	6.2343e-06
1268.22	4.59258e-06
1276.78	1.07639e-05
1285.33	4.40041e-05
1293.89	2.14488e-05
1302.45	3.18436e-05
1311.01	1.12292e-05
1319.57	1.32051e-05
1328.12	8.04571e-06
1336.68	4.66266e-06
1345.24	3.29337e-06
1353.8	2.71931e-06
1362.35	2.42667e-06
1370.91	1.89796e-06
1379.47	1.19743e-06
1388.03	7.91284e-07
1396.58	7.51049e-07
1405.14	1.10068e-06
1413.7	2.96454e-06
1422.26	7.44926e-06
1430.81	1.66939e-05
1439.37	2.07216e-05
1447.93	2.46525e-05
1456.49	3.01392e-05
1465.05	3.29663e-05
1473.6	1.46698e-05
1482.16	9.84065e-06
1490.72	5.22815e-06
1499.28	2.73487e-06
1507.83	9.99839e-07
1516.39	1.23906e-06
1524.95	2.12405e-06
1533.51	2.46643e-06
1542.06	2.67986e-07
1550.62	5.5732e-07
1559.18	3.99184e-08
1567.74	1.99372e-07
1576.29	-1.10057e-06
1584.85	2.92969e-07
1593.41	9.69926e-08
1601.97	-1.86361e-07
1610.53	2.80205e-08
1619.08	-6.63418e-08
1627.64	-2.51572e-07
1636.2	-1.853e-07
1644.76	-8.73329e-08
1653.31	-2.28661e-06
1661.87	-2.13666e-08
1670.43	1.74685e-07
1678.99	3.21805e-07
1687.54	1.77952e-07
1696.1	-6.31302e-07
1704.66	-7.17779e-08
1713.22	1.61335e-07
1721.77	2.42852e-07
1730.33	2.63052e-08
1738.89	-6.79844e-09
1747.45	6.31204e-08
1756.01	3.08126e-08
1764.56	9.58175e-08
1773.12	-1.52676e-08
1781.68	4.63149e-08
1790.24	3.84878e-08
1798.79	-5.2895e-08
1807.35	-1.07803e-07
1815.91	1.20544e-08
1824.47	3.103e-08
1833.02	-2.16077e-08
1841.58	1.06201e-08
1850.14	5.98399e-08
1858.7	9.93809e-08
1867.25	-4.47551e-08
1875.81	1.97496e-08
1884.37	-2.93283e-08
1892.93	2.12464e-07
1901.49	1.6073e-07
1910.04	-3.02014e-08
1918.6	5.50842e-08
1927.16	-2.01334e-08
1935.72	-8.63424e-08
1944.27	-8.14294e-08
1952.83	-6.48494e-08
1961.39	-7.13222e-09
1969.95	-4.05905e-08
1978.5	-9.31227e-08
1987.06	3.14402e-08
1995.62	-7.45318e-08
2004.18	1.33535e-07
2012.73	3.77864e-07
2021.29	1.15388e-06
2029.85	1.92309e-06
2038.41	1.92854e-06
2046.97	6.89309e-07
2055.52	2.60937e-07
2064.08	1.40078e-07
2072.64	1.57342e-09
2081.2	2.78368e-08
2089.75	3.54892e-08
2098.31	3.49807e-07
2106.87	2.21049e-07
2115.43	4.45756e-07
2123.98	1.879e-07
2132.54	5.03996e-07
2141.1	2.41732e-07
2149.66	8.28163e-08
2158.21	2.0208e-07
2166.77	1.31269e-07
2175.33	2.30459e-07
2183.89	5.49635e-07
2192.45	7.59702e-07
2201	1.18496e-06
2209.56	1.13137e-06
2218.12	1.59865e-06
2226.68	1.62745e-06
2235.23	1.48975e-06
2243.79	9.11193e-07
2252.35	7.03075e-07
2260.91	3.57692e-07
2269.46	1.93589e-07
2278.02	1.19055e-07
2286.58	2.3327e-07
2295.14	7.00971e-08
2303.69	1.14037e-07
2312.25	2.86516e-07
2320.81	-8.28327e-08
2329.37	2.99493e-07
2337.93	-1.53161e-07
2346.48	1.10772e-07
2355.04	2.64384e-07
2363.6	-9.11209e-08
2372.16	3.17034e-07
2380.71	8.10539e-07
2389.27	1.22444e-06
2397.83	5.61894e-07
2406.39	6.17346e-07
2414.94	6.28941e-07
2423.5	7.88732e-07
2432.06	4.42606e-07
2440.62	6.50067e-07
2449.17	4.0549e-07
2457.73	6.14069e-07
2466.29	5.14446e-07
2474.85	3.11013e-07
2483.41	2.30494e-07
2491.96	2.88363e-07
2500.52	6.10411e-07
2509.08	7.18145e-07
2517.64	6.35093e-07
2526.19	6.10989e-07
2534.75	5.41014e-07
2543.31	2.98919e-07
2551.87	1.65329e-07
2560.42	4.13909e-08
2568.98	-1.35721e-07
2577.54	-9.6908e-08
2586.1	1.46309e-07
2594.65	-9.55756e-08
2603.21	-2.36877e-08
2611.77	-2.76532e-07
2620.33	-1.18378e-07
2628.89	1.0498e-07
2637.44	-1.08308e-07
2646	-3.2296e-08
2654.56	7.01053e-08
2663.12	2.6036e-08
2671.67	3.11049e-07
2680.23	1.49246e-06
2688.79	1.4571e-06
2697.35	1.01751e-06
2705.9	1.38147e-07
2714.46	1.15721e-07
2723.02	5.06622e-07
2731.58	2.87267e-07
2740.13	7.32082e-07
2748.69	6.76605e-07
2757.25	2.05721e-06
2765.81	1.84958e-06
2774.37	1.1899e-06
2782.92	1.8747e-07
2791.48	1.16004e-07
2800.04	1.19999e-07
2808.6	-8.49145e-08
2817.15	-1.56479e-07
2825.71	2.96505e-07
2834.27	5.63664e-07
2842.83	1.71074e-06
2851.38	3.72037e-06
2859.94	3.93876e-06
2868.5	4.74575e-06
2877.06	5.17994e-06
2885.61	1.2604e-05
2894.17	1.00521e-05
2902.73	1.06596e-05
2911.29	3.30759e-06
2919.85	2.11381e-06
2928.4	2.22433e-06
2936.96	4.66435e-06
2945.52	1.20261e-05
2954.08	2.5525e-05
2962.63	2.53101e-05
2971.19	4.8443e-05
2979.75	5.35549e-05
2988.31	5.75308e-05
2996.86	3.75186e-05
3005.42	2.89345e-05
3013.98	2.40586e-05
3022.54	1.83891e-05
3031.09	1.33075e-05
3039.65	9.43469e-06
3048.21	8.23787e-06
3056.77	5.37717e-06
3065.33	3.12557e-06
3073.88	1.62675e-06
3082.44	1.01909e-06
3091	6.89007e-07
3099.56	4.22454e-07
3108.11	5.09864e-07
3116.67	5.46606e-07
3125.23	3.91023e-07
3133.79	-3.80994e-08
3142.34	-6.2944e-08
3150.9	-1.94443e-07
3159.46	8.83415e-08
3168.02	-1.03663e-07
3176.57	-2.72457e-07
3185.13	-1.65078e-07
3193.69	1.83096e-07
3202.25	3.87552e-07
3210.81	8.85407e-08
3219.36	7.42535e-08
3227.92	1.53325e-07
3236.48	-1.32967e-07
3245.04	1.10863e-07
3253.59	4.57091e-08
3262.15	1.57414e-07
3270.71	1.392e-07
3279.27	1.27756e-08
3287.82	1.27231e-07
3296.38	-4.45186e-08
3304.94	2.31793e-08
3313.5	1.23003e-07
3322.05	3.32214e-07
3330.61	-7.59661e-08
3339.17	-2.37278e-07
3347.73	-1.664e-07
3356.29	3.53674e-07
3364.84	4.2063e-08
3373.4	-1.53611e-07
3381.96	-9.9179e-08
3390.52	9.87515e-08
3399.07	2.2871e-07
3407.63	2.19372e-07
3416.19	2.80478e-08
3424.75	4.83394e-09
3433.3	-1.96222e-08
3441.86	-1.66305e-07
3450.42	-1.52047e-07
3458.98	1.25889e-07
3467.53	1.36392e-07
3476.09	6.40436e-08
3484.65	-5.57881e-08
3493.21	1.13725e-07
3501.77	-3.79908e-07
3510.32	-1.97521e-07
3518.88	6.39308e-08
3527.44	2.00846e-07
3536	-1.29917e-07
3544.55	3.69653e-08
3553.11	-8.39578e-08
3561.67	1.20727e-07
3570.23	-2.54325e-07
3578.78	-1.31989e-07
3587.34	-2.56324e-07
3595.9	1.50869e-07
3604.46	-7.1164e-08
3613.01	2.46381e-09
3621.57	9.46433e-08
3630.13	1.77803e-07
3638.69	3.02128e-07
3647.25	-3.45943e-07
3655.8	3.05804e-07
3664.36	3.06039e-07
3672.92	5.59323e-07
3681.48	3.55087e-07
3690.03	3.12605e-07
3698.59	4.55176e-07
3707.15	1.55489e-07
3715.71	1.15619e-07
3724.26	1.68591e-07
3732.82	4.73457e-07
3741.38	7.04554e-07
3749.94	1.10082e-06
3758.49	1.54744e-06
3767.05	9.01489e-07
3775.61	1.42235e-06
3784.17	9.87148e-07
3792.73	1.01706e-06
3801.28	-1.99859e-07
3809.84	5.94153e-07
3818.4	6.20605e-07
3826.96	6.71475e-07
3835.51	2.63833e-07
3844.07	2.00889e-07
3852.63	-1.93377e-07
3861.19	2.20952e-07
3869.74	-1.60734e-08
3878.3	-1.21619e-07
3886.86	3.72352e-07
3895.42	3.71282e-07
3903.97	-1.84593e-07
3912.53	-1.74868e-07
3921.09	3.87825e-08
3929.65	7.23381e-08
3938.21	-1.67912e-07
3946.76	2.23414e-07
3955.32	4.13536e-07
3963.88	3.74571e-07
3972.44	6.16122e-07
