Infrared Spectrum: Nitrile-Propenoic Acid
Formula: C H2: C H C N
CAS: 107-13-1
State: gas
Melting point: -83.5 C
Boiling point: 77.5 C
Class: IUPAC A
Instrument: IFS66V (Bruker)
Instrument parameters: KBr Beam splitter; MCT Detector; Multipass cell
Sampling: 1 L/min Flow
Resolution: 0.4820
Temperature: 23 C
Pressure: 101.3 kPa
Origin: NIST, Anayltical Chemistry Division, 301-975-3108
cm-1	(micromol/mol)-1m-1 (base 10)
574.928	5.83304e-08
583.606	4.15886e-07
592.284	5.4737e-07
600.962	4.18671e-07
609.641	6.63925e-07
618.319	1.19331e-06
626.997	2.4956e-06
635.675	4.85353e-06
644.353	9.2863e-06
653.031	1.95952e-05
661.71	1.73532e-05
670.388	1.74434e-05
679.066	3.34217e-05
687.744	1.85082e-05
696.422	1.63466e-05
705.1	2.10672e-05
713.778	1.14387e-05
722.457	1.29569e-05
731.135	5.81264e-06
739.813	4.73872e-06
748.491	2.23795e-06
757.169	1.49912e-06
765.847	1.87726e-06
774.526	4.5454e-06
783.204	3.82976e-06
791.882	3.80679e-06
800.56	2.93496e-06
809.238	5.9548e-07
817.916	2.2051e-07
826.594	1.46268e-07
835.273	1.72449e-07
843.951	9.80016e-07
852.629	4.74777e-06
861.307	8.46205e-06
869.985	4.26582e-06
878.663	8.7443e-06
887.342	6.83936e-06
896.02	1.04335e-05
904.698	1.65397e-05
913.376	2.64745e-05
922.054	4.58738e-05
930.732	9.00174e-05
939.41	6.98525e-05
948.089	0.000141712
956.767	0.00010059
965.445	8.76251e-05
974.123	9.265e-05
982.801	8.73234e-05
991.479	7.66104e-05
1000.16	6.11109e-05
1008.84	4.41526e-05
1017.51	2.32435e-05
1026.19	1.2628e-05
1034.87	5.45723e-06
1043.55	2.18873e-06
1052.23	1.43322e-06
1060.9	1.25726e-06
1069.58	1.86885e-06
1078.26	7.92552e-06
1086.94	1.24975e-05
1095.62	9.10113e-06
1104.3	8.29293e-06
1112.97	3.30088e-06
1121.65	5.38788e-07
1130.33	3.54519e-07
1139.01	1.8708e-07
1147.69	1.4762e-07
1156.36	1.543e-07
1165.04	2.23889e-07
1173.72	2.09958e-07
1182.4	2.08586e-07
1191.08	3.54819e-07
1199.76	2.84578e-07
1208.43	5.20007e-07
1217.11	2.34992e-07
1225.79	2.68272e-07
1234.47	2.12e-07
1243.15	1.44331e-07
1251.82	2.26519e-07
1260.5	7.2182e-07
1269.18	2.39823e-06
1277.86	2.10828e-06
1286.54	3.14839e-06
1295.21	3.17773e-06
1303.89	1.72326e-06
1312.57	2.62995e-06
1321.25	2.2811e-06
1329.93	2.51591e-06
1338.61	3.44099e-06
1347.28	2.96098e-06
1355.96	3.30253e-06
1364.64	3.32426e-06
1373.32	4.73496e-06
1382	5.05503e-06
1390.67	6.80669e-06
1399.35	1.65977e-05
1408.03	2.20995e-05
1416.71	1.23526e-05
1425.39	2.26199e-05
1434.07	1.11701e-05
1442.74	9.51891e-06
1451.42	4.57945e-06
1460.1	2.59223e-06
1468.78	1.55538e-06
1477.46	6.60754e-07
1486.13	4.39696e-07
1494.81	2.51082e-07
1503.49	1.75323e-07
1512.17	1.00054e-06
1520.85	9.96057e-07
1529.52	1.81552e-07
1538.2	7.79378e-07
1546.88	3.32671e-07
1555.56	5.62054e-07
1564.24	7.77261e-07
1572.92	1.12786e-06
1581.59	1.65145e-06
1590.27	3.12621e-06
1598.95	1.08172e-05
1607.63	1.35314e-05
1616.31	6.76771e-06
1624.98	1.67006e-05
1633.66	9.349e-06
1642.34	9.51304e-06
1651.02	5.21771e-06
1659.7	7.67667e-06
1668.38	5.42497e-06
1677.05	2.04401e-06
1685.73	1.54809e-06
1694.41	1.14202e-06
1703.09	5.41747e-07
1711.77	2.80076e-07
1720.44	2.27596e-07
1729.12	2.01637e-07
1737.8	2.64571e-07
1746.48	3.22495e-07
1755.16	1.84144e-07
1763.84	6.77208e-08
1772.51	1.96279e-06
1781.19	7.58788e-08
1789.87	1.10014e-07
1798.55	3.14571e-08
1807.23	2.2626e-08
1815.9	5.90957e-08
1824.58	4.14809e-07
1833.26	7.4149e-07
1841.94	6.02806e-07
1850.62	9.47542e-07
1859.29	7.15994e-07
1867.97	1.38421e-06
1876.65	1.85396e-06
1885.33	5.51414e-06
1894.01	1.43113e-05
1902.69	1.51462e-05
1911.36	1.40248e-05
1920.04	1.63054e-05
1928.72	7.49906e-06
1937.4	2.96707e-06
1946.08	3.57758e-06
1954.75	1.64197e-06
1963.43	1.15308e-06
1972.11	6.57846e-07
1980.79	4.72056e-07
1989.47	2.83731e-07
1998.15	2.10556e-07
2006.82	9.85872e-08
2015.5	4.04741e-08
2024.18	8.9602e-08
2032.86	7.1431e-08
2041.54	7.37329e-08
2050.21	1.13468e-07
2058.89	8.19619e-08
2067.57	1.12848e-07
2076.25	8.59422e-08
2084.93	5.6631e-08
2093.6	8.81477e-08
2102.28	5.29677e-08
2110.96	4.53821e-08
2119.64	2.15533e-08
2128.32	4.44781e-09
2137	1.10693e-08
2145.67	2.90347e-08
2154.35	5.89011e-08
2163.03	7.46551e-08
2171.71	5.78206e-08
2180.39	8.06131e-08
2189.06	9.72011e-08
2197.74	7.69638e-08
2206.42	1.92879e-07
2215.1	6.08994e-07
2223.78	1.81918e-06
2232.46	2.30515e-06
2241.13	2.5567e-06
2249.81	2.72067e-06
2258.49	8.31102e-07
2267.17	9.52257e-07
2275.85	1.10807e-06
2284.52	9.70347e-07
2293.2	1.45409e-06
2301.88	4.76547e-07
2310.56	4.84469e-07
2319.24	2.76218e-07
2327.92	1.55764e-07
2336.59	1.48788e-07
2345.27	1.68195e-07
2353.95	2.67032e-07
2362.63	5.57368e-07
2371.31	5.20076e-07
2379.98	7.06125e-07
2388.66	6.18872e-07
2397.34	5.52316e-07
2406.02	3.65262e-07
2414.7	2.31218e-07
2423.37	2.25051e-07
2432.05	2.43264e-07
2440.73	3.07747e-07
2449.41	6.06815e-07
2458.09	5.79864e-07
2466.77	5.24677e-07
2475.44	7.9443e-07
2484.12	6.36135e-07
2492.8	4.47305e-07
2501.48	2.82841e-07
2510.16	2.21484e-07
2518.83	2.12177e-07
2527.51	2.12681e-07
2536.19	2.38326e-07
2544.87	3.23008e-07
2553.55	4.42335e-07
2562.23	4.56417e-07
2570.9	3.39173e-07
2579.58	2.25422e-07
2588.26	1.66977e-07
2596.94	1.49871e-07
2605.62	7.49748e-08
2614.29	7.43591e-08
2622.97	3.06495e-10
2631.65	8.72782e-09
2640.33	-1.71455e-08
2649.01	-2.89156e-08
2657.68	2.91452e-08
2666.36	-7.38634e-09
2675.04	1.16707e-07
2683.72	2.18431e-07
2692.4	4.79524e-07
2701.08	7.09124e-07
2709.75	5.49775e-07
2718.43	5.96591e-07
2727.11	2.44762e-07
2735.79	1.64828e-07
2744.47	1.15441e-07
2753.14	2.5596e-08
2761.82	5.24424e-08
2770.5	1.43888e-07
2779.18	1.89532e-07
2787.86	1.32222e-07
2796.54	1.26359e-07
2805.21	2.60305e-07
2813.89	2.34414e-08
2822.57	6.58077e-08
2831.25	5.70426e-09
2839.93	-1.08987e-07
2848.6	-1.72519e-07
2857.28	-9.42917e-08
2865.96	-1.67658e-08
2874.64	6.93065e-08
2883.32	1.15777e-07
2892	3.21933e-07
2900.67	3.31249e-07
2909.35	2.59473e-07
2918.03	2.08399e-07
2926.71	5.22405e-09
2935.39	8.89094e-08
2944.06	2.35246e-08
2952.74	5.22751e-08
2961.42	1.72042e-08
2970.1	1.10466e-07
2978.78	1.18037e-07
2987.45	4.1726e-07
2996.13	2.34946e-07
3004.81	5.15399e-07
3013.49	5.75123e-07
3022.17	2.12103e-06
3030.85	6.03386e-06
3039.52	5.55898e-06
3048.2	6.2443e-06
3056.88	6.63877e-06
3065.56	2.15323e-06
3074.24	1.14684e-06
3082.91	1.08313e-06
3091.59	1.97017e-06
3100.27	2.60322e-06
3108.95	6.31475e-06
3117.63	8.96147e-06
3126.31	3.62943e-06
3134.98	1.02963e-05
3143.66	4.45627e-06
3152.34	2.28455e-06
3161.02	1.1617e-06
3169.7	5.32563e-07
3178.37	3.77952e-07
3187.05	1.0648e-07
3195.73	1.90672e-09
3204.41	-1.12021e-07
3213.09	-1.46499e-07
3221.77	-7.27548e-08
3230.44	-5.68725e-08
3239.12	-1.29213e-07
3247.8	-1.81512e-07
3256.48	-9.72234e-08
3265.16	-8.26304e-08
3273.83	-1.04007e-07
3282.51	-1.51508e-07
3291.19	-1.14659e-07
3299.87	-8.53047e-09
3308.55	9.19257e-08
3317.22	1.97324e-07
3325.9	2.30651e-07
3334.58	2.68701e-07
3343.26	4.86058e-07
3351.94	1.86786e-07
3360.62	1.53876e-07
3369.29	-2.5691e-08
3377.97	9.92379e-09
3386.65	-3.47503e-08
3395.33	-1.03331e-08
3404.01	-3.40805e-08
3412.68	-3.84974e-08
3421.36	-1.55021e-08
3430.04	-3.45589e-08
3438.72	4.66518e-08
3447.4	3.66989e-08
3456.08	5.42478e-08
3464.75	-5.3055e-08
3473.43	-4.28829e-08
3482.11	3.21169e-08
3490.79	1.91459e-08
3499.47	1.26893e-07
3508.14	8.50737e-08
3516.82	2.34473e-07
3525.5	2.41265e-07
3534.18	1.50643e-07
3542.86	1.42287e-07
3551.53	7.88533e-08
3560.21	2.05045e-07
3568.89	1.32455e-07
3577.57	9.07797e-09
3586.25	3.8011e-07
3594.93	1.28801e-07
3603.6	6.11375e-08
3612.28	6.57071e-07
3620.96	3.14072e-07
3629.64	2.80599e-06
3638.32	3.93209e-07
3646.99	9.68481e-07
3655.67	6.89857e-07
3664.35	3.00752e-07
3673.03	3.35129e-07
3681.71	1.40488e-07
3690.39	3.41764e-07
3699.06	7.06416e-08
3707.74	5.98438e-09
3716.42	2.28284e-08
3725.1	3.35953e-07
3733.78	9.33654e-08
3742.45	8.5819e-08
3751.13	2.97206e-07
3759.81	9.18894e-07
3768.49	5.96046e-08
3777.17	-3.98052e-08
3785.85	-1.67453e-08
3794.52	-4.01676e-08
3803.2	2.32095e-07
3811.88	-1.90704e-08
3820.56	1.2029e-06
3829.24	1.57035e-07
3837.91	4.77886e-06
3846.59	3.57903e-07
3855.27	6.23868e-07
3863.95	3.85022e-07
3872.63	7.8977e-08
3881.3	3.27728e-07
3889.98	8.20074e-08
3898.66	3.22932e-07
3907.34	2.42385e-07
3916.02	2.94276e-07
3924.7	3.02811e-07
3933.37	1.71814e-07
3942.05	6.58241e-08
3950.73	8.83764e-08
3959.41	1.39891e-07
3968.09	2.21817e-07
