Infrared Spectrum: 1,2-Dichloroethane
Formula: Cl C H2 C H2 Cl
CAS: 107-06-2
State: gas
Melting point: -35.36 C
Boiling point: 83.47 C
Class: IUPAC A
Instrument: IFS66V (Bruker)
Instrument parameters: KBr Beam Splitter; MCT Detector; Multipass cell
Sampling: 1 L/min Flow
Resolution: 0.9640
Temperature: 23 C
Pressure: 101.3 Pa
Origin: NIST, Analytical Chemistry Division, 301-975-3108
cm-1	(micromol/mol)-1m-1 (base 10)
575.17	1.72758e-07
583.848	7.41065e-07
592.526	7.02773e-07
601.205	-8.82751e-08
609.883	-3.4632e-07
618.561	1.30804e-07
627.239	5.34776e-07
635.917	8.89891e-07
644.595	3.41889e-06
653.274	8.51827e-06
661.952	1.54835e-05
670.63	1.58744e-05
679.308	2.64267e-05
687.986	3.98774e-05
696.664	3.21869e-05
705.343	4.3281e-05
714.021	0.000202393
722.699	0.000541931
731.377	0.000576225
740.055	6.52322e-05
748.734	7.81392e-06
757.412	7.71433e-06
766.09	8.00403e-06
774.768	6.45052e-06
783.446	4.87456e-06
792.124	3.97357e-06
800.803	2.69147e-06
809.481	1.8721e-06
818.159	1.70384e-06
826.837	2.11765e-06
835.515	1.95544e-06
844.194	1.25806e-06
852.872	6.90067e-07
861.55	9.62634e-07
870.228	2.48922e-06
878.906	1.25005e-05
887.584	1.98863e-05
896.263	2.12901e-05
904.941	6.61511e-06
913.619	2.14457e-06
922.297	2.3162e-06
930.975	5.16759e-06
939.653	9.08615e-06
948.332	7.65669e-06
957.01	8.45335e-06
965.688	3.64613e-06
974.366	1.82967e-06
983.044	2.64869e-06
991.723	3.26349e-06
1000.4	2.15117e-06
1009.08	1.75122e-06
1017.76	3.34312e-06
1026.44	4.70232e-06
1035.11	3.1697e-06
1043.79	1.16949e-06
1052.47	4.78776e-07
1061.15	1.57691e-07
1069.83	1.37865e-07
1078.5	3.13772e-07
1087.18	5.38644e-07
1095.86	1.11359e-06
1104.54	1.8329e-06
1113.22	2.28842e-06
1121.9	4.02742e-06
1130.57	3.29377e-06
1139.25	3.01389e-06
1147.93	2.4895e-06
1156.61	1.97694e-06
1165.29	1.30287e-06
1173.96	8.97045e-07
1182.64	1.04909e-06
1191.32	1.95823e-06
1200	3.9357e-06
1208.68	7.19296e-06
1217.36	1.97686e-05
1226.03	0.000149643
1234.71	0.000141635
1243.39	7.1222e-05
1252.07	1.03799e-05
1260.75	6.62995e-06
1269.42	5.07644e-06
1278.1	1.52056e-05
1286.78	4.23971e-05
1295.46	3.52039e-05
1304.14	2.4065e-05
1312.82	9.77822e-06
1321.49	1.15014e-05
1330.17	7.14327e-06
1338.85	4.13947e-06
1347.53	3.05826e-06
1356.21	2.98655e-06
1364.88	2.29269e-06
1373.56	1.28017e-06
1382.24	1.16148e-06
1390.92	9.43217e-07
1399.6	8.91085e-07
1408.28	1.78971e-06
1416.95	4.02384e-06
1425.63	1.11746e-05
1434.31	1.81881e-05
1442.99	2.58614e-05
1451.67	3.04445e-05
1460.34	1.90725e-05
1469.02	2.27804e-05
1477.7	1.24115e-05
1486.38	7.73233e-06
1495.06	4.01842e-06
1503.73	1.77896e-06
1512.41	8.67251e-07
1521.09	1.65416e-06
1529.77	2.74029e-06
1538.45	1.42391e-06
1547.13	7.19674e-07
1555.8	2.05584e-07
1564.48	1.78159e-07
1573.16	2.44868e-07
1581.84	2.11094e-07
1590.52	8.36776e-08
1599.19	2.7392e-08
1607.87	1.71593e-08
1616.55	-6.81759e-07
1625.23	2.25099e-09
1633.91	-8.91509e-08
1642.59	-1.35455e-07
1651.26	-1.52806e-07
1659.94	-2.10492e-08
1668.62	-1.92284e-08
1677.3	1.95841e-07
1685.98	1.70649e-07
1694.65	9.75255e-08
1703.33	8.94065e-08
1712.01	1.92191e-07
1720.69	1.51206e-07
1729.37	9.19176e-08
1738.05	-2.09183e-09
1746.72	-3.73755e-08
1755.4	5.75271e-08
1764.08	5.48504e-08
1772.76	-3.93718e-07
1781.44	8.59395e-08
1790.11	8.13411e-08
1798.79	-2.61315e-08
1807.47	-7.21171e-08
1816.15	2.60423e-08
1824.83	-9.22368e-08
1833.51	-1.15724e-08
1842.18	-6.00263e-10
1850.86	7.76213e-08
1859.54	3.52327e-08
1868.22	-5.40992e-08
1876.9	8.08255e-08
1885.57	9.2215e-08
1894.25	4.25387e-08
1902.93	5.44193e-08
1911.61	-2.00424e-08
1920.29	-7.46146e-09
1928.97	-2.03135e-08
1937.64	-5.10651e-08
1946.32	-5.21301e-08
1955	-4.10598e-08
1963.68	-2.08428e-08
1972.36	-1.05765e-08
1981.03	3.4527e-08
1989.71	3.09127e-08
1998.39	-5.76617e-09
2007.07	1.44325e-07
2015.75	3.99212e-07
2024.43	1.44758e-06
2033.1	2.02614e-06
2041.78	1.44806e-06
2050.46	3.33051e-07
2059.14	1.33756e-07
2067.82	8.00351e-08
2076.49	5.71387e-08
2085.17	7.35423e-08
2093.85	1.54297e-07
2102.53	3.13681e-07
2111.21	3.39986e-07
2119.89	3.06598e-07
2128.56	2.07817e-07
2137.24	1.90542e-07
2145.92	1.72098e-07
2154.6	8.69745e-08
2163.28	9.98065e-08
2171.95	3.066e-07
2180.63	4.62417e-07
2189.31	8.23698e-07
2197.99	9.65311e-07
2206.67	1.27325e-06
2215.35	1.59929e-06
2224.02	1.50242e-06
2232.7	1.4676e-06
2241.38	1.10511e-06
2250.06	6.85554e-07
2258.74	4.03621e-07
2267.41	2.45562e-07
2276.09	1.68334e-07
2284.77	1.91783e-07
2293.45	1.90437e-07
2302.13	1.59152e-07
2310.81	8.54511e-08
2319.48	1.24391e-08
2328.16	-1.11522e-08
2336.84	9.03824e-08
2345.52	-1.71273e-07
2354.2	-5.65772e-07
2362.87	-1.18303e-06
2371.55	-2.04442e-07
2380.23	9.71898e-07
2388.91	1.0824e-06
2397.59	6.60097e-07
2406.27	5.96896e-07
2414.94	5.89824e-07
2423.62	7.55487e-07
2432.3	5.99686e-07
2440.98	6.09009e-07
2449.66	4.83331e-07
2458.33	7.1318e-07
2467.01	5.71921e-07
2475.69	3.84349e-07
2484.37	2.45241e-07
2493.05	3.58016e-07
2501.73	4.52178e-07
2510.4	6.48148e-07
2519.08	7.93929e-07
2527.76	5.76189e-07
2536.44	5.1495e-07
2545.12	3.6147e-07
2553.79	2.42231e-07
2562.47	-3.50417e-08
2571.15	3.84441e-09
2579.83	-8.74775e-08
2588.51	-6.03483e-08
2597.19	-1.26606e-07
2605.86	-1.44616e-07
2614.54	-1.245e-07
2623.22	-8.78977e-08
2631.9	-7.87255e-09
2640.58	5.13571e-08
2649.25	5.8844e-10
2657.93	-3.49717e-08
2666.61	1.10473e-07
2675.29	5.62116e-07
2683.97	1.76969e-06
2692.65	1.75819e-06
2701.32	3.86985e-07
2710	2.0294e-07
2718.68	3.34734e-07
2727.36	4.28613e-07
2736.04	5.99353e-07
2744.71	4.39288e-07
2753.39	1.1553e-06
2762.07	2.30453e-06
2770.75	2.39872e-06
2779.43	2.30717e-07
2788.11	1.2157e-07
2796.78	2.83206e-08
2805.46	-7.25373e-08
2814.14	6.69221e-08
2822.82	1.38239e-07
2831.5	5.07709e-07
2840.17	1.36539e-06
2848.85	2.98417e-06
2857.53	3.58612e-06
2866.21	4.57099e-06
2874.89	4.91051e-06
2883.57	9.11586e-06
2892.24	1.13429e-05
2900.92	1.31317e-05
2909.6	3.74834e-06
2918.28	2.53616e-06
2926.96	2.11094e-06
2935.63	4.23317e-06
2944.31	1.09199e-05
2952.99	2.42073e-05
2961.67	2.84971e-05
2970.35	4.47583e-05
2979.03	5.72381e-05
2987.7	5.85893e-05
2996.38	3.6483e-05
3005.06	2.87947e-05
3013.74	2.47363e-05
3022.42	1.82402e-05
3031.09	1.36962e-05
3039.77	9.73478e-06
3048.45	8.00649e-06
3057.13	5.41972e-06
3065.81	2.98814e-06
3074.49	1.71109e-06
3083.16	9.95184e-07
3091.84	6.73298e-07
3100.52	6.35228e-07
3109.2	5.37202e-07
3117.88	4.54782e-07
3126.55	3.51391e-07
3135.23	6.61236e-08
3143.91	9.99111e-08
3152.59	1.00757e-07
3161.27	-2.7573e-08
3169.95	-6.05347e-08
3178.62	-6.15152e-08
3187.3	1.45899e-07
3195.98	2.86948e-07
3204.66	1.72008e-07
3213.34	7.54749e-08
3222.01	8.66307e-08
3230.69	1.5439e-07
3239.37	3.42987e-08
3248.05	7.61507e-08
3256.73	1.74933e-07
3265.41	9.95892e-09
3274.08	1.2639e-07
3282.76	8.07609e-08
3291.44	7.98305e-08
3300.12	-7.83435e-09
3308.8	-1.56987e-08
3317.47	-1.24738e-07
3326.15	-1.56259e-07
3334.83	-8.09346e-08
3343.51	-5.19728e-08
3352.19	-7.38906e-08
3360.86	1.4671e-08
3369.54	-6.08694e-08
3378.22	6.35379e-08
3386.9	-8.73538e-08
3395.58	-7.99096e-08
3404.26	1.51416e-07
3412.93	1.86919e-07
3421.61	-4.76482e-09
3430.29	-9.10127e-09
3438.97	1.03609e-07
3447.65	-9.12337e-08
3456.32	-5.4794e-08
3465	-3.0246e-08
3473.68	-9.81549e-08
3482.36	8.49473e-08
3491.04	3.17539e-08
3499.72	-7.44272e-08
3508.39	-1.11567e-07
3517.07	-9.50963e-08
3525.75	-4.6655e-08
3534.43	-1.18381e-07
3543.11	-5.2624e-08
3551.78	-3.86197e-08
3560.46	-7.28856e-08
3569.14	-1.4606e-07
3577.82	-1.12217e-07
3586.5	-1.93281e-07
3595.18	-1.23288e-07
3603.85	5.72069e-10
3612.53	-6.29285e-08
3621.21	1.21294e-07
3629.89	-9.99611e-08
3638.57	2.64971e-07
3647.24	6.32896e-08
3655.92	1.18835e-07
3664.6	2.93018e-07
3673.28	3.48006e-07
3681.96	3.24653e-07
3690.64	2.92128e-08
3699.31	2.30579e-07
3707.99	2.10625e-07
3716.67	1.97754e-07
3725.35	2.29965e-07
3734.03	3.84649e-07
3742.7	8.42461e-07
3751.38	1.03751e-06
3760.06	1.07892e-06
3768.74	1.01433e-06
3777.42	1.05999e-06
3786.1	9.41725e-07
3794.77	6.6213e-07
3803.45	8.59614e-07
3812.13	4.92914e-07
3820.81	1.83269e-07
3829.49	3.25499e-07
3838.16	-3.03103e-07
3846.84	3.17271e-07
3855.52	5.58982e-08
3864.2	3.07408e-09
3872.88	3.80831e-08
3881.56	4.29116e-08
3890.23	1.38649e-07
3898.91	4.4274e-09
3907.59	6.62254e-08
3916.27	4.7952e-08
3924.95	2.63015e-08
3933.62	2.36531e-08
3942.3	1.46914e-07
3950.98	2.56673e-07
3959.66	2.99079e-07
3968.34	2.90095e-07
