Infrared Spectrum: Nitrile-Propenoic Acid
Formula: C H2: C H C N
CAS: 107-13-1
State: gas
Melting point: -83.5 C
Boiling point: 77.5 C
Class: IUPAC A
Instrument: IFS66V (Bruker)
Instrument parameters: KBr Beam splitter; MCT Detector; Multipass cell
Sampling: 1 L/min Flow
Resolution: 0.1250
Temperature: 23 C
Pressure: 101.3 kPa
Origin: NIST, Anayltical Chemistry Division, 301-975-3108
cm-1	(micromol/mol)-1m-1 (base 10)
574.988	-3.61189e-07
583.546	6.24161e-07
592.103	3.96776e-07
600.661	4.65797e-07
609.219	1.73939e-07
617.776	1.06269e-06
626.334	2.07666e-06
634.891	5.6199e-06
643.449	9.4085e-06
652.007	1.39473e-05
660.564	3.36037e-05
669.122	2.36882e-05
677.68	2.47383e-05
686.237	1.85525e-05
694.795	1.7093e-05
703.352	1.52723e-05
711.91	2.2054e-05
720.468	8.73129e-06
729.025	1.18917e-05
737.583	4.25095e-06
746.141	2.61191e-06
754.698	1.766e-06
763.256	1.81221e-06
771.813	3.71783e-06
780.371	4.67756e-06
788.929	2.22882e-06
797.486	3.79037e-06
806.044	1.22618e-06
814.602	3.51022e-07
823.159	1.04477e-07
831.717	1.76971e-07
840.274	5.89545e-07
848.832	2.66078e-06
857.39	7.9147e-06
865.947	5.10744e-06
874.505	6.21772e-06
883.063	7.63061e-06
891.62	6.44476e-06
900.178	1.28706e-05
908.735	2.9218e-05
917.293	3.5551e-05
925.851	4.63766e-05
934.408	7.51948e-05
942.966	0.000114149
951.524	0.000117299
960.081	8.76011e-05
968.639	0.000109705
977.196	8.30186e-05
985.754	9.71203e-05
994.312	6.67046e-05
1002.87	5.86586e-05
1011.43	3.65463e-05
1019.98	1.96125e-05
1028.54	1.00088e-05
1037.1	4.05191e-06
1045.66	1.88375e-06
1054.22	1.07402e-06
1062.77	1.40324e-06
1071.33	2.47758e-06
1079.89	1.00827e-05
1088.45	1.06793e-05
1097	7.40342e-06
1105.56	7.86448e-06
1114.12	2.20455e-06
1122.68	5.88043e-07
1131.23	2.50761e-07
1139.79	1.93074e-07
1148.35	1.26124e-07
1156.91	3.03102e-08
1165.46	7.65055e-08
1174.02	2.04452e-07
1182.58	2.12453e-07
1191.14	3.82265e-07
1199.69	2.95977e-07
1208.25	3.81621e-07
1216.81	2.31283e-07
1225.37	3.50362e-07
1233.93	1.80013e-07
1242.48	2.39653e-07
1251.04	1.31476e-07
1259.6	6.25182e-07
1268.16	2.31147e-06
1276.71	2.30681e-06
1285.27	3.01082e-06
1293.83	3.2384e-06
1302.39	1.55451e-06
1310.94	2.39127e-06
1319.5	2.49914e-06
1328.06	2.2086e-06
1336.62	3.66774e-06
1345.17	2.78474e-06
1353.73	3.44031e-06
1362.29	2.72642e-06
1370.85	4.35408e-06
1379.4	6.1738e-06
1387.96	5.85219e-06
1396.52	1.12833e-05
1405.08	2.41685e-05
1413.64	1.01059e-05
1422.19	2.45981e-05
1430.75	2.11354e-05
1439.31	8.67278e-06
1447.87	6.13878e-06
1456.42	4.61548e-06
1464.98	3.9582e-06
1473.54	4.97491e-06
1482.1	4.03696e-07
1490.65	9.03077e-07
1499.21	3.51922e-07
1507.77	5.59065e-07
1516.33	6.73603e-07
1524.88	5.25992e-07
1533.44	6.20528e-07
1542	3.58252e-06
1550.56	4.41954e-07
1559.11	1.06584e-06
1567.67	8.66533e-07
1576.23	9.06913e-06
1584.79	1.78072e-06
1593.35	4.43375e-06
1601.9	1.47523e-05
1610.46	1.04814e-05
1619.02	1.05082e-05
1627.58	1.51342e-05
1636.13	9.0305e-06
1644.69	8.67817e-06
1653.25	1.47986e-05
1661.81	7.68677e-06
1670.36	3.80317e-06
1678.92	3.01516e-06
1687.48	1.31067e-06
1696.04	7.22673e-06
1704.59	1.3519e-06
1713.15	3.6572e-07
1721.71	2.13991e-07
1730.27	4.6134e-07
1738.83	2.78831e-07
1747.38	3.21799e-07
1755.94	1.43286e-07
1764.5	5.35338e-08
1773.06	6.61679e-07
1781.61	3.78162e-08
1790.17	9.40793e-08
1798.73	1.1504e-08
1807.29	2.343e-08
1815.84	5.37712e-08
1824.4	2.91916e-07
1832.96	7.0381e-07
1841.52	4.47461e-07
1850.07	8.87662e-07
1858.63	7.92347e-07
1867.19	8.47629e-07
1875.75	1.63114e-06
1884.3	5.49988e-06
1892.86	1.19966e-05
1901.42	1.58715e-05
1909.98	1.05248e-05
1918.54	1.96543e-05
1927.09	7.72098e-06
1935.65	3.15924e-06
1944.21	3.60186e-06
1952.77	1.98466e-06
1961.32	1.14982e-06
1969.88	7.96055e-07
1978.44	5.62323e-07
1987	4.3719e-07
1995.55	1.90367e-07
2004.11	1.11156e-07
2012.67	1.60239e-07
2021.23	8.62142e-08
2029.78	1.68445e-08
2038.34	3.39482e-08
2046.9	2.06595e-07
2055.46	1.18256e-07
2064.01	2.48818e-07
2072.57	4.55631e-08
2081.13	3.31606e-08
2089.69	7.00727e-08
2098.25	3.44784e-08
2106.8	2.53463e-08
2115.36	6.34271e-09
2123.92	-6.02976e-08
2132.48	6.65285e-09
2141.03	5.46852e-08
2149.59	1.1976e-08
2158.15	1.00336e-07
2166.71	7.28539e-08
2175.26	1.19042e-08
2183.82	9.88323e-08
2192.38	1.38283e-07
2200.94	4.35441e-08
2209.49	2.89753e-07
2218.05	9.44561e-07
2226.61	2.20553e-06
2235.17	1.97371e-06
2243.72	1.99102e-06
2252.28	2.18162e-06
2260.84	6.32379e-07
2269.4	1.08305e-06
2277.96	8.00641e-07
2286.51	1.24554e-06
2295.07	1.19583e-06
2303.63	4.15861e-07
2312.19	4.24256e-07
2320.74	2.04299e-07
2329.3	1.13583e-07
2337.86	2.69629e-07
2346.42	1.32018e-07
2354.97	1.89927e-07
2363.53	3.81875e-07
2372.09	4.46232e-07
2380.65	7.11974e-07
2389.2	5.30852e-07
2397.76	5.35264e-07
2406.32	3.99836e-07
2414.88	2.12221e-07
2423.44	2.37987e-07
2431.99	2.64589e-07
2440.55	2.46658e-07
2449.11	5.0691e-07
2457.67	5.67607e-07
2466.22	5.04474e-07
2474.78	8.0208e-07
2483.34	5.726e-07
2491.9	5.77335e-07
2500.45	2.83916e-07
2509.01	3.02858e-07
2517.57	1.89627e-07
2526.13	2.06624e-07
2534.68	2.68552e-07
2543.24	2.76826e-07
2551.8	2.58351e-07
2560.36	2.94704e-07
2568.91	9.88641e-07
2577.47	2.44764e-07
2586.03	1.82579e-07
2594.59	1.48304e-07
2603.15	8.68753e-08
2611.7	1.18551e-08
2620.26	-5.55956e-08
2628.82	-2.01877e-08
2637.38	-2.31163e-08
2645.93	1.28391e-08
2654.49	-2.74336e-08
2663.05	1.71601e-08
2671.61	-5.77429e-09
2680.16	2.68257e-07
2688.72	4.05309e-07
2697.28	5.4554e-07
2705.84	5.01796e-07
2714.39	7.37452e-07
2722.95	4.35398e-07
2731.51	1.3796e-07
2740.07	4.32303e-08
2748.62	1.25047e-07
2757.18	1.13439e-08
2765.74	8.83123e-08
2774.3	2.38697e-07
2782.86	1.14497e-07
2791.41	1.55345e-07
2799.97	1.24653e-07
2808.53	9.32363e-08
2817.09	1.01204e-07
2825.64	-9.67778e-09
2834.2	1.06092e-07
2842.76	-9.2465e-08
2851.32	-1.02307e-07
2859.87	-1.21188e-07
2868.43	3.49895e-08
2876.99	2.16514e-07
2885.55	1.53531e-07
2894.1	2.21059e-07
2902.66	1.56622e-07
2911.22	1.45856e-07
2919.78	3.56492e-07
2928.34	1.02404e-07
2936.89	1.51164e-07
2945.45	-1.0007e-07
2954.01	6.69496e-08
2962.57	5.96437e-08
2971.12	1.0308e-07
2979.68	1.65613e-07
2988.24	3.12538e-07
2996.8	3.72098e-07
3005.35	5.46664e-07
3013.91	5.2404e-07
3022.47	2.20957e-06
3031.03	6.20925e-06
3039.58	5.54053e-06
3048.14	6.24713e-06
3056.7	6.81416e-06
3065.26	2.29399e-06
3073.81	1.2658e-06
3082.37	9.42433e-07
3090.93	1.91116e-06
3099.49	2.43438e-06
3108.05	6.8191e-06
3116.6	9.91005e-06
3125.16	2.37926e-06
3133.72	1.00964e-05
3142.28	3.81752e-06
3150.83	1.28675e-06
3159.39	1.00576e-06
3167.95	6.66119e-07
3176.51	4.66835e-07
3185.06	1.27003e-07
3193.62	-3.11379e-08
3202.18	-5.06926e-08
3210.74	-2.34363e-07
3219.29	-1.60223e-08
3227.85	-1.15661e-07
3236.41	-6.94643e-08
3244.97	-5.92945e-08
3253.52	-1.07497e-07
3262.08	-9.04751e-08
3270.64	-6.02167e-09
3279.2	7.31095e-08
3287.76	-6.16928e-08
3296.31	6.52743e-08
3304.87	-9.46951e-08
3313.43	1.31153e-07
3321.99	3.2456e-07
3330.54	2.73108e-08
3339.1	5.23373e-07
3347.66	3.88471e-07
3356.22	4.7453e-08
3364.77	8.20287e-08
3373.33	5.53628e-08
3381.89	-3.15007e-08
3390.45	-3.76006e-08
3399	-1.44962e-07
3407.56	-2.90087e-07
3416.12	-5.9862e-08
3424.68	1.61369e-07
3433.23	-1.29173e-07
3441.79	-5.2788e-08
3450.35	2.027e-07
3458.91	7.13724e-08
3467.47	-5.52173e-08
3476.02	1.56212e-07
3484.58	-1.13004e-07
3493.14	-4.88973e-08
3501.7	7.29785e-08
3510.25	-5.24624e-08
3518.81	2.06085e-07
3527.37	2.27032e-07
3535.93	2.7751e-08
3544.48	1.73065e-07
3553.04	7.20126e-08
3561.6	3.70868e-08
3570.16	1.39437e-07
3578.71	-5.04407e-08
3587.27	1.72616e-07
3595.83	1.28011e-07
3604.39	4.21626e-08
3612.95	5.26467e-07
3621.5	2.07654e-07
3630.06	5.10264e-07
3638.62	1.71979e-07
3647.18	1.53723e-06
3655.73	6.39906e-07
3664.29	1.94566e-07
3672.85	3.23911e-07
3681.41	-2.33554e-08
3689.96	1.10579e-07
3698.52	3.55734e-08
3707.08	8.87743e-08
3715.64	-1.05646e-07
3724.19	4.79405e-08
3732.75	2.25063e-07
3741.31	6.82975e-07
3749.87	8.47619e-07
3758.42	-1.44447e-07
3766.98	1.97948e-08
3775.54	-5.67334e-08
3784.1	-7.78424e-08
3792.66	-9.34991e-08
3801.21	1.99509e-06
3809.77	-4.99859e-08
3818.33	6.76926e-08
3826.89	8.86614e-07
3835.44	4.4526e-07
3844	7.14254e-07
3852.56	7.69745e-07
3861.12	3.9969e-07
3869.67	3.77806e-07
3878.23	6.71105e-09
3886.79	2.06759e-07
3895.35	1.09598e-07
3903.9	6.39503e-07
3912.46	1.34769e-07
3921.02	1.93074e-07
3929.58	3.64305e-07
3938.13	3.40236e-07
3946.69	1.7591e-07
3955.25	5.74728e-08
3963.81	7.62899e-08
3972.37	1.15054e-07
