Infrared Spectrum: 1,2-Dichloroethane
Formula: Cl C H2 C H2 Cl
CAS: 107-06-2
State: gas
Melting point: -35.36 C
Boiling point: 83.47 C
Class: IUPAC A
Instrument: IFS66V (Bruker)
Instrument parameters: KBr Beam Splitter; MCT Detector; Multipass cell
Sampling: 1 L/min Flow
Resolution: 0.9640
Temperature: 23 C
Pressure: 101.3 Pa
Origin: NIST, Analytical Chemistry Division, 301-975-3108
cm-1	(micromol/mol)-1m-1 (base 10)
575.17	8.45898e-08
583.848	7.84532e-07
592.526	7.03835e-07
601.205	-1.47055e-07
609.883	-4.41e-07
618.561	1.95486e-08
627.239	4.34759e-07
635.917	7.47341e-07
644.595	3.27143e-06
653.274	8.37486e-06
661.952	1.54381e-05
670.63	1.55192e-05
679.308	2.61193e-05
687.986	3.97668e-05
696.664	3.09171e-05
705.343	4.10807e-05
714.021	0.000201064
722.699	0.000549678
731.377	0.000586506
740.055	5.86227e-05
748.734	6.22349e-06
757.412	7.04413e-06
766.09	7.65282e-06
774.768	6.1759e-06
783.446	4.67637e-06
792.124	3.82816e-06
800.803	2.56853e-06
809.481	1.76767e-06
818.159	1.61085e-06
826.837	2.05882e-06
835.515	1.89368e-06
844.194	1.18639e-06
852.872	6.09031e-07
861.55	8.6957e-07
870.228	2.35972e-06
878.906	1.24988e-05
887.584	1.98573e-05
896.263	2.16266e-05
904.941	6.46392e-06
913.619	2.03923e-06
922.297	2.22299e-06
930.975	5.12723e-06
939.653	9.1565e-06
948.332	7.59797e-06
957.01	8.523e-06
965.688	3.59906e-06
974.366	1.76863e-06
983.044	2.63002e-06
991.723	3.26989e-06
1000.4	2.12689e-06
1009.08	1.70921e-06
1017.76	3.33667e-06
1026.44	4.73571e-06
1035.11	3.19027e-06
1043.79	1.13804e-06
1052.47	4.48992e-07
1061.15	1.3176e-07
1069.83	1.1164e-07
1078.5	2.89187e-07
1087.18	5.10067e-07
1095.86	1.0859e-06
1104.54	1.81965e-06
1113.22	2.27492e-06
1121.9	4.10164e-06
1130.57	3.27278e-06
1139.25	3.00005e-06
1147.93	2.44194e-06
1156.61	1.94113e-06
1165.29	1.2469e-06
1173.96	8.16326e-07
1182.64	9.50167e-07
1191.32	1.82974e-06
1200	3.74089e-06
1208.68	6.83293e-06
1217.36	1.8738e-05
1226.03	0.000152597
1234.71	0.000142432
1243.39	7.06423e-05
1252.07	9.71138e-06
1260.75	6.31884e-06
1269.42	4.75747e-06
1278.1	1.48845e-05
1286.78	4.2962e-05
1295.46	3.51816e-05
1304.14	2.39436e-05
1312.82	9.52075e-06
1321.49	1.15018e-05
1330.17	7.09473e-06
1338.85	4.06891e-06
1347.53	3.01093e-06
1356.21	2.96612e-06
1364.88	2.24905e-06
1373.56	1.22088e-06
1382.24	1.11357e-06
1390.92	8.93276e-07
1399.6	8.21117e-07
1408.28	1.7124e-06
1416.95	3.92569e-06
1425.63	1.11376e-05
1434.31	1.80013e-05
1442.99	2.60564e-05
1451.67	3.07035e-05
1460.34	1.85033e-05
1469.02	2.28632e-05
1477.7	1.23878e-05
1486.38	7.70756e-06
1495.06	3.98914e-06
1503.73	1.7431e-06
1512.41	8.1486e-07
1521.09	1.63344e-06
1529.77	2.76963e-06
1538.45	1.39543e-06
1547.13	7.1291e-07
1555.8	2.23273e-07
1564.48	1.63003e-07
1573.16	2.36929e-07
1581.84	2.04987e-07
1590.52	7.49984e-08
1599.19	1.89156e-08
1607.87	1.34095e-08
1616.55	-7.39366e-07
1625.23	1.50357e-08
1633.91	-7.90038e-08
1642.59	-1.44515e-07
1651.26	-1.42207e-07
1659.94	-2.02898e-08
1668.62	-3.41832e-08
1677.3	2.03832e-07
1685.98	1.85491e-07
1694.65	1.17306e-07
1703.33	1.03016e-07
1712.01	2.0262e-07
1720.69	1.58088e-07
1729.37	8.79677e-08
1738.05	9.07216e-09
1746.72	-4.02668e-08
1755.4	6.10313e-08
1764.08	5.49568e-08
1772.76	-4.23546e-07
1781.44	8.20769e-08
1790.11	8.59786e-08
1798.79	-2.99904e-08
1807.47	-7.70293e-08
1816.15	2.92965e-08
1824.83	-1.0479e-07
1833.51	-1.47337e-08
1842.18	-2.47745e-09
1850.86	8.02334e-08
1859.54	3.61731e-08
1868.22	-5.84557e-08
1876.9	8.23598e-08
1885.57	9.5943e-08
1894.25	3.81104e-08
1902.93	5.34098e-08
1911.61	-2.3554e-08
1920.29	-2.64934e-09
1928.97	-1.96295e-08
1937.64	-5.14735e-08
1946.32	-5.34926e-08
1955	-4.17647e-08
1963.68	-2.04444e-08
1972.36	-1.41389e-08
1981.03	3.39613e-08
1989.71	2.56413e-08
1998.39	-1.28957e-08
2007.07	1.40161e-07
2015.75	3.878e-07
2024.43	1.45942e-06
2033.1	2.05001e-06
2041.78	1.46028e-06
2050.46	3.22237e-07
2059.14	1.25881e-07
2067.82	7.64736e-08
2076.49	5.21074e-08
2085.17	7.02472e-08
2093.85	1.53411e-07
2102.53	3.12191e-07
2111.21	3.35145e-07
2119.89	3.03516e-07
2128.56	2.05072e-07
2137.24	1.87191e-07
2145.92	1.77747e-07
2154.6	8.53538e-08
2163.28	9.38639e-08
2171.95	3.06186e-07
2180.63	4.55483e-07
2189.31	8.28597e-07
2197.99	9.64584e-07
2206.67	1.27541e-06
2215.35	1.60373e-06
2224.02	1.49268e-06
2232.7	1.47521e-06
2241.38	1.10549e-06
2250.06	6.81313e-07
2258.74	4.0084e-07
2267.41	2.39256e-07
2276.09	1.62517e-07
2284.77	1.88804e-07
2293.45	1.88871e-07
2302.13	1.61008e-07
2310.81	8.44471e-08
2319.48	2.49719e-08
2328.16	-9.42959e-09
2336.84	8.13484e-08
2345.52	-1.75986e-07
2354.2	-5.6174e-07
2362.87	-1.16073e-06
2371.55	-2.01661e-07
2380.23	9.91889e-07
2388.91	1.0957e-06
2397.59	6.50686e-07
2406.27	5.95679e-07
2414.94	5.89099e-07
2423.62	7.66674e-07
2432.3	5.98979e-07
2440.98	6.12825e-07
2449.66	4.81466e-07
2458.33	7.25314e-07
2467.01	5.74031e-07
2475.69	3.84252e-07
2484.37	2.37458e-07
2493.05	3.54543e-07
2501.73	4.46274e-07
2510.4	6.45809e-07
2519.08	7.96774e-07
2527.76	5.73704e-07
2536.44	5.10643e-07
2545.12	3.60898e-07
2553.79	2.46272e-07
2562.47	-4.23286e-08
2571.15	8.27272e-09
2579.83	-8.65343e-08
2588.51	-6.55451e-08
2597.19	-1.31198e-07
2605.86	-1.51606e-07
2614.54	-1.29619e-07
2623.22	-8.84788e-08
2631.9	-1.02581e-08
2640.58	5.67695e-08
2649.25	6.98488e-10
2657.93	-4.28579e-08
2666.61	1.02265e-07
2675.29	5.51222e-07
2683.97	1.79847e-06
2692.65	1.78912e-06
2701.32	3.71459e-07
2710	1.97611e-07
2718.68	3.31498e-07
2727.36	4.21054e-07
2736.04	6.01757e-07
2744.71	4.18203e-07
2753.39	1.142e-06
2762.07	2.32665e-06
2770.75	2.45255e-06
2779.43	2.01619e-07
2788.11	1.06671e-07
2796.78	1.33859e-08
2805.46	-9.86969e-08
2814.14	5.45257e-08
2822.82	1.1404e-07
2831.5	4.83697e-07
2840.17	1.33933e-06
2848.85	2.98387e-06
2857.53	3.55532e-06
2866.21	4.56652e-06
2874.89	4.87672e-06
2883.57	9.08764e-06
2892.24	1.12895e-05
2900.92	1.32831e-05
2909.6	3.6413e-06
2918.28	2.46301e-06
2926.96	2.00808e-06
2935.63	4.11104e-06
2944.31	1.08118e-05
2952.99	2.42406e-05
2961.67	2.83636e-05
2970.35	4.4931e-05
2979.03	5.78634e-05
2987.7	5.93679e-05
2996.38	3.64484e-05
3005.06	2.87443e-05
3013.74	2.46666e-05
3022.42	1.82207e-05
3031.09	1.36041e-05
3039.77	9.66275e-06
3048.45	7.98853e-06
3057.13	5.39469e-06
3065.81	2.94584e-06
3074.49	1.68105e-06
3083.16	9.65898e-07
3091.84	6.515e-07
3100.52	6.17906e-07
3109.2	5.21663e-07
3117.88	4.37143e-07
3126.55	3.45901e-07
3135.23	5.60819e-08
3143.91	8.94774e-08
3152.59	9.47479e-08
3161.27	-3.98166e-08
3169.95	-7.61543e-08
3178.62	-7.81752e-08
3187.3	1.49048e-07
3195.98	2.86972e-07
3204.66	1.59873e-07
3213.34	6.26411e-08
3222.01	7.92202e-08
3230.69	1.59163e-07
3239.37	2.88927e-08
3248.05	7.03763e-08
3256.73	1.7555e-07
3265.41	-1.96814e-09
3274.08	1.25948e-07
3282.76	7.7082e-08
3291.44	8.03562e-08
3300.12	-6.6893e-09
3308.8	-1.42799e-08
3317.47	-1.25348e-07
3326.15	-1.72497e-07
3334.83	-9.19604e-08
3343.51	-5.64657e-08
3352.19	-8.01179e-08
3360.86	1.73212e-08
3369.54	-7.13122e-08
3378.22	6.68475e-08
3386.9	-9.99148e-08
3395.58	-9.55756e-08
3404.26	1.51567e-07
3412.93	1.90233e-07
3421.61	-1.12131e-08
3430.29	-1.53058e-08
3438.97	1.06804e-07
3447.65	-9.7822e-08
3456.32	-6.26184e-08
3465	-4.24323e-08
3473.68	-1.06965e-07
3482.36	8.92346e-08
3491.04	2.8528e-08
3499.72	-7.48901e-08
3508.39	-1.13771e-07
3517.07	-9.7882e-08
3525.75	-4.53108e-08
3534.43	-1.26502e-07
3543.11	-5.05385e-08
3551.78	-3.62377e-08
3560.46	-7.76805e-08
3569.14	-1.44162e-07
3577.82	-1.18712e-07
3586.5	-2.05363e-07
3595.18	-1.23358e-07
3603.85	3.91081e-09
3612.53	-6.58143e-08
3621.21	1.3416e-07
3629.89	-1.07166e-07
3638.57	2.68605e-07
3647.24	4.54154e-08
3655.92	9.90307e-08
3664.6	2.84294e-07
3673.28	3.71282e-07
3681.96	3.29612e-07
3690.64	1.48829e-08
3699.31	2.30694e-07
3707.99	2.19581e-07
3716.67	1.98051e-07
3725.35	2.26136e-07
3734.03	3.80385e-07
3742.7	8.68733e-07
3751.38	1.02233e-06
3760.06	1.06946e-06
3768.74	1.01008e-06
3777.42	1.06684e-06
3786.1	9.48008e-07
3794.77	6.59603e-07
3803.45	8.80212e-07
3812.13	4.81628e-07
3820.81	1.58791e-07
3829.49	3.24068e-07
3838.16	-3.51837e-07
3846.84	3.20132e-07
3855.52	8.28091e-08
3864.2	-8.42188e-09
3872.88	4.25714e-08
3881.56	4.26369e-08
3890.23	1.43715e-07
3898.91	-9.67879e-09
3907.59	6.81099e-08
3916.27	4.68315e-08
3924.95	1.5656e-08
3933.62	1.7354e-08
3942.3	1.33874e-07
3950.98	2.49601e-07
3959.66	2.8821e-07
3968.34	2.84489e-07
