Infrared Spectrum: Nitrile-Propenoic Acid
Formula: C H2: C H C N
CAS: 107-13-1
State: gas
Melting point: -83.5 C
Boiling point: 77.5 C
Class: IUPAC A
Instrument: IFS66V (Bruker)
Instrument parameters: KBr Beam splitter; MCT Detector; Multipass cell
Sampling: 1 L/min Flow
Resolution: 1.9290
Temperature: 23 C
Pressure: 101.3 kPa
Origin: NIST, Anayltical Chemistry Division, 301-975-3108
cm-1	(micromol/mol)-1m-1 (base 10)
574.687	3.02247e-07
583.365	3.5655e-07
592.043	4.47074e-07
600.721	3.72e-07
609.4	5.07543e-07
618.078	1.12221e-06
626.756	2.47748e-06
635.434	5.0727e-06
644.112	9.77093e-06
652.79	1.81276e-05
661.469	2.02381e-05
670.147	1.94904e-05
678.825	3.27368e-05
687.503	1.79598e-05
696.181	2.07407e-05
704.859	1.97206e-05
713.537	1.22696e-05
722.216	1.15679e-05
730.894	5.96366e-06
739.572	4.3186e-06
748.25	2.3482e-06
756.928	1.50435e-06
765.606	1.8883e-06
774.285	4.51254e-06
782.963	3.95273e-06
791.641	3.68945e-06
800.319	2.99051e-06
808.997	6.5859e-07
817.675	2.28939e-07
826.353	1.25086e-07
835.032	1.56336e-07
843.71	9.33327e-07
852.388	4.6372e-06
861.066	8.54624e-06
869.744	6.11581e-06
878.422	8.58828e-06
887.101	6.61295e-06
895.779	9.39976e-06
904.457	1.67717e-05
913.135	2.83322e-05
921.813	4.96498e-05
930.491	7.37869e-05
939.169	7.9794e-05
947.848	0.000110244
956.526	0.000106128
965.204	9.70326e-05
973.882	0.000102542
982.56	8.95674e-05
991.238	7.88557e-05
999.917	6.04072e-05
1008.59	4.11471e-05
1017.27	2.38597e-05
1025.95	1.32234e-05
1034.63	5.52286e-06
1043.31	2.22008e-06
1051.99	1.29235e-06
1060.66	1.25524e-06
1069.34	1.80444e-06
1078.02	7.72451e-06
1086.7	1.2667e-05
1095.38	8.79907e-06
1104.05	8.48623e-06
1112.73	3.18264e-06
1121.41	6.24215e-07
1130.09	3.10394e-07
1138.77	1.75696e-07
1147.45	1.16065e-07
1156.12	1.08525e-07
1164.8	1.953e-07
1173.48	2.09766e-07
1182.16	2.1097e-07
1190.84	2.48489e-07
1199.51	2.8121e-07
1208.19	4.02987e-07
1216.87	2.55287e-07
1225.55	2.74205e-07
1234.23	2.25081e-07
1242.9	1.69071e-07
1251.58	2.06702e-07
1260.26	6.8415e-07
1268.94	2.34264e-06
1277.62	2.15233e-06
1286.3	3.08621e-06
1294.97	3.19473e-06
1303.65	1.74757e-06
1312.33	2.59147e-06
1321.01	2.30251e-06
1329.69	2.42378e-06
1338.36	3.12898e-06
1347.04	3.06656e-06
1355.72	3.17484e-06
1364.4	3.29637e-06
1373.08	5.21512e-06
1381.76	5.37038e-06
1390.43	7.5122e-06
1399.11	1.73326e-05
1407.79	2.25943e-05
1416.47	1.23603e-05
1425.15	2.40542e-05
1433.82	1.07604e-05
1442.5	7.90706e-06
1451.18	4.1202e-06
1459.86	2.4636e-06
1468.54	1.34444e-06
1477.22	8.73136e-07
1485.89	4.05721e-07
1494.57	2.59607e-07
1503.25	1.40129e-07
1511.93	4.42763e-07
1520.61	1.44546e-06
1529.28	2.46276e-07
1537.96	9.56276e-07
1546.64	3.88659e-07
1555.32	8.52635e-07
1564	8.40076e-07
1572.67	1.10508e-06
1581.35	1.75802e-06
1590.03	3.38282e-06
1598.71	9.77654e-06
1607.39	1.37083e-05
1616.07	9.40378e-06
1624.74	1.66812e-05
1633.42	9.18251e-06
1642.1	9.01344e-06
1650.78	5.3138e-06
1659.46	7.56288e-06
1668.13	5.47311e-06
1676.81	2.30233e-06
1685.49	2.97145e-06
1694.17	1.09657e-06
1702.85	5.62467e-07
1711.53	2.80823e-07
1720.2	2.93098e-07
1728.88	2.52737e-07
1737.56	2.27619e-07
1746.24	3.54757e-07
1754.92	1.51499e-07
1763.59	7.28225e-08
1772.27	1.10518e-06
1780.95	2.00945e-07
1789.63	1.08083e-07
1798.31	4.42662e-08
1806.98	5.00969e-08
1815.66	5.49326e-08
1824.34	4.77227e-07
1833.02	6.97121e-07
1841.7	5.36789e-07
1850.38	9.1484e-07
1859.05	7.42947e-07
1867.73	1.14553e-06
1876.41	1.82791e-06
1885.09	5.40424e-06
1893.77	1.35498e-05
1902.44	1.55643e-05
1911.12	1.34349e-05
1919.8	1.68533e-05
1928.48	7.12725e-06
1937.16	3.07859e-06
1945.84	3.64056e-06
1954.51	1.84843e-06
1963.19	1.14713e-06
1971.87	6.98897e-07
1980.55	5.00616e-07
1989.23	2.92348e-07
1997.9	1.98341e-07
2006.58	9.45127e-08
2015.26	5.87956e-08
2023.94	7.05115e-08
2032.62	7.17207e-08
2041.3	7.98692e-08
2049.97	7.65359e-08
2058.65	8.83232e-08
2067.33	1.1916e-07
2076.01	5.92149e-08
2084.69	7.72958e-08
2093.36	6.75534e-08
2102.04	6.00739e-08
2110.72	1.95911e-08
2119.4	2.44596e-08
2128.08	1.0575e-08
2136.75	1.59777e-08
2145.43	4.07579e-08
2154.11	7.6872e-08
2162.79	6.56149e-08
2171.47	6.49291e-08
2180.15	1.04519e-07
2188.82	7.8655e-08
2197.5	7.92498e-08
2206.18	1.60265e-07
2214.86	5.72667e-07
2223.54	1.79569e-06
2232.21	2.35419e-06
2240.89	2.6407e-06
2249.57	2.76751e-06
2258.25	8.75772e-07
2266.93	9.7135e-07
2275.61	1.12175e-06
2284.28	9.47334e-07
2292.96	1.52259e-06
2301.64	4.56408e-07
2310.32	4.86277e-07
2319	2.55151e-07
2327.67	1.95627e-07
2336.35	2.00564e-07
2345.03	2.07763e-07
2353.71	2.92271e-07
2362.39	4.7323e-07
2371.06	4.96031e-07
2379.74	6.95017e-07
2388.42	5.74351e-07
2397.1	5.39484e-07
2405.78	3.95147e-07
2414.46	2.41547e-07
2423.13	2.23941e-07
2431.81	2.58191e-07
2440.49	2.95297e-07
2449.17	5.01947e-07
2457.85	5.50609e-07
2466.52	5.36337e-07
2475.2	8.28976e-07
2483.88	5.98108e-07
2492.56	4.53102e-07
2501.24	3.10737e-07
2509.92	2.28326e-07
2518.59	2.16002e-07
2527.27	2.24345e-07
2535.95	2.29758e-07
2544.63	3.11221e-07
2553.31	3.3302e-07
2561.98	3.82926e-07
2570.66	3.88611e-07
2579.34	2.20249e-07
2588.02	1.91128e-07
2596.7	1.21305e-07
2605.38	7.37943e-08
2614.05	6.06505e-08
2622.73	-4.03718e-09
2631.41	-1.76166e-09
2640.09	-1.80482e-08
2648.77	-3.42324e-08
2657.44	2.86882e-08
2666.12	9.41857e-09
2674.8	9.98714e-08
2683.48	2.36414e-07
2692.16	4.79618e-07
2700.83	5.88919e-07
2709.51	6.49509e-07
2718.19	5.8636e-07
2726.87	2.88946e-07
2735.55	1.39436e-07
2744.23	1.27194e-07
2752.9	3.16354e-08
2761.58	5.16121e-08
2770.26	1.09795e-07
2778.94	1.75435e-07
2787.62	1.80396e-07
2796.29	1.2308e-07
2804.97	2.20175e-07
2813.65	6.22084e-08
2822.33	5.21901e-08
2831.01	2.74586e-08
2839.69	-9.73376e-08
2848.36	-1.38583e-07
2857.04	-9.81806e-08
2865.72	-4.00922e-08
2874.4	4.55786e-08
2883.08	1.40406e-07
2891.75	2.59405e-07
2900.43	3.05114e-07
2909.11	2.40999e-07
2917.79	2.59074e-07
2926.47	4.16496e-08
2935.14	5.76888e-08
2943.82	2.2838e-08
2952.5	2.94944e-08
2961.18	1.25654e-08
2969.86	8.15526e-08
2978.54	1.24001e-07
2987.21	3.89293e-07
2995.89	2.85674e-07
3004.57	5.17513e-07
3013.25	6.13878e-07
3021.93	2.0324e-06
3030.6	5.90395e-06
3039.28	5.52402e-06
3047.96	6.04875e-06
3056.64	6.79447e-06
3065.32	2.25571e-06
3074	1.19901e-06
3082.67	1.04769e-06
3091.35	1.95846e-06
3100.03	2.75939e-06
3108.71	6.38286e-06
3117.39	9.24295e-06
3126.06	3.32044e-06
3134.74	9.9285e-06
3143.42	3.83658e-06
3152.1	1.64153e-06
3160.78	1.09839e-06
3169.46	5.93959e-07
3178.13	3.68816e-07
3186.81	1.15915e-07
3195.49	-1.76116e-08
3204.17	-9.20148e-08
3212.85	-8.30546e-08
3221.52	-8.50041e-08
3230.2	-3.5849e-08
3238.88	-1.19076e-07
3247.56	-1.74699e-07
3256.24	-1.47853e-07
3264.91	-4.7217e-08
3273.59	-1.03882e-07
3282.27	-1.02151e-07
3290.95	-8.47981e-08
3299.63	1.35513e-08
3308.31	1.09101e-08
3316.98	2.0864e-07
3325.66	2.40814e-07
3334.34	3.04824e-07
3343.02	4.87685e-07
3351.7	1.4947e-07
3360.37	1.54212e-07
3369.05	1.82455e-08
3377.73	-1.10484e-08
3386.41	-3.80217e-08
3395.09	-4.32699e-08
3403.77	-3.56252e-08
3412.44	-6.07169e-08
3421.12	-2.72799e-09
3429.8	-3.55079e-08
3438.48	5.87751e-09
3447.16	1.72747e-08
3455.83	7.46997e-08
3464.51	-3.47931e-08
3473.19	-2.63817e-08
3481.87	3.44738e-09
3490.55	3.42256e-08
3499.22	7.2501e-08
3507.9	6.94747e-08
3516.58	1.92131e-07
3525.26	1.91153e-07
3533.94	1.42123e-07
3542.62	1.65008e-07
3551.29	7.39048e-08
3559.97	6.1751e-08
3568.65	3.12689e-07
3577.33	4.52112e-08
3586.01	3.18811e-07
3594.68	1.9688e-07
3603.36	1.05332e-07
3612.04	4.98378e-07
3620.72	4.12404e-07
3629.4	1.49708e-06
3638.08	3.78236e-07
3646.75	8.43439e-07
3655.43	8.52723e-07
3664.11	3.35254e-07
3672.79	3.18559e-07
3681.47	1.00691e-07
3690.14	4.19238e-07
3698.82	6.38346e-08
3707.5	3.41451e-08
3716.18	2.96945e-09
3724.86	1.41537e-07
3733.54	2.93994e-07
3742.21	1.38002e-07
3750.89	6.60567e-07
3759.57	3.64698e-07
3768.25	2.72712e-08
3776.93	-2.56542e-08
3785.6	2.49998e-08
3794.28	-6.44617e-08
3802.96	3.17501e-07
3811.64	8.51955e-09
3820.32	7.52439e-07
3828.99	1.63902e-07
3837.67	1.96422e-06
3846.35	2.90935e-07
3855.03	1.95731e-06
3863.71	4.71089e-07
3872.39	9.51384e-08
3881.06	4.54936e-07
3889.74	1.66242e-07
3898.42	4.39092e-07
3907.1	2.79709e-07
3915.78	2.79199e-07
3924.45	3.87756e-07
3933.13	2.52911e-07
3941.81	1.44831e-07
3950.49	1.63442e-07
3959.17	1.18592e-07
3967.85	1.84578e-07
