Infrared Spectrum: Nitrile-Propenoic Acid
Formula: C H2: C H C N
CAS: 107-13-1
State: gas
Melting point: -83.5 C
Boiling point: 77.5 C
Class: IUPAC A
Instrument: IFS66V (Bruker)
Instrument parameters: KBr Beam splitter; MCT Detector; Multipass cell
Sampling: 1 L/min Flow
Resolution: 0.9640
Temperature: 23 C
Pressure: 101.3 kPa
Origin: NIST, Anayltical Chemistry Division, 301-975-3108
cm-1	(micromol/mol)-1m-1 (base 10)
575.169	2.87001e-07
583.847	2.6466e-07
592.525	4.57559e-07
601.203	3.86756e-07
609.882	5.8907e-07
618.56	1.19136e-06
627.238	2.6993e-06
635.916	5.16511e-06
644.594	9.58562e-06
653.272	1.81839e-05
661.951	1.71956e-05
670.629	1.84526e-05
679.307	3.63074e-05
687.985	1.78665e-05
696.663	1.64964e-05
705.341	2.37531e-05
714.019	1.17495e-05
722.698	1.09588e-05
731.376	5.85989e-06
740.054	4.39303e-06
748.732	2.26625e-06
757.41	1.57749e-06
766.088	2.03626e-06
774.767	4.61005e-06
783.445	3.79016e-06
792.123	3.84502e-06
800.801	2.87919e-06
809.479	6.30025e-07
818.157	2.34137e-07
826.835	1.92557e-07
835.514	1.88758e-07
844.192	1.12779e-06
852.87	4.92998e-06
861.548	8.38761e-06
870.226	4.84721e-06
878.904	8.73586e-06
887.583	6.68748e-06
896.261	1.08367e-05
904.939	1.81402e-05
913.617	2.78888e-05
922.295	4.43541e-05
930.973	8.05148e-05
939.651	8.73103e-05
948.33	0.000126763
957.008	0.00011124
965.686	9.00025e-05
974.364	9.93397e-05
983.042	9.98223e-05
991.72	7.55035e-05
1000.4	6.41547e-05
1009.08	3.94327e-05
1017.75	2.31106e-05
1026.43	1.24731e-05
1035.11	5.36635e-06
1043.79	2.21887e-06
1052.47	1.40351e-06
1061.15	1.25609e-06
1069.82	2.00189e-06
1078.5	8.20887e-06
1087.18	1.222e-05
1095.86	9.05223e-06
1104.54	8.21198e-06
1113.21	2.98117e-06
1121.89	6.47454e-07
1130.57	3.20902e-07
1139.25	2.21953e-07
1147.93	1.35553e-07
1156.61	1.46267e-07
1165.28	1.95595e-07
1173.96	2.25354e-07
1182.64	2.37777e-07
1191.32	2.99853e-07
1200	2.83474e-07
1208.67	4.77346e-07
1217.35	2.46086e-07
1226.03	2.50217e-07
1234.71	2.46394e-07
1243.39	1.74976e-07
1252.07	2.52433e-07
1260.74	7.46959e-07
1269.42	2.42813e-06
1278.1	2.10097e-06
1286.78	3.16973e-06
1295.46	3.19613e-06
1304.13	1.78073e-06
1312.81	2.62576e-06
1321.49	2.30106e-06
1330.17	2.57451e-06
1338.85	3.34882e-06
1347.52	2.94797e-06
1356.2	3.16726e-06
1364.88	3.31176e-06
1373.56	4.97067e-06
1382.24	5.32789e-06
1390.92	7.08167e-06
1399.59	1.67886e-05
1408.27	2.18139e-05
1416.95	1.29024e-05
1425.63	2.20333e-05
1434.31	9.87934e-06
1442.98	8.07995e-06
1451.66	4.30154e-06
1460.34	2.32852e-06
1469.02	1.40928e-06
1477.7	6.89928e-07
1486.38	4.29137e-07
1495.05	3.32306e-07
1503.73	2.1054e-07
1512.41	7.31143e-07
1521.09	2.32396e-06
1529.77	1.81988e-07
1538.44	1.34559e-06
1547.12	3.47654e-07
1555.8	6.4375e-07
1564.48	9.83478e-07
1573.16	1.18664e-06
1581.83	1.71181e-06
1590.51	3.19395e-06
1599.19	1.01731e-05
1607.87	1.33401e-05
1616.55	8.80772e-06
1625.23	1.63574e-05
1633.9	9.03358e-06
1642.58	9.2374e-06
1651.26	5.31191e-06
1659.94	7.58526e-06
1668.62	5.50959e-06
1677.29	2.05868e-06
1685.97	1.41485e-06
1694.65	1.19051e-06
1703.33	6.33402e-07
1712.01	3.18186e-07
1720.69	2.37091e-07
1729.36	3.07719e-07
1738.04	2.75276e-07
1746.72	4.10376e-07
1755.4	1.91695e-07
1764.08	7.41144e-08
1772.75	1.84178e-06
1781.43	7.66619e-08
1790.11	1.29976e-07
1798.79	6.14245e-08
1807.47	7.79747e-08
1816.15	8.92832e-08
1824.82	6.66408e-07
1833.5	7.14407e-07
1842.18	6.2845e-07
1850.86	9.47651e-07
1859.54	7.3219e-07
1868.21	1.25209e-06
1876.89	2.01361e-06
1885.57	5.5858e-06
1894.25	1.42845e-05
1902.93	1.51452e-05
1911.6	1.49878e-05
1920.28	1.62668e-05
1928.96	7.02557e-06
1937.64	3.09774e-06
1946.32	3.43638e-06
1955	1.68441e-06
1963.67	1.17671e-06
1972.35	6.91456e-07
1981.03	4.79271e-07
1989.71	2.83211e-07
1998.39	2.04905e-07
2007.06	1.10926e-07
2015.74	6.86666e-08
2024.42	6.19729e-08
2033.1	9.40484e-08
2041.78	8.64802e-08
2050.46	7.98242e-08
2059.13	8.93473e-08
2067.81	1.01981e-07
2076.49	9.36378e-08
2085.17	7.55978e-08
2093.85	7.69929e-08
2102.52	6.06737e-08
2111.2	2.96986e-08
2119.88	2.22468e-08
2128.56	1.3137e-08
2137.24	1.32998e-08
2145.91	4.40857e-08
2154.59	7.01432e-08
2163.27	7.69716e-08
2171.95	7.88424e-08
2180.63	1.06097e-07
2189.31	8.44275e-08
2197.98	8.13912e-08
2206.66	1.70131e-07
2215.34	6.42075e-07
2224.02	1.86364e-06
2232.7	2.31875e-06
2241.37	2.06411e-06
2250.05	2.67481e-06
2258.73	8.29963e-07
2267.41	9.95866e-07
2276.09	1.07774e-06
2284.77	1.01182e-06
2293.44	1.42205e-06
2302.12	4.66569e-07
2310.8	4.94097e-07
2319.48	2.58158e-07
2328.16	1.90485e-07
2336.83	1.38678e-07
2345.51	1.94973e-07
2354.19	3.15051e-07
2362.87	5.25008e-07
2371.55	4.85639e-07
2380.23	6.91136e-07
2388.9	5.8011e-07
2397.58	5.49856e-07
2406.26	3.82869e-07
2414.94	2.23307e-07
2423.62	2.21666e-07
2432.29	2.59771e-07
2440.97	3.15286e-07
2449.65	5.21557e-07
2458.33	5.55728e-07
2467.01	5.45473e-07
2475.68	7.9045e-07
2484.36	6.54326e-07
2493.04	4.48145e-07
2501.72	2.92711e-07
2510.4	2.32877e-07
2519.08	2.28889e-07
2527.75	2.1464e-07
2536.43	2.49012e-07
2545.11	3.23058e-07
2553.79	3.66134e-07
2562.47	4.27309e-07
2571.14	3.24209e-07
2579.82	2.54948e-07
2588.5	1.82671e-07
2597.18	1.36039e-07
2605.86	8.78981e-08
2614.54	7.48911e-08
2623.21	1.09547e-09
2631.89	-1.94674e-09
2640.57	-1.0238e-08
2649.25	-3.62819e-08
2657.93	1.73074e-09
2666.6	2.26733e-08
2675.28	1.12325e-07
2683.96	2.60944e-07
2692.64	4.84819e-07
2701.32	6.19354e-07
2709.99	5.55925e-07
2718.67	5.56713e-07
2727.35	2.4604e-07
2736.03	1.38544e-07
2744.71	1.19241e-07
2753.39	2.56251e-08
2762.06	4.49188e-08
2770.74	1.23898e-07
2779.42	1.92273e-07
2788.1	1.43402e-07
2796.78	1.38838e-07
2805.45	2.25539e-07
2814.13	1.74752e-08
2822.81	4.13422e-08
2831.49	7.1708e-09
2840.17	-1.0801e-07
2848.85	-1.47749e-07
2857.52	-1.0054e-07
2866.2	-4.98686e-08
2874.88	8.54716e-08
2883.56	1.22422e-07
2892.24	3.05391e-07
2900.91	2.78337e-07
2909.59	2.64706e-07
2918.27	2.51181e-07
2926.95	4.58587e-08
2935.63	6.24676e-08
2944.31	5.33128e-08
2952.98	3.79153e-08
2961.66	3.19569e-08
2970.34	9.25651e-08
2979.02	1.63168e-07
2987.7	4.20218e-07
2996.37	2.96733e-07
3005.05	5.39355e-07
3013.73	6.15335e-07
3022.41	2.20205e-06
3031.09	6.0513e-06
3039.76	5.39803e-06
3048.44	6.35864e-06
3057.12	6.47167e-06
3065.8	2.16553e-06
3074.48	1.15346e-06
3083.16	1.1214e-06
3091.83	1.98272e-06
3100.51	2.84821e-06
3109.19	6.4721e-06
3117.87	8.73094e-06
3126.55	4.03897e-06
3135.22	9.538e-06
3143.9	3.70554e-06
3152.58	1.77774e-06
3161.26	1.02903e-06
3169.94	5.10662e-07
3178.62	3.6808e-07
3187.29	1.01442e-07
3195.97	-1.53625e-08
3204.65	-8.63297e-08
3213.33	-1.00793e-07
3222.01	-6.02781e-08
3230.68	1.30847e-08
3239.36	-1.28424e-07
3248.04	-1.86686e-07
3256.72	-1.18702e-07
3265.4	-8.55989e-08
3274.07	-9.25546e-08
3282.75	-1.09382e-07
3291.43	-1.09551e-07
3300.11	1.17828e-08
3308.79	3.13007e-08
3317.47	2.18992e-07
3326.14	2.21019e-07
3334.82	2.69036e-07
3343.5	4.87524e-07
3352.18	1.43842e-07
3360.86	1.41528e-07
3369.53	-1.15104e-08
3378.21	3.39691e-10
3386.89	-5.47925e-08
3395.57	-8.01707e-09
3404.25	-7.05916e-08
3412.93	-2.55546e-08
3421.6	9.28397e-09
3430.28	-5.51922e-08
3438.96	5.02915e-08
3447.64	-1.28164e-08
3456.32	6.20947e-08
3464.99	-4.04973e-08
3473.67	-3.09696e-08
3482.35	4.36346e-08
3491.03	2.26479e-08
3499.71	8.09133e-08
3508.39	8.92e-08
3517.06	2.02992e-07
3525.74	2.18266e-07
3534.42	1.00919e-07
3543.1	1.72809e-07
3551.78	1.51979e-07
3560.45	1.18005e-07
3569.13	1.13439e-07
3577.81	1.49146e-08
3586.49	6.09775e-07
3595.17	3.08275e-07
3603.84	1.09002e-07
3612.52	8.43544e-07
3621.2	3.22498e-07
3629.88	1.54839e-06
3638.56	3.61274e-07
3647.24	1.14094e-06
3655.91	1.22564e-06
3664.59	3.39562e-07
3673.27	3.95155e-07
3681.95	1.3395e-07
3690.63	4.46836e-07
3699.3	7.7525e-08
3707.98	6.70519e-08
3716.66	5.82931e-09
3725.34	1.90475e-07
3734.02	2.64744e-07
3742.7	1.668e-07
3751.37	4.34192e-07
3760.05	5.36298e-07
3768.73	5.28317e-08
3777.41	-7.29448e-09
3786.09	-1.50487e-08
3794.76	-3.72068e-08
3803.44	1.2168e-07
3812.12	2.92975e-08
3820.8	1.16217e-06
3829.48	1.77277e-07
3838.16	2.59607e-06
3846.83	3.42949e-07
3855.51	6.34398e-07
3864.19	4.53516e-07
3872.87	9.46769e-08
3881.55	2.55418e-07
3890.22	1.35428e-07
3898.9	6.34468e-07
3907.58	2.66926e-07
3916.26	3.41251e-07
3924.94	4.331e-07
3933.61	1.69461e-07
3942.29	1.83544e-07
3950.97	7.12514e-08
3959.65	1.31908e-07
3968.33	2.13919e-07
