Infrared Spectrum: 1,2-Dichloroethane
Formula: Cl C H2 C H2 Cl
CAS: 107-06-2
State: gas
Melting point: -35.36 C
Boiling point: 83.47 C
Class: IUPAC A
Instrument: IFS66V (Bruker)
Instrument parameters: KBr Beam Splitter; MCT Detector; Multipass cell
Sampling: 1 L/min Flow
Resolution: 1.9290
Temperature: 23 C
Pressure: 101.3 Pa
Origin: NIST, Analytical Chemistry Division, 301-975-3108
cm-1	(micromol/mol)-1m-1 (base 10)
575.652	5.62179e-07
584.33	5.98363e-07
593.008	6.09845e-07
601.687	7.66873e-08
610.365	-2.42988e-08
619.043	1.16568e-07
627.721	6.15656e-07
636.399	1.23255e-06
645.077	3.63393e-06
653.756	8.9812e-06
662.434	1.57807e-05
671.112	1.69019e-05
679.79	2.75047e-05
688.468	3.96805e-05
697.146	3.52664e-05
705.825	4.77481e-05
714.503	0.000221925
723.181	0.00053834
731.859	0.000553553
740.537	5.581e-05
749.216	9.33674e-06
757.894	8.23057e-06
766.572	8.09373e-06
775.25	6.65669e-06
783.928	5.12662e-06
792.606	3.83071e-06
801.285	2.57087e-06
809.963	1.91948e-06
818.641	1.72631e-06
827.319	2.21661e-06
835.997	2.02019e-06
844.676	1.31128e-06
853.354	7.31114e-07
862.032	1.10439e-06
870.71	2.81821e-06
879.388	1.34845e-05
888.066	2.04961e-05
896.745	2.08547e-05
905.423	6.20394e-06
914.101	2.13783e-06
922.779	2.54316e-06
931.457	5.41256e-06
940.135	9.08617e-06
948.814	7.86627e-06
957.492	8.1034e-06
966.17	3.56276e-06
974.848	1.9063e-06
983.526	2.68119e-06
992.205	3.32257e-06
1000.88	2.0875e-06
1009.56	1.85439e-06
1018.24	3.45217e-06
1026.92	4.64091e-06
1035.6	2.97065e-06
1044.27	1.1523e-06
1052.95	4.54459e-07
1061.63	1.8242e-07
1070.31	1.30533e-07
1078.99	3.35312e-07
1087.66	6.15321e-07
1096.34	1.1508e-06
1105.02	1.88452e-06
1113.7	2.41771e-06
1122.38	4.39722e-06
1131.06	2.97294e-06
1139.73	2.9451e-06
1148.41	2.5637e-06
1157.09	1.9774e-06
1165.77	1.31222e-06
1174.45	9.75626e-07
1183.12	1.17363e-06
1191.8	2.2103e-06
1200.48	4.17008e-06
1209.16	7.61748e-06
1217.84	2.40107e-05
1226.52	0.000153199
1235.19	0.000149197
1243.87	6.32794e-05
1252.55	1.12054e-05
1261.23	6.92913e-06
1269.91	5.43598e-06
1278.58	1.721e-05
1287.26	4.03213e-05
1295.94	3.85231e-05
1304.62	2.25624e-05
1313.3	9.923e-06
1321.98	1.12241e-05
1330.65	7.00164e-06
1339.33	4.1206e-06
1348.01	3.0897e-06
1356.69	2.99778e-06
1365.37	2.27046e-06
1374.04	1.37985e-06
1382.72	1.19099e-06
1391.4	9.53799e-07
1400.08	1.03205e-06
1408.76	1.94762e-06
1417.44	4.30988e-06
1426.11	1.17379e-05
1434.79	1.92436e-05
1443.47	2.55354e-05
1452.15	3.16267e-05
1460.83	2.04641e-05
1469.5	2.18956e-05
1478.18	1.17601e-05
1486.86	7.33972e-06
1495.54	3.71616e-06
1504.22	1.6484e-06
1512.9	1.03801e-06
1521.57	1.86432e-06
1530.25	2.74881e-06
1538.93	1.15048e-06
1547.61	6.84912e-07
1556.29	2.37351e-07
1564.96	1.76958e-07
1573.64	2.23255e-07
1582.32	2.26953e-07
1591	9.16329e-08
1599.68	2.21233e-08
1608.36	3.25506e-09
1617.03	-3.54594e-07
1625.71	-4.2646e-09
1634.39	-2.3518e-07
1643.07	-7.16232e-08
1651.75	-4.46299e-07
1660.42	1.15369e-08
1669.1	-1.18303e-07
1677.78	2.20766e-07
1686.46	1.93951e-07
1695.14	-2.01404e-07
1703.82	4.68506e-08
1712.49	1.55037e-07
1721.17	1.45646e-07
1729.85	4.79601e-08
1738.53	-3.04206e-08
1747.21	-1.5434e-08
1755.88	2.21706e-08
1764.56	7.4721e-08
1773.24	-1.30281e-07
1781.92	1.0344e-07
1790.6	3.79257e-08
1799.28	-6.833e-08
1807.95	-5.53843e-08
1816.63	-1.86309e-08
1825.31	-5.78026e-08
1833.99	2.80723e-08
1842.67	1.65345e-09
1851.34	2.83015e-08
1860.02	4.08652e-08
1868.7	-6.99707e-08
1877.38	5.15444e-08
1886.06	5.00056e-08
1894.74	6.73023e-08
1903.41	6.67075e-08
1912.09	-1.35887e-08
1920.77	-1.36969e-08
1929.45	-1.55859e-08
1938.13	-4.30607e-08
1946.8	-3.75692e-08
1955.48	-6.82509e-08
1964.16	-2.61915e-08
1972.84	-1.9986e-08
1981.52	4.07915e-08
1990.19	6.58489e-08
1998.87	2.72374e-08
2007.55	1.44281e-07
2016.23	4.64292e-07
2024.91	1.48911e-06
2033.59	2.03135e-06
2042.26	1.34319e-06
2050.94	3.05435e-07
2059.62	1.50481e-07
2068.3	6.27939e-08
2076.98	4.41521e-08
2085.65	8.61514e-08
2094.33	1.83541e-07
2103.01	3.20681e-07
2111.69	3.50595e-07
2120.37	2.97861e-07
2129.05	2.42129e-07
2137.72	1.70257e-07
2146.4	1.53568e-07
2155.08	9.59094e-08
2163.76	1.26024e-07
2172.44	3.05215e-07
2181.11	4.814e-07
2189.79	8.37095e-07
2198.47	9.74976e-07
2207.15	1.3329e-06
2215.83	1.58513e-06
2224.51	1.51471e-06
2233.18	1.48649e-06
2241.86	1.0456e-06
2250.54	7.124e-07
2259.22	3.9277e-07
2267.9	2.41275e-07
2276.57	1.75115e-07
2285.25	1.97027e-07
2293.93	1.94184e-07
2302.61	1.75436e-07
2311.29	1.49448e-07
2319.97	8.92273e-08
2328.64	-1.30971e-07
2337.32	-3.59385e-07
2346	-1.7719e-07
2354.68	-4.22926e-07
2363.36	-7.5765e-07
2372.03	5.30142e-09
2380.71	9.6579e-07
2389.39	1.10056e-06
2398.07	6.74437e-07
2406.75	5.90356e-07
2415.43	5.81885e-07
2424.1	7.05005e-07
2432.78	5.98583e-07
2441.46	5.97544e-07
2450.14	4.90185e-07
2458.82	6.74713e-07
2467.49	5.73751e-07
2476.17	3.68571e-07
2484.85	2.59341e-07
2493.53	3.49925e-07
2502.21	5.09442e-07
2510.89	6.76357e-07
2519.56	7.88865e-07
2528.24	5.28328e-07
2536.92	5.16564e-07
2545.6	3.43757e-07
2554.28	1.94295e-07
2562.95	-2.92001e-08
2571.63	-1.78142e-08
2580.31	-1.17781e-07
2588.99	-9.59885e-08
2597.67	-1.27037e-07
2606.35	-1.01945e-07
2615.02	-9.33655e-08
2623.7	-4.79574e-08
2632.38	-2.94466e-08
2641.06	2.95057e-08
2649.74	3.83568e-08
2658.41	1.01326e-08
2667.09	1.66821e-07
2675.77	6.39019e-07
2684.45	1.79368e-06
2693.13	1.71563e-06
2701.81	4.10686e-07
2710.48	2.0825e-07
2719.16	3.61052e-07
2727.84	4.16686e-07
2736.52	5.62927e-07
2745.2	4.97308e-07
2753.87	1.26349e-06
2762.55	2.27321e-06
2771.23	2.2981e-06
2779.91	2.75298e-07
2788.59	1.50347e-07
2797.27	2.75594e-08
2805.94	-2.51838e-08
2814.62	6.88702e-08
2823.3	1.76468e-07
2831.98	5.46727e-07
2840.66	1.46538e-06
2849.33	3.07487e-06
2858.01	3.68893e-06
2866.69	4.68407e-06
2875.37	4.92582e-06
2884.05	1.00499e-05
2892.73	1.06654e-05
2901.4	1.19524e-05
2910.08	3.60254e-06
2918.76	2.5292e-06
2927.44	2.23808e-06
2936.12	4.61999e-06
2944.79	1.14927e-05
2953.47	2.49286e-05
2962.15	2.74314e-05
2970.83	4.60786e-05
2979.51	5.47106e-05
2988.19	5.67903e-05
2996.86	3.60179e-05
3005.54	2.89879e-05
3014.22	2.40908e-05
3022.9	1.77067e-05
3031.58	1.43595e-05
3040.25	9.97653e-06
3048.93	7.93266e-06
3057.61	5.27932e-06
3066.29	3.00025e-06
3074.97	1.67429e-06
3083.65	9.94385e-07
3092.32	7.28357e-07
3101	6.28546e-07
3109.68	5.70154e-07
3118.36	4.53273e-07
3127.04	3.51856e-07
3135.71	1.44718e-07
3144.39	9.67024e-08
3153.07	4.90442e-08
3161.75	3.39849e-08
3170.43	-3.39895e-08
3179.11	2.83534e-08
3187.78	1.23923e-07
3196.46	2.19616e-07
3205.14	2.09828e-07
3213.82	1.56134e-07
3222.5	1.55853e-07
3231.17	1.32017e-07
3239.85	6.53396e-08
3248.53	6.20263e-08
3257.21	1.10019e-07
3265.89	9.54664e-08
3274.57	1.18874e-07
3283.24	3.88698e-08
3291.92	6.83846e-08
3300.6	-3.51527e-08
3309.28	-3.04779e-08
3317.96	-1.14034e-07
3326.63	-5.94252e-08
3335.31	-7.05473e-08
3343.99	-1.94522e-08
3352.67	-5.05185e-08
3361.35	-1.95377e-08
3370.03	-5.52515e-09
3378.7	6.42609e-08
3387.38	-2.39414e-08
3396.06	-3.92008e-08
3404.74	1.87407e-07
3413.42	1.75268e-07
3422.09	3.6406e-08
3430.77	6.71022e-09
3439.45	-1.20708e-08
3448.13	-2.64371e-08
3456.81	-6.20636e-09
3465.49	-2.7684e-08
3474.16	-1.36596e-08
3482.84	1.03505e-07
3491.52	-6.23601e-08
3500.2	-8.97185e-08
3508.88	-1.07574e-07
3517.55	-1.28803e-07
3526.23	-3.62532e-08
3534.91	-5.12843e-08
3543.59	-6.52705e-08
3552.27	-3.76047e-08
3560.95	-3.0397e-08
3569.62	-1.46037e-07
3578.3	-9.16111e-08
3586.98	-1.32163e-07
3595.66	-5.15699e-08
3604.34	-4.70388e-08
3613.01	1.9725e-08
3621.69	1.2668e-07
3630.37	-1.40553e-08
3639.05	2.66651e-07
3647.73	1.33314e-07
3656.41	2.00789e-07
3665.08	3.04042e-07
3673.76	3.04898e-07
3682.44	3.64125e-07
3691.12	3.19322e-08
3699.8	2.36409e-07
3708.47	1.74213e-07
3717.15	2.12742e-07
3725.83	2.48454e-07
3734.51	3.20345e-07
3743.19	7.37656e-07
3751.87	7.69691e-07
3760.54	1.17349e-06
3769.22	9.8659e-07
3777.9	1.06759e-06
3786.58	9.61717e-07
3795.26	6.26368e-07
3803.93	8.01182e-07
3812.61	4.96303e-07
3821.29	1.92075e-07
3829.97	3.36003e-07
3838.65	4.14782e-08
3847.33	3.19718e-07
3856	1.31475e-07
3864.68	-5.94997e-08
3873.36	-2.94484e-08
3882.04	6.25193e-08
3890.72	1.89019e-08
3899.39	-4.79438e-08
3908.07	9.08562e-08
3916.75	-3.92199e-08
3925.43	3.39021e-08
3934.11	6.5034e-08
3942.79	1.21121e-07
3951.46	2.22685e-07
3960.14	3.11836e-07
3968.82	2.64512e-07
