Infrared Spectrum: 1,2-Dichloroethane
Formula: Cl C H2 C H2 Cl
CAS: 107-06-2
State: gas
Melting point: -35.36 C
Boiling point: 83.47 C
Class: IUPAC A
Instrument: IFS66V (Bruker)
Instrument parameters: KBr Beam Splitter; MCT Detector; Multipass cell
Sampling: 1 L/min Flow
Resolution: 0.1250
Temperature: 23 C
Pressure: 101.3 Pa
Origin: NIST, Analytical Chemistry Division, 301-975-3108
cm-1	(micromol/mol)-1m-1 (base 10)
575.05	1.3757e-06
583.608	4.13995e-07
592.165	7.91774e-07
600.723	-1.59181e-07
609.281	-5.85912e-08
617.838	-2.46197e-07
626.396	-3.11996e-07
634.954	2.82934e-07
643.511	2.64175e-06
652.069	7.39068e-06
660.626	1.46338e-05
669.184	1.40965e-05
677.742	2.45186e-05
686.299	4.0643e-05
694.857	2.95066e-05
703.415	3.86545e-05
711.972	0.000134002
720.53	0.000495515
729.088	0.000517355
737.645	0.000221606
746.203	6.38108e-06
754.761	6.63295e-06
763.318	6.51026e-06
771.876	9.54324e-06
780.434	5.00679e-06
788.991	4.16241e-06
797.549	3.32203e-06
806.106	1.60579e-06
814.664	1.56805e-06
823.222	1.75088e-06
831.779	2.32838e-06
840.337	1.32538e-06
848.895	5.84446e-07
857.452	9.28077e-07
866.01	1.30453e-06
874.568	4.96469e-06
883.125	2.12528e-05
891.683	1.72406e-05
900.241	1.61771e-05
908.798	3.02584e-06
917.356	1.64523e-06
925.914	3.08656e-06
934.471	6.94933e-06
943.029	9.22403e-06
951.586	9.5457e-06
960.144	6.2671e-06
968.702	2.74797e-06
977.259	1.955e-06
985.817	3.09934e-06
994.375	3.55634e-06
1002.93	1.68203e-06
1011.49	2.06686e-06
1020.05	3.72151e-06
1028.61	4.60679e-06
1037.16	2.64508e-06
1045.72	1.1089e-06
1054.28	4.61123e-07
1062.84	-5.6523e-08
1071.39	7.59133e-08
1079.95	3.04056e-07
1088.51	4.83082e-07
1097.07	1.14909e-06
1105.62	1.92675e-06
1114.18	2.73479e-06
1122.74	5.19729e-06
1131.3	2.24017e-06
1139.85	3.39347e-06
1148.41	2.41403e-06
1156.97	1.93683e-06
1165.53	1.22049e-06
1174.09	8.49807e-07
1182.64	1.11915e-06
1191.2	1.84004e-06
1199.76	4.3264e-06
1208.32	6.28293e-06
1216.87	1.61851e-05
1225.43	0.000141891
1233.99	0.000125462
1242.55	8.93136e-05
1251.1	1.30161e-05
1259.66	6.2001e-06
1268.22	4.55287e-06
1276.78	1.06705e-05
1285.33	4.40835e-05
1293.89	2.11612e-05
1302.45	3.18259e-05
1311.01	1.12178e-05
1319.57	1.31892e-05
1328.12	8.04975e-06
1336.68	4.64833e-06
1345.24	3.33403e-06
1353.8	2.73668e-06
1362.35	2.39146e-06
1370.91	1.86345e-06
1379.47	1.1951e-06
1388.03	8.13541e-07
1396.58	7.27943e-07
1405.14	1.0998e-06
1413.7	2.92874e-06
1422.26	7.44074e-06
1430.81	1.67027e-05
1439.37	2.06297e-05
1447.93	2.4564e-05
1456.49	3.01928e-05
1465.05	3.30032e-05
1473.6	1.47354e-05
1482.16	9.84109e-06
1490.72	5.22351e-06
1499.28	2.76341e-06
1507.83	9.67073e-07
1516.39	1.23335e-06
1524.95	2.11777e-06
1533.51	2.4702e-06
1542.06	2.01131e-07
1550.62	5.41609e-07
1559.18	6.20536e-08
1567.74	2.13101e-07
1576.29	-1.19414e-06
1584.85	2.86158e-07
1593.41	9.44296e-08
1601.97	-2.02248e-07
1610.53	3.33856e-08
1619.08	-7.70529e-08
1627.64	-2.8765e-07
1636.2	-1.53434e-07
1644.76	-6.61036e-08
1653.31	-2.33831e-06
1661.87	-4.5037e-08
1670.43	1.79358e-07
1678.99	3.26966e-07
1687.54	1.88284e-07
1696.1	-6.86727e-07
1704.66	-9.79821e-08
1713.22	1.72183e-07
1721.77	2.50378e-07
1730.33	1.41217e-08
1738.89	-2.28209e-08
1747.45	6.99671e-08
1756.01	1.81471e-08
1764.56	9.20768e-08
1773.12	-3.95628e-10
1781.68	7.89692e-08
1790.24	2.53357e-08
1798.79	-7.99569e-08
1807.35	-8.91418e-08
1815.91	3.97311e-08
1824.47	4.48651e-09
1833.02	-2.43025e-08
1841.58	1.91821e-08
1850.14	5.81564e-08
1858.7	1.08931e-07
1867.25	-3.70608e-08
1875.81	7.23317e-09
1884.37	-3.29799e-08
1892.93	1.97712e-07
1901.49	1.6456e-07
1910.04	-2.86726e-08
1918.6	6.25393e-08
1927.16	-2.92692e-08
1935.72	-9.74182e-08
1944.27	-9.71535e-08
1952.83	-5.87049e-08
1961.39	-7.18042e-09
1969.95	-2.03053e-08
1978.5	-9.47061e-08
1987.06	4.73908e-08
1995.62	-8.56912e-08
2004.18	1.03593e-07
2012.73	3.72313e-07
2021.29	1.14097e-06
2029.85	1.94626e-06
2038.41	1.89961e-06
2046.97	6.79145e-07
2055.52	2.69045e-07
2064.08	1.51828e-07
2072.64	-3.41241e-09
2081.2	2.83415e-08
2089.75	5.61801e-08
2098.31	3.27458e-07
2106.87	2.2128e-07
2115.43	4.55742e-07
2123.98	2.21967e-07
2132.54	4.79716e-07
2141.1	2.30455e-07
2149.66	7.30975e-08
2158.21	2.00048e-07
2166.77	1.42665e-07
2175.33	2.23616e-07
2183.89	5.67172e-07
2192.45	7.66382e-07
2201	1.16947e-06
2209.56	1.15352e-06
2218.12	1.60925e-06
2226.68	1.60247e-06
2235.23	1.46528e-06
2243.79	9.19516e-07
2252.35	7.19777e-07
2260.91	3.4871e-07
2269.46	1.92034e-07
2278.02	1.36005e-07
2286.58	2.44017e-07
2295.14	5.96507e-08
2303.69	1.28536e-07
2312.25	3.2418e-07
2320.81	-4.73399e-08
2329.37	3.2268e-07
2337.93	-8.32174e-08
2346.48	1.27269e-07
2355.04	2.80113e-07
2363.6	-2.94129e-08
2372.16	3.29607e-07
2380.71	8.03865e-07
2389.27	1.18047e-06
2397.83	5.71334e-07
2406.39	6.45984e-07
2414.94	6.5104e-07
2423.5	7.8887e-07
2432.06	4.43819e-07
2440.62	6.58538e-07
2449.17	4.10426e-07
2457.73	6.14227e-07
2466.29	5.42978e-07
2474.85	2.95623e-07
2483.41	2.31215e-07
2491.96	3.1002e-07
2500.52	5.98304e-07
2509.08	7.03034e-07
2517.64	6.44957e-07
2526.19	6.38989e-07
2534.75	5.16849e-07
2543.31	3.0663e-07
2551.87	1.80466e-07
2560.42	3.3863e-08
2568.98	-1.13426e-07
2577.54	-9.80903e-08
2586.1	1.42953e-07
2594.65	-7.75104e-08
2603.21	-3.83796e-08
2611.77	-2.8645e-07
2620.33	-1.5502e-07
2628.89	6.71058e-08
2637.44	-1.17965e-07
2646	-3.69198e-08
2654.56	6.25702e-08
2663.12	1.86382e-08
2671.67	3.3699e-07
2680.23	1.51401e-06
2688.79	1.46507e-06
2697.35	1.01666e-06
2705.9	1.31238e-07
2714.46	1.18881e-07
2723.02	5.12081e-07
2731.58	2.69652e-07
2740.13	6.98294e-07
2748.69	6.93596e-07
2757.25	2.0927e-06
2765.81	1.86578e-06
2774.37	1.18102e-06
2782.92	1.7739e-07
2791.48	8.98849e-08
2800.04	8.59977e-08
2808.6	-1.1501e-07
2817.15	-1.19389e-07
2825.71	3.19875e-07
2834.27	5.87956e-07
2842.83	1.70339e-06
2851.38	3.68836e-06
2859.94	3.91886e-06
2868.5	4.73813e-06
2877.06	5.17566e-06
2885.61	1.26342e-05
2894.17	1.00762e-05
2902.73	1.06926e-05
2911.29	3.30976e-06
2919.85	2.12456e-06
2928.4	2.20842e-06
2936.96	4.68665e-06
2945.52	1.20239e-05
2954.08	2.55217e-05
2962.63	2.53227e-05
2971.19	4.86026e-05
2979.75	5.35868e-05
2988.31	5.75896e-05
2996.86	3.76144e-05
3005.42	2.89299e-05
3013.98	2.40433e-05
3022.54	1.83977e-05
3031.09	1.32924e-05
3039.65	9.46702e-06
3048.21	8.20242e-06
3056.77	5.4019e-06
3065.33	3.13698e-06
3073.88	1.62021e-06
3082.44	9.86358e-07
3091	7.01225e-07
3099.56	4.53471e-07
3108.11	5.25977e-07
3116.67	5.30357e-07
3125.23	3.54014e-07
3133.79	-1.9313e-08
3142.34	-1.57251e-08
3150.9	-1.40005e-07
3159.46	4.93171e-08
3168.02	-1.02571e-07
3176.57	-2.8168e-07
3185.13	-1.47714e-07
3193.69	1.75051e-07
3202.25	3.42403e-07
3210.81	1.12264e-07
3219.36	7.29893e-08
3227.92	1.03339e-07
3236.48	-1.95422e-07
3245.04	9.90225e-08
3253.59	8.04762e-08
3262.15	2.13412e-07
3270.71	6.59553e-08
3279.27	7.24582e-08
3287.82	1.20135e-07
3296.38	1.66146e-08
3304.94	-8.02107e-08
3313.5	1.13051e-07
3322.05	3.52225e-07
3330.61	-9.47407e-08
3339.17	-2.10702e-07
3347.73	-1.81529e-07
3356.29	3.28275e-07
3364.84	-3.36539e-08
3373.4	-1.79101e-07
3381.96	-1.41121e-07
3390.52	1.00207e-07
3399.07	2.36245e-07
3407.63	1.69055e-07
3416.19	3.94218e-08
3424.75	-2.40315e-08
3433.3	-4.30234e-08
3441.86	-1.47072e-07
3450.42	-1.23795e-07
3458.98	8.03016e-08
3467.53	1.89086e-07
3476.09	5.39282e-08
3484.65	-1.23892e-07
3493.21	8.54793e-08
3501.77	-3.09354e-07
3510.32	-2.37809e-07
3518.88	1.14596e-10
3527.44	1.89888e-07
3536	-9.76856e-08
3544.55	-3.80412e-08
3553.11	-7.00125e-08
3561.67	9.46461e-08
3570.23	-2.61706e-07
3578.78	-1.68368e-07
3587.34	-2.14905e-07
3595.9	1.50909e-07
3604.46	-1.05073e-07
3613.01	-1.31403e-08
3621.57	8.68154e-08
3630.13	1.99843e-07
3638.69	2.86162e-07
3647.25	-3.14909e-07
3655.8	2.7479e-07
3664.36	3.25262e-07
3672.92	5.31496e-07
3681.48	3.40669e-07
3690.03	3.17005e-07
3698.59	4.34266e-07
3707.15	1.75508e-07
3715.71	1.37672e-07
3724.26	1.59635e-07
3732.82	4.9682e-07
3741.38	6.7468e-07
3749.94	1.14957e-06
3758.49	1.56462e-06
3767.05	8.75163e-07
3775.61	1.40038e-06
3784.17	9.71513e-07
3792.73	1.04541e-06
3801.28	-2.65145e-07
3809.84	5.84277e-07
3818.4	6.12002e-07
3826.96	6.53074e-07
3835.51	2.5797e-07
3844.07	2.253e-07
3852.63	-1.36239e-07
3861.19	2.12175e-07
3869.74	1.24036e-08
3878.3	-9.38357e-08
3886.86	3.11512e-07
3895.42	3.57924e-07
3903.97	-1.99357e-07
3912.53	-1.94564e-07
3921.09	2.54721e-08
3929.65	1.82789e-08
3938.21	-1.55496e-07
3946.76	1.9586e-07
3955.32	3.89223e-07
3963.88	3.83994e-07
3972.44	6.31263e-07
