Infrared Spectrum: 1,2-Dichloroethane
Formula: Cl C H2 C H2 Cl
CAS: 107-06-2
State: gas
Melting point: -35.36 C
Boiling point: 83.47 C
Class: IUPAC A
Instrument: IFS66V (Bruker)
Instrument parameters: KBr Beam Splitter; MCT Detector; Multipass cell
Sampling: 1 L/min Flow
Resolution: 0.1250
Temperature: 23 C
Pressure: 101.3 Pa
Origin: NIST, Analytical Chemistry Division, 301-975-3108
cm-1	(micromol/mol)-1m-1 (base 10)
575.05	4.1545e-06
583.608	-6.21381e-07
592.165	9.28853e-07
600.723	-1.08591e-07
609.281	-1.28882e-06
617.838	-1.04972e-07
626.396	-3.70099e-07
634.954	-4.7752e-07
643.511	3.18125e-06
652.069	7.1641e-06
660.626	1.4453e-05
669.184	1.42534e-05
677.742	2.46286e-05
686.299	4.06367e-05
694.857	2.95409e-05
703.415	3.91408e-05
711.972	0.000133807
720.53	0.000495502
729.088	0.000517485
737.645	0.000220899
746.203	6.58207e-06
754.761	6.83959e-06
763.318	6.46675e-06
771.876	9.7073e-06
780.434	5.03001e-06
788.991	4.10806e-06
797.549	3.49473e-06
806.106	1.32894e-06
814.664	1.55464e-06
823.222	1.42448e-06
831.779	1.96232e-06
840.337	9.50865e-07
848.895	5.73225e-07
857.452	8.6573e-07
866.01	1.27901e-06
874.568	5.17067e-06
883.125	2.1408e-05
891.683	1.76145e-05
900.241	1.60515e-05
908.798	3.02378e-06
917.356	1.56401e-06
925.914	2.91364e-06
934.471	6.82217e-06
943.029	9.05362e-06
951.586	9.54483e-06
960.144	6.45168e-06
968.702	2.75434e-06
977.259	2.01318e-06
985.817	3.07615e-06
994.375	3.7679e-06
1002.93	1.70242e-06
1011.49	2.25844e-06
1020.05	3.82997e-06
1028.61	4.71346e-06
1037.16	2.64565e-06
1045.72	1.21207e-06
1054.28	3.88393e-07
1062.84	-1.76498e-07
1071.39	3.51986e-07
1079.95	4.81453e-07
1088.51	4.66467e-07
1097.07	1.26973e-06
1105.62	2.12425e-06
1114.18	2.53436e-06
1122.74	5.05065e-06
1131.3	2.42522e-06
1139.85	3.44638e-06
1148.41	2.2083e-06
1156.97	2.10666e-06
1165.53	9.55417e-07
1174.09	8.35203e-07
1182.64	1.18351e-06
1191.2	1.8079e-06
1199.76	4.39979e-06
1208.32	6.03991e-06
1216.87	1.62121e-05
1225.43	0.000141796
1233.99	0.000125302
1242.55	8.93785e-05
1251.1	1.30906e-05
1259.66	5.85913e-06
1268.22	4.39895e-06
1276.78	1.06926e-05
1285.33	4.42202e-05
1293.89	2.11889e-05
1302.45	3.19216e-05
1311.01	1.12274e-05
1319.57	1.34298e-05
1328.12	8.0739e-06
1336.68	4.6473e-06
1345.24	3.12467e-06
1353.8	2.43005e-06
1362.35	2.5271e-06
1370.91	2.1446e-06
1379.47	1.12322e-06
1388.03	7.32774e-07
1396.58	8.12193e-07
1405.14	1.04456e-06
1413.7	3.09394e-06
1422.26	7.53298e-06
1430.81	1.65123e-05
1439.37	2.07019e-05
1447.93	2.45776e-05
1456.49	2.99213e-05
1465.05	3.3381e-05
1473.6	1.45909e-05
1482.16	9.99665e-06
1490.72	5.1151e-06
1499.28	2.60049e-06
1507.83	1.15978e-06
1516.39	1.22183e-06
1524.95	2.20314e-06
1533.51	2.51722e-06
1542.06	2.63318e-07
1550.62	6.38006e-07
1559.18	1.32076e-08
1567.74	1.70246e-07
1576.29	-1.08847e-06
1584.85	4.29625e-07
1593.41	1.24084e-07
1601.97	-2.20773e-07
1610.53	5.51124e-08
1619.08	-6.95787e-08
1627.64	-1.75668e-07
1636.2	-2.65975e-07
1644.76	-1.68558e-07
1653.31	-2.56952e-06
1661.87	5.91241e-08
1670.43	1.82224e-07
1678.99	3.63764e-07
1687.54	1.61861e-07
1696.1	-4.70966e-07
1704.66	-2.0599e-08
1713.22	1.14656e-07
1721.77	2.38301e-07
1730.33	5.92014e-08
1738.89	6.67266e-08
1747.45	3.07508e-08
1756.01	1.04882e-07
1764.56	1.3959e-07
1773.12	2.21997e-08
1781.68	-1.06639e-07
1790.24	1.1981e-07
1798.79	5.84811e-08
1807.35	-2.15644e-07
1815.91	-1.29119e-07
1824.47	1.99284e-07
1833.02	-2.2187e-08
1841.58	-1.76059e-08
1850.14	5.78745e-08
1858.7	1.08311e-07
1867.25	-7.51311e-08
1875.81	4.12108e-08
1884.37	-6.5506e-08
1892.93	3.06515e-07
1901.49	1.29294e-07
1910.04	-1.26716e-07
1918.6	8.51546e-08
1927.16	1.4711e-08
1935.72	-4.23213e-08
1944.27	-8.33757e-08
1952.83	-1.82154e-07
1961.39	5.65876e-08
1969.95	-1.17573e-07
1978.5	-9.52382e-08
1987.06	-3.56484e-08
1995.62	-1.09393e-07
2004.18	2.27867e-07
2012.73	3.86814e-07
2021.29	1.25877e-06
2029.85	1.82461e-06
2038.41	2.03148e-06
2046.97	7.56087e-07
2055.52	2.61103e-07
2064.08	9.48753e-08
2072.64	-5.27386e-08
2081.2	2.09683e-08
2089.75	-6.93286e-08
2098.31	4.14351e-07
2106.87	2.23715e-07
2115.43	4.43e-07
2123.98	7.23836e-08
2132.54	6.33601e-07
2141.1	2.87757e-07
2149.66	6.3868e-08
2158.21	2.38697e-07
2166.77	1.27196e-07
2175.33	2.34429e-07
2183.89	4.61903e-07
2192.45	6.87188e-07
2201	1.27288e-06
2209.56	9.635e-07
2218.12	1.53688e-06
2226.68	1.73086e-06
2235.23	1.58204e-06
2243.79	8.39477e-07
2252.35	6.27046e-07
2260.91	4.35605e-07
2269.46	1.50481e-07
2278.02	3.60158e-10
2286.58	2.01883e-07
2295.14	5.36736e-08
2303.69	4.69679e-08
2312.25	1.53299e-07
2320.81	-1.74887e-07
2329.37	3.18311e-07
2337.93	-1.75301e-07
2346.48	2.12903e-07
2355.04	3.79922e-07
2363.6	-1.3634e-07
2372.16	3.82678e-07
2380.71	8.06414e-07
2389.27	1.34655e-06
2397.83	5.04597e-07
2406.39	5.56957e-07
2414.94	6.06873e-07
2423.5	8.21259e-07
2432.06	3.61766e-07
2440.62	7.21622e-07
2449.17	3.64653e-07
2457.73	5.85241e-07
2466.29	4.3111e-07
2474.85	3.28311e-07
2483.41	2.36464e-07
2491.96	2.19634e-07
2500.52	6.46517e-07
2509.08	7.51833e-07
2517.64	5.3185e-07
2526.19	4.5544e-07
2534.75	6.3166e-07
2543.31	1.49939e-07
2551.87	6.04756e-08
2560.42	6.16152e-08
2568.98	-2.4067e-07
2577.54	-9.55947e-08
2586.1	6.00091e-08
2594.65	-1.19146e-07
2603.21	2.75093e-08
2611.77	-3.05257e-07
2620.33	5.50678e-08
2628.89	3.07502e-07
2637.44	-2.58459e-08
2646	-1.87e-08
2654.56	1.11503e-07
2663.12	5.11252e-08
2671.67	2.28245e-07
2680.23	1.5264e-06
2688.79	1.47533e-06
2697.35	1.01247e-06
2705.9	8.53229e-08
2714.46	4.68669e-08
2723.02	5.42493e-07
2731.58	2.99561e-07
2740.13	8.51308e-07
2748.69	5.37819e-07
2757.25	1.84938e-06
2765.81	1.74991e-06
2774.37	1.17377e-06
2782.92	1.87061e-07
2791.48	2.17173e-07
2800.04	3.34045e-07
2808.6	1.35387e-08
2817.15	-3.04203e-07
2825.71	2.90579e-07
2834.27	3.75453e-07
2842.83	1.71533e-06
2851.38	3.88348e-06
2859.94	4.03552e-06
2868.5	4.81453e-06
2877.06	5.22986e-06
2885.61	1.25301e-05
2894.17	9.99113e-06
2902.73	1.08513e-05
2911.29	3.30963e-06
2919.85	1.88962e-06
2928.4	2.2553e-06
2936.96	4.5095e-06
2945.52	1.19902e-05
2954.08	2.53943e-05
2962.63	2.48077e-05
2971.19	4.84414e-05
2979.75	5.33708e-05
2988.31	5.76948e-05
2996.86	3.7639e-05
3005.42	2.88799e-05
3013.98	2.3894e-05
3022.54	1.84661e-05
3031.09	1.31192e-05
3039.65	9.1301e-06
3048.21	8.38361e-06
3056.77	5.19831e-06
3065.33	3.01715e-06
3073.88	1.61225e-06
3082.44	1.22087e-06
3091	6.17329e-07
3099.56	2.04719e-07
3108.11	3.38765e-07
3116.67	5.17173e-07
3125.23	5.1847e-07
3133.79	-2.0239e-07
3142.34	-2.74424e-07
3150.9	-4.25508e-07
3159.46	3.69607e-07
3168.02	-1.47981e-07
3176.57	-3.27469e-07
3185.13	-2.29422e-07
3193.69	2.51712e-07
3202.25	7.13149e-07
3210.81	-4.49243e-08
3219.36	-5.91305e-08
3227.92	4.06173e-07
3236.48	1.04701e-07
3245.04	2.31904e-07
3253.59	2.34548e-08
3262.15	-2.39833e-08
3270.71	4.42362e-07
3279.27	-1.3504e-07
3287.82	9.12237e-08
3296.38	-3.73431e-07
3304.94	3.25848e-07
3313.5	3.16875e-07
3322.05	4.39276e-07
3330.61	1.82089e-08
3339.17	-3.61539e-07
3347.73	-2.11294e-07
3356.29	6.11842e-07
3364.84	4.01583e-07
3373.4	-1.50137e-07
3381.96	4.98328e-08
3390.52	1.70137e-07
3399.07	2.68692e-07
3407.63	6.16871e-07
3416.19	-6.87074e-08
3424.75	1.05575e-07
3433.3	-6.01173e-10
3441.86	-7.92102e-08
3450.42	-2.65273e-07
3458.98	4.00894e-07
3467.53	-3.47143e-08
3476.09	-9.56711e-08
3484.65	1.92514e-07
3493.21	1.93988e-07
3501.77	-7.21352e-07
3510.32	-2.38094e-07
3518.88	2.68896e-07
3527.44	3.4297e-07
3536	-2.82146e-07
3544.55	4.52539e-07
3553.11	-1.37972e-07
3561.67	3.55354e-07
3570.23	-2.7698e-07
3578.78	7.39515e-08
3587.34	-4.40642e-07
3595.9	1.69206e-07
3604.46	7.53767e-08
3613.01	-6.88457e-08
3621.57	2.08246e-08
3630.13	2.83443e-07
3638.69	4.04528e-07
3647.25	-5.34533e-07
3655.8	4.51662e-07
3664.36	2.41044e-07
3672.92	6.03738e-07
3681.48	5.17888e-07
3690.03	2.85327e-07
3698.59	4.97104e-07
3707.15	2.85889e-08
3715.71	-1.99742e-08
3724.26	1.91677e-07
3732.82	4.07245e-07
3741.38	8.59344e-07
3749.94	1.01352e-06
3758.49	1.61671e-06
3767.05	1.03666e-06
3775.61	1.62299e-06
3784.17	1.07746e-06
3792.73	1.02361e-06
3801.28	-1.47057e-07
3809.84	4.97311e-07
3818.4	6.41216e-07
3826.96	8.11124e-07
3835.51	2.51422e-07
3844.07	2.56428e-07
3852.63	-3.646e-07
3861.19	3.97835e-07
3869.74	-6.64337e-08
3878.3	-2.43359e-07
3886.86	7.28762e-07
3895.42	5.74458e-07
3903.97	-1.00746e-07
3912.53	-5.8301e-08
3921.09	6.23828e-08
3929.65	2.44479e-07
3938.21	-4.30939e-07
3946.76	3.82997e-07
3955.32	5.12241e-07
3963.88	2.58454e-07
3972.44	6.52899e-07
