Infrared Spectrum: 1,2-Dichloroethane
Formula: Cl C H2 C H2 Cl
CAS: 107-06-2
State: gas
Melting point: -35.36 C
Boiling point: 83.47 C
Class: IUPAC A
Instrument: IFS66V (Bruker)
Instrument parameters: KBr Beam Splitter; MCT Detector; Multipass cell
Sampling: 1 L/min Flow
Resolution: 0.4820
Temperature: 23 C
Pressure: 101.3 Pa
Origin: NIST, Analytical Chemistry Division, 301-975-3108
cm-1	(micromol/mol)-1m-1 (base 10)
575.17	1.036e-07
583.848	1.00766e-06
592.526	1.20155e-06
601.205	-3.60424e-07
609.883	-5.50554e-07
618.561	2.14765e-07
627.239	6.50575e-07
635.917	6.57951e-07
644.595	3.25593e-06
653.274	8.37347e-06
661.952	1.53551e-05
670.63	1.56542e-05
679.308	2.60173e-05
687.986	3.98028e-05
696.664	3.08753e-05
705.343	4.09844e-05
714.021	0.000201206
722.699	0.000550511
731.377	0.000603103
740.055	5.75433e-05
748.734	6.00084e-06
757.412	7.0973e-06
766.09	7.76968e-06
774.768	6.10983e-06
783.446	4.56002e-06
792.124	4.08826e-06
800.803	2.72761e-06
809.481	1.84084e-06
818.159	1.71551e-06
826.837	1.97134e-06
835.515	1.83538e-06
844.193	1.09768e-06
852.872	7.14198e-07
861.55	9.08448e-07
870.228	2.3573e-06
878.906	1.24805e-05
887.584	1.97027e-05
896.263	2.18074e-05
904.941	6.39688e-06
913.619	2.09574e-06
922.297	2.22838e-06
930.975	5.13031e-06
939.653	9.18353e-06
948.332	7.6198e-06
957.01	8.44339e-06
965.688	3.63153e-06
974.366	1.76474e-06
983.044	2.68437e-06
991.723	3.30554e-06
1000.4	2.10875e-06
1009.08	1.74052e-06
1017.76	3.32402e-06
1026.44	4.79679e-06
1035.11	3.15941e-06
1043.79	1.13022e-06
1052.47	4.47881e-07
1061.15	7.47955e-08
1069.83	7.66627e-08
1078.5	2.88686e-07
1087.18	4.59799e-07
1095.86	9.96422e-07
1104.54	1.80046e-06
1113.22	2.19952e-06
1121.9	4.02538e-06
1130.57	3.78075e-06
1139.25	3.0325e-06
1147.93	2.42448e-06
1156.61	1.95098e-06
1165.29	1.27635e-06
1173.96	8.62392e-07
1182.64	1.00061e-06
1191.32	1.86521e-06
1200	3.83346e-06
1208.68	7.06608e-06
1217.36	1.83634e-05
1226.03	0.000152583
1234.71	0.000141739
1243.39	7.0021e-05
1252.07	9.32692e-06
1260.75	6.02737e-06
1269.42	4.76086e-06
1278.1	1.48735e-05
1286.78	4.31193e-05
1295.46	3.5202e-05
1304.14	2.38638e-05
1312.82	9.48528e-06
1321.49	1.14925e-05
1330.17	7.03765e-06
1338.85	4.07292e-06
1347.53	2.96957e-06
1356.21	2.95267e-06
1364.88	2.31303e-06
1373.56	1.167e-06
1382.24	1.19409e-06
1390.92	8.88217e-07
1399.6	8.76246e-07
1408.28	1.70959e-06
1416.95	3.94499e-06
1425.63	1.12827e-05
1434.31	1.79714e-05
1442.99	2.66647e-05
1451.67	3.02548e-05
1460.34	1.81425e-05
1469.02	2.173e-05
1477.7	1.30403e-05
1486.38	7.95448e-06
1495.06	4.03001e-06
1503.73	1.79979e-06
1512.41	6.86474e-07
1521.09	1.39398e-06
1529.77	2.73652e-06
1538.45	1.58736e-06
1547.13	7.218e-07
1555.8	1.76931e-07
1564.48	1.61558e-07
1573.16	2.48097e-07
1581.84	2.07929e-07
1590.52	1.06669e-07
1599.19	1.47656e-08
1607.87	3.6426e-08
1616.55	-1.04016e-06
1625.23	1.17215e-08
1633.91	-6.96433e-08
1642.59	-1.86066e-07
1651.26	-1.20988e-07
1659.94	-4.59447e-08
1668.62	2.78486e-08
1677.3	1.78597e-07
1685.98	1.5639e-07
1694.65	1.43584e-07
1703.33	8.09146e-08
1712.01	2.43841e-07
1720.69	1.74233e-07
1729.37	7.79669e-08
1738.05	2.63461e-08
1746.72	-5.62738e-08
1755.4	5.86039e-08
1764.08	5.10069e-08
1772.76	-7.50439e-07
1781.44	9.80812e-08
1790.11	7.32367e-08
1798.79	-4.61366e-08
1807.47	-1.1554e-07
1816.15	6.85455e-08
1824.83	-8.20333e-08
1833.51	-7.06583e-09
1842.18	-1.89829e-08
1850.86	1.02224e-07
1859.54	1.451e-08
1868.22	-2.41651e-08
1876.9	8.29519e-08
1885.57	1.40517e-07
1894.25	1.8972e-08
1902.93	5.05003e-08
1911.61	-4.74581e-08
1920.29	-1.21526e-08
1928.97	-4.24832e-08
1937.64	-3.80658e-08
1946.32	-8.72337e-08
1955	-4.82785e-08
1963.68	-1.32977e-08
1972.36	-7.81798e-09
1981.03	6.65292e-09
1989.71	-1.44927e-08
1998.39	-4.33836e-08
2007.07	1.20587e-07
2015.75	3.73562e-07
2024.43	1.46912e-06
2033.1	2.04489e-06
2041.78	1.48591e-06
2050.46	3.24251e-07
2059.14	1.04458e-07
2067.82	5.77553e-08
2076.49	8.03434e-08
2085.17	7.93194e-08
2093.85	1.34496e-07
2102.53	3.3872e-07
2111.21	3.32008e-07
2119.89	2.98868e-07
2128.56	1.62848e-07
2137.24	2.03066e-07
2145.92	1.89483e-07
2154.6	7.29911e-08
2163.28	8.88899e-08
2171.95	3.08266e-07
2180.63	4.66432e-07
2189.31	8.71009e-07
2197.99	9.9553e-07
2206.67	1.22851e-06
2215.35	1.6875e-06
2224.02	1.49987e-06
2232.7	1.4309e-06
2241.38	1.11514e-06
2250.06	6.91263e-07
2258.74	3.7216e-07
2267.41	2.20565e-07
2276.09	1.75142e-07
2284.77	1.93545e-07
2293.45	1.92214e-07
2302.13	1.93939e-07
2310.81	1.02144e-07
2319.48	9.89189e-08
2328.16	3.07055e-07
2336.84	2.02195e-07
2345.52	-6.57416e-08
2354.2	-6.48127e-07
2362.87	-2.02885e-06
2371.55	-5.41197e-07
2380.23	1.0615e-06
2388.91	1.13914e-06
2397.59	6.75166e-07
2406.27	6.00806e-07
2414.94	6.2303e-07
2423.62	7.48044e-07
2432.3	6.29252e-07
2440.98	6.05903e-07
2449.66	4.88312e-07
2458.33	7.92726e-07
2467.01	5.53915e-07
2475.69	3.59144e-07
2484.37	2.72587e-07
2493.05	3.67742e-07
2501.73	3.99415e-07
2510.4	6.2297e-07
2519.08	8.06044e-07
2527.76	6.36734e-07
2536.44	5.07238e-07
2545.12	3.45226e-07
2553.79	2.77062e-07
2562.47	-6.09467e-08
2571.15	5.23293e-08
2579.83	-4.64895e-08
2588.51	-2.12248e-08
2597.19	-1.42229e-07
2605.86	-2.12583e-07
2614.54	-1.48646e-07
2623.22	-6.36561e-08
2631.9	-1.0259e-09
2640.58	8.91209e-08
2649.25	-3.95019e-08
2657.93	-3.19049e-09
2666.61	1.00376e-07
2675.29	5.66067e-07
2683.97	1.76613e-06
2692.65	1.7874e-06
2701.32	3.25511e-07
2710	2.07673e-07
2718.68	3.46925e-07
2727.36	4.01108e-07
2736.04	6.34972e-07
2744.71	3.84292e-07
2753.39	1.11432e-06
2762.07	2.318e-06
2770.75	2.43551e-06
2779.43	1.09136e-07
2788.11	1.06295e-07
2796.78	2.06291e-08
2805.46	-9.73955e-08
2814.14	2.72802e-08
2822.82	7.54677e-08
2831.5	4.5718e-07
2840.17	1.31464e-06
2848.85	2.99382e-06
2857.53	3.56082e-06
2866.21	4.45702e-06
2874.89	4.98281e-06
2883.57	8.98978e-06
2892.24	1.13729e-05
2900.92	1.35536e-05
2909.6	3.67818e-06
2918.28	2.49198e-06
2926.96	2.0797e-06
2935.63	4.03901e-06
2944.31	1.08596e-05
2952.99	2.4304e-05
2961.67	2.8447e-05
2970.35	4.47446e-05
2979.03	5.83507e-05
2987.7	5.97671e-05
2996.38	3.64633e-05
3005.06	2.86757e-05
3013.74	2.43497e-05
3022.42	1.84375e-05
3031.09	1.33785e-05
3039.77	9.47277e-06
3048.45	7.9196e-06
3057.13	5.43562e-06
3065.81	2.91265e-06
3074.49	1.62185e-06
3083.16	9.32804e-07
3091.84	5.60028e-07
3100.52	6.36437e-07
3109.2	5.26427e-07
3117.88	3.48115e-07
3126.55	3.44082e-07
3135.23	1.29557e-08
3143.91	1.3341e-07
3152.59	1.04331e-07
3161.27	-5.95652e-08
3169.95	-1.09255e-07
3178.62	-1.90964e-07
3187.3	8.51128e-08
3195.98	2.636e-07
3204.66	1.443e-07
3213.34	-1.05946e-08
3222.01	5.62401e-08
3230.69	1.34097e-07
3239.37	-8.08537e-09
3248.05	8.95311e-08
3256.73	2.16308e-07
3265.4	-4.5138e-08
3274.08	2.18942e-08
3282.76	1.1677e-07
3291.44	1.08963e-07
3300.12	1.33377e-08
3308.8	-7.33413e-09
3317.47	-1.20082e-07
3326.15	-1.87917e-07
3334.83	-1.14585e-07
3343.51	-1.00575e-07
3352.19	-4.66223e-08
3360.86	1.96031e-08
3369.54	-8.63224e-08
3378.22	2.1705e-08
3386.9	-1.10057e-07
3395.58	-1.19703e-07
3404.26	8.96939e-08
3412.93	2.27867e-07
3421.61	-1.43535e-07
3430.29	-7.33831e-08
3438.97	1.48087e-07
3447.65	-1.05329e-07
3456.32	-1.11363e-07
3465	-5.42511e-09
3473.68	-1.9597e-07
3482.36	7.69465e-08
3491.04	1.11535e-07
3499.72	-1.29402e-08
3508.39	-6.38071e-08
3517.07	-1.57592e-07
3525.75	-4.67478e-09
3534.43	-1.83957e-07
3543.11	-1.47408e-07
3551.78	-2.36786e-08
3560.46	-9.00968e-08
3569.14	-1.8344e-07
3577.82	-2.01437e-07
3586.5	-2.48919e-07
3595.18	-1.2785e-07
3603.85	5.65885e-08
3612.53	-1.31498e-07
3621.21	1.62901e-07
3629.89	-1.10348e-08
3638.57	2.38811e-07
3647.24	-3.69308e-08
3655.92	9.51363e-08
3664.6	2.81467e-07
3673.28	3.13143e-07
3681.96	3.41354e-07
3690.64	1.07875e-08
3699.31	2.31479e-07
3707.99	2.28056e-07
3716.67	1.49574e-07
3725.35	1.9935e-07
3734.03	4.22284e-07
3742.7	9.78489e-07
3751.38	1.10692e-06
3760.06	9.949e-07
3768.74	9.86767e-07
3777.42	1.01697e-06
3786.1	9.14127e-07
3794.77	7.00314e-07
3803.45	9.07606e-07
3812.13	5.07061e-07
3820.81	3.74455e-08
3829.49	3.14805e-07
3838.16	-3.57213e-07
3846.84	3.61326e-07
3855.52	4.45241e-08
3864.2	-6.43692e-08
3872.88	6.38708e-08
3881.56	3.107e-08
3890.23	1.90676e-07
3898.91	7.67619e-08
3907.59	1.01617e-07
3916.27	1.25391e-08
3924.95	3.37903e-08
3933.62	-3.49071e-08
3942.3	1.76546e-07
3950.98	2.96828e-07
3959.66	3.17848e-07
3968.34	2.07693e-07
