Infrared Spectrum: Nitrile-Propenoic Acid
Formula: C H2: C H C N
CAS: 107-13-1
State: gas
Melting point: -83.5 C
Boiling point: 77.5 C
Class: IUPAC A
Instrument: IFS66V (Bruker)
Instrument parameters: KBr Beam splitter; MCT Detector; Multipass cell
Sampling: 1 L/min Flow
Resolution: 1.9290
Temperature: 23 C
Pressure: 101.3 kPa
Origin: NIST, Anayltical Chemistry Division, 301-975-3108
cm-1	(micromol/mol)-1m-1 (base 10)
574.687	2.50813e-07
583.365	4.89612e-07
592.043	3.60191e-07
600.721	5.53736e-07
609.4	3.49403e-07
618.078	1.251e-06
626.756	2.38011e-06
635.434	5.07986e-06
644.112	8.63726e-06
652.79	2.11963e-05
661.469	1.72913e-05
670.147	1.50964e-05
678.825	2.91921e-05
687.503	1.66374e-05
696.181	2.33001e-05
704.859	2.13436e-05
713.537	9.68336e-06
722.216	1.3181e-05
730.894	5.2414e-06
739.572	4.47616e-06
748.25	2.41615e-06
756.928	1.36225e-06
765.606	2.00065e-06
774.285	4.3732e-06
782.963	4.07141e-06
791.641	3.69081e-06
800.319	3.04617e-06
808.997	5.52383e-07
817.675	3.42915e-07
826.353	3.05563e-08
835.032	2.04955e-07
843.71	8.62096e-07
852.388	4.64167e-06
861.066	8.55573e-06
869.744	4.11491e-06
878.422	8.5647e-06
887.101	6.83975e-06
895.779	9.43631e-06
904.457	1.55689e-05
913.135	2.55123e-05
921.813	5.28256e-05
930.491	8.26783e-05
939.169	7.68532e-05
947.848	0.000119726
956.526	0.00010321
965.204	8.02218e-05
973.882	8.69649e-05
982.56	7.59628e-05
991.238	7.70506e-05
999.917	5.63977e-05
1008.59	4.34591e-05
1017.27	2.21074e-05
1025.95	1.34838e-05
1034.63	5.42859e-06
1043.31	2.39597e-06
1051.99	1.15974e-06
1060.66	1.46363e-06
1069.34	1.52207e-06
1078.02	7.75937e-06
1086.7	1.26116e-05
1095.38	9.19692e-06
1104.05	8.44915e-06
1112.73	3.36632e-06
1121.41	5.05397e-07
1130.09	4.04283e-07
1138.77	6.29315e-08
1147.45	2.42744e-07
1156.12	1.49055e-08
1164.8	3.41736e-07
1173.48	9.024e-08
1182.16	3.18378e-07
1190.84	1.70507e-07
1199.51	3.87841e-07
1208.19	3.41201e-07
1216.87	3.48751e-07
1225.55	2.05403e-07
1234.23	3.082e-07
1242.9	4.5353e-08
1251.58	3.08329e-07
1260.26	6.32454e-07
1268.94	2.45965e-06
1277.62	2.05907e-06
1286.3	3.17656e-06
1294.97	3.09277e-06
1303.65	1.84259e-06
1312.33	2.51923e-06
1321.01	2.36615e-06
1329.69	2.34832e-06
1338.36	3.2534e-06
1347.04	2.79008e-06
1355.72	3.31771e-06
1364.4	3.04306e-06
1373.08	5.09201e-06
1381.76	4.2525e-06
1390.43	6.0259e-06
1399.11	1.61942e-05
1407.79	2.28196e-05
1416.47	1.07737e-05
1425.15	2.54565e-05
1433.82	1.19484e-05
1442.5	8.73817e-06
1451.18	4.08302e-06
1459.86	2.43643e-06
1468.54	1.24503e-06
1477.22	7.18296e-07
1485.89	2.4982e-07
1494.57	2.42313e-08
1503.25	2.37909e-07
1511.93	7.08843e-07
1520.61	1.55998e-06
1529.28	4.54444e-07
1537.96	3.82314e-07
1546.64	3.69058e-07
1555.32	2.85372e-07
1564	8.16876e-07
1572.67	7.28231e-07
1581.35	1.58641e-06
1590.03	3.49168e-06
1598.71	1.04471e-05
1607.39	1.37485e-05
1616.07	7.09099e-06
1624.74	1.63461e-05
1633.42	9.41648e-06
1642.1	9.21559e-06
1650.78	5.25063e-06
1659.46	7.7764e-06
1668.13	4.78563e-06
1676.81	1.63869e-06
1685.49	3.28808e-06
1694.17	5.80505e-07
1702.85	5.70452e-07
1711.53	6.00889e-08
1720.2	2.70866e-07
1728.88	8.60655e-08
1737.56	5.05052e-07
1746.24	2.53667e-07
1754.92	1.56539e-07
1763.59	-1.04819e-07
1772.27	1.47948e-06
1780.95	2.87418e-07
1789.63	6.28178e-08
1798.31	-1.77303e-07
1806.98	1.24399e-07
1815.66	-6.39333e-08
1824.34	4.71854e-07
1833.02	6.09213e-07
1841.7	7.58799e-07
1850.38	9.21097e-07
1859.05	7.83791e-07
1867.73	1.08084e-06
1876.41	1.77825e-06
1885.09	5.45096e-06
1893.77	1.38026e-05
1902.44	1.5494e-05
1911.12	1.33577e-05
1919.8	1.62451e-05
1928.48	7.56223e-06
1937.16	2.76886e-06
1945.84	3.91257e-06
1954.51	1.67378e-06
1963.19	1.18269e-06
1971.87	5.97101e-07
1980.55	5.56355e-07
1989.23	2.30746e-07
1997.9	2.87239e-07
2006.58	2.76418e-08
2015.26	9.70779e-08
2023.94	1.48204e-08
2032.62	1.44796e-07
2041.3	3.27599e-08
2049.97	1.77342e-07
2058.65	2.43754e-08
2067.33	1.92512e-07
2076.01	-5.97619e-09
2084.69	1.20891e-07
2093.36	-1.10293e-08
2102.04	1.20507e-07
2110.72	-3.72409e-08
2119.4	9.73044e-08
2128.08	-4.63826e-08
2136.75	8.01634e-08
2145.43	-2.92107e-08
2154.11	1.35023e-07
2162.79	5.1904e-09
2171.47	1.20209e-07
2180.15	3.78207e-08
2188.82	1.52123e-07
2197.5	2.65973e-08
2206.18	2.24162e-07
2214.86	5.46424e-07
2223.54	1.84401e-06
2232.21	2.30019e-06
2240.89	3.41447e-06
2249.57	2.65207e-06
2258.25	9.19389e-07
2266.93	8.75755e-07
2275.61	1.22251e-06
2284.28	8.48566e-07
2292.96	1.58302e-06
2301.64	3.76997e-07
2310.32	5.45517e-07
2319	2.13393e-07
2327.67	2.37766e-07
2336.35	1.47606e-07
2345.03	2.60839e-07
2353.71	2.58287e-07
2362.39	5.35822e-07
2371.06	4.35948e-07
2379.74	7.46017e-07
2388.42	5.19059e-07
2397.1	5.95416e-07
2405.78	3.21855e-07
2414.46	3.06112e-07
2423.13	1.549e-07
2431.81	3.25596e-07
2440.49	2.15916e-07
2449.17	5.78957e-07
2457.85	4.92201e-07
2466.52	6.03473e-07
2475.2	7.12995e-07
2483.88	6.86999e-07
2492.56	3.79792e-07
2501.24	3.63664e-07
2509.92	1.59204e-07
2518.59	2.84839e-07
2527.27	1.6086e-07
2535.95	2.6828e-07
2544.63	2.5257e-07
2553.31	4.8589e-07
2561.98	3.33405e-07
2570.66	3.60836e-07
2579.34	1.37668e-07
2588.02	2.47625e-07
2596.7	5.32064e-08
2605.38	1.39371e-07
2614.05	1.11343e-08
2622.73	5.95632e-08
2631.41	-5.04525e-08
2640.09	5.00628e-08
2648.77	-1.00239e-07
2657.44	9.38652e-08
2666.12	-7.52017e-08
2674.8	1.75396e-07
2683.48	1.60685e-07
2692.16	5.75368e-07
2700.83	5.74579e-07
2709.51	6.69848e-07
2718.19	5.10595e-07
2726.87	3.409e-07
2735.55	9.38729e-08
2744.23	1.98819e-07
2752.9	-3.0679e-08
2761.58	1.04308e-07
2770.26	5.59444e-08
2778.94	2.28581e-07
2787.62	1.00401e-07
2796.29	2.04643e-07
2804.97	1.8372e-07
2813.65	1.27011e-07
2822.33	2.48247e-08
2831.01	7.3144e-08
2839.69	-1.56423e-07
2848.36	-1.123e-07
2857.04	-1.40153e-07
2865.72	-3.16772e-09
2874.4	-5.34365e-09
2883.08	1.85906e-07
2891.75	1.93259e-07
2900.43	4.41379e-07
2909.11	1.87378e-07
2917.79	2.50249e-07
2926.47	-2.88087e-08
2935.14	1.08052e-07
2943.82	-6.26172e-08
2952.5	9.14887e-08
2961.18	-5.53373e-08
2969.86	1.03952e-07
2978.54	5.80944e-08
2987.21	4.63028e-07
2995.89	2.0238e-07
3004.57	5.44601e-07
3013.25	4.90928e-07
3021.93	2.0519e-06
3030.6	5.93948e-06
3039.28	5.48371e-06
3047.96	6.00647e-06
3056.64	6.93982e-06
3065.32	2.14269e-06
3074	1.24727e-06
3082.67	9.31604e-07
3091.35	1.85734e-06
3100.03	2.35994e-06
3108.71	6.24487e-06
3117.39	9.29745e-06
3126.06	3.52085e-06
3134.74	1.02233e-05
3143.42	4.36894e-06
3152.1	1.85634e-06
3160.78	1.32435e-06
3169.46	5.20458e-07
3178.13	4.13881e-07
3186.81	7.89479e-08
3195.49	5.83968e-08
3204.17	-1.63377e-07
3212.85	9.86786e-11
3221.52	-1.86305e-07
3230.2	1.07273e-09
3238.88	-1.70228e-07
3247.56	-1.19293e-07
3256.24	-2.10943e-07
3264.91	2.34855e-08
3273.59	-1.65246e-07
3282.27	-4.60974e-08
3290.95	-1.49431e-07
3299.63	9.62857e-08
3308.31	-5.49903e-08
3316.98	2.76373e-07
3325.66	1.44085e-07
3334.34	3.55023e-07
3343.02	4.26979e-07
3351.7	2.18362e-07
3360.37	5.83163e-08
3369.05	4.53148e-08
3377.73	-1.06769e-07
3386.41	2.21085e-08
3395.09	-6.98535e-08
3403.77	2.63763e-08
3412.44	-1.39036e-07
3421.12	6.87726e-08
3429.8	-8.96133e-08
3438.48	1.15416e-07
3447.16	3.64765e-08
3455.83	1.22223e-07
3464.51	-1.1157e-07
3473.19	1.4709e-08
3481.87	-5.79234e-08
3490.55	8.7045e-08
3499.22	1.47709e-08
3507.9	1.09032e-07
3516.58	1.59339e-07
3525.26	2.55859e-07
3533.94	1.41315e-07
3542.62	2.61344e-07
3551.29	-1.30356e-08
3559.97	1.94574e-07
3568.65	3.30355e-07
3577.33	1.47534e-07
3586.01	3.48796e-07
3594.68	2.40794e-07
3603.36	3.53347e-08
3612.04	7.33999e-07
3620.72	7.35237e-08
3629.4	1.90013e-06
3638.08	3.78226e-07
3646.75	1.16995e-06
3655.43	7.56167e-07
3664.11	3.93878e-07
3672.79	3.18501e-07
3681.47	-5.57689e-08
3690.14	-1.82232e-07
3698.82	9.03214e-08
3707.5	-7.03392e-09
3716.18	3.50673e-08
3724.86	2.08678e-07
3733.54	-4.61031e-07
3742.21	2.60791e-07
3750.89	-6.67059e-07
3759.57	5.07314e-07
3768.25	6.18428e-08
3776.93	-1.01405e-07
3785.6	1.41747e-07
3794.28	-2.01212e-07
3802.96	-6.00984e-08
3811.64	1.71562e-07
3820.32	8.67432e-07
3828.99	1.31561e-07
3837.67	3.19055e-06
3846.35	3.03068e-07
3855.03	1.6195e-06
3863.71	1.56144e-07
3872.39	1.84306e-07
3881.06	4.68239e-07
3889.74	3.62232e-08
3898.42	1.30974e-07
3907.1	2.77132e-07
3915.78	1.94243e-07
3924.45	4.53105e-07
3933.13	1.86407e-07
3941.81	1.35491e-07
3950.49	1.35111e-07
3959.17	1.67754e-07
3967.85	1.59624e-07
