Infrared Spectrum: Nitrile-Propenoic Acid
Formula: C H2: C H C N
CAS: 107-13-1
State: gas
Melting point: -83.5 C
Boiling point: 77.5 C
Class: IUPAC A
Instrument: IFS66V (Bruker)
Instrument parameters: KBr Beam splitter; MCT Detector; Multipass cell
Sampling: 1 L/min Flow
Resolution: 0.9640
Temperature: 23 C
Pressure: 101.3 kPa
Origin: NIST, Anayltical Chemistry Division, 301-975-3108
cm-1	(micromol/mol)-1m-1 (base 10)
575.169	2.65162e-07
583.847	2.59549e-07
592.525	4.39592e-07
601.203	3.74387e-07
609.882	5.72318e-07
618.56	1.14563e-06
627.238	2.65971e-06
635.916	5.11465e-06
644.594	9.49547e-06
653.272	1.84648e-05
661.951	1.63813e-05
670.629	1.82639e-05
679.307	3.64803e-05
687.985	1.75001e-05
696.663	1.63115e-05
705.341	2.44657e-05
714.019	1.13258e-05
722.698	1.12173e-05
731.376	5.71343e-06
740.054	4.4268e-06
748.732	2.20528e-06
757.41	1.5187e-06
766.088	1.99806e-06
774.767	4.63118e-06
783.445	3.78557e-06
792.123	3.86849e-06
800.801	2.87376e-06
809.479	5.82716e-07
818.157	1.99253e-07
826.835	1.54232e-07
835.514	1.31695e-07
844.192	1.05633e-06
852.87	4.8969e-06
861.548	8.4495e-06
870.226	4.47928e-06
878.904	8.76387e-06
887.583	6.56445e-06
896.261	1.08246e-05
904.939	1.80627e-05
913.617	2.72201e-05
922.295	4.38102e-05
930.973	8.23023e-05
939.651	8.84027e-05
948.33	0.000129237
957.008	0.000109965
965.686	8.74916e-05
974.364	9.82217e-05
983.042	0.000100351
991.72	7.55461e-05
1000.4	6.50752e-05
1009.08	3.92821e-05
1017.75	2.28139e-05
1026.43	1.22655e-05
1035.11	5.17893e-06
1043.79	2.06404e-06
1052.47	1.28683e-06
1061.15	1.14699e-06
1069.82	1.8623e-06
1078.5	8.18812e-06
1087.18	1.23701e-05
1095.86	9.12424e-06
1104.54	8.27168e-06
1113.21	2.91758e-06
1121.89	5.92355e-07
1130.57	2.77486e-07
1139.25	1.84778e-07
1147.93	1.03724e-07
1156.61	1.18219e-07
1165.28	1.73355e-07
1173.96	2.03686e-07
1182.64	2.2219e-07
1191.32	2.84747e-07
1200	2.60012e-07
1208.67	4.72642e-07
1217.35	2.23072e-07
1226.03	2.32004e-07
1234.71	2.3178e-07
1243.39	1.53343e-07
1252.07	2.32741e-07
1260.74	7.24083e-07
1269.42	2.43729e-06
1278.1	2.0877e-06
1286.78	3.17579e-06
1295.46	3.22725e-06
1304.13	1.75519e-06
1312.81	2.63117e-06
1321.49	2.28041e-06
1330.17	2.5715e-06
1338.85	3.37222e-06
1347.52	2.8938e-06
1356.2	3.15456e-06
1364.88	3.25105e-06
1373.56	4.89094e-06
1382.24	5.23224e-06
1390.92	6.77703e-06
1399.59	1.65189e-05
1408.27	2.20446e-05
1416.95	1.2327e-05
1425.63	2.22608e-05
1434.31	9.78313e-06
1442.98	8.14853e-06
1451.66	4.27501e-06
1460.34	2.26879e-06
1469.02	1.37415e-06
1477.7	6.22787e-07
1486.38	3.96873e-07
1495.05	2.50153e-07
1503.73	1.42164e-07
1512.41	7.34344e-07
1521.09	2.44158e-06
1529.77	1.20485e-07
1538.44	1.43218e-06
1547.12	3.01752e-07
1555.8	4.93339e-07
1564.48	9.7613e-07
1573.16	1.13384e-06
1581.83	1.6168e-06
1590.51	3.09148e-06
1599.19	1.02677e-05
1607.87	1.34675e-05
1616.55	8.46061e-06
1625.23	1.65406e-05
1633.9	8.96338e-06
1642.58	9.33098e-06
1651.26	5.04883e-06
1659.94	7.62926e-06
1668.62	5.57969e-06
1677.29	1.95742e-06
1685.97	1.30055e-06
1694.65	1.07655e-06
1703.33	5.62822e-07
1712.01	2.77714e-07
1720.69	1.97634e-07
1729.36	3.05826e-07
1738.04	2.23363e-07
1746.72	4.02678e-07
1755.4	1.5347e-07
1764.08	5.2085e-08
1772.75	1.94432e-06
1781.43	6.56726e-08
1790.11	1.13036e-07
1798.79	5.43101e-08
1807.47	7.21295e-08
1816.15	7.32841e-08
1824.82	6.87762e-07
1833.5	7.09395e-07
1842.18	6.18887e-07
1850.86	9.47453e-07
1859.54	7.03601e-07
1868.21	1.23049e-06
1876.89	1.95643e-06
1885.57	5.52311e-06
1894.25	1.44554e-05
1902.93	1.52184e-05
1911.6	1.50938e-05
1920.28	1.64131e-05
1928.96	7.02051e-06
1937.64	3.00108e-06
1946.32	3.43755e-06
1955	1.63333e-06
1963.67	1.17206e-06
1972.35	6.69687e-07
1981.03	4.66899e-07
1989.71	2.6992e-07
1998.39	2.00473e-07
2007.06	1.04481e-07
2015.74	6.04854e-08
2024.42	5.60722e-08
2033.1	9.1591e-08
2041.78	8.23889e-08
2050.46	7.38771e-08
2059.13	8.05113e-08
2067.81	9.71902e-08
2076.49	9.25028e-08
2085.17	7.30876e-08
2093.85	7.40412e-08
2102.52	6.04004e-08
2111.2	2.59256e-08
2119.88	2.20385e-08
2128.56	1.0243e-08
2137.24	7.96159e-09
2145.91	4.06065e-08
2154.59	6.58786e-08
2163.27	7.46378e-08
2171.95	7.56683e-08
2180.63	1.03822e-07
2189.31	8.0635e-08
2197.98	7.40226e-08
2206.66	1.60232e-07
2215.34	6.36658e-07
2224.02	1.87954e-06
2232.7	2.33348e-06
2241.37	2.09915e-06
2250.05	2.70754e-06
2258.73	8.01734e-07
2267.41	9.90491e-07
2276.09	1.07793e-06
2284.77	9.95745e-07
2293.44	1.43407e-06
2302.12	4.53733e-07
2310.8	4.95724e-07
2319.48	2.49657e-07
2328.16	1.85799e-07
2336.83	1.32216e-07
2345.51	1.91075e-07
2354.19	3.12331e-07
2362.87	5.15556e-07
2371.55	4.79806e-07
2380.23	6.95096e-07
2388.9	5.81749e-07
2397.58	5.52899e-07
2406.26	3.81583e-07
2414.94	2.17445e-07
2423.62	2.17522e-07
2432.29	2.576e-07
2440.97	3.10598e-07
2449.65	5.24655e-07
2458.33	5.56656e-07
2467.01	5.38432e-07
2475.68	7.91461e-07
2484.36	6.58012e-07
2493.04	4.44243e-07
2501.72	2.89676e-07
2510.4	2.30917e-07
2519.08	2.28347e-07
2527.75	2.11832e-07
2536.43	2.44973e-07
2545.11	3.25232e-07
2553.79	3.70597e-07
2562.47	4.35484e-07
2571.14	3.14882e-07
2579.82	2.6009e-07
2588.5	1.80338e-07
2597.18	1.33338e-07
2605.86	8.69668e-08
2614.54	7.62303e-08
2623.21	-5.11128e-10
2631.89	-2.96945e-09
2640.57	-1.27309e-08
2649.25	-4.14791e-08
2657.93	-7.50776e-10
2666.6	1.912e-08
2675.28	1.12224e-07
2683.96	2.58113e-07
2692.64	4.86644e-07
2701.32	6.29859e-07
2709.99	5.46278e-07
2718.67	5.57373e-07
2727.35	2.39668e-07
2736.03	1.36161e-07
2744.71	1.19272e-07
2753.39	2.17361e-08
2762.06	4.21126e-08
2770.74	1.25491e-07
2779.42	1.94726e-07
2788.1	1.36271e-07
2796.78	1.42011e-07
2805.45	2.27641e-07
2814.13	1.21211e-08
2822.81	3.78621e-08
2831.49	1.10452e-08
2840.17	-1.10974e-07
2848.85	-1.55844e-07
2857.52	-1.04222e-07
2866.2	-5.30532e-08
2874.88	8.28632e-08
2883.56	1.15548e-07
2892.24	3.1086e-07
2900.91	2.87445e-07
2909.59	2.66909e-07
2918.27	2.48017e-07
2926.95	3.77375e-08
2935.63	5.6943e-08
2944.31	4.92511e-08
2952.98	3.50559e-08
2961.66	2.69261e-08
2970.34	8.80045e-08
2979.02	1.58118e-07
2987.7	4.24969e-07
2996.37	2.86426e-07
3005.05	5.30501e-07
3013.73	5.75243e-07
3022.41	2.17622e-06
3031.09	6.1135e-06
3039.76	5.35967e-06
3048.44	6.37197e-06
3057.12	6.53364e-06
3065.8	2.12219e-06
3074.48	1.12008e-06
3083.16	1.08856e-06
3091.83	1.95748e-06
3100.51	2.75197e-06
3109.19	6.40693e-06
3117.87	8.82954e-06
3126.55	3.80377e-06
3135.22	9.67836e-06
3143.9	3.70654e-06
3152.58	1.79145e-06
3161.26	1.03178e-06
3169.94	4.93548e-07
3178.62	3.68839e-07
3187.29	9.68637e-08
3195.97	-1.75825e-08
3204.65	-8.84206e-08
3213.33	-1.02442e-07
3222.01	-6.20652e-08
3230.68	2.01409e-08
3239.36	-1.34146e-07
3248.04	-1.95309e-07
3256.72	-1.22515e-07
3265.4	-8.39391e-08
3274.07	-9.47128e-08
3282.75	-1.16419e-07
3291.43	-1.14222e-07
3300.11	1.22893e-08
3308.79	3.12461e-08
3317.47	2.21366e-07
3326.14	2.18243e-07
3334.82	2.61632e-07
3343.5	4.94207e-07
3352.18	1.45137e-07
3360.86	1.4045e-07
3369.53	-1.81819e-08
3378.21	-3.31233e-09
3386.89	-5.50772e-08
3395.57	-5.66924e-09
3404.25	-7.0326e-08
3412.93	-2.02059e-08
3421.6	1.26759e-08
3430.28	-6.04895e-08
3438.96	5.96069e-08
3447.64	-1.04308e-08
3456.32	6.46772e-08
3464.99	-4.07061e-08
3473.67	-3.59599e-08
3482.35	4.61284e-08
3491.03	2.22318e-08
3499.71	7.93735e-08
3508.39	8.63738e-08
3517.06	2.08526e-07
3525.74	2.20569e-07
3534.42	1.02036e-07
3543.1	1.79779e-07
3551.78	1.59767e-07
3560.45	1.2222e-07
3569.13	1.02796e-07
3577.81	1.02817e-08
3586.49	6.45796e-07
3595.17	3.15413e-07
3603.84	1.0067e-07
3612.52	8.94449e-07
3621.2	2.83735e-07
3629.88	1.60879e-06
3638.56	3.60032e-07
3647.24	1.18971e-06
3655.91	1.29804e-06
3664.59	3.2051e-07
3673.27	3.05697e-07
3681.95	1.07129e-07
3690.63	4.67774e-07
3699.3	6.56363e-08
3707.98	3.15844e-08
3716.66	-1.53729e-08
3725.34	1.76321e-07
3734.02	2.29634e-07
3742.7	8.74601e-08
3751.37	4.50992e-07
3760.05	5.79806e-07
3768.73	3.20942e-08
3777.41	-1.26595e-08
3786.09	-2.30053e-08
3794.76	-6.08119e-08
3803.44	1.03805e-07
3812.12	2.72221e-08
3820.8	1.23185e-06
3829.48	1.46841e-07
3838.16	2.7876e-06
3846.83	3.32288e-07
3855.51	4.96743e-07
3864.19	4.63255e-07
3872.87	4.74262e-08
3881.55	2.37254e-07
3890.22	1.00639e-07
3898.9	6.74971e-07
3907.58	2.51693e-07
3916.26	3.43628e-07
3924.94	4.46872e-07
3933.61	1.66626e-07
3942.29	1.91904e-07
3950.97	6.25363e-08
3959.65	1.27892e-07
3968.33	2.15459e-07
