Infrared Spectrum: 1,2-Dichloroethane
Formula: Cl C H2 C H2 Cl
CAS: 107-06-2
State: gas
Melting point: -35.36 C
Boiling point: 83.47 C
Class: IUPAC A
Instrument: IFS66V (Bruker)
Instrument parameters: KBr Beam Splitter; MCT Detector; Multipass cell
Sampling: 1 L/min Flow
Resolution: 1.9290
Temperature: 23 C
Pressure: 101.3 Pa
Origin: NIST, Analytical Chemistry Division, 301-975-3108
cm-1	(micromol/mol)-1m-1 (base 10)
575.652	2.82792e-07
584.33	6.95924e-07
593.008	8.09959e-07
601.687	7.23336e-08
610.365	-2.7252e-07
619.043	-1.42474e-07
627.721	4.94068e-07
636.399	8.93551e-07
645.077	3.47418e-06
653.756	8.51075e-06
662.434	1.59515e-05
671.112	1.59061e-05
679.79	2.71752e-05
688.468	3.81401e-05
697.146	3.15872e-05
705.825	4.34176e-05
714.503	0.000218845
723.181	0.00055411
731.859	0.000569268
740.537	3.98335e-05
749.216	6.42361e-06
757.894	6.86555e-06
766.572	7.65456e-06
775.25	6.14935e-06
783.928	4.6347e-06
792.606	3.55016e-06
801.285	2.20109e-06
809.963	1.76237e-06
818.641	1.55725e-06
827.319	2.03577e-06
835.997	1.95028e-06
844.676	1.14358e-06
853.354	6.18152e-07
862.032	8.2149e-07
870.71	2.50766e-06
879.388	1.33526e-05
888.066	2.04602e-05
896.745	2.17893e-05
905.423	5.82892e-06
914.101	1.95851e-06
922.779	2.39185e-06
931.457	5.37004e-06
940.135	9.21513e-06
948.814	7.70771e-06
957.492	8.27505e-06
966.17	3.44599e-06
974.848	1.75644e-06
983.526	2.5815e-06
992.205	3.39765e-06
1000.88	2.0663e-06
1009.56	1.7491e-06
1018.24	3.46193e-06
1026.92	4.81362e-06
1035.6	2.97705e-06
1044.27	1.10922e-06
1052.95	3.43008e-07
1061.63	1.60831e-07
1070.31	4.55554e-08
1078.99	3.11845e-07
1087.66	5.02669e-07
1096.34	1.04406e-06
1105.02	1.87513e-06
1113.7	2.40126e-06
1122.38	5.12166e-06
1131.06	2.85344e-06
1139.73	2.94849e-06
1148.41	2.60405e-06
1157.09	1.81087e-06
1165.77	1.28424e-06
1174.45	7.19674e-07
1183.12	1.09379e-06
1191.8	1.8495e-06
1200.48	3.88735e-06
1209.16	6.6741e-06
1217.84	2.22266e-05
1226.52	0.000159312
1235.19	0.000150572
1243.87	6.18356e-05
1252.55	9.44974e-06
1261.23	6.56311e-06
1269.91	4.53281e-06
1278.58	1.67957e-05
1287.26	4.13531e-05
1295.94	3.93803e-05
1304.62	2.19676e-05
1313.3	9.41057e-06
1321.98	1.11413e-05
1330.65	6.95932e-06
1339.33	3.81331e-06
1348.01	3.09399e-06
1356.69	2.90625e-06
1365.37	2.27257e-06
1374.04	1.13217e-06
1382.72	1.24957e-06
1391.4	6.65851e-07
1400.08	1.08145e-06
1408.76	1.59453e-06
1417.44	4.38541e-06
1426.11	1.131e-05
1434.79	2.03699e-05
1443.47	2.61435e-05
1452.15	3.24559e-05
1460.83	1.7801e-05
1469.5	2.12138e-05
1478.18	1.20938e-05
1486.86	7.04293e-06
1495.54	3.78944e-06
1504.22	1.53977e-06
1512.9	1.03572e-06
1521.57	1.6875e-06
1530.25	2.94527e-06
1538.93	8.34732e-07
1547.61	7.50153e-07
1556.29	1.45558e-07
1564.96	1.77012e-07
1573.64	7.66764e-08
1582.32	2.43517e-07
1591	1.76896e-08
1599.68	8.32574e-08
1608.36	-4.94217e-08
1617.03	-6.21307e-07
1625.71	-4.03377e-08
1634.39	-1.09936e-07
1643.07	-9.24296e-08
1651.75	-3.7433e-07
1660.42	-1.81971e-08
1669.1	-3.43011e-07
1677.78	1.83148e-07
1686.46	4.17963e-07
1695.14	-3.05138e-07
1703.82	8.07891e-08
1712.49	1.21019e-07
1721.17	1.72304e-07
1729.85	-8.26817e-09
1738.53	6.90512e-08
1747.21	-1.65345e-08
1755.88	6.36407e-08
1764.56	1.96632e-08
1773.24	-2.08107e-07
1781.92	8.67035e-08
1790.6	1.68565e-08
1799.28	-1.46312e-07
1807.95	-3.55783e-08
1816.63	-7.94076e-08
1825.31	-1.16066e-07
1833.99	-8.92483e-09
1842.67	7.92775e-08
1851.34	1.60643e-08
1860.02	7.5193e-08
1868.7	-9.64378e-08
1877.38	6.65656e-08
1886.06	4.13763e-08
1894.74	6.77279e-08
1903.41	4.10589e-08
1912.09	-3.22596e-08
1920.77	-3.47834e-08
1929.45	3.57375e-08
1938.13	-8.02288e-08
1946.8	-3.06453e-08
1955.48	-1.25664e-07
1964.16	-1.36014e-08
1972.84	-8.62851e-08
1981.52	8.47754e-08
1990.19	4.00949e-08
1998.87	2.81833e-08
2007.55	1.01714e-07
2016.23	4.71211e-07
2024.91	1.4664e-06
2033.59	2.06227e-06
2042.26	1.33685e-06
2050.94	2.60435e-07
2059.62	1.21592e-07
2068.3	4.32635e-08
2076.98	1.10321e-09
2085.65	1.14769e-07
2094.33	1.64752e-07
2103.01	3.75771e-07
2111.69	3.52265e-07
2120.37	2.97087e-07
2129.05	1.986e-07
2137.72	1.95996e-07
2146.4	1.36355e-07
2155.08	1.2038e-07
2163.76	8.44316e-08
2172.44	2.99689e-07
2181.11	4.31533e-07
2189.79	8.77508e-07
2198.47	9.34688e-07
2207.15	1.35885e-06
2215.83	1.61796e-06
2224.51	1.50973e-06
2233.18	1.45803e-06
2241.86	1.07476e-06
2250.54	6.34267e-07
2259.22	3.87052e-07
2267.9	1.79602e-07
2276.57	1.79038e-07
2285.25	1.45707e-07
2293.93	2.2142e-07
2302.61	1.20036e-07
2311.29	7.87818e-08
2319.97	3.15355e-07
2328.64	-2.89163e-07
2337.32	-3.08323e-07
2346	-2.26728e-07
2354.68	-4.47289e-07
2363.36	-7.98459e-07
2372.03	-9.19676e-09
2380.71	1.0106e-06
2389.39	1.13447e-06
2398.07	6.75369e-07
2406.75	6.12401e-07
2415.43	5.90585e-07
2424.1	6.93676e-07
2432.78	6.13568e-07
2441.46	6.09528e-07
2450.14	5.31458e-07
2458.82	6.77413e-07
2467.49	5.79738e-07
2476.17	3.38469e-07
2484.85	2.64925e-07
2493.53	3.05216e-07
2502.21	5.32806e-07
2510.89	6.74334e-07
2519.56	8.276e-07
2528.24	4.92517e-07
2536.92	5.45063e-07
2545.6	2.99414e-07
2554.28	2.11929e-07
2562.95	-8.7352e-08
2571.63	6.74778e-08
2580.31	-1.19334e-07
2588.99	-9.44796e-08
2597.67	-1.72498e-07
2606.35	-8.94956e-08
2615.02	-1.22126e-07
2623.7	-1.29111e-08
2632.38	-4.93889e-08
2641.06	3.519e-08
2649.74	3.19986e-08
2658.41	2.65808e-08
2667.09	1.25363e-07
2675.77	6.65437e-07
2684.45	1.84632e-06
2693.13	1.83541e-06
2701.81	3.20105e-07
2710.48	2.34118e-07
2719.16	2.73651e-07
2727.84	4.75201e-07
2736.52	4.92042e-07
2745.2	4.82534e-07
2753.87	1.15789e-06
2762.55	2.39002e-06
2771.23	2.37168e-06
2779.91	2.52132e-07
2788.59	6.87456e-08
2797.27	3.82077e-09
2805.94	-1.90722e-07
2814.62	8.66571e-08
2823.3	2.36122e-08
2831.98	5.57261e-07
2840.66	1.37697e-06
2849.33	3.20308e-06
2858.01	3.43529e-06
2866.69	4.76069e-06
2875.37	4.7648e-06
2884.05	1.01224e-05
2892.73	1.04229e-05
2901.4	1.21318e-05
2910.08	3.34054e-06
2918.76	2.53049e-06
2927.44	1.94769e-06
2936.12	4.51826e-06
2944.79	1.11387e-05
2953.47	2.51111e-05
2962.15	2.64977e-05
2970.83	4.7162e-05
2979.51	5.6094e-05
2988.19	5.76867e-05
2996.86	3.64043e-05
3005.54	2.87083e-05
3014.22	2.43403e-05
3022.9	1.72206e-05
3031.58	1.42555e-05
3040.25	9.93743e-06
3048.93	7.96918e-06
3057.61	5.24954e-06
3066.29	2.97217e-06
3074.97	1.59707e-06
3083.65	9.30411e-07
3092.32	6.79847e-07
3101	6.10141e-07
3109.68	5.48596e-07
3118.36	3.91921e-07
3127.04	3.41256e-07
3135.71	1.35534e-07
3144.39	9.27934e-08
3153.07	-1.49156e-08
3161.75	1.42299e-08
3170.43	-1.25875e-07
3179.11	-6.84291e-08
3187.78	8.24544e-08
3196.46	1.58777e-07
3205.14	2.09608e-07
3213.82	5.1298e-08
3222.5	1.73833e-07
3231.17	2.2797e-07
3239.85	1.05495e-07
3248.53	6.3064e-08
3257.21	1.02151e-07
3265.89	9.09645e-08
3274.57	7.26719e-08
3283.24	8.68654e-09
3291.92	9.24078e-08
3300.6	-1.65855e-08
3309.28	-4.08979e-08
3317.96	-2.06031e-07
3326.63	-8.56394e-08
3335.31	-9.86524e-08
3343.99	-8.09937e-08
3352.67	-6.11459e-08
3361.35	-6.10741e-08
3370.03	-2.80869e-08
3378.7	1.27987e-07
3387.38	8.70755e-08
3396.06	-9.1843e-08
3404.74	2.58754e-07
3413.42	1.61246e-07
3422.09	3.91699e-08
3430.77	-6.12269e-09
3439.45	-1.31576e-08
3448.13	-2.44653e-08
3456.81	-1.50521e-09
3465.49	-1.77469e-08
3474.16	-3.77438e-10
3482.84	2.32518e-07
3491.52	-2.88545e-08
3500.2	-8.47217e-08
3508.88	-1.13766e-07
3517.55	-1.84063e-07
3526.23	-5.50878e-09
3534.91	-8.1895e-08
3543.59	-8.33202e-08
3552.27	-8.28982e-08
3560.95	5.95734e-08
3569.62	-1.77981e-07
3578.3	-6.85046e-08
3586.98	-1.33334e-07
3595.66	-2.13457e-08
3604.34	-5.37336e-08
3613.01	2.25126e-08
3621.69	1.41947e-07
3630.37	1.20962e-08
3639.05	3.271e-07
3647.73	2.14087e-07
3656.41	3.62295e-08
3665.08	3.32037e-07
3673.76	3.66108e-07
3682.44	3.23416e-07
3691.12	-8.72956e-08
3699.8	2.22354e-07
3708.47	1.99647e-07
3717.15	2.25199e-07
3725.83	2.41582e-07
3734.51	1.20386e-07
3743.19	9.48864e-07
3751.87	4.83079e-07
3760.54	1.18041e-06
3769.22	1.00903e-06
3777.9	1.03409e-06
3786.58	1.03106e-06
3795.26	6.47066e-07
3803.93	8.63753e-07
3812.61	5.29135e-07
3821.29	1.09457e-07
3829.97	3.46307e-07
3838.65	1.48968e-07
3847.33	3.57897e-07
3856	2.64825e-07
3864.68	-9.68625e-08
3873.36	3.06489e-08
3882.04	5.22948e-08
3890.72	4.73753e-08
3899.39	-2.81372e-07
3908.07	9.01386e-08
3916.75	-1.16562e-07
3925.43	2.2107e-08
3934.11	2.52929e-08
3942.79	5.78463e-08
3951.46	1.41367e-07
3960.14	3.364e-07
3968.82	2.05759e-07
