Infrared Spectrum: 1,2-Dichloroethane
Formula: Cl C H2 C H2 Cl
CAS: 107-06-2
State: gas
Melting point: -35.36 C
Boiling point: 83.47 C
Class: IUPAC A
Instrument: IFS66V (Bruker)
Instrument parameters: KBr Beam Splitter; MCT Detector; Multipass cell
Sampling: 1 L/min Flow
Resolution: 0.1250
Temperature: 23 C
Pressure: 101.3 Pa
Origin: NIST, Analytical Chemistry Division, 301-975-3108
cm-1	(micromol/mol)-1m-1 (base 10)
575.05	1.85636e-06
583.608	2.12211e-07
592.165	8.67467e-07
600.723	-1.90233e-07
609.281	-1.95151e-07
617.838	-2.11059e-07
626.396	-3.678e-07
634.954	1.14157e-07
643.511	2.75673e-06
652.069	7.31152e-06
660.626	1.45743e-05
669.184	1.40239e-05
677.742	2.45563e-05
686.299	4.05846e-05
694.857	2.94357e-05
703.415	3.87103e-05
711.972	0.000133968
720.53	0.000495544
729.088	0.000517251
737.645	0.000221427
746.203	6.42837e-06
754.761	6.72087e-06
763.318	6.5016e-06
771.876	9.63169e-06
780.434	4.99194e-06
788.991	4.16594e-06
797.549	3.35254e-06
806.106	1.51284e-06
814.664	1.5727e-06
823.222	1.71794e-06
831.779	2.26023e-06
840.337	1.19892e-06
848.895	5.59732e-07
857.452	8.73506e-07
866.01	1.29773e-06
874.568	4.97506e-06
883.125	2.12812e-05
891.683	1.7318e-05
900.241	1.61465e-05
908.798	3.03143e-06
917.356	1.65421e-06
925.914	3.04909e-06
934.471	6.93923e-06
943.029	9.19208e-06
951.586	9.53208e-06
960.144	6.29118e-06
968.702	2.74011e-06
977.259	1.97509e-06
985.817	3.12505e-06
994.375	3.60158e-06
1002.93	1.71151e-06
1011.49	2.10651e-06
1020.05	3.73759e-06
1028.61	4.65485e-06
1037.16	2.65982e-06
1045.72	1.13189e-06
1054.28	4.70143e-07
1062.84	-8.48636e-08
1071.39	1.348e-07
1079.95	3.22965e-07
1088.51	4.75595e-07
1097.07	1.18144e-06
1105.62	1.9566e-06
1114.18	2.72019e-06
1122.74	5.18916e-06
1131.3	2.25919e-06
1139.85	3.42128e-06
1148.41	2.38261e-06
1156.97	1.96725e-06
1165.53	1.18603e-06
1174.09	8.47829e-07
1182.64	1.15036e-06
1191.2	1.83113e-06
1199.76	4.33851e-06
1208.32	6.24713e-06
1216.87	1.61701e-05
1225.43	0.000141849
1233.99	0.000125419
1242.55	8.93741e-05
1251.1	1.30601e-05
1259.66	6.14006e-06
1268.22	4.54001e-06
1276.78	1.06939e-05
1285.33	4.41099e-05
1293.89	2.11644e-05
1302.45	3.18639e-05
1311.01	1.12056e-05
1319.57	1.32423e-05
1328.12	8.0513e-06
1336.68	4.65525e-06
1345.24	3.30305e-06
1353.8	2.68959e-06
1362.35	2.40103e-06
1370.91	1.91434e-06
1379.47	1.18472e-06
1388.03	7.81791e-07
1396.58	7.32601e-07
1405.14	1.08364e-06
1413.7	2.95533e-06
1422.26	7.4513e-06
1430.81	1.66629e-05
1439.37	2.06198e-05
1447.93	2.45224e-05
1456.49	3.0115e-05
1465.05	3.30978e-05
1473.6	1.4707e-05
1482.16	9.88898e-06
1490.72	5.19054e-06
1499.28	2.75339e-06
1507.83	9.94918e-07
1516.39	1.23004e-06
1524.95	2.13605e-06
1533.51	2.48411e-06
1542.06	2.19735e-07
1550.62	5.70688e-07
1559.18	5.79836e-08
1567.74	2.06362e-07
1576.29	-1.17219e-06
1584.85	3.06818e-07
1593.41	1.01875e-07
1601.97	-2.12444e-07
1610.53	3.12082e-08
1619.08	-7.83562e-08
1627.64	-2.64392e-07
1636.2	-1.74012e-07
1644.76	-8.08609e-08
1653.31	-2.44048e-06
1661.87	-2.34003e-08
1670.43	1.8063e-07
1678.99	3.3657e-07
1687.54	1.7658e-07
1696.1	-6.08523e-07
1704.66	-8.04999e-08
1713.22	1.68647e-07
1721.77	2.58794e-07
1730.33	1.82817e-08
1738.89	-9.20404e-09
1747.45	7.39133e-08
1756.01	2.75021e-08
1764.56	9.63859e-08
1773.12	5.77253e-09
1781.68	4.41239e-08
1790.24	3.08363e-08
1798.79	-6.06075e-08
1807.35	-1.06449e-07
1815.91	1.73103e-08
1824.47	3.305e-08
1833.02	-2.56376e-08
1841.58	1.03145e-08
1850.14	5.58008e-08
1858.7	1.11782e-07
1867.25	-4.68406e-08
1875.81	1.99287e-08
1884.37	-3.45061e-08
1892.93	2.21927e-07
1901.49	1.69544e-07
1910.04	-3.73646e-08
1918.6	6.58298e-08
1927.16	-2.36467e-08
1935.72	-9.15547e-08
1944.27	-8.6628e-08
1952.83	-6.42036e-08
1961.39	5.3478e-09
1969.95	-4.04605e-08
1978.5	-1.04155e-07
1987.06	3.49008e-08
1995.62	-8.74138e-08
2004.18	1.31551e-07
2012.73	3.83757e-07
2021.29	1.17139e-06
2029.85	1.92152e-06
2038.41	1.93451e-06
2046.97	6.92622e-07
2055.52	2.7058e-07
2064.08	1.45244e-07
2072.64	-1.03482e-08
2081.2	2.65198e-08
2089.75	3.35775e-08
2098.31	3.53349e-07
2106.87	2.13259e-07
2115.43	4.42896e-07
2123.98	1.83864e-07
2132.54	5.20638e-07
2141.1	2.44945e-07
2149.66	8.19687e-08
2158.21	2.14036e-07
2166.77	1.2822e-07
2175.33	2.09031e-07
2183.89	5.49558e-07
2192.45	7.52064e-07
2201	1.18705e-06
2209.56	1.1094e-06
2218.12	1.58649e-06
2226.68	1.63975e-06
2235.23	1.48677e-06
2243.79	9.07025e-07
2252.35	7.10434e-07
2260.91	3.61728e-07
2269.46	1.78978e-07
2278.02	1.13751e-07
2286.58	2.37221e-07
2295.14	4.92989e-08
2303.69	1.02752e-07
2312.25	2.99694e-07
2320.81	-7.77941e-08
2329.37	3.29589e-07
2337.93	-8.74502e-08
2346.48	1.3287e-07
2355.04	3.10517e-07
2363.6	-5.22866e-08
2372.16	3.33416e-07
2380.71	7.89778e-07
2389.27	1.22448e-06
2397.83	5.5932e-07
2406.39	6.22701e-07
2414.94	6.37835e-07
2423.5	7.95934e-07
2432.06	4.23519e-07
2440.62	6.61126e-07
2449.17	4.02325e-07
2457.73	6.21597e-07
2466.29	5.12824e-07
2474.85	2.91565e-07
2483.41	2.26192e-07
2491.96	2.88773e-07
2500.52	6.17464e-07
2509.08	7.16058e-07
2517.64	6.16001e-07
2526.19	6.09591e-07
2534.75	5.33123e-07
2543.31	2.93401e-07
2551.87	1.58834e-07
2560.42	3.79403e-08
2568.98	-1.32183e-07
2577.54	-1.13854e-07
2586.1	1.42463e-07
2594.65	-8.23461e-08
2603.21	-1.63535e-08
2611.77	-3.00602e-07
2620.33	-1.30061e-07
2628.89	1.183e-07
2637.44	-1.12796e-07
2646	-3.83241e-08
2654.56	7.01199e-08
2663.12	3.2698e-08
2671.67	3.22105e-07
2680.23	1.51637e-06
2688.79	1.46202e-06
2697.35	1.01551e-06
2705.9	1.13678e-07
2714.46	1.10464e-07
2723.02	5.04636e-07
2731.58	2.66558e-07
2740.13	7.35547e-07
2748.69	6.86774e-07
2757.25	2.06518e-06
2765.81	1.85144e-06
2774.37	1.17817e-06
2782.92	1.89036e-07
2791.48	1.13322e-07
2800.04	1.26296e-07
2808.6	-1.08117e-07
2817.15	-1.87218e-07
2825.71	3.08514e-07
2834.27	5.49129e-07
2842.83	1.70335e-06
2851.38	3.73704e-06
2859.94	3.95e-06
2868.5	4.74835e-06
2877.06	5.18338e-06
2885.61	1.26118e-05
2894.17	1.00738e-05
2902.73	1.07343e-05
2911.29	3.29969e-06
2919.85	2.09509e-06
2928.4	2.22573e-06
2936.96	4.64085e-06
2945.52	1.20037e-05
2954.08	2.54442e-05
2962.63	2.52565e-05
2971.19	4.85374e-05
2979.75	5.35248e-05
2988.31	5.75879e-05
2996.86	3.76187e-05
3005.42	2.89378e-05
3013.98	2.40333e-05
3022.54	1.84094e-05
3031.09	1.32633e-05
3039.65	9.40227e-06
3048.21	8.24427e-06
3056.77	5.36771e-06
3065.33	3.12711e-06
3073.88	1.60493e-06
3082.44	1.02039e-06
3091	6.84599e-07
3099.56	4.12707e-07
3108.11	5.02286e-07
3116.67	5.40863e-07
3125.23	3.88024e-07
3133.79	-3.84105e-08
3142.34	-6.57279e-08
3150.9	-2.07969e-07
3159.46	9.70062e-08
3168.02	-1.13008e-07
3176.57	-3.01054e-07
3185.13	-1.94103e-07
3193.69	1.93951e-07
3202.25	4.05885e-07
3210.81	8.15076e-08
3219.36	5.15908e-08
3227.92	1.55152e-07
3236.48	-1.62176e-07
3245.04	1.25291e-07
3253.59	7.76159e-08
3262.15	1.68744e-07
3270.71	1.15375e-07
3279.27	1.23354e-08
3287.82	1.41479e-07
3296.38	-3.96429e-08
3304.94	7.68064e-09
3313.5	1.43439e-07
3322.05	3.75281e-07
3330.61	-7.55659e-08
3339.17	-2.60023e-07
3347.73	-1.94982e-07
3356.29	3.88986e-07
3364.84	4.25559e-08
3373.4	-1.83574e-07
3381.96	-1.11795e-07
3390.52	1.03411e-07
3399.07	2.36624e-07
3407.63	2.11959e-07
3416.19	1.03655e-08
3424.75	-4.43558e-09
3433.3	-1.81443e-08
3441.86	-1.60482e-07
3450.42	-1.42615e-07
3458.98	1.33136e-07
3467.53	1.53446e-07
3476.09	6.55551e-08
3484.65	-6.95742e-08
3493.21	1.24309e-07
3501.77	-3.86574e-07
3510.32	-2.09906e-07
3518.88	6.69194e-08
3527.44	2.24181e-07
3536	-1.37668e-07
3544.55	2.48682e-08
3553.11	-6.62427e-08
3561.67	1.32394e-07
3570.23	-2.66793e-07
3578.78	-1.47226e-07
3587.34	-2.70246e-07
3595.9	1.59436e-07
3604.46	-7.5153e-08
3613.01	-9.0376e-09
3621.57	8.30592e-08
3630.13	1.88673e-07
3638.69	3.02054e-07
3647.25	-3.89138e-07
3655.8	3.09145e-07
3664.36	3.04457e-07
3672.92	5.71346e-07
3681.48	3.57835e-07
3690.03	3.32731e-07
3698.59	4.60403e-07
3707.15	1.50927e-07
3715.71	9.2326e-08
3724.26	1.40271e-07
3732.82	4.89435e-07
3741.38	7.04455e-07
3749.94	1.14015e-06
3758.49	1.58876e-06
3767.05	8.70989e-07
3775.61	1.44532e-06
3784.17	9.68813e-07
3792.73	1.04536e-06
3801.28	-2.21474e-07
3809.84	5.85602e-07
3818.4	6.2229e-07
3826.96	7.0564e-07
3835.51	2.80333e-07
3844.07	2.13132e-07
3852.63	-2.02447e-07
3861.19	2.43299e-07
3869.74	-2.03817e-09
3878.3	-1.33569e-07
3886.86	3.85079e-07
3895.42	3.96277e-07
3903.97	-1.8454e-07
3912.53	-1.91286e-07
3921.09	3.57675e-08
3929.65	6.02428e-08
3938.21	-2.19643e-07
3946.76	2.24357e-07
3955.32	4.00896e-07
3963.88	3.73315e-07
3972.44	6.39535e-07
