Infrared Spectrum: 1,2-Dichloroethane
Formula: Cl C H2 C H2 Cl
CAS: 107-06-2
State: gas
Melting point: -35.36 C
Boiling point: 83.47 C
Class: IUPAC A
Instrument: IFS66V (Bruker)
Instrument parameters: KBr Beam Splitter; MCT Detector; Multipass cell
Sampling: 1 L/min Flow
Resolution: 0.2410
Temperature: 23 C
Pressure: 101.3 Pa
Origin: NIST, Analytical Chemistry Division, 301-975-3108
cm-1	(micromol/mol)-1m-1 (base 10)
575.05	8.37074e-07
583.608	6.37603e-07
592.165	5.32108e-07
600.723	-1.49173e-07
609.281	-3.89662e-08
617.838	-3.2427e-07
626.396	-1.92861e-07
634.954	4.94548e-07
643.511	2.53979e-06
652.069	7.46251e-06
660.626	1.4731e-05
669.184	1.42758e-05
677.742	2.44808e-05
686.299	4.07397e-05
694.857	2.97713e-05
703.415	3.86338e-05
711.972	0.000134037
720.53	0.000495418
729.088	0.000517709
737.645	0.000221905
746.203	6.31302e-06
754.761	6.48501e-06
763.318	6.54479e-06
771.876	9.34614e-06
780.434	5.06233e-06
788.991	4.12161e-06
797.549	3.28778e-06
806.106	1.75315e-06
814.664	1.55203e-06
823.222	1.73919e-06
831.779	2.3733e-06
840.337	1.54178e-06
848.895	6.34544e-07
857.452	1.01422e-06
866.01	1.32875e-06
874.568	4.96744e-06
883.125	2.12392e-05
891.683	1.7173e-05
900.241	1.62156e-05
908.798	3.02214e-06
917.356	1.61067e-06
925.914	3.12295e-06
934.471	6.93816e-06
943.029	9.26835e-06
951.586	9.58316e-06
960.144	6.25382e-06
968.702	2.76795e-06
977.259	1.91306e-06
985.817	3.02309e-06
994.375	3.49535e-06
1002.93	1.62232e-06
1011.49	2.01933e-06
1020.05	3.71265e-06
1028.61	4.52237e-06
1037.16	2.60865e-06
1045.72	1.07517e-06
1054.28	4.11663e-07
1062.84	-2.69473e-08
1071.39	2.75284e-08
1079.95	3.00312e-07
1088.51	4.82939e-07
1097.07	1.09494e-06
1105.62	1.89223e-06
1114.18	2.71064e-06
1122.74	5.19069e-06
1131.3	2.24552e-06
1139.85	3.34245e-06
1148.41	2.4562e-06
1156.97	1.90185e-06
1165.53	1.24865e-06
1174.09	8.56803e-07
1182.64	1.0629e-06
1191.2	1.84815e-06
1199.76	4.29948e-06
1208.32	6.31628e-06
1216.87	1.62229e-05
1225.43	0.000141984
1233.99	0.000125583
1242.55	8.91614e-05
1251.1	1.29183e-05
1259.66	6.27446e-06
1268.22	4.54873e-06
1276.78	1.06304e-05
1285.33	4.40441e-05
1293.89	2.11614e-05
1302.45	3.17647e-05
1311.01	1.12457e-05
1319.57	1.31122e-05
1328.12	8.0387e-06
1336.68	4.62875e-06
1345.24	3.35477e-06
1353.8	2.80652e-06
1362.35	2.41413e-06
1370.91	1.79746e-06
1379.47	1.20651e-06
1388.03	8.58923e-07
1396.58	7.3974e-07
1405.14	1.11771e-06
1413.7	2.9027e-06
1422.26	7.43855e-06
1430.81	1.67664e-05
1439.37	2.07176e-05
1447.93	2.46956e-05
1456.49	3.03181e-05
1465.05	3.28548e-05
1473.6	1.47215e-05
1482.16	9.74876e-06
1490.72	5.29073e-06
1499.28	2.74761e-06
1507.83	9.43272e-07
1516.39	1.23968e-06
1524.95	2.08642e-06
1533.51	2.44048e-06
1542.06	1.78834e-07
1550.62	4.94804e-07
1559.18	6.46338e-08
1567.74	2.09122e-07
1576.29	-1.208e-06
1584.85	2.5769e-07
1593.41	8.50582e-08
1601.97	-1.70485e-07
1610.53	3.96883e-08
1619.08	-6.14597e-08
1627.64	-3.11243e-07
1636.2	-1.31257e-07
1644.76	-5.91305e-08
1653.31	-2.11544e-06
1661.87	-7.1967e-08
1670.43	1.78688e-07
1678.99	3.06685e-07
1687.54	2.07494e-07
1696.1	-8.55586e-07
1704.66	-1.18091e-07
1713.22	1.6458e-07
1721.77	2.20824e-07
1730.33	2.60814e-08
1738.89	-3.02005e-08
1747.45	4.71643e-08
1756.01	1.77341e-08
1764.56	8.90636e-08
1773.12	-1.44782e-08
1781.68	1.1848e-07
1790.24	3.76247e-08
1798.79	-9.12964e-08
1807.35	-8.24325e-08
1815.91	5.14298e-08
1824.47	-1.76869e-08
1833.02	-2.0147e-08
1841.58	3.09954e-08
1850.14	6.37971e-08
1858.7	9.2888e-08
1867.25	-1.98778e-08
1875.81	-1.38734e-08
1884.37	-3.46952e-08
1892.93	1.69494e-07
1901.49	1.4185e-07
1910.04	-2.22188e-08
1918.6	5.40137e-08
1927.16	-2.82215e-08
1935.72	-9.67743e-08
1944.27	-1.09154e-07
1952.83	-7.16933e-08
1961.39	-3.49681e-08
1969.95	5.44785e-10
1978.5	-6.82754e-08
1987.06	5.46112e-08
1995.62	-8.16677e-08
2004.18	7.23017e-08
2012.73	3.52913e-07
2021.29	1.09212e-06
2029.85	1.97808e-06
2038.41	1.84964e-06
2046.97	6.6339e-07
2055.52	2.54473e-07
2064.08	1.53352e-07
2072.64	8.59195e-09
2081.2	2.87099e-08
2089.75	7.98041e-08
2098.31	2.93257e-07
2106.87	2.34574e-07
2115.43	4.82745e-07
2123.98	2.70304e-07
2132.54	4.20428e-07
2141.1	2.11998e-07
2149.66	5.37154e-08
2158.21	1.73132e-07
2166.77	1.67921e-07
2175.33	2.6893e-07
2183.89	5.84952e-07
2192.45	7.84076e-07
2201	1.15429e-06
2209.56	1.21476e-06
2218.12	1.6465e-06
2226.68	1.54856e-06
2235.23	1.4472e-06
2243.79	9.30616e-07
2252.35	7.18063e-07
2260.91	3.32853e-07
2269.46	2.20878e-07
2278.02	1.60687e-07
2286.58	2.50954e-07
2295.14	9.02605e-08
2303.69	1.71471e-07
2312.25	3.36052e-07
2320.81	-2.15367e-09
2329.37	2.99424e-07
2337.93	-1.30783e-07
2346.48	1.26363e-07
2355.04	2.30254e-07
2363.6	-7.95804e-09
2372.16	3.40316e-07
2380.71	8.4241e-07
2389.27	1.13195e-06
2397.83	5.77278e-07
2406.39	6.75007e-07
2414.94	6.62169e-07
2423.5	7.72407e-07
2432.06	4.82976e-07
2440.62	6.5613e-07
2449.17	4.17419e-07
2457.73	5.84329e-07
2466.29	5.80596e-07
2474.85	3.24863e-07
2483.41	2.4711e-07
2491.96	3.34076e-07
2500.52	5.7071e-07
2509.08	6.93438e-07
2517.64	6.99548e-07
2526.19	6.69769e-07
2534.75	5.09391e-07
2543.31	3.06104e-07
2551.87	2.06354e-07
2560.42	3.30918e-08
2568.98	-1.0152e-07
2577.54	-4.93999e-08
2586.1	1.37792e-07
2594.65	-8.60896e-08
2603.21	-7.41989e-08
2611.77	-2.51321e-07
2620.33	-1.65194e-07
2628.89	1.30967e-09
2637.44	-1.0855e-07
2646	-2.61497e-08
2654.56	5.96189e-08
2663.12	-1.53886e-08
2671.67	3.35659e-07
2680.23	1.50034e-06
2688.79	1.47132e-06
2697.35	1.01292e-06
2705.9	1.79493e-07
2714.46	1.21056e-07
2723.02	5.32135e-07
2731.58	2.92159e-07
2740.13	6.58916e-07
2748.69	6.75428e-07
2757.25	2.09999e-06
2765.81	1.87067e-06
2774.37	1.19156e-06
2782.92	1.50367e-07
2791.48	6.51349e-08
2800.04	4.31735e-08
2808.6	-9.31718e-08
2817.15	2.06181e-09
2825.71	3.20849e-07
2834.27	6.37013e-07
2842.83	1.71475e-06
2851.38	3.62444e-06
2859.94	3.86678e-06
2868.5	4.7306e-06
2877.06	5.1734e-06
2885.61	1.26631e-05
2894.17	1.00493e-05
2902.73	1.06053e-05
2911.29	3.33635e-06
2919.85	2.14294e-06
2928.4	2.16885e-06
2936.96	4.75377e-06
2945.52	1.20635e-05
2954.08	2.57019e-05
2962.63	2.53499e-05
2971.19	4.87193e-05
2979.75	5.37024e-05
2988.31	5.76318e-05
2996.86	3.75983e-05
3005.42	2.88866e-05
3013.98	2.40307e-05
3022.54	1.83878e-05
3031.09	1.33232e-05
3039.65	9.52833e-06
3048.21	8.14681e-06
3056.77	5.43933e-06
3065.33	3.13414e-06
3073.88	1.65575e-06
3082.44	9.54355e-07
3091	7.20293e-07
3099.56	4.91171e-07
3108.11	5.45037e-07
3116.67	5.14842e-07
3125.23	3.19749e-07
3133.79	-1.70038e-08
3142.34	3.26525e-08
3150.9	-4.42103e-08
3159.46	1.11094e-08
3168.02	-8.66417e-08
3176.57	-2.40904e-07
3185.13	-5.97289e-08
3193.69	1.44838e-07
3202.25	2.66175e-07
3210.81	1.46639e-07
3219.36	1.10359e-07
3227.92	5.02957e-08
3236.48	-1.95714e-07
3245.04	6.5798e-08
3253.59	4.34527e-08
3262.15	2.5788e-07
3270.71	4.79783e-08
3279.27	1.48288e-07
3287.82	6.33714e-08
3296.38	6.63136e-08
3304.94	-1.64693e-07
3313.5	7.03281e-08
3322.05	2.97461e-07
3330.61	-1.134e-07
3339.17	-1.27533e-07
3347.73	-1.33189e-07
3356.29	2.50253e-07
3364.84	-1.08408e-07
3373.4	-1.49867e-07
3381.96	-1.58957e-07
3390.52	1.02857e-07
3399.07	2.38931e-07
3407.63	1.68345e-07
3416.19	9.18667e-08
3424.75	-1.97614e-08
3433.3	-9.36493e-08
3441.86	-1.26707e-07
3450.42	-1.22114e-07
3458.98	2.16486e-08
3467.53	2.16821e-07
3476.09	7.044e-09
3484.65	-1.75212e-07
3493.21	2.25099e-08
3501.77	-2.36483e-07
3510.32	-2.91812e-07
3518.88	-8.01079e-08
3527.44	1.45055e-07
3536	-4.24795e-08
3544.55	-5.40564e-08
3553.11	-1.05323e-07
3561.67	5.15144e-08
3570.23	-2.46363e-07
3578.78	-1.59631e-07
3587.34	-1.43442e-07
3595.9	1.41228e-07
3604.46	-1.38417e-07
3613.01	-2.34057e-08
3621.57	9.64905e-08
3630.13	2.37721e-07
3638.69	2.80088e-07
3647.25	-1.94114e-07
3655.8	2.37704e-07
3664.36	3.61727e-07
3672.92	4.65087e-07
3681.48	3.26018e-07
3690.03	2.71233e-07
3698.59	4.07391e-07
3707.15	2.0093e-07
3715.71	2.15837e-07
3724.26	2.2606e-07
3732.82	4.94924e-07
3741.38	6.44683e-07
3749.94	1.12707e-06
3758.49	1.50388e-06
3767.05	9.28862e-07
3775.61	1.33832e-06
3784.17	1.01372e-06
3792.73	1.02932e-06
3801.28	-3.47168e-07
3809.84	5.79108e-07
3818.4	5.99256e-07
3826.96	5.53211e-07
3835.51	2.04948e-07
3844.07	2.46748e-07
3852.63	-4.0234e-08
3861.19	1.6131e-07
3869.74	3.38039e-08
3878.3	-3.09472e-08
3886.86	2.40164e-07
3895.42	3.03966e-07
3903.97	-2.16998e-07
3912.53	-1.70708e-07
3921.09	1.76332e-08
3929.65	-1.51012e-08
3938.21	-3.77247e-08
3946.76	1.75186e-07
3955.32	4.02662e-07
3963.88	3.78248e-07
3972.44	6.03989e-07
