Infrared Spectrum: 1,2-Dichloroethane
Formula: Cl C H2 C H2 Cl
CAS: 107-06-2
State: gas
Melting point: -35.36 C
Boiling point: 83.47 C
Class: IUPAC A
Instrument: IFS66V (Bruker)
Instrument parameters: KBr Beam Splitter; MCT Detector; Multipass cell
Sampling: 1 L/min Flow
Resolution: 0.9640
Temperature: 23 C
Pressure: 101.3 Pa
Origin: NIST, Analytical Chemistry Division, 301-975-3108
cm-1	(micromol/mol)-1m-1 (base 10)
575.17	1.83282e-07
583.848	7.8199e-07
592.526	6.66505e-07
601.205	-1.18668e-07
609.883	-3.76844e-07
618.561	-2.47581e-08
627.239	3.73165e-07
635.917	7.87004e-07
644.595	3.23128e-06
653.274	8.37541e-06
661.952	1.54781e-05
670.63	1.55301e-05
679.308	2.61679e-05
687.986	3.97647e-05
696.664	3.10312e-05
705.343	4.11967e-05
714.021	0.000201216
722.699	0.000549346
731.377	0.00058144
740.055	5.93994e-05
748.734	6.25584e-06
757.412	6.98969e-06
766.09	7.55746e-06
774.768	6.19065e-06
783.446	4.70085e-06
792.124	3.73605e-06
800.803	2.50625e-06
809.481	1.7499e-06
818.159	1.56833e-06
826.837	2.05522e-06
835.515	1.89883e-06
844.194	1.21042e-06
852.872	5.89693e-07
861.55	8.76134e-07
870.228	2.36442e-06
878.906	1.2508e-05
887.584	1.99632e-05
896.263	2.155e-05
904.941	6.48135e-06
913.619	2.02468e-06
922.297	2.23303e-06
930.975	5.12913e-06
939.653	9.15086e-06
948.332	7.59835e-06
957.01	8.52311e-06
965.688	3.60104e-06
974.366	1.78472e-06
983.044	2.62112e-06
991.723	3.27033e-06
1000.4	2.12562e-06
1009.08	1.71534e-06
1017.76	3.34185e-06
1026.44	4.71445e-06
1035.11	3.19138e-06
1043.79	1.1333e-06
1052.47	4.47905e-07
1061.15	1.46774e-07
1069.83	1.07058e-07
1078.5	2.87109e-07
1087.18	5.25277e-07
1095.86	1.09525e-06
1104.54	1.81824e-06
1113.22	2.30842e-06
1121.9	4.10143e-06
1130.57	3.13141e-06
1139.25	2.98033e-06
1147.93	2.46242e-06
1156.61	1.94191e-06
1165.29	1.24578e-06
1173.96	8.11392e-07
1182.64	9.4545e-07
1191.32	1.84103e-06
1200	3.69754e-06
1208.68	6.75021e-06
1217.36	1.90276e-05
1226.03	0.000152384
1234.71	0.000142536
1243.39	7.08631e-05
1252.07	9.98955e-06
1260.75	6.39815e-06
1269.42	4.77738e-06
1278.1	1.49197e-05
1286.78	4.28632e-05
1295.46	3.50734e-05
1304.14	2.39707e-05
1312.82	9.54114e-06
1321.49	1.15098e-05
1330.17	7.10312e-06
1338.85	4.07734e-06
1347.53	3.02316e-06
1356.21	2.97176e-06
1364.88	2.24038e-06
1373.56	1.24016e-06
1382.24	1.10466e-06
1390.92	8.96522e-07
1399.6	8.26466e-07
1408.28	1.7122e-06
1416.95	3.9371e-06
1425.63	1.11117e-05
1434.31	1.81838e-05
1442.99	2.58663e-05
1451.67	3.09509e-05
1460.34	1.87399e-05
1469.02	2.30562e-05
1477.7	1.22099e-05
1486.38	7.6407e-06
1495.06	3.95773e-06
1503.73	1.72281e-06
1512.41	8.42833e-07
1521.09	1.697e-06
1529.77	2.76382e-06
1538.45	1.33754e-06
1547.13	7.05149e-07
1555.8	2.23794e-07
1564.48	1.68411e-07
1573.16	2.33235e-07
1581.84	2.07741e-07
1590.52	7.18252e-08
1599.19	8.38641e-09
1607.87	5.44057e-09
1616.55	-6.22978e-07
1625.23	6.16543e-09
1633.91	-9.51499e-08
1642.59	-1.23702e-07
1651.26	-1.60602e-07
1659.94	-2.17841e-08
1668.62	-6.40163e-08
1677.3	2.05117e-07
1685.98	1.64999e-07
1694.65	9.83295e-08
1703.33	9.89334e-08
1712.01	1.88696e-07
1720.69	1.53218e-07
1729.37	7.90101e-08
1738.05	1.59161e-09
1746.72	-3.6878e-08
1755.4	5.379e-08
1764.08	5.96107e-08
1772.76	-3.43606e-07
1781.44	7.47755e-08
1790.11	7.69601e-08
1798.79	-3.88962e-08
1807.47	-6.94523e-08
1816.15	1.657e-08
1824.83	-9.4778e-08
1833.51	-7.33777e-09
1842.18	3.21141e-09
1850.86	6.9304e-08
1859.54	3.56193e-08
1868.22	-6.30249e-08
1876.9	7.31175e-08
1885.57	8.09583e-08
1894.25	4.37628e-08
1902.93	5.7528e-08
1911.61	-2.38377e-08
1920.29	-7.4851e-10
1928.97	-1.99269e-08
1937.64	-4.95599e-08
1946.32	-4.98401e-08
1955	-4.8163e-08
1963.68	-2.40751e-08
1972.36	-1.36078e-08
1981.03	3.56111e-08
1989.71	3.2758e-08
1998.39	-5.92078e-10
2007.07	1.39642e-07
2015.75	3.9374e-07
2024.43	1.45398e-06
2033.1	2.05539e-06
2041.78	1.44659e-06
2050.46	3.17048e-07
2059.14	1.31835e-07
2067.82	7.12367e-08
2076.49	4.61039e-08
2085.17	6.97442e-08
2093.85	1.5853e-07
2102.53	3.04426e-07
2111.21	3.34485e-07
2119.89	3.05098e-07
2128.56	2.17074e-07
2137.24	1.78396e-07
2145.92	1.77851e-07
2154.6	8.54684e-08
2163.28	9.61631e-08
2171.95	3.0044e-07
2180.63	4.52421e-07
2189.31	8.26271e-07
2197.99	9.5704e-07
2206.67	1.2895e-06
2215.35	1.58112e-06
2224.02	1.49767e-06
2232.7	1.4928e-06
2241.38	1.09871e-06
2250.06	6.92557e-07
2258.74	4.04004e-07
2267.41	2.37421e-07
2276.09	1.5929e-07
2284.77	1.85846e-07
2293.45	1.88083e-07
2302.13	1.54908e-07
2310.81	9.08899e-08
2319.48	4.11044e-08
2328.16	-3.29154e-08
2336.84	-1.07153e-07
2345.52	-1.84717e-07
2354.2	-4.7893e-07
2362.87	-9.50799e-07
2371.55	-1.15178e-07
2380.23	9.81549e-07
2388.91	1.08485e-06
2397.59	6.56938e-07
2406.27	5.87631e-07
2414.94	5.82023e-07
2423.62	7.70666e-07
2432.3	5.95681e-07
2440.98	6.08704e-07
2449.66	4.83653e-07
2458.33	7.04556e-07
2467.01	5.80341e-07
2475.69	3.8676e-07
2484.37	2.33477e-07
2493.05	3.50632e-07
2501.73	4.61812e-07
2510.4	6.50633e-07
2519.08	7.92103e-07
2527.76	5.6617e-07
2536.44	5.12344e-07
2545.12	3.59692e-07
2553.79	2.37977e-07
2562.47	-3.54938e-08
2571.15	-8.13812e-09
2579.83	-9.61868e-08
2588.51	-6.84673e-08
2597.19	-1.30957e-07
2605.86	-1.42948e-07
2614.54	-1.21987e-07
2623.22	-8.17431e-08
2631.9	-1.69256e-08
2640.58	5.17636e-08
2649.25	1.32467e-08
2657.93	-3.83159e-08
2666.61	1.15842e-07
2675.29	5.45771e-07
2683.97	1.80449e-06
2692.65	1.77858e-06
2701.32	3.93532e-07
2710	1.98786e-07
2718.68	3.37283e-07
2727.36	4.20357e-07
2736.04	5.91481e-07
2744.71	4.2786e-07
2753.39	1.14468e-06
2762.07	2.3358e-06
2770.75	2.45383e-06
2779.43	2.2207e-07
2788.11	1.1434e-07
2796.78	1.49311e-08
2805.46	-8.76221e-08
2814.14	5.75498e-08
2822.82	1.24395e-07
2831.5	4.84428e-07
2840.17	1.33632e-06
2848.85	2.9898e-06
2857.53	3.55741e-06
2866.21	4.61299e-06
2874.89	4.8444e-06
2883.57	9.1583e-06
2892.24	1.12406e-05
2900.92	1.31869e-05
2909.6	3.59615e-06
2918.28	2.44432e-06
2926.96	1.99185e-06
2935.63	4.13525e-06
2944.31	1.07917e-05
2952.99	2.41948e-05
2961.67	2.83579e-05
2970.35	4.51841e-05
2979.03	5.75707e-05
2987.7	5.91896e-05
2996.38	3.64135e-05
3005.06	2.88654e-05
3013.74	2.48244e-05
3022.42	1.81467e-05
3031.09	1.37317e-05
3039.77	9.77902e-06
3048.45	8.00761e-06
3057.13	5.36975e-06
3065.81	2.96681e-06
3074.49	1.67769e-06
3083.16	9.60102e-07
3091.84	6.68303e-07
3100.52	6.10708e-07
3109.2	5.30487e-07
3117.88	4.45186e-07
3126.55	3.49051e-07
3135.23	7.88091e-08
3143.91	8.09637e-08
3152.59	7.90865e-08
3161.27	-3.15748e-08
3169.95	-7.07974e-08
3178.62	-4.98646e-08
3187.3	1.59076e-07
3195.98	2.7377e-07
3204.66	1.7294e-07
3213.34	8.78968e-08
3222.01	9.04433e-08
3230.69	1.45885e-07
3239.37	3.37075e-08
3248.05	6.1296e-08
3256.73	1.55944e-07
3265.41	2.47354e-08
3274.08	1.35988e-07
3282.76	6.94923e-08
3291.44	6.0391e-08
3300.12	-7.55877e-09
3308.8	-1.41899e-08
3317.47	-1.0573e-07
3326.15	-1.5287e-07
3334.83	-8.60323e-08
3343.51	-4.65686e-08
3352.19	-7.66464e-08
3360.86	2.1072e-08
3369.54	-6.18599e-08
3378.22	5.95643e-08
3386.9	-9.23114e-08
3395.58	-9.01814e-08
3404.26	1.6297e-07
3412.93	1.82372e-07
3421.61	1.39716e-08
3430.29	-1.31076e-08
3438.97	7.29584e-08
3447.65	-1.00738e-07
3456.32	-4.14427e-08
3465	-4.66759e-08
3473.68	-8.01243e-08
3482.36	9.44132e-08
3491.04	-1.71712e-09
3499.72	-7.0088e-08
3508.39	-1.11113e-07
3517.07	-9.42268e-08
3525.75	-5.28677e-08
3534.43	-1.05707e-07
3543.11	-2.93884e-08
3551.78	-3.53773e-08
3560.46	-8.40087e-08
3569.14	-1.35238e-07
3577.82	-1.04896e-07
3586.5	-1.88678e-07
3595.18	-1.08615e-07
3603.85	-1.05019e-08
3612.53	-4.0586e-08
3621.21	1.25373e-07
3629.89	-1.03557e-07
3638.57	2.6913e-07
3647.24	6.65074e-08
3655.92	1.27139e-07
3664.6	2.78381e-07
3673.28	3.61925e-07
3681.96	3.3614e-07
3690.64	2.55967e-08
3699.31	2.4338e-07
3707.99	2.26591e-07
3716.67	2.10814e-07
3725.35	2.37555e-07
3734.03	3.60568e-07
3742.7	8.5366e-07
3751.38	9.58462e-07
3760.06	1.0927e-06
3768.74	1.015e-06
3777.42	1.0803e-06
3786.1	9.60006e-07
3794.77	6.43468e-07
3803.45	8.63152e-07
3812.13	4.75831e-07
3820.81	1.70172e-07
3829.49	3.26468e-07
3838.16	-2.80702e-07
3846.84	3.10783e-07
3855.52	8.23998e-08
3864.2	-1.88201e-08
3872.88	2.98786e-08
3881.56	4.12099e-08
3890.23	1.15036e-07
3898.91	-1.8178e-08
3907.59	7.0199e-08
3916.27	3.94628e-08
3924.95	1.64872e-08
3933.62	4.13081e-08
3942.3	1.36416e-07
3950.98	2.38912e-07
3959.66	2.82442e-07
3968.34	2.76246e-07
