Infrared Spectrum: Nitrile-Propenoic Acid
Formula: C H2: C H C N
CAS: 107-13-1
State: gas
Melting point: -83.5 C
Boiling point: 77.5 C
Class: IUPAC A
Instrument: IFS66V (Bruker)
Instrument parameters: KBr Beam splitter; MCT Detector; Multipass cell
Sampling: 1 L/min Flow
Resolution: 0.2410
Temperature: 23 C
Pressure: 101.3 kPa
Origin: NIST, Anayltical Chemistry Division, 301-975-3108
cm-1	(micromol/mol)-1m-1 (base 10)
575.048	-8.17768e-08
583.606	4.20503e-07
592.163	5.7902e-07
600.721	3.6953e-07
609.279	2.9218e-07
617.836	1.18045e-06
626.394	2.33152e-06
634.951	5.34606e-06
643.509	9.39144e-06
652.067	1.4212e-05
660.624	3.12159e-05
669.182	2.28433e-05
677.74	2.51755e-05
686.297	1.87209e-05
694.855	1.72147e-05
703.412	1.51913e-05
711.97	2.34462e-05
720.528	8.81317e-06
729.085	1.11584e-05
737.643	4.24878e-06
746.201	2.6546e-06
754.758	1.6611e-06
763.316	1.78211e-06
771.873	3.75028e-06
780.431	4.58424e-06
788.989	2.26432e-06
797.546	3.84898e-06
806.104	1.21852e-06
814.662	2.71539e-07
823.219	1.17004e-07
831.777	1.65554e-07
840.334	5.86462e-07
848.892	2.70334e-06
857.45	7.80217e-06
866.007	5.08384e-06
874.565	6.23645e-06
883.123	7.67192e-06
891.68	6.56627e-06
900.238	1.27117e-05
908.795	2.73011e-05
917.353	3.63674e-05
925.911	4.69078e-05
934.468	7.61502e-05
943.026	0.000113931
951.584	0.000118345
960.141	9.15556e-05
968.699	0.000115758
977.256	8.7231e-05
985.814	0.000101809
994.372	6.71562e-05
1002.93	5.7004e-05
1011.49	3.4226e-05
1020.04	2.02654e-05
1028.6	9.97334e-06
1037.16	4.09805e-06
1045.72	1.90087e-06
1054.28	1.17138e-06
1062.83	1.33475e-06
1071.39	2.59036e-06
1079.95	1.00208e-05
1088.51	1.06637e-05
1097.06	7.80229e-06
1105.62	7.79438e-06
1114.18	2.23525e-06
1122.74	5.37139e-07
1131.29	3.20247e-07
1139.85	1.69231e-07
1148.41	1.34738e-07
1156.97	6.63102e-08
1165.52	1.33728e-07
1174.08	2.22387e-07
1182.64	2.15337e-07
1191.2	3.89231e-07
1199.75	2.70086e-07
1208.31	4.89223e-07
1216.87	2.03917e-07
1225.43	3.18667e-07
1233.99	1.94897e-07
1242.54	2.09244e-07
1251.1	1.67372e-07
1259.66	6.5578e-07
1268.22	2.26882e-06
1276.77	2.26866e-06
1285.33	2.97637e-06
1293.89	3.25105e-06
1302.45	1.62889e-06
1311	2.37004e-06
1319.56	2.54362e-06
1328.12	2.23025e-06
1336.68	3.59015e-06
1345.23	2.81929e-06
1353.79	3.43624e-06
1362.35	2.79678e-06
1370.91	4.36419e-06
1379.46	6.18158e-06
1388.02	5.93907e-06
1396.58	1.16343e-05
1405.14	2.38542e-05
1413.7	1.0697e-05
1422.25	2.43864e-05
1430.81	2.05433e-05
1439.37	8.91945e-06
1447.93	6.31008e-06
1456.48	5.21338e-06
1465.04	3.11261e-06
1473.6	3.59886e-06
1482.16	4.19698e-07
1490.71	1.32992e-06
1499.27	3.47762e-07
1507.83	6.12083e-07
1516.39	5.93497e-07
1524.94	4.77029e-07
1533.5	6.47862e-07
1542.06	3.76125e-06
1550.62	4.55765e-07
1559.18	1.23119e-06
1567.73	8.66217e-07
1576.29	6.58244e-06
1584.85	1.85218e-06
1593.41	4.52353e-06
1601.96	1.44188e-05
1610.52	1.03225e-05
1619.08	1.07461e-05
1627.64	1.52149e-05
1636.19	9.26144e-06
1644.75	8.65329e-06
1653.31	1.41438e-05
1661.87	7.66592e-06
1670.42	3.84683e-06
1678.98	2.63559e-06
1687.54	1.37184e-06
1696.1	4.74757e-06
1704.65	9.90868e-07
1713.21	3.5044e-07
1721.77	1.88502e-07
1730.33	4.60447e-07
1738.89	3.07146e-07
1747.44	3.51624e-07
1756	1.17548e-07
1764.56	4.02818e-08
1773.12	6.19887e-07
1781.67	4.69082e-08
1790.23	1.19302e-07
1798.79	1.93965e-08
1807.35	3.35398e-08
1815.9	6.38118e-08
1824.46	3.5916e-07
1833.02	7.05467e-07
1841.58	4.69839e-07
1850.13	9.10491e-07
1858.69	7.72872e-07
1867.25	9.02018e-07
1875.81	1.65362e-06
1884.36	5.46615e-06
1892.92	1.20728e-05
1901.48	1.58442e-05
1910.04	1.06033e-05
1918.6	1.9299e-05
1927.15	7.74704e-06
1935.71	3.17673e-06
1944.27	3.57359e-06
1952.83	2.04699e-06
1961.38	1.21788e-06
1969.94	7.69345e-07
1978.5	5.49193e-07
1987.06	3.94775e-07
1995.61	1.81957e-07
2004.17	1.21593e-07
2012.73	1.47448e-07
2021.29	9.03878e-08
2029.84	1.7291e-08
2038.4	6.4504e-08
2046.96	2.35943e-07
2055.52	1.23505e-07
2064.08	2.52461e-07
2072.63	4.59578e-08
2081.19	6.48778e-08
2089.75	7.65582e-08
2098.31	5.32146e-08
2106.86	8.02525e-09
2115.42	1.28864e-08
2123.98	-4.50384e-08
2132.54	-2.27379e-08
2141.09	6.23776e-08
2149.65	2.1973e-08
2158.21	1.20704e-07
2166.77	7.97496e-08
2175.32	6.06241e-08
2183.88	1.24492e-07
2192.44	1.30112e-07
2201	6.60719e-08
2209.55	2.6538e-07
2218.11	9.26429e-07
2226.67	2.20966e-06
2235.23	1.94484e-06
2243.79	2.01003e-06
2252.34	2.18838e-06
2260.9	6.67206e-07
2269.46	1.10857e-06
2278.02	7.89986e-07
2286.57	1.23503e-06
2295.13	1.15474e-06
2303.69	4.36499e-07
2312.25	4.36652e-07
2320.8	2.20326e-07
2329.36	1.2231e-07
2337.92	2.38753e-07
2346.48	1.30962e-07
2355.03	1.99184e-07
2363.59	4.06328e-07
2372.15	4.47487e-07
2380.71	7.15861e-07
2389.26	5.29396e-07
2397.82	5.54867e-07
2406.38	4.14833e-07
2414.94	2.31266e-07
2423.5	2.40824e-07
2432.05	2.44985e-07
2440.61	2.84472e-07
2449.17	5.35374e-07
2457.73	5.74384e-07
2466.28	5.22061e-07
2474.84	8.15824e-07
2483.4	5.2748e-07
2491.96	5.58602e-07
2500.51	2.93902e-07
2509.07	2.84916e-07
2517.63	1.816e-07
2526.19	2.11541e-07
2534.74	2.0489e-07
2543.3	2.56874e-07
2551.86	2.09679e-07
2560.42	2.5493e-07
2568.98	9.4329e-07
2577.53	2.15718e-07
2586.09	1.84246e-07
2594.65	1.58542e-07
2603.21	9.04933e-08
2611.76	5.52327e-09
2620.32	-4.94066e-08
2628.88	-1.99049e-08
2637.44	-2.77901e-08
2645.99	1.48973e-08
2654.55	-6.52161e-08
2663.11	4.97013e-08
2671.67	-1.7171e-09
2680.22	2.33305e-07
2688.78	4.22168e-07
2697.34	5.28603e-07
2705.9	4.91792e-07
2714.45	6.89228e-07
2723.01	4.2061e-07
2731.57	1.51287e-07
2740.13	7.93076e-08
2748.69	6.7548e-08
2757.24	3.28068e-08
2765.8	3.81645e-08
2774.36	2.09314e-07
2782.92	1.55145e-07
2791.47	1.52741e-07
2800.03	1.18768e-07
2808.59	1.29253e-07
2817.15	5.13556e-08
2825.7	2.54536e-08
2834.26	6.56126e-08
2842.82	-1.0254e-07
2851.38	-1.04768e-07
2859.93	-1.4967e-07
2868.49	2.98128e-08
2877.05	1.43553e-07
2885.61	1.58286e-07
2894.16	2.31325e-07
2902.72	1.5248e-07
2911.28	1.4412e-07
2919.84	3.30929e-07
2928.4	7.76787e-08
2936.95	1.23864e-07
2945.51	-2.58574e-08
2954.07	5.0688e-08
2962.63	8.31665e-08
2971.18	1.70727e-07
2979.74	1.36516e-07
2988.3	3.45155e-07
2996.86	4.25103e-07
3005.41	5.29396e-07
3013.97	5.71987e-07
3022.53	2.20415e-06
3031.09	6.17134e-06
3039.64	5.4013e-06
3048.2	6.23543e-06
3056.76	6.69093e-06
3065.32	2.23644e-06
3073.88	1.26506e-06
3082.43	9.96807e-07
3090.99	1.89433e-06
3099.55	2.50908e-06
3108.11	6.47835e-06
3116.66	9.84431e-06
3125.22	2.5499e-06
3133.78	1.00922e-05
3142.34	3.84119e-06
3150.89	1.36549e-06
3159.45	9.47388e-07
3168.01	6.97789e-07
3176.57	4.15362e-07
3185.12	1.22949e-07
3193.68	-3.4151e-09
3202.24	-5.93763e-08
3210.8	-2.27393e-07
3219.35	-3.70158e-08
3227.91	-9.63767e-08
3236.47	-7.84072e-08
3245.03	-8.96347e-08
3253.59	-1.4512e-07
3262.14	-1.37985e-07
3270.7	-3.59326e-08
3279.26	1.20515e-08
3287.82	-7.14315e-08
3296.37	4.13077e-08
3304.93	-5.76747e-08
3313.49	7.81234e-08
3322.05	3.19237e-07
3330.6	4.2179e-08
3339.16	4.98262e-07
3347.72	2.84928e-07
3356.28	1.97785e-08
3364.83	9.47969e-08
3373.39	3.28659e-08
3381.95	5.07208e-08
3390.51	-6.37336e-08
3399.06	-9.63112e-08
3407.62	-2.31156e-07
3416.18	-6.64566e-08
3424.74	4.59624e-08
3433.3	-7.58324e-08
3441.85	-1.98658e-08
3450.41	7.30667e-08
3458.97	4.6177e-08
3467.53	-2.53063e-08
3476.08	9.22285e-08
3484.64	-6.90432e-08
3493.2	-7.3807e-08
3501.76	-3.6502e-08
3510.31	2.49288e-09
3518.87	1.95505e-07
3527.43	2.66418e-07
3535.99	6.62229e-08
3544.54	1.76123e-07
3553.1	6.95116e-08
3561.66	-4.29002e-09
3570.22	1.36266e-07
3578.78	-5.88224e-08
3587.33	8.34712e-08
3595.89	1.3593e-07
3604.45	9.87386e-08
3613.01	4.90596e-07
3621.56	2.30609e-07
3630.12	5.01889e-07
3638.68	2.67095e-07
3647.24	1.30213e-06
3655.79	7.35928e-07
3664.35	2.64359e-07
3672.91	3.84982e-07
3681.47	5.22796e-08
3690.02	1.31141e-07
3698.58	7.22191e-08
3707.14	1.13573e-07
3715.7	-3.06222e-08
3724.25	9.0918e-08
3732.81	2.15769e-07
3741.37	5.54367e-07
3749.93	7.48498e-07
3758.49	-5.81421e-08
3767.04	1.47836e-08
3775.6	-7.23664e-08
3784.16	-6.69596e-08
3792.72	-6.28887e-08
3801.27	3.13665e-06
3809.83	-5.40086e-08
3818.39	1.33308e-07
3826.95	6.3931e-07
3835.5	4.66379e-07
3844.06	6.33605e-07
3852.62	7.98464e-07
3861.18	4.75192e-07
3869.73	5.90955e-07
3878.29	4.31003e-08
3886.85	2.15662e-07
3895.41	1.49579e-07
3903.96	8.88878e-07
3912.52	6.4433e-08
3921.08	2.36498e-07
3929.64	3.51918e-07
3938.2	2.90468e-07
3946.75	1.44311e-07
3955.31	1.10164e-07
3963.87	1.03988e-07
3972.43	1.83427e-07
