Infrared Spectrum: Nitrile-Propenoic Acid
Formula: C H2: C H C N
CAS: 107-13-1
State: gas
Melting point: -83.5 C
Boiling point: 77.5 C
Class: IUPAC A
Instrument: IFS66V (Bruker)
Instrument parameters: KBr Beam splitter; MCT Detector; Multipass cell
Sampling: 1 L/min Flow
Resolution: 1.9290
Temperature: 23 C
Pressure: 101.3 kPa
Origin: NIST, Anayltical Chemistry Division, 301-975-3108
cm-1	(micromol/mol)-1m-1 (base 10)
574.687	3.42788e-07
583.365	3.69151e-07
592.043	4.61313e-07
600.721	4.1923e-07
609.4	5.81e-07
618.078	1.19897e-06
626.756	2.58494e-06
635.434	5.15448e-06
644.112	9.80723e-06
652.79	1.80947e-05
661.469	2.00319e-05
670.147	1.92475e-05
678.825	3.2939e-05
687.503	1.87328e-05
696.181	2.06866e-05
704.859	1.96461e-05
713.537	1.22454e-05
722.216	1.15788e-05
730.894	6.0275e-06
739.572	4.40697e-06
748.25	2.43513e-06
756.928	1.62822e-06
765.606	1.98755e-06
774.285	4.48781e-06
782.963	3.95618e-06
791.641	3.69065e-06
800.319	3.00525e-06
808.997	7.66275e-07
817.675	3.18166e-07
826.353	2.23967e-07
835.032	2.82657e-07
843.71	1.09563e-06
852.388	4.71737e-06
861.066	8.43091e-06
869.744	6.1401e-06
878.422	8.59315e-06
887.101	6.92304e-06
895.779	9.73126e-06
904.457	1.7056e-05
913.135	2.85308e-05
921.813	4.98269e-05
930.491	7.35763e-05
939.169	7.98304e-05
947.848	0.00010988
956.526	0.000112098
965.204	9.7006e-05
973.882	0.000105019
982.56	8.87606e-05
991.238	7.84149e-05
999.917	6.0079e-05
1008.59	4.13887e-05
1017.27	2.40789e-05
1025.95	1.35071e-05
1034.63	5.87576e-06
1043.31	2.48925e-06
1051.99	1.52372e-06
1060.66	1.42817e-06
1069.34	2.02922e-06
1078.02	7.72405e-06
1086.7	1.23868e-05
1095.38	8.65229e-06
1104.05	8.36249e-06
1112.73	3.27233e-06
1121.41	7.46886e-07
1130.09	3.72493e-07
1138.77	2.43696e-07
1147.45	1.57829e-07
1156.12	1.61909e-07
1164.8	2.23097e-07
1173.48	2.49726e-07
1182.16	2.33502e-07
1190.84	2.85201e-07
1199.51	3.04913e-07
1208.19	4.30831e-07
1216.87	2.72745e-07
1225.55	3.07452e-07
1234.23	2.43582e-07
1242.9	2.08246e-07
1251.58	2.38933e-07
1260.26	7.36445e-07
1268.94	2.31489e-06
1277.62	2.18001e-06
1286.3	3.06836e-06
1294.97	3.17028e-06
1303.65	1.79535e-06
1312.33	2.59514e-06
1321.01	2.3236e-06
1329.69	2.46405e-06
1338.36	3.12749e-06
1347.04	3.08631e-06
1355.72	3.19817e-06
1364.4	3.36352e-06
1373.08	5.20428e-06
1381.76	5.41934e-06
1390.43	7.60192e-06
1399.11	1.71001e-05
1407.79	2.21472e-05
1416.47	1.26866e-05
1425.15	2.35516e-05
1433.82	1.10573e-05
1442.5	7.93641e-06
1451.18	4.23134e-06
1459.86	2.5765e-06
1468.54	1.44273e-06
1477.22	9.13193e-07
1485.89	4.53939e-07
1494.57	2.92829e-07
1503.25	2.46477e-07
1511.93	4.95606e-07
1520.61	1.40641e-06
1529.28	2.82327e-07
1537.96	9.5461e-07
1546.64	4.28301e-07
1555.32	9.54859e-07
1564	8.87274e-07
1572.67	1.22316e-06
1581.35	1.83977e-06
1590.03	3.50815e-06
1598.71	9.70717e-06
1607.39	1.34667e-05
1616.07	9.42765e-06
1624.74	1.62747e-05
1633.42	9.30687e-06
1642.1	8.96655e-06
1650.78	5.58778e-06
1659.46	7.50389e-06
1668.13	5.43515e-06
1676.81	2.34683e-06
1685.49	2.88956e-06
1694.17	1.12289e-06
1702.85	6.78336e-07
1711.53	3.40017e-07
1720.2	3.69845e-07
1728.88	2.90879e-07
1737.56	3.04609e-07
1746.24	3.96932e-07
1754.92	1.78613e-07
1763.59	1.04792e-07
1772.27	1.02973e-06
1780.95	2.14356e-07
1789.63	1.37603e-07
1798.31	7.03001e-08
1806.98	6.42375e-08
1815.66	8.88935e-08
1824.34	4.74441e-07
1833.02	7.23399e-07
1841.7	5.82558e-07
1850.38	9.31599e-07
1859.05	7.81961e-07
1867.73	1.1965e-06
1876.41	1.91973e-06
1885.09	5.49361e-06
1893.77	1.33518e-05
1902.44	1.53789e-05
1911.12	1.34681e-05
1919.8	1.6506e-05
1928.48	7.22213e-06
1937.16	3.21396e-06
1945.84	3.6395e-06
1954.51	1.8927e-06
1963.19	1.17037e-06
1971.87	7.34117e-07
1980.55	5.17175e-07
1989.23	3.18398e-07
1997.9	2.0751e-07
2006.58	1.13319e-07
2015.26	6.71201e-08
2023.94	8.52105e-08
2032.62	7.43127e-08
2041.3	9.26915e-08
2049.97	8.4739e-08
2058.65	1.04048e-07
2067.33	1.2083e-07
2076.01	7.23523e-08
2084.69	7.67701e-08
2093.36	7.75996e-08
2102.04	5.91494e-08
2110.72	3.09737e-08
2119.4	2.27729e-08
2128.08	2.09108e-08
2136.75	1.69041e-08
2145.43	4.99614e-08
2154.11	7.55719e-08
2162.79	7.54054e-08
2171.47	6.64966e-08
2180.15	1.12364e-07
2188.82	8.33256e-08
2197.5	9.58865e-08
2206.18	1.73573e-07
2214.86	5.96535e-07
2223.54	1.76995e-06
2232.21	2.31995e-06
2240.89	2.59222e-06
2249.57	2.70296e-06
2258.25	9.06446e-07
2266.93	9.8377e-07
2275.61	1.11668e-06
2284.28	9.65411e-07
2292.96	1.48254e-06
2301.64	4.876e-07
2310.32	4.817e-07
2319	2.68513e-07
2327.67	1.98743e-07
2336.35	2.11393e-07
2345.03	2.08004e-07
2353.71	3.03576e-07
2362.39	4.67797e-07
2371.06	5.03129e-07
2379.74	6.80058e-07
2388.42	5.77739e-07
2397.1	5.31425e-07
2405.78	4.00968e-07
2414.46	2.43689e-07
2423.13	2.3225e-07
2431.81	2.57517e-07
2440.49	3.06121e-07
2449.17	4.96151e-07
2457.85	5.54789e-07
2466.52	5.39389e-07
2475.2	8.16848e-07
2483.88	5.9612e-07
2492.56	4.60155e-07
2501.24	3.09063e-07
2509.92	2.38229e-07
2518.59	2.14961e-07
2527.27	2.32252e-07
2535.95	2.28752e-07
2544.63	3.16411e-07
2553.31	3.3199e-07
2561.98	3.86378e-07
2570.66	3.74577e-07
2579.34	2.24588e-07
2588.02	1.88005e-07
2596.7	1.30875e-07
2605.38	7.34814e-08
2614.05	6.6689e-08
2622.73	-4.42189e-09
2631.41	5.3773e-09
2640.09	-1.94683e-08
2648.77	-2.41149e-08
2657.44	2.45605e-08
2666.12	1.98399e-08
2674.8	1.00008e-07
2683.48	2.43089e-07
2692.16	4.72112e-07
2700.83	5.86197e-07
2709.51	6.31296e-07
2718.19	5.80854e-07
2726.87	2.86618e-07
2735.55	1.48506e-07
2744.23	1.24762e-07
2752.9	4.18825e-08
2761.58	5.13824e-08
2770.26	1.17538e-07
2778.94	1.69463e-07
2787.62	1.842e-07
2796.29	1.22396e-07
2804.97	2.2035e-07
2813.65	6.40879e-08
2822.33	5.79643e-08
2831.01	2.03719e-08
2839.69	-8.86534e-08
2848.36	-1.35859e-07
2857.04	-8.88007e-08
2865.72	-3.71732e-08
2874.4	5.45379e-08
2883.08	1.399e-07
2891.75	2.6138e-07
2900.43	2.98065e-07
2909.11	2.46712e-07
2917.79	2.48452e-07
2926.47	5.61895e-08
2935.14	5.94432e-08
2943.82	3.46007e-08
2952.5	3.20087e-08
2961.18	2.59084e-08
2969.86	8.35653e-08
2978.54	1.40986e-07
2987.21	3.90942e-07
2995.89	3.08876e-07
3004.57	5.30747e-07
3013.25	6.66134e-07
3021.93	2.07636e-06
3030.6	5.80357e-06
3039.28	5.5712e-06
3047.96	6.06487e-06
3056.64	6.65806e-06
3065.32	2.33653e-06
3074	1.24636e-06
3082.67	1.11581e-06
3091.35	1.97544e-06
3100.03	2.81319e-06
3108.71	6.35137e-06
3117.39	9.04547e-06
3126.06	3.72079e-06
3134.74	9.69245e-06
3143.42	3.90053e-06
3152.1	1.71093e-06
3160.78	1.12312e-06
3169.46	6.20241e-07
3178.13	3.73363e-07
3186.81	1.36959e-07
3195.49	-8.73192e-09
3204.17	-7.5535e-08
3212.85	-7.82894e-08
3221.52	-7.46738e-08
3230.2	-3.96638e-08
3238.88	-1.04595e-07
3247.56	-1.69053e-07
3256.24	-1.3333e-07
3264.91	-5.34292e-08
3273.59	-9.32353e-08
3282.27	-1.00022e-07
3290.95	-7.32259e-08
3299.63	1.01198e-08
3308.31	1.96839e-08
3316.98	2.01502e-07
3325.66	2.43399e-07
3334.34	2.981e-07
3343.02	4.78934e-07
3351.7	1.48218e-07
3360.37	1.55204e-07
3369.05	1.96166e-08
3377.73	-4.23363e-09
3386.41	-4.01713e-08
3395.09	-3.57908e-08
3403.77	-4.18434e-08
3412.44	-5.14325e-08
3421.12	-9.06206e-09
3429.8	-2.77091e-08
3438.48	2.83121e-09
3447.16	2.4113e-08
3455.83	6.5559e-08
3464.51	-2.43732e-08
3473.19	-2.34623e-08
3481.87	9.33809e-09
3490.55	3.22088e-08
3499.22	8.01716e-08
3507.9	6.89672e-08
3516.58	1.96801e-07
3525.26	1.83841e-07
3533.94	1.51158e-07
3542.62	1.59758e-07
3551.29	8.30169e-08
3559.97	6.07978e-08
3568.65	3.04569e-07
3577.33	5.1713e-08
3586.01	3.24666e-07
3594.68	1.83322e-07
3603.36	1.24712e-07
3612.04	5.01904e-07
3620.72	4.10205e-07
3629.4	1.38912e-06
3638.08	3.90839e-07
3646.75	8.48351e-07
3655.43	8.18854e-07
3664.11	3.57321e-07
3672.79	3.74693e-07
3681.47	1.42809e-07
3690.14	3.70946e-07
3698.82	9.00576e-08
3707.5	5.79402e-08
3716.18	2.08503e-08
3724.86	1.5312e-07
3733.54	2.87946e-07
3742.21	2.2158e-07
3750.89	5.57416e-07
3759.57	3.69095e-07
3768.25	2.9002e-08
3776.93	5.04943e-09
3785.6	1.69345e-08
3794.28	-2.57456e-08
3802.96	2.7731e-07
3811.64	4.65317e-08
3820.32	6.95046e-07
3828.99	2.18119e-07
3837.67	1.87296e-06
3846.35	3.33329e-07
3855.03	1.85737e-06
3863.71	4.61702e-07
3872.39	1.3781e-07
3881.06	4.51404e-07
3889.74	1.58783e-07
3898.42	4.40321e-07
3907.1	3.00503e-07
3915.78	2.79937e-07
3924.45	3.71458e-07
3933.13	2.51471e-07
3941.81	1.39728e-07
3950.49	1.67838e-07
3959.17	1.22596e-07
3967.85	1.91958e-07
