Infrared Spectrum: 1,2-Dichloroethane
Formula: Cl C H2 C H2 Cl
CAS: 107-06-2
State: gas
Melting point: -35.36 C
Boiling point: 83.47 C
Class: IUPAC A
Instrument: IFS66V (Bruker)
Instrument parameters: KBr Beam Splitter; MCT Detector; Multipass cell
Sampling: 1 L/min Flow
Resolution: 0.9640
Temperature: 23 C
Pressure: 101.3 Pa
Origin: NIST, Analytical Chemistry Division, 301-975-3108
cm-1	(micromol/mol)-1m-1 (base 10)
575.17	-9.29344e-08
583.848	5.76762e-07
592.526	9.26919e-07
601.205	-2.36432e-07
609.883	-6.72135e-07
618.561	1.62962e-07
627.239	7.53325e-07
635.917	5.8122e-07
644.595	3.38963e-06
653.274	8.35691e-06
661.952	1.52346e-05
670.63	1.54821e-05
679.308	2.59256e-05
687.986	3.97707e-05
696.664	3.08305e-05
705.343	4.07078e-05
714.021	0.000200918
722.699	0.000550063
731.377	0.000605693
740.055	5.75792e-05
748.734	6.14746e-06
757.412	7.22599e-06
766.09	7.9378e-06
774.768	6.13294e-06
783.446	4.6891e-06
792.124	4.16601e-06
800.803	2.8345e-06
809.481	1.85816e-06
818.159	1.79343e-06
826.837	2.07833e-06
835.515	1.87276e-06
844.194	1.11523e-06
852.872	7.2725e-07
861.55	8.48343e-07
870.228	2.4098e-06
878.906	1.25143e-05
887.584	1.96413e-05
896.263	2.1839e-05
904.941	6.42748e-06
913.619	2.09545e-06
922.297	2.16749e-06
930.975	5.12474e-06
939.653	9.15257e-06
948.332	7.62021e-06
957.01	8.48864e-06
965.688	3.63072e-06
974.366	1.75763e-06
983.044	2.67898e-06
991.723	3.2587e-06
1000.4	2.12437e-06
1009.08	1.68491e-06
1017.76	3.3109e-06
1026.44	4.82478e-06
1035.11	3.15388e-06
1043.79	1.16014e-06
1052.47	4.69982e-07
1061.15	4.75245e-08
1069.83	9.86587e-08
1078.5	2.57076e-07
1087.18	4.71476e-07
1095.86	1.03988e-06
1104.54	1.77976e-06
1113.22	2.16502e-06
1121.9	4.03485e-06
1130.57	3.68176e-06
1139.25	3.04648e-06
1147.93	2.36882e-06
1156.61	1.94867e-06
1165.29	1.23019e-06
1173.96	8.10496e-07
1182.64	9.84818e-07
1191.32	1.80073e-06
1200	3.86835e-06
1208.68	7.07694e-06
1217.36	1.80054e-05
1226.03	0.000153128
1234.71	0.00014159
1243.39	7.00632e-05
1252.07	8.74589e-06
1260.75	6.02174e-06
1269.42	4.64767e-06
1278.1	1.47031e-05
1286.78	4.28028e-05
1295.46	3.58477e-05
1304.14	2.39953e-05
1312.82	9.54028e-06
1321.49	1.14933e-05
1330.17	7.05903e-06
1338.85	4.04845e-06
1347.53	2.98057e-06
1356.21	2.90658e-06
1364.88	2.30439e-06
1373.56	1.12939e-06
1382.24	1.16048e-06
1390.92	8.51278e-07
1399.6	8.21547e-07
1408.28	1.66764e-06
1416.95	3.84493e-06
1425.63	1.11035e-05
1434.31	1.70733e-05
1442.99	2.68947e-05
1451.67	3.00348e-05
1460.34	1.82472e-05
1469.02	2.22428e-05
1477.7	1.29162e-05
1486.38	7.93188e-06
1495.06	4.03818e-06
1503.73	1.84914e-06
1512.41	7.37579e-07
1521.09	1.42076e-06
1529.77	2.82029e-06
1538.45	1.82991e-06
1547.13	7.58845e-07
1555.8	3.11445e-07
1564.48	1.32671e-07
1573.16	2.27322e-07
1581.84	2.03417e-07
1590.52	1.28936e-07
1599.19	6.35633e-08
1607.87	4.37592e-08
1616.55	-1.13109e-06
1625.23	1.04978e-07
1633.91	3.39785e-09
1642.59	-2.08234e-07
1651.26	-2.66043e-07
1659.94	5.52988e-08
1668.62	1.49367e-07
1677.3	2.24201e-07
1685.98	2.96239e-08
1694.65	4.26142e-08
1703.33	9.73354e-08
1712.01	2.92922e-07
1720.69	1.86708e-07
1729.37	1.3265e-07
1738.05	1.01123e-07
1746.72	-4.28343e-08
1755.4	1.00178e-07
1764.08	1.65782e-08
1772.76	-7.05738e-07
1781.44	1.44938e-07
1790.11	1.10423e-07
1798.79	-1.50684e-08
1807.47	-9.54946e-08
1816.15	7.3625e-08
1824.83	-1.06814e-07
1833.51	-2.64261e-08
1842.18	-4.15792e-08
1850.86	1.25976e-07
1859.54	4.45677e-08
1868.22	-4.16874e-08
1876.9	9.00259e-08
1885.57	1.55727e-07
1894.25	3.08581e-08
1902.93	4.60002e-08
1911.61	-1.12986e-08
1920.29	-2.11684e-08
1928.97	-2.08619e-08
1937.64	-5.11597e-08
1946.32	-7.04527e-08
1955	-2.06109e-08
1963.68	-6.63655e-09
1972.36	-8.2991e-09
1981.03	1.84536e-08
1989.71	-8.07354e-09
1998.39	-5.37763e-08
2007.07	1.42714e-07
2015.75	3.70692e-07
2024.43	1.49795e-06
2033.1	2.06004e-06
2041.78	1.52348e-06
2050.46	3.49685e-07
2059.14	8.60705e-08
2067.82	1.08758e-07
2076.49	8.68472e-08
2085.17	7.69456e-08
2093.85	1.19534e-07
2102.53	3.54617e-07
2111.21	3.38009e-07
2119.89	3.18996e-07
2128.56	1.56437e-07
2137.24	2.17768e-07
2145.92	1.82854e-07
2154.6	8.5442e-08
2163.28	9.87661e-08
2171.95	3.26233e-07
2180.63	5.01451e-07
2189.31	8.4829e-07
2197.99	1.01591e-06
2206.67	1.24167e-06
2215.35	1.71401e-06
2224.02	1.47129e-06
2232.7	1.39802e-06
2241.38	1.11691e-06
2250.06	6.7008e-07
2258.74	4.08998e-07
2267.41	2.50963e-07
2276.09	2.10078e-07
2284.77	2.21836e-07
2293.45	2.03534e-07
2302.13	2.30517e-07
2310.81	1.41956e-07
2319.48	8.47827e-08
2328.16	4.63603e-08
2336.84	6.33986e-07
2345.52	-1.98001e-07
2354.2	-8.4534e-07
2362.87	-2.22825e-06
2371.55	-7.46047e-07
2380.23	1.02983e-06
2388.91	1.15537e-06
2397.59	6.72132e-07
2406.27	6.43069e-07
2414.94	6.26243e-07
2423.62	7.45162e-07
2432.3	6.0815e-07
2440.98	5.85996e-07
2449.66	4.71305e-07
2458.33	8.09931e-07
2467.01	5.53306e-07
2475.69	3.55049e-07
2484.37	2.68435e-07
2493.05	3.76171e-07
2501.73	3.91877e-07
2510.4	6.43421e-07
2519.08	8.17373e-07
2527.76	6.03365e-07
2536.44	4.99985e-07
2545.12	3.75709e-07
2553.79	2.5559e-07
2562.47	-7.40352e-08
2571.15	7.56887e-08
2579.83	-3.66042e-08
2588.51	-5.84793e-08
2597.19	-1.3005e-07
2605.86	-1.67215e-07
2614.54	-1.51787e-07
2623.22	-6.79926e-08
2631.9	3.37785e-09
2640.58	8.48418e-08
2649.25	-5.00629e-08
2657.93	-7.78887e-09
2666.61	4.28315e-08
2675.29	5.70233e-07
2683.97	1.76311e-06
2692.65	1.80597e-06
2701.32	2.6108e-07
2710	2.0414e-07
2718.68	3.14065e-07
2727.36	4.26048e-07
2736.04	6.05469e-07
2744.71	3.84871e-07
2753.39	1.15266e-06
2762.07	2.30735e-06
2770.75	2.44278e-06
2779.43	1.24666e-07
2788.11	5.45503e-08
2796.78	2.81469e-08
2805.46	-1.22577e-07
2814.14	-3.17776e-09
2822.82	8.67135e-08
2831.5	4.55024e-07
2840.17	1.3629e-06
2848.85	2.91233e-06
2857.53	3.59948e-06
2866.21	4.41904e-06
2874.89	4.94764e-06
2883.57	8.91207e-06
2892.24	1.14889e-05
2900.92	1.35933e-05
2909.6	3.75806e-06
2918.28	2.54655e-06
2926.96	2.10338e-06
2935.63	4.00409e-06
2944.31	1.08617e-05
2952.99	2.44307e-05
2961.67	2.83213e-05
2970.35	4.42703e-05
2979.03	5.86593e-05
2987.7	5.98751e-05
2996.38	3.64803e-05
3005.06	2.8524e-05
3013.74	2.43784e-05
3022.42	1.84332e-05
3031.09	1.33076e-05
3039.77	9.29399e-06
3048.45	7.9425e-06
3057.13	5.48216e-06
3065.81	2.9179e-06
3074.49	1.68432e-06
3083.16	9.61968e-07
3091.84	5.85476e-07
3100.52	6.13722e-07
3109.2	4.82508e-07
3117.88	3.8321e-07
3126.55	3.45884e-07
3135.23	-3.52837e-08
3143.91	1.53177e-07
3152.59	1.31614e-07
3161.27	-5.71014e-08
3169.95	-9.67625e-08
3178.62	-1.47231e-07
3187.3	6.51768e-08
3195.98	3.02291e-07
3204.66	1.02198e-07
3213.34	-3.17448e-08
3222.01	7.5514e-08
3230.69	1.62131e-07
3239.37	-1.90147e-08
3248.05	9.81704e-08
3256.73	2.5371e-07
3265.41	-8.41742e-08
3274.08	1.20844e-08
3282.76	1.20447e-07
3291.44	1.91604e-07
3300.12	-5.98881e-08
3308.8	-2.96421e-08
3317.47	-2.05971e-07
3326.15	-1.60892e-07
3334.83	-1.25534e-07
3343.51	-1.05184e-07
3352.19	-7.90092e-08
3360.86	-8.85661e-09
3369.54	-5.34889e-08
3378.22	7.43872e-08
3386.9	-1.44974e-07
3395.58	-1.25099e-07
3404.26	7.10066e-08
3412.93	2.63322e-07
3421.61	-1.64504e-07
3430.29	-9.82431e-08
3438.97	2.31972e-07
3447.65	-4.78328e-08
3456.32	-1.41872e-07
3465	-5.05931e-08
3473.68	-2.06136e-07
3482.36	1.54068e-09
3491.04	1.1685e-07
3499.72	-4.71989e-08
3508.39	-7.64235e-08
3517.07	-1.42751e-07
3525.75	-1.38279e-08
3534.43	-2.36494e-07
3543.11	-1.82676e-07
3551.78	-3.81977e-08
3560.46	-5.66921e-08
3569.14	-2.39324e-07
3577.82	-2.30252e-07
3586.5	-2.6464e-07
3595.18	-1.60692e-07
3603.85	8.80204e-08
3612.53	-1.58105e-07
3621.21	2.09481e-07
3629.89	-6.90721e-08
3638.57	2.42252e-07
3647.24	-5.76726e-08
3655.92	5.54016e-08
3664.6	3.23201e-07
3673.28	4.6647e-07
3681.96	3.19205e-07
3690.64	-2.53448e-08
3699.31	1.44424e-07
3707.99	1.58686e-07
3716.67	1.5219e-07
3725.35	1.71396e-07
3734.03	5.00265e-07
3742.7	9.36728e-07
3751.38	1.22603e-06
3760.06	9.7237e-07
3768.74	9.20376e-07
3777.42	1.0292e-06
3786.1	9.25147e-07
3794.77	7.81286e-07
3803.45	9.25582e-07
3812.13	5.0828e-07
3820.81	1.13733e-07
3829.49	3.2247e-07
3838.16	-5.17071e-07
3846.84	3.6915e-07
3855.52	-3.51136e-08
3864.2	-5.18764e-08
3872.88	8.53511e-08
3881.56	5.44248e-08
3890.23	2.18938e-07
3898.91	4.45023e-08
3907.59	1.10587e-07
3916.27	1.89083e-08
3924.95	1.24618e-08
3933.62	-1.24607e-07
3942.3	1.16154e-07
3950.98	2.92638e-07
3959.66	3.14222e-07
3968.34	3.0333e-07
