Infrared Spectrum: 1,2-Dichloroethane
Formula: Cl C H2 C H2 Cl
CAS: 107-06-2
State: gas
Melting point: -35.36 C
Boiling point: 83.47 C
Class: IUPAC A
Instrument: IFS66V (Bruker)
Instrument parameters: KBr Beam Splitter; MCT Detector; Multipass cell
Sampling: 1 L/min Flow
Resolution: 1.9290
Temperature: 23 C
Pressure: 101.3 Pa
Origin: NIST, Analytical Chemistry Division, 301-975-3108
cm-1	(micromol/mol)-1m-1 (base 10)
575.652	5.09777e-07
584.33	5.33831e-07
593.008	5.52167e-07
601.687	-5.42902e-08
610.365	-1.56823e-07
619.043	-5.23675e-08
627.721	4.2839e-07
636.399	9.64713e-07
645.077	3.33121e-06
653.756	8.68441e-06
662.434	1.56751e-05
671.112	1.63116e-05
679.79	2.69697e-05
688.468	3.92363e-05
697.146	3.31651e-05
705.825	4.34489e-05
714.503	0.000220458
723.181	0.000552355
731.859	0.000571163
740.537	4.43444e-05
749.216	6.31832e-06
757.894	6.88894e-06
766.572	7.3578e-06
775.25	6.09792e-06
783.928	4.74426e-06
792.606	3.52882e-06
801.285	2.31345e-06
809.963	1.70561e-06
818.641	1.54192e-06
827.319	2.08897e-06
835.997	1.90011e-06
844.676	1.17387e-06
853.354	5.70875e-07
862.032	9.27371e-07
870.71	2.55097e-06
879.388	1.35444e-05
888.066	2.07163e-05
896.745	2.145e-05
905.423	5.93142e-06
914.101	1.92854e-06
922.779	2.38744e-06
931.457	5.35284e-06
940.135	9.2042e-06
948.814	7.8053e-06
957.492	8.19521e-06
966.17	3.4757e-06
974.848	1.79025e-06
983.526	2.64782e-06
992.205	3.33327e-06
1000.88	2.0245e-06
1009.56	1.78001e-06
1018.24	3.45119e-06
1026.92	4.71244e-06
1035.6	2.97376e-06
1044.27	1.09711e-06
1052.95	3.98096e-07
1061.63	1.2728e-07
1070.31	7.93103e-08
1078.99	2.86216e-07
1087.66	5.63131e-07
1096.34	1.10538e-06
1105.02	1.85147e-06
1113.7	2.38574e-06
1122.38	4.52264e-06
1131.06	2.93081e-06
1139.73	2.90567e-06
1148.41	2.50257e-06
1157.09	1.89563e-06
1165.77	1.20449e-06
1174.45	8.19246e-07
1183.12	9.84593e-07
1191.8	1.9456e-06
1200.48	3.79488e-06
1209.16	6.85556e-06
1217.84	2.20852e-05
1226.52	0.00015889
1235.19	0.000151975
1243.87	6.21159e-05
1252.55	9.94584e-06
1261.23	6.35884e-06
1269.91	4.79837e-06
1278.58	1.67708e-05
1287.26	4.09301e-05
1295.94	3.90364e-05
1304.62	2.2274e-05
1313.3	9.46867e-06
1321.98	1.11922e-05
1330.65	6.91215e-06
1339.33	3.97901e-06
1348.01	2.99837e-06
1356.69	2.93773e-06
1365.37	2.21512e-06
1374.04	1.27464e-06
1382.72	1.12138e-06
1391.4	8.56262e-07
1400.08	9.33036e-07
1408.76	1.79451e-06
1417.44	4.15117e-06
1426.11	1.16795e-05
1434.79	1.92635e-05
1443.47	2.57957e-05
1452.15	3.21819e-05
1460.83	1.9889e-05
1469.5	2.20079e-05
1478.18	1.17111e-05
1486.86	7.25737e-06
1495.54	3.62115e-06
1504.22	1.54036e-06
1512.9	9.51084e-07
1521.57	1.81589e-06
1530.25	2.79859e-06
1538.93	1.09237e-06
1547.61	6.72786e-07
1556.29	2.05419e-07
1564.96	1.66572e-07
1573.64	2.18214e-07
1582.32	2.15862e-07
1591	7.38188e-08
1599.68	8.60741e-09
1608.36	-1.70939e-08
1617.03	-3.94995e-07
1625.71	-1.38006e-08
1634.39	-2.6819e-07
1643.07	-6.84082e-08
1651.75	-4.94354e-07
1660.42	1.24755e-08
1669.1	-1.39553e-07
1677.78	2.30661e-07
1686.46	1.90799e-07
1695.14	-2.37021e-07
1703.82	5.15463e-08
1712.49	1.60563e-07
1721.17	1.50554e-07
1729.85	4.60657e-08
1738.53	-3.95146e-08
1747.21	-2.695e-08
1755.88	1.69483e-08
1764.56	7.63353e-08
1773.24	-1.50358e-07
1781.92	1.02965e-07
1790.6	3.4567e-08
1799.28	-8.08691e-08
1807.95	-5.76826e-08
1816.63	-2.39905e-08
1825.31	-6.47784e-08
1833.99	2.37923e-08
1842.67	-6.63564e-09
1851.34	2.20242e-08
1860.02	4.13791e-08
1868.7	-8.41533e-08
1877.38	5.21793e-08
1886.06	4.54499e-08
1894.74	6.51259e-08
1903.41	6.0382e-08
1912.09	-1.8901e-08
1920.77	-1.48447e-08
1929.45	-1.37633e-08
1938.13	-4.93162e-08
1946.8	-3.78784e-08
1955.48	-7.62234e-08
1964.16	-2.9693e-08
1972.84	-2.85089e-08
1981.52	3.70599e-08
1990.19	5.87267e-08
1998.87	1.44854e-08
2007.55	1.27799e-07
2016.23	4.49212e-07
2024.91	1.50775e-06
2033.59	2.07867e-06
2042.26	1.35904e-06
2050.94	2.84939e-07
2059.62	1.37923e-07
2068.3	5.49105e-08
2076.98	3.30872e-08
2085.65	8.06672e-08
2094.33	1.75889e-07
2103.01	3.21975e-07
2111.69	3.45161e-07
2120.37	2.93522e-07
2129.05	2.33908e-07
2137.72	1.64258e-07
2146.4	1.47943e-07
2155.08	8.96621e-08
2163.76	1.14947e-07
2172.44	3.01964e-07
2181.11	4.71254e-07
2189.79	8.43764e-07
2198.47	9.65353e-07
2207.15	1.34136e-06
2215.83	1.58857e-06
2224.51	1.49947e-06
2233.18	1.49883e-06
2241.86	1.04607e-06
2250.54	7.04431e-07
2259.22	3.85884e-07
2267.9	2.29843e-07
2276.57	1.67563e-07
2285.25	1.9047e-07
2293.93	1.93243e-07
2302.61	1.72423e-07
2311.29	1.44846e-07
2319.97	9.62732e-08
2328.64	-1.40071e-07
2337.32	-3.67355e-07
2346	-1.84763e-07
2354.68	-4.37498e-07
2363.36	-7.96379e-07
2372.03	-7.08766e-09
2380.71	9.97773e-07
2389.39	1.12246e-06
2398.07	6.69599e-07
2406.75	5.85146e-07
2415.43	5.81641e-07
2424.1	7.12414e-07
2432.78	6.00305e-07
2441.46	5.94309e-07
2450.14	4.89669e-07
2458.82	6.85917e-07
2467.49	5.78665e-07
2476.17	3.61828e-07
2484.85	2.51623e-07
2493.53	3.3922e-07
2502.21	5.05264e-07
2510.89	6.73204e-07
2519.56	8.0089e-07
2528.24	5.19519e-07
2536.92	5.17785e-07
2545.6	3.39735e-07
2554.28	1.92849e-07
2562.95	-4.31026e-08
2571.63	-1.97741e-08
2580.31	-1.32294e-07
2588.99	-1.04733e-07
2597.67	-1.3544e-07
2606.35	-1.05801e-07
2615.02	-1.05279e-07
2623.7	-5.3488e-08
2632.38	-3.7451e-08
2641.06	2.77922e-08
2649.74	2.85234e-08
2658.41	-1.90811e-09
2667.09	1.47891e-07
2675.77	6.28261e-07
2684.45	1.84651e-06
2693.13	1.77117e-06
2701.81	3.73399e-07
2710.48	1.93811e-07
2719.16	3.47922e-07
2727.84	3.99006e-07
2736.52	5.52008e-07
2745.2	4.70045e-07
2753.87	1.25042e-06
2762.55	2.31295e-06
2771.23	2.37588e-06
2779.91	2.34979e-07
2788.59	1.20979e-07
2797.27	2.57295e-09
2805.94	-6.42282e-08
2814.62	4.28879e-08
2823.3	1.32376e-07
2831.98	5.0843e-07
2840.66	1.41853e-06
2849.33	3.0802e-06
2858.01	3.64589e-06
2866.69	4.68835e-06
2875.37	4.82966e-06
2884.05	1.00925e-05
2892.73	1.05077e-05
2901.4	1.21723e-05
2910.08	3.40742e-06
2918.76	2.39217e-06
2927.44	2.02401e-06
2936.12	4.38597e-06
2944.79	1.12727e-05
2953.47	2.50401e-05
2962.15	2.69136e-05
2970.83	4.65018e-05
2979.51	5.54712e-05
2988.19	5.80289e-05
2996.86	3.60218e-05
3005.54	2.89291e-05
3014.22	2.40419e-05
3022.9	1.76406e-05
3031.58	1.42534e-05
3040.25	9.86647e-06
3048.93	7.89495e-06
3057.61	5.22214e-06
3066.29	2.92102e-06
3074.97	1.60426e-06
3083.65	9.32419e-07
3092.32	6.79937e-07
3101	5.90622e-07
3109.68	5.35912e-07
3118.36	4.28009e-07
3127.04	3.33914e-07
3135.71	1.19562e-07
3144.39	8.07527e-08
3153.07	3.70008e-08
3161.75	2.31556e-08
3170.43	-5.5618e-08
3179.11	1.37197e-08
3187.78	1.15541e-07
3196.46	2.16098e-07
3205.14	2.03867e-07
3213.82	1.46295e-07
3222.5	1.49043e-07
3231.17	1.28147e-07
3239.85	5.8713e-08
3248.53	5.77299e-08
3257.21	1.0472e-07
3265.89	8.5764e-08
3274.57	1.11697e-07
3283.24	2.93529e-08
3291.92	6.58616e-08
3300.6	-4.16883e-08
3309.28	-3.63778e-08
3317.96	-1.22795e-07
3326.63	-6.57698e-08
3335.31	-8.00551e-08
3343.99	-2.17632e-08
3352.67	-5.40701e-08
3361.35	-2.57659e-08
3370.03	-5.76708e-09
3378.7	6.14833e-08
3387.38	-3.04752e-08
3396.06	-5.67704e-08
3404.74	1.8922e-07
3413.42	1.74304e-07
3422.09	3.29381e-08
3430.77	5.05404e-09
3439.45	-1.20708e-08
3448.13	-3.75519e-08
3456.81	-6.96942e-09
3465.49	-3.69289e-08
3474.16	-2.23989e-08
3482.84	1.06229e-07
3491.52	-7.11021e-08
3500.2	-9.83995e-08
3508.88	-1.148e-07
3517.55	-1.43086e-07
3526.23	-3.60504e-08
3534.91	-5.79181e-08
3543.59	-6.54587e-08
3552.27	-3.61486e-08
3560.95	-3.28926e-08
3569.62	-1.52712e-07
3578.3	-9.74064e-08
3586.98	-1.41322e-07
3595.66	-5.25922e-08
3604.34	-5.25467e-08
3613.01	1.55496e-08
3621.69	1.25839e-07
3630.37	-3.16321e-08
3639.05	2.67848e-07
3647.73	1.21409e-07
3656.41	1.9629e-07
3665.08	3.04816e-07
3673.76	3.21885e-07
3682.44	3.70749e-07
3691.12	2.49864e-08
3699.8	2.40191e-07
3708.47	1.65564e-07
3717.15	2.11159e-07
3725.83	2.41561e-07
3734.51	3.13494e-07
3743.19	7.21961e-07
3751.87	7.63695e-07
3760.54	1.17868e-06
3769.22	9.85193e-07
3777.9	1.06706e-06
3786.58	9.68599e-07
3795.26	6.12094e-07
3803.93	8.48978e-07
3812.61	4.96735e-07
3821.29	1.68554e-07
3829.97	3.25617e-07
3838.65	1.78242e-08
3847.33	3.33609e-07
3856	1.25581e-07
3864.68	-7.3766e-08
3873.36	-3.53082e-08
3882.04	5.798e-08
3890.72	1.17106e-08
3899.39	-5.79518e-08
3908.07	9.35147e-08
3916.75	-4.83858e-08
3925.43	2.98677e-08
3934.11	5.68786e-08
3942.79	1.10544e-07
3951.46	2.141e-07
3960.14	3.0637e-07
3968.82	2.49966e-07
