Infrared Spectrum: Methyl formate
Formula: C 2 H 4 O 2
CAS: 107-31-3
State: liquid
Instrument: Bruker Tensor 27 FTIR
Resolution: 0.4821395
Origin: Pacific Northwest National Laboratory Under IARPA Contract
1/cm	dispersion index
7797.62	1.3258
7779.06	1.3258
7760.5	1.32578
7741.94	1.32577
7723.38	1.32576
7704.81	1.32575
7686.25	1.32574
7667.69	1.32572
7649.13	1.32571
7630.57	1.3257
7612.01	1.32568
7593.44	1.32567
7574.88	1.32566
7556.32	1.32564
7537.76	1.32563
7519.2	1.32562
7500.64	1.3256
7482.07	1.32559
7463.51	1.32557
7444.95	1.32556
7426.39	1.32554
7407.83	1.32552
7389.26	1.32551
7370.7	1.32549
7352.14	1.32547
7333.58	1.32545
7315.02	1.32543
7296.46	1.32541
7277.89	1.3254
7259.33	1.32538
7240.77	1.32536
7222.21	1.32534
7203.65	1.32532
7185.09	1.32529
7166.52	1.32527
7147.96	1.32525
7129.4	1.32523
7110.84	1.3252
7092.28	1.32518
7073.71	1.32516
7055.15	1.32513
7036.59	1.3251
7018.03	1.32507
6999.47	1.32505
6980.91	1.32502
6962.34	1.32499
6943.78	1.32495
6925.22	1.32492
6906.66	1.32491
6888.1	1.32489
6869.54	1.32486
6850.97	1.32483
6832.41	1.3248
6813.85	1.32478
6795.29	1.32476
6776.73	1.32475
6758.16	1.32472
6739.6	1.32467
6721.04	1.32463
6702.48	1.32461
6683.92	1.32458
6665.36	1.32453
6646.79	1.32448
6628.23	1.32444
6609.67	1.32439
6591.11	1.32435
6572.55	1.32431
6553.99	1.32426
6535.42	1.32421
6516.86	1.32416
6498.3	1.32411
6479.74	1.32404
6461.18	1.32401
6442.61	1.32397
6424.05	1.3239
6405.49	1.32383
6386.93	1.32377
6368.37	1.3237
6349.81	1.32363
6331.24	1.32354
6312.68	1.32344
6294.12	1.3234
6275.56	1.32328
6257	1.32313
6238.44	1.32298
6219.87	1.32333
6201.31	1.32311
6182.75	1.32294
6164.19	1.32271
6145.63	1.32245
6127.06	1.32261
6108.5	1.32322
6089.94	1.32311
6071.38	1.32283
6052.82	1.32263
6034.26	1.32247
6015.69	1.32245
5997.13	1.32224
5978.57	1.32244
5960.01	1.32228
5941.45	1.32257
5922.89	1.32229
5904.32	1.32208
5885.76	1.32187
5867.2	1.32173
5848.64	1.32158
5830.08	1.32151
5811.51	1.32129
5792.95	1.32103
5774.39	1.32081
5755.83	1.32064
5737.27	1.32036
5718.71	1.32012
5700.14	1.31979
5681.58	1.31949
5663.02	1.31909
5644.46	1.31843
5625.9	1.31753
5607.34	1.32042
5588.77	1.31904
5570.21	1.31831
5551.65	1.31763
5533.09	1.31706
5514.53	1.31632
5495.96	1.3154
5477.4	1.31449
5458.84	1.31289
5440.28	1.31145
5421.72	1.30728
5403.16	1.31061
5384.59	1.30215
5366.03	1.32983
5347.47	1.32826
5328.91	1.32557
5310.35	1.32496
5291.79	1.3219
5273.22	1.32014
5254.66	1.31898
5236.1	1.31768
5217.54	1.31678
5198.98	1.31619
5180.41	1.31559
5161.85	1.31428
5143.29	1.3131
5124.73	1.31169
5106.17	1.31098
5087.61	1.31014
5069.04	1.31036
5050.48	1.30912
5031.92	1.30746
5013.36	1.30509
4994.8	1.30286
4976.24	1.29983
4957.67	1.29876
4939.11	1.29612
4920.55	1.29636
4901.99	1.2902
4883.43	1.28612
4864.86	1.27847
4846.3	1.26934
4827.74	1.25266
4809.18	1.22334
4790.62	1.16331
4772.06	0.907791
4753.49	1.66743
4734.93	1.44587
4716.37	1.38539
4697.81	1.35695
4679.25	1.33872
4660.69	1.32388
4642.12	1.30409
4623.56	1.30361
4605	1.32841
4586.44	1.31136
4567.88	1.28547
4549.31	1.24496
4530.75	1.16383
4512.19	1.04733
4493.63	1.43391
4475.07	1.68635
4456.51	1.52105
4437.94	1.45897
4419.38	1.42161
4400.82	1.40479
4382.26	1.37992
4363.7	1.33216
4345.14	1.44605
4326.57	1.39984
4308.01	1.38381
4289.45	1.3577
4270.89	1.39686
4252.33	1.38331
4233.76	1.37838
4215.2	1.37833
4196.64	1.37343
4178.08	1.37131
4159.52	1.36928
4140.96	1.36797
4122.39	1.36669
4103.83	1.36562
4085.27	1.28299e-05
4066.71	1.06108e-05
4048.15	1.35613e-05
4029.58	1.55289e-05
4011.02	1.56961e-05
3992.46	1.60105e-05
3973.9	1.62207e-05
3955.34	1.85854e-05
3936.78	2.57426e-05
3918.21	2.49052e-05
3899.65	2.82546e-05
3881.09	2.86733e-05
3862.53	3.0765e-05
3843.97	2.93005e-05
3825.41	2.78359e-05
3806.84	2.9509e-05
3788.28	2.53239e-05
3769.72	2.15575e-05
3751.16	2.19745e-05
3732.6	2.23932e-05
3714.03	2.23932e-05
3695.47	2.01343e-05
3676.91	2.05514e-05
3658.35	1.65765e-05
3639.79	1.17195e-05
3621.23	1.03808e-05
3602.66	1.19711e-05
3584.1	1.30798e-05
3565.54	1.19711e-05
3546.98	1.11966e-05
3528.42	1.06952e-05
3509.86	9.37628e-06
3491.29	8.41317e-06
3472.73	8.49756e-06
3454.17	9.56493e-06
3435.61	8.14177e-06
3417.05	8.09875e-06
3398.48	1.07779e-05
3379.92	1.76438e-05
3361.36	9.96209e-06
3342.8	9.39779e-06
3324.24	9.77344e-06
3305.68	1.28498e-05
3287.11	1.83753e-05
3268.55	2.34407e-05
3249.99	2.97191e-05
3231.43	5.46243e-05
3212.87	9.56443e-05
3194.31	0.000110295
3175.74	8.62267e-05
3157.18	8.43435e-05
3138.62	9.8575e-05
3120.06	0.000131015
3101.5	0.000140851
3082.93	0.000137503
3064.37	8.89472e-05
3045.81	5.81822e-05
3027.25	7.8065e-05
3008.69	9.52256e-05
2990.13	5.88094e-05
2971.56	2.9509e-05
2953	2.3022e-05
2934.44	2.63697e-05
2915.88	3.30669e-05
2897.32	3.76722e-05
2878.76	3.05565e-05
2860.19	2.93005e-05
2841.63	2.55341e-05
2823.07	2.74173e-05
2804.51	2.19745e-05
2785.95	3.47415e-05
2767.38	9.04134e-05
2748.82	5.5043e-05
2730.26	2.72071e-05
2711.7	2.65799e-05
2693.14	3.2021e-05
2674.58	3.74621e-05
2656.01	3.34855e-05
2637.45	4.4788e-05
2618.89	8.49707e-05
2600.33	0.000116992
2581.77	0.000115527
2563.21	0.000167641
2544.64	0.000552522
2526.08	0.000699024
2507.52	0.000257426
2488.96	0.000251147
2470.4	0.000320212
2451.83	0.000688561
2433.27	0.00182291
2414.71	0.00165547
2396.15	0.000939706
2377.59	0.000468807
2359.03	0.000500201
2340.46	0.000648795
2321.9	0.000885292
2303.34	0.000860177
2284.78	0.00151107
2266.22	0.0010883
2247.66	0.00111551
2229.09	0.000468807
2210.53	0.00031184
2191.97	0.000290911
2173.41	0.000366256
2154.85	0.000244867
2136.28	0.000493921
2117.72	0.000118666
2099.16	5.73449e-05
2080.6	0.000122434
2062.04	0.000174128
2043.48	5.35785e-05
2024.91	0.000139805
2006.35	0.000105901
1987.79	0.000251147
1969.23	0.000278354
1950.67	0.000496014
1932.11	0.0020594
1913.54	0.00535779
1894.98	0.000594381
1876.42	0.000403928
1857.86	0.000422763
1839.3	0.000661352
1820.73	0.000709489
1802.17	0.00104226
1783.61	0.0018836
1765.05	0.00242775
1746.49	0.00397649
1727.93	0.00759718
1709.36	0.0215568
1690.8	0.0196522
1672.24	0.0535779
1653.68	0.0215568
1635.12	0.0095645
1616.56	0.00692746
1597.99	0.00166803
1579.43	0.00131643
1560.87	0.00098575
1542.31	0.000851805
1523.75	0.00138968
1505.18	0.00179779
1486.62	0.001149
1468.06	0.000372534
1449.5	0.000868548
1430.94	0.000839248
1412.38	0.00299283
1393.81	0.00301376
1375.25	0.00437414
1356.69	0.00226032
1338.13	0.000682282
1319.57	0.000183546
1301.01	0.000893664
1282.44	0.00150269
1263.88	0.00705303
1245.32	0.00433228
1226.76	0.00732511
1208.2	0.0014713
1189.63	0.00514851
1171.07	0.00251147
1152.51	0.00187523
1133.95	0.000835063
1115.39	0.00640424
1096.83	0.0261611
1078.26	0.202801
1059.7	0.973193
1041.14	0.0665539
1022.58	0.0136247
1004.02	0.00703211
985.455	0.0076809
966.894	0.0100249
948.332	0.0156757
929.77	0.0853898
911.208	0.0439507
892.647	0.0397649
874.085	0.0106528
855.523	0.00839248
836.961	0.0378813
818.399	0.336955
799.838	0.652981
781.276	1.01505
762.714	0.0983657
744.152	0.0276261
725.591	0.00763904
707.029	0.0141689
688.467	0.00161152
669.905	0.0157594
651.344	0.172245
632.782	0.00646703
614.22	0.00219753
595.658	0.00730418
577.096	0.0192127
558.535	0.00226032
539.973	0.00259518
521.411	0.00366256
502.849	0.00029719
484.288	0.000749253
465.726	0.000187732
447.164	0.000510665
428.602	0.000322305
410.041	0.000692746
