Infrared Spectrum: Nitrile-Propenoic Acid
Formula: C H2: C H C N
CAS: 107-13-1
State: gas
Melting point: -83.5 C
Boiling point: 77.5 C
Class: IUPAC A
Instrument: IFS66V (Bruker)
Instrument parameters: KBr Beam splitter; MCT Detector; Multipass cell
Sampling: 1 L/min Flow
Resolution: 0.9640
Temperature: 23 C
Pressure: 101.3 kPa
Origin: NIST, Anayltical Chemistry Division, 301-975-3108
cm-1	(micromol/mol)-1m-1 (base 10)
575.169	2.70284e-07
583.847	2.62208e-07
592.525	4.40319e-07
601.203	3.74709e-07
609.882	5.73165e-07
618.56	1.14578e-06
627.238	2.65879e-06
635.916	5.12362e-06
644.594	9.5053e-06
653.272	1.84324e-05
661.951	1.64961e-05
670.629	1.83021e-05
679.307	3.64961e-05
687.985	1.75088e-05
696.663	1.63936e-05
705.341	2.43734e-05
714.019	1.13532e-05
722.698	1.11929e-05
731.376	5.7312e-06
740.054	4.42012e-06
748.732	2.20518e-06
757.41	1.52079e-06
766.088	1.99956e-06
774.767	4.63253e-06
783.445	3.78693e-06
792.123	3.8706e-06
800.801	2.87433e-06
809.479	5.84887e-07
818.157	2.00679e-07
826.835	1.56232e-07
835.514	1.33807e-07
844.192	1.05808e-06
852.87	4.90014e-06
861.548	8.45082e-06
870.226	4.50568e-06
878.904	8.76473e-06
887.583	6.56522e-06
896.261	1.08128e-05
904.939	1.80619e-05
913.617	2.7286e-05
922.295	4.393e-05
930.973	8.19878e-05
939.651	8.83252e-05
948.33	0.000128904
957.008	0.000109777
965.686	8.78836e-05
974.364	9.84134e-05
983.042	0.000100273
991.72	7.55877e-05
1000.4	6.49425e-05
1009.08	3.92829e-05
1017.75	2.28269e-05
1026.43	1.22675e-05
1035.11	5.17707e-06
1043.79	2.06266e-06
1052.47	1.28486e-06
1061.15	1.14682e-06
1069.82	1.86296e-06
1078.5	8.18844e-06
1087.18	1.23654e-05
1095.86	9.10633e-06
1104.54	8.2715e-06
1113.21	2.91444e-06
1121.89	5.90852e-07
1130.57	2.76761e-07
1139.25	1.83511e-07
1147.93	1.02437e-07
1156.61	1.16734e-07
1165.28	1.7258e-07
1173.96	2.03273e-07
1182.64	2.20549e-07
1191.32	2.83039e-07
1200	2.59593e-07
1208.67	4.70559e-07
1217.35	2.2333e-07
1226.03	2.31462e-07
1234.71	2.30989e-07
1243.39	1.53342e-07
1252.07	2.31739e-07
1260.74	7.23571e-07
1269.42	2.43688e-06
1278.1	2.08692e-06
1286.78	3.17527e-06
1295.46	3.225e-06
1304.13	1.75495e-06
1312.81	2.63086e-06
1321.49	2.28087e-06
1330.17	2.56997e-06
1338.85	3.36691e-06
1347.52	2.90041e-06
1356.2	3.15377e-06
1364.88	3.25388e-06
1373.56	4.90275e-06
1382.24	5.25085e-06
1390.92	6.82261e-06
1399.59	1.65471e-05
1408.27	2.20355e-05
1416.95	1.23353e-05
1425.63	2.22728e-05
1434.31	9.76817e-06
1442.98	8.13427e-06
1451.66	4.2685e-06
1460.34	2.26886e-06
1469.02	1.37233e-06
1477.7	6.24404e-07
1486.38	4.00838e-07
1495.05	2.64599e-07
1503.73	1.3964e-07
1512.41	7.27356e-07
1521.09	2.4228e-06
1529.77	1.20907e-07
1538.44	1.42032e-06
1547.12	3.0148e-07
1555.8	4.90081e-07
1564.48	9.76416e-07
1573.16	1.13703e-06
1581.83	1.61902e-06
1590.51	3.09911e-06
1599.19	1.02603e-05
1607.87	1.34654e-05
1616.55	8.47897e-06
1625.23	1.65352e-05
1633.9	8.96177e-06
1642.58	9.32609e-06
1651.26	5.0813e-06
1659.94	7.62446e-06
1668.62	5.58145e-06
1677.29	1.96029e-06
1685.97	1.34031e-06
1694.65	1.10029e-06
1703.33	5.66997e-07
1712.01	2.77178e-07
1720.69	1.9942e-07
1729.36	3.07341e-07
1738.04	2.19908e-07
1746.72	4.01304e-07
1755.4	1.54001e-07
1764.08	5.34501e-08
1772.75	1.92851e-06
1781.43	6.64548e-08
1790.11	1.13951e-07
1798.79	5.69626e-08
1807.47	7.22136e-08
1816.15	7.37038e-08
1824.82	6.83719e-07
1833.5	7.09495e-07
1842.18	6.18469e-07
1850.86	9.46731e-07
1859.54	7.04247e-07
1868.21	1.23281e-06
1876.89	1.95729e-06
1885.57	5.52578e-06
1894.25	1.44487e-05
1902.93	1.52217e-05
1911.6	1.50832e-05
1920.28	1.641e-05
1928.96	7.01219e-06
1937.64	3.00726e-06
1946.32	3.43837e-06
1955	1.63694e-06
1963.67	1.16969e-06
1972.35	6.71106e-07
1981.03	4.67274e-07
1989.71	2.70038e-07
1998.39	1.99926e-07
2007.06	1.0402e-07
2015.74	6.1088e-08
2024.42	5.6205e-08
2033.1	9.07993e-08
2041.78	8.20128e-08
2050.46	7.35847e-08
2059.13	8.05531e-08
2067.81	9.69401e-08
2076.49	9.15919e-08
2085.17	7.29853e-08
2093.85	7.42172e-08
2102.52	6.02367e-08
2111.2	2.5816e-08
2119.88	2.18625e-08
2128.56	1.02244e-08
2137.24	7.77469e-09
2145.91	4.05296e-08
2154.59	6.58841e-08
2163.27	7.44823e-08
2171.95	7.56542e-08
2180.63	1.03845e-07
2189.31	8.03567e-08
2197.98	7.41736e-08
2206.66	1.60096e-07
2215.34	6.36101e-07
2224.02	1.87939e-06
2232.7	2.33405e-06
2241.37	2.10052e-06
2250.05	2.70733e-06
2258.73	8.01944e-07
2267.41	9.90989e-07
2276.09	1.07748e-06
2284.77	9.95443e-07
2293.44	1.43424e-06
2302.12	4.53248e-07
2310.8	4.94828e-07
2319.48	2.48641e-07
2328.16	1.86057e-07
2336.83	1.34302e-07
2345.51	1.91321e-07
2354.19	3.11296e-07
2362.87	5.15919e-07
2371.55	4.80456e-07
2380.23	6.95207e-07
2388.9	5.81633e-07
2397.58	5.52146e-07
2406.26	3.81862e-07
2414.94	2.17629e-07
2423.62	2.17698e-07
2432.29	2.57301e-07
2440.97	3.10415e-07
2449.65	5.24229e-07
2458.33	5.56308e-07
2467.01	5.38558e-07
2475.68	7.9283e-07
2484.36	6.56432e-07
2493.04	4.44476e-07
2501.72	2.89723e-07
2510.4	2.30692e-07
2519.08	2.27851e-07
2527.75	2.12086e-07
2536.43	2.44885e-07
2545.11	3.24588e-07
2553.79	3.69353e-07
2562.47	4.35238e-07
2571.14	3.15017e-07
2579.82	2.59801e-07
2588.5	1.8083e-07
2597.18	1.33203e-07
2605.86	8.6623e-08
2614.54	7.5947e-08
2623.21	-9.63139e-10
2631.89	-2.93853e-09
2640.57	-1.28791e-08
2649.25	-4.152e-08
2657.93	-1.4006e-10
2666.6	1.93278e-08
2675.28	1.11769e-07
2683.96	2.57804e-07
2692.64	4.86279e-07
2701.32	6.2896e-07
2709.99	5.47185e-07
2718.67	5.57504e-07
2727.35	2.40108e-07
2736.03	1.36235e-07
2744.71	1.19366e-07
2753.39	2.23728e-08
2762.06	4.23809e-08
2770.74	1.24943e-07
2779.42	1.94847e-07
2788.1	1.3702e-07
2796.78	1.41323e-07
2805.45	2.27476e-07
2814.13	1.2634e-08
2822.81	3.78244e-08
2831.49	1.09383e-08
2840.17	-1.10425e-07
2848.85	-1.55459e-07
2857.52	-1.04118e-07
2866.2	-5.29949e-08
2874.88	8.28723e-08
2883.56	1.16152e-07
2892.24	3.09932e-07
2900.91	2.86753e-07
2909.59	2.66546e-07
2918.27	2.48833e-07
2926.95	3.78398e-08
2935.63	5.66424e-08
2944.31	4.9257e-08
2952.98	3.47117e-08
2961.66	2.69156e-08
2970.34	8.87439e-08
2979.02	1.57873e-07
2987.7	4.24294e-07
2996.37	2.86409e-07
3005.05	5.31081e-07
3013.73	5.76796e-07
3022.41	2.17624e-06
3031.09	6.11321e-06
3039.76	5.36055e-06
3048.44	6.37049e-06
3057.12	6.53317e-06
3065.8	2.12181e-06
3074.48	1.12078e-06
3083.16	1.08907e-06
3091.83	1.96159e-06
3100.51	2.7532e-06
3109.19	6.41264e-06
3117.87	8.828e-06
3126.55	3.80489e-06
3135.22	9.67348e-06
3143.9	3.70132e-06
3152.58	1.78741e-06
3161.26	1.03216e-06
3169.94	4.96272e-07
3178.62	3.69052e-07
3187.29	9.77818e-08
3195.97	-1.73965e-08
3204.65	-8.79558e-08
3213.33	-1.01472e-07
3222.01	-6.22203e-08
3230.68	2.01036e-08
3239.36	-1.33815e-07
3248.04	-1.94952e-07
3256.72	-1.22793e-07
3265.4	-8.35494e-08
3274.07	-9.46091e-08
3282.75	-1.16279e-07
3291.43	-1.12837e-07
3300.11	1.26463e-08
3308.79	3.11224e-08
3317.47	2.21121e-07
3326.14	2.19094e-07
3334.82	2.61304e-07
3343.5	4.93426e-07
3352.18	1.44446e-07
3360.86	1.41648e-07
3369.53	-1.74607e-08
3378.21	-3.00492e-09
3386.89	-5.50345e-08
3395.57	-6.44367e-09
3404.25	-6.98285e-08
3412.93	-2.08448e-08
3421.6	1.25931e-08
3430.28	-5.95928e-08
3438.96	5.80985e-08
3447.64	-9.90242e-09
3456.32	6.45162e-08
3464.99	-4.0496e-08
3473.67	-3.61123e-08
3482.35	4.60502e-08
3491.03	2.20553e-08
3499.71	7.9007e-08
3508.39	8.7291e-08
3517.06	2.08412e-07
3525.74	2.20626e-07
3534.42	1.0228e-07
3543.1	1.80379e-07
3551.78	1.57648e-07
3560.45	1.20109e-07
3569.13	1.07851e-07
3577.81	1.09756e-08
3586.49	6.42082e-07
3595.17	3.1333e-07
3603.84	1.00646e-07
3612.52	8.88827e-07
3621.2	2.81325e-07
3629.88	1.59627e-06
3638.56	3.60104e-07
3647.24	1.18542e-06
3655.91	1.28746e-06
3664.59	3.20023e-07
3673.27	3.01464e-07
3681.95	1.05943e-07
3690.63	4.7001e-07
3699.3	6.56931e-08
3707.98	3.45034e-08
3716.66	-1.58759e-08
3725.34	1.77619e-07
3734.02	2.29466e-07
3742.7	9.18588e-08
3751.37	4.69487e-07
3760.05	5.75834e-07
3768.73	3.95178e-08
3777.41	-1.2012e-08
3786.09	-2.31203e-08
3794.76	-6.25663e-08
3803.44	1.02678e-07
3812.12	2.92566e-08
3820.8	1.2337e-06
3829.48	1.47525e-07
3838.16	2.76338e-06
3846.83	3.33507e-07
3855.51	5.20973e-07
3864.19	4.73682e-07
3872.87	4.75976e-08
3881.55	2.39778e-07
3890.22	1.11405e-07
3898.9	6.69992e-07
3907.58	2.51723e-07
3916.26	3.47245e-07
3924.94	4.45308e-07
3933.61	1.69261e-07
3942.29	1.90955e-07
3950.97	6.51761e-08
3959.65	1.27745e-07
3968.33	2.15079e-07
