Infrared Spectrum: Nitrile-Propenoic Acid
Formula: C H2: C H C N
CAS: 107-13-1
State: gas
Melting point: -83.5 C
Boiling point: 77.5 C
Class: IUPAC A
Instrument: IFS66V (Bruker)
Instrument parameters: KBr Beam splitter; MCT Detector; Multipass cell
Sampling: 1 L/min Flow
Resolution: 1.9290
Temperature: 23 C
Pressure: 101.3 kPa
Origin: NIST, Anayltical Chemistry Division, 301-975-3108
cm-1	(micromol/mol)-1m-1 (base 10)
574.687	3.25398e-07
583.365	3.17964e-07
592.043	4.48385e-07
600.721	3.35732e-07
609.4	5.23815e-07
618.078	1.11014e-06
626.756	2.49839e-06
635.434	5.08355e-06
644.112	9.9289e-06
652.79	1.7625e-05
661.469	2.07998e-05
670.147	2.05073e-05
678.825	3.33105e-05
687.503	1.81514e-05
696.181	2.01382e-05
704.859	1.91025e-05
713.537	1.32182e-05
722.216	1.09189e-05
730.894	6.26715e-06
739.572	4.21499e-06
748.25	2.3624e-06
756.928	1.53994e-06
765.606	1.89127e-06
774.285	4.52232e-06
782.963	3.94116e-06
791.641	3.6641e-06
800.319	2.98892e-06
808.997	6.70685e-07
817.675	2.10167e-07
826.353	1.32278e-07
835.032	1.53266e-07
843.71	9.49346e-07
852.388	4.64195e-06
861.066	8.51234e-06
869.744	6.32096e-06
878.422	8.55335e-06
887.101	6.56389e-06
895.779	9.35494e-06
904.457	1.71008e-05
913.135	2.92873e-05
921.813	4.87788e-05
930.491	7.10726e-05
939.169	8.0747e-05
947.848	0.00010691
956.526	0.00010957
965.204	0.000101202
973.882	0.000108569
982.56	9.26696e-05
991.238	7.98208e-05
999.917	6.12554e-05
1008.59	4.07114e-05
1017.27	2.40781e-05
1025.95	1.32202e-05
1034.63	5.53395e-06
1043.31	2.20973e-06
1051.99	1.29671e-06
1060.66	1.23535e-06
1069.34	1.85151e-06
1078.02	7.74613e-06
1086.7	1.26117e-05
1095.38	8.76814e-06
1104.05	8.45912e-06
1112.73	3.16149e-06
1121.41	6.32421e-07
1130.09	3.07715e-07
1138.77	1.83417e-07
1147.45	1.06187e-07
1156.12	1.16189e-07
1164.8	1.80423e-07
1173.48	2.21336e-07
1182.16	2.00252e-07
1190.84	2.50247e-07
1199.51	2.76293e-07
1208.19	3.97943e-07
1216.87	2.53841e-07
1225.55	2.69852e-07
1234.23	2.22076e-07
1242.9	1.79898e-07
1251.58	1.98143e-07
1260.26	6.82969e-07
1268.94	2.3309e-06
1277.62	2.15514e-06
1286.3	3.0856e-06
1294.97	3.18904e-06
1303.65	1.74019e-06
1312.33	2.58773e-06
1321.01	2.31758e-06
1329.69	2.42177e-06
1338.36	3.11703e-06
1347.04	3.11295e-06
1355.72	3.1619e-06
1364.4	3.34391e-06
1373.08	5.24952e-06
1381.76	5.65401e-06
1390.43	7.94661e-06
1399.11	1.76227e-05
1407.79	2.24176e-05
1416.47	1.35201e-05
1425.15	2.37106e-05
1433.82	1.04704e-05
1442.5	7.69557e-06
1451.18	4.09917e-06
1459.86	2.47381e-06
1468.54	1.33277e-06
1477.22	8.80274e-07
1485.89	4.36379e-07
1494.57	3.57352e-07
1503.25	1.90225e-07
1511.93	3.90373e-07
1520.61	1.33895e-06
1529.28	2.39057e-07
1537.96	1.074e-06
1546.64	4.31156e-07
1555.32	9.313e-07
1564	8.40671e-07
1572.67	1.14832e-06
1581.35	1.80505e-06
1590.03	3.35447e-06
1598.71	9.60736e-06
1607.39	1.36637e-05
1616.07	9.94122e-06
1624.74	1.66836e-05
1633.42	9.25401e-06
1642.1	8.96259e-06
1650.78	5.59463e-06
1659.46	7.47754e-06
1668.13	5.58585e-06
1676.81	2.48048e-06
1685.49	2.83409e-06
1694.17	1.27554e-06
1702.85	6.56975e-07
1711.53	3.1271e-07
1720.2	3.41458e-07
1728.88	2.72364e-07
1737.56	2.41005e-07
1746.24	3.67333e-07
1754.92	1.70762e-07
1763.59	1.27775e-07
1772.27	9.71267e-07
1780.95	1.75456e-07
1789.63	1.17446e-07
1798.31	7.86641e-08
1806.98	4.32048e-08
1815.66	6.85639e-08
1824.34	4.77094e-07
1833.02	7.00373e-07
1841.7	5.30221e-07
1850.38	9.05462e-07
1859.05	7.46634e-07
1867.73	1.14996e-06
1876.41	1.86455e-06
1885.09	5.38728e-06
1893.77	1.34847e-05
1902.44	1.55545e-05
1911.12	1.33985e-05
1919.8	1.69824e-05
1928.48	7.0561e-06
1937.16	3.1509e-06
1945.84	3.58947e-06
1954.51	1.87389e-06
1963.19	1.14192e-06
1971.87	7.1233e-07
1980.55	4.9551e-07
1989.23	2.98467e-07
1997.9	1.86444e-07
2006.58	1.02218e-07
2015.26	6.20829e-08
2023.94	7.25024e-08
2032.62	6.39924e-08
2041.3	8.11725e-08
2049.97	7.15865e-08
2058.65	9.44231e-08
2067.33	1.14066e-07
2076.01	6.55426e-08
2084.69	7.95804e-08
2093.36	7.61617e-08
2102.04	5.63627e-08
2110.72	2.35096e-08
2119.4	1.60601e-08
2128.08	1.15354e-08
2136.75	1.21798e-08
2145.43	4.74317e-08
2154.11	7.18489e-08
2162.79	6.89668e-08
2171.47	6.18901e-08
2180.15	1.08489e-07
2188.82	7.07439e-08
2197.5	8.49377e-08
2206.18	1.54097e-07
2214.86	5.7065e-07
2223.54	1.78917e-06
2232.21	2.3622e-06
2240.89	2.4369e-06
2249.57	2.77131e-06
2258.25	8.84982e-07
2266.93	9.79429e-07
2275.61	1.10882e-06
2284.28	9.68723e-07
2292.96	1.50957e-06
2301.64	4.69911e-07
2310.32	4.79917e-07
2319	2.59574e-07
2327.67	1.91904e-07
2336.35	2.07329e-07
2345.03	2.02829e-07
2353.71	2.8911e-07
2362.39	4.70094e-07
2371.06	4.99505e-07
2379.74	6.90957e-07
2388.42	5.73095e-07
2397.1	5.35019e-07
2405.78	3.99972e-07
2414.46	2.37298e-07
2423.13	2.30086e-07
2431.81	2.52117e-07
2440.49	3.03075e-07
2449.17	4.93052e-07
2457.85	5.57492e-07
2466.52	5.33666e-07
2475.2	8.42245e-07
2483.88	5.9208e-07
2492.56	4.6109e-07
2501.24	3.09624e-07
2509.92	2.33891e-07
2518.59	2.09888e-07
2527.27	2.27813e-07
2535.95	2.30916e-07
2544.63	3.11491e-07
2553.31	3.10207e-07
2561.98	3.83858e-07
2570.66	4.14677e-07
2579.34	2.27372e-07
2588.02	1.89002e-07
2596.7	1.27574e-07
2605.38	7.01637e-08
2614.05	6.35035e-08
2622.73	-6.73379e-09
2631.41	-2.72844e-11
2640.09	-2.47538e-08
2648.77	-2.66723e-08
2657.44	2.13764e-08
2666.12	2.17388e-08
2674.8	9.09348e-08
2683.48	2.46938e-07
2692.16	4.70992e-07
2700.83	5.82718e-07
2709.51	6.40267e-07
2718.19	5.94089e-07
2726.87	2.86227e-07
2735.55	1.40219e-07
2744.23	1.1915e-07
2752.9	3.77043e-08
2761.58	4.74444e-08
2770.26	1.11122e-07
2778.94	1.73527e-07
2787.62	1.87638e-07
2796.29	1.11983e-07
2804.97	2.21696e-07
2813.65	5.50899e-08
2822.33	5.06257e-08
2831.01	1.76885e-08
2839.69	-9.36864e-08
2848.36	-1.37603e-07
2857.04	-9.72789e-08
2865.72	-4.2138e-08
2874.4	5.12665e-08
2883.08	1.35864e-07
2891.75	2.63875e-07
2900.43	2.79493e-07
2909.11	2.42126e-07
2917.79	2.67465e-07
2926.47	5.19459e-08
2935.14	5.79057e-08
2943.82	3.29614e-08
2952.5	2.55905e-08
2961.18	2.07029e-08
2969.86	8.14276e-08
2978.54	1.31546e-07
2987.21	3.80439e-07
2995.89	2.99414e-07
3004.57	5.17461e-07
3013.25	6.4107e-07
3021.93	2.03481e-06
3030.6	5.8888e-06
3039.28	5.51901e-06
3047.96	6.04595e-06
3056.64	6.7632e-06
3065.32	2.28099e-06
3074	1.19912e-06
3082.67	1.07114e-06
3091.35	1.99489e-06
3100.03	2.86491e-06
3108.71	6.46546e-06
3117.39	9.1775e-06
3126.06	3.72177e-06
3134.74	9.82086e-06
3143.42	3.72454e-06
3152.1	1.57151e-06
3160.78	1.05818e-06
3169.46	6.00092e-07
3178.13	3.63787e-07
3186.81	1.1569e-07
3195.49	-2.5631e-08
3204.17	-8.54247e-08
3212.85	-9.22322e-08
3221.52	-7.23482e-08
3230.2	-4.04891e-08
3238.88	-1.15463e-07
3247.56	-1.72648e-07
3256.24	-1.41496e-07
3264.91	-5.80507e-08
3273.59	-9.70474e-08
3282.27	-1.00552e-07
3290.95	-7.93258e-08
3299.63	3.07723e-09
3308.31	1.27941e-08
3316.98	2.0177e-07
3325.66	2.52852e-07
3334.34	3.01629e-07
3343.02	4.88848e-07
3351.7	1.39106e-07
3360.37	1.65937e-07
3369.05	2.27265e-08
3377.73	-3.34007e-09
3386.41	-4.59301e-08
3395.09	-4.12708e-08
3403.77	-4.12654e-08
3412.44	-5.75769e-08
3421.12	-1.08724e-08
3429.8	-3.06467e-08
3438.48	-9.01204e-09
3447.16	5.7661e-09
3455.83	6.88281e-08
3464.51	-2.72239e-08
3473.19	-2.58579e-08
3481.87	1.17996e-08
3490.55	2.54573e-08
3499.22	7.55555e-08
3507.9	6.99572e-08
3516.58	1.92908e-07
3525.26	1.88412e-07
3533.94	1.31876e-07
3542.62	1.55963e-07
3551.29	8.21824e-08
3559.97	4.38947e-08
3568.65	3.00467e-07
3577.33	3.2277e-08
3586.01	2.95709e-07
3594.68	1.97846e-07
3603.36	1.10232e-07
3612.04	4.47944e-07
3620.72	4.45519e-07
3629.4	1.34914e-06
3638.08	3.72323e-07
3646.75	8.03308e-07
3655.43	8.41377e-07
3664.11	3.32682e-07
3672.79	4.45467e-07
3681.47	1.30401e-07
3690.14	5.89599e-07
3698.82	6.01553e-08
3707.5	6.83356e-08
3716.18	9.92106e-09
3724.86	1.47483e-07
3733.54	4.35146e-07
3742.21	2.30773e-07
3750.89	9.57678e-07
3759.57	3.01383e-07
3768.25	7.10036e-08
3776.93	-1.87298e-08
3785.6	8.66734e-09
3794.28	-3.35739e-08
3802.96	4.37559e-07
3811.64	-2.36283e-09
3820.32	7.26182e-07
3828.99	1.85795e-07
3837.67	1.66394e-06
3846.35	2.98076e-07
3855.03	1.91208e-06
3863.71	5.48749e-07
3872.39	1.61452e-07
3881.06	4.25129e-07
3889.74	2.2665e-07
3898.42	4.55708e-07
3907.1	2.88516e-07
3915.78	2.95063e-07
3924.45	3.68691e-07
3933.13	2.46791e-07
3941.81	1.471e-07
3950.49	1.60291e-07
3959.17	1.17141e-07
3967.85	1.83913e-07
