Infrared Spectrum: 1,2-Dichloroethane
Formula: Cl C H2 C H2 Cl
CAS: 107-06-2
State: gas
Melting point: -35.36 C
Boiling point: 83.47 C
Class: IUPAC A
Instrument: IFS66V (Bruker)
Instrument parameters: KBr Beam Splitter; MCT Detector; Multipass cell
Sampling: 1 L/min Flow
Resolution: 0.2410
Temperature: 23 C
Pressure: 101.3 Pa
Origin: NIST, Analytical Chemistry Division, 301-975-3108
cm-1	(micromol/mol)-1m-1 (base 10)
575.05	7.99424e-07
583.608	6.78078e-07
592.165	6.22391e-07
600.723	-1.34025e-07
609.281	-2.14121e-08
617.838	-2.62135e-07
626.396	-1.35925e-07
634.954	5.43465e-07
643.511	2.59518e-06
652.069	7.5318e-06
660.626	1.47511e-05
669.184	1.43281e-05
677.742	2.455e-05
686.299	4.07079e-05
694.857	3.05891e-05
703.415	3.90573e-05
711.972	0.000134669
720.53	0.000493734
729.088	0.000517918
737.645	0.000222539
746.203	6.89424e-06
754.761	6.73979e-06
763.318	6.7194e-06
771.876	9.29543e-06
780.434	5.11265e-06
788.991	4.17044e-06
797.549	3.26382e-06
806.106	1.80816e-06
814.664	1.5653e-06
823.222	1.77355e-06
831.779	2.37555e-06
840.337	1.55352e-06
848.895	6.58694e-07
857.452	1.00992e-06
866.01	1.36063e-06
874.568	5.02942e-06
883.125	2.11687e-05
891.683	1.72712e-05
900.241	1.61851e-05
908.798	3.06271e-06
917.356	1.65128e-06
925.914	3.139e-06
934.471	6.93162e-06
943.029	9.24038e-06
951.586	9.56875e-06
960.144	6.2668e-06
968.702	2.77893e-06
977.259	1.92565e-06
985.817	3.00694e-06
994.375	3.47077e-06
1002.93	1.63829e-06
1011.49	2.03702e-06
1020.05	3.71833e-06
1028.61	4.52334e-06
1037.16	2.5966e-06
1045.72	1.07366e-06
1054.28	4.16347e-07
1062.84	-1.54613e-10
1071.39	3.94546e-08
1079.95	3.042e-07
1088.51	5.0957e-07
1097.07	1.11939e-06
1105.62	1.89923e-06
1114.18	2.68422e-06
1122.74	5.11841e-06
1131.3	2.31006e-06
1139.85	3.29425e-06
1148.41	2.46073e-06
1156.97	1.91786e-06
1165.53	1.24989e-06
1174.09	8.63512e-07
1182.64	1.0766e-06
1191.2	1.87974e-06
1199.76	4.26497e-06
1208.32	6.41159e-06
1216.87	1.65903e-05
1225.43	0.000141284
1233.99	0.000126165
1242.55	8.92315e-05
1251.1	1.29155e-05
1259.66	6.42039e-06
1268.22	4.66084e-06
1276.78	1.07662e-05
1285.33	4.3865e-05
1293.89	2.17076e-05
1302.45	3.1742e-05
1311.01	1.12799e-05
1319.57	1.3078e-05
1328.12	8.05287e-06
1336.68	4.65222e-06
1345.24	3.34887e-06
1353.8	2.80024e-06
1362.35	2.41869e-06
1370.91	1.80275e-06
1379.47	1.21811e-06
1388.03	8.75718e-07
1396.58	7.5988e-07
1405.14	1.15433e-06
1413.7	2.92717e-06
1422.26	7.43476e-06
1430.81	1.67801e-05
1439.37	2.08032e-05
1447.93	2.4831e-05
1456.49	3.03007e-05
1465.05	3.26781e-05
1473.6	1.47297e-05
1482.16	9.71818e-06
1490.72	5.31244e-06
1499.28	2.73589e-06
1507.83	9.50754e-07
1516.39	1.25366e-06
1524.95	2.08838e-06
1533.51	2.42516e-06
1542.06	2.63186e-07
1550.62	4.87994e-07
1559.18	2.52074e-08
1567.74	2.16638e-07
1576.29	-1.08582e-06
1584.85	2.5457e-07
1593.41	8.20542e-08
1601.97	-1.53372e-07
1610.53	3.9521e-08
1619.08	-5.93679e-08
1627.64	-2.90756e-07
1636.2	-1.52333e-07
1644.76	-6.19181e-08
1653.31	-1.97108e-06
1661.87	-5.85675e-08
1670.43	1.66893e-07
1678.99	3.00377e-07
1687.54	2.03812e-07
1696.1	-7.74708e-07
1704.66	-1.00421e-07
1713.22	1.62459e-07
1721.77	2.11443e-07
1730.33	2.01507e-08
1738.89	-3.30973e-08
1747.45	4.08534e-08
1756.01	1.85772e-08
1764.56	8.81232e-08
1773.12	-4.44941e-08
1781.68	1.14749e-07
1790.24	3.82486e-08
1798.79	-8.3925e-08
1807.35	-7.80188e-08
1815.91	4.75318e-08
1824.47	-1.3495e-08
1833.02	-1.65545e-08
1841.58	2.86862e-08
1850.14	6.70512e-08
1858.7	9.04597e-08
1867.25	-2.29755e-08
1875.81	-6.40099e-09
1884.37	-2.88736e-08
1892.93	1.60243e-07
1901.49	1.42336e-07
1910.04	-1.76505e-08
1918.6	4.19939e-08
1927.16	-3.28608e-08
1935.72	-9.06971e-08
1944.27	-1.06889e-07
1952.83	-6.73905e-08
1961.39	-3.20459e-08
1969.95	-7.01217e-10
1978.5	-6.71404e-08
1987.06	5.21283e-08
1995.62	-6.62554e-08
2004.18	7.72384e-08
2012.73	3.45973e-07
2021.29	1.0841e-06
2029.85	1.96862e-06
2038.41	1.85208e-06
2046.97	6.63159e-07
2055.52	2.499e-07
2064.08	1.50674e-07
2072.64	1.35623e-08
2081.2	3.40286e-08
2089.75	8.15403e-08
2098.31	2.8834e-07
2106.87	2.50483e-07
2115.43	4.74057e-07
2123.98	2.68666e-07
2132.54	4.11426e-07
2141.1	2.11064e-07
2149.66	6.23801e-08
2158.21	1.68512e-07
2166.77	1.66753e-07
2175.33	2.70329e-07
2183.89	5.81945e-07
2192.45	7.91029e-07
2201	1.14606e-06
2209.56	1.23194e-06
2218.12	1.65329e-06
2226.68	1.54074e-06
2235.23	1.4498e-06
2243.79	9.35048e-07
2252.35	7.15037e-07
2260.91	3.33571e-07
2269.46	2.20919e-07
2278.02	1.56795e-07
2286.58	2.40338e-07
2295.14	1.01948e-07
2303.69	1.72298e-07
2312.25	3.20341e-07
2320.81	-3.16348e-08
2329.37	2.60794e-07
2337.93	-1.62805e-07
2346.48	9.56029e-08
2355.04	1.56759e-07
2363.6	-7.89728e-08
2372.16	2.91544e-07
2380.71	8.55674e-07
2389.27	1.12826e-06
2397.83	5.91501e-07
2406.39	6.62897e-07
2414.94	6.55226e-07
2423.5	7.69485e-07
2432.06	4.89298e-07
2440.62	6.50257e-07
2449.17	4.19714e-07
2457.73	5.90288e-07
2466.29	5.85949e-07
2474.85	3.29944e-07
2483.41	2.43812e-07
2491.96	3.32208e-07
2500.52	5.63633e-07
2509.08	6.87678e-07
2517.64	6.95261e-07
2526.19	6.5564e-07
2534.75	5.18135e-07
2543.31	3.25271e-07
2551.87	2.09308e-07
2560.42	3.32391e-08
2568.98	-1.02553e-07
2577.54	-5.76899e-08
2586.1	1.29781e-07
2594.65	-8.92101e-08
2603.21	-7.40698e-08
2611.77	-2.35714e-07
2620.33	-1.50592e-07
2628.89	-1.34695e-09
2637.44	-1.10167e-07
2646	-2.88163e-08
2654.56	5.8924e-08
2663.12	-2.03635e-09
2671.67	3.35196e-07
2680.23	1.48193e-06
2688.79	1.45852e-06
2697.35	1.02638e-06
2705.9	1.79119e-07
2714.46	1.34442e-07
2723.02	5.305e-07
2731.58	3.0768e-07
2740.13	6.46117e-07
2748.69	6.78219e-07
2757.25	2.0898e-06
2765.81	1.87312e-06
2774.37	1.19751e-06
2782.92	1.59876e-07
2791.48	7.0872e-08
2800.04	4.60538e-08
2808.6	-7.83162e-08
2817.15	-1.75532e-10
2825.71	3.2563e-07
2834.27	6.43791e-07
2842.83	1.71557e-06
2851.38	3.60476e-06
2859.94	3.86793e-06
2868.5	4.7187e-06
2877.06	5.16003e-06
2885.61	1.26346e-05
2894.17	1.00459e-05
2902.73	1.05325e-05
2911.29	3.34408e-06
2919.85	2.17539e-06
2928.4	2.19577e-06
2936.96	4.78649e-06
2945.52	1.20877e-05
2954.08	2.57297e-05
2962.63	2.54806e-05
2971.19	4.84826e-05
2979.75	5.3675e-05
2988.31	5.74811e-05
2996.86	3.74316e-05
3005.42	2.89207e-05
3013.98	2.40926e-05
3022.54	1.83427e-05
3031.09	1.34033e-05
3039.65	9.58566e-06
3048.21	8.15074e-06
3056.77	5.43712e-06
3065.33	3.13364e-06
3073.88	1.66761e-06
3082.44	9.63688e-07
3091	7.2703e-07
3099.56	5.05934e-07
3108.11	5.49156e-07
3116.67	5.16999e-07
3125.23	3.26847e-07
3133.79	-1.18961e-09
3142.34	4.5178e-08
3150.9	-4.87878e-08
3159.46	5.35417e-09
3168.02	-7.70765e-08
3176.57	-2.1154e-07
3185.13	-3.84723e-08
3193.69	1.43391e-07
3202.25	2.60271e-07
3210.81	1.53833e-07
3219.36	1.15445e-07
3227.92	5.42165e-08
3236.48	-1.72172e-07
3245.04	5.3338e-08
3253.59	3.38003e-08
3262.15	2.39124e-07
3270.71	6.15315e-08
3279.27	1.46429e-07
3287.82	6.53341e-08
3296.38	5.11715e-08
3304.94	-1.54341e-07
3313.5	5.65266e-08
3322.05	2.71295e-07
3330.61	-1.06648e-07
3339.17	-1.20199e-07
3347.73	-1.19701e-07
3356.29	2.0777e-07
3364.84	-1.02466e-07
3373.4	-1.17487e-07
3381.96	-1.45894e-07
3390.52	9.81249e-08
3399.07	2.20549e-07
3407.63	1.56469e-07
3416.19	9.35156e-08
3424.75	-3.18367e-08
3433.3	-7.44818e-08
3441.86	-1.18625e-07
3450.42	-1.18898e-07
3458.98	2.6247e-08
3467.53	2.00414e-07
3476.09	1.51939e-08
3484.65	-1.53218e-07
3493.21	1.39679e-08
3501.77	-2.22094e-07
3510.32	-2.73123e-07
3518.88	-7.41343e-08
3527.44	1.12619e-07
3536	-4.67678e-08
3544.55	-6.91622e-08
3553.11	-9.77283e-08
3561.67	4.97054e-08
3570.23	-2.4257e-07
3578.78	-1.49847e-07
3587.34	-1.37803e-07
3595.9	1.23589e-07
3604.46	-1.18325e-07
3613.01	-1.026e-08
3621.57	9.05943e-08
3630.13	2.06122e-07
3638.69	2.79978e-07
3647.25	-1.61876e-07
3655.8	2.39162e-07
3664.36	3.43657e-07
3672.92	4.59195e-07
3681.48	3.27185e-07
3690.03	2.54235e-07
3698.59	3.80443e-07
3707.15	2.03168e-07
3715.71	2.15779e-07
3724.26	2.19132e-07
3732.82	4.72739e-07
3741.38	6.58282e-07
3749.94	1.08778e-06
3758.49	1.48074e-06
3767.05	9.33888e-07
3775.61	1.33344e-06
3784.17	1.00631e-06
3792.73	1.00618e-06
3801.28	-2.59719e-07
3809.84	5.70622e-07
3818.4	5.94717e-07
3826.96	5.50506e-07
3835.51	1.92041e-07
3844.07	2.33994e-07
3852.63	-4.93371e-08
3861.19	1.5819e-07
3869.74	-9.114e-09
3878.3	-3.90781e-08
3886.86	2.18576e-07
3895.42	2.93217e-07
3903.97	-2.0243e-07
3912.53	-1.58123e-07
3921.09	1.55823e-08
3929.65	-6.78116e-09
3938.21	-2.13421e-08
3946.76	1.77354e-07
3955.32	3.97808e-07
3963.88	3.8841e-07
3972.44	5.86976e-07
