Infrared Spectrum: 1,2-Dichloroethane
Formula: Cl C H2 C H2 Cl
CAS: 107-06-2
State: gas
Melting point: -35.36 C
Boiling point: 83.47 C
Class: IUPAC A
Instrument: IFS66V (Bruker)
Instrument parameters: KBr Beam Splitter; MCT Detector; Multipass cell
Sampling: 1 L/min Flow
Resolution: 1.9290
Temperature: 23 C
Pressure: 101.3 Pa
Origin: NIST, Analytical Chemistry Division, 301-975-3108
cm-1	(micromol/mol)-1m-1 (base 10)
575.652	5.15321e-07
584.33	5.34545e-07
593.008	5.51895e-07
601.687	-5.34362e-08
610.365	-1.5619e-07
619.043	-5.28868e-08
627.721	4.25744e-07
636.399	9.63427e-07
645.077	3.33423e-06
653.756	8.68374e-06
662.434	1.56745e-05
671.112	1.6318e-05
679.79	2.69809e-05
688.468	3.91876e-05
697.146	3.31661e-05
705.825	4.3502e-05
714.503	0.000220534
723.181	0.000552131
731.859	0.000570799
740.537	4.46683e-05
749.216	6.32e-06
757.894	6.88802e-06
766.572	7.35638e-06
775.25	6.10118e-06
783.928	4.74467e-06
792.606	3.52878e-06
801.285	2.31307e-06
809.963	1.70689e-06
818.641	1.5411e-06
827.319	2.08692e-06
835.997	1.90041e-06
844.676	1.17573e-06
853.354	5.72726e-07
862.032	9.27103e-07
870.71	2.55366e-06
879.388	1.35456e-05
888.066	2.0752e-05
896.745	2.14317e-05
905.423	5.93679e-06
914.101	1.93059e-06
922.779	2.38783e-06
931.457	5.35465e-06
940.135	9.2016e-06
948.814	7.81177e-06
957.492	8.19287e-06
966.17	3.47645e-06
974.848	1.79152e-06
983.526	2.64764e-06
992.205	3.33188e-06
1000.88	2.02418e-06
1009.56	1.78013e-06
1018.24	3.4514e-06
1026.92	4.71155e-06
1035.6	2.97329e-06
1044.27	1.09719e-06
1052.95	3.9838e-07
1061.63	1.28454e-07
1070.31	7.94276e-08
1078.99	2.85866e-07
1087.66	5.63327e-07
1096.34	1.10692e-06
1105.02	1.85144e-06
1113.7	2.38539e-06
1122.38	4.51041e-06
1131.06	2.92931e-06
1139.73	2.90518e-06
1148.41	2.50762e-06
1157.09	1.89494e-06
1165.77	1.20625e-06
1174.45	8.17672e-07
1183.12	9.86326e-07
1191.8	1.94357e-06
1200.48	3.79713e-06
1209.16	6.85362e-06
1217.84	2.21284e-05
1226.52	0.000158735
1235.19	0.000151923
1243.87	6.21997e-05
1252.55	9.94189e-06
1261.23	6.3625e-06
1269.91	4.79782e-06
1278.58	1.67853e-05
1287.26	4.08952e-05
1295.94	3.8981e-05
1304.62	2.22872e-05
1313.3	9.48233e-06
1321.98	1.11922e-05
1330.65	6.91358e-06
1339.33	3.97834e-06
1348.01	2.99997e-06
1356.69	2.93474e-06
1365.37	2.21796e-06
1374.04	1.27322e-06
1382.72	1.1234e-06
1391.4	8.55106e-07
1400.08	9.35e-07
1408.76	1.79141e-06
1417.44	4.15426e-06
1426.11	1.16742e-05
1434.79	1.93599e-05
1443.47	2.57952e-05
1452.15	3.21811e-05
1460.83	1.9947e-05
1469.5	2.20027e-05
1478.18	1.17157e-05
1486.86	7.25544e-06
1495.54	3.62649e-06
1504.22	1.53757e-06
1512.9	9.53182e-07
1521.57	1.81687e-06
1530.25	2.79827e-06
1538.93	1.09517e-06
1547.61	6.71829e-07
1556.29	1.97452e-07
1564.96	1.67597e-07
1573.64	2.1404e-07
1582.32	2.16447e-07
1591	7.33476e-08
1599.68	9.21222e-09
1608.36	-1.76632e-08
1617.03	-3.90965e-07
1625.71	-1.69483e-08
1634.39	-2.65824e-07
1643.07	-6.85892e-08
1651.75	-4.92892e-07
1660.42	1.09339e-08
1669.1	-1.38196e-07
1677.78	2.27795e-07
1686.46	1.87833e-07
1695.14	-2.32847e-07
1703.82	5.26686e-08
1712.49	1.58607e-07
1721.17	1.50324e-07
1729.85	4.66059e-08
1738.53	-3.91363e-08
1747.21	-2.72347e-08
1755.88	1.76459e-08
1764.56	7.56605e-08
1773.24	-1.48326e-07
1781.92	1.0286e-07
1790.6	3.31527e-08
1799.28	-8.15267e-08
1807.95	-5.71032e-08
1816.63	-2.47872e-08
1825.31	-6.38553e-08
1833.99	2.36095e-08
1842.67	-6.91031e-09
1851.34	2.21033e-08
1860.02	4.16501e-08
1868.7	-8.36131e-08
1877.38	5.15244e-08
1886.06	4.50734e-08
1894.74	6.57952e-08
1903.41	6.03938e-08
1912.09	-1.85591e-08
1920.77	-1.58169e-08
1929.45	-1.3535e-08
1938.13	-4.96682e-08
1946.8	-3.78439e-08
1955.48	-7.64672e-08
1964.16	-2.99495e-08
1972.84	-2.8508e-08
1981.52	3.75547e-08
1990.19	5.83411e-08
1998.87	1.56523e-08
2007.55	1.27515e-07
2016.23	4.50217e-07
2024.91	1.50713e-06
2033.59	2.07803e-06
2042.26	1.35812e-06
2050.94	2.85344e-07
2059.62	1.37976e-07
2068.3	5.51397e-08
2076.98	3.29363e-08
2085.65	8.09164e-08
2094.33	1.74889e-07
2103.01	3.22525e-07
2111.69	3.45922e-07
2120.37	2.94254e-07
2129.05	2.33884e-07
2137.72	1.64672e-07
2146.4	1.47579e-07
2155.08	8.9854e-08
2163.76	1.14755e-07
2172.44	3.01688e-07
2181.11	4.71074e-07
2189.79	8.43831e-07
2198.47	9.64825e-07
2207.15	1.34112e-06
2215.83	1.58901e-06
2224.51	1.50031e-06
2233.18	1.49811e-06
2241.86	1.04701e-06
2250.54	7.0396e-07
2259.22	3.86142e-07
2267.9	2.29715e-07
2276.57	1.68016e-07
2285.25	1.89775e-07
2293.93	1.93664e-07
2302.61	1.7109e-07
2311.29	1.43825e-07
2319.97	9.86369e-08
2328.64	-1.41636e-07
2337.32	-3.67112e-07
2346	-1.84081e-07
2354.68	-4.37718e-07
2363.36	-7.95543e-07
2372.03	-7.29866e-09
2380.71	9.97025e-07
2389.39	1.12052e-06
2398.07	6.70404e-07
2406.75	5.84936e-07
2415.43	5.81341e-07
2424.1	7.1252e-07
2432.78	6.00147e-07
2441.46	5.93618e-07
2450.14	4.90048e-07
2458.82	6.84201e-07
2467.49	5.78322e-07
2476.17	3.6148e-07
2484.85	2.52543e-07
2493.53	3.39096e-07
2502.21	5.06603e-07
2510.89	6.73213e-07
2519.56	8.00975e-07
2528.24	5.19267e-07
2536.92	5.18487e-07
2545.6	3.39531e-07
2554.28	1.92814e-07
2562.95	-4.32181e-08
2571.63	-2.02998e-08
2580.31	-1.32023e-07
2588.99	-1.0367e-07
2597.67	-1.3587e-07
2606.35	-1.05719e-07
2615.02	-1.06057e-07
2623.7	-5.33007e-08
2632.38	-3.71563e-08
2641.06	2.78404e-08
2649.74	2.85352e-08
2658.41	-8.90391e-10
2667.09	1.47275e-07
2675.77	6.29094e-07
2684.45	1.84374e-06
2693.13	1.76979e-06
2701.81	3.73454e-07
2710.48	1.93804e-07
2719.16	3.47187e-07
2727.84	4.01848e-07
2736.52	5.51097e-07
2745.2	4.71147e-07
2753.87	1.24942e-06
2762.55	2.31202e-06
2771.23	2.37173e-06
2779.91	2.36319e-07
2788.59	1.20194e-07
2797.27	3.86624e-09
2805.94	-6.43919e-08
2814.62	4.2907e-08
2823.3	1.32304e-07
2831.98	5.09507e-07
2840.66	1.4179e-06
2849.33	3.08178e-06
2858.01	3.64414e-06
2866.69	4.69025e-06
2875.37	4.82737e-06
2884.05	1.00974e-05
2892.73	1.05217e-05
2901.4	1.21716e-05
2910.08	3.40875e-06
2918.76	2.3942e-06
2927.44	2.02273e-06
2936.12	4.39014e-06
2944.79	1.12728e-05
2953.47	2.50384e-05
2962.15	2.6929e-05
2970.83	4.65154e-05
2979.51	5.54563e-05
2988.19	5.79903e-05
2996.86	3.60287e-05
3005.54	2.89298e-05
3014.22	2.40798e-05
3022.9	1.76362e-05
3031.58	1.4271e-05
3040.25	9.86904e-06
3048.93	7.89667e-06
3057.61	5.22185e-06
3066.29	2.92228e-06
3074.97	1.60374e-06
3083.65	9.32175e-07
3092.32	6.80108e-07
3101	5.91406e-07
3109.68	5.36401e-07
3118.36	4.28314e-07
3127.04	3.33887e-07
3135.71	1.18857e-07
3144.39	7.99296e-08
3153.07	3.60385e-08
3161.75	2.1785e-08
3170.43	-5.56399e-08
3179.11	1.31885e-08
3187.78	1.14795e-07
3196.46	2.15337e-07
3205.14	2.04482e-07
3213.82	1.46201e-07
3222.5	1.48484e-07
3231.17	1.27615e-07
3239.85	5.8231e-08
3248.53	5.7708e-08
3257.21	1.05212e-07
3265.89	8.69945e-08
3274.57	1.11782e-07
3283.24	2.97703e-08
3291.92	6.39308e-08
3300.6	-4.16064e-08
3309.28	-3.64096e-08
3317.96	-1.23168e-07
3326.63	-6.49612e-08
3335.31	-7.90547e-08
3343.99	-2.22798e-08
3352.67	-5.31024e-08
3361.35	-2.59132e-08
3370.03	-5.73342e-09
3378.7	6.15124e-08
3387.38	-2.91219e-08
3396.06	-5.62611e-08
3404.74	1.89253e-07
3413.42	1.7329e-07
3422.09	3.26807e-08
3430.77	4.01904e-09
3439.45	-1.22872e-08
3448.13	-3.88189e-08
3456.81	-7.60061e-09
3465.49	-3.59822e-08
3474.16	-2.22634e-08
3482.84	1.05181e-07
3491.52	-6.94741e-08
3500.2	-9.72709e-08
3508.88	-1.14698e-07
3517.55	-1.42228e-07
3526.23	-3.71254e-08
3534.91	-5.84929e-08
3543.59	-6.48703e-08
3552.27	-3.69317e-08
3560.95	-3.3311e-08
3569.62	-1.53035e-07
3578.3	-9.71799e-08
3586.98	-1.41542e-07
3595.66	-5.3136e-08
3604.34	-5.22566e-08
3613.01	1.54741e-08
3621.69	1.23715e-07
3630.37	-3.11737e-08
3639.05	2.68175e-07
3647.73	1.21713e-07
3656.41	1.97709e-07
3665.08	3.06625e-07
3673.76	3.20143e-07
3682.44	3.69393e-07
3691.12	2.48773e-08
3699.8	2.39502e-07
3708.47	1.66947e-07
3717.15	2.11875e-07
3725.83	2.42392e-07
3734.51	3.10671e-07
3743.19	7.20987e-07
3751.87	7.66213e-07
3760.54	1.17894e-06
3769.22	9.86698e-07
3777.9	1.06664e-06
3786.58	9.69548e-07
3795.26	6.11416e-07
3803.93	8.4525e-07
3812.61	4.99242e-07
3821.29	1.72337e-07
3829.97	3.26011e-07
3838.65	2.22698e-08
3847.33	3.32126e-07
3856	1.20853e-07
3864.68	-7.23554e-08
3873.36	-3.37157e-08
3882.04	5.7246e-08
3890.72	1.25883e-08
3899.39	-5.80145e-08
3908.07	9.35274e-08
3916.75	-4.72553e-08
3925.43	3.00932e-08
3934.11	5.75762e-08
3942.79	1.12065e-07
3951.46	2.13922e-07
3960.14	3.07154e-07
3968.82	2.50964e-07
