Infrared Spectrum: Nitrile-Propenoic Acid
Formula: C H2: C H C N
CAS: 107-13-1
State: gas
Melting point: -83.5 C
Boiling point: 77.5 C
Class: IUPAC A
Instrument: IFS66V (Bruker)
Instrument parameters: KBr Beam splitter; MCT Detector; Multipass cell
Sampling: 1 L/min Flow
Resolution: 0.4820
Temperature: 23 C
Pressure: 101.3 kPa
Origin: NIST, Anayltical Chemistry Division, 301-975-3108
cm-1	(micromol/mol)-1m-1 (base 10)
574.928	-2.25083e-07
583.606	4.66086e-07
592.284	7.99976e-07
600.962	5.98619e-07
609.641	9.04898e-07
618.319	1.32793e-06
626.997	2.32084e-06
635.675	4.64954e-06
644.353	9.04448e-06
653.031	2.10057e-05
661.71	1.67609e-05
670.388	1.73257e-05
679.066	3.26876e-05
687.744	1.83964e-05
696.422	1.73187e-05
705.1	2.08917e-05
713.778	1.12328e-05
722.457	1.28113e-05
731.135	5.62842e-06
739.813	4.71797e-06
748.491	2.02562e-06
757.169	1.35528e-06
765.847	1.71436e-06
774.526	4.44212e-06
783.204	3.74024e-06
791.882	3.84008e-06
800.56	2.89629e-06
809.238	5.39801e-07
817.916	1.01224e-07
826.594	5.22869e-08
835.273	8.57985e-08
843.951	9.14149e-07
852.629	4.68592e-06
861.307	8.41319e-06
869.985	4.13588e-06
878.663	8.8172e-06
887.342	6.80492e-06
896.02	1.04002e-05
904.698	1.62004e-05
913.376	2.58922e-05
922.054	4.24085e-05
930.732	9.24909e-05
939.41	6.86566e-05
948.089	0.000160812
956.767	9.82967e-05
965.445	8.50919e-05
974.123	9.11332e-05
982.801	8.55163e-05
991.479	7.33545e-05
1000.16	6.20229e-05
1008.84	4.78681e-05
1017.51	2.32283e-05
1026.19	1.25689e-05
1034.87	5.24973e-06
1043.55	2.08004e-06
1052.23	1.4323e-06
1060.9	1.1857e-06
1069.58	1.74489e-06
1078.26	7.85764e-06
1086.94	1.25164e-05
1095.62	9.32785e-06
1104.3	8.30936e-06
1112.97	3.52651e-06
1121.65	4.5535e-07
1130.33	3.78471e-07
1139.01	1.56454e-07
1147.69	1.50533e-07
1156.36	1.4469e-07
1165.04	2.62015e-07
1173.72	1.70385e-07
1182.4	2.05159e-07
1191.08	4.28903e-07
1199.76	2.78574e-07
1208.43	5.80136e-07
1217.11	2.20766e-07
1225.79	2.58381e-07
1234.47	1.84114e-07
1243.15	1.25813e-07
1251.82	2.03713e-07
1260.5	7.04449e-07
1269.18	2.39476e-06
1277.86	2.09138e-06
1286.54	3.14891e-06
1295.21	3.15001e-06
1303.89	1.6291e-06
1312.57	2.64841e-06
1321.25	2.2229e-06
1329.93	2.42262e-06
1338.61	3.666e-06
1347.28	2.92138e-06
1355.96	3.37221e-06
1364.64	3.34114e-06
1373.32	4.41451e-06
1382	4.78355e-06
1390.67	6.24003e-06
1399.35	1.67487e-05
1408.03	2.20168e-05
1416.71	1.23977e-05
1425.39	2.27569e-05
1434.07	1.06259e-05
1442.74	1.09018e-05
1451.42	4.65976e-06
1460.1	2.71513e-06
1468.78	1.61496e-06
1477.46	6.38861e-07
1486.13	4.6882e-07
1494.81	2.82314e-07
1503.49	2.38933e-07
1512.17	1.24596e-06
1520.85	2.09047e-07
1529.52	2.48379e-07
1538.2	5.55379e-07
1546.88	2.85693e-07
1555.56	5.47762e-07
1564.24	7.74464e-07
1572.92	1.04589e-06
1581.59	1.66438e-06
1590.27	3.11941e-06
1598.95	1.15103e-05
1607.63	1.35691e-05
1616.31	5.36546e-06
1624.98	1.6924e-05
1633.66	9.23065e-06
1642.34	9.93008e-06
1651.02	4.8521e-06
1659.7	7.95621e-06
1668.38	5.54147e-06
1677.05	2.0658e-06
1685.73	1.12016e-06
1694.41	1.28764e-06
1703.09	3.00586e-07
1711.77	1.86883e-07
1720.44	2.79849e-07
1729.12	1.32431e-07
1737.8	3.75445e-07
1746.48	3.92469e-07
1755.16	1.54223e-07
1763.84	7.49193e-08
1772.51	1.88062e-06
1781.19	1.39232e-08
1789.87	1.21878e-07
1798.55	7.49912e-08
1807.23	1.76294e-08
1815.9	5.61431e-08
1824.58	4.18673e-07
1833.26	7.79825e-07
1841.94	5.68435e-07
1850.62	9.335e-07
1859.29	6.94539e-07
1867.97	1.43708e-06
1876.65	1.79426e-06
1885.33	5.48426e-06
1894.01	1.46906e-05
1902.69	1.48539e-05
1911.36	1.39584e-05
1920.04	1.62938e-05
1928.72	7.75628e-06
1937.4	2.92408e-06
1946.08	3.4717e-06
1954.75	1.59154e-06
1963.43	1.16771e-06
1972.11	6.26357e-07
1980.79	4.49014e-07
1989.47	3.03351e-07
1998.15	2.13666e-07
2006.82	1.1516e-07
2015.5	7.79333e-09
2024.18	1.17957e-07
2032.86	4.70574e-08
2041.54	5.13029e-08
2050.21	1.52274e-07
2058.89	8.61077e-08
2067.57	1.20437e-07
2076.25	1.08316e-07
2084.93	4.59397e-08
2093.6	9.26924e-08
2102.28	3.12079e-08
2110.96	7.13678e-08
2119.64	2.38629e-08
2128.32	9.92243e-10
2137	2.31144e-08
2145.67	-3.33143e-09
2154.35	5.70571e-08
2163.03	8.86234e-08
2171.71	5.33446e-08
2180.39	7.37534e-08
2189.06	1.14e-07
2197.74	7.50876e-08
2206.42	2.18658e-07
2215.1	5.88307e-07
2223.78	1.82505e-06
2232.46	2.28983e-06
2241.13	2.30897e-06
2249.81	2.74205e-06
2258.49	8.30488e-07
2267.17	9.40729e-07
2275.85	1.11678e-06
2284.52	9.64779e-07
2293.2	1.46885e-06
2301.88	4.85511e-07
2310.56	4.92192e-07
2319.24	2.94446e-07
2327.92	1.21346e-07
2336.59	1.81555e-07
2345.27	1.53842e-07
2353.95	2.82681e-07
2362.63	6.10742e-07
2371.31	5.63286e-07
2379.98	7.39773e-07
2388.66	6.48005e-07
2397.34	5.71351e-07
2406.02	3.66505e-07
2414.7	2.56435e-07
2423.37	2.45156e-07
2432.05	2.54115e-07
2440.73	3.27526e-07
2449.41	6.98608e-07
2458.09	5.91985e-07
2466.77	5.02187e-07
2475.44	7.76522e-07
2484.12	6.83752e-07
2492.8	4.92661e-07
2501.48	2.74465e-07
2510.16	2.14783e-07
2518.83	2.15914e-07
2527.51	2.13502e-07
2536.19	2.18428e-07
2544.87	3.25675e-07
2553.55	5.16827e-07
2562.23	5.02636e-07
2570.9	3.01162e-07
2579.58	2.02023e-07
2588.26	1.60719e-07
2596.94	1.71698e-07
2605.62	3.4492e-08
2614.29	7.19335e-08
2622.97	-2.72517e-08
2631.65	8.5864e-09
2640.33	1.74893e-09
2649.01	-1.83151e-08
2657.68	5.72609e-08
2666.36	-2.4837e-08
2675.04	1.47115e-07
2683.72	2.04385e-07
2692.4	4.99246e-07
2701.08	8.0723e-07
2709.75	5.40227e-07
2718.43	6.48409e-07
2727.11	2.4787e-07
2735.79	1.77357e-07
2744.47	9.56855e-08
2753.14	5.87142e-08
2761.82	1.01196e-07
2770.5	1.61119e-07
2779.18	2.02427e-07
2787.86	7.78988e-08
2796.54	9.32654e-08
2805.21	3.30496e-07
2813.89	-3.87529e-09
2822.57	8.8215e-08
2831.25	1.23298e-08
2839.93	-1.52002e-07
2848.6	-1.94161e-07
2857.28	-1.20283e-07
2865.96	2.14801e-08
2874.64	8.47262e-08
2883.32	8.36121e-08
2892	3.61098e-07
2900.67	3.28951e-07
2909.35	2.20172e-07
2918.03	1.87328e-07
2926.71	-4.41334e-08
2935.39	1.11127e-07
2944.06	1.88217e-08
2952.74	5.06535e-08
2961.42	3.85701e-08
2970.1	1.05298e-07
2978.78	7.96004e-08
2987.45	4.40436e-07
2996.13	1.85198e-07
3004.81	4.8244e-07
3013.49	5.07324e-07
3022.17	2.10385e-06
3030.85	6.08895e-06
3039.52	5.68373e-06
3048.2	6.23368e-06
3056.88	6.63741e-06
3065.56	2.10272e-06
3074.24	1.12363e-06
3082.91	1.04838e-06
3091.59	2.0011e-06
3100.27	2.4813e-06
3108.95	6.39956e-06
3117.63	8.96635e-06
3126.31	3.46709e-06
3134.98	1.08494e-05
3143.66	5.06653e-06
3152.34	2.88008e-06
3161.02	1.04378e-06
3169.7	4.74055e-07
3178.37	4.10129e-07
3187.05	1.01517e-07
3195.73	2.66268e-08
3204.41	-1.85654e-07
3213.09	-1.94726e-07
3221.77	-6.16418e-08
3230.44	-8.83614e-08
3239.12	-1.91148e-07
3247.8	-1.84584e-07
3256.48	-6.02158e-08
3265.16	-4.28556e-08
3273.83	-1.44031e-07
3282.51	-2.26327e-07
3291.19	-1.72181e-07
3299.87	-1.89627e-08
3308.55	2.28541e-07
3317.22	1.66715e-07
3325.9	2.6429e-07
3334.58	2.31905e-07
3343.26	4.98431e-07
3351.94	2.53751e-07
3360.62	1.96627e-07
3369.29	1.0469e-08
3377.97	-5.85341e-09
3386.65	4.46455e-08
3395.33	-4.33567e-08
3404.01	4.51429e-08
3412.68	1.28473e-08
3421.36	-4.61916e-08
3430.04	-4.07038e-08
3438.72	1.39387e-08
3447.4	8.78194e-08
3456.08	5.59758e-08
3464.75	-6.51151e-08
3473.43	-1.03127e-07
3482.11	-3.34416e-09
3490.79	-7.79333e-09
3499.47	1.81746e-07
3508.14	4.84162e-08
3516.82	2.97045e-07
3525.5	3.38805e-07
3534.18	1.23936e-07
3542.86	1.02106e-07
3551.53	7.10077e-08
3560.21	3.16254e-07
3568.89	2.05364e-07
3577.57	-1.8618e-08
3586.25	1.21766e-07
3594.93	-3.97961e-08
3603.6	2.13946e-08
3612.28	4.66058e-07
3620.96	2.64628e-07
3629.64	4.15713e-06
3638.32	4.04081e-07
3646.99	1.0939e-06
3655.67	8.1497e-07
3664.35	2.93175e-07
3673.03	2.47821e-07
3681.71	1.2817e-07
3690.39	3.11852e-07
3699.06	2.64731e-08
3707.74	2.26433e-08
3716.42	8.10383e-08
3725.1	4.71145e-07
3733.78	1.21355e-07
3742.45	9.35937e-08
3751.13	2.58431e-07
3759.81	1.3494e-06
3768.49	4.12922e-08
3777.17	-6.3961e-08
3785.85	-6.91059e-08
3794.52	-9.73144e-11
3803.2	-4.61079e-08
3811.88	-1.31894e-07
3820.56	1.21713e-06
3829.24	1.42571e-07
3837.91	7.46575e-06
3846.59	3.962e-07
3855.27	1.22461e-07
3863.95	2.58161e-07
3872.63	7.40808e-08
3881.3	2.68107e-07
3889.98	-4.44363e-08
3898.66	2.95299e-07
3907.34	2.07517e-07
3916.02	1.44274e-07
3924.7	2.70089e-07
3933.37	1.40312e-07
3942.05	6.64148e-08
3950.73	1.79422e-08
3959.41	1.63542e-07
3968.09	2.00342e-07
