Infrared Spectrum: Nitrile-Propenoic Acid
Formula: C H2: C H C N
CAS: 107-13-1
State: gas
Melting point: -83.5 C
Boiling point: 77.5 C
Class: IUPAC A
Instrument: IFS66V (Bruker)
Instrument parameters: KBr Beam splitter; MCT Detector; Multipass cell
Sampling: 1 L/min Flow
Resolution: 0.1250
Temperature: 23 C
Pressure: 101.3 kPa
Origin: NIST, Anayltical Chemistry Division, 301-975-3108
cm-1	(micromol/mol)-1m-1 (base 10)
574.988	-4.19417e-07
583.546	7.00028e-07
592.103	3.94494e-07
600.661	4.65875e-07
609.219	1.43299e-07
617.776	1.0368e-06
626.334	1.97976e-06
634.891	5.74771e-06
643.449	9.39475e-06
652.007	1.38748e-05
660.564	3.36398e-05
669.122	2.37292e-05
677.68	2.47785e-05
686.237	1.85526e-05
694.795	1.71936e-05
703.352	1.53e-05
711.91	2.18592e-05
720.468	8.75229e-06
729.025	1.19806e-05
737.583	4.26326e-06
746.141	2.59932e-06
754.698	1.77291e-06
763.256	1.78054e-06
771.813	3.70267e-06
780.371	4.71108e-06
788.929	2.22178e-06
797.486	3.73251e-06
806.044	1.23294e-06
814.602	4.07431e-07
823.159	7.94722e-08
831.717	1.77636e-07
840.274	5.84456e-07
848.832	2.68437e-06
857.39	7.95366e-06
865.947	5.10715e-06
874.505	6.24635e-06
883.063	7.61739e-06
891.62	6.45487e-06
900.178	1.28716e-05
908.735	2.93725e-05
917.293	3.5434e-05
925.851	4.63926e-05
934.408	7.52593e-05
942.966	0.000114911
951.524	0.000116867
960.081	8.75043e-05
968.639	0.000109597
977.196	8.29257e-05
985.754	9.67716e-05
994.312	6.68818e-05
1002.87	5.90903e-05
1011.43	3.61964e-05
1019.98	1.95085e-05
1028.54	9.99692e-06
1037.1	4.07776e-06
1045.66	1.90887e-06
1054.22	1.05789e-06
1062.77	1.40315e-06
1071.33	2.445e-06
1079.89	1.00914e-05
1088.45	1.06616e-05
1097	7.3886e-06
1105.56	7.883e-06
1114.12	2.20993e-06
1122.68	5.8597e-07
1131.23	2.34756e-07
1139.79	1.94719e-07
1148.35	1.17578e-07
1156.91	9.55954e-09
1165.46	7.54195e-08
1174.02	2.04044e-07
1182.58	2.0473e-07
1191.14	3.69338e-07
1199.69	3.02886e-07
1208.25	3.67356e-07
1216.81	2.42964e-07
1225.37	3.5988e-07
1233.93	1.80277e-07
1242.48	2.33387e-07
1251.04	1.1923e-07
1259.6	6.38962e-07
1268.16	2.32652e-06
1276.71	2.32385e-06
1285.27	3.02643e-06
1293.83	3.22881e-06
1302.39	1.55005e-06
1310.94	2.40136e-06
1319.5	2.49494e-06
1328.06	2.21502e-06
1336.62	3.68806e-06
1345.17	2.7936e-06
1353.73	3.43392e-06
1362.29	2.72291e-06
1370.85	4.36861e-06
1379.4	6.1846e-06
1387.96	5.86263e-06
1396.52	1.12575e-05
1405.08	2.41838e-05
1413.64	1.00805e-05
1422.19	2.45882e-05
1430.75	2.1185e-05
1439.31	8.68683e-06
1447.87	6.14494e-06
1456.42	4.55268e-06
1464.98	3.99543e-06
1473.54	5.25136e-06
1482.1	4.03204e-07
1490.65	8.58496e-07
1499.21	3.51044e-07
1507.77	5.68875e-07
1516.33	6.99802e-07
1524.88	5.37938e-07
1533.44	6.08877e-07
1542	3.60873e-06
1550.56	4.42729e-07
1559.11	1.05679e-06
1567.67	8.679e-07
1576.23	9.3867e-06
1584.79	1.76157e-06
1593.35	4.42841e-06
1601.9	1.48511e-05
1610.46	1.05048e-05
1619.02	1.05097e-05
1627.58	1.51345e-05
1636.13	9.02389e-06
1644.69	8.69051e-06
1653.25	1.51399e-05
1661.81	7.67477e-06
1670.36	3.80107e-06
1678.92	3.08264e-06
1687.48	1.31964e-06
1696.04	7.09063e-06
1704.59	1.31243e-06
1713.15	3.63346e-07
1721.71	2.1778e-07
1730.27	4.48945e-07
1738.83	2.79118e-07
1747.38	3.13186e-07
1755.94	1.54458e-07
1764.5	5.8666e-08
1773.06	6.46069e-07
1781.61	4.84653e-08
1790.17	9.63967e-08
1798.73	8.54184e-09
1807.29	2.19521e-08
1815.84	5.78065e-08
1824.4	2.83704e-07
1832.96	7.05766e-07
1841.52	4.39516e-07
1850.07	8.72715e-07
1858.63	7.91556e-07
1867.19	8.42268e-07
1875.75	1.6223e-06
1884.3	5.52162e-06
1892.86	1.19901e-05
1901.42	1.58583e-05
1909.98	1.05496e-05
1918.54	1.96676e-05
1927.09	7.70568e-06
1935.65	3.15175e-06
1944.21	3.60922e-06
1952.77	1.97628e-06
1961.32	1.13614e-06
1969.88	8.01073e-07
1978.44	5.70753e-07
1987	4.55308e-07
1995.55	1.95772e-07
2004.11	1.08234e-07
2012.67	1.62291e-07
2021.23	8.1021e-08
2029.78	1.46153e-08
2038.34	3.00783e-08
2046.9	2.04341e-07
2055.46	1.16623e-07
2064.01	2.4256e-07
2072.57	4.30539e-08
2081.13	2.58374e-08
2089.69	7.7173e-08
2098.25	2.12964e-08
2106.8	3.9014e-08
2115.36	7.24856e-10
2123.92	-6.15409e-08
2132.48	1.055e-08
2141.03	5.39513e-08
2149.59	3.25594e-10
2158.15	9.63721e-08
2166.71	7.80816e-08
2175.26	-4.039e-09
2183.82	1.04964e-07
2192.38	1.35205e-07
2200.94	3.18464e-08
2209.49	3.03453e-07
2218.05	9.66307e-07
2226.61	2.21162e-06
2235.17	1.98117e-06
2243.72	1.99801e-06
2252.28	2.17838e-06
2260.84	6.28113e-07
2269.4	1.08345e-06
2277.96	8.09408e-07
2286.51	1.24025e-06
2295.07	1.2066e-06
2303.63	4.15552e-07
2312.19	4.19913e-07
2320.74	2.07492e-07
2329.3	1.15135e-07
2337.86	2.56698e-07
2346.42	1.28013e-07
2354.97	1.80919e-07
2363.53	3.8879e-07
2372.09	4.41182e-07
2380.65	7.13764e-07
2389.2	5.36589e-07
2397.76	5.34769e-07
2406.32	4.01624e-07
2414.88	2.18217e-07
2423.44	2.31519e-07
2431.99	2.71451e-07
2440.55	2.48142e-07
2449.11	5.05474e-07
2457.67	5.71247e-07
2466.22	4.97619e-07
2474.78	7.97889e-07
2483.34	5.85096e-07
2491.9	5.97059e-07
2500.45	2.89253e-07
2509.01	3.04758e-07
2517.57	1.76906e-07
2526.13	2.11545e-07
2534.68	2.77372e-07
2543.24	2.78446e-07
2551.8	2.61919e-07
2560.36	3.17881e-07
2568.91	9.92127e-07
2577.47	2.46277e-07
2586.03	1.73792e-07
2594.59	1.53328e-07
2603.15	9.61384e-08
2611.7	1.99176e-10
2620.26	-4.86808e-08
2628.82	-2.07134e-08
2637.38	-1.48327e-08
2645.93	2.00886e-08
2654.49	-2.27079e-08
2663.05	1.32138e-08
2671.61	-1.02771e-09
2680.16	2.77587e-07
2688.72	3.99635e-07
2697.28	5.50214e-07
2705.84	5.01209e-07
2714.39	7.43833e-07
2722.95	4.28967e-07
2731.51	1.24606e-07
2740.07	2.96218e-08
2748.62	1.38952e-07
2757.18	1.39169e-08
2765.74	9.13582e-08
2774.3	2.45335e-07
2782.86	9.76991e-08
2791.41	1.58762e-07
2799.97	1.18679e-07
2808.53	8.34839e-08
2817.09	1.00572e-07
2825.64	-2.01814e-09
2834.2	1.14415e-07
2842.76	-8.72491e-08
2851.32	-8.94537e-08
2859.87	-1.19919e-07
2868.43	3.08514e-08
2876.99	2.23978e-07
2885.55	1.53041e-07
2894.1	2.0838e-07
2902.66	1.66672e-07
2911.22	1.49297e-07
2919.78	3.55046e-07
2928.34	9.58883e-08
2936.89	1.60361e-07
2945.45	-1.28461e-07
2954.01	6.70878e-08
2962.57	6.72488e-08
2971.12	7.78479e-08
2979.68	1.70185e-07
2988.24	2.75547e-07
2996.8	3.50987e-07
3005.35	5.48729e-07
3013.91	5.07619e-07
3022.47	2.20095e-06
3031.03	6.22695e-06
3039.58	5.55091e-06
3048.14	6.24263e-06
3056.7	6.83894e-06
3065.26	2.32249e-06
3073.81	1.28057e-06
3082.37	9.30348e-07
3090.93	1.92517e-06
3099.49	2.398e-06
3108.05	6.7795e-06
3116.6	9.89602e-06
3125.16	2.3776e-06
3133.72	1.00916e-05
3142.28	3.80717e-06
3150.83	1.28836e-06
3159.39	1.01621e-06
3167.95	6.7246e-07
3176.51	4.81234e-07
3185.06	1.45503e-07
3193.62	-1.80041e-08
3202.18	-3.59836e-08
3210.74	-2.25378e-07
3219.29	-3.26531e-08
3227.85	-1.17076e-07
3236.41	-7.03847e-08
3244.97	-6.32198e-08
3253.52	-9.99318e-08
3262.08	-7.49266e-08
3270.64	1.89854e-08
3279.2	1.18035e-07
3287.76	-5.24024e-08
3296.31	8.31883e-08
3304.87	-9.02604e-08
3313.43	1.50532e-07
3321.99	3.11823e-07
3330.54	7.5887e-09
3339.1	5.53853e-07
3347.66	4.27032e-07
3356.22	6.0816e-08
3364.77	8.83905e-08
3373.33	8.10219e-08
3381.89	-3.92841e-08
3390.45	-4.98668e-08
3399	-1.47397e-07
3407.56	-3.1058e-07
3416.12	-5.37594e-08
3424.68	1.9538e-07
3433.23	-1.29121e-07
3441.79	-8.34894e-08
3450.35	2.63435e-07
3458.91	1.05432e-07
3467.47	-4.69874e-08
3476.02	1.6623e-07
3484.58	-1.38047e-07
3493.14	-3.27349e-08
3501.7	8.82659e-08
3510.25	-9.84267e-08
3518.81	1.98826e-07
3527.37	1.94826e-07
3535.93	3.70695e-08
3544.48	1.70506e-07
3553.04	9.89542e-08
3561.6	4.84835e-08
3570.16	1.44767e-07
3578.71	-5.55238e-08
3587.27	1.91014e-07
3595.83	1.22075e-07
3604.39	1.63324e-08
3612.95	5.48644e-07
3621.5	2.31787e-07
3630.06	5.27325e-07
3638.62	1.46813e-07
3647.18	1.58003e-06
3655.73	6.4196e-07
3664.29	1.82056e-07
3672.85	3.18641e-07
3681.41	-1.97284e-08
3689.96	1.15987e-07
3698.52	3.10406e-08
3707.08	9.54936e-08
3715.64	-1.18586e-07
3724.19	5.314e-08
3732.75	2.27295e-07
3741.31	7.13847e-07
3749.87	8.32733e-07
3758.42	-1.59471e-07
3766.98	1.15477e-08
3775.54	-3.51359e-08
3784.1	-6.74452e-08
3792.66	-9.03396e-08
3801.21	1.90998e-06
3809.77	-3.80117e-08
3818.33	5.42814e-08
3826.89	8.64563e-07
3835.44	4.26119e-07
3844	7.06846e-07
3852.56	7.66948e-07
3861.12	3.87958e-07
3869.67	3.67615e-07
3878.23	3.3678e-09
3886.79	2.0413e-07
3895.35	8.79031e-08
3903.9	6.3796e-07
3912.46	1.34891e-07
3921.02	1.67501e-07
3929.58	3.84507e-07
3938.13	3.72055e-07
3946.69	1.85733e-07
3955.25	3.60354e-08
3963.81	7.0934e-08
3972.37	9.48451e-08
