Infrared Spectrum: Nitrile-Propenoic Acid
Formula: C H2: C H C N
CAS: 107-13-1
State: gas
Melting point: -83.5 C
Boiling point: 77.5 C
Class: IUPAC A
Instrument: IFS66V (Bruker)
Instrument parameters: KBr Beam splitter; MCT Detector; Multipass cell
Sampling: 1 L/min Flow
Resolution: 0.9640
Temperature: 23 C
Pressure: 101.3 kPa
Origin: NIST, Anayltical Chemistry Division, 301-975-3108
cm-1	(micromol/mol)-1m-1 (base 10)
575.169	3.99297e-07
583.847	2.36609e-07
592.525	5.91408e-07
601.203	4.58759e-07
609.882	5.70128e-07
618.56	1.24519e-06
627.238	2.72128e-06
635.916	5.203e-06
644.594	8.33462e-06
653.272	1.74029e-05
661.951	1.75065e-05
670.629	1.56371e-05
679.307	3.51912e-05
687.985	1.74985e-05
696.663	1.42483e-05
705.341	2.8499e-05
714.019	1.13309e-05
722.698	1.01836e-05
731.376	5.98515e-06
740.054	4.49543e-06
748.732	2.23356e-06
757.41	1.59203e-06
766.088	2.05207e-06
774.767	4.68028e-06
783.445	3.87483e-06
792.123	3.97972e-06
800.801	3.02194e-06
809.479	6.72515e-07
818.157	2.0743e-07
826.835	2.99563e-07
835.514	2.05579e-07
844.192	1.16338e-06
852.87	5.01346e-06
861.548	8.53806e-06
870.226	4.71389e-06
878.904	8.98872e-06
887.583	6.6556e-06
896.261	1.19166e-05
904.939	1.74381e-05
913.617	2.65489e-05
922.295	4.383e-05
930.973	8.00179e-05
939.651	8.97896e-05
948.33	0.000147975
957.008	0.000105186
965.686	8.06921e-05
974.364	8.91535e-05
983.042	0.000108662
991.72	6.9014e-05
1000.4	6.36234e-05
1009.08	3.93887e-05
1017.75	2.28853e-05
1026.43	1.16216e-05
1035.11	4.89924e-06
1043.79	1.88601e-06
1052.47	1.18867e-06
1061.15	1.01627e-06
1069.82	1.74487e-06
1078.5	8.09349e-06
1087.18	1.23444e-05
1095.86	9.22015e-06
1104.54	8.11492e-06
1113.21	2.87311e-06
1121.89	4.20825e-07
1130.57	1.76852e-07
1139.25	1.18444e-07
1147.93	4.39652e-08
1156.61	5.04607e-08
1165.28	9.90233e-08
1173.96	1.46079e-07
1182.64	1.61758e-07
1191.32	2.55816e-07
1200	2.04648e-07
1208.67	4.78292e-07
1217.35	1.99825e-07
1226.03	1.59528e-07
1234.71	1.88923e-07
1243.39	1.05241e-07
1252.07	2.07717e-07
1260.74	6.7586e-07
1269.42	2.45816e-06
1278.1	2.06032e-06
1286.78	3.17204e-06
1295.46	3.23173e-06
1304.13	1.72494e-06
1312.81	2.57958e-06
1321.49	2.25828e-06
1330.17	2.65659e-06
1338.85	3.56626e-06
1347.52	2.91231e-06
1356.2	3.2578e-06
1364.88	3.19196e-06
1373.56	5.05492e-06
1382.24	5.00034e-06
1390.92	7.03806e-06
1399.59	1.6477e-05
1408.27	2.26116e-05
1416.95	1.18754e-05
1425.63	2.15276e-05
1434.31	8.00845e-06
1442.98	8.50257e-06
1451.66	4.55018e-06
1460.34	2.20443e-06
1469.02	1.4491e-06
1477.7	5.83573e-07
1486.38	3.21247e-07
1495.05	5.11472e-07
1503.73	2.83894e-08
1512.41	1.04812e-06
1521.09	3.18812e-06
1529.77	3.93678e-08
1538.44	-3.74296e-08
1547.12	3.1176e-07
1555.8	1.70578e-07
1564.48	1.06475e-06
1573.16	1.25784e-06
1581.83	1.53354e-06
1590.51	2.95497e-06
1599.19	1.01436e-05
1607.87	1.34786e-05
1616.55	1.00045e-05
1625.23	1.65182e-05
1633.9	8.46255e-06
1642.58	9.45431e-06
1651.26	5.71045e-06
1659.94	7.46192e-06
1668.62	5.04264e-06
1677.29	1.90856e-06
1685.97	1.86177e-06
1694.65	1.38544e-06
1703.33	5.94856e-07
1712.01	2.27642e-07
1720.69	2.58893e-07
1729.36	2.74969e-07
1738.04	2.84049e-08
1746.72	3.19283e-07
1755.4	1.71784e-07
1764.08	1.11887e-07
1772.75	3.15774e-06
1781.43	-1.11857e-07
1790.11	-2.99046e-08
1798.79	-3.63164e-08
1807.47	1.25542e-07
1816.15	9.39938e-08
1824.82	6.28387e-07
1833.5	7.18089e-07
1842.18	7.5185e-07
1850.86	9.36504e-07
1859.54	6.9796e-07
1868.21	1.28465e-06
1876.89	1.94347e-06
1885.57	5.57899e-06
1894.25	1.47712e-05
1902.93	1.50869e-05
1911.6	1.5125e-05
1920.28	1.62982e-05
1928.96	7.22791e-06
1937.64	3.0173e-06
1946.32	3.35379e-06
1955	1.60678e-06
1963.67	1.09051e-06
1972.35	7.0488e-07
1981.03	4.52621e-07
1989.71	2.62471e-07
1998.39	1.76907e-07
2007.06	7.31322e-08
2015.74	5.14902e-08
2024.42	4.54858e-08
2033.1	1.01409e-07
2041.78	6.49296e-08
2050.46	6.46058e-08
2059.13	5.5411e-08
2067.81	6.11653e-08
2076.49	6.02494e-08
2085.17	1.9823e-08
2093.85	6.1871e-08
2102.52	4.65508e-08
2111.2	4.08557e-08
2119.88	8.98202e-09
2128.56	6.20174e-09
2137.24	9.15119e-09
2145.91	1.22489e-08
2154.59	6.87239e-08
2163.27	7.88319e-08
2171.95	8.78958e-08
2180.63	9.20457e-08
2189.31	8.08928e-08
2197.98	5.74682e-08
2206.66	1.60968e-07
2215.34	6.41144e-07
2224.02	1.87483e-06
2232.7	2.37086e-06
2241.37	1.5354e-06
2250.05	2.67076e-06
2258.73	7.80265e-07
2267.41	9.73913e-07
2276.09	1.07485e-06
2284.77	9.68897e-07
2293.44	1.42939e-06
2302.12	4.24715e-07
2310.8	4.70706e-07
2319.48	2.26731e-07
2328.16	1.66388e-07
2336.83	3.54752e-08
2345.51	1.76158e-07
2354.19	3.12966e-07
2362.87	6.73965e-07
2371.55	5.07733e-07
2380.23	6.8612e-07
2388.9	5.9464e-07
2397.58	5.38136e-07
2406.26	3.78605e-07
2414.94	2.05396e-07
2423.62	2.02591e-07
2432.29	2.52424e-07
2440.97	3.14693e-07
2449.65	5.32722e-07
2458.33	5.3551e-07
2467.01	5.28914e-07
2475.68	7.64371e-07
2484.36	7.03516e-07
2493.04	4.43099e-07
2501.72	2.62186e-07
2510.4	2.07375e-07
2519.08	2.35129e-07
2527.75	1.87738e-07
2536.43	2.63674e-07
2545.11	2.81982e-07
2553.79	4.3063e-07
2562.47	4.26e-07
2571.14	3.30018e-07
2579.82	2.6666e-07
2588.5	1.90413e-07
2597.18	1.46534e-07
2605.86	9.93007e-08
2614.54	7.22409e-08
2623.21	-1.57595e-08
2631.89	-9.84967e-10
2640.57	2.76882e-08
2649.25	-6.57963e-08
2657.93	-7.65418e-09
2666.6	5.14402e-09
2675.28	1.30937e-07
2683.96	2.43119e-07
2692.64	4.73614e-07
2701.32	6.25829e-07
2709.99	5.45587e-07
2718.67	5.1119e-07
2727.35	2.28883e-07
2736.03	1.37386e-07
2744.71	1.33851e-07
2753.39	4.44254e-08
2762.06	4.57932e-08
2770.74	1.02851e-07
2779.42	1.98571e-07
2788.1	1.58813e-07
2796.78	1.54343e-07
2805.45	2.44184e-07
2814.13	-1.54521e-08
2822.81	3.47567e-08
2831.49	-4.99013e-08
2840.17	-1.06339e-07
2848.85	-1.50752e-07
2857.52	-1.05979e-07
2866.2	-7.40317e-08
2874.88	1.13151e-07
2883.56	1.3152e-07
2892.24	3.39124e-07
2900.91	2.46111e-07
2909.59	3.06756e-07
2918.27	2.31501e-07
2926.95	3.52205e-08
2935.63	5.83159e-08
2944.31	7.62235e-08
2952.98	4.21417e-08
2961.66	3.9988e-08
2970.34	1.31365e-07
2979.02	1.58511e-07
2987.7	4.19857e-07
2996.37	2.2384e-07
3005.05	5.14207e-07
3013.73	5.44427e-07
3022.41	2.17171e-06
3031.09	6.13628e-06
3039.76	5.38986e-06
3048.44	6.27575e-06
3057.12	6.49995e-06
3065.8	2.08299e-06
3074.48	1.03414e-06
3083.16	1.02313e-06
3091.83	1.96754e-06
3100.51	2.60799e-06
3109.19	6.3986e-06
3117.87	8.81579e-06
3126.55	3.78984e-06
3135.22	9.64149e-06
3143.9	3.91086e-06
3152.58	2.0034e-06
3161.26	1.00976e-06
3169.94	5.07684e-07
3178.62	4.03915e-07
3187.29	1.10605e-07
3195.97	-1.58159e-09
3204.65	-9.15282e-08
3213.33	-8.80586e-08
3222.01	-5.05389e-08
3230.68	5.04852e-08
3239.36	-1.15087e-07
3248.04	-2.1572e-07
3256.72	-9.92415e-08
3265.4	-1.07581e-07
3274.07	-6.6845e-08
3282.75	-1.2241e-07
3291.43	-1.12061e-07
3300.11	5.48953e-08
3308.79	4.48183e-08
3317.47	2.18101e-07
3326.14	1.99439e-07
3334.82	2.3899e-07
3343.5	5.02364e-07
3352.18	1.21236e-07
3360.86	1.53939e-07
3369.53	-6.11334e-08
3378.21	3.52078e-08
3386.89	-6.67122e-08
3395.57	4.94875e-08
3404.25	-8.33675e-08
3412.93	-2.63485e-08
3421.6	5.89107e-08
3430.28	-5.83004e-08
3438.96	8.84142e-08
3447.64	-3.87975e-08
3456.32	4.34804e-08
3464.99	-3.82591e-08
3473.67	-4.5785e-08
3482.35	8.19996e-08
3491.03	-8.10347e-09
3499.71	8.44561e-08
3508.39	1.2987e-07
3517.06	1.90942e-07
3525.74	3.00547e-07
3534.42	8.18386e-08
3543.1	2.15316e-07
3551.78	1.53433e-07
3560.45	1.64113e-07
3569.13	1.20734e-07
3577.81	2.09926e-08
3586.49	1.03636e-06
3595.17	4.46305e-07
3603.84	5.11646e-08
3612.52	1.35512e-06
3621.2	2.97018e-07
3629.88	1.93076e-06
3638.56	3.27779e-07
3647.24	1.55377e-06
3655.91	1.07553e-06
3664.59	3.0908e-07
3673.27	-7.67456e-08
3681.95	4.97977e-08
3690.63	3.59463e-07
3699.3	9.98527e-08
3707.98	1.15143e-07
3716.66	-6.13635e-08
3725.34	2.29137e-07
3734.02	-1.02289e-08
3742.7	1.88987e-07
3751.37	-5.00723e-08
3760.05	8.93982e-07
3768.73	2.10717e-07
3777.41	3.70922e-08
3786.09	-2.73717e-08
3794.76	-2.14866e-07
3803.44	3.02275e-08
3812.12	1.95811e-07
3820.8	1.83168e-06
3829.48	1.27645e-07
3838.16	3.54414e-06
3846.83	4.65854e-07
3855.51	6.24665e-07
3864.19	4.99102e-07
3872.87	-1.21796e-07
3881.55	2.63289e-07
3890.22	1.7016e-07
3898.9	4.41548e-07
3907.58	2.44088e-07
3916.26	4.84245e-07
3924.94	4.93854e-07
3933.61	2.00894e-07
3942.29	1.35993e-07
3950.97	3.94778e-08
3959.65	1.34424e-07
3968.33	2.10822e-07
