Infrared Spectrum: Nitrile-Propenoic Acid
Formula: C H2: C H C N
CAS: 107-13-1
State: gas
Melting point: -83.5 C
Boiling point: 77.5 C
Class: IUPAC A
Instrument: IFS66V (Bruker)
Instrument parameters: KBr Beam splitter; MCT Detector; Multipass cell
Sampling: 1 L/min Flow
Resolution: 0.4820
Temperature: 23 C
Pressure: 101.3 kPa
Origin: NIST, Anayltical Chemistry Division, 301-975-3108
cm-1	(micromol/mol)-1m-1 (base 10)
574.928	5.31382e-08
583.606	4.24705e-07
592.284	5.39534e-07
600.962	4.14506e-07
609.641	6.45407e-07
618.319	1.18271e-06
626.997	2.47817e-06
635.675	4.78923e-06
644.353	9.16197e-06
653.031	1.99493e-05
661.71	1.69233e-05
670.388	1.69981e-05
679.066	3.32325e-05
687.744	1.83954e-05
696.422	1.57357e-05
705.1	2.14201e-05
713.778	1.11781e-05
722.457	1.33624e-05
731.135	5.71218e-06
739.813	4.80951e-06
748.491	2.20107e-06
757.169	1.45707e-06
765.847	1.8376e-06
774.526	4.54536e-06
783.204	3.81323e-06
791.882	3.81486e-06
800.56	2.92935e-06
809.238	5.56492e-07
817.916	1.98342e-07
826.594	1.17123e-07
835.273	1.33506e-07
843.951	9.30098e-07
852.629	4.71645e-06
861.307	8.48059e-06
869.985	4.01147e-06
878.663	8.75598e-06
887.342	6.79518e-06
896.02	1.04758e-05
904.698	1.62479e-05
913.376	2.59543e-05
922.054	4.56518e-05
930.732	9.28474e-05
939.41	6.78994e-05
948.089	0.000146123
956.767	9.80103e-05
965.445	8.53385e-05
974.123	8.99598e-05
982.801	8.66989e-05
991.479	7.64926e-05
1000.16	6.07896e-05
1008.84	4.46114e-05
1017.51	2.30752e-05
1026.19	1.2484e-05
1034.87	5.37681e-06
1043.55	2.11148e-06
1052.23	1.38611e-06
1060.9	1.20386e-06
1069.58	1.8044e-06
1078.26	7.91553e-06
1086.94	1.25919e-05
1095.62	9.16551e-06
1104.3	8.31032e-06
1112.97	3.30112e-06
1121.65	4.98606e-07
1130.33	3.35537e-07
1139.01	1.69347e-07
1147.69	1.35184e-07
1156.36	1.47741e-07
1165.04	2.16353e-07
1173.72	1.99474e-07
1182.4	1.99236e-07
1191.08	3.59238e-07
1199.76	2.7612e-07
1208.43	5.26015e-07
1217.11	2.23768e-07
1225.79	2.5945e-07
1234.47	2.02504e-07
1243.15	1.28587e-07
1251.82	2.17706e-07
1260.5	7.11806e-07
1269.18	2.40709e-06
1277.86	2.09875e-06
1286.54	3.15399e-06
1295.21	3.18929e-06
1303.89	1.70518e-06
1312.57	2.62973e-06
1321.25	2.26745e-06
1329.93	2.52006e-06
1338.61	3.47251e-06
1347.28	2.92612e-06
1355.96	3.30948e-06
1364.64	3.28131e-06
1373.32	4.64301e-06
1382	4.93099e-06
1390.67	6.56293e-06
1399.35	1.64939e-05
1408.03	2.22539e-05
1416.71	1.20775e-05
1425.39	2.2678e-05
1434.07	1.12985e-05
1442.74	9.74618e-06
1451.42	4.6299e-06
1460.1	2.56753e-06
1468.78	1.55658e-06
1477.46	6.28729e-07
1486.13	4.17794e-07
1494.81	2.26276e-07
1503.49	1.44631e-07
1512.17	1.05486e-06
1520.85	1.00885e-06
1529.52	1.62281e-07
1538.2	6.71679e-07
1546.88	2.99531e-07
1555.56	4.94372e-07
1564.24	7.32552e-07
1572.92	1.08724e-06
1581.59	1.6108e-06
1590.27	3.05399e-06
1598.95	1.09607e-05
1607.63	1.36091e-05
1616.31	6.41128e-06
1624.98	1.68378e-05
1633.66	9.35398e-06
1642.34	9.5725e-06
1651.02	5.07861e-06
1659.7	7.71286e-06
1668.38	5.42132e-06
1677.05	1.98272e-06
1685.73	1.38807e-06
1694.41	1.121e-06
1703.09	4.9301e-07
1711.77	2.58002e-07
1720.44	2.04208e-07
1729.12	1.77534e-07
1737.8	2.56446e-07
1746.48	3.03272e-07
1755.16	1.69173e-07
1763.84	5.62568e-08
1772.51	2.13697e-06
1781.19	6.19429e-08
1789.87	9.8232e-08
1798.55	1.84843e-08
1807.23	1.69309e-08
1815.9	5.0498e-08
1824.58	3.84522e-07
1833.26	7.38965e-07
1841.94	5.92217e-07
1850.62	9.48346e-07
1859.29	6.98005e-07
1867.97	1.39637e-06
1876.65	1.81675e-06
1885.33	5.49405e-06
1894.01	1.44383e-05
1902.69	1.51791e-05
1911.36	1.40363e-05
1920.04	1.63415e-05
1928.72	7.55929e-06
1937.4	2.90219e-06
1946.08	3.59479e-06
1954.75	1.60082e-06
1963.43	1.14682e-06
1972.11	6.41502e-07
1980.79	4.66494e-07
1989.47	2.78004e-07
1998.15	2.08024e-07
2006.82	9.60702e-08
2015.5	3.13671e-08
2024.18	8.8929e-08
2032.86	7.35478e-08
2041.54	7.33896e-08
2050.21	1.1517e-07
2058.89	7.73076e-08
2067.57	1.10778e-07
2076.25	8.59304e-08
2084.93	5.29654e-08
2093.6	9.02522e-08
2102.28	5.28044e-08
2110.96	4.53567e-08
2119.64	2.22804e-08
2128.32	9.34945e-10
2137	8.95656e-09
2145.67	2.7057e-08
2154.35	5.54183e-08
2163.03	7.43036e-08
2171.71	5.75428e-08
2180.39	7.50603e-08
2189.06	9.78791e-08
2197.74	7.16597e-08
2206.42	1.9071e-07
2215.1	6.09245e-07
2223.78	1.82675e-06
2232.46	2.31212e-06
2241.13	2.62056e-06
2249.81	2.73576e-06
2258.49	8.1736e-07
2267.17	9.45361e-07
2275.85	1.11076e-06
2284.52	9.60963e-07
2293.2	1.45859e-06
2301.88	4.70166e-07
2310.56	4.86189e-07
2319.24	2.76625e-07
2327.92	1.48067e-07
2336.59	1.34279e-07
2345.27	1.60302e-07
2353.95	2.64645e-07
2362.63	5.712e-07
2371.31	5.19643e-07
2379.98	7.09449e-07
2388.66	6.25052e-07
2397.34	5.55888e-07
2406.02	3.61091e-07
2414.7	2.26083e-07
2423.37	2.217e-07
2432.05	2.3953e-07
2440.73	3.04707e-07
2449.41	6.19925e-07
2458.09	5.8377e-07
2466.77	5.21756e-07
2475.44	7.93796e-07
2484.12	6.40084e-07
2492.8	4.43713e-07
2501.48	2.78668e-07
2510.16	2.17706e-07
2518.83	2.13038e-07
2527.51	2.11631e-07
2536.19	2.38333e-07
2544.87	3.2506e-07
2553.55	4.59393e-07
2562.23	4.6254e-07
2570.9	3.36307e-07
2579.58	2.25568e-07
2588.26	1.63799e-07
2596.94	1.5306e-07
2605.62	7.64536e-08
2614.29	7.61535e-08
2622.97	1.54703e-09
2631.65	1.28064e-08
2640.33	-1.42124e-08
2649.01	-3.00683e-08
2657.68	2.74636e-08
2666.36	-1.49564e-08
2675.04	1.18664e-07
2683.72	2.11595e-07
2692.4	4.78611e-07
2701.08	7.25859e-07
2709.75	5.44121e-07
2718.43	5.97083e-07
2727.11	2.38085e-07
2735.79	1.66153e-07
2744.47	1.14663e-07
2753.14	1.95311e-08
2761.82	5.13383e-08
2770.5	1.45863e-07
2779.18	1.91421e-07
2787.86	1.26209e-07
2796.54	1.25757e-07
2805.21	2.65857e-07
2813.89	1.79377e-08
2822.57	6.92705e-08
2831.25	1.30783e-09
2839.93	-1.1053e-07
2848.6	-1.74872e-07
2857.28	-9.07752e-08
2865.96	-1.70264e-08
2874.64	7.05784e-08
2883.32	1.14566e-07
2892	3.27328e-07
2900.67	3.42271e-07
2909.35	2.6678e-07
2918.03	2.01426e-07
2926.71	-2.04178e-09
2935.39	9.01568e-08
2944.06	1.98439e-08
2952.74	5.38885e-08
2961.42	1.34021e-08
2970.1	1.12793e-07
2978.78	1.13234e-07
2987.45	4.17276e-07
2996.13	2.19268e-07
3004.81	5.08975e-07
3013.49	5.5229e-07
3022.17	2.11152e-06
3030.85	6.07233e-06
3039.52	5.55352e-06
3048.2	6.25795e-06
3056.88	6.67407e-06
3065.56	2.1257e-06
3074.24	1.12262e-06
3082.91	1.06431e-06
3091.59	1.94855e-06
3100.27	2.54874e-06
3108.95	6.28397e-06
3117.63	9.01078e-06
3126.31	3.50221e-06
3134.98	1.04451e-05
3143.66	4.54073e-06
3152.34	2.34361e-06
3161.02	1.18843e-06
3169.7	5.18716e-07
3178.37	3.75307e-07
3187.05	1.01586e-07
3195.73	-2.14455e-09
3204.41	-1.15378e-07
3213.09	-1.55035e-07
3221.77	-7.49148e-08
3230.44	-6.0686e-08
3239.12	-1.31e-07
3247.8	-1.90606e-07
3256.48	-9.71088e-08
3265.16	-8.8275e-08
3273.83	-1.02591e-07
3282.51	-1.56795e-07
3291.19	-1.17623e-07
3299.87	-9.78691e-09
3308.55	9.64776e-08
3317.22	1.97967e-07
3325.9	2.24773e-07
3334.58	2.66424e-07
3343.26	4.94628e-07
3351.94	1.88899e-07
3360.62	1.52344e-07
3369.29	-3.56471e-08
3377.97	1.13894e-08
3386.65	-3.36853e-08
3395.33	-3.92441e-09
3404.01	-3.69886e-08
3412.68	-3.98343e-08
3421.36	-1.68463e-08
3430.04	-3.52833e-08
3438.72	5.55156e-08
3447.4	3.77689e-08
3456.08	5.59776e-08
3464.75	-5.67479e-08
3473.43	-3.83855e-08
3482.11	3.25594e-08
3490.79	1.67135e-08
3499.47	1.28735e-07
3508.14	8.61323e-08
3516.82	2.39645e-07
3525.5	2.44872e-07
3534.18	1.5687e-07
3542.86	1.43967e-07
3551.53	7.71612e-08
3560.21	2.25522e-07
3568.89	1.15086e-07
3577.57	1.05454e-08
3586.25	4.10796e-07
3594.93	1.33882e-07
3603.6	5.26598e-08
3612.28	7.13718e-07
3620.96	3.0287e-07
3629.64	2.98843e-06
3638.32	3.98658e-07
3646.99	9.77748e-07
3655.67	6.38692e-07
3664.35	2.98142e-07
3673.03	3.05082e-07
3681.71	1.26054e-07
3690.39	3.17337e-07
3699.06	6.57172e-08
3707.74	-8.18441e-09
3716.42	1.6538e-08
3725.1	3.53792e-07
3733.78	5.14229e-08
3742.45	4.18806e-08
3751.13	2.28027e-07
3759.81	9.84705e-07
3768.49	4.48983e-08
3777.17	-5.03424e-08
3785.85	-2.09262e-08
3794.52	-4.88845e-08
3803.2	2.14708e-07
3811.88	-3.29987e-08
3820.56	1.27751e-06
3829.24	1.44547e-07
3837.91	5.14886e-06
3846.59	3.5511e-07
3855.27	4.54218e-07
3863.95	3.53024e-07
3872.63	5.7521e-08
3881.3	3.32028e-07
3889.98	4.68028e-08
3898.66	2.78646e-07
3907.34	2.33202e-07
3916.02	2.93312e-07
3924.7	3.04607e-07
3933.37	1.56518e-07
3942.05	4.80651e-08
3950.73	7.55059e-08
3959.41	1.36774e-07
3968.09	2.3025e-07
