Infrared Spectrum: Nitrile-Propenoic Acid
Formula: C H2: C H C N
CAS: 107-13-1
State: gas
Melting point: -83.5 C
Boiling point: 77.5 C
Class: IUPAC A
Instrument: IFS66V (Bruker)
Instrument parameters: KBr Beam splitter; MCT Detector; Multipass cell
Sampling: 1 L/min Flow
Resolution: 0.2410
Temperature: 23 C
Pressure: 101.3 kPa
Origin: NIST, Anayltical Chemistry Division, 301-975-3108
cm-1	(micromol/mol)-1m-1 (base 10)
575.048	-4.72694e-07
583.606	4.07349e-07
592.163	5.15302e-07
600.721	3.52357e-07
609.279	7.90811e-08
617.836	1.23646e-06
626.394	2.30468e-06
634.951	5.48083e-06
643.509	9.45977e-06
652.067	1.35423e-05
660.624	3.23965e-05
669.182	2.34532e-05
677.74	2.51848e-05
686.297	1.8449e-05
694.855	1.72734e-05
703.412	1.48496e-05
711.97	2.43585e-05
720.528	8.65759e-06
729.085	1.17429e-05
737.643	4.34506e-06
746.201	2.61743e-06
754.758	1.45756e-06
763.316	1.71988e-06
771.873	3.77168e-06
780.431	4.55909e-06
788.989	2.17993e-06
797.546	3.82722e-06
806.104	1.14755e-06
814.662	1.7948e-07
823.219	4.79823e-08
831.777	9.47614e-08
840.334	6.51486e-07
848.892	2.78022e-06
857.45	7.75102e-06
866.007	5.017e-06
874.565	6.19649e-06
883.123	7.81202e-06
891.68	6.51626e-06
900.238	1.25672e-05
908.795	2.74687e-05
917.353	3.55042e-05
925.911	4.60951e-05
934.468	7.55489e-05
943.026	0.000124829
951.584	0.000116093
960.141	9.02605e-05
968.699	0.00011355
977.256	8.65317e-05
985.814	9.91032e-05
994.372	6.73979e-05
1002.93	5.7931e-05
1011.49	3.27283e-05
1020.04	1.99199e-05
1028.6	9.72459e-06
1037.16	4.10063e-06
1045.72	1.935e-06
1054.28	1.09931e-06
1062.83	1.3129e-06
1071.39	2.57792e-06
1079.95	9.99533e-06
1088.51	1.07237e-05
1097.06	7.97737e-06
1105.62	7.82557e-06
1114.18	2.20083e-06
1122.74	4.78856e-07
1131.29	2.65781e-07
1139.85	1.30781e-07
1148.41	1.5213e-07
1156.97	2.5108e-08
1165.52	1.16927e-07
1174.08	2.32946e-07
1182.64	1.58945e-07
1191.2	4.91732e-07
1199.75	2.29013e-07
1208.31	5.19364e-07
1216.87	2.26433e-07
1225.43	2.95443e-07
1233.99	1.47969e-07
1242.54	1.26528e-07
1251.1	1.65908e-07
1259.66	6.43235e-07
1268.22	2.28917e-06
1276.77	2.24288e-06
1285.33	3.03006e-06
1293.89	3.26245e-06
1302.45	1.59086e-06
1311	2.34117e-06
1319.56	2.61963e-06
1328.12	2.23297e-06
1336.68	3.8203e-06
1345.23	2.7849e-06
1353.79	3.37092e-06
1362.35	2.82797e-06
1370.91	4.30224e-06
1379.46	6.36007e-06
1388.02	5.8649e-06
1396.58	1.13469e-05
1405.14	2.37766e-05
1413.7	1.00562e-05
1422.25	2.45447e-05
1430.81	2.19628e-05
1439.37	8.81472e-06
1447.93	6.87248e-06
1456.48	5.93288e-06
1465.04	2.98468e-06
1473.6	4.05398e-06
1482.16	4.14584e-07
1490.71	1.37739e-06
1499.27	2.86618e-07
1507.83	6.7271e-07
1516.39	6.23891e-07
1524.94	4.93175e-07
1533.5	4.98096e-07
1542.06	4.1477e-06
1550.62	3.41926e-07
1559.18	9.88108e-07
1567.73	8.09895e-07
1576.29	7.05804e-06
1584.85	1.81227e-06
1593.41	4.46514e-06
1601.96	1.50595e-05
1610.52	1.02913e-05
1619.08	1.06353e-05
1627.64	1.51245e-05
1636.19	9.15693e-06
1644.75	8.71257e-06
1653.31	1.60207e-05
1661.87	7.65764e-06
1670.42	3.77065e-06
1678.98	2.78762e-06
1687.54	1.42953e-06
1696.1	3.6104e-06
1704.65	7.50993e-07
1713.21	3.31975e-07
1721.77	1.93403e-07
1730.33	4.17316e-07
1738.89	2.73324e-07
1747.44	3.15784e-07
1756	8.60686e-08
1764.56	5.7079e-09
1773.12	3.67829e-07
1781.67	7.96723e-08
1790.23	8.5492e-08
1798.79	1.3775e-08
1807.35	1.55021e-08
1815.9	1.00586e-07
1824.46	3.42754e-07
1833.02	7.49171e-07
1841.58	4.44041e-07
1850.13	8.63274e-07
1858.69	7.44448e-07
1867.25	8.25959e-07
1875.81	1.64134e-06
1884.36	5.5391e-06
1892.92	1.20016e-05
1901.48	1.57926e-05
1910.04	1.06821e-05
1918.6	1.96549e-05
1927.15	7.74156e-06
1935.71	3.13821e-06
1944.27	3.56743e-06
1952.83	2.001e-06
1961.38	1.16817e-06
1969.94	7.62739e-07
1978.5	5.52597e-07
1987.06	4.02903e-07
1995.61	1.54484e-07
2004.17	9.54054e-08
2012.73	1.56549e-07
2021.29	8.85452e-08
2029.84	2.60202e-08
2038.4	7.09194e-08
2046.96	2.52689e-07
2055.52	1.12547e-07
2064.08	3.0247e-07
2072.63	2.11018e-08
2081.19	6.64439e-08
2089.75	7.81816e-08
2098.31	2.53827e-08
2106.86	1.85479e-08
2115.42	8.00888e-09
2123.98	-9.66286e-08
2132.54	-5.13829e-08
2141.09	9.23095e-08
2149.65	1.03017e-08
2158.21	1.3774e-07
2166.77	7.52476e-08
2175.32	5.28135e-08
2183.88	1.32485e-07
2192.44	1.61102e-07
2201	1.1173e-08
2209.55	2.79548e-07
2218.11	9.1675e-07
2226.67	2.17678e-06
2235.23	1.94061e-06
2243.79	1.99124e-06
2252.34	2.18337e-06
2260.9	6.48446e-07
2269.46	1.11819e-06
2278.02	7.73503e-07
2286.57	1.19587e-06
2295.13	1.13816e-06
2303.69	4.38143e-07
2312.25	4.44935e-07
2320.8	2.32366e-07
2329.36	1.25486e-07
2337.92	2.43471e-07
2346.48	9.91961e-08
2355.03	1.64095e-07
2363.59	3.95179e-07
2372.15	3.95641e-07
2380.71	7.50205e-07
2389.26	5.08131e-07
2397.82	5.60302e-07
2406.38	4.31217e-07
2414.94	2.80696e-07
2423.5	2.40877e-07
2432.05	2.71183e-07
2440.61	2.94029e-07
2449.17	4.96552e-07
2457.73	5.97172e-07
2466.28	5.18594e-07
2474.84	8.1677e-07
2483.4	4.68388e-07
2491.96	6.41048e-07
2500.51	2.75886e-07
2509.07	3.37101e-07
2517.63	1.60148e-07
2526.19	2.26531e-07
2534.74	1.64613e-07
2543.3	2.58024e-07
2551.86	2.26041e-07
2560.42	2.5392e-07
2568.98	9.45741e-07
2577.53	2.07082e-07
2586.09	1.47634e-07
2594.65	1.62783e-07
2603.21	1.40709e-07
2611.76	-1.17023e-08
2620.32	-9.28561e-08
2628.88	1.39278e-08
2637.44	-8.47535e-08
2645.99	1.12745e-07
2654.55	-1.53743e-07
2663.11	7.56342e-08
2671.67	-4.10694e-08
2680.22	2.82997e-07
2688.78	4.59315e-07
2697.34	5.24095e-07
2705.9	5.08526e-07
2714.45	6.6907e-07
2723.01	3.66595e-07
2731.57	1.07393e-07
2740.13	7.00081e-08
2748.69	7.20044e-08
2757.24	-3.84437e-09
2765.8	1.08233e-07
2774.36	1.87955e-07
2782.92	6.51815e-08
2791.47	1.44515e-07
2800.03	6.39346e-08
2808.59	7.65682e-08
2817.15	-2.38002e-08
2825.7	8.78139e-08
2834.26	7.38425e-08
2842.82	-1.75489e-07
2851.38	-5.72627e-08
2859.93	-2.42381e-07
2868.49	3.89921e-08
2877.05	1.75345e-07
2885.61	1.95785e-07
2894.16	1.82447e-07
2902.72	9.96172e-08
2911.28	1.05589e-07
2919.84	4.17298e-07
2928.4	6.36299e-08
2936.95	1.82142e-07
2945.51	-8.20024e-08
2954.07	6.88995e-08
2962.63	2.02487e-07
2971.18	1.90951e-07
2979.74	6.7588e-08
2988.3	2.69638e-07
2996.86	4.03408e-07
3005.41	4.86537e-07
3013.97	5.43562e-07
3022.53	2.12619e-06
3031.09	6.29995e-06
3039.64	5.32353e-06
3048.2	6.16551e-06
3056.76	6.58224e-06
3065.32	2.2637e-06
3073.88	1.34505e-06
3082.43	9.31524e-07
3090.99	1.85842e-06
3099.55	2.4323e-06
3108.11	6.27988e-06
3116.66	9.82537e-06
3125.22	2.36242e-06
3133.78	1.01677e-05
3142.34	3.8168e-06
3150.89	1.41908e-06
3159.45	9.10598e-07
3168.01	7.33474e-07
3176.57	3.73244e-07
3185.12	1.54502e-07
3193.68	-1.23307e-08
3202.24	-1.32602e-08
3210.8	-2.54926e-07
3219.35	-5.37184e-08
3227.91	-4.33285e-08
3236.47	-9.45086e-08
3245.03	-3.67548e-08
3253.59	-1.18979e-07
3262.14	-2.08121e-07
3270.7	6.26595e-08
3279.26	4.78659e-08
3287.82	-8.90081e-08
3296.37	8.83278e-08
3304.93	-3.38636e-08
3313.49	-1.25872e-08
3322.05	3.41167e-07
3330.6	-4.39124e-08
3339.16	5.65788e-07
3347.72	3.3159e-07
3356.28	4.85526e-08
3364.83	2.56673e-08
3373.39	9.6313e-08
3381.95	1.34097e-07
3390.51	5.0849e-09
3399.06	-1.17841e-07
3407.62	-3.42808e-07
3416.18	-1.11175e-08
3424.74	-2.93344e-08
3433.3	-8.91018e-08
3441.85	-2.68588e-08
3450.41	2.01463e-07
3458.97	1.57231e-07
3467.53	-5.22087e-08
3476.08	9.43467e-08
3484.64	-1.7475e-07
3493.2	-9.76672e-08
3501.76	-1.89563e-07
3510.31	-8.93309e-08
3518.87	9.30844e-08
3527.43	2.61083e-07
3535.99	1.41411e-07
3544.54	2.30864e-07
3553.1	6.12735e-08
3561.66	1.01107e-08
3570.22	2.25534e-07
3578.78	-1.09358e-07
3587.33	1.02507e-08
3595.89	1.8539e-07
3604.45	7.74122e-08
3613.01	4.88921e-07
3621.56	2.42717e-07
3630.12	3.5107e-07
3638.68	2.01805e-07
3647.24	1.39194e-06
3655.79	7.46165e-07
3664.35	2.4541e-07
3672.91	4.43824e-07
3681.47	-5.03852e-09
3690.02	3.63019e-08
3698.58	1.6101e-07
3707.14	1.90572e-07
3715.7	3.43038e-08
3724.25	1.15361e-07
3732.81	1.54771e-07
3741.37	6.7586e-07
3749.93	6.67918e-07
3758.49	-1.0906e-07
3767.04	1.06618e-08
3775.6	-9.43058e-08
3784.16	-4.44181e-08
3792.72	-9.33036e-09
3801.27	2.64025e-06
3809.83	-6.75043e-08
3818.39	1.81546e-07
3826.95	4.98762e-07
3835.5	3.8617e-07
3844.06	5.82074e-07
3852.62	7.41945e-07
3861.18	4.59103e-07
3869.73	3.97433e-07
3878.29	-8.33266e-09
3886.85	2.90444e-07
3895.41	7.5435e-08
3903.96	7.12247e-07
3912.52	-4.1686e-08
3921.08	2.28577e-07
3929.64	4.08496e-07
3938.2	3.56167e-07
3946.75	2.34302e-07
3955.31	1.14133e-07
3963.87	1.43644e-07
3972.43	1.26569e-07
