Infrared Spectrum: Nitrile-Propenoic Acid
Formula: C H2: C H C N
CAS: 107-13-1
State: gas
Melting point: -83.5 C
Boiling point: 77.5 C
Class: IUPAC A
Instrument: IFS66V (Bruker)
Instrument parameters: KBr Beam splitter; MCT Detector; Multipass cell
Sampling: 1 L/min Flow
Resolution: 0.1250
Temperature: 23 C
Pressure: 101.3 kPa
Origin: NIST, Anayltical Chemistry Division, 301-975-3108
cm-1	(micromol/mol)-1m-1 (base 10)
574.988	-4.10969e-07
583.546	6.97756e-07
592.103	3.96038e-07
600.661	4.62473e-07
609.219	1.46604e-07
617.776	1.03691e-06
626.334	1.98419e-06
634.891	5.73499e-06
643.449	9.39691e-06
652.007	1.38804e-05
660.564	3.36356e-05
669.122	2.37287e-05
677.68	2.47764e-05
686.237	1.85564e-05
694.795	1.71829e-05
703.352	1.52984e-05
711.91	2.18775e-05
720.468	8.75191e-06
729.025	1.19701e-05
737.583	4.26118e-06
746.141	2.60059e-06
754.698	1.77299e-06
763.256	1.7795e-06
771.813	3.70275e-06
780.371	4.70976e-06
788.929	2.22323e-06
797.486	3.73642e-06
806.044	1.23195e-06
814.602	4.06219e-07
823.159	7.98287e-08
831.717	1.77164e-07
840.274	5.83287e-07
848.832	2.68134e-06
857.39	7.9513e-06
865.947	5.10574e-06
874.505	6.24342e-06
883.063	7.61819e-06
891.62	6.45422e-06
900.178	1.28712e-05
908.735	2.9358e-05
917.293	3.54434e-05
925.851	4.63921e-05
934.408	7.52635e-05
942.966	0.00011482
951.524	0.000116914
960.081	8.75147e-05
968.639	0.000109609
977.196	8.29353e-05
985.754	9.68077e-05
994.312	6.68642e-05
1002.87	5.90505e-05
1011.43	3.62283e-05
1019.98	1.95186e-05
1028.54	9.99697e-06
1037.1	4.0762e-06
1045.66	1.90626e-06
1054.22	1.05947e-06
1062.77	1.40273e-06
1071.33	2.44772e-06
1079.89	1.00912e-05
1088.45	1.06633e-05
1097	7.39045e-06
1105.56	7.88268e-06
1114.12	2.21003e-06
1122.68	5.84958e-07
1131.23	2.36753e-07
1139.79	1.94197e-07
1148.35	1.16706e-07
1156.91	1.13858e-08
1165.46	7.67465e-08
1174.02	2.037e-07
1182.58	2.04487e-07
1191.14	3.69772e-07
1199.69	3.02879e-07
1208.25	3.6887e-07
1216.81	2.41907e-07
1225.37	3.58914e-07
1233.93	1.81561e-07
1242.48	2.33562e-07
1251.04	1.19648e-07
1259.6	6.38868e-07
1268.16	2.32536e-06
1276.71	2.32275e-06
1285.27	3.02498e-06
1293.83	3.22891e-06
1302.39	1.55103e-06
1310.94	2.401e-06
1319.5	2.49508e-06
1328.06	2.21446e-06
1336.62	3.68501e-06
1345.17	2.79333e-06
1353.73	3.43494e-06
1362.29	2.72295e-06
1370.85	4.36764e-06
1379.4	6.18335e-06
1387.96	5.86156e-06
1396.52	1.12606e-05
1405.08	2.41829e-05
1413.64	1.00825e-05
1422.19	2.45888e-05
1430.75	2.11795e-05
1439.31	8.68539e-06
1447.87	6.14283e-06
1456.42	4.55368e-06
1464.98	3.98894e-06
1473.54	5.22594e-06
1482.1	4.03252e-07
1490.65	8.63773e-07
1499.21	3.52182e-07
1507.77	5.6776e-07
1516.33	6.97311e-07
1524.88	5.36791e-07
1533.44	6.1003e-07
1542	3.60928e-06
1550.56	4.42969e-07
1559.11	1.05848e-06
1567.67	8.68026e-07
1576.23	9.35521e-06
1584.79	1.76284e-06
1593.35	4.42882e-06
1601.9	1.48418e-05
1610.46	1.05023e-05
1619.02	1.05106e-05
1627.58	1.51345e-05
1636.13	9.02526e-06
1644.69	8.68894e-06
1653.25	1.51084e-05
1661.81	7.6754e-06
1670.36	3.80127e-06
1678.92	3.07661e-06
1687.48	1.31894e-06
1696.04	7.09605e-06
1704.59	1.31596e-06
1713.15	3.63496e-07
1721.71	2.17544e-07
1730.27	4.5004e-07
1738.83	2.79254e-07
1747.38	3.1396e-07
1755.94	1.53733e-07
1764.5	5.86533e-08
1773.06	6.48175e-07
1781.61	4.80724e-08
1790.17	9.62193e-08
1798.73	8.48181e-09
1807.29	2.2245e-08
1815.84	5.75455e-08
1824.4	2.84993e-07
1832.96	7.05558e-07
1841.52	4.40311e-07
1850.07	8.74012e-07
1858.63	7.91606e-07
1867.19	8.4264e-07
1875.75	1.62307e-06
1884.3	5.52064e-06
1892.86	1.19899e-05
1901.42	1.58602e-05
1909.98	1.05468e-05
1918.54	1.96665e-05
1927.09	7.70692e-06
1935.65	3.15212e-06
1944.21	3.60893e-06
1952.77	1.97689e-06
1961.32	1.13708e-06
1969.88	8.01186e-07
1978.44	5.70604e-07
1987	4.5469e-07
1995.55	1.95696e-07
2004.11	1.08644e-07
2012.67	1.61946e-07
2021.23	8.12848e-08
2029.78	1.54275e-08
2038.34	3.03148e-08
2046.9	2.0482e-07
2055.46	1.16726e-07
2064.01	2.42316e-07
2072.57	4.2902e-08
2081.13	2.66587e-08
2089.69	7.71612e-08
2098.25	2.21649e-08
2106.8	3.80008e-08
2115.36	8.4036e-10
2123.92	-6.17355e-08
2132.48	1.01043e-08
2141.03	5.39367e-08
2149.59	1.02135e-09
2158.15	9.67414e-08
2166.71	7.81371e-08
2175.26	-1.83988e-09
2183.82	1.05197e-07
2192.38	1.35053e-07
2200.94	3.27677e-08
2209.49	3.02822e-07
2218.05	9.6549e-07
2226.61	2.21165e-06
2235.17	1.98037e-06
2243.72	1.99762e-06
2252.28	2.17856e-06
2260.84	6.29007e-07
2269.4	1.08353e-06
2277.96	8.08836e-07
2286.51	1.24038e-06
2295.07	1.20565e-06
2303.63	4.15769e-07
2312.19	4.195e-07
2320.74	2.07163e-07
2329.3	1.15712e-07
2337.86	2.58021e-07
2346.42	1.28462e-07
2354.97	1.81767e-07
2363.53	3.89078e-07
2372.09	4.41717e-07
2380.65	7.13222e-07
2389.2	5.36946e-07
2397.76	5.35369e-07
2406.32	4.01032e-07
2414.88	2.18576e-07
2423.44	2.31891e-07
2431.99	2.7084e-07
2440.55	2.48902e-07
2449.11	5.05517e-07
2457.67	5.70865e-07
2466.22	4.98102e-07
2474.78	7.98182e-07
2483.34	5.8425e-07
2491.9	5.96492e-07
2500.45	2.89064e-07
2509.01	3.03865e-07
2517.57	1.77619e-07
2526.13	2.11119e-07
2534.68	2.76846e-07
2543.24	2.77403e-07
2551.8	2.61853e-07
2560.36	3.16863e-07
2568.91	9.92323e-07
2577.47	2.45914e-07
2586.03	1.74273e-07
2594.59	1.53807e-07
2603.15	9.60966e-08
2611.7	4.26546e-10
2620.26	-4.83771e-08
2628.82	-2.13173e-08
2637.38	-1.51574e-08
2645.93	1.99967e-08
2654.49	-2.40448e-08
2663.05	1.36949e-08
2671.61	-1.05863e-09
2680.16	2.7654e-07
2688.72	3.99302e-07
2697.28	5.49487e-07
2705.84	5.01536e-07
2714.39	7.45083e-07
2722.95	4.2942e-07
2731.51	1.25838e-07
2740.07	3.04949e-08
2748.62	1.37662e-07
2757.18	1.42206e-08
2765.74	8.98985e-08
2774.3	2.45072e-07
2782.86	9.91224e-08
2791.41	1.59043e-07
2799.97	1.19106e-07
2808.53	8.48736e-08
2817.09	9.99855e-08
2825.64	-1.99267e-09
2834.2	1.13415e-07
2842.76	-8.75047e-08
2851.32	-9.03032e-08
2859.87	-1.20112e-07
2868.43	3.07941e-08
2876.99	2.22904e-07
2885.55	1.52593e-07
2894.1	2.08579e-07
2902.66	1.65205e-07
2911.22	1.49813e-07
2919.78	3.54978e-07
2928.34	9.53863e-08
2936.89	1.59459e-07
2945.45	-1.25561e-07
2954.01	6.66612e-08
2962.57	6.80418e-08
2971.12	7.91666e-08
2979.68	1.69775e-07
2988.24	2.78184e-07
2996.8	3.52661e-07
3005.35	5.48016e-07
3013.91	5.08944e-07
3022.47	2.20139e-06
3031.03	6.22577e-06
3039.58	5.55019e-06
3048.14	6.2427e-06
3056.7	6.83922e-06
3065.26	2.32098e-06
3073.81	1.27977e-06
3082.37	9.31465e-07
3090.93	1.92513e-06
3099.49	2.39959e-06
3108.05	6.78301e-06
3116.6	9.89657e-06
3125.16	2.37765e-06
3133.72	1.00916e-05
3142.28	3.80746e-06
3150.83	1.28793e-06
3159.39	1.01558e-06
3167.95	6.72454e-07
3176.51	4.79836e-07
3185.06	1.4429e-07
3193.62	-1.68518e-08
3202.18	-3.57453e-08
3210.74	-2.24928e-07
3219.29	-3.26449e-08
3227.85	-1.17893e-07
3236.41	-6.97098e-08
3244.97	-6.40629e-08
3253.52	-1.00796e-07
3262.08	-7.59798e-08
3270.64	1.79731e-08
3279.2	1.16496e-07
3287.76	-5.20905e-08
3296.31	8.28309e-08
3304.87	-9.05851e-08
3313.43	1.50183e-07
3321.99	3.11789e-07
3330.54	8.39996e-09
3339.1	5.49708e-07
3347.66	4.23662e-07
3356.22	5.95628e-08
3364.77	8.91072e-08
3373.33	7.85236e-08
3381.89	-3.84619e-08
3390.45	-5.04025e-08
3399	-1.4561e-07
3407.56	-3.1006e-07
3416.12	-5.36748e-08
3424.68	1.95925e-07
3433.23	-1.27646e-07
3441.79	-8.24707e-08
3450.35	2.5979e-07
3458.91	1.03299e-07
3467.47	-4.78632e-08
3476.02	1.65109e-07
3484.58	-1.3541e-07
3493.14	-3.45057e-08
3501.7	8.67562e-08
3510.25	-9.53854e-08
3518.81	1.997e-07
3527.37	1.96484e-07
3535.93	3.53606e-08
3544.48	1.70986e-07
3553.04	9.74462e-08
3561.6	4.77422e-08
3570.16	1.45635e-07
3578.71	-5.55028e-08
3587.27	1.88964e-07
3595.83	1.22945e-07
3604.39	1.84015e-08
3612.95	5.48152e-07
3621.5	2.32478e-07
3630.06	5.27161e-07
3638.62	1.49291e-07
3647.18	1.57521e-06
3655.73	6.42257e-07
3664.29	1.82181e-07
3672.85	3.19519e-07
3681.41	-1.93274e-08
3689.96	1.16751e-07
3698.52	3.00801e-08
3707.08	9.49852e-08
3715.64	-1.17789e-07
3724.19	5.23142e-08
3732.75	2.27052e-07
3741.31	7.10774e-07
3749.87	8.34155e-07
3758.42	-1.58448e-07
3766.98	1.10766e-08
3775.54	-3.56916e-08
3784.1	-6.8945e-08
3792.66	-9.01504e-08
3801.21	1.92012e-06
3809.77	-3.93468e-08
3818.33	5.53173e-08
3826.89	8.65128e-07
3835.44	4.27005e-07
3844	7.09603e-07
3852.56	7.67359e-07
3861.12	3.89156e-07
3869.67	3.68835e-07
3878.23	4.90755e-09
3886.79	2.03756e-07
3895.35	8.92373e-08
3903.9	6.39387e-07
3912.46	1.35466e-07
3921.02	1.68506e-07
3929.58	3.82848e-07
3938.13	3.69858e-07
3946.69	1.84204e-07
3955.25	3.65802e-08
3963.81	7.03292e-08
3972.37	9.48506e-08
