Infrared Spectrum: 1,2-Dichloroethane
Formula: Cl C H2 C H2 Cl
CAS: 107-06-2
State: gas
Melting point: -35.36 C
Boiling point: 83.47 C
Class: IUPAC A
Instrument: IFS66V (Bruker)
Instrument parameters: KBr Beam Splitter; MCT Detector; Multipass cell
Sampling: 1 L/min Flow
Resolution: 0.9640
Temperature: 23 C
Pressure: 101.3 Pa
Origin: NIST, Analytical Chemistry Division, 301-975-3108
cm-1	(micromol/mol)-1m-1 (base 10)
575.17	7.31348e-08
583.848	7.93226e-07
592.526	7.03115e-07
601.205	-1.48898e-07
609.883	-4.44293e-07
618.561	2.20188e-08
627.239	4.34915e-07
635.917	7.45773e-07
644.595	3.27465e-06
653.274	8.37526e-06
661.952	1.5438e-05
670.63	1.55183e-05
679.308	2.6117e-05
687.986	3.97665e-05
696.664	3.08985e-05
705.343	4.10725e-05
714.021	0.000201042
722.699	0.000549724
731.377	0.000586772
740.055	5.85232e-05
748.734	6.22051e-06
757.412	7.04803e-06
766.09	7.66026e-06
774.768	6.1751e-06
783.446	4.67178e-06
792.124	3.83332e-06
800.803	2.57075e-06
809.481	1.7679e-06
818.159	1.61223e-06
826.837	2.05891e-06
835.515	1.89349e-06
844.194	1.18457e-06
852.872	6.08547e-07
861.55	8.6908e-07
870.228	2.35745e-06
878.906	1.24967e-05
887.584	1.98463e-05
896.263	2.16328e-05
904.941	6.46198e-06
913.619	2.03998e-06
922.297	2.22288e-06
930.975	5.12687e-06
939.653	9.15773e-06
948.332	7.59728e-06
957.01	8.52413e-06
965.688	3.59774e-06
974.366	1.76624e-06
983.044	2.63e-06
991.723	3.27018e-06
1000.4	2.12719e-06
1009.08	1.70888e-06
1017.76	3.33654e-06
1026.44	4.73636e-06
1035.11	3.1914e-06
1043.79	1.13811e-06
1052.47	4.48434e-07
1061.15	1.31929e-07
1069.83	1.12876e-07
1078.5	2.905e-07
1087.18	5.08671e-07
1095.86	1.08577e-06
1104.54	1.82135e-06
1113.22	2.27272e-06
1121.9	4.10397e-06
1130.57	3.28427e-06
1139.25	3.00199e-06
1147.93	2.44081e-06
1156.61	1.94075e-06
1165.29	1.24766e-06
1173.96	8.17279e-07
1182.64	9.49792e-07
1191.32	1.8286e-06
1200	3.74431e-06
1208.68	6.83939e-06
1217.36	1.87115e-05
1226.03	0.000152617
1234.71	0.000142443
1243.39	7.06225e-05
1252.07	9.69356e-06
1260.75	6.31431e-06
1269.42	4.75735e-06
1278.1	1.48841e-05
1286.78	4.29835e-05
1295.46	3.5181e-05
1304.14	2.39376e-05
1312.82	9.51672e-06
1321.49	1.15008e-05
1330.17	7.09447e-06
1338.85	4.06812e-06
1347.53	3.00986e-06
1356.21	2.96694e-06
1364.88	2.24859e-06
1373.56	1.22047e-06
1382.24	1.11348e-06
1390.92	8.9402e-07
1399.6	8.20005e-07
1408.28	1.7137e-06
1416.95	3.92613e-06
1425.63	1.1143e-05
1434.31	1.79981e-05
1442.99	2.60633e-05
1451.67	3.06824e-05
1460.34	1.84701e-05
1469.02	2.28492e-05
1477.7	1.24021e-05
1486.38	7.71214e-06
1495.06	3.9934e-06
1503.73	1.74305e-06
1512.41	8.12607e-07
1521.09	1.62953e-06
1529.77	2.76917e-06
1538.45	1.39115e-06
1547.13	7.12669e-07
1555.8	2.2057e-07
1564.48	1.62897e-07
1573.16	2.37688e-07
1581.84	2.04579e-07
1590.52	7.38033e-08
1599.19	1.92639e-08
1607.87	1.38725e-08
1616.55	-7.46872e-07
1625.23	1.37742e-08
1633.91	-7.89037e-08
1642.59	-1.46117e-07
1651.26	-1.35067e-07
1659.94	-2.24508e-08
1668.62	-3.49335e-08
1677.3	2.02887e-07
1685.98	1.94434e-07
1694.65	1.23404e-07
1703.33	1.04157e-07
1712.01	2.02151e-07
1720.69	1.57989e-07
1729.37	8.79813e-08
1738.05	7.43872e-09
1746.72	-4.07888e-08
1755.4	6.10532e-08
1764.08	5.54589e-08
1772.76	-4.28182e-07
1781.44	8.13448e-08
1790.11	8.68899e-08
1798.79	-2.89318e-08
1807.47	-7.77805e-08
1816.15	3.01332e-08
1824.83	-1.065e-07
1833.51	-1.55832e-08
1842.18	-2.31465e-09
1850.86	8.06672e-08
1859.54	3.60131e-08
1868.22	-5.81737e-08
1876.9	8.36794e-08
1885.57	9.66006e-08
1894.25	3.74028e-08
1902.93	5.29951e-08
1911.61	-2.38477e-08
1920.29	-2.30829e-09
1928.97	-1.95195e-08
1937.64	-5.17773e-08
1946.32	-5.35544e-08
1955	-4.12872e-08
1963.68	-2.02352e-08
1972.36	-1.44081e-08
1981.03	3.42168e-08
1989.71	2.54957e-08
1998.39	-1.36251e-08
2007.07	1.40182e-07
2015.75	3.87345e-07
2024.43	1.45914e-06
2033.1	2.04884e-06
2041.78	1.46059e-06
2050.46	3.22304e-07
2059.14	1.26153e-07
2067.82	7.63762e-08
2076.49	5.20028e-08
2085.17	7.01162e-08
2093.85	1.53649e-07
2102.53	3.1217e-07
2111.21	3.35166e-07
2119.89	3.02726e-07
2128.56	2.04631e-07
2137.24	1.87703e-07
2145.92	1.77607e-07
2154.6	8.53911e-08
2163.28	9.33346e-08
2171.95	3.06559e-07
2180.63	4.54495e-07
2189.31	8.28433e-07
2197.99	9.64255e-07
2206.67	1.27405e-06
2215.35	1.60418e-06
2224.02	1.49249e-06
2232.7	1.47467e-06
2241.38	1.10632e-06
2250.06	6.79716e-07
2258.74	4.00041e-07
2267.41	2.39204e-07
2276.09	1.61553e-07
2284.77	1.8825e-07
2293.45	1.88535e-07
2302.13	1.59885e-07
2310.81	8.15603e-08
2319.48	2.04626e-08
2328.16	-7.12222e-09
2336.84	9.64487e-08
2345.52	-1.73661e-07
2354.2	-5.66887e-07
2362.87	-1.16104e-06
2371.55	-1.98449e-07
2380.23	9.92611e-07
2388.91	1.0956e-06
2397.59	6.4884e-07
2406.27	5.95499e-07
2414.94	5.89131e-07
2423.62	7.66713e-07
2432.3	5.99274e-07
2440.98	6.14475e-07
2449.66	4.81417e-07
2458.33	7.26153e-07
2467.01	5.736e-07
2475.69	3.84786e-07
2484.37	2.37176e-07
2493.05	3.54495e-07
2501.73	4.4537e-07
2510.4	6.45025e-07
2519.08	7.96856e-07
2527.76	5.73974e-07
2536.44	5.10615e-07
2545.12	3.60636e-07
2553.79	2.47467e-07
2562.47	-4.24877e-08
2571.15	8.95848e-09
2579.83	-8.63743e-08
2588.51	-6.53014e-08
2597.19	-1.31308e-07
2605.86	-1.526e-07
2614.54	-1.30261e-07
2623.22	-9.02951e-08
2631.9	-9.51145e-09
2640.58	5.6824e-08
2649.25	2.55567e-10
2657.93	-4.47078e-08
2666.61	1.01861e-07
2675.29	5.51616e-07
2683.97	1.7986e-06
2692.65	1.79044e-06
2701.32	3.7129e-07
2710	1.97241e-07
2718.68	3.3104e-07
2727.36	4.21003e-07
2736.04	6.03569e-07
2744.71	4.17589e-07
2753.39	1.14111e-06
2762.07	2.32563e-06
2770.75	2.45271e-06
2779.43	2.00562e-07
2788.11	1.07038e-07
2796.78	1.26283e-08
2805.46	-9.9942e-08
2814.14	5.58654e-08
2822.82	1.13073e-07
2831.5	4.8448e-07
2840.17	1.33899e-06
2848.85	2.9852e-06
2857.53	3.55351e-06
2866.21	4.56319e-06
2874.89	4.88017e-06
2883.57	9.081e-06
2892.24	1.12917e-05
2900.92	1.32897e-05
2909.6	3.64541e-06
2918.28	2.46361e-06
2926.96	2.00777e-06
2935.63	4.11035e-06
2944.31	1.08137e-05
2952.99	2.42422e-05
2961.67	2.8366e-05
2970.35	4.4908e-05
2979.03	5.78902e-05
2987.7	5.93826e-05
2996.38	3.64536e-05
3005.06	2.87301e-05
3013.74	2.46482e-05
3022.42	1.82268e-05
3031.09	1.35917e-05
3039.77	9.65443e-06
3048.45	7.98677e-06
3057.13	5.39632e-06
3065.81	2.94306e-06
3074.49	1.68164e-06
3083.16	9.67086e-07
3091.84	6.50818e-07
3100.52	6.19345e-07
3109.2	5.21443e-07
3117.88	4.37395e-07
3126.55	3.45374e-07
3135.23	5.51778e-08
3143.91	8.87881e-08
3152.59	9.62195e-08
3161.27	-4.07524e-08
3169.95	-7.64654e-08
3178.62	-8.09455e-08
3187.3	1.50086e-07
3195.98	2.88744e-07
3204.66	1.59343e-07
3213.34	6.14306e-08
3222.01	7.73558e-08
3230.69	1.61438e-07
3239.37	2.9523e-08
3248.05	7.09875e-08
3256.73	1.76383e-07
3265.41	-3.94173e-09
3274.08	1.28068e-07
3282.76	7.69356e-08
3291.44	8.0137e-08
3300.12	-4.74572e-09
3308.8	-1.38242e-08
3317.47	-1.26084e-07
3326.15	-1.76481e-07
3334.83	-9.19576e-08
3343.51	-5.65485e-08
3352.19	-8.06763e-08
3360.86	1.74431e-08
3369.54	-7.36132e-08
3378.22	6.79607e-08
3386.9	-9.99093e-08
3395.58	-9.56256e-08
3404.26	1.52182e-07
3412.93	1.89224e-07
3421.61	-1.06283e-08
3430.29	-1.3023e-08
3438.97	1.08612e-07
3447.65	-9.89207e-08
3456.32	-6.39371e-08
3465	-4.147e-08
3473.68	-1.08469e-07
3482.36	9.10945e-08
3491.04	3.08945e-08
3499.72	-7.66555e-08
3508.39	-1.15484e-07
3517.07	-9.69762e-08
3525.75	-4.50398e-08
3534.43	-1.26546e-07
3543.11	-4.98546e-08
3551.78	-3.62905e-08
3560.46	-7.73267e-08
3569.14	-1.42428e-07
3577.82	-1.17571e-07
3586.5	-2.06421e-07
3595.18	-1.24695e-07
3603.85	3.73346e-09
3612.53	-6.71995e-08
3621.21	1.33215e-07
3629.89	-1.08908e-07
3638.57	2.6935e-07
3647.24	4.48424e-08
3655.92	9.54937e-08
3664.6	2.83993e-07
3673.28	3.70119e-07
3681.96	3.28927e-07
3690.64	1.4188e-08
3699.31	2.31298e-07
3707.99	2.20469e-07
3716.67	1.97403e-07
3725.35	2.25957e-07
3734.03	3.79782e-07
3742.7	8.69036e-07
3751.38	1.02647e-06
3760.06	1.06855e-06
3768.74	1.01215e-06
3777.42	1.06585e-06
3786.1	9.46685e-07
3794.77	6.58343e-07
3803.45	8.81433e-07
3812.13	4.81615e-07
3820.81	1.58342e-07
3829.49	3.23753e-07
3838.16	-3.58952e-07
3846.84	3.20037e-07
3855.52	8.708e-08
3864.2	-5.21047e-09
3872.88	4.3409e-08
3881.56	4.24059e-08
3890.23	1.46305e-07
3898.91	-1.00317e-08
3907.59	6.63791e-08
3916.27	4.9047e-08
3924.95	1.5424e-08
3933.62	1.78906e-08
3942.3	1.33867e-07
3950.98	2.49947e-07
3959.66	2.88299e-07
3968.34	2.85417e-07
