Infrared Spectrum: Nitrile-Propenoic Acid
Formula: C H2: C H C N
CAS: 107-13-1
State: gas
Melting point: -83.5 C
Boiling point: 77.5 C
Class: IUPAC A
Instrument: IFS66V (Bruker)
Instrument parameters: KBr Beam splitter; MCT Detector; Multipass cell
Sampling: 1 L/min Flow
Resolution: 0.1250
Temperature: 23 C
Pressure: 101.3 kPa
Origin: NIST, Anayltical Chemistry Division, 301-975-3108
cm-1	(micromol/mol)-1m-1 (base 10)
574.988	-3.23659e-07
583.546	6.85874e-07
592.103	3.91011e-07
600.661	4.5373e-07
609.219	1.93121e-07
617.776	1.04449e-06
626.334	2.00998e-06
634.891	5.67718e-06
643.449	9.43877e-06
652.007	1.40162e-05
660.564	3.2967e-05
669.122	2.3764e-05
677.68	2.48653e-05
686.237	1.86812e-05
694.795	1.72312e-05
703.352	1.53452e-05
711.91	2.1677e-05
720.468	8.78771e-06
729.025	1.16791e-05
737.583	4.26323e-06
746.141	2.61928e-06
754.698	1.78041e-06
763.256	1.77416e-06
771.813	3.69749e-06
780.371	4.71431e-06
788.929	2.23598e-06
797.486	3.74245e-06
806.044	1.2381e-06
814.602	4.09166e-07
823.159	9.45877e-08
831.717	1.8072e-07
840.274	5.77057e-07
848.832	2.68952e-06
857.39	7.94286e-06
865.947	5.13064e-06
874.505	6.25132e-06
883.063	7.62396e-06
891.62	6.49903e-06
900.178	1.28817e-05
908.735	2.90123e-05
917.293	3.5656e-05
925.851	4.67657e-05
934.408	7.56117e-05
942.966	0.000112594
951.524	0.000118301
960.081	8.82908e-05
968.639	0.000110672
977.196	8.37721e-05
985.754	9.66939e-05
994.312	6.69478e-05
1002.87	5.8752e-05
1011.43	3.60814e-05
1019.98	1.96144e-05
1028.54	1.00475e-05
1037.1	4.10618e-06
1045.66	1.92037e-06
1054.22	1.08912e-06
1062.77	1.39102e-06
1071.33	2.47839e-06
1079.89	1.00745e-05
1088.45	1.0664e-05
1097	7.41649e-06
1105.56	7.88156e-06
1114.12	2.22813e-06
1122.68	5.87272e-07
1131.23	2.51215e-07
1139.79	1.97563e-07
1148.35	1.1174e-07
1156.91	2.11518e-08
1165.46	9.29952e-08
1174.02	2.06743e-07
1182.58	2.06685e-07
1191.14	3.60031e-07
1199.69	3.0423e-07
1208.25	3.76492e-07
1216.81	2.45835e-07
1225.37	3.56268e-07
1233.93	1.86464e-07
1242.48	2.30932e-07
1251.04	1.23166e-07
1259.6	6.48927e-07
1268.16	2.31179e-06
1276.71	2.32628e-06
1285.27	3.01358e-06
1293.83	3.2281e-06
1302.39	1.57107e-06
1310.94	2.40273e-06
1319.5	2.49204e-06
1328.06	2.2139e-06
1336.62	3.64126e-06
1345.17	2.80527e-06
1353.73	3.43842e-06
1362.29	2.73415e-06
1370.85	4.37622e-06
1379.4	6.13658e-06
1387.96	5.91715e-06
1396.52	1.13576e-05
1405.08	2.41256e-05
1413.64	1.03378e-05
1422.19	2.45569e-05
1430.75	2.07955e-05
1439.31	8.70489e-06
1447.87	6.08797e-06
1456.42	4.5142e-06
1464.98	3.83535e-06
1473.54	4.92231e-06
1482.1	4.14574e-07
1490.65	8.73184e-07
1499.21	3.85983e-07
1507.77	6.08862e-07
1516.33	6.83804e-07
1524.88	5.37739e-07
1533.44	6.53273e-07
1542	3.46905e-06
1550.56	4.69208e-07
1559.11	1.15237e-06
1567.67	8.78478e-07
1576.23	8.82121e-06
1584.79	1.78425e-06
1593.35	4.46504e-06
1601.9	1.46551e-05
1610.46	1.04995e-05
1619.02	1.05532e-05
1627.58	1.51081e-05
1636.13	9.09607e-06
1644.69	8.68593e-06
1653.25	1.46713e-05
1661.81	7.66371e-06
1670.36	3.83929e-06
1678.92	2.99683e-06
1687.48	1.32545e-06
1696.04	6.72064e-06
1704.59	1.2855e-06
1713.15	3.67408e-07
1721.71	2.20656e-07
1730.27	4.6063e-07
1738.83	2.86676e-07
1747.38	3.31043e-07
1755.94	1.59801e-07
1764.5	6.04613e-08
1773.06	7.16803e-07
1781.61	5.23342e-08
1790.17	1.04138e-07
1798.73	1.49609e-08
1807.29	2.37502e-08
1815.84	5.94454e-08
1824.4	2.98162e-07
1832.96	7.07112e-07
1841.52	4.45438e-07
1850.07	8.7847e-07
1858.63	7.92655e-07
1867.19	8.59253e-07
1875.75	1.63399e-06
1884.3	5.49049e-06
1892.86	1.19955e-05
1901.42	1.58592e-05
1909.98	1.05401e-05
1918.54	1.9595e-05
1927.09	7.72722e-06
1935.65	3.17027e-06
1944.21	3.61095e-06
1952.77	1.99231e-06
1961.32	1.1462e-06
1969.88	8.05522e-07
1978.44	5.72347e-07
1987	4.50673e-07
1995.55	1.99313e-07
2004.11	1.10967e-07
2012.67	1.5639e-07
2021.23	7.89892e-08
2029.78	1.82869e-08
2038.34	3.54488e-08
2046.9	2.05649e-07
2055.46	1.15462e-07
2064.01	2.41039e-07
2072.57	4.41252e-08
2081.13	3.09578e-08
2089.69	7.83899e-08
2098.25	2.36092e-08
2106.8	3.91167e-08
2115.36	6.74834e-10
2123.92	-5.30054e-08
2132.48	7.21218e-09
2141.03	5.49444e-08
2149.59	2.90852e-09
2158.15	9.37628e-08
2166.71	8.06236e-08
2175.26	4.30912e-09
2183.82	1.08104e-07
2192.38	1.3138e-07
2200.94	3.76843e-08
2209.49	3.02184e-07
2218.05	9.6618e-07
2226.61	2.214e-06
2235.17	1.97888e-06
2243.72	2.00109e-06
2252.28	2.17966e-06
2260.84	6.38845e-07
2269.4	1.08988e-06
2277.96	8.15165e-07
2286.51	1.23902e-06
2295.07	1.20184e-06
2303.63	4.18431e-07
2312.19	4.19464e-07
2320.74	2.09929e-07
2329.3	1.24071e-07
2337.86	2.62079e-07
2346.42	1.36565e-07
2354.97	1.87951e-07
2363.53	3.9743e-07
2372.09	4.42873e-07
2380.65	7.10804e-07
2389.2	5.40897e-07
2397.76	5.37764e-07
2406.32	3.99948e-07
2414.88	2.21617e-07
2423.44	2.28621e-07
2431.99	2.69875e-07
2440.55	2.56731e-07
2449.11	5.08814e-07
2457.67	5.70741e-07
2466.22	4.99857e-07
2474.78	8.01127e-07
2483.34	5.83867e-07
2491.9	5.89433e-07
2500.45	2.95254e-07
2509.01	2.9643e-07
2517.57	1.78649e-07
2526.13	2.12581e-07
2534.68	2.74881e-07
2543.24	2.76939e-07
2551.8	2.59337e-07
2560.36	3.17089e-07
2568.91	9.80161e-07
2577.47	2.42984e-07
2586.03	1.74721e-07
2594.59	1.55805e-07
2603.15	9.95235e-08
2611.7	2.59202e-10
2620.26	-3.71841e-08
2628.82	-2.1712e-08
2637.38	-9.555e-09
2645.93	1.94201e-08
2654.49	-2.19176e-08
2663.05	1.79722e-08
2671.61	7.91429e-09
2680.16	2.66835e-07
2688.72	3.97322e-07
2697.28	5.46914e-07
2705.84	4.96776e-07
2714.39	7.39273e-07
2722.95	4.2953e-07
2731.51	1.28593e-07
2740.07	3.75779e-08
2748.62	1.34987e-07
2757.18	2.0949e-08
2765.74	8.21633e-08
2774.3	2.39679e-07
2782.86	1.12207e-07
2791.41	1.58121e-07
2799.97	1.20251e-07
2808.53	9.56664e-08
2817.09	9.4856e-08
2825.64	6.0053e-09
2834.2	1.02708e-07
2842.76	-8.85943e-08
2851.32	-9.10198e-08
2859.87	-1.15485e-07
2868.43	2.80329e-08
2876.99	2.11199e-07
2885.55	1.50384e-07
2894.1	2.08167e-07
2902.66	1.66945e-07
2911.22	1.55599e-07
2919.78	3.51607e-07
2928.34	8.78812e-08
2936.89	1.52576e-07
2945.45	-1.07981e-07
2954.01	6.00812e-08
2962.57	6.50233e-08
2971.12	7.9464e-08
2979.68	1.72845e-07
2988.24	2.88741e-07
2996.8	3.51294e-07
3005.35	5.52338e-07
3013.91	5.20989e-07
3022.47	2.19983e-06
3031.03	6.20677e-06
3039.58	5.54666e-06
3048.14	6.23527e-06
3056.7	6.83359e-06
3065.26	2.32087e-06
3073.81	1.2812e-06
3082.37	9.44402e-07
3090.93	1.92668e-06
3099.49	2.42657e-06
3108.05	6.75273e-06
3116.6	9.87429e-06
3125.16	2.47775e-06
3133.72	1.00691e-05
3142.28	3.82456e-06
3150.83	1.29401e-06
3159.39	1.01487e-06
3167.95	6.76032e-07
3176.51	4.74595e-07
3185.06	1.42361e-07
3193.62	-5.31409e-09
3202.18	-3.73905e-08
3210.74	-2.11574e-07
3219.29	-4.04027e-08
3227.85	-1.21946e-07
3236.41	-6.7056e-08
3244.97	-7.56424e-08
3253.52	-1.06466e-07
3262.08	-7.75732e-08
3270.64	1.24917e-08
3279.2	1.10806e-07
3287.76	-5.4084e-08
3296.31	7.5666e-08
3304.87	-8.62451e-08
3313.43	1.50313e-07
3321.99	3.02411e-07
3330.54	1.65434e-08
3339.1	5.42172e-07
3347.66	4.13316e-07
3356.22	6.12253e-08
3364.77	9.64504e-08
3373.33	7.49166e-08
3381.89	-2.78965e-08
3390.45	-5.47043e-08
3399	-1.33735e-07
3407.56	-2.96903e-07
3416.12	-5.58912e-08
3424.68	1.85105e-07
3433.23	-1.12976e-07
3441.79	-8.85188e-08
3450.35	2.46229e-07
3458.91	9.4545e-08
3467.47	-4.26883e-08
3476.02	1.5253e-07
3484.58	-1.17639e-07
3493.14	-3.06922e-08
3501.7	9.15901e-08
3510.25	-8.47444e-08
3518.81	2.02339e-07
3527.37	1.95958e-07
3535.93	4.1646e-08
3544.48	1.67872e-07
3553.04	9.90533e-08
3561.6	4.5142e-08
3570.16	1.41605e-07
3578.71	-5.24042e-08
3587.27	1.98134e-07
3595.83	1.25643e-07
3604.39	2.77055e-08
3612.95	5.60801e-07
3621.5	2.44082e-07
3630.06	5.81301e-07
3638.62	1.70938e-07
3647.18	1.51987e-06
3655.73	6.62021e-07
3664.29	1.98588e-07
3672.85	3.25844e-07
3681.41	4.7202e-10
3689.96	1.35882e-07
3698.52	3.27713e-08
3707.08	9.54927e-08
3715.64	-1.0481e-07
3724.19	5.47471e-08
3732.75	2.53608e-07
3741.31	6.71813e-07
3749.87	8.96977e-07
3758.42	-1.34517e-07
3766.98	3.64792e-09
3775.54	-2.92634e-08
3784.1	-6.37755e-08
3792.66	-8.57676e-08
3801.21	1.97313e-06
3809.77	-3.8672e-08
3818.33	6.71869e-08
3826.89	8.26062e-07
3835.44	4.59748e-07
3844	7.26901e-07
3852.56	8.36014e-07
3861.12	4.05061e-07
3869.67	4.33068e-07
3878.23	2.21186e-08
3886.79	2.06292e-07
3895.35	9.96545e-08
3903.9	6.79651e-07
3912.46	1.34197e-07
3921.02	1.71763e-07
3929.58	3.75572e-07
3938.13	3.54525e-07
3946.69	1.76613e-07
3955.25	4.08102e-08
3963.81	6.86739e-08
3972.37	1.06725e-07
