Infrared Spectrum: 1,2-Dichloroethane
Formula: Cl C H2 C H2 Cl
CAS: 107-06-2
State: gas
Melting point: -35.36 C
Boiling point: 83.47 C
Class: IUPAC A
Instrument: IFS66V (Bruker)
Instrument parameters: KBr Beam Splitter; MCT Detector; Multipass cell
Sampling: 1 L/min Flow
Resolution: 1.9290
Temperature: 23 C
Pressure: 101.3 Pa
Origin: NIST, Analytical Chemistry Division, 301-975-3108
cm-1	(micromol/mol)-1m-1 (base 10)
575.652	5.92691e-07
584.33	5.08938e-07
593.008	5.01955e-07
601.687	-7.33786e-08
610.365	-1.29059e-07
619.043	-3.97229e-08
627.721	3.98689e-07
636.399	9.69061e-07
645.077	3.32597e-06
653.756	8.71065e-06
662.434	1.56222e-05
671.112	1.64291e-05
679.79	2.70144e-05
688.468	3.90977e-05
697.146	3.34531e-05
705.825	4.38327e-05
714.503	0.000221284
723.181	0.000550472
731.859	0.000568989
740.537	4.74435e-05
749.216	6.31232e-06
757.894	6.88512e-06
766.572	7.2938e-06
775.25	6.10875e-06
783.928	4.76707e-06
792.606	3.5246e-06
801.285	2.33177e-06
809.963	1.70401e-06
818.641	1.53362e-06
827.319	2.08437e-06
835.997	1.89309e-06
844.676	1.1921e-06
853.354	5.7523e-07
862.032	9.45539e-07
870.71	2.57804e-06
879.388	1.35876e-05
888.066	2.1003e-05
896.745	2.12608e-05
905.423	5.98728e-06
914.101	1.93748e-06
922.779	2.38909e-06
931.457	5.36218e-06
940.135	9.18408e-06
948.814	7.86852e-06
957.492	8.1635e-06
966.17	3.4868e-06
974.848	1.80522e-06
983.526	2.65899e-06
992.205	3.31131e-06
1000.88	2.01453e-06
1009.56	1.78666e-06
1018.24	3.45051e-06
1026.92	4.68757e-06
1035.6	2.97008e-06
1044.27	1.09537e-06
1052.95	4.10304e-07
1061.63	1.29101e-07
1070.31	8.6568e-08
1078.99	2.78901e-07
1087.66	5.76053e-07
1096.34	1.12744e-06
1105.02	1.84659e-06
1113.7	2.38039e-06
1122.38	4.32708e-06
1131.06	2.93447e-06
1139.73	2.89444e-06
1148.41	2.51804e-06
1157.09	1.90593e-06
1165.77	1.20262e-06
1174.45	8.25891e-07
1183.12	9.77229e-07
1191.8	1.94824e-06
1200.48	3.79414e-06
1209.16	6.87325e-06
1217.84	2.23684e-05
1226.52	0.000157715
1235.19	0.000151864
1243.87	6.27626e-05
1252.55	1.00059e-05
1261.23	6.34951e-06
1269.91	4.84175e-06
1278.58	1.68702e-05
1287.26	4.0596e-05
1295.94	3.86567e-05
1304.62	2.24218e-05
1313.3	9.57494e-06
1321.98	1.12e-05
1330.65	6.91426e-06
1339.33	4.00434e-06
1348.01	2.99285e-06
1356.69	2.92162e-06
1365.37	2.2252e-06
1374.04	1.29026e-06
1382.72	1.11266e-06
1391.4	8.82031e-07
1400.08	9.20819e-07
1408.76	1.80824e-06
1417.44	4.13207e-06
1426.11	1.17065e-05
1434.79	1.971e-05
1443.47	2.573e-05
1452.15	3.21251e-05
1460.83	2.06811e-05
1469.5	2.21159e-05
1478.18	1.1676e-05
1486.86	7.28168e-06
1495.54	3.62831e-06
1504.22	1.52008e-06
1512.9	9.50852e-07
1521.57	1.84463e-06
1530.25	2.77026e-06
1538.93	1.15915e-06
1547.61	6.53596e-07
1556.29	1.60021e-07
1564.96	1.73424e-07
1573.64	2.16025e-07
1582.32	2.14621e-07
1591	8.06245e-08
1599.68	-6.85755e-10
1608.36	-1.5856e-08
1617.03	-3.24203e-07
1625.71	-3.04434e-08
1634.39	-2.81644e-07
1643.07	-6.45019e-08
1651.75	-5.07249e-07
1660.42	7.93894e-09
1669.1	-9.21059e-08
1677.78	2.20412e-07
1686.46	1.28109e-07
1695.14	-1.95428e-07
1703.82	5.34635e-08
1712.49	1.54788e-07
1721.17	1.44396e-07
1729.85	5.9477e-08
1738.53	-5.76262e-08
1747.21	-3.18394e-08
1755.88	1.35023e-08
1764.56	8.18596e-08
1773.24	-1.24966e-07
1781.92	1.05282e-07
1790.6	2.85125e-08
1799.28	-7.36314e-08
1807.95	-5.71524e-08
1816.63	-1.93539e-08
1825.31	-4.85759e-08
1833.99	2.81314e-08
1842.67	-2.43816e-08
1851.34	2.34985e-08
1860.02	3.69471e-08
1868.7	-7.84271e-08
1877.38	4.52517e-08
1886.06	4.31935e-08
1894.74	6.95751e-08
1903.41	6.38098e-08
1912.09	-1.3877e-08
1920.77	-1.78878e-08
1929.45	-2.09437e-08
1938.13	-4.62958e-08
1946.8	-3.86188e-08
1955.48	-6.8822e-08
1964.16	-3.43205e-08
1972.84	-1.77933e-08
1981.52	3.16211e-08
1990.19	5.92624e-08
1998.87	2.02116e-08
2007.55	1.30222e-07
2016.23	4.52369e-07
2024.91	1.51064e-06
2033.59	2.07792e-06
2042.26	1.35658e-06
2050.94	2.92688e-07
2059.62	1.411e-07
2068.3	5.8924e-08
2076.98	3.78111e-08
2085.65	7.61925e-08
2094.33	1.70796e-07
2103.01	3.15974e-07
2111.69	3.48869e-07
2120.37	2.9805e-07
2129.05	2.40042e-07
2137.72	1.6151e-07
2146.4	1.47228e-07
2155.08	8.55157e-08
2163.76	1.19139e-07
2172.44	3.00807e-07
2181.11	4.77183e-07
2189.79	8.38281e-07
2198.47	9.66826e-07
2207.15	1.33684e-06
2215.83	1.58611e-06
2224.51	1.50271e-06
2233.18	1.50124e-06
2241.86	1.04779e-06
2250.54	7.13609e-07
2259.22	3.88043e-07
2267.9	2.38067e-07
2276.57	1.68917e-07
2285.25	1.93847e-07
2293.93	1.9147e-07
2302.61	1.72602e-07
2311.29	1.49708e-07
2319.97	7.32249e-08
2328.64	-1.24476e-07
2337.32	-3.75799e-07
2346	-1.72459e-07
2354.68	-4.37163e-07
2363.36	-7.90221e-07
2372.03	-8.26908e-09
2380.71	9.90403e-07
2389.39	1.1065e-06
2398.07	6.74374e-07
2406.75	5.78309e-07
2415.43	5.78169e-07
2424.1	7.16143e-07
2432.78	5.97187e-07
2441.46	5.86173e-07
2450.14	4.85087e-07
2458.82	6.75362e-07
2467.49	5.76265e-07
2476.17	3.63409e-07
2484.85	2.55797e-07
2493.53	3.44465e-07
2502.21	5.09546e-07
2510.89	6.72697e-07
2519.56	7.96651e-07
2528.24	5.22528e-07
2536.92	5.1763e-07
2545.6	3.45813e-07
2554.28	1.89225e-07
2562.95	-3.60222e-08
2571.63	-3.93082e-08
2580.31	-1.33404e-07
2588.99	-9.90298e-08
2597.67	-1.31794e-07
2606.35	-1.07884e-07
2615.02	-1.0766e-07
2623.7	-5.96216e-08
2632.38	-3.3251e-08
2641.06	2.68491e-08
2649.74	2.75985e-08
2658.41	2.51929e-10
2667.09	1.47324e-07
2675.77	6.27582e-07
2684.45	1.82724e-06
2693.13	1.75015e-06
2701.81	3.82851e-07
2710.48	1.8708e-07
2719.16	3.56317e-07
2727.84	4.04578e-07
2736.52	5.56493e-07
2745.2	4.75622e-07
2753.87	1.26064e-06
2762.55	2.2922e-06
2771.23	2.34715e-06
2779.91	2.41979e-07
2788.59	1.24868e-07
2797.27	1.18025e-08
2805.94	-4.26906e-08
2814.62	3.56038e-08
2823.3	1.51399e-07
2831.98	5.07823e-07
2840.66	1.42103e-06
2849.33	3.06929e-06
2858.01	3.67193e-06
2866.69	4.68924e-06
2875.37	4.82495e-06
2884.05	1.01213e-05
2892.73	1.06224e-05
2901.4	1.21735e-05
2910.08	3.42857e-06
2918.76	2.3814e-06
2927.44	2.02791e-06
2936.12	4.39159e-06
2944.79	1.12966e-05
2953.47	2.50242e-05
2962.15	2.70928e-05
2970.83	4.64755e-05
2979.51	5.52523e-05
2988.19	5.7814e-05
2996.86	3.60028e-05
3005.54	2.89727e-05
3014.22	2.42447e-05
3022.9	1.76862e-05
3031.58	1.43682e-05
3040.25	9.87379e-06
3048.93	7.89308e-06
3057.61	5.21452e-06
3066.29	2.92021e-06
3074.97	1.60233e-06
3083.65	9.30963e-07
3092.32	6.81075e-07
3101	5.925e-07
3109.68	5.3631e-07
3118.36	4.37005e-07
3127.04	3.3255e-07
3135.71	1.11707e-07
3144.39	7.31648e-08
3153.07	4.01967e-08
3161.75	1.56778e-08
3170.43	-4.29907e-08
3179.11	2.5674e-08
3187.78	1.16831e-07
3196.46	2.21415e-07
3205.14	2.07421e-07
3213.82	1.63474e-07
3222.5	1.40505e-07
3231.17	1.06252e-07
3239.85	4.65077e-08
3248.53	5.66903e-08
3257.21	1.07955e-07
3265.89	9.3451e-08
3274.57	1.19515e-07
3283.24	3.62823e-08
3291.92	4.74672e-08
3300.6	-4.54418e-08
3309.28	-3.61422e-08
3317.96	-1.09377e-07
3326.63	-5.6623e-08
3335.31	-6.95205e-08
3343.99	-1.40689e-08
3352.67	-4.58883e-08
3361.35	-2.07973e-08
3370.03	-4.87487e-10
3378.7	4.8786e-08
3387.38	-4.29279e-08
3396.06	-4.72089e-08
3404.74	1.7641e-07
3413.42	1.69709e-07
3422.09	3.06735e-08
3430.77	-3.63796e-12
3439.45	-1.2953e-08
3448.13	-4.95772e-08
3456.81	-1.17897e-08
3465.49	-3.39476e-08
3474.16	-2.56831e-08
3482.84	7.54595e-08
3491.52	-6.7888e-08
3500.2	-9.30918e-08
3508.88	-1.14091e-07
3517.55	-1.29781e-07
3526.23	-4.89424e-08
3534.91	-5.76726e-08
3543.59	-5.77026e-08
3552.27	-3.26389e-08
3560.95	-5.34253e-08
3569.62	-1.49945e-07
3578.3	-1.01516e-07
3586.98	-1.4439e-07
3595.66	-6.18562e-08
3604.34	-5.01329e-08
3613.01	1.33831e-08
3621.69	1.08018e-07
3630.37	-3.68134e-08
3639.05	2.58387e-07
3647.73	1.06187e-07
3656.41	2.36173e-07
3665.08	3.12167e-07
3673.76	3.03052e-07
3682.44	3.69539e-07
3691.12	4.64404e-08
3699.8	2.39186e-07
3708.47	1.6778e-07
3717.15	2.14067e-07
3725.83	2.47132e-07
3734.51	3.30749e-07
3743.19	6.71986e-07
3751.87	8.34966e-07
3760.54	1.17987e-06
3769.22	9.91862e-07
3777.9	1.06956e-06
3786.58	9.63626e-07
3795.26	6.00357e-07
3803.93	8.22068e-07
3812.61	5.07299e-07
3821.29	2.06347e-07
3829.97	3.23462e-07
3838.65	2.4127e-08
3847.33	3.19236e-07
3856	6.60162e-08
3864.68	-5.97753e-08
3873.36	-3.66415e-08
3882.04	5.3147e-08
3890.72	1.20962e-08
3899.39	-1.654e-08
3908.07	9.37921e-08
3916.75	-2.77876e-08
3925.43	3.29663e-08
3934.11	6.76515e-08
3942.79	1.30812e-07
3951.46	2.26507e-07
3960.14	3.0657e-07
3968.82	2.65087e-07
