Infrared Spectrum: Nitrile-Propenoic Acid
Formula: C H2: C H C N
CAS: 107-13-1
State: gas
Melting point: -83.5 C
Boiling point: 77.5 C
Class: IUPAC A
Instrument: IFS66V (Bruker)
Instrument parameters: KBr Beam splitter; MCT Detector; Multipass cell
Sampling: 1 L/min Flow
Resolution: 0.2410
Temperature: 23 C
Pressure: 101.3 kPa
Origin: NIST, Anayltical Chemistry Division, 301-975-3108
cm-1	(micromol/mol)-1m-1 (base 10)
575.048	-1.12522e-07
583.606	4.1731e-07
592.163	5.70642e-07
600.721	3.62401e-07
609.279	2.50748e-07
617.836	1.17536e-06
626.394	2.3134e-06
634.951	5.37834e-06
643.509	9.30557e-06
652.067	1.39415e-05
660.624	3.22497e-05
669.182	2.27272e-05
677.74	2.50116e-05
686.297	1.85361e-05
694.855	1.69384e-05
703.412	1.50434e-05
711.97	2.41809e-05
720.528	8.75824e-06
729.085	1.15373e-05
737.643	4.22806e-06
746.201	2.63357e-06
754.758	1.64207e-06
763.316	1.77139e-06
771.873	3.75248e-06
780.431	4.58698e-06
788.989	2.25195e-06
797.546	3.85382e-06
806.104	1.20904e-06
814.662	2.59382e-07
823.219	1.01636e-07
831.777	1.53975e-07
840.334	5.62213e-07
848.892	2.68376e-06
857.45	7.81758e-06
866.007	5.0381e-06
874.565	6.20618e-06
883.123	7.64764e-06
891.68	6.48885e-06
900.238	1.26599e-05
908.795	2.76051e-05
917.353	3.60299e-05
925.911	4.61905e-05
934.468	7.5968e-05
943.026	0.000116642
951.584	0.000116418
960.141	9.0572e-05
968.699	0.000114083
977.256	8.60614e-05
985.814	0.000103616
994.372	6.67534e-05
1002.93	5.69908e-05
1011.49	3.43963e-05
1020.04	2.02605e-05
1028.6	9.89397e-06
1037.16	4.03941e-06
1045.72	1.86545e-06
1054.28	1.13278e-06
1062.83	1.32173e-06
1071.39	2.55911e-06
1079.95	1.00408e-05
1088.51	1.06796e-05
1097.06	7.78106e-06
1105.62	7.7996e-06
1114.18	2.20308e-06
1122.74	5.23239e-07
1131.29	3.15325e-07
1139.85	1.61183e-07
1148.41	1.32374e-07
1156.97	5.9008e-08
1165.52	1.24133e-07
1174.08	2.20485e-07
1182.64	2.15134e-07
1191.2	3.99293e-07
1199.75	2.68167e-07
1208.31	4.94964e-07
1216.87	1.96112e-07
1225.43	3.16183e-07
1233.99	1.87672e-07
1242.54	2.11523e-07
1251.1	1.5925e-07
1259.66	6.55292e-07
1268.22	2.28153e-06
1276.77	2.26448e-06
1285.33	2.97682e-06
1293.89	3.25414e-06
1302.45	1.61011e-06
1311	2.36778e-06
1319.56	2.54891e-06
1328.12	2.23332e-06
1336.68	3.63034e-06
1345.23	2.79777e-06
1353.79	3.44444e-06
1362.35	2.77213e-06
1370.91	4.33896e-06
1379.46	6.23243e-06
1388.02	5.82943e-06
1396.58	1.14916e-05
1405.14	2.39168e-05
1413.7	1.01808e-05
1422.25	2.44445e-05
1430.81	2.10768e-05
1439.37	8.91304e-06
1447.93	6.37397e-06
1456.48	5.20686e-06
1465.04	3.2359e-06
1473.6	3.80927e-06
1482.16	4.04497e-07
1490.71	1.40177e-06
1499.27	3.05955e-07
1507.83	5.53505e-07
1516.39	5.80302e-07
1524.94	4.50756e-07
1533.5	5.84937e-07
1542.06	4.03759e-06
1550.62	4.24966e-07
1559.18	1.0709e-06
1567.73	8.49702e-07
1576.29	7.01427e-06
1584.85	1.81972e-06
1593.41	4.47578e-06
1601.96	1.4629e-05
1610.52	1.02975e-05
1619.08	1.06801e-05
1627.64	1.53264e-05
1636.19	9.2387e-06
1644.75	8.64129e-06
1653.31	1.46367e-05
1661.87	7.68206e-06
1670.42	3.7853e-06
1678.98	2.68573e-06
1687.54	1.35917e-06
1696.1	5.09674e-06
1704.65	1.03116e-06
1713.21	3.39583e-07
1721.77	1.84278e-07
1730.33	4.58344e-07
1738.89	2.8742e-07
1747.44	3.28358e-07
1756	1.0334e-07
1764.56	3.16881e-08
1773.12	5.19198e-07
1781.67	3.77025e-08
1790.23	1.0837e-07
1798.79	8.18896e-09
1807.35	2.33227e-08
1815.9	5.76083e-08
1824.46	3.44132e-07
1833.02	7.03455e-07
1841.58	4.52776e-07
1850.13	9.11645e-07
1858.69	7.7144e-07
1867.25	8.74908e-07
1875.81	1.6312e-06
1884.36	5.5058e-06
1892.92	1.20653e-05
1901.48	1.58686e-05
1910.04	1.05656e-05
1918.6	1.93923e-05
1927.15	7.71728e-06
1935.71	3.14177e-06
1944.27	3.56412e-06
1952.83	2.02989e-06
1961.38	1.21409e-06
1969.94	7.59908e-07
1978.5	5.44807e-07
1987.06	3.98038e-07
1995.61	1.81876e-07
2004.17	1.19794e-07
2012.73	1.5573e-07
2021.29	9.0405e-08
2029.84	1.35258e-08
2038.4	5.99848e-08
2046.96	2.38077e-07
2055.52	1.26524e-07
2064.08	2.4968e-07
2072.63	4.44345e-08
2081.19	6.16427e-08
2089.75	7.18216e-08
2098.31	5.12956e-08
2106.86	2.21276e-09
2115.42	1.21288e-08
2123.98	-5.13956e-08
2132.54	-2.55446e-08
2141.09	6.30242e-08
2149.65	2.22741e-08
2158.21	1.32003e-07
2166.77	8.08282e-08
2175.32	6.0776e-08
2183.88	1.23758e-07
2192.44	1.3282e-07
2201	6.16573e-08
2209.55	2.64372e-07
2218.11	9.25552e-07
2226.67	2.21475e-06
2235.23	1.94292e-06
2243.79	2.00347e-06
2252.34	2.19012e-06
2260.9	6.53671e-07
2269.46	1.10474e-06
2278.02	7.79566e-07
2286.57	1.23495e-06
2295.13	1.15268e-06
2303.69	4.34107e-07
2312.25	4.37812e-07
2320.8	2.12287e-07
2329.36	1.12897e-07
2337.92	2.43163e-07
2346.48	1.24397e-07
2355.03	1.8816e-07
2363.59	3.94874e-07
2372.15	4.4509e-07
2380.71	7.1653e-07
2389.26	5.28261e-07
2397.82	5.56363e-07
2406.38	4.16834e-07
2414.94	2.26109e-07
2423.5	2.41592e-07
2432.05	2.44567e-07
2440.61	2.79983e-07
2449.17	5.44236e-07
2457.73	5.7683e-07
2466.28	5.22051e-07
2474.84	8.10971e-07
2483.4	5.25486e-07
2491.96	5.65059e-07
2500.51	2.91774e-07
2509.07	2.88422e-07
2517.63	1.80464e-07
2526.19	2.10603e-07
2534.74	2.05418e-07
2543.3	2.54103e-07
2551.86	2.03327e-07
2560.42	2.52193e-07
2568.98	9.67658e-07
2577.53	2.16741e-07
2586.09	1.83254e-07
2594.65	1.60494e-07
2603.21	8.68763e-08
2611.76	3.07677e-09
2620.32	-5.55974e-08
2628.88	-2.40339e-08
2637.44	-2.90351e-08
2645.99	1.76885e-08
2654.55	-6.77772e-08
2663.11	5.07481e-08
2671.67	-5.92071e-09
2680.22	2.37933e-07
2688.78	4.26646e-07
2697.34	5.22512e-07
2705.9	4.92902e-07
2714.45	6.94204e-07
2723.01	4.19512e-07
2731.57	1.53395e-07
2740.13	7.21627e-08
2748.69	6.38673e-08
2757.24	3.3729e-08
2765.8	3.74406e-08
2774.36	2.17946e-07
2782.92	1.54445e-07
2791.47	1.55794e-07
2800.03	1.23415e-07
2808.59	1.283e-07
2817.15	5.7882e-08
2825.7	2.12727e-08
2834.26	7.73213e-08
2842.82	-9.39056e-08
2851.38	-1.06326e-07
2859.93	-1.50702e-07
2868.49	3.17781e-08
2877.05	1.47094e-07
2885.61	1.56545e-07
2894.16	2.28742e-07
2902.72	1.44755e-07
2911.28	1.36869e-07
2919.84	3.36074e-07
2928.4	8.1343e-08
2936.95	1.32898e-07
2945.51	-2.97473e-08
2954.07	4.68901e-08
2962.63	8.37085e-08
2971.18	1.80391e-07
2979.74	1.33521e-07
2988.3	3.45719e-07
2996.86	4.33307e-07
3005.41	5.23937e-07
3013.97	5.5431e-07
3022.53	2.19963e-06
3031.09	6.19493e-06
3039.64	5.39767e-06
3048.2	6.23725e-06
3056.76	6.71337e-06
3065.32	2.21757e-06
3073.88	1.25984e-06
3082.43	9.88732e-07
3090.99	1.8844e-06
3099.55	2.46628e-06
3108.11	6.52569e-06
3116.66	9.89461e-06
3125.22	2.37022e-06
3133.78	1.01283e-05
3142.34	3.81345e-06
3150.89	1.34921e-06
3159.45	9.35117e-07
3168.01	6.98605e-07
3176.57	4.23616e-07
3185.12	1.18607e-07
3193.68	-4.10175e-09
3202.24	-5.70717e-08
3210.8	-2.42829e-07
3219.35	-3.33079e-08
3227.91	-9.67032e-08
3236.47	-8.52183e-08
3245.03	-9.03114e-08
3253.59	-1.51926e-07
3262.14	-1.46178e-07
3270.7	-2.55318e-08
3279.26	1.2971e-08
3287.82	-7.06548e-08
3296.37	5.13074e-08
3304.93	-6.14108e-08
3313.49	7.88164e-08
3322.05	3.24574e-07
3330.6	2.82339e-08
3339.16	5.01515e-07
3347.72	2.83082e-07
3356.28	9.32308e-09
3364.83	9.53108e-08
3373.39	3.26794e-08
3381.95	5.73027e-08
3390.51	-5.94445e-08
3399.06	-9.24204e-08
3407.62	-2.38365e-07
3416.18	-6.85184e-08
3424.74	6.18792e-08
3433.3	-8.503e-08
3441.85	-2.11163e-08
3450.41	6.91059e-08
3458.97	4.20225e-08
3467.53	-2.52472e-08
3476.08	9.88059e-08
3484.64	-7.53177e-08
3493.2	-8.40196e-08
3501.76	-4.92474e-08
3510.31	-4.35459e-09
3518.87	1.90633e-07
3527.43	2.74316e-07
3535.99	5.94618e-08
3544.54	1.72698e-07
3553.1	6.53088e-08
3561.66	-1.07701e-08
3570.22	1.34435e-07
3578.78	-6.7196e-08
3587.33	5.23124e-08
3595.89	1.18566e-07
3604.45	9.66868e-08
3613.01	4.71724e-07
3621.56	2.18056e-07
3630.12	4.27902e-07
3638.68	2.56109e-07
3647.24	1.32979e-06
3655.79	7.01427e-07
3664.35	2.51499e-07
3672.91	3.68197e-07
3681.47	3.93141e-08
3690.02	1.0138e-07
3698.58	6.74716e-08
3707.14	1.18334e-07
3715.7	-3.85892e-08
3724.25	8.70136e-08
3732.81	1.68373e-07
3741.37	5.8585e-07
3749.93	6.4804e-07
3758.49	-7.9996e-08
3767.04	9.72143e-09
3775.6	-6.9728e-08
3784.16	-8.58431e-08
3792.72	-6.25058e-08
3801.27	3.40118e-06
3809.83	-6.75935e-08
3818.39	1.14613e-07
3826.95	6.78637e-07
3835.5	4.28608e-07
3844.06	6.27005e-07
3852.62	7.00885e-07
3861.18	4.55197e-07
3869.73	4.74068e-07
3878.29	3.25848e-08
3886.85	2.03174e-07
3895.41	1.42974e-07
3903.96	9.05034e-07
3912.52	6.07978e-08
3921.08	2.22769e-07
3929.64	3.65286e-07
3938.2	3.04342e-07
3946.75	1.47121e-07
3955.31	1.06407e-07
3963.87	1.00051e-07
3972.43	1.73421e-07
