Infrared Spectrum: 3-CHLORO PROPENE
Formula: C3 H5 Cl
CAS: 107-05-1
State: LIQUID
Melting point: 45-45.5 C
Class: COBLENTZ
Instrument: Not specified, most likely a prism, grating, or hybrid spectrometer.
Sampling: TRANSMISSION
Path length: 0.003 CM
Resolution: 4
Origin: WYANDOTTE CHEMICALS CORP., WYANDOTTE, MICHIGAN, USA
MICROMETERS	TRANSMITTANCE
2.019	0.938
2.05771	0.938
2.09642	0.944
2.13513	0.919
2.17384	0.907
2.21256	0.907
2.25127	0.917
2.28998	0.919
2.32869	0.927
2.3674	0.936
2.40611	0.935
2.44482	0.943
2.48353	0.944
2.52225	0.943
2.56096	0.943
2.59967	0.957
2.63838	0.956
2.67709	0.949
2.7158	0.949
2.75451	0.944
2.79322	0.944
2.83194	0.944
2.87065	0.941
2.90936	0.941
2.94807	0.938
2.98678	0.941
3.02549	0.94
3.0642	0.94
3.10291	0.935
3.14162	0.923
3.18034	0.902
3.21905	0.721
3.25776	0.713
3.29647	0.723
3.33518	0.585
3.37389	0.546
3.4126	0.778
3.45131	0.839
3.49003	0.854
3.52874	0.907
3.56745	0.943
3.60616	0.953
3.64487	0.962
3.68358	0.953
3.72229	0.935
3.761	0.966
3.79972	0.969
3.83843	0.962
3.87714	0.967
3.91585	0.964
3.95456	0.964
3.99327	0.964
4.03198	0.961
4.07069	0.962
4.1094	0.964
4.14812	0.964
4.18683	0.962
4.22554	0.941
4.26425	0.966
4.30296	0.962
4.34167	0.962
4.38038	0.959
4.41909	0.964
4.45781	0.969
4.49652	0.977
4.53523	0.975
4.57394	0.98
4.61265	0.972
4.65136	0.964
4.69007	0.969
4.72878	0.978
4.7675	0.978
4.80621	0.975
4.84492	0.972
4.88363	0.974
4.92234	0.98
4.96105	0.978
4.99976	0.978
5.03847	0.974
5.07719	0.956
5.1159	0.948
5.15461	0.938
5.19332	0.954
5.23203	0.956
5.27074	0.949
5.30945	0.92
5.34816	0.838
5.38687	0.805
5.42559	0.849
5.4643	0.909
5.50301	0.933
5.54172	0.951
5.58043	0.967
5.61914	0.966
5.65785	0.966
5.69656	0.964
5.73528	0.956
5.77399	0.935
5.8127	0.917
5.85141	0.93
5.89012	0.925
5.92883	0.932
5.96754	0.919
6.00625	0.891
6.04497	0.699
6.08368	0.695
6.12239	0.878
6.1611	0.907
6.19981	0.919
6.23852	0.915
6.27723	0.899
6.31594	0.899
6.35465	0.92
6.39337	0.92
6.43208	0.92
6.47079	0.911
6.5095	0.902
6.54821	0.904
6.58692	0.911
6.62563	0.912
6.66434	0.907
6.70306	0.888
6.74177	0.872
6.78048	0.823
6.81919	0.752
6.8579	0.53
6.89661	0.368
6.93532	0.519
6.97403	0.558
7.01275	0.587
7.05146	0.265
7.09017	0.37
7.12888	0.637
7.16759	0.799
7.2063	0.846
7.24501	0.867
7.28372	0.88
7.32243	0.888
7.36115	0.891
7.39986	0.894
7.43857	0.893
7.47728	0.877
7.51599	0.859
7.5547	0.843
7.59341	0.83
7.63212	0.805
7.67084	0.749
7.70955	0.621
7.74826	0.49
7.78697	0.569
7.82568	0.648
7.86439	0.603
7.9031	0.326
7.94181	0.101
7.98053	0.194
8.01924	0.559
8.05795	0.689
8.09666	0.745
8.13537	0.766
8.17408	0.788
8.21279	0.813
8.2515	0.834
8.29021	0.831
8.32893	0.809
8.36764	0.844
8.40635	0.868
8.44506	0.872
8.48377	0.843
8.52248	0.838
8.56119	0.886
8.5999	0.911
8.63862	0.92
8.67733	0.928
8.71604	0.936
8.75475	0.941
8.79346	0.943
8.83217	0.94
8.87088	0.932
8.90959	0.932
8.94831	0.917
8.98702	0.904
9.02573	0.878
9.06444	0.83
9.10315	0.839
9.14186	0.868
9.18057	0.885
9.21928	0.886
9.258	0.881
9.29671	0.872
9.33542	0.862
9.37413	0.854
9.41284	0.843
9.45155	0.822
9.49026	0.804
9.52897	0.802
9.56768	0.8
9.6064	0.8
9.64511	0.797
9.68382	0.789
9.72253	0.779
9.76124	0.762
9.79995	0.75
9.83866	0.734
9.87737	0.705
9.91609	0.669
9.9548	0.614
9.99351	0.53
10.0322	0.389
10.0709	0.205
10.1096	0.121
10.1484	0.101
10.1871	0.142
10.2258	0.26
10.2645	0.365
10.3032	0.457
10.3419	0.506
10.3806	0.537
10.4193	0.542
10.458	0.53
10.4968	0.498
10.5355	0.441
10.5742	0.359
10.6129	0.247
10.6516	0.15
10.6903	0.059
10.729	0.037
10.7677	0.037
10.8064	0.043
10.8452	0.061
10.8839	0.097
10.9226	0.127
10.9613	0.19
11	0.299
11.0387	0.407
11.0774	0.483
11.1161	0.506
11.1548	0.441
11.1936	0.357
11.2323	0.446
11.271	0.576
11.3097	0.658
11.3484	0.708
11.3871	0.745
11.4258	0.775
11.4645	0.797
11.5032	0.817
11.542	0.83
11.5807	0.841
11.6194	0.847
11.6581	0.854
11.6968	0.86
11.7355	0.87
11.7742	0.868
11.8129	0.873
11.8516	0.877
11.8904	0.881
11.9291	0.88
11.9678	0.883
12.0065	0.885
12.0452	0.883
12.0839	0.883
12.1226	0.881
12.1613	0.881
12.2	0.88
12.2388	0.88
12.2775	0.872
12.3162	0.87
12.3549	0.868
12.3936	0.867
12.4323	0.865
12.471	0.862
12.5097	0.859
12.5484	0.855
12.5872	0.852
12.6259	0.839
12.6646	0.831
12.7033	0.83
12.742	0.823
12.7807	0.82
12.8194	0.812
12.8581	0.802
12.8968	0.791
12.9356	0.775
12.9743	0.765
13.013	0.745
13.0517	0.729
13.0904	0.707
13.1291	0.671
13.1678	0.648
13.2065	0.611
13.2452	0.564
13.284	0.521
13.3227	0.448
13.3614	0.357
13.4001	0.262
13.4388	0.186
13.4775	0.114
13.5162	0.077
13.5549	0.059
13.5936	0.053
13.6324	0.055
13.6711	0.059
13.7098	0.067
13.7485	0.079
13.7872	0.1
13.8259	0.137
13.8646	0.174
13.9033	0.228
13.9421	0.279
13.9808	0.318
14.0195	0.362
14.0582	0.396
14.0969	0.43
14.1356	0.466
14.1743	0.496
14.213	0.522
14.2517	0.548
14.2905	0.566
14.3292	0.588
14.3679	0.613
14.4066	0.626
14.4453	0.642
14.484	0.653
14.5227	0.671
14.5614	0.679
14.6001	0.689
14.6389	0.705
14.6776	0.718
14.7163	0.729
14.755	0.736
14.7937	0.741
14.8324	0.754
14.8711	0.757
14.9098	0.766
14.9485	0.775
14.9873	0.776
15.026	0.771
15.0647	0.766
15.1034	0.77
15.1421	0.783
15.1808	0.791
15.2195	0.789
15.2582	0.792
15.2969	0.792
15.3357	0.786
15.3744	0.786
15.4131	0.786
15.4518	0.784
15.4905	0.781
15.5292	0.778
15.5679	0.778
15.6066	0.781
15.6453	0.776
15.6841	0.776
15.7228	0.775
15.7615	0.771
15.8002	0.766
15.8389	0.758
15.8776	0.755
15.9163	0.755
15.955	0.744
15.9937	0.744
