Infrared Spectrum: Nitrile-Propenoic Acid
Formula: C H2: C H C N
CAS: 107-13-1
State: gas
Melting point: -83.5 C
Boiling point: 77.5 C
Class: IUPAC A
Instrument: IFS66V (Bruker)
Instrument parameters: KBr Beam splitter; MCT Detector; Multipass cell
Sampling: 1 L/min Flow
Resolution: 0.2410
Temperature: 23 C
Pressure: 101.3 kPa
Origin: NIST, Anayltical Chemistry Division, 301-975-3108
cm-1	(micromol/mol)-1m-1 (base 10)
575.048	-1.35785e-09
583.606	4.18958e-07
592.163	5.27318e-07
600.721	3.74752e-07
609.279	3.05805e-07
617.836	1.15877e-06
626.394	2.32197e-06
634.951	5.32697e-06
643.509	9.30334e-06
652.067	1.40603e-05
660.624	3.21311e-05
669.182	2.26153e-05
677.74	2.49884e-05
686.297	1.85689e-05
694.855	1.68554e-05
703.412	1.50463e-05
711.97	2.40064e-05
720.528	8.75228e-06
729.085	1.1381e-05
737.643	4.20278e-06
746.201	2.64006e-06
754.758	1.68822e-06
763.316	1.77422e-06
771.873	3.74414e-06
780.431	4.59664e-06
788.989	2.26836e-06
797.546	3.86634e-06
806.104	1.21172e-06
814.662	2.63073e-07
823.219	1.22902e-07
831.777	1.5942e-07
840.334	5.3284e-07
848.892	2.66887e-06
857.45	7.84265e-06
866.007	5.05195e-06
874.565	6.20722e-06
883.123	7.61519e-06
891.68	6.48097e-06
900.238	1.26816e-05
908.795	2.75915e-05
917.353	3.62365e-05
925.911	4.6361e-05
934.468	7.59495e-05
943.026	0.000113706
951.584	0.000117112
960.141	9.11484e-05
968.699	0.000114303
977.256	8.61908e-05
985.814	0.000104336
994.372	6.63991e-05
1002.93	5.68024e-05
1011.49	3.48368e-05
1020.04	2.03046e-05
1028.6	9.93891e-06
1037.16	4.0243e-06
1045.72	1.85309e-06
1054.28	1.14462e-06
1062.83	1.31471e-06
1071.39	2.56964e-06
1079.95	1.00514e-05
1088.51	1.06811e-05
1097.06	7.71319e-06
1105.62	7.80424e-06
1114.18	2.20598e-06
1122.74	5.32459e-07
1131.29	3.30445e-07
1139.85	1.67699e-07
1148.41	1.21587e-07
1156.97	7.21991e-08
1165.52	1.30158e-07
1174.08	2.17464e-07
1182.64	2.25975e-07
1191.2	3.7903e-07
1199.75	2.74985e-07
1208.31	4.88192e-07
1216.87	1.97507e-07
1225.43	3.16806e-07
1233.99	1.8962e-07
1242.54	2.22626e-07
1251.1	1.56878e-07
1259.66	6.5874e-07
1268.22	2.27504e-06
1276.77	2.27055e-06
1285.33	2.96184e-06
1293.89	3.2535e-06
1302.45	1.61903e-06
1311	2.37731e-06
1319.56	2.5273e-06
1328.12	2.23186e-06
1336.68	3.57476e-06
1345.23	2.79694e-06
1353.79	3.46688e-06
1362.35	2.76111e-06
1370.91	4.3364e-06
1379.46	6.15672e-06
1388.02	5.81823e-06
1396.58	1.15255e-05
1405.14	2.39299e-05
1413.7	1.02475e-05
1422.25	2.44612e-05
1430.81	2.06759e-05
1439.37	8.94428e-06
1447.93	6.22719e-06
1456.48	5.01542e-06
1465.04	3.24185e-06
1473.6	3.63472e-06
1482.16	4.04729e-07
1490.71	1.36039e-06
1499.27	3.22958e-07
1507.83	5.41245e-07
1516.39	5.83009e-07
1524.94	4.49917e-07
1533.5	6.4067e-07
1542.06	3.87683e-06
1550.62	4.49188e-07
1559.18	1.09777e-06
1567.73	8.61085e-07
1576.29	6.82149e-06
1584.85	1.82393e-06
1593.41	4.48734e-06
1601.96	1.44465e-05
1610.52	1.02937e-05
1619.08	1.07113e-05
1627.64	1.53671e-05
1636.19	9.28516e-06
1644.75	8.6289e-06
1653.31	1.41226e-05
1661.87	7.67904e-06
1670.42	3.79284e-06
1678.98	2.63555e-06
1687.54	1.3383e-06
1696.1	5.34672e-06
1704.65	1.10083e-06
1713.21	3.43331e-07
1721.77	1.88726e-07
1730.33	4.73976e-07
1738.89	2.85018e-07
1747.44	3.46116e-07
1756	1.11725e-07
1764.56	3.82063e-08
1773.12	5.76399e-07
1781.67	3.02657e-08
1790.23	1.09636e-07
1798.79	1.13194e-08
1807.35	2.44877e-08
1815.9	5.12428e-08
1824.46	3.45125e-07
1833.02	7.02479e-07
1841.58	4.54554e-07
1850.13	9.22977e-07
1858.69	7.75605e-07
1867.25	8.88757e-07
1875.81	1.63101e-06
1884.36	5.47943e-06
1892.92	1.20771e-05
1901.48	1.59178e-05
1910.04	1.05294e-05
1918.6	1.9333e-05
1927.15	7.71191e-06
1935.71	3.14965e-06
1944.27	3.56467e-06
1952.83	2.03767e-06
1961.38	1.22693e-06
1969.94	7.65578e-07
1978.5	5.43845e-07
1987.06	3.93963e-07
1995.61	1.8783e-07
2004.17	1.22376e-07
2012.73	1.51386e-07
2021.29	8.66034e-08
2029.84	1.4709e-08
2038.4	5.93945e-08
2046.96	2.35755e-07
2055.52	1.26636e-07
2064.08	2.38811e-07
2072.63	4.76286e-08
2081.19	6.21657e-08
2089.75	6.83629e-08
2098.31	5.60385e-08
2106.86	5.30227e-10
2115.42	1.36713e-08
2123.98	-3.85929e-08
2132.54	-2.18857e-08
2141.09	5.92935e-08
2149.65	2.73854e-08
2158.21	1.27049e-07
2166.77	8.19296e-08
2175.32	6.48141e-08
2183.88	1.18905e-07
2192.44	1.25948e-07
2201	6.9597e-08
2209.55	2.6049e-07
2218.11	9.23861e-07
2226.67	2.22501e-06
2235.23	1.94193e-06
2243.79	2.00652e-06
2252.34	2.18982e-06
2260.9	6.5607e-07
2269.46	1.10642e-06
2278.02	7.82664e-07
2286.57	1.24214e-06
2295.13	1.15061e-06
2303.69	4.33765e-07
2312.25	4.36481e-07
2320.8	2.10164e-07
2329.36	1.14569e-07
2337.92	2.57993e-07
2346.48	1.34638e-07
2355.03	1.9244e-07
2363.59	3.93764e-07
2372.15	4.51917e-07
2380.71	7.11935e-07
2389.26	5.34184e-07
2397.82	5.55061e-07
2406.38	4.10932e-07
2414.94	2.15316e-07
2423.5	2.37978e-07
2432.05	2.41446e-07
2440.61	2.79807e-07
2449.17	5.57137e-07
2457.73	5.72697e-07
2466.28	5.24956e-07
2474.84	8.11085e-07
2483.4	5.36789e-07
2491.96	5.47199e-07
2500.51	2.97777e-07
2509.07	2.75664e-07
2517.63	1.87124e-07
2526.19	2.0922e-07
2534.74	2.19447e-07
2543.3	2.57293e-07
2551.86	2.02713e-07
2560.42	2.52554e-07
2568.98	9.77857e-07
2577.53	2.20989e-07
2586.09	1.90853e-07
2594.65	1.57915e-07
2603.21	8.08855e-08
2611.76	9.05569e-09
2620.32	-4.18906e-08
2628.88	-2.96054e-08
2637.44	-2.122e-08
2645.99	3.53242e-09
2654.55	-4.96349e-08
2663.11	4.6268e-08
2671.67	4.80114e-09
2680.22	2.24542e-07
2688.78	4.14566e-07
2697.34	5.19776e-07
2705.9	4.86849e-07
2714.45	6.95131e-07
2723.01	4.30259e-07
2731.57	1.64548e-07
2740.13	7.82753e-08
2748.69	6.39919e-08
2757.24	4.01872e-08
2765.8	2.64449e-08
2774.36	2.18028e-07
2782.92	1.77034e-07
2791.47	1.57026e-07
2800.03	1.32394e-07
2808.59	1.44499e-07
2817.15	7.13614e-08
2825.7	1.01925e-08
2834.26	7.47092e-08
2842.82	-8.36094e-08
2851.38	-1.12626e-07
2859.93	-1.29972e-07
2868.49	2.86859e-08
2877.05	1.40425e-07
2885.61	1.49626e-07
2894.16	2.37279e-07
2902.72	1.49107e-07
2911.28	1.41946e-07
2919.84	3.24869e-07
2928.4	8.55575e-08
2936.95	1.26224e-07
2945.51	-1.15622e-08
2954.07	3.56007e-08
2962.63	6.04122e-08
2971.18	1.79395e-07
2979.74	1.51852e-07
2988.3	3.74051e-07
2996.86	4.3285e-07
3005.41	5.33678e-07
3013.97	5.61158e-07
3022.53	2.21053e-06
3031.09	6.17074e-06
3039.64	5.418e-06
3048.2	6.24795e-06
3056.76	6.73899e-06
3065.32	2.20513e-06
3073.88	1.24148e-06
3082.43	1.00263e-06
3090.99	1.87845e-06
3099.55	2.47912e-06
3108.11	6.59276e-06
3116.66	9.90717e-06
3125.22	2.37728e-06
3133.78	1.01156e-05
3142.34	3.81918e-06
3150.89	1.32768e-06
3159.45	9.35644e-07
3168.01	6.8891e-07
3176.57	4.36717e-07
3185.12	1.07419e-07
3193.68	-4.28456e-09
3202.24	-6.9065e-08
3210.8	-2.31344e-07
3219.35	-2.87223e-08
3227.91	-1.16261e-07
3236.47	-8.07209e-08
3245.03	-1.01397e-07
3253.59	-1.5914e-07
3262.14	-1.38236e-07
3270.7	-4.24836e-08
3279.26	-5.31864e-09
3287.82	-6.97999e-08
3296.37	3.87175e-08
3304.93	-6.79709e-08
3313.49	9.17465e-08
3322.05	3.10095e-07
3330.6	4.48756e-08
3339.16	4.88484e-07
3347.72	2.77191e-07
3356.28	5.38958e-09
3364.83	1.11573e-07
3373.39	2.12827e-08
3381.95	5.18522e-08
3390.51	-6.802e-08
3399.06	-8.17877e-08
3407.62	-2.19016e-07
3416.18	-8.09928e-08
3424.74	6.79172e-08
3433.3	-7.58352e-08
3441.85	-2.7439e-08
3450.41	4.66536e-08
3458.97	1.37386e-08
3467.53	-2.48061e-08
3476.08	9.80747e-08
3484.64	-5.19095e-08
3493.2	-7.78187e-08
3501.76	-1.54493e-08
3510.31	2.30426e-08
3518.87	2.01704e-07
3527.43	2.76336e-07
3535.99	5.40986e-08
3544.54	1.51959e-07
3553.1	5.85887e-08
3561.66	-1.36831e-08
3570.22	1.20935e-07
3578.78	-5.6697e-08
3587.33	6.88458e-08
3595.89	1.06423e-07
3604.45	1.06531e-07
3613.01	4.67435e-07
3621.56	2.12346e-07
3630.12	4.49027e-07
3638.68	2.74182e-07
3647.24	1.31699e-06
3655.79	7.02974e-07
3664.35	2.61536e-07
3672.91	3.4578e-07
3681.47	4.8177e-08
3690.02	1.16694e-07
3698.58	5.37439e-08
3707.14	1.04819e-07
3715.7	-4.2229e-08
3724.25	7.4561e-08
3732.81	1.74726e-07
3741.37	5.48585e-07
3749.93	6.88395e-07
3758.49	-7.10722e-08
3767.04	-1.45517e-10
3775.6	-6.33544e-08
3784.16	-8.82568e-08
3792.72	-7.02855e-08
3801.27	3.5134e-06
3809.83	-7.64791e-08
3818.39	1.08585e-07
3826.95	7.07707e-07
3835.5	4.47135e-07
3844.06	6.60945e-07
3852.62	7.0971e-07
3861.18	4.56222e-07
3869.73	5.24978e-07
3878.29	4.96449e-08
3886.85	1.86985e-07
3895.41	1.57728e-07
3903.96	9.93018e-07
3912.52	8.90972e-08
3921.08	2.23385e-07
3929.64	3.48669e-07
3938.2	2.81614e-07
3946.75	1.29734e-07
3955.31	1.07231e-07
3963.87	9.06688e-08
3972.43	1.84371e-07
