Infrared Spectrum: 1,2-Dichloroethane
Formula: Cl C H2 C H2 Cl
CAS: 107-06-2
State: gas
Melting point: -35.36 C
Boiling point: 83.47 C
Class: IUPAC A
Instrument: IFS66V (Bruker)
Instrument parameters: KBr Beam Splitter; MCT Detector; Multipass cell
Sampling: 1 L/min Flow
Resolution: 0.4820
Temperature: 23 C
Pressure: 101.3 Pa
Origin: NIST, Analytical Chemistry Division, 301-975-3108
cm-1	(micromol/mol)-1m-1 (base 10)
575.17	1.82212e-07
583.848	1.00656e-06
592.526	1.20025e-06
601.205	-3.21935e-07
609.883	-4.74164e-07
618.561	2.39838e-07
627.239	6.60219e-07
635.917	7.56197e-07
644.595	3.29046e-06
653.274	8.43768e-06
661.952	1.54013e-05
670.63	1.58202e-05
679.308	2.61896e-05
687.986	3.98521e-05
696.664	3.15271e-05
705.343	4.21214e-05
714.021	0.000201895
722.699	0.000546517
731.377	0.000595267
740.055	6.12199e-05
748.734	6.83569e-06
757.412	7.4066e-06
766.09	7.89811e-06
774.768	6.27236e-06
783.446	4.68996e-06
792.124	4.10557e-06
800.803	2.7539e-06
809.481	1.88685e-06
818.159	1.73474e-06
826.837	1.99835e-06
835.515	1.87561e-06
844.193	1.15598e-06
852.872	7.48337e-07
861.55	9.57011e-07
870.228	2.42828e-06
878.906	1.24882e-05
887.584	1.97736e-05
896.263	2.15871e-05
904.941	6.47899e-06
913.619	2.14114e-06
922.297	2.27782e-06
930.975	5.14856e-06
939.653	9.14896e-06
948.332	7.64719e-06
957.01	8.40534e-06
965.688	3.65694e-06
974.366	1.80796e-06
983.044	2.68624e-06
991.723	3.30225e-06
1000.4	2.12083e-06
1009.08	1.76143e-06
1017.76	3.32373e-06
1026.44	4.7677e-06
1035.11	3.15381e-06
1043.79	1.14228e-06
1052.47	4.60452e-07
1061.15	9.75546e-08
1069.83	8.41251e-08
1078.5	2.9183e-07
1087.18	4.80824e-07
1095.86	1.01503e-06
1104.54	1.80811e-06
1113.22	2.21654e-06
1121.9	3.99449e-06
1130.57	3.69555e-06
1139.25	3.03395e-06
1147.93	2.46044e-06
1156.61	1.96421e-06
1165.29	1.30079e-06
1173.96	8.98305e-07
1182.64	1.04473e-06
1191.32	1.93061e-06
1200	3.89781e-06
1208.68	7.18486e-06
1217.36	1.90301e-05
1226.03	0.000151048
1234.71	0.000141381
1243.39	7.04293e-05
1252.07	9.80686e-06
1260.75	6.24233e-06
1269.42	4.92448e-06
1278.1	1.5039e-05
1286.78	4.27574e-05
1295.46	3.52101e-05
1304.14	2.39506e-05
1312.82	9.6306e-06
1321.49	1.15021e-05
1330.17	7.07319e-06
1338.85	4.11447e-06
1347.53	3.00854e-06
1356.21	2.95723e-06
1364.88	2.32884e-06
1373.56	1.20848e-06
1382.24	1.20852e-06
1390.92	9.14949e-07
1399.6	9.109e-07
1408.28	1.74218e-06
1416.95	3.99448e-06
1425.63	1.12826e-05
1434.31	1.81331e-05
1442.99	2.64691e-05
1451.67	3.03162e-05
1460.34	1.85521e-05
1469.02	2.17834e-05
1477.7	1.29467e-05
1486.38	7.93325e-06
1495.06	4.02959e-06
1503.73	1.8075e-06
1512.41	7.37589e-07
1521.09	1.45908e-06
1529.77	2.72638e-06
1538.45	1.56125e-06
1547.13	7.2339e-07
1555.8	1.79339e-07
1564.48	1.69588e-07
1573.16	2.49502e-07
1581.84	2.12825e-07
1590.52	1.10628e-07
1599.19	1.24546e-08
1607.87	3.64014e-08
1616.55	-9.42314e-07
1625.23	8.15176e-09
1633.91	-7.77332e-08
1642.59	-1.69734e-07
1651.26	-1.35202e-07
1659.94	-4.55382e-08
1668.62	1.73212e-08
1677.3	1.73989e-07
1685.98	1.42842e-07
1694.65	1.19573e-07
1703.33	8.0991e-08
1712.01	2.3521e-07
1720.69	1.65428e-07
1729.37	7.27537e-08
1738.05	2.18678e-08
1746.72	-5.30742e-08
1755.4	5.81946e-08
1764.08	5.53215e-08
1772.76	-6.86506e-07
1781.44	9.64041e-08
1790.11	7.02636e-08
1798.79	-4.90079e-08
1807.47	-1.10252e-07
1816.15	6.23956e-08
1824.83	-6.9315e-08
1833.51	9.05852e-10
1842.18	-1.63272e-08
1850.86	9.54182e-08
1859.54	1.37979e-08
1868.22	-2.25763e-08
1876.9	7.81188e-08
1885.57	1.31744e-07
1894.25	2.40105e-08
1902.93	5.62074e-08
1911.61	-4.12117e-08
1920.29	-1.24527e-08
1928.97	-4.03723e-08
1937.64	-3.14438e-08
1946.32	-8.27654e-08
1955	-5.03666e-08
1963.68	-1.32695e-08
1972.36	-7.04218e-09
1981.03	8.33457e-09
1989.71	-8.11902e-09
1998.39	-3.03124e-08
2007.07	1.23392e-07
2015.75	3.83443e-07
2024.43	1.46292e-06
2033.1	2.04076e-06
2041.78	1.47309e-06
2050.46	3.27126e-07
2059.14	1.11803e-07
2067.82	5.75061e-08
2076.49	7.88682e-08
2085.17	8.26326e-08
2093.85	1.40863e-07
2102.53	3.34495e-07
2111.21	3.37595e-07
2119.89	3.01383e-07
2128.56	1.73663e-07
2137.24	2.00029e-07
2145.92	1.89469e-07
2154.6	7.42353e-08
2163.28	9.65524e-08
2171.95	3.06674e-07
2180.63	4.6659e-07
2189.31	8.70538e-07
2197.99	9.93495e-07
2206.67	1.2415e-06
2215.35	1.67538e-06
2224.02	1.50589e-06
2232.7	1.4377e-06
2241.38	1.11143e-06
2250.06	7.01922e-07
2258.74	3.74449e-07
2267.41	2.23283e-07
2276.09	1.7974e-07
2284.77	1.91751e-07
2293.45	1.95696e-07
2302.13	1.95055e-07
2310.81	1.14882e-07
2319.48	1.17222e-07
2328.16	2.55521e-07
2336.84	1.15673e-07
2345.52	-6.99107e-08
2354.2	-6.0589e-07
2362.87	-1.92041e-06
2371.55	-4.86969e-07
2380.23	1.04824e-06
2388.91	1.12409e-06
2397.59	6.81916e-07
2406.27	5.96481e-07
2414.94	6.20798e-07
2423.62	7.45207e-07
2432.3	6.26808e-07
2440.98	6.01411e-07
2449.66	4.92571e-07
2458.33	7.76188e-07
2467.01	5.54319e-07
2475.69	3.59631e-07
2484.37	2.72806e-07
2493.05	3.64418e-07
2501.73	4.12111e-07
2510.4	6.24804e-07
2519.08	8.02115e-07
2527.76	6.32097e-07
2536.44	5.08099e-07
2545.12	3.45172e-07
2553.79	2.74948e-07
2562.47	-5.40737e-08
2571.15	3.87388e-08
2579.83	-4.75736e-08
2588.51	-2.21606e-08
2597.19	-1.39942e-07
2605.86	-2.04517e-07
2614.54	-1.40524e-07
2623.22	-5.91814e-08
2631.9	-1.08411e-09
2640.58	9.01241e-08
2649.25	-2.53784e-08
2657.93	6.58926e-09
2666.61	1.15986e-07
2675.29	5.68274e-07
2683.97	1.75569e-06
2692.65	1.76324e-06
2701.32	3.48046e-07
2710	2.14944e-07
2718.68	3.55187e-07
2727.36	4.03305e-07
2736.04	6.32564e-07
2744.71	3.96525e-07
2753.39	1.11868e-06
2762.07	2.31307e-06
2770.75	2.41288e-06
2779.43	1.34217e-07
2788.11	1.16243e-07
2796.78	2.65653e-08
2805.46	-8.25326e-08
2814.14	3.56629e-08
2822.82	9.14438e-08
2831.5	4.67864e-07
2840.17	1.32399e-06
2848.85	2.9978e-06
2857.53	3.57539e-06
2866.21	4.48643e-06
2874.89	4.98229e-06
2883.57	9.03754e-06
2892.24	1.13702e-05
2900.92	1.34193e-05
2909.6	3.70405e-06
2918.28	2.51777e-06
2926.96	2.11897e-06
2935.63	4.11449e-06
2944.31	1.09019e-05
2952.99	2.42549e-05
2961.67	2.85052e-05
2970.35	4.47959e-05
2979.03	5.78914e-05
2987.7	5.92814e-05
2996.38	3.64715e-05
3005.06	2.87589e-05
3013.74	2.44738e-05
3022.42	1.84066e-05
3031.09	1.35064e-05
3039.77	9.57237e-06
3048.45	7.94652e-06
3057.13	5.42993e-06
3065.81	2.94483e-06
3074.49	1.63946e-06
3083.16	9.4776e-07
3091.84	5.8612e-07
3100.52	6.4298e-07
3109.2	5.39141e-07
3117.88	3.56693e-07
3126.55	3.48467e-07
3135.23	3.43569e-08
3143.91	1.29249e-07
3152.59	9.75783e-08
3161.27	-4.91434e-08
3169.95	-1.00934e-07
3178.62	-1.68016e-07
3187.3	9.05106e-08
3195.98	2.57528e-07
3204.66	1.60697e-07
3213.34	1.27601e-08
3222.01	6.89657e-08
3230.69	1.2531e-07
3239.37	-1.28238e-09
3248.05	8.24998e-08
3256.73	2.02265e-07
3265.4	-2.26599e-08
3274.08	3.57784e-08
3282.76	1.12358e-07
3291.44	9.38639e-08
3300.12	1.2953e-08
3308.8	-1.09148e-08
3317.47	-1.0248e-07
3326.15	-1.75453e-07
3334.83	-1.07564e-07
3343.51	-9.14747e-08
3352.19	-4.02613e-08
3360.86	1.05901e-08
3369.54	-7.76623e-08
3378.22	1.7585e-08
3386.9	-1.04116e-07
3395.58	-1.10632e-07
3404.26	9.24506e-08
3412.93	2.18382e-07
3421.61	-1.27613e-07
3430.29	-6.95924e-08
3438.97	1.27252e-07
3447.65	-1.05805e-07
3456.32	-1.03839e-07
3465	-7.16678e-10
3473.68	-1.76095e-07
3482.36	8.19814e-08
3491.04	9.07198e-08
3499.72	-1.00853e-08
3508.39	-5.87949e-08
3517.07	-1.47113e-07
3525.75	-1.09748e-08
3534.43	-1.66551e-07
3543.11	-1.39983e-07
3551.78	-2.3674e-08
3560.46	-9.70781e-08
3569.14	-1.80121e-07
3577.82	-1.95736e-07
3586.5	-2.36444e-07
3595.18	-1.15834e-07
3603.85	4.69815e-08
3612.53	-1.15688e-07
3621.21	1.59244e-07
3629.89	2.03544e-09
3638.57	2.38031e-07
3647.24	-2.48273e-08
3655.92	1.23602e-07
3664.6	2.79535e-07
3673.28	3.03437e-07
3681.96	3.49261e-07
3690.64	1.6279e-08
3699.31	2.36733e-07
3707.99	2.30621e-07
3716.67	1.6246e-07
3725.35	2.09319e-07
3734.03	4.12282e-07
3742.7	9.63053e-07
3751.38	1.07129e-06
3760.06	1.01346e-06
3768.74	9.8899e-07
3777.42	1.02906e-06
3786.1	9.22787e-07
3794.77	6.92646e-07
3803.45	8.84579e-07
3812.13	5.05692e-07
3820.81	6.14188e-08
3829.49	3.25846e-07
3838.16	-2.91282e-07
3846.84	3.44155e-07
3855.52	4.63822e-08
3864.2	-6.53405e-08
3872.88	5.61556e-08
3881.56	3.06453e-08
3890.23	1.726e-07
3898.91	6.90721e-08
3907.59	9.8656e-08
3916.27	1.35559e-08
3924.95	3.65415e-08
3933.62	-1.28347e-08
3942.3	1.86053e-07
3950.98	2.91264e-07
3959.66	3.15616e-07
3968.34	2.04128e-07
