Infrared Spectrum: Nitrile-Propenoic Acid
Formula: C H2: C H C N
CAS: 107-13-1
State: gas
Melting point: -83.5 C
Boiling point: 77.5 C
Class: IUPAC A
Instrument: IFS66V (Bruker)
Instrument parameters: KBr Beam splitter; MCT Detector; Multipass cell
Sampling: 1 L/min Flow
Resolution: 0.4820
Temperature: 23 C
Pressure: 101.3 kPa
Origin: NIST, Anayltical Chemistry Division, 301-975-3108
cm-1	(micromol/mol)-1m-1 (base 10)
574.928	5.66397e-08
583.606	4.21595e-07
592.284	5.38371e-07
600.962	4.17038e-07
609.641	6.44244e-07
618.319	1.18486e-06
626.997	2.47976e-06
635.675	4.79565e-06
644.353	9.16282e-06
653.031	1.99637e-05
661.71	1.69208e-05
670.388	1.70165e-05
679.066	3.32384e-05
687.744	1.83826e-05
696.422	1.58521e-05
705.1	2.14626e-05
713.778	1.11764e-05
722.457	1.33475e-05
731.135	5.70952e-06
739.813	4.80437e-06
748.491	2.20011e-06
757.169	1.45681e-06
765.847	1.839e-06
774.526	4.54473e-06
783.204	3.81352e-06
791.882	3.8151e-06
800.56	2.92846e-06
809.238	5.56956e-07
817.916	1.98348e-07
826.594	1.15901e-07
835.273	1.32467e-07
843.951	9.32112e-07
852.629	4.71696e-06
861.307	8.48021e-06
869.985	4.01949e-06
878.663	8.75485e-06
887.342	6.79227e-06
896.02	1.04664e-05
904.698	1.62553e-05
913.376	2.59784e-05
922.054	4.56357e-05
930.732	9.25767e-05
939.41	6.82843e-05
948.089	0.000145697
956.767	9.82019e-05
965.445	8.54041e-05
974.123	9.00694e-05
982.801	8.6834e-05
991.479	7.65073e-05
1000.16	6.08038e-05
1008.84	4.45361e-05
1017.51	2.30726e-05
1026.19	1.24936e-05
1034.87	5.37661e-06
1043.55	2.11126e-06
1052.23	1.38443e-06
1060.9	1.20292e-06
1069.58	1.80389e-06
1078.26	7.91535e-06
1086.94	1.25909e-05
1095.62	9.1648e-06
1104.3	8.31228e-06
1112.97	3.29695e-06
1121.65	5.02029e-07
1130.33	3.34448e-07
1139.01	1.69567e-07
1147.69	1.3433e-07
1156.36	1.47256e-07
1165.04	2.16024e-07
1173.72	1.99454e-07
1182.4	2.00016e-07
1191.08	3.5818e-07
1199.76	2.75927e-07
1208.43	5.24321e-07
1217.11	2.23786e-07
1225.79	2.59472e-07
1234.47	2.02478e-07
1243.15	1.28967e-07
1251.82	2.17577e-07
1260.5	7.12178e-07
1269.18	2.40621e-06
1277.86	2.09955e-06
1286.54	3.15292e-06
1295.21	3.18968e-06
1303.89	1.7055e-06
1312.57	2.62958e-06
1321.25	2.26733e-06
1329.93	2.51883e-06
1338.61	3.46843e-06
1347.28	2.92489e-06
1355.96	3.30648e-06
1364.64	3.27922e-06
1373.32	4.64736e-06
1382	4.93119e-06
1390.67	6.56235e-06
1399.35	1.64994e-05
1408.03	2.22543e-05
1416.71	1.208e-05
1425.39	2.27126e-05
1434.07	1.12849e-05
1442.74	9.71946e-06
1451.42	4.61933e-06
1460.1	2.56202e-06
1468.78	1.55296e-06
1477.46	6.29818e-07
1486.13	4.17598e-07
1494.81	2.26867e-07
1503.49	1.46215e-07
1512.17	1.04498e-06
1520.85	1.03274e-06
1529.52	1.62864e-07
1538.2	6.67263e-07
1546.88	2.9905e-07
1555.56	4.95772e-07
1564.24	7.36307e-07
1572.92	1.08672e-06
1581.59	1.61106e-06
1590.27	3.06085e-06
1598.95	1.0948e-05
1607.63	1.36102e-05
1616.31	6.44124e-06
1624.98	1.68293e-05
1633.66	9.3475e-06
1642.34	9.56636e-06
1651.02	5.07506e-06
1659.7	7.71497e-06
1668.38	5.41951e-06
1677.05	1.98231e-06
1685.73	1.38461e-06
1694.41	1.12201e-06
1703.09	4.9184e-07
1711.77	2.57398e-07
1720.44	2.05435e-07
1729.12	1.78233e-07
1737.8	2.57788e-07
1746.48	3.0675e-07
1755.16	1.68521e-07
1763.84	5.6496e-08
1772.51	2.11786e-06
1781.19	6.587e-08
1789.87	9.84503e-08
1798.55	1.909e-08
1807.23	1.84015e-08
1815.9	5.08945e-08
1824.58	3.88564e-07
1833.26	7.38425e-07
1841.94	5.9108e-07
1850.62	9.48224e-07
1859.29	6.98263e-07
1867.97	1.39247e-06
1876.65	1.81722e-06
1885.33	5.49298e-06
1894.01	1.44311e-05
1902.69	1.51809e-05
1911.36	1.40412e-05
1920.04	1.6344e-05
1928.72	7.55143e-06
1937.4	2.90285e-06
1946.08	3.59494e-06
1954.75	1.60169e-06
1963.43	1.14763e-06
1972.11	6.41373e-07
1980.79	4.67044e-07
1989.47	2.78404e-07
1998.15	2.07738e-07
2006.82	9.65731e-08
2015.5	3.13934e-08
2024.18	8.86343e-08
2032.86	7.38407e-08
2041.54	7.36843e-08
2050.21	1.14725e-07
2058.89	7.7655e-08
2067.57	1.1093e-07
2076.25	8.59277e-08
2084.93	5.33847e-08
2093.6	8.98193e-08
2102.28	5.24079e-08
2110.96	4.51366e-08
2119.64	2.24933e-08
2128.32	1.28419e-09
2137	9.16938e-09
2145.67	2.72589e-08
2154.35	5.55801e-08
2163.03	7.44791e-08
2171.71	5.78393e-08
2180.39	7.57833e-08
2189.06	9.75426e-08
2197.74	7.19471e-08
2206.42	1.90043e-07
2215.1	6.09438e-07
2223.78	1.82715e-06
2232.46	2.31265e-06
2241.13	2.62153e-06
2249.81	2.73574e-06
2258.49	8.17482e-07
2267.17	9.46157e-07
2275.85	1.11073e-06
2284.52	9.60771e-07
2293.2	1.45892e-06
2301.88	4.69639e-07
2310.56	4.86582e-07
2319.24	2.76558e-07
2327.92	1.47271e-07
2336.59	1.35982e-07
2345.27	1.60367e-07
2353.95	2.66167e-07
2362.63	5.68781e-07
2371.31	5.18872e-07
2379.98	7.09084e-07
2388.66	6.24152e-07
2397.34	5.55915e-07
2406.02	3.62143e-07
2414.7	2.26062e-07
2423.37	2.21872e-07
2432.05	2.40195e-07
2440.73	3.05023e-07
2449.41	6.18064e-07
2458.09	5.83119e-07
2466.77	5.22076e-07
2475.44	7.93985e-07
2484.12	6.40415e-07
2492.8	4.44041e-07
2501.48	2.78974e-07
2510.16	2.18027e-07
2518.83	2.13427e-07
2527.51	2.1202e-07
2536.19	2.37804e-07
2544.87	3.2532e-07
2553.55	4.57947e-07
2562.23	4.61864e-07
2570.9	3.3554e-07
2579.58	2.25439e-07
2588.26	1.63977e-07
2596.94	1.52685e-07
2605.62	7.6259e-08
2614.29	7.62144e-08
2622.97	1.23325e-09
2631.65	1.27264e-08
2640.33	-1.38232e-08
2649.01	-3.05185e-08
2657.68	2.73581e-08
2666.36	-1.44935e-08
2675.04	1.18878e-07
2683.72	2.12216e-07
2692.4	4.79309e-07
2701.08	7.24189e-07
2709.75	5.45104e-07
2718.43	5.96646e-07
2727.11	2.38678e-07
2735.79	1.65654e-07
2744.47	1.147e-07
2753.14	2.02123e-08
2761.82	5.19877e-08
2770.5	1.45455e-07
2779.18	1.91316e-07
2787.86	1.26294e-07
2796.54	1.25515e-07
2805.21	2.65549e-07
2813.89	1.83579e-08
2822.57	6.92414e-08
2831.25	2.07361e-09
2839.93	-1.10751e-07
2848.6	-1.74436e-07
2857.28	-9.10508e-08
2865.96	-1.78758e-08
2874.64	7.09767e-08
2883.32	1.14276e-07
2892	3.26325e-07
2900.67	3.42263e-07
2909.35	2.66303e-07
2918.03	2.01931e-07
2926.71	-1.50155e-09
2935.39	8.97529e-08
2944.06	1.99904e-08
2952.74	5.33346e-08
2961.42	1.37486e-08
2970.1	1.1153e-07
2978.78	1.13727e-07
2987.45	4.17577e-07
2996.13	2.20242e-07
3004.81	5.09096e-07
3013.49	5.52363e-07
3022.17	2.11118e-06
3030.85	6.07087e-06
3039.52	5.55338e-06
3048.2	6.25751e-06
3056.88	6.67419e-06
3065.56	2.12684e-06
3074.24	1.1233e-06
3082.91	1.06382e-06
3091.59	1.94782e-06
3100.27	2.55113e-06
3108.95	6.28396e-06
3117.63	9.01112e-06
3126.31	3.50147e-06
3134.98	1.04376e-05
3143.66	4.52959e-06
3152.34	2.33406e-06
3161.02	1.18558e-06
3169.7	5.18113e-07
3178.37	3.75472e-07
3187.05	1.02155e-07
3195.73	-2.24096e-09
3204.41	-1.15071e-07
3213.09	-1.53601e-07
3221.77	-7.51149e-08
3230.44	-6.0012e-08
3239.12	-1.31116e-07
3247.8	-1.90756e-07
3256.48	-9.78582e-08
3265.16	-8.72919e-08
3273.83	-1.02684e-07
3282.51	-1.56406e-07
3291.19	-1.17821e-07
3299.87	-9.67778e-09
3308.55	9.60502e-08
3317.22	1.98057e-07
3325.9	2.2485e-07
3334.58	2.65977e-07
3343.26	4.95177e-07
3351.94	1.88532e-07
3360.62	1.52238e-07
3369.29	-3.408e-08
3377.97	1.02871e-08
3386.65	-3.31396e-08
3395.33	-4.58105e-09
3404.01	-3.63656e-08
3412.68	-3.91422e-08
3421.36	-1.70146e-08
3430.04	-3.53351e-08
3438.72	5.49826e-08
3447.4	3.82982e-08
3456.08	5.67816e-08
3464.75	-5.65124e-08
3473.43	-3.86784e-08
3482.11	3.16772e-08
3490.79	1.63315e-08
3499.47	1.28292e-07
3508.14	8.47099e-08
3516.82	2.40159e-07
3525.5	2.44919e-07
3534.18	1.56692e-07
3542.86	1.44757e-07
3551.53	7.81898e-08
3560.21	2.23846e-07
3568.89	1.18543e-07
3577.57	1.17323e-08
3586.25	4.09894e-07
3594.93	1.35955e-07
3603.6	5.41541e-08
3612.28	7.12448e-07
3620.96	3.00673e-07
3629.64	2.96362e-06
3638.32	3.99283e-07
3646.99	9.82001e-07
3655.67	6.50458e-07
3664.35	2.99444e-07
3673.03	3.04315e-07
3681.71	1.24841e-07
3690.39	3.14974e-07
3699.06	6.4986e-08
3707.74	-6.53461e-09
3716.42	1.66826e-08
3725.1	3.50222e-07
3733.78	5.47762e-08
3742.45	4.30912e-08
3751.13	2.29524e-07
3759.81	9.76579e-07
3768.49	4.37642e-08
3777.17	-4.99268e-08
3785.85	-2.13591e-08
3794.52	-4.83571e-08
3803.2	2.10585e-07
3811.88	-3.30932e-08
3820.56	1.27e-06
3829.24	1.44381e-07
3837.91	5.10883e-06
3846.59	3.54192e-07
3855.27	4.54162e-07
3863.95	3.5426e-07
3872.63	5.74246e-08
3881.3	3.30902e-07
3889.98	4.59697e-08
3898.66	2.82827e-07
3907.34	2.33179e-07
3916.02	2.92446e-07
3924.7	3.08205e-07
3933.37	1.5624e-07
3942.05	5.06444e-08
3950.73	7.50194e-08
3959.41	1.36701e-07
3968.09	2.29579e-07
