Infrared Spectrum: Nitrile-Propenoic Acid
Formula: C H2: C H C N
CAS: 107-13-1
State: gas
Melting point: -83.5 C
Boiling point: 77.5 C
Class: IUPAC A
Instrument: IFS66V (Bruker)
Instrument parameters: KBr Beam splitter; MCT Detector; Multipass cell
Sampling: 1 L/min Flow
Resolution: 0.2410
Temperature: 23 C
Pressure: 101.3 kPa
Origin: NIST, Anayltical Chemistry Division, 301-975-3108
cm-1	(micromol/mol)-1m-1 (base 10)
575.048	-1.20366e-07
583.606	4.16904e-07
592.163	5.79881e-07
600.721	3.60475e-07
609.279	2.46469e-07
617.836	1.17623e-06
626.394	2.3121e-06
634.951	5.38407e-06
643.509	9.30125e-06
652.067	1.39351e-05
660.624	3.22653e-05
669.182	2.27235e-05
677.74	2.50104e-05
686.297	1.85332e-05
694.855	1.69422e-05
703.412	1.50492e-05
711.97	2.42057e-05
720.528	8.76279e-06
729.085	1.15582e-05
737.643	4.22861e-06
746.201	2.63308e-06
754.758	1.63992e-06
763.316	1.77258e-06
771.873	3.75329e-06
780.431	4.58636e-06
788.989	2.25162e-06
797.546	3.85253e-06
806.104	1.21045e-06
814.662	2.61286e-07
823.219	9.96672e-08
831.777	1.54934e-07
840.334	5.6432e-07
848.892	2.68325e-06
857.45	7.81542e-06
866.007	5.0364e-06
874.565	6.2062e-06
883.123	7.64782e-06
891.68	6.48933e-06
900.238	1.26591e-05
908.795	2.7612e-05
917.353	3.60114e-05
925.911	4.61627e-05
934.468	7.59871e-05
943.026	0.000116886
951.584	0.000116306
960.141	9.04788e-05
968.699	0.00011406
977.256	8.60273e-05
985.814	0.00010364
994.372	6.67953e-05
1002.93	5.69922e-05
1011.49	3.43743e-05
1020.04	2.02641e-05
1028.6	9.89156e-06
1037.16	4.04002e-06
1045.72	1.86515e-06
1054.28	1.13178e-06
1062.83	1.3232e-06
1071.39	2.55664e-06
1079.95	1.00404e-05
1088.51	1.06778e-05
1097.06	7.78665e-06
1105.62	7.798e-06
1114.18	2.20249e-06
1122.74	5.23123e-07
1131.29	3.14225e-07
1139.85	1.61028e-07
1148.41	1.3367e-07
1156.97	5.7802e-08
1165.52	1.23315e-07
1174.08	2.20663e-07
1182.64	2.15108e-07
1191.2	3.99837e-07
1199.75	2.68278e-07
1208.31	4.95367e-07
1216.87	1.94903e-07
1225.43	3.16721e-07
1233.99	1.88627e-07
1242.54	2.12396e-07
1251.1	1.59465e-07
1259.66	6.55078e-07
1268.22	2.28241e-06
1276.77	2.26414e-06
1285.33	2.97766e-06
1293.89	3.25401e-06
1302.45	1.60914e-06
1311	2.36701e-06
1319.56	2.55036e-06
1328.12	2.23363e-06
1336.68	3.6338e-06
1345.23	2.79839e-06
1353.79	3.44292e-06
1362.35	2.77222e-06
1370.91	4.3406e-06
1379.46	6.24159e-06
1388.02	5.83092e-06
1396.58	1.14902e-05
1405.14	2.39193e-05
1413.7	1.0173e-05
1422.25	2.4438e-05
1430.81	2.11181e-05
1439.37	8.91127e-06
1447.93	6.38345e-06
1456.48	5.21637e-06
1465.04	3.24322e-06
1473.6	3.83202e-06
1482.16	4.04117e-07
1490.71	1.40979e-06
1499.27	3.03854e-07
1507.83	5.52112e-07
1516.39	5.78108e-07
1524.94	4.49762e-07
1533.5	5.77876e-07
1542.06	4.06238e-06
1550.62	4.234e-07
1559.18	1.06883e-06
1567.73	8.49014e-07
1576.29	7.04691e-06
1584.85	1.81922e-06
1593.41	4.47417e-06
1601.96	1.4647e-05
1610.52	1.02983e-05
1619.08	1.06761e-05
1627.64	1.53259e-05
1636.19	9.23394e-06
1644.75	8.64117e-06
1653.31	1.46813e-05
1661.87	7.6835e-06
1670.42	3.78456e-06
1678.98	2.69118e-06
1687.54	1.36067e-06
1696.1	5.1021e-06
1704.65	1.02824e-06
1713.21	3.39167e-07
1721.77	1.83302e-07
1730.33	4.56797e-07
1738.89	2.88302e-07
1747.44	3.25465e-07
1756	1.02498e-07
1764.56	3.1327e-08
1773.12	5.13796e-07
1781.67	3.75897e-08
1790.23	1.08894e-07
1798.79	7.49139e-09
1807.35	2.33254e-08
1815.9	5.72827e-08
1824.46	3.43991e-07
1833.02	7.02083e-07
1841.58	4.52687e-07
1850.13	9.11233e-07
1858.69	7.71628e-07
1867.25	8.7404e-07
1875.81	1.63087e-06
1884.36	5.5094e-06
1892.92	1.20654e-05
1901.48	1.58622e-05
1910.04	1.0568e-05
1918.6	1.93939e-05
1927.15	7.71747e-06
1935.71	3.14055e-06
1944.27	3.56395e-06
1952.83	2.02946e-06
1961.38	1.2133e-06
1969.94	7.58817e-07
1978.5	5.44703e-07
1987.06	3.9861e-07
1995.61	1.81722e-07
2004.17	1.20141e-07
2012.73	1.56507e-07
2021.29	9.11299e-08
2029.84	1.29219e-08
2038.4	5.97301e-08
2046.96	2.37997e-07
2055.52	1.26981e-07
2064.08	2.49882e-07
2072.63	4.46718e-08
2081.19	6.13781e-08
2089.75	7.21763e-08
2098.31	5.12828e-08
2106.86	1.9381e-09
2115.42	1.20151e-08
2123.98	-5.2176e-08
2132.54	-2.5359e-08
2141.09	6.27023e-08
2149.65	2.18039e-08
2158.21	1.32785e-07
2166.77	8.08182e-08
2175.32	6.03813e-08
2183.88	1.24337e-07
2192.44	1.33153e-07
2201	6.19347e-08
2209.55	2.64556e-07
2218.11	9.26134e-07
2226.67	2.21424e-06
2235.23	1.94319e-06
2243.79	2.00326e-06
2252.34	2.19033e-06
2260.9	6.53413e-07
2269.46	1.104e-06
2278.02	7.79269e-07
2286.57	1.23501e-06
2295.13	1.15352e-06
2303.69	4.34017e-07
2312.25	4.37825e-07
2320.8	2.11883e-07
2329.36	1.12153e-07
2337.92	2.40516e-07
2346.48	1.23467e-07
2355.03	1.88186e-07
2363.59	3.95136e-07
2372.15	4.45564e-07
2380.71	7.16215e-07
2389.26	5.2793e-07
2397.82	5.56484e-07
2406.38	4.1736e-07
2414.94	2.26176e-07
2423.5	2.42225e-07
2432.05	2.44284e-07
2440.61	2.79528e-07
2449.17	5.43513e-07
2457.73	5.76911e-07
2466.28	5.21672e-07
2474.84	8.1073e-07
2483.4	5.254e-07
2491.96	5.65682e-07
2500.51	2.91273e-07
2509.07	2.89051e-07
2517.63	1.79972e-07
2526.19	2.10371e-07
2534.74	2.04341e-07
2543.3	2.53379e-07
2551.86	2.02724e-07
2560.42	2.52156e-07
2568.98	9.66536e-07
2577.53	2.16313e-07
2586.09	1.83067e-07
2594.65	1.60866e-07
2603.21	8.61378e-08
2611.76	2.5711e-09
2620.32	-5.67506e-08
2628.88	-2.43431e-08
2637.44	-2.86614e-08
2645.99	1.711e-08
2654.55	-6.81164e-08
2663.11	5.07071e-08
2671.67	-6.6192e-09
2680.22	2.38836e-07
2688.78	4.27758e-07
2697.34	5.22911e-07
2705.9	4.93423e-07
2714.45	6.9489e-07
2723.01	4.19313e-07
2731.57	1.52992e-07
2740.13	7.1135e-08
2748.69	6.35508e-08
2757.24	3.38836e-08
2765.8	3.71132e-08
2774.36	2.18971e-07
2782.92	1.5348e-07
2791.47	1.55944e-07
2800.03	1.23822e-07
2808.59	1.27141e-07
2817.15	5.82922e-08
2825.7	2.10554e-08
2834.26	7.7947e-08
2842.82	-9.29698e-08
2851.38	-1.06841e-07
2859.93	-1.51307e-07
2868.49	3.21219e-08
2877.05	1.47374e-07
2885.61	1.56424e-07
2894.16	2.28648e-07
2902.72	1.45349e-07
2911.28	1.36995e-07
2919.84	3.35417e-07
2928.4	8.12639e-08
2936.95	1.32519e-07
2945.51	-3.11761e-08
2954.07	4.80888e-08
2962.63	8.3905e-08
2971.18	1.8021e-07
2979.74	1.32498e-07
2988.3	3.43282e-07
2996.86	4.34373e-07
3005.41	5.23467e-07
3013.97	5.53373e-07
3022.53	2.20017e-06
3031.09	6.1958e-06
3039.64	5.3966e-06
3048.2	6.23765e-06
3056.76	6.71334e-06
3065.32	2.21819e-06
3073.88	1.26024e-06
3082.43	9.8818e-07
3090.99	1.88635e-06
3099.55	2.46514e-06
3108.11	6.52192e-06
3116.66	9.89473e-06
3125.22	2.36933e-06
3133.78	1.01292e-05
3142.34	3.81236e-06
3150.89	1.35064e-06
3159.45	9.35868e-07
3168.01	6.99157e-07
3176.57	4.23007e-07
3185.12	1.19359e-07
3193.68	-3.83073e-09
3202.24	-5.63987e-08
3210.8	-2.44441e-07
3219.35	-3.34716e-08
3227.91	-9.49997e-08
3236.47	-8.57676e-08
3245.03	-9.01704e-08
3253.59	-1.51795e-07
3262.14	-1.4558e-07
3270.7	-2.53472e-08
3279.26	1.49755e-08
3287.82	-7.02491e-08
3296.37	5.24042e-08
3304.93	-6.12389e-08
3313.49	7.96004e-08
3322.05	3.26524e-07
3330.6	2.76364e-08
3339.16	5.01705e-07
3347.72	2.82431e-07
3356.28	8.66643e-09
3364.83	9.47169e-08
3373.39	3.26967e-08
3381.95	5.57566e-08
3390.51	-6.00248e-08
3399.06	-9.34736e-08
3407.62	-2.38329e-07
3416.18	-6.82028e-08
3424.74	6.38955e-08
3433.3	-8.65288e-08
3441.85	-1.97803e-08
3450.41	6.85148e-08
3458.97	4.3153e-08
3467.53	-2.43541e-08
3476.08	9.90387e-08
3484.64	-7.61335e-08
3493.2	-8.46135e-08
3501.76	-5.06553e-08
3510.31	-6.37545e-09
3518.87	1.91799e-07
3527.43	2.74396e-07
3535.99	5.77311e-08
3544.54	1.74484e-07
3553.1	6.6603e-08
3561.66	-1.09219e-08
3570.22	1.33785e-07
3578.78	-6.75707e-08
3587.33	5.0699e-08
3595.89	1.18541e-07
3604.45	9.56482e-08
3613.01	4.72032e-07
3621.56	2.18151e-07
3630.12	4.27232e-07
3638.68	2.54621e-07
3647.24	1.32973e-06
3655.79	7.00156e-07
3664.35	2.49838e-07
3672.91	3.69532e-07
3681.47	3.91831e-08
3690.02	1.00878e-07
3698.58	6.68013e-08
3707.14	1.18322e-07
3715.7	-4.038e-08
3724.25	8.82341e-08
3732.81	1.67629e-07
3741.37	5.89496e-07
3749.93	6.39928e-07
3758.49	-8.05972e-08
3767.04	1.14167e-08
3775.6	-6.98844e-08
3784.16	-8.68844e-08
3792.72	-6.28614e-08
3801.27	3.40676e-06
3809.83	-6.60928e-08
3818.39	1.1344e-07
3826.95	6.79466e-07
3835.5	4.27002e-07
3844.06	6.22373e-07
3852.62	6.98614e-07
3861.18	4.5484e-07
3869.73	4.6776e-07
3878.29	3.08841e-08
3886.85	2.03303e-07
3895.41	1.42506e-07
3903.96	8.9568e-07
3912.52	5.92326e-08
3921.08	2.22367e-07
3929.64	3.66736e-07
3938.2	3.06658e-07
3946.75	1.47347e-07
3955.31	1.06007e-07
3963.87	1.00214e-07
3972.43	1.73026e-07
