Infrared Spectrum: Nitrile-Propenoic Acid
Formula: C H2: C H C N
CAS: 107-13-1
State: gas
Melting point: -83.5 C
Boiling point: 77.5 C
Class: IUPAC A
Instrument: IFS66V (Bruker)
Instrument parameters: KBr Beam splitter; MCT Detector; Multipass cell
Sampling: 1 L/min Flow
Resolution: 1.9290
Temperature: 23 C
Pressure: 101.3 kPa
Origin: NIST, Anayltical Chemistry Division, 301-975-3108
cm-1	(micromol/mol)-1m-1 (base 10)
574.687	3.04431e-07
583.365	3.54364e-07
592.043	4.44998e-07
600.721	3.71633e-07
609.4	5.05698e-07
618.078	1.12379e-06
626.756	2.47802e-06
635.434	5.07406e-06
644.112	9.76247e-06
652.79	1.81413e-05
661.469	2.02385e-05
670.147	1.95119e-05
678.825	3.27242e-05
687.503	1.7956e-05
696.181	2.07224e-05
704.859	1.96757e-05
713.537	1.2337e-05
722.216	1.15173e-05
730.894	5.98808e-06
739.572	4.30798e-06
748.25	2.3519e-06
756.928	1.50599e-06
765.606	1.89159e-06
774.285	4.51037e-06
782.963	3.95404e-06
791.641	3.686e-06
800.319	2.99171e-06
808.997	6.5756e-07
817.675	2.29197e-07
826.353	1.23595e-07
835.032	1.57148e-07
843.71	9.33775e-07
852.388	4.63794e-06
861.066	8.54141e-06
869.744	6.09057e-06
878.422	8.58272e-06
887.101	6.61193e-06
895.779	9.394e-06
904.457	1.6786e-05
913.135	2.83942e-05
921.813	4.96115e-05
930.491	7.36352e-05
939.169	7.98544e-05
947.848	0.000110007
956.526	0.000106602
965.204	9.71558e-05
973.882	0.000103005
982.56	8.96408e-05
991.238	7.89466e-05
999.917	6.04181e-05
1008.59	4.11493e-05
1017.27	2.38428e-05
1025.95	1.32296e-05
1034.63	5.52244e-06
1043.31	2.22304e-06
1051.99	1.28975e-06
1060.66	1.25774e-06
1069.34	1.80385e-06
1078.02	7.72818e-06
1086.7	1.26581e-05
1095.38	8.8049e-06
1104.05	8.48158e-06
1112.73	3.18435e-06
1121.41	6.22405e-07
1130.09	3.1233e-07
1138.77	1.73992e-07
1147.45	1.17854e-07
1156.12	1.0731e-07
1164.8	1.96902e-07
1173.48	2.0842e-07
1182.16	2.12099e-07
1190.84	2.46843e-07
1199.51	2.83229e-07
1208.19	4.00681e-07
1216.87	2.57397e-07
1225.55	2.71893e-07
1234.23	2.26707e-07
1242.9	1.67474e-07
1251.58	2.08039e-07
1260.26	6.82775e-07
1268.94	2.34396e-06
1277.62	2.15032e-06
1286.3	3.0884e-06
1294.97	3.19131e-06
1303.65	1.74892e-06
1312.33	2.58914e-06
1321.01	2.3063e-06
1329.69	2.42169e-06
1338.36	3.13054e-06
1347.04	3.06562e-06
1355.72	3.17678e-06
1364.4	3.29651e-06
1373.08	5.21647e-06
1381.76	5.38057e-06
1390.43	7.53381e-06
1399.11	1.73432e-05
1407.79	2.25753e-05
1416.47	1.2485e-05
1425.15	2.40435e-05
1433.82	1.07518e-05
1442.5	7.89917e-06
1451.18	4.11646e-06
1459.86	2.46465e-06
1468.54	1.34011e-06
1477.22	8.69594e-07
1485.89	4.05882e-07
1494.57	2.67048e-07
1503.25	1.50141e-07
1511.93	4.42526e-07
1520.61	1.43345e-06
1529.28	2.50228e-07
1537.96	9.57714e-07
1546.64	3.93726e-07
1555.32	8.49564e-07
1564	8.3846e-07
1572.67	1.10105e-06
1581.35	1.76047e-06
1590.03	3.38188e-06
1598.71	9.77017e-06
1607.39	1.37037e-05
1616.07	9.41788e-06
1624.74	1.66722e-05
1633.42	9.19955e-06
1642.1	9.01124e-06
1650.78	5.35382e-06
1659.46	7.55622e-06
1668.13	5.47084e-06
1676.81	2.30981e-06
1685.49	2.95997e-06
1694.17	1.10832e-06
1702.85	5.77027e-07
1711.53	2.79445e-07
1720.2	2.99958e-07
1728.88	2.51168e-07
1737.56	2.37096e-07
1746.24	3.54305e-07
1754.92	1.54038e-07
1763.59	7.61849e-08
1772.27	1.09552e-06
1780.95	1.99533e-07
1789.63	1.08255e-07
1798.31	4.33626e-08
1806.98	5.09145e-08
1815.66	5.38785e-08
1824.34	4.76842e-07
1833.02	6.95453e-07
1841.7	5.41976e-07
1850.38	9.1367e-07
1859.05	7.44494e-07
1867.73	1.14446e-06
1876.41	1.83179e-06
1885.09	5.40318e-06
1893.77	1.35471e-05
1902.44	1.55613e-05
1911.12	1.34267e-05
1919.8	1.68551e-05
1928.48	7.12905e-06
1937.16	3.0805e-06
1945.84	3.6407e-06
1954.51	1.84741e-06
1963.19	1.14716e-06
1971.87	6.98185e-07
1980.55	5.01295e-07
1989.23	2.9171e-07
1997.9	1.98914e-07
2006.58	9.39165e-08
2015.26	6.01976e-08
2023.94	6.94211e-08
2032.62	7.24637e-08
2041.3	7.88874e-08
2049.97	7.84713e-08
2058.65	8.76188e-08
2067.33	1.20253e-07
2076.01	5.84868e-08
2084.69	7.86768e-08
2093.36	6.67849e-08
2102.04	6.10493e-08
2110.72	1.87503e-08
2119.4	2.50839e-08
2128.08	9.29034e-09
2136.75	1.70559e-08
2145.43	3.99339e-08
2154.11	7.76241e-08
2162.79	6.45631e-08
2171.47	6.58773e-08
2180.15	1.03381e-07
2188.82	7.94022e-08
2197.5	7.87619e-08
2206.18	1.61001e-07
2214.86	5.7177e-07
2223.54	1.79596e-06
2232.21	2.35395e-06
2240.89	2.63199e-06
2249.57	2.76514e-06
2258.25	8.78105e-07
2266.93	9.70041e-07
2275.61	1.12255e-06
2284.28	9.47612e-07
2292.96	1.52224e-06
2301.64	4.56363e-07
2310.32	4.86848e-07
2319	2.54733e-07
2327.67	1.96145e-07
2336.35	2.00219e-07
2345.03	2.08381e-07
2353.71	2.91043e-07
2362.39	4.74353e-07
2371.06	4.95004e-07
2379.74	6.95714e-07
2388.42	5.72778e-07
2397.1	5.40225e-07
2405.78	3.93972e-07
2414.46	2.42564e-07
2423.13	2.23064e-07
2431.81	2.59024e-07
2440.49	2.94388e-07
2449.17	5.02637e-07
2457.85	5.50141e-07
2466.52	5.37657e-07
2475.2	8.27793e-07
2483.88	5.99573e-07
2492.56	4.5238e-07
2501.24	3.1189e-07
2509.92	2.27369e-07
2518.59	2.16862e-07
2527.27	2.23249e-07
2535.95	2.30843e-07
2544.63	3.09771e-07
2553.31	3.33796e-07
2561.98	3.81853e-07
2570.66	3.91524e-07
2579.34	2.19109e-07
2588.02	1.92237e-07
2596.7	1.20472e-07
2605.38	7.49543e-08
2614.05	5.98288e-08
2622.73	-2.80484e-09
2631.41	-2.72435e-09
2640.09	-1.72983e-08
2648.77	-3.48181e-08
2657.44	2.9273e-08
2666.12	9.0084e-09
2674.8	1.00523e-07
2683.48	2.35976e-07
2692.16	4.80868e-07
2700.83	5.87748e-07
2709.51	6.48603e-07
2718.19	5.85502e-07
2726.87	2.89834e-07
2735.55	1.38421e-07
2744.23	1.27867e-07
2752.9	3.09264e-08
2761.58	5.23424e-08
2770.26	1.08643e-07
2778.94	1.76469e-07
2787.62	1.79373e-07
2796.29	1.23593e-07
2804.97	2.19524e-07
2813.65	6.28414e-08
2822.33	5.13433e-08
2831.01	2.71457e-08
2839.69	-9.83289e-08
2848.36	-1.37818e-07
2857.04	-9.90774e-08
2865.72	-3.94751e-08
2874.4	4.51207e-08
2883.08	1.40899e-07
2891.75	2.5832e-07
2900.43	3.04995e-07
2909.11	2.39836e-07
2917.79	2.59941e-07
2926.47	4.13418e-08
2935.14	5.89652e-08
2943.82	2.20772e-08
2952.5	3.05303e-08
2961.18	1.19947e-08
2969.86	8.20269e-08
2978.54	1.23363e-07
2987.21	3.89964e-07
2995.89	2.85504e-07
3004.57	5.18133e-07
3013.25	6.14534e-07
3021.93	2.0332e-06
3030.6	5.90277e-06
3039.28	5.52138e-06
3047.96	6.04787e-06
3056.64	6.79371e-06
3065.32	2.25645e-06
3074	1.20021e-06
3082.67	1.04801e-06
3091.35	1.96074e-06
3100.03	2.76385e-06
3108.71	6.39102e-06
3117.39	9.23479e-06
3126.06	3.38496e-06
3134.74	9.92153e-06
3143.42	3.83485e-06
3152.1	1.63762e-06
3160.78	1.09873e-06
3169.46	5.92965e-07
3178.13	3.6914e-07
3186.81	1.15017e-07
3195.49	-1.68245e-08
3204.17	-9.29057e-08
3212.85	-8.22329e-08
3221.52	-8.58158e-08
3230.2	-3.5668e-08
3238.88	-1.19822e-07
3247.56	-1.72991e-07
3256.24	-1.48514e-07
3264.91	-4.70142e-08
3273.59	-1.04428e-07
3282.27	-1.00526e-07
3290.95	-8.56312e-08
3299.63	1.41792e-08
3308.31	9.49224e-09
3316.98	2.09357e-07
3325.66	2.4003e-07
3334.34	3.0564e-07
3343.02	4.86308e-07
3351.7	1.4971e-07
3360.37	1.5342e-07
3369.05	1.95156e-08
3377.73	-1.24676e-08
3386.41	-3.76575e-08
3395.09	-4.35418e-08
3403.77	-3.48563e-08
3412.44	-6.22453e-08
3421.12	-2.09681e-09
3429.8	-3.61559e-08
3438.48	6.60055e-09
3447.16	1.62297e-08
3455.83	7.50344e-08
3464.51	-3.56534e-08
3473.19	-2.52735e-08
3481.87	3.0704e-09
3490.55	3.42678e-08
3499.22	7.14719e-08
3507.9	7.04679e-08
3516.58	1.91539e-07
3525.26	1.92378e-07
3533.94	1.40778e-07
3542.62	1.66203e-07
3551.29	7.28785e-08
3559.97	6.25631e-08
3568.65	3.1157e-07
3577.33	4.60879e-08
3586.01	3.166e-07
3594.68	1.97909e-07
3603.36	1.04174e-07
3612.04	4.97659e-07
3620.72	4.0819e-07
3629.4	1.48628e-06
3638.08	3.77451e-07
3646.75	8.46724e-07
3655.43	8.48156e-07
3664.11	3.36515e-07
3672.79	3.3701e-07
3681.47	1.01128e-07
3690.14	4.27293e-07
3698.82	6.40929e-08
3707.5	3.8149e-08
3716.18	4.41643e-09
3724.86	1.44329e-07
3733.54	2.94013e-07
3742.21	1.55632e-07
3750.89	6.6665e-07
3759.57	3.59627e-07
3768.25	3.44215e-08
3776.93	-2.62758e-08
3785.6	2.54977e-08
3794.28	-6.3217e-08
3802.96	3.23973e-07
3811.64	1.1333e-08
3820.32	7.51082e-07
3828.99	1.66684e-07
3837.67	1.95398e-06
3846.35	2.9223e-07
3855.03	1.94183e-06
3863.71	4.73684e-07
3872.39	1.07399e-07
3881.06	4.51251e-07
3889.74	1.70833e-07
3898.42	4.33179e-07
3907.1	2.8108e-07
3915.78	2.79211e-07
3924.45	3.86622e-07
3933.13	2.50325e-07
3941.81	1.44758e-07
3950.49	1.62305e-07
3959.17	1.19676e-07
3967.85	1.83889e-07
