Infrared Spectrum: 1,2-Dichloroethane
Formula: Cl C H2 C H2 Cl
CAS: 107-06-2
State: gas
Melting point: -35.36 C
Boiling point: 83.47 C
Class: IUPAC A
Instrument: IFS66V (Bruker)
Instrument parameters: KBr Beam Splitter; MCT Detector; Multipass cell
Sampling: 1 L/min Flow
Resolution: 0.4820
Temperature: 23 C
Pressure: 101.3 Pa
Origin: NIST, Analytical Chemistry Division, 301-975-3108
cm-1	(micromol/mol)-1m-1 (base 10)
575.17	1.08058e-07
583.848	1.01373e-06
592.526	1.18061e-06
601.205	-3.54378e-07
609.883	-5.43658e-07
618.561	2.09765e-07
627.239	6.46541e-07
635.917	6.61499e-07
644.595	3.25334e-06
653.274	8.37317e-06
661.952	1.53579e-05
670.63	1.56527e-05
679.308	2.60185e-05
687.986	3.98042e-05
696.664	3.08754e-05
705.343	4.09886e-05
714.021	0.000201206
722.699	0.000550492
731.377	0.000602649
740.055	5.75679e-05
748.734	6.00414e-06
757.412	7.09336e-06
766.09	7.76619e-06
774.768	6.11354e-06
783.446	4.56399e-06
792.124	4.07858e-06
800.803	2.7232e-06
809.481	1.83955e-06
818.159	1.71349e-06
826.837	1.97122e-06
835.515	1.83603e-06
844.193	1.0987e-06
852.872	7.12108e-07
861.55	9.09143e-07
870.228	2.3551e-06
878.906	1.24803e-05
887.584	1.97062e-05
896.263	2.18018e-05
904.941	6.39845e-06
913.619	2.09497e-06
922.297	2.22897e-06
930.975	5.13141e-06
939.653	9.18454e-06
948.332	7.61914e-06
957.01	8.44287e-06
965.688	3.63008e-06
974.366	1.76506e-06
983.044	2.68343e-06
991.723	3.30561e-06
1000.4	2.10809e-06
1009.08	1.74106e-06
1017.76	3.32331e-06
1026.44	4.79362e-06
1035.11	3.15999e-06
1043.79	1.12939e-06
1052.47	4.47197e-07
1061.15	7.69128e-08
1069.83	7.80688e-08
1078.5	2.89569e-07
1087.18	4.61265e-07
1095.86	9.99799e-07
1104.54	1.80189e-06
1113.22	2.19874e-06
1121.9	4.02799e-06
1130.57	3.76934e-06
1139.25	3.0339e-06
1147.93	2.42614e-06
1156.61	1.94973e-06
1165.29	1.27531e-06
1173.96	8.62187e-07
1182.64	9.99731e-07
1191.32	1.86549e-06
1200	3.83081e-06
1208.68	7.05933e-06
1217.36	1.83756e-05
1226.03	0.000152592
1234.71	0.000141742
1243.39	7.00362e-05
1252.07	9.33304e-06
1260.75	6.03541e-06
1269.42	4.76046e-06
1278.1	1.48725e-05
1286.78	4.31157e-05
1295.46	3.52006e-05
1304.14	2.38656e-05
1312.82	9.48576e-06
1321.49	1.14937e-05
1330.17	7.03863e-06
1338.85	4.07414e-06
1347.53	2.97026e-06
1356.21	2.95149e-06
1364.88	2.31125e-06
1373.56	1.16733e-06
1382.24	1.19171e-06
1390.92	8.89693e-07
1399.6	8.73154e-07
1408.28	1.70767e-06
1416.95	3.94435e-06
1425.63	1.12777e-05
1434.31	1.79728e-05
1442.99	2.66504e-05
1451.67	3.02736e-05
1460.34	1.81508e-05
1469.02	2.17552e-05
1477.7	1.30238e-05
1486.38	7.94769e-06
1495.06	4.02751e-06
1503.73	1.79839e-06
1512.41	6.88952e-07
1521.09	1.40173e-06
1529.77	2.7367e-06
1538.45	1.579e-06
1547.13	7.21526e-07
1555.8	1.77635e-07
1564.48	1.61414e-07
1573.16	2.47435e-07
1581.84	2.08522e-07
1590.52	1.06229e-07
1599.19	1.41016e-08
1607.87	3.50308e-08
1616.55	-1.0308e-06
1625.23	1.28802e-08
1633.91	-7.04536e-08
1642.59	-1.85846e-07
1651.26	-1.22834e-07
1659.94	-4.45214e-08
1668.62	2.6206e-08
1677.3	1.78826e-07
1685.98	1.55102e-07
1694.65	1.44059e-07
1703.33	8.10638e-08
1712.01	2.42076e-07
1720.69	1.74244e-07
1729.37	7.63008e-08
1738.05	2.63225e-08
1746.72	-5.49696e-08
1755.4	5.76744e-08
1764.08	5.05786e-08
1772.76	-7.43531e-07
1781.44	9.79002e-08
1790.11	7.42117e-08
1798.79	-4.59283e-08
1807.47	-1.14876e-07
1816.15	6.72759e-08
1824.83	-8.27054e-08
1833.51	-6.59835e-09
1842.18	-1.90083e-08
1850.86	1.01544e-07
1859.54	1.46128e-08
1868.22	-2.47518e-08
1876.9	8.28163e-08
1885.57	1.3878e-07
1894.25	1.93976e-08
1902.93	5.11879e-08
1911.61	-4.65422e-08
1920.29	-1.10694e-08
1928.97	-4.23468e-08
1937.64	-3.88843e-08
1946.32	-8.68063e-08
1955	-4.81993e-08
1963.68	-1.38843e-08
1972.36	-8.79477e-09
1981.03	6.7857e-09
1989.71	-1.31167e-08
1998.39	-4.31362e-08
2007.07	1.20681e-07
2015.75	3.7366e-07
2024.43	1.46864e-06
2033.1	2.0445e-06
2041.78	1.48433e-06
2050.46	3.22608e-07
2059.14	1.05755e-07
2067.82	5.8321e-08
2076.49	7.9263e-08
2085.17	7.85372e-08
2093.85	1.35694e-07
2102.53	3.37999e-07
2111.21	3.32042e-07
2119.89	2.98712e-07
2128.56	1.63923e-07
2137.24	2.02231e-07
2145.92	1.88963e-07
2154.6	7.29466e-08
2163.28	8.88263e-08
2171.95	3.07911e-07
2180.63	4.65995e-07
2189.31	8.69637e-07
2197.99	9.95363e-07
2206.67	1.22944e-06
2215.35	1.68585e-06
2224.02	1.50006e-06
2232.7	1.43253e-06
2241.38	1.11422e-06
2250.06	6.90421e-07
2258.74	3.72399e-07
2267.41	2.20538e-07
2276.09	1.74595e-07
2284.77	1.93216e-07
2293.45	1.92753e-07
2302.13	1.91298e-07
2310.81	1.02329e-07
2319.48	9.90598e-08
2328.16	2.93401e-07
2336.84	2.0699e-07
2345.52	-7.1365e-08
2354.2	-6.4125e-07
2362.87	-2.00715e-06
2371.55	-5.3145e-07
2380.23	1.05969e-06
2388.91	1.13847e-06
2397.59	6.75033e-07
2406.27	6.00406e-07
2414.94	6.22166e-07
2423.62	7.48936e-07
2432.3	6.29395e-07
2440.98	6.0734e-07
2449.66	4.89323e-07
2458.33	7.90428e-07
2467.01	5.53387e-07
2475.69	3.5968e-07
2484.37	2.72068e-07
2493.05	3.66704e-07
2501.73	4.00685e-07
2510.4	6.23493e-07
2519.08	8.04719e-07
2527.76	6.35467e-07
2536.44	5.07736e-07
2545.12	3.45304e-07
2553.79	2.77382e-07
2562.47	-5.97417e-08
2571.15	5.10469e-08
2579.83	-4.74617e-08
2588.51	-2.17159e-08
2597.19	-1.40998e-07
2605.86	-2.10734e-07
2614.54	-1.47722e-07
2623.22	-6.34351e-08
2631.9	-1.54431e-09
2640.58	8.86134e-08
2649.25	-3.80467e-08
2657.93	-4.64567e-09
2666.61	1.00998e-07
2675.29	5.6654e-07
2683.97	1.76703e-06
2692.65	1.78722e-06
2701.32	3.26221e-07
2710	2.07969e-07
2718.68	3.46695e-07
2727.36	4.00829e-07
2736.04	6.34149e-07
2744.71	3.84755e-07
2753.39	1.11383e-06
2762.07	2.31769e-06
2770.75	2.43671e-06
2779.43	1.11161e-07
2788.11	1.07197e-07
2796.78	2.0388e-08
2805.46	-9.86042e-08
2814.14	2.73156e-08
2822.82	7.60434e-08
2831.5	4.59346e-07
2840.17	1.31554e-06
2848.85	2.99375e-06
2857.53	3.56031e-06
2866.21	4.45966e-06
2874.89	4.98084e-06
2883.57	8.9918e-06
2892.24	1.13703e-05
2900.92	1.35466e-05
2909.6	3.67641e-06
2918.28	2.49105e-06
2926.96	2.07672e-06
2935.63	4.04023e-06
2944.31	1.08568e-05
2952.99	2.42953e-05
2961.67	2.84456e-05
2970.35	4.47523e-05
2979.03	5.83403e-05
2987.7	5.97573e-05
2996.38	3.64655e-05
3005.06	2.86768e-05
3013.74	2.43603e-05
3022.42	1.84322e-05
3031.09	1.33832e-05
3039.77	9.47889e-06
3048.45	7.92237e-06
3057.13	5.43493e-06
3065.81	2.91441e-06
3074.49	1.62165e-06
3083.16	9.33649e-07
3091.84	5.62021e-07
3100.52	6.3636e-07
3109.2	5.26952e-07
3117.88	3.50773e-07
3126.55	3.44105e-07
3135.23	1.35368e-08
3143.91	1.334e-07
3152.59	1.04251e-07
3161.27	-5.87058e-08
3169.95	-1.09105e-07
3178.62	-1.88245e-07
3187.3	8.67972e-08
3195.98	2.65713e-07
3204.66	1.45431e-07
3213.34	-1.0239e-08
3222.01	5.70669e-08
3230.69	1.33836e-07
3239.37	-7.10675e-09
3248.05	8.91227e-08
3256.73	2.13413e-07
3265.4	-4.4465e-08
3274.08	2.41579e-08
3282.76	1.15727e-07
3291.44	1.07079e-07
3300.12	1.3947e-08
3308.8	-6.88029e-09
3317.47	-1.18475e-07
3326.15	-1.88102e-07
3334.83	-1.15374e-07
3343.51	-9.88006e-08
3352.19	-4.66023e-08
3360.86	2.01079e-08
3369.54	-8.54475e-08
3378.22	2.33039e-08
3386.9	-1.1002e-07
3395.58	-1.1753e-07
3404.26	9.19976e-08
3412.93	2.27464e-07
3421.61	-1.38758e-07
3430.29	-6.98206e-08
3438.97	1.44809e-07
3447.65	-1.04232e-07
3456.32	-1.09315e-07
3465	-5.03494e-09
3473.68	-1.94998e-07
3482.36	7.94885e-08
3491.04	1.09794e-07
3499.72	-1.57269e-08
3508.39	-6.64646e-08
3517.07	-1.5912e-07
3525.75	-5.40237e-09
3534.43	-1.81658e-07
3543.11	-1.44231e-07
3551.78	-2.38614e-08
3560.46	-9.00713e-08
3569.14	-1.82155e-07
3577.82	-1.98462e-07
3586.5	-2.48387e-07
3595.18	-1.27703e-07
3603.85	5.45912e-08
3612.53	-1.29644e-07
3621.21	1.61487e-07
3629.89	-1.18989e-08
3638.57	2.38981e-07
3647.24	-3.66997e-08
3655.92	9.54019e-08
3664.6	2.81861e-07
3673.28	3.12845e-07
3681.96	3.41574e-07
3690.64	9.89525e-09
3699.31	2.32794e-07
3707.99	2.2932e-07
3716.67	1.50544e-07
3725.35	2.00057e-07
3734.03	4.21974e-07
3742.7	9.77483e-07
3751.38	1.10485e-06
3760.06	9.974e-07
3768.74	9.87527e-07
3777.42	1.0182e-06
3786.1	9.13635e-07
3794.77	6.98328e-07
3803.45	9.0642e-07
3812.13	5.06078e-07
3820.81	3.9802e-08
3829.49	3.15495e-07
3838.16	-3.52763e-07
3846.84	3.59988e-07
3855.52	4.46087e-08
3864.2	-6.24992e-08
3872.88	6.39362e-08
3881.56	3.05252e-08
3890.23	1.8987e-07
3898.91	7.46682e-08
3907.59	1.00738e-07
3916.27	1.28802e-08
3924.95	3.28808e-08
3933.62	-3.49326e-08
3942.3	1.74486e-07
3950.98	2.96195e-07
3959.66	3.17162e-07
3968.34	2.07931e-07
