Infrared Spectrum: Ethenyl Ester-Acetic Acid
Formula: C H3 C O2 C H: C H2
CAS: 108-05-4
State: gas
Melting point: -93.2 C
Boiling point: 72.2 C
Class: IUPAC A
Instrument: IFS66V (Bruker)
Instrument parameters: KBr Beam splitter; MCT Detector; Multipass cell
Sampling: 1 L/min Flow
Resolution: 0.2410
Temperature: 23 C
Pressure: 101.3 kPa
Origin: NIST, Anayltical Chemistry Division, 301-975-3108
cm-1	(micromol/mol)-1m-1 (base 10)
575.048	1.08899e-05
583.606	1.96952e-05
592.163	3.7456e-05
600.721	2.87169e-05
609.279	3.24273e-05
617.836	3.39604e-05
626.394	4.15124e-05
634.951	4.22163e-05
643.509	4.17561e-05
652.067	2.71672e-05
660.624	1.41642e-05
669.182	6.5128e-06
677.74	4.46655e-06
686.297	6.14269e-06
694.855	9.19021e-06
703.412	1.05112e-05
711.97	1.15795e-05
720.528	1.01441e-05
729.085	7.50345e-06
737.643	6.07983e-06
746.201	5.54487e-06
754.758	6.04362e-06
763.316	7.30854e-06
771.873	9.38186e-06
780.431	9.632e-06
788.989	9.4141e-06
797.546	8.9161e-06
806.104	9.80023e-06
814.662	1.30487e-05
823.219	1.99779e-05
831.777	3.78771e-05
840.334	7.94954e-05
848.892	0.000104454
857.45	0.000159895
866.007	0.000156826
874.565	0.000215939
883.123	0.000145373
891.68	9.37776e-05
900.238	3.5998e-05
908.795	1.45703e-05
917.353	1.56288e-05
925.911	3.43666e-05
934.468	7.01779e-05
943.026	0.000105137
951.584	0.000131929
960.141	0.000105851
968.699	0.000123427
977.256	0.000101603
985.814	9.80721e-05
994.372	6.59049e-05
1002.93	0.000110585
1011.49	0.00023628
1020.04	0.000348828
1028.6	0.000312655
1037.16	0.000170467
1045.72	7.68811e-05
1054.28	6.59478e-05
1062.83	6.04734e-05
1071.39	5.42588e-05
1079.95	4.63238e-05
1088.51	3.79961e-05
1097.06	3.11109e-05
1105.62	2.94233e-05
1114.18	3.31356e-05
1122.74	5.43619e-05
1131.29	0.000208027
1139.85	0.000896867
1148.41	0.000964267
1156.97	0.000766633
1165.52	7.82596e-05
1174.08	4.69476e-05
1182.64	6.57491e-05
1191.2	0.000115108
1199.75	0.00029924
1208.31	0.00105278
1216.87	0.00257602
1225.43	0.00283202
1233.99	0.00199228
1242.54	0.000387536
1251.1	0.000227637
1259.66	0.000192858
1268.22	7.28045e-05
1276.77	5.54643e-05
1285.33	0.000124332
1293.89	0.000171978
1302.45	0.000168831
1311	6.52058e-05
1319.56	2.15153e-05
1328.12	1.35309e-05
1336.68	1.23267e-05
1345.23	1.72291e-05
1353.79	4.28523e-05
1362.35	0.000165551
1370.91	0.000350875
1379.46	0.000442465
1388.02	0.000268675
1396.58	0.000105871
1405.14	3.61543e-05
1413.7	2.7427e-05
1422.25	3.05838e-05
1430.81	3.90029e-05
1439.37	3.70656e-05
1447.93	3.55441e-05
1456.48	2.89418e-05
1465.04	2.33826e-05
1473.6	2.08561e-05
1482.16	1.95881e-05
1490.71	1.7049e-05
1499.27	1.57524e-05
1507.83	1.47127e-05
1516.39	1.39028e-05
1524.94	1.27026e-05
1533.5	1.14909e-05
1542.06	9.87904e-06
1550.62	1.2601e-05
1559.18	1.6129e-05
1567.73	1.82596e-05
1576.29	1.92932e-05
1584.85	2.17588e-05
1593.41	2.24335e-05
1601.96	2.29673e-05
1610.52	2.75614e-05
1619.08	3.82208e-05
1627.64	4.69586e-05
1636.19	0.000108399
1644.75	0.000421529
1653.31	0.000555813
1661.87	0.000443623
1670.42	6.10133e-05
1678.98	2.48163e-05
1687.54	1.67957e-05
1696.1	1.43172e-05
1704.65	1.37823e-05
1713.21	1.17452e-05
1721.77	1.24564e-05
1730.33	2.00323e-05
1738.89	2.80357e-05
1747.44	6.06833e-05
1756	0.000146838
1764.56	0.000385131
1773.12	0.00102186
1781.67	0.00106974
1790.23	0.00148937
1798.79	0.000610701
1807.35	0.000211342
1815.9	5.44098e-05
1824.46	2.29003e-05
1833.02	2.03487e-05
1841.58	1.80274e-05
1850.13	2.17027e-05
1858.69	2.63105e-05
1867.25	2.84672e-05
1875.81	2.53034e-05
1884.36	1.72393e-05
1892.92	1.44671e-05
1901.48	1.42535e-05
1910.04	1.12925e-05
1918.6	6.55044e-06
1927.15	4.2822e-06
1935.71	4.4707e-06
1944.27	5.18802e-06
1952.83	5.23859e-06
1961.38	5.26971e-06
1969.94	4.7075e-06
1978.5	7.2052e-06
1987.06	1.2965e-05
1995.61	1.35416e-05
2004.17	1.06007e-05
2012.73	5.50197e-06
2021.29	5.41411e-06
2029.84	5.34645e-06
2038.4	6.21627e-06
2046.96	1.07269e-05
2055.52	2.10883e-05
2064.08	2.77287e-05
2072.63	2.62857e-05
2081.19	1.18817e-05
2089.75	6.65428e-06
2098.31	5.57366e-06
2106.86	6.09426e-06
2115.42	7.16521e-06
2123.98	7.30555e-06
2132.54	5.99752e-06
2141.09	3.91003e-06
2149.65	4.28973e-06
2158.21	4.47284e-06
2166.77	4.79398e-06
2175.32	4.40449e-06
2183.88	3.2396e-06
2192.44	2.44912e-06
2201	2.00581e-06
2209.55	2.45233e-06
2218.11	3.67578e-06
2226.67	4.85148e-06
2235.23	4.53624e-06
2243.79	3.61107e-06
2252.34	2.84097e-06
2260.9	2.21121e-06
2269.46	3.22226e-06
2278.02	8.17867e-06
2286.57	1.12196e-05
2295.13	1.10598e-05
2303.69	3.39059e-06
2312.25	1.18069e-06
2320.8	1.16752e-06
2329.36	1.52993e-06
2337.92	2.6148e-06
2346.48	3.38706e-06
2355.03	4.212e-06
2363.59	3.66081e-06
2372.15	3.13192e-06
2380.71	2.3779e-06
2389.26	1.52183e-06
2397.82	1.85141e-06
2406.38	2.56943e-06
2414.94	3.69939e-06
2423.5	5.54605e-06
2432.05	8.1621e-06
2440.61	8.2263e-06
2449.17	6.47921e-06
2457.73	2.88541e-06
2466.28	1.93179e-06
2474.84	1.65321e-06
2483.4	1.60624e-06
2491.96	1.83789e-06
2500.51	1.95489e-06
2509.07	1.10525e-06
2517.63	7.29375e-07
2526.19	6.36753e-07
2534.74	4.13581e-07
2543.3	2.80358e-07
2551.86	2.43998e-07
2560.42	2.56847e-07
2568.98	4.05724e-07
2577.53	1.09432e-06
2586.09	1.80963e-06
2594.65	1.89441e-06
2603.21	1.49e-06
2611.76	1.09644e-06
2620.32	1.69756e-06
2628.88	2.05327e-06
2637.44	2.1552e-06
2645.99	1.01867e-06
2654.55	8.83065e-07
2663.11	1.04116e-06
2671.67	1.12129e-06
2680.22	1.00101e-06
2688.78	6.42108e-07
2697.34	3.92868e-07
2705.9	3.98557e-07
2714.45	3.67491e-07
2723.01	4.48257e-07
2731.57	5.96003e-07
2740.13	1.49665e-06
2748.69	2.88259e-06
2757.24	2.724e-06
2765.8	3.08529e-06
2774.36	1.31851e-06
2782.92	1.11457e-06
2791.47	1.35647e-06
2800.03	1.62991e-06
2808.59	9.03662e-07
2817.15	7.127e-07
2825.7	6.6889e-07
2834.26	7.89046e-07
2842.82	1.23916e-06
2851.38	2.07616e-06
2859.93	2.32793e-06
2868.49	2.28076e-06
2877.05	1.53239e-06
2885.61	1.20287e-06
2894.16	1.10909e-06
2902.72	1.1718e-06
2911.28	1.22799e-06
2919.84	1.43697e-06
2928.4	2.29531e-06
2936.95	4.61684e-06
2945.51	9.56184e-06
2954.07	1.08539e-05
2962.63	1.23548e-05
2971.18	9.28756e-06
2979.74	8.97343e-06
2988.3	1.00151e-05
2996.86	1.21354e-05
3005.41	1.13763e-05
3013.97	1.15749e-05
3022.53	1.37389e-05
3031.09	1.70858e-05
3039.64	1.88206e-05
3048.2	2.0649e-05
3056.76	2.21448e-05
3065.32	2.33947e-05
3073.88	1.86493e-05
3082.43	1.74451e-05
3090.99	3.47467e-05
3099.55	4.15856e-05
3108.11	4.806e-05
3116.66	1.89748e-05
3125.22	2.64317e-05
3133.78	2.05229e-05
3142.34	1.83992e-05
3150.89	5.60248e-06
3159.45	2.60609e-06
3168.01	1.72308e-06
3176.57	1.22011e-06
3185.12	1.02891e-06
3193.68	1.04642e-06
3202.24	8.21623e-07
3210.8	6.16891e-07
3219.35	4.86585e-07
3227.91	2.63206e-07
3236.47	6.36251e-09
3245.03	5.15513e-08
3253.59	2.83676e-08
3262.14	-7.05006e-09
3270.7	-4.51778e-08
3279.26	-9.87845e-08
3287.82	7.83109e-08
3296.37	4.835e-08
3304.93	-3.26784e-08
3313.49	-3.48687e-07
3322.05	-4.6725e-07
3330.6	-2.61278e-07
3339.16	-4.01213e-08
3347.72	3.08995e-08
3356.28	-2.07355e-08
3364.83	-2.54391e-07
3373.39	-2.19505e-07
3381.95	-8.27272e-08
3390.51	-5.10638e-08
3399.06	-2.0579e-08
3407.62	-5.32501e-08
3416.18	-1.39964e-07
3424.74	-9.18181e-08
3433.3	-6.03875e-10
3441.85	-9.78968e-08
3450.41	-6.56114e-08
3458.97	1.63021e-07
3467.53	1.8667e-07
3476.08	9.00974e-08
3484.64	-1.37578e-07
3493.2	-9.35569e-08
3501.76	-1.1056e-07
3510.31	3.31716e-07
3518.87	1.28193e-06
3527.43	4.16579e-06
3535.99	1.10927e-05
3544.54	1.48365e-05
3553.1	1.68543e-05
3561.66	8.54139e-06
3570.22	2.63047e-06
3578.78	3.53783e-07
3587.33	-2.46144e-07
3595.89	-3.06135e-07
3604.45	-4.91678e-07
3613.01	-5.63739e-07
3621.56	-6.02256e-07
3630.12	-4.85228e-07
3638.68	-4.97884e-07
3647.24	-6.0999e-07
3655.79	-4.62543e-07
3664.35	-3.10555e-07
3672.91	-4.53917e-07
3681.47	-3.84901e-07
3690.02	-4.18223e-07
3698.58	-4.841e-07
3707.14	-4.19693e-07
3715.7	-4.9103e-07
3724.25	-3.8804e-07
3732.81	-4.49618e-07
3741.37	-5.91957e-07
3749.93	-6.59577e-07
3758.49	-4.47384e-07
3767.04	-4.16757e-07
3775.6	-3.80277e-07
3784.16	-4.56853e-07
3792.72	-3.75625e-07
3801.27	-1.37365e-06
3809.83	-2.97146e-07
3818.39	-4.16066e-07
3826.95	-4.5283e-07
3835.5	-2.61802e-07
3844.06	-2.55312e-07
3852.62	-3.46097e-07
3861.18	-1.98009e-07
3869.73	-3.64275e-07
3878.29	-1.06606e-07
3886.85	-1.56229e-07
3895.41	-7.71214e-08
3903.96	-7.23049e-08
3912.52	1.49663e-07
3921.08	6.8267e-08
3929.64	1.03153e-07
3938.2	1.28451e-07
3946.75	2.34624e-07
3955.31	3.35485e-07
3963.87	7.2067e-07
3972.43	1.13752e-06
