Infrared Spectrum: Toluene
Formula: C H3 C6 H5
CAS: 108-88-3
State: gas
Melting point: -95 C
Boiling point: 110.6 C
Class: IUPAC A
Instrument: IFS66V (Bruker)
Instrument parameters: KBr Beam splitter; MCT Detector; Multipass cell
Sampling: 1 L/min Flow
Resolution: 0.4820
Temperature: 23 C
Pressure: 101.3 kPa
Origin: NIST, Anayltical Chemistry Division, 301-975-3108
cm-1	(micromol/mol)-1m-1 (base 10)
574.928	-8.08064e-08
583.606	-3.74622e-07
592.284	-3.68738e-07
600.962	1.02065e-07
609.641	1.71234e-07
618.319	3.56746e-07
626.997	7.47717e-07
635.675	6.90052e-07
644.353	5.14775e-07
653.031	7.3447e-07
661.71	3.37626e-06
670.388	1.53621e-05
679.066	5.62702e-05
687.744	7.30482e-05
696.422	6.92784e-05
705.1	0.000107999
713.778	0.000163859
722.457	0.000193686
731.135	0.000268007
739.813	0.000177119
748.491	7.37837e-05
757.169	1.00613e-05
765.847	1.83584e-06
774.526	2.01398e-06
783.204	1.53526e-06
791.882	1.90851e-06
800.56	6.3931e-07
809.238	4.32541e-07
817.916	3.86525e-07
826.594	6.053e-07
835.273	4.44535e-07
843.951	3.92773e-07
852.629	7.96614e-07
861.307	1.08183e-06
869.985	1.33362e-06
878.663	2.28223e-06
887.342	3.05354e-06
896.02	3.84118e-06
904.698	3.25666e-06
913.376	2.85e-06
922.054	3.19075e-06
930.732	4.08889e-06
939.41	2.93265e-06
948.089	1.91015e-06
956.767	2.06949e-06
965.445	2.67063e-06
974.123	3.0734e-06
982.801	2.58783e-06
991.479	2.08878e-06
1000.16	1.74286e-06
1008.84	2.08908e-06
1017.51	7.33711e-06
1026.19	2.47849e-05
1034.87	1.79307e-05
1043.55	2.24726e-05
1052.23	1.29998e-05
1060.9	1.32771e-05
1069.58	1.87131e-05
1078.26	2.56058e-05
1086.94	2.45523e-05
1095.62	1.67473e-05
1104.3	7.62822e-06
1112.97	7.86741e-06
1121.65	3.45196e-06
1130.33	2.00575e-06
1139.01	1.63197e-06
1147.69	1.65675e-06
1156.36	2.02472e-06
1165.04	2.50517e-06
1173.72	2.88687e-06
1182.4	2.34048e-06
1191.08	2.15118e-06
1199.76	3.61696e-06
1208.43	4.20683e-06
1217.11	5.07932e-06
1225.79	2.32505e-06
1234.47	2.85273e-06
1243.15	2.68976e-06
1251.82	2.52416e-06
1260.5	1.18553e-06
1269.18	7.85197e-07
1277.86	8.78543e-07
1286.54	1.15364e-06
1295.21	1.57131e-06
1303.89	2.70702e-06
1312.57	2.39942e-06
1321.25	2.40517e-06
1329.93	1.8468e-06
1338.61	1.95911e-06
1347.28	2.60159e-06
1355.96	4.23789e-06
1364.64	5.44146e-06
1373.32	1.02056e-05
1382	1.46715e-05
1390.67	1.81315e-05
1399.35	8.46813e-06
1408.03	8.35997e-06
1416.71	1.08162e-05
1425.39	1.05783e-05
1434.07	1.35989e-05
1442.74	2.24423e-05
1451.42	3.34643e-05
1460.1	3.51126e-05
1468.78	3.25385e-05
1477.46	3.08666e-05
1486.13	5.71344e-05
1494.81	9.28105e-05
1503.49	8.84979e-05
1512.17	5.40551e-05
1520.85	2.06452e-05
1529.52	1.98418e-05
1538.2	1.568e-05
1546.88	1.10628e-05
1555.56	1.05177e-05
1564.24	1.04847e-05
1572.92	1.21238e-05
1581.59	9.38296e-06
1590.27	1.12257e-05
1598.95	3.46782e-05
1607.63	4.68091e-05
1616.31	4.79461e-05
1624.98	2.33258e-05
1633.66	6.25104e-06
1642.34	1.88405e-06
1651.02	1.81572e-06
1659.7	1.79477e-06
1668.38	1.86907e-06
1677.05	1.74411e-06
1685.73	1.80088e-06
1694.41	1.66714e-06
1703.09	1.5752e-06
1711.77	2.03992e-06
1720.44	3.80363e-06
1729.12	5.04755e-06
1737.8	5.76311e-06
1746.48	2.41247e-06
1755.16	1.22349e-06
1763.84	1.85622e-06
1772.51	2.95672e-06
1781.19	4.98161e-06
1789.87	1.01178e-05
1798.55	9.46785e-06
1807.23	1.23766e-05
1815.9	4.09628e-06
1824.58	3.47754e-06
1833.26	2.96614e-06
1841.94	5.48688e-06
1850.62	1.04381e-05
1859.29	1.29593e-05
1867.97	1.08262e-05
1876.65	7.35421e-06
1885.33	2.72366e-06
1894.01	1.36155e-06
1902.69	1.25439e-06
1911.36	1.38896e-06
1920.04	2.73924e-06
1928.72	7.57013e-06
1937.4	1.1807e-05
1946.08	1.63877e-05
1954.75	1.06036e-05
1963.43	6.44584e-06
1972.11	1.79528e-06
1980.79	9.72045e-07
1989.47	1.23012e-06
1998.15	1.22289e-06
2006.82	9.65431e-07
2015.5	6.87056e-07
2024.18	5.8042e-07
2032.86	3.08899e-07
2041.54	1.01651e-07
2050.21	8.3182e-08
2058.89	1.61577e-07
2067.57	2.47281e-07
2076.25	2.1311e-07
2084.93	1.56919e-07
2093.6	1.92214e-07
2102.28	2.20882e-07
2110.96	2.07941e-07
2119.64	2.52412e-07
2128.32	3.31756e-07
2137	2.6504e-07
2145.67	2.52703e-07
2154.35	4.78104e-07
2163.03	1.00994e-06
2171.71	1.18229e-06
2180.39	9.9794e-07
2189.06	6.48841e-07
2197.74	5.56165e-07
2206.42	4.69878e-07
2215.1	5.24453e-07
2223.78	4.99975e-07
2232.46	4.69484e-07
2241.13	5.87196e-07
2249.81	8.85682e-07
2258.49	1.01613e-06
2267.17	1.19566e-06
2275.85	1.39433e-06
2284.52	1.35367e-06
2293.2	1.31455e-06
2301.88	1.48427e-06
2310.56	1.62234e-06
2319.24	2.19062e-06
2327.92	1.84289e-06
2336.59	1.72433e-06
2345.27	2.24905e-06
2353.95	2.0728e-06
2362.63	1.84886e-06
2371.31	1.79368e-06
2379.98	1.14652e-06
2388.66	1.11578e-06
2397.34	1.26031e-06
2406.02	1.56502e-06
2414.7	1.80862e-06
2423.37	1.99185e-06
2432.05	1.31716e-06
2440.73	1.01527e-06
2449.41	8.58004e-07
2458.09	9.44115e-07
2466.77	1.02356e-06
2475.44	9.18709e-07
2484.12	8.59894e-07
2492.8	8.70465e-07
2501.48	9.58777e-07
2510.16	9.69583e-07
2518.83	7.89781e-07
2527.51	7.4274e-07
2536.19	7.58605e-07
2544.87	7.39646e-07
2553.55	6.55395e-07
2562.23	6.67057e-07
2570.9	8.159e-07
2579.58	1.3946e-06
2588.26	2.27605e-06
2596.94	2.66159e-06
2605.62	1.81135e-06
2614.29	1.35057e-06
2622.97	1.38162e-06
2631.65	1.23075e-06
2640.33	1.14779e-06
2649.01	8.98887e-07
2657.68	7.17453e-07
2666.36	6.60215e-07
2675.04	5.38971e-07
2683.72	5.90754e-07
2692.4	5.57056e-07
2701.08	5.0357e-07
2709.75	6.35655e-07
2718.43	8.03916e-07
2727.11	1.46097e-06
2735.79	4.85186e-06
2744.47	8.2614e-06
2753.14	6.73537e-06
2761.82	1.9863e-06
2770.5	1.35031e-06
2779.18	1.57317e-06
2787.86	1.88652e-06
2796.54	2.09376e-06
2805.21	2.25117e-06
2813.89	3.12888e-06
2822.57	4.12901e-06
2831.25	5.01753e-06
2839.93	6.48949e-06
2848.6	9.66912e-06
2857.28	1.79953e-05
2865.96	3.42189e-05
2874.64	5.47983e-05
2883.32	6.70328e-05
2892	6.05504e-05
2900.67	4.44422e-05
2909.35	4.13674e-05
2918.03	6.19797e-05
2926.71	0.000104212
2935.39	0.000118945
2944.06	0.000113028
2952.74	6.96556e-05
2961.42	5.27881e-05
2970.1	3.69504e-05
2978.78	3.85481e-05
2987.45	4.34513e-05
2996.13	4.84108e-05
3004.81	6.87363e-05
3013.49	7.26964e-05
3022.17	0.000123973
3030.85	0.000217986
3039.52	0.000221544
3048.2	0.000195415
3056.88	0.000107945
3065.56	0.000118772
3074.24	0.000138357
3082.91	0.00012468
3091.59	9.16685e-05
3100.27	7.49331e-05
3108.95	4.46621e-05
3117.63	2.79414e-05
3126.31	1.62146e-05
3134.98	7.06803e-06
3143.66	1.99621e-06
3152.34	1.31915e-06
3161.02	1.45528e-06
3169.7	1.61573e-06
3178.37	1.45162e-06
3187.05	1.26041e-06
3195.73	2.58511e-07
3204.41	2.41864e-07
3213.09	6.47341e-08
3221.77	1.77876e-07
3230.44	2.25515e-08
3239.12	6.90141e-08
3247.8	2.73765e-07
3256.48	3.10803e-07
3265.16	4.57659e-07
3273.83	5.61054e-07
3282.51	5.45469e-07
3291.19	5.04534e-07
3299.87	3.07382e-07
3308.55	3.57764e-07
3317.22	4.04479e-07
3325.9	5.65558e-07
3334.58	6.78126e-07
3343.26	6.86276e-07
3351.94	5.91458e-07
3360.62	5.91363e-07
3369.29	5.76636e-07
3377.97	6.48105e-07
3386.65	6.76074e-07
3395.33	5.1228e-07
3404.01	5.44246e-07
3412.68	4.03905e-07
3421.36	3.46656e-07
3430.04	5.44856e-07
3438.72	5.81745e-07
3447.4	6.23061e-07
3456.08	4.56503e-07
3464.75	4.28232e-07
3473.43	2.08328e-07
3482.11	1.85352e-07
3490.79	2.87281e-07
3499.47	2.5796e-07
3508.14	1.78694e-07
3516.82	3.2684e-07
3525.5	4.80646e-07
3534.18	3.08678e-07
3542.86	3.11079e-07
3551.53	3.2793e-07
3560.21	4.26105e-07
3568.89	3.83777e-07
3577.57	1.75131e-07
3586.25	2.7746e-07
3594.93	3.58036e-07
3603.6	3.66941e-07
3612.28	1.62401e-07
3620.96	4.26109e-07
3629.64	4.59542e-08
3638.32	6.817e-07
3646.99	8.10801e-07
3655.67	1.10981e-06
3664.35	1.1008e-06
3673.03	9.32616e-07
3681.71	7.07024e-07
3690.39	6.22335e-07
3699.06	5.6746e-07
3707.74	4.06863e-07
3716.42	6.1937e-07
3725.1	4.58381e-07
3733.78	4.53384e-07
3742.45	3.33098e-07
3751.13	2.49798e-07
3759.81	1.0376e-07
3768.49	3.12521e-07
3777.17	3.78114e-07
3785.85	4.72441e-07
3794.52	7.94647e-07
3803.2	7.2917e-07
3811.88	6.97628e-07
3820.56	6.15611e-07
3829.24	9.20216e-07
3837.91	2.19155e-07
3846.59	1.28565e-06
3855.27	1.58345e-06
3863.95	1.42922e-06
3872.63	1.22889e-06
3881.3	9.63636e-07
3889.98	8.14578e-07
3898.66	8.03361e-07
3907.34	9.62005e-07
3916.02	1.09808e-06
3924.7	1.1924e-06
3933.37	1.02864e-06
3942.05	9.54613e-07
3950.73	8.75702e-07
3959.41	8.64709e-07
3968.09	8.71078e-07
