Infrared Spectrum: Toluene
Formula: C H3 C6 H5
CAS: 108-88-3
State: gas
Melting point: -95 C
Boiling point: 110.6 C
Class: IUPAC A
Instrument: IFS66V (Bruker)
Instrument parameters: KBr Beam splitter; MCT Detector; Multipass cell
Sampling: 1 L/min Flow
Resolution: 1.9290
Temperature: 23 C
Pressure: 101.3 kPa
Origin: NIST, Anayltical Chemistry Division, 301-975-3108
cm-1	(micromol/mol)-1m-1 (base 10)
574.687	1.6585e-07
583.365	-2.48703e-07
592.043	-1.36786e-09
600.721	1.27275e-07
609.4	3.76075e-07
618.078	5.46518e-07
626.756	8.55026e-07
635.434	1.03017e-06
644.112	1.03038e-06
652.79	1.23322e-06
661.469	3.79556e-06
670.147	1.60493e-05
678.825	5.44904e-05
687.503	7.52135e-05
696.181	7.69155e-05
704.859	0.00010772
713.537	0.000161789
722.216	0.000197606
730.894	0.000304952
739.572	0.000176994
748.25	7.80137e-05
756.928	1.28279e-05
765.606	2.89705e-06
774.285	2.52444e-06
782.963	2.13087e-06
791.641	2.04978e-06
800.319	9.14602e-07
808.997	6.17413e-07
817.675	5.01223e-07
826.353	6.10988e-07
835.032	5.42257e-07
843.71	5.10557e-07
852.388	8.20399e-07
861.066	1.14461e-06
869.744	1.45069e-06
878.422	2.29414e-06
887.101	3.09652e-06
895.779	5.30748e-06
904.457	3.27263e-06
913.135	2.90975e-06
921.813	3.31821e-06
930.491	4.09065e-06
939.169	2.98317e-06
947.848	2.00405e-06
956.526	2.11757e-06
965.204	2.69485e-06
973.882	3.16077e-06
982.56	2.74409e-06
991.238	2.19669e-06
999.917	1.92874e-06
1008.59	2.29457e-06
1017.27	7.36509e-06
1025.95	2.39678e-05
1034.63	1.84295e-05
1043.31	2.26266e-05
1051.99	1.2376e-05
1060.66	1.33282e-05
1069.34	1.83758e-05
1078.02	2.53311e-05
1086.7	2.38258e-05
1095.38	1.69019e-05
1104.05	8.06998e-06
1112.73	8.01768e-06
1121.41	3.62933e-06
1130.09	2.08307e-06
1138.77	1.69847e-06
1147.45	1.7462e-06
1156.12	2.07333e-06
1164.8	2.44956e-06
1173.48	2.87987e-06
1182.16	2.39234e-06
1190.84	2.2753e-06
1199.51	3.51842e-06
1208.19	4.27236e-06
1216.87	4.86483e-06
1225.55	2.53803e-06
1234.23	2.84478e-06
1242.9	2.98476e-06
1251.58	2.56221e-06
1260.26	1.31162e-06
1268.94	8.35635e-07
1277.62	8.91814e-07
1286.3	1.21339e-06
1294.97	1.6085e-06
1303.65	2.69121e-06
1312.33	2.40163e-06
1321.01	2.44088e-06
1329.69	1.92354e-06
1338.36	2.03987e-06
1347.04	2.65242e-06
1355.72	4.05909e-06
1364.4	5.51055e-06
1373.08	9.9412e-06
1381.76	1.4545e-05
1390.43	1.77548e-05
1399.11	8.88167e-06
1407.79	8.97421e-06
1416.47	1.06062e-05
1425.15	1.09042e-05
1433.82	1.36934e-05
1442.5	2.24401e-05
1451.18	3.30674e-05
1459.86	3.47695e-05
1468.54	3.25937e-05
1477.22	3.09722e-05
1485.89	5.49289e-05
1494.57	9.29461e-05
1503.25	8.68603e-05
1511.93	5.69686e-05
1520.61	2.19843e-05
1529.28	2.01055e-05
1537.96	1.64752e-05
1546.64	1.14778e-05
1555.32	1.04847e-05
1564	1.05803e-05
1572.67	1.19553e-05
1581.35	9.77702e-06
1590.03	1.1552e-05
1598.71	3.3401e-05
1607.39	4.67179e-05
1616.07	4.79599e-05
1624.74	2.36342e-05
1633.42	7.0631e-06
1642.1	2.17575e-06
1650.78	1.87748e-06
1659.46	1.8321e-06
1668.13	1.96108e-06
1676.81	1.7983e-06
1685.49	1.56926e-06
1694.17	1.6527e-06
1702.85	1.64103e-06
1711.53	2.04974e-06
1720.2	3.7359e-06
1728.88	5.05507e-06
1737.56	5.58965e-06
1746.24	2.53615e-06
1754.92	1.3156e-06
1763.59	1.90274e-06
1772.27	3.13241e-06
1780.95	5.08004e-06
1789.63	9.74964e-06
1798.31	1.01597e-05
1806.98	1.19538e-05
1815.66	4.4886e-06
1824.34	3.54885e-06
1833.02	3.05572e-06
1841.7	5.45733e-06
1850.38	1.02109e-05
1859.05	1.21019e-05
1867.73	1.10241e-05
1876.41	7.21561e-06
1885.09	3.01995e-06
1893.77	1.47257e-06
1902.44	1.30618e-06
1911.12	1.44193e-06
1919.8	2.793e-06
1928.48	7.39387e-06
1937.16	1.17501e-05
1945.84	1.56964e-05
1954.51	1.07413e-05
1963.19	6.38359e-06
1971.87	2.04508e-06
1980.55	1.02034e-06
1989.23	1.26963e-06
1997.9	1.22951e-06
2006.58	1.01053e-06
2015.26	7.32062e-07
2023.94	5.94736e-07
2032.62	3.3114e-07
2041.3	1.51339e-07
2049.97	1.03669e-07
2058.65	1.64472e-07
2067.33	2.37276e-07
2076.01	2.26451e-07
2084.69	1.89495e-07
2093.36	1.93556e-07
2102.04	2.11108e-07
2110.72	2.45296e-07
2119.4	2.62017e-07
2128.08	3.20637e-07
2136.75	2.73693e-07
2145.43	2.50893e-07
2154.11	4.85661e-07
2162.79	9.99793e-07
2171.47	1.14776e-06
2180.15	1.02936e-06
2188.82	6.55949e-07
2197.5	6.07514e-07
2206.18	4.92461e-07
2214.86	5.12891e-07
2223.54	5.00418e-07
2232.21	4.92536e-07
2240.89	5.92663e-07
2249.57	9.05529e-07
2258.25	1.03623e-06
2266.93	1.18848e-06
2275.61	1.38818e-06
2284.28	1.34955e-06
2292.96	1.34574e-06
2301.64	1.48582e-06
2310.32	1.64674e-06
2319	2.05057e-06
2327.67	1.93716e-06
2336.35	1.81254e-06
2345.03	2.26422e-06
2353.71	2.13659e-06
2362.39	1.7763e-06
2371.06	1.74225e-06
2379.74	1.14698e-06
2388.42	1.15516e-06
2397.1	1.29432e-06
2405.78	1.57069e-06
2414.46	1.85377e-06
2423.13	2.01134e-06
2431.81	1.38811e-06
2440.49	1.0042e-06
2449.17	8.66874e-07
2457.85	9.46159e-07
2466.52	1.02852e-06
2475.2	9.24812e-07
2483.88	8.09192e-07
2492.56	8.61376e-07
2501.24	9.97026e-07
2509.92	9.61919e-07
2518.59	7.96859e-07
2527.27	7.63836e-07
2535.95	7.90122e-07
2544.63	7.5834e-07
2553.31	7.41296e-07
2561.98	6.80403e-07
2570.66	8.54565e-07
2579.34	1.39613e-06
2588.02	2.22728e-06
2596.7	2.61143e-06
2605.38	1.89484e-06
2614.05	1.38913e-06
2622.73	1.38799e-06
2631.41	1.24294e-06
2640.09	1.15077e-06
2648.77	9.26786e-07
2657.44	7.32961e-07
2666.12	6.44107e-07
2674.8	5.75452e-07
2683.48	5.95465e-07
2692.16	5.89662e-07
2700.83	5.65885e-07
2709.51	6.39163e-07
2718.19	8.79012e-07
2726.87	1.56895e-06
2735.55	4.67762e-06
2744.23	7.32558e-06
2752.9	6.65102e-06
2761.58	2.19484e-06
2770.26	1.43938e-06
2778.94	1.62223e-06
2787.62	1.92984e-06
2796.29	2.11852e-06
2804.97	2.37277e-06
2813.65	3.18052e-06
2822.33	4.23159e-06
2831.01	5.11177e-06
2839.69	6.67335e-06
2848.36	9.85077e-06
2857.04	1.79999e-05
2865.72	3.37824e-05
2874.4	5.39501e-05
2883.08	6.65516e-05
2891.75	6.05625e-05
2900.43	4.54175e-05
2909.11	4.2033e-05
2917.79	6.11809e-05
2926.47	0.000102273
2935.14	0.000118523
2943.82	0.000112324
2952.5	7.10208e-05
2961.18	5.28472e-05
2969.86	3.80875e-05
2978.54	3.87529e-05
2987.21	4.41255e-05
2995.89	4.86554e-05
3004.57	6.7231e-05
3013.25	7.30163e-05
3021.93	0.000120442
3030.6	0.000212073
3039.28	0.000217419
3047.96	0.000195755
3056.64	0.000110352
3065.32	0.000118082
3074	0.000138096
3082.67	0.00012479
3091.35	9.26769e-05
3100.03	7.38288e-05
3108.71	4.59903e-05
3117.39	2.87057e-05
3126.06	1.68236e-05
3134.74	7.69555e-06
3143.42	2.45185e-06
3152.1	1.6015e-06
3160.78	1.56406e-06
3169.46	1.71184e-06
3178.13	1.62286e-06
3186.81	1.27843e-06
3195.49	3.85208e-07
3204.17	2.45186e-07
3212.85	1.79096e-07
3221.52	2.88272e-07
3230.2	1.15141e-07
3238.88	1.48954e-07
3247.56	2.62884e-07
3256.24	3.5518e-07
3264.91	4.38554e-07
3273.59	5.57458e-07
3282.27	5.04931e-07
3290.95	5.05895e-07
3299.63	4.4664e-07
3308.31	4.11755e-07
3316.98	4.46751e-07
3325.66	5.68464e-07
3334.34	7.38244e-07
3343.02	7.56425e-07
3351.7	5.94152e-07
3360.37	5.477e-07
3369.05	5.8669e-07
3377.73	7.21359e-07
3386.41	6.70117e-07
3395.09	6.0525e-07
3403.77	5.17371e-07
3412.44	4.70406e-07
3421.12	3.54661e-07
3429.8	5.1677e-07
3438.48	5.75261e-07
3447.16	6.57508e-07
3455.83	4.94784e-07
3464.51	4.17811e-07
3473.19	2.52342e-07
3481.87	1.61529e-07
3490.55	2.28381e-07
3499.22	2.49464e-07
3507.9	2.07331e-07
3516.58	2.75606e-07
3525.26	4.77563e-07
3533.94	3.1135e-07
3542.62	3.34519e-07
3551.29	3.90119e-07
3559.97	4.54424e-07
3568.65	3.78863e-07
3577.33	2.51484e-07
3586.01	2.8459e-07
3594.68	3.86219e-07
3603.36	4.65562e-07
3612.04	2.30596e-07
3620.72	3.67384e-07
3629.4	3.45504e-07
3638.08	7.15087e-07
3646.75	8.62105e-07
3655.43	1.11215e-06
3664.11	1.17517e-06
3672.79	8.71601e-07
3681.47	6.71815e-07
3690.14	5.46602e-07
3698.82	5.47006e-07
3707.5	5.10409e-07
3716.18	5.76531e-07
3724.86	5.35249e-07
3733.54	4.29247e-07
3742.21	3.12374e-07
3750.89	2.16755e-07
3759.57	2.39899e-07
3768.25	3.13554e-07
3776.93	3.88572e-07
3785.6	5.38346e-07
3794.28	7.7286e-07
3802.96	7.17289e-07
3811.64	7.74968e-07
3820.32	6.93308e-07
3828.99	9.65935e-07
3837.67	8.66417e-07
3846.35	1.33995e-06
3855.03	1.30077e-06
3863.71	1.41006e-06
3872.39	1.17756e-06
3881.06	9.19889e-07
3889.74	8.41407e-07
3898.42	8.30706e-07
3907.1	9.95611e-07
3915.78	1.12347e-06
3924.45	1.18349e-06
3933.13	1.0151e-06
3941.81	9.25163e-07
3950.49	8.6662e-07
3959.17	8.52863e-07
3967.85	9.34612e-07
