Infrared Spectrum: Ethenyl Ester-Acetic Acid
Formula: C H3 C O2 C H: C H2
CAS: 108-05-4
State: gas
Melting point: -93.2 C
Boiling point: 72.2 C
Class: IUPAC A
Instrument: IFS66V (Bruker)
Instrument parameters: KBr Beam splitter; MCT Detector; Multipass cell
Sampling: 1 L/min Flow
Resolution: 0.4820
Temperature: 23 C
Pressure: 101.3 kPa
Origin: NIST, Anayltical Chemistry Division, 301-975-3108
cm-1	(micromol/mol)-1m-1 (base 10)
574.928	1.06392e-05
583.606	1.94934e-05
592.284	3.79997e-05
600.962	2.88084e-05
609.641	3.2546e-05
618.319	3.42172e-05
626.997	4.22738e-05
635.675	4.20346e-05
644.353	4.11128e-05
653.031	2.51078e-05
661.71	1.2979e-05
670.388	5.84382e-06
679.066	4.80338e-06
687.744	6.58123e-06
696.422	9.62688e-06
705.1	1.08232e-05
713.778	1.21284e-05
722.457	9.01227e-06
731.135	7.167e-06
739.813	5.88321e-06
748.491	5.65826e-06
757.169	6.3556e-06
765.847	7.75557e-06
774.526	9.76986e-06
783.204	9.60425e-06
791.882	9.10913e-06
800.56	9.11713e-06
809.238	1.05028e-05
817.916	1.51327e-05
826.594	2.51918e-05
835.273	5.20135e-05
843.951	8.8694e-05
852.629	0.000132004
861.307	0.000155375
869.985	0.000268998
878.663	0.000160576
887.342	0.000125416
896.02	6.04946e-05
904.698	2.09741e-05
913.376	1.30133e-05
922.054	2.32682e-05
930.732	5.42933e-05
939.41	8.73846e-05
948.089	0.000126207
956.767	0.000156397
965.445	0.000114601
974.123	0.000107425
982.801	0.000104672
991.479	6.67412e-05
1000.16	8.92241e-05
1008.84	0.000186437
1017.51	0.00034047
1026.19	0.000356462
1034.87	0.000229671
1043.55	8.58531e-05
1052.23	6.8541e-05
1060.9	6.12343e-05
1069.58	5.58317e-05
1078.26	4.8012e-05
1086.94	3.94286e-05
1095.62	3.20123e-05
1104.3	2.92295e-05
1112.97	3.21522e-05
1121.65	4.9517e-05
1130.33	0.000167022
1139.01	0.000843045
1147.69	0.000943707
1156.36	0.000838131
1165.04	8.70667e-05
1173.72	4.67996e-05
1182.4	6.47697e-05
1191.08	0.000114193
1199.76	0.00029936
1208.43	0.00106981
1217.11	0.00260517
1225.79	0.00277066
1234.47	0.00184675
1243.15	0.000364437
1251.82	0.000227839
1260.5	0.000183349
1269.18	6.70711e-05
1277.86	5.76485e-05
1286.54	0.000141227
1295.21	0.000172172
1303.89	0.000160733
1312.57	5.04025e-05
1321.25	1.89513e-05
1329.93	1.2913e-05
1338.61	1.26794e-05
1347.28	2.04168e-05
1355.96	5.89241e-05
1364.64	0.000228271
1373.32	0.000385505
1382	0.00043994
1390.67	0.000200276
1399.35	7.35399e-05
1408.03	2.9866e-05
1416.71	2.83419e-05
1425.39	3.23598e-05
1434.07	4.02099e-05
1442.74	3.55755e-05
1451.42	3.36355e-05
1460.1	2.72085e-05
1468.78	2.26348e-05
1477.46	2.07814e-05
1486.13	1.85281e-05
1494.81	1.63977e-05
1503.49	1.52865e-05
1512.17	1.42798e-05
1520.85	1.30926e-05
1529.52	1.21158e-05
1538.2	1.09136e-05
1546.88	1.15577e-05
1555.56	1.47055e-05
1564.24	1.77159e-05
1572.92	1.97283e-05
1581.59	2.16432e-05
1590.27	2.22372e-05
1598.95	2.26817e-05
1607.63	2.55578e-05
1616.31	3.40116e-05
1624.98	4.45269e-05
1633.66	7.51437e-05
1642.34	0.00031394
1651.02	0.000404771
1659.7	0.000533877
1668.38	9.24751e-05
1677.05	2.89935e-05
1685.73	1.75356e-05
1694.41	1.62004e-05
1703.09	1.39909e-05
1711.77	1.2288e-05
1720.44	1.21469e-05
1729.12	1.85232e-05
1737.8	2.72413e-05
1746.48	5.56397e-05
1755.16	0.00013294
1763.84	0.00035563
1772.51	0.000956489
1781.19	0.00111681
1789.87	0.00148597
1798.55	0.000630397
1807.23	0.000214856
1815.9	5.44514e-05
1824.58	2.27837e-05
1833.26	2.0227e-05
1841.94	1.81131e-05
1850.62	2.18832e-05
1859.29	2.67069e-05
1867.97	2.81781e-05
1876.65	2.50453e-05
1885.33	1.64078e-05
1894.01	1.45074e-05
1902.69	1.37187e-05
1911.36	1.02435e-05
1920.04	5.78218e-06
1928.72	4.26253e-06
1937.4	4.65281e-06
1946.08	5.1859e-06
1954.75	5.40593e-06
1963.43	5.02044e-06
1972.11	4.93396e-06
1980.79	8.78174e-06
1989.47	1.30423e-05
1998.15	1.38358e-05
2006.82	7.56976e-06
2015.5	5.327e-06
2024.18	5.24961e-06
2032.86	5.45687e-06
2041.54	7.23546e-06
2050.21	1.40631e-05
2058.89	2.51133e-05
2067.57	2.79882e-05
2076.25	2.06008e-05
2084.93	8.47207e-06
2093.6	5.98045e-06
2102.28	5.60243e-06
2110.96	6.71334e-06
2119.64	6.98557e-06
2128.32	7.26166e-06
2137	4.193e-06
2145.67	4.11498e-06
2154.35	4.39593e-06
2163.03	4.86749e-06
2171.71	4.62986e-06
2180.39	3.92599e-06
2189.06	2.56924e-06
2197.74	2.1416e-06
2206.42	2.14229e-06
2215.1	3.2382e-06
2223.78	4.44767e-06
2232.46	4.77345e-06
2241.13	3.88779e-06
2249.81	3.02121e-06
2258.49	2.26982e-06
2267.17	2.73373e-06
2275.85	6.49583e-06
2284.52	1.12608e-05
2293.2	1.12189e-05
2301.88	5.12866e-06
2310.56	1.29243e-06
2319.24	1.17212e-06
2327.92	1.40262e-06
2336.59	2.41981e-06
2345.27	3.34255e-06
2353.95	4.19358e-06
2362.63	3.79981e-06
2371.31	3.21208e-06
2379.98	2.45832e-06
2388.66	1.52932e-06
2397.34	1.84674e-06
2406.02	2.52188e-06
2414.7	3.61156e-06
2423.37	5.51702e-06
2432.05	8.18045e-06
2440.73	8.23347e-06
2449.41	6.38941e-06
2458.09	2.83369e-06
2466.77	1.92385e-06
2475.44	1.63041e-06
2484.12	1.62549e-06
2492.8	1.88179e-06
2501.48	1.89815e-06
2510.16	9.74789e-07
2518.83	7.33333e-07
2527.51	5.80898e-07
2536.19	3.856e-07
2544.87	2.97052e-07
2553.55	2.57716e-07
2562.23	2.74126e-07
2570.9	5.65376e-07
2579.58	1.28845e-06
2588.26	1.98035e-06
2596.94	1.82524e-06
2605.62	1.33928e-06
2614.29	1.14985e-06
2622.97	1.92315e-06
2631.65	2.10689e-06
2640.33	1.83517e-06
2649.01	9.10094e-07
2657.68	9.14758e-07
2666.36	1.15743e-06
2675.04	1.14693e-06
2683.72	8.64476e-07
2692.4	5.05571e-07
2701.08	3.55988e-07
2709.75	4.01577e-07
2718.43	4.47082e-07
2727.11	5.11697e-07
2735.79	9.37963e-07
2744.47	2.15268e-06
2753.14	3.02968e-06
2761.82	3.22325e-06
2770.5	1.9287e-06
2779.18	1.02862e-06
2787.86	1.3555e-06
2796.54	1.48771e-06
2805.21	1.29257e-06
2813.89	6.72295e-07
2822.57	6.43632e-07
2831.25	7.6094e-07
2839.93	1.04501e-06
2848.6	1.82889e-06
2857.28	2.36826e-06
2865.96	2.38372e-06
2874.64	1.73129e-06
2883.32	1.29929e-06
2892	1.1353e-06
2900.67	1.15839e-06
2909.35	1.19029e-06
2918.03	1.39903e-06
2926.71	2.07406e-06
2935.39	4.00992e-06
2944.06	8.72725e-06
2952.74	1.07424e-05
2961.42	1.24762e-05
2970.1	9.46838e-06
2978.78	8.98039e-06
2987.45	9.86183e-06
2996.13	1.2238e-05
3004.81	1.13888e-05
3013.49	1.15612e-05
3022.17	1.35125e-05
3030.85	1.70214e-05
3039.52	1.8823e-05
3048.2	2.06246e-05
3056.88	2.21639e-05
3065.56	2.3467e-05
3074.24	1.83965e-05
3082.91	1.77693e-05
3091.59	3.68965e-05
3100.27	4.16743e-05
3108.95	4.80061e-05
3117.63	1.81366e-05
3126.31	2.59301e-05
3134.98	2.22977e-05
3143.66	1.51143e-05
3152.34	4.8517e-06
3161.02	2.361e-06
3169.7	1.4993e-06
3178.37	1.13148e-06
3187.05	1.02354e-06
3195.73	1.05553e-06
3204.41	7.60486e-07
3213.09	5.86653e-07
3221.77	4.17652e-07
3230.44	2.31055e-07
3239.12	9.26839e-08
3247.8	-9.71293e-09
3256.48	4.03214e-08
3265.16	-3.97612e-09
3273.83	-5.84667e-08
3282.51	-1.10276e-07
3291.19	5.66333e-08
3299.87	3.82951e-08
3308.55	-1.63803e-07
3317.22	-5.2464e-07
3325.9	-4.55525e-07
3334.58	-1.64578e-07
3343.26	-1.68721e-08
3351.94	-5.41668e-09
3360.62	-1.47793e-07
3369.29	-1.48288e-07
3377.97	-4.02595e-08
3386.65	-3.1296e-08
3395.33	-4.16819e-08
3404.01	-1.69081e-07
3412.68	-1.45425e-07
3421.36	-1.22252e-07
3430.04	-5.06418e-08
3438.72	-4.19329e-08
3447.4	5.44179e-08
3456.08	2.36086e-07
3464.75	1.92643e-07
3473.43	2.46064e-07
3482.11	-6.3847e-08
3490.79	-1.69096e-07
3499.47	-6.53713e-08
3508.14	1.74098e-07
3516.82	1.01441e-06
3525.5	3.29889e-06
3534.18	9.27204e-06
3542.86	1.54728e-05
3551.53	1.50382e-05
3560.21	1.04241e-05
3568.89	3.24482e-06
3577.57	4.08027e-07
3586.25	-3.49469e-07
3594.93	-4.33273e-07
3603.6	-5.74554e-07
3612.28	-7.37771e-07
3620.96	-5.57311e-07
3629.64	-1.21188e-06
3638.32	-4.86836e-07
3646.99	-5.27234e-07
3655.67	-4.80954e-07
3664.35	-3.22797e-07
3673.03	-4.26619e-07
3681.71	-3.85552e-07
3690.39	-5.24553e-07
3699.06	-4.5295e-07
3707.74	-4.63467e-07
3716.42	-4.22061e-07
3725.1	-4.66199e-07
3733.78	-4.69967e-07
3742.45	-4.70153e-07
3751.13	-4.94657e-07
3759.81	-6.96999e-07
3768.49	-4.11057e-07
3777.17	-4.57315e-07
3785.85	-4.14902e-07
3794.52	-4.15953e-07
3803.2	-4.96309e-07
3811.88	-3.85752e-07
3820.56	-6.58849e-07
3829.24	-2.92606e-07
3837.91	-1.42876e-06
3846.59	-2.37676e-07
3855.27	-3.37704e-07
3863.95	-2.32339e-07
3872.63	-1.6727e-07
3881.3	-1.49979e-07
3889.98	-5.12275e-08
3898.66	-6.06349e-08
3907.34	1.29098e-07
3916.02	7.43384e-08
3924.7	9.50739e-08
3933.37	1.57047e-07
3942.05	1.83189e-07
3950.73	2.27952e-07
3959.41	4.68516e-07
3968.09	9.14055e-07
