Infrared Spectrum: Toluene
Formula: C H3 C6 H5
CAS: 108-88-3
State: gas
Melting point: -95 C
Boiling point: 110.6 C
Class: IUPAC A
Instrument: IFS66V (Bruker)
Instrument parameters: KBr Beam splitter; MCT Detector; Multipass cell
Sampling: 1 L/min Flow
Resolution: 0.2410
Temperature: 23 C
Pressure: 101.3 kPa
Origin: NIST, Anayltical Chemistry Division, 301-975-3108
cm-1	(micromol/mol)-1m-1 (base 10)
575.048	4.81924e-08
583.606	-4.09449e-07
592.163	-3.7111e-07
600.721	2.21819e-07
609.279	2.5586e-07
617.836	4.80792e-07
626.394	5.49873e-07
634.951	7.17863e-07
643.509	1.00973e-06
652.067	7.35846e-07
660.624	2.60304e-06
669.182	1.26414e-05
677.74	4.66997e-05
686.297	7.1357e-05
694.855	0.000105115
703.412	0.000104165
711.97	0.000151459
720.528	0.000186846
729.085	0.000812485
737.643	0.00018678
746.201	0.000104767
754.758	2.05259e-05
763.316	2.43474e-06
771.873	1.6178e-06
780.431	2.34193e-06
788.989	1.1215e-06
797.546	1.17005e-06
806.104	4.61902e-07
814.662	2.86386e-07
823.219	4.13315e-07
831.777	3.79903e-07
840.334	4.60683e-07
848.892	7.55749e-07
857.45	8.9474e-07
866.007	1.13432e-06
874.565	2.02039e-06
883.123	2.73375e-06
891.68	4.03269e-06
900.238	3.18547e-06
908.795	3.02296e-06
917.353	3.064e-06
925.911	3.54372e-06
934.468	3.91705e-06
943.026	2.58749e-06
951.584	1.76911e-06
960.141	2.37236e-06
968.699	2.96392e-06
977.256	2.89565e-06
985.814	2.45911e-06
994.372	2.11214e-06
1002.93	1.8001e-06
1011.49	2.55714e-06
1020.04	1.31801e-05
1028.6	1.84557e-05
1037.16	2.61622e-05
1045.72	1.83724e-05
1054.28	1.26618e-05
1062.83	1.3753e-05
1071.39	2.10015e-05
1079.95	1.96689e-05
1088.51	2.37414e-05
1097.06	1.59309e-05
1105.62	8.26139e-06
1114.18	7.01583e-06
1122.74	3.12991e-06
1131.29	1.86674e-06
1139.85	1.60594e-06
1148.41	1.75464e-06
1156.97	2.16543e-06
1165.52	2.52353e-06
1174.08	2.81423e-06
1182.64	2.36241e-06
1191.2	2.1808e-06
1199.75	3.60306e-06
1208.31	4.23265e-06
1216.87	4.97922e-06
1225.43	2.38828e-06
1233.99	2.80074e-06
1242.54	2.79266e-06
1251.1	2.67659e-06
1259.66	1.3269e-06
1268.22	8.33992e-07
1276.77	8.36628e-07
1285.33	1.09352e-06
1293.89	1.5348e-06
1302.45	2.62439e-06
1311	2.02916e-06
1319.56	2.50263e-06
1328.12	1.88713e-06
1336.68	1.86993e-06
1345.23	2.39883e-06
1353.79	3.43563e-06
1362.35	4.90793e-06
1370.91	8.63434e-06
1379.46	1.28861e-05
1388.02	1.75589e-05
1396.58	1.07229e-05
1405.14	8.29634e-06
1413.7	9.09257e-06
1422.25	1.37349e-05
1430.81	1.21429e-05
1439.37	1.84949e-05
1447.93	3.00128e-05
1456.48	3.25096e-05
1465.04	3.24269e-05
1473.6	3.33342e-05
1482.16	3.26099e-05
1490.71	9.1468e-05
1499.27	0.000103581
1507.83	9.99503e-05
1516.39	3.15137e-05
1524.94	2.46544e-05
1533.5	1.83285e-05
1542.06	1.3358e-05
1550.62	1.01017e-05
1559.18	1.15435e-05
1567.73	8.73805e-06
1576.29	1.02341e-05
1584.85	8.85586e-06
1593.41	1.73235e-05
1601.96	4.06025e-05
1610.52	4.51245e-05
1619.08	3.84896e-05
1627.64	1.90772e-05
1636.19	3.54754e-06
1644.75	1.8239e-06
1653.31	3.25137e-07
1661.87	1.96643e-06
1670.42	1.81586e-06
1678.98	1.77186e-06
1687.54	1.53694e-06
1696.1	8.59681e-07
1704.65	1.46213e-06
1713.21	2.19747e-06
1721.77	4.26457e-06
1730.33	4.40543e-06
1738.89	5.48195e-06
1747.44	2.1975e-06
1756	1.24692e-06
1764.56	1.98765e-06
1773.12	3.54065e-06
1781.67	5.06673e-06
1790.23	1.05251e-05
1798.79	9.65983e-06
1807.35	1.23861e-05
1815.9	4.08991e-06
1824.46	3.49908e-06
1833.02	2.92421e-06
1841.58	5.29412e-06
1850.13	1.04359e-05
1858.69	1.17334e-05
1867.25	1.15168e-05
1875.81	6.94257e-06
1884.36	3.2991e-06
1892.92	1.40303e-06
1901.48	1.19006e-06
1910.04	1.27241e-06
1918.6	2.34867e-06
1927.15	6.2913e-06
1935.71	1.24001e-05
1944.27	1.43074e-05
1952.83	1.26857e-05
1961.38	6.01799e-06
1969.94	2.91927e-06
1978.5	8.18043e-07
1987.06	1.16303e-06
1995.61	1.41552e-06
2004.17	1.1503e-06
2012.73	7.67095e-07
2021.29	5.83864e-07
2029.84	3.93981e-07
2038.4	1.26319e-07
2046.96	1.64181e-07
2055.52	2.04434e-07
2064.08	1.40434e-07
2072.63	2.15423e-07
2081.19	2.39621e-07
2089.75	1.71806e-07
2098.31	2.0174e-07
2106.86	1.43232e-07
2115.42	3.05753e-07
2123.98	3.13122e-07
2132.54	2.76832e-07
2141.09	2.43659e-07
2149.65	2.1349e-07
2158.21	7.75409e-07
2166.77	1.06392e-06
2175.32	1.36341e-06
2183.88	7.61368e-07
2192.44	8.00972e-07
2201	4.92697e-07
2209.55	5.3506e-07
2218.11	5.09842e-07
2226.67	4.40038e-07
2235.23	4.89127e-07
2243.79	6.20032e-07
2252.34	9.50498e-07
2260.9	9.56925e-07
2269.46	1.29081e-06
2278.02	1.47069e-06
2286.57	1.28893e-06
2295.13	1.25122e-06
2303.69	1.6833e-06
2312.25	1.74781e-06
2320.8	2.06686e-06
2329.36	1.94264e-06
2337.92	1.89666e-06
2346.48	2.22562e-06
2355.03	2.15927e-06
2363.59	1.41516e-06
2372.15	1.58348e-06
2380.71	1.15707e-06
2389.26	1.23569e-06
2397.82	1.31743e-06
2406.38	1.61899e-06
2414.94	1.76905e-06
2423.5	1.97975e-06
2432.05	1.32687e-06
2440.61	9.81602e-07
2449.17	8.32014e-07
2457.73	9.6359e-07
2466.28	1.01044e-06
2474.84	9.234e-07
2483.4	7.55863e-07
2491.96	8.47292e-07
2500.51	1.0475e-06
2509.07	9.07877e-07
2517.63	7.40993e-07
2526.19	7.36144e-07
2534.74	8.07565e-07
2543.3	7.49261e-07
2551.86	8.08611e-07
2560.42	5.75949e-07
2568.98	7.50598e-07
2577.53	1.17519e-06
2586.09	2.13453e-06
2594.65	2.4523e-06
2603.21	2.30154e-06
2611.76	1.60153e-06
2620.32	1.27223e-06
2628.88	1.21567e-06
2637.44	1.18918e-06
2645.99	9.3022e-07
2654.55	8.33246e-07
2663.11	7.05502e-07
2671.67	5.86687e-07
2680.22	5.42328e-07
2688.78	5.39034e-07
2697.34	5.34157e-07
2705.9	5.55047e-07
2714.45	7.35083e-07
2723.01	1.03049e-06
2731.57	2.89444e-06
2740.13	5.20752e-06
2748.69	6.12713e-06
2757.24	3.4841e-06
2765.8	1.51233e-06
2774.36	1.42048e-06
2782.92	1.60104e-06
2791.47	1.9271e-06
2800.03	2.22376e-06
2808.59	2.48142e-06
2817.15	3.54605e-06
2825.7	4.22621e-06
2834.26	5.72258e-06
2842.82	7.15185e-06
2851.38	1.17327e-05
2859.93	2.21204e-05
2868.49	3.9553e-05
2877.05	6.21477e-05
2885.61	6.60024e-05
2894.16	5.7622e-05
2902.72	4.13994e-05
2911.28	4.51246e-05
2919.84	6.81544e-05
2928.4	0.000107887
2936.95	0.00011945
2945.51	0.000107404
2954.07	6.74515e-05
2962.63	5.13177e-05
2971.18	3.50637e-05
2979.74	3.94253e-05
2988.3	4.07054e-05
2996.86	5.18291e-05
3005.41	6.70532e-05
3013.97	7.47118e-05
3022.53	0.000127261
3031.09	0.000218578
3039.64	0.00022216
3048.2	0.000195303
3056.76	0.000108121
3065.32	0.000118472
3073.88	0.000147206
3082.43	0.000128782
3090.99	9.55084e-05
3099.55	7.41181e-05
3108.11	4.77675e-05
3116.66	2.95233e-05
3125.22	1.72886e-05
3133.78	8.4287e-06
3142.34	2.37303e-06
3150.89	1.28035e-06
3159.45	1.21611e-06
3168.01	1.46755e-06
3176.57	1.55866e-06
3185.12	1.36702e-06
3193.68	3.69901e-07
3202.24	1.80457e-07
3210.8	1.83879e-07
3219.35	1.61614e-07
3227.91	1.07129e-07
3236.47	2.37649e-07
3245.03	1.97262e-07
3253.59	2.94805e-07
3262.14	2.15815e-07
3270.7	4.22339e-07
3279.26	4.15206e-07
3287.82	3.94816e-07
3296.37	4.16818e-07
3304.93	4.25035e-07
3313.49	3.18534e-07
3322.05	5.38869e-07
3330.6	7.07214e-07
3339.16	6.88199e-07
3347.72	6.00405e-07
3356.28	4.0755e-07
3364.83	5.61833e-07
3373.39	7.04341e-07
3381.95	6.83434e-07
3390.51	4.70293e-07
3399.06	6.17446e-07
3407.62	4.67131e-07
3416.18	3.70204e-07
3424.74	3.88218e-07
3433.3	4.05634e-07
3441.85	5.97483e-07
3450.41	6.61619e-07
3458.97	5.27229e-07
3467.53	3.28089e-07
3476.08	1.35128e-07
3484.64	2.13058e-07
3493.2	9.47132e-08
3501.76	2.26312e-07
3510.31	4.27976e-07
3518.87	1.76145e-07
3527.43	3.23578e-07
3535.99	2.73097e-07
3544.54	2.84731e-07
3553.1	5.01396e-07
3561.66	4.23672e-07
3570.22	4.11927e-07
3578.78	2.856e-07
3587.33	4.71935e-07
3595.89	3.77021e-07
3604.45	5.1636e-07
3613.01	2.06509e-07
3621.56	3.99817e-07
3630.12	5.0066e-07
3638.68	7.41504e-07
3647.24	8.07725e-07
3655.79	1.08361e-06
3664.35	1.04016e-06
3672.91	9.39256e-07
3681.47	6.57309e-07
3690.02	5.03525e-07
3698.58	5.52624e-07
3707.14	5.80496e-07
3715.7	4.65606e-07
3724.25	5.61555e-07
3732.81	4.54145e-07
3741.37	2.58931e-07
3749.93	2.01676e-07
3758.49	3.34988e-07
3767.04	3.25677e-07
3775.6	4.51873e-07
3784.16	5.02886e-07
3792.72	7.25851e-07
3801.27	1.5493e-08
3809.83	7.47754e-07
3818.39	7.8331e-07
3826.95	7.95384e-07
3835.5	1.04629e-06
3844.06	1.15554e-06
3852.62	1.49902e-06
3861.18	1.43803e-06
3869.73	1.20309e-06
3878.29	9.78635e-07
3886.85	8.51399e-07
3895.41	8.75693e-07
3903.96	7.25072e-07
3912.52	1.07426e-06
3921.08	1.33878e-06
3929.64	1.0682e-06
3938.2	1.08946e-06
3946.75	7.61656e-07
3955.31	8.99642e-07
3963.87	8.84618e-07
3972.43	9.31148e-07
