Infrared Spectrum: 1,3-Dimethylbenzene
Formula: 1,3-( C H3)2 C6 H4
CAS: 108-38-3
State: gas
Melting point: -47.87 C
Boiling point: 139.1 C
Class: IUPAC A
Instrument: IFS66V (Bruker)
Instrument parameters: KBr Beam Splitter; MCT Detector; Multipass cell
Sampling: 1 L/min Flow
Resolution: 1.9290
Temperature: 23 C
Pressure: 101.3 Pa
Origin: NIST, Analytical Chemistry Division, 301-975-3108
cm-1	(micromol/mol)-1m-1 (base 10)
575.652	-3.56333e-07
584.33	-5.99871e-07
593.008	-4.48118e-07
601.687	-5.39539e-07
610.365	-6.37695e-07
619.043	-4.10939e-07
627.721	-2.40261e-07
636.399	-4.79353e-07
645.077	-9.85996e-08
653.756	9.15095e-07
662.434	2.51764e-06
671.112	1.17202e-05
679.79	4.39937e-05
688.468	9.64723e-05
697.147	6.2616e-05
705.825	3.03724e-05
714.503	4.58366e-06
723.181	1.46138e-06
731.859	1.55634e-06
740.537	4.63118e-06
749.216	3.87565e-05
757.894	0.000138794
766.572	0.000377112
775.25	0.000166147
783.928	6.87456e-05
792.607	7.5527e-06
801.285	1.66484e-06
809.963	8.75346e-07
818.641	5.81251e-07
827.319	4.76907e-07
835.997	4.33811e-07
844.676	6.07563e-07
853.354	1.77753e-06
862.032	8.45266e-06
870.71	1.4714e-05
879.388	1.34362e-05
888.066	1.07986e-05
896.745	1.34206e-05
905.423	1.73886e-05
914.101	1.06946e-05
922.779	1.24129e-06
931.457	1.42693e-06
940.136	2.10579e-06
948.814	2.58384e-06
957.492	3.14053e-06
966.17	4.0283e-06
974.848	4.9094e-06
983.526	4.38498e-06
992.205	5.41171e-06
1000.88	8.50546e-06
1009.56	9.82676e-06
1018.24	7.15376e-06
1026.92	6.36983e-06
1035.6	1.18828e-05
1044.27	2.37698e-05
1052.95	1.92085e-05
1061.63	1.34287e-05
1070.31	8.55985e-06
1078.99	9.43443e-06
1087.66	2.18372e-05
1096.34	2.01016e-05
1105.02	1.65717e-05
1113.7	5.96633e-06
1122.38	4.64332e-06
1131.06	4.25353e-06
1139.73	2.75142e-06
1148.41	2.84052e-06
1157.09	4.30078e-06
1165.77	9.08728e-06
1174.45	6.88779e-06
1183.12	3.30569e-06
1191.8	2.23632e-06
1200.48	1.94861e-06
1209.16	1.35456e-06
1217.84	1.13401e-06
1226.52	1.12957e-06
1235.19	1.59594e-06
1243.87	3.05286e-06
1252.55	3.18447e-06
1261.23	3.43814e-06
1269.91	2.80214e-06
1278.58	1.95139e-06
1287.26	1.5592e-06
1295.94	1.8695e-06
1304.62	1.94212e-06
1313.3	2.16728e-06
1321.98	2.11984e-06
1330.65	2.40123e-06
1339.33	2.75399e-06
1348.01	4.00462e-06
1356.69	6.31882e-06
1365.37	9.77865e-06
1374.04	1.90651e-05
1382.72	2.92743e-05
1391.4	2.79026e-05
1400.08	1.8859e-05
1408.76	1.60183e-05
1417.44	1.73972e-05
1426.11	1.89039e-05
1434.79	2.79133e-05
1443.47	3.98831e-05
1452.15	4.65304e-05
1460.83	4.19713e-05
1469.5	4.94623e-05
1478.18	6.01787e-05
1486.86	8.62758e-05
1495.54	0.000106996
1504.22	0.000102001
1512.9	6.64684e-05
1521.57	4.95615e-05
1530.25	4.70439e-05
1538.93	4.0061e-05
1547.61	2.46995e-05
1556.29	1.74234e-05
1564.96	1.60265e-05
1573.64	1.76151e-05
1582.32	1.977e-05
1591	3.35524e-05
1599.68	5.21961e-05
1608.36	0.000109709
1617.03	0.000142366
1625.71	9.95306e-05
1634.39	9.71867e-06
1643.07	4.98871e-06
1651.75	6.16205e-06
1660.42	5.13473e-06
1669.1	1.64448e-06
1677.78	7.43042e-07
1686.46	4.81409e-07
1695.14	6.33707e-07
1703.82	1.20739e-06
1712.49	1.37108e-06
1721.17	1.21966e-06
1729.85	3.04483e-06
1738.53	7.41472e-06
1747.21	6.68008e-06
1755.88	7.11838e-06
1764.56	6.49872e-06
1773.24	7.27922e-06
1781.92	6.42189e-06
1790.6	1.68895e-06
1799.28	9.38932e-07
1807.95	1.78071e-06
1816.63	2.16972e-06
1825.31	1.85298e-06
1833.99	3.49966e-06
1842.67	6.37302e-06
1851.34	1.216e-05
1860.02	1.03924e-05
1868.7	1.6964e-06
1877.38	1.1261e-06
1886.06	1.01492e-06
1894.74	1.19835e-06
1903.41	1.74516e-06
1912.09	3.23608e-06
1920.77	6.37535e-06
1929.45	1.19351e-05
1938.13	1.12773e-05
1946.8	3.29689e-06
1955.48	3.80259e-07
1964.16	1.03949e-07
1972.84	1.22772e-07
1981.52	2.34776e-08
1990.2	-2.49882e-08
1998.87	1.254e-08
2007.55	-8.87344e-08
2016.23	-7.14022e-08
2024.91	-3.18967e-08
2033.59	-1.64954e-07
2042.26	-3.63655e-07
2050.94	-4.62373e-07
2059.62	-3.91107e-07
2068.3	-1.35779e-07
2076.98	-6.89539e-08
2085.66	3.29781e-09
2094.33	-6.29494e-08
2103.01	3.7096e-07
2111.69	6.27446e-07
2120.37	-1.84465e-07
2129.05	-3.17813e-07
2137.72	-2.27041e-07
2146.4	6.48457e-08
2155.08	9.45106e-08
2163.76	-1.18589e-07
2172.44	-6.08367e-08
2181.12	-2.13604e-07
2189.79	-1.62805e-07
2198.47	-2.38251e-07
2207.15	-7.5725e-08
2215.83	6.43555e-08
2224.51	-2.28337e-08
2233.18	-1.94142e-07
2241.86	-1.45347e-07
2250.54	-5.83629e-08
2259.22	4.05492e-07
2267.9	6.32599e-07
2276.58	9.24748e-07
2285.25	1.39816e-06
2293.93	1.70285e-06
2302.61	5.95021e-07
2311.29	4.90509e-07
2319.97	9.40246e-07
2328.64	1.29037e-06
2337.32	1.98131e-06
2346	1.65895e-06
2354.68	1.45747e-06
2363.36	1.26609e-06
2372.04	8.0152e-07
2380.71	6.87314e-07
2389.39	1.22396e-06
2398.07	1.3117e-06
2406.75	1.38779e-06
2415.43	1.83689e-06
2424.1	1.92179e-06
2432.78	1.59178e-06
2441.46	1.40527e-06
2450.14	1.36367e-06
2458.82	1.32326e-06
2467.5	1.39981e-06
2476.17	1.27587e-06
2484.85	1.29451e-06
2493.53	1.19611e-06
2502.21	1.08903e-06
2510.89	7.0829e-07
2519.56	3.94715e-07
2528.24	4.03302e-07
2536.92	1.12535e-06
2545.6	1.27367e-06
2554.28	4.88961e-07
2562.96	3.87788e-07
2571.63	2.92919e-07
2580.31	1.46565e-07
2588.99	4.12485e-07
2597.67	5.85007e-07
2606.35	5.48918e-07
2615.02	6.62384e-07
2623.7	8.84537e-07
2632.38	8.46826e-07
2641.06	8.28424e-07
2649.74	6.36105e-07
2658.42	3.42003e-07
2667.09	1.59204e-07
2675.77	9.27207e-08
2684.45	7.23317e-09
2693.13	2.01528e-07
2701.81	3.71764e-07
2710.48	8.43138e-07
2719.16	1.4967e-06
2727.84	3.29495e-06
2736.52	1.1392e-05
2745.2	1.2876e-05
2753.88	6.67398e-06
2762.55	2.47518e-06
2771.23	1.82578e-06
2779.91	1.78797e-06
2788.59	2.11491e-06
2797.27	2.8259e-06
2805.94	3.70689e-06
2814.62	5.11249e-06
2823.3	7.29286e-06
2831.98	9.85154e-06
2840.66	1.36287e-05
2849.34	2.22912e-05
2858.01	4.32103e-05
2866.69	8.46083e-05
2875.37	0.000119026
2884.05	0.000116802
2892.73	9.38712e-05
2901.4	9.51085e-05
2910.08	0.00011243
2918.76	0.000150619
2927.44	0.000220693
2936.12	0.000257576
2944.8	0.000226132
2953.47	0.000136638
2962.15	9.63066e-05
2970.83	6.93751e-05
2979.51	7.44444e-05
2988.19	8.93732e-05
2996.86	0.000109827
3005.54	0.000137617
3014.22	0.000176624
3022.9	0.000219665
3031.58	0.00024068
3040.26	0.000209261
3048.93	0.000166903
3057.61	0.00013314
3066.29	0.000119535
3074.97	8.12258e-05
3083.65	4.03917e-05
3092.32	2.84944e-05
3101	2.34716e-05
3109.68	2.11862e-05
3118.36	1.81809e-05
3127.04	1.2261e-05
3135.72	4.67081e-06
3144.39	1.967e-06
3153.07	1.14596e-06
3161.75	8.81858e-07
3170.43	6.18041e-07
3179.11	6.38577e-07
3187.78	5.467e-07
3196.46	4.98504e-07
3205.14	3.04104e-07
3213.82	3.47431e-07
3222.5	-1.64265e-07
3231.18	-2.9154e-07
3239.85	-3.89918e-07
3248.53	-2.7056e-07
3257.21	2.02432e-07
3265.89	3.35842e-07
3274.57	2.07758e-07
3283.24	-6.31423e-08
3291.92	1.07047e-08
3300.6	4.87277e-08
3309.28	-4.0124e-08
3317.96	-7.82543e-08
3326.64	-9.64632e-08
3335.31	-5.70205e-08
3343.99	-4.05169e-08
3352.67	-8.00988e-08
3361.35	-1.10938e-07
3370.03	-6.86901e-08
3378.7	9.94091e-08
3387.38	2.2493e-07
3396.06	5.68021e-07
3404.74	4.07189e-07
3413.42	3.18817e-07
3422.1	4.94486e-07
3430.77	4.17458e-07
3439.45	3.34233e-07
3448.13	4.0761e-07
3456.81	3.84832e-07
3465.49	3.5647e-07
3474.16	2.24225e-07
3482.84	5.38191e-08
3491.52	-1.90708e-07
3500.2	-2.52028e-07
3508.88	-2.766e-07
3517.56	-2.10367e-07
3526.23	-2.22744e-07
3534.91	-9.56274e-08
3543.59	1.71456e-07
3552.27	4.6514e-07
3560.95	3.92315e-07
3569.62	1.40292e-07
3578.3	1.06981e-07
3586.98	-1.29903e-07
3595.66	-1.66979e-07
3604.34	-3.3426e-07
3613.02	-3.28249e-07
3621.69	-2.65289e-07
3630.37	-3.42495e-07
3639.05	-3.01269e-07
3647.73	-3.6036e-07
3656.41	-3.6365e-07
3665.08	-3.01585e-07
3673.76	-3.09469e-07
3682.44	-2.10753e-07
3691.12	-3.0318e-07
3699.8	-1.5837e-07
3708.48	-2.33424e-07
3717.15	-1.13091e-07
3725.83	3.99994e-08
3734.51	2.52652e-07
3743.19	3.4547e-07
3751.87	2.59457e-07
3760.54	5.32645e-07
3769.22	7.16716e-07
3777.9	7.30009e-07
3786.58	5.84737e-07
3795.26	3.82629e-07
3803.94	1.83077e-07
3812.61	7.80079e-08
3821.29	1.21916e-07
3829.97	4.56714e-07
3838.65	2.99973e-07
3847.33	5.11818e-07
3856	3.04019e-07
3864.68	2.18779e-07
3873.36	4.62265e-07
3882.04	7.51099e-07
3890.72	8.32596e-07
3899.4	1.10514e-06
3908.07	1.55809e-06
3916.75	1.78573e-06
3925.43	1.71214e-06
3934.11	1.39777e-06
3942.79	1.4267e-06
3951.46	1.37904e-06
3960.14	1.42055e-06
3968.82	1.5242e-06
