Infrared Spectrum: Ethenyl Ester-Acetic Acid
Formula: C H3 C O2 C H: C H2
CAS: 108-05-4
State: gas
Melting point: -93.2 C
Boiling point: 72.2 C
Class: IUPAC A
Instrument: IFS66V (Bruker)
Instrument parameters: KBr Beam splitter; MCT Detector; Multipass cell
Sampling: 1 L/min Flow
Resolution: 0.1250
Temperature: 23 C
Pressure: 101.3 kPa
Origin: NIST, Anayltical Chemistry Division, 301-975-3108
cm-1	(micromol/mol)-1m-1 (base 10)
3975.02	1.27387e-06
3966.46	7.8282e-07
3957.9	3.7366e-07
3949.34	2.22475e-07
3940.79	2.33365e-08
3932.23	2.31575e-07
3923.67	1.79182e-07
3915.11	9.84079e-08
3906.56	2.08977e-07
3898	-1.63981e-07
3889.44	-3.58763e-07
3880.88	-1.96778e-07
3872.33	5.56947e-09
3863.77	-2.79871e-07
3855.21	-2.42274e-07
3846.65	-1.13487e-07
3838.09	-9.92799e-07
3829.54	-3.48363e-07
3820.98	-6.99329e-07
3812.42	-2.35075e-07
3803.86	-4.23056e-07
3795.31	-4.27956e-07
3786.75	-4.60853e-07
3778.19	-3.08767e-07
3769.63	-5.78241e-07
3761.08	-3.38365e-07
3752.52	-9.64403e-07
3743.96	-1.31987e-06
3735.4	-7.32924e-07
3726.85	-4.58054e-07
3718.29	-5.75442e-07
3709.73	-5.67742e-07
3701.17	-2.84771e-07
3692.62	-5.77341e-07
3684.06	-4.48353e-07
3675.5	-5.18547e-07
3666.94	-3.84759e-07
3658.38	-3.74861e-07
3649.83	-3.79161e-07
3641.27	-4.11157e-07
3632.71	-3.03067e-07
3624.15	-4.40054e-07
3615.6	-5.44146e-07
3607.04	-9.74801e-07
3598.48	-3.09368e-07
3589.92	-2.40275e-07
3581.37	-1.86479e-07
3572.81	1.64684e-06
3564.25	6.13939e-06
3555.69	1.71683e-05
3547.14	1.35287e-05
3538.58	1.36186e-05
3530.02	5.93441e-06
3521.46	2.05179e-06
3512.91	6.73031e-07
3504.35	-1.27685e-07
3495.79	-1.03088e-07
3487.23	-2.12378e-07
3478.67	-2.01378e-07
3470.12	1.64281e-07
3461.56	1.89478e-07
3453	4.21456e-07
3444.44	1.03388e-07
3435.89	6.45018e-08
3427.33	-1.31785e-07
3418.77	-8.87387e-08
3410.21	-1.10886e-07
3401.66	-1.13987e-07
3393.1	-3.71438e-08
3384.54	-7.99989e-08
3375.98	-1.32485e-07
3367.43	-2.43174e-07
3358.87	-2.11065e-08
3350.31	-1.60682e-07
3341.75	-8.0439e-08
3333.2	-8.29091e-08
3324.64	-5.24745e-07
3316.08	-3.40363e-07
3307.52	-2.72271e-07
3298.96	9.38589e-08
3290.41	-1.10986e-07
3281.85	-1.00789e-07
3273.29	-1.57782e-07
3264.73	7.78398e-08
3256.18	-1.14587e-07
3247.62	1.61082e-07
3239.06	9.07085e-09
3230.5	2.40175e-07
3221.95	2.52874e-07
3213.39	4.93649e-07
3204.83	7.76721e-07
3196.27	1.0099e-06
3187.72	8.87711e-07
3179.16	1.29687e-06
3170.6	1.31187e-06
3162.04	2.12979e-06
3153.48	4.41256e-06
3144.93	1.23788e-05
3136.37	2.45876e-05
3127.81	2.36077e-05
3119.25	1.87381e-05
3110.7	4.27857e-05
3102.14	4.83452e-05
3093.58	4.38156e-05
3085.02	1.9768e-05
3076.47	1.73883e-05
3067.91	2.31277e-05
3059.35	2.28677e-05
3050.79	2.15979e-05
3042.24	1.94581e-05
3033.68	1.77682e-05
3025.12	1.50085e-05
3016.56	1.16588e-05
3008.01	1.11989e-05
2999.45	1.17888e-05
2990.89	1.0539e-05
2982.33	9.19109e-06
2973.77	9.0881e-06
2965.22	1.12489e-05
2956.66	1.17188e-05
2948.1	1.0409e-05
2939.54	5.80142e-06
2930.99	2.92171e-06
2922.43	1.80282e-06
2913.87	1.25487e-06
2905.31	1.32887e-06
2896.76	1.17888e-06
2888.2	1.20188e-06
2879.64	1.22888e-06
2871.08	2.08579e-06
2862.53	2.28177e-06
2853.97	2.18078e-06
2845.41	1.31987e-06
2836.85	7.6952e-07
2828.3	6.06138e-07
2819.74	6.87031e-07
2811.18	7.09928e-07
2802.62	1.69183e-06
2794.06	1.39586e-06
2785.51	1.28987e-06
2776.95	1.24188e-06
2768.39	2.42176e-06
2759.83	2.91171e-06
2751.28	3.09769e-06
2742.72	1.93481e-06
2734.16	8.28816e-07
2725.6	4.20157e-07
2717.05	4.79349e-07
2708.49	2.8817e-07
2699.93	3.94559e-07
2691.37	4.87949e-07
2682.82	8.9441e-07
2674.26	1.09589e-06
2665.7	1.12589e-06
2657.14	9.27406e-07
2648.59	9.71002e-07
2640.03	1.81182e-06
2631.47	2.15778e-06
2622.91	1.81982e-06
2614.35	1.15388e-06
2605.8	1.36186e-06
2597.24	1.87281e-06
2588.68	2.07679e-06
2580.12	1.36286e-06
2571.57	6.14537e-07
2563.01	2.11878e-07
2554.45	2.7837e-07
2545.89	3.30665e-07
2537.34	3.7716e-07
2528.78	6.07438e-07
2520.22	7.09928e-07
2511.66	9.23707e-07
2503.11	1.81282e-06
2494.55	1.92781e-06
2485.99	1.72083e-06
2477.43	1.63684e-06
2468.87	1.83682e-06
2460.32	2.40676e-06
2451.76	5.16549e-06
2443.2	7.74523e-06
2434.64	8.69214e-06
2426.09	6.33337e-06
2417.53	4.25758e-06
2408.97	2.80672e-06
2400.41	2.07779e-06
2391.86	1.68183e-06
2383.3	2.0348e-06
2374.74	2.96071e-06
2366.18	3.43766e-06
2357.63	4.12959e-06
2349.07	3.55664e-06
2340.51	3.0127e-06
2331.95	1.75282e-06
2323.4	1.20188e-06
2314.84	1.16188e-06
2306.28	1.9688e-06
2297.72	9.72303e-06
2289.16	1.12689e-05
2280.61	1.0119e-05
2272.05	4.09159e-06
2263.49	2.30177e-06
2254.93	2.60974e-06
2246.38	3.39166e-06
2237.82	4.35457e-06
2229.26	4.92451e-06
2220.7	4.12359e-06
2212.15	2.80972e-06
2203.59	1.9988e-06
2195.03	2.32977e-06
2186.47	2.81272e-06
2177.92	4.21958e-06
2169.36	4.62354e-06
2160.8	4.79252e-06
2152.24	4.46456e-06
2143.69	3.9956e-06
2135.13	4.65653e-06
2126.57	7.1023e-06
2118.01	7.17329e-06
2109.45	6.51635e-06
2100.9	5.46846e-06
2092.34	6.17939e-06
2083.78	9.20509e-06
2075.22	2.25478e-05
2066.67	2.85672e-05
2058.11	2.42676e-05
2049.55	1.32987e-05
2040.99	6.97731e-06
2032.44	5.50545e-06
2023.88	5.31047e-06
2015.32	5.38646e-06
2006.76	7.63124e-06
1998.21	1.37986e-05
1989.65	1.29687e-05
1981.09	9.0561e-06
1972.53	5.08649e-06
1963.97	4.92351e-06
1955.42	5.52945e-06
1946.86	5.10049e-06
1938.3	4.71653e-06
1929.74	4.31057e-06
1921.19	5.26348e-06
1912.63	1.0049e-05
1904.07	1.32687e-05
1895.51	1.46186e-05
1886.96	1.52585e-05
1878.4	2.40176e-05
1869.84	2.79172e-05
1861.28	2.77672e-05
1852.73	2.28377e-05
1844.17	1.75483e-05
1835.61	1.91481e-05
1827.05	2.14279e-05
1818.5	3.72763e-05
1809.94	0.000143686
1801.38	0.000442756
1792.82	0.00128487
1784.26	0.000953205
1775.71	0.00125688
1767.15	0.000515549
1758.59	0.00019828
1750.03	7.62624e-05
1741.48	3.28167e-05
1732.92	2.34977e-05
1724.36	1.38286e-05
1715.8	1.15689e-05
1707.25	1.39886e-05
1698.69	1.50785e-05
1690.13	1.61984e-05
1681.57	2.09179e-05
1673.02	4.28557e-05
1664.46	0.000261074
1655.9	0.000388961
1647.34	0.000459954
1638.79	0.000171083
1630.23	5.50045e-05
1621.67	4.10259e-05
1613.11	3.0237e-05
1604.55	2.39676e-05
1596	2.26278e-05
1587.44	2.22078e-05
1578.88	2.14179e-05
1570.32	1.87281e-05
1561.77	1.70883e-05
1553.21	1.36786e-05
1544.65	1.11389e-05
1536.09	1.12889e-05
1527.54	1.23888e-05
1518.98	1.37786e-05
1510.42	1.47185e-05
1501.86	1.54885e-05
1493.31	1.68083e-05
1484.75	1.89581e-05
1476.19	2.0688e-05
1467.63	2.29677e-05
1459.08	2.77672e-05
1450.52	3.42566e-05
1441.96	3.55465e-05
1433.4	4.0026e-05
1424.84	3.20468e-05
1416.29	2.81572e-05
1407.73	3.0437e-05
1399.17	7.50726e-05
1390.61	0.00020158
1382.06	0.000438256
1373.5	0.000391561
1364.94	0.000236777
1356.38	6.26938e-05
1347.83	2.13579e-05
1339.27	1.27887e-05
1330.71	1.26787e-05
1322.15	1.77382e-05
1313.6	4.28257e-05
1305.04	0.000149185
1296.48	0.000172683
1287.92	0.000157084
1279.36	6.35037e-05
1270.81	6.0254e-05
1262.25	0.000155185
1253.69	0.000212779
1245.13	0.000311969
1236.58	0.00122088
1228.02	0.00253175
1219.46	0.00276073
1210.9	0.00147285
1202.35	0.000449055
1193.79	0.000141086
1185.23	7.80023e-05
1176.67	4.95751e-05
1168.12	5.46446e-05
1159.56	0.000430857
1151	0.000855215
1142.44	0.000922608
1133.89	0.000369663
1125.33	7.12529e-05
1116.77	3.59864e-05
1108.21	2.9907e-05
1099.65	2.9887e-05
1091.1	3.56265e-05
1082.54	4.39656e-05
1073.98	5.19049e-05
1065.42	5.90642e-05
1056.87	6.36037e-05
1048.31	7.54925e-05
1039.75	0.000121588
1031.19	0.00030497
1022.64	0.000342166
1014.08	0.000289271
1005.52	0.000138186
996.963	7.29128e-05
988.406	8.0392e-05
979.848	9.45206e-05
971.29	0.000120288
962.733	0.000106889
954.175	0.000145286
945.618	0.000118988
937.06	7.89222e-05
928.502	4.44456e-05
919.945	1.91281e-05
911.387	1.30987e-05
902.829	2.60674e-05
894.272	7.31927e-05
885.714	0.000134787
877.157	0.000172383
868.599	0.000193681
860.041	0.000157484
851.484	0.000122288
842.926	8.75513e-05
834.368	4.81252e-05
825.811	2.36777e-05
817.253	1.45486e-05
808.696	1.06189e-05
800.138	9.30008e-06
791.58	9.35707e-06
783.023	9.75003e-06
774.465	9.89202e-06
765.907	7.76723e-06
757.35	6.39836e-06
748.792	5.52845e-06
740.235	5.74143e-06
731.677	7.43326e-06
723.119	8.83112e-06
714.562	1.19888e-05
706.004	1.07089e-05
697.446	9.61405e-06
688.889	6.81332e-06
680.331	5.15349e-06
671.774	5.52045e-06
663.216	1.14789e-05
654.658	2.22078e-05
646.101	3.93061e-05
637.543	4.22758e-05
628.985	4.58654e-05
620.428	3.39466e-05
611.87	3.40666e-05
603.313	2.83572e-05
594.755	3.60164e-05
586.197	2.11579e-05
577.64	1.41986e-05
