Infrared Spectrum: Ethenyl Ester-Acetic Acid
Formula: C H3 C O2 C H: C H2
CAS: 108-05-4
State: gas
Melting point: -93.2 C
Boiling point: 72.2 C
Class: IUPAC A
Instrument: IFS66V (Bruker)
Instrument parameters: KBr Beam splitter; MCT Detector; Multipass cell
Sampling: 1 L/min Flow
Resolution: 1.9290
Temperature: 23 C
Pressure: 101.3 kPa
Origin: NIST, Anayltical Chemistry Division, 301-975-3108
cm-1	(micromol/mol)-1m-1 (base 10)
574.687	1.05826e-05
583.365	1.90966e-05
592.043	3.69447e-05
600.721	2.87303e-05
609.4	3.25441e-05
618.078	3.41555e-05
626.756	4.20104e-05
635.434	4.21382e-05
644.112	4.12026e-05
652.79	2.57222e-05
661.469	1.32773e-05
670.147	6.00887e-06
678.825	4.77511e-06
687.503	6.59662e-06
696.181	9.50666e-06
704.859	1.07443e-05
713.537	1.21035e-05
722.216	9.11108e-06
730.894	7.20952e-06
739.572	5.8636e-06
748.25	5.67473e-06
756.928	6.32469e-06
765.606	7.75094e-06
774.285	9.73076e-06
782.963	9.64175e-06
791.641	9.09763e-06
800.319	9.07448e-06
808.997	1.04469e-05
817.675	1.50453e-05
826.353	2.47181e-05
835.032	5.10308e-05
843.71	8.85044e-05
852.388	0.000129976
861.066	0.000155785
869.744	0.000247959
878.422	0.000162555
887.101	0.000126926
895.779	6.22697e-05
904.457	2.16511e-05
913.135	1.30335e-05
921.813	2.28212e-05
930.491	5.32161e-05
939.169	8.65473e-05
947.848	0.000125712
956.526	0.000155817
965.204	0.000113988
973.882	0.000108726
982.56	0.000103571
991.238	6.76677e-05
999.917	8.78824e-05
1008.59	0.000182668
1017.27	0.000337326
1025.95	0.000345578
1034.63	0.000235895
1043.31	8.74984e-05
1051.99	6.8744e-05
1060.66	6.13242e-05
1069.34	5.60755e-05
1078.02	4.8194e-05
1086.7	3.96555e-05
1095.38	3.21844e-05
1104.05	2.9252e-05
1112.73	3.19943e-05
1121.41	4.87075e-05
1130.09	0.00016044
1138.77	0.000820069
1147.45	0.000922363
1156.12	0.000858398
1164.8	9.42635e-05
1173.48	4.68516e-05
1182.16	6.39549e-05
1190.84	0.000112542
1199.51	0.000290767
1208.19	0.00103858
1216.87	0.00256876
1225.55	0.00276106
1234.23	0.00191552
1242.9	0.000376255
1251.58	0.000227893
1260.26	0.000185442
1268.94	6.87055e-05
1277.62	5.73225e-05
1286.3	0.000137568
1294.97	0.000172454
1303.65	0.000161851
1312.33	5.27882e-05
1321.01	1.93166e-05
1329.69	1.30001e-05
1338.36	1.26652e-05
1347.04	2.00604e-05
1355.72	5.70876e-05
1364.4	0.000221454
1373.08	0.000380638
1381.76	0.000441237
1390.43	0.000206624
1399.11	7.63483e-05
1407.79	3.03357e-05
1416.47	2.82279e-05
1425.15	3.21955e-05
1433.82	4.01175e-05
1442.5	3.56075e-05
1451.18	3.3785e-05
1459.86	2.73456e-05
1468.54	2.27142e-05
1477.22	2.07911e-05
1485.89	1.86083e-05
1494.57	1.64554e-05
1503.25	1.53287e-05
1511.93	1.44426e-05
1520.61	1.31074e-05
1529.28	1.21174e-05
1537.96	1.08724e-05
1546.64	1.14857e-05
1555.32	1.44856e-05
1564	1.76346e-05
1572.67	1.96216e-05
1581.35	2.1631e-05
1590.03	2.22462e-05
1598.71	2.26742e-05
1607.39	2.53973e-05
1616.07	3.36962e-05
1624.74	4.41734e-05
1633.42	7.36246e-05
1642.1	0.00030309
1650.78	0.000411027
1659.46	0.000528664
1668.13	9.97985e-05
1676.81	2.96445e-05
1685.49	1.72307e-05
1694.17	1.62166e-05
1702.85	1.41746e-05
1711.53	1.24448e-05
1720.2	1.21488e-05
1728.88	1.82238e-05
1737.56	2.71657e-05
1746.24	5.44269e-05
1754.92	0.000129564
1763.59	0.000347098
1772.27	0.000934747
1780.95	0.00114042
1789.63	0.00146336
1798.31	0.000653196
1806.98	0.000222471
1815.66	5.6966e-05
1824.34	2.30238e-05
1833.02	2.03195e-05
1841.7	1.80861e-05
1850.38	2.17995e-05
1859.05	2.65442e-05
1867.73	2.8278e-05
1876.41	2.5093e-05
1885.09	1.66501e-05
1893.77	1.44945e-05
1902.44	1.38202e-05
1911.12	1.03998e-05
1919.8	5.91997e-06
1928.48	4.25971e-06
1937.16	4.63546e-06
1945.84	5.18162e-06
1954.51	5.38908e-06
1963.19	5.03009e-06
1971.87	4.92352e-06
1980.55	8.61671e-06
1989.23	1.3054e-05
1997.9	1.37178e-05
2006.58	7.83182e-06
2015.26	5.34399e-06
2023.94	5.26621e-06
2032.62	5.45116e-06
2041.3	7.15362e-06
2049.97	1.3799e-05
2058.65	2.48426e-05
2067.33	2.81293e-05
2076.01	2.10524e-05
2084.69	8.64147e-06
2093.36	6.01902e-06
2102.04	5.59408e-06
2110.72	6.66998e-06
2119.4	7.06663e-06
2128.08	7.22145e-06
2136.75	4.28138e-06
2145.43	4.10613e-06
2154.11	4.40925e-06
2162.79	4.82963e-06
2171.47	4.62178e-06
2180.15	3.93092e-06
2188.82	2.57083e-06
2197.5	2.14062e-06
2206.18	2.15943e-06
2214.86	3.2109e-06
2223.54	4.42194e-06
2232.21	4.78623e-06
2240.89	3.91701e-06
2249.57	3.02842e-06
2258.25	2.29197e-06
2266.93	2.69021e-06
2275.61	6.31775e-06
2284.28	1.12497e-05
2292.96	1.13183e-05
2301.64	5.41858e-06
2310.32	1.31052e-06
2319	1.14971e-06
2327.67	1.42843e-06
2336.35	2.40206e-06
2345.03	3.34172e-06
2353.71	4.16489e-06
2362.39	3.78829e-06
2371.06	3.2047e-06
2379.74	2.49145e-06
2388.42	1.53291e-06
2397.1	1.82748e-06
2405.78	2.5104e-06
2414.46	3.58633e-06
2423.13	5.45501e-06
2431.81	8.11429e-06
2440.49	8.24498e-06
2449.17	6.48849e-06
2457.85	2.87843e-06
2466.52	1.91582e-06
2475.2	1.63748e-06
2483.88	1.60884e-06
2492.56	1.86068e-06
2501.24	1.91228e-06
2509.92	9.96975e-07
2518.59	7.52377e-07
2527.27	5.88221e-07
2535.95	3.81081e-07
2544.63	2.90209e-07
2553.31	2.52296e-07
2561.98	2.5609e-07
2570.66	5.45688e-07
2579.34	1.28302e-06
2588.02	1.94975e-06
2596.7	1.84329e-06
2605.38	1.36463e-06
2614.05	1.15618e-06
2622.73	1.88454e-06
2631.41	2.10992e-06
2640.09	1.84618e-06
2648.77	9.13281e-07
2657.44	9.16355e-07
2666.12	1.13106e-06
2674.8	1.14514e-06
2683.48	8.72294e-07
2692.16	4.95272e-07
2700.83	3.68633e-07
2709.51	3.97899e-07
2718.19	4.15531e-07
2726.87	5.08222e-07
2735.55	9.27999e-07
2744.23	2.13015e-06
2752.9	3.04575e-06
2761.58	3.18986e-06
2770.26	1.98528e-06
2778.94	1.05469e-06
2787.62	1.31811e-06
2796.29	1.49438e-06
2804.97	1.34517e-06
2813.65	6.96315e-07
2822.33	6.58944e-07
2831.01	7.73545e-07
2839.69	1.01281e-06
2848.36	1.78309e-06
2857.04	2.31677e-06
2865.72	2.38764e-06
2874.4	1.77015e-06
2883.08	1.29879e-06
2891.75	1.13524e-06
2900.43	1.16931e-06
2909.11	1.19812e-06
2917.79	1.40518e-06
2926.47	2.05566e-06
2935.14	3.92358e-06
2943.82	8.59613e-06
2952.5	1.06639e-05
2961.18	1.25233e-05
2969.86	9.54882e-06
2978.54	8.94851e-06
2987.21	9.82134e-06
2995.89	1.23084e-05
3004.57	1.14182e-05
3013.25	1.15163e-05
3021.93	1.34204e-05
3030.6	1.69703e-05
3039.28	1.87336e-05
3047.96	2.05296e-05
3056.64	2.21755e-05
3065.32	2.33678e-05
3074	1.85769e-05
3082.67	1.76723e-05
3091.35	3.59775e-05
3100.03	4.207e-05
3108.71	4.7694e-05
3117.39	1.84862e-05
3126.06	2.59351e-05
3134.74	2.195e-05
3143.42	1.57381e-05
3152.1	4.97401e-06
3160.78	2.4344e-06
3169.46	1.50938e-06
3178.13	1.15196e-06
3186.81	9.93025e-07
3195.49	1.03813e-06
3204.17	7.90498e-07
3212.85	5.98509e-07
3221.52	4.18627e-07
3230.2	2.3068e-07
3238.88	1.03401e-07
3247.56	3.9652e-09
3256.24	3.06848e-08
3264.91	-1.24449e-08
3273.59	-8.06719e-08
3282.27	-9.04321e-08
3290.95	1.64283e-08
3299.63	6.32759e-08
3308.31	-1.7361e-07
3316.98	-5.10376e-07
3325.66	-4.47966e-07
3334.34	-1.71959e-07
3343.02	-1.23976e-08
3351.7	2.06263e-09
3360.37	-1.42791e-07
3369.05	-1.47666e-07
3377.73	-7.15992e-08
3386.41	-2.39367e-08
3395.09	-1.67994e-08
3403.77	-1.2418e-07
3412.44	-1.54858e-07
3421.12	-1.11608e-07
3429.8	-4.11326e-08
3438.48	-3.03465e-08
3447.16	6.81833e-08
3455.83	2.32113e-07
3464.51	1.65775e-07
3473.19	1.9659e-07
3481.87	-6.15407e-08
3490.55	-1.6349e-07
3499.22	-7.23777e-08
3507.9	1.58175e-07
3516.58	1.00747e-06
3525.26	3.2638e-06
3533.94	9.04029e-06
3542.62	1.54341e-05
3551.29	1.47914e-05
3559.97	1.08592e-05
3568.65	3.28106e-06
3577.33	4.48195e-07
3586.01	-2.9026e-07
3594.68	-4.00249e-07
3603.36	-5.346e-07
3612.04	-6.64433e-07
3620.72	-6.22941e-07
3629.4	-8.59343e-07
3638.08	-4.69283e-07
3646.75	-5.06458e-07
3655.43	-5.24822e-07
3664.11	-3.48079e-07
3672.79	-4.23487e-07
3681.47	-4.00384e-07
3690.14	-5.74638e-07
3698.82	-4.68796e-07
3707.5	-4.61069e-07
3716.18	-4.36114e-07
3724.86	-4.42979e-07
3733.54	-5.20176e-07
3742.21	-4.82758e-07
3750.89	-6.42177e-07
3759.57	-5.43742e-07
3768.25	-4.25968e-07
3776.93	-4.27518e-07
3785.6	-4.56304e-07
3794.28	-4.16164e-07
3802.96	-4.97909e-07
3811.64	-3.71143e-07
3820.32	-5.15e-07
3828.99	-3.0484e-07
3837.67	-7.25705e-07
3846.35	-2.48356e-07
3855.03	-6.96337e-07
3863.71	-2.72162e-07
3872.39	-1.85681e-07
3881.06	-2.04532e-07
3889.74	-6.95184e-08
3898.42	-1.12892e-07
3907.1	7.39601e-08
3915.78	9.67146e-08
3924.45	1.06162e-07
3933.13	1.09723e-07
3941.81	1.50856e-07
3950.49	2.17733e-07
3959.17	4.50538e-07
3967.85	9.10814e-07
