Infrared Spectrum: Ethenyl Ester-Acetic Acid
Formula: C H3 C O2 C H: C H2
CAS: 108-05-4
State: gas
Melting point: -93.2 C
Boiling point: 72.2 C
Class: IUPAC A
Instrument: IFS66V (Bruker)
Instrument parameters: KBr Beam splitter; MCT Detector; Multipass cell
Sampling: 1 L/min Flow
Resolution: 0.4820
Temperature: 23 C
Pressure: 101.3 kPa
Origin: NIST, Anayltical Chemistry Division, 301-975-3108
cm-1	(micromol/mol)-1m-1 (base 10)
574.928	1.06603e-05
583.606	1.95281e-05
592.284	3.77018e-05
600.962	2.88754e-05
609.641	3.25207e-05
618.319	3.42529e-05
626.997	4.21386e-05
635.675	4.20352e-05
644.353	4.10049e-05
653.031	2.5117e-05
661.71	1.3034e-05
670.388	5.95031e-06
679.066	4.87579e-06
687.744	6.61513e-06
696.422	9.64662e-06
705.1	1.08524e-05
713.778	1.21081e-05
722.457	9.05237e-06
731.135	7.21845e-06
739.813	5.93318e-06
748.491	5.72419e-06
757.169	6.42106e-06
765.847	7.80832e-06
774.526	9.80973e-06
783.204	9.6479e-06
791.882	9.19315e-06
800.56	9.2287e-06
809.238	1.0636e-05
817.916	1.52871e-05
826.594	2.54292e-05
835.273	5.2178e-05
843.951	8.86808e-05
852.629	0.000131802
861.307	0.000155197
869.985	0.000269387
878.663	0.000160724
887.342	0.000125214
896.02	6.07495e-05
904.698	2.13847e-05
913.376	1.33977e-05
922.054	2.35923e-05
930.732	5.44437e-05
939.41	8.74774e-05
948.089	0.000125998
956.767	0.00015525
965.445	0.000114653
974.123	0.000107611
982.801	0.000104563
991.479	6.73865e-05
1000.16	8.98317e-05
1008.84	0.000186611
1017.51	0.000338909
1026.19	0.000355054
1034.87	0.000229201
1043.55	8.6661e-05
1052.23	6.89456e-05
1060.9	6.15223e-05
1069.58	5.6092e-05
1078.26	4.83151e-05
1086.94	3.97889e-05
1095.62	3.24689e-05
1104.3	2.98253e-05
1112.97	3.30017e-05
1121.65	5.0975e-05
1130.33	0.000169992
1139.01	0.00083714
1147.69	0.000938124
1156.36	0.000831778
1165.04	9.10994e-05
1173.72	4.8879e-05
1182.4	6.67653e-05
1191.08	0.000116968
1199.76	0.000304076
1208.43	0.00107227
1217.11	0.00258984
1225.79	0.00275368
1234.47	0.0018391
1243.15	0.000370997
1251.82	0.000230063
1260.5	0.000183996
1269.18	6.86936e-05
1277.86	5.89467e-05
1286.54	0.000141291
1295.21	0.000172055
1303.89	0.00016017
1312.57	5.11517e-05
1321.25	1.95534e-05
1329.93	1.34184e-05
1338.61	1.31916e-05
1347.28	2.10812e-05
1355.96	5.98804e-05
1364.64	0.000227943
1373.32	0.000383986
1382	0.000436953
1390.67	0.000200598
1399.35	7.42367e-05
1408.03	3.04429e-05
1416.71	2.86513e-05
1425.39	3.25749e-05
1434.07	4.02661e-05
1442.74	3.56968e-05
1451.42	3.37102e-05
1460.1	2.72978e-05
1468.78	2.27389e-05
1477.46	2.08731e-05
1486.13	1.86128e-05
1494.81	1.64865e-05
1503.49	1.53727e-05
1512.17	1.43418e-05
1520.85	1.32791e-05
1529.52	1.22028e-05
1538.2	1.09888e-05
1546.88	1.16665e-05
1555.56	1.47787e-05
1564.24	1.77929e-05
1572.92	1.98196e-05
1581.59	2.17548e-05
1590.27	2.2364e-05
1598.95	2.28509e-05
1607.63	2.57881e-05
1616.31	3.44055e-05
1624.98	4.49877e-05
1633.66	7.62725e-05
1642.34	0.000313001
1651.02	0.000405737
1659.7	0.000528147
1668.38	9.44206e-05
1677.05	2.97776e-05
1685.73	1.79913e-05
1694.41	1.65166e-05
1703.09	1.43227e-05
1711.77	1.26389e-05
1720.44	1.25678e-05
1729.12	1.90237e-05
1737.8	2.79601e-05
1746.48	5.66126e-05
1755.16	0.000134456
1763.84	0.000357245
1772.51	0.000953677
1781.19	0.00111471
1789.87	0.0014718
1798.55	0.000631617
1807.23	0.000216661
1815.9	5.60327e-05
1824.58	2.36755e-05
1833.26	2.07353e-05
1841.94	1.85091e-05
1850.62	2.21423e-05
1859.29	2.68694e-05
1867.97	2.82873e-05
1876.65	2.51239e-05
1885.33	1.65595e-05
1894.01	1.46145e-05
1902.69	1.37945e-05
1911.36	1.03364e-05
1920.04	5.888e-06
1928.72	4.35348e-06
1937.4	4.72384e-06
1946.08	5.24438e-06
1954.75	5.45863e-06
1963.43	5.08082e-06
1972.11	5.00482e-06
1980.79	8.82356e-06
1989.47	1.30501e-05
1998.15	1.38238e-05
2006.82	7.63902e-06
2015.5	5.38231e-06
2024.18	5.30037e-06
2032.86	5.51329e-06
2041.54	7.3042e-06
2050.21	1.40954e-05
2058.89	2.50442e-05
2067.57	2.79107e-05
2076.25	2.05641e-05
2084.93	8.54415e-06
2093.6	6.02985e-06
2102.28	5.64213e-06
2110.96	6.73308e-06
2119.64	6.98835e-06
2128.32	7.25926e-06
2137	4.2293e-06
2145.67	4.13473e-06
2154.35	4.42838e-06
2163.03	4.87743e-06
2171.71	4.63965e-06
2180.39	3.93885e-06
2189.06	2.58925e-06
2197.74	2.16371e-06
2206.42	2.16132e-06
2215.1	3.24922e-06
2223.78	4.45864e-06
2232.46	4.78012e-06
2241.13	3.89532e-06
2249.81	3.03889e-06
2258.49	2.2975e-06
2267.17	2.7684e-06
2275.85	6.51072e-06
2284.52	1.12192e-05
2293.2	1.11783e-05
2301.88	5.15914e-06
2310.56	1.33001e-06
2319.24	1.20925e-06
2327.92	1.42206e-06
2336.59	2.43882e-06
2345.27	3.35439e-06
2353.95	4.18837e-06
2362.63	3.80518e-06
2371.31	3.22717e-06
2379.98	2.46473e-06
2388.66	1.54782e-06
2397.34	1.8619e-06
2406.02	2.53291e-06
2414.7	3.62418e-06
2423.37	5.52447e-06
2432.05	8.15351e-06
2440.73	8.21247e-06
2449.41	6.37675e-06
2458.09	2.85448e-06
2466.77	1.94219e-06
2475.44	1.64609e-06
2484.12	1.64446e-06
2492.8	1.88951e-06
2501.48	1.89753e-06
2510.16	9.91188e-07
2518.83	7.44057e-07
2527.51	5.79891e-07
2536.19	3.93122e-07
2544.87	3.08493e-07
2553.55	2.62584e-07
2562.23	2.81955e-07
2570.9	5.77486e-07
2579.58	1.29626e-06
2588.26	1.98418e-06
2596.94	1.82403e-06
2605.62	1.34579e-06
2614.29	1.16223e-06
2622.97	1.92488e-06
2631.65	2.11001e-06
2640.33	1.84233e-06
2649.01	9.20382e-07
2657.68	9.21819e-07
2666.36	1.16756e-06
2675.04	1.14692e-06
2683.72	8.70311e-07
2692.4	5.13363e-07
2701.08	3.60033e-07
2709.75	4.08707e-07
2718.43	4.60975e-07
2727.11	5.35888e-07
2735.79	9.4211e-07
2744.47	2.14601e-06
2753.14	3.02281e-06
2761.82	3.2081e-06
2770.5	1.935e-06
2779.18	1.04132e-06
2787.86	1.35341e-06
2796.54	1.50124e-06
2805.21	1.29305e-06
2813.89	6.83612e-07
2822.57	6.56721e-07
2831.25	7.70897e-07
2839.93	1.0607e-06
2848.6	1.83429e-06
2857.28	2.36968e-06
2865.96	2.38467e-06
2874.64	1.73201e-06
2883.32	1.30949e-06
2892	1.1422e-06
2900.67	1.16566e-06
2909.35	1.20071e-06
2918.03	1.4173e-06
2926.71	2.09228e-06
2935.39	4.03369e-06
2944.06	8.70558e-06
2952.74	1.07265e-05
2961.42	1.24464e-05
2970.1	9.48114e-06
2978.78	8.9985e-06
2987.45	9.87872e-06
2996.13	1.22338e-05
3004.81	1.14012e-05
3013.49	1.15727e-05
3022.17	1.3529e-05
3030.85	1.7015e-05
3039.52	1.88183e-05
3048.2	2.06175e-05
3056.88	2.21563e-05
3065.56	2.34188e-05
3074.24	1.84353e-05
3082.91	1.78796e-05
3091.59	3.6818e-05
3100.27	4.17153e-05
3108.95	4.76212e-05
3117.63	1.83476e-05
3126.31	2.5834e-05
3134.98	2.23131e-05
3143.66	1.51124e-05
3152.34	4.91058e-06
3161.02	2.40276e-06
3169.7	1.52984e-06
3178.37	1.14952e-06
3187.05	1.047e-06
3195.73	1.0538e-06
3204.41	7.74091e-07
3213.09	5.98265e-07
3221.77	4.26226e-07
3230.44	2.35791e-07
3239.12	1.0021e-07
3247.8	2.983e-10
3256.48	6.22937e-08
3265.16	4.01249e-09
3273.83	-4.61419e-08
3282.51	-1.03292e-07
3291.19	6.75358e-08
3299.87	4.1551e-08
3308.55	-1.59536e-07
3317.22	-5.23574e-07
3325.9	-4.46016e-07
3334.58	-1.59925e-07
3343.26	-6.56623e-09
3351.94	-2.18996e-09
3360.62	-1.43235e-07
3369.29	-1.51802e-07
3377.97	-2.91497e-08
3386.65	-2.25725e-08
3395.33	-3.19035e-08
3404.01	-1.54341e-07
3412.68	-1.36112e-07
3421.36	-1.09974e-07
3430.04	-4.71459e-08
3438.72	-3.83533e-08
3447.4	6.83506e-08
3456.08	2.39247e-07
3464.75	2.01796e-07
3473.43	2.56385e-07
3482.11	-5.37048e-08
3490.79	-1.60689e-07
3499.47	-6.4902e-08
3508.14	1.94982e-07
3516.82	1.02981e-06
3525.5	3.32467e-06
3534.18	9.26699e-06
3542.86	1.53864e-05
3551.53	1.50075e-05
3560.21	1.04169e-05
3568.89	3.26235e-06
3577.57	4.44386e-07
3586.25	-3.17511e-07
3594.93	-4.18569e-07
3603.6	-5.72775e-07
3612.28	-7.06886e-07
3620.96	-5.62578e-07
3629.64	-1.25703e-06
3638.32	-4.77454e-07
3646.99	-5.17313e-07
3655.67	-4.82336e-07
3664.35	-3.23309e-07
3673.03	-4.33026e-07
3681.71	-3.84021e-07
3690.39	-5.3484e-07
3699.06	-4.49428e-07
3707.74	-4.71313e-07
3716.42	-4.13061e-07
3725.1	-4.59283e-07
3733.78	-4.77308e-07
3742.45	-4.75602e-07
3751.13	-5.03097e-07
3759.81	-7.16541e-07
3768.49	-4.04491e-07
3777.17	-4.61128e-07
3785.85	-4.12101e-07
3794.52	-3.99729e-07
3803.2	-4.9628e-07
3811.88	-3.75894e-07
3820.56	-6.53549e-07
3829.24	-2.91504e-07
3837.91	-1.52815e-06
3846.59	-2.29323e-07
3855.27	-3.73733e-07
3863.95	-2.38953e-07
3872.63	-1.68008e-07
3881.3	-1.47746e-07
3889.98	-4.89612e-08
3898.66	-4.89175e-08
3907.34	1.24453e-07
3916.02	7.55207e-08
3924.7	1.104e-07
3933.37	1.62788e-07
3942.05	1.81661e-07
3950.73	2.30422e-07
3959.41	4.8294e-07
3968.09	9.15321e-07
