Infrared Spectrum: Toluene
Formula: C H3 C6 H5
CAS: 108-88-3
State: gas
Melting point: -95 C
Boiling point: 110.6 C
Class: IUPAC A
Instrument: IFS66V (Bruker)
Instrument parameters: KBr Beam splitter; MCT Detector; Multipass cell
Sampling: 1 L/min Flow
Resolution: 0.9640
Temperature: 23 C
Pressure: 101.3 kPa
Origin: NIST, Anayltical Chemistry Division, 301-975-3108
cm-1	(micromol/mol)-1m-1 (base 10)
575.169	1.87645e-07
583.847	-5.70686e-07
592.525	-4.92315e-07
601.203	-2.92671e-07
609.882	2.1281e-07
618.56	8.49482e-08
627.238	6.36491e-07
635.916	2.75053e-07
644.594	2.2687e-07
653.272	2.90532e-07
661.951	2.85789e-06
670.629	1.56186e-05
679.307	5.71112e-05
687.985	7.24299e-05
696.663	7.4203e-05
705.341	0.000108923
714.019	0.000163169
722.698	0.000190144
731.376	0.000297731
740.054	0.000178768
748.732	7.26858e-05
757.41	1.07837e-05
766.088	2.84475e-06
774.767	2.96027e-06
783.445	1.97569e-06
792.123	2.51772e-06
800.801	1.02296e-06
809.479	8.29448e-07
818.157	8.38425e-07
826.835	1.0177e-06
835.514	8.32935e-07
844.192	6.90988e-07
852.87	1.01331e-06
861.548	1.39807e-06
870.226	1.65367e-06
878.904	2.54621e-06
887.583	3.39897e-06
896.261	3.79053e-06
904.939	3.43735e-06
913.617	2.94784e-06
922.295	3.40942e-06
930.973	4.25566e-06
939.651	3.14916e-06
948.33	2.00545e-06
957.008	2.19114e-06
965.686	2.89533e-06
974.364	3.1501e-06
983.042	2.67073e-06
991.72	2.18303e-06
1000.4	1.84055e-06
1009.08	2.15126e-06
1017.75	7.79009e-06
1026.43	2.36525e-05
1035.11	1.98566e-05
1043.79	2.38581e-05
1052.47	1.30403e-05
1061.15	1.34588e-05
1069.82	1.90998e-05
1078.5	2.51852e-05
1087.18	2.48191e-05
1095.86	1.68282e-05
1104.54	7.81915e-06
1113.21	7.74716e-06
1121.89	3.48422e-06
1130.57	2.14425e-06
1139.25	1.67578e-06
1147.93	1.81884e-06
1156.61	2.23537e-06
1165.28	2.63749e-06
1173.96	2.9376e-06
1182.64	2.49976e-06
1191.32	2.25759e-06
1200	3.78043e-06
1208.67	4.31879e-06
1217.35	5.21547e-06
1226.03	2.34844e-06
1234.71	2.9721e-06
1243.39	2.81809e-06
1252.07	2.5012e-06
1260.74	1.25688e-06
1269.42	8.68941e-07
1278.1	9.3987e-07
1286.78	1.2707e-06
1295.46	1.63995e-06
1304.13	2.83463e-06
1312.81	2.51075e-06
1321.49	2.43655e-06
1330.17	1.90328e-06
1338.85	2.03991e-06
1347.52	2.68171e-06
1356.2	4.40666e-06
1364.88	5.55771e-06
1373.56	1.03694e-05
1382.24	1.49619e-05
1390.92	1.80101e-05
1399.59	8.51979e-06
1408.27	8.19752e-06
1416.95	1.11861e-05
1425.63	1.05402e-05
1434.31	1.37146e-05
1442.98	2.28796e-05
1451.66	3.33708e-05
1460.34	3.55368e-05
1469.02	3.28366e-05
1477.7	3.07395e-05
1486.38	5.80833e-05
1495.05	9.098e-05
1503.73	9.20123e-05
1512.41	5.20048e-05
1521.09	1.99141e-05
1529.77	1.99963e-05
1538.44	1.57317e-05
1547.12	1.09166e-05
1555.8	1.07275e-05
1564.48	1.02306e-05
1573.16	1.19657e-05
1581.83	9.291e-06
1590.51	1.15866e-05
1599.19	3.53192e-05
1607.87	4.5234e-05
1616.55	4.63905e-05
1625.23	2.32385e-05
1633.9	6.05641e-06
1642.58	1.94848e-06
1651.26	1.80862e-06
1659.94	1.96265e-06
1668.62	2.0632e-06
1677.29	1.8452e-06
1685.97	1.73417e-06
1694.65	1.60032e-06
1703.33	1.66079e-06
1712.01	2.14534e-06
1720.69	3.93464e-06
1729.36	4.99119e-06
1738.04	5.76505e-06
1746.72	2.36978e-06
1755.4	1.26908e-06
1764.08	1.91786e-06
1772.75	2.95932e-06
1781.43	5.07629e-06
1790.11	1.0464e-05
1798.79	9.74274e-06
1807.47	1.23556e-05
1816.15	3.98424e-06
1824.82	3.42444e-06
1833.5	3.02369e-06
1842.18	5.65776e-06
1850.86	1.05168e-05
1859.54	1.33468e-05
1868.21	1.05731e-05
1876.89	7.43335e-06
1885.57	2.61733e-06
1894.25	1.38821e-06
1902.93	1.33063e-06
1911.6	1.39477e-06
1920.28	2.84967e-06
1928.96	7.83352e-06
1937.64	1.16829e-05
1946.32	1.65178e-05
1955	1.04878e-05
1963.67	6.49593e-06
1972.35	1.75937e-06
1981.03	1.00276e-06
1989.71	1.29813e-06
1998.39	1.28949e-06
2007.06	1.00787e-06
2015.74	7.30717e-07
2024.42	6.14223e-07
2033.1	3.26638e-07
2041.78	1.54048e-07
2050.46	1.14351e-07
2059.13	1.64766e-07
2067.81	2.50075e-07
2076.49	2.45136e-07
2085.17	1.88377e-07
2093.85	2.05984e-07
2102.52	2.29656e-07
2111.2	2.72598e-07
2119.88	2.75239e-07
2128.56	3.82659e-07
2137.24	2.95205e-07
2145.91	2.55465e-07
2154.59	5.24986e-07
2163.27	1.04474e-06
2171.95	1.22827e-06
2180.63	9.61579e-07
2189.31	6.47358e-07
2197.98	5.99405e-07
2206.66	5.04217e-07
2215.34	5.63011e-07
2224.02	4.65231e-07
2232.7	4.98024e-07
2241.37	6.14487e-07
2250.05	9.13352e-07
2258.73	9.99242e-07
2267.41	1.216e-06
2276.09	1.37024e-06
2284.77	1.40181e-06
2293.44	1.29314e-06
2302.12	1.47814e-06
2310.8	1.65713e-06
2319.48	2.17565e-06
2328.16	1.88649e-06
2336.83	1.68244e-06
2345.51	2.24764e-06
2354.19	2.1758e-06
2362.87	1.91094e-06
2371.55	1.78929e-06
2380.23	1.17495e-06
2388.9	1.174e-06
2397.58	1.28517e-06
2406.26	1.59912e-06
2414.94	1.80128e-06
2423.62	1.97326e-06
2432.29	1.2969e-06
2440.97	1.03395e-06
2449.65	8.74038e-07
2458.33	9.7898e-07
2467.01	1.06158e-06
2475.68	9.34017e-07
2484.36	8.62914e-07
2493.04	8.66168e-07
2501.72	9.5414e-07
2510.4	9.71841e-07
2519.08	8.45591e-07
2527.75	7.40054e-07
2536.43	7.44934e-07
2545.11	7.56665e-07
2553.79	7.05163e-07
2562.47	6.74492e-07
2571.14	8.12525e-07
2579.82	1.4082e-06
2588.5	2.29865e-06
2597.18	2.6961e-06
2605.86	1.7985e-06
2614.54	1.3116e-06
2623.21	1.36022e-06
2631.89	1.20715e-06
2640.57	1.12382e-06
2649.25	8.70469e-07
2657.93	7.17889e-07
2666.6	6.16336e-07
2675.28	5.02451e-07
2683.96	5.98917e-07
2692.64	6.01246e-07
2701.32	5.03108e-07
2709.99	6.12859e-07
2718.67	8.39573e-07
2727.35	1.59189e-06
2736.03	4.96955e-06
2744.71	9.00376e-06
2753.39	6.55781e-06
2762.06	1.97149e-06
2770.74	1.38439e-06
2779.42	1.58679e-06
2788.1	1.88244e-06
2796.78	2.06988e-06
2805.45	2.31896e-06
2814.13	3.14402e-06
2822.81	4.15313e-06
2831.49	5.07302e-06
2840.17	6.4877e-06
2848.85	9.83884e-06
2857.52	1.82989e-05
2866.2	3.47764e-05
2874.88	5.55913e-05
2883.56	6.69059e-05
2892.24	6.0255e-05
2900.91	4.40015e-05
2909.59	4.16757e-05
2918.27	6.31196e-05
2926.95	0.000105102
2935.63	0.000118243
2944.31	0.000111834
2952.98	6.92104e-05
2961.66	5.23596e-05
2970.34	3.64416e-05
2979.02	3.87346e-05
2987.7	4.23698e-05
2996.37	4.93066e-05
3005.05	6.83953e-05
3013.73	7.37124e-05
3022.41	0.000126448
3031.09	0.00021856
3039.76	0.000222716
3048.44	0.000192232
3057.12	0.000107465
3065.8	0.000119097
3074.48	0.000132231
3083.16	0.000122564
3091.83	9.02373e-05
3100.51	7.51263e-05
3109.19	4.37147e-05
3117.87	2.75394e-05
3126.55	1.60809e-05
3135.22	6.71422e-06
3143.9	1.92039e-06
3152.58	1.32007e-06
3161.26	1.37987e-06
3169.94	1.63257e-06
3178.62	1.50174e-06
3187.29	1.19228e-06
3195.97	2.98006e-07
3204.65	1.44535e-07
3213.33	1.24883e-07
3222.01	1.31818e-07
3230.68	2.94271e-08
3239.36	-7.003e-11
3248.04	3.25448e-07
3256.72	2.5895e-07
3265.4	4.00542e-07
3274.07	5.30196e-07
3282.75	5.22112e-07
3291.43	5.05611e-07
3300.11	3.79852e-07
3308.79	3.12144e-07
3317.47	3.39235e-07
3326.14	4.79354e-07
3334.82	6.30375e-07
3343.5	6.747e-07
3352.18	5.32662e-07
3360.86	6.44085e-07
3369.53	6.54509e-07
3378.21	6.75846e-07
3386.89	6.17303e-07
3395.57	4.37132e-07
3404.25	4.60106e-07
3412.93	3.31235e-07
3421.6	3.89651e-07
3430.28	4.8872e-07
3438.96	5.80382e-07
3447.64	5.82808e-07
3456.32	3.69316e-07
3464.99	4.35461e-07
3473.67	1.79078e-07
3482.35	1.5175e-07
3491.03	2.06611e-07
3499.71	1.9495e-07
3508.39	1.29515e-07
3517.06	2.35459e-07
3525.74	5.2042e-07
3534.42	3.16616e-07
3543.1	2.87781e-07
3551.78	3.41156e-07
3560.45	3.64408e-07
3569.13	3.9554e-07
3577.81	1.20341e-07
3586.49	1.22652e-07
3595.17	2.64288e-07
3603.84	3.40468e-07
3612.52	-5.39504e-09
3621.2	3.99868e-07
3629.88	2.19172e-07
3638.56	6.66279e-07
3647.24	7.04831e-07
3655.91	9.89451e-07
3664.59	1.1453e-06
3673.27	9.79365e-07
3681.95	6.7387e-07
3690.63	4.64616e-07
3699.3	6.05291e-07
3707.98	3.57529e-07
3716.66	6.39603e-07
3725.34	4.77869e-07
3734.02	5.52278e-07
3742.7	3.30922e-07
3751.37	2.7127e-07
3760.05	6.30724e-08
3768.73	1.78481e-07
3777.41	3.29666e-07
3786.09	5.37464e-07
3794.76	7.16862e-07
3803.44	7.13167e-07
3812.12	6.17749e-07
3820.8	5.04705e-07
3829.48	9.47234e-07
3838.16	5.48022e-07
3846.83	1.25622e-06
3855.51	1.45267e-06
3864.19	1.34757e-06
3872.87	1.19879e-06
3881.55	9.05838e-07
3890.22	8.27993e-07
3898.9	7.79455e-07
3907.58	9.05256e-07
3916.26	1.04725e-06
3924.94	1.10107e-06
3933.61	9.95875e-07
3942.29	8.43494e-07
3950.97	8.11845e-07
3959.65	7.94035e-07
3968.33	8.82719e-07
