Infrared Spectrum: Toluene
Formula: C H3 C6 H5
CAS: 108-88-3
State: gas
Melting point: -95 C
Boiling point: 110.6 C
Class: IUPAC A
Instrument: IFS66V (Bruker)
Instrument parameters: KBr Beam splitter; MCT Detector; Multipass cell
Sampling: 1 L/min Flow
Resolution: 0.9640
Temperature: 23 C
Pressure: 101.3 kPa
Origin: NIST, Anayltical Chemistry Division, 301-975-3108
cm-1	(micromol/mol)-1m-1 (base 10)
575.169	2.59627e-07
583.847	-3.71858e-07
592.525	-1.55455e-07
601.203	-1.08209e-07
609.882	3.67548e-07
618.56	3.51519e-07
627.238	8.70732e-07
635.916	7.091e-07
644.594	6.25785e-07
653.272	7.69243e-07
661.951	3.43138e-06
670.629	1.63064e-05
679.307	5.81183e-05
687.985	7.35392e-05
696.663	7.11525e-05
705.341	0.000109261
714.019	0.000165233
722.698	0.000196555
731.376	0.000269871
740.054	0.000175921
748.732	7.09782e-05
757.41	9.6221e-06
766.088	1.89173e-06
774.767	2.17421e-06
783.445	1.5353e-06
792.123	1.94392e-06
800.801	6.00295e-07
809.479	4.16617e-07
818.157	4.21236e-07
826.835	5.6774e-07
835.514	5.00936e-07
844.192	3.9635e-07
852.87	7.76029e-07
861.548	1.10834e-06
870.226	1.40777e-06
878.904	2.30031e-06
887.583	3.13122e-06
896.261	3.67701e-06
904.939	3.26958e-06
913.617	2.8468e-06
922.295	3.3332e-06
930.973	4.10325e-06
939.651	2.9434e-06
948.33	1.88443e-06
957.008	2.08017e-06
965.686	2.73768e-06
974.364	3.06436e-06
983.042	2.59851e-06
991.72	2.0775e-06
1000.4	1.78561e-06
1009.08	2.10444e-06
1017.75	7.819e-06
1026.43	2.39674e-05
1035.11	1.90159e-05
1043.79	2.31856e-05
1052.47	1.24817e-05
1061.15	1.33008e-05
1069.82	1.8922e-05
1078.5	2.49683e-05
1087.18	2.45896e-05
1095.86	1.66839e-05
1104.54	7.73006e-06
1113.21	7.70255e-06
1121.89	3.38828e-06
1130.57	2.0083e-06
1139.25	1.59176e-06
1147.93	1.72512e-06
1156.61	2.11261e-06
1165.28	2.52299e-06
1173.96	2.83605e-06
1182.64	2.37052e-06
1191.32	2.16632e-06
1200	3.71762e-06
1208.67	4.22752e-06
1217.35	5.13386e-06
1226.03	2.29075e-06
1234.71	2.8902e-06
1243.39	2.76565e-06
1252.07	2.43631e-06
1260.74	1.1957e-06
1269.42	7.82994e-07
1278.1	8.72632e-07
1286.78	1.2047e-06
1295.46	1.58012e-06
1304.13	2.75832e-06
1312.81	2.48168e-06
1321.49	2.37459e-06
1330.17	1.83274e-06
1338.85	1.98487e-06
1347.52	2.64149e-06
1356.2	4.2311e-06
1364.88	5.5161e-06
1373.56	1.02949e-05
1382.24	1.51653e-05
1390.92	1.79118e-05
1399.59	8.43874e-06
1408.27	8.19823e-06
1416.95	1.10319e-05
1425.63	1.046e-05
1434.31	1.36428e-05
1442.98	2.28285e-05
1451.66	3.3336e-05
1460.34	3.5482e-05
1469.02	3.29337e-05
1477.7	3.04692e-05
1486.38	5.8326e-05
1495.05	9.14434e-05
1503.73	9.10752e-05
1512.41	5.2066e-05
1521.09	2.00191e-05
1529.77	1.99142e-05
1538.44	1.54222e-05
1547.12	1.08866e-05
1555.8	1.06095e-05
1564.48	1.02078e-05
1573.16	1.20286e-05
1581.83	9.28253e-06
1590.51	1.16416e-05
1599.19	3.53774e-05
1607.87	4.69602e-05
1616.55	4.67019e-05
1625.23	2.30059e-05
1633.9	5.91281e-06
1642.58	1.88426e-06
1651.26	1.81759e-06
1659.94	1.84617e-06
1668.62	1.86057e-06
1677.29	1.76799e-06
1685.97	1.77115e-06
1694.65	1.61843e-06
1703.33	1.60129e-06
1712.01	2.06946e-06
1720.69	3.89328e-06
1729.36	4.92954e-06
1738.04	5.68541e-06
1746.72	2.32485e-06
1755.4	1.23086e-06
1764.08	1.90488e-06
1772.75	3.12208e-06
1781.43	5.02977e-06
1790.11	1.03996e-05
1798.79	9.86351e-06
1807.47	1.23379e-05
1816.15	3.98719e-06
1824.82	3.38654e-06
1833.5	2.9919e-06
1842.18	5.64568e-06
1850.86	1.04342e-05
1859.54	1.32908e-05
1868.21	1.06672e-05
1876.89	7.41165e-06
1885.57	2.62352e-06
1894.25	1.36712e-06
1902.93	1.28566e-06
1911.6	1.38361e-06
1920.28	2.82169e-06
1928.96	7.80376e-06
1937.64	1.16784e-05
1946.32	1.64817e-05
1955	1.04113e-05
1963.67	6.46088e-06
1972.35	1.72e-06
1981.03	9.82459e-07
1989.71	1.27952e-06
1998.39	1.24906e-06
2007.06	9.63223e-07
2015.74	6.95846e-07
2024.42	5.85504e-07
2033.1	2.96316e-07
2041.78	1.21333e-07
2050.46	9.03678e-08
2059.13	1.52036e-07
2067.81	2.35104e-07
2076.49	2.12615e-07
2085.17	1.75319e-07
2093.85	1.69221e-07
2102.52	2.07579e-07
2111.2	2.55102e-07
2119.88	2.58027e-07
2128.56	3.25415e-07
2137.24	2.62381e-07
2145.91	2.38464e-07
2154.59	5.05217e-07
2163.27	1.01678e-06
2171.95	1.19377e-06
2180.63	9.74642e-07
2189.31	6.4068e-07
2197.98	5.78517e-07
2206.66	4.80789e-07
2215.34	5.32964e-07
2224.02	4.6171e-07
2232.7	4.69403e-07
2241.37	5.91764e-07
2250.05	9.05896e-07
2258.73	1.00501e-06
2267.41	1.192e-06
2276.09	1.38761e-06
2284.77	1.37893e-06
2293.44	1.27872e-06
2302.12	1.49369e-06
2310.8	1.63229e-06
2319.48	2.15671e-06
2328.16	1.91046e-06
2336.83	1.74789e-06
2345.51	2.24751e-06
2354.19	2.15542e-06
2362.87	1.72444e-06
2371.55	1.7079e-06
2380.23	1.14064e-06
2388.9	1.16508e-06
2397.58	1.28296e-06
2406.26	1.58367e-06
2414.94	1.78744e-06
2423.62	1.96703e-06
2432.29	1.292e-06
2440.97	9.84552e-07
2449.65	8.53181e-07
2458.33	9.48305e-07
2467.01	1.03162e-06
2475.68	9.08373e-07
2484.36	8.2006e-07
2493.04	8.48104e-07
2501.72	9.56246e-07
2510.4	9.56637e-07
2519.08	7.97585e-07
2527.75	7.25866e-07
2536.43	7.57993e-07
2545.11	7.39873e-07
2553.79	7.08482e-07
2562.47	6.55384e-07
2571.14	8.25073e-07
2579.82	1.42651e-06
2588.5	2.26353e-06
2597.18	2.70224e-06
2605.86	1.8064e-06
2614.54	1.33626e-06
2623.21	1.37758e-06
2631.89	1.20516e-06
2640.57	1.11268e-06
2649.25	8.85914e-07
2657.93	6.96064e-07
2666.6	6.19712e-07
2675.28	5.1952e-07
2683.96	5.73339e-07
2692.64	5.73325e-07
2701.32	5.24712e-07
2709.99	6.16015e-07
2718.67	8.28367e-07
2727.35	1.57665e-06
2736.03	4.9307e-06
2744.71	8.6859e-06
2753.39	6.52934e-06
2762.06	1.99446e-06
2770.74	1.36123e-06
2779.42	1.56093e-06
2788.1	1.88429e-06
2796.78	2.04709e-06
2805.45	2.28712e-06
2814.13	3.12589e-06
2822.81	4.13293e-06
2831.49	5.05143e-06
2840.17	6.48591e-06
2848.85	9.81721e-06
2857.52	1.83227e-05
2866.2	3.47607e-05
2874.88	5.55294e-05
2883.56	6.68567e-05
2892.24	6.02723e-05
2900.91	4.40394e-05
2909.59	4.17321e-05
2918.27	6.28757e-05
2926.95	0.000105211
2935.63	0.000118607
2944.31	0.000111917
2952.98	6.91477e-05
2961.66	5.24533e-05
2970.34	3.64864e-05
2979.02	3.87584e-05
2987.7	4.25239e-05
2996.37	4.94884e-05
3005.05	6.80666e-05
3013.73	7.36907e-05
3022.41	0.000125938
3031.09	0.000218362
3039.76	0.000221935
3048.44	0.000192127
3057.12	0.000107438
3065.8	0.000118975
3074.48	0.000133401
3083.16	0.000122985
3091.83	9.013e-05
3100.51	7.50144e-05
3109.19	4.38045e-05
3117.87	2.75904e-05
3126.55	1.60303e-05
3135.22	6.74972e-06
3143.9	1.95485e-06
3152.58	1.3099e-06
3161.26	1.37916e-06
3169.94	1.59784e-06
3178.62	1.46836e-06
3187.29	1.18855e-06
3195.97	2.48203e-07
3204.65	1.67744e-07
3213.33	1.01136e-07
3222.01	1.91665e-07
3230.68	3.08077e-08
3239.36	6.71733e-08
3248.04	2.68319e-07
3256.72	3.18017e-07
3265.4	4.13662e-07
3274.07	5.41618e-07
3282.75	4.72381e-07
3291.43	5.10066e-07
3300.11	3.86857e-07
3308.79	3.80622e-07
3317.47	4.07643e-07
3326.14	5.28744e-07
3334.82	6.79669e-07
3343.5	7.17458e-07
3352.18	5.68916e-07
3360.86	5.97729e-07
3369.53	5.89736e-07
3378.21	7.01697e-07
3386.89	6.35202e-07
3395.57	5.32682e-07
3404.25	5.13344e-07
3412.93	4.05718e-07
3421.6	3.94136e-07
3430.28	4.74307e-07
3438.96	6.11775e-07
3447.64	6.3006e-07
3456.32	4.46585e-07
3464.99	4.28883e-07
3473.67	1.97169e-07
3482.35	1.54713e-07
3491.03	2.23765e-07
3499.71	2.05746e-07
3508.39	1.67663e-07
3517.06	2.70259e-07
3525.74	5.04425e-07
3534.42	3.30672e-07
3543.1	3.13204e-07
3551.78	3.4999e-07
3560.45	4.29267e-07
3569.13	3.8921e-07
3577.81	1.99675e-07
3586.49	2.20574e-07
3595.17	3.33273e-07
3603.84	4.22785e-07
3612.52	1.26189e-07
3621.2	3.93015e-07
3629.88	2.90354e-07
3638.56	6.98552e-07
3647.24	8.12539e-07
3655.91	1.03781e-06
3664.59	1.17419e-06
3673.27	9.05176e-07
3681.95	6.99577e-07
3690.63	5.23594e-07
3699.3	5.91026e-07
3707.98	4.40576e-07
3716.66	6.31645e-07
3725.34	5.24036e-07
3734.02	4.78776e-07
3742.7	3.2648e-07
3751.37	2.09761e-07
3760.05	2.05052e-07
3768.73	2.71926e-07
3777.41	3.63784e-07
3786.09	5.11725e-07
3794.76	7.54515e-07
3803.44	7.31313e-07
3812.12	7.39601e-07
3820.8	6.1029e-07
3829.48	9.58582e-07
3838.16	7.10606e-07
3846.83	1.34644e-06
3855.51	1.56002e-06
3864.19	1.38667e-06
3872.87	1.20055e-06
3881.55	9.55862e-07
3890.22	8.63549e-07
3898.9	7.56232e-07
3907.58	1.00903e-06
3916.26	1.09887e-06
3924.94	1.15905e-06
3933.61	1.02855e-06
3942.29	8.97976e-07
3950.97	8.72048e-07
3959.65	8.66955e-07
3968.33	9.26446e-07
