Infrared Spectrum: Benzene, m-dibromo-
Formula: C6 H4 Br2
CAS: 108-36-1
State: LIQUID (NEAT)
Class: COBLENTZ III
Instrument: PERKIN-ELMER 521 (GRATING)
Instrument parameters: FILTERS AT 3150, 2500, 2000, 1150, 700, 410. GRATING CHANGES: 2000, 630
Path length: CAPILLARY
Resolution: 2
Origin: SOUTHERN RESEARCH INSTITUTE
1/CM	TRANSMITTANCE
250.87	0.7117
259.883	0.7544
268.896	0.7809
277.909	0.7909
286.922	0.8321
295.935	0.8449
304.948	0.8291
313.961	0.894
322.974	0.8992
331.987	0.9021
341	0.8998
350.013	0.8897
359.026	0.9006
368.039	0.9167
377.052	0.9216
386.065	0.9298
395.078	0.9386
404.091	0.9255
413.104	0.9132
422.117	0.7572
431.13	0.8779
440.143	0.9167
449.156	0.9237
458.169	0.9257
467.182	0.9259
476.195	0.9259
485.208	0.9268
494.221	0.9276
503.234	0.9282
512.247	0.9281
521.26	0.9277
530.273	0.9275
539.286	0.9275
548.299	0.9267
557.312	0.9246
566.325	0.9211
575.338	0.9149
584.351	0.9142
593.364	0.9129
602.377	0.9119
611.39	0.9056
620.403	0.9054
629.416	0.9014
638.429	0.8751
647.442	0.8558
656.455	0.8723
665.468	0.4903
674.481	0.7318
683.494	0.8691
692.507	0.8875
701.52	0.8751
710.533	0.8529
719.546	0.5409
728.559	0.1478
737.572	0.824
746.585	0.8362
755.598	0.8369
764.611	0.418
773.624	0.2876
782.637	0.8499
791.65	0.9021
800.663	0.9119
809.676	0.9158
818.689	0.9176
827.702	0.9169
836.715	0.9126
845.728	0.9028
854.741	0.8504
863.754	0.607
872.767	0.733
881.78	0.891
890.793	0.8919
899.806	0.9064
908.819	0.9127
917.832	0.9098
926.845	0.9071
935.858	0.9078
944.871	0.9113
953.884	0.9079
962.897	0.8965
971.91	0.8953
980.923	0.8868
989.936	0.5842
998.949	0.8893
1007.96	0.8811
1016.97	0.8233
1025.99	0.8679
1035	0.8852
1044.01	0.8829
1053.03	0.7575
1062.04	0.553
1071.05	0.6249
1080.07	0.637
1089.08	0.7914
1098.09	0.8286
1107.1	0.8418
1116.12	0.899
1125.13	0.9097
1134.14	0.9093
1143.16	0.9006
1152.17	0.8791
1161.18	0.8565
1170.2	0.9079
1179.21	0.9068
1188.22	0.9012
1197.23	0.9032
1206.25	0.9132
1215.26	0.9181
1224.27	0.9178
1233.29	0.9151
1242.3	0.9109
1251.31	0.8966
1260.33	0.9098
1269.34	0.9095
1278.35	0.8833
1287.36	0.8578
1296.38	0.9005
1305.39	0.9096
1314.4	0.9005
1323.42	0.8781
1332.43	0.9057
1341.44	0.909
1350.46	0.9089
1359.47	0.9026
1368.48	0.882
1377.49	0.8421
1386.51	0.7876
1395.52	0.7027
1404.53	0.6909
1413.55	0.5873
1422.56	0.8641
1431.57	0.8535
1440.59	0.8492
1449.6	0.7142
1458.61	0.1061
1467.62	0.7824
1476.64	0.7703
1485.65	0.8328
1494.66	0.8921
1503.68	0.9029
1512.69	0.9029
1521.7	0.9012
1530.72	0.8968
1539.73	0.866
1548.74	0.7614
1557.75	0.5179
1566.77	0.1226
1575.78	0.3596
1584.79	0.824
1593.81	0.8363
1602.82	0.8818
1611.83	0.898
1620.85	0.9017
1629.86	0.9019
1638.87	0.8998
1647.88	0.8946
1656.9	0.8838
1665.91	0.8749
1674.92	0.8858
1683.94	0.8969
1692.95	0.8982
1701.96	0.8959
1710.98	0.8919
1719.99	0.8795
1729	0.8688
1738.01	0.8746
1747.03	0.8887
1756.04	0.8921
1765.05	0.8921
1774.07	0.8906
1783.08	0.8821
1792.09	0.8867
1801.11	0.8958
1810.12	0.8984
1819.13	0.8974
1828.14	0.8959
1837.16	0.8934
1846.17	0.8885
1855.18	0.8748
1864.2	0.871
1873.21	0.887
1882.22	0.8985
1891.24	0.8995
1900.25	0.899
1909.26	0.8977
1918.27	0.8916
1927.29	0.8788
1936.3	0.8729
1945.31	0.8876
1954.33	0.8724
1963.34	0.8952
1972.35	0.8967
1981.37	0.8969
1990.38	0.8962
1999.39	0.8954
2008.4	0.8952
2017.42	0.8957
2026.43	0.8961
2035.44	0.8965
2044.46	0.8963
2053.47	0.8961
2062.48	0.8958
2071.5	0.8955
2080.51	0.8952
2089.52	0.8948
2098.53	0.8946
2107.55	0.8944
2116.56	0.8943
2125.57	0.8941
2134.59	0.8939
2143.6	0.8938
2152.61	0.8937
2161.63	0.8936
2170.64	0.8935
2179.65	0.8934
2188.66	0.8927
2197.68	0.892
2206.69	0.8912
2215.7	0.8904
2224.72	0.8901
2233.73	0.8902
2242.74	0.8904
2251.76	0.8905
2260.77	0.8906
2269.78	0.8908
2278.79	0.8909
2287.81	0.8911
2296.82	0.8906
2305.83	0.8895
2314.85	0.886
2323.86	0.8845
2332.87	0.8838
2341.89	0.8834
2350.9	0.8846
2359.91	0.8865
2368.92	0.8889
2377.94	0.8897
2386.95	0.8881
2395.96	0.8876
2404.98	0.89
2413.99	0.8918
2423	0.8902
2432.02	0.8879
2441.03	0.8866
2450.04	0.8854
2459.05	0.8842
2468.07	0.8829
2477.08	0.8943
2486.09	0.8874
2495.11	0.8853
2504.12	0.8839
2513.13	0.8833
2522.15	0.8828
2531.16	0.8825
2540.17	0.882
2549.18	0.8813
2558.2	0.881
2567.21	0.8806
2576.22	0.8804
2585.24	0.8804
2594.25	0.8803
2603.26	0.8794
2612.28	0.8783
2621.29	0.8778
2630.3	0.8794
2639.31	0.88
2648.33	0.8802
2657.34	0.8805
2666.35	0.88
2675.37	0.8795
2684.38	0.879
2693.39	0.8785
2702.41	0.878
2711.42	0.8784
2720.43	0.8788
2729.44	0.8777
2738.46	0.8787
2747.47	0.8821
2756.48	0.882
2765.5	0.8811
2774.51	0.8801
2783.52	0.8793
2792.54	0.8781
2801.55	0.8764
2810.56	0.8749
2819.57	0.8736
2828.59	0.8731
2837.6	0.8726
2846.61	0.8724
2855.63	0.8722
2864.64	0.8731
2873.65	0.8745
2882.67	0.8752
2891.68	0.8759
2900.69	0.8762
2909.7	0.8764
2918.72	0.876
2927.73	0.8756
2936.74	0.8751
2945.76	0.8746
2954.77	0.8744
2963.78	0.8751
2972.8	0.8758
2981.81	0.8748
2990.82	0.8737
2999.83	0.8724
3008.85	0.8708
3017.86	0.8697
3026.87	0.8677
3035.89	0.8618
3044.9	0.8402
3053.91	0.7852
3062.93	0.8051
3071.94	0.8178
3080.95	0.8018
3089.96	0.8289
3098.98	0.8472
3107.99	0.8542
3117	0.8568
3126.02	0.8667
3135.03	0.8496
3144.04	0.8576
3153.06	0.8679
3162.07	0.871
3171.08	0.8711
3180.09	0.8717
3189.11	0.8723
3198.12	0.8725
3207.13	0.8726
3216.15	0.8726
3225.16	0.8724
3234.17	0.8723
3243.19	0.8723
3252.2	0.8723
3261.21	0.8723
3270.22	0.8723
3279.24	0.8723
3288.25	0.872
3297.26	0.8717
3306.28	0.8714
3315.29	0.8711
3324.3	0.8707
3333.32	0.87
3342.33	0.8695
3351.34	0.8694
3360.35	0.8678
3369.37	0.8644
3378.38	0.8641
3387.39	0.8645
3396.41	0.8649
3405.42	0.8641
3414.43	0.8627
3423.45	0.8602
3432.46	0.8645
3441.47	0.8663
3450.48	0.8674
3459.5	0.8682
3468.51	0.8683
3477.52	0.8684
3486.54	0.8686
3495.55	0.8688
3504.56	0.8691
3513.58	0.8693
3522.59	0.8695
3531.6	0.8698
3540.61	0.8694
3549.63	0.869
3558.64	0.8685
3567.65	0.868
3576.67	0.868
3585.68	0.8682
3594.69	0.8685
3603.71	0.8682
3612.72	0.8678
3621.73	0.8676
3630.74	0.8675
3639.76	0.8675
3648.77	0.8676
3657.78	0.8676
3666.8	0.8676
3675.81	0.8676
3684.82	0.8675
3693.84	0.8672
3702.85	0.8668
3711.86	0.8661
3720.87	0.8651
3729.89	0.8633
3738.9	0.8619
3747.91	0.8634
3756.93	0.8652
3765.94	0.8649
3774.95	0.8642
3783.97	0.8642
3792.98	0.8639
3801.99	0.8634
