Infrared Spectrum: Toluene
Formula: C H3 C6 H5
CAS: 108-88-3
State: gas
Melting point: -95 C
Boiling point: 110.6 C
Class: IUPAC A
Instrument: IFS66V (Bruker)
Instrument parameters: KBr Beam splitter; MCT Detector; Multipass cell
Sampling: 1 L/min Flow
Resolution: 1.9290
Temperature: 23 C
Pressure: 101.3 kPa
Origin: NIST, Anayltical Chemistry Division, 301-975-3108
cm-1	(micromol/mol)-1m-1 (base 10)
574.687	9.18611e-08
583.365	-3.41548e-07
592.043	-1.05061e-07
600.721	1.85061e-08
609.4	2.59096e-07
618.078	4.1822e-07
626.756	6.68581e-07
635.434	8.131e-07
644.112	7.17502e-07
652.79	7.83652e-07
661.469	3.07155e-06
670.147	1.50861e-05
678.825	5.45934e-05
687.503	7.32547e-05
696.181	7.22006e-05
704.859	0.00010595
713.537	0.00016269
722.216	0.000192665
730.894	0.000309602
739.572	0.000178724
748.25	7.68935e-05
756.928	1.09471e-05
765.606	1.82299e-06
774.285	2.00788e-06
782.963	1.6547e-06
791.641	1.83652e-06
800.319	6.47578e-07
808.997	4.44762e-07
817.675	3.26955e-07
826.353	5.05186e-07
835.032	4.21698e-07
843.71	4.17929e-07
852.388	7.15807e-07
861.066	1.08133e-06
869.744	1.35606e-06
878.422	2.24354e-06
887.101	3.00686e-06
895.779	5.48827e-06
904.457	3.22521e-06
913.135	2.8439e-06
921.813	3.248e-06
930.491	4.10816e-06
939.169	2.93396e-06
947.848	1.93414e-06
956.526	2.05202e-06
965.204	2.64958e-06
973.882	3.1351e-06
982.56	2.69225e-06
991.238	2.11397e-06
999.917	1.80296e-06
1008.59	2.10149e-06
1017.27	7.03044e-06
1025.95	2.46412e-05
1034.63	1.73235e-05
1043.31	2.29489e-05
1051.99	1.21497e-05
1060.66	1.31831e-05
1069.34	1.8408e-05
1078.02	2.59059e-05
1086.7	2.43335e-05
1095.38	1.69563e-05
1104.05	7.76725e-06
1112.73	8.03142e-06
1121.41	3.53157e-06
1130.09	1.97652e-06
1138.77	1.64107e-06
1147.45	1.67725e-06
1156.12	2.03834e-06
1164.8	2.40793e-06
1173.48	2.88966e-06
1182.16	2.31249e-06
1190.84	2.21361e-06
1199.51	3.49862e-06
1208.19	4.24592e-06
1216.87	4.9087e-06
1225.55	2.45704e-06
1234.23	2.82286e-06
1242.9	3.00097e-06
1251.58	2.54758e-06
1260.26	1.27188e-06
1268.94	7.69398e-07
1277.62	8.54907e-07
1286.3	1.16411e-06
1294.97	1.56981e-06
1303.65	2.69423e-06
1312.33	2.37304e-06
1321.01	2.39509e-06
1329.69	1.86566e-06
1338.36	1.95769e-06
1347.04	2.58429e-06
1355.72	4.0009e-06
1364.4	5.41918e-06
1373.08	9.92217e-06
1381.76	1.4646e-05
1390.43	1.81165e-05
1399.11	8.66965e-06
1407.79	8.88127e-06
1416.47	1.05097e-05
1425.15	1.06449e-05
1433.82	1.35016e-05
1442.5	2.24056e-05
1451.18	3.34311e-05
1459.86	3.49051e-05
1468.54	3.23643e-05
1477.22	3.04109e-05
1485.89	5.47735e-05
1494.57	9.3981e-05
1503.25	8.58936e-05
1511.93	5.67823e-05
1520.61	2.10776e-05
1529.28	1.98295e-05
1537.96	1.6309e-05
1546.64	1.12285e-05
1555.32	1.03223e-05
1564	1.04571e-05
1572.67	1.19869e-05
1581.35	9.52017e-06
1590.03	1.09898e-05
1598.71	3.37941e-05
1607.39	4.74638e-05
1616.07	4.90036e-05
1624.74	2.35555e-05
1633.42	6.64688e-06
1642.1	1.9233e-06
1650.78	1.74918e-06
1659.46	1.75022e-06
1668.13	1.89023e-06
1676.81	1.7398e-06
1685.49	1.49402e-06
1694.17	1.60005e-06
1702.85	1.5838e-06
1711.53	1.99996e-06
1720.2	3.7229e-06
1728.88	5.12048e-06
1737.56	5.73459e-06
1746.24	2.48502e-06
1754.92	1.21375e-06
1763.59	1.8408e-06
1772.27	3.06328e-06
1780.95	5.04374e-06
1789.63	9.83706e-06
1798.31	1.00046e-05
1806.98	1.22632e-05
1815.66	4.32394e-06
1824.34	3.48282e-06
1833.02	2.95039e-06
1841.7	5.38766e-06
1850.38	1.04077e-05
1859.05	1.22973e-05
1867.73	1.11002e-05
1876.41	7.21087e-06
1885.09	2.89659e-06
1893.77	1.37472e-06
1902.44	1.2419e-06
1911.12	1.34718e-06
1919.8	2.69231e-06
1928.48	7.37775e-06
1937.16	1.19292e-05
1945.84	1.61263e-05
1954.51	1.07976e-05
1963.19	6.38806e-06
1971.87	1.92465e-06
1980.55	9.34774e-07
1989.23	1.24175e-06
1997.9	1.19296e-06
2006.58	9.91738e-07
2015.26	7.02059e-07
2023.94	5.86042e-07
2032.62	3.05983e-07
2041.3	1.35067e-07
2049.97	7.61062e-08
2058.65	1.55976e-07
2067.33	2.22192e-07
2076.01	2.19394e-07
2084.69	1.65939e-07
2093.36	1.86968e-07
2102.04	1.89635e-07
2110.72	2.39522e-07
2119.4	2.42423e-07
2128.08	3.17383e-07
2136.75	2.53826e-07
2145.43	2.39647e-07
2154.11	4.62967e-07
2162.79	1.00902e-06
2171.47	1.12972e-06
2180.15	1.03285e-06
2188.82	6.30788e-07
2197.5	6.02646e-07
2206.18	4.69389e-07
2214.86	5.08304e-07
2223.54	4.82926e-07
2232.21	4.84707e-07
2240.89	5.70339e-07
2249.57	9.06596e-07
2258.25	1.02311e-06
2266.93	1.18903e-06
2275.61	1.38152e-06
2284.28	1.34752e-06
2292.96	1.32765e-06
2301.64	1.4796e-06
2310.32	1.61427e-06
2319	2.06385e-06
2327.67	1.92067e-06
2336.35	1.79752e-06
2345.03	2.27537e-06
2353.71	2.14436e-06
2362.39	1.74892e-06
2371.06	1.75463e-06
2379.74	1.11575e-06
2388.42	1.1408e-06
2397.1	1.27409e-06
2405.78	1.57228e-06
2414.46	1.85121e-06
2423.13	2.03929e-06
2431.81	1.37173e-06
2440.49	9.90889e-07
2449.17	8.40768e-07
2457.85	9.39529e-07
2466.52	1.01561e-06
2475.2	9.18706e-07
2483.88	7.8515e-07
2492.56	8.51839e-07
2501.24	9.84908e-07
2509.92	9.61892e-07
2518.59	7.7366e-07
2527.27	7.55738e-07
2535.95	7.72392e-07
2544.63	7.48843e-07
2553.31	7.19143e-07
2561.98	6.60871e-07
2570.66	8.21809e-07
2579.34	1.37813e-06
2588.02	2.22944e-06
2596.7	2.63265e-06
2605.38	1.86595e-06
2614.05	1.36377e-06
2622.73	1.36726e-06
2631.41	1.22891e-06
2640.09	1.12357e-06
2648.77	9.06839e-07
2657.44	6.93168e-07
2666.12	6.17639e-07
2674.8	5.33139e-07
2683.48	5.67165e-07
2692.16	5.46834e-07
2700.83	5.25162e-07
2709.51	5.79532e-07
2718.19	8.2144e-07
2726.87	1.47072e-06
2735.55	4.72463e-06
2744.23	7.53521e-06
2752.9	6.81202e-06
2761.58	2.07765e-06
2770.26	1.34581e-06
2778.94	1.53169e-06
2787.62	1.85554e-06
2796.29	2.01517e-06
2804.97	2.25896e-06
2813.65	3.04752e-06
2822.33	4.11277e-06
2831.01	4.92704e-06
2839.69	6.44675e-06
2848.36	9.52081e-06
2857.04	1.76744e-05
2865.72	3.37019e-05
2874.4	5.42522e-05
2883.08	6.71935e-05
2891.75	6.09284e-05
2900.43	4.5017e-05
2909.11	4.13104e-05
2917.79	6.07603e-05
2926.47	0.0001035
2935.14	0.000119805
2943.82	0.000113663
2952.5	7.04848e-05
2961.18	5.25748e-05
2969.86	3.73888e-05
2978.54	3.83423e-05
2987.21	4.39428e-05
2995.89	4.81476e-05
3004.57	6.74516e-05
3013.25	7.20213e-05
3021.93	0.000120163
3030.6	0.000215808
3039.28	0.000219644
3047.96	0.000198452
3056.64	0.000108715
3065.32	0.000118295
3074	0.000140129
3082.67	0.000126099
3091.35	9.30611e-05
3100.03	7.44415e-05
3108.71	4.55654e-05
3117.39	2.83815e-05
3126.06	1.64623e-05
3134.74	7.30226e-06
3143.42	2.06454e-06
3152.1	1.34573e-06
3160.78	1.36368e-06
3169.46	1.57584e-06
3178.13	1.50043e-06
3186.81	1.19864e-06
3195.49	2.62189e-07
3204.17	1.53968e-07
3212.85	8.55075e-08
3221.52	2.38364e-07
3230.2	4.03145e-08
3238.88	8.81022e-08
3247.56	2.01734e-07
3256.24	3.14033e-07
3264.91	3.90906e-07
3273.59	5.34145e-07
3282.27	4.6122e-07
3290.95	4.78545e-07
3299.63	4.03024e-07
3308.31	3.84865e-07
3316.98	4.06884e-07
3325.66	5.49257e-07
3334.34	7.11238e-07
3343.02	7.45522e-07
3351.7	5.62134e-07
3360.37	5.28036e-07
3369.05	5.56072e-07
3377.73	7.12857e-07
3386.41	6.41172e-07
3395.09	5.9792e-07
3403.77	4.89164e-07
3412.44	4.56706e-07
3421.12	3.18262e-07
3429.8	5.12841e-07
3438.48	5.5768e-07
3447.16	6.58527e-07
3455.83	4.74518e-07
3464.51	4.12084e-07
3473.19	2.3219e-07
3481.87	1.48565e-07
3490.55	2.07581e-07
3499.22	2.43486e-07
3507.9	1.83173e-07
3516.58	2.69507e-07
3525.26	4.76078e-07
3533.94	3.07101e-07
3542.62	3.14732e-07
3551.29	3.81189e-07
3559.97	4.40397e-07
3568.65	3.7773e-07
3577.33	2.26392e-07
3586.01	2.7733e-07
3594.68	3.69548e-07
3603.36	4.80511e-07
3612.04	2.11741e-07
3620.72	3.5785e-07
3629.4	3.09606e-07
3638.08	7.14744e-07
3646.75	8.52302e-07
3655.43	1.11465e-06
3664.11	1.17798e-06
3672.79	8.80173e-07
3681.47	6.64357e-07
3690.14	5.36218e-07
3698.82	5.38215e-07
3707.5	5.08666e-07
3716.18	5.69623e-07
3724.86	5.45025e-07
3733.54	4.20536e-07
3742.21	3.20767e-07
3750.89	1.79415e-07
3759.57	2.36305e-07
3768.25	2.94802e-07
3776.93	3.8872e-07
3785.6	5.20128e-07
3794.28	7.84816e-07
3802.96	6.94964e-07
3811.64	7.80016e-07
3820.32	6.69344e-07
3828.99	9.7611e-07
3837.67	8.42074e-07
3846.35	1.35057e-06
3855.03	1.28696e-06
3863.71	1.41831e-06
3872.39	1.17634e-06
3881.06	9.15388e-07
3889.74	8.2024e-07
3898.42	8.25585e-07
3907.1	9.89752e-07
3915.78	1.12105e-06
3924.45	1.17952e-06
3933.13	1.01309e-06
3941.81	9.18056e-07
3950.49	8.64748e-07
3959.17	8.38243e-07
3967.85	9.33489e-07
