Infrared Spectrum: Toluene
Formula: C H3 C6 H5
CAS: 108-88-3
State: gas
Melting point: -95 C
Boiling point: 110.6 C
Class: IUPAC A
Instrument: IFS66V (Bruker)
Instrument parameters: KBr Beam splitter; MCT Detector; Multipass cell
Sampling: 1 L/min Flow
Resolution: 0.9640
Temperature: 23 C
Pressure: 101.3 kPa
Origin: NIST, Anayltical Chemistry Division, 301-975-3108
cm-1	(micromol/mol)-1m-1 (base 10)
575.169	2.57525e-07
583.847	-3.54176e-07
592.525	-1.16755e-07
601.203	-8.06236e-08
609.882	3.66353e-07
618.56	3.68355e-07
627.238	8.75277e-07
635.916	7.572e-07
644.594	6.67541e-07
653.272	8.12083e-07
661.951	3.46882e-06
670.629	1.64034e-05
679.307	5.84122e-05
687.985	7.36558e-05
696.663	7.10157e-05
705.341	0.000109121
714.019	0.000165416
722.698	0.000197684
731.376	0.000265677
740.054	0.000175614
748.732	7.08409e-05
757.41	9.52975e-06
766.088	1.80254e-06
774.767	2.08444e-06
783.445	1.53275e-06
792.123	1.88509e-06
800.801	5.70637e-07
809.479	3.87488e-07
818.157	3.73061e-07
826.835	5.07797e-07
835.514	4.61956e-07
844.192	3.76148e-07
852.87	7.47608e-07
861.548	1.07553e-06
870.226	1.38624e-06
878.904	2.27751e-06
887.583	3.10038e-06
896.261	3.71412e-06
904.939	3.25454e-06
913.617	2.84503e-06
922.295	3.33394e-06
930.973	4.08787e-06
939.651	2.91893e-06
948.33	1.8786e-06
957.008	2.06968e-06
965.686	2.71321e-06
974.364	3.0589e-06
983.042	2.59543e-06
991.72	2.06843e-06
1000.4	1.78545e-06
1009.08	2.10413e-06
1017.75	7.83482e-06
1026.43	2.39648e-05
1035.11	1.8953e-05
1043.79	2.30181e-05
1052.47	1.2361e-05
1061.15	1.32924e-05
1069.82	1.89094e-05
1078.5	2.49091e-05
1087.18	2.45335e-05
1095.86	1.66665e-05
1104.54	7.73744e-06
1113.21	7.70627e-06
1121.89	3.37919e-06
1130.57	1.98973e-06
1139.25	1.58742e-06
1147.93	1.71711e-06
1156.61	2.09602e-06
1165.28	2.50353e-06
1173.96	2.82174e-06
1182.64	2.35933e-06
1191.32	2.16388e-06
1200	3.7105e-06
1208.67	4.21949e-06
1217.35	5.1184e-06
1226.03	2.29853e-06
1234.71	2.87591e-06
1243.39	2.77014e-06
1252.07	2.43248e-06
1260.74	1.19457e-06
1269.42	7.74199e-07
1278.1	8.64321e-07
1286.78	1.19876e-06
1295.46	1.57445e-06
1304.13	2.74614e-06
1312.81	2.4798e-06
1321.49	2.36463e-06
1330.17	1.82766e-06
1338.85	1.98174e-06
1347.52	2.6396e-06
1356.2	4.18327e-06
1364.88	5.51693e-06
1373.56	1.02808e-05
1382.24	1.52964e-05
1390.92	1.78893e-05
1399.59	8.43697e-06
1408.27	8.26039e-06
1416.95	1.0988e-05
1425.63	1.04593e-05
1434.31	1.36311e-05
1442.98	2.28307e-05
1451.66	3.33263e-05
1460.34	3.54604e-05
1469.02	3.29708e-05
1477.7	3.03668e-05
1486.38	5.83229e-05
1495.05	9.1563e-05
1503.73	9.08599e-05
1512.41	5.21353e-05
1521.09	2.0098e-05
1529.77	1.98984e-05
1538.44	1.54239e-05
1547.12	1.08868e-05
1555.8	1.05919e-05
1564.48	1.01902e-05
1573.16	1.20289e-05
1581.83	9.28392e-06
1590.51	1.166e-05
1599.19	3.53843e-05
1607.87	4.75767e-05
1616.55	4.68527e-05
1625.23	2.29739e-05
1633.9	5.90258e-06
1642.58	1.8793e-06
1651.26	1.78766e-06
1659.94	1.82951e-06
1668.62	1.82795e-06
1677.29	1.7574e-06
1685.97	1.73976e-06
1694.65	1.60131e-06
1703.33	1.59156e-06
1712.01	2.06076e-06
1720.69	3.89094e-06
1729.36	4.91779e-06
1738.04	5.67509e-06
1746.72	2.32599e-06
1755.4	1.22631e-06
1764.08	1.90695e-06
1772.75	3.16857e-06
1781.43	5.03372e-06
1790.11	1.03841e-05
1798.79	9.99996e-06
1807.47	1.23249e-05
1816.15	3.99397e-06
1824.82	3.38813e-06
1833.5	2.98713e-06
1842.18	5.64776e-06
1850.86	1.04124e-05
1859.54	1.32591e-05
1868.21	1.06764e-05
1876.89	7.40434e-06
1885.57	2.63075e-06
1894.25	1.3664e-06
1902.93	1.27394e-06
1911.6	1.38452e-06
1920.28	2.82019e-06
1928.96	7.80467e-06
1937.64	1.16762e-05
1946.32	1.6466e-05
1955	1.03909e-05
1963.67	6.45163e-06
1972.35	1.71816e-06
1981.03	9.82649e-07
1989.71	1.27873e-06
1998.39	1.24195e-06
2007.06	9.58941e-07
2015.74	6.93229e-07
2024.42	5.8049e-07
2033.1	2.94549e-07
2041.78	1.18786e-07
2050.46	8.70627e-08
2059.13	1.52671e-07
2067.81	2.34056e-07
2076.49	2.11245e-07
2085.17	1.73881e-07
2093.85	1.65275e-07
2102.52	2.0341e-07
2111.2	2.53163e-07
2119.88	2.56792e-07
2128.56	3.16064e-07
2137.24	2.55868e-07
2145.91	2.36533e-07
2154.59	5.01991e-07
2163.27	1.01241e-06
2171.95	1.18956e-06
2180.63	9.79016e-07
2189.31	6.40963e-07
2197.98	5.78057e-07
2206.66	4.77462e-07
2215.34	5.25523e-07
2224.02	4.63302e-07
2232.7	4.66952e-07
2241.37	5.89239e-07
2250.05	9.07798e-07
2258.73	1.00864e-06
2267.41	1.18921e-06
2276.09	1.3924e-06
2284.77	1.37225e-06
2293.44	1.28025e-06
2302.12	1.49709e-06
2310.8	1.62998e-06
2319.48	2.1427e-06
2328.16	1.92227e-06
2336.83	1.77393e-06
2345.51	2.25035e-06
2354.19	2.15235e-06
2362.87	1.68941e-06
2371.55	1.69722e-06
2380.23	1.13521e-06
2388.9	1.1619e-06
2397.58	1.28161e-06
2406.26	1.5831e-06
2414.94	1.79416e-06
2423.62	1.96626e-06
2432.29	1.29576e-06
2440.97	9.76956e-07
2449.65	8.49524e-07
2458.33	9.44657e-07
2467.01	1.0262e-06
2475.68	9.03336e-07
2484.36	8.0953e-07
2493.04	8.47935e-07
2501.72	9.59891e-07
2510.4	9.56081e-07
2519.08	7.87598e-07
2527.75	7.26726e-07
2536.43	7.60738e-07
2545.11	7.3842e-07
2553.79	7.10022e-07
2562.47	6.49166e-07
2571.14	8.29912e-07
2579.82	1.43015e-06
2588.5	2.25658e-06
2597.18	2.70245e-06
2605.86	1.80931e-06
2614.54	1.34058e-06
2623.21	1.37809e-06
2631.89	1.20489e-06
2640.57	1.1078e-06
2649.25	8.89411e-07
2657.93	6.90206e-07
2666.6	6.18792e-07
2675.28	5.21922e-07
2683.96	5.66961e-07
2692.64	5.66733e-07
2701.32	5.29576e-07
2709.99	6.13397e-07
2718.67	8.30242e-07
2727.35	1.57289e-06
2736.03	4.91877e-06
2744.71	8.52167e-06
2753.39	6.51269e-06
2762.06	2.00025e-06
2770.74	1.35688e-06
2779.42	1.55623e-06
2788.1	1.88131e-06
2796.78	2.03996e-06
2805.45	2.2817e-06
2814.13	3.11796e-06
2822.81	4.1317e-06
2831.49	5.04536e-06
2840.17	6.48969e-06
2848.85	9.8187e-06
2857.52	1.83264e-05
2866.2	3.47532e-05
2874.88	5.55285e-05
2883.56	6.68525e-05
2892.24	6.02764e-05
2900.91	4.40608e-05
2909.59	4.17717e-05
2918.27	6.2791e-05
2926.95	0.000105213
2935.63	0.000118763
2944.31	0.000111925
2952.98	6.91556e-05
2961.66	5.24404e-05
2970.34	3.64942e-05
2979.02	3.8757e-05
2987.7	4.25749e-05
2996.37	4.95529e-05
3005.05	6.78935e-05
3013.73	7.36744e-05
3022.41	0.000125693
3031.09	0.000218274
3039.76	0.000221611
3048.44	0.00019208
3057.12	0.000107461
3065.8	0.000118913
3074.48	0.000133703
3083.16	0.000123125
3091.83	9.01089e-05
3100.51	7.49332e-05
3109.19	4.38398e-05
3117.87	2.76002e-05
3126.55	1.60237e-05
3135.22	6.75521e-06
3143.9	1.96322e-06
3152.58	1.31134e-06
3161.26	1.38011e-06
3169.94	1.59022e-06
3178.62	1.47231e-06
3187.29	1.1847e-06
3195.97	2.42677e-07
3204.65	1.6854e-07
3213.33	9.51944e-08
3222.01	1.98409e-07
3230.68	3.45084e-08
3239.36	7.90065e-08
3248.04	2.5229e-07
3256.72	3.23841e-07
3265.4	4.1206e-07
3274.07	5.36283e-07
3282.75	4.64913e-07
3291.43	5.04228e-07
3300.11	3.88901e-07
3308.79	3.88834e-07
3317.47	4.17708e-07
3326.14	5.37108e-07
3334.82	6.8871e-07
3343.5	7.21327e-07
3352.18	5.68138e-07
3360.86	5.82293e-07
3369.53	5.76508e-07
3378.21	7.03806e-07
3386.89	6.31774e-07
3395.57	5.52676e-07
3404.25	5.18931e-07
3412.93	4.1747e-07
3421.6	3.89085e-07
3430.28	4.76598e-07
3438.96	6.13748e-07
3447.64	6.33398e-07
3456.32	4.58305e-07
3464.99	4.22483e-07
3473.67	2.05917e-07
3482.35	1.53857e-07
3491.03	2.2134e-07
3499.71	2.06233e-07
3508.39	1.77481e-07
3517.06	2.70411e-07
3525.74	4.93419e-07
3534.42	3.25908e-07
3543.1	3.19094e-07
3551.78	3.547e-07
3560.45	4.35417e-07
3569.13	3.8304e-07
3577.81	2.13755e-07
3586.49	2.3978e-07
3595.17	3.48009e-07
3603.84	4.39708e-07
3612.52	1.55845e-07
3621.2	3.93732e-07
3629.88	3.18366e-07
3638.56	7.03602e-07
3647.24	8.3185e-07
3655.91	1.05405e-06
3664.59	1.18256e-06
3673.27	8.83899e-07
3681.95	6.96328e-07
3690.63	5.27526e-07
3699.3	5.82575e-07
3707.98	4.59187e-07
3716.66	6.17369e-07
3725.34	5.26295e-07
3734.02	4.60405e-07
3742.7	3.16353e-07
3751.37	1.70069e-07
3760.05	2.27247e-07
3768.73	2.79321e-07
3777.41	3.682e-07
3786.09	5.09053e-07
3794.76	7.62283e-07
3803.44	7.3406e-07
3812.12	7.54363e-07
3820.8	6.22492e-07
3829.48	9.60082e-07
3838.16	7.62112e-07
3846.83	1.35541e-06
3855.51	1.54804e-06
3864.19	1.3754e-06
3872.87	1.19722e-06
3881.55	9.6108e-07
3890.22	8.50162e-07
3898.9	7.56551e-07
3907.58	1.02124e-06
3916.26	1.10809e-06
3924.94	1.16814e-06
3933.61	1.02555e-06
3942.29	9.03483e-07
3950.97	8.74229e-07
3959.65	8.75507e-07
3968.33	9.32248e-07
