Infrared Spectrum: 1,3-Dimethylbenzene
Formula: 1,3-( C H3)2 C6 H4
CAS: 108-38-3
State: gas
Melting point: -47.87 C
Boiling point: 139.1 C
Class: IUPAC A
Instrument: IFS66V (Bruker)
Instrument parameters: KBr Beam Splitter; MCT Detector; Multipass cell
Sampling: 1 L/min Flow
Resolution: 0.4820
Temperature: 23 C
Pressure: 101.3 Pa
Origin: NIST, Analytical Chemistry Division, 301-975-3108
cm-1	(micromol/mol)-1m-1 (base 10)
575.17	-1.65398e-06
583.848	-5.29715e-07
592.526	3.48306e-07
601.205	-3.65072e-07
609.883	-4.88076e-07
618.561	-6.43319e-08
627.239	-3.55036e-07
635.917	-3.47851e-07
644.595	6.27221e-08
653.274	9.72876e-07
661.952	2.44476e-06
670.63	1.02804e-05
679.308	4.25346e-05
687.986	7.59311e-05
696.665	6.32628e-05
705.343	3.27602e-05
714.021	5.2449e-06
722.699	1.43519e-06
731.377	1.53903e-06
740.055	3.97194e-06
748.734	3.42e-05
757.412	0.000134512
766.09	0.00029343
774.768	0.000167368
783.446	7.47809e-05
792.124	8.1105e-06
800.803	1.62535e-06
809.481	9.65599e-07
818.159	6.28094e-07
826.837	6.61971e-07
835.515	6.0512e-07
844.194	6.20705e-07
852.872	1.4661e-06
861.55	7.89893e-06
870.228	1.38879e-05
878.906	1.31572e-05
887.584	1.10798e-05
896.263	1.2797e-05
904.941	1.67428e-05
913.619	1.17089e-05
922.297	1.07395e-06
930.975	1.50854e-06
939.654	2.21197e-06
948.332	2.69066e-06
957.01	3.14141e-06
965.688	4.03045e-06
974.366	4.91935e-06
983.044	4.30052e-06
991.723	5.40927e-06
1000.4	8.31329e-06
1009.08	1.00371e-05
1017.76	7.46267e-06
1026.44	6.19129e-06
1035.11	1.13611e-05
1043.79	2.40114e-05
1052.47	1.93398e-05
1061.15	1.39502e-05
1069.83	8.81841e-06
1078.5	8.99154e-06
1087.18	2.10511e-05
1095.86	1.91969e-05
1104.54	1.76637e-05
1113.22	6.06691e-06
1121.9	4.66471e-06
1130.57	4.5437e-06
1139.25	2.90828e-06
1147.93	2.63726e-06
1156.61	4.11298e-06
1165.29	9.43764e-06
1173.96	6.43176e-06
1182.64	3.45914e-06
1191.32	2.43464e-06
1200	1.9439e-06
1208.68	1.41754e-06
1217.36	1.19547e-06
1226.03	1.08108e-06
1234.71	1.58092e-06
1243.39	3.11547e-06
1252.07	3.04725e-06
1260.75	3.54268e-06
1269.42	2.8673e-06
1278.1	1.9689e-06
1286.78	1.50097e-06
1295.46	1.93018e-06
1304.14	2.07158e-06
1312.82	2.12997e-06
1321.49	2.23009e-06
1330.17	2.40607e-06
1338.85	2.65997e-06
1347.53	3.77524e-06
1356.21	6.34106e-06
1364.88	9.43717e-06
1373.56	1.79862e-05
1382.24	2.95109e-05
1390.92	2.84619e-05
1399.6	1.88876e-05
1408.28	1.59072e-05
1416.95	1.72193e-05
1425.63	1.8744e-05
1434.31	2.69466e-05
1442.99	3.92984e-05
1451.67	4.69497e-05
1460.34	4.17504e-05
1469.02	4.86976e-05
1477.7	5.87584e-05
1486.38	8.46032e-05
1495.06	0.000107342
1503.74	0.000103576
1512.41	6.82018e-05
1521.09	4.95701e-05
1529.77	4.71306e-05
1538.45	4.04632e-05
1547.13	2.54601e-05
1555.8	1.76187e-05
1564.48	1.6058e-05
1573.16	1.76224e-05
1581.84	1.92345e-05
1590.52	3.22334e-05
1599.2	4.85232e-05
1607.87	0.000102448
1616.55	0.000133571
1625.23	0.000108005
1633.91	1.04724e-05
1642.59	5.01825e-06
1651.26	6.47046e-06
1659.94	4.98501e-06
1668.62	1.87457e-06
1677.3	7.49244e-07
1685.98	5.3515e-07
1694.66	9.41102e-07
1703.33	1.24839e-06
1712.01	1.47461e-06
1720.69	1.22525e-06
1729.37	3.0276e-06
1738.05	7.19269e-06
1746.72	6.51511e-06
1755.4	7.2883e-06
1764.08	6.29316e-06
1772.76	7.11947e-06
1781.44	6.77498e-06
1790.12	1.94059e-06
1798.79	9.72411e-07
1807.47	1.70199e-06
1816.15	2.10487e-06
1824.83	1.83396e-06
1833.51	3.28063e-06
1842.18	5.80486e-06
1850.86	1.25887e-05
1859.54	1.05164e-05
1868.22	1.80187e-06
1876.9	1.17674e-06
1885.58	1.02971e-06
1894.25	1.10913e-06
1902.93	1.724e-06
1911.61	3.06999e-06
1920.29	6.00704e-06
1928.97	1.20555e-05
1937.64	1.15413e-05
1946.32	3.64326e-06
1955	3.40815e-07
1963.68	1.29953e-07
1972.36	2.21943e-07
1981.04	5.79491e-08
1989.71	1.55941e-08
1998.39	1.0923e-09
2007.07	-8.62642e-08
2015.75	-3.98311e-08
2024.43	8.53147e-08
2033.1	-2.50103e-07
2041.78	-3.33179e-07
2050.46	-4.78873e-07
2059.14	-3.71818e-07
2067.82	-1.91051e-07
2076.5	-1.87015e-07
2085.17	-4.09289e-08
2093.85	-2.85879e-07
2102.53	2.32172e-07
2111.21	7.1751e-07
2119.89	9.91817e-08
2128.56	-3.12376e-07
2137.24	-8.40505e-08
2145.92	7.74649e-08
2154.6	4.49452e-07
2163.28	-2.02623e-07
2171.96	-1.86954e-07
2180.63	-2.67767e-07
2189.31	-3.38886e-07
2197.99	-2.28021e-07
2206.67	-7.58369e-08
2215.35	1.05874e-08
2224.02	-3.45788e-08
2232.7	-3.53992e-07
2241.38	-1.73284e-07
2250.06	-5.50341e-08
2258.74	4.20615e-07
2267.42	6.98522e-07
2276.09	9.44178e-07
2284.77	1.34675e-06
2293.45	1.78445e-06
2302.13	6.74352e-07
2310.81	5.04319e-07
2319.48	8.20865e-07
2328.16	1.05734e-06
2336.84	1.5586e-06
2345.52	1.463e-06
2354.2	1.57704e-06
2362.88	1.75804e-06
2371.55	9.69366e-07
2380.23	7.2089e-07
2388.91	1.2182e-06
2397.59	1.24735e-06
2406.27	1.22296e-06
2414.94	1.79467e-06
2423.62	1.93908e-06
2432.3	1.63994e-06
2440.98	1.28404e-06
2449.66	1.40352e-06
2458.34	1.3316e-06
2467.01	1.49989e-06
2475.69	1.22768e-06
2484.37	1.37224e-06
2493.05	1.30646e-06
2501.73	1.13949e-06
2510.4	7.37764e-07
2519.08	4.52027e-07
2527.76	3.45804e-07
2536.44	1.05949e-06
2545.12	1.34463e-06
2553.8	4.96823e-07
2562.47	4.46329e-07
2571.15	3.78725e-07
2579.83	2.25579e-07
2588.51	4.14494e-07
2597.19	5.22523e-07
2605.86	5.77155e-07
2614.54	6.42884e-07
2623.22	7.9201e-07
2631.9	7.83268e-07
2640.58	8.27224e-07
2649.26	6.64838e-07
2657.93	3.31935e-07
2666.61	1.63514e-07
2675.29	2.6145e-07
2683.97	-4.21767e-08
2692.65	2.61374e-07
2701.32	3.58371e-07
2710	6.94608e-07
2718.68	1.43706e-06
2727.36	3.11284e-06
2736.04	1.10987e-05
2744.71	1.18695e-05
2753.39	7.19087e-06
2762.07	2.57519e-06
2770.75	1.89161e-06
2779.43	1.98085e-06
2788.11	2.19392e-06
2796.78	2.85263e-06
2805.46	3.65864e-06
2814.14	4.96453e-06
2822.82	7.44469e-06
2831.5	9.62552e-06
2840.17	1.32506e-05
2848.85	2.17831e-05
2857.53	4.14081e-05
2866.21	8.19229e-05
2874.89	0.000118483
2883.57	0.000117968
2892.24	9.43699e-05
2900.92	9.39846e-05
2909.6	0.000111315
2918.28	0.000147023
2926.96	0.000217745
2935.63	0.000257691
2944.31	0.000230546
2952.99	0.000139557
2961.67	9.77769e-05
2970.35	6.9902e-05
2979.03	7.29718e-05
2987.7	8.77496e-05
2996.38	0.00010957
3005.06	0.000135983
3013.74	0.00017614
3022.42	0.000218089
3031.09	0.000239917
3039.77	0.000211295
3048.45	0.000170615
3057.13	0.000133488
3065.81	0.000118007
3074.49	8.45581e-05
3083.16	4.12433e-05
3091.84	2.88689e-05
3100.52	2.36746e-05
3109.2	2.11139e-05
3117.88	1.85659e-05
3126.55	1.27406e-05
3135.23	4.81141e-06
3143.91	2.0251e-06
3152.59	1.1367e-06
3161.27	8.88953e-07
3169.95	6.34813e-07
3178.62	6.2611e-07
3187.3	4.56127e-07
3195.98	4.31265e-07
3204.66	3.42609e-07
3213.34	2.30627e-07
3222.01	-1.02484e-07
3230.69	-3.42505e-07
3239.37	-4.33504e-07
3248.05	-3.82009e-07
3256.73	6.96851e-09
3265.41	3.1791e-07
3274.08	1.58136e-07
3282.76	-8.16549e-08
3291.44	-4.60839e-09
3300.12	1.80506e-07
3308.8	8.03198e-08
3317.47	-1.54653e-07
3326.15	-1.59354e-07
3334.83	-5.51196e-08
3343.51	-6.98497e-08
3352.19	-1.6307e-07
3360.87	-1.16984e-07
3369.54	-5.12871e-08
3378.22	8.64452e-08
3386.9	-4.3701e-09
3395.58	4.62482e-07
3404.26	3.86319e-07
3412.93	7.7078e-07
3421.61	5.98079e-07
3430.29	3.85555e-07
3438.97	3.45643e-07
3447.65	3.72858e-07
3456.33	4.7541e-07
3465	5.07752e-07
3473.68	1.58243e-07
3482.36	2.42057e-07
3491.04	-1.74306e-07
3499.72	-2.08347e-07
3508.39	-3.07309e-07
3517.07	-1.32436e-07
3525.75	-1.50257e-08
3534.43	-2.17032e-08
3543.11	-2.07573e-08
3551.79	5.33453e-07
3560.46	2.65537e-07
3569.14	3.51557e-07
3577.82	9.4787e-08
3586.5	-1.59133e-07
3595.18	-4.27876e-07
3603.85	-4.22319e-07
3612.53	-4.66972e-07
3621.21	-2.29694e-07
3629.89	-4.8439e-07
3638.57	-3.65573e-07
3647.25	-4.79309e-07
3655.92	-3.84538e-07
3664.6	-1.56855e-07
3673.28	-2.24577e-07
3681.96	-1.48129e-07
3690.64	-3.93714e-07
3699.31	-4.11553e-07
3707.99	-1.55917e-07
3716.67	-2.23627e-07
3725.35	-8.08164e-08
3734.03	3.82151e-07
3742.71	6.12336e-07
3751.38	4.98548e-07
3760.06	2.29811e-07
3768.74	7.78262e-07
3777.42	6.08214e-07
3786.1	7.46817e-07
3794.77	4.53418e-07
3803.45	2.89721e-07
3812.13	1.54566e-07
3820.81	-4.8243e-08
3829.49	5.73418e-07
3838.17	-1.18616e-08
3846.84	5.41237e-07
3855.52	5.24432e-07
3864.2	2.72333e-07
3872.88	3.96622e-07
3881.56	6.01103e-07
3890.23	8.99568e-07
3898.91	1.15987e-06
3907.59	1.64858e-06
3916.27	1.80101e-06
3924.95	1.7552e-06
3933.63	1.45114e-06
3942.3	1.35892e-06
3950.98	1.43282e-06
3959.66	1.53193e-06
3968.34	1.49105e-06
