Infrared Spectrum: 1,3-Dimethylbenzene
Formula: 1,3-( C H3)2 C6 H4
CAS: 108-38-3
State: gas
Melting point: -47.87 C
Boiling point: 139.1 C
Class: IUPAC A
Instrument: IFS66V (Bruker)
Instrument parameters: KBr Beam Splitter; MCT Detector; Multipass cell
Sampling: 1 L/min Flow
Resolution: 1.9290
Temperature: 23 C
Pressure: 101.3 Pa
Origin: NIST, Analytical Chemistry Division, 301-975-3108
cm-1	(micromol/mol)-1m-1 (base 10)
575.652	-3.01911e-07
584.33	-4.79448e-07
593.008	-5.0816e-07
601.687	-5.81335e-07
610.365	-6.58717e-07
619.043	-4.07098e-07
627.721	-2.06724e-07
636.399	-4.66663e-07
645.077	-1.26382e-07
653.756	9.51959e-07
662.434	2.4563e-06
671.112	1.168e-05
679.79	4.39719e-05
688.468	9.09235e-05
697.147	6.24035e-05
705.825	3.02389e-05
714.503	4.61237e-06
723.181	1.39122e-06
731.859	1.56768e-06
740.537	4.60979e-06
749.216	3.85643e-05
757.894	0.000138846
766.572	0.000369638
775.25	0.000166806
783.928	6.85331e-05
792.607	7.46269e-06
801.285	1.64106e-06
809.963	8.99823e-07
818.641	5.34585e-07
827.319	4.9624e-07
835.997	4.48597e-07
844.676	6.32731e-07
853.354	1.715e-06
862.032	8.45541e-06
870.71	1.45959e-05
879.388	1.32733e-05
888.066	1.08097e-05
896.745	1.34129e-05
905.423	1.75557e-05
914.101	1.07282e-05
922.779	1.2189e-06
931.457	1.42302e-06
940.136	2.11375e-06
948.814	2.59025e-06
957.492	3.15409e-06
966.17	4.03776e-06
974.848	4.93116e-06
983.526	4.38003e-06
992.205	5.39755e-06
1000.88	8.50937e-06
1009.56	9.84962e-06
1018.24	7.15737e-06
1026.92	6.35853e-06
1035.6	1.18832e-05
1044.27	2.38959e-05
1052.95	1.92232e-05
1061.63	1.34018e-05
1070.31	8.57211e-06
1078.99	9.39167e-06
1087.66	2.18496e-05
1096.34	1.99095e-05
1105.02	1.65653e-05
1113.7	5.94882e-06
1122.38	4.63632e-06
1131.06	4.26241e-06
1139.73	2.75964e-06
1148.41	2.84678e-06
1157.09	4.24601e-06
1165.77	9.16113e-06
1174.45	6.79199e-06
1183.12	3.27187e-06
1191.8	2.24986e-06
1200.48	1.95265e-06
1209.16	1.34027e-06
1217.84	1.13016e-06
1226.52	1.12725e-06
1235.19	1.5941e-06
1243.87	3.06517e-06
1252.55	3.16753e-06
1261.23	3.44799e-06
1269.91	2.81653e-06
1278.58	1.94523e-06
1287.26	1.56122e-06
1295.94	1.87726e-06
1304.62	1.94882e-06
1313.3	2.17377e-06
1321.98	2.10969e-06
1330.65	2.39205e-06
1339.33	2.73644e-06
1348.01	3.9967e-06
1356.69	6.30914e-06
1365.37	9.75935e-06
1374.04	1.90464e-05
1382.72	2.90062e-05
1391.4	2.79233e-05
1400.08	1.88789e-05
1408.76	1.5999e-05
1417.44	1.7422e-05
1426.11	1.88755e-05
1434.79	2.79412e-05
1443.47	3.9913e-05
1452.15	4.66112e-05
1460.83	4.18821e-05
1469.5	4.95347e-05
1478.18	6.02105e-05
1486.86	8.63462e-05
1495.54	0.000107185
1504.22	0.000101876
1512.9	6.62971e-05
1521.57	4.95296e-05
1530.25	4.7025e-05
1538.93	4.00498e-05
1547.61	2.4663e-05
1556.29	1.74505e-05
1564.96	1.60073e-05
1573.64	1.76295e-05
1582.32	1.97153e-05
1591	3.35729e-05
1599.68	5.20922e-05
1608.36	0.00010951
1617.03	0.000141038
1625.71	0.000100163
1634.39	9.56877e-06
1643.07	4.95831e-06
1651.75	6.21387e-06
1660.42	5.14356e-06
1669.1	1.60118e-06
1677.78	7.47938e-07
1686.46	5.41996e-07
1695.14	5.9545e-07
1703.82	1.18077e-06
1712.49	1.37674e-06
1721.17	1.21195e-06
1729.85	3.03819e-06
1738.53	7.44582e-06
1747.21	6.6117e-06
1755.88	7.10619e-06
1764.56	6.49492e-06
1773.24	7.2837e-06
1781.92	6.42918e-06
1790.6	1.68209e-06
1799.28	9.23821e-07
1807.95	1.7843e-06
1816.63	2.16538e-06
1825.31	1.83812e-06
1833.99	3.48947e-06
1842.67	6.33015e-06
1851.34	1.21067e-05
1860.02	1.05258e-05
1868.7	1.65262e-06
1877.38	1.12992e-06
1886.06	1.0003e-06
1894.74	1.18632e-06
1903.41	1.74234e-06
1912.09	3.2257e-06
1920.77	6.36391e-06
1929.45	1.20003e-05
1938.13	1.14451e-05
1946.8	3.27837e-06
1955.48	3.74359e-07
1964.16	1.17791e-07
1972.84	1.21146e-07
1981.52	2.19678e-08
1990.2	-1.14423e-08
1998.87	1.77496e-08
2007.55	-1.1489e-07
2016.23	-6.86147e-08
2024.91	-3.00541e-08
2033.59	-1.67011e-07
2042.26	-3.63548e-07
2050.94	-4.66552e-07
2059.62	-3.99338e-07
2068.3	-1.37775e-07
2076.98	-7.67064e-08
2085.66	1.24182e-08
2094.33	-5.24294e-08
2103.01	3.88837e-07
2111.69	6.77435e-07
2120.37	-1.91644e-07
2129.05	-3.32681e-07
2137.72	-2.23001e-07
2146.4	6.54478e-08
2155.08	1.08919e-07
2163.76	-1.68816e-07
2172.44	-2.04908e-08
2181.12	-2.3458e-07
2189.79	-1.35238e-07
2198.47	-2.52505e-07
2207.15	-7.89728e-08
2215.83	6.76078e-08
2224.51	-2.3735e-08
2233.18	-1.99573e-07
2241.86	-1.48806e-07
2250.54	-5.87867e-08
2259.22	4.17162e-07
2267.9	6.48143e-07
2276.58	9.37213e-07
2285.25	1.40095e-06
2293.93	1.72516e-06
2302.61	5.91111e-07
2311.29	5.00549e-07
2319.97	9.29705e-07
2328.64	1.29669e-06
2337.32	1.9794e-06
2346	1.65277e-06
2354.68	1.44507e-06
2363.36	1.25531e-06
2372.04	8.12487e-07
2380.71	6.85856e-07
2389.39	1.23895e-06
2398.07	1.29665e-06
2406.75	1.38362e-06
2415.43	1.83667e-06
2424.1	1.90811e-06
2432.78	1.58719e-06
2441.46	1.40174e-06
2450.14	1.36752e-06
2458.82	1.32399e-06
2467.5	1.4045e-06
2476.17	1.2738e-06
2484.85	1.30786e-06
2493.53	1.19576e-06
2502.21	1.08504e-06
2510.89	7.06659e-07
2519.56	3.98425e-07
2528.24	3.85415e-07
2536.92	1.11999e-06
2545.6	1.28065e-06
2554.28	4.82876e-07
2562.96	4.0506e-07
2571.63	2.98595e-07
2580.31	1.38259e-07
2588.99	4.09244e-07
2597.67	5.81738e-07
2606.35	5.51809e-07
2615.02	6.75796e-07
2623.7	8.87613e-07
2632.38	8.41659e-07
2641.06	8.29509e-07
2649.74	6.3698e-07
2658.42	3.52959e-07
2667.09	1.76014e-07
2675.77	1.00938e-07
2684.45	1.30439e-08
2693.13	2.08349e-07
2701.81	3.83364e-07
2710.48	8.43876e-07
2719.16	1.50076e-06
2727.84	3.2733e-06
2736.52	1.14621e-05
2745.2	1.27136e-05
2753.88	6.61642e-06
2762.55	2.4739e-06
2771.23	1.83552e-06
2779.91	1.79597e-06
2788.59	2.1186e-06
2797.27	2.83205e-06
2805.94	3.7184e-06
2814.62	5.10581e-06
2823.3	7.30157e-06
2831.98	9.8325e-06
2840.66	1.36267e-05
2849.34	2.22707e-05
2858.01	4.31903e-05
2866.69	8.46363e-05
2875.37	0.000119108
2884.05	0.000116908
2892.73	9.37782e-05
2901.4	9.50273e-05
2910.08	0.000112398
2918.76	0.000150498
2927.44	0.000220822
2936.12	0.000257916
2944.8	0.000227035
2953.47	0.000137225
2962.15	9.6369e-05
2970.83	6.92589e-05
2979.51	7.43173e-05
2988.19	8.91386e-05
2996.86	0.000109974
3005.54	0.000137865
3014.22	0.000176897
3022.9	0.00021981
3031.58	0.000240598
3040.26	0.000209276
3048.93	0.000166999
3057.61	0.000133127
3066.29	0.000119416
3074.97	8.11522e-05
3083.65	4.03538e-05
3092.32	2.84768e-05
3101	2.34847e-05
3109.68	2.11843e-05
3118.36	1.81557e-05
3127.04	1.22687e-05
3135.72	4.66402e-06
3144.39	1.9659e-06
3153.07	1.13614e-06
3161.75	8.83154e-07
3170.43	6.07515e-07
3179.11	6.42616e-07
3187.78	5.60432e-07
3196.46	4.8689e-07
3205.14	3.11527e-07
3213.82	3.56629e-07
3222.5	-1.54822e-07
3231.18	-2.62394e-07
3239.85	-3.86534e-07
3248.53	-2.78107e-07
3257.21	2.07654e-07
3265.89	3.27889e-07
3274.57	2.05358e-07
3283.24	-7.8408e-08
3291.92	5.6834e-09
3300.6	5.79027e-08
3309.28	-4.01249e-08
3317.96	-7.93112e-08
3326.64	-8.74747e-08
3335.31	-7.19279e-08
3343.99	-5.41847e-08
3352.67	-9.72536e-08
3361.35	-1.10736e-07
3370.03	-9.30181e-08
3378.7	1.10788e-07
3387.38	2.07004e-07
3396.06	5.98158e-07
3404.74	4.16804e-07
3413.42	3.35105e-07
3422.1	5.04396e-07
3430.77	4.37758e-07
3439.45	3.20268e-07
3448.13	4.21635e-07
3456.81	3.59203e-07
3465.49	3.53203e-07
3474.16	2.11772e-07
3482.84	7.13868e-08
3491.52	-1.83153e-07
3500.2	-2.64472e-07
3508.88	-2.77082e-07
3517.56	-1.99075e-07
3526.23	-2.05017e-07
3534.91	-1.00089e-07
3543.59	1.46169e-07
3552.27	4.3925e-07
3560.95	3.8098e-07
3569.62	1.61484e-07
3578.3	1.04601e-07
3586.98	-1.5377e-07
3595.66	-1.65359e-07
3604.34	-3.57496e-07
3613.02	-3.34258e-07
3621.69	-2.58194e-07
3630.37	-3.22349e-07
3639.05	-3.22135e-07
3647.73	-3.5483e-07
3656.41	-3.85696e-07
3665.08	-2.91678e-07
3673.76	-2.8324e-07
3682.44	-2.06003e-07
3691.12	-3.14459e-07
3699.8	-1.51373e-07
3708.48	-2.22905e-07
3717.15	-1.11312e-07
3725.83	5.40583e-08
3734.51	2.45345e-07
3743.19	4.00466e-07
3751.87	2.07383e-07
3760.54	5.31444e-07
3769.22	7.0147e-07
3777.9	7.24084e-07
3786.58	5.91035e-07
3795.26	4.02503e-07
3803.94	2.03499e-07
3812.61	5.84275e-08
3821.29	8.79504e-08
3829.97	4.72365e-07
3838.65	2.81062e-07
3847.33	5.12505e-07
3856	3.40999e-07
3864.68	1.96379e-07
3873.36	4.65719e-07
3882.04	7.77629e-07
3890.72	8.12346e-07
3899.4	1.08656e-06
3908.07	1.55075e-06
3916.75	1.79434e-06
3925.43	1.71964e-06
3934.11	1.39521e-06
3942.79	1.42728e-06
3951.46	1.39253e-06
3960.14	1.42021e-06
3968.82	1.52575e-06
