Infrared Spectrum: Ethenyl Ester-Acetic Acid
Formula: C H3 C O2 C H: C H2
CAS: 108-05-4
State: gas
Melting point: -93.2 C
Boiling point: 72.2 C
Class: IUPAC A
Instrument: IFS66V (Bruker)
Instrument parameters: KBr Beam splitter; MCT Detector; Multipass cell
Sampling: 1 L/min Flow
Resolution: 0.9640
Temperature: 23 C
Pressure: 101.3 kPa
Origin: NIST, Anayltical Chemistry Division, 301-975-3108
cm-1	(micromol/mol)-1m-1 (base 10)
575.169	1.09504e-05
583.847	1.9674e-05
592.525	3.78092e-05
601.203	2.8685e-05
609.882	3.27878e-05
618.56	3.42045e-05
627.238	4.27412e-05
635.916	4.18912e-05
644.594	4.08074e-05
653.272	2.47799e-05
661.951	1.27244e-05
670.629	5.756e-06
679.307	4.80829e-06
687.985	6.72913e-06
696.663	9.67811e-06
705.341	1.07649e-05
714.019	1.21403e-05
722.698	8.94161e-06
731.376	7.13414e-06
740.054	5.83065e-06
748.732	5.68287e-06
757.41	6.38232e-06
766.088	7.84296e-06
774.767	9.7774e-06
783.445	9.62662e-06
792.123	9.07335e-06
800.801	9.13299e-06
809.479	1.05769e-05
818.157	1.53542e-05
826.835	2.55571e-05
835.514	5.33199e-05
844.192	8.91234e-05
852.87	0.000134216
861.548	0.000155077
870.226	0.00027945
878.904	0.000159582
887.583	0.000123936
896.261	5.88682e-05
904.939	2.04569e-05
913.617	1.30849e-05
922.295	2.38649e-05
930.973	5.5373e-05
939.651	8.84002e-05
948.33	0.000126655
957.008	0.000155994
965.686	0.000115399
974.364	0.000106776
983.042	0.000104782
991.72	6.63553e-05
1000.4	9.08395e-05
1009.08	0.000190692
1017.75	0.000342089
1026.43	0.000348573
1035.11	0.000223421
1043.79	8.46199e-05
1052.47	6.81361e-05
1061.15	6.11517e-05
1069.82	5.56396e-05
1078.5	4.77449e-05
1087.18	3.91669e-05
1095.86	3.18257e-05
1104.54	2.92658e-05
1113.21	3.23356e-05
1121.89	5.05685e-05
1130.57	0.000177137
1139.25	0.000858449
1147.93	0.000949299
1156.61	0.000808892
1165.28	8.31066e-05
1173.96	4.69571e-05
1182.64	6.57676e-05
1191.32	0.000116188
1200	0.0003116
1208.67	0.00110569
1217.35	0.00262979
1226.03	0.00272756
1234.71	0.00177251
1243.39	0.000357116
1252.07	0.000227614
1260.74	0.000179793
1269.42	6.59395e-05
1278.1	5.84624e-05
1286.78	0.000144166
1295.46	0.0001728
1304.13	0.000158384
1312.81	4.863e-05
1321.49	1.86486e-05
1330.17	1.28514e-05
1338.85	1.276e-05
1347.52	2.0882e-05
1356.2	6.128e-05
1364.88	0.000234969
1373.56	0.000392485
1382.24	0.000435198
1390.92	0.000194881
1399.59	7.13408e-05
1408.27	2.95784e-05
1416.95	2.84063e-05
1425.63	3.25875e-05
1434.31	4.02566e-05
1442.98	3.56921e-05
1451.66	3.34263e-05
1460.34	2.69651e-05
1469.02	2.25892e-05
1477.7	2.0749e-05
1486.38	1.84641e-05
1495.05	1.63689e-05
1503.73	1.52489e-05
1512.41	1.43449e-05
1521.09	1.27999e-05
1529.77	1.20818e-05
1538.44	1.06408e-05
1547.12	1.16072e-05
1555.8	1.48057e-05
1564.48	1.76815e-05
1573.16	1.98367e-05
1581.83	2.16436e-05
1590.51	2.22579e-05
1599.19	2.26856e-05
1607.87	2.57161e-05
1616.55	3.4103e-05
1625.23	4.48773e-05
1633.9	7.76118e-05
1642.58	0.000325342
1651.26	0.000418024
1659.94	0.000527988
1668.62	8.78332e-05
1677.29	2.84214e-05
1685.97	1.73947e-05
1694.65	1.60735e-05
1703.33	1.39519e-05
1712.01	1.22127e-05
1720.69	1.22006e-05
1729.36	1.87944e-05
1738.04	2.73967e-05
1746.72	5.69234e-05
1755.4	0.000136911
1764.08	0.000365525
1772.75	0.000982215
1781.43	0.00109433
1790.11	0.00148235
1798.79	0.00061172
1807.47	0.000208001
1816.15	5.25504e-05
1824.82	2.25786e-05
1833.5	2.01327e-05
1842.18	1.81732e-05
1850.86	2.19998e-05
1859.54	2.6838e-05
1868.21	2.81315e-05
1876.89	2.4932e-05
1885.57	1.62437e-05
1894.25	1.45288e-05
1902.93	1.361e-05
1911.6	1.02137e-05
1920.28	5.6725e-06
1928.96	4.26037e-06
1937.64	4.6718e-06
1946.32	5.18063e-06
1955	5.42234e-06
1963.67	4.98062e-06
1972.35	4.98343e-06
1981.03	8.98786e-06
1989.71	1.30065e-05
1998.39	1.39426e-05
2007.06	7.3807e-06
2015.74	5.34108e-06
2024.42	5.25266e-06
2033.1	5.47035e-06
2041.78	7.3507e-06
2050.46	1.43454e-05
2059.13	2.53372e-05
2067.81	2.79189e-05
2076.49	2.01177e-05
2085.17	8.33712e-06
2093.85	5.94711e-06
2102.52	5.61293e-06
2111.2	6.71018e-06
2119.88	7.0268e-06
2128.56	7.2472e-06
2137.24	4.15819e-06
2145.91	4.13203e-06
2154.59	4.40998e-06
2163.27	4.86422e-06
2171.95	4.60261e-06
2180.63	3.87541e-06
2189.31	2.53263e-06
2197.98	2.12582e-06
2206.66	2.18392e-06
2215.34	3.27119e-06
2224.02	4.47528e-06
2232.7	4.74598e-06
2241.37	3.86803e-06
2250.05	3.00476e-06
2258.73	2.26516e-06
2267.41	2.77381e-06
2276.09	6.66671e-06
2284.77	1.12828e-05
2293.44	1.12245e-05
2302.12	4.87587e-06
2310.8	1.28158e-06
2319.48	1.14881e-06
2328.16	1.45785e-06
2336.83	2.46231e-06
2345.51	3.36443e-06
2354.19	4.21886e-06
2362.87	3.76648e-06
2371.55	3.17823e-06
2380.23	2.43321e-06
2388.9	1.52586e-06
2397.58	1.85669e-06
2406.26	2.55164e-06
2414.94	3.66527e-06
2423.62	5.57075e-06
2432.29	8.23397e-06
2440.97	8.24486e-06
2449.65	6.27433e-06
2458.33	2.78169e-06
2467.01	1.88817e-06
2475.68	1.62389e-06
2484.36	1.6368e-06
2493.04	1.88702e-06
2501.72	1.88751e-06
2510.4	9.51096e-07
2519.08	7.38088e-07
2527.75	5.83016e-07
2536.43	3.85647e-07
2545.11	2.81631e-07
2553.79	2.58429e-07
2562.47	2.59786e-07
2571.14	5.78538e-07
2579.82	1.33401e-06
2588.5	1.98035e-06
2597.18	1.81513e-06
2605.86	1.3204e-06
2614.54	1.17584e-06
2623.21	1.91783e-06
2631.89	2.11873e-06
2640.57	1.77815e-06
2649.25	9.07566e-07
2657.93	9.25958e-07
2666.6	1.14943e-06
2675.28	1.14708e-06
2683.96	8.50736e-07
2692.64	4.90652e-07
2701.32	3.61226e-07
2709.99	3.92428e-07
2718.67	4.2946e-07
2727.35	5.22017e-07
2736.03	9.63977e-07
2744.71	2.21799e-06
2753.39	3.01884e-06
2762.06	3.25355e-06
2770.74	1.891e-06
2779.42	1.04109e-06
2788.1	1.34511e-06
2796.78	1.49803e-06
2805.45	1.27962e-06
2814.13	6.84845e-07
2822.81	6.62774e-07
2831.49	7.74218e-07
2840.17	1.02765e-06
2848.85	1.83017e-06
2857.52	2.34164e-06
2866.2	2.37416e-06
2874.88	1.72715e-06
2883.56	1.28899e-06
2892.24	1.12273e-06
2900.91	1.17342e-06
2909.59	1.20811e-06
2918.27	1.4033e-06
2926.95	2.11233e-06
2935.63	4.09023e-06
2944.31	8.88167e-06
2952.98	1.0764e-05
2961.66	1.24048e-05
2970.34	9.42922e-06
2979.02	8.98231e-06
2987.7	9.89824e-06
2996.37	1.22107e-05
3005.05	1.13653e-05
3013.73	1.15634e-05
3022.41	1.36519e-05
3031.09	1.70632e-05
3039.76	1.88689e-05
3048.44	2.07192e-05
3057.12	2.22042e-05
3065.8	2.3487e-05
3074.48	1.82677e-05
3083.16	1.79377e-05
3091.83	3.77278e-05
3100.51	4.22211e-05
3109.19	4.74923e-05
3117.87	1.81421e-05
3126.55	2.56317e-05
3135.22	2.27628e-05
3143.9	1.45868e-05
3152.58	4.73037e-06
3161.26	2.35592e-06
3169.94	1.47049e-06
3178.62	1.14368e-06
3187.29	9.889e-07
3195.97	1.04973e-06
3204.65	7.62763e-07
3213.33	5.85086e-07
3222.01	4.1129e-07
3230.68	2.33496e-07
3239.36	7.77762e-08
3248.04	-1.1641e-08
3256.72	3.11614e-08
3265.4	-1.67994e-08
3274.07	-7.63247e-08
3282.75	-9.67e-08
3291.43	5.72626e-08
3300.11	5.39449e-08
3308.79	-1.99868e-07
3317.47	-5.42931e-07
3326.14	-4.61404e-07
3334.82	-1.62624e-07
3343.5	-1.58353e-08
3352.18	-2.05463e-08
3360.86	-1.47193e-07
3369.53	-1.30579e-07
3378.21	-5.16058e-08
3386.89	-3.12814e-08
3395.57	-3.6709e-08
3404.25	-1.41921e-07
3412.93	-1.3653e-07
3421.6	-1.29491e-07
3430.28	-4.09471e-08
3438.96	-5.81721e-08
3447.64	6.13078e-08
3456.32	2.44718e-07
3464.99	1.93651e-07
3473.67	1.82879e-07
3482.35	-7.3098e-08
3491.03	-1.54596e-07
3499.71	-5.91288e-08
3508.39	1.92876e-07
3517.06	1.07637e-06
3525.74	3.43275e-06
3534.42	9.50852e-06
3543.1	1.54117e-05
3551.78	1.53261e-05
3560.45	1.01023e-05
3569.13	3.12064e-06
3577.81	3.69051e-07
3586.49	-3.91536e-07
3595.17	-4.42946e-07
3603.84	-5.44917e-07
3612.52	-7.21965e-07
3621.2	-5.60792e-07
3629.88	-8.48997e-07
3638.56	-4.74616e-07
3647.24	-5.61309e-07
3655.91	-6.19514e-07
3664.59	-3.37581e-07
3673.27	-4.1329e-07
3681.95	-3.99554e-07
3690.63	-5.89007e-07
3699.3	-4.67974e-07
3707.98	-4.65187e-07
3716.66	-4.39119e-07
3725.34	-4.45914e-07
3734.02	-5.18292e-07
3742.7	-4.76777e-07
3751.37	-6.44425e-07
3760.05	-5.82656e-07
3768.73	-4.34361e-07
3777.41	-4.20235e-07
3786.09	-4.27449e-07
3794.76	-4.36536e-07
3803.44	-4.45096e-07
3812.12	-3.58498e-07
3820.8	-6.1577e-07
3829.48	-2.94869e-07
3838.16	-8.60143e-07
3846.83	-2.5557e-07
3855.51	-3.24521e-07
3864.19	-2.87339e-07
3872.87	-1.84426e-07
3881.55	-1.47509e-07
3890.22	-7.14609e-08
3898.9	-1.87318e-07
3907.58	1.20535e-07
3916.26	9.51103e-08
3924.94	9.66345e-08
3933.61	1.37709e-07
3942.29	1.26861e-07
3950.97	2.51688e-07
3959.65	4.65042e-07
3968.33	9.16944e-07
