Infrared Spectrum: Ethenyl Ester-Acetic Acid
Formula: C H3 C O2 C H: C H2
CAS: 108-05-4
State: gas
Melting point: -93.2 C
Boiling point: 72.2 C
Class: IUPAC A
Instrument: IFS66V (Bruker)
Instrument parameters: KBr Beam splitter; MCT Detector; Multipass cell
Sampling: 1 L/min Flow
Resolution: 0.9640
Temperature: 23 C
Pressure: 101.3 kPa
Origin: NIST, Anayltical Chemistry Division, 301-975-3108
cm-1	(micromol/mol)-1m-1 (base 10)
575.169	1.09232e-05
583.847	1.97239e-05
592.525	3.79208e-05
601.203	2.86681e-05
609.882	3.27751e-05
618.56	3.42101e-05
627.238	4.27427e-05
635.916	4.18962e-05
644.594	4.0801e-05
653.272	2.47579e-05
661.951	1.27386e-05
670.629	5.74285e-06
679.307	4.80522e-06
687.985	6.72282e-06
696.663	9.68809e-06
705.341	1.07705e-05
714.019	1.21566e-05
722.698	8.94686e-06
731.376	7.13254e-06
740.054	5.84108e-06
748.732	5.67304e-06
757.41	6.3836e-06
766.088	7.83355e-06
774.767	9.77512e-06
783.445	9.62073e-06
792.123	9.07121e-06
800.801	9.13216e-06
809.479	1.05665e-05
818.157	1.53277e-05
826.835	2.55459e-05
835.514	5.32813e-05
844.192	8.90829e-05
852.87	0.000134204
861.548	0.000155069
870.226	0.000280755
878.904	0.000159547
887.583	0.000123946
896.261	5.88552e-05
904.939	2.04479e-05
913.617	1.30738e-05
922.295	2.38536e-05
930.973	5.53725e-05
939.651	8.83824e-05
948.33	0.000126643
957.008	0.000156645
965.686	0.000115393
974.364	0.000106685
983.042	0.000104901
991.72	6.63006e-05
1000.4	9.08065e-05
1009.08	0.000190631
1017.75	0.000342208
1026.43	0.000350997
1035.11	0.00022342
1043.79	8.4571e-05
1052.47	6.8141e-05
1061.15	6.11609e-05
1069.82	5.56349e-05
1078.5	4.77499e-05
1087.18	3.9174e-05
1095.86	3.18264e-05
1104.54	2.92672e-05
1113.21	3.23325e-05
1121.89	5.05394e-05
1130.57	0.000176739
1139.25	0.0008594
1147.93	0.000951455
1156.61	0.000809722
1165.28	8.28037e-05
1173.96	4.69271e-05
1182.64	6.57513e-05
1191.32	0.00011615
1200	0.000311245
1208.67	0.00110515
1217.35	0.00263144
1226.03	0.00272804
1234.71	0.0017727
1243.39	0.000356702
1252.07	0.000227754
1260.74	0.000179935
1269.42	6.5881e-05
1278.1	5.841e-05
1286.78	0.000144278
1295.46	0.000172801
1304.13	0.000158509
1312.81	4.85721e-05
1321.49	1.86432e-05
1330.17	1.28482e-05
1338.85	1.27499e-05
1347.52	2.08668e-05
1356.2	6.12206e-05
1364.88	0.000234988
1373.56	0.000392588
1382.24	0.00043554
1390.92	0.000194769
1399.59	7.12896e-05
1408.27	2.95609e-05
1416.95	2.8413e-05
1425.63	3.25838e-05
1434.31	4.02658e-05
1442.98	3.5702e-05
1451.66	3.34339e-05
1460.34	2.69697e-05
1469.02	2.25876e-05
1477.7	2.07574e-05
1486.38	1.84687e-05
1495.05	1.63747e-05
1503.73	1.5251e-05
1512.41	1.43164e-05
1521.09	1.27217e-05
1529.77	1.20872e-05
1538.44	1.07003e-05
1547.12	1.1604e-05
1555.8	1.48161e-05
1564.48	1.76813e-05
1573.16	1.98321e-05
1581.83	2.16443e-05
1590.51	2.22546e-05
1599.19	2.26859e-05
1607.87	2.57172e-05
1616.55	3.39993e-05
1625.23	4.48783e-05
1633.9	7.75212e-05
1642.58	0.00032533
1651.26	0.000415749
1659.94	0.000529191
1668.62	8.75923e-05
1677.29	2.84123e-05
1685.97	1.74276e-05
1694.65	1.60968e-05
1703.33	1.39421e-05
1712.01	1.22103e-05
1720.69	1.21905e-05
1729.36	1.87957e-05
1738.04	2.73877e-05
1746.72	5.6933e-05
1755.4	0.000136843
1764.08	0.000365371
1772.75	0.000981488
1781.43	0.00109376
1790.11	0.00148508
1798.79	0.000611299
1807.47	0.000207915
1816.15	5.24853e-05
1824.82	2.25577e-05
1833.5	2.01316e-05
1842.18	1.81654e-05
1850.86	2.19978e-05
1859.54	2.68364e-05
1868.21	2.81303e-05
1876.89	2.4942e-05
1885.57	1.62338e-05
1894.25	1.4532e-05
1902.93	1.36038e-05
1911.6	1.02115e-05
1920.28	5.66716e-06
1928.96	4.26081e-06
1937.64	4.67047e-06
1946.32	5.18026e-06
1955	5.41996e-06
1963.67	4.98432e-06
1972.35	4.97806e-06
1981.03	8.99004e-06
1989.71	1.30072e-05
1998.39	1.39527e-05
2007.06	7.37346e-06
2015.74	5.34199e-06
2024.42	5.25026e-06
2033.1	5.47023e-06
2041.78	7.34604e-06
2050.46	1.43431e-05
2059.13	2.53451e-05
2067.81	2.79082e-05
2076.49	2.01192e-05
2085.17	8.33658e-06
2093.85	5.94988e-06
2102.52	5.61765e-06
2111.2	6.70476e-06
2119.88	7.0179e-06
2128.56	7.25594e-06
2137.24	4.15475e-06
2145.91	4.13304e-06
2154.59	4.40133e-06
2163.27	4.86356e-06
2171.95	4.61036e-06
2180.63	3.88279e-06
2189.31	2.53798e-06
2197.98	2.1251e-06
2206.66	2.17935e-06
2215.34	3.27063e-06
2224.02	4.47434e-06
2232.7	4.74533e-06
2241.37	3.86855e-06
2250.05	3.00564e-06
2258.73	2.26392e-06
2267.41	2.77018e-06
2276.09	6.66415e-06
2284.77	1.1285e-05
2293.44	1.12113e-05
2302.12	4.86947e-06
2310.8	1.28031e-06
2319.48	1.14867e-06
2328.16	1.45331e-06
2336.83	2.45217e-06
2345.51	3.36723e-06
2354.19	4.2246e-06
2362.87	3.77806e-06
2371.55	3.18011e-06
2380.23	2.43398e-06
2388.9	1.52405e-06
2397.58	1.85467e-06
2406.26	2.55131e-06
2414.94	3.66474e-06
2423.62	5.57021e-06
2432.29	8.23598e-06
2440.97	8.24763e-06
2449.65	6.27515e-06
2458.33	2.78357e-06
2467.01	1.88787e-06
2475.68	1.62172e-06
2484.36	1.63637e-06
2493.04	1.8913e-06
2501.72	1.88518e-06
2510.4	9.49488e-07
2519.08	7.3612e-07
2527.75	5.86948e-07
2536.43	3.87084e-07
2545.11	2.82464e-07
2553.79	2.63231e-07
2562.47	2.60419e-07
2571.14	5.79389e-07
2579.82	1.33435e-06
2588.5	1.98464e-06
2597.18	1.81301e-06
2605.86	1.3194e-06
2614.54	1.17383e-06
2623.21	1.92357e-06
2631.89	2.1194e-06
2640.57	1.78119e-06
2649.25	9.13317e-07
2657.93	9.22852e-07
2666.6	1.15319e-06
2675.28	1.14976e-06
2683.96	8.47586e-07
2692.64	4.94915e-07
2701.32	3.60943e-07
2709.99	3.90438e-07
2718.67	4.35266e-07
2727.35	5.24447e-07
2736.03	9.63268e-07
2744.71	2.21613e-06
2753.39	3.01596e-06
2762.06	3.2515e-06
2770.74	1.89487e-06
2779.42	1.03393e-06
2788.1	1.34581e-06
2796.78	1.49356e-06
2805.45	1.27798e-06
2814.13	6.82771e-07
2822.81	6.62691e-07
2831.49	7.71988e-07
2840.17	1.02466e-06
2848.85	1.83323e-06
2857.52	2.34668e-06
2866.2	2.37244e-06
2874.88	1.73008e-06
2883.56	1.29079e-06
2892.24	1.12076e-06
2900.91	1.17106e-06
2909.59	1.20863e-06
2918.27	1.39753e-06
2926.95	2.11038e-06
2935.63	4.09757e-06
2944.31	8.88052e-06
2952.98	1.0769e-05
2961.66	1.23898e-05
2970.34	9.42392e-06
2979.02	8.98797e-06
2987.7	9.89472e-06
2996.37	1.22118e-05
3005.05	1.13664e-05
3013.73	1.15673e-05
3022.41	1.36515e-05
3031.09	1.70707e-05
3039.76	1.88694e-05
3048.44	2.07199e-05
3057.12	2.2198e-05
3065.8	2.35081e-05
3074.48	1.82622e-05
3083.16	1.79213e-05
3091.83	3.77368e-05
3100.51	4.21061e-05
3109.19	4.75723e-05
3117.87	1.81054e-05
3126.55	2.56643e-05
3135.22	2.27643e-05
3143.9	1.45703e-05
3152.58	4.72898e-06
3161.26	2.35414e-06
3169.94	1.47105e-06
3178.62	1.14273e-06
3187.29	9.9583e-07
3195.97	1.05326e-06
3204.65	7.62003e-07
3213.33	5.91266e-07
3222.01	4.12145e-07
3230.68	2.4286e-07
3239.36	7.54298e-08
3248.04	-1.37072e-08
3256.72	3.78477e-08
3265.4	-1.49259e-08
3274.07	-7.12427e-08
3282.75	-1.03274e-07
3291.43	6.57532e-08
3300.11	4.79535e-08
3308.79	-1.98144e-07
3317.47	-5.41847e-07
3326.14	-4.64707e-07
3334.82	-1.6357e-07
3343.5	-1.75706e-08
3352.18	-1.86328e-08
3360.86	-1.50496e-07
3369.53	-1.28887e-07
3378.21	-4.71568e-08
3386.89	-3.73966e-08
3395.57	-3.65053e-08
3404.25	-1.42383e-07
3412.93	-1.33274e-07
3421.6	-1.27941e-07
3430.28	-3.96229e-08
3438.96	-6.36288e-08
3447.64	6.41526e-08
3456.32	2.49546e-07
3464.99	2.00566e-07
3473.67	1.88027e-07
3482.35	-7.72087e-08
3491.03	-1.46163e-07
3499.71	-5.71826e-08
3508.39	2.00454e-07
3517.06	1.08063e-06
3525.74	3.41803e-06
3534.42	9.5032e-06
3543.1	1.54262e-05
3551.78	1.53191e-05
3560.45	1.00887e-05
3569.13	3.13254e-06
3577.81	3.69691e-07
3586.49	-4.20712e-07
3595.17	-4.61186e-07
3603.84	-5.47256e-07
3612.52	-7.55615e-07
3621.2	-5.56027e-07
3629.88	-8.93473e-07
3638.56	-4.82147e-07
3647.24	-5.82346e-07
3655.91	-6.25436e-07
3664.59	-3.34892e-07
3673.27	-4.00758e-07
3681.95	-3.93705e-07
3690.63	-5.78934e-07
3699.3	-4.68898e-07
3707.98	-4.68039e-07
3716.66	-4.36845e-07
3725.34	-4.46074e-07
3734.02	-5.0525e-07
3742.7	-4.70728e-07
3751.37	-5.76264e-07
3760.05	-6.10405e-07
3768.73	-4.33495e-07
3777.41	-4.23702e-07
3786.09	-4.12534e-07
3794.76	-4.35285e-07
3803.44	-4.50669e-07
3812.12	-3.65257e-07
3820.8	-6.40489e-07
3829.48	-2.89667e-07
3838.16	-9.36191e-07
3846.83	-2.57105e-07
3855.51	-2.95262e-07
3864.19	-2.69601e-07
3872.87	-1.80824e-07
3881.55	-1.42722e-07
3890.22	-5.98636e-08
3898.9	-1.79864e-07
3907.58	1.29593e-07
3916.26	9.52994e-08
3924.94	9.12106e-08
3933.61	1.4063e-07
3942.29	1.19851e-07
3950.97	2.54835e-07
3959.65	4.69062e-07
3968.33	9.17351e-07
