Infrared Spectrum: Toluene
Formula: C H3 C6 H5
CAS: 108-88-3
State: gas
Melting point: -95 C
Boiling point: 110.6 C
Class: IUPAC A
Instrument: IFS66V (Bruker)
Instrument parameters: KBr Beam splitter; MCT Detector; Multipass cell
Sampling: 1 L/min Flow
Resolution: 0.1250
Temperature: 23 C
Pressure: 101.3 kPa
Origin: NIST, Anayltical Chemistry Division, 301-975-3108
cm-1	(micromol/mol)-1m-1 (base 10)
3975.02	7.9859e-07
3966.46	5.25593e-07
3957.9	1.01299e-06
3949.34	9.16489e-07
3940.79	9.71787e-07
3932.23	8.2619e-07
3923.67	8.87089e-07
3915.11	9.25589e-07
3906.56	8.20889e-07
3898	9.72588e-07
3889.44	6.71391e-07
3880.88	1.06099e-06
3872.33	1.19999e-06
3863.77	1.24398e-06
3855.21	1.68298e-06
3846.65	1.11799e-06
3838.09	7.48791e-07
3829.54	1.15999e-06
3820.98	6.01892e-07
3812.42	6.16792e-07
3803.86	6.73491e-07
3795.31	9.52688e-07
3786.75	4.34894e-07
3778.19	5.09093e-07
3769.63	3.79895e-07
3761.08	4.58494e-07
3752.52	-2.57397e-07
3743.96	-2.36396e-07
3735.4	4.08595e-07
3726.85	4.74993e-07
3718.29	5.17493e-07
3709.73	3.18195e-07
3701.17	3.52395e-07
3692.62	8.34689e-07
3684.06	7.8519e-07
3675.5	8.7979e-07
3666.94	1.23698e-06
3658.38	1.28198e-06
3649.83	1.05099e-06
3641.27	8.69489e-07
3632.71	3.51994e-07
3624.15	3.57395e-07
3615.6	6.85783e-08
3607.04	1.93597e-07
3598.48	2.02996e-07
3589.92	5.77492e-07
3581.37	2.80996e-07
3572.81	5.28693e-07
3564.25	6.72992e-07
3555.69	5.43393e-07
3547.14	-1.00398e-07
3538.58	1.60897e-07
3530.02	1.07598e-07
3521.46	2.16996e-07
3512.91	5.1358e-08
3504.35	5.15481e-08
3495.79	4.10995e-07
3487.23	6.43782e-08
3478.67	9.15083e-08
3470.12	-2.12197e-07
3461.56	5.04293e-07
3453	7.52791e-07
3444.44	4.00795e-07
3435.89	9.57288e-07
3427.33	3.02796e-07
3418.77	2.95396e-07
3410.21	6.23692e-07
3401.66	6.99091e-07
3393.1	1.91097e-07
3384.54	8.35089e-07
3375.98	3.11395e-07
3367.43	5.09093e-07
3358.87	7.88189e-07
3350.31	5.04593e-07
3341.75	9.59988e-07
3333.2	7.6539e-07
3324.64	7.72191e-07
3316.08	6.56691e-07
3307.52	2.68796e-07
3298.96	3.15595e-07
3290.41	5.19193e-07
3281.85	5.11493e-07
3273.29	3.85395e-07
3264.73	3.22295e-07
3256.18	4.17894e-07
3247.62	1.80997e-07
3239.06	1.56697e-07
3230.5	1.62097e-07
3221.95	3.59995e-07
3213.39	1.10998e-07
3204.83	4.44386e-08
3196.27	1.97497e-07
3187.72	1.01399e-06
3179.16	1.14499e-06
3170.6	1.38898e-06
3162.04	1.49498e-06
3153.48	1.34998e-06
3144.93	1.72198e-06
3136.37	5.65693e-06
3127.81	1.48898e-05
3119.25	2.54597e-05
3110.7	3.93995e-05
3102.14	7.22692e-05
3093.58	7.95791e-05
3085.02	0.000114499
3076.47	0.000119899
3067.91	0.000118199
3059.35	0.000106799
3050.79	0.000158298
3042.24	0.000223897
3033.68	0.000222297
3025.12	0.000151098
3016.56	8.17691e-05
3008.01	6.57993e-05
2999.45	5.18994e-05
2990.89	4.08195e-05
2982.33	3.95695e-05
2973.77	3.42296e-05
2965.22	4.53995e-05
2956.66	6.03993e-05
2948.1	9.3979e-05
2939.54	0.000121999
2930.99	0.000110199
2922.43	8.24991e-05
2913.87	4.96094e-05
2905.31	3.98395e-05
2896.76	5.26794e-05
2888.2	6.37493e-05
2879.64	6.76492e-05
2871.08	4.58395e-05
2862.53	2.67397e-05
2853.97	1.41698e-05
2845.41	8.01591e-06
2836.85	5.80193e-06
2828.3	4.28695e-06
2819.74	3.75696e-06
2811.18	2.80297e-06
2802.62	2.25597e-06
2794.06	1.93798e-06
2785.51	1.68998e-06
2776.95	1.41698e-06
2768.39	1.46298e-06
2759.83	2.43897e-06
2751.28	7.35892e-06
2742.72	5.32894e-06
2734.16	4.27795e-06
2725.6	1.26298e-06
2717.05	8.49189e-07
2708.49	5.63693e-07
2699.93	5.00593e-07
2691.37	5.39992e-07
2682.82	4.51094e-07
2674.26	5.97892e-07
2665.7	6.27891e-07
2657.14	9.85888e-07
2648.59	8.24489e-07
2640.03	1.04399e-06
2631.47	1.32398e-06
2622.91	1.29698e-06
2614.35	1.35098e-06
2605.8	1.88798e-06
2597.24	2.68497e-06
2588.68	2.30797e-06
2580.12	1.56598e-06
2571.57	1.01299e-06
2563.01	6.51992e-07
2554.45	4.85693e-07
2545.89	8.1119e-07
2537.34	6.18892e-07
2528.78	6.81891e-07
2520.22	7.7789e-07
2511.66	8.0719e-07
2503.11	1.02899e-06
2494.55	7.16691e-07
2485.99	7.11591e-07
2477.43	9.0629e-07
2468.87	1.24998e-06
2460.32	9.30389e-07
2451.76	8.5449e-07
2443.2	9.68088e-07
2434.64	1.33398e-06
2426.09	1.91998e-06
2417.53	1.94898e-06
2408.97	1.79498e-06
2400.41	1.41598e-06
2391.86	1.26498e-06
2383.3	1.10799e-06
2374.74	1.52998e-06
2366.18	1.63098e-06
2357.63	2.15598e-06
2349.07	2.16198e-06
2340.51	2.09398e-06
2331.95	2.00698e-06
2323.4	2.00998e-06
2314.84	1.94198e-06
2306.28	1.83298e-06
2297.72	1.46598e-06
2289.16	1.43598e-06
2280.61	1.33298e-06
2272.05	1.27698e-06
2263.49	1.04899e-06
2254.93	1.11299e-06
2246.38	7.64291e-07
2237.82	5.09394e-07
2229.26	3.57995e-07
2220.7	3.46595e-07
2212.15	4.72693e-07
2203.59	5.44493e-07
2195.03	5.33493e-07
2186.47	6.13293e-07
2177.92	1.23599e-06
2169.36	1.18599e-06
2160.8	7.9969e-07
2152.24	1.72497e-07
2143.69	3.39595e-07
2135.13	3.77995e-07
2126.57	2.91496e-07
2118.01	3.17795e-07
2109.45	1.64797e-07
2100.9	4.37795e-07
2092.34	2.60496e-07
2083.78	1.24998e-07
2075.22	1.44498e-07
2066.67	1.35498e-07
2058.11	1.39598e-07
2049.55	1.71297e-07
2040.99	7.11785e-08
2032.44	2.58396e-07
2023.88	6.12392e-07
2015.32	7.17691e-07
2006.76	9.43888e-07
1998.21	1.22999e-06
1989.65	1.36398e-06
1981.09	8.5489e-07
1972.53	1.62998e-06
1963.97	6.42593e-06
1955.42	1.01199e-05
1946.86	1.67098e-05
1938.3	1.13199e-05
1929.74	8.5769e-06
1921.19	2.93697e-06
1912.63	1.42698e-06
1904.07	1.18299e-06
1895.51	1.40898e-06
1886.96	2.03498e-06
1878.4	7.59791e-06
1869.84	9.2329e-06
1861.28	1.47698e-05
1852.73	9.49189e-06
1844.17	6.08693e-06
1835.61	3.16896e-06
1827.05	3.17596e-06
1818.5	3.02696e-06
1809.94	1.06699e-05
1801.38	1.25899e-05
1792.82	1.17899e-05
1784.26	6.08593e-06
1775.71	3.59596e-06
1767.15	2.39497e-06
1758.59	1.28798e-06
1750.03	1.65398e-06
1741.48	4.30695e-06
1732.92	3.51496e-06
1724.36	5.31994e-06
1715.8	2.51897e-06
1707.25	1.80798e-06
1698.69	1.82198e-06
1690.13	1.19699e-06
1681.57	2.05298e-06
1673.02	1.62198e-06
1664.46	2.13798e-06
1655.9	1.38998e-06
1647.34	1.52398e-06
1638.79	2.46297e-06
1630.23	1.31499e-05
1621.67	2.88497e-05
1613.11	5.00394e-05
1604.55	4.15595e-05
1596	2.46297e-05
1587.44	1.17399e-05
1578.88	1.06099e-05
1570.32	1.05699e-05
1561.77	1.15599e-05
1553.21	9.67689e-06
1544.65	1.26399e-05
1536.09	1.77398e-05
1527.54	2.03698e-05
1518.98	2.50097e-05
1510.42	7.27492e-05
1501.86	7.76291e-05
1493.31	9.91489e-05
1484.75	4.50595e-05
1476.19	3.04796e-05
1467.63	3.13696e-05
1459.08	3.40196e-05
1450.52	3.35696e-05
1441.96	2.16998e-05
1433.4	1.34098e-05
1424.84	1.09399e-05
1416.29	1.01699e-05
1407.73	8.8419e-06
1399.17	8.2809e-06
1390.61	1.81798e-05
1382.06	1.47298e-05
1373.5	1.03499e-05
1364.94	5.46694e-06
1356.38	4.21395e-06
1347.83	2.85097e-06
1339.27	1.89298e-06
1330.71	1.75098e-06
1322.15	2.29397e-06
1313.6	2.59197e-06
1305.04	2.76997e-06
1296.48	1.64998e-06
1287.92	1.23698e-06
1279.36	9.07189e-07
1270.81	7.24691e-07
1262.25	1.12999e-06
1253.69	2.19697e-06
1245.13	2.93297e-06
1236.58	2.79997e-06
1228.02	2.12197e-06
1219.46	5.18894e-06
1210.9	5.09494e-06
1202.35	4.26895e-06
1193.79	2.31097e-06
1185.23	2.63597e-06
1176.67	2.45497e-06
1168.12	2.44697e-06
1159.56	2.13598e-06
1151	1.95698e-06
1142.44	1.83998e-06
1133.89	1.63298e-06
1125.33	2.51297e-06
1116.77	5.34994e-06
1108.21	9.52689e-06
1099.65	1.34998e-05
1091.1	2.15398e-05
1082.54	1.67498e-05
1073.98	2.48297e-05
1065.42	1.49898e-05
1056.87	1.34098e-05
1048.31	1.27699e-05
1039.75	2.67197e-05
1031.19	2.64897e-05
1022.64	2.07398e-05
1014.08	3.55696e-06
1005.52	1.61598e-06
996.963	2.28397e-06
988.406	2.40797e-06
979.848	3.05196e-06
971.29	3.05596e-06
962.733	2.40997e-06
954.175	1.89998e-06
945.618	2.13498e-06
937.06	2.96897e-06
928.502	3.77896e-06
919.945	3.29396e-06
911.387	2.74797e-06
902.829	3.39096e-06
894.272	1.18499e-05
885.714	3.12396e-06
877.157	2.09198e-06
868.599	1.67398e-06
860.041	1.20199e-06
851.484	7.20091e-07
842.926	5.00593e-07
834.368	-5.31788e-08
825.811	3.81795e-07
817.253	5.64093e-07
808.696	2.48696e-07
800.138	7.6549e-07
791.58	1.94498e-06
783.023	1.88298e-06
774.465	1.90398e-06
765.907	1.74898e-06
757.35	9.52889e-06
748.792	7.03192e-05
740.235	0.000173698
731.677	0.000258597
723.119	0.000203698
714.562	0.000169298
706.004	0.000111599
697.446	7.73791e-05
688.889	7.49091e-05
680.331	7.34092e-05
671.774	2.10498e-05
663.216	4.25695e-06
654.658	6.95891e-07
646.101	6.83991e-07
637.543	5.51693e-07
628.985	1.01299e-06
620.428	1.88897e-07
611.87	-4.65794e-07
603.313	1.46698e-07
594.755	8.0689e-07
586.197	-9.02489e-07
577.64	-1.13399e-06
