Infrared Spectrum: Ethenyl Ester-Acetic Acid
Formula: C H3 C O2 C H: C H2
CAS: 108-05-4
State: gas
Melting point: -93.2 C
Boiling point: 72.2 C
Class: IUPAC A
Instrument: IFS66V (Bruker)
Instrument parameters: KBr Beam splitter; MCT Detector; Multipass cell
Sampling: 1 L/min Flow
Resolution: 0.4820
Temperature: 23 C
Pressure: 101.3 kPa
Origin: NIST, Anayltical Chemistry Division, 301-975-3108
cm-1	(micromol/mol)-1m-1 (base 10)
574.928	1.03716e-05
583.606	1.97488e-05
592.284	3.7986e-05
600.962	2.89234e-05
609.641	3.23058e-05
618.319	3.43085e-05
626.997	4.20033e-05
635.675	4.21004e-05
644.353	4.11887e-05
653.031	2.50327e-05
661.71	1.29307e-05
670.388	5.87775e-06
679.066	4.85212e-06
687.744	6.49686e-06
696.422	9.5972e-06
705.1	1.08846e-05
713.778	1.2042e-05
722.457	8.96607e-06
731.135	7.20357e-06
739.813	5.8851e-06
748.491	5.69633e-06
757.169	6.3897e-06
765.847	7.72323e-06
774.526	9.75234e-06
783.204	9.50449e-06
791.882	9.15391e-06
800.56	9.14926e-06
809.238	1.05206e-05
817.916	1.50316e-05
826.594	2.53154e-05
835.273	5.19359e-05
843.951	8.84351e-05
852.629	0.000131847
861.307	0.000154815
869.985	0.000284997
878.663	0.000160662
887.342	0.000125473
896.02	6.05657e-05
904.698	2.09722e-05
913.376	1.30632e-05
922.054	2.319e-05
930.732	5.43141e-05
939.41	8.74159e-05
948.089	0.000126214
956.767	0.000155556
965.445	0.000114566
974.123	0.000107489
982.801	0.000104999
991.479	6.66717e-05
1000.16	8.91296e-05
1008.84	0.000186348
1017.51	0.000340628
1026.19	0.000362638
1034.87	0.00022979
1043.55	8.58523e-05
1052.23	6.86619e-05
1060.9	6.1283e-05
1069.58	5.58597e-05
1078.26	4.81225e-05
1086.94	3.94914e-05
1095.62	3.20416e-05
1104.3	2.92719e-05
1112.97	3.21989e-05
1121.65	4.94992e-05
1130.33	0.000166782
1139.01	0.000844266
1147.69	0.000945341
1156.36	0.000838676
1165.04	8.68778e-05
1173.72	4.67415e-05
1182.4	6.47533e-05
1191.08	0.00011416
1199.76	0.000299222
1208.43	0.00106948
1217.11	0.00260506
1225.79	0.0027717
1234.47	0.00184652
1243.15	0.000364159
1251.82	0.000227832
1260.5	0.00018357
1269.18	6.70392e-05
1277.86	5.75538e-05
1286.54	0.000141408
1295.21	0.000172124
1303.89	0.000160776
1312.57	5.02726e-05
1321.25	1.89599e-05
1329.93	1.2946e-05
1338.61	1.26083e-05
1347.28	2.04077e-05
1355.96	5.89482e-05
1364.64	0.000228327
1373.32	0.00038555
1382	0.000439852
1390.67	0.000200279
1399.35	7.34623e-05
1408.03	2.98309e-05
1416.71	2.83122e-05
1425.39	3.2337e-05
1434.07	4.02008e-05
1442.74	3.55312e-05
1451.42	3.36385e-05
1460.1	2.72553e-05
1468.78	2.26203e-05
1477.46	2.07763e-05
1486.13	1.84966e-05
1494.81	1.63559e-05
1503.49	1.52725e-05
1512.17	1.41519e-05
1520.85	1.34147e-05
1529.52	1.21021e-05
1538.2	1.09345e-05
1546.88	1.15889e-05
1555.56	1.46666e-05
1564.24	1.77051e-05
1572.92	1.97415e-05
1581.59	2.16692e-05
1590.27	2.22099e-05
1598.95	2.2672e-05
1607.63	2.55895e-05
1616.31	3.43746e-05
1624.98	4.45127e-05
1633.66	7.50621e-05
1642.34	0.000313913
1651.02	0.00040341
1659.7	0.000534071
1668.38	9.22297e-05
1677.05	2.89774e-05
1685.73	1.76196e-05
1694.41	1.61091e-05
1703.09	1.40073e-05
1711.77	1.22649e-05
1720.44	1.20932e-05
1729.12	1.85261e-05
1737.8	2.71962e-05
1746.48	5.55341e-05
1755.16	0.000132872
1763.84	0.000355469
1772.51	0.000957158
1781.19	0.00111753
1789.87	0.00148764
1798.55	0.000630493
1807.23	0.000214825
1815.9	5.43898e-05
1824.58	2.27577e-05
1833.26	2.01895e-05
1841.94	1.81569e-05
1850.62	2.18635e-05
1859.29	2.67165e-05
1867.97	2.81814e-05
1876.65	2.50329e-05
1885.33	1.63925e-05
1894.01	1.44958e-05
1902.69	1.37264e-05
1911.36	1.02509e-05
1920.04	5.78779e-06
1928.72	4.27376e-06
1937.4	4.65358e-06
1946.08	5.18806e-06
1954.75	5.39867e-06
1963.43	5.03512e-06
1972.11	4.92208e-06
1980.79	8.78015e-06
1989.47	1.30699e-05
1998.15	1.38354e-05
2006.82	7.56233e-06
2015.5	5.32277e-06
2024.18	5.24987e-06
2032.86	5.47805e-06
2041.54	7.24637e-06
2050.21	1.40523e-05
2058.89	2.51214e-05
2067.57	2.79951e-05
2076.25	2.06063e-05
2084.93	8.47767e-06
2093.6	6.00212e-06
2102.28	5.60971e-06
2110.96	6.70158e-06
2119.64	6.88325e-06
2128.32	7.27884e-06
2137	4.17161e-06
2145.67	4.09365e-06
2154.35	4.46009e-06
2163.03	4.85871e-06
2171.71	4.61184e-06
2180.39	3.93746e-06
2189.06	2.55952e-06
2197.74	2.14393e-06
2206.42	2.09423e-06
2215.1	3.21104e-06
2223.78	4.45752e-06
2232.46	4.80429e-06
2241.13	3.84622e-06
2249.81	3.03632e-06
2258.49	2.26352e-06
2267.17	2.75383e-06
2275.85	6.50143e-06
2284.52	1.124e-05
2293.2	1.11744e-05
2301.88	5.15527e-06
2310.56	1.30632e-06
2319.24	1.24619e-06
2327.92	1.366e-06
2336.59	2.44916e-06
2345.27	3.35159e-06
2353.95	4.19168e-06
2362.63	3.79503e-06
2371.31	3.25343e-06
2379.98	2.43179e-06
2388.66	1.51226e-06
2397.34	1.84518e-06
2406.02	2.50436e-06
2414.7	3.59168e-06
2423.37	5.51965e-06
2432.05	8.16043e-06
2440.73	8.23218e-06
2449.41	6.40779e-06
2458.09	2.83425e-06
2466.77	1.94674e-06
2475.44	1.64929e-06
2484.12	1.67297e-06
2492.8	1.88978e-06
2501.48	1.88642e-06
2510.16	9.98787e-07
2518.83	7.34515e-07
2527.51	5.248e-07
2536.19	3.81736e-07
2544.87	3.14149e-07
2553.55	2.40197e-07
2562.23	2.56803e-07
2570.9	5.64095e-07
2579.58	1.28518e-06
2588.26	2.03606e-06
2596.94	1.80323e-06
2605.62	1.32847e-06
2614.29	1.1577e-06
2622.97	1.9272e-06
2631.65	2.10709e-06
2640.33	1.86849e-06
2649.01	9.12451e-07
2657.68	9.05881e-07
2666.36	1.18984e-06
2675.04	1.14784e-06
2683.72	8.70413e-07
2692.4	5.18496e-07
2701.08	3.3088e-07
2709.75	3.84785e-07
2718.43	4.76126e-07
2727.11	5.68123e-07
2735.79	8.97467e-07
2744.47	2.1032e-06
2753.14	3.01072e-06
2761.82	3.19256e-06
2770.5	1.92212e-06
2779.18	1.02352e-06
2787.86	1.30341e-06
2796.54	1.54699e-06
2805.21	1.25715e-06
2813.89	6.8638e-07
2822.57	6.42217e-07
2831.25	7.64305e-07
2839.93	1.06705e-06
2848.6	1.82016e-06
2857.28	2.37819e-06
2865.96	2.37625e-06
2874.64	1.69455e-06
2883.32	1.3222e-06
2892	1.12485e-06
2900.67	1.14916e-06
2909.35	1.18164e-06
2918.03	1.39633e-06
2926.71	2.05114e-06
2935.39	4.01545e-06
2944.06	8.69306e-06
2952.74	1.07113e-05
2961.42	1.24759e-05
2970.1	9.45901e-06
2978.78	9.00208e-06
2987.45	9.87425e-06
2996.13	1.22706e-05
3004.81	1.14129e-05
3013.49	1.15514e-05
3022.17	1.35115e-05
3030.85	1.70611e-05
3039.52	1.88437e-05
3048.2	2.06438e-05
3056.88	2.2142e-05
3065.56	2.3465e-05
3074.24	1.84064e-05
3082.91	1.77637e-05
3091.59	3.70001e-05
3100.27	4.15756e-05
3108.95	4.80602e-05
3117.63	1.8156e-05
3126.31	2.59887e-05
3134.98	2.2374e-05
3143.66	1.50135e-05
3152.34	4.85847e-06
3161.02	2.33482e-06
3169.7	1.50848e-06
3178.37	1.11987e-06
3187.05	1.06689e-06
3195.73	9.98645e-07
3204.41	7.51289e-07
3213.09	5.97356e-07
3221.77	3.99398e-07
3230.44	2.33296e-07
3239.12	9.24656e-08
3247.8	-3.1667e-08
3256.48	1.10793e-07
3265.16	-5.40577e-09
3273.83	-3.85971e-08
3282.51	-1.07031e-07
3291.19	8.78892e-08
3299.87	-4.54725e-10
3308.55	-1.93364e-07
3317.22	-5.64645e-07
3325.9	-4.58294e-07
3334.58	-1.76335e-07
3343.26	9.92756e-09
3351.94	-4.25986e-09
3360.62	-1.64236e-07
3369.29	-2.23881e-07
3377.97	-1.2976e-08
3386.65	-2.0579e-08
3395.33	5.87032e-08
3404.01	-1.54043e-07
3412.68	-1.52762e-07
3421.36	-1.22732e-07
3430.04	-7.10353e-08
3438.72	-7.09153e-08
3447.4	8.39422e-08
3456.08	2.45872e-07
3464.75	1.90166e-07
3473.43	2.9249e-07
3482.11	-7.85947e-08
3490.79	-1.93622e-07
3499.47	-1.02553e-07
3508.14	1.82028e-07
3516.82	9.60379e-07
3525.5	3.2641e-06
3534.18	9.31219e-06
3542.86	1.54172e-05
3551.53	1.50428e-05
3560.21	1.03968e-05
3568.89	3.20093e-06
3577.57	4.17689e-07
3586.25	-3.26147e-07
3594.93	-4.43863e-07
3603.6	-6.45669e-07
3612.28	-6.58744e-07
3620.96	-5.71895e-07
3629.64	-1.62419e-06
3638.32	-4.78716e-07
3646.99	-5.22097e-07
3655.67	-5.77446e-07
3664.35	-3.30865e-07
3673.03	-4.63288e-07
3681.71	-3.61779e-07
3690.39	-5.74503e-07
3699.06	-4.58868e-07
3707.74	-5.24611e-07
3716.42	-3.76494e-07
3725.1	-4.72143e-07
3733.78	-5.01162e-07
3742.45	-5.04465e-07
3751.13	-4.98273e-07
3759.81	-8.79922e-07
3768.49	-3.23048e-07
3777.17	-4.74962e-07
3785.85	-4.31796e-07
3794.52	-3.57141e-07
3803.2	-4.51335e-07
3811.88	-3.42903e-07
3820.56	-7.06719e-07
3829.24	-2.95215e-07
3837.91	-2.31723e-06
3846.59	-2.36603e-07
3855.27	-2.68993e-07
3863.95	-2.10167e-07
3872.63	-1.5568e-07
3881.3	-1.78776e-07
3889.98	-1.23249e-08
3898.66	5.01653e-09
3907.34	1.33693e-07
3916.02	7.23631e-08
3924.7	8.95372e-08
3933.37	1.96467e-07
3942.05	1.46894e-07
3950.73	2.19425e-07
3959.41	5.1261e-07
3968.09	9.09345e-07
