Infrared Spectrum: Ethenyl Ester-Acetic Acid
Formula: C H3 C O2 C H: C H2
CAS: 108-05-4
State: gas
Melting point: -93.2 C
Boiling point: 72.2 C
Class: IUPAC A
Instrument: IFS66V (Bruker)
Instrument parameters: KBr Beam splitter; MCT Detector; Multipass cell
Sampling: 1 L/min Flow
Resolution: 0.9640
Temperature: 23 C
Pressure: 101.3 kPa
Origin: NIST, Anayltical Chemistry Division, 301-975-3108
cm-1	(micromol/mol)-1m-1 (base 10)
575.169	1.09205e-05
583.847	1.97328e-05
592.525	3.79286e-05
601.203	2.86652e-05
609.882	3.27769e-05
618.56	3.42116e-05
627.238	4.27413e-05
635.916	4.18955e-05
644.594	4.08005e-05
653.272	2.47562e-05
661.951	1.27389e-05
670.629	5.74158e-06
679.307	4.8044e-06
687.985	6.72288e-06
696.663	9.68945e-06
705.341	1.07708e-05
714.019	1.21578e-05
722.698	8.9479e-06
731.376	7.1337e-06
740.054	5.84195e-06
748.732	5.6726e-06
757.41	6.38433e-06
766.088	7.83314e-06
774.767	9.77533e-06
783.445	9.62161e-06
792.123	9.07178e-06
800.801	9.13244e-06
809.479	1.05662e-05
818.157	1.53272e-05
826.835	2.55462e-05
835.514	5.32779e-05
844.192	8.90799e-05
852.87	0.000134209
861.548	0.000155075
870.226	0.000281151
878.904	0.000159534
887.583	0.000123943
896.261	5.88518e-05
904.939	2.04451e-05
913.617	1.30721e-05
922.295	2.38515e-05
930.973	5.53717e-05
939.651	8.8379e-05
948.33	0.000126641
957.008	0.000156709
965.686	0.00011539
974.364	0.000106672
983.042	0.000104915
991.72	6.62943e-05
1000.4	9.08022e-05
1009.08	0.000190625
1017.75	0.00034223
1026.43	0.00035123
1035.11	0.000223418
1043.79	8.4563e-05
1052.47	6.81421e-05
1061.15	6.11612e-05
1069.82	5.56338e-05
1078.5	4.77495e-05
1087.18	3.91731e-05
1095.86	3.18253e-05
1104.54	2.92663e-05
1113.21	3.23313e-05
1121.89	5.05358e-05
1130.57	0.00017669
1139.25	0.000859516
1147.93	0.000951685
1156.61	0.000809823
1165.28	8.27664e-05
1173.96	4.69235e-05
1182.64	6.57487e-05
1191.32	0.000116145
1200	0.000311203
1208.67	0.00110508
1217.35	0.00263162
1226.03	0.00272831
1234.71	0.00177274
1243.39	0.000356655
1252.07	0.000227774
1260.74	0.000179952
1269.42	6.58748e-05
1278.1	5.84035e-05
1286.78	0.00014429
1295.46	0.000172801
1304.13	0.000158523
1312.81	4.85652e-05
1321.49	1.86424e-05
1330.17	1.2848e-05
1338.85	1.2749e-05
1347.52	2.08654e-05
1356.2	6.1213e-05
1364.88	0.000234991
1373.56	0.000392623
1382.24	0.000435587
1390.92	0.000194752
1399.59	7.12813e-05
1408.27	2.95585e-05
1416.95	2.84126e-05
1425.63	3.25831e-05
1434.31	4.02663e-05
1442.98	3.57027e-05
1451.66	3.3434e-05
1460.34	2.69711e-05
1469.02	2.25874e-05
1477.7	2.07581e-05
1486.38	1.84696e-05
1495.05	1.6379e-05
1503.73	1.52502e-05
1512.41	1.43148e-05
1521.09	1.2716e-05
1529.77	1.20874e-05
1538.44	1.06965e-05
1547.12	1.16037e-05
1555.8	1.48155e-05
1564.48	1.7682e-05
1573.16	1.9833e-05
1581.83	2.16441e-05
1590.51	2.22541e-05
1599.19	2.26861e-05
1607.87	2.57177e-05
1616.55	3.39937e-05
1625.23	4.48766e-05
1633.9	7.7509e-05
1642.58	0.00032533
1651.26	0.000415514
1659.94	0.000529333
1668.62	8.75603e-05
1677.29	2.84107e-05
1685.97	1.74379e-05
1694.65	1.61046e-05
1703.33	1.39412e-05
1712.01	1.22097e-05
1720.69	1.21897e-05
1729.36	1.87958e-05
1738.04	2.73849e-05
1746.72	5.69323e-05
1755.4	0.000136835
1764.08	0.000365354
1772.75	0.000981449
1781.43	0.00109368
1790.11	0.00148541
1798.79	0.000611248
1807.47	0.000207906
1816.15	5.24787e-05
1824.82	2.25559e-05
1833.5	2.01323e-05
1842.18	1.81655e-05
1850.86	2.19976e-05
1859.54	2.68365e-05
1868.21	2.81309e-05
1876.89	2.49428e-05
1885.57	1.62329e-05
1894.25	1.45324e-05
1902.93	1.36031e-05
1911.6	1.02117e-05
1920.28	5.66692e-06
1928.96	4.26089e-06
1937.64	4.67028e-06
1946.32	5.1803e-06
1955	5.42003e-06
1963.67	4.98431e-06
1972.35	4.97746e-06
1981.03	8.99004e-06
1989.71	1.30073e-05
1998.39	1.39535e-05
2007.06	7.37263e-06
2015.74	5.34221e-06
2024.42	5.25008e-06
2033.1	5.47001e-06
2041.78	7.3453e-06
2050.46	1.43428e-05
2059.13	2.5346e-05
2067.81	2.7907e-05
2076.49	2.01198e-05
2085.17	8.33649e-06
2093.85	5.9502e-06
2102.52	5.61761e-06
2111.2	6.70426e-06
2119.88	7.01712e-06
2128.56	7.25692e-06
2137.24	4.15435e-06
2145.91	4.13305e-06
2154.59	4.40078e-06
2163.27	4.86408e-06
2171.95	4.61067e-06
2180.63	3.8836e-06
2189.31	2.53807e-06
2197.98	2.12538e-06
2206.66	2.17912e-06
2215.34	3.27052e-06
2224.02	4.47385e-06
2232.7	4.74514e-06
2241.37	3.86872e-06
2250.05	3.00595e-06
2258.73	2.26377e-06
2267.41	2.77001e-06
2276.09	6.66379e-06
2284.77	1.12855e-05
2293.44	1.12098e-05
2302.12	4.86914e-06
2310.8	1.28051e-06
2319.48	1.1489e-06
2328.16	1.45312e-06
2336.83	2.45176e-06
2345.51	3.36704e-06
2354.19	4.22536e-06
2362.87	3.77814e-06
2371.55	3.18004e-06
2380.23	2.43399e-06
2388.9	1.52421e-06
2397.58	1.85465e-06
2406.26	2.55126e-06
2414.94	3.66449e-06
2423.62	5.56982e-06
2432.29	8.23627e-06
2440.97	8.24789e-06
2449.65	6.27555e-06
2458.33	2.78365e-06
2467.01	1.88799e-06
2475.68	1.62196e-06
2484.36	1.63631e-06
2493.04	1.89142e-06
2501.72	1.88524e-06
2510.4	9.49084e-07
2519.08	7.35992e-07
2527.75	5.8709e-07
2536.43	3.8728e-07
2545.11	2.82439e-07
2553.79	2.63257e-07
2562.47	2.60681e-07
2571.14	5.79443e-07
2579.82	1.33427e-06
2588.5	1.98511e-06
2597.18	1.81268e-06
2605.86	1.31914e-06
2614.54	1.17358e-06
2623.21	1.92362e-06
2631.89	2.11962e-06
2640.57	1.78106e-06
2649.25	9.1331e-07
2657.93	9.22641e-07
2666.6	1.15312e-06
2675.28	1.15037e-06
2683.96	8.47749e-07
2692.64	4.95039e-07
2701.32	3.60972e-07
2709.99	3.90292e-07
2718.67	4.35383e-07
2727.35	5.23992e-07
2736.03	9.63115e-07
2744.71	2.21597e-06
2753.39	3.01592e-06
2762.06	3.25143e-06
2770.74	1.89482e-06
2779.42	1.03373e-06
2788.1	1.34622e-06
2796.78	1.49316e-06
2805.45	1.27736e-06
2814.13	6.82426e-07
2822.81	6.62294e-07
2831.49	7.7193e-07
2840.17	1.02478e-06
2848.85	1.83292e-06
2857.52	2.34728e-06
2866.2	2.37257e-06
2874.88	1.73032e-06
2883.56	1.29088e-06
2892.24	1.12093e-06
2900.91	1.17112e-06
2909.59	1.20814e-06
2918.27	1.39674e-06
2926.95	2.11027e-06
2935.63	4.09751e-06
2944.31	8.88046e-06
2952.98	1.07697e-05
2961.66	1.23885e-05
2970.34	9.42378e-06
2979.02	8.98856e-06
2987.7	9.8944e-06
2996.37	1.22119e-05
3005.05	1.13666e-05
3013.73	1.15675e-05
3022.41	1.36515e-05
3031.09	1.7071e-05
3039.76	1.887e-05
3048.44	2.072e-05
3057.12	2.21976e-05
3065.8	2.35098e-05
3074.48	1.82617e-05
3083.16	1.79206e-05
3091.83	3.7737e-05
3100.51	4.20927e-05
3109.19	4.75823e-05
3117.87	1.81012e-05
3126.55	2.56686e-05
3135.22	2.27644e-05
3143.9	1.4569e-05
3152.58	4.72903e-06
3161.26	2.35348e-06
3169.94	1.47146e-06
3178.62	1.14289e-06
3187.29	9.95833e-07
3195.97	1.05397e-06
3204.65	7.61872e-07
3213.33	5.91263e-07
3222.01	4.12061e-07
3230.68	2.43314e-07
3239.36	7.53279e-08
3248.04	-1.382e-08
3256.72	3.76403e-08
3265.4	-1.49623e-08
3274.07	-7.10062e-08
3282.75	-1.03328e-07
3291.43	6.65608e-08
3300.11	4.78298e-08
3308.79	-1.98126e-07
3317.47	-5.4232e-07
3326.14	-4.65344e-07
3334.82	-1.63003e-07
3343.5	-1.81417e-08
3352.18	-1.85564e-08
3360.86	-1.50659e-07
3369.53	-1.28127e-07
3378.21	-4.65384e-08
3386.89	-3.77567e-08
3395.57	-3.65344e-08
3404.25	-1.42798e-07
3412.93	-1.32711e-07
3421.6	-1.28756e-07
3430.28	-3.94701e-08
3438.96	-6.50511e-08
3447.64	6.36724e-08
3456.32	2.49222e-07
3464.99	2.01112e-07
3473.67	1.88689e-07
3482.35	-7.77907e-08
3491.03	-1.46203e-07
3499.71	-5.72481e-08
3508.39	2.01229e-07
3517.06	1.08046e-06
3525.74	3.41741e-06
3534.42	9.50373e-06
3543.1	1.54276e-05
3551.78	1.53184e-05
3560.45	1.0087e-05
3569.13	3.13428e-06
3577.81	3.69455e-07
3586.49	-4.22276e-07
3595.17	-4.62052e-07
3603.84	-5.47776e-07
3612.52	-7.56859e-07
3621.2	-5.56158e-07
3629.88	-8.97591e-07
3638.56	-4.82347e-07
3647.24	-5.83667e-07
3655.91	-6.27899e-07
3664.59	-3.3403e-07
3673.27	-4.01988e-07
3681.95	-3.93588e-07
3690.63	-5.77825e-07
3699.3	-4.68585e-07
3707.98	-4.67195e-07
3716.66	-4.36532e-07
3725.34	-4.45401e-07
3734.02	-5.05516e-07
3742.7	-4.69858e-07
3751.37	-5.70887e-07
3760.05	-6.11503e-07
3768.73	-4.3117e-07
3777.41	-4.23702e-07
3786.09	-4.12487e-07
3794.76	-4.36405e-07
3803.44	-4.51247e-07
3812.12	-3.65057e-07
3820.8	-6.39824e-07
3829.48	-2.89627e-07
3838.16	-9.42492e-07
3846.83	-2.56912e-07
3855.51	-2.88903e-07
3864.19	-2.66298e-07
3872.87	-1.80646e-07
3881.55	-1.42227e-07
3890.22	-5.70407e-08
3898.9	-1.81912e-07
3907.58	1.30095e-07
3916.26	9.65072e-08
3924.94	9.09559e-08
3933.61	1.41158e-07
3942.29	1.20462e-07
3950.97	2.55341e-07
3959.65	4.69473e-07
3968.33	9.16824e-07
