Infrared Spectrum: Toluene
Formula: C H3 C6 H5
CAS: 108-88-3
State: gas
Melting point: -95 C
Boiling point: 110.6 C
Class: IUPAC A
Instrument: IFS66V (Bruker)
Instrument parameters: KBr Beam splitter; MCT Detector; Multipass cell
Sampling: 1 L/min Flow
Resolution: 0.1250
Temperature: 23 C
Pressure: 101.3 kPa
Origin: NIST, Anayltical Chemistry Division, 301-975-3108
cm-1	(micromol/mol)-1m-1 (base 10)
574.988	-1.59823e-07
583.546	-3.25536e-07
592.103	-2.81349e-07
600.661	-1.3893e-07
609.219	5.36092e-07
617.776	7.30411e-07
626.334	6.62003e-07
634.891	1.01856e-06
643.449	1.30711e-06
652.007	8.91886e-07
660.564	2.46757e-06
669.122	1.28065e-05
677.68	4.63373e-05
686.237	7.15483e-05
694.795	0.000111969
703.352	0.000104833
711.91	0.000151029
720.468	0.000186988
729.025	0.000697813
737.583	0.000187336
746.141	0.000105593
754.698	2.10146e-05
763.256	2.51611e-06
771.813	1.6183e-06
780.371	2.35827e-06
788.929	1.14244e-06
797.486	1.34922e-06
806.044	3.99493e-07
814.602	3.22718e-07
823.159	3.521e-07
831.717	2.2519e-07
840.274	7.31552e-07
848.832	5.8277e-07
857.39	8.98947e-07
865.947	1.12906e-06
874.505	2.09376e-06
883.063	2.597e-06
891.62	4.02328e-06
900.178	3.16996e-06
908.735	3.0196e-06
917.293	3.00755e-06
925.851	3.49798e-06
934.408	3.93062e-06
942.966	2.6597e-06
951.524	1.71554e-06
960.081	2.39692e-06
968.639	2.88916e-06
977.196	2.87359e-06
985.754	2.40065e-06
994.312	2.15348e-06
1002.87	1.76909e-06
1011.43	2.51349e-06
1019.98	1.28984e-05
1028.54	1.86899e-05
1037.1	2.60222e-05
1045.66	1.83539e-05
1054.22	1.26425e-05
1062.77	1.37759e-05
1071.33	2.10436e-05
1079.89	1.98966e-05
1088.45	2.37374e-05
1097	1.58829e-05
1105.56	8.10178e-06
1114.12	7.10834e-06
1122.68	3.21463e-06
1131.23	1.90118e-06
1139.79	1.72557e-06
1148.35	1.70641e-06
1156.91	2.20231e-06
1165.46	2.48458e-06
1174.02	2.89582e-06
1182.58	2.44593e-06
1191.14	2.18126e-06
1199.69	3.55067e-06
1208.25	4.23138e-06
1216.81	5.05366e-06
1225.37	2.36358e-06
1233.93	2.79951e-06
1242.48	2.86018e-06
1251.04	2.69205e-06
1259.6	1.30133e-06
1268.16	9.29404e-07
1276.71	8.08276e-07
1285.27	1.04298e-06
1293.83	1.48872e-06
1302.39	2.62262e-06
1310.94	2.0217e-06
1319.5	2.48632e-06
1328.06	1.86154e-06
1336.62	1.85448e-06
1345.17	2.41253e-06
1353.73	3.43914e-06
1362.29	4.8855e-06
1370.85	8.63039e-06
1379.4	1.29156e-05
1387.96	1.74822e-05
1396.52	1.07835e-05
1405.08	8.276e-06
1413.64	9.06355e-06
1422.19	1.37211e-05
1430.75	1.21526e-05
1439.31	1.84204e-05
1447.87	2.98125e-05
1456.42	3.26105e-05
1464.98	3.23867e-05
1473.54	3.31671e-05
1482.1	3.24794e-05
1490.65	9.11132e-05
1499.21	0.000101252
1507.77	0.000100366
1516.33	3.15222e-05
1524.88	2.45253e-05
1533.44	1.83981e-05
1542	1.34631e-05
1550.56	1.01055e-05
1559.11	1.15161e-05
1567.67	8.67456e-06
1576.23	9.68475e-06
1584.79	8.73727e-06
1593.35	1.71981e-05
1601.9	4.05685e-05
1610.46	4.54649e-05
1619.02	3.84286e-05
1627.58	1.93061e-05
1636.13	3.52981e-06
1644.69	1.80157e-06
1653.25	-3.00059e-08
1661.81	1.98853e-06
1670.36	1.85015e-06
1678.92	1.75182e-06
1687.48	1.56096e-06
1696.04	4.86264e-07
1704.59	1.44582e-06
1713.15	2.23849e-06
1721.71	4.15154e-06
1730.27	4.38559e-06
1738.83	5.49473e-06
1747.38	2.14754e-06
1755.94	1.23225e-06
1764.5	1.99062e-06
1773.06	3.52073e-06
1781.61	5.07464e-06
1790.17	1.04558e-05
1798.73	9.52332e-06
1807.29	1.23844e-05
1815.84	4.16256e-06
1824.4	3.48466e-06
1832.96	2.89704e-06
1841.52	5.29795e-06
1850.07	1.0453e-05
1858.63	1.16112e-05
1867.19	1.15207e-05
1875.75	6.9074e-06
1884.3	3.34769e-06
1892.86	1.42599e-06
1901.42	1.13631e-06
1909.98	1.2407e-06
1918.54	2.30558e-06
1927.09	6.19424e-06
1935.65	1.24363e-05
1944.21	1.42023e-05
1952.77	1.27258e-05
1961.32	5.993e-06
1969.88	2.9568e-06
1978.44	7.73041e-07
1987	1.17254e-06
1995.55	1.4493e-06
2004.11	1.23109e-06
2012.67	7.63877e-07
2021.23	5.88593e-07
2029.78	4.44813e-07
2038.34	1.34706e-07
2046.9	2.36113e-07
2055.46	1.84605e-07
2064.01	1.29861e-07
2072.57	1.86433e-07
2081.13	2.83061e-07
2089.69	1.32027e-07
2098.25	2.44704e-07
2106.8	1.35045e-07
2115.36	2.77178e-07
2123.92	2.98275e-07
2132.48	2.80019e-07
2141.03	2.8186e-07
2149.59	2.06509e-07
2158.15	7.64963e-07
2166.71	1.0488e-06
2175.26	1.32962e-06
2183.82	7.84219e-07
2192.38	7.56461e-07
2200.94	4.50409e-07
2209.49	5.95267e-07
2218.05	4.97296e-07
2226.61	4.69039e-07
2235.17	4.89477e-07
2243.72	5.99476e-07
2252.28	9.01583e-07
2260.84	9.67006e-07
2269.4	1.28845e-06
2277.96	1.43207e-06
2286.51	1.28847e-06
2295.07	1.24395e-06
2303.63	1.67627e-06
2312.19	1.71577e-06
2320.74	2.04806e-06
2329.3	1.90871e-06
2337.86	1.89651e-06
2346.42	2.23935e-06
2354.97	2.192e-06
2363.53	1.4542e-06
2372.09	1.63386e-06
2380.65	1.2068e-06
2389.2	1.25974e-06
2397.76	1.35455e-06
2406.32	1.63948e-06
2414.88	1.73522e-06
2423.44	2.03287e-06
2431.99	1.38955e-06
2440.55	1.00464e-06
2449.11	8.39869e-07
2457.67	1.01206e-06
2466.22	9.67921e-07
2474.78	9.34272e-07
2483.34	7.40087e-07
2491.9	8.15771e-07
2500.45	1.03879e-06
2509.01	8.30666e-07
2517.57	7.47375e-07
2526.13	6.6097e-07
2534.68	7.62433e-07
2543.24	8.15982e-07
2551.8	8.32498e-07
2560.36	5.64504e-07
2568.91	7.30375e-07
2577.47	1.18105e-06
2586.03	2.16846e-06
2594.59	2.43627e-06
2603.15	2.32005e-06
2611.7	1.60948e-06
2620.26	1.20903e-06
2628.82	1.25166e-06
2637.38	1.27839e-06
2645.93	9.68185e-07
2654.49	7.94778e-07
2663.05	7.42046e-07
2671.61	6.17767e-07
2680.16	5.42645e-07
2688.72	5.60717e-07
2697.28	5.19961e-07
2705.84	5.52581e-07
2714.39	7.99871e-07
2722.95	1.04191e-06
2731.51	2.90371e-06
2740.07	5.16434e-06
2748.62	6.08356e-06
2757.18	3.50524e-06
2765.74	1.50101e-06
2774.3	1.35351e-06
2782.86	1.58225e-06
2791.41	1.96207e-06
2799.97	2.24737e-06
2808.53	2.52328e-06
2817.09	3.5922e-06
2825.64	4.14287e-06
2834.2	5.70149e-06
2842.76	7.0763e-06
2851.32	1.17042e-05
2859.87	2.20136e-05
2868.43	3.92985e-05
2876.99	6.19482e-05
2885.55	6.61178e-05
2894.1	5.78344e-05
2902.66	4.14633e-05
2911.22	4.51007e-05
2919.78	6.79979e-05
2928.34	0.000107875
2936.89	0.000119322
2945.45	0.000107473
2954.01	6.71924e-05
2962.57	5.12905e-05
2971.12	3.51312e-05
2979.68	3.93448e-05
2988.24	4.09012e-05
2996.8	5.16406e-05
3005.35	6.7409e-05
3013.91	7.45364e-05
3022.47	0.000126598
3031.03	0.000218623
3039.58	0.000222056
3048.14	0.000195864
3056.7	0.000108302
3065.26	0.000118353
3073.81	0.000148385
3082.37	0.000129358
3090.93	9.58719e-05
3099.49	7.40502e-05
3108.05	4.79621e-05
3116.6	2.95699e-05
3125.16	1.73563e-05
3133.72	8.58337e-06
3142.28	2.38848e-06
3150.83	1.23553e-06
3159.39	1.28547e-06
3167.95	1.49631e-06
3176.51	1.52994e-06
3185.06	1.52512e-06
3193.62	5.40488e-07
3202.18	1.85554e-07
3210.74	1.96759e-07
3219.29	1.30961e-07
3227.85	2.08344e-07
3236.41	7.59515e-08
3244.97	2.08893e-07
3253.52	3.10127e-07
3262.08	1.81683e-07
3270.64	5.64313e-07
3279.2	4.39504e-07
3287.76	4.66021e-07
3296.31	3.88392e-07
3304.87	4.5679e-07
3313.43	4.08437e-07
3321.99	6.95491e-07
3330.54	6.65648e-07
3339.1	6.82307e-07
3347.66	6.03197e-07
3356.22	3.5244e-07
3364.77	6.22873e-07
3373.33	5.9117e-07
3381.89	6.3046e-07
3390.45	4.19788e-07
3399	6.34739e-07
3407.56	4.47947e-07
3416.12	2.28044e-07
3424.68	4.00548e-07
3433.23	3.64393e-07
3441.79	4.92864e-07
3450.35	6.0898e-07
3458.91	5.38755e-07
3467.47	3.52709e-07
3476.02	2.36486e-08
3484.58	1.38053e-07
3493.14	1.06669e-07
3501.7	2.14729e-07
3510.25	4.88249e-07
3518.81	8.32856e-08
3527.37	3.63072e-07
3535.93	2.53036e-07
3544.48	3.93393e-07
3553.04	5.54829e-07
3561.6	2.52818e-07
3570.16	4.25607e-07
3578.71	2.85829e-07
3587.27	5.32314e-07
3595.83	3.28464e-07
3604.39	4.25769e-07
3612.95	2.24702e-07
3621.5	3.67558e-07
3630.06	5.41916e-07
3638.62	7.21089e-07
3647.18	7.03492e-07
3655.73	1.14188e-06
3664.29	1.09508e-06
3672.85	8.538e-07
3681.41	6.80395e-07
3689.96	3.81984e-07
3698.52	5.44346e-07
3707.08	5.61452e-07
3715.64	4.55298e-07
3724.19	5.26225e-07
3732.75	3.99675e-07
3741.31	2.34423e-07
3749.87	1.06789e-07
3758.42	3.18578e-07
3766.98	3.39915e-07
3775.54	4.14502e-07
3784.1	5.10595e-07
3792.66	6.36334e-07
3801.21	3.4679e-07
3809.77	7.27021e-07
3818.33	6.50815e-07
3826.89	8.21573e-07
3835.44	1.10897e-06
3844	1.02354e-06
3852.56	1.42527e-06
3861.12	1.424e-06
3869.67	1.26317e-06
3878.23	9.22256e-07
3886.79	8.94354e-07
3895.35	8.37809e-07
3903.9	8.83131e-07
3912.46	1.05499e-06
3921.02	1.33064e-06
3929.58	1.01564e-06
3938.13	1.24669e-06
3946.69	7.70213e-07
3955.25	9.28939e-07
3963.81	8.90578e-07
3972.37	9.15738e-07
