Infrared Spectrum: Toluene
Formula: C H3 C6 H5
CAS: 108-88-3
State: gas
Melting point: -95 C
Boiling point: 110.6 C
Class: IUPAC A
Instrument: IFS66V (Bruker)
Instrument parameters: KBr Beam splitter; MCT Detector; Multipass cell
Sampling: 1 L/min Flow
Resolution: 0.1250
Temperature: 23 C
Pressure: 101.3 kPa
Origin: NIST, Anayltical Chemistry Division, 301-975-3108
cm-1	(micromol/mol)-1m-1 (base 10)
574.988	-3.45306e-07
583.546	-3.74495e-07
592.103	-3.274e-07
600.661	-7.49238e-08
609.219	4.7811e-07
617.776	6.33414e-07
626.334	6.77976e-07
634.891	9.58904e-07
643.449	1.20436e-06
652.007	8.90925e-07
660.564	2.49722e-06
669.122	1.27368e-05
677.68	4.63577e-05
686.237	7.15159e-05
694.795	0.000112555
703.352	0.000104923
711.91	0.000151014
720.468	0.000187002
729.025	0.000703468
737.583	0.000187223
746.141	0.00010564
754.698	2.09986e-05
763.256	2.47451e-06
771.813	1.61216e-06
780.371	2.36348e-06
788.929	1.12607e-06
797.486	1.31189e-06
806.044	4.53368e-07
814.602	3.09496e-07
823.159	3.81604e-07
831.717	2.52665e-07
840.274	6.86156e-07
848.832	6.17436e-07
857.39	9.077e-07
865.947	1.122e-06
874.505	2.07792e-06
883.063	2.63652e-06
891.62	4.01112e-06
900.178	3.18249e-06
908.735	3.01677e-06
917.293	3.02582e-06
925.851	3.52822e-06
934.408	3.94588e-06
942.966	2.64936e-06
951.524	1.71121e-06
960.081	2.38818e-06
968.639	2.88743e-06
977.196	2.86669e-06
985.754	2.42339e-06
994.312	2.1433e-06
1002.87	1.77422e-06
1011.43	2.50238e-06
1019.98	1.29169e-05
1028.54	1.86729e-05
1037.1	2.60273e-05
1045.66	1.8348e-05
1054.22	1.26142e-05
1062.77	1.37651e-05
1071.33	2.10308e-05
1079.89	1.99042e-05
1088.45	2.3753e-05
1097	1.58976e-05
1105.56	8.13639e-06
1114.12	7.08397e-06
1122.68	3.19261e-06
1131.23	1.91087e-06
1139.79	1.68957e-06
1148.35	1.70794e-06
1156.91	2.19648e-06
1165.46	2.48829e-06
1174.02	2.89141e-06
1182.58	2.42063e-06
1191.14	2.16932e-06
1199.69	3.55732e-06
1208.25	4.24736e-06
1216.81	5.01572e-06
1225.37	2.37542e-06
1233.93	2.79806e-06
1242.48	2.86361e-06
1251.04	2.69226e-06
1259.6	1.31456e-06
1268.16	9.06558e-07
1276.71	8.16773e-07
1285.27	1.05284e-06
1293.83	1.51124e-06
1302.39	2.62203e-06
1310.94	2.02562e-06
1319.5	2.48329e-06
1328.06	1.87077e-06
1336.62	1.86576e-06
1345.17	2.41556e-06
1353.73	3.42991e-06
1362.29	4.90004e-06
1370.85	8.62669e-06
1379.4	1.29056e-05
1387.96	1.74829e-05
1396.52	1.07894e-05
1405.08	8.27279e-06
1413.64	9.06915e-06
1422.19	1.3745e-05
1430.75	1.21496e-05
1439.31	1.84197e-05
1447.87	2.98287e-05
1456.42	3.25945e-05
1464.98	3.24021e-05
1473.54	3.3225e-05
1482.1	3.24703e-05
1490.65	9.11089e-05
1499.21	0.000101318
1507.77	0.000100337
1516.33	3.15324e-05
1524.88	2.45265e-05
1533.44	1.8394e-05
1542	1.34575e-05
1550.56	1.00995e-05
1559.11	1.1528e-05
1567.67	8.6872e-06
1576.23	9.75142e-06
1584.79	8.76353e-06
1593.35	1.71838e-05
1601.9	4.05647e-05
1610.46	4.54808e-05
1619.02	3.843e-05
1627.58	1.93043e-05
1636.13	3.54069e-06
1644.69	1.80478e-06
1653.25	3.88461e-08
1661.81	1.97033e-06
1670.36	1.84312e-06
1678.92	1.75446e-06
1687.48	1.5611e-06
1696.04	4.58019e-07
1704.59	1.43614e-06
1713.15	2.22368e-06
1721.71	4.1853e-06
1730.27	4.38389e-06
1738.83	5.50745e-06
1747.38	2.17714e-06
1755.94	1.233e-06
1764.5	1.97996e-06
1773.06	3.51634e-06
1781.61	5.07533e-06
1790.17	1.0451e-05
1798.73	9.5381e-06
1807.29	1.23746e-05
1815.84	4.15486e-06
1824.4	3.49138e-06
1832.96	2.90455e-06
1841.52	5.29195e-06
1850.07	1.04381e-05
1858.63	1.15933e-05
1867.19	1.15246e-05
1875.75	6.91232e-06
1884.3	3.33489e-06
1892.86	1.42036e-06
1901.42	1.15552e-06
1909.98	1.24754e-06
1918.54	2.31507e-06
1927.09	6.20789e-06
1935.65	1.24136e-05
1944.21	1.41911e-05
1952.77	1.27374e-05
1961.32	5.98562e-06
1969.88	2.95185e-06
1978.44	7.91167e-07
1987	1.16567e-06
1995.55	1.44437e-06
2004.11	1.20978e-06
2012.67	7.62691e-07
2021.23	5.93291e-07
2029.78	4.27606e-07
2038.34	1.33128e-07
2046.9	2.25574e-07
2055.46	1.97538e-07
2064.01	1.25479e-07
2072.57	1.93743e-07
2081.13	2.7732e-07
2089.69	1.39034e-07
2098.25	2.30552e-07
2106.8	1.37782e-07
2115.36	2.85522e-07
2123.92	3.10209e-07
2132.48	2.70681e-07
2141.03	2.72603e-07
2149.59	2.19889e-07
2158.15	7.70285e-07
2166.71	1.04643e-06
2175.26	1.33419e-06
2183.82	7.81388e-07
2192.38	7.72433e-07
2200.94	4.54083e-07
2209.49	5.95612e-07
2218.05	4.94964e-07
2226.61	4.62476e-07
2235.17	4.7976e-07
2243.72	6.0677e-07
2252.28	9.10289e-07
2260.84	9.74755e-07
2269.4	1.28429e-06
2277.96	1.43592e-06
2286.51	1.28635e-06
2295.07	1.24965e-06
2303.63	1.67351e-06
2312.19	1.71417e-06
2320.74	2.05006e-06
2329.3	1.91246e-06
2337.86	1.89542e-06
2346.42	2.25364e-06
2354.97	2.18403e-06
2363.53	1.4437e-06
2372.09	1.61732e-06
2380.65	1.1932e-06
2389.2	1.2553e-06
2397.76	1.34346e-06
2406.32	1.62907e-06
2414.88	1.75016e-06
2423.44	2.00964e-06
2431.99	1.36847e-06
2440.55	1.00305e-06
2449.11	8.37291e-07
2457.67	9.92872e-07
2466.22	9.73458e-07
2474.78	9.21728e-07
2483.34	7.33555e-07
2491.9	8.28109e-07
2500.45	1.04095e-06
2509.01	8.50066e-07
2517.57	7.45831e-07
2526.13	6.79238e-07
2534.68	7.90727e-07
2543.24	7.98991e-07
2551.8	8.18194e-07
2560.36	5.65057e-07
2568.91	7.37334e-07
2577.47	1.18204e-06
2586.03	2.14478e-06
2594.59	2.4558e-06
2603.15	2.31503e-06
2611.7	1.60748e-06
2620.26	1.21839e-06
2628.82	1.23532e-06
2637.38	1.25036e-06
2645.93	9.68831e-07
2654.49	8.01564e-07
2663.05	7.40601e-07
2671.61	6.05618e-07
2680.16	5.46052e-07
2688.72	5.48572e-07
2697.28	5.11848e-07
2705.84	5.47658e-07
2714.39	7.88635e-07
2722.95	1.04147e-06
2731.51	2.89063e-06
2740.07	5.18357e-06
2748.62	6.08742e-06
2757.18	3.52449e-06
2765.74	1.50622e-06
2774.3	1.37873e-06
2782.86	1.5828e-06
2791.41	1.95365e-06
2799.97	2.24821e-06
2808.53	2.5224e-06
2817.09	3.58294e-06
2825.64	4.16794e-06
2834.2	5.69094e-06
2842.76	7.09251e-06
2851.32	1.16936e-05
2859.87	2.19845e-05
2868.43	3.9333e-05
2876.99	6.19424e-05
2885.55	6.61059e-05
2894.1	5.77861e-05
2902.66	4.14677e-05
2911.22	4.507e-05
2919.78	6.79905e-05
2928.34	0.000107869
2936.89	0.000119324
2945.45	0.000107501
2954.01	6.72289e-05
2962.57	5.13373e-05
2971.12	3.51437e-05
2979.68	3.93655e-05
2988.24	4.08844e-05
2996.8	5.16105e-05
3005.35	6.73707e-05
3013.91	7.45106e-05
3022.47	0.000126663
3031.03	0.000218581
3039.58	0.000221993
3048.14	0.000195956
3056.7	0.000108271
3065.26	0.000118362
3073.81	0.000148374
3082.37	0.000129303
3090.93	9.58603e-05
3099.49	7.40315e-05
3108.05	4.7955e-05
3116.6	2.9572e-05
3125.16	1.73517e-05
3133.72	8.57497e-06
3142.28	2.39001e-06
3150.83	1.23215e-06
3159.39	1.25976e-06
3167.95	1.50187e-06
3176.51	1.54062e-06
3185.06	1.48495e-06
3193.62	4.98242e-07
3202.18	1.79881e-07
3210.74	2.00046e-07
3219.29	1.11867e-07
3227.85	1.93596e-07
3236.41	1.2613e-07
3244.97	2.08279e-07
3253.52	3.19407e-07
3262.08	1.79881e-07
3270.64	5.16145e-07
3279.2	4.26987e-07
3287.76	4.79978e-07
3296.31	4.12528e-07
3304.87	4.33383e-07
3313.43	3.73824e-07
3321.99	6.52417e-07
3330.54	6.87187e-07
3339.1	6.85785e-07
3347.66	5.85672e-07
3356.22	3.64211e-07
3364.77	6.1211e-07
3373.33	6.15728e-07
3381.89	6.48561e-07
3390.45	4.10638e-07
3399	6.17407e-07
3407.56	4.52575e-07
3416.12	2.66355e-07
3424.68	3.85904e-07
3433.23	3.73024e-07
3441.79	5.04843e-07
3450.35	6.13074e-07
3458.91	5.28183e-07
3467.47	3.4792e-07
3476.02	6.41045e-08
3484.58	1.70187e-07
3493.14	1.28593e-07
3501.7	2.17501e-07
3510.25	4.57579e-07
3518.81	9.43796e-08
3527.37	3.64578e-07
3535.93	2.57984e-07
3544.48	3.58585e-07
3553.04	5.55436e-07
3561.6	3.11069e-07
3570.16	4.33678e-07
3578.71	2.91582e-07
3587.27	5.20228e-07
3595.83	3.57495e-07
3604.39	4.35688e-07
3612.95	2.331e-07
3621.5	3.95506e-07
3630.06	5.33232e-07
3638.62	7.34784e-07
3647.18	7.24056e-07
3655.73	1.12717e-06
3664.29	1.0804e-06
3672.85	8.98214e-07
3681.41	6.61747e-07
3689.96	3.82992e-07
3698.52	5.49921e-07
3707.08	5.86306e-07
3715.64	4.62488e-07
3724.19	5.5036e-07
3732.75	4.18493e-07
3741.31	2.1247e-07
3749.87	1.41935e-07
3758.42	3.1176e-07
3766.98	3.36891e-07
3775.54	4.17652e-07
3784.1	5.26406e-07
3792.66	6.49951e-07
3801.21	3.35915e-07
3809.77	7.39799e-07
3818.33	6.84013e-07
3826.89	7.88692e-07
3835.44	1.0979e-06
3844	1.05314e-06
3852.56	1.42988e-06
3861.12	1.44256e-06
3869.67	1.2531e-06
3878.23	9.13739e-07
3886.79	8.6954e-07
3895.35	8.44298e-07
3903.9	8.64203e-07
3912.46	1.05244e-06
3921.02	1.32826e-06
3929.58	1.01646e-06
3938.13	1.19939e-06
3946.69	7.7717e-07
3955.25	9.06376e-07
3963.81	9.04522e-07
3972.37	9.34346e-07
