Infrared Spectrum: Toluene
Formula: C H3 C6 H5
CAS: 108-88-3
State: gas
Melting point: -95 C
Boiling point: 110.6 C
Class: IUPAC A
Instrument: IFS66V (Bruker)
Instrument parameters: KBr Beam splitter; MCT Detector; Multipass cell
Sampling: 1 L/min Flow
Resolution: 0.2410
Temperature: 23 C
Pressure: 101.3 kPa
Origin: NIST, Anayltical Chemistry Division, 301-975-3108
cm-1	(micromol/mol)-1m-1 (base 10)
575.048	-2.17348e-08
583.606	-4.32945e-07
592.163	-3.54054e-07
600.721	1.72939e-07
609.279	2.95973e-07
617.836	4.52932e-07
626.394	5.74031e-07
634.951	6.66639e-07
643.509	1.06518e-06
652.067	8.04775e-07
660.624	2.66616e-06
669.182	1.27288e-05
677.74	4.67495e-05
686.297	7.1448e-05
694.855	0.000118034
703.412	0.000104406
711.97	0.000151305
720.528	0.000187118
729.085	0.000789657
737.643	0.000186692
746.201	0.00010475
754.758	2.07676e-05
763.316	2.59405e-06
771.873	1.72509e-06
780.431	2.38384e-06
788.989	1.12156e-06
797.546	1.23107e-06
806.104	4.63672e-07
814.662	3.34996e-07
823.219	4.26926e-07
831.777	4.09285e-07
840.334	4.66195e-07
848.892	7.74026e-07
857.45	9.10489e-07
866.007	1.11955e-06
874.565	2.04087e-06
883.123	2.72641e-06
891.68	4.05005e-06
900.238	3.17495e-06
908.795	3.0653e-06
917.353	3.09685e-06
925.911	3.54363e-06
934.468	3.8942e-06
943.026	2.58802e-06
951.584	1.77319e-06
960.141	2.38012e-06
968.699	2.97865e-06
977.256	2.91538e-06
985.814	2.45117e-06
994.372	2.11534e-06
1002.93	1.80328e-06
1011.49	2.60664e-06
1020.04	1.31563e-05
1028.6	1.85354e-05
1037.16	2.60563e-05
1045.72	1.83501e-05
1054.28	1.26779e-05
1062.83	1.37817e-05
1071.39	2.0995e-05
1079.95	1.96819e-05
1088.51	2.3694e-05
1097.06	1.59101e-05
1105.62	8.2904e-06
1114.18	7.01732e-06
1122.74	3.15496e-06
1131.29	1.87004e-06
1139.85	1.61762e-06
1148.41	1.74918e-06
1156.97	2.17837e-06
1165.52	2.51262e-06
1174.08	2.8118e-06
1182.64	2.37135e-06
1191.2	2.20337e-06
1199.75	3.58886e-06
1208.31	4.25105e-06
1216.87	4.97168e-06
1225.43	2.38531e-06
1233.99	2.79172e-06
1242.54	2.81621e-06
1251.1	2.68051e-06
1259.66	1.31161e-06
1268.22	8.62132e-07
1276.77	8.56413e-07
1285.33	1.09081e-06
1293.89	1.54303e-06
1302.45	2.60855e-06
1311	2.03065e-06
1319.56	2.50017e-06
1328.12	1.89189e-06
1336.68	1.85754e-06
1345.23	2.40186e-06
1353.79	3.44791e-06
1362.35	4.91419e-06
1370.91	8.65227e-06
1379.46	1.29033e-05
1388.02	1.75045e-05
1396.58	1.07354e-05
1405.14	8.33738e-06
1413.7	9.10504e-06
1422.25	1.37045e-05
1430.81	1.21463e-05
1439.37	1.85077e-05
1447.93	2.99815e-05
1456.48	3.2475e-05
1465.04	3.25253e-05
1473.6	3.33755e-05
1482.16	3.2778e-05
1490.71	9.12149e-05
1499.27	0.000103759
1507.83	9.95199e-05
1516.39	3.16174e-05
1524.94	2.45774e-05
1533.5	1.83725e-05
1542.06	1.33918e-05
1550.62	1.01348e-05
1559.18	1.15258e-05
1567.73	8.78416e-06
1576.29	1.03049e-05
1584.85	8.90506e-06
1593.41	1.73808e-05
1601.96	4.05175e-05
1610.52	4.54345e-05
1619.08	3.85664e-05
1627.64	1.9082e-05
1636.19	3.58874e-06
1644.75	1.85036e-06
1653.31	3.23551e-07
1661.87	1.9807e-06
1670.42	1.81832e-06
1678.98	1.76261e-06
1687.54	1.5215e-06
1696.1	9.84265e-07
1704.65	1.49035e-06
1713.21	2.19596e-06
1721.77	4.26033e-06
1730.33	4.41233e-06
1738.89	5.45595e-06
1747.44	2.19922e-06
1756	1.26269e-06
1764.56	1.99687e-06
1773.12	3.52911e-06
1781.67	5.08746e-06
1790.23	1.05086e-05
1798.79	9.75596e-06
1807.35	1.23441e-05
1815.9	4.12995e-06
1824.46	3.5062e-06
1833.02	2.93898e-06
1841.58	5.31496e-06
1850.13	1.03986e-05
1858.69	1.17073e-05
1867.25	1.15014e-05
1875.81	6.9475e-06
1884.36	3.32523e-06
1892.92	1.41728e-06
1901.48	1.20019e-06
1910.04	1.27967e-06
1918.6	2.36373e-06
1927.15	6.29785e-06
1935.71	1.23695e-05
1944.27	1.42677e-05
1952.83	1.26496e-05
1961.38	6.0409e-06
1969.94	2.93094e-06
1978.5	8.30996e-07
1987.06	1.17734e-06
1995.61	1.41627e-06
2004.17	1.16224e-06
2012.73	7.73414e-07
2021.29	5.89167e-07
2029.84	4.03143e-07
2038.4	1.35844e-07
2046.96	1.59689e-07
2055.52	2.095e-07
2064.08	1.53058e-07
2072.63	2.08981e-07
2081.19	2.68137e-07
2089.75	1.71509e-07
2098.31	2.05566e-07
2106.86	1.49463e-07
2115.42	2.97441e-07
2123.98	3.10647e-07
2132.54	2.80646e-07
2141.09	2.47422e-07
2149.65	2.19629e-07
2158.21	7.82793e-07
2166.77	1.0662e-06
2175.32	1.35528e-06
2183.88	7.63053e-07
2192.44	7.85927e-07
2201	4.91535e-07
2209.55	5.3453e-07
2218.11	5.04823e-07
2226.67	4.39376e-07
2235.23	4.8931e-07
2243.79	6.20785e-07
2252.34	9.499e-07
2260.9	9.68541e-07
2269.46	1.27842e-06
2278.02	1.48258e-06
2286.57	1.29205e-06
2295.13	1.26131e-06
2303.69	1.67728e-06
2312.25	1.75022e-06
2320.8	2.06383e-06
2329.36	1.94559e-06
2337.92	1.85917e-06
2346.48	2.2315e-06
2355.03	2.16515e-06
2363.59	1.45114e-06
2372.15	1.59183e-06
2380.71	1.16874e-06
2389.26	1.23835e-06
2397.82	1.32137e-06
2406.38	1.62807e-06
2414.94	1.78456e-06
2423.5	1.98506e-06
2432.05	1.32961e-06
2440.61	9.67108e-07
2449.17	8.3854e-07
2457.73	9.69268e-07
2466.28	1.01648e-06
2474.84	9.32513e-07
2483.4	7.68395e-07
2491.96	8.48914e-07
2500.51	1.0515e-06
2509.07	9.04817e-07
2517.63	7.36634e-07
2526.19	7.28874e-07
2534.74	7.9411e-07
2543.3	7.59657e-07
2551.86	8.12782e-07
2560.42	5.86392e-07
2568.98	7.74577e-07
2577.53	1.19036e-06
2586.09	2.1341e-06
2594.65	2.44979e-06
2603.21	2.31117e-06
2611.76	1.61638e-06
2620.32	1.26574e-06
2628.88	1.21137e-06
2637.44	1.20048e-06
2645.99	9.22376e-07
2654.55	8.28344e-07
2663.11	7.05994e-07
2671.67	5.88859e-07
2680.22	5.34508e-07
2688.78	5.50555e-07
2697.34	5.43947e-07
2705.9	5.68676e-07
2714.45	7.5438e-07
2723.01	1.0411e-06
2731.57	2.91159e-06
2740.13	5.20147e-06
2748.69	6.1284e-06
2757.24	3.4862e-06
2765.8	1.53758e-06
2774.36	1.44717e-06
2782.92	1.61047e-06
2791.47	1.94888e-06
2800.03	2.22666e-06
2808.59	2.49167e-06
2817.15	3.56113e-06
2825.7	4.24786e-06
2834.26	5.76428e-06
2842.82	7.19201e-06
2851.38	1.1789e-05
2859.93	2.21462e-05
2868.49	3.95283e-05
2877.05	6.2054e-05
2885.61	6.59316e-05
2894.16	5.75786e-05
2902.72	4.14906e-05
2911.28	4.52006e-05
2919.84	6.8203e-05
2928.4	0.000107726
2936.95	0.000119327
2945.51	0.000107254
2954.07	6.75163e-05
2962.63	5.13124e-05
2971.18	3.51814e-05
2979.74	3.94318e-05
2988.3	4.08242e-05
2996.86	5.18505e-05
3005.41	6.70282e-05
3013.97	7.48172e-05
3022.53	0.000127166
3031.09	0.000218009
3039.64	0.00022173
3048.2	0.000194901
3056.76	0.000108336
3065.32	0.000118463
3073.88	0.000146455
3082.43	0.00012848
3090.99	9.54273e-05
3099.55	7.4061e-05
3108.11	4.77967e-05
3116.66	2.95595e-05
3125.22	1.73257e-05
3133.78	8.48656e-06
3142.34	2.4172e-06
3150.89	1.319e-06
3159.45	1.24195e-06
3168.01	1.50063e-06
3176.57	1.57263e-06
3185.12	1.36352e-06
3193.68	3.92213e-07
3202.24	2.17861e-07
3210.8	2.11038e-07
3219.35	1.42201e-07
3227.91	1.09671e-07
3236.47	2.62134e-07
3245.03	2.08777e-07
3253.59	2.78945e-07
3262.14	2.04614e-07
3270.7	4.13527e-07
3279.26	3.84885e-07
3287.82	4.06087e-07
3296.37	4.05775e-07
3304.93	4.82528e-07
3313.49	3.33887e-07
3322.05	5.30745e-07
3330.6	6.98814e-07
3339.16	6.9611e-07
3347.72	5.9026e-07
3356.28	4.17028e-07
3364.83	5.78617e-07
3373.39	7.15361e-07
3381.95	6.82516e-07
3390.51	4.75866e-07
3399.06	6.33641e-07
3407.62	4.66032e-07
3416.18	3.619e-07
3424.74	4.02342e-07
3433.3	4.12407e-07
3441.85	5.81244e-07
3450.41	6.4928e-07
3458.97	5.44411e-07
3467.53	2.97073e-07
3476.08	1.1904e-07
3484.64	2.42406e-07
3493.2	1.10725e-07
3501.76	1.98088e-07
3510.31	4.26687e-07
3518.87	1.59866e-07
3527.43	3.59628e-07
3535.99	2.77342e-07
3544.54	2.63014e-07
3553.1	4.84634e-07
3561.66	4.14797e-07
3570.22	4.42421e-07
3578.78	3.02907e-07
3587.33	4.6825e-07
3595.89	3.6476e-07
3604.45	5.19646e-07
3613.01	2.01895e-07
3621.56	3.93278e-07
3630.12	4.79937e-07
3638.68	7.42153e-07
3647.24	8.33627e-07
3655.79	1.07716e-06
3664.35	1.00858e-06
3672.91	9.45252e-07
3681.47	6.33017e-07
3690.02	4.8715e-07
3698.58	5.59155e-07
3707.14	5.78155e-07
3715.7	4.68625e-07
3724.25	5.48931e-07
3732.81	4.53533e-07
3741.37	2.54344e-07
3749.93	1.85823e-07
3758.49	3.3522e-07
3767.04	3.14093e-07
3775.6	4.37692e-07
3784.16	5.10942e-07
3792.72	7.1088e-07
3801.27	9.69851e-08
3809.83	7.35418e-07
3818.39	8.00234e-07
3826.95	8.26424e-07
3835.5	1.07366e-06
3844.06	1.14869e-06
3852.62	1.47579e-06
3861.18	1.43653e-06
3869.73	1.19517e-06
3878.29	9.85836e-07
3886.85	8.47638e-07
3895.41	8.87688e-07
3903.96	7.59169e-07
3912.52	1.08891e-06
3921.08	1.34525e-06
3929.64	1.09218e-06
3938.2	1.10877e-06
3946.75	7.7221e-07
3955.31	8.97364e-07
3963.87	8.87339e-07
3972.43	9.39069e-07
