Infrared Spectrum: 1,3-Dimethylbenzene
Formula: 1,3-( C H3)2 C6 H4
CAS: 108-38-3
State: gas
Melting point: -47.87 C
Boiling point: 139.1 C
Class: IUPAC A
Instrument: IFS66V (Bruker)
Instrument parameters: KBr Beam Splitter; MCT Detector; Multipass cell
Sampling: 1 L/min Flow
Resolution: 0.9640
Temperature: 23 C
Pressure: 101.3 Pa
Origin: NIST, Analytical Chemistry Division, 301-975-3108
cm-1	(micromol/mol)-1m-1 (base 10)
575.17	-1.62177e-06
583.848	-5.03697e-07
592.526	1.89716e-07
601.205	-6.45972e-07
609.883	-7.36106e-07
618.561	-3.25011e-07
627.239	-4.9617e-07
635.917	-5.9394e-07
644.595	-1.79331e-07
653.274	4.78796e-07
661.952	2.00687e-06
670.63	9.89302e-06
679.308	4.19182e-05
687.986	7.34934e-05
696.665	6.37887e-05
705.343	3.27426e-05
714.021	5.22221e-06
722.699	1.36859e-06
731.377	1.28363e-06
740.055	3.49268e-06
748.734	3.35028e-05
757.412	0.000132988
766.09	0.000285306
774.768	0.000170536
783.446	7.61579e-05
792.125	9.02082e-06
800.803	2.18317e-06
809.481	1.55821e-06
818.159	1.11107e-06
826.837	9.65361e-07
835.515	9.54045e-07
844.194	8.39252e-07
852.872	1.63784e-06
861.55	8.09279e-06
870.228	1.40653e-05
878.906	1.31176e-05
887.584	1.12289e-05
896.263	1.29207e-05
904.941	1.68962e-05
913.619	1.19877e-05
922.297	1.21794e-06
930.975	1.68362e-06
939.654	2.4012e-06
948.332	2.82026e-06
957.01	3.25605e-06
965.688	4.12441e-06
974.366	5.0023e-06
983.044	4.35726e-06
991.723	5.49355e-06
1000.4	8.49571e-06
1009.08	1.02e-05
1017.76	7.47498e-06
1026.44	6.3396e-06
1035.11	1.14282e-05
1043.79	2.3938e-05
1052.47	1.94625e-05
1061.15	1.40542e-05
1069.83	8.84396e-06
1078.5	9.08381e-06
1087.18	2.10745e-05
1095.86	1.92104e-05
1104.54	1.77259e-05
1113.22	6.1815e-06
1121.9	4.61828e-06
1130.57	4.5966e-06
1139.25	2.90844e-06
1147.93	2.69278e-06
1156.61	4.16236e-06
1165.29	9.47278e-06
1173.96	6.4456e-06
1182.64	3.553e-06
1191.32	2.53078e-06
1200	1.91731e-06
1208.68	1.5117e-06
1217.36	1.26986e-06
1226.03	1.16549e-06
1234.71	1.62669e-06
1243.39	3.16183e-06
1252.07	3.14857e-06
1260.75	3.6733e-06
1269.42	2.87642e-06
1278.1	2.048e-06
1286.78	1.52553e-06
1295.46	1.94219e-06
1304.14	2.14943e-06
1312.82	2.17214e-06
1321.49	2.22792e-06
1330.17	2.53412e-06
1338.85	2.76143e-06
1347.53	3.81593e-06
1356.21	6.28045e-06
1364.88	9.43187e-06
1373.56	1.8029e-05
1382.24	2.94768e-05
1390.92	2.84676e-05
1399.6	1.89176e-05
1408.28	1.59171e-05
1416.95	1.726e-05
1425.63	1.87736e-05
1434.31	2.69847e-05
1442.99	3.92797e-05
1451.67	4.69508e-05
1460.34	4.1711e-05
1469.02	4.87195e-05
1477.7	5.87279e-05
1486.38	8.46558e-05
1495.06	0.000107374
1503.74	0.000103622
1512.41	6.8278e-05
1521.09	4.9626e-05
1529.77	4.71341e-05
1538.45	4.06974e-05
1547.13	2.54676e-05
1555.8	1.76983e-05
1564.48	1.59853e-05
1573.16	1.76095e-05
1581.84	1.92022e-05
1590.52	3.22072e-05
1599.2	4.84625e-05
1607.87	0.000102394
1616.55	0.00013329
1625.23	0.000108197
1633.91	1.0529e-05
1642.59	5.03743e-06
1651.26	6.32859e-06
1659.94	5.08156e-06
1668.62	1.9651e-06
1677.3	7.30533e-07
1685.98	3.71453e-07
1694.66	8.78536e-07
1703.33	1.3083e-06
1712.01	1.48971e-06
1720.69	1.28478e-06
1729.37	3.02398e-06
1738.05	7.23541e-06
1746.72	6.52549e-06
1755.4	7.2647e-06
1764.08	6.25156e-06
1772.76	7.1684e-06
1781.44	6.84209e-06
1790.12	1.97446e-06
1798.79	9.96568e-07
1807.47	1.70471e-06
1816.15	2.07677e-06
1824.83	1.83264e-06
1833.51	3.27413e-06
1842.18	5.79453e-06
1850.86	1.25887e-05
1859.54	1.05171e-05
1868.22	1.79162e-06
1876.9	1.20811e-06
1885.58	1.05789e-06
1894.25	1.10161e-06
1902.93	1.77806e-06
1911.61	3.09175e-06
1920.29	6.00205e-06
1928.97	1.20739e-05
1937.64	1.15715e-05
1946.32	3.6579e-06
1955	3.43318e-07
1963.68	1.32668e-07
1972.36	2.75132e-07
1981.04	5.83301e-08
1989.71	6.49785e-08
1998.39	6.02628e-09
2007.07	-2.18623e-08
2015.75	-4.95045e-08
2024.43	9.16184e-08
2033.1	-2.54003e-07
2041.78	-3.07979e-07
2050.46	-4.2047e-07
2059.14	-3.59752e-07
2067.82	-1.89282e-07
2076.5	-1.95024e-07
2085.17	-4.22194e-08
2093.85	-2.44461e-07
2102.53	1.67755e-07
2111.21	8.51765e-07
2119.89	1.45718e-07
2128.56	-3.37085e-07
2137.24	-7.5243e-08
2145.92	7.9202e-08
2154.6	4.25834e-07
2163.28	-1.1349e-07
2171.96	-3.07243e-07
2180.63	-2.97507e-07
2189.31	-4.19762e-07
2197.99	-2.54385e-07
2206.67	-6.38789e-08
2215.35	4.47196e-09
2224.02	-1.82735e-08
2232.7	-3.67043e-07
2241.38	-1.56212e-07
2250.06	-5.40792e-08
2258.74	4.31617e-07
2267.42	7.3271e-07
2276.09	9.24414e-07
2284.77	1.33659e-06
2293.45	1.7422e-06
2302.13	6.91864e-07
2310.81	4.88267e-07
2319.48	8.50898e-07
2328.16	1.18541e-06
2336.84	1.36393e-06
2345.52	1.49595e-06
2354.2	1.67691e-06
2362.88	1.84702e-06
2371.55	1.09099e-06
2380.23	7.52139e-07
2388.91	1.23735e-06
2397.59	1.22142e-06
2406.27	1.26007e-06
2414.94	1.80404e-06
2423.62	2.01791e-06
2432.3	1.71133e-06
2440.98	1.26539e-06
2449.66	1.40283e-06
2458.34	1.34292e-06
2467.01	1.47574e-06
2475.69	1.27809e-06
2484.37	1.39132e-06
2493.05	1.32023e-06
2501.73	1.07273e-06
2510.4	7.36177e-07
2519.08	4.54719e-07
2527.76	4.36729e-07
2536.44	1.0208e-06
2545.12	1.34167e-06
2553.8	4.83475e-07
2562.47	4.43382e-07
2571.15	4.03983e-07
2579.83	2.80755e-07
2588.51	4.21454e-07
2597.19	4.96937e-07
2605.86	5.78747e-07
2614.54	5.85764e-07
2623.22	7.72262e-07
2631.9	7.45162e-07
2640.58	8.46059e-07
2649.26	6.62879e-07
2657.93	3.13944e-07
2666.61	2.03508e-07
2675.29	2.51361e-07
2683.97	1.28784e-09
2692.65	2.81696e-07
2701.32	4.07851e-07
2710	7.00903e-07
2718.68	1.44921e-06
2727.36	3.09112e-06
2736.04	1.10826e-05
2744.72	1.19027e-05
2753.39	7.1977e-06
2762.07	2.591e-06
2770.75	1.89453e-06
2779.43	2.03032e-06
2788.11	2.24111e-06
2796.78	2.85603e-06
2805.46	3.6513e-06
2814.14	5.00093e-06
2822.82	7.4829e-06
2831.5	9.62553e-06
2840.18	1.32338e-05
2848.85	2.17871e-05
2857.53	4.14605e-05
2866.21	8.19076e-05
2874.89	0.00011847
2883.57	0.00011797
2892.24	9.4281e-05
2900.92	9.38915e-05
2909.6	0.000111278
2918.28	0.000147049
2926.96	0.0002178
2935.63	0.000257648
2944.31	0.000230545
2952.99	0.000139481
2961.67	9.77033e-05
2970.35	6.99073e-05
2979.03	7.30238e-05
2987.7	8.77237e-05
2996.38	0.00010965
3005.06	0.000135999
3013.74	0.000176256
3022.42	0.000218101
3031.09	0.000239864
3039.77	0.000211224
3048.45	0.000170543
3057.13	0.000133519
3065.81	0.000118005
3074.49	8.45707e-05
3083.16	4.13094e-05
3091.84	2.88411e-05
3100.52	2.37416e-05
3109.2	2.10768e-05
3117.88	1.85243e-05
3126.55	1.27916e-05
3135.23	4.88677e-06
3143.91	2.10871e-06
3152.59	1.14972e-06
3161.27	8.30796e-07
3169.95	6.18048e-07
3178.62	6.82282e-07
3187.3	4.47507e-07
3195.98	3.89143e-07
3204.66	3.13528e-07
3213.34	1.19833e-07
3222.01	-7.92821e-08
3230.69	-2.67162e-07
3239.37	-4.08051e-07
3248.05	-3.90477e-07
3256.73	4.93389e-08
3265.41	2.60275e-07
3274.08	4.32826e-08
3282.76	-1.79547e-07
3291.44	-6.35206e-08
3300.12	3.08823e-07
3308.8	1.51285e-08
3317.47	-1.52006e-07
3326.15	-1.30933e-07
3334.83	2.84889e-08
3343.51	-6.70567e-08
3352.19	-8.10328e-08
3360.87	-4.29598e-08
3369.54	-1.00422e-07
3378.22	1.19143e-10
3386.9	-8.31683e-08
3395.58	5.02337e-07
3404.26	4.40505e-07
3412.93	7.78353e-07
3421.61	5.61388e-07
3430.29	3.88581e-07
3438.97	2.38893e-07
3447.65	2.35785e-07
3456.33	3.68713e-07
3465	4.37396e-07
3473.68	1.78639e-07
3482.36	1.30239e-07
3491.04	-9.30026e-08
3499.72	-2.10972e-07
3508.39	-3.45945e-07
3517.07	-1.48044e-07
3525.75	9.36447e-08
3534.43	-3.6747e-08
3543.11	-3.16084e-08
3551.79	4.65369e-07
3560.46	1.96317e-07
3569.14	3.96771e-07
3577.82	3.79021e-08
3586.5	-2.1908e-07
3595.18	-4.18035e-07
3603.85	-3.60773e-07
3612.53	-4.72852e-07
3621.21	-1.81013e-07
3629.89	-5.18499e-07
3638.57	-3.47322e-07
3647.25	-5.51462e-07
3655.92	-4.4626e-07
3664.6	-1.32847e-07
3673.28	-8.27218e-08
3681.96	-1.79102e-07
3690.64	-3.89698e-07
3699.31	-3.67018e-07
3707.99	-2.32939e-07
3716.67	-2.8107e-07
3725.35	-1.57324e-07
3734.03	3.5953e-07
3742.71	5.82858e-07
3751.38	5.84806e-07
3760.06	1.79258e-07
3768.74	7.5201e-07
3777.42	5.60727e-07
3786.1	7.64303e-07
3794.77	4.81137e-07
3803.45	1.96739e-07
3812.13	8.64679e-08
3820.81	-9.13192e-08
3829.49	6.02863e-07
3838.17	-1.00473e-07
3846.84	5.20415e-07
3855.52	4.58807e-07
3864.2	1.70816e-07
3872.88	4.14098e-07
3881.56	6.2851e-07
3890.23	8.95196e-07
3898.91	1.11512e-06
3907.59	1.63703e-06
3916.27	1.76894e-06
3924.95	1.74266e-06
3933.63	1.41799e-06
3942.3	1.28468e-06
3950.98	1.3976e-06
3959.66	1.52636e-06
3968.34	1.50234e-06
