Infrared Spectrum: Ethenyl Ester-Acetic Acid
Formula: C H3 C O2 C H: C H2
CAS: 108-05-4
State: gas
Melting point: -93.2 C
Boiling point: 72.2 C
Class: IUPAC A
Instrument: IFS66V (Bruker)
Instrument parameters: KBr Beam splitter; MCT Detector; Multipass cell
Sampling: 1 L/min Flow
Resolution: 0.2410
Temperature: 23 C
Pressure: 101.3 kPa
Origin: NIST, Anayltical Chemistry Division, 301-975-3108
cm-1	(micromol/mol)-1m-1 (base 10)
575.048	1.08932e-05
583.606	1.96864e-05
592.163	3.74699e-05
600.721	2.87149e-05
609.279	3.24269e-05
617.836	3.3963e-05
626.394	4.15134e-05
634.951	4.22157e-05
643.509	4.1753e-05
652.067	2.7168e-05
660.624	1.41641e-05
669.182	6.51214e-06
677.74	4.46922e-06
686.297	6.1437e-06
694.855	9.18976e-06
703.412	1.05088e-05
711.97	1.15799e-05
720.528	1.01423e-05
729.085	7.50354e-06
737.643	6.08001e-06
746.201	5.54536e-06
754.758	6.04414e-06
763.316	7.30799e-06
771.873	9.38157e-06
780.431	9.63184e-06
788.989	9.4132e-06
797.546	8.91622e-06
806.104	9.79984e-06
814.662	1.3048e-05
823.219	1.99771e-05
831.777	3.78756e-05
840.334	7.94951e-05
848.892	0.000104458
857.45	0.000159893
866.007	0.000156827
874.565	0.000215943
883.123	0.000145374
891.68	9.37781e-05
900.238	3.59985e-05
908.795	1.45701e-05
917.353	1.56276e-05
925.911	3.43673e-05
934.468	7.01773e-05
943.026	0.000105137
951.584	0.000131934
960.141	0.000105851
968.699	0.000123426
977.256	0.000101602
985.814	9.80723e-05
994.372	6.59048e-05
1002.93	0.000110586
1011.49	0.000236278
1020.04	0.000348832
1028.6	0.000312655
1037.16	0.000170465
1045.72	7.68829e-05
1054.28	6.59472e-05
1062.83	6.04716e-05
1071.39	5.42567e-05
1079.95	4.63247e-05
1088.51	3.79963e-05
1097.06	3.11107e-05
1105.62	2.94227e-05
1114.18	3.31367e-05
1122.74	5.43618e-05
1131.29	0.000208029
1139.85	0.000896879
1148.41	0.000964243
1156.97	0.000766628
1165.52	7.82625e-05
1174.08	4.69472e-05
1182.64	6.57501e-05
1191.2	0.000115109
1199.75	0.000299244
1208.31	0.00105279
1216.87	0.002576
1225.43	0.00283187
1233.99	0.00199227
1242.54	0.000387545
1251.1	0.000227641
1259.66	0.000192859
1268.22	7.28056e-05
1276.77	5.54657e-05
1285.33	0.000124334
1293.89	0.000171979
1302.45	0.00016883
1311	6.52077e-05
1319.56	2.15152e-05
1328.12	1.35309e-05
1336.68	1.23275e-05
1345.23	1.72283e-05
1353.79	4.28508e-05
1362.35	0.000165551
1370.91	0.000350874
1379.46	0.000442466
1388.02	0.000268677
1396.58	0.000105873
1405.14	3.61556e-05
1413.7	2.74274e-05
1422.25	3.05835e-05
1430.81	3.90012e-05
1439.37	3.70647e-05
1447.93	3.55463e-05
1456.48	2.89456e-05
1465.04	2.33857e-05
1473.6	2.08629e-05
1482.16	1.95884e-05
1490.71	1.70509e-05
1499.27	1.57514e-05
1507.83	1.4712e-05
1516.39	1.39032e-05
1524.94	1.27022e-05
1533.5	1.14881e-05
1542.06	9.88585e-06
1550.62	1.26011e-05
1559.18	1.61284e-05
1567.73	1.82608e-05
1576.29	1.93033e-05
1584.85	2.17591e-05
1593.41	2.24337e-05
1601.96	2.29674e-05
1610.52	2.75605e-05
1619.08	3.82206e-05
1627.64	4.69572e-05
1636.19	0.0001084
1644.75	0.000421528
1653.31	0.000555782
1661.87	0.000443618
1670.42	6.10128e-05
1678.98	2.48169e-05
1687.54	1.67957e-05
1696.1	1.43188e-05
1704.65	1.37804e-05
1713.21	1.17454e-05
1721.77	1.24562e-05
1730.33	2.00318e-05
1738.89	2.80356e-05
1747.44	6.06826e-05
1756	0.000146838
1764.56	0.000385131
1773.12	0.00102185
1781.67	0.00106976
1790.23	0.00148933
1798.79	0.000610706
1807.35	0.000211343
1815.9	5.44105e-05
1824.46	2.29001e-05
1833.02	2.03483e-05
1841.58	1.8028e-05
1850.13	2.17027e-05
1858.69	2.63104e-05
1867.25	2.84666e-05
1875.81	2.53031e-05
1884.36	1.72394e-05
1892.92	1.44671e-05
1901.48	1.4253e-05
1910.04	1.12907e-05
1918.6	6.55081e-06
1927.15	4.28221e-06
1935.71	4.47107e-06
1944.27	5.18808e-06
1952.83	5.2386e-06
1961.38	5.2694e-06
1969.94	4.70709e-06
1978.5	7.20537e-06
1987.06	1.29654e-05
1995.61	1.35418e-05
2004.17	1.06005e-05
2012.73	5.50148e-06
2021.29	5.41424e-06
2029.84	5.34633e-06
2038.4	6.21539e-06
2046.96	1.07266e-05
2055.52	2.10887e-05
2064.08	2.77289e-05
2072.63	2.62861e-05
2081.19	1.18818e-05
2089.75	6.65422e-06
2098.31	5.57345e-06
2106.86	6.09456e-06
2115.42	7.16416e-06
2123.98	7.30466e-06
2132.54	5.99738e-06
2141.09	3.90942e-06
2149.65	4.28959e-06
2158.21	4.47398e-06
2166.77	4.79436e-06
2175.32	4.40479e-06
2183.88	3.23914e-06
2192.44	2.44895e-06
2201	2.0052e-06
2209.55	2.45265e-06
2218.11	3.67527e-06
2226.67	4.85187e-06
2235.23	4.53657e-06
2243.79	3.61089e-06
2252.34	2.84039e-06
2260.9	2.2116e-06
2269.46	3.22219e-06
2278.02	8.17871e-06
2286.57	1.12192e-05
2295.13	1.10594e-05
2303.69	3.39072e-06
2312.25	1.18123e-06
2320.8	1.16757e-06
2329.36	1.52998e-06
2337.92	2.61574e-06
2346.48	3.38687e-06
2355.03	4.21226e-06
2363.59	3.66167e-06
2372.15	3.13196e-06
2380.71	2.37768e-06
2389.26	1.522e-06
2397.82	1.85194e-06
2406.38	2.56953e-06
2414.94	3.69891e-06
2423.5	5.54589e-06
2432.05	8.16252e-06
2440.61	8.22618e-06
2449.17	6.47997e-06
2457.73	2.88533e-06
2466.28	1.93209e-06
2474.84	1.65281e-06
2483.4	1.60576e-06
2491.96	1.83763e-06
2500.51	1.95492e-06
2509.07	1.10452e-06
2517.63	7.29866e-07
2526.19	6.36851e-07
2534.74	4.12519e-07
2543.3	2.80522e-07
2551.86	2.44304e-07
2560.42	2.57491e-07
2568.98	4.06004e-07
2577.53	1.09418e-06
2586.09	1.80958e-06
2594.65	1.89469e-06
2603.21	1.4898e-06
2611.76	1.09626e-06
2620.32	1.69775e-06
2628.88	2.05367e-06
2637.44	2.15532e-06
2645.99	1.01892e-06
2654.55	8.82778e-07
2663.11	1.04135e-06
2671.67	1.12212e-06
2680.22	1.00094e-06
2688.78	6.4225e-07
2697.34	3.93424e-07
2705.9	3.98266e-07
2714.45	3.68433e-07
2723.01	4.47788e-07
2731.57	5.96712e-07
2740.13	1.49595e-06
2748.69	2.88209e-06
2757.24	2.72395e-06
2765.8	3.08519e-06
2774.36	1.31928e-06
2782.92	1.11423e-06
2791.47	1.3561e-06
2800.03	1.62865e-06
2808.59	9.04372e-07
2817.15	7.12343e-07
2825.7	6.69537e-07
2834.26	7.88911e-07
2842.82	1.23927e-06
2851.38	2.07595e-06
2859.93	2.32805e-06
2868.49	2.28092e-06
2877.05	1.53265e-06
2885.61	1.20301e-06
2894.16	1.10889e-06
2902.72	1.17198e-06
2911.28	1.2278e-06
2919.84	1.43776e-06
2928.4	2.29577e-06
2936.95	4.61676e-06
2945.51	9.56068e-06
2954.07	1.08548e-05
2962.63	1.23538e-05
2971.18	9.28802e-06
2979.74	8.9743e-06
2988.3	1.00156e-05
2996.86	1.21356e-05
3005.41	1.13749e-05
3013.97	1.15749e-05
3022.53	1.37381e-05
3031.09	1.70865e-05
3039.64	1.88218e-05
3048.2	2.06486e-05
3056.76	2.21441e-05
3065.32	2.33948e-05
3073.88	1.8649e-05
3082.43	1.74471e-05
3090.99	3.47448e-05
3099.55	4.15869e-05
3108.11	4.80613e-05
3116.66	1.89766e-05
3125.22	2.64305e-05
3133.78	2.05229e-05
3142.34	1.83985e-05
3150.89	5.60394e-06
3159.45	2.60789e-06
3168.01	1.72191e-06
3176.57	1.2195e-06
3185.12	1.02917e-06
3193.68	1.04686e-06
3202.24	8.21968e-07
3210.8	6.1708e-07
3219.35	4.85792e-07
3227.91	2.63238e-07
3236.47	8.30874e-09
3245.03	5.07873e-08
3253.59	2.82693e-08
3262.14	-7.79944e-09
3270.7	-4.48031e-08
3279.26	-9.87517e-08
3287.82	7.79544e-08
3296.37	4.81936e-08
3304.93	-3.21873e-08
3313.49	-3.47024e-07
3322.05	-4.67465e-07
3330.6	-2.61099e-07
3339.16	-4.06815e-08
3347.72	3.14779e-08
3356.28	-2.11865e-08
3364.83	-2.52973e-07
3373.39	-2.19734e-07
3381.95	-8.26945e-08
3390.51	-5.13184e-08
3399.06	-2.17177e-08
3407.62	-5.37921e-08
3416.18	-1.37702e-07
3424.74	-9.03993e-08
3433.3	9.82206e-11
3441.85	-9.7504e-08
3450.41	-6.46364e-08
3458.97	1.6285e-07
3467.53	1.86204e-07
3476.08	8.93153e-08
3484.64	-1.37825e-07
3493.2	-9.46847e-08
3501.76	-1.10233e-07
3510.31	3.32069e-07
3518.87	1.28392e-06
3527.43	4.16646e-06
3535.99	1.10928e-05
3544.54	1.48381e-05
3553.1	1.68562e-05
3561.66	8.54288e-06
3570.22	2.62931e-06
3578.78	3.53452e-07
3587.33	-2.47345e-07
3595.89	-3.07376e-07
3604.45	-4.92089e-07
3613.01	-5.64012e-07
3621.56	-6.0199e-07
3630.12	-4.86698e-07
3638.68	-4.96167e-07
3647.24	-6.09488e-07
3655.79	-4.62383e-07
3664.35	-3.10635e-07
3672.91	-4.53259e-07
3681.47	-3.85225e-07
3690.02	-4.20013e-07
3698.58	-4.84271e-07
3707.14	-4.19613e-07
3715.7	-4.89135e-07
3724.25	-3.87739e-07
3732.81	-4.5128e-07
3741.37	-5.91052e-07
3749.93	-6.62014e-07
3758.49	-4.46722e-07
3767.04	-4.16153e-07
3775.6	-3.81674e-07
3784.16	-4.56769e-07
3792.72	-3.76316e-07
3801.27	-1.37223e-06
3809.83	-2.9795e-07
3818.39	-4.1528e-07
3826.95	-4.53808e-07
3835.5	-2.62245e-07
3844.06	-2.57822e-07
3852.62	-3.46817e-07
3861.18	-1.97627e-07
3869.73	-3.65075e-07
3878.29	-1.07039e-07
3886.85	-1.55327e-07
3895.41	-7.5819e-08
3903.96	-7.6241e-08
3912.52	1.48153e-07
3921.08	6.84488e-08
3929.64	1.02761e-07
3938.2	1.29247e-07
3946.75	2.34696e-07
3955.31	3.35572e-07
3963.87	7.20914e-07
3972.43	1.13671e-06
