Infrared Spectrum: Toluene
Formula: C H3 C6 H5
CAS: 108-88-3
State: gas
Melting point: -95 C
Boiling point: 110.6 C
Class: IUPAC A
Instrument: IFS66V (Bruker)
Instrument parameters: KBr Beam splitter; MCT Detector; Multipass cell
Sampling: 1 L/min Flow
Resolution: 1.9290
Temperature: 23 C
Pressure: 101.3 kPa
Origin: NIST, Anayltical Chemistry Division, 301-975-3108
cm-1	(micromol/mol)-1m-1 (base 10)
574.687	8.8547e-08
583.365	-3.36757e-07
592.043	-1.03693e-07
600.721	1.98048e-08
609.4	2.55912e-07
618.078	4.20189e-07
626.756	6.66478e-07
635.434	8.16175e-07
644.112	7.13772e-07
652.79	7.90313e-07
661.469	3.06403e-06
670.147	1.51103e-05
678.825	5.46169e-05
687.503	7.33876e-05
696.181	7.53164e-05
704.859	0.000106011
713.537	0.000162727
722.216	0.000192838
730.894	0.000311389
739.572	0.000178744
748.25	7.68875e-05
756.928	1.09804e-05
765.606	1.81343e-06
774.285	2.01602e-06
782.963	1.65422e-06
791.641	1.83862e-06
800.319	6.44461e-07
808.997	4.48549e-07
817.675	3.23429e-07
826.353	5.06311e-07
835.032	4.18138e-07
843.71	4.20117e-07
852.388	7.1313e-07
861.066	1.08272e-06
869.744	1.35415e-06
878.422	2.24606e-06
887.101	3.00403e-06
895.779	5.49655e-06
904.457	3.2255e-06
913.135	2.84613e-06
921.813	3.25273e-06
930.491	4.10899e-06
939.169	2.93377e-06
947.848	1.93598e-06
956.526	2.05166e-06
965.204	2.65058e-06
973.882	3.13517e-06
982.56	2.69405e-06
991.238	2.114e-06
999.917	1.80379e-06
1008.59	2.10191e-06
1017.27	7.03543e-06
1025.95	2.46263e-05
1034.63	1.74503e-05
1043.31	2.29245e-05
1051.99	1.21575e-05
1060.66	1.31792e-05
1069.34	1.84131e-05
1078.02	2.58684e-05
1086.7	2.43218e-05
1095.38	1.69559e-05
1104.05	7.78324e-06
1112.73	8.02671e-06
1121.41	3.53403e-06
1130.09	1.9742e-06
1138.77	1.64273e-06
1147.45	1.67496e-06
1156.12	2.04083e-06
1164.8	2.406e-06
1173.48	2.89085e-06
1182.16	2.31272e-06
1190.84	2.21908e-06
1199.51	3.49624e-06
1208.19	4.25172e-06
1216.87	4.90352e-06
1225.55	2.46071e-06
1234.23	2.82003e-06
1242.9	3.00289e-06
1251.58	2.54611e-06
1260.26	1.27386e-06
1268.94	7.68308e-07
1277.62	8.56303e-07
1286.3	1.16242e-06
1294.97	1.5718e-06
1303.65	2.69179e-06
1312.33	2.37492e-06
1321.01	2.39336e-06
1329.69	1.86733e-06
1338.36	1.95594e-06
1347.04	2.58639e-06
1355.72	3.99533e-06
1364.4	5.42188e-06
1373.08	9.92029e-06
1381.76	1.46805e-05
1390.43	1.81046e-05
1399.11	8.67543e-06
1407.79	8.87217e-06
1416.47	1.05108e-05
1425.15	1.06492e-05
1433.82	1.34997e-05
1442.5	2.241e-05
1451.18	3.34232e-05
1459.86	3.49052e-05
1468.54	3.2379e-05
1477.22	3.04091e-05
1485.89	5.47702e-05
1494.57	9.39826e-05
1503.25	8.60193e-05
1511.93	5.68103e-05
1520.61	2.11005e-05
1529.28	1.98366e-05
1537.96	1.63078e-05
1546.64	1.12293e-05
1555.32	1.0324e-05
1564	1.04538e-05
1572.67	1.19822e-05
1581.35	9.51978e-06
1590.03	1.10053e-05
1598.71	3.37884e-05
1607.39	4.75847e-05
1616.07	4.89845e-05
1624.74	2.35639e-05
1633.42	6.64871e-06
1642.1	1.92486e-06
1650.78	1.74307e-06
1659.46	1.75095e-06
1668.13	1.88933e-06
1676.81	1.73946e-06
1685.49	1.49419e-06
1694.17	1.59871e-06
1702.85	1.57974e-06
1711.53	2.00174e-06
1720.2	3.72086e-06
1728.88	5.11944e-06
1737.56	5.72598e-06
1746.24	2.48737e-06
1754.92	1.21203e-06
1763.59	1.84242e-06
1772.27	3.06185e-06
1780.95	5.0463e-06
1789.63	9.83445e-06
1798.31	1.00738e-05
1806.98	1.22561e-05
1815.66	4.32647e-06
1824.34	3.48233e-06
1833.02	2.9511e-06
1841.7	5.38733e-06
1850.38	1.04024e-05
1859.05	1.22864e-05
1867.73	1.11005e-05
1876.41	7.20786e-06
1885.09	2.90014e-06
1893.77	1.37412e-06
1902.44	1.24186e-06
1911.12	1.34641e-06
1919.8	2.69374e-06
1928.48	7.37962e-06
1937.16	1.19261e-05
1945.84	1.61126e-05
1954.51	1.07996e-05
1963.19	6.38465e-06
1971.87	1.92726e-06
1980.55	9.34348e-07
1989.23	1.24286e-06
1997.9	1.19285e-06
2006.58	9.93009e-07
2015.26	7.01597e-07
2023.94	5.86565e-07
2032.62	3.0495e-07
2041.3	1.3647e-07
2049.97	7.5224e-08
2058.65	1.57037e-07
2067.33	2.21278e-07
2076.01	2.20591e-07
2084.69	1.65193e-07
2093.36	1.88309e-07
2102.04	1.88727e-07
2110.72	2.40988e-07
2119.4	2.41723e-07
2128.08	3.18589e-07
2136.75	2.52735e-07
2145.43	2.4081e-07
2154.11	4.61674e-07
2162.79	1.00954e-06
2171.47	1.12977e-06
2180.15	1.03449e-06
2188.82	6.29919e-07
2197.5	6.03878e-07
2206.18	4.68669e-07
2214.86	5.09169e-07
2223.54	4.81653e-07
2232.21	4.85761e-07
2240.89	5.69161e-07
2249.57	9.07039e-07
2258.25	1.02203e-06
2266.93	1.19013e-06
2275.61	1.37996e-06
2284.28	1.34849e-06
2292.96	1.32654e-06
2301.64	1.48108e-06
2310.32	1.61354e-06
2319	2.06389e-06
2327.67	1.91996e-06
2336.35	1.79927e-06
2345.03	2.27369e-06
2353.71	2.14574e-06
2362.39	1.74845e-06
2371.06	1.75587e-06
2379.74	1.11518e-06
2388.42	1.14219e-06
2397.1	1.27301e-06
2405.78	1.57357e-06
2414.46	1.84948e-06
2423.13	2.03892e-06
2431.81	1.37077e-06
2440.49	9.9178e-07
2449.17	8.399e-07
2457.85	9.40699e-07
2466.52	1.01438e-06
2475.2	9.19634e-07
2483.88	7.83854e-07
2492.56	8.5311e-07
2501.24	9.83319e-07
2509.92	9.62535e-07
2518.59	7.72619e-07
2527.27	7.56546e-07
2535.95	7.71355e-07
2544.63	7.49454e-07
2553.31	7.17774e-07
2561.98	6.61486e-07
2570.66	8.20858e-07
2579.34	1.37953e-06
2588.02	2.22843e-06
2596.7	2.6337e-06
2605.38	1.86532e-06
2614.05	1.36568e-06
2622.73	1.36577e-06
2631.41	1.22989e-06
2640.09	1.12282e-06
2648.77	9.08093e-07
2657.44	6.92217e-07
2666.12	6.18458e-07
2674.8	5.31857e-07
2683.48	5.68095e-07
2692.16	5.45923e-07
2700.83	5.273e-07
2709.51	5.78407e-07
2718.19	8.22487e-07
2726.87	1.47052e-06
2735.55	4.72401e-06
2744.23	7.51013e-06
2752.9	6.80782e-06
2761.58	2.07737e-06
2770.26	1.34693e-06
2778.94	1.53074e-06
2787.62	1.85567e-06
2796.29	2.01399e-06
2804.97	2.25974e-06
2813.65	3.04646e-06
2822.33	4.11299e-06
2831.01	4.92568e-06
2839.69	6.44778e-06
2848.36	9.5211e-06
2857.04	1.76778e-05
2865.72	3.37011e-05
2874.4	5.42635e-05
2883.08	6.71962e-05
2891.75	6.09293e-05
2900.43	4.5021e-05
2909.11	4.1325e-05
2917.79	6.07603e-05
2926.47	0.00010348
2935.14	0.000119805
2943.82	0.000113644
2952.5	7.05235e-05
2961.18	5.25649e-05
2969.86	3.73901e-05
2978.54	3.83423e-05
2987.21	4.39157e-05
2995.89	4.81651e-05
3004.57	6.7399e-05
3013.25	7.20405e-05
3021.93	0.000120151
3030.6	0.000215728
3039.28	0.000219638
3047.96	0.000198418
3056.64	0.000108741
3065.32	0.000118281
3074	0.000139981
3082.67	0.000126075
3091.35	9.30448e-05
3100.03	7.44117e-05
3108.71	4.55744e-05
3117.39	2.83831e-05
3126.06	1.64635e-05
3134.74	7.30493e-06
3143.42	2.064e-06
3152.1	1.34739e-06
3160.78	1.36235e-06
3169.46	1.57655e-06
3178.13	1.49976e-06
3186.81	1.19918e-06
3195.49	2.61716e-07
3204.17	1.55284e-07
3212.85	8.50173e-08
3221.52	2.3889e-07
3230.2	3.92641e-08
3238.88	8.94992e-08
3247.56	2.00903e-07
3256.24	3.14985e-07
3264.91	3.89313e-07
3273.59	5.34038e-07
3282.27	4.59888e-07
3290.95	4.79258e-07
3299.63	4.01675e-07
3308.31	3.86027e-07
3316.98	4.06114e-07
3325.66	5.50999e-07
3334.34	7.09729e-07
3343.02	7.46306e-07
3351.7	5.61099e-07
3360.37	5.2959e-07
3369.05	5.55049e-07
3377.73	7.13455e-07
3386.41	6.40609e-07
3395.09	5.99048e-07
3403.77	4.88303e-07
3412.44	4.57439e-07
3421.12	3.17643e-07
3429.8	5.13764e-07
3438.48	5.56586e-07
3447.16	6.58966e-07
3455.83	4.73606e-07
3464.51	4.12453e-07
3473.19	2.30854e-07
3481.87	1.49788e-07
3490.55	2.06211e-07
3499.22	2.44717e-07
3507.9	1.82587e-07
3516.58	2.70711e-07
3525.26	4.73033e-07
3533.94	3.07682e-07
3542.62	3.13627e-07
3551.29	3.82578e-07
3559.97	4.39304e-07
3568.65	3.78576e-07
3577.33	2.25089e-07
3586.01	2.78971e-07
3594.68	3.68186e-07
3603.36	4.79753e-07
3612.04	2.10767e-07
3620.72	3.60303e-07
3629.4	3.10744e-07
3638.08	7.15522e-07
3646.75	8.5078e-07
3655.43	1.11674e-06
3664.11	1.17655e-06
3672.79	8.77855e-07
3681.47	6.6273e-07
3690.14	5.35999e-07
3698.82	5.37382e-07
3707.5	5.09322e-07
3716.18	5.67646e-07
3724.86	5.45241e-07
3733.54	4.18708e-07
3742.21	3.18347e-07
3750.89	1.77539e-07
3759.57	2.38678e-07
3768.25	2.92409e-07
3776.93	3.89558e-07
3785.6	5.20136e-07
3794.28	7.85418e-07
3802.96	6.93689e-07
3811.64	7.79737e-07
3820.32	6.68515e-07
3828.99	9.75904e-07
3837.67	8.42418e-07
3846.35	1.35175e-06
3855.03	1.28845e-06
3863.71	1.41861e-06
3872.39	1.1728e-06
3881.06	9.17019e-07
3889.74	8.18643e-07
3898.42	8.27609e-07
3907.1	9.89159e-07
3915.78	1.12259e-06
3924.45	1.17783e-06
3933.13	1.01415e-06
3941.81	9.16998e-07
3950.49	8.65795e-07
3959.17	8.38313e-07
3967.85	9.35034e-07
