Infrared Spectrum: Toluene
Formula: C H3 C6 H5
CAS: 108-88-3
State: gas
Melting point: -95 C
Boiling point: 110.6 C
Class: IUPAC A
Instrument: IFS66V (Bruker)
Instrument parameters: KBr Beam splitter; MCT Detector; Multipass cell
Sampling: 1 L/min Flow
Resolution: 0.2410
Temperature: 23 C
Pressure: 101.3 kPa
Origin: NIST, Anayltical Chemistry Division, 301-975-3108
cm-1	(micromol/mol)-1m-1 (base 10)
575.048	-3.16226e-08
583.606	-4.27571e-07
592.163	-3.83173e-07
600.721	2.00479e-07
609.279	2.81706e-07
617.836	4.49657e-07
626.394	5.44897e-07
634.951	6.3199e-07
643.509	1.04468e-06
652.067	7.52051e-07
660.624	2.58397e-06
669.182	1.26105e-05
677.74	4.66412e-05
686.297	7.1301e-05
694.855	0.000102598
703.412	0.000103952
711.97	0.000151331
720.528	0.000186858
729.085	0.000814037
737.643	0.000186742
746.201	0.000104715
754.758	2.05856e-05
763.316	2.42486e-06
771.873	1.63245e-06
780.431	2.35372e-06
788.989	1.05637e-06
797.546	1.20941e-06
806.104	4.44937e-07
814.662	3.02421e-07
823.219	4.1131e-07
831.777	3.95139e-07
840.334	4.70299e-07
848.892	7.72536e-07
857.45	9.02648e-07
866.007	1.1118e-06
874.565	2.02587e-06
883.123	2.71728e-06
891.68	4.01869e-06
900.238	3.1639e-06
908.795	3.05229e-06
917.353	3.08381e-06
925.911	3.52297e-06
934.468	3.90088e-06
943.026	2.58614e-06
951.584	1.75742e-06
960.141	2.37584e-06
968.699	2.95767e-06
977.256	2.89697e-06
985.814	2.4532e-06
994.372	2.11682e-06
1002.93	1.77837e-06
1011.49	2.57863e-06
1020.04	1.31432e-05
1028.6	1.84578e-05
1037.16	2.61533e-05
1045.72	1.84123e-05
1054.28	1.26396e-05
1062.83	1.37736e-05
1071.39	2.10179e-05
1079.95	1.96503e-05
1088.51	2.37419e-05
1097.06	1.59264e-05
1105.62	8.26677e-06
1114.18	7.0122e-06
1122.74	3.13225e-06
1131.29	1.85574e-06
1139.85	1.61281e-06
1148.41	1.74491e-06
1156.97	2.1731e-06
1165.52	2.51232e-06
1174.08	2.81087e-06
1182.64	2.3641e-06
1191.2	2.18974e-06
1199.75	3.59188e-06
1208.31	4.24669e-06
1216.87	4.98393e-06
1225.43	2.36215e-06
1233.99	2.79317e-06
1242.54	2.77647e-06
1251.1	2.68234e-06
1259.66	1.30566e-06
1268.22	8.55334e-07
1276.77	8.5086e-07
1285.33	1.081e-06
1293.89	1.53207e-06
1302.45	2.61123e-06
1311	2.01507e-06
1319.56	2.49276e-06
1328.12	1.88311e-06
1336.68	1.85248e-06
1345.23	2.39261e-06
1353.79	3.4355e-06
1362.35	4.90479e-06
1370.91	8.65963e-06
1379.46	1.28963e-05
1388.02	1.75515e-05
1396.58	1.07203e-05
1405.14	8.30239e-06
1413.7	9.0828e-06
1422.25	1.37431e-05
1430.81	1.21443e-05
1439.37	1.84916e-05
1447.93	2.99708e-05
1456.48	3.24806e-05
1465.04	3.24296e-05
1473.6	3.32902e-05
1482.16	3.26091e-05
1490.71	9.14713e-05
1499.27	0.00010337
1507.83	9.99612e-05
1516.39	3.1522e-05
1524.94	2.47371e-05
1533.5	1.83385e-05
1542.06	1.33088e-05
1550.62	1.01074e-05
1559.18	1.15617e-05
1567.73	8.74269e-06
1576.29	1.01984e-05
1584.85	8.84023e-06
1593.41	1.73265e-05
1601.96	4.05864e-05
1610.52	4.50596e-05
1619.08	3.84766e-05
1627.64	1.90863e-05
1636.19	3.5499e-06
1644.75	1.83215e-06
1653.31	1.96189e-07
1661.87	1.97268e-06
1670.42	1.81342e-06
1678.98	1.75597e-06
1687.54	1.51976e-06
1696.1	9.01422e-07
1704.65	1.46814e-06
1713.21	2.19252e-06
1721.77	4.25872e-06
1730.33	4.40909e-06
1738.89	5.487e-06
1747.44	2.1974e-06
1756	1.25794e-06
1764.56	1.98692e-06
1773.12	3.5546e-06
1781.67	5.07276e-06
1790.23	1.05304e-05
1798.79	9.65477e-06
1807.35	1.23947e-05
1815.9	4.09581e-06
1824.46	3.50188e-06
1833.02	2.92153e-06
1841.58	5.30019e-06
1850.13	1.04303e-05
1858.69	1.1743e-05
1867.25	1.15151e-05
1875.81	6.93601e-06
1884.36	3.30712e-06
1892.92	1.40425e-06
1901.48	1.18976e-06
1910.04	1.27082e-06
1918.6	2.34998e-06
1927.15	6.28606e-06
1935.71	1.24017e-05
1944.27	1.43241e-05
1952.83	1.26794e-05
1961.38	6.01591e-06
1969.94	2.91691e-06
1978.5	8.14253e-07
1987.06	1.17234e-06
1995.61	1.4253e-06
2004.17	1.15791e-06
2012.73	7.65628e-07
2021.29	5.8425e-07
2029.84	4.05821e-07
2038.4	1.28259e-07
2046.96	1.63342e-07
2055.52	2.14015e-07
2064.08	1.5136e-07
2072.63	2.0958e-07
2081.19	2.6576e-07
2089.75	1.66226e-07
2098.31	2.05025e-07
2106.86	1.42053e-07
2115.42	3.01699e-07
2123.98	3.11699e-07
2132.54	2.79401e-07
2141.09	2.49684e-07
2149.65	2.06165e-07
2158.21	7.83802e-07
2166.77	1.06185e-06
2175.32	1.35674e-06
2183.88	7.61368e-07
2192.44	7.9284e-07
2201	4.86681e-07
2209.55	5.3172e-07
2218.11	5.00776e-07
2226.67	4.3659e-07
2235.23	4.90643e-07
2243.79	6.13905e-07
2252.34	9.49399e-07
2260.9	9.62019e-07
2269.46	1.2852e-06
2278.02	1.48304e-06
2286.57	1.28542e-06
2295.13	1.25439e-06
2303.69	1.68576e-06
2312.25	1.74333e-06
2320.8	2.05514e-06
2329.36	1.94042e-06
2337.92	1.85858e-06
2346.48	2.23821e-06
2355.03	2.16438e-06
2363.59	1.42837e-06
2372.15	1.58576e-06
2380.71	1.1657e-06
2389.26	1.24459e-06
2397.82	1.32456e-06
2406.38	1.63072e-06
2414.94	1.77669e-06
2423.5	1.98433e-06
2432.05	1.32729e-06
2440.61	9.69335e-07
2449.17	8.34732e-07
2457.73	9.7184e-07
2466.28	1.01139e-06
2474.84	9.28863e-07
2483.4	7.6315e-07
2491.96	8.47367e-07
2500.51	1.05482e-06
2509.07	9.00748e-07
2517.63	7.32583e-07
2526.19	7.27155e-07
2534.74	7.95674e-07
2543.3	7.61021e-07
2551.86	8.20829e-07
2560.42	5.73445e-07
2568.98	7.63037e-07
2577.53	1.1843e-06
2586.09	2.13272e-06
2594.65	2.44443e-06
2603.21	2.31337e-06
2611.76	1.61871e-06
2620.32	1.26291e-06
2628.88	1.20457e-06
2637.44	1.19701e-06
2645.99	9.15114e-07
2654.55	8.29146e-07
2663.11	7.07516e-07
2671.67	5.86333e-07
2680.22	5.32517e-07
2688.78	5.47939e-07
2697.34	5.36699e-07
2705.9	5.67387e-07
2714.45	7.4693e-07
2723.01	1.03138e-06
2731.57	2.90557e-06
2740.13	5.19424e-06
2748.69	6.12936e-06
2757.24	3.47556e-06
2765.8	1.51703e-06
2774.36	1.43908e-06
2782.92	1.59231e-06
2791.47	1.93818e-06
2800.03	2.22169e-06
2808.59	2.47062e-06
2817.15	3.54036e-06
2825.7	4.23152e-06
2834.26	5.75395e-06
2842.82	7.16457e-06
2851.38	1.17453e-05
2859.93	2.21093e-05
2868.49	3.95264e-05
2877.05	6.21392e-05
2885.61	6.60302e-05
2894.16	5.76159e-05
2902.72	4.1404e-05
2911.28	4.51382e-05
2919.84	6.81397e-05
2928.4	0.000107882
2936.95	0.000119431
2945.51	0.00010741
2954.07	6.74318e-05
2962.63	5.1303e-05
2971.18	3.50696e-05
2979.74	3.94148e-05
2988.3	4.07094e-05
2996.86	5.18766e-05
3005.41	6.70414e-05
3013.97	7.47182e-05
3022.53	0.000127252
3031.09	0.000218564
3039.64	0.000222174
3048.2	0.000195218
3056.76	0.000108095
3065.32	0.000118514
3073.88	0.000147378
3082.43	0.000128806
3090.99	9.5522e-05
3099.55	7.41524e-05
3108.11	4.77612e-05
3116.66	2.95159e-05
3125.22	1.72728e-05
3133.78	8.44157e-06
3142.34	2.37062e-06
3150.89	1.2703e-06
3159.45	1.20795e-06
3168.01	1.4716e-06
3176.57	1.55298e-06
3185.12	1.37357e-06
3193.68	3.75065e-07
3202.24	1.98393e-07
3210.8	1.98712e-07
3219.35	1.3652e-07
3227.91	1.14427e-07
3236.47	2.6552e-07
3245.03	1.97487e-07
3253.59	2.77571e-07
3262.14	1.84031e-07
3270.7	4.12795e-07
3279.26	3.78898e-07
3287.82	3.98992e-07
3296.37	4.02847e-07
3304.93	4.76857e-07
3313.49	3.10639e-07
3322.05	5.28452e-07
3330.6	7.07467e-07
3339.16	7.00518e-07
3347.72	5.73743e-07
3356.28	4.00473e-07
3364.83	5.69561e-07
3373.39	7.17449e-07
3381.95	6.76262e-07
3390.51	4.55521e-07
3399.06	6.31391e-07
3407.62	4.55202e-07
3416.18	3.44789e-07
3424.74	3.89207e-07
3433.3	4.03681e-07
3441.85	5.70165e-07
3450.41	6.65649e-07
3458.97	5.48893e-07
3467.53	3.03741e-07
3476.08	1.14699e-07
3484.64	2.45215e-07
3493.2	9.44222e-08
3501.76	1.99386e-07
3510.31	4.52524e-07
3518.87	1.45927e-07
3527.43	3.54754e-07
3535.99	2.69929e-07
3544.54	2.52261e-07
3553.1	4.96628e-07
3561.66	4.15383e-07
3570.22	4.47925e-07
3578.78	3.01026e-07
3587.33	4.915e-07
3595.89	3.64524e-07
3604.45	5.30411e-07
3613.01	2.03705e-07
3621.56	3.95391e-07
3630.12	4.90585e-07
3638.68	7.49915e-07
3647.24	8.26738e-07
3655.79	1.07709e-06
3664.35	9.95914e-07
3672.91	9.52598e-07
3681.47	6.34839e-07
3690.02	4.82727e-07
3698.58	5.61571e-07
3707.14	5.8487e-07
3715.7	4.56637e-07
3724.25	5.54574e-07
3732.81	4.60519e-07
3741.37	2.44332e-07
3749.93	2.0283e-07
3758.49	3.435e-07
3767.04	3.18252e-07
3775.6	4.48711e-07
3784.16	5.01051e-07
3792.72	7.0786e-07
3801.27	3.02302e-08
3809.83	7.35112e-07
3818.39	7.98855e-07
3826.95	8.15052e-07
3835.5	1.07992e-06
3844.06	1.14346e-06
3852.62	1.50107e-06
3861.18	1.44006e-06
3869.73	1.2303e-06
3878.29	9.81149e-07
3886.85	8.4131e-07
3895.41	8.91448e-07
3903.96	7.52439e-07
3912.52	1.08685e-06
3921.08	1.36255e-06
3929.64	1.08202e-06
3938.2	1.12849e-06
3946.75	7.57101e-07
3955.31	9.11684e-07
3963.87	8.78102e-07
3972.43	9.36763e-07
