Infrared Spectrum: Cyclohexanol
Formula: C 6 H 12 O
CAS: 108-93-0
State: liquid
Instrument: Bruker Tensor 27 FTIR
Resolution: 0.48212986
Origin: Pacific Northwest National Laboratory Under IARPA Contract
1/cm	dispersion index
7797.49	1.45045
7778.93	1.45046
7760.37	1.45045
7741.81	1.45044
7723.24	1.45042
7704.68	1.45041
7686.12	1.45039
7667.56	1.45037
7649	1.45036
7630.44	1.45034
7611.88	1.45032
7593.31	1.4503
7574.75	1.45028
7556.19	1.45026
7537.63	1.45024
7519.07	1.45022
7500.51	1.45021
7481.95	1.45018
7463.38	1.45016
7444.82	1.45013
7426.26	1.45012
7407.7	1.4501
7389.14	1.45008
7370.58	1.45005
7352.02	1.45003
7333.46	1.45
7314.89	1.44998
7296.33	1.44995
7277.77	1.44993
7259.21	1.4499
7240.65	1.44988
7222.09	1.44985
7203.53	1.44983
7184.96	1.4498
7166.4	1.44977
7147.84	1.44974
7129.28	1.44971
7110.72	1.44968
7092.16	1.44965
7073.6	1.44961
7055.03	1.44958
7036.47	1.44955
7017.91	1.44952
6999.35	1.44948
6980.79	1.44944
6962.23	1.4494
6943.67	1.44936
6925.1	1.44931
6906.54	1.44926
6887.98	1.44921
6869.42	1.44914
6850.86	1.44906
6832.3	1.44901
6813.74	1.44899
6795.17	1.44904
6776.61	1.44898
6758.05	1.44889
6739.49	1.44894
6720.93	1.44887
6702.37	1.4488
6683.81	1.44873
6665.25	1.44867
6646.68	1.44862
6628.12	1.44856
6609.56	1.44849
6591	1.44842
6572.44	1.44833
6553.88	1.44825
6535.32	1.44818
6516.75	1.44809
6498.19	1.44801
6479.63	1.44792
6461.07	1.44783
6442.51	1.44773
6423.95	1.44763
6405.39	1.44752
6386.82	1.44741
6368.26	1.44728
6349.7	1.44715
6331.14	1.44703
6312.58	1.44692
6294.02	1.44683
6275.46	1.44673
6256.89	1.44661
6238.33	1.44648
6219.77	1.44632
6201.21	1.44614
6182.65	1.44595
6164.09	1.44574
6145.53	1.4455
6126.96	1.44522
6108.4	1.44487
6089.84	1.44453
6071.28	1.4445
6052.72	1.44444
6034.16	1.44405
6015.6	1.44418
5997.03	1.44377
5978.47	1.44358
5959.91	1.44304
5941.35	1.44283
5922.79	1.44254
5904.23	1.44198
5885.67	1.44166
5867.11	1.44103
5848.54	1.44047
5829.98	1.43967
5811.42	1.43882
5792.86	1.43785
5774.3	1.4367
5755.74	1.43542
5737.18	1.43364
5718.61	1.43116
5700.05	1.42852
5681.49	1.42413
5662.93	1.41897
5644.37	1.41398
5625.81	1.41133
5607.25	1.41339
5588.68	1.42131
5570.12	1.43592
5551.56	1.45153
5533	1.462
5514.44	1.46718
5495.88	1.46715
5477.32	1.46322
5458.75	1.45724
5440.19	1.45003
5421.63	1.44081
5403.07	1.42673
5384.51	1.39383
5365.95	1.37971
5347.39	1.5123
5328.82	1.45769
5310.26	1.50777
5291.7	1.48947
5273.14	1.48032
5254.58	1.47441
5236.02	1.47099
5217.46	1.47221
5198.89	1.46906
5180.33	1.46834
5161.77	1.46614
5143.21	1.46484
5124.65	1.46379
5106.09	1.46265
5087.53	1.46168
5068.97	1.46079
5050.4	1.45992
5031.84	1.45904
5013.28	1.45841
4994.72	1.45768
4976.16	1.45678
4957.6	1.45644
4939.04	1.45566
4920.47	1.45463
4901.91	1.45442
4883.35	1.45337
4864.79	1.45282
4846.23	1.45211
4827.67	1.45105
4809.11	1.4499
4790.54	1.44892
4771.98	1.44797
4753.42	1.44713
4734.86	1.44627
4716.3	1.44384
4697.74	1.44103
4679.18	1.43677
4660.61	1.43022
4642.05	1.41526
4623.49	1.45409
4604.93	1.45493
4586.37	1.42575
4567.81	1.45764
4549.25	1.44647
4530.68	1.44689
4512.12	1.46604
4493.56	1.44477
4475	1.43298
4456.44	1.42557
4437.88	1.3331
4419.32	1.50646
4400.75	1.48316
4382.19	1.50365
4363.63	1.48376
4345.07	1.44091
4326.51	1.46757
4307.95	1.46817
4289.39	1.46987
4270.83	1.45857
4252.26	1.4586
4233.7	1.46558
4215.14	1.47604
4196.58	1.48345
4178.02	1.47566
4159.46	1.49315
4140.9	1.48369
4122.33	1.49516
4103.77	1.49108
4085.21	0.000157541
4066.65	0.000160282
4048.09	0.000156171
4029.53	0.000146583
4010.97	0.000145212
3992.4	0.000146583
3973.84	0.000143842
3955.28	0.000148637
3936.72	0.000141103
3918.16	0.000143842
3899.6	0.000150692
3881.04	0.000154117
3862.47	0.000166446
3843.91	0.000171926
3825.35	0.000181516
3806.79	0.000220558
3788.23	0.000185625
3769.67	0.000182201
3751.11	0.000206859
3732.54	0.00029111
3713.98	0.000241792
3695.42	0.000232202
3676.86	0.000241107
3658.3	0.000250011
3639.74	0.000258231
3621.18	0.000271245
3602.61	0.000287
3584.05	0.000303439
3565.49	0.000316453
3546.93	0.000326728
3528.37	0.000333577
3509.81	0.000339057
3491.25	0.000339057
3472.69	0.000337001
3454.12	0.000337001
3435.56	0.000339057
3417	0.000340427
3398.44	0.000347961
3379.88	0.000361661
3361.32	0.000373305
3342.76	0.000378785
3324.19	0.000371934
3305.63	0.000352071
3287.07	0.000324672
3268.51	0.000297959
3249.95	0.000276725
3231.39	0.000258916
3212.83	0.000247272
3194.26	0.000240422
3175.7	0.000251382
3157.14	0.000313714
3138.58	0.00073291
3120.02	0.00104799
3101.46	0.00147952
3082.9	0.00073976
3064.33	0.000945249
3045.77	0.00119184
3027.21	0.000679484
3008.65	0.000563725
2990.09	0.000597973
2971.53	0.000583588
2952.97	0.000613043
2934.4	0.000554135
2915.84	0.000479474
2897.28	0.000411662
2878.72	0.000365085
2860.16	0.000385634
2841.6	0.000403443
2823.04	0.000404813
2804.47	0.000387689
2785.91	0.000401389
2767.35	0.000411662
2748.79	0.000387004
2730.23	0.000411662
2711.67	0.000421937
2693.11	0.000442486
2674.55	0.000479474
2655.98	0.000603453
2637.42	0.000842504
2618.86	0.00110964
2600.3	0.00130828
2581.74	0.00135623
2563.18	0.00126718
2544.62	0.00114389
2526.05	0.000993196
2507.49	0.000876753
2488.93	0.000767159
2470.37	0.000684963
2451.81	0.000679484
2433.25	0.000705513
2414.69	0.000952099
2396.12	0.00232202
2377.56	0.00452076
2359	0.00350016
2340.44	0.00444541
2321.88	0.00432897
2303.32	0.00391114
2284.76	0.00453446
2266.19	0.00329467
2247.63	0.00450706
2229.07	0.00418512
2210.51	0.00365085
2191.95	0.003781
2173.39	0.00330837
2154.83	0.00334262
2136.26	0.00236312
2117.7	0.00291109
2099.14	0.00257546
2080.58	0.00249327
2062.02	0.0028563
2043.46	0.00243162
2024.9	0.00295219
2006.33	0.00815106
1987.77	0.0126718
1969.21	0.0311658
1950.65	0.0691813
1932.09	0.131513
1913.53	0.212339
1894.97	0.295219
1876.41	0.358236
1857.84	0.359606
1839.28	0.310288
1820.72	0.241107
1802.16	0.169186
1783.6	0.109594
1765.04	0.0680853
1746.48	0.0439746
1727.91	0.0305494
1709.35	0.028563
1690.79	0.0512352
1672.23	0.600713
1653.67	0.494543
1635.11	0.286315
1616.55	0.127403
1597.98	0.056441
1579.42	0.0337687
1560.86	0.0308918
1542.3	0.0387689
1523.74	0.0401388
1505.18	0.0245217
1486.62	0.0224668
1468.05	0.0141102
1449.49	0.0139048
1430.93	0.0108909
1412.37	0.00986347
1393.81	0.00917851
1375.25	0.00760309
1356.69	0.00679483
1338.12	0.00605507
1319.56	0.00698662
1301	0.00616467
1282.44	0.00502078
1263.88	0.00677429
1245.32	0.00529476
1226.76	0.00490434
1208.19	0.00610987
1189.63	0.00439746
1171.07	0.00780858
1152.51	0.00603453
1133.95	0.005603
1115.39	0.00577424
1096.83	0.00842505
1078.27	0.0104114
1059.7	0.0161651
1041.14	0.00610302
1022.58	0.00589068
1004.02	0.00497283
985.458	0.00698662
966.897	0.0142472
948.335	0.0366455
929.774	0.276725
911.213	0.175351
892.651	0.0952099
874.09	0.244532
855.528	0.132198
836.967	0.121238
818.406	0.201379
799.844	0.0467145
781.283	0.0767159
762.721	0.0849354
744.16	0.310288
725.599	0.36851
707.037	0.108909
688.476	0.27056
669.915	0.046783
651.353	0.0504818
632.792	0.0653455
614.23	0.0613042
595.669	0.173981
577.108	0.126033
558.546	0.188365
539.985	0.250697
521.423	0.275355
502.862	0.252066
484.301	0.217818
465.739	0.152062
447.178	0.137678
428.616	0.148637
410.055	0.160966
