Infrared Spectrum: 1,3-Dimethylbenzene
Formula: 1,3-( C H3)2 C6 H4
CAS: 108-38-3
State: gas
Melting point: -47.87 C
Boiling point: 139.1 C
Class: IUPAC A
Instrument: IFS66V (Bruker)
Instrument parameters: KBr Beam Splitter; MCT Detector; Multipass cell
Sampling: 1 L/min Flow
Resolution: 0.2410
Temperature: 23 C
Pressure: 101.3 Pa
Origin: NIST, Analytical Chemistry Division, 301-975-3108
cm-1	(micromol/mol)-1m-1 (base 10)
575.05	-3.08072e-06
583.608	-3.88638e-07
592.165	-4.82956e-07
600.723	-2.63569e-07
609.281	-3.2428e-07
617.838	1.48402e-07
626.396	9.30336e-08
634.954	-4.6422e-07
643.511	-4.58228e-08
652.069	4.8431e-07
660.626	2.63908e-06
669.184	7.80796e-06
677.742	3.71255e-05
686.299	5.8683e-05
694.857	6.68237e-05
703.415	4.33522e-05
711.972	7.56205e-06
720.53	1.13832e-06
729.088	1.65255e-06
737.645	1.71411e-06
746.203	1.7759e-05
754.761	0.000105167
763.318	0.000173654
771.876	0.000167096
780.434	0.000120243
788.991	1.97637e-05
797.549	2.56605e-06
806.106	8.22776e-07
814.664	3.5061e-07
823.222	9.17402e-07
831.779	2.1012e-07
840.337	-1.51104e-07
848.895	1.3098e-06
857.452	4.48127e-06
866.01	1.16261e-05
874.568	3.45136e-05
883.125	1.31041e-05
891.683	9.1135e-06
900.241	1.68213e-05
908.798	1.32769e-05
917.356	3.72299e-06
925.914	1.0001e-06
934.471	1.50246e-06
943.029	2.1536e-06
951.586	2.79673e-06
960.144	3.16054e-06
968.702	4.7396e-06
977.259	4.70617e-06
985.817	4.62024e-06
994.375	6.06553e-06
1002.93	9.26212e-06
1011.49	9.07347e-06
1020.05	6.37911e-06
1028.61	6.97204e-06
1037.16	1.30879e-05
1045.72	2.11904e-05
1054.28	1.90287e-05
1062.84	1.21971e-05
1071.39	8.08821e-06
1079.95	1.02459e-05
1088.51	2.36072e-05
1097.07	2.04867e-05
1105.62	1.52314e-05
1114.18	5.81443e-06
1122.74	4.57218e-06
1131.3	4.24829e-06
1139.85	2.78424e-06
1148.41	3.03187e-06
1156.97	3.857e-06
1165.53	9.29003e-06
1174.09	6.43603e-06
1182.64	3.56697e-06
1191.2	2.45887e-06
1199.76	1.93174e-06
1208.32	1.48418e-06
1216.87	1.17641e-06
1225.43	1.15687e-06
1233.99	1.3825e-06
1242.55	2.7523e-06
1251.1	2.96104e-06
1259.66	3.56494e-06
1268.22	2.55632e-06
1276.78	1.89482e-06
1285.33	1.6431e-06
1293.89	1.48247e-06
1302.45	1.6855e-06
1311.01	2.19557e-06
1319.57	2.21757e-06
1328.12	2.59918e-06
1336.68	2.75037e-06
1345.24	3.54635e-06
1353.8	5.59911e-06
1362.35	8.5854e-06
1370.91	1.3803e-05
1379.47	2.66905e-05
1388.03	3.36e-05
1396.58	1.97674e-05
1405.14	1.61325e-05
1413.7	1.68979e-05
1422.26	1.86418e-05
1430.81	2.16225e-05
1439.37	3.5627e-05
1447.93	4.49404e-05
1456.49	4.33728e-05
1465.05	4.36857e-05
1473.6	5.24086e-05
1482.16	6.79435e-05
1490.72	9.43621e-05
1499.28	0.000107652
1507.83	9.10026e-05
1516.39	5.81664e-05
1524.95	4.75372e-05
1533.51	4.46416e-05
1542.06	3.62181e-05
1550.62	2.08426e-05
1559.18	1.66227e-05
1567.74	1.66979e-05
1576.29	1.64403e-05
1584.85	2.25179e-05
1593.41	3.87641e-05
1601.97	6.71402e-05
1610.53	0.000137157
1619.08	0.000161485
1627.64	6.71248e-05
1636.2	7.63395e-06
1644.76	5.1223e-06
1653.31	4.54345e-06
1661.87	5.22274e-06
1670.43	1.42209e-06
1678.99	5.9764e-07
1687.54	6.04997e-07
1696.1	2.06274e-07
1704.66	1.05868e-06
1713.22	1.39543e-06
1721.77	1.33826e-06
1730.33	3.11848e-06
1738.89	7.71652e-06
1747.45	6.59477e-06
1756.01	7.16169e-06
1764.56	6.52544e-06
1773.12	7.45753e-06
1781.68	6.59072e-06
1790.24	1.83963e-06
1798.79	1.02182e-06
1807.35	1.72491e-06
1815.91	2.10284e-06
1824.47	1.87062e-06
1833.02	3.07228e-06
1841.58	5.60039e-06
1850.14	1.31943e-05
1858.7	9.69756e-06
1867.25	2.52112e-06
1875.81	1.19247e-06
1884.37	1.07805e-06
1892.93	1.15206e-06
1901.49	1.51e-06
1910.04	2.67373e-06
1918.6	5.16434e-06
1927.16	1.12295e-05
1935.72	8.48918e-06
1944.27	5.48202e-06
1952.83	6.58287e-07
1961.39	8.00524e-08
1969.95	3.14621e-07
1978.5	1.31627e-07
1987.06	-2.8367e-09
1995.62	-4.68387e-10
2004.18	-8.51656e-08
2012.73	-7.54604e-08
2021.29	-4.64822e-08
2029.85	-1.90656e-07
2038.41	-2.61726e-07
2046.97	-4.20374e-07
2055.52	-4.6518e-07
2064.08	-2.88547e-07
2072.64	1.22754e-08
2081.2	9.65851e-08
2089.75	-2.57029e-07
2098.31	1.57136e-07
2106.87	4.35081e-07
2115.43	6.41494e-07
2123.98	-3.15689e-07
2132.54	-4.44109e-07
2141.1	-1.41675e-07
2149.66	9.02114e-08
2158.21	6.34447e-07
2166.77	-1.17492e-07
2175.33	-9.61422e-08
2183.89	-1.49953e-07
2192.45	-2.29654e-07
2201	-2.97777e-07
2209.56	1.84098e-07
2218.12	1.94313e-07
2226.68	-1.14769e-08
2235.23	-1.77094e-07
2243.79	-9.55974e-08
2252.35	-7.78623e-08
2260.91	4.5577e-07
2269.46	4.54347e-07
2278.02	8.37497e-07
2286.58	1.48253e-06
2295.14	1.52814e-06
2303.69	5.51724e-07
2312.25	5.68155e-07
2320.81	9.94789e-07
2329.37	1.30628e-06
2337.93	1.90585e-06
2346.48	1.6651e-06
2355.04	1.10312e-06
2363.6	1.13349e-06
2372.16	6.91833e-07
2380.71	7.91603e-07
2389.27	1.29956e-06
2397.83	1.25532e-06
2406.39	1.14405e-06
2414.94	1.78278e-06
2423.5	1.7773e-06
2432.06	1.71165e-06
2440.62	1.29846e-06
2449.17	1.44766e-06
2457.73	1.32253e-06
2466.29	1.1854e-06
2474.85	1.19023e-06
2483.41	1.39795e-06
2491.96	1.11512e-06
2500.52	1.1426e-06
2509.08	8.87789e-07
2517.64	4.39215e-07
2526.19	4.52852e-07
2534.75	1.1171e-06
2543.31	1.20445e-06
2551.87	7.60551e-07
2560.42	3.70492e-07
2568.98	3.16701e-07
2577.54	1.97796e-07
2586.1	3.67006e-07
2594.65	2.62535e-07
2603.21	5.68065e-07
2611.77	6.21297e-07
2620.33	6.25251e-07
2628.89	7.5985e-07
2637.44	9.81171e-07
2646	7.38159e-07
2654.56	5.29511e-07
2663.12	3.58021e-07
2671.67	3.33192e-08
2680.23	5.89477e-08
2688.79	1.37007e-07
2697.35	-9.4697e-08
2705.9	3.75756e-07
2714.46	1.17294e-06
2723.02	1.88559e-06
2731.58	5.90229e-06
2740.13	1.13782e-05
2748.69	1.51437e-05
2757.25	4.03283e-06
2765.81	2.10631e-06
2774.37	1.67216e-06
2782.92	1.79854e-06
2791.48	2.28493e-06
2800.04	3.18081e-06
2808.6	4.13657e-06
2817.15	5.71711e-06
2825.71	7.93086e-06
2834.27	1.05809e-05
2842.83	1.49406e-05
2851.38	2.5501e-05
2859.94	5.05508e-05
2868.5	9.44055e-05
2877.06	0.000121243
2885.61	0.000112837
2894.17	9.22202e-05
2902.73	9.75912e-05
2911.29	0.000115208
2919.85	0.000158359
2928.4	0.000227153
2936.96	0.000257463
2945.52	0.000221367
2954.08	0.000134825
2962.63	9.51844e-05
2971.19	6.87034e-05
2979.75	7.49153e-05
2988.31	8.93014e-05
2996.86	0.000110344
3005.42	0.000137654
3013.98	0.000176679
3022.54	0.000218307
3031.09	0.000239816
3039.65	0.000211904
3048.21	0.000172194
3056.77	0.000133818
3065.33	0.000117505
3073.88	8.90794e-05
3082.44	4.33475e-05
3091	3.02157e-05
3099.56	2.40433e-05
3108.11	2.13376e-05
3116.67	1.92819e-05
3125.23	1.40158e-05
3133.79	5.89597e-06
3142.34	2.36233e-06
3150.9	1.3029e-06
3159.46	8.36185e-07
3168.02	7.22975e-07
3176.57	4.4757e-07
3185.13	5.54314e-07
3193.69	3.29485e-07
3202.25	4.37978e-07
3210.81	5.13714e-07
3219.36	-1.27734e-07
3227.92	-5.11899e-07
3236.48	-6.03353e-07
3245.04	-5.89535e-07
3253.59	8.7824e-08
3262.15	4.87841e-07
3270.71	5.89607e-07
3279.27	7.35241e-08
3287.82	6.94405e-08
3296.38	2.46443e-07
3304.94	1.57034e-07
3313.5	-6.8983e-08
3322.05	-1.51111e-07
3330.61	-2.29751e-07
3339.17	-3.731e-08
3347.73	-2.39432e-08
3356.29	-6.8059e-08
3364.84	-2.66394e-07
3373.4	1.76869e-07
3381.96	2.85607e-08
3390.52	4.26329e-07
3399.07	5.96516e-08
3407.63	2.417e-07
3416.19	1.0069e-07
3424.75	2.45517e-07
3433.3	4.85785e-07
3441.86	3.46668e-07
3450.42	8.76334e-07
3458.98	8.72461e-07
3467.53	6.44646e-07
3476.09	8.96202e-08
3484.65	-2.59354e-07
3493.21	-2.366e-07
3501.77	-4.17295e-07
3510.32	-6.18325e-07
3518.88	-1.53266e-07
3527.44	-4.22233e-07
3536	-9.68061e-09
3544.55	2.61341e-07
3553.11	4.94464e-07
3561.67	9.26889e-08
3570.23	2.77549e-07
3578.78	1.782e-07
3587.34	-6.09895e-08
3595.9	1.81651e-07
3604.46	-5.95232e-07
3613.01	-4.18616e-07
3621.57	-2.93649e-07
3630.13	-1.07782e-07
3638.69	-4.64645e-07
3647.25	-4.96915e-07
3655.8	-3.68311e-07
3664.36	-5.24107e-07
3672.92	1.04132e-07
3681.48	-2.36358e-07
3690.03	-3.74149e-07
3698.59	-3.35324e-07
3707.15	-4.0315e-08
3715.71	-1.85355e-07
3724.26	-4.37827e-07
3732.82	3.45905e-07
3741.38	5.30617e-07
3749.94	4.2593e-07
3758.49	4.30593e-07
3767.05	7.46217e-07
3775.61	8.8845e-07
3784.17	8.32254e-07
3792.73	4.68309e-07
3801.28	-7.99122e-07
3809.84	3.51176e-07
3818.4	1.65378e-07
3826.96	1.91079e-07
3835.51	7.32394e-07
3844.07	6.05032e-07
3852.63	1.21852e-07
3861.19	2.43249e-07
3869.74	2.03183e-07
3878.3	5.25019e-07
3886.86	1.11293e-06
3895.42	9.8026e-07
3903.97	1.31119e-06
3912.53	1.63561e-06
3921.09	1.69916e-06
3929.65	1.56393e-06
3938.21	1.12076e-06
3946.76	1.45653e-06
3955.32	1.28532e-06
3963.88	1.7091e-06
3972.44	1.46833e-06
