Infrared Spectrum: 1,3-BENZENEDIOL
Formula: C6 H6 O2
CAS: 108-46-3
State: SOLID (SPLIT MULL, FLUOROLUBE FOR 3800-1340 AND NUJOL FOR 1340-400 CM ^-^1)
Class: COBLENTZ III
Instrument: DOW KBr FOREPRISM-GRATING
Instrument parameters: BLAZED AT 3.5, 12.0, 20.0 MICRON, CHANGED AT 5.0, 7.5, 14.9 MICRON
Sampling: TRANSMISSION
Resolution: 4
Origin: DOW CHEMICAL COMPANY
1/CM	TRANSMITTANCE
383.957	1.123
392.518	1.123
401.078	1.123
409.639	1.123
418.199	1.123
426.76	1.125
435.32	1.119
443.881	1.109
452.442	1.097
461.002	0.926
469.563	1.104
478.123	1.098
486.684	1.082
495.244	1.05
503.805	1.056
512.366	1.054
520.926	1.038
529.487	1.01
538.047	0.961
546.608	0.737
555.168	1.002
563.729	1.03
572.29	1.035
580.85	1.036
589.411	1.036
597.971	1.029
606.532	1.019
615.092	1.023
623.653	1.019
632.214	1.007
640.774	0.994
649.335	0.983
657.895	0.979
666.456	0.955
675.017	0.924
683.577	0.741
692.138	0.853
700.698	0.874
709.259	0.862
717.819	0.8
726.38	0.762
734.941	0.7151
743.501	0.5199
752.062	0.806
760.622	0.839
769.183	0.762
777.743	0.3699
786.304	0.716
794.865	0.753
803.425	0.755
811.986	0.774
820.546	0.815
829.107	0.853
837.667	0.861
846.228	0.6629
854.789	0.87
863.349	0.789
871.91	0.946
880.47	0.946
889.031	0.941
897.591	0.941
906.152	0.939
914.713	0.933
923.273	0.914
931.834	0.902
940.394	0.902
948.955	0.883
957.515	0.594
966.076	0.3561
974.637	0.902
983.197	0.952
991.758	0.954
1000.32	0.951
1008.88	0.954
1017.44	0.951
1026	0.948
1034.56	0.945
1043.12	0.941
1051.68	0.936
1060.24	0.932
1068.8	0.921
1077.36	0.899
1085.92	0.873
1094.48	0.912
1103.05	0.905
1111.61	0.887
1120.17	0.867
1128.73	0.812
1137.29	0.709
1145.85	0.362
1154.41	0.1601
1162.97	0.75
1171.53	0.7366
1180.09	0.893
1188.65	0.912
1197.21	0.91
1205.77	0.898
1214.33	0.893
1222.89	0.887
1231.45	0.88
1240.01	0.874
1248.57	0.867
1257.14	0.843
1265.7	0.803
1274.26	0.734
1282.82	0.623
1291.38	0.564
1299.94	0.429
1308.5	0.492
1317.06	0.461
1325.62	0.479
1334.18	0.504
1342.74	0.48
1351.3	0.497
1359.86	0.523
1368.42	0.489
1376.98	0.417
1385.54	0.433
1394.1	0.479
1402.67	0.538
1411.23	0.617
1419.79	0.662
1428.35	0.691
1436.91	0.706
1445.47	0.693
1454.03	0.61
1462.59	0.556
1471.15	0.539
1479.71	0.467
1488.27	0.3109
1496.83	0.2563
1505.39	0.631
1513.95	0.769
1522.51	0.868
1531.07	0.83
1539.63	0.84
1548.2	0.836
1556.76	0.839
1565.32	0.814
1573.88	0.768
1582.44	0.725
1591	0.66
1599.56	0.541
1608.12	0.237
1616.68	0.38
1625.24	0.4981
1633.8	0.719
1642.36	0.923
1650.92	0.966
1659.48	0.955
1668.04	0.933
1676.6	0.92
1685.16	0.902
1693.72	0.89
1702.29	0.895
1710.85	0.91
1719.41	0.91
1727.97	0.902
1736.53	0.896
1745.09	0.892
1753.65	0.889
1762.21	0.883
1770.77	0.879
1779.33	0.874
1787.89	0.873
1796.45	0.871
1805.01	0.87
1813.57	0.867
1822.13	0.867
1830.69	0.871
1839.25	0.87
1847.82	0.868
1856.38	0.862
1864.94	0.858
1873.5	0.855
1882.06	0.851
1890.62	0.849
1899.18	0.853
1907.74	0.853
1916.3	0.851
1924.86	0.846
1933.42	0.845
1941.98	0.858
1950.54	0.859
1959.1	0.856
1967.66	0.855
1976.22	0.852
1984.78	0.849
1993.34	0.846
2001.91	0.845
2010.47	0.842
2019.03	0.84
2027.59	0.838
2036.15	0.836
2044.71	0.834
2053.27	0.831
2061.83	0.83
2070.39	0.828
2078.95	0.825
2087.51	0.824
2096.07	0.8219
2104.63	0.82
2113.19	0.817
2121.75	0.814
2130.31	0.811
2138.87	0.8089
2147.44	0.805
2156	0.7999
2164.56	0.796
2173.12	0.7899
2181.68	0.7834
2190.24	0.7767
2198.8	0.7697
2207.36	0.765
2215.92	0.759
2224.48	0.7525
2233.04	0.7416
2241.6	0.731
2250.16	0.7256
2258.72	0.7188
2267.28	0.713
2275.84	0.709
2284.4	0.706
2292.96	0.6986
2301.53	0.6916
2310.09	0.6865
2318.65	0.6783
2327.21	0.672
2335.77	0.669
2344.33	0.671
2352.89	0.672
2361.45	0.674
2370.01	0.675
2378.57	0.678
2387.13	0.678
2395.69	0.676
2404.25	0.674
2412.81	0.669
2421.37	0.6635
2429.93	0.659
2438.49	0.6562
2447.06	0.654
2455.62	0.654
2464.18	0.653
2472.74	0.65
2481.3	0.648
2489.86	0.6461
2498.42	0.6436
2506.98	0.6401
2515.54	0.64
2524.1	0.64
2532.66	0.64
2541.22	0.6428
2549.78	0.644
2558.34	0.647
2566.9	0.646
2575.46	0.641
2584.02	0.632
2592.58	0.6261
2601.15	0.6195
2609.71	0.615
2618.27	0.6076
2626.83	0.603
2635.39	0.601
2643.95	0.601
2652.51	0.606
2661.07	0.613
2669.63	0.6165
2678.19	0.617
2686.75	0.616
2695.31	0.613
2703.87	0.609
2712.43	0.604
2720.99	0.6005
2729.55	0.5939
2738.11	0.589
2746.68	0.587
2755.24	0.5844
2763.8	0.584
2772.36	0.584
2780.92	0.5838
2789.48	0.581
2798.04	0.5778
2806.6	0.573
2815.16	0.566
2823.72	0.561
2832.28	0.5527
2840.84	0.5474
2849.4	0.5377
2857.96	0.5267
2866.52	0.5185
2875.08	0.5117
2883.64	0.507
2892.21	0.5107
2900.77	0.513
2909.33	0.5103
2917.89	0.5048
2926.45	0.501
2935.01	0.498
2943.57	0.4943
2952.13	0.4883
2960.69	0.4793
2969.25	0.4685
2977.81	0.4573
2986.37	0.448
2994.93	0.443
3003.49	0.4405
3012.05	0.4365
3020.61	0.4315
3029.17	0.4236
3037.73	0.4064
3046.3	0.3956
3054.86	0.3821
3063.42	0.3762
3071.98	0.3694
3080.54	0.3624
3089.1	0.3527
3097.66	0.3425
3106.22	0.3323
3114.78	0.3232
3123.34	0.3163
3131.9	0.3081
3140.46	0.2979
3149.02	0.2844
3157.58	0.2686
3166.14	0.2562
3174.7	0.2452
3183.26	0.2352
3191.83	0.2306
3200.39	0.2241
3208.95	0.225
3217.51	0.2299
3226.07	0.2339
3234.63	0.2429
3243.19	0.2479
3251.75	0.2529
3260.31	0.2594
3268.87	0.2749
3277.43	0.2993
3285.99	0.3239
3294.55	0.347
3303.11	0.373
3311.67	0.4035
3320.23	0.427
3328.79	0.4626
3337.35	0.4891
3345.92	0.5156
3354.48	0.5631
3363.04	0.6021
3371.6	0.6324
3380.16	0.6568
3388.72	0.6826
3397.28	0.706
3405.84	0.724
3414.4	0.7367
3422.96	0.7532
3431.52	0.7634
3440.08	0.7741
3448.64	0.7792
3457.2	0.7872
3465.76	0.793
3474.32	0.794
3482.88	0.793
3491.45	0.79
3500.01	0.787
3508.57	0.7809
3517.13	0.777
3525.69	0.7737
3534.25	0.7683
3542.81	0.7636
3551.37	0.7583
3559.93	0.7546
3568.49	0.7493
3577.05	0.7396
3585.61	0.735
3594.17	0.734
3602.73	0.7273
3611.29	0.7248
3619.85	0.722
3628.41	0.719
3636.97	0.7153
3645.54	0.7112
3654.1	0.7062
3662.66	0.7045
3671.22	0.7004
3679.78	0.6967
3688.34	0.6932
3696.9	0.69
3705.46	0.685
3714.02	0.682
3722.58	0.678
3731.14	0.674
3739.7	0.6724
3748.26	0.6673
3756.82	0.666
3765.38	0.6627
3773.94	0.6591
3782.5	0.657
3791.07	0.656
