Infrared Spectrum: 1,3-Dimethylbenzene
Formula: 1,3-( C H3)2 C6 H4
CAS: 108-38-3
State: gas
Melting point: -47.87 C
Boiling point: 139.1 C
Class: IUPAC A
Instrument: IFS66V (Bruker)
Instrument parameters: KBr Beam Splitter; MCT Detector; Multipass cell
Sampling: 1 L/min Flow
Resolution: 0.4820
Temperature: 23 C
Pressure: 101.3 Pa
Origin: NIST, Analytical Chemistry Division, 301-975-3108
cm-1	(micromol/mol)-1m-1 (base 10)
575.17	-1.65779e-06
583.848	-5.3324e-07
592.526	3.41211e-07
601.205	-3.63628e-07
609.883	-4.87329e-07
618.561	-6.68539e-08
627.239	-3.58906e-07
635.917	-3.58297e-07
644.595	6.08231e-08
653.274	9.73931e-07
661.952	2.44614e-06
670.63	1.02773e-05
679.308	4.25366e-05
687.986	7.59521e-05
696.665	6.32685e-05
705.343	3.27626e-05
714.021	5.24256e-06
722.699	1.438e-06
731.377	1.53758e-06
740.055	3.96886e-06
748.734	3.41952e-05
757.412	0.0001345
766.09	0.000293483
774.768	0.000167378
783.446	7.47914e-05
792.124	8.11495e-06
800.803	1.63037e-06
809.481	9.6858e-07
818.159	6.26288e-07
826.837	6.53037e-07
835.515	6.02229e-07
844.194	6.2008e-07
852.872	1.46668e-06
861.55	7.89557e-06
870.228	1.38942e-05
878.906	1.31585e-05
887.584	1.10795e-05
896.263	1.27984e-05
904.941	1.67427e-05
913.619	1.17118e-05
922.297	1.07654e-06
930.975	1.50647e-06
939.654	2.21133e-06
948.332	2.68772e-06
957.01	3.13999e-06
965.688	4.03016e-06
974.366	4.92087e-06
983.044	4.30209e-06
991.723	5.40886e-06
1000.4	8.31316e-06
1009.08	1.00359e-05
1017.76	7.4597e-06
1026.44	6.19201e-06
1035.11	1.13652e-05
1043.79	2.4021e-05
1052.47	1.93394e-05
1061.15	1.39476e-05
1069.83	8.81675e-06
1078.5	8.99129e-06
1087.18	2.10497e-05
1095.86	1.92024e-05
1104.54	1.76619e-05
1113.22	6.06717e-06
1121.9	4.66694e-06
1130.57	4.54065e-06
1139.25	2.90838e-06
1147.93	2.63931e-06
1156.61	4.11096e-06
1165.29	9.43536e-06
1173.96	6.43256e-06
1182.64	3.46014e-06
1191.32	2.43376e-06
1200	1.9454e-06
1208.68	1.4171e-06
1217.36	1.19501e-06
1226.03	1.08053e-06
1234.71	1.58066e-06
1243.39	3.11414e-06
1252.07	3.04933e-06
1260.75	3.54365e-06
1269.42	2.86775e-06
1278.1	1.9696e-06
1286.78	1.49995e-06
1295.46	1.92978e-06
1304.14	2.07002e-06
1312.82	2.13176e-06
1321.49	2.2299e-06
1330.17	2.40488e-06
1338.85	2.66052e-06
1347.53	3.77672e-06
1356.21	6.34063e-06
1364.88	9.43703e-06
1373.56	1.79907e-05
1382.24	2.95168e-05
1390.92	2.84663e-05
1399.6	1.88874e-05
1408.28	1.59076e-05
1416.95	1.722e-05
1425.63	1.87457e-05
1434.31	2.69465e-05
1442.99	3.93007e-05
1451.67	4.69475e-05
1460.34	4.1752e-05
1469.02	4.87015e-05
1477.7	5.87601e-05
1486.38	8.46017e-05
1495.06	0.000107339
1503.74	0.000103576
1512.41	6.82065e-05
1521.09	4.95758e-05
1529.77	4.71343e-05
1538.45	4.04574e-05
1547.13	2.54603e-05
1555.8	1.76197e-05
1564.48	1.60567e-05
1573.16	1.76228e-05
1581.84	1.9236e-05
1590.52	3.22352e-05
1599.2	4.85255e-05
1607.87	0.000102451
1616.55	0.000133592
1625.23	0.000107997
1633.91	1.04741e-05
1642.59	5.01843e-06
1651.26	6.4703e-06
1659.94	4.98766e-06
1668.62	1.87319e-06
1677.3	7.50045e-07
1685.98	5.3606e-07
1694.66	9.40767e-07
1703.33	1.24771e-06
1712.01	1.4726e-06
1720.69	1.22512e-06
1729.37	3.02609e-06
1738.05	7.19342e-06
1746.72	6.51616e-06
1755.4	7.29012e-06
1764.08	6.29337e-06
1772.76	7.12688e-06
1781.44	6.77539e-06
1790.12	1.93938e-06
1798.79	9.72918e-07
1807.47	1.70231e-06
1816.15	2.10616e-06
1824.83	1.83323e-06
1833.51	3.28021e-06
1842.18	5.80669e-06
1850.86	1.2588e-05
1859.54	1.0516e-05
1868.22	1.80116e-06
1876.9	1.17645e-06
1885.58	1.02924e-06
1894.25	1.10928e-06
1902.93	1.72357e-06
1911.61	3.06981e-06
1920.29	6.00739e-06
1928.97	1.20535e-05
1937.64	1.15376e-05
1946.32	3.64263e-06
1955	3.42468e-07
1963.68	1.29372e-07
1972.36	2.2202e-07
1981.04	5.86003e-08
1989.71	1.4872e-08
1998.39	2.18187e-09
2007.07	-8.32411e-08
2015.75	-3.97929e-08
2024.43	8.33093e-08
2033.1	-2.49191e-07
2041.78	-3.32872e-07
2050.46	-4.77083e-07
2059.14	-3.73221e-07
2067.82	-1.89508e-07
2076.5	-1.84177e-07
2085.17	-4.14464e-08
2093.85	-2.82843e-07
2102.53	2.32771e-07
2111.21	7.1547e-07
2119.89	9.56511e-08
2128.56	-3.12907e-07
2137.24	-8.59304e-08
2145.92	7.71111e-08
2154.6	4.45595e-07
2163.28	-2.0352e-07
2171.96	-1.87667e-07
2180.63	-2.68262e-07
2189.31	-3.36801e-07
2197.99	-2.29192e-07
2206.67	-7.44099e-08
2215.35	1.12295e-08
2224.02	-3.43796e-08
2232.7	-3.52233e-07
2241.38	-1.71978e-07
2250.06	-5.50396e-08
2258.74	4.19581e-07
2267.42	6.97868e-07
2276.09	9.42992e-07
2284.77	1.34745e-06
2293.45	1.78292e-06
2302.13	6.74389e-07
2310.81	5.04742e-07
2319.48	8.22026e-07
2328.16	1.06437e-06
2336.84	1.55971e-06
2345.52	1.4673e-06
2354.2	1.57607e-06
2362.88	1.74897e-06
2371.55	9.66101e-07
2380.23	7.20691e-07
2388.91	1.21881e-06
2397.59	1.24795e-06
2406.27	1.2246e-06
2414.94	1.79515e-06
2423.62	1.93906e-06
2432.3	1.64075e-06
2440.98	1.28603e-06
2449.66	1.4025e-06
2458.34	1.33184e-06
2467.01	1.49945e-06
2475.69	1.22759e-06
2484.37	1.37099e-06
2493.05	1.30663e-06
2501.73	1.13935e-06
2510.4	7.37195e-07
2519.08	4.51245e-07
2527.76	3.46581e-07
2536.44	1.06005e-06
2545.12	1.34316e-06
2553.8	4.97919e-07
2562.47	4.46104e-07
2571.15	3.77872e-07
2579.83	2.23953e-07
2588.51	4.14053e-07
2597.19	5.24868e-07
2605.86	5.76226e-07
2614.54	6.41913e-07
2623.22	7.91695e-07
2631.9	7.84841e-07
2640.58	8.27661e-07
2649.26	6.63782e-07
2657.93	3.31639e-07
2666.61	1.63802e-07
2675.29	2.58719e-07
2683.97	-4.16701e-08
2692.65	2.61798e-07
2701.32	3.57779e-07
2710	6.954e-07
2718.68	1.43831e-06
2727.36	3.11164e-06
2736.04	1.10999e-05
2744.71	1.18701e-05
2753.39	7.19136e-06
2762.07	2.57447e-06
2770.75	1.89096e-06
2779.43	1.9775e-06
2788.11	2.19149e-06
2796.78	2.85282e-06
2805.46	3.66068e-06
2814.14	4.96478e-06
2822.82	7.43937e-06
2831.5	9.62948e-06
2840.17	1.32518e-05
2848.85	2.17799e-05
2857.53	4.14105e-05
2866.21	8.19238e-05
2874.89	0.000118481
2883.57	0.000117967
2892.24	9.43709e-05
2900.92	9.3987e-05
2909.6	0.000111314
2918.28	0.000147021
2926.96	0.00021774
2935.63	0.000257695
2944.31	0.000230544
2952.99	0.000139557
2961.67	9.7778e-05
2970.35	6.9905e-05
2979.03	7.29756e-05
2987.7	8.77516e-05
2996.38	0.000109569
3005.06	0.000135983
3013.74	0.000176129
3022.42	0.000218089
3031.09	0.000239916
3039.77	0.0002113
3048.45	0.000170612
3057.13	0.000133487
3065.81	0.000118011
3074.49	8.45599e-05
3083.16	4.12419e-05
3091.84	2.88702e-05
3100.52	2.36727e-05
3109.2	2.11159e-05
3117.88	1.85663e-05
3126.55	1.27401e-05
3135.23	4.81055e-06
3143.91	2.02368e-06
3152.59	1.1351e-06
3161.27	8.86675e-07
3169.95	6.36164e-07
3178.62	6.26593e-07
3187.3	4.58765e-07
3195.98	4.31588e-07
3204.66	3.43242e-07
3213.34	2.35031e-07
3222.01	-1.01658e-07
3230.69	-3.4106e-07
3239.37	-4.31134e-07
3248.05	-3.8196e-07
3256.73	1.0008e-08
3265.41	3.16293e-07
3274.08	1.58142e-07
3282.76	-8.10028e-08
3291.44	-3.80803e-09
3300.12	1.78231e-07
3308.8	7.7595e-08
3317.47	-1.53815e-07
3326.15	-1.61155e-07
3334.83	-5.64175e-08
3343.51	-6.84146e-08
3352.19	-1.63072e-07
3360.87	-1.19588e-07
3369.54	-5.3759e-08
3378.22	8.61132e-08
3386.9	-1.70711e-09
3395.58	4.63792e-07
3404.26	3.86925e-07
3412.93	7.66186e-07
3421.61	5.96598e-07
3430.29	3.91224e-07
3438.97	3.4618e-07
3447.65	3.72257e-07
3456.33	4.77041e-07
3465	5.06905e-07
3473.68	1.56893e-07
3482.36	2.42061e-07
3491.04	-1.7303e-07
3499.72	-2.09972e-07
3508.39	-3.06089e-07
3517.07	-1.32154e-07
3525.75	-1.85327e-08
3534.43	-2.17213e-08
3543.11	-1.82689e-08
3551.79	5.32043e-07
3560.46	2.68876e-07
3569.14	3.49031e-07
3577.82	9.50963e-08
3586.5	-1.59003e-07
3595.18	-4.24953e-07
3603.85	-4.23693e-07
3612.53	-4.66135e-07
3621.21	-2.29543e-07
3629.89	-4.8171e-07
3638.57	-3.65271e-07
3647.25	-4.77025e-07
3655.92	-3.86786e-07
3664.6	-1.61093e-07
3673.28	-2.2269e-07
3681.96	-1.49224e-07
3690.64	-3.93534e-07
3699.31	-4.09181e-07
3707.99	-1.57878e-07
3716.67	-2.23608e-07
3725.35	-7.75677e-08
3734.03	3.82568e-07
3742.71	6.11004e-07
3751.38	4.9831e-07
3760.06	2.33452e-07
3768.74	7.7744e-07
3777.42	6.10473e-07
3786.1	7.43447e-07
3794.77	4.53725e-07
3803.45	2.85384e-07
3812.13	1.53239e-07
3820.81	-4.5138e-08
3829.49	5.73305e-07
3838.17	-8.98758e-09
3846.84	5.39938e-07
3855.52	5.19524e-07
3864.2	2.75739e-07
3872.88	3.97585e-07
3881.56	6.00925e-07
3890.23	8.96571e-07
3898.91	1.15711e-06
3907.59	1.64766e-06
3916.27	1.80098e-06
3924.95	1.75266e-06
3933.63	1.44811e-06
3942.3	1.35977e-06
3950.98	1.43249e-06
3959.66	1.53125e-06
3968.34	1.49093e-06
