Infrared Spectrum: Ethenyl Ester-Acetic Acid
Formula: C H3 C O2 C H: C H2
CAS: 108-05-4
State: gas
Melting point: -93.2 C
Boiling point: 72.2 C
Class: IUPAC A
Instrument: IFS66V (Bruker)
Instrument parameters: KBr Beam splitter; MCT Detector; Multipass cell
Sampling: 1 L/min Flow
Resolution: 0.4820
Temperature: 23 C
Pressure: 101.3 kPa
Origin: NIST, Anayltical Chemistry Division, 301-975-3108
cm-1	(micromol/mol)-1m-1 (base 10)
574.928	1.06049e-05
583.606	1.95337e-05
592.284	3.80312e-05
600.962	2.88502e-05
609.641	3.25127e-05
618.319	3.42409e-05
626.997	4.22182e-05
635.675	4.20572e-05
644.353	4.1141e-05
653.031	2.50788e-05
661.71	1.29686e-05
670.388	5.84866e-06
679.066	4.80882e-06
687.744	6.55667e-06
696.422	9.62738e-06
705.1	1.08394e-05
713.778	1.21162e-05
722.457	9.00481e-06
731.135	7.17105e-06
739.813	5.88639e-06
748.491	5.66379e-06
757.169	6.36273e-06
765.847	7.74746e-06
774.526	9.76849e-06
783.204	9.5872e-06
791.882	9.11515e-06
800.56	9.1272e-06
809.238	1.0502e-05
817.916	1.51169e-05
826.594	2.52193e-05
835.273	5.1994e-05
843.951	8.86367e-05
852.629	0.000131979
861.307	0.000155298
869.985	0.000272117
878.663	0.00016057
887.342	0.000125422
896.02	6.04935e-05
904.698	2.09683e-05
913.376	1.30172e-05
922.054	2.32503e-05
930.732	5.42918e-05
939.41	8.73879e-05
948.089	0.000126202
956.767	0.00015627
965.445	0.000114594
974.123	0.000107418
982.801	0.000104744
991.479	6.67224e-05
1000.16	8.92055e-05
1008.84	0.000186418
1017.51	0.000340525
1026.19	0.000358133
1034.87	0.000229673
1043.55	8.58507e-05
1052.23	6.85673e-05
1060.9	6.1237e-05
1069.58	5.58342e-05
1078.26	4.8035e-05
1086.94	3.94388e-05
1095.62	3.20161e-05
1104.3	2.92315e-05
1112.97	3.21556e-05
1121.65	4.95029e-05
1130.33	0.000166914
1139.01	0.000843322
1147.69	0.000944364
1156.36	0.000838327
1165.04	8.69906e-05
1173.72	4.67875e-05
1182.4	6.47636e-05
1191.08	0.000114181
1199.76	0.000299271
1208.43	0.0010697
1217.11	0.0026053
1225.79	0.0027714
1234.47	0.00184683
1243.15	0.000364333
1251.82	0.000227839
1260.5	0.000183398
1269.18	6.70591e-05
1277.86	5.76286e-05
1286.54	0.000141277
1295.21	0.000172147
1303.89	0.000160764
1312.57	5.03725e-05
1321.25	1.895e-05
1329.93	1.29156e-05
1338.61	1.26667e-05
1347.28	2.04145e-05
1355.96	5.89187e-05
1364.64	0.000228287
1373.32	0.000385493
1382	0.000439987
1390.67	0.000200259
1399.35	7.35146e-05
1408.03	2.98594e-05
1416.71	2.83406e-05
1425.39	3.23546e-05
1434.07	4.02101e-05
1442.74	3.55648e-05
1451.42	3.36392e-05
1460.1	2.72123e-05
1468.78	2.26303e-05
1477.46	2.07812e-05
1486.13	1.85211e-05
1494.81	1.63915e-05
1503.49	1.52866e-05
1512.17	1.42459e-05
1520.85	1.31776e-05
1529.52	1.21145e-05
1538.2	1.09097e-05
1546.88	1.15614e-05
1555.56	1.47017e-05
1564.24	1.77193e-05
1572.92	1.97291e-05
1581.59	2.16511e-05
1590.27	2.22313e-05
1598.95	2.26795e-05
1607.63	2.55601e-05
1616.31	3.41004e-05
1624.98	4.45239e-05
1633.66	7.51182e-05
1642.34	0.000313918
1651.02	0.000404171
1659.7	0.000534102
1668.38	9.23981e-05
1677.05	2.89929e-05
1685.73	1.75474e-05
1694.41	1.61916e-05
1703.09	1.39863e-05
1711.77	1.2281e-05
1720.44	1.21392e-05
1729.12	1.85265e-05
1737.8	2.72376e-05
1746.48	5.56225e-05
1755.16	0.00013292
1763.84	0.000355589
1772.51	0.000956403
1781.19	0.00111693
1789.87	0.00148662
1798.55	0.000630347
1807.23	0.000214848
1815.9	5.44302e-05
1824.58	2.27787e-05
1833.26	2.02205e-05
1841.94	1.81174e-05
1850.62	2.18796e-05
1859.29	2.67098e-05
1867.97	2.81748e-05
1876.65	2.50454e-05
1885.33	1.64041e-05
1894.01	1.45058e-05
1902.69	1.37196e-05
1911.36	1.02428e-05
1920.04	5.78286e-06
1928.72	4.26453e-06
1937.4	4.6524e-06
1946.08	5.18577e-06
1954.75	5.40508e-06
1963.43	5.02416e-06
1972.11	4.93148e-06
1980.79	8.77902e-06
1989.47	1.3046e-05
1998.15	1.38355e-05
2006.82	7.5687e-06
2015.5	5.32565e-06
2024.18	5.25014e-06
2032.86	5.4589e-06
2041.54	7.23737e-06
2050.21	1.40611e-05
2058.89	2.51158e-05
2067.57	2.79858e-05
2076.25	2.06016e-05
2084.93	8.47207e-06
2093.6	5.98236e-06
2102.28	5.60269e-06
2110.96	6.71596e-06
2119.64	6.9641e-06
2128.32	7.26632e-06
2137	4.18787e-06
2145.67	4.11153e-06
2154.35	4.40428e-06
2163.03	4.86857e-06
2171.71	4.62929e-06
2180.39	3.93247e-06
2189.06	2.56826e-06
2197.74	2.14202e-06
2206.42	2.13267e-06
2215.1	3.23412e-06
2223.78	4.45005e-06
2232.46	4.77719e-06
2241.13	3.88282e-06
2249.81	3.02338e-06
2258.49	2.26896e-06
2267.17	2.73599e-06
2275.85	6.49866e-06
2284.52	1.1256e-05
2293.2	1.12087e-05
2301.88	5.13195e-06
2310.56	1.29393e-06
2319.24	1.18612e-06
2327.92	1.39533e-06
2336.59	2.42308e-06
2345.27	3.3446e-06
2353.95	4.19211e-06
2362.63	3.80319e-06
2371.31	3.22148e-06
2379.98	2.45399e-06
2388.66	1.52774e-06
2397.34	1.84634e-06
2406.02	2.51728e-06
2414.7	3.60816e-06
2423.37	5.51891e-06
2432.05	8.17641e-06
2440.73	8.23196e-06
2449.41	6.39086e-06
2458.09	2.83504e-06
2466.77	1.92899e-06
2475.44	1.63315e-06
2484.12	1.63265e-06
2492.8	1.88507e-06
2501.48	1.89634e-06
2510.16	9.78506e-07
2518.83	7.31798e-07
2527.51	5.72255e-07
2536.19	3.85465e-07
2544.87	3.00155e-07
2553.55	2.54962e-07
2562.23	2.74141e-07
2570.9	5.67046e-07
2579.58	1.28683e-06
2588.26	1.98846e-06
2596.94	1.82131e-06
2605.62	1.3376e-06
2614.29	1.14901e-06
2622.97	1.92634e-06
2631.65	2.10704e-06
2640.33	1.84361e-06
2649.01	9.10021e-07
2657.68	9.13655e-07
2666.36	1.16473e-06
2675.04	1.14554e-06
2683.72	8.6488e-07
2692.4	5.07659e-07
2701.08	3.50564e-07
2709.75	4.01151e-07
2718.43	4.55132e-07
2727.11	5.22468e-07
2735.79	9.31393e-07
2744.47	2.14208e-06
2753.14	3.02711e-06
2761.82	3.21766e-06
2770.5	1.92633e-06
2779.18	1.02534e-06
2787.86	1.35209e-06
2796.54	1.49492e-06
2805.21	1.28563e-06
2813.89	6.71421e-07
2822.57	6.42759e-07
2831.25	7.59554e-07
2839.93	1.05216e-06
2848.6	1.83279e-06
2857.28	2.37374e-06
2865.96	2.38389e-06
2874.64	1.72352e-06
2883.32	1.30167e-06
2892	1.13336e-06
2900.67	1.15448e-06
2909.35	1.18549e-06
2918.03	1.39829e-06
2926.71	2.06985e-06
2935.39	4.01167e-06
2944.06	8.72023e-06
2952.74	1.07411e-05
2961.42	1.24791e-05
2970.1	9.46529e-06
2978.78	8.98598e-06
2987.45	9.8652e-06
2996.13	1.22433e-05
3004.81	1.139e-05
3013.49	1.15611e-05
3022.17	1.35113e-05
3030.85	1.70254e-05
3039.52	1.88278e-05
3048.2	2.06258e-05
3056.88	2.21603e-05
3065.56	2.34668e-05
3074.24	1.83925e-05
3082.91	1.77721e-05
3091.59	3.69164e-05
3100.27	4.1646e-05
3108.95	4.80267e-05
3117.63	1.81344e-05
3126.31	2.59442e-05
3134.98	2.23112e-05
3143.66	1.50984e-05
3152.34	4.85367e-06
3161.02	2.35646e-06
3169.7	1.50243e-06
3178.37	1.12777e-06
3187.05	1.03398e-06
3195.73	1.04835e-06
3204.41	7.57776e-07
3213.09	5.8625e-07
3221.77	4.15877e-07
3230.44	2.28621e-07
3239.12	9.19163e-08
3247.8	-1.11499e-08
3256.48	5.3432e-08
3265.16	-2.00807e-09
3273.83	-5.27299e-08
3282.51	-1.12506e-07
3291.19	6.41853e-08
3299.87	3.27839e-08
3308.55	-1.63963e-07
3317.22	-5.31694e-07
3325.9	-4.55573e-07
3334.58	-1.66091e-07
3343.26	-1.17828e-08
3351.94	-5.67497e-09
3360.62	-1.50128e-07
3369.29	-1.57873e-07
3377.97	-3.29075e-08
3386.65	-2.89314e-08
3395.33	-3.70728e-08
3404.01	-1.67786e-07
3412.68	-1.43027e-07
3421.36	-1.18982e-07
3430.04	-5.56183e-08
3438.72	-4.55853e-08
3447.4	5.88705e-08
3456.08	2.36177e-07
3464.75	1.96292e-07
3473.43	2.57847e-07
3482.11	-6.32686e-08
3490.79	-1.72253e-07
3499.47	-7.27087e-08
3508.14	1.77019e-07
3516.82	1.00505e-06
3525.5	3.29178e-06
3534.18	9.27696e-06
3542.86	1.54697e-05
3551.53	1.50436e-05
3560.21	1.04191e-05
3568.89	3.24588e-06
3577.57	4.14556e-07
3586.25	-3.43998e-07
3594.93	-4.34502e-07
3603.6	-5.86588e-07
3612.28	-7.30703e-07
3620.96	-5.61833e-07
3629.64	-1.31584e-06
3638.32	-4.8716e-07
3646.99	-5.22399e-07
3655.67	-4.79455e-07
3664.35	-3.22797e-07
3673.03	-4.32425e-07
3681.71	-3.82395e-07
3690.39	-5.31377e-07
3699.06	-4.51062e-07
3707.74	-4.7362e-07
3716.42	-4.14586e-07
3725.1	-4.68018e-07
3733.78	-4.72194e-07
3742.45	-4.73001e-07
3751.13	-4.87974e-07
3759.81	-7.3935e-07
3768.49	-4.01679e-07
3777.17	-4.65824e-07
3785.85	-4.12479e-07
3794.52	-4.05033e-07
3803.2	-4.96461e-07
3811.88	-3.82533e-07
3820.56	-6.77387e-07
3829.24	-2.93054e-07
3837.91	-1.62534e-06
3846.59	-2.33452e-07
3855.27	-3.35238e-07
3863.95	-2.30895e-07
3872.63	-1.66167e-07
3881.3	-1.51714e-07
3889.98	-4.59891e-08
3898.66	-4.32134e-08
3907.34	1.30484e-07
3916.02	6.89145e-08
3924.7	9.86499e-08
3933.37	1.64236e-07
3942.05	1.81624e-07
3950.73	2.24201e-07
3959.41	4.76315e-07
3968.09	9.12855e-07
