Infrared Spectrum: Ethenyl Ester-Acetic Acid
Formula: C H3 C O2 C H: C H2
CAS: 108-05-4
State: gas
Melting point: -93.2 C
Boiling point: 72.2 C
Class: IUPAC A
Instrument: IFS66V (Bruker)
Instrument parameters: KBr Beam splitter; MCT Detector; Multipass cell
Sampling: 1 L/min Flow
Resolution: 0.2410
Temperature: 23 C
Pressure: 101.3 kPa
Origin: NIST, Anayltical Chemistry Division, 301-975-3108
cm-1	(micromol/mol)-1m-1 (base 10)
575.048	1.09462e-05
583.606	1.96795e-05
592.163	3.73175e-05
600.721	2.87246e-05
609.279	3.24191e-05
617.836	3.39817e-05
626.394	4.14743e-05
634.951	4.22039e-05
643.509	4.16817e-05
652.067	2.7165e-05
660.624	1.41973e-05
669.182	6.55329e-06
677.74	4.52483e-06
686.297	6.1782e-06
694.855	9.19318e-06
703.412	1.05305e-05
711.97	1.15953e-05
720.528	1.01546e-05
729.085	7.53113e-06
737.643	6.10951e-06
746.201	5.57147e-06
754.758	6.08217e-06
763.316	7.33304e-06
771.873	9.39211e-06
780.431	9.66562e-06
788.989	9.4418e-06
797.546	8.96936e-06
806.104	9.86618e-06
814.662	1.31294e-05
823.219	2.00824e-05
831.777	3.79815e-05
840.334	7.94477e-05
848.892	0.000104553
857.45	0.00015962
866.007	0.000157108
874.565	0.000215673
883.123	0.000145266
891.68	9.37888e-05
900.238	3.61957e-05
908.795	1.477e-05
917.353	1.58074e-05
925.911	3.45125e-05
934.468	7.02049e-05
943.026	0.000105113
951.584	0.00013197
960.141	0.000106396
968.699	0.000123293
977.256	0.000101708
985.814	9.80255e-05
994.372	6.62526e-05
1002.93	0.000110879
1011.49	0.000236141
1020.04	0.000348109
1028.6	0.000312398
1037.16	0.000170709
1045.72	7.72592e-05
1054.28	6.61344e-05
1062.83	6.06031e-05
1071.39	5.43846e-05
1079.95	4.64758e-05
1088.51	3.81802e-05
1097.06	3.13498e-05
1105.62	2.97294e-05
1114.18	3.35831e-05
1122.74	5.51833e-05
1131.29	0.000209545
1139.85	0.000893264
1148.41	0.000960384
1156.97	0.000764055
1165.52	8.02457e-05
1174.08	4.79889e-05
1182.64	6.67558e-05
1191.2	0.000116525
1199.75	0.000301682
1208.31	0.00105416
1216.87	0.00256846
1225.43	0.00281886
1233.99	0.00198694
1242.54	0.000391256
1251.1	0.000229066
1259.66	0.000193104
1268.22	7.36694e-05
1276.77	5.61225e-05
1285.33	0.000124526
1293.89	0.000171832
1302.45	0.00016853
1311	6.55687e-05
1319.56	2.18403e-05
1328.12	1.37854e-05
1336.68	1.25893e-05
1345.23	1.75436e-05
1353.79	4.32953e-05
1362.35	0.000165771
1370.91	0.000350271
1379.46	0.000441115
1388.02	0.000268432
1396.58	0.000106154
1405.14	3.65176e-05
1413.7	2.76238e-05
1422.25	3.07083e-05
1430.81	3.90164e-05
1439.37	3.7119e-05
1447.93	3.55993e-05
1456.48	2.89989e-05
1465.04	2.34903e-05
1473.6	2.09741e-05
1482.16	1.96349e-05
1490.71	1.71194e-05
1499.27	1.57856e-05
1507.83	1.47376e-05
1516.39	1.39469e-05
1524.94	1.27406e-05
1533.5	1.15159e-05
1542.06	1.00235e-05
1550.62	1.2651e-05
1559.18	1.61245e-05
1567.73	1.83188e-05
1576.29	1.94809e-05
1584.85	2.18182e-05
1593.41	2.25038e-05
1601.96	2.30669e-05
1610.52	2.76847e-05
1619.08	3.83615e-05
1627.64	4.73194e-05
1636.19	0.000109018
1644.75	0.000419892
1653.31	0.000549667
1661.87	0.000441665
1670.42	6.18384e-05
1678.98	2.51608e-05
1687.54	1.70187e-05
1696.1	1.4598e-05
1704.65	1.39589e-05
1713.21	1.19338e-05
1721.77	1.26824e-05
1730.33	2.02852e-05
1738.89	2.84288e-05
1747.44	6.12101e-05
1756	0.000147627
1764.56	0.000385972
1773.12	0.00101955
1781.67	0.00106975
1790.23	0.00148169
1798.79	0.000611428
1807.35	0.000212245
1815.9	5.5222e-05
1824.46	2.33533e-05
1833.02	2.06056e-05
1841.58	1.8231e-05
1850.13	2.18351e-05
1858.69	2.63982e-05
1867.25	2.85148e-05
1875.81	2.53489e-05
1884.36	1.73169e-05
1892.92	1.45235e-05
1901.48	1.42779e-05
1910.04	1.13086e-05
1918.6	6.59553e-06
1927.15	4.33034e-06
1935.71	4.51128e-06
1944.27	5.21803e-06
1952.83	5.26654e-06
1961.38	5.29378e-06
1969.94	4.74187e-06
1978.5	7.23674e-06
1987.06	1.29533e-05
1995.61	1.35509e-05
2004.17	1.06097e-05
2012.73	5.52667e-06
2021.29	5.43692e-06
2029.84	5.37271e-06
2038.4	6.24905e-06
2046.96	1.07567e-05
2055.52	2.10757e-05
2064.08	2.76947e-05
2072.63	2.62303e-05
2081.19	1.19149e-05
2089.75	6.68186e-06
2098.31	5.59211e-06
2106.86	6.10854e-06
2115.42	7.17066e-06
2123.98	7.30089e-06
2132.54	6.00575e-06
2141.09	3.92468e-06
2149.65	4.29836e-06
2158.21	4.49525e-06
2166.77	4.79935e-06
2175.32	4.41392e-06
2183.88	3.24336e-06
2192.44	2.45618e-06
2201	2.01837e-06
2209.55	2.46745e-06
2218.11	3.68424e-06
2226.67	4.85273e-06
2235.23	4.54082e-06
2243.79	3.61655e-06
2252.34	2.84956e-06
2260.9	2.2276e-06
2269.46	3.2413e-06
2278.02	8.17397e-06
2286.57	1.12068e-05
2295.13	1.10331e-05
2303.69	3.41704e-06
2312.25	1.19956e-06
2320.8	1.18241e-06
2329.36	1.54029e-06
2337.92	2.62234e-06
2346.48	3.39518e-06
2355.03	4.21321e-06
2363.59	3.66919e-06
2372.15	3.13558e-06
2380.71	2.38247e-06
2389.26	1.53239e-06
2397.82	1.862e-06
2406.38	2.57344e-06
2414.94	3.70385e-06
2423.5	5.54752e-06
2432.05	8.15315e-06
2440.61	8.21797e-06
2449.17	6.47126e-06
2457.73	2.89754e-06
2466.28	1.93919e-06
2474.84	1.65837e-06
2483.4	1.60804e-06
2491.96	1.84144e-06
2500.51	1.95438e-06
2509.07	1.10622e-06
2517.63	7.38193e-07
2526.19	6.40067e-07
2534.74	4.19307e-07
2543.3	2.86062e-07
2551.86	2.49884e-07
2560.42	2.60761e-07
2568.98	4.14793e-07
2577.53	1.09745e-06
2586.09	1.81141e-06
2594.65	1.8945e-06
2603.21	1.49488e-06
2611.76	1.10166e-06
2620.32	1.69897e-06
2628.88	2.05429e-06
2637.44	2.15441e-06
2645.99	1.02549e-06
2654.55	8.8683e-07
2663.11	1.04561e-06
2671.67	1.12733e-06
2680.22	1.00189e-06
2688.78	6.43054e-07
2697.34	3.98401e-07
2705.9	3.99525e-07
2714.45	3.77116e-07
2723.01	4.54205e-07
2731.57	6.08535e-07
2740.13	1.49595e-06
2748.69	2.88065e-06
2757.24	2.7317e-06
2765.8	3.07892e-06
2774.36	1.32496e-06
2782.92	1.1196e-06
2791.47	1.35806e-06
2800.03	1.62658e-06
2808.59	9.13968e-07
2817.15	7.15537e-07
2825.7	6.74626e-07
2834.26	7.95572e-07
2842.82	1.24151e-06
2851.38	2.07852e-06
2859.93	2.3335e-06
2868.49	2.28246e-06
2877.05	1.54187e-06
2885.61	1.20539e-06
2894.16	1.11728e-06
2902.72	1.17599e-06
2911.28	1.2331e-06
2919.84	1.45096e-06
2928.4	2.30987e-06
2936.95	4.62651e-06
2945.51	9.54531e-06
2954.07	1.08563e-05
2962.63	1.23254e-05
2971.18	9.29362e-06
2979.74	8.9852e-06
2988.3	1.00228e-05
2996.86	1.21264e-05
3005.41	1.13776e-05
3013.97	1.15802e-05
3022.53	1.37447e-05
3031.09	1.70782e-05
3039.64	1.8816e-05
3048.2	2.06427e-05
3056.76	2.21431e-05
3065.32	2.33764e-05
3073.88	1.86689e-05
3082.43	1.74995e-05
3090.99	3.47103e-05
3099.55	4.1627e-05
3108.11	4.78583e-05
3116.66	1.90873e-05
3125.22	2.63653e-05
3133.78	2.05796e-05
3142.34	1.83838e-05
3150.89	5.63508e-06
3159.45	2.63268e-06
3168.01	1.72312e-06
3176.57	1.2294e-06
3185.12	1.03762e-06
3193.68	1.04922e-06
3202.24	8.31357e-07
3210.8	6.28372e-07
3219.35	4.87556e-07
3227.91	2.66978e-07
3236.47	1.99752e-08
3245.03	5.43669e-08
3253.59	2.94043e-08
3262.14	-4.16164e-09
3270.7	-4.0114e-08
3279.26	-1.0355e-07
3287.82	7.14464e-08
3296.37	5.25153e-08
3304.93	-2.59921e-08
3313.49	-3.46813e-07
3322.05	-4.62201e-07
3330.6	-2.61565e-07
3339.16	-4.48868e-08
3347.72	3.49229e-08
3356.28	-2.52718e-08
3364.83	-2.43816e-07
3373.39	-2.04361e-07
3381.95	-8.27927e-08
3390.51	-5.39668e-08
3399.06	-1.93094e-08
3407.62	-5.90451e-08
3416.18	-1.30506e-07
3424.74	-8.87841e-08
3433.3	1.28051e-09
3441.85	-8.55974e-08
3450.41	-5.03144e-08
3458.97	1.7054e-07
3467.53	1.88082e-07
3476.08	8.973e-08
3484.64	-1.28585e-07
3493.2	-9.30622e-08
3501.76	-9.67873e-08
3510.31	3.40796e-07
3518.87	1.30337e-06
3527.43	4.18368e-06
3535.99	1.10718e-05
3544.54	1.48105e-05
3553.1	1.6788e-05
3561.66	8.55003e-06
3570.22	2.64027e-06
3578.78	3.60342e-07
3587.33	-2.47858e-07
3595.89	-3.12549e-07
3604.45	-4.92198e-07
3613.01	-5.7283e-07
3621.56	-5.99106e-07
3630.12	-5.0696e-07
3638.68	-4.90012e-07
3647.24	-6.03231e-07
3655.79	-4.69385e-07
3664.35	-3.12072e-07
3672.91	-4.50782e-07
3681.47	-3.83391e-07
3690.02	-4.30235e-07
3698.58	-4.82849e-07
3707.14	-4.1978e-07
3715.7	-4.8756e-07
3724.25	-3.93861e-07
3732.81	-4.60666e-07
3741.37	-5.80466e-07
3749.93	-6.8873e-07
3758.49	-4.50058e-07
3767.04	-4.13352e-07
3775.6	-3.78142e-07
3784.16	-4.55485e-07
3792.72	-3.73133e-07
3801.27	-1.295e-06
3809.83	-3.06354e-07
3818.39	-4.16303e-07
3826.95	-4.39868e-07
3835.5	-2.76124e-07
3844.06	-2.64203e-07
3852.62	-3.73216e-07
3861.18	-2.07791e-07
3869.73	-3.87589e-07
3878.29	-1.09894e-07
3886.85	-1.53544e-07
3895.41	-6.7132e-08
3903.96	-7.51315e-08
3912.52	1.42613e-07
3921.08	7.80308e-08
3929.64	1.09985e-07
3938.2	1.36228e-07
3946.75	2.33238e-07
3955.31	3.41917e-07
3963.87	7.16236e-07
3972.43	1.12953e-06
