Infrared Spectrum: 1,3-Dimethylbenzene
Formula: 1,3-( C H3)2 C6 H4
CAS: 108-38-3
State: gas
Melting point: -47.87 C
Boiling point: 139.1 C
Class: IUPAC A
Instrument: IFS66V (Bruker)
Instrument parameters: KBr Beam Splitter; MCT Detector; Multipass cell
Sampling: 1 L/min Flow
Resolution: 0.4820
Temperature: 23 C
Pressure: 101.3 Pa
Origin: NIST, Analytical Chemistry Division, 301-975-3108
cm-1	(micromol/mol)-1m-1 (base 10)
575.17	-1.52765e-06
583.848	-5.64856e-07
592.526	3.33446e-07
601.205	-3.50818e-07
609.883	-4.686e-07
618.561	-5.69341e-08
627.239	-3.28529e-07
635.917	-3.20892e-07
644.595	9.06434e-08
653.274	1.03749e-06
661.952	2.55707e-06
670.63	1.04975e-05
679.308	4.24371e-05
687.986	7.67858e-05
696.665	6.3396e-05
705.343	3.28615e-05
714.021	5.45278e-06
722.699	1.5922e-06
731.377	1.75259e-06
740.055	4.33608e-06
748.734	3.471e-05
757.412	0.00013426
766.09	0.000294613
774.768	0.000167102
783.446	7.49594e-05
792.124	8.56761e-06
800.803	1.84694e-06
809.481	1.05735e-06
818.159	6.95748e-07
826.837	7.13292e-07
835.515	6.37117e-07
844.194	6.69309e-07
852.872	1.55939e-06
861.55	7.93417e-06
870.228	1.3977e-05
878.906	1.3419e-05
887.584	1.1104e-05
896.263	1.28043e-05
904.941	1.66924e-05
913.619	1.16432e-05
922.297	1.15452e-06
930.975	1.52593e-06
939.654	2.21345e-06
948.332	2.69088e-06
957.01	3.155e-06
965.688	4.03484e-06
974.366	4.91253e-06
983.044	4.32954e-06
991.723	5.41955e-06
1000.4	8.29307e-06
1009.08	9.99812e-06
1017.76	7.4686e-06
1026.44	6.22912e-06
1035.11	1.13967e-05
1043.79	2.38665e-05
1052.47	1.92896e-05
1061.15	1.39491e-05
1069.83	8.85274e-06
1078.5	9.06571e-06
1087.18	2.09823e-05
1095.86	1.93384e-05
1104.54	1.76222e-05
1113.22	6.11471e-06
1121.9	4.70644e-06
1130.57	4.52978e-06
1139.25	2.91987e-06
1147.93	2.66743e-06
1156.61	4.15435e-06
1165.29	9.35892e-06
1173.96	6.49948e-06
1182.64	3.50145e-06
1191.32	2.42956e-06
1200	1.96012e-06
1208.68	1.42218e-06
1217.36	1.20788e-06
1226.03	1.09939e-06
1234.71	1.59389e-06
1243.39	3.09906e-06
1252.07	3.05457e-06
1260.75	3.52981e-06
1269.42	2.86346e-06
1278.1	1.9782e-06
1286.78	1.52483e-06
1295.46	1.93027e-06
1304.14	2.06273e-06
1312.82	2.14882e-06
1321.49	2.24253e-06
1330.17	2.42016e-06
1338.85	2.69249e-06
1347.53	3.82147e-06
1356.21	6.33964e-06
1364.88	9.48673e-06
1373.56	1.80087e-05
1382.24	2.94784e-05
1390.92	2.84184e-05
1399.6	1.89225e-05
1408.28	1.59662e-05
1416.95	1.72717e-05
1425.63	1.88207e-05
1434.31	2.69916e-05
1442.99	3.92688e-05
1451.67	4.68402e-05
1460.34	4.18496e-05
1469.02	4.87025e-05
1477.7	5.88174e-05
1486.38	8.44354e-05
1495.06	0.000106915
1503.74	0.000103296
1512.41	6.82771e-05
1521.09	4.96885e-05
1529.77	4.71262e-05
1538.45	4.04074e-05
1547.13	2.55469e-05
1555.8	1.77137e-05
1564.48	1.61475e-05
1573.16	1.76977e-05
1581.84	1.93879e-05
1590.52	3.23263e-05
1599.2	4.87743e-05
1607.87	0.000102421
1616.55	0.000133627
1625.23	0.000107051
1633.91	1.09457e-05
1642.59	5.18925e-06
1651.26	6.51663e-06
1659.94	5.03612e-06
1668.62	1.92021e-06
1677.3	7.93636e-07
1685.98	5.54293e-07
1694.66	9.37707e-07
1703.33	1.27114e-06
1712.01	1.48389e-06
1720.69	1.24282e-06
1729.37	3.04213e-06
1738.05	7.16664e-06
1746.72	6.56124e-06
1755.4	7.2957e-06
1764.08	6.31052e-06
1772.76	7.1426e-06
1781.44	6.72958e-06
1790.12	1.964e-06
1798.79	9.91849e-07
1807.47	1.71777e-06
1816.15	2.12255e-06
1824.83	1.86211e-06
1833.51	3.30584e-06
1842.18	5.85563e-06
1850.86	1.25254e-05
1859.54	1.04278e-05
1868.22	1.86742e-06
1876.9	1.19429e-06
1885.58	1.04086e-06
1894.25	1.13592e-06
1902.93	1.73058e-06
1911.61	3.0887e-06
1920.29	6.02146e-06
1928.97	1.1958e-05
1937.64	1.14069e-05
1946.32	3.66732e-06
1955	3.77095e-07
1963.68	1.40228e-07
1972.36	2.15822e-07
1981.04	5.8924e-08
1989.71	1.00617e-08
1998.39	8.069e-09
2007.07	-8.79686e-08
2015.75	-3.54128e-08
2024.43	7.96686e-08
2033.1	-2.36029e-07
2041.78	-3.34092e-07
2050.46	-4.78822e-07
2059.14	-3.70441e-07
2067.82	-1.85162e-07
2076.5	-1.638e-07
2085.17	-3.10409e-08
2093.85	-2.6859e-07
2102.53	2.54698e-07
2111.21	6.85251e-07
2119.89	7.84835e-08
2128.56	-2.99601e-07
2137.24	-9.72981e-08
2145.92	7.77332e-08
2154.6	4.21111e-07
2163.28	-1.8425e-07
2171.96	-1.66594e-07
2180.63	-2.51445e-07
2189.31	-3.07618e-07
2197.99	-2.13622e-07
2206.67	-7.75613e-08
2215.35	1.653e-08
2224.02	-2.84207e-08
2232.7	-3.28657e-07
2241.38	-1.72086e-07
2250.06	-4.78737e-08
2258.74	4.16214e-07
2267.42	6.84718e-07
2276.09	9.44219e-07
2284.77	1.35195e-06
2293.45	1.77145e-06
2302.13	6.75894e-07
2310.81	5.04128e-07
2319.48	8.18185e-07
2328.16	1.09273e-06
2336.84	1.61497e-06
2345.52	1.48054e-06
2354.2	1.55839e-06
2362.88	1.72469e-06
2371.55	9.59754e-07
2380.23	7.21927e-07
2388.91	1.21768e-06
2397.59	1.25719e-06
2406.27	1.23458e-06
2414.94	1.7989e-06
2423.62	1.93861e-06
2432.3	1.63052e-06
2440.98	1.30714e-06
2449.66	1.40549e-06
2458.34	1.34005e-06
2467.01	1.49294e-06
2475.69	1.23681e-06
2484.37	1.36063e-06
2493.05	1.2997e-06
2501.73	1.14589e-06
2510.4	7.45795e-07
2519.08	4.57992e-07
2527.76	3.53225e-07
2536.44	1.07337e-06
2545.12	1.33506e-06
2553.8	5.09335e-07
2562.47	4.45338e-07
2571.15	3.75688e-07
2579.83	2.21775e-07
2588.51	4.14649e-07
2597.19	5.3556e-07
2605.86	5.88515e-07
2614.54	6.574e-07
2623.22	8.07181e-07
2631.9	8.02336e-07
2640.58	8.36453e-07
2649.26	6.70747e-07
2657.93	3.46494e-07
2666.61	1.71067e-07
2675.29	2.60971e-07
2683.97	-2.38605e-08
2692.65	2.71143e-07
2701.32	3.7037e-07
2710	7.29487e-07
2718.68	1.4604e-06
2727.36	3.15754e-06
2736.04	1.10419e-05
2744.71	1.19497e-05
2753.39	7.2428e-06
2762.07	2.61815e-06
2770.75	1.92651e-06
2779.43	1.99695e-06
2788.11	2.22356e-06
2796.78	2.88938e-06
2805.46	3.70896e-06
2814.14	5.02821e-06
2822.82	7.4901e-06
2831.5	9.7311e-06
2840.17	1.33801e-05
2848.85	2.19224e-05
2857.53	4.15565e-05
2866.21	8.18371e-05
2874.89	0.000118134
2883.57	0.000117714
2892.24	9.45242e-05
2900.92	9.41872e-05
2909.6	0.000111453
2918.28	0.000147113
2926.96	0.000217214
2935.63	0.000256801
2944.31	0.000229628
2952.99	0.00013955
2961.67	9.7919e-05
2970.35	7.02706e-05
2979.03	7.3274e-05
2987.7	8.80299e-05
2996.38	0.000109531
3005.06	0.000135881
3013.74	0.000175765
3022.42	0.000217564
3031.09	0.000239395
3039.77	0.000211001
3048.45	0.000170359
3057.13	0.000133473
3065.81	0.000118
3074.49	8.45782e-05
3083.16	4.15199e-05
3091.84	2.90364e-05
3100.52	2.37592e-05
3109.2	2.11875e-05
3117.88	1.85969e-05
3126.55	1.27652e-05
3135.23	4.89616e-06
3143.91	2.09728e-06
3152.59	1.19684e-06
3161.27	9.40131e-07
3169.95	6.74373e-07
3178.62	6.48602e-07
3187.3	4.8909e-07
3195.98	4.64096e-07
3204.66	3.69408e-07
3213.34	2.73862e-07
3222.01	-9.21295e-08
3230.69	-3.30536e-07
3239.37	-4.23819e-07
3248.05	-3.57238e-07
3256.73	3.13492e-08
3265.41	3.37894e-07
3274.08	1.77949e-07
3282.76	-5.52188e-08
3291.44	7.31321e-09
3300.12	1.71814e-07
3308.8	8.67035e-08
3317.47	-1.42881e-07
3326.15	-1.49351e-07
3334.83	-4.53699e-08
3343.51	-6.00318e-08
3352.19	-1.50289e-07
3360.87	-1.05323e-07
3369.54	-5.24048e-08
3378.22	9.76983e-08
3386.9	2.82633e-08
3395.58	4.57526e-07
3404.26	3.80179e-07
3412.93	7.30279e-07
3421.61	5.9393e-07
3430.29	3.82257e-07
3438.97	3.53226e-07
3447.65	3.8345e-07
3456.33	4.90008e-07
3465	4.99606e-07
3473.68	1.64692e-07
3482.36	2.39159e-07
3491.04	-1.89428e-07
3499.72	-2.05322e-07
3508.39	-3.02911e-07
3517.07	-1.3695e-07
3525.75	-3.94819e-08
3534.43	-2.3926e-08
3543.11	1.64345e-09
3551.79	5.37103e-07
3560.46	2.86543e-07
3569.14	3.30986e-07
3577.82	1.0944e-07
3586.5	-1.46188e-07
3595.18	-3.95381e-07
3603.85	-4.16213e-07
3612.53	-4.52393e-07
3621.21	-2.39007e-07
3629.89	-4.73263e-07
3638.57	-3.58018e-07
3647.25	-4.51719e-07
3655.92	-3.66966e-07
3664.6	-1.68038e-07
3673.28	-2.34035e-07
3681.96	-1.50217e-07
3690.64	-3.89269e-07
3699.31	-3.9592e-07
3707.99	-1.50471e-07
3716.67	-2.03913e-07
3725.35	-7.06137e-08
3734.03	3.74678e-07
3742.71	5.93414e-07
3751.38	4.73098e-07
3760.06	2.60875e-07
3768.74	7.82924e-07
3777.42	6.24389e-07
3786.1	7.43655e-07
3794.77	4.44279e-07
3803.45	2.88633e-07
3812.13	1.59796e-07
3820.81	-2.70883e-08
3829.49	5.62413e-07
3838.17	4.24896e-08
3846.84	5.29423e-07
3855.52	5.01341e-07
3864.2	2.75873e-07
3872.88	4.02405e-07
3881.56	6.08356e-07
3890.23	8.97279e-07
3898.91	1.1632e-06
3907.59	1.63164e-06
3916.27	1.80582e-06
3924.95	1.74388e-06
3933.63	1.44704e-06
3942.3	1.36994e-06
3950.98	1.42978e-06
3959.66	1.52145e-06
3968.34	1.49259e-06
