Infrared Spectrum: Benzene, bromo-
Formula: C6 H5 Br
CAS: 108-86-1
State: SOLUTION (10% CCl4 FOR 3800-1330, 10% CS2 FOR 1330-450 CM^-^1)
Class: COBLENTZ III
Instrument: DOW KBr FOREPRISM-GRATING
Instrument parameters: BLAZED AT 3.5, 12.0, 20.0 MICRON AND CHANGED AT 5.0, 7.5, 14.9 MICRON
Path length: 0.011 CM, 0.011 CM
Resolution: 2
Origin: DOW CHEMICAL COMPANY
1/CM	TRANSMITTANCE
447	0.636
456	0.6257
465	0.8846
474	0.9096
483	0.9146
492	0.9189
501	0.9217
510	0.9242
519	0.9268
528	0.9299
537	0.9331
546	0.9363
555	0.939
564	0.9409
573	0.9409
582	0.9372
591	0.9387
600	0.9335
609	0.9233
618	0.8928
627	0.9061
636	0.8901
645	0.8718
654	0.8346
663	0.7547
672	0.4383
681	0.5716
690	0.3482
699	0.8209
708	0.8621
717	0.8316
726	0.7407
735	0.0684
744	0.3213
753	0.8003
762	0.8687
771	0.8918
780	0.8917
789	0.8886
798	0.8991
807	0.8942
816	0.8899
825	0.8746
834	0.8565
843	0.842
852	0.7795
861	0.7341
870	0.7696
879	0.8219
888	0.8412
897	0.8277
906	0.7433
915	0.8243
924	0.876
933	0.8827
942	0.8825
951	0.8742
960	0.865
969	0.8644
978	0.8424
987	0.7485
996	0.8029
1005	0.8148
1014	0.7479
1023	0.0735
1032	0.8509
1041	0.8625
1050	0.8532
1059	0.7988
1068	0.1922
1077	0.5417
1086	0.8408
1095	0.8347
1104	0.884
1113	0.9009
1122	0.9077
1131	0.8988
1140	0.8815
1149	0.8708
1158	0.8553
1167	0.8542
1176	0.8569
1185	0.8749
1194	0.8709
1203	0.8973
1212	0.9011
1221	0.8972
1230	0.876
1239	0.877
1248	0.8773
1257	0.8595
1266	0.8463
1275	0.8631
1284	0.8797
1293	0.8748
1302	0.8719
1311	0.8842
1320	0.8646
1329	0.8845
1338	0.9009
1347	0.9032
1356	0.9013
1365	0.9105
1374	0.9132
1383	0.8937
1392	0.9128
1401	0.9108
1410	0.9029
1419	0.8912
1428	0.8783
1437	0.8235
1446	0.1663
1455	0.8542
1464	0.8339
1473	0.543
1482	0.2323
1491	0.7935
1500	0.7893
1509	0.7303
1518	0.6755
1527	0.6544
1536	0.5916
1545	0.488
1554	0.4564
1563	0.469
1572	0.3972
1581	0.1925
1590	0.4783
1599	0.6885
1608	0.8133
1617	0.8569
1626	0.8786
1635	0.8624
1644	0.8854
1653	0.9165
1662	0.9043
1671	0.9008
1680	0.9
1689	0.8979
1698	0.8973
1707	0.9021
1716	0.8943
1725	0.8846
1734	0.8429
1743	0.8738
1752	0.8827
1761	0.8912
1770	0.8894
1779	0.8921
1788	0.8634
1797	0.8553
1806	0.875
1815	0.876
1824	0.8867
1833	0.882
1842	0.8827
1851	0.8775
1860	0.8491
1869	0.8047
1878	0.8668
1887	0.8373
1896	0.887
1905	0.8907
1914	0.8912
1923	0.8895
1932	0.8744
1941	0.8281
1950	0.8493
1959	0.869
1968	0.8593
1977	0.8812
1986	0.8765
1995	0.8812
2004	0.8904
2013	0.8917
2022	0.8893
2031	0.8875
2040	0.8949
2049	0.8982
2058	0.8955
2067	0.8919
2076	0.8931
2085	0.9
2094	0.8987
2103	0.8961
2112	0.9012
2121	0.9048
2130	0.898
2139	0.8986
2148	0.8996
2157	0.899
2166	0.8985
2175	0.8985
2184	0.8985
2193	0.8987
2202	0.898
2211	0.8968
2220	0.8955
2229	0.8923
2238	0.8884
2247	0.8805
2256	0.888
2265	0.8842
2274	0.8782
2283	0.8738
2292	0.8706
2301	0.8709
2310	0.8716
2319	0.8645
2328	0.8715
2337	0.8798
2346	0.8868
2355	0.8902
2364	0.8898
2373	0.8874
2382	0.885
2391	0.8826
2400	0.8886
2409	0.891
2418	0.8916
2427	0.8919
2436	0.8919
2445	0.8916
2454	0.8916
2463	0.8916
2472	0.8915
2481	0.8912
2490	0.891
2499	0.8904
2508	0.8893
2517	0.8875
2526	0.885
2535	0.8804
2544	0.8797
2553	0.886
2562	0.8857
2571	0.884
2580	0.8821
2589	0.879
2598	0.8822
2607	0.8881
2616	0.8873
2625	0.8864
2634	0.8837
2643	0.8787
2652	0.8847
2661	0.8908
2670	0.892
2679	0.8925
2688	0.8922
2697	0.8914
2706	0.8907
2715	0.89
2724	0.8894
2733	0.8888
2742	0.8882
2751	0.8874
2760	0.8866
2769	0.8858
2778	0.8864
2787	0.8869
2796	0.8873
2805	0.8875
2814	0.8875
2823	0.8864
2832	0.8846
2841	0.8826
2850	0.8792
2859	0.8792
2868	0.8804
2877	0.8807
2886	0.881
2895	0.8803
2904	0.8787
2913	0.8739
2922	0.8692
2931	0.8776
2940	0.881
2949	0.8795
2958	0.8799
2967	0.878
2976	0.8774
2985	0.8747
2994	0.8682
3003	0.8494
3012	0.8156
3021	0.8434
3030	0.7982
3039	0.838
3048	0.8027
3057	0.7369
3066	0.6827
3075	0.6129
3084	0.6747
3093	0.7622
3102	0.8614
3111	0.8747
3120	0.881
3129	0.8838
3138	0.8856
3147	0.8856
3156	0.8842
3165	0.8853
3174	0.8909
3183	0.8945
3192	0.8955
3201	0.8958
3210	0.8956
3219	0.8943
3228	0.8932
3237	0.8928
3246	0.8924
3255	0.8931
3264	0.8956
3273	0.8982
3282	0.8983
3291	0.8977
3300	0.8973
3309	0.8968
3318	0.8947
3327	0.8922
3336	0.8893
3345	0.8833
3354	0.8774
3363	0.8718
3372	0.8669
3381	0.8637
3390	0.8635
3399	0.8643
3408	0.8661
3417	0.8679
3426	0.87
3435	0.8727
3444	0.8753
3453	0.8784
3462	0.8815
3471	0.884
3480	0.8861
3489	0.8877
3498	0.8888
3507	0.8897
3516	0.8902
3525	0.8905
3534	0.8909
3543	0.8919
3552	0.8933
3561	0.894
3570	0.8944
3579	0.8944
3588	0.8941
3597	0.8938
3606	0.8939
3615	0.8942
3624	0.8965
3633	0.894
3642	0.8906
3651	0.8911
3660	0.8911
3669	0.8911
3678	0.891
3687	0.8908
3696	0.8906
3705	0.8899
3714	0.8891
3723	0.8884
3732	0.8878
3741	0.8872
3750	0.8866
3759	0.8861
3768	0.8865
3777	0.8868
3786	0.8882
