Infrared Spectrum: ACETIC ACID ANHYDRIDE
Formula: C4 H6 O3
CAS: 108-24-7
State: SOLUTION (2% IN CCl4 FOR 3800-1330, 2% IN CS2 FOR 1330-400 CM^-^1)
Class: COBLENTZ III
Instrument: BECKMAN IR-9 (GRATING)
Instrument parameters: ORDER CHANGES AT 670, 1200, 2000 CM^-^1
Sampling: TRANSMISSION
Path length: 0.011, 0.011 CM
Resolution: 4
Origin: DOW CHEMICAL COMPANY
1/CM	TRANSMITTANCE
407.85	0.29
416.382	0.344
424.915	0.437
433.447	0.596
441.98	0.693
450.512	0.771
459.045	0.812
467.577	0.852
476.109	0.875
484.642	0.894
493.174	0.923
501.707	0.933
510.239	0.937
518.772	0.933
527.304	0.874
535.837	0.891
544.369	0.897
552.901	0.898
561.434	0.889
569.966	0.93
578.499	0.937
587.031	0.883
595.564	0.832
604.096	0.885
612.628	0.934
621.161	0.953
629.693	0.946
638.226	0.941
646.758	0.913
655.291	0.891
663.823	0.93
672.356	0.949
680.888	0.954
689.42	0.959
697.953	0.965
706.485	0.965
715.018	0.965
723.55	0.967
732.083	0.97
740.615	0.975
749.147	0.975
757.68	0.973
766.212	0.953
774.745	0.903
783.277	0.832
791.81	0.856
800.342	0.879
808.874	0.868
817.407	0.922
825.939	0.946
834.472	0.945
843.004	0.906
851.537	0.816
860.069	0.779
868.602	0.791
877.134	0.794
885.666	0.725
894.199	0.463
902.731	0.58
911.264	0.639
919.796	0.669
928.329	0.767
936.861	0.86
945.393	0.891
953.926	0.905
962.458	0.897
970.991	0.852
979.523	0.7079
988.056	0.374
996.588	0.278
1005.12	0.385
1013.65	0.627
1022.19	0.775
1030.72	0.804
1039.25	0.756
1047.78	0.717
1056.32	0.764
1064.85	0.78
1073.38	0.78
1081.91	0.774
1090.44	0.748
1098.98	0.651
1107.51	0.443
1116.04	0.084
1124.57	0.018
1133.11	0.188
1141.64	0.397
1150.17	0.598
1158.7	0.739
1167.24	0.806
1175.77	0.838
1184.3	0.85
1192.83	0.842
1201.37	0.818
1209.9	0.756
1218.43	0.645
1226.96	0.651
1235.5	0.774
1244.03	0.847
1252.56	0.893
1261.09	0.921
1269.63	0.93
1278.16	0.929
1286.69	0.911
1295.22	0.909
1303.76	0.934
1312.29	0.935
1320.82	0.933
1329.35	0.922
1337.89	0.909
1346.42	0.895
1354.95	0.85
1363.48	0.5679
1372.02	0.3831
1380.55	0.771
1389.08	0.846
1397.61	0.863
1406.14	0.851
1414.68	0.808
1423.21	0.743
1431.74	0.712
1440.27	0.792
1448.81	0.847
1457.34	0.871
1465.87	0.881
1474.4	0.886
1482.94	0.878
1491.47	0.854
1500	0.815
1508.53	0.76
1517.07	0.705
1525.6	0.661
1534.13	0.588
1542.66	0.505
1551.2	0.453
1559.73	0.477
1568.26	0.572
1576.79	0.618
1585.33	0.643
1593.86	0.707
1602.39	0.794
1610.92	0.856
1619.46	0.89
1627.99	0.907
1636.52	0.917
1645.05	0.922
1653.59	0.921
1662.12	0.922
1670.65	0.923
1679.18	0.919
1687.72	0.899
1696.25	0.887
1704.78	0.877
1713.31	0.791
1721.85	0.82
1730.38	0.82
1738.91	0.755
1747.44	0.566
1755.97	0.267
1764.51	0.232
1773.04	0.34
1781.57	0.45
1790.1	0.502
1798.64	0.4539
1807.17	0.362
1815.7	0.344
1824.23	0.2499
1832.77	0.148
1841.3	0.4823
1849.83	0.75
1858.36	0.828
1866.9	0.859
1875.43	0.879
1883.96	0.898
1892.49	0.91
1901.03	0.917
1909.56	0.921
1918.09	0.923
1926.62	0.925
1935.16	0.93
1943.69	0.933
1952.22	0.935
1960.75	0.935
1969.29	0.935
1977.82	0.935
1986.35	0.934
1994.88	0.931
2003.42	0.933
2011.95	0.937
2020.48	0.937
2029.01	0.938
2037.55	0.941
2046.08	0.942
2054.61	0.945
2063.14	0.943
2071.67	0.943
2080.21	0.946
2088.74	0.947
2097.27	0.946
2105.8	0.942
2114.34	0.938
2122.87	0.935
2131.4	0.937
2139.93	0.939
2148.47	0.9409
2157	0.942
2165.53	0.943
2174.06	0.945
2182.6	0.946
2191.13	0.947
2199.66	0.946
2208.19	0.946
2216.73	0.945
2225.26	0.943
2233.79	0.942
2242.32	0.941
2250.86	0.941
2259.39	0.9351
2267.92	0.933
2276.45	0.93
2284.99	0.926
2293.52	0.922
2302.05	0.921
2310.58	0.9249
2319.12	0.9261
2327.65	0.927
2336.18	0.929
2344.71	0.93
2353.25	0.931
2361.78	0.933
2370.31	0.933
2378.84	0.935
2387.38	0.937
2395.91	0.9351
2404.44	0.935
2412.97	0.935
2421.5	0.935
2430.04	0.935
2438.57	0.9379
2447.1	0.9389
2455.63	0.941
2464.17	0.941
2472.7	0.9392
2481.23	0.939
2489.76	0.938
2498.3	0.9371
2506.83	0.937
2515.36	0.938
2523.89	0.937
2532.43	0.938
2540.96	0.9389
2549.49	0.939
2558.02	0.939
2566.56	0.939
2575.09	0.938
2583.62	0.937
2592.15	0.935
2600.69	0.9341
2609.22	0.934
2617.75	0.934
2626.28	0.934
2634.82	0.933
2643.35	0.9331
2651.88	0.933
2660.41	0.933
2668.95	0.933
2677.48	0.933
2686.01	0.9312
2694.54	0.931
2703.08	0.931
2711.61	0.931
2720.14	0.931
2728.67	0.931
2737.2	0.931
2745.74	0.931
2754.27	0.93
2762.8	0.93
2771.33	0.933
2779.87	0.9327
2788.4	0.93
2796.93	0.93
2805.46	0.9309
2814	0.9313
2822.53	0.933
2831.06	0.933
2839.59	0.931
2848.13	0.931
2856.66	0.931
2865.19	0.934
2873.72	0.935
2882.26	0.935
2890.79	0.935
2899.32	0.933
2907.85	0.931
2916.39	0.926
2924.92	0.922
2933.45	0.9193
2941.98	0.919
2950.52	0.921
2959.05	0.9295
2967.58	0.931
2976.11	0.931
2984.65	0.9262
2993.18	0.925
3001.71	0.926
3010.24	0.9233
3018.78	0.9155
3027.31	0.907
3035.84	0.9146
3044.37	0.9247
3052.91	0.9286
3061.44	0.93
3069.97	0.93
3078.5	0.931
3087.03	0.931
3095.57	0.931
3104.1	0.931
3112.63	0.9326
3121.16	0.933
3129.7	0.9332
3138.23	0.933
3146.76	0.9348
3155.29	0.935
3163.83	0.935
3172.36	0.935
3180.89	0.935
3189.42	0.935
3197.96	0.9342
3206.49	0.934
3215.02	0.934
3223.55	0.934
3232.09	0.934
3240.62	0.934
3249.15	0.934
3257.68	0.934
3266.22	0.934
3274.75	0.934
3283.28	0.934
3291.81	0.934
3300.35	0.934
3308.88	0.933
3317.41	0.933
3325.94	0.933
3334.48	0.933
3343.01	0.934
3351.54	0.934
3360.07	0.933
3368.61	0.933
3377.14	0.933
3385.67	0.931
3394.2	0.933
3402.73	0.931
3411.27	0.931
3419.8	0.931
3428.33	0.931
3436.86	0.931
3445.4	0.931
3453.93	0.931
3462.46	0.933
3470.99	0.933
3479.53	0.931
3488.06	0.93
3496.59	0.929
3505.12	0.927
3513.66	0.926
3522.19	0.926
3530.72	0.927
3539.25	0.929
3547.79	0.929
3556.32	0.9297
3564.85	0.93
3573.38	0.929
3581.92	0.927
3590.45	0.929
3598.98	0.93
3607.51	0.93
3616.05	0.9325
3624.58	0.9337
3633.11	0.934
3641.64	0.934
3650.18	0.9333
3658.71	0.933
3667.24	0.9337
3675.77	0.934
3684.31	0.935
3692.84	0.935
3701.37	0.935
3709.9	0.935
3718.44	0.937
3726.97	0.937
3735.5	0.9377
3744.03	0.938
3752.56	0.938
3761.1	0.938
3769.63	0.9387
3778.16	0.939
3786.69	0.939
3795.23	0.938
