Infrared Spectrum: 1,3-Dimethylbenzene
Formula: 1,3-( C H3)2 C6 H4
CAS: 108-38-3
State: gas
Melting point: -47.87 C
Boiling point: 139.1 C
Class: IUPAC A
Instrument: IFS66V (Bruker)
Instrument parameters: KBr Beam Splitter; MCT Detector; Multipass cell
Sampling: 1 L/min Flow
Resolution: 1.9290
Temperature: 23 C
Pressure: 101.3 Pa
Origin: NIST, Analytical Chemistry Division, 301-975-3108
cm-1	(micromol/mol)-1m-1 (base 10)
575.652	-2.87362e-07
584.33	3.20488e-07
593.008	-9.97561e-07
601.687	-5.13889e-07
610.365	-7.27942e-07
619.043	-2.94563e-07
627.721	-3.85288e-07
636.399	-2.74695e-07
645.077	-5.8173e-07
653.756	1.41939e-06
662.434	1.92242e-06
671.112	1.23131e-05
679.79	4.25282e-05
688.468	9.25326e-05
697.147	6.37554e-05
705.825	2.90563e-05
714.503	5.27561e-06
723.181	7.66492e-07
731.859	1.99949e-06
740.537	4.1513e-06
749.216	3.88277e-05
757.894	0.000138127
766.572	0.00035157
775.25	0.000169297
783.928	6.79391e-05
792.607	7.54702e-06
801.285	1.43073e-06
809.963	1.02846e-06
818.641	2.56714e-07
827.319	5.93403e-07
835.997	4.13265e-07
844.676	7.71801e-07
853.354	1.51068e-06
862.032	8.44734e-06
870.71	1.42148e-05
879.388	1.2655e-05
888.066	1.09266e-05
896.745	1.3322e-05
905.423	1.78069e-05
914.101	1.06491e-05
922.779	1.16509e-06
931.457	1.36477e-06
940.136	2.17471e-06
948.814	2.60716e-06
957.492	3.21785e-06
966.17	4.08512e-06
974.848	4.97634e-06
983.526	4.33716e-06
992.205	5.37498e-06
1000.88	8.48919e-06
1009.56	9.94964e-06
1018.24	7.10366e-06
1026.92	6.35061e-06
1035.6	1.18365e-05
1044.27	2.37188e-05
1052.95	1.92142e-05
1061.63	1.33417e-05
1070.31	8.63939e-06
1078.99	9.27029e-06
1087.66	2.18818e-05
1096.34	1.97669e-05
1105.02	1.6609e-05
1113.7	5.90253e-06
1122.38	4.60206e-06
1131.06	4.28915e-06
1139.73	2.78215e-06
1148.41	2.87731e-06
1157.09	4.17082e-06
1165.77	9.27617e-06
1174.45	6.63227e-06
1183.12	3.17003e-06
1191.8	2.28696e-06
1200.48	1.96662e-06
1209.16	1.32208e-06
1217.84	1.10022e-06
1226.52	1.14445e-06
1235.19	1.62716e-06
1243.87	3.08567e-06
1252.55	3.10307e-06
1261.23	3.50813e-06
1269.91	2.81424e-06
1278.58	1.91123e-06
1287.26	1.53984e-06
1295.94	1.89323e-06
1304.62	1.98201e-06
1313.3	2.21529e-06
1321.98	2.07206e-06
1330.65	2.38479e-06
1339.33	2.65434e-06
1348.01	3.95642e-06
1356.69	6.23803e-06
1365.37	9.70946e-06
1374.04	1.89701e-05
1382.72	2.81464e-05
1391.4	2.79465e-05
1400.08	1.89157e-05
1408.76	1.60204e-05
1417.44	1.74478e-05
1426.11	1.88247e-05
1434.79	2.80377e-05
1443.47	4.00526e-05
1452.15	4.67454e-05
1460.83	4.16679e-05
1469.5	4.96499e-05
1478.18	6.01795e-05
1486.86	8.64781e-05
1495.54	0.000107472
1504.22	0.000101726
1512.9	6.60342e-05
1521.57	4.94741e-05
1530.25	4.69788e-05
1538.93	3.99588e-05
1547.61	2.45785e-05
1556.29	1.74539e-05
1564.96	1.59404e-05
1573.64	1.76145e-05
1582.32	1.95356e-05
1591	3.36453e-05
1599.68	5.18648e-05
1608.36	0.000109395
1617.03	0.000136697
1625.71	0.000100652
1634.39	9.56109e-06
1643.07	4.84969e-06
1651.75	6.45838e-06
1660.42	5.09871e-06
1669.1	1.48049e-06
1677.78	6.98533e-07
1686.46	7.64266e-07
1695.14	5.22548e-07
1703.82	1.18042e-06
1712.49	1.32696e-06
1721.17	1.21296e-06
1729.85	2.97104e-06
1738.53	7.56699e-06
1747.21	6.50591e-06
1755.88	7.10811e-06
1764.56	6.41756e-06
1773.24	7.25347e-06
1781.92	6.43404e-06
1790.6	1.65345e-06
1799.28	8.62968e-07
1807.95	1.77399e-06
1816.63	2.13968e-06
1825.31	1.79915e-06
1833.99	3.44763e-06
1842.67	6.32893e-06
1851.34	1.20073e-05
1860.02	1.07467e-05
1868.7	1.58135e-06
1877.38	1.14706e-06
1886.06	9.83983e-07
1894.74	1.15477e-06
1903.41	1.71893e-06
1912.09	3.15424e-06
1920.77	6.34122e-06
1929.45	1.20595e-05
1938.13	1.16639e-05
1946.8	3.25609e-06
1955.48	3.37733e-07
1964.16	1.5012e-07
1972.84	1.11903e-07
1981.52	9.37502e-09
1990.2	4.20694e-08
1998.87	5.89922e-08
2007.55	-1.9382e-07
2016.23	-4.89178e-08
2024.91	-1.10539e-08
2033.59	-2.08051e-07
2042.26	-3.70379e-07
2050.94	-4.64354e-07
2059.62	-4.36684e-07
2068.3	-1.64131e-07
2076.98	-1.14799e-07
2085.66	3.2979e-08
2094.33	-3.75592e-08
2103.01	5.0451e-07
2111.69	9.01842e-07
2120.37	-2.8896e-07
2129.05	-3.8438e-07
2137.72	-1.5224e-07
2146.4	5.87103e-08
2155.08	1.58612e-07
2163.76	-3.06105e-07
2172.44	8.5613e-08
2181.12	-2.79002e-07
2189.79	-7.64626e-08
2198.47	-2.84089e-07
2207.15	-9.84468e-08
2215.83	6.96824e-08
2224.51	-2.45317e-08
2233.18	-2.0058e-07
2241.86	-1.56176e-07
2250.54	-5.13753e-08
2259.22	4.44362e-07
2267.9	6.93167e-07
2276.58	9.91508e-07
2285.25	1.43989e-06
2293.93	1.78637e-06
2302.61	6.07731e-07
2311.29	5.62231e-07
2319.97	8.33477e-07
2328.64	1.38513e-06
2337.32	1.9431e-06
2346	1.63583e-06
2354.68	1.42927e-06
2363.36	1.20169e-06
2372.04	8.72777e-07
2380.71	6.82909e-07
2389.39	1.26633e-06
2398.07	1.24919e-06
2406.75	1.35456e-06
2415.43	1.82308e-06
2424.1	1.8902e-06
2432.78	1.53287e-06
2441.46	1.37143e-06
2450.14	1.36179e-06
2458.82	1.32299e-06
2467.5	1.44039e-06
2476.17	1.23509e-06
2484.85	1.34932e-06
2493.53	1.20054e-06
2502.21	1.06948e-06
2510.89	7.28008e-07
2519.56	4.28486e-07
2528.24	3.53914e-07
2536.92	1.05815e-06
2545.6	1.30765e-06
2554.28	4.82555e-07
2562.96	4.67363e-07
2571.63	2.98015e-07
2580.31	1.2485e-07
2588.99	3.59678e-07
2597.67	5.62717e-07
2606.35	5.77675e-07
2615.02	7.427e-07
2623.7	8.67718e-07
2632.38	8.28595e-07
2641.06	8.49328e-07
2649.74	6.40627e-07
2658.42	3.77514e-07
2667.09	2.18094e-07
2675.77	1.11202e-07
2684.45	7.65181e-08
2693.13	1.85726e-07
2701.81	4.13177e-07
2710.48	8.47261e-07
2719.16	1.51411e-06
2727.84	3.21346e-06
2736.52	1.15876e-05
2745.2	1.27887e-05
2753.88	6.55567e-06
2762.55	2.48414e-06
2771.23	1.83636e-06
2779.91	1.8448e-06
2788.59	2.16488e-06
2797.27	2.90356e-06
2805.94	3.74325e-06
2814.62	5.09357e-06
2823.3	7.33166e-06
2831.98	9.75761e-06
2840.66	1.36648e-05
2849.34	2.22166e-05
2858.01	4.32519e-05
2866.69	8.47192e-05
2875.37	0.000119245
2884.05	0.000117124
2892.73	9.36663e-05
2901.4	9.48786e-05
2910.08	0.000112391
2918.76	0.000150398
2927.44	0.000221009
2936.12	0.000258356
2944.8	0.000228443
2953.47	0.00013849
2962.15	9.63737e-05
2970.83	6.90868e-05
2979.51	7.41487e-05
2988.19	8.8781e-05
2996.86	0.000110245
3005.54	0.000138219
3014.22	0.000177306
3022.9	0.000219873
3031.58	0.000240495
3040.26	0.000209167
3048.93	0.000167078
3057.61	0.000133057
3066.29	0.000119081
3074.97	8.1062e-05
3083.65	4.04307e-05
3092.32	2.84702e-05
3101	2.35263e-05
3109.68	2.1203e-05
3118.36	1.80684e-05
3127.04	1.22016e-05
3135.72	4.67023e-06
3144.39	1.95795e-06
3153.07	1.10519e-06
3161.75	8.52392e-07
3170.43	6.51356e-07
3179.11	5.98198e-07
3187.78	5.92358e-07
3196.46	3.8569e-07
3205.14	3.07328e-07
3213.82	4.1311e-07
3222.5	-1.3105e-07
3231.18	-1.64724e-07
3239.85	-3.2849e-07
3248.53	-3.01332e-07
3257.21	2.51598e-07
3265.89	2.35445e-07
3274.57	1.79291e-07
3283.24	-1.109e-07
3291.92	1.09312e-08
3300.6	7.62253e-08
3309.28	-4.89397e-09
3317.96	-6.99361e-08
3326.64	4.41466e-09
3335.31	-9.88989e-08
3343.99	-6.32632e-08
3352.67	-1.79744e-07
3361.35	-1.09943e-07
3370.03	-1.43147e-07
3378.7	1.54642e-07
3387.38	9.8887e-08
3396.06	6.04493e-07
3404.74	4.18733e-07
3413.42	4.2491e-07
3422.1	5.11454e-07
3430.77	5.39599e-07
3439.45	2.36014e-07
3448.13	5.0649e-07
3456.81	2.91693e-07
3465.49	3.43821e-07
3474.16	1.47587e-07
3482.84	1.59577e-07
3491.52	-2.1607e-07
3500.2	-3.72296e-07
3508.88	-2.83382e-07
3517.56	-1.89929e-07
3526.23	-1.36025e-07
3534.91	-8.36531e-08
3543.59	7.44227e-08
3552.27	3.71115e-07
3560.95	3.74051e-07
3569.62	2.83255e-07
3578.3	7.0219e-08
3586.98	-2.18564e-07
3595.66	-1.53184e-07
3604.34	-4.03738e-07
3613.02	-3.53766e-07
3621.69	-2.58304e-07
3630.37	-2.24903e-07
3639.05	-3.96819e-07
3647.73	-3.40253e-07
3656.41	-4.59677e-07
3665.08	-2.30997e-07
3673.76	-1.79319e-07
3682.44	-2.63857e-07
3691.12	-3.76227e-07
3699.8	-1.87816e-07
3708.48	-9.57275e-08
3717.15	-1.15066e-07
3725.83	1.55669e-07
3734.51	1.43092e-07
3743.19	6.76576e-07
3751.87	-1.77842e-08
3760.54	5.49049e-07
3769.22	6.85676e-07
3777.9	6.52207e-07
3786.58	6.45055e-07
3795.26	5.08066e-07
3803.94	2.56261e-07
3812.61	1.02639e-07
3821.29	1.72921e-08
3829.97	5.30702e-07
3838.65	2.40712e-07
3847.33	5.62806e-07
3856	3.63906e-07
3864.68	1.48376e-07
3873.36	4.8101e-07
3882.04	9.21192e-07
3890.72	7.58379e-07
3899.4	1.01232e-06
3908.07	1.45018e-06
3916.75	1.81926e-06
3925.43	1.7131e-06
3934.11	1.39734e-06
3942.79	1.3878e-06
3951.46	1.47522e-06
3960.14	1.43517e-06
3968.82	1.53855e-06
