Infrared Spectrum: TOLUENE
Formula: C7 H8
CAS: 108-88-3
State: LIQUID
Class: COBLENTZ
Instrument: PERKIN-ELMER
Sampling: TRANSMISSION
Path length: 0.0024 CM
Resolution: 4
Origin: STANDARD OIL OF OHIO
1/CM	TRANSMITTANCE
579.481	0.641
587.913	0.628
596.344	0.5971
604.776	0.577
613.208	0.5769
621.64	0.5798
630.071	0.5918
638.503	0.6108
646.935	0.6274
655.366	0.6497
663.798	0.651
672.23	0.6248
680.661	0.5442
689.093	0.4429
697.525	0.0575
705.957	0.3035
714.388	0.5274
722.82	0.3347
731.252	0.0216
739.683	0.0324
748.115	0.2982
756.547	0.5973
764.978	0.7349
773.41	0.788
781.842	0.8113
790.274	0.7686
798.705	0.8408
807.137	0.8582
815.569	0.862
824	0.865
832.432	0.8609
840.864	0.8424
849.295	0.8361
857.727	0.8562
866.159	0.865
874.591	0.86
883.022	0.862
891.454	0.8418
899.886	0.7585
908.317	0.8284
916.749	0.8524
925.181	0.857
933.612	0.8462
942.044	0.8468
950.476	0.8363
958.908	0.8306
967.339	0.8193
975.771	0.816
984.203	0.809
992.634	0.816
1001.07	0.8101
1009.5	0.808
1017.93	0.7964
1026.36	0.7253
1034.79	0.393
1043.22	0.5963
1051.66	0.6415
1060.09	0.7345
1068.52	0.7525
1076.95	0.6544
1085.38	0.412
1093.81	0.7094
1102.25	0.7814
1110.68	0.7422
1119.11	0.8318
1127.54	0.848
1135.97	0.8449
1144.41	0.8369
1152.84	0.8107
1161.27	0.7971
1169.7	0.804
1178.13	0.7551
1186.56	0.7781
1195	0.8279
1203.43	0.838
1211.86	0.7977
1220.29	0.8488
1228.72	0.869
1237.15	0.8672
1245.59	0.8535
1254.02	0.8581
1262.45	0.8687
1270.88	0.8673
1279.31	0.867
1287.74	0.8686
1296.18	0.8624
1304.61	0.8534
1313.04	0.842
1321.47	0.85
1329.9	0.8405
1338.33	0.8386
1346.77	0.8336
1355.2	0.8158
1363.63	0.7879
1372.06	0.7353
1380.49	0.597
1388.92	0.7025
1397.36	0.748
1405.79	0.7375
1414.22	0.7192
1422.65	0.7022
1431.08	0.6898
1439.51	0.6608
1447.95	0.5566
1456.38	0.401
1464.81	0.3134
1473.24	0.362
1481.67	0.4888
1490.1	0.5048
1498.54	0.1906
1506.97	0.3032
1515.4	0.6929
1523.83	0.7058
1532.26	0.708
1540.69	0.7652
1549.13	0.8048
1557.56	0.8036
1565.99	0.7953
1574.42	0.7503
1582.85	0.7552
1591.29	0.7508
1599.72	0.7245
1608.15	0.5195
1616.58	0.5485
1625.01	0.7705
1633.44	0.7776
1641.88	0.8737
1650.31	0.8964
1658.74	0.899
1667.17	0.901
1675.6	0.901
1684.03	0.901
1692.47	0.908
1700.9	0.903
1709.33	0.906
1717.76	0.9058
1726.19	0.899
1734.62	0.8694
1743.06	0.8434
1751.49	0.8825
1759.92	0.906
1768.35	0.901
1776.78	0.891
1785.21	0.881
1793.65	0.876
1802.08	0.8355
1810.51	0.767
1818.94	0.8239
1827.37	0.8638
1835.8	0.8819
1844.24	0.886
1852.67	0.8606
1861.1	0.7779
1869.53	0.7571
1877.96	0.8082
1886.39	0.8308
1894.83	0.8858
1903.26	0.9026
1911.69	0.9075
1920.12	0.906
1928.55	0.8908
1936.98	0.8559
1945.42	0.7711
1953.85	0.7423
1962.28	0.8108
1970.71	0.8277
1979.14	0.8856
1987.58	0.8997
1996.01	0.894
2004.44	0.9029
2012.87	0.913
2021.3	0.915
2029.73	0.9206
2038.17	0.921
2046.6	0.923
2055.03	0.923
2063.46	0.923
2071.89	0.921
2080.32	0.9206
2088.76	0.923
2097.19	0.923
2105.62	0.923
2114.05	0.921
2122.48	0.921
2130.91	0.921
2139.35	0.921
2147.78	0.921
2156.21	0.9204
2164.64	0.9154
2173.07	0.901
2181.5	0.916
2189.94	0.9154
2198.37	0.915
2206.8	0.92
2215.23	0.9154
2223.66	0.92
2232.09	0.92
2240.53	0.916
2248.96	0.916
2257.39	0.9154
2265.82	0.91
2274.25	0.9123
2282.68	0.9117
2291.12	0.911
2299.55	0.9123
2307.98	0.915
2316.41	0.9041
2324.84	0.9036
2333.27	0.903
2341.71	0.9003
2350.14	0.9036
2358.57	0.908
2367	0.908
2375.43	0.911
2383.87	0.9104
2392.3	0.9034
2400.73	0.9049
2409.16	0.904
2417.59	0.8997
2426.02	0.9023
2434.46	0.911
2442.89	0.915
2451.32	0.915
2459.75	0.9156
2468.18	0.915
2476.61	0.915
2485.05	0.9154
2493.48	0.915
2501.91	0.9143
2510.34	0.915
2518.77	0.915
2527.2	0.916
2535.64	0.915
2544.07	0.915
2552.5	0.915
2560.93	0.916
2569.36	0.916
2577.79	0.913
2586.23	0.9021
2594.66	0.886
2603.09	0.9023
2611.52	0.9053
2619.95	0.9106
2628.38	0.911
2636.82	0.911
2645.25	0.913
2653.68	0.913
2662.11	0.913
2670.54	0.913
2678.97	0.913
2687.41	0.913
2695.84	0.9117
2704.27	0.911
2712.7	0.9087
2721.13	0.903
2729.56	0.8921
2738	0.8537
2746.43	0.8292
2754.86	0.8929
2763.29	0.8997
2771.72	0.8991
2780.16	0.894
2788.59	0.893
2797.02	0.8864
2805.45	0.8797
2813.88	0.8669
2822.31	0.859
2830.75	0.8431
2839.18	0.8236
2847.61	0.7878
2856.04	0.7091
2864.47	0.5837
2872.9	0.4919
2881.34	0.473
2889.77	0.4964
2898.2	0.5617
2906.63	0.5889
2915.06	0.5191
2923.49	0.3467
2931.93	0.247
2940.36	0.3145
2948.79	0.3913
2957.22	0.3926
2965.65	0.4032
2974.08	0.4461
2982.52	0.4525
2990.95	0.4503
2999.38	0.4706
3007.81	0.45
3016.24	0.3968
3024.67	0.3135
3033.11	0.1182
3041.54	0.0896
3049.97	0.2388
3058.4	0.341
3066.83	0.303
3075.26	0.2881
3083.7	0.4336
3092.13	0.4191
3100.56	0.414
3108.99	0.6651
3117.42	0.6966
3125.85	0.7759
3134.29	0.8406
3142.72	0.8689
3151.15	0.8783
3159.58	0.882
3168.01	0.8827
3176.45	0.8853
3184.88	0.8953
3193.31	0.899
3201.74	0.901
3210.17	0.9023
3218.6	0.903
3227.04	0.904
3235.47	0.906
3243.9	0.904
3252.33	0.904
3260.76	0.904
3269.19	0.904
3277.63	0.904
3286.06	0.904
3294.49	0.904
3302.92	0.904
3311.35	0.903
3319.78	0.903
3328.22	0.903
3336.65	0.903
3345.08	0.903
3353.51	0.903
3361.94	0.903
3370.37	0.901
3378.81	0.901
3387.24	0.901
3395.67	0.901
3404.1	0.901
3412.53	0.901
3420.96	0.901
3429.4	0.899
3437.83	0.899
3446.26	0.899
3454.69	0.899
3463.12	0.898
3471.55	0.898
3479.99	0.8967
3488.42	0.896
3496.85	0.896
3505.28	0.896
3513.71	0.896
3522.14	0.898
3530.58	0.898
3539.01	0.898
3547.44	0.899
3555.87	0.898
3564.3	0.898
3572.74	0.896
3581.17	0.8947
3589.6	0.893
3598.03	0.896
3606.46	0.8947
3614.89	0.893
3623.33	0.893
3631.76	0.893
3640.19	0.891
3648.62	0.891
3657.05	0.891
3665.48	0.893
3673.92	0.893
3682.35	0.893
3690.78	0.894
3699.21	0.893
3707.64	0.893
3716.07	0.893
3724.51	0.893
3732.94	0.893
3741.37	0.893
3749.8	0.8917
3758.23	0.8917
3766.66	0.891
3775.1	0.8897
3783.53	0.889
3791.96	0.889
3800.39	0.887
3808.82	0.887
3817.25	0.887
3825.69	0.886
3834.12	0.886
3842.55	0.886
3850.98	0.886
3859.41	0.887
3867.84	0.886
3876.28	0.886
3884.71	0.886
3893.14	0.886
3901.57	0.886
3910	0.886
3918.43	0.887
3926.87	0.887
3935.3	0.887
3943.73	0.887
