Infrared Spectrum: 1,3-Dimethylbenzene
Formula: 1,3-( C H3)2 C6 H4
CAS: 108-38-3
State: gas
Melting point: -47.87 C
Boiling point: 139.1 C
Class: IUPAC A
Instrument: IFS66V (Bruker)
Instrument parameters: KBr Beam Splitter; MCT Detector; Multipass cell
Sampling: 1 L/min Flow
Resolution: 0.1250
Temperature: 23 C
Pressure: 101.3 Pa
Origin: NIST, Analytical Chemistry Division, 301-975-3108
cm-1	(micromol/mol)-1m-1 (base 10)
575.05	-4.33366e-06
583.608	-1.08158e-06
592.165	-9.98284e-07
600.723	1.26328e-08
609.281	-2.9084e-07
617.838	5.81662e-07
626.396	3.343e-07
634.954	-8.18435e-07
643.511	-1.04425e-07
652.069	5.15068e-07
660.626	2.98069e-06
669.184	7.50608e-06
677.742	3.68852e-05
686.299	5.8468e-05
694.857	6.63739e-05
703.415	4.35738e-05
711.972	7.61563e-06
720.53	6.32739e-07
729.088	1.41415e-06
737.645	1.58813e-06
746.203	1.76314e-05
754.761	0.000104755
763.318	0.000173728
771.876	0.000166833
780.434	0.000120203
788.991	1.94929e-05
797.549	2.47426e-06
806.106	6.73465e-07
814.664	4.77995e-07
823.222	9.63563e-07
831.779	3.43696e-09
840.337	-1.19854e-07
848.895	1.3587e-06
857.452	4.74399e-06
866.01	1.1525e-05
874.568	3.45506e-05
883.125	1.3119e-05
891.683	9.03755e-06
900.241	1.66561e-05
908.798	1.32071e-05
917.356	3.54959e-06
925.914	8.88941e-07
934.471	1.44092e-06
943.029	2.1981e-06
951.586	2.82838e-06
960.144	3.18468e-06
968.702	4.77021e-06
977.259	4.83049e-06
985.817	4.73936e-06
994.375	5.97315e-06
1002.93	9.26451e-06
1011.49	9.0849e-06
1020.05	6.33901e-06
1028.61	6.91164e-06
1037.16	1.31564e-05
1045.72	2.11793e-05
1054.28	1.90568e-05
1062.84	1.20678e-05
1071.39	8.04359e-06
1079.95	1.02823e-05
1088.51	2.37229e-05
1097.07	2.06302e-05
1105.62	1.51806e-05
1114.18	5.76783e-06
1122.74	4.59569e-06
1131.3	4.30039e-06
1139.85	2.65832e-06
1148.41	3.08858e-06
1156.97	3.70806e-06
1165.53	9.33972e-06
1174.09	6.46769e-06
1182.64	3.57627e-06
1191.2	2.51079e-06
1199.76	1.98905e-06
1208.32	1.55336e-06
1216.87	1.09324e-06
1225.43	1.18054e-06
1233.99	1.33008e-06
1242.55	2.72186e-06
1251.1	2.95279e-06
1259.66	3.66419e-06
1268.22	2.50145e-06
1276.78	1.82312e-06
1285.33	1.59347e-06
1293.89	1.54714e-06
1302.45	1.58468e-06
1311.01	2.15786e-06
1319.57	2.20796e-06
1328.12	2.63139e-06
1336.68	2.73625e-06
1345.24	3.34872e-06
1353.8	5.02558e-06
1362.35	8.64345e-06
1370.91	1.39298e-05
1379.47	2.66805e-05
1388.03	3.35735e-05
1396.58	1.98331e-05
1405.14	1.61052e-05
1413.7	1.67768e-05
1422.26	1.86407e-05
1430.81	2.16179e-05
1439.37	3.55757e-05
1447.93	4.5003e-05
1456.49	4.31921e-05
1465.05	4.37212e-05
1473.6	5.23921e-05
1482.16	6.78714e-05
1490.72	9.42355e-05
1499.28	0.000107679
1507.83	9.11217e-05
1516.39	5.81738e-05
1524.95	4.74478e-05
1533.51	4.46227e-05
1542.06	3.62013e-05
1550.62	2.08001e-05
1559.18	1.65194e-05
1567.74	1.66384e-05
1576.29	1.64528e-05
1584.85	2.25492e-05
1593.41	3.86997e-05
1601.97	6.72334e-05
1610.53	0.000137261
1619.08	0.00016312
1627.64	6.70607e-05
1636.2	7.63349e-06
1644.76	5.14299e-06
1653.31	4.32003e-06
1661.87	5.16656e-06
1670.43	1.31729e-06
1678.99	6.23243e-07
1687.54	7.12847e-07
1696.1	3.17429e-07
1704.66	1.05404e-06
1713.22	1.33847e-06
1721.77	1.36954e-06
1730.33	3.14301e-06
1738.89	7.71684e-06
1747.45	6.56932e-06
1756.01	7.17125e-06
1764.56	6.54146e-06
1773.12	7.49826e-06
1781.68	6.57564e-06
1790.24	1.80316e-06
1798.79	1.0875e-06
1807.35	1.68036e-06
1815.91	2.11901e-06
1824.47	1.84227e-06
1833.02	2.98972e-06
1841.58	5.62044e-06
1850.14	1.31961e-05
1858.7	9.73075e-06
1867.25	2.52255e-06
1875.81	1.16534e-06
1884.37	1.02249e-06
1892.93	1.1251e-06
1901.49	1.50251e-06
1910.04	2.61918e-06
1918.6	5.15403e-06
1927.16	1.13135e-05
1935.72	8.42446e-06
1944.27	5.39e-06
1952.83	5.40234e-07
1961.39	8.74611e-08
1969.95	3.91476e-07
1978.5	5.78654e-08
1987.06	7.03618e-08
1995.62	2.8578e-08
2004.18	-1.22453e-07
2012.73	-5.65466e-08
2021.29	-3.04743e-08
2029.85	-2.43175e-07
2038.41	-2.52208e-07
2046.97	-3.63494e-07
2055.52	-4.10629e-07
2064.08	-2.54318e-07
2072.64	-4.05178e-08
2081.2	3.72864e-08
2089.75	-3.38071e-07
2098.31	1.52447e-07
2106.87	4.80052e-07
2115.43	6.95817e-07
2123.98	-3.09475e-07
2132.54	-4.56672e-07
2141.1	-8.67099e-08
2149.66	1.28597e-07
2158.21	6.77854e-07
2166.77	-1.43117e-07
2175.33	-1.05746e-08
2183.89	-1.16706e-07
2192.45	-2.81244e-07
2201	-2.99952e-07
2209.56	3.44661e-07
2218.12	1.76068e-07
2226.68	-1.92812e-08
2235.23	-2.23303e-07
2243.79	-1.11186e-07
2252.35	-1.15913e-07
2260.91	3.89641e-07
2269.46	4.66195e-07
2278.02	9.05714e-07
2286.58	1.48587e-06
2295.14	1.53574e-06
2303.69	5.80407e-07
2312.25	6.36606e-07
2320.81	9.30653e-07
2329.37	1.35572e-06
2337.93	1.8679e-06
2346.48	1.7585e-06
2355.04	9.78852e-07
2363.6	1.28095e-06
2372.16	6.09695e-07
2380.71	7.92572e-07
2389.27	1.39786e-06
2397.83	1.24356e-06
2406.39	1.05674e-06
2414.94	1.8568e-06
2423.5	1.74971e-06
2432.06	1.68475e-06
2440.62	1.22242e-06
2449.17	1.56064e-06
2457.73	1.25061e-06
2466.29	1.10408e-06
2474.85	1.17298e-06
2483.41	1.44513e-06
2491.96	1.08348e-06
2500.52	1.06871e-06
2509.08	8.77883e-07
2517.64	4.66545e-07
2526.19	4.3569e-07
2534.75	1.13458e-06
2543.31	1.22519e-06
2551.87	8.32601e-07
2560.42	3.81622e-07
2568.98	4.63926e-07
2577.54	1.78021e-07
2586.1	4.64316e-07
2594.65	2.81318e-07
2603.21	5.32477e-07
2611.77	6.52456e-07
2620.33	6.24966e-07
2628.89	7.72866e-07
2637.44	9.50447e-07
2646	7.12943e-07
2654.56	5.65947e-07
2663.12	3.64575e-07
2671.67	8.02607e-08
2680.23	1.17348e-07
2688.79	1.63714e-07
2697.35	-6.64946e-08
2705.9	4.62162e-07
2714.46	1.11586e-06
2723.02	1.92503e-06
2731.58	5.8907e-06
2740.13	1.13876e-05
2748.69	1.52133e-05
2757.25	4.09873e-06
2765.81	2.16004e-06
2774.37	1.68643e-06
2782.92	1.64596e-06
2791.48	2.19339e-06
2800.04	3.29605e-06
2808.6	4.11991e-06
2817.15	5.66909e-06
2825.71	7.85631e-06
2834.27	1.05616e-05
2842.83	1.47924e-05
2851.38	2.54925e-05
2859.94	5.04976e-05
2868.5	9.42293e-05
2877.06	0.000121329
2885.61	0.000112948
2894.17	9.22808e-05
2902.73	9.75053e-05
2911.29	0.000115238
2919.85	0.000158183
2928.4	0.000227411
2936.96	0.000257747
2945.52	0.000221643
2954.08	0.000135009
2962.63	9.53582e-05
2971.19	6.85695e-05
2979.75	7.47146e-05
2988.31	8.92124e-05
2996.86	0.000110636
3005.42	0.000137599
3013.98	0.000176777
3022.54	0.000218515
3031.09	0.000239897
3039.65	0.000211992
3048.21	0.000172286
3056.77	0.000133827
3065.33	0.000117427
3073.88	8.91875e-05
3082.44	4.32149e-05
3091	3.02516e-05
3099.56	2.40221e-05
3108.11	2.13381e-05
3116.67	1.91642e-05
3125.23	1.40307e-05
3133.79	5.91923e-06
3142.34	2.40474e-06
3150.9	1.13531e-06
3159.46	8.53679e-07
3168.02	6.23682e-07
3176.57	4.53905e-07
3185.13	4.03643e-07
3193.69	2.3055e-07
3202.25	4.94253e-07
3210.81	5.30574e-07
3219.36	-1.49066e-07
3227.92	-7.17534e-07
3236.48	-5.19194e-07
3245.04	-5.71437e-07
3253.59	-1.58169e-08
3262.15	5.42885e-07
3270.71	6.62537e-07
3279.27	-7.39088e-08
3287.82	3.16948e-08
3296.38	4.59332e-07
3304.94	1.99218e-07
3313.5	-8.25917e-08
3322.05	-3.68041e-07
3330.61	-5.4797e-07
3339.17	2.39278e-08
3347.73	6.21063e-08
3356.29	-4.84849e-08
3364.84	-3.3292e-07
3373.4	2.17274e-07
3381.96	-2.71691e-07
3390.52	3.73461e-07
3399.07	-7.20334e-08
3407.63	1.03682e-10
3416.19	-8.73147e-08
3424.75	1.63805e-07
3433.3	7.21236e-07
3441.86	3.17339e-07
3450.42	1.15219e-06
3458.98	1.11498e-06
3467.53	5.19237e-07
3476.09	3.73392e-07
3484.65	-2.62446e-07
3493.21	-3.50955e-07
3501.77	-4.76665e-07
3510.32	-7.6202e-07
3518.88	-2.21094e-07
3527.44	-3.387e-07
3536	4.52198e-09
3544.55	8.19287e-08
3553.11	5.02066e-07
3561.67	2.76239e-08
3570.23	4.23132e-07
3578.78	1.66953e-07
3587.34	9.02032e-09
3595.9	5.21172e-07
3604.46	-4.89124e-07
3613.01	-5.323e-07
3621.57	-3.50905e-07
3630.13	6.50276e-08
3638.69	-3.45309e-07
3647.25	-4.98339e-07
3655.8	-3.92516e-07
3664.36	-7.03088e-07
3672.92	2.37559e-07
3681.48	-1.34796e-07
3690.03	-4.21191e-07
3698.59	-2.66064e-07
3707.15	-1.48702e-08
3715.71	-2.52032e-07
3724.26	-4.5788e-07
3732.82	1.61556e-07
3741.38	6.1151e-07
3749.94	4.69612e-07
3758.49	4.54991e-07
3767.05	8.35677e-07
3775.61	9.48361e-07
3784.17	9.25539e-07
3792.73	4.51597e-07
3801.28	-9.00985e-07
3809.84	2.7661e-07
3818.4	7.96031e-08
3826.96	2.20939e-07
3835.51	8.43691e-07
3844.07	7.19561e-07
3852.63	1.6268e-07
3861.19	7.00098e-08
3869.74	2.12628e-07
3878.3	5.9514e-07
3886.86	1.17231e-06
3895.42	8.07272e-07
3903.97	1.35045e-06
3912.53	1.59688e-06
3921.09	1.61703e-06
3929.65	1.39256e-06
3938.21	9.4888e-07
3946.76	1.55861e-06
3955.32	1.3817e-06
3963.88	1.78797e-06
3972.44	1.5703e-06
