Infrared Spectrum: 1,3-Dimethylbenzene
Formula: 1,3-( C H3)2 C6 H4
CAS: 108-38-3
State: gas
Melting point: -47.87 C
Boiling point: 139.1 C
Class: IUPAC A
Instrument: IFS66V (Bruker)
Instrument parameters: KBr Beam Splitter; MCT Detector; Multipass cell
Sampling: 1 L/min Flow
Resolution: 0.1250
Temperature: 23 C
Pressure: 101.3 Pa
Origin: NIST, Analytical Chemistry Division, 301-975-3108
cm-1	(micromol/mol)-1m-1 (base 10)
575.05	-4.69053e-06
583.608	-1.04818e-06
592.165	-1.12207e-06
600.723	5.81883e-08
609.281	-3.15717e-07
617.838	5.81224e-07
626.396	4.27997e-07
634.954	-8.1218e-07
643.511	-7.75186e-08
652.069	5.40718e-07
660.626	3.08019e-06
669.184	7.38909e-06
677.742	3.69275e-05
686.299	5.82776e-05
694.857	6.62726e-05
703.415	4.35612e-05
711.972	7.4846e-06
720.53	4.80913e-07
729.088	1.32975e-06
737.645	1.38548e-06
746.203	1.74715e-05
754.761	0.00010483
763.318	0.000173375
771.876	0.000166327
780.434	0.000120338
788.991	1.9273e-05
797.549	2.35743e-06
806.106	5.87679e-07
814.664	4.60506e-07
823.222	9.978e-07
831.779	-6.17644e-08
840.337	-2.01259e-07
848.895	1.38099e-06
857.452	4.76982e-06
866.01	1.1539e-05
874.568	3.47392e-05
883.125	1.31657e-05
891.683	9.0312e-06
900.241	1.67088e-05
908.798	1.31729e-05
917.356	3.49102e-06
925.914	8.683e-07
934.471	1.41247e-06
943.029	2.16766e-06
951.586	2.82717e-06
960.144	3.16802e-06
968.702	4.79939e-06
977.259	4.84818e-06
985.817	4.75695e-06
994.375	5.95037e-06
1002.93	9.30115e-06
1011.49	9.08471e-06
1020.05	6.29923e-06
1028.61	6.86385e-06
1037.16	1.31685e-05
1045.72	2.11881e-05
1054.28	1.90655e-05
1062.84	1.20256e-05
1071.39	8.00964e-06
1079.95	1.02936e-05
1088.51	2.37726e-05
1097.07	2.0634e-05
1105.62	1.51807e-05
1114.18	5.76762e-06
1122.74	4.5901e-06
1131.3	4.31125e-06
1139.85	2.64725e-06
1148.41	3.09489e-06
1156.97	3.65569e-06
1165.53	9.35379e-06
1174.09	6.44249e-06
1182.64	3.5941e-06
1191.2	2.53474e-06
1199.76	1.97674e-06
1208.32	1.53735e-06
1216.87	1.09339e-06
1225.43	1.18752e-06
1233.99	1.31646e-06
1242.55	2.71877e-06
1251.1	2.96244e-06
1259.66	3.6565e-06
1268.22	2.48918e-06
1276.78	1.80594e-06
1285.33	1.58528e-06
1293.89	1.5298e-06
1302.45	1.5422e-06
1311.01	2.14532e-06
1319.57	2.21458e-06
1328.12	2.6372e-06
1336.68	2.72556e-06
1345.24	3.31575e-06
1353.8	5.05608e-06
1362.35	8.68874e-06
1370.91	1.39147e-05
1379.47	2.66832e-05
1388.03	3.36278e-05
1396.58	1.98133e-05
1405.14	1.60862e-05
1413.7	1.67536e-05
1422.26	1.86384e-05
1430.81	2.15907e-05
1439.37	3.55607e-05
1447.93	4.5007e-05
1456.49	4.31578e-05
1465.05	4.37049e-05
1473.6	5.23411e-05
1482.16	6.78242e-05
1490.72	9.42256e-05
1499.28	0.000107765
1507.83	9.12013e-05
1516.39	5.81696e-05
1524.95	4.74222e-05
1533.51	4.46689e-05
1542.06	3.61749e-05
1550.62	2.07837e-05
1559.18	1.65134e-05
1567.74	1.66148e-05
1576.29	1.63623e-05
1584.85	2.25209e-05
1593.41	3.87136e-05
1601.97	6.72426e-05
1610.53	0.000137494
1619.08	0.000164436
1627.64	6.70604e-05
1636.2	7.54731e-06
1644.76	5.10025e-06
1653.31	4.16111e-06
1661.87	5.16583e-06
1670.43	1.29862e-06
1678.99	6.09663e-07
1687.54	7.10679e-07
1696.1	3.2139e-07
1704.66	1.04041e-06
1713.22	1.33966e-06
1721.77	1.38106e-06
1730.33	3.13237e-06
1738.89	7.74289e-06
1747.45	6.55289e-06
1756.01	7.1835e-06
1764.56	6.55101e-06
1773.12	7.52219e-06
1781.68	6.57649e-06
1790.24	1.78496e-06
1798.79	1.08429e-06
1807.35	1.68141e-06
1815.91	2.11373e-06
1824.47	1.83469e-06
1833.02	2.957e-06
1841.58	5.61521e-06
1850.14	1.32229e-05
1858.7	9.73507e-06
1867.25	2.5241e-06
1875.81	1.15451e-06
1884.37	1.02474e-06
1892.93	1.12499e-06
1901.49	1.4947e-06
1910.04	2.59909e-06
1918.6	5.157e-06
1927.16	1.13345e-05
1935.72	8.39142e-06
1944.27	5.39852e-06
1952.83	5.10057e-07
1961.39	8.69491e-08
1969.95	4.07542e-07
1978.5	5.29687e-08
1987.06	7.23045e-08
1995.62	3.33064e-08
2004.18	-1.29249e-07
2012.73	-5.38054e-08
2021.29	-2.31683e-08
2029.85	-2.43651e-07
2038.41	-2.60967e-07
2046.97	-3.74385e-07
2055.52	-4.05079e-07
2064.08	-2.37424e-07
2072.64	-4.16146e-08
2081.2	3.46061e-08
2089.75	-3.44697e-07
2098.31	1.47181e-07
2106.87	4.71502e-07
2115.43	6.92684e-07
2123.98	-3.45251e-07
2132.54	-4.56444e-07
2141.1	-9.92381e-08
2149.66	1.43166e-07
2158.21	7.40394e-07
2166.77	-1.42189e-07
2175.33	1.94631e-10
2183.89	-1.03258e-07
2192.45	-2.73525e-07
2201	-3.17152e-07
2209.56	3.71654e-07
2218.12	2.00803e-07
2226.68	-2.28428e-08
2235.23	-2.35951e-07
2243.79	-1.06732e-07
2252.35	-1.29624e-07
2260.91	3.93472e-07
2269.46	4.40848e-07
2278.02	8.81509e-07
2286.58	1.4931e-06
2295.14	1.54082e-06
2303.69	5.75835e-07
2312.25	6.57061e-07
2320.81	9.17022e-07
2329.37	1.37803e-06
2337.93	1.8311e-06
2346.48	1.76528e-06
2355.04	9.46045e-07
2363.6	1.29621e-06
2372.16	5.92349e-07
2380.71	8.06759e-07
2389.27	1.40596e-06
2397.83	1.24324e-06
2406.39	1.03077e-06
2414.94	1.85315e-06
2423.5	1.72599e-06
2432.06	1.68558e-06
2440.62	1.20007e-06
2449.17	1.57776e-06
2457.73	1.24551e-06
2466.29	1.08028e-06
2474.85	1.15984e-06
2483.41	1.45899e-06
2491.96	1.08043e-06
2500.52	1.07776e-06
2509.08	8.95557e-07
2517.64	4.66628e-07
2526.19	4.41944e-07
2534.75	1.14355e-06
2543.31	1.20977e-06
2551.87	8.30038e-07
2560.42	3.89651e-07
2568.98	4.75076e-07
2577.54	1.81682e-07
2586.1	4.60572e-07
2594.65	2.73274e-07
2603.21	5.19451e-07
2611.77	6.43156e-07
2620.33	6.2022e-07
2628.89	7.52904e-07
2637.44	9.35636e-07
2646	7.1752e-07
2654.56	5.59988e-07
2663.12	3.82244e-07
2671.67	7.33704e-08
2680.23	1.1373e-07
2688.79	1.50242e-07
2697.35	-8.18532e-08
2705.9	4.4888e-07
2714.46	1.11997e-06
2723.02	1.93333e-06
2731.58	5.86539e-06
2740.13	1.13511e-05
2748.69	1.52807e-05
2757.25	4.07662e-06
2765.81	2.14875e-06
2774.37	1.68124e-06
2782.92	1.60786e-06
2791.48	2.17005e-06
2800.04	3.3e-06
2808.6	4.10984e-06
2817.15	5.65318e-06
2825.71	7.83896e-06
2834.27	1.05364e-05
2842.83	1.47301e-05
2851.38	2.5407e-05
2859.94	5.04567e-05
2868.5	9.42498e-05
2877.06	0.000121455
2885.61	0.000113009
2894.17	9.22269e-05
2902.73	9.74783e-05
2911.29	0.000115186
2919.85	0.00015817
2928.4	0.000227645
2936.96	0.000258009
2945.52	0.000221962
2954.08	0.000135119
2962.63	9.53377e-05
2971.19	6.84588e-05
2979.75	7.46406e-05
2988.31	8.91489e-05
2996.86	0.000110649
3005.42	0.000137622
3013.98	0.000176906
3022.54	0.000218652
3031.09	0.000240073
3039.65	0.000212107
3048.21	0.00017239
3056.77	0.000133862
3065.33	0.000117406
3073.88	8.91943e-05
3082.44	4.31466e-05
3091	3.02304e-05
3099.56	2.40066e-05
3108.11	2.13255e-05
3116.67	1.91315e-05
3125.23	1.40141e-05
3133.79	5.9074e-06
3142.34	2.37484e-06
3150.9	1.10474e-06
3159.46	8.2977e-07
3168.02	6.07715e-07
3176.57	4.35993e-07
3185.13	4.01464e-07
3193.69	2.32075e-07
3202.25	5.22449e-07
3210.81	5.46912e-07
3219.36	-1.88642e-07
3227.92	-7.43351e-07
3236.48	-5.03456e-07
3245.04	-6.11122e-07
3253.59	1.71066e-08
3262.15	5.49492e-07
3270.71	6.93658e-07
3279.27	-8.97976e-08
3287.82	4.13418e-08
3296.38	4.90909e-07
3304.94	2.03388e-07
3313.5	-9.75046e-08
3322.05	-4.29769e-07
3330.61	-5.97515e-07
3339.17	4.52408e-08
3347.73	5.54261e-08
3356.29	-8.20342e-08
3364.84	-3.41714e-07
3373.4	2.39753e-07
3381.96	-3.12725e-07
3390.52	3.68114e-07
3399.07	-1.05213e-07
3407.63	-1.11631e-08
3416.19	-1.21834e-07
3424.75	1.52525e-07
3433.3	7.56971e-07
3441.86	3.13478e-07
3450.42	1.21057e-06
3458.98	1.16592e-06
3467.53	5.52937e-07
3476.09	3.7608e-07
3484.65	-3.22822e-07
3493.21	-3.51189e-07
3501.77	-5.15388e-07
3510.32	-8.21035e-07
3518.88	-2.14689e-07
3527.44	-3.56482e-07
3536	3.06753e-08
3544.55	6.63719e-08
3553.11	4.98705e-07
3561.67	-4.87287e-08
3570.23	4.43981e-07
3578.78	1.82677e-07
3587.34	1.87755e-08
3595.9	5.58403e-07
3604.46	-5.12999e-07
3613.01	-5.4526e-07
3621.57	-3.54395e-07
3630.13	9.22205e-08
3638.69	-3.67423e-07
3647.25	-5.22073e-07
3655.8	-4.03935e-07
3664.36	-7.35947e-07
3672.92	2.718e-07
3681.48	-1.25209e-07
3690.03	-4.26011e-07
3698.59	-2.86504e-07
3707.15	-1.28793e-08
3715.71	-2.61294e-07
3724.26	-5.10606e-07
3732.82	1.56894e-07
3741.38	6.18549e-07
3749.94	4.91537e-07
3758.49	4.35497e-07
3767.05	8.24361e-07
3775.61	9.56601e-07
3784.17	9.60478e-07
3792.73	4.5372e-07
3801.28	-9.58783e-07
3809.84	3.01185e-07
3818.4	4.63194e-08
3826.96	2.12692e-07
3835.51	8.84782e-07
3844.07	7.33988e-07
3852.63	1.38506e-07
3861.19	4.74417e-08
3869.74	2.23449e-07
3878.3	5.66346e-07
3886.86	1.21823e-06
3895.42	7.87336e-07
3903.97	1.35574e-06
3912.53	1.60138e-06
3921.09	1.6249e-06
3929.65	1.37306e-06
3938.21	8.81955e-07
3946.76	1.60457e-06
3955.32	1.36341e-06
3963.88	1.81216e-06
3972.44	1.56102e-06
