Infrared Spectrum: Ethenyl Ester-Acetic Acid
Formula: C H3 C O2 C H: C H2
CAS: 108-05-4
State: gas
Melting point: -93.2 C
Boiling point: 72.2 C
Class: IUPAC A
Instrument: IFS66V (Bruker)
Instrument parameters: KBr Beam splitter; MCT Detector; Multipass cell
Sampling: 1 L/min Flow
Resolution: 0.1250
Temperature: 23 C
Pressure: 101.3 kPa
Origin: NIST, Anayltical Chemistry Division, 301-975-3108
cm-1	(micromol/mol)-1m-1 (base 10)
574.988	1.0629e-05
583.546	1.98018e-05
592.103	3.71152e-05
600.661	2.86694e-05
609.219	3.20551e-05
617.776	3.38651e-05
626.334	4.19041e-05
634.891	4.21808e-05
643.449	4.18376e-05
652.007	2.74463e-05
660.564	1.42748e-05
669.122	6.53497e-06
677.68	4.62019e-06
686.237	6.15808e-06
694.795	9.0466e-06
703.352	1.06112e-05
711.91	1.16103e-05
720.468	1.01142e-05
729.025	7.6194e-06
737.583	6.06624e-06
746.141	5.43543e-06
754.698	6.14608e-06
763.256	7.27094e-06
771.813	9.46946e-06
780.371	9.78956e-06
788.929	9.47077e-06
797.486	8.98086e-06
806.044	9.70598e-06
814.602	1.30128e-05
823.159	1.98519e-05
831.717	3.76201e-05
840.274	7.91017e-05
848.832	0.00010413
857.39	0.000159819
865.947	0.000156461
874.505	0.000217363
883.063	0.000145931
891.62	9.42779e-05
900.178	3.62023e-05
908.735	1.46169e-05
917.293	1.56397e-05
925.851	3.42012e-05
934.408	6.9966e-05
942.966	0.000104765
951.524	0.000131743
960.081	0.000106018
968.639	0.000123232
977.196	0.000101937
985.754	9.83902e-05
994.312	6.5829e-05
1002.87	0.000109989
1011.43	0.000234973
1019.98	0.000348892
1028.54	0.000312565
1037.1	0.000171864
1045.66	7.70604e-05
1054.22	6.59681e-05
1062.77	6.04693e-05
1071.33	5.44413e-05
1079.89	4.64171e-05
1088.45	3.80581e-05
1097	3.11145e-05
1105.56	2.94707e-05
1114.12	3.30547e-05
1122.68	5.39746e-05
1131.23	0.000205092
1139.79	0.000892694
1148.35	0.000964355
1156.91	0.000774375
1165.46	7.91488e-05
1174.02	4.69659e-05
1182.58	6.55184e-05
1191.14	0.000114664
1199.69	0.00029648
1208.25	0.00104442
1216.81	0.00256843
1225.37	0.00283767
1233.93	0.00201088
1242.48	0.000390253
1251.04	0.000227629
1259.6	0.000193329
1268.16	7.31802e-05
1276.71	5.5373e-05
1285.27	0.000123515
1293.83	0.000171508
1302.39	0.000169031
1310.94	6.59071e-05
1319.5	2.16252e-05
1328.06	1.35356e-05
1336.62	1.23317e-05
1345.17	1.71409e-05
1353.73	4.25083e-05
1362.29	0.00016398
1370.85	0.000350873
1379.4	0.000441419
1387.96	0.000270831
1396.52	0.00010674
1405.08	3.63162e-05
1413.64	2.73567e-05
1422.19	3.04984e-05
1430.75	3.89706e-05
1439.31	3.71487e-05
1447.87	3.56421e-05
1456.42	2.91701e-05
1464.98	2.31918e-05
1473.54	2.0422e-05
1482.1	1.96372e-05
1490.65	1.72683e-05
1499.21	1.57761e-05
1507.77	1.46798e-05
1516.33	1.3883e-05
1524.88	1.2702e-05
1533.44	1.14867e-05
1542	1.00648e-05
1550.56	1.2543e-05
1559.11	1.61132e-05
1567.67	1.82214e-05
1576.23	1.84896e-05
1584.79	2.17178e-05
1593.35	2.24731e-05
1601.9	2.29753e-05
1610.46	2.75319e-05
1619.02	3.81471e-05
1627.58	4.69081e-05
1636.13	0.000107238
1644.69	0.00041908
1653.25	0.00055561
1661.81	0.000447409
1670.36	6.16408e-05
1678.92	2.49475e-05
1687.48	1.68098e-05
1696.04	1.3728e-05
1704.59	1.3714e-05
1713.15	1.17449e-05
1721.71	1.24377e-05
1730.27	1.9923e-05
1738.83	2.80002e-05
1747.38	6.03589e-05
1755.94	0.000145838
1764.5	0.000382379
1773.06	0.00101538
1781.61	0.00107508
1790.17	0.00148911
1798.73	0.00061604
1807.29	0.000213027
1815.84	5.49186e-05
1824.4	2.29811e-05
1832.96	2.04047e-05
1841.52	1.79922e-05
1850.07	2.16421e-05
1858.63	2.62591e-05
1867.19	2.84627e-05
1875.75	2.52849e-05
1884.3	1.72488e-05
1892.86	1.44596e-05
1901.42	1.42719e-05
1909.98	1.14196e-05
1918.54	6.60166e-06
1927.09	4.27702e-06
1935.65	4.45398e-06
1944.21	5.1833e-06
1952.77	5.23568e-06
1961.32	5.25546e-06
1969.88	4.69985e-06
1978.44	7.1615e-06
1987	1.29435e-05
1995.55	1.35739e-05
2004.11	1.06535e-05
2012.67	5.49278e-06
2021.23	5.4129e-06
2029.78	5.3726e-06
2038.34	6.23039e-06
2046.9	1.06767e-05
2055.46	2.09948e-05
2064.01	2.76975e-05
2072.57	2.63294e-05
2081.13	1.19464e-05
2089.69	6.65677e-06
2098.25	5.54347e-06
2106.8	6.09662e-06
2115.36	7.19786e-06
2123.92	7.31474e-06
2132.48	5.99385e-06
2141.03	3.86606e-06
2149.59	4.30022e-06
2158.15	4.52832e-06
2166.71	4.75071e-06
2175.26	4.40902e-06
2183.82	3.31513e-06
2192.38	2.468e-06
2200.94	1.99352e-06
2209.49	2.41909e-06
2218.05	3.66655e-06
2226.61	4.84791e-06
2235.17	4.55079e-06
2243.72	3.62091e-06
2252.28	2.85245e-06
2260.84	2.23346e-06
2269.4	3.23146e-06
2277.96	8.11035e-06
2286.51	1.12316e-05
2295.07	1.1032e-05
2303.63	3.45176e-06
2312.19	1.17367e-06
2320.74	1.13596e-06
2329.3	1.52931e-06
2337.86	2.6712e-06
2346.42	3.40612e-06
2354.97	4.20568e-06
2363.53	3.67533e-06
2372.09	3.13625e-06
2380.65	2.40659e-06
2389.2	1.48483e-06
2397.76	1.82652e-06
2406.32	2.55297e-06
2414.88	3.70657e-06
2423.44	5.54939e-06
2431.99	8.12886e-06
2440.55	8.25283e-06
2449.11	6.48118e-06
2457.67	2.89212e-06
2466.22	1.93036e-06
2474.78	1.67734e-06
2483.34	1.58005e-06
2491.9	1.8581e-06
2500.45	1.98304e-06
2509.01	1.0974e-06
2517.57	7.33682e-07
2526.13	6.59824e-07
2534.68	4.42637e-07
2543.24	3.0416e-07
2551.8	2.29964e-07
2560.36	2.47825e-07
2568.91	3.8883e-07
2577.47	1.05172e-06
2586.03	1.75424e-06
2594.59	1.90887e-06
2603.15	1.47286e-06
2611.7	1.11675e-06
2620.26	1.69615e-06
2628.82	2.04317e-06
2637.38	2.14123e-06
2645.93	1.02436e-06
2654.49	8.62264e-07
2663.05	1.01915e-06
2671.61	1.10266e-06
2680.16	9.65901e-07
2688.72	6.31748e-07
2697.28	3.68105e-07
2705.84	3.97808e-07
2714.39	3.51488e-07
2722.95	4.73125e-07
2731.51	5.40792e-07
2740.07	1.52694e-06
2748.62	2.88365e-06
2757.18	2.6639e-06
2765.74	3.10303e-06
2774.3	1.33818e-06
2782.86	1.06072e-06
2791.41	1.3805e-06
2799.97	1.64805e-06
2808.53	9.33445e-07
2817.09	7.04929e-07
2825.64	6.76871e-07
2834.2	7.59274e-07
2842.76	1.16704e-06
2851.32	2.05708e-06
2859.87	2.3173e-06
2868.43	2.32393e-06
2876.99	1.53121e-06
2885.55	1.16254e-06
2894.1	1.13679e-06
2902.66	1.16694e-06
2911.22	1.26145e-06
2919.78	1.38112e-06
2928.34	2.32877e-06
2936.89	4.60212e-06
2945.45	9.55539e-06
2954.01	1.08094e-05
2962.57	1.24314e-05
2971.12	9.26242e-06
2979.68	9.00264e-06
2988.24	9.99556e-06
2996.8	1.21549e-05
3005.35	1.13788e-05
3013.91	1.15519e-05
3022.47	1.37452e-05
3031.03	1.70538e-05
3039.58	1.88399e-05
3048.14	2.05789e-05
3056.7	2.21598e-05
3065.26	2.34683e-05
3073.81	1.88058e-05
3082.37	1.74287e-05
3090.93	3.45911e-05
3099.49	4.16319e-05
3108.05	4.8028e-05
3116.6	1.9062e-05
3125.16	2.64066e-05
3133.72	2.0472e-05
3142.28	1.85372e-05
3150.83	5.64504e-06
3159.39	2.60173e-06
3167.95	1.72592e-06
3176.51	1.23074e-06
3185.06	1.04492e-06
3193.62	9.76789e-07
3202.18	8.00851e-07
3210.74	6.59457e-07
3219.29	4.46012e-07
3227.85	2.64377e-07
3236.41	5.11038e-08
3244.97	6.4349e-08
3253.52	6.62407e-08
3262.08	-5.68697e-08
3270.64	-4.68731e-08
3279.2	-1.30666e-07
3287.76	1.11873e-07
3296.31	3.50829e-08
3304.87	-8.17668e-08
3313.43	-3.71365e-07
3321.99	-5.31286e-07
3330.54	-2.34445e-07
3339.1	-5.83212e-08
3347.66	-2.28745e-08
3356.22	2.20087e-08
3364.77	-2.57087e-07
3373.33	-9.8679e-08
3381.89	-4.06561e-08
3390.45	-8.35203e-08
3399	-1.32278e-07
3407.56	-1.3808e-07
3416.12	-2.7843e-07
3424.68	-7.84237e-08
3433.23	8.62741e-08
3441.79	-5.72226e-08
3450.35	-1.28363e-07
3458.91	1.54858e-07
3467.47	8.35203e-08
3476.02	3.18344e-08
3484.58	-1.50529e-07
3493.14	-1.1092e-07
3501.7	-1.41463e-07
3510.25	2.89914e-07
3518.81	1.27192e-06
3527.37	4.10629e-06
3535.93	1.10502e-05
3544.48	1.47952e-05
3553.04	1.67859e-05
3561.6	8.72492e-06
3570.16	2.622e-06
3578.71	4.05538e-07
3587.27	-1.88031e-07
3595.83	-2.5055e-07
3604.39	-4.57635e-07
3612.95	-5.35742e-07
3621.5	-5.8279e-07
3630.06	-5.29518e-07
3638.62	-5.12388e-07
3647.18	-6.75299e-07
3655.73	-3.72678e-07
3664.29	-3.16372e-07
3672.85	-3.97895e-07
3681.41	-3.83562e-07
3689.96	-4.34266e-07
3698.52	-5.20325e-07
3707.08	-3.61397e-07
3715.64	-4.58661e-07
3724.19	-4.11461e-07
3732.75	-4.03276e-07
3741.31	-6.57601e-07
3749.87	-7.39288e-07
3758.42	-4.33397e-07
3766.98	-3.06779e-07
3775.54	-2.97459e-07
3784.1	-4.47682e-07
3792.66	-3.34463e-07
3801.21	-9.3482e-07
3809.77	-3.47159e-07
3818.33	-4.48239e-07
3826.89	-5.19216e-07
3835.44	-2.21742e-07
3844	-3.40611e-07
3852.56	-4.55143e-07
3861.12	-2.02593e-07
3869.67	-4.06681e-07
3878.23	-1.14733e-07
3886.79	-1.66688e-07
3895.35	-2.82475e-08
3903.9	9.63471e-08
3912.46	1.80504e-07
3921.02	2.09465e-08
3929.58	1.20819e-07
3938.13	1.15253e-07
3946.69	2.48378e-07
3955.25	2.58789e-07
3963.81	6.36815e-07
3972.37	1.15913e-06
