Infrared Spectrum: Toluene
Formula: C H3 C6 H5
CAS: 108-88-3
State: gas
Melting point: -95 C
Boiling point: 110.6 C
Class: IUPAC A
Instrument: IFS66V (Bruker)
Instrument parameters: KBr Beam splitter; MCT Detector; Multipass cell
Sampling: 1 L/min Flow
Resolution: 0.4820
Temperature: 23 C
Pressure: 101.3 kPa
Origin: NIST, Anayltical Chemistry Division, 301-975-3108
cm-1	(micromol/mol)-1m-1 (base 10)
574.928	-7.80252e-08
583.606	-3.81296e-07
592.284	-3.66861e-07
600.962	9.60866e-08
609.641	1.7211e-07
618.319	3.55762e-07
626.997	7.46126e-07
635.675	6.87343e-07
644.353	5.14064e-07
653.031	7.32266e-07
661.71	3.36862e-06
670.388	1.53554e-05
679.066	5.62531e-05
687.744	7.30206e-05
696.422	6.94229e-05
705.1	0.000108019
713.778	0.000163881
722.457	0.000193717
731.135	0.000268132
739.813	0.000177117
748.491	7.37862e-05
757.169	1.00626e-05
765.847	1.83619e-06
774.526	2.01523e-06
783.204	1.5367e-06
791.882	1.90884e-06
800.56	6.40976e-07
809.238	4.32146e-07
817.916	3.88449e-07
826.594	6.05511e-07
835.273	4.45556e-07
843.951	3.93296e-07
852.629	7.96215e-07
861.307	1.08251e-06
869.985	1.33534e-06
878.663	2.28121e-06
887.342	3.05434e-06
896.02	3.84476e-06
904.698	3.25713e-06
913.376	2.851e-06
922.054	3.19167e-06
930.732	4.0897e-06
939.41	2.93265e-06
948.089	1.911e-06
956.767	2.06993e-06
965.445	2.67144e-06
974.123	3.07403e-06
982.801	2.58975e-06
991.479	2.08933e-06
1000.16	1.74407e-06
1008.84	2.08886e-06
1017.51	7.33893e-06
1026.19	2.47813e-05
1034.87	1.79311e-05
1043.55	2.2491e-05
1052.23	1.29882e-05
1060.9	1.32763e-05
1069.58	1.87112e-05
1078.26	2.5604e-05
1086.94	2.45513e-05
1095.62	1.67481e-05
1104.3	7.62934e-06
1112.97	7.86836e-06
1121.65	3.45142e-06
1130.33	2.00535e-06
1139.01	1.63143e-06
1147.69	1.65794e-06
1156.36	2.02522e-06
1165.04	2.50481e-06
1173.72	2.88619e-06
1182.4	2.3406e-06
1191.08	2.15147e-06
1199.76	3.61694e-06
1208.43	4.20732e-06
1217.11	5.07882e-06
1225.79	2.32575e-06
1234.47	2.8528e-06
1243.15	2.69067e-06
1251.82	2.52376e-06
1260.5	1.1868e-06
1269.18	7.85019e-07
1277.86	8.78573e-07
1286.54	1.1549e-06
1295.21	1.57136e-06
1303.89	2.7077e-06
1312.57	2.39997e-06
1321.25	2.40517e-06
1329.93	1.84711e-06
1338.61	1.95869e-06
1347.28	2.6019e-06
1355.96	4.2366e-06
1364.64	5.44233e-06
1373.32	1.02037e-05
1382	1.46735e-05
1390.67	1.81315e-05
1399.35	8.46962e-06
1408.03	8.36225e-06
1416.71	1.08149e-05
1425.39	1.05783e-05
1434.07	1.3599e-05
1442.74	2.24434e-05
1451.42	3.34646e-05
1460.1	3.51138e-05
1468.78	3.25382e-05
1477.46	3.08595e-05
1486.13	5.7132e-05
1494.81	9.28095e-05
1503.49	8.8494e-05
1512.17	5.40598e-05
1520.85	2.06399e-05
1529.52	1.98421e-05
1538.2	1.56843e-05
1546.88	1.10626e-05
1555.56	1.05177e-05
1564.24	1.04825e-05
1572.92	1.2124e-05
1581.59	9.38346e-06
1590.27	1.12269e-05
1598.95	3.46782e-05
1607.63	4.6817e-05
1616.31	4.7945e-05
1624.98	2.33253e-05
1633.66	6.25028e-06
1642.34	1.88467e-06
1651.02	1.81623e-06
1659.7	1.79487e-06
1668.38	1.8695e-06
1677.05	1.7447e-06
1685.73	1.80169e-06
1694.41	1.66651e-06
1703.09	1.57644e-06
1711.77	2.04015e-06
1720.44	3.80388e-06
1729.12	5.04736e-06
1737.8	5.76242e-06
1746.48	2.412e-06
1755.16	1.22381e-06
1763.84	1.85631e-06
1772.51	2.96091e-06
1781.19	4.982e-06
1789.87	1.01182e-05
1798.55	9.47114e-06
1807.23	1.23757e-05
1815.9	4.09714e-06
1824.58	3.47674e-06
1833.26	2.96665e-06
1841.94	5.48773e-06
1850.62	1.0438e-05
1859.29	1.29588e-05
1867.97	1.0827e-05
1876.65	7.35386e-06
1885.33	2.72402e-06
1894.01	1.3617e-06
1902.69	1.25399e-06
1911.36	1.38867e-06
1920.04	2.73937e-06
1928.72	7.57016e-06
1937.4	1.18074e-05
1946.08	1.63868e-05
1954.75	1.06033e-05
1963.43	6.44581e-06
1972.11	1.79587e-06
1980.79	9.71339e-07
1989.47	1.23079e-06
1998.15	1.22285e-06
2006.82	9.65788e-07
2015.5	6.87127e-07
2024.18	5.80372e-07
2032.86	3.08758e-07
2041.54	1.01956e-07
2050.21	8.30792e-08
2058.89	1.61339e-07
2067.57	2.46733e-07
2076.25	2.13238e-07
2084.93	1.57288e-07
2093.6	1.91607e-07
2102.28	2.20177e-07
2110.96	2.08406e-07
2119.64	2.5247e-07
2128.32	3.32413e-07
2137	2.6472e-07
2145.67	2.52835e-07
2154.35	4.78874e-07
2163.03	1.01005e-06
2171.71	1.18219e-06
2180.39	9.97942e-07
2189.06	6.48882e-07
2197.74	5.56519e-07
2206.42	4.7004e-07
2215.1	5.24369e-07
2223.78	4.99315e-07
2232.46	4.69266e-07
2241.13	5.86863e-07
2249.81	8.86415e-07
2258.49	1.01653e-06
2267.17	1.19555e-06
2275.85	1.39433e-06
2284.52	1.35417e-06
2293.2	1.31436e-06
2301.88	1.48421e-06
2310.56	1.62203e-06
2319.24	2.18944e-06
2327.92	1.84337e-06
2336.59	1.7257e-06
2345.27	2.24939e-06
2353.95	2.07488e-06
2362.63	1.84625e-06
2371.31	1.79211e-06
2379.98	1.14622e-06
2388.66	1.11696e-06
2397.34	1.26071e-06
2406.02	1.56556e-06
2414.7	1.80899e-06
2423.37	1.99246e-06
2432.05	1.31731e-06
2440.73	1.014e-06
2449.41	8.57782e-07
2458.09	9.43958e-07
2466.77	1.02363e-06
2475.44	9.18689e-07
2484.12	8.58929e-07
2492.8	8.69641e-07
2501.48	9.59781e-07
2510.16	9.69517e-07
2518.83	7.89886e-07
2527.51	7.42563e-07
2536.19	7.58834e-07
2544.87	7.40148e-07
2553.55	6.56784e-07
2562.23	6.66552e-07
2570.9	8.15744e-07
2579.58	1.39468e-06
2588.26	2.27524e-06
2596.94	2.66232e-06
2605.62	1.81151e-06
2614.29	1.35098e-06
2622.97	1.38211e-06
2631.65	1.23018e-06
2640.33	1.14699e-06
2649.01	8.98134e-07
2657.68	7.17924e-07
2666.36	6.60196e-07
2675.04	5.3874e-07
2683.72	5.90349e-07
2692.4	5.56873e-07
2701.08	5.03744e-07
2709.75	6.35209e-07
2718.43	8.04282e-07
2727.11	1.46164e-06
2735.79	4.85174e-06
2744.47	8.2604e-06
2753.14	6.73481e-06
2761.82	1.987e-06
2770.5	1.35038e-06
2779.18	1.57259e-06
2787.86	1.88679e-06
2796.54	2.09364e-06
2805.21	2.25177e-06
2813.89	3.12775e-06
2822.57	4.12898e-06
2831.25	5.01705e-06
2839.93	6.48781e-06
2848.6	9.66889e-06
2857.28	1.79962e-05
2865.96	3.4219e-05
2874.64	5.47985e-05
2883.32	6.70325e-05
2892	6.05509e-05
2900.67	4.44429e-05
2909.35	4.13676e-05
2918.03	6.19777e-05
2926.71	0.000104214
2935.39	0.000118951
2944.06	0.000113027
2952.74	6.96575e-05
2961.42	5.27851e-05
2970.1	3.69496e-05
2978.78	3.8548e-05
2987.45	4.34515e-05
2996.13	4.84148e-05
3004.81	6.87261e-05
3013.49	7.2697e-05
3022.17	0.000123961
3030.85	0.000217979
3039.52	0.000221535
3048.2	0.000195413
3056.88	0.000107945
3065.56	0.000118767
3074.24	0.000138359
3082.91	0.000124683
3091.59	9.16697e-05
3100.27	7.49326e-05
3108.95	4.46609e-05
3117.63	2.79413e-05
3126.31	1.62152e-05
3134.98	7.06654e-06
3143.66	1.99635e-06
3152.34	1.31932e-06
3161.02	1.45399e-06
3169.7	1.61533e-06
3178.37	1.45128e-06
3187.05	1.25901e-06
3195.73	2.5815e-07
3204.41	2.40819e-07
3213.09	6.48832e-08
3221.77	1.77875e-07
3230.44	2.28279e-08
3239.12	6.87239e-08
3247.8	2.74223e-07
3256.48	3.10855e-07
3265.16	4.56317e-07
3273.83	5.59837e-07
3282.51	5.44765e-07
3291.19	5.03816e-07
3299.87	3.09444e-07
3308.55	3.57793e-07
3317.22	4.04195e-07
3325.9	5.6455e-07
3334.58	6.78255e-07
3343.26	6.86555e-07
3351.94	5.91261e-07
3360.62	5.90328e-07
3369.29	5.77956e-07
3377.97	6.4914e-07
3386.65	6.76143e-07
3395.33	5.12471e-07
3404.01	5.43724e-07
3412.68	4.03397e-07
3421.36	3.47522e-07
3430.04	5.43507e-07
3438.72	5.81644e-07
3447.4	6.21841e-07
3456.08	4.5669e-07
3464.75	4.27953e-07
3473.43	2.07803e-07
3482.11	1.83699e-07
3490.79	2.85961e-07
3499.47	2.57647e-07
3508.14	1.79526e-07
3516.82	3.26043e-07
3525.5	4.80776e-07
3534.18	3.09616e-07
3542.86	3.11234e-07
3551.53	3.28782e-07
3560.21	4.27624e-07
3568.89	3.83357e-07
3577.57	1.7627e-07
3586.25	2.77096e-07
3594.93	3.57864e-07
3603.6	3.68524e-07
3612.28	1.64197e-07
3620.96	4.25541e-07
3629.64	5.00605e-08
3638.32	6.81825e-07
3646.99	8.1065e-07
3655.67	1.10888e-06
3664.35	1.10135e-06
3673.03	9.3289e-07
3681.71	7.07408e-07
3690.39	6.19904e-07
3699.06	5.68294e-07
3707.74	4.08173e-07
3716.42	6.18922e-07
3725.1	4.59727e-07
3733.78	4.53581e-07
3742.45	3.32625e-07
3751.13	2.49348e-07
3759.81	1.05683e-07
3768.49	3.11746e-07
3777.17	3.78422e-07
3785.85	4.7361e-07
3794.52	7.93271e-07
3803.2	7.2992e-07
3811.88	6.98943e-07
3820.56	6.16592e-07
3829.24	9.20347e-07
3837.91	2.27419e-07
3846.59	1.28657e-06
3855.27	1.58405e-06
3863.95	1.42959e-06
3872.63	1.22798e-06
3881.3	9.6327e-07
3889.98	8.15276e-07
3898.66	8.03385e-07
3907.34	9.63476e-07
3916.02	1.09786e-06
3924.7	1.19247e-06
3933.37	1.02907e-06
3942.05	9.53327e-07
3950.73	8.75193e-07
3959.41	8.63711e-07
3968.09	8.71727e-07
