Infrared Spectrum: Ethenyl Ester-Acetic Acid
Formula: C H3 C O2 C H: C H2
CAS: 108-05-4
State: gas
Melting point: -93.2 C
Boiling point: 72.2 C
Class: IUPAC A
Instrument: IFS66V (Bruker)
Instrument parameters: KBr Beam splitter; MCT Detector; Multipass cell
Sampling: 1 L/min Flow
Resolution: 1.9290
Temperature: 23 C
Pressure: 101.3 kPa
Origin: NIST, Anayltical Chemistry Division, 301-975-3108
cm-1	(micromol/mol)-1m-1 (base 10)
574.687	1.05804e-05
583.365	1.90976e-05
592.043	3.69744e-05
600.721	2.87279e-05
609.4	3.25451e-05
618.078	3.41537e-05
626.756	4.20106e-05
635.434	4.21297e-05
644.112	4.12096e-05
652.79	2.5722e-05
661.469	1.32748e-05
670.147	6.00817e-06
678.825	4.77401e-06
687.503	6.59773e-06
696.181	9.50395e-06
704.859	1.07466e-05
713.537	1.21066e-05
722.216	9.1092e-06
730.894	7.20845e-06
739.572	5.86483e-06
748.25	5.67365e-06
756.928	6.32646e-06
765.606	7.74881e-06
774.285	9.73277e-06
782.963	9.64097e-06
791.641	9.09856e-06
800.319	9.07261e-06
808.997	1.04472e-05
817.675	1.50423e-05
826.353	2.4717e-05
835.032	5.10193e-05
843.71	8.85037e-05
852.388	0.000129974
861.066	0.000155792
869.744	0.000248144
878.422	0.000162503
887.101	0.000126942
895.779	6.22616e-05
904.457	2.16428e-05
913.135	1.30308e-05
921.813	2.28143e-05
930.491	5.32178e-05
939.169	8.65354e-05
947.848	0.00012573
956.526	0.000155912
965.204	0.000113978
973.882	0.000108692
982.56	0.000103604
991.238	6.76425e-05
999.917	8.78669e-05
1008.59	0.000182639
1017.27	0.000337405
1025.95	0.000345766
1034.63	0.000235915
1043.31	8.74744e-05
1051.99	6.87387e-05
1060.66	6.13245e-05
1069.34	5.60744e-05
1078.02	4.8195e-05
1086.7	3.96531e-05
1095.38	3.21838e-05
1104.05	2.92494e-05
1112.73	3.19926e-05
1121.41	4.86925e-05
1130.09	0.000160265
1138.77	0.000820423
1147.45	0.000922866
1156.12	0.000858952
1164.8	9.40802e-05
1173.48	4.68468e-05
1182.16	6.39413e-05
1190.84	0.00011253
1199.51	0.00029059
1208.19	0.00103832
1216.87	0.00256943
1225.55	0.00276252
1234.23	0.00191593
1242.9	0.000375994
1251.58	0.000227911
1260.26	0.000185525
1268.94	6.86779e-05
1277.62	5.72977e-05
1286.3	0.000137595
1294.97	0.000172483
1303.65	0.000161914
1312.33	5.27567e-05
1321.01	1.9314e-05
1329.69	1.29971e-05
1338.36	1.26653e-05
1347.04	2.00535e-05
1355.72	5.70607e-05
1364.4	0.000221449
1373.08	0.000380698
1381.76	0.000441431
1390.43	0.000206578
1399.11	7.63263e-05
1407.79	3.03262e-05
1416.47	2.82272e-05
1425.15	3.21918e-05
1433.82	4.01207e-05
1442.5	3.56021e-05
1451.18	3.37857e-05
1459.86	2.73461e-05
1468.54	2.27131e-05
1477.22	2.07892e-05
1485.89	1.86087e-05
1494.57	1.64565e-05
1503.25	1.53324e-05
1511.93	1.44419e-05
1520.61	1.31048e-05
1529.28	1.21176e-05
1537.96	1.08733e-05
1546.64	1.14854e-05
1555.32	1.44854e-05
1564	1.76337e-05
1572.67	1.96206e-05
1581.35	2.16302e-05
1590.03	2.22473e-05
1598.71	2.2673e-05
1607.39	2.53978e-05
1616.07	3.36896e-05
1624.74	4.41752e-05
1633.42	7.35748e-05
1642.1	0.000303068
1650.78	0.00041021
1659.46	0.000529217
1668.13	9.9645e-05
1676.81	2.9636e-05
1685.49	1.72274e-05
1694.17	1.62213e-05
1702.85	1.41752e-05
1711.53	1.24422e-05
1720.2	1.21495e-05
1728.88	1.8221e-05
1737.56	2.71652e-05
1746.24	5.44251e-05
1754.92	0.000129532
1763.59	0.000347028
1772.27	0.000934665
1780.95	0.00114035
1789.63	0.00146466
1798.31	0.000652958
1806.98	0.000222418
1815.66	5.69339e-05
1824.34	2.30194e-05
1833.02	2.03206e-05
1841.7	1.80865e-05
1850.38	2.17995e-05
1859.05	2.65453e-05
1867.73	2.82772e-05
1876.41	2.5095e-05
1885.09	1.66464e-05
1893.77	1.44941e-05
1902.44	1.38206e-05
1911.12	1.03967e-05
1919.8	5.91867e-06
1928.48	4.25992e-06
1937.16	4.63496e-06
1945.84	5.18192e-06
1954.51	5.38902e-06
1963.19	5.0302e-06
1971.87	4.92241e-06
1980.55	8.61608e-06
1989.23	1.30547e-05
1997.9	1.3717e-05
2006.58	7.82783e-06
2015.26	5.34406e-06
2023.94	5.26525e-06
2032.62	5.451e-06
2041.3	7.15198e-06
2049.97	1.37977e-05
2058.65	2.4845e-05
2067.33	2.8131e-05
2076.01	2.10544e-05
2084.69	8.63934e-06
2093.36	6.01869e-06
2102.04	5.59378e-06
2110.72	6.66943e-06
2119.4	7.06603e-06
2128.08	7.22258e-06
2136.75	4.28004e-06
2145.43	4.10617e-06
2154.11	4.40904e-06
2162.79	4.82974e-06
2171.47	4.62216e-06
2180.15	3.93106e-06
2188.82	2.57084e-06
2197.5	2.14034e-06
2206.18	2.15923e-06
2214.86	3.21063e-06
2223.54	4.42163e-06
2232.21	4.78636e-06
2240.89	3.91706e-06
2249.57	3.02845e-06
2258.25	2.2917e-06
2266.93	2.68939e-06
2275.61	6.31658e-06
2284.28	1.12516e-05
2292.96	1.13189e-05
2301.64	5.41688e-06
2310.32	1.31e-06
2319	1.14924e-06
2327.67	1.42844e-06
2336.35	2.40187e-06
2345.03	3.34212e-06
2353.71	4.16545e-06
2362.39	3.78806e-06
2371.06	3.20451e-06
2379.74	2.49211e-06
2388.42	1.53262e-06
2397.1	1.82757e-06
2405.78	2.51017e-06
2414.46	3.58584e-06
2423.13	5.4545e-06
2431.81	8.1154e-06
2440.49	8.2459e-06
2449.17	6.49015e-06
2457.85	2.87796e-06
2466.52	1.91576e-06
2475.2	1.63759e-06
2483.88	1.60866e-06
2492.56	1.86025e-06
2501.24	1.91322e-06
2509.92	9.9675e-07
2518.59	7.52312e-07
2527.27	5.88374e-07
2535.95	3.81016e-07
2544.63	2.90478e-07
2553.31	2.52216e-07
2561.98	2.55996e-07
2570.66	5.45503e-07
2579.34	1.28342e-06
2588.02	1.95044e-06
2596.7	1.8436e-06
2605.38	1.36479e-06
2614.05	1.15585e-06
2622.73	1.88465e-06
2631.41	2.1103e-06
2640.09	1.84633e-06
2648.77	9.13168e-07
2657.44	9.16449e-07
2666.12	1.13137e-06
2674.8	1.14518e-06
2683.48	8.72348e-07
2692.16	4.95123e-07
2700.83	3.6848e-07
2709.51	3.9827e-07
2718.19	4.15524e-07
2726.87	5.07859e-07
2735.55	9.27788e-07
2744.23	2.12989e-06
2752.9	3.04615e-06
2761.58	3.19043e-06
2770.26	1.98446e-06
2778.94	1.05418e-06
2787.62	1.31857e-06
2796.29	1.49443e-06
2804.97	1.34517e-06
2813.65	6.96111e-07
2822.33	6.58722e-07
2831.01	7.73345e-07
2839.69	1.01257e-06
2848.36	1.78326e-06
2857.04	2.31702e-06
2865.72	2.38735e-06
2874.4	1.77044e-06
2883.08	1.29906e-06
2891.75	1.13555e-06
2900.43	1.16944e-06
2909.11	1.19791e-06
2917.79	1.40503e-06
2926.47	2.05534e-06
2935.14	3.92236e-06
2943.82	8.5975e-06
2952.5	1.06634e-05
2961.18	1.25249e-05
2969.86	9.54817e-06
2978.54	8.94852e-06
2987.21	9.82126e-06
2995.89	1.23087e-05
3004.57	1.14169e-05
3013.25	1.1517e-05
3021.93	1.34199e-05
3030.6	1.6971e-05
3039.28	1.87333e-05
3047.96	2.05292e-05
3056.64	2.21734e-05
3065.32	2.33703e-05
3074	1.85744e-05
3082.67	1.76687e-05
3091.35	3.59768e-05
3100.03	4.20268e-05
3108.71	4.77362e-05
3117.39	1.84684e-05
3126.06	2.59497e-05
3134.74	2.19385e-05
3143.42	1.57341e-05
3152.1	4.97309e-06
3160.78	2.43378e-06
3169.46	1.50949e-06
3178.13	1.1519e-06
3186.81	9.92737e-07
3195.49	1.03814e-06
3204.17	7.90468e-07
3212.85	5.98578e-07
3221.52	4.18849e-07
3230.2	2.30597e-07
3238.88	1.0355e-07
3247.56	3.46682e-09
3256.24	3.09941e-08
3264.91	-1.25249e-08
3273.59	-8.10502e-08
3282.27	-9.03557e-08
3290.95	1.63374e-08
3299.63	6.30358e-08
3308.31	-1.73629e-07
3316.98	-5.10973e-07
3325.66	-4.47919e-07
3334.34	-1.72203e-07
3343.02	-1.24631e-08
3351.7	1.95714e-09
3360.37	-1.42813e-07
3369.05	-1.47833e-07
3377.73	-7.13118e-08
3386.41	-2.43696e-08
3395.09	-1.59881e-08
3403.77	-1.2374e-07
3412.44	-1.54377e-07
3421.12	-1.12081e-07
3429.8	-4.12308e-08
3438.48	-3.09431e-08
3447.16	6.83725e-08
3455.83	2.32023e-07
3464.51	1.66062e-07
3473.19	1.96969e-07
3481.87	-6.22573e-08
3490.55	-1.63588e-07
3499.22	-7.1752e-08
3507.9	1.57971e-07
3516.58	1.00757e-06
3525.26	3.2635e-06
3533.94	9.04007e-06
3542.62	1.54388e-05
3551.29	1.47875e-05
3559.97	1.08571e-05
3568.65	3.28083e-06
3577.33	4.47358e-07
3586.01	-2.9082e-07
3594.68	-4.00711e-07
3603.36	-5.34797e-07
3612.04	-6.65386e-07
3620.72	-6.23533e-07
3629.4	-8.63414e-07
3638.08	-4.69789e-07
3646.75	-5.05603e-07
3655.43	-5.25444e-07
3664.11	-3.47956e-07
3672.79	-4.18118e-07
3681.47	-4.00485e-07
3690.14	-5.72019e-07
3698.82	-4.69e-07
3707.5	-4.59079e-07
3716.18	-4.36183e-07
3724.86	-4.4156e-07
3733.54	-5.21206e-07
3742.21	-4.77025e-07
3750.89	-6.41122e-07
3759.57	-5.44637e-07
3768.25	-4.24753e-07
3776.93	-4.27081e-07
3785.6	-4.56355e-07
3794.28	-4.15808e-07
3802.96	-4.96694e-07
3811.64	-3.69528e-07
3820.32	-5.1548e-07
3828.99	-3.03596e-07
3837.67	-7.29554e-07
3846.35	-2.47534e-07
3855.03	-7.01666e-07
3863.71	-2.71398e-07
3872.39	-1.82512e-07
3881.06	-2.05125e-07
3889.74	-6.86817e-08
3898.42	-1.14834e-07
3907.1	7.39492e-08
3915.78	9.71074e-08
3924.45	1.0558e-07
3933.13	1.09825e-07
3941.81	1.50299e-07
3950.49	2.17701e-07
3959.17	4.49952e-07
3967.85	9.11484e-07
