Infrared Spectrum: 1,3-Dimethylbenzene
Formula: 1,3-( C H3)2 C6 H4
CAS: 108-38-3
State: gas
Melting point: -47.87 C
Boiling point: 139.1 C
Class: IUPAC A
Instrument: IFS66V (Bruker)
Instrument parameters: KBr Beam Splitter; MCT Detector; Multipass cell
Sampling: 1 L/min Flow
Resolution: 0.1250
Temperature: 23 C
Pressure: 101.3 Pa
Origin: NIST, Analytical Chemistry Division, 301-975-3108
cm-1	(micromol/mol)-1m-1 (base 10)
575.05	-4.11995e-06
583.608	-7.24674e-07
592.165	-8.33004e-07
600.723	-8.50391e-08
609.281	-3.08475e-07
617.838	3.43713e-07
626.396	3.64119e-07
634.954	-6.00575e-07
643.511	-5.08832e-08
652.069	5.14313e-07
660.626	2.96376e-06
669.184	7.47467e-06
677.742	3.70621e-05
686.299	5.82737e-05
694.857	6.64186e-05
703.415	4.34571e-05
711.972	7.41698e-06
720.53	6.54488e-07
729.088	1.40615e-06
737.645	1.39422e-06
746.203	1.74627e-05
754.761	0.000105047
763.318	0.000173213
771.876	0.000166207
780.434	0.000120413
788.991	1.93284e-05
797.549	2.36306e-06
806.106	6.55057e-07
814.664	3.95326e-07
823.222	9.64497e-07
831.779	5.98717e-09
840.337	-2.52941e-07
848.895	1.37843e-06
857.452	4.66635e-06
866.01	1.15891e-05
874.568	3.47898e-05
883.125	1.31652e-05
891.683	9.05825e-06
900.241	1.6812e-05
908.798	1.31813e-05
917.356	3.55211e-06
925.914	9.09857e-07
934.471	1.41866e-06
943.029	2.14586e-06
951.586	2.82649e-06
960.144	3.15608e-06
968.702	4.79981e-06
977.259	4.80079e-06
985.817	4.70009e-06
994.375	5.98388e-06
1002.93	9.30689e-06
1011.49	9.07325e-06
1020.05	6.29743e-06
1028.61	6.88419e-06
1037.16	1.31361e-05
1045.72	2.11943e-05
1054.28	1.90504e-05
1062.84	1.20941e-05
1071.39	8.01154e-06
1079.95	1.02779e-05
1088.51	2.37433e-05
1097.07	2.05688e-05
1105.62	1.51974e-05
1114.18	5.76712e-06
1122.74	4.57513e-06
1131.3	4.2918e-06
1139.85	2.71256e-06
1148.41	3.06639e-06
1156.97	3.69705e-06
1165.53	9.33999e-06
1174.09	6.41875e-06
1182.64	3.59269e-06
1191.2	2.50738e-06
1199.76	1.93392e-06
1208.32	1.50684e-06
1216.87	1.13165e-06
1225.43	1.17153e-06
1233.99	1.33876e-06
1242.55	2.7363e-06
1251.1	2.95974e-06
1259.66	3.61151e-06
1268.22	2.50699e-06
1276.78	1.83582e-06
1285.33	1.58718e-06
1293.89	1.5011e-06
1302.45	1.57117e-06
1311.01	2.15857e-06
1319.57	2.23071e-06
1328.12	2.62557e-06
1336.68	2.72859e-06
1345.24	3.40126e-06
1353.8	5.2919e-06
1362.35	8.68353e-06
1370.91	1.3859e-05
1379.47	2.66734e-05
1388.03	3.36496e-05
1396.58	1.97813e-05
1405.14	1.60872e-05
1413.7	1.67992e-05
1422.26	1.86419e-05
1430.81	2.1583e-05
1439.37	3.5581e-05
1447.93	4.49873e-05
1456.49	4.32283e-05
1465.05	4.36879e-05
1473.6	5.23316e-05
1482.16	6.78423e-05
1490.72	9.42888e-05
1499.28	0.000107788
1507.83	9.11843e-05
1516.39	5.81619e-05
1524.95	4.74538e-05
1533.51	4.46913e-05
1542.06	3.61848e-05
1550.62	2.07896e-05
1559.18	1.65557e-05
1567.74	1.66349e-05
1576.29	1.63149e-05
1584.85	2.24909e-05
1593.41	3.87499e-05
1601.97	6.71994e-05
1610.53	0.000137545
1619.08	0.000164178
1627.64	6.70906e-05
1636.2	7.49824e-06
1644.76	5.07136e-06
1653.31	4.2168e-06
1661.87	5.19198e-06
1670.43	1.3502e-06
1678.99	5.8619e-07
1687.54	6.56822e-07
1696.1	2.72934e-07
1704.66	1.03064e-06
1713.22	1.36734e-06
1721.77	1.37267e-06
1730.33	3.11568e-06
1738.89	7.74991e-06
1747.45	6.55841e-06
1756.01	7.18169e-06
1764.56	6.54494e-06
1773.12	7.51423e-06
1781.68	6.57416e-06
1790.24	1.79904e-06
1798.79	1.05059e-06
1807.35	1.69601e-06
1815.91	2.10959e-06
1824.47	1.84677e-06
1833.02	2.99196e-06
1841.58	5.6009e-06
1850.14	1.32355e-05
1858.7	9.71847e-06
1867.25	2.51789e-06
1875.81	1.15916e-06
1884.37	1.03838e-06
1892.93	1.13289e-06
1901.49	1.49106e-06
1910.04	2.61987e-06
1918.6	5.16621e-06
1927.16	1.13021e-05
1935.72	8.40903e-06
1944.27	5.44278e-06
1952.83	5.54299e-07
1961.39	8.93137e-08
1969.95	3.78634e-07
1978.5	8.919e-08
1987.06	3.6556e-08
1995.62	2.34239e-08
2004.18	-1.17166e-07
2012.73	-5.99909e-08
2021.29	-3.29772e-08
2029.85	-2.09839e-07
2038.41	-2.60934e-07
2046.97	-4.08777e-07
2055.52	-4.26633e-07
2064.08	-2.55047e-07
2072.64	-2.09037e-08
2081.2	5.97462e-08
2089.75	-3.12192e-07
2098.31	1.56843e-07
2106.87	4.46903e-07
2115.43	6.8106e-07
2123.98	-3.55569e-07
2132.54	-4.46489e-07
2141.1	-1.28034e-07
2149.66	1.21945e-07
2158.21	7.42542e-07
2166.77	-1.33696e-07
2175.33	-4.03832e-08
2183.89	-1.118e-07
2192.45	-2.58799e-07
2201	-3.14434e-07
2209.56	3.10317e-07
2218.12	2.17226e-07
2226.68	-1.99478e-08
2235.23	-2.14282e-07
2243.79	-1.05132e-07
2252.35	-1.22851e-07
2260.91	4.30837e-07
2269.46	4.33102e-07
2278.02	8.51776e-07
2286.58	1.49265e-06
2295.14	1.54093e-06
2303.69	5.6018e-07
2312.25	6.34743e-07
2320.81	9.44684e-07
2329.37	1.36095e-06
2337.93	1.84811e-06
2346.48	1.71953e-06
2355.04	1.00079e-06
2363.6	1.22684e-06
2372.16	6.234e-07
2380.71	8.13651e-07
2389.27	1.35997e-06
2397.83	1.24593e-06
2406.39	1.06603e-06
2414.94	1.80845e-06
2423.5	1.72565e-06
2432.06	1.70483e-06
2440.62	1.22694e-06
2449.17	1.52342e-06
2457.73	1.28006e-06
2466.29	1.11266e-06
2474.85	1.16557e-06
2483.41	1.43839e-06
2491.96	1.09405e-06
2500.52	1.10961e-06
2509.08	9.04005e-07
2517.64	4.45883e-07
2526.19	4.53692e-07
2534.75	1.14011e-06
2543.31	1.19697e-06
2551.87	7.95323e-07
2560.42	3.90353e-07
2568.98	4.12382e-07
2577.54	1.87712e-07
2586.1	4.19025e-07
2594.65	2.62585e-07
2603.21	5.38116e-07
2611.77	6.26246e-07
2620.33	6.21782e-07
2628.89	7.46382e-07
2637.44	9.36587e-07
2646	7.38313e-07
2654.56	5.47168e-07
2663.12	3.87186e-07
2671.67	4.92844e-08
2680.23	7.86863e-08
2688.79	1.30073e-07
2697.35	-1.0233e-07
2705.9	4.04564e-07
2714.46	1.15554e-06
2723.02	1.91201e-06
2731.58	5.87175e-06
2740.13	1.13368e-05
2748.69	1.52773e-05
2757.25	4.02084e-06
2765.81	2.12194e-06
2774.37	1.66063e-06
2782.92	1.6767e-06
2791.48	2.20216e-06
2800.04	3.24816e-06
2808.6	4.1083e-06
2817.15	5.68029e-06
2825.71	7.87932e-06
2834.27	1.05323e-05
2842.83	1.47669e-05
2851.38	2.53772e-05
2859.94	5.04731e-05
2868.5	9.43387e-05
2877.06	0.000121449
2885.61	0.000112972
2894.17	9.21829e-05
2902.73	9.74954e-05
2911.29	0.000115147
2919.85	0.000158243
2928.4	0.000227626
2936.96	0.000258005
2945.52	0.000221954
2954.08	0.000135073
2962.63	9.52443e-05
2971.19	6.84571e-05
2979.75	7.47073e-05
2988.31	8.91507e-05
2996.86	0.000110534
3005.42	0.000137661
3013.98	0.000176918
3022.54	0.000218612
3031.09	0.000240096
3039.65	0.000212094
3048.21	0.000172389
3056.77	0.000133873
3065.33	0.000117432
3073.88	8.91486e-05
3082.44	4.31839e-05
3091	3.01872e-05
3099.56	2.40005e-05
3108.11	2.13275e-05
3116.67	1.91622e-05
3125.23	1.39925e-05
3133.79	5.91521e-06
3142.34	2.34096e-06
3150.9	1.15824e-06
3159.46	7.99186e-07
3168.02	6.44707e-07
3176.57	4.37388e-07
3185.13	4.50355e-07
3193.69	2.6808e-07
3202.25	5.04229e-07
3210.81	5.47587e-07
3219.36	-1.83552e-07
3227.92	-6.5236e-07
3236.48	-5.57675e-07
3245.04	-6.25107e-07
3253.59	6.49749e-08
3262.15	5.45297e-07
3270.71	6.77827e-07
3279.27	-1.98442e-08
3287.82	4.36964e-08
3296.38	4.00622e-07
3304.94	2.08078e-07
3313.5	-8.36867e-08
3322.05	-3.44059e-07
3330.61	-4.66824e-07
3339.17	1.05073e-08
3347.73	1.86618e-08
3356.29	-9.98365e-08
3364.84	-2.89601e-07
3373.4	2.13829e-07
3381.96	-1.77445e-07
3390.52	4.22185e-07
3399.07	-7.59042e-08
3407.63	9.34756e-08
3416.19	-5.66676e-08
3424.75	1.82136e-07
3433.3	6.56666e-07
3441.86	3.27631e-07
3450.42	1.09691e-06
3458.98	1.05647e-06
3467.53	6.1041e-07
3476.09	2.13536e-07
3484.65	-3.22082e-07
3493.21	-2.84298e-07
3501.77	-5.00307e-07
3510.32	-7.67087e-07
3518.88	-2.03086e-07
3527.44	-4.06039e-07
3536	4.54472e-08
3544.55	1.45462e-07
3553.11	4.9806e-07
3561.67	-3.51845e-08
3570.23	3.85068e-07
3578.78	1.84773e-07
3587.34	-2.57531e-08
3595.9	4.05101e-07
3604.46	-5.74816e-07
3613.01	-5.04322e-07
3621.57	-3.28702e-07
3630.13	2.59405e-08
3638.69	-4.21092e-07
3647.25	-5.14418e-07
3655.8	-4.05349e-07
3664.36	-6.56393e-07
3672.92	2.31219e-07
3681.48	-1.85815e-07
3690.03	-4.1766e-07
3698.59	-3.37473e-07
3707.15	-2.61215e-08
3715.71	-2.33216e-07
3724.26	-5.17131e-07
3732.82	2.34658e-07
3741.38	5.75979e-07
3749.94	4.61845e-07
3758.49	4.27905e-07
3767.05	7.88476e-07
3775.61	9.12088e-07
3784.17	9.38813e-07
3792.73	4.45561e-07
3801.28	-9.35722e-07
3809.84	3.39223e-07
3818.4	8.50219e-08
3826.96	2.15985e-07
3835.51	8.40284e-07
3844.07	6.96721e-07
3852.63	1.02725e-07
3861.19	1.30784e-07
3869.74	2.034e-07
3878.3	5.19302e-07
3886.86	1.20832e-06
3895.42	8.59e-07
3903.97	1.33367e-06
3912.53	1.62731e-06
3921.09	1.66971e-06
3929.65	1.43525e-06
3938.21	9.35259e-07
3946.76	1.55334e-06
3955.32	1.31691e-06
3963.88	1.78745e-06
3972.44	1.51861e-06
