Infrared Spectrum: 1,3-Dimethylbenzene
Formula: 1,3-( C H3)2 C6 H4
CAS: 108-38-3
State: gas
Melting point: -47.87 C
Boiling point: 139.1 C
Class: IUPAC A
Instrument: IFS66V (Bruker)
Instrument parameters: KBr Beam Splitter; MCT Detector; Multipass cell
Sampling: 1 L/min Flow
Resolution: 0.4820
Temperature: 23 C
Pressure: 101.3 Pa
Origin: NIST, Analytical Chemistry Division, 301-975-3108
cm-1	(micromol/mol)-1m-1 (base 10)
575.17	-1.47215e-06
583.848	-4.37677e-07
592.526	1.68951e-07
601.205	-3.75925e-07
609.883	-4.5443e-07
618.561	-1.16413e-07
627.239	-2.95347e-07
635.917	-4.11589e-07
644.595	9.56238e-09
653.274	9.1111e-07
661.952	2.45516e-06
670.63	1.03276e-05
679.308	4.26032e-05
687.986	7.61504e-05
696.665	6.33471e-05
705.343	3.27371e-05
714.021	5.2148e-06
722.699	1.50547e-06
731.377	1.57141e-06
740.055	3.96016e-06
748.734	3.42194e-05
757.412	0.000134468
766.09	0.000294355
774.768	0.000167376
783.446	7.48422e-05
792.124	8.13508e-06
800.803	1.58358e-06
809.481	9.82272e-07
818.159	5.98672e-07
826.837	5.83179e-07
835.515	5.83759e-07
844.194	6.02754e-07
852.872	1.46224e-06
861.55	7.85747e-06
870.228	1.38901e-05
878.906	1.31679e-05
887.584	1.10911e-05
896.263	1.27625e-05
904.941	1.67357e-05
913.619	1.17636e-05
922.297	1.11761e-06
930.975	1.48249e-06
939.654	2.21965e-06
948.332	2.66673e-06
957.01	3.13354e-06
965.688	4.00959e-06
974.366	4.9345e-06
983.044	4.28329e-06
991.723	5.36624e-06
1000.4	8.37466e-06
1009.08	1.00622e-05
1017.76	7.4186e-06
1026.44	6.2086e-06
1035.11	1.14116e-05
1043.79	2.41019e-05
1052.47	1.93336e-05
1061.15	1.39402e-05
1069.83	8.80242e-06
1078.5	9.02324e-06
1087.18	2.10059e-05
1095.86	1.92478e-05
1104.54	1.76508e-05
1113.22	6.09893e-06
1121.9	4.67513e-06
1130.57	4.53541e-06
1139.25	2.87863e-06
1147.93	2.65843e-06
1156.61	4.08343e-06
1165.29	9.40406e-06
1173.96	6.40934e-06
1182.64	3.4584e-06
1191.32	2.41848e-06
1200	1.94475e-06
1208.68	1.42752e-06
1217.36	1.18791e-06
1226.03	1.09997e-06
1234.71	1.5814e-06
1243.39	3.08074e-06
1252.07	3.05196e-06
1260.75	3.56795e-06
1269.42	2.85615e-06
1278.1	1.97098e-06
1286.78	1.50875e-06
1295.46	1.91288e-06
1304.14	2.07027e-06
1312.82	2.13421e-06
1321.49	2.19774e-06
1330.17	2.42042e-06
1338.85	2.6697e-06
1347.53	3.82108e-06
1356.21	6.33313e-06
1364.88	9.45574e-06
1373.56	1.79778e-05
1382.24	2.95634e-05
1390.92	2.85008e-05
1399.6	1.89179e-05
1408.28	1.5903e-05
1416.95	1.72468e-05
1425.63	1.87483e-05
1434.31	2.69566e-05
1442.99	3.93215e-05
1451.67	4.68916e-05
1460.34	4.17417e-05
1469.02	4.87347e-05
1477.7	5.877e-05
1486.38	8.46163e-05
1495.06	0.0001073
1503.74	0.000103583
1512.41	6.82631e-05
1521.09	4.96286e-05
1529.77	4.71767e-05
1538.45	4.04281e-05
1547.13	2.5466e-05
1555.8	1.76221e-05
1564.48	1.60218e-05
1573.16	1.76304e-05
1581.84	1.92363e-05
1590.52	3.2233e-05
1599.2	4.85593e-05
1607.87	0.00010248
1616.55	0.000133756
1625.23	0.00010792
1633.91	1.04752e-05
1642.59	5.01503e-06
1651.26	6.49889e-06
1659.94	5.01911e-06
1668.62	1.85592e-06
1677.3	7.54367e-07
1685.98	5.42e-07
1694.66	9.35459e-07
1703.33	1.2475e-06
1712.01	1.44487e-06
1720.69	1.22204e-06
1729.37	3.0043e-06
1738.05	7.20279e-06
1746.72	6.50553e-06
1755.4	7.28942e-06
1764.08	6.28661e-06
1772.76	7.22957e-06
1781.44	6.78927e-06
1790.12	1.9199e-06
1798.79	9.64338e-07
1807.47	1.7086e-06
1816.15	2.0977e-06
1824.83	1.82008e-06
1833.51	3.28436e-06
1842.18	5.82955e-06
1850.86	1.25835e-05
1859.54	1.05078e-05
1868.22	1.81523e-06
1876.9	1.17136e-06
1885.58	1.0176e-06
1894.25	1.09795e-06
1902.93	1.7259e-06
1911.61	3.0859e-06
1920.29	6.01994e-06
1928.97	1.20613e-05
1937.64	1.15043e-05
1946.32	3.62873e-06
1955	3.4411e-07
1963.68	1.21976e-07
1972.36	2.06492e-07
1981.04	5.95916e-08
1989.71	1.90957e-08
1998.39	-3.91444e-09
2007.07	-7.58597e-08
2015.75	-5.9769e-08
2024.43	6.54114e-08
2033.1	-2.37077e-07
2041.78	-3.32405e-07
2050.46	-4.73448e-07
2059.14	-3.82692e-07
2067.82	-1.94982e-07
2076.5	-1.86984e-07
2085.17	-5.33834e-08
2093.85	-2.47187e-07
2102.53	2.36175e-07
2111.21	7.53649e-07
2119.89	7.86672e-08
2128.56	-3.20073e-07
2137.24	-1.11178e-07
2145.92	7.60561e-08
2154.6	3.76568e-07
2163.28	-1.95561e-07
2171.96	-1.77437e-07
2180.63	-2.61883e-07
2189.31	-3.19046e-07
2197.99	-2.49037e-07
2206.67	-5.91596e-08
2215.35	2.26054e-08
2224.02	-3.96292e-08
2232.7	-3.30651e-07
2241.38	-1.47859e-07
2250.06	-5.75471e-08
2258.74	4.0882e-07
2267.42	6.93828e-07
2276.09	9.28942e-07
2284.77	1.35415e-06
2293.45	1.76575e-06
2302.13	6.63017e-07
2310.81	5.03112e-07
2319.48	8.66216e-07
2328.16	1.10011e-06
2336.84	1.60178e-06
2345.52	1.50048e-06
2354.2	1.57791e-06
2362.88	1.61782e-06
2371.55	9.43127e-07
2380.23	7.13335e-07
2388.91	1.21888e-06
2397.59	1.2444e-06
2406.27	1.2698e-06
2414.94	1.79287e-06
2423.62	1.94009e-06
2432.3	1.6571e-06
2440.98	1.30061e-06
2449.66	1.3861e-06
2458.34	1.32782e-06
2467.01	1.47206e-06
2475.69	1.23469e-06
2484.37	1.375e-06
2493.05	1.28853e-06
2501.73	1.13538e-06
2510.4	7.23676e-07
2519.08	4.47533e-07
2527.76	3.57139e-07
2536.44	1.06044e-06
2545.12	1.33373e-06
2553.8	5.03121e-07
2562.47	4.40076e-07
2571.15	3.73672e-07
2579.83	2.11267e-07
2588.51	4.14113e-07
2597.19	5.19933e-07
2605.86	5.75312e-07
2614.54	6.34226e-07
2623.22	7.9625e-07
2631.9	7.94591e-07
2640.58	8.39183e-07
2649.26	6.48623e-07
2657.93	3.24553e-07
2666.61	1.70315e-07
2675.29	2.23511e-07
2683.97	-2.72028e-08
2692.65	2.67121e-07
2701.32	3.78431e-07
2710	7.1906e-07
2718.68	1.45442e-06
2727.36	3.0917e-06
2736.04	1.1111e-05
2744.71	1.18919e-05
2753.39	7.19463e-06
2762.07	2.57808e-06
2770.75	1.87459e-06
2779.43	1.93507e-06
2788.11	2.16411e-06
2796.78	2.85583e-06
2805.46	3.6623e-06
2814.14	4.98612e-06
2822.82	7.38564e-06
2831.5	9.63107e-06
2840.17	1.32725e-05
2848.85	2.17613e-05
2857.53	4.14674e-05
2866.21	8.19311e-05
2874.89	0.000118471
2883.57	0.000117972
2892.24	9.43391e-05
2900.92	9.40482e-05
2909.6	0.000111302
2918.28	0.000147037
2926.96	0.000217721
2935.63	0.000257704
2944.31	0.000230515
2952.99	0.000139544
2961.67	9.7784e-05
2970.35	6.99322e-05
2979.03	7.30099e-05
2987.7	8.77992e-05
2996.38	0.000109502
3005.06	0.000136006
3013.74	0.000176039
3022.42	0.000218075
3031.09	0.000239885
3039.77	0.000211324
3048.45	0.000170585
3057.13	0.000133478
3065.81	0.000118053
3074.49	8.45756e-05
3083.16	4.12661e-05
3091.84	2.891e-05
3100.52	2.36879e-05
3109.2	2.11434e-05
3117.88	1.85608e-05
3126.55	1.27742e-05
3135.23	4.84777e-06
3143.91	2.02351e-06
3152.59	1.15295e-06
3161.27	8.66622e-07
3169.95	6.34652e-07
3178.62	6.43451e-07
3187.3	4.90415e-07
3195.98	4.48353e-07
3204.66	3.22224e-07
3213.34	2.27003e-07
3222.01	-9.19804e-08
3230.69	-3.23298e-07
3239.37	-3.9422e-07
3248.05	-3.84477e-07
3256.73	5.7065e-08
3265.41	3.0834e-07
3274.08	1.43499e-07
3282.76	-1.06886e-07
3291.44	-1.76805e-08
3300.12	1.87109e-07
3308.8	4.96072e-08
3317.47	-1.30606e-07
3326.15	-1.29837e-07
3334.83	-6.18599e-08
3343.51	-4.59011e-08
3352.19	-1.31406e-07
3360.87	-1.13051e-07
3369.54	-5.20392e-08
3378.22	4.92643e-08
3386.9	1.65127e-08
3395.58	4.98954e-07
3404.26	4.11786e-07
3412.93	7.03342e-07
3421.61	5.80725e-07
3430.29	4.2256e-07
3438.97	3.16763e-07
3447.65	3.59108e-07
3456.33	4.18932e-07
3465	4.81812e-07
3473.68	2.08561e-07
3482.36	1.73727e-07
3491.04	-1.3438e-07
3499.72	-2.00322e-07
3508.39	-3.0945e-07
3517.07	-1.51316e-07
3525.75	-2.1363e-08
3534.43	-4.72162e-08
3543.11	1.1415e-08
3551.79	4.74793e-07
3560.46	2.86618e-07
3569.14	3.15463e-07
3577.82	8.60596e-08
3586.5	-1.50236e-07
3595.18	-3.86486e-07
3603.85	-4.12856e-07
3612.53	-4.34887e-07
3621.21	-2.0807e-07
3629.89	-4.62839e-07
3638.57	-3.40682e-07
3647.25	-4.81648e-07
3655.92	-4.29768e-07
3664.6	-2.01025e-07
3673.28	-1.82717e-07
3681.96	-1.60146e-07
3690.64	-3.76563e-07
3699.31	-3.34962e-07
3707.99	-1.67195e-07
3716.67	-2.18208e-07
3725.35	-5.54125e-08
3734.03	3.6925e-07
3742.71	5.90703e-07
3751.38	4.89395e-07
3760.06	2.71152e-07
3768.74	7.83507e-07
3777.42	6.42498e-07
3786.1	7.08093e-07
3794.77	4.66358e-07
3803.45	2.56336e-07
3812.13	1.31064e-07
3820.81	-1.31512e-09
3829.49	5.89473e-07
3838.17	-2.50183e-08
3846.84	5.52917e-07
3855.52	4.67736e-07
3864.2	2.79655e-07
3872.88	4.25255e-07
3881.56	6.32729e-07
3890.23	8.98661e-07
3898.91	1.14101e-06
3907.59	1.64213e-06
3916.27	1.81773e-06
3924.95	1.7284e-06
3933.63	1.43846e-06
3942.3	1.33989e-06
3950.98	1.4088e-06
3959.66	1.50056e-06
3968.34	1.52989e-06
