Infrared Spectrum: Ethenyl Ester-Acetic Acid
Formula: C H3 C O2 C H: C H2
CAS: 108-05-4
State: gas
Melting point: -93.2 C
Boiling point: 72.2 C
Class: IUPAC A
Instrument: IFS66V (Bruker)
Instrument parameters: KBr Beam splitter; MCT Detector; Multipass cell
Sampling: 1 L/min Flow
Resolution: 0.9640
Temperature: 23 C
Pressure: 101.3 kPa
Origin: NIST, Anayltical Chemistry Division, 301-975-3108
cm-1	(micromol/mol)-1m-1 (base 10)
575.169	1.10278e-05
583.847	1.97907e-05
592.525	3.73674e-05
601.203	2.87454e-05
609.882	3.27335e-05
618.56	3.42294e-05
627.238	4.25658e-05
635.916	4.18556e-05
644.594	4.05471e-05
653.272	2.48063e-05
661.951	1.28771e-05
670.629	5.93063e-06
679.307	4.94989e-06
687.985	6.82306e-06
696.663	9.74236e-06
705.341	1.08123e-05
714.019	1.21469e-05
722.698	9.04153e-06
731.376	7.22502e-06
740.054	5.94963e-06
748.732	5.78878e-06
757.41	6.49616e-06
766.088	7.94775e-06
774.767	9.86085e-06
783.445	9.74006e-06
792.123	9.22768e-06
800.801	9.33647e-06
809.479	1.08417e-05
818.157	1.56584e-05
826.835	2.59813e-05
835.514	5.35991e-05
844.192	8.9197e-05
852.87	0.000133776
861.548	0.000154929
870.226	0.000274203
878.904	0.000159732
887.583	0.000123526
896.261	5.93805e-05
904.939	2.12731e-05
913.617	1.3825e-05
922.295	2.45229e-05
930.973	5.56578e-05
939.651	8.8536e-05
948.33	0.00012621
957.008	0.000154585
965.686	0.000115441
974.364	0.000107042
983.042	0.000104585
991.72	6.75938e-05
1000.4	9.20353e-05
1009.08	0.000190917
1017.75	0.000339074
1026.43	0.000347142
1035.11	0.000222644
1043.79	8.61343e-05
1052.47	6.89238e-05
1061.15	6.17263e-05
1069.82	5.61372e-05
1078.5	4.83235e-05
1087.18	3.98904e-05
1095.86	3.27517e-05
1104.54	3.04601e-05
1113.21	3.40506e-05
1121.89	5.35352e-05
1130.57	0.000182579
1139.25	0.000847205
1147.93	0.000939506
1156.61	0.000798434
1165.28	9.05783e-05
1173.96	5.1045e-05
1182.64	6.97543e-05
1191.32	0.000121794
1200	0.000320549
1208.67	0.00110945
1217.35	0.00260105
1226.03	0.00269963
1234.71	0.00176028
1243.39	0.000369215
1252.07	0.000231906
1260.74	0.000181314
1269.42	6.90752e-05
1278.1	6.09992e-05
1286.78	0.000144255
1295.46	0.000172461
1304.13	0.00015745
1312.81	5.00899e-05
1321.49	1.98346e-05
1330.17	1.38525e-05
1338.85	1.37992e-05
1347.52	2.22046e-05
1356.2	6.31087e-05
1364.88	0.00023417
1373.56	0.000388707
1382.24	0.000429887
1390.92	0.000195441
1399.59	7.26857e-05
1408.27	3.06891e-05
1416.95	2.9032e-05
1425.63	3.30072e-05
1434.31	4.03739e-05
1442.98	3.59392e-05
1451.66	3.3582e-05
1460.34	2.71657e-05
1469.02	2.28025e-05
1477.7	2.09345e-05
1486.38	1.86524e-05
1495.05	1.65513e-05
1503.73	1.54173e-05
1512.41	1.4488e-05
1521.09	1.29299e-05
1529.77	1.22616e-05
1538.44	1.09403e-05
1547.12	1.1821e-05
1555.8	1.49648e-05
1564.48	1.78576e-05
1573.16	2.00222e-05
1581.83	2.18486e-05
1590.51	2.25167e-05
1599.19	2.30374e-05
1607.87	2.61778e-05
1616.55	3.45966e-05
1625.23	4.58059e-05
1633.9	7.97841e-05
1642.58	0.000323086
1651.26	0.000416358
1659.94	0.000518314
1668.62	9.13767e-05
1677.29	2.99417e-05
1685.97	1.83602e-05
1694.65	1.67395e-05
1703.33	1.46079e-05
1712.01	1.29209e-05
1720.69	1.30434e-05
1729.36	1.98015e-05
1738.04	2.88395e-05
1746.72	5.89331e-05
1755.4	0.000139877
1764.08	0.00036856
1772.75	0.000974705
1781.43	0.00109071
1790.11	0.00145782
1798.79	0.000613755
1807.47	0.000211477
1816.15	5.56067e-05
1824.82	2.43263e-05
1833.5	2.1156e-05
1842.18	1.89439e-05
1850.86	2.25156e-05
1859.54	2.71546e-05
1868.21	2.83516e-05
1876.89	2.51013e-05
1885.57	1.65388e-05
1894.25	1.47457e-05
1902.93	1.37604e-05
1911.6	1.0384e-05
1920.28	5.87613e-06
1928.96	4.43923e-06
1937.64	4.81472e-06
1946.32	5.29976e-06
1955	5.52438e-06
1963.67	5.10138e-06
1972.35	5.11843e-06
1981.03	9.06983e-06
1989.71	1.30232e-05
1998.39	1.39195e-05
2007.06	7.51215e-06
2015.74	5.44932e-06
2024.42	5.34934e-06
2033.1	5.58032e-06
2041.78	7.4762e-06
2050.46	1.44085e-05
2059.13	2.51998e-05
2067.81	2.77583e-05
2076.49	2.00584e-05
2085.17	8.47616e-06
2093.85	6.04539e-06
2102.52	5.69467e-06
2111.2	6.74537e-06
2119.88	7.05614e-06
2128.56	7.24654e-06
2137.24	4.23337e-06
2145.91	4.17881e-06
2154.59	4.4415e-06
2163.27	4.87985e-06
2171.95	4.63355e-06
2180.63	3.90483e-06
2189.31	2.5856e-06
2197.98	2.16809e-06
2206.66	2.22852e-06
2215.34	3.30213e-06
2224.02	4.48983e-06
2232.7	4.75357e-06
2241.37	3.89191e-06
2250.05	3.03797e-06
2258.73	2.31913e-06
2267.41	2.83587e-06
2276.09	6.68288e-06
2284.77	1.12084e-05
2293.44	1.11355e-05
2302.12	4.92541e-06
2310.8	1.35146e-06
2319.48	1.19731e-06
2328.16	1.49444e-06
2336.83	2.47633e-06
2345.51	3.38261e-06
2354.19	4.21813e-06
2362.87	3.7922e-06
2371.55	3.19568e-06
2380.23	2.45148e-06
2388.9	1.56429e-06
2397.58	1.88606e-06
2406.26	2.58091e-06
2414.94	3.69249e-06
2423.62	5.58277e-06
2432.29	8.18994e-06
2440.97	8.20364e-06
2449.65	6.24933e-06
2458.33	2.8244e-06
2467.01	1.91808e-06
2475.68	1.64585e-06
2484.36	1.65672e-06
2493.04	1.90408e-06
2501.72	1.88513e-06
2510.4	9.74894e-07
2519.08	7.55175e-07
2527.75	6.04155e-07
2536.43	4.04982e-07
2545.11	3.01213e-07
2553.79	2.83414e-07
2562.47	2.83174e-07
2571.14	6.01179e-07
2579.82	1.34286e-06
2588.5	1.98116e-06
2597.18	1.81899e-06
2605.86	1.33477e-06
2614.54	1.19757e-06
2623.21	1.92707e-06
2631.89	2.12123e-06
2640.57	1.78332e-06
2649.25	9.34533e-07
2657.93	9.38443e-07
2666.6	1.16259e-06
2675.28	1.1576e-06
2683.96	8.56509e-07
2692.64	5.11493e-07
2701.32	3.79652e-07
2709.99	4.05706e-07
2718.67	4.52717e-07
2727.35	5.46041e-07
2736.03	9.85345e-07
2744.71	2.21913e-06
2753.39	3.00647e-06
2762.06	3.23091e-06
2770.74	1.91348e-06
2779.42	1.0609e-06
2788.1	1.35369e-06
2796.78	1.50244e-06
2805.45	1.28796e-06
2814.13	7.04831e-07
2822.81	6.82833e-07
2831.49	7.9288e-07
2840.17	1.04789e-06
2848.85	1.84049e-06
2857.52	2.34775e-06
2866.2	2.3754e-06
2874.88	1.74644e-06
2883.56	1.30991e-06
2892.24	1.14467e-06
2900.91	1.19307e-06
2909.59	1.23926e-06
2918.27	1.43449e-06
2926.95	2.15619e-06
2935.63	4.14768e-06
2944.31	8.84378e-06
2952.98	1.07527e-05
2961.66	1.23251e-05
2970.34	9.45625e-06
2979.02	9.01641e-06
2987.7	9.92107e-06
2996.37	1.21935e-05
3005.05	1.13925e-05
3013.73	1.15965e-05
3022.41	1.36759e-05
3031.09	1.70585e-05
3039.76	1.88544e-05
3048.44	2.06998e-05
3057.12	2.21838e-05
3065.8	2.34206e-05
3074.48	1.83586e-05
3083.16	1.81236e-05
3091.83	3.75165e-05
3100.51	4.21229e-05
3109.19	4.68454e-05
3117.87	1.84868e-05
3126.55	2.54866e-05
3135.22	2.27155e-05
3143.9	1.46075e-05
3152.58	4.84719e-06
3161.26	2.43166e-06
3169.94	1.52598e-06
3178.62	1.18226e-06
3187.29	1.02994e-06
3195.97	1.07401e-06
3204.65	7.88028e-07
3213.33	6.12107e-07
3222.01	4.31745e-07
3230.68	2.61682e-07
3239.36	9.55432e-08
3248.04	7.19193e-09
3256.72	5.2508e-08
3265.4	-2.16085e-09
3274.07	-5.48289e-08
3282.75	-8.83949e-08
3291.43	7.64375e-08
3300.11	5.7932e-08
3308.79	-1.84917e-07
3317.47	-5.17201e-07
3326.14	-4.45885e-07
3334.82	-1.52078e-07
3343.5	-5.91506e-09
3352.18	-8.50154e-09
3360.86	-1.38578e-07
3369.53	-1.17617e-07
3378.21	-3.74257e-08
3386.89	-3.05284e-08
3395.57	-2.77309e-08
3404.25	-1.30386e-07
3412.93	-1.21521e-07
3421.6	-1.11895e-07
3430.28	-2.87568e-08
3438.96	-4.97651e-08
3447.64	7.66812e-08
3456.32	2.54333e-07
3464.99	2.09243e-07
3473.67	1.92833e-07
3482.35	-5.91033e-08
3491.03	-1.25791e-07
3499.71	-3.46682e-08
3508.39	2.3462e-07
3517.06	1.12596e-06
3525.74	3.46601e-06
3534.42	9.47975e-06
3543.1	1.52696e-05
3551.78	1.52157e-05
3560.45	1.00773e-05
3569.13	3.17834e-06
3577.81	4.2483e-07
3586.49	-3.75781e-07
3595.17	-4.34724e-07
3603.84	-5.29358e-07
3612.52	-7.30739e-07
3621.2	-5.5499e-07
3629.88	-8.63461e-07
3638.56	-4.64285e-07
3647.24	-5.63357e-07
3655.91	-5.98091e-07
3664.59	-3.31578e-07
3673.27	-4.14455e-07
3681.95	-3.93112e-07
3690.63	-5.58588e-07
3699.3	-4.61615e-07
3707.98	-4.68756e-07
3716.66	-4.30901e-07
3725.34	-4.42757e-07
3734.02	-5.02278e-07
3742.7	-4.83027e-07
3751.37	-5.5463e-07
3760.05	-5.89847e-07
3768.73	-4.27707e-07
3777.41	-4.13563e-07
3786.09	-4.02392e-07
3794.76	-4.28446e-07
3803.44	-4.44441e-07
3812.12	-3.57323e-07
3820.8	-6.11627e-07
3829.48	-2.88521e-07
3838.16	-8.7926e-07
3846.83	-2.49637e-07
3855.51	-3.15197e-07
3864.19	-2.53762e-07
3872.87	-1.80966e-07
3881.55	-1.3987e-07
3890.22	-5.41559e-08
3898.9	-1.5322e-07
3907.58	1.2685e-07
3916.26	1.03972e-07
3924.94	1.02702e-07
3933.61	1.49233e-07
3942.29	1.34428e-07
3950.97	2.68528e-07
3959.65	4.82805e-07
3968.33	9.22208e-07
