Infrared Spectrum: m-Cresol
Formula: C 7 H 8 O
CAS: 108-39-4
State: liquid
Instrument: Bruker Tensor 27 FTIR
Resolution: 0.4821395
Origin: Pacific Northwest National Laboratory Under IARPA Contract
1/cm	dispersion index
7797.62	1.51483
7779.06	1.51483
7760.5	1.51482
7741.94	1.51481
7723.38	1.51479
7704.81	1.51478
7686.25	1.51476
7667.69	1.51474
7649.13	1.51472
7630.57	1.5147
7612.01	1.51469
7593.44	1.51467
7574.88	1.51465
7556.32	1.51463
7537.76	1.51461
7519.2	1.51459
7500.64	1.51457
7482.07	1.51455
7463.51	1.51452
7444.95	1.5145
7426.39	1.51447
7407.83	1.51445
7389.26	1.51443
7370.7	1.51441
7352.14	1.51439
7333.58	1.51437
7315.02	1.51435
7296.46	1.51433
7277.89	1.5143
7259.33	1.51427
7240.77	1.51425
7222.21	1.51422
7203.65	1.51419
7185.09	1.51416
7166.52	1.51413
7147.96	1.5141
7129.4	1.51408
7110.84	1.51404
7092.28	1.51401
7073.71	1.51398
7055.15	1.51395
7036.59	1.51392
7018.03	1.51388
6999.47	1.51384
6980.91	1.5138
6962.34	1.51375
6943.78	1.51371
6925.22	1.51365
6906.66	1.51359
6888.1	1.51358
6869.54	1.51358
6850.97	1.51357
6832.41	1.51354
6813.85	1.51348
6795.29	1.51342
6776.73	1.51337
6758.16	1.51333
6739.6	1.51328
6721.04	1.51322
6702.48	1.51317
6683.92	1.5131
6665.36	1.51303
6646.79	1.51297
6628.23	1.5129
6609.67	1.51283
6591.11	1.51275
6572.55	1.51268
6553.99	1.51261
6535.42	1.51253
6516.86	1.51244
6498.3	1.51236
6479.74	1.51227
6461.18	1.51218
6442.61	1.51208
6424.05	1.51197
6405.49	1.51186
6386.93	1.51176
6368.37	1.51165
6349.81	1.51153
6331.24	1.5114
6312.68	1.51127
6294.12	1.51114
6275.56	1.51099
6257	1.51084
6238.44	1.51074
6219.87	1.51076
6201.31	1.51075
6182.75	1.51052
6164.19	1.51031
6145.63	1.51007
6127.06	1.50979
6108.5	1.5095
6089.94	1.50935
6071.38	1.50911
6052.82	1.50912
6034.26	1.50884
6015.69	1.50848
5997.13	1.50811
5978.57	1.5077
5960.01	1.50725
5941.45	1.5066
5922.89	1.50636
5904.32	1.50633
5885.76	1.50563
5867.2	1.50504
5848.64	1.50436
5830.08	1.50353
5811.51	1.50256
5792.95	1.50141
5774.39	1.50015
5755.83	1.49834
5737.27	1.49595
5718.71	1.49255
5700.14	1.48726
5681.58	1.481
5663.02	1.47998
5644.46	1.48237
5625.9	1.48285
5607.34	1.48525
5588.77	1.49289
5570.21	1.50553
5551.65	1.52058
5533.09	1.532
5514.53	1.53722
5495.96	1.53948
5477.4	1.53767
5458.84	1.53269
5440.28	1.52932
5421.72	1.52612
5403.16	1.5302
5384.59	1.52625
5366.03	1.5262
5347.47	1.53041
5328.91	1.52776
5310.35	1.52761
5291.79	1.52532
5273.22	1.52267
5254.66	1.52246
5236.1	1.52209
5217.54	1.52116
5198.98	1.51957
5180.41	1.51997
5161.85	1.51985
5143.29	1.5185
5124.73	1.51834
5106.17	1.51844
5087.61	1.51773
5069.04	1.51638
5050.48	1.51611
5031.92	1.5147
5013.36	1.5135
4994.8	1.513
4976.24	1.51203
4957.67	1.51077
4939.11	1.51007
4920.55	1.50859
4901.99	1.50733
4883.43	1.50568
4864.86	1.50344
4846.3	1.50347
4827.74	1.50055
4809.18	1.49922
4790.62	1.49567
4772.06	1.49033
4753.49	1.48549
4734.93	1.47474
4716.37	1.43816
4697.81	1.44171
4679.25	1.51595
4660.69	1.47763
4642.12	1.52393
4623.56	1.53433
4605	1.52257
4586.44	1.49239
4567.88	1.5027
4549.31	1.48351
4530.75	1.54083
4512.19	1.56154
4493.63	1.55147
4475.07	1.6515
4456.51	1.57597
4437.94	1.57001
4419.38	1.5407
4400.82	1.54327
4382.26	1.53217
4363.7	1.46682
4345.14	1.52606
4326.57	1.52311
4308.01	1.5101
4289.45	1.41003
4270.89	1.55392
4252.33	1.5229
4233.76	1.59821
4215.2	1.57485
4196.64	1.57144
4178.08	1.55855
4159.52	1.56913
4140.96	1.55839
4122.39	1.5133
4103.83	1.56861
4085.27	9.52319e-05
4066.71	9.71632e-05
4048.15	9.58751e-05
4029.58	9.65199e-05
4011.02	9.58751e-05
3992.46	9.39455e-05
3973.9	9.39455e-05
3955.34	9.33022e-05
3936.78	0.000102311
3918.21	0.000104885
3899.65	0.000107458
3881.09	0.000115823
3862.53	0.000120327
3843.97	0.000114537
3825.41	0.000117109
3806.84	0.000107458
3788.28	0.000102311
3769.72	0.000100379
3751.16	0.000108101
3732.6	0.000143493
3714.03	0.000192395
3695.47	0.000235507
3676.91	0.000266393
3658.35	0.000287627
3639.79	0.000286341
3621.23	0.000276046
3602.66	0.000267036
3584.1	0.000260602
3565.54	0.000254811
3546.98	0.000253523
3528.42	0.000254811
3509.86	0.000261245
3491.29	0.00026961
3472.73	0.000277975
3454.17	0.000283123
3435.61	0.000288915
3417.05	0.000293419
3398.48	0.000295349
3379.92	0.000292131
3361.36	0.000283123
3342.8	0.00026961
3324.24	0.000256741
3305.68	0.000243872
3287.11	0.000238081
3268.55	0.000256098
3249.99	0.000277975
3231.43	0.000274115
3212.87	0.000424684
3194.31	0.000759285
3175.74	0.000875108
3157.18	0.000746416
3138.62	0.000662766
3120.06	0.000375139
3101.5	0.000362269
3082.93	0.000375782
3064.37	0.000385433
3045.81	0.000286984
3027.25	0.000292131
3008.69	0.000207839
2990.13	0.000128692
2971.56	9.90928e-05
2953	9.84496e-05
2934.44	9.84496e-05
2915.88	9.65199e-05
2897.32	9.65199e-05
2878.76	0.000110032
2860.19	0.000108101
2841.63	8.81549e-05
2823.07	9.58751e-05
2804.51	0.000118397
2785.95	0.000127406
2767.38	0.000128692
2748.82	0.000128692
2730.26	0.000146066
2711.7	0.00021749
2693.14	0.000301784
2674.58	0.000341678
2656.01	0.000375139
2637.45	0.000480022
2618.89	0.000618367
2600.33	0.000759285
2581.77	0.000945888
2563.21	0.00129979
2544.64	0.00193039
2526.08	0.00245159
2507.52	0.00194969
2488.96	0.000900847
2470.4	0.00065633
2451.83	0.00045364
2433.27	0.000348757
2414.71	0.00068207
2396.15	0.0016923
2377.59	0.00171804
2359.03	0.00293418
2340.46	0.0011711
2321.9	0.000823632
2303.34	0.000620297
2284.78	0.000463937
2266.22	0.000720678
2247.66	0.0010231
2229.09	0.0035133
2210.53	0.00237437
2191.97	0.00149283
2173.41	0.00176308
2154.85	0.0015057
2136.28	0.00101023
2117.72	0.000817196
2099.16	0.000894411
2080.6	0.00107458
2062.04	0.000176308
2043.48	0.000232289
2024.91	0.00133197
2006.35	0.00791458
1987.79	0.0344895
1969.23	0.0952323
1950.67	0.147353
1932.11	0.176952
1913.54	0.233577
1894.98	0.295349
1876.42	0.344252
1857.86	0.351974
1839.3	0.310792
1820.73	0.247089
1802.17	0.191108
1783.61	0.133197
1765.05	0.0926585
1746.49	0.0804327
1727.93	0.0881543
1709.36	0.0830066
1690.8	0.0688504
1672.24	0.0765719
1653.68	0.0595846
1635.12	0.0491605
1616.56	0.03198
1597.99	0.0211699
1579.43	0.0182743
1560.87	0.023615
1542.31	0.0230359
1523.75	0.0176308
1505.18	0.0173091
1486.62	0.0242585
1468.06	0.018403
1449.5	0.0144135
1430.94	0.0174378
1412.38	0.0168587
1393.81	0.010231
1375.25	0.00622871
1356.69	0.00656331
1338.13	0.00228429
1319.57	0.00271541
1301.01	0.00575255
1282.44	0.00326235
1263.88	0.00247733
1245.32	0.00596489
1226.76	0.00207195
1208.2	0.00576542
1189.63	0.00375138
1171.07	0.00907281
1152.51	0.00707808
1133.95	0.00331383
1115.39	0.010231
1096.83	0.00377069
1078.26	0.00791458
1059.7	0.011518
1041.14	0.00797892
1022.58	0.0257385
1004.02	0.377069
985.455	0.113249
966.894	0.107458
948.332	0.512839
929.77	0.525065
911.208	0.133197
892.647	0.13384
874.085	0.326879
855.523	0.218134
836.961	0.733546
818.399	0.577829
799.838	0.317227
781.276	0.978062
762.714	0.0868673
744.152	0.166013
725.591	0.0640244
707.029	0.140918
688.467	0.0193682
669.905	0.0617723
651.344	0.00189178
632.782	0.10038
614.22	0.00431763
595.658	0.220064
577.096	0.15057
558.535	0.127405
539.973	0.212342
521.411	0.14864
502.849	0.113893
484.288	0.0526995
465.726	0.0797893
447.164	0.00361626
428.602	0.0573324
410.041	0.000978062
