Infrared Spectrum: 1,3,5-TRIMETHYLBENZENE
Formula: C9 H12
CAS: 108-67-8
State: LIQUID (NEAT)
Class: COBLENTZ III
Instrument: BECKMAN IR-7 (GRATING)
Instrument parameters: GRATING CHANGES AT 3000, 2200, 1150 CM^-^1
Sampling: TRANSMISSION
Path length: 0.0027 CM
Resolution: 4
Origin: WESTERN REGIONAL RES. USDA
1/CM	TRANSMITTANCE
597.423	0.489
606.443	0.482
615.463	0.475
624.482	0.499
633.502	0.53
642.522	0.558
651.542	0.58
660.562	0.613
669.581	0.637
678.601	0.599
687.621	0.013
696.641	0.61
705.661	0.698
714.68	0.739
723.7	0.755
732.72	0.762
741.74	0.763
750.76	0.766
759.779	0.766
768.799	0.756
777.819	0.769
786.839	0.767
795.859	0.761
804.878	0.736
813.898	0.727
822.918	0.603
831.938	0.018
840.958	0.2458
849.977	0.625
858.997	0.711
868.017	0.722
877.037	0.677
886.057	0.688
895.076	0.724
904.096	0.732
913.116	0.721
922.136	0.701
931.156	0.715
940.175	0.746
949.195	0.752
958.215	0.746
967.235	0.735
976.255	0.721
985.274	0.699
994.294	0.66
1003.31	0.621
1012.33	0.574
1021.35	0.551
1030.37	0.396
1039.39	0.327
1048.41	0.505
1057.43	0.618
1066.45	0.672
1075.47	0.706
1084.49	0.718
1093.51	0.72
1102.53	0.724
1111.55	0.727
1120.57	0.728
1129.59	0.727
1138.61	0.724
1147.63	0.715
1156.65	0.706
1165.67	0.663
1174.69	0.722
1183.71	0.729
1192.73	0.718
1201.75	0.727
1210.77	0.732
1219.79	0.736
1228.81	0.738
1237.83	0.738
1246.85	0.736
1255.87	0.734
1264.89	0.729
1273.91	0.725
1282.93	0.722
1291.95	0.717
1300.97	0.708
1309.99	0.703
1319.01	0.691
1328.03	0.683
1337.05	0.659
1346.07	0.631
1355.09	0.571
1364.11	0.492
1373.13	0.231
1382.15	0.42
1391.17	0.475
1400.19	0.475
1409.2	0.459
1418.22	0.427
1427.24	0.418
1436.26	0.291
1445.28	0.249
1454.3	0.232
1463.32	0.141
1472.34	0.118
1481.36	0.183
1490.38	0.276
1499.4	0.344
1508.42	0.357
1517.44	0.4
1526.46	0.438
1535.48	0.46
1544.5	0.476
1553.52	0.495
1562.54	0.509
1571.56	0.501
1580.58	0.48
1589.6	0.476
1598.62	0.254
1607.64	0.004
1616.66	0.445
1625.68	0.526
1634.7	0.699
1643.72	0.724
1652.74	0.732
1661.76	0.739
1670.78	0.734
1679.8	0.725
1688.82	0.743
1697.84	0.733
1706.86	0.631
1715.88	0.611
1724.9	0.699
1733.92	0.731
1742.94	0.652
1751.96	0.685
1760.98	0.636
1770	0.696
1779.02	0.752
1788.04	0.781
1797.06	0.793
1806.08	0.795
1815.1	0.793
1824.12	0.795
1833.14	0.782
1842.16	0.788
1851.17	0.793
1860.19	0.789
1869.21	0.777
1878.23	0.77
1887.25	0.775
1896.27	0.775
1905.29	0.782
1914.31	0.77
1923.33	0.765
1932.35	0.774
1941.37	0.785
1950.39	0.777
1959.41	0.79
1968.43	0.797
1977.45	0.8
1986.47	0.801
1995.49	0.8
2004.51	0.798
2013.53	0.798
2022.55	0.799
2031.57	0.7995
2040.59	0.8011
2049.61	0.8003
2058.63	0.8
2067.65	0.799
2076.67	0.799
2085.69	0.799
2094.71	0.8
2103.73	0.799
2112.75	0.799
2121.77	0.799
2130.79	0.7998
2139.81	0.8
2148.83	0.802
2157.85	0.802
2166.87	0.801
2175.89	0.8
2184.91	0.8
2193.93	0.8
2202.95	0.797
2211.97	0.794
2220.99	0.7919
2230.01	0.7869
2239.03	0.7843
2248.05	0.7833
2257.07	0.7907
2266.09	0.793
2275.11	0.794
2284.13	0.7914
2293.15	0.7894
2302.16	0.7706
2311.18	0.7587
2320.2	0.7645
2329.22	0.7815
2338.24	0.784
2347.26	0.784
2356.28	0.7828
2365.3	0.7805
2374.32	0.7767
2383.34	0.774
2392.36	0.7675
2401.38	0.7651
2410.4	0.7674
2419.42	0.7648
2428.44	0.7612
2437.46	0.758
2446.48	0.761
2455.5	0.758
2464.52	0.755
2473.54	0.7603
2482.56	0.7676
2491.58	0.7766
2500.6	0.7814
2509.62	0.784
2518.64	0.786
2527.66	0.786
2536.68	0.7833
2545.7	0.781
2554.72	0.7818
2563.74	0.7868
2572.76	0.79
2581.78	0.7875
2590.8	0.7858
2599.82	0.7813
2608.84	0.782
2617.86	0.7856
2626.88	0.7872
2635.9	0.7821
2644.92	0.78
2653.94	0.78
2662.96	0.779
2671.98	0.7777
2681	0.774
2690.02	0.773
2699.04	0.772
2708.06	0.7689
2717.08	0.7463
2726.1	0.5896
2735.12	0.6042
2744.14	0.7016
2753.15	0.7369
2762.17	0.741
2771.19	0.74
2780.21	0.7379
2789.23	0.734
2798.25	0.7094
2807.27	0.6748
2816.29	0.6272
2825.31	0.5736
2834.33	0.4113
2843.35	0.3049
2852.37	0.1351
2861.39	0.1643
2870.41	0.1912
2879.43	0.2066
2888.45	0.1353
2897.47	0.0809
2906.49	0.0394
2915.51	0.028
2924.53	0.0547
2933.55	0.072
2942.57	0.0665
2951.59	0.0663
2960.61	0.0905
2969.63	0.1241
2978.65	0.1626
2987.67	0.1817
2996.69	0.115
3005.71	0.0545
3014.73	0.0849
3023.75	0.1774
3032.77	0.3023
3041.79	0.4444
3050.81	0.522
3059.83	0.5685
3068.85	0.6053
3077.87	0.6453
3086.89	0.6874
3095.91	0.7105
3104.93	0.7285
3113.95	0.7394
3122.97	0.7469
3131.99	0.7515
3141.01	0.7551
3150.03	0.7587
3159.05	0.7603
3168.07	0.761
3177.09	0.762
3186.11	0.762
3195.12	0.763
3204.14	0.763
3213.16	0.763
3222.18	0.761
3231.2	0.761
3240.22	0.761
3249.24	0.764
3258.26	0.7656
3267.28	0.767
3276.3	0.768
3285.32	0.769
3294.34	0.77
3303.36	0.771
3312.38	0.772
3321.4	0.7736
3330.42	0.774
3339.44	0.774
3348.46	0.773
3357.48	0.772
3366.5	0.772
3375.52	0.771
3384.54	0.7694
3393.56	0.768
3402.58	0.768
3411.6	0.768
3420.62	0.768
3429.64	0.768
3438.66	0.768
3447.68	0.768
3456.7	0.768
3465.72	0.7688
3474.74	0.772
3483.76	0.7749
3492.78	0.777
3501.8	0.777
3510.82	0.775
3519.84	0.7688
3528.86	0.7678
3537.88	0.7704
3546.9	0.774
3555.92	0.777
3564.94	0.778
3573.96	0.778
3582.98	0.779
3592	0.7808
3601.02	0.7854
3610.04	0.788
3619.06	0.7895
3628.08	0.79
3637.1	0.791
3646.11	0.792
3655.13	0.791
3664.15	0.791
3673.17	0.791
3682.19	0.791
3691.21	0.7919
3700.23	0.792
3709.25	0.7917
3718.27	0.791
3727.29	0.7906
3736.31	0.79
3745.33	0.789
3754.35	0.789
3763.37	0.788
3772.39	0.786
3781.41	0.785
3790.43	0.784
3799.45	0.784
3808.47	0.7824
3817.49	0.7818
3826.51	0.7783
3835.53	0.7777
3844.55	0.777
3853.57	0.7765
3862.59	0.774
3871.61	0.772
3880.63	0.768
3889.65	0.7652
3898.67	0.7637
3907.69	0.7621
3916.71	0.7605
3925.73	0.7559
3934.75	0.751
3943.77	0.75
3952.79	0.7528
3961.81	0.7591
3970.83	0.7629
3979.85	0.7645
3988.87	0.765
