Infrared Spectrum: Ethenyl Ester-Acetic Acid
Formula: C H3 C O2 C H: C H2
CAS: 108-05-4
State: gas
Melting point: -93.2 C
Boiling point: 72.2 C
Class: IUPAC A
Instrument: IFS66V (Bruker)
Instrument parameters: KBr Beam splitter; MCT Detector; Multipass cell
Sampling: 1 L/min Flow
Resolution: 0.2410
Temperature: 23 C
Pressure: 101.3 kPa
Origin: NIST, Anayltical Chemistry Division, 301-975-3108
cm-1	(micromol/mol)-1m-1 (base 10)
575.048	1.14966e-05
583.606	1.96617e-05
592.163	3.74307e-05
600.721	2.83694e-05
609.279	3.23946e-05
617.836	3.39542e-05
626.394	4.14674e-05
634.951	4.20297e-05
643.509	4.17309e-05
652.067	2.70784e-05
660.624	1.39318e-05
669.182	6.43437e-06
677.74	4.43258e-06
686.297	6.17587e-06
694.855	9.14535e-06
703.412	1.05162e-05
711.97	1.1616e-05
720.528	1.02805e-05
729.085	7.52333e-06
737.643	6.01579e-06
746.201	5.50156e-06
754.758	6.08845e-06
763.316	7.28822e-06
771.873	9.34696e-06
780.431	9.58807e-06
788.989	9.52814e-06
797.546	8.89757e-06
806.104	9.73255e-06
814.662	1.29942e-05
823.219	1.98514e-05
831.777	3.80048e-05
840.334	7.96467e-05
848.892	0.000104582
857.45	0.000159895
866.007	0.000156892
874.565	0.000215839
883.123	0.000145325
891.68	9.38358e-05
900.238	3.60057e-05
908.795	1.45885e-05
917.353	1.55908e-05
925.911	3.43338e-05
934.468	7.007e-05
943.026	0.000105128
951.584	0.000131901
960.141	0.000105934
968.699	0.000123552
977.256	0.0001015
985.814	9.82037e-05
994.372	6.58528e-05
1002.93	0.000110752
1011.49	0.000236419
1020.04	0.000348935
1028.6	0.000312598
1037.16	0.000170472
1045.72	7.69189e-05
1054.28	6.5957e-05
1062.83	6.03922e-05
1071.39	5.42176e-05
1079.95	4.63012e-05
1088.51	3.79953e-05
1097.06	3.11526e-05
1105.62	2.94076e-05
1114.18	3.31224e-05
1122.74	5.43645e-05
1131.29	0.00020801
1139.85	0.000897646
1148.41	0.000964744
1156.97	0.000766236
1165.52	7.82158e-05
1174.08	4.69665e-05
1182.64	6.58508e-05
1191.2	0.000115113
1199.75	0.000299521
1208.31	0.00105363
1216.87	0.00257498
1225.43	0.00283403
1233.99	0.00199263
1242.54	0.000387486
1251.1	0.000227554
1259.66	0.000192893
1268.22	7.282e-05
1276.77	5.5526e-05
1285.33	0.000124375
1293.89	0.00017188
1302.45	0.000168774
1311	6.5233e-05
1319.56	2.15144e-05
1328.12	1.35089e-05
1336.68	1.225e-05
1345.23	1.71969e-05
1353.79	4.27662e-05
1362.35	0.000165612
1370.91	0.000350948
1379.46	0.000442437
1388.02	0.000268432
1396.58	0.000105864
1405.14	3.62138e-05
1413.7	2.73993e-05
1422.25	3.05937e-05
1430.81	3.89979e-05
1439.37	3.70316e-05
1447.93	3.54055e-05
1456.48	2.8719e-05
1465.04	2.34793e-05
1473.6	2.08003e-05
1482.16	1.96315e-05
1490.71	1.71201e-05
1499.27	1.57997e-05
1507.83	1.46546e-05
1516.39	1.3875e-05
1524.94	1.27066e-05
1533.5	1.14927e-05
1542.06	9.86641e-06
1550.62	1.25846e-05
1559.18	1.61643e-05
1567.73	1.82282e-05
1576.29	1.92884e-05
1584.85	2.17545e-05
1593.41	2.2446e-05
1601.96	2.29731e-05
1610.52	2.75844e-05
1619.08	3.82656e-05
1627.64	4.70436e-05
1636.19	0.000108364
1644.75	0.000421347
1653.31	0.000553985
1661.87	0.00044392
1670.42	6.10093e-05
1678.98	2.48261e-05
1687.54	1.67806e-05
1696.1	1.47781e-05
1704.65	1.38463e-05
1713.21	1.17442e-05
1721.77	1.24435e-05
1730.33	2.00531e-05
1738.89	2.8047e-05
1747.44	6.06937e-05
1756	0.000146822
1764.56	0.000385289
1773.12	0.00102238
1781.67	0.00106977
1790.23	0.00149064
1798.79	0.00061077
1807.35	0.000211402
1815.9	5.4428e-05
1824.46	2.28798e-05
1833.02	2.03513e-05
1841.58	1.80275e-05
1850.13	2.17262e-05
1858.69	2.62793e-05
1867.25	2.846e-05
1875.81	2.52906e-05
1884.36	1.72486e-05
1892.92	1.44689e-05
1901.48	1.42655e-05
1910.04	1.13279e-05
1918.6	6.54767e-06
1927.15	4.27938e-06
1935.71	4.46845e-06
1944.27	5.20084e-06
1952.83	5.22697e-06
1961.38	5.22861e-06
1969.94	4.68245e-06
1978.5	7.22191e-06
1987.06	1.29609e-05
1995.61	1.35479e-05
2004.17	1.06598e-05
2012.73	5.49454e-06
2021.29	5.40978e-06
2029.84	5.35719e-06
2038.4	6.20359e-06
2046.96	1.07175e-05
2055.52	2.10825e-05
2064.08	2.77301e-05
2072.63	2.62763e-05
2081.19	1.18289e-05
2089.75	6.66224e-06
2098.31	5.54638e-06
2106.86	6.09172e-06
2115.42	7.19061e-06
2123.98	7.34282e-06
2132.54	5.9645e-06
2141.09	3.9292e-06
2149.65	4.27479e-06
2158.21	4.45613e-06
2166.77	4.79303e-06
2175.32	4.42027e-06
2183.88	3.22819e-06
2192.44	2.47346e-06
2201	1.98888e-06
2209.55	2.43985e-06
2218.11	3.6688e-06
2226.67	4.86732e-06
2235.23	4.56137e-06
2243.79	3.637e-06
2252.34	2.8743e-06
2260.9	2.24314e-06
2269.46	3.21699e-06
2278.02	8.17044e-06
2286.57	1.12177e-05
2295.13	1.10609e-05
2303.69	3.41362e-06
2312.25	1.1705e-06
2320.8	1.20067e-06
2329.36	1.52349e-06
2337.92	2.61354e-06
2346.48	3.37949e-06
2355.03	4.19144e-06
2363.59	3.6772e-06
2372.15	3.10863e-06
2380.71	2.39772e-06
2389.26	1.52835e-06
2397.82	1.8627e-06
2406.38	2.55676e-06
2414.94	3.7306e-06
2423.5	5.52346e-06
2432.05	8.15318e-06
2440.61	8.21172e-06
2449.17	6.44234e-06
2457.73	2.89154e-06
2466.28	1.92148e-06
2474.84	1.64072e-06
2483.4	1.60615e-06
2491.96	1.84895e-06
2500.51	1.97032e-06
2509.07	1.10596e-06
2517.63	7.11161e-07
2526.19	6.68806e-07
2534.74	4.32353e-07
2543.3	3.20072e-07
2551.86	2.54177e-07
2560.42	2.68182e-07
2568.98	3.74595e-07
2577.53	1.08777e-06
2586.09	1.82164e-06
2594.65	1.87042e-06
2603.21	1.46463e-06
2611.76	1.14967e-06
2620.32	1.69484e-06
2628.88	2.08245e-06
2637.44	2.21191e-06
2645.99	1.01306e-06
2654.55	8.96525e-07
2663.11	1.05825e-06
2671.67	1.10033e-06
2680.22	9.88841e-07
2688.78	6.86209e-07
2697.34	4.15819e-07
2705.9	3.9457e-07
2714.45	4.10326e-07
2723.01	4.4192e-07
2731.57	5.49879e-07
2740.13	1.53309e-06
2748.69	2.8631e-06
2757.24	2.72921e-06
2765.8	3.03646e-06
2774.36	1.32669e-06
2782.92	1.13868e-06
2791.47	1.36777e-06
2800.03	1.63181e-06
2808.59	9.16718e-07
2817.15	7.12027e-07
2825.7	6.44676e-07
2834.26	7.67572e-07
2842.82	1.19327e-06
2851.38	2.12999e-06
2859.93	2.33442e-06
2868.49	2.26821e-06
2877.05	1.53279e-06
2885.61	1.16721e-06
2894.16	1.10148e-06
2902.72	1.22726e-06
2911.28	1.13614e-06
2919.84	1.47318e-06
2928.4	2.30351e-06
2936.95	4.59701e-06
2945.51	9.52873e-06
2954.07	1.07728e-05
2962.63	1.23514e-05
2971.18	9.297e-06
2979.74	8.9831e-06
2988.3	1.00331e-05
2996.86	1.20346e-05
3005.41	1.13726e-05
3013.97	1.15739e-05
3022.53	1.37425e-05
3031.09	1.71012e-05
3039.64	1.88177e-05
3048.2	2.06869e-05
3056.76	2.21002e-05
3065.32	2.34354e-05
3073.88	1.86665e-05
3082.43	1.74079e-05
3090.99	3.48036e-05
3099.55	4.15995e-05
3108.11	4.79892e-05
3116.66	1.89535e-05
3125.22	2.63748e-05
3133.78	2.053e-05
3142.34	1.84291e-05
3150.89	5.59425e-06
3159.45	2.58268e-06
3168.01	1.7306e-06
3176.57	1.17547e-06
3185.12	1.03658e-06
3193.68	1.11715e-06
3202.24	8.54203e-07
3210.8	6.45193e-07
3219.35	4.26263e-07
3227.91	2.47836e-07
3236.47	6.60988e-09
3245.03	3.48901e-08
3253.59	2.48753e-08
3262.14	-5.35411e-08
3270.7	4.13254e-09
3279.26	-1.18327e-07
3287.82	1.82599e-07
3296.37	6.97585e-08
3304.93	-1.95714e-09
3313.49	-2.52372e-07
3322.05	-4.70055e-07
3330.6	-2.68742e-07
3339.16	-7.00677e-08
3347.72	7.49787e-08
3356.28	-7.82745e-08
3364.83	-2.59906e-07
3373.39	-2.30546e-07
3381.95	-1.60685e-07
3390.51	-1.24467e-07
3399.06	-1.19502e-08
3407.62	3.48865e-08
3416.18	-8.68452e-08
3424.74	-5.20606e-08
3433.3	-3.31549e-08
3441.85	-1.14009e-07
3450.41	-2.19418e-07
3458.97	1.5218e-07
3467.53	1.84626e-07
3476.08	9.23201e-08
3484.64	-1.94597e-07
3493.2	-1.50918e-07
3501.76	-1.56924e-07
3510.31	3.11749e-07
3518.87	1.22709e-06
3527.43	4.14453e-06
3535.99	1.107e-05
3544.54	1.4807e-05
3553.1	1.67342e-05
3561.66	8.58477e-06
3570.22	2.5884e-06
3578.78	5.18041e-07
3587.33	-2.10483e-07
3595.89	-2.49153e-07
3604.45	-4.81779e-07
3613.01	-5.04334e-07
3621.56	-6.57572e-07
3630.12	-4.64707e-07
3638.68	-4.16255e-07
3647.24	-5.90524e-07
3655.79	-4.23531e-07
3664.35	-2.8787e-07
3672.91	-4.33135e-07
3681.47	-3.60779e-07
3690.02	-3.74009e-07
3698.58	-5.15433e-07
3707.14	-3.99609e-07
3715.7	-5.22057e-07
3724.25	-3.84814e-07
3732.81	-4.56387e-07
3741.37	-6.17098e-07
3749.93	-6.99913e-07
3758.49	-4.32403e-07
3767.04	-4.40665e-07
3775.6	-3.74431e-07
3784.16	-4.22159e-07
3792.72	-3.66359e-07
3801.27	-1.15893e-06
3809.83	-2.90111e-07
3818.39	-4.71979e-07
3826.95	-4.57231e-07
3835.5	-2.50241e-07
3844.06	-1.59488e-07
3852.62	-3.44292e-07
3861.18	-1.88809e-07
3869.73	-2.89853e-07
3878.29	-1.16555e-07
3886.85	-1.67186e-07
3895.41	-2.08519e-08
3903.96	1.0666e-08
3912.52	1.51689e-07
3921.08	9.89118e-09
3929.64	8.47316e-08
3938.2	1.50136e-07
3946.75	2.22797e-07
3955.31	3.73555e-07
3963.87	7.63494e-07
3972.43	1.2308e-06
