Infrared Spectrum: BENZENE, 1,3-DIMETHYL-
Formula: C8 H10
CAS: 108-38-3
State: LIQUID (NEAT)
Class: COBLENTZ III
Instrument: PERKIN-ELMER 521 (GRATING)
Instrument parameters: FILTERS AT 3150, 2500, 2000, 1150, 700, 410. GRATING CHANGES: 2000, 630 CM^-^1
Sampling: TRANSMISSION
Path length: 0.0024 CM
Resolution: 4
Origin: STANDARD OIL OF OHIO
1/CM	TRANSMITTANCE
593.094	0.621
602.272	0.586
611.451	0.583
620.629	0.586
629.807	0.601
638.986	0.618
648.164	0.64
657.342	0.654
666.521	0.659
675.699	0.694
684.877	0.64
694.056	0.1675
703.234	0.6035
712.413	0.751
721.591	0.784
730.769	0.776
739.948	0.797
749.126	0.7661
758.304	0.6522
767.483	0.3471
776.661	0.01
785.839	0.2323
795.018	0.6519
804.196	0.801
813.374	0.84
822.553	0.851
831.731	0.869
840.909	0.874
850.088	0.875
859.266	0.869
868.444	0.84
877.623	0.6694
886.801	0.548
895.979	0.741
905.158	0.772
914.336	0.707
923.514	0.851
932.693	0.86
941.871	0.861
951.05	0.852
960.228	0.844
969.406	0.825
978.585	0.81
987.763	0.818
996.941	0.806
1006.12	0.78
1015.3	0.751
1024.48	0.734
1033.65	0.6641
1042.83	0.5091
1052.01	0.571
1061.19	0.715
1070.37	0.778
1079.55	0.801
1088.72	0.78
1097.9	0.5792
1107.08	0.781
1116.26	0.844
1125.44	0.843
1134.62	0.851
1143.79	0.851
1152.97	0.828
1162.15	0.7789
1171.33	0.601
1180.51	0.8359
1189.69	0.859
1198.86	0.86
1208.04	0.866
1217.22	0.87
1226.4	0.873
1235.58	0.868
1244.76	0.853
1253.93	0.838
1263.11	0.852
1272.29	0.855
1281.47	0.856
1290.65	0.853
1299.83	0.848
1309.01	0.842
1318.18	0.842
1327.36	0.834
1336.54	0.819
1345.72	0.801
1354.9	0.781
1364.08	0.742
1373.25	0.6221
1382.43	0.519
1391.61	0.647
1400.79	0.635
1409.97	0.63
1419.15	0.617
1428.32	0.5621
1437.5	0.553
1446.68	0.453
1455.86	0.374
1465.04	0.335
1474.22	0.334
1483.39	0.3152
1492.57	0.268
1501.75	0.21
1510.93	0.4021
1520.11	0.513
1529.29	0.622
1538.46	0.621
1547.64	0.6719
1556.82	0.699
1566	0.725
1575.18	0.728
1584.36	0.718
1593.53	0.6001
1602.71	0.4691
1611.89	0.3392
1621.07	0.1801
1630.25	0.727
1639.43	0.8549
1648.6	0.866
1657.78	0.84
1666.96	0.839
1676.14	0.883
1685.32	0.906
1694.5	0.909
1703.67	0.909
1712.85	0.892
1722.03	0.911
1731.21	0.903
1740.39	0.874
1749.57	0.844
1758.74	0.855
1767.92	0.849
1777.1	0.834
1786.28	0.843
1795.46	0.881
1804.64	0.9
1813.81	0.9
1822.99	0.903
1832.17	0.906
1841.35	0.886
1850.53	0.8271
1859.71	0.804
1868.88	0.851
1878.06	0.9
1887.24	0.899
1896.42	0.906
1905.6	0.903
1914.78	0.886
1923.95	0.868
1933.13	0.823
1942.31	0.81
1951.49	0.877
1960.67	0.911
1969.85	0.915
1979.02	0.916
1988.2	0.921
1997.38	0.919
2006.56	0.919
2015.74	0.92
2024.92	0.92
2034.09	0.921
2043.27	0.924
2052.45	0.924
2061.63	0.9225
2070.81	0.921
2079.99	0.9163
2089.16	0.919
2098.34	0.921
2107.52	0.9124
2116.7	0.9181
2125.88	0.921
2135.06	0.9205
2144.23	0.919
2153.41	0.917
2162.59	0.919
2171.77	0.9206
2180.95	0.92
2190.13	0.9197
2199.3	0.921
2208.48	0.92
2217.66	0.916
2226.84	0.917
2236.02	0.92
2245.2	0.92
2254.37	0.919
2263.55	0.915
2272.73	0.908
2281.91	0.909
2291.09	0.898
2300.27	0.9108
2309.44	0.9129
2318.62	0.912
2327.8	0.9112
2336.98	0.9015
2346.16	0.904
2355.34	0.907
2364.51	0.9103
2373.69	0.911
2382.87	0.907
2392.05	0.9009
2401.23	0.8955
2410.41	0.8955
2419.58	0.8985
2428.76	0.898
2437.94	0.899
2447.12	0.902
2456.3	0.902
2465.48	0.899
2474.66	0.899
2483.83	0.891
2493.01	0.903
2502.19	0.906
2511.37	0.911
2520.55	0.912
2529.73	0.912
2538.9	0.907
2548.08	0.903
2557.26	0.912
2566.44	0.912
2575.62	0.912
2584.8	0.912
2593.97	0.9082
2603.15	0.911
2612.33	0.909
2621.51	0.908
2630.69	0.9039
2639.87	0.9053
2649.04	0.908
2658.22	0.908
2667.4	0.9086
2676.58	0.911
2685.76	0.909
2694.94	0.9075
2704.11	0.9036
2713.29	0.8996
2722.47	0.889
2731.65	0.8621
2740.83	0.7827
2750.01	0.8135
2759.18	0.881
2768.36	0.885
2777.54	0.882
2786.72	0.878
2795.9	0.8699
2805.08	0.8558
2814.25	0.8389
2823.43	0.8131
2832.61	0.7843
2841.79	0.7316
2850.97	0.6682
2860.15	0.5336
2869.32	0.3877
2878.5	0.3226
2887.68	0.371
2896.86	0.3836
2906.04	0.353
2915.22	0.2862
2924.39	0.1674
2933.57	0.0876
2942.75	0.1921
2951.93	0.224
2961.11	0.232
2970.29	0.2519
2979.46	0.2806
2988.64	0.296
2997.82	0.3284
3007	0.3298
3016.18	0.2229
3025.36	0.152
3034.53	0.1712
3043.71	0.1834
3052.89	0.2732
3062.07	0.313
3071.25	0.4483
3080.43	0.5762
3089.6	0.664
3098.78	0.7118
3107.96	0.7359
3117.14	0.7329
3126.32	0.8132
3135.5	0.8594
3144.67	0.8746
3153.85	0.8818
3163.03	0.886
3172.21	0.89
3181.39	0.891
3190.57	0.891
3199.74	0.899
3208.92	0.9
3218.1	0.9
3227.28	0.9
3236.46	0.9
3245.64	0.9
3254.81	0.9
3263.99	0.902
3273.17	0.903
3282.35	0.904
3291.53	0.904
3300.71	0.904
3309.88	0.904
3319.06	0.903
3328.24	0.903
3337.42	0.903
3346.6	0.903
3355.78	0.903
3364.95	0.902
3374.13	0.902
3383.31	0.902
3392.49	0.9
3401.67	0.9
3410.85	0.902
3420.02	0.902
3429.2	0.9
3438.38	0.898
3447.56	0.8966
3456.74	0.896
3465.92	0.896
3475.09	0.896
3484.27	0.896
3493.45	0.896
3502.63	0.896
3511.81	0.896
3520.99	0.898
3530.16	0.896
3539.34	0.894
3548.52	0.892
3557.7	0.892
3566.88	0.896
3576.06	0.8982
3585.23	0.896
3594.41	0.895
3603.59	0.903
3612.77	0.903
3621.95	0.9031
3631.13	0.903
3640.31	0.903
3649.48	0.902
3658.66	0.902
3667.84	0.899
3677.02	0.9
3686.2	0.899
3695.38	0.899
3704.55	0.9
3713.73	0.899
3722.91	0.899
3732.09	0.8953
3741.27	0.891
3750.45	0.894
3759.62	0.8915
3768.8	0.89
3777.98	0.8915
3787.16	0.892
3796.34	0.8954
3805.52	0.8956
3814.69	0.894
3823.87	0.8917
3833.05	0.8903
3842.23	0.892
3851.41	0.892
3860.59	0.891
3869.76	0.89
3878.94	0.887
3888.12	0.883
3897.3	0.881
3906.48	0.879
3915.66	0.878
3924.83	0.879
3934.01	0.8789
3943.19	0.8771
3952.37	0.878
