Infrared Spectrum: Ethenyl Ester-Acetic Acid
Formula: C H3 C O2 C H: C H2
CAS: 108-05-4
State: gas
Melting point: -93.2 C
Boiling point: 72.2 C
Class: IUPAC A
Instrument: IFS66V (Bruker)
Instrument parameters: KBr Beam splitter; MCT Detector; Multipass cell
Sampling: 1 L/min Flow
Resolution: 0.1250
Temperature: 23 C
Pressure: 101.3 kPa
Origin: NIST, Anayltical Chemistry Division, 301-975-3108
cm-1	(micromol/mol)-1m-1 (base 10)
574.988	1.06291e-05
583.546	1.97942e-05
592.103	3.71261e-05
600.661	2.86722e-05
609.219	3.20587e-05
617.776	3.38631e-05
626.334	4.18938e-05
634.891	4.21796e-05
643.449	4.18308e-05
652.007	2.74466e-05
660.564	1.42753e-05
669.122	6.53608e-06
677.68	4.61842e-06
686.237	6.15722e-06
694.795	9.05111e-06
703.352	1.06084e-05
711.91	1.16098e-05
720.468	1.01143e-05
729.025	7.61663e-06
737.583	6.06593e-06
746.141	5.43934e-06
754.698	6.14415e-06
763.256	7.27152e-06
771.813	9.46669e-06
780.371	9.78671e-06
788.929	9.46925e-06
797.486	8.97944e-06
806.044	9.70741e-06
814.602	1.30134e-05
823.159	1.98534e-05
831.717	3.76219e-05
840.274	7.91032e-05
848.832	0.000104127
857.39	0.000159822
865.947	0.000156462
874.505	0.000217366
883.063	0.000145927
891.62	9.42781e-05
900.178	3.62025e-05
908.735	1.46165e-05
917.293	1.56377e-05
925.851	3.42007e-05
934.408	6.99654e-05
942.966	0.000104764
951.524	0.000131742
960.081	0.000106018
968.639	0.000123232
977.196	0.000101937
985.754	9.83906e-05
994.312	6.58297e-05
1002.87	0.000109989
1011.43	0.000234973
1019.98	0.000348894
1028.54	0.000312564
1037.1	0.000171864
1045.66	7.7059e-05
1054.22	6.59691e-05
1062.77	6.04701e-05
1071.33	5.44376e-05
1079.89	4.64174e-05
1088.45	3.80587e-05
1097	3.11141e-05
1105.56	2.94699e-05
1114.12	3.30575e-05
1122.68	5.39753e-05
1131.23	0.000205093
1139.79	0.000892714
1148.35	0.000964338
1156.91	0.00077437
1165.46	7.91505e-05
1174.02	4.69651e-05
1182.58	6.55181e-05
1191.14	0.000114662
1199.69	0.00029648
1208.25	0.00104442
1216.81	0.00256844
1225.37	0.00283758
1233.93	0.00201088
1242.48	0.000390254
1251.04	0.000227631
1259.6	0.000193331
1268.16	7.31807e-05
1276.71	5.53719e-05
1285.27	0.000123515
1293.83	0.000171509
1302.39	0.000169031
1310.94	6.59066e-05
1319.5	2.16246e-05
1328.06	1.35364e-05
1336.62	1.23325e-05
1345.17	1.71408e-05
1353.73	4.25079e-05
1362.29	0.000163979
1370.85	0.000350864
1379.4	0.00044142
1387.96	0.000270834
1396.52	0.000106739
1405.08	3.63157e-05
1413.64	2.73583e-05
1422.19	3.04995e-05
1430.75	3.89694e-05
1439.31	3.71481e-05
1447.87	3.56422e-05
1456.42	2.91699e-05
1464.98	2.31931e-05
1473.54	2.04297e-05
1482.1	1.96366e-05
1490.65	1.72649e-05
1499.21	1.57748e-05
1507.77	1.46804e-05
1516.33	1.3884e-05
1524.88	1.27021e-05
1533.44	1.14867e-05
1542	1.00631e-05
1550.56	1.25435e-05
1559.11	1.61127e-05
1567.67	1.82215e-05
1576.23	1.85005e-05
1584.79	2.17186e-05
1593.35	2.2472e-05
1601.9	2.29752e-05
1610.46	2.7531e-05
1619.02	3.81466e-05
1627.58	4.69086e-05
1636.13	0.000107239
1644.69	0.000419084
1653.25	0.000555652
1661.81	0.000447411
1670.36	6.16398e-05
1678.92	2.49476e-05
1687.48	1.68104e-05
1696.04	1.37265e-05
1704.59	1.37127e-05
1713.15	1.17447e-05
1721.71	1.24378e-05
1730.27	1.99233e-05
1738.83	2.79996e-05
1747.38	6.03583e-05
1755.94	0.000145837
1764.5	0.000382378
1773.06	0.00101537
1781.61	0.00107506
1790.17	0.00148913
1798.73	0.000616034
1807.29	0.000213028
1815.84	5.49185e-05
1824.4	2.29811e-05
1832.96	2.04044e-05
1841.52	1.79926e-05
1850.07	2.16427e-05
1858.63	2.62592e-05
1867.19	2.84628e-05
1875.75	2.52856e-05
1884.3	1.72494e-05
1892.86	1.44596e-05
1901.42	1.42715e-05
1909.98	1.14189e-05
1918.54	6.60191e-06
1927.09	4.27713e-06
1935.65	4.45427e-06
1944.21	5.18348e-06
1952.77	5.23557e-06
1961.32	5.25566e-06
1969.88	4.70006e-06
1978.44	7.16155e-06
1987	1.29443e-05
1995.55	1.35747e-05
2004.11	1.06534e-05
2012.67	5.49307e-06
2021.23	5.41279e-06
2029.78	5.37178e-06
2038.34	6.22936e-06
2046.9	1.06771e-05
2055.46	2.09954e-05
2064.01	2.76979e-05
2072.57	2.63303e-05
2081.13	1.1947e-05
2089.69	6.65685e-06
2098.25	5.54433e-06
2106.8	6.09625e-06
2115.36	7.19747e-06
2123.92	7.31435e-06
2132.48	5.99444e-06
2141.03	3.86664e-06
2149.59	4.29999e-06
2158.15	4.52786e-06
2166.71	4.75114e-06
2175.26	4.40942e-06
2183.82	3.31446e-06
2192.38	2.46775e-06
2200.94	1.99345e-06
2209.49	2.42039e-06
2218.05	3.66619e-06
2226.61	4.84833e-06
2235.17	4.55053e-06
2243.72	3.62089e-06
2252.28	2.85153e-06
2260.84	2.23282e-06
2269.4	3.23102e-06
2277.96	8.11041e-06
2286.51	1.12315e-05
2295.07	1.1033e-05
2303.63	3.45133e-06
2312.19	1.17387e-06
2320.74	1.13606e-06
2329.3	1.52951e-06
2337.86	2.67091e-06
2346.42	3.40556e-06
2354.97	4.20603e-06
2363.53	3.67506e-06
2372.09	3.13645e-06
2380.65	2.40628e-06
2389.2	1.48576e-06
2397.76	1.82707e-06
2406.32	2.55339e-06
2414.88	3.70549e-06
2423.44	5.5489e-06
2431.99	8.12961e-06
2440.55	8.25212e-06
2449.11	6.48188e-06
2457.67	2.89245e-06
2466.22	1.93076e-06
2474.78	1.67705e-06
2483.34	1.58027e-06
2491.9	1.85785e-06
2500.45	1.98286e-06
2509.01	1.0978e-06
2517.57	7.33719e-07
2526.13	6.59231e-07
2534.68	4.41643e-07
2543.24	3.03913e-07
2551.8	2.30389e-07
2560.36	2.47836e-07
2568.91	3.8935e-07
2577.47	1.05288e-06
2586.03	1.75524e-06
2594.59	1.90867e-06
2603.15	1.47313e-06
2611.7	1.11598e-06
2620.26	1.69663e-06
2628.82	2.04365e-06
2637.38	2.14101e-06
2645.93	1.02449e-06
2654.49	8.62653e-07
2663.05	1.01955e-06
2671.61	1.10259e-06
2680.16	9.66785e-07
2688.72	6.32191e-07
2697.28	3.68447e-07
2705.84	3.98081e-07
2714.39	3.51753e-07
2722.95	4.7283e-07
2731.51	5.42196e-07
2740.07	1.5259e-06
2748.62	2.8838e-06
2757.18	2.66495e-06
2765.74	3.10328e-06
2774.3	1.33803e-06
2782.86	1.06236e-06
2791.41	1.38021e-06
2799.97	1.64727e-06
2808.53	9.33307e-07
2817.09	7.05057e-07
2825.64	6.77253e-07
2834.2	7.59973e-07
2842.76	1.16803e-06
2851.32	2.05661e-06
2859.87	2.31786e-06
2868.43	2.32341e-06
2876.99	1.53109e-06
2885.55	1.16455e-06
2894.1	1.13654e-06
2902.66	1.16668e-06
2911.22	1.2614e-06
2919.78	1.38328e-06
2928.34	2.32757e-06
2936.89	4.60209e-06
2945.45	9.55517e-06
2954.01	1.08108e-05
2962.57	1.24292e-05
2971.12	9.26331e-06
2979.68	9.00231e-06
2988.24	9.99581e-06
2996.8	1.21555e-05
3005.35	1.13784e-05
3013.91	1.15527e-05
3022.47	1.37435e-05
3031.03	1.70538e-05
3039.58	1.88403e-05
3048.14	2.05791e-05
3056.7	2.21596e-05
3065.26	2.34674e-05
3073.81	1.88036e-05
3082.37	1.74295e-05
3090.93	3.45887e-05
3099.49	4.16321e-05
3108.05	4.80289e-05
3116.6	1.90627e-05
3125.16	2.64073e-05
3133.72	2.04726e-05
3142.28	1.85375e-05
3150.83	5.64495e-06
3159.39	2.60288e-06
3167.95	1.72582e-06
3176.51	1.23117e-06
3185.06	1.04464e-06
3193.62	9.76891e-07
3202.18	8.01247e-07
3210.74	6.58831e-07
3219.29	4.46427e-07
3227.85	2.64846e-07
3236.41	5.04781e-08
3244.97	6.38907e-08
3253.52	6.59315e-08
3262.08	-5.66005e-08
3270.64	-4.64111e-08
3279.2	-1.29025e-07
3287.76	1.10851e-07
3296.31	3.51739e-08
3304.87	-8.08865e-08
3313.43	-3.71092e-07
3321.99	-5.29573e-07
3330.54	-2.34151e-07
3339.1	-5.81539e-08
3347.66	-2.20087e-08
3356.22	2.21033e-08
3364.77	-2.57833e-07
3373.33	-1.01109e-07
3381.89	-4.09216e-08
3390.45	-8.3222e-08
3399	-1.30437e-07
3407.56	-1.37763e-07
3416.12	-2.75367e-07
3424.68	-7.86492e-08
3433.23	8.43533e-08
3441.79	-5.59093e-08
3450.35	-1.25279e-07
3458.91	1.55585e-07
3467.47	8.5059e-08
3476.02	3.2722e-08
3484.58	-1.49484e-07
3493.14	-1.09825e-07
3501.7	-1.41248e-07
3510.25	2.91184e-07
3518.81	1.2724e-06
3527.37	4.10815e-06
3535.93	1.10501e-05
3544.48	1.47981e-05
3553.04	1.67875e-05
3561.6	8.72452e-06
3570.16	2.6232e-06
3578.71	4.02919e-07
3587.27	-1.90566e-07
3595.83	-2.51608e-07
3604.39	-4.58508e-07
3612.95	-5.35306e-07
3621.5	-5.82405e-07
3630.06	-5.3018e-07
3638.62	-5.12435e-07
3647.18	-6.73313e-07
3655.73	-3.75708e-07
3664.29	-3.15939e-07
3672.85	-4.00165e-07
3681.41	-3.84155e-07
3689.96	-4.34743e-07
3698.52	-5.20045e-07
3707.08	-3.62765e-07
3715.64	-4.58188e-07
3724.19	-4.10446e-07
3732.75	-4.05531e-07
3741.31	-6.5766e-07
3749.87	-7.38302e-07
3758.42	-4.33935e-07
3766.98	-3.07394e-07
3775.54	-2.99482e-07
3784.1	-4.47486e-07
3792.66	-3.35278e-07
3801.21	-9.38098e-07
3809.77	-3.4657e-07
3818.33	-4.44747e-07
3826.89	-5.18994e-07
3835.44	-2.23084e-07
3844	-3.40716e-07
3852.56	-4.53648e-07
3861.12	-2.01298e-07
3869.67	-4.05407e-07
3878.23	-1.15784e-07
3886.79	-1.66517e-07
3895.35	-2.89751e-08
3903.9	9.41608e-08
3912.46	1.80362e-07
3921.02	2.12448e-08
3929.58	1.20589e-07
3938.13	1.15075e-07
3946.69	2.48283e-07
3955.25	2.60015e-07
3963.81	6.37215e-07
3972.37	1.15754e-06
