Infrared Spectrum: 1,3-Dimethylbenzene
Formula: 1,3-( C H3)2 C6 H4
CAS: 108-38-3
State: gas
Melting point: -47.87 C
Boiling point: 139.1 C
Class: IUPAC A
Instrument: IFS66V (Bruker)
Instrument parameters: KBr Beam Splitter; MCT Detector; Multipass cell
Sampling: 1 L/min Flow
Resolution: 1.9290
Temperature: 23 C
Pressure: 101.3 Pa
Origin: NIST, Analytical Chemistry Division, 301-975-3108
cm-1	(micromol/mol)-1m-1 (base 10)
575.652	-3.0904e-07
584.33	-4.75472e-07
593.008	-5.12213e-07
601.687	-5.74616e-07
610.365	-6.56571e-07
619.043	-4.04852e-07
627.721	-2.16264e-07
636.399	-4.63619e-07
645.077	-1.34178e-07
653.756	9.58629e-07
662.434	2.45154e-06
671.112	1.17011e-05
679.79	4.39398e-05
688.468	9.17896e-05
697.147	6.2466e-05
705.825	3.02282e-05
714.503	4.62467e-06
723.181	1.38541e-06
731.859	1.57688e-06
740.537	4.60122e-06
749.216	3.85979e-05
757.894	0.000138821
766.572	0.000370234
775.25	0.000166782
783.928	6.85481e-05
792.607	7.47747e-06
801.285	1.63901e-06
809.963	8.99603e-07
818.641	5.33954e-07
827.319	4.96027e-07
835.997	4.45549e-07
844.676	6.32734e-07
853.354	1.71866e-06
862.032	8.45456e-06
870.71	1.46028e-05
879.388	1.32786e-05
888.066	1.08111e-05
896.745	1.34118e-05
905.423	1.75379e-05
914.101	1.07214e-05
922.779	1.22057e-06
931.457	1.4221e-06
940.136	2.11413e-06
948.814	2.5899e-06
957.492	3.15373e-06
966.17	4.03781e-06
974.848	4.92915e-06
983.526	4.37965e-06
992.205	5.39895e-06
1000.88	8.50825e-06
1009.56	9.84909e-06
1018.24	7.1553e-06
1026.92	6.35995e-06
1035.6	1.1882e-05
1044.27	2.38726e-05
1052.95	1.92206e-05
1061.63	1.34042e-05
1070.31	8.5721e-06
1078.99	9.39452e-06
1087.66	2.18487e-05
1096.34	1.99335e-05
1105.02	1.65675e-05
1113.7	5.9501e-06
1122.38	4.63638e-06
1131.06	4.26185e-06
1139.73	2.75908e-06
1148.41	2.84672e-06
1157.09	4.25191e-06
1165.77	9.15355e-06
1174.45	6.80191e-06
1183.12	3.27397e-06
1191.8	2.24883e-06
1200.48	1.95251e-06
1209.16	1.34184e-06
1217.84	1.12989e-06
1226.52	1.128e-06
1235.19	1.59535e-06
1243.87	3.06392e-06
1252.55	3.16819e-06
1261.23	3.4482e-06
1269.91	2.81442e-06
1278.58	1.94512e-06
1287.26	1.56043e-06
1295.94	1.87648e-06
1304.62	1.94883e-06
1313.3	2.17397e-06
1321.98	2.11015e-06
1330.65	2.39321e-06
1339.33	2.73675e-06
1348.01	3.99682e-06
1356.69	6.30867e-06
1365.37	9.76071e-06
1374.04	1.90473e-05
1382.72	2.90215e-05
1391.4	2.79208e-05
1400.08	1.88771e-05
1408.76	1.60023e-05
1417.44	1.74192e-05
1426.11	1.88781e-05
1434.79	2.79397e-05
1443.47	3.99124e-05
1452.15	4.66031e-05
1460.83	4.18894e-05
1469.5	4.95272e-05
1478.18	6.02049e-05
1486.86	8.63395e-05
1495.54	0.000107166
1504.22	0.000101891
1512.9	6.63147e-05
1521.57	4.95327e-05
1530.25	4.70266e-05
1538.93	4.0049e-05
1547.61	2.46658e-05
1556.29	1.74467e-05
1564.96	1.60081e-05
1573.64	1.76268e-05
1582.32	1.97185e-05
1591	3.35718e-05
1599.68	5.21011e-05
1608.36	0.000109535
1617.03	0.000141112
1625.71	0.000100086
1634.39	9.58971e-06
1643.07	4.9598e-06
1651.75	6.21294e-06
1660.42	5.14105e-06
1669.1	1.60412e-06
1677.78	7.45805e-07
1686.46	5.39246e-07
1695.14	5.9899e-07
1703.82	1.18472e-06
1712.49	1.37448e-06
1721.17	1.21316e-06
1729.85	3.03737e-06
1738.53	7.44466e-06
1747.21	6.61889e-06
1755.88	7.10797e-06
1764.56	6.49328e-06
1773.24	7.28218e-06
1781.92	6.42833e-06
1790.6	1.68229e-06
1799.28	9.24337e-07
1807.95	1.78348e-06
1816.63	2.1653e-06
1825.31	1.83922e-06
1833.99	3.48983e-06
1842.67	6.3363e-06
1851.34	1.21114e-05
1860.02	1.05125e-05
1868.7	1.65701e-06
1877.38	1.12982e-06
1886.06	1.00202e-06
1894.74	1.18719e-06
1903.41	1.74205e-06
1912.09	3.22525e-06
1920.77	6.36487e-06
1929.45	1.19926e-05
1938.13	1.14266e-05
1946.8	3.28042e-06
1955.48	3.74229e-07
1964.16	1.16624e-07
1972.84	1.21094e-07
1981.52	2.1886e-08
1990.2	-1.19234e-08
1998.87	1.81025e-08
2007.55	-1.13234e-07
2016.23	-6.8471e-08
2024.91	-2.98113e-08
2033.59	-1.67815e-07
2042.26	-3.63796e-07
2050.94	-4.65831e-07
2059.62	-3.99222e-07
2068.3	-1.38132e-07
2076.98	-7.66436e-08
2085.66	1.16897e-08
2094.33	-5.36181e-08
2103.01	3.8937e-07
2111.69	6.76024e-07
2120.37	-1.93126e-07
2129.05	-3.31911e-07
2137.72	-2.21666e-07
2146.4	6.51822e-08
2155.08	1.08172e-07
2163.76	-1.65217e-07
2172.44	-2.35058e-08
2181.12	-2.32683e-07
2189.79	-1.37705e-07
2198.47	-2.51265e-07
2207.15	-7.90338e-08
2215.83	6.72213e-08
2224.51	-2.36304e-08
2233.18	-1.98817e-07
2241.86	-1.48529e-07
2250.54	-5.85493e-08
2259.22	4.16225e-07
2267.9	6.47129e-07
2276.58	9.36908e-07
2285.25	1.4016e-06
2293.93	1.72357e-06
2302.61	5.92177e-07
2311.29	5.00682e-07
2319.97	9.28751e-07
2328.64	1.29811e-06
2337.32	1.97872e-06
2346	1.65319e-06
2354.68	1.4464e-06
2363.36	1.25545e-06
2372.04	8.12479e-07
2380.71	6.86022e-07
2389.39	1.23754e-06
2398.07	1.29753e-06
2406.75	1.38339e-06
2415.43	1.8363e-06
2424.1	1.90959e-06
2432.78	1.58639e-06
2441.46	1.40143e-06
2450.14	1.36687e-06
2458.82	1.32384e-06
2467.5	1.40481e-06
2476.17	1.27301e-06
2484.85	1.30704e-06
2493.53	1.19597e-06
2502.21	1.0852e-06
2510.89	7.07477e-07
2519.56	3.98702e-07
2528.24	3.87194e-07
2536.92	1.11909e-06
2545.6	1.28032e-06
2554.28	4.83828e-07
2562.96	4.0424e-07
2571.63	2.97775e-07
2580.31	1.39057e-07
2588.99	4.08441e-07
2597.67	5.8159e-07
2606.35	5.52152e-07
2615.02	6.75659e-07
2623.7	8.86633e-07
2632.38	8.42027e-07
2641.06	8.29947e-07
2649.74	6.36919e-07
2658.42	3.52004e-07
2667.09	1.7468e-07
2675.77	1.00079e-07
2684.45	1.38779e-08
2693.13	2.06763e-07
2701.81	3.8252e-07
2710.48	8.43878e-07
2719.16	1.50043e-06
2727.84	3.27487e-06
2736.52	1.1455e-05
2745.2	1.27401e-05
2753.88	6.62319e-06
2762.55	2.47429e-06
2771.23	1.83413e-06
2779.91	1.79616e-06
2788.59	2.11931e-06
2797.27	2.83311e-06
2805.94	3.71749e-06
2814.62	5.10644e-06
2823.3	7.30105e-06
2831.98	9.83332e-06
2840.66	1.3628e-05
2849.34	2.22722e-05
2858.01	4.31948e-05
2866.69	8.46345e-05
2875.37	0.0001191
2884.05	0.000116899
2892.73	9.37885e-05
2901.4	9.5035e-05
2910.08	0.000112402
2918.76	0.000150513
2927.44	0.000220809
2936.12	0.000257879
2944.8	0.000226943
2953.47	0.000137174
2962.15	9.636e-05
2970.83	6.92709e-05
2979.51	7.43311e-05
2988.19	8.9163e-05
2996.86	0.00010996
3005.54	0.000137839
3014.22	0.000176869
3022.9	0.000219791
3031.58	0.000240608
3040.26	0.000209271
3048.93	0.000166987
3057.61	0.000133128
3066.29	0.000119424
3074.97	8.11603e-05
3083.65	4.03612e-05
3092.32	2.84792e-05
3101	2.34839e-05
3109.68	2.1185e-05
3118.36	1.8157e-05
3127.04	1.22658e-05
3135.72	4.66516e-06
3144.39	1.96581e-06
3153.07	1.13672e-06
3161.75	8.82161e-07
3170.43	6.1013e-07
3179.11	6.40856e-07
3187.78	5.5926e-07
3196.46	4.85903e-07
3205.14	3.10283e-07
3213.82	3.56837e-07
3222.5	-1.55568e-07
3231.18	-2.63818e-07
3239.85	-3.85563e-07
3248.53	-2.77629e-07
3257.21	2.08059e-07
3265.89	3.2652e-07
3274.57	2.04937e-07
3283.24	-7.70474e-08
3291.92	6.47648e-09
3300.6	5.70487e-08
3309.28	-3.91008e-08
3317.96	-7.89619e-08
3326.64	-8.62806e-08
3335.31	-7.042e-08
3343.99	-5.25358e-08
3352.67	-9.69944e-08
3361.35	-1.10737e-07
3370.03	-9.09026e-08
3378.7	1.10448e-07
3387.38	2.06693e-07
3396.06	5.93802e-07
3404.74	4.15461e-07
3413.42	3.35215e-07
3422.1	5.03113e-07
3430.77	4.37509e-07
3439.45	3.20157e-07
3448.13	4.21747e-07
3456.81	3.61066e-07
3465.49	3.53465e-07
3474.16	2.11778e-07
3482.84	7.12576e-08
3491.52	-1.85167e-07
3500.2	-2.65677e-07
3508.88	-2.77092e-07
3517.56	-2.00562e-07
3526.23	-2.05665e-07
3534.91	-9.89889e-08
3543.59	1.47901e-07
3552.27	4.41105e-07
3560.95	3.82511e-07
3569.62	1.61742e-07
3578.3	1.04043e-07
3586.98	-1.52048e-07
3595.66	-1.65228e-07
3604.34	-3.55483e-07
3613.02	-3.33784e-07
3621.69	-2.59276e-07
3630.37	-3.2258e-07
3639.05	-3.21176e-07
3647.73	-3.55174e-07
3656.41	-3.84561e-07
3665.08	-2.91417e-07
3673.76	-2.84358e-07
3682.44	-2.08217e-07
3691.12	-3.14789e-07
3699.8	-1.53267e-07
3708.48	-2.20989e-07
3717.15	-1.11776e-07
3725.83	5.48186e-08
3734.51	2.43571e-07
3743.19	4.00076e-07
3751.87	2.08664e-07
3760.54	5.32213e-07
3769.22	7.0326e-07
3777.9	7.23043e-07
3786.58	5.91525e-07
3795.26	4.02573e-07
3803.94	2.01848e-07
3812.61	6.24901e-08
3821.29	9.09163e-08
3829.97	4.71659e-07
3838.65	2.82745e-07
3847.33	5.13666e-07
3856	3.36368e-07
3864.68	1.9818e-07
3873.36	4.65713e-07
3882.04	7.77739e-07
3890.72	8.13832e-07
3899.4	1.08718e-06
3908.07	1.54917e-06
3916.75	1.79371e-06
3925.43	1.71838e-06
3934.11	1.3957e-06
3942.79	1.42611e-06
3951.46	1.3928e-06
3960.14	1.4206e-06
3968.82	1.52595e-06
