Infrared Spectrum: BENZENE, 1,3-DIMETHYL-
Formula: C8 H10
CAS: 108-38-3
State: VAPOR (30 mmHg, N2 ADDED, TOTAL PRESSURE 600 mmHg)
Boiling point: 139 C
Class: COBLENTZ
Instrument: PERKIN-ELMER 180
Sampling: TRANSMISSION
Path length: 7 CM
Resolution: 2 CM^-^1
Origin: DOW CHEMICAL COMPANY
1/CM	TRANSMITTANCE
255.25	0.008
265.428	0.001
275.605	0.001
285.783	0.001
295.961	0.001
306.138	0.001
316.316	0.002
326.494	0.001
336.672	0.01
346.849	0.037
357.027	0.081
367.205	0.1309
377.382	0.211
387.56	0.292
397.738	0.365
407.915	0.454
418.093	0.502
428.271	0.5021
438.449	0.631
448.626	0.72
458.804	0.802
468.982	0.845
479.159	0.885
489.337	0.912
499.515	0.938
509.692	0.906
519.87	0.914
530.048	0.943
540.226	0.959
550.403	0.972
560.581	0.981
570.759	0.981
580.936	0.988
591.114	0.989
601.292	0.992
611.469	0.991
621.647	0.981
631.825	0.985
642.002	0.985
652.18	0.983
662.358	0.981
672.536	0.8991
682.713	0.764
692.891	0.525
703.069	0.7299
713.246	0.8859
723.424	0.966
733.602	0.979
743.779	0.9341
753.957	0.6053
764.135	0.27
774.313	0.3267
784.49	0.6117
794.668	0.8919
804.846	0.951
815.023	0.963
825.201	0.97
835.379	0.967
845.556	0.962
855.734	0.943
865.912	0.906
876.089	0.847
886.267	0.905
896.445	0.892
906.623	0.882
916.8	0.902
926.978	0.95
937.156	0.944
947.333	0.933
957.511	0.924
967.689	0.914
977.866	0.909
988.044	0.901
998.222	0.876
1008.4	0.852
1018.58	0.863
1028.75	0.85
1038.93	0.8191
1049.11	0.807
1059.29	0.819
1069.47	0.844
1079.64	0.835
1089.82	0.79
1100	0.804
1110.18	0.838
1120.35	0.876
1130.53	0.879
1140.71	0.89
1150.89	0.906
1161.06	0.893
1171.24	0.892
1181.42	0.895
1191.6	0.927
1201.78	0.933
1211.95	0.941
1222.13	0.941
1232.31	0.931
1242.49	0.919
1252.66	0.917
1262.84	0.918
1273.02	0.917
1283.2	0.937
1293.38	0.933
1303.55	0.921
1313.73	0.903
1323.91	0.901
1334.09	0.892
1344.26	0.879
1354.44	0.868
1364.62	0.851
1374.8	0.788
1384.97	0.719
1395.15	0.764
1405.33	0.788
1415.51	0.8
1425.69	0.81
1435.86	0.765
1446.04	0.723
1456.22	0.73
1466.4	0.701
1476.57	0.622
1486.75	0.542
1496.93	0.534
1507.11	0.614
1517.28	0.675
1527.46	0.684
1537.64	0.672
1547.82	0.676
1558	0.701
1568.17	0.682
1578.35	0.672
1588.53	0.6211
1598.71	0.4941
1608.88	0.416
1619.06	0.5248
1629.24	0.8827
1639.42	0.912
1649.59	0.912
1659.77	0.919
1669.95	0.933
1680.13	0.935
1690.31	0.949
1700.48	0.959
1710.66	0.96
1720.84	0.96
1731.02	0.934
1741.19	0.94
1751.37	0.938
1761.55	0.943
1771.73	0.949
1781.9	0.957
1792.08	0.975
1802.26	0.975
1812.44	0.973
1822.62	0.973
1832.79	0.96
1842.97	0.928
1853.15	0.933
1863.33	0.957
1873.5	0.976
1883.68	0.978
1893.86	0.973
1904.04	0.965
1914.21	0.951
1924.39	0.924
1934.57	0.933
1944.75	0.96
1954.93	0.969
1965.1	0.979
1975.28	0.982
1985.46	0.981
1995.64	0.981
2005.81	0.979
2015.99	0.978
2026.17	0.9731
2036.35	0.9739
2046.52	0.976
2056.7	0.978
2066.88	0.9793
2077.06	0.9743
2087.24	0.972
2097.41	0.9706
2107.59	0.972
2117.77	0.97
2127.95	0.97
2138.12	0.97
2148.3	0.969
2158.48	0.967
2168.66	0.969
2178.83	0.9722
2189.01	0.9731
2199.19	0.97
2209.37	0.9678
2219.55	0.966
2229.72	0.9681
2239.9	0.969
2250.08	0.963
2260.26	0.962
2270.43	0.96
2280.61	0.9532
2290.79	0.953
2300.97	0.956
2311.14	0.956
2321.32	0.9503
2331.5	0.9496
2341.68	0.9498
2351.86	0.95
2362.03	0.9502
2372.21	0.9507
2382.39	0.95
2392.57	0.9497
2402.74	0.9463
2412.92	0.9438
2423.1	0.943
2433.28	0.943
2443.45	0.943
2453.63	0.943
2463.81	0.943
2473.99	0.9461
2484.17	0.947
2494.34	0.949
2504.52	0.9495
2514.7	0.95
2524.88	0.9445
2535.05	0.94
2545.23	0.946
2555.41	0.947
2565.59	0.9494
2575.76	0.9491
2585.94	0.947
2596.12	0.944
2606.3	0.943
2616.48	0.941
2626.65	0.941
2636.83	0.943
2647.01	0.943
2657.19	0.943
2667.36	0.943
2677.54	0.9416
2687.72	0.94
2697.9	0.9387
2708.07	0.9327
2718.25	0.9242
2728.43	0.8982
2738.61	0.8682
2748.79	0.8872
2758.96	0.9192
2769.14	0.924
2779.32	0.922
2789.5	0.919
2799.67	0.9086
2809.85	0.901
2820.03	0.8768
2830.21	0.8601
2840.38	0.7899
2850.56	0.6913
2860.74	0.506
2870.92	0.45
2881.1	0.4823
2891.27	0.5017
2901.45	0.4299
2911.63	0.3422
2921.81	0.241
2931.98	0.2145
2942.16	0.3474
2952.34	0.4849
2962.52	0.6058
2972.69	0.5871
2982.87	0.5534
2993.05	0.4547
3003.23	0.3285
3013.41	0.2811
3023.58	0.212
3033.76	0.2448
3043.94	0.3333
3054.12	0.4295
3064.29	0.4707
3074.47	0.6048
3084.65	0.7263
3094.83	0.7734
3105.01	0.7924
3115.18	0.8166
3125.36	0.8585
3135.54	0.8874
3145.72	0.9083
3155.89	0.911
3166.07	0.9116
3176.25	0.911
3186.43	0.912
3196.6	0.909
3206.78	0.9117
3216.96	0.912
3227.14	0.9177
3237.32	0.918
3247.49	0.9144
3257.67	0.912
3267.85	0.914
3278.03	0.912
3288.2	0.918
3298.38	0.9169
3308.56	0.9175
3318.74	0.917
3328.91	0.9175
3339.09	0.919
3349.27	0.9176
3359.45	0.917
3369.63	0.9146
3379.8	0.914
3389.98	0.914
3400.16	0.912
3410.34	0.911
3420.51	0.9118
3430.69	0.911
3440.87	0.911
3451.05	0.912
3461.22	0.911
3471.4	0.9144
3481.58	0.909
3491.76	0.9145
3501.94	0.9143
3512.11	0.9153
3522.29	0.9131
3532.47	0.9108
3542.65	0.9054
3552.82	0.906
3563	0.909
3573.18	0.909
3583.36	0.909
3593.53	0.906
3603.71	0.9069
3613.89	0.909
3624.07	0.9068
3634.25	0.909
3644.42	0.9068
3654.6	0.9089
3664.78	0.9073
3674.96	0.9088
3685.13	0.9041
3695.31	0.9028
3705.49	0.905
3715.67	0.9023
3725.84	0.899
3736.02	0.9009
3746.2	0.898
3756.38	0.899
3766.56	0.899
3776.73	0.899
3786.91	0.9021
3797.09	0.902
3807.27	0.899
3817.44	0.899
3827.62	0.899
3837.8	0.897
3847.98	0.898
3858.15	0.896
3868.33	0.895
3878.51	0.895
3888.69	0.892
3898.87	0.8912
3909.04	0.889
3919.22	0.8883
3929.4	0.8869
3939.58	0.889
3949.75	0.8866
3959.93	0.8897
3970.11	0.887
3980.29	0.8898
3990.46	0.889
4000.64	0.889
4010.82	0.8876
