Infrared Spectrum: Ethenyl Ester-Acetic Acid
Formula: C H3 C O2 C H: C H2
CAS: 108-05-4
State: gas
Melting point: -93.2 C
Boiling point: 72.2 C
Class: IUPAC A
Instrument: IFS66V (Bruker)
Instrument parameters: KBr Beam splitter; MCT Detector; Multipass cell
Sampling: 1 L/min Flow
Resolution: 1.9290
Temperature: 23 C
Pressure: 101.3 kPa
Origin: NIST, Anayltical Chemistry Division, 301-975-3108
cm-1	(micromol/mol)-1m-1 (base 10)
574.687	1.06251e-05
583.365	1.91108e-05
592.043	3.65546e-05
600.721	2.8778e-05
609.4	3.2525e-05
618.078	3.41845e-05
626.756	4.19916e-05
635.434	4.22231e-05
644.112	4.11466e-05
652.79	2.57548e-05
661.469	1.32808e-05
670.147	6.03034e-06
678.825	4.76602e-06
687.503	6.59739e-06
696.181	9.51026e-06
704.859	1.07257e-05
713.537	1.20593e-05
722.216	9.14193e-06
730.894	7.20618e-06
739.572	5.86988e-06
748.25	5.67224e-06
756.928	6.32968e-06
765.606	7.75195e-06
774.285	9.728e-06
782.963	9.63084e-06
791.641	9.09957e-06
800.319	9.0706e-06
808.997	1.04653e-05
817.675	1.50421e-05
826.353	2.47468e-05
835.032	5.10963e-05
843.71	8.85188e-05
852.388	0.000129963
861.066	0.00015581
869.744	0.000247047
878.422	0.000162967
887.101	0.000126832
895.779	6.23406e-05
904.457	2.17061e-05
913.135	1.30742e-05
921.813	2.28527e-05
930.491	5.32323e-05
939.169	8.66024e-05
947.848	0.000125627
956.526	0.000154857
965.204	0.000113984
973.882	0.000109
982.56	0.000103243
991.238	6.78836e-05
999.917	8.80094e-05
1008.59	0.00018289
1017.27	0.000336728
1025.95	0.00034331
1034.63	0.000235669
1043.31	8.7754e-05
1051.99	6.87604e-05
1060.66	6.13368e-05
1069.34	5.60618e-05
1078.02	4.82073e-05
1086.7	3.96551e-05
1095.38	3.22023e-05
1104.05	2.9263e-05
1112.73	3.2019e-05
1121.41	4.87968e-05
1130.09	0.000161924
1138.77	0.000817048
1147.45	0.0009184
1156.12	0.000854002
1164.8	9.57055e-05
1173.48	4.69525e-05
1182.16	6.40021e-05
1190.84	0.00011272
1199.51	0.000292192
1208.19	0.00104088
1216.87	0.00256318
1225.55	0.00274338
1234.23	0.00191245
1242.9	0.000378307
1251.58	0.000227932
1260.26	0.000184731
1268.94	6.89705e-05
1277.62	5.75027e-05
1286.3	0.000137381
1294.97	0.000172331
1303.65	0.000161345
1312.33	5.30274e-05
1321.01	1.93564e-05
1329.69	1.30018e-05
1338.36	1.26893e-05
1347.04	2.00932e-05
1355.72	5.73419e-05
1364.4	0.00022145
1373.08	0.000380845
1381.76	0.000439691
1390.43	0.000206939
1399.11	7.65549e-05
1407.79	3.0408e-05
1416.47	2.82381e-05
1425.15	3.22136e-05
1433.82	4.01037e-05
1442.5	3.56472e-05
1451.18	3.37766e-05
1459.86	2.73201e-05
1468.54	2.2718e-05
1477.22	2.07885e-05
1485.89	1.86061e-05
1494.57	1.64328e-05
1503.25	1.53257e-05
1511.93	1.44487e-05
1520.61	1.3139e-05
1529.28	1.21153e-05
1537.96	1.08515e-05
1546.64	1.14728e-05
1555.32	1.44692e-05
1564	1.76105e-05
1572.67	1.96236e-05
1581.35	2.16199e-05
1590.03	2.22543e-05
1598.71	2.26637e-05
1607.39	2.54134e-05
1616.07	3.37101e-05
1624.74	4.41906e-05
1633.42	7.40062e-05
1642.1	0.000303383
1650.78	0.000417427
1659.46	0.000523903
1668.13	0.0001011
1676.81	2.96542e-05
1685.49	1.72898e-05
1694.17	1.61315e-05
1702.85	1.42057e-05
1711.53	1.24416e-05
1720.2	1.21607e-05
1728.88	1.82304e-05
1737.56	2.72001e-05
1746.24	5.44347e-05
1754.92	0.000129831
1763.59	0.000347679
1772.27	0.000935484
1780.95	0.0011408
1789.63	0.00145244
1798.31	0.000655099
1806.98	0.000222917
1815.66	5.72146e-05
1824.34	2.30666e-05
1833.02	2.03e-05
1841.7	1.81037e-05
1850.38	2.1796e-05
1859.05	2.65424e-05
1867.73	2.82716e-05
1876.41	2.50772e-05
1885.09	1.6677e-05
1893.77	1.44993e-05
1902.44	1.38149e-05
1911.12	1.04546e-05
1919.8	5.92333e-06
1928.48	4.26456e-06
1937.16	4.63279e-06
1945.84	5.1828e-06
1954.51	5.38458e-06
1963.19	5.03186e-06
1971.87	4.92915e-06
1980.55	8.62711e-06
1989.23	1.3044e-05
1997.9	1.37256e-05
2006.58	7.86256e-06
2015.26	5.3479e-06
2023.94	5.27229e-06
2032.62	5.45513e-06
2041.3	7.16628e-06
2049.97	1.38127e-05
2058.65	2.4821e-05
2067.33	2.81257e-05
2076.01	2.10329e-05
2084.69	8.66124e-06
2093.36	6.01715e-06
2102.04	5.59691e-06
2110.72	6.66832e-06
2119.4	7.07852e-06
2128.08	7.21059e-06
2136.75	4.29285e-06
2145.43	4.10307e-06
2154.11	4.41496e-06
2162.79	4.82658e-06
2171.47	4.61676e-06
2180.15	3.93137e-06
2188.82	2.57058e-06
2197.5	2.13872e-06
2206.18	2.16312e-06
2214.86	3.21273e-06
2223.54	4.42439e-06
2232.21	4.78301e-06
2240.89	3.91867e-06
2249.57	3.02627e-06
2258.25	2.2968e-06
2266.93	2.69436e-06
2275.61	6.32724e-06
2284.28	1.12355e-05
2292.96	1.13226e-05
2301.64	5.43383e-06
2310.32	1.31602e-06
2319	1.15042e-06
2327.67	1.43133e-06
2336.35	2.40246e-06
2345.03	3.34014e-06
2353.71	4.15784e-06
2362.39	3.79164e-06
2371.06	3.20667e-06
2379.74	2.48622e-06
2388.42	1.53536e-06
2397.1	1.8259e-06
2405.78	2.51173e-06
2414.46	3.5905e-06
2423.13	5.45854e-06
2431.81	8.10417e-06
2440.49	8.24162e-06
2449.17	6.47648e-06
2457.85	2.88186e-06
2466.52	1.91298e-06
2475.2	1.63717e-06
2483.88	1.61053e-06
2492.56	1.86527e-06
2501.24	1.90378e-06
2509.92	9.99737e-07
2518.59	7.52112e-07
2527.27	5.8832e-07
2535.95	3.81412e-07
2544.63	2.86859e-07
2553.31	2.53085e-07
2561.98	2.56268e-07
2570.66	5.47067e-07
2579.34	1.2829e-06
2588.02	1.9426e-06
2596.7	1.84103e-06
2605.38	1.3618e-06
2614.05	1.15838e-06
2622.73	1.88311e-06
2631.41	2.11017e-06
2640.09	1.84451e-06
2648.77	9.12833e-07
2657.44	9.15845e-07
2666.12	1.13204e-06
2674.8	1.14487e-06
2683.48	8.69663e-07
2692.16	4.94464e-07
2700.83	3.69131e-07
2709.51	3.93814e-07
2718.19	4.17045e-07
2726.87	5.12271e-07
2735.55	9.31251e-07
2744.23	2.13227e-06
2752.9	3.04287e-06
2761.58	3.18233e-06
2770.26	1.99224e-06
2778.94	1.05759e-06
2787.62	1.31388e-06
2796.29	1.49531e-06
2804.97	1.3469e-06
2813.65	6.9924e-07
2822.33	6.65037e-07
2831.01	7.74178e-07
2839.69	1.01416e-06
2848.36	1.78261e-06
2857.04	2.31188e-06
2865.72	2.38787e-06
2874.4	1.77251e-06
2883.08	1.29502e-06
2891.75	1.13425e-06
2900.43	1.16417e-06
2909.11	1.20309e-06
2917.79	1.40391e-06
2926.47	2.0605e-06
2935.14	3.93172e-06
2943.82	8.58671e-06
2952.5	1.06636e-05
2961.18	1.25096e-05
2969.86	9.55716e-06
2978.54	8.94823e-06
2987.21	9.82532e-06
2995.89	1.23265e-05
3004.57	1.1423e-05
3013.25	1.151e-05
3021.93	1.34258e-05
3030.6	1.69651e-05
3039.28	1.87296e-05
3047.96	2.05372e-05
3056.64	2.21938e-05
3065.32	2.33534e-05
3074	1.85909e-05
3082.67	1.77074e-05
3091.35	3.597e-05
3100.03	4.2435e-05
3108.71	4.73514e-05
3117.39	1.86304e-05
3126.06	2.58209e-05
3134.74	2.20529e-05
3143.42	1.57697e-05
3152.1	4.98559e-06
3160.78	2.44222e-06
3169.46	1.51159e-06
3178.13	1.1533e-06
3186.81	9.94185e-07
3195.49	1.03706e-06
3204.17	7.92149e-07
3212.85	5.95035e-07
3221.52	4.21563e-07
3230.2	2.30371e-07
3238.88	1.0216e-07
3247.56	7.20284e-09
3256.24	3.2511e-08
3264.91	-1.59663e-08
3273.59	-7.87875e-08
3282.27	-9.33678e-08
3290.95	2.18959e-08
3299.63	6.36761e-08
3308.31	-1.74138e-07
3316.98	-5.08048e-07
3325.66	-4.46398e-07
3334.34	-1.77452e-07
3343.02	-1.01677e-08
3351.7	-5.59494e-09
3360.37	-1.40994e-07
3369.05	-1.45912e-07
3377.73	-7.13263e-08
3386.41	-2.46279e-08
3395.09	-1.86765e-08
3403.77	-1.239e-07
3412.44	-1.50536e-07
3421.12	-1.03139e-07
3429.8	-3.89499e-08
3438.48	-3.09322e-08
3447.16	6.96093e-08
3455.83	2.27533e-07
3464.51	1.67786e-07
3473.19	1.79755e-07
3481.87	-5.88232e-08
3490.55	-1.63112e-07
3499.22	-7.35345e-08
3507.9	1.59303e-07
3516.58	1.00889e-06
3525.26	3.26809e-06
3533.94	9.04758e-06
3542.62	1.53914e-05
3551.29	1.48283e-05
3559.97	1.08791e-05
3568.65	3.28945e-06
3577.33	4.57221e-07
3586.01	-2.82079e-07
3594.68	-3.99892e-07
3603.36	-5.28267e-07
3612.04	-6.52545e-07
3620.72	-6.36662e-07
3629.4	-8.15529e-07
3638.08	-4.58745e-07
3646.75	-4.96421e-07
3655.43	-5.18583e-07
3664.11	-3.535e-07
3672.79	-4.4415e-07
3681.47	-4.13229e-07
3690.14	-6.15912e-07
3698.82	-4.71128e-07
3707.5	-4.73012e-07
3716.18	-4.40676e-07
3724.86	-4.46889e-07
3733.54	-5.60527e-07
3742.21	-5.0254e-07
3750.89	-7.31191e-07
3759.57	-5.25477e-07
3768.25	-4.38355e-07
3776.93	-4.21064e-07
3785.6	-4.54729e-07
3794.28	-4.19049e-07
3802.96	-5.28507e-07
3811.64	-3.63445e-07
3820.32	-5.13083e-07
3828.99	-3.06954e-07
3837.67	-6.44334e-07
3846.35	-2.50801e-07
3855.03	-6.82528e-07
3863.71	-2.94618e-07
3872.39	-2.03757e-07
3881.06	-2.02374e-07
3889.74	-8.42514e-08
3898.42	-1.12688e-07
3907.1	6.25956e-08
3915.78	9.26511e-08
3924.45	1.0714e-07
3933.13	1.1331e-07
3941.81	1.41085e-07
3950.49	2.25969e-07
3959.17	4.49221e-07
3967.85	9.07857e-07
