Infrared Spectrum: Toluene
Formula: C H3 C6 H5
CAS: 108-88-3
State: gas
Melting point: -95 C
Boiling point: 110.6 C
Class: IUPAC A
Instrument: IFS66V (Bruker)
Instrument parameters: KBr Beam splitter; MCT Detector; Multipass cell
Sampling: 1 L/min Flow
Resolution: 0.1250
Temperature: 23 C
Pressure: 101.3 kPa
Origin: NIST, Anayltical Chemistry Division, 301-975-3108
cm-1	(micromol/mol)-1m-1 (base 10)
574.988	-3.87825e-08
583.546	-2.85187e-07
592.103	-2.68209e-07
600.661	-9.55274e-08
609.219	5.03314e-07
617.776	7.23083e-07
626.334	6.32066e-07
634.891	1.00915e-06
643.449	1.2968e-06
652.007	8.81445e-07
660.564	2.52312e-06
669.122	1.28584e-05
677.68	4.6405e-05
686.237	7.16061e-05
694.795	0.000123317
703.352	0.000105122
711.91	0.000151018
720.468	0.000187085
729.025	0.000697604
737.583	0.000187278
746.141	0.000105602
754.698	2.10795e-05
763.256	2.6128e-06
771.813	1.6632e-06
780.371	2.36577e-06
788.929	1.19163e-06
797.486	1.33461e-06
806.044	3.99506e-07
814.602	3.32713e-07
823.159	3.59521e-07
831.717	2.43143e-07
840.274	7.0108e-07
848.832	5.95092e-07
857.39	9.01607e-07
865.947	1.14109e-06
874.505	2.10028e-06
883.063	2.60867e-06
891.62	4.04257e-06
900.178	3.18454e-06
908.735	3.02487e-06
917.293	3.01576e-06
925.851	3.51406e-06
934.408	3.92605e-06
942.966	2.65244e-06
951.524	1.73574e-06
960.081	2.3949e-06
968.639	2.90179e-06
977.196	2.88713e-06
985.754	2.40224e-06
994.312	2.15432e-06
1002.87	1.78993e-06
1011.43	2.53529e-06
1019.98	1.29286e-05
1028.54	1.87181e-05
1037.1	2.59701e-05
1045.66	1.83261e-05
1054.22	1.26709e-05
1062.77	1.37741e-05
1071.33	2.10105e-05
1079.89	1.99134e-05
1088.45	2.37197e-05
1097	1.58852e-05
1105.56	8.12285e-06
1114.12	7.11073e-06
1122.68	3.22235e-06
1131.23	1.90564e-06
1139.79	1.71611e-06
1148.35	1.72054e-06
1156.91	2.19705e-06
1165.46	2.49493e-06
1174.02	2.88462e-06
1182.58	2.44283e-06
1191.14	2.18758e-06
1199.69	3.55611e-06
1208.25	4.22407e-06
1216.81	5.04201e-06
1225.37	2.38608e-06
1233.93	2.79826e-06
1242.48	2.88023e-06
1251.04	2.68981e-06
1259.6	1.30884e-06
1268.16	9.20733e-07
1276.71	8.10576e-07
1285.27	1.05289e-06
1293.83	1.49413e-06
1302.39	2.62365e-06
1310.94	2.03149e-06
1319.5	2.49503e-06
1328.06	1.86677e-06
1336.62	1.85949e-06
1345.17	2.41047e-06
1353.73	3.44794e-06
1362.29	4.88632e-06
1370.85	8.6174e-06
1379.4	1.29128e-05
1387.96	1.7463e-05
1396.52	1.0789e-05
1405.08	8.29246e-06
1413.64	9.07473e-06
1422.19	1.371e-05
1430.75	1.21449e-05
1439.31	1.84285e-05
1447.87	2.98332e-05
1456.42	3.26156e-05
1464.98	3.2449e-05
1473.54	3.32518e-05
1482.1	3.25601e-05
1490.65	9.09659e-05
1499.21	0.00010158
1507.77	0.000100134
1516.33	3.15812e-05
1524.88	2.44519e-05
1533.44	1.84074e-05
1542	1.35025e-05
1550.56	1.01141e-05
1559.11	1.14922e-05
1567.67	8.69847e-06
1576.23	9.8096e-06
1584.79	8.77886e-06
1593.35	1.72275e-05
1601.9	4.05291e-05
1610.46	4.56667e-05
1619.02	3.84754e-05
1627.58	1.92862e-05
1636.13	3.54858e-06
1644.69	1.81275e-06
1653.25	9.62077e-08
1661.81	1.99276e-06
1670.36	1.85025e-06
1678.92	1.76149e-06
1687.48	1.56786e-06
1696.04	5.69337e-07
1704.59	1.45405e-06
1713.15	2.23853e-06
1721.71	4.15643e-06
1730.27	4.39374e-06
1738.83	5.47567e-06
1747.38	2.14675e-06
1755.94	1.23756e-06
1764.5	1.99645e-06
1773.06	3.50348e-06
1781.61	5.07659e-06
1790.17	1.0445e-05
1798.73	9.5809e-06
1807.29	1.23618e-05
1815.84	4.17547e-06
1824.4	3.48911e-06
1832.96	2.90752e-06
1841.52	5.29977e-06
1850.07	1.04426e-05
1858.63	1.15939e-05
1867.19	1.15205e-05
1875.75	6.91458e-06
1884.3	3.35985e-06
1892.86	1.42981e-06
1901.42	1.14314e-06
1909.98	1.24805e-06
1918.54	2.31217e-06
1927.09	6.20871e-06
1935.65	1.2421e-05
1944.21	1.41735e-05
1952.77	1.27094e-05
1961.32	6.01153e-06
1969.88	2.96423e-06
1978.44	7.81954e-07
1987	1.17425e-06
1995.55	1.4416e-06
2004.11	1.224e-06
2012.67	7.70629e-07
2021.23	5.87232e-07
2029.78	4.39818e-07
2038.34	1.37591e-07
2046.9	2.23622e-07
2055.46	1.79173e-07
2064.01	1.30297e-07
2072.57	1.91566e-07
2081.13	2.72831e-07
2089.69	1.39659e-07
2098.25	2.41215e-07
2106.8	1.4084e-07
2115.36	2.74628e-07
2123.92	2.96339e-07
2132.48	2.8055e-07
2141.03	2.75743e-07
2149.59	2.07697e-07
2158.15	7.62922e-07
2166.71	1.05567e-06
2175.26	1.33231e-06
2183.82	7.82676e-07
2192.38	7.59106e-07
2200.94	4.60542e-07
2209.49	5.87232e-07
2218.05	5.05065e-07
2226.61	4.68549e-07
2235.17	4.91081e-07
2243.72	6.04554e-07
2252.28	9.08031e-07
2260.84	9.63745e-07
2269.4	1.28734e-06
2277.96	1.43532e-06
2286.51	1.29347e-06
2295.07	1.24412e-06
2303.63	1.67301e-06
2312.19	1.72696e-06
2320.74	2.05282e-06
2329.3	1.91784e-06
2337.86	1.91403e-06
2346.42	2.22388e-06
2354.97	2.18935e-06
2363.53	1.46092e-06
2372.09	1.63476e-06
2380.65	1.20134e-06
2389.2	1.25223e-06
2397.76	1.34904e-06
2406.32	1.63499e-06
2414.88	1.74005e-06
2423.44	2.03237e-06
2431.99	1.38475e-06
2440.55	1.00076e-06
2449.11	8.40271e-07
2457.67	1.00615e-06
2466.22	9.77011e-07
2474.78	9.38044e-07
2483.34	7.48576e-07
2491.9	8.17311e-07
2500.45	1.03727e-06
2509.01	8.37766e-07
2517.57	7.51934e-07
2526.13	6.68271e-07
2534.68	7.631e-07
2543.24	8.08202e-07
2551.8	8.32453e-07
2560.36	5.72517e-07
2568.91	7.27814e-07
2577.47	1.18163e-06
2586.03	2.16934e-06
2594.59	2.43791e-06
2603.15	2.31539e-06
2611.7	1.60841e-06
2620.26	1.22232e-06
2628.82	1.25432e-06
2637.38	1.2704e-06
2645.93	9.68616e-07
2654.49	8.00533e-07
2663.05	7.33815e-07
2671.61	6.17564e-07
2680.16	5.45898e-07
2688.72	5.62934e-07
2697.28	5.28432e-07
2705.84	5.52646e-07
2714.39	7.90732e-07
2722.95	1.04515e-06
2731.51	2.90126e-06
2740.07	5.17239e-06
2748.62	6.07866e-06
2757.18	3.50974e-06
2765.74	1.51138e-06
2774.3	1.35803e-06
2782.86	1.59879e-06
2791.41	1.963e-06
2799.97	2.24697e-06
2808.53	2.5267e-06
2817.09	3.59922e-06
2825.64	4.15737e-06
2834.2	5.70498e-06
2842.76	7.09389e-06
2851.32	1.17238e-05
2859.87	2.20499e-05
2868.43	3.93113e-05
2876.99	6.19152e-05
2885.55	6.60511e-05
2894.1	5.78155e-05
2902.66	4.15064e-05
2911.22	4.51285e-05
2919.78	6.80237e-05
2928.34	0.000107796
2936.89	0.000119269
2945.45	0.000107397
2954.01	6.72673e-05
2962.57	5.13036e-05
2971.12	3.5188e-05
2979.68	3.93548e-05
2988.24	4.09488e-05
2996.8	5.16253e-05
3005.35	6.73823e-05
3013.91	7.45884e-05
3022.47	0.00012657
3031.03	0.000218325
3039.58	0.000221832
3048.14	0.000195724
3056.7	0.000108431
3065.26	0.000118326
3073.81	0.000147823
3082.37	0.000129172
3090.93	9.5823e-05
3099.49	7.39938e-05
3108.05	4.7995e-05
3116.6	2.95997e-05
3125.16	1.73887e-05
3133.72	8.59208e-06
3142.28	2.41456e-06
3150.83	1.26546e-06
3159.39	1.30185e-06
3167.95	1.4945e-06
3176.51	1.54322e-06
3185.06	1.5074e-06
3193.62	5.3936e-07
3202.18	1.91486e-07
3210.74	1.98473e-07
3219.29	1.46703e-07
3227.85	1.94231e-07
3236.41	7.70156e-08
3244.97	2.1683e-07
3253.52	3.07597e-07
3262.08	2.09557e-07
3270.64	5.62674e-07
3279.2	4.51942e-07
3287.76	4.50283e-07
3296.31	3.90895e-07
3304.87	4.51233e-07
3313.43	4.17614e-07
3321.99	6.86776e-07
3330.54	6.64932e-07
3339.1	6.78156e-07
3347.66	6.25162e-07
3356.22	3.68898e-07
3364.77	6.1848e-07
3373.33	5.99796e-07
3381.89	6.37763e-07
3390.45	4.38994e-07
3399	6.3768e-07
3407.56	4.54407e-07
3416.12	2.54805e-07
3424.68	4.1139e-07
3433.23	3.73544e-07
3441.79	5.21036e-07
3450.35	6.08969e-07
3458.91	5.35986e-07
3467.47	3.47154e-07
3476.02	3.15047e-08
3484.58	1.27765e-07
3493.14	1.05414e-07
3501.7	2.21104e-07
3510.25	4.71902e-07
3518.81	1.11654e-07
3527.37	3.46572e-07
3535.93	2.61447e-07
3544.48	3.97695e-07
3553.04	5.42469e-07
3561.6	2.58515e-07
3570.16	4.10107e-07
3578.71	2.77529e-07
3587.27	5.13416e-07
3595.83	3.32048e-07
3604.39	4.33814e-07
3612.95	2.18683e-07
3621.5	3.64158e-07
3630.06	5.27932e-07
3638.62	7.17528e-07
3647.18	7.14646e-07
3655.73	1.13887e-06
3664.29	1.1025e-06
3672.85	8.43321e-07
3681.41	6.83072e-07
3689.96	4.13567e-07
3698.52	5.39535e-07
3707.08	5.52046e-07
3715.64	4.61395e-07
3724.19	5.21933e-07
3732.75	3.95372e-07
3741.31	2.60165e-07
3749.87	9.98111e-08
3758.42	3.17436e-07
3766.98	3.36586e-07
3775.54	4.14669e-07
3784.1	5.05749e-07
3792.66	6.54573e-07
3801.21	3.37243e-07
3809.77	7.26723e-07
3818.33	6.56477e-07
3826.89	8.24485e-07
3835.44	1.09224e-06
3844	1.0372e-06
3852.56	1.41984e-06
3861.12	1.42393e-06
3869.67	1.24759e-06
3878.23	9.3413e-07
3886.79	8.95793e-07
3895.35	8.38066e-07
3903.9	8.67453e-07
3912.46	1.05854e-06
3921.02	1.32399e-06
3929.58	1.02506e-06
3938.13	1.22436e-06
3946.69	7.65563e-07
3955.25	9.25441e-07
3963.81	8.94132e-07
3972.37	9.05201e-07
