Infrared Spectrum: Ethenyl Ester-Acetic Acid
Formula: C H3 C O2 C H: C H2
CAS: 108-05-4
State: gas
Melting point: -93.2 C
Boiling point: 72.2 C
Class: IUPAC A
Instrument: IFS66V (Bruker)
Instrument parameters: KBr Beam splitter; MCT Detector; Multipass cell
Sampling: 1 L/min Flow
Resolution: 0.2410
Temperature: 23 C
Pressure: 101.3 kPa
Origin: NIST, Anayltical Chemistry Division, 301-975-3108
cm-1	(micromol/mol)-1m-1 (base 10)
575.048	1.07956e-05
583.606	1.96408e-05
592.163	3.75565e-05
600.721	2.8768e-05
609.279	3.24313e-05
617.836	3.39795e-05
626.394	4.15266e-05
634.951	4.2249e-05
643.509	4.1739e-05
652.067	2.71896e-05
660.624	1.42078e-05
669.182	6.52355e-06
677.74	4.49089e-06
686.297	6.14351e-06
694.855	9.1957e-06
703.412	1.04934e-05
711.97	1.15747e-05
720.528	1.01059e-05
729.085	7.49971e-06
737.643	6.09284e-06
746.201	5.55635e-06
754.758	6.0382e-06
763.316	7.30869e-06
771.873	9.38695e-06
780.431	9.6392e-06
788.989	9.387e-06
797.546	8.92045e-06
806.104	9.80959e-06
814.662	1.30533e-05
823.219	1.99959e-05
831.777	3.78439e-05
840.334	7.94637e-05
848.892	0.000104456
857.45	0.00015988
866.007	0.000156821
874.565	0.000215987
883.123	0.000145391
891.68	9.37709e-05
900.238	3.60003e-05
908.795	1.45665e-05
917.353	1.56276e-05
925.911	3.43776e-05
934.468	7.0194e-05
943.026	0.00010514
951.584	0.000131967
960.141	0.000105836
968.699	0.000123397
977.256	0.000101615
985.814	9.80505e-05
994.372	6.59149e-05
1002.93	0.000110556
1011.49	0.000236243
1020.04	0.000348837
1028.6	0.000312667
1037.16	0.00017045
1045.72	7.68868e-05
1054.28	6.59418e-05
1062.83	6.04758e-05
1071.39	5.42518e-05
1079.95	4.63345e-05
1088.51	3.79973e-05
1097.06	3.11019e-05
1105.62	2.94221e-05
1114.18	3.31467e-05
1122.74	5.43602e-05
1131.29	0.000208049
1139.85	0.0008968
1148.41	0.000964014
1156.97	0.000766673
1165.52	7.82888e-05
1174.08	4.69413e-05
1182.64	6.57369e-05
1191.2	0.000115113
1199.75	0.000299215
1208.31	0.00105265
1216.87	0.00257607
1225.43	0.00283061
1233.99	0.00199214
1242.54	0.000387606
1251.1	0.000227676
1259.66	0.000192854
1268.22	7.28089e-05
1276.77	5.54628e-05
1285.33	0.000124334
1293.89	0.000172006
1302.45	0.000168829
1311	6.52137e-05
1319.56	2.15147e-05
1328.12	1.35357e-05
1336.68	1.23462e-05
1345.23	1.72296e-05
1353.79	4.28585e-05
1362.35	0.000165539
1370.91	0.000350857
1379.46	0.000442479
1388.02	0.000268729
1396.58	0.000105886
1405.14	3.61519e-05
1413.7	2.74347e-05
1422.25	3.05796e-05
1430.81	3.8992e-05
1439.37	3.7066e-05
1447.93	3.55855e-05
1456.48	2.90101e-05
1465.04	2.33852e-05
1473.6	2.0913e-05
1482.16	1.95824e-05
1490.71	1.70488e-05
1499.27	1.57366e-05
1507.83	1.47186e-05
1516.39	1.39117e-05
1524.94	1.26985e-05
1533.5	1.14718e-05
1542.06	9.92777e-06
1550.62	1.26057e-05
1559.18	1.61187e-05
1567.73	1.82732e-05
1576.29	1.93628e-05
1584.85	2.17618e-05
1593.41	2.2433e-05
1601.96	2.29667e-05
1610.52	2.75512e-05
1619.08	3.82111e-05
1627.64	4.69332e-05
1636.19	0.00010841
1644.75	0.000421557
1653.31	0.000555936
1661.87	0.000443534
1670.42	6.1011e-05
1678.98	2.48187e-05
1687.54	1.67985e-05
1696.1	1.4241e-05
1704.65	1.37569e-05
1713.21	1.17472e-05
1721.77	1.24571e-05
1730.33	2.00255e-05
1738.89	2.80329e-05
1747.44	6.06767e-05
1756	0.000146838
1764.56	0.000385103
1773.12	0.0010217
1781.67	0.00106981
1790.23	0.00148886
1798.79	0.000610725
1807.35	0.000211337
1815.9	5.44115e-05
1824.46	2.29027e-05
1833.02	2.03454e-05
1841.58	1.8031e-05
1850.13	2.16983e-05
1858.69	2.63152e-05
1867.25	2.84647e-05
1875.81	2.53039e-05
1884.36	1.72385e-05
1892.92	1.44665e-05
1901.48	1.42482e-05
1910.04	1.12733e-05
1918.6	6.55353e-06
1927.15	4.28275e-06
1935.71	4.47358e-06
1944.27	5.18607e-06
1952.83	5.24087e-06
1961.38	5.27529e-06
1969.94	4.70945e-06
1978.5	7.20329e-06
1987.06	1.29687e-05
1995.61	1.35421e-05
2004.17	1.05883e-05
2012.73	5.50005e-06
2021.29	5.41568e-06
2029.84	5.34355e-06
2038.4	6.2124e-06
2046.96	1.07266e-05
2055.52	2.10922e-05
2064.08	2.77298e-05
2072.63	2.62909e-05
2081.19	1.18918e-05
2089.75	6.65241e-06
2098.31	5.57741e-06
2106.86	6.09674e-06
2115.42	7.15336e-06
2123.98	7.2927e-06
2132.54	6.00276e-06
2141.09	3.90208e-06
2149.65	4.29158e-06
2158.21	4.48356e-06
2166.77	4.79672e-06
2175.32	4.40365e-06
2183.88	3.23882e-06
2192.44	2.44364e-06
2201	2.00468e-06
2209.55	2.457e-06
2218.11	3.67345e-06
2226.67	4.85124e-06
2235.23	4.53382e-06
2243.79	3.60485e-06
2252.34	2.83075e-06
2260.9	2.20782e-06
2269.46	3.22267e-06
2278.02	8.18051e-06
2286.57	1.12169e-05
2295.13	1.10575e-05
2303.69	3.38707e-06
2312.25	1.18615e-06
2320.8	1.16139e-06
2329.36	1.53148e-06
2337.92	2.62138e-06
2346.48	3.38695e-06
2355.03	4.21749e-06
2363.59	3.6639e-06
2372.15	3.13679e-06
2380.71	2.37268e-06
2389.26	1.5218e-06
2397.82	1.85287e-06
2406.38	2.57269e-06
2414.94	3.6902e-06
2423.5	5.54909e-06
2432.05	8.1666e-06
2440.61	8.22817e-06
2449.17	6.49136e-06
2457.73	2.88395e-06
2466.28	1.93586e-06
2474.84	1.65285e-06
2483.4	1.60313e-06
2491.96	1.83408e-06
2500.51	1.952e-06
2509.07	1.1003e-06
2517.63	7.36294e-07
2526.19	6.31293e-07
2534.74	4.0253e-07
2543.3	2.74243e-07
2551.86	2.44118e-07
2560.42	2.59368e-07
2568.98	4.13571e-07
2577.53	1.09476e-06
2586.09	1.80681e-06
2594.65	1.90091e-06
2603.21	1.4934e-06
2611.76	1.08523e-06
2620.32	1.69938e-06
2628.88	2.05062e-06
2637.44	2.1452e-06
2645.99	1.02153e-06
2654.55	8.78707e-07
2663.11	1.03944e-06
2671.67	1.13098e-06
2680.22	1.00318e-06
2688.78	6.34541e-07
2697.34	3.92304e-07
2705.9	3.97401e-07
2714.45	3.65886e-07
2723.01	4.46049e-07
2731.57	6.09364e-07
2740.13	1.48509e-06
2748.69	2.88252e-06
2757.24	2.72239e-06
2765.8	3.09375e-06
2774.36	1.32222e-06
2782.92	1.10738e-06
2791.47	1.35202e-06
2800.03	1.62119e-06
2808.59	9.05809e-07
2817.15	7.1027e-07
2825.7	6.78075e-07
2834.26	7.92189e-07
2842.82	1.24834e-06
2851.38	2.06407e-06
2859.93	2.32743e-06
2868.49	2.28409e-06
2877.05	1.53406e-06
2885.61	1.21073e-06
2894.16	1.10882e-06
2902.72	1.16274e-06
2911.28	1.24424e-06
2919.84	1.43593e-06
2928.4	2.2971e-06
2936.95	4.62011e-06
2945.51	9.55984e-06
2954.07	1.08754e-05
2962.63	1.2349e-05
2971.18	9.28895e-06
2979.74	8.97724e-06
2988.3	1.00154e-05
2996.86	1.21554e-05
3005.41	1.13677e-05
3013.97	1.15754e-05
3022.53	1.3732e-05
3031.09	1.70876e-05
3039.64	1.88296e-05
3048.2	2.0639e-05
3056.76	2.21483e-05
3065.32	2.33881e-05
3073.88	1.86442e-05
3082.43	1.74655e-05
3090.99	3.47229e-05
3099.55	4.15913e-05
3108.11	4.80824e-05
3116.66	1.89913e-05
3125.22	2.64336e-05
3133.78	2.05224e-05
3142.34	1.83885e-05
3150.89	5.61382e-06
3159.45	2.62289e-06
3168.01	1.71445e-06
3176.57	1.22437e-06
3185.12	1.02917e-06
3193.68	1.03647e-06
3202.24	8.18123e-07
3210.8	6.12478e-07
3219.35	4.92362e-07
3227.91	2.66753e-07
3236.47	2.00952e-08
3245.03	4.90739e-08
3253.59	2.83021e-08
3262.14	-3.50684e-09
3270.7	-5.17404e-08
3279.26	-9.47465e-08
3287.82	5.67279e-08
3296.37	4.33226e-08
3304.93	-3.47701e-08
3313.49	-3.54984e-07
3322.05	-4.6833e-07
3330.6	-2.58418e-07
3339.16	-3.77458e-08
3347.72	2.65814e-08
3356.28	-1.29542e-08
3364.83	-2.43747e-07
3373.39	-2.19388e-07
3381.95	-6.78341e-08
3390.51	-3.84479e-08
3399.06	-3.04848e-08
3407.62	-7.36509e-08
3416.18	-1.34577e-07
3424.74	-8.87369e-08
3433.3	9.75658e-09
3441.85	-9.25129e-08
3450.41	-3.04593e-08
3458.97	1.63726e-07
3467.53	1.83727e-07
3476.08	8.43824e-08
3484.64	-1.28862e-07
3493.2	-9.05812e-08
3501.76	-9.95193e-08
3510.31	3.37482e-07
3518.87	1.30633e-06
3527.43	4.17405e-06
3535.99	1.10976e-05
3544.54	1.48532e-05
3553.1	1.68905e-05
3561.66	8.54323e-06
3570.22	2.63039e-06
3578.78	3.20865e-07
3587.33	-2.61212e-07
3595.89	-3.25125e-07
3604.45	-4.96218e-07
3613.01	-5.76795e-07
3621.56	-5.89971e-07
3630.12	-5.00223e-07
3638.68	-5.01292e-07
3647.24	-6.09593e-07
3655.79	-4.69633e-07
3664.35	-3.15295e-07
3672.91	-4.53183e-07
3681.47	-3.91562e-07
3690.02	-4.38784e-07
3698.58	-4.79247e-07
3707.14	-4.2312e-07
3715.7	-4.71946e-07
3724.25	-3.86462e-07
3732.81	-4.59942e-07
3741.37	-5.80637e-07
3749.93	-6.6806e-07
3758.49	-4.45467e-07
3767.04	-4.08481e-07
3775.6	-3.91158e-07
3784.16	-4.62695e-07
3792.72	-3.82242e-07
3801.27	-1.40474e-06
3809.83	-3.04066e-07
3818.39	-3.99543e-07
3826.95	-4.59163e-07
3835.5	-2.67306e-07
3844.06	-2.90013e-07
3852.62	-3.52172e-07
3861.18	-1.96823e-07
3869.73	-3.84166e-07
3878.29	-1.07803e-07
3886.85	-1.48386e-07
3895.41	-7.87911e-08
3903.96	-1.14969e-07
3912.52	1.3888e-07
3921.08	8.02717e-08
3929.64	1.03484e-07
3938.2	1.29928e-07
3946.75	2.37152e-07
3955.31	3.28821e-07
3963.87	7.14737e-07
3972.43	1.1143e-06
