Infrared Spectrum: 1,3-Dimethylbenzene
Formula: 1,3-( C H3)2 C6 H4
CAS: 108-38-3
State: gas
Melting point: -47.87 C
Boiling point: 139.1 C
Class: IUPAC A
Instrument: IFS66V (Bruker)
Instrument parameters: KBr Beam Splitter; MCT Detector; Multipass cell
Sampling: 1 L/min Flow
Resolution: 0.4820
Temperature: 23 C
Pressure: 101.3 Pa
Origin: NIST, Analytical Chemistry Division, 301-975-3108
cm-1	(micromol/mol)-1m-1 (base 10)
575.17	-2.76689e-06
583.848	-1.16242e-06
592.526	1.02691e-06
601.205	-2.62563e-07
609.883	-6.64269e-07
618.561	1.13838e-07
627.239	-8.2213e-07
635.917	-3.84969e-07
644.595	2.76032e-07
653.274	1.33331e-06
661.952	2.42934e-06
670.63	9.91323e-06
679.308	4.22528e-05
687.986	7.55415e-05
696.665	6.3026e-05
705.343	3.29414e-05
714.021	5.30887e-06
722.699	1.16201e-06
731.377	1.30085e-06
740.055	3.90296e-06
748.734	3.39004e-05
757.412	0.000134274
766.09	0.000290314
774.768	0.000167749
783.446	7.48709e-05
792.124	8.16658e-06
800.803	2.03077e-06
809.481	9.97829e-07
818.159	7.36906e-07
826.837	7.59175e-07
835.515	6.14039e-07
844.194	6.97502e-07
852.872	1.51045e-06
861.55	7.99614e-06
870.228	1.41085e-05
878.906	1.31399e-05
887.584	1.10155e-05
896.263	1.30363e-05
904.941	1.67714e-05
913.619	1.15284e-05
922.297	9.37231e-07
930.975	1.57481e-06
939.654	2.1473e-06
948.332	2.71552e-06
957.01	3.13162e-06
965.688	4.13583e-06
974.366	4.90034e-06
983.044	4.45321e-06
991.723	5.62674e-06
1000.4	7.98823e-06
1009.08	9.86256e-06
1017.76	7.58874e-06
1026.44	6.12807e-06
1035.11	1.12384e-05
1043.79	2.38827e-05
1052.47	1.93596e-05
1061.15	1.39076e-05
1069.83	8.84491e-06
1078.5	8.81262e-06
1087.18	2.12377e-05
1095.86	1.91271e-05
1104.54	1.76634e-05
1113.22	5.91023e-06
1121.9	4.68735e-06
1130.57	4.47254e-06
1139.25	3.07054e-06
1147.93	2.60208e-06
1156.61	4.19145e-06
1165.29	9.52641e-06
1173.96	6.57961e-06
1182.64	3.49885e-06
1191.32	2.49063e-06
1200	1.99131e-06
1208.68	1.34835e-06
1217.36	1.21581e-06
1226.03	9.58328e-07
1234.71	1.56502e-06
1243.39	3.25278e-06
1252.07	3.10507e-06
1260.75	3.44523e-06
1269.42	2.94262e-06
1278.1	1.98321e-06
1286.78	1.42407e-06
1295.46	2.00962e-06
1304.14	2.02444e-06
1312.82	2.1706e-06
1321.49	2.39235e-06
1330.17	2.28551e-06
1338.85	2.62853e-06
1347.53	3.58206e-06
1356.21	6.38484e-06
1364.88	9.33592e-06
1373.56	1.8198e-05
1382.24	2.94527e-05
1390.92	2.84131e-05
1399.6	1.87113e-05
1408.28	1.59448e-05
1416.95	1.70981e-05
1425.63	1.87816e-05
1434.31	2.68888e-05
1442.99	3.9262e-05
1451.67	4.71785e-05
1460.34	4.18503e-05
1469.02	4.86497e-05
1477.7	5.8759e-05
1486.38	8.44742e-05
1495.06	0.000107449
1503.74	0.000103554
1512.41	6.80456e-05
1521.09	4.94684e-05
1529.77	4.70223e-05
1538.45	4.04489e-05
1547.13	2.54369e-05
1555.8	1.76389e-05
1564.48	1.62068e-05
1573.16	1.75908e-05
1581.84	1.92822e-05
1590.52	3.22983e-05
1599.2	4.84161e-05
1607.87	0.000102409
1616.55	0.000133363
1625.23	0.000108154
1633.91	1.05225e-05
1642.59	5.04017e-06
1651.26	6.30569e-06
1659.94	4.90232e-06
1668.62	1.92941e-06
1677.3	7.511e-07
1685.98	5.306e-07
1694.66	9.66066e-07
1703.33	1.22659e-06
1712.01	1.55975e-06
1720.69	1.24059e-06
1729.37	3.09622e-06
1738.05	7.16819e-06
1746.72	6.60746e-06
1755.4	7.34397e-06
1764.08	6.33388e-06
1772.76	6.8052e-06
1781.44	6.71542e-06
1790.12	2.00187e-06
1798.79	1.03453e-06
1807.47	1.6774e-06
1816.15	2.18908e-06
1824.83	1.88088e-06
1833.51	3.24405e-06
1842.18	5.74356e-06
1850.86	1.25887e-05
1859.54	1.05473e-05
1868.22	1.70194e-06
1876.9	1.19382e-06
1885.58	1.08098e-06
1894.25	1.17404e-06
1902.93	1.70279e-06
1911.61	2.97705e-06
1920.29	5.94847e-06
1928.97	1.1953e-05
1937.64	1.16031e-05
1946.32	3.69705e-06
1955	3.84309e-07
1963.68	1.49514e-07
1972.36	3.10403e-07
1981.04	7.34386e-08
1989.71	-2.7221e-08
1998.39	6.74378e-08
2007.07	-2.67481e-08
2015.75	6.81153e-08
2024.43	1.16093e-07
2033.1	-2.88954e-07
2041.78	-3.22953e-07
2050.46	-4.37003e-07
2059.14	-3.63771e-07
2067.82	-1.10246e-07
2076.5	-8.46335e-08
2085.17	8.29455e-09
2093.85	-3.74536e-07
2102.53	2.28862e-07
2111.21	4.50028e-07
2119.89	7.93357e-08
2128.56	-2.86755e-07
2137.24	-7.11767e-09
2145.92	7.02245e-08
2154.6	6.93876e-07
2163.28	-2.75841e-07
2171.96	-2.62267e-07
2180.63	-3.12259e-07
2189.31	-3.75558e-07
2197.99	-1.65043e-07
2206.67	-1.10399e-07
2215.35	-2.93174e-08
2224.02	4.92944e-10
2232.7	-4.16948e-07
2241.38	-2.57704e-07
2250.06	-4.2887e-08
2258.74	4.45523e-07
2267.42	7.02544e-07
2276.09	9.79165e-07
2284.77	1.32851e-06
2293.45	1.82944e-06
2302.13	7.37429e-07
2310.81	5.30134e-07
2319.48	6.25865e-07
2328.16	1.07615e-06
2336.84	1.37469e-06
2345.52	1.42206e-06
2354.2	1.53852e-06
2362.88	2.16397e-06
2371.55	9.885e-07
2380.23	7.53336e-07
2388.91	1.23503e-06
2397.59	1.28764e-06
2406.27	1.03771e-06
2414.94	1.82007e-06
2423.62	1.9303e-06
2432.3	1.58189e-06
2440.98	1.26515e-06
2449.66	1.45914e-06
2458.34	1.35626e-06
2467.01	1.63188e-06
2475.69	1.18508e-06
2484.37	1.31549e-06
2493.05	1.40869e-06
2501.73	1.15089e-06
2510.4	7.92119e-07
2519.08	4.45125e-07
2527.76	3.15367e-07
2536.44	1.0716e-06
2545.12	1.34985e-06
2553.8	5.03664e-07
2562.47	4.71644e-07
2571.15	3.72507e-07
2579.83	2.46744e-07
2588.51	4.04597e-07
2597.19	6.21146e-07
2605.86	5.48388e-07
2614.54	6.5085e-07
2623.22	7.57273e-07
2631.9	7.78238e-07
2640.58	7.79102e-07
2649.26	7.14385e-07
2657.93	3.61704e-07
2666.61	1.36718e-07
2675.29	3.61599e-07
2683.97	-9.9691e-08
2692.65	2.44881e-07
2701.32	2.28216e-07
2710	5.89204e-07
2718.68	1.39109e-06
2727.36	3.18156e-06
2736.04	1.10741e-05
2744.71	1.17749e-05
2753.39	7.1871e-06
2762.07	2.53461e-06
2770.75	1.95751e-06
2779.43	2.10614e-06
2788.11	2.2658e-06
2796.78	2.84034e-06
2805.46	3.71179e-06
2814.14	4.86019e-06
2822.82	7.55977e-06
2831.5	9.73674e-06
2840.17	1.31807e-05
2848.85	2.17806e-05
2857.53	4.1185e-05
2866.21	8.19136e-05
2874.89	0.000118466
2883.57	0.000117922
2892.24	9.45768e-05
2900.92	9.37331e-05
2909.6	0.000111365
2918.28	0.0001469
2926.96	0.000217698
2935.63	0.000257767
2944.31	0.000230631
2952.99	0.000139618
2961.67	9.77759e-05
2970.35	6.98519e-05
2979.03	7.29089e-05
2987.7	8.75495e-05
2996.38	0.000109905
3005.06	0.000135859
3013.74	0.000176271
3022.42	0.000218161
3031.09	0.000240057
3039.77	0.00021132
3048.45	0.00017066
3057.13	0.000133507
3065.81	0.000117899
3074.49	8.45331e-05
3083.16	4.10678e-05
3091.84	2.86982e-05
3100.52	2.35396e-05
3109.2	2.10243e-05
3117.88	1.86103e-05
3126.55	1.2546e-05
3135.23	4.58497e-06
3143.91	1.97592e-06
3152.59	9.86726e-07
3161.27	9.25377e-07
3169.95	6.83619e-07
3178.62	5.55429e-07
3187.3	3.6906e-07
3195.98	3.49653e-07
3204.66	4.73377e-07
3213.34	4.06179e-07
3222.01	-1.27528e-07
3230.69	-3.93906e-07
3239.37	-5.50991e-07
3248.05	-3.61287e-07
3256.73	-1.53312e-07
3265.41	3.02268e-07
3274.08	2.42606e-07
3282.76	7.668e-08
3291.44	9.93782e-08
3300.12	5.43275e-08
3308.8	1.39738e-07
3317.47	-2.49449e-07
3326.15	-3.84606e-07
3334.83	-6.70703e-08
3343.51	-1.41357e-07
3352.19	-3.35991e-07
3360.87	-2.42409e-07
3369.54	-1.33372e-07
3378.22	2.76688e-07
3386.9	-1.73067e-08
3395.58	3.19056e-07
3404.26	2.77307e-07
3412.93	9.61657e-07
3421.61	6.31747e-07
3430.29	3.99845e-07
3438.97	5.20187e-07
3447.65	4.22695e-07
3456.33	8.26189e-07
3465	6.15857e-07
3473.68	-1.60358e-07
3482.36	6.01086e-07
3491.04	-3.37071e-07
3499.72	-3.17995e-07
3508.39	-2.46078e-07
3517.07	-2.44334e-08
3525.75	-1.12292e-07
3534.43	1.17558e-07
3543.11	-1.03329e-07
3551.79	8.0003e-07
3560.46	2.71385e-07
3569.14	4.52686e-07
3577.82	1.44727e-07
3586.5	-2.01621e-07
3595.18	-5.42337e-07
3603.85	-5.12976e-07
3612.53	-6.04682e-07
3621.21	-3.39635e-07
3629.89	-4.95296e-07
3638.57	-4.8888e-07
3647.25	-3.86172e-07
3655.92	-2.25853e-07
3664.6	-7.67128e-08
3673.28	-3.83452e-07
3681.96	-1.27227e-07
3690.64	-4.79172e-07
3699.31	-7.32293e-07
3707.99	-1.6645e-07
3716.67	-2.54674e-07
3725.35	-9.61567e-08
3734.03	4.61565e-07
3742.71	6.78291e-07
3751.38	5.34109e-07
3760.06	1.43548e-07
3768.74	7.12725e-07
3777.42	5.03664e-07
3786.1	8.26444e-07
3794.77	3.99554e-07
3803.45	3.00582e-07
3812.13	2.265e-07
3820.81	-1.83055e-07
3829.49	4.76588e-07
3838.17	1.58017e-07
3846.84	4.36205e-07
3855.52	6.4188e-07
3864.2	3.55362e-07
3872.88	2.77314e-07
3881.56	4.27474e-07
3890.23	7.92264e-07
3898.91	1.15502e-06
3907.59	1.65415e-06
3916.27	1.69895e-06
3924.95	1.81072e-06
3933.63	1.40945e-06
3942.3	1.49346e-06
3950.98	1.55107e-06
3959.66	1.67364e-06
3968.34	1.2727e-06
