Infrared Spectrum: 1,3-Dimethylbenzene
Formula: 1,3-( C H3)2 C6 H4
CAS: 108-38-3
State: gas
Melting point: -47.87 C
Boiling point: 139.1 C
Class: IUPAC A
Instrument: IFS66V (Bruker)
Instrument parameters: KBr Beam Splitter; MCT Detector; Multipass cell
Sampling: 1 L/min Flow
Resolution: 0.9640
Temperature: 23 C
Pressure: 101.3 Pa
Origin: NIST, Analytical Chemistry Division, 301-975-3108
cm-1	(micromol/mol)-1m-1 (base 10)
575.17	-1.25368e-06
583.848	-4.808e-07
592.526	-6.01209e-08
601.205	-3.94181e-07
609.883	-4.61918e-07
618.561	-1.9681e-07
627.239	-2.87968e-07
635.917	-5.67599e-07
644.595	-8.78376e-08
653.274	8.41949e-07
661.952	2.44135e-06
670.63	1.03292e-05
679.308	4.25917e-05
687.986	7.64713e-05
696.665	6.36936e-05
705.343	3.27722e-05
714.021	5.14391e-06
722.699	1.53374e-06
731.377	1.57649e-06
740.055	3.90637e-06
748.734	3.41452e-05
757.412	0.000134214
766.09	0.000296438
774.768	0.000167711
783.446	7.50854e-05
792.125	8.27301e-06
800.803	1.65166e-06
809.481	1.0439e-06
818.159	5.96438e-07
826.837	4.98197e-07
835.515	5.74869e-07
844.194	6.15477e-07
852.872	1.51393e-06
861.55	7.83511e-06
870.228	1.39834e-05
878.906	1.32483e-05
887.584	1.11182e-05
896.263	1.27742e-05
904.941	1.67621e-05
913.619	1.18429e-05
922.297	1.19829e-06
930.975	1.44597e-06
939.654	2.21584e-06
948.332	2.62363e-06
957.01	3.12919e-06
965.688	4.00521e-06
974.366	4.96947e-06
983.044	4.29986e-06
991.723	5.33052e-06
1000.4	8.42545e-06
1009.08	1.00711e-05
1017.76	7.36558e-06
1026.44	6.2227e-06
1035.11	1.15093e-05
1043.79	2.43233e-05
1052.47	1.93253e-05
1061.15	1.39188e-05
1069.83	8.7888e-06
1078.5	9.06435e-06
1087.18	2.09654e-05
1095.86	1.94003e-05
1104.54	1.7641e-05
1113.22	6.12374e-06
1121.9	4.72104e-06
1130.57	4.49369e-06
1139.25	2.84389e-06
1147.93	2.69344e-06
1156.61	4.05139e-06
1165.29	9.3482e-06
1173.96	6.41869e-06
1182.64	3.47699e-06
1191.32	2.39266e-06
1200	1.966e-06
1208.68	1.42379e-06
1217.36	1.18193e-06
1226.03	1.12079e-06
1234.71	1.58051e-06
1243.39	3.03085e-06
1252.07	3.06933e-06
1260.75	3.58838e-06
1269.42	2.85063e-06
1278.1	1.97369e-06
1286.78	1.51893e-06
1295.46	1.89043e-06
1304.14	2.04097e-06
1312.82	2.15122e-06
1321.49	2.16233e-06
1330.17	2.41567e-06
1338.85	2.68354e-06
1347.53	3.89061e-06
1356.21	6.31852e-06
1364.88	9.49399e-06
1373.56	1.80055e-05
1382.24	2.97238e-05
1390.92	2.85931e-05
1399.6	1.89537e-05
1408.28	1.59014e-05
1416.95	1.72883e-05
1425.63	1.8769e-05
1434.31	2.69774e-05
1442.99	3.93615e-05
1451.67	4.68117e-05
1460.34	4.17722e-05
1469.02	4.8791e-05
1477.7	5.88139e-05
1486.38	8.46075e-05
1495.06	0.000107201
1503.74	0.000103612
1512.41	6.83666e-05
1521.09	4.97532e-05
1529.77	4.72657e-05
1538.45	4.0332e-05
1547.13	2.54682e-05
1555.8	1.76512e-05
1564.48	1.59818e-05
1573.16	1.764e-05
1581.84	1.92678e-05
1590.52	3.22538e-05
1599.2	4.86473e-05
1607.87	0.000102603
1616.55	0.000134293
1625.23	0.000107706
1633.91	1.05179e-05
1642.59	5.00953e-06
1651.26	6.52297e-06
1659.94	5.0755e-06
1668.62	1.81636e-06
1677.3	7.76194e-07
1685.98	5.52583e-07
1694.66	9.06996e-07
1703.33	1.2467e-06
1712.01	1.40237e-06
1720.69	1.20477e-06
1729.37	2.96868e-06
1738.05	7.22818e-06
1746.72	6.52259e-06
1755.4	7.31332e-06
1764.08	6.28637e-06
1772.76	7.41654e-06
1781.44	6.79364e-06
1790.12	1.88697e-06
1798.79	9.55595e-07
1807.47	1.72074e-06
1816.15	2.10534e-06
1824.83	1.81081e-06
1833.51	3.29335e-06
1842.18	5.87719e-06
1850.86	1.25729e-05
1859.54	1.04816e-05
1868.22	1.83093e-06
1876.9	1.16365e-06
1885.58	9.9515e-07
1894.25	1.09724e-06
1902.93	1.72266e-06
1911.61	3.10448e-06
1920.29	6.04189e-06
1928.97	1.20468e-05
1937.64	1.14234e-05
1946.32	3.61205e-06
1955	3.69584e-07
1963.68	1.09092e-07
1972.36	1.83955e-07
1981.04	6.05229e-08
1989.71	8.03262e-09
1998.39	1.35423e-09
2007.07	-6.06512e-08
2015.75	-7.64681e-08
2024.43	2.83734e-08
2033.1	-2.08862e-07
2041.78	-3.31451e-07
2050.46	-4.61549e-07
2059.14	-4.0455e-07
2067.82	-1.84339e-07
2076.5	-1.53787e-07
2085.17	-6.37425e-08
2093.85	-1.85523e-07
2102.53	2.69304e-07
2111.21	7.48705e-07
2119.89	1.92121e-08
2128.56	-3.08854e-07
2137.24	-1.65325e-07
2145.92	7.03891e-08
2154.6	2.61004e-07
2163.28	-1.87849e-07
2171.96	-1.43362e-07
2180.63	-2.37825e-07
2189.31	-2.55912e-07
2197.99	-2.67986e-07
2206.67	-3.79039e-08
2215.35	4.19584e-08
2224.02	-3.64569e-08
2232.7	-2.82527e-07
2241.38	-1.17919e-07
2250.06	-5.66467e-08
2258.74	3.85643e-07
2267.42	6.73172e-07
2276.09	9.05083e-07
2284.77	1.36729e-06
2293.45	1.73739e-06
2302.13	6.48087e-07
2310.81	5.01203e-07
2319.48	9.02708e-07
2328.16	1.21212e-06
2336.84	1.72223e-06
2345.52	1.57337e-06
2354.2	1.5451e-06
2362.88	1.38933e-06
2371.55	8.89066e-07
2380.23	6.98921e-07
2388.91	1.22415e-06
2397.59	1.25015e-06
2406.27	1.32731e-06
2414.94	1.8009e-06
2423.62	1.93652e-06
2432.3	1.66591e-06
2440.98	1.34598e-06
2449.66	1.36372e-06
2458.34	1.32999e-06
2467.01	1.43479e-06
2475.69	1.24429e-06
2484.37	1.35723e-06
2493.05	1.26912e-06
2501.73	1.13112e-06
2510.4	7.0936e-07
2519.08	4.38488e-07
2527.76	3.59482e-07
2536.44	1.07658e-06
2545.12	1.304e-06
2553.8	5.13893e-07
2562.47	4.29066e-07
2571.15	3.55039e-07
2579.83	1.7142e-07
2588.51	4.04427e-07
2597.19	5.3675e-07
2605.86	5.69685e-07
2614.54	6.27142e-07
2623.22	8.0722e-07
2631.9	8.267e-07
2640.58	8.51542e-07
2649.26	6.21897e-07
2657.93	3.18997e-07
2666.61	1.71877e-07
2675.29	1.64343e-07
2683.97	-7.33958e-09
2692.65	2.77429e-07
2701.32	3.83766e-07
2710	7.52547e-07
2718.68	1.47368e-06
2727.36	3.06943e-06
2736.04	1.11204e-05
2744.72	1.19337e-05
2753.39	7.21464e-06
2762.07	2.57054e-06
2770.75	1.85161e-06
2779.43	1.84891e-06
2788.11	2.10791e-06
2796.78	2.84927e-06
2805.46	3.67101e-06
2814.14	5.0102e-06
2822.82	7.28247e-06
2831.5	9.67493e-06
2840.18	1.3307e-05
2848.85	2.17006e-05
2857.53	4.15313e-05
2866.21	8.19343e-05
2874.89	0.000118427
2883.57	0.000117958
2892.24	9.43445e-05
2900.92	9.41536e-05
2909.6	0.000111297
2918.28	0.00014704
2926.96	0.000217651
2935.63	0.000257734
2944.31	0.000230443
2952.99	0.000139524
2961.67	9.78123e-05
2970.35	6.99858e-05
2979.03	7.3098e-05
2987.7	8.7912e-05
2996.38	0.000109394
3005.06	0.000135997
3013.74	0.000175806
3022.42	0.000218044
3031.09	0.000239882
3039.77	0.000211414
3048.45	0.000170533
3057.13	0.00013345
3065.81	0.000118158
3074.49	8.46072e-05
3083.16	4.13071e-05
3091.84	2.89696e-05
3100.52	2.3676e-05
3109.2	2.11851e-05
3117.88	1.85554e-05
3126.55	1.27925e-05
3135.23	4.8756e-06
3143.91	2.01292e-06
3152.59	1.15956e-06
3161.27	8.49753e-07
3169.95	6.45779e-07
3178.62	6.5703e-07
3187.3	5.47159e-07
3195.98	4.77072e-07
3204.66	3.17651e-07
3213.34	2.82047e-07
3222.01	-8.32574e-08
3230.69	-3.05078e-07
3239.37	-3.42364e-07
3248.05	-3.81831e-07
3256.73	1.30486e-07
3265.41	3.00281e-07
3274.08	1.41298e-07
3282.76	-1.14029e-07
3291.44	-2.57822e-08
3300.12	1.58898e-07
3308.8	5.01402e-09
3317.47	-9.78975e-08
3326.15	-1.14861e-07
3334.83	-7.6369e-08
3343.51	-1.03327e-08
3352.19	-1.12624e-07
3360.87	-1.3468e-07
3369.54	-8.15558e-08
3378.22	2.06663e-08
3386.9	6.63473e-08
3395.58	5.34844e-07
3404.26	4.32008e-07
3412.93	5.70591e-07
3421.61	5.51608e-07
3430.29	4.89717e-07
3438.97	2.91217e-07
3447.65	3.38476e-07
3456.33	3.83458e-07
3465	4.50784e-07
3473.68	2.41842e-07
3482.36	1.10167e-07
3491.04	-1.12377e-07
3499.72	-2.06203e-07
3508.39	-3.04055e-07
3517.07	-1.75155e-07
3525.75	-7.60834e-08
3534.43	-7.49247e-08
3543.11	5.78035e-08
3551.79	4.15662e-07
3560.46	3.41395e-07
3569.14	2.44237e-07
3577.82	8.82878e-08
3586.5	-1.38339e-07
3595.18	-3.0196e-07
3603.85	-4.15601e-07
3612.53	-3.96468e-07
3621.21	-1.96899e-07
3629.89	-4.217e-07
3638.57	-3.18892e-07
3647.25	-4.4997e-07
3655.92	-4.68848e-07
3664.6	-2.83068e-07
3673.28	-1.37837e-07
3681.96	-1.82499e-07
3690.64	-3.69324e-07
3699.31	-2.45131e-07
3707.99	-1.82295e-07
3716.67	-2.00231e-07
3725.35	-6.35279e-09
3734.03	3.51732e-07
3742.71	5.51413e-07
3751.38	4.34354e-07
3760.06	3.43904e-07
3768.74	7.87631e-07
3777.42	6.95914e-07
3786.1	6.55618e-07
3794.77	4.76016e-07
3803.45	1.93326e-07
3812.13	9.41668e-08
3820.81	6.51149e-08
3829.49	5.92008e-07
3838.17	1.44382e-08
3846.84	5.41914e-07
3855.52	3.65269e-07
3864.2	3.04123e-07
3872.88	4.61195e-07
3881.56	6.62814e-07
3890.23	8.75131e-07
3898.91	1.10318e-06
3907.59	1.61614e-06
3916.27	1.84141e-06
3924.95	1.67534e-06
3933.63	1.39991e-06
3942.3	1.33247e-06
3950.98	1.38214e-06
3959.66	1.45446e-06
3968.34	1.55609e-06
