Infrared Spectrum: Toluene
Formula: C H3 C6 H5
CAS: 108-88-3
State: gas
Melting point: -95 C
Boiling point: 110.6 C
Class: IUPAC A
Instrument: IFS66V (Bruker)
Instrument parameters: KBr Beam splitter; MCT Detector; Multipass cell
Sampling: 1 L/min Flow
Resolution: 1.9290
Temperature: 23 C
Pressure: 101.3 kPa
Origin: NIST, Anayltical Chemistry Division, 301-975-3108
cm-1	(micromol/mol)-1m-1 (base 10)
574.687	1.39947e-07
583.365	-2.95687e-07
592.043	-3.03973e-07
600.721	1.68905e-07
609.4	1.02477e-07
618.078	7.22673e-07
626.756	6.09177e-07
635.434	1.04715e-06
644.112	4.81236e-07
652.79	1.15665e-06
661.469	2.51178e-06
670.147	1.55866e-05
678.825	5.21754e-05
687.503	7.82277e-05
696.181	7.74934e-05
704.859	0.000102507
713.537	0.000166287
722.216	0.000184939
730.894	0.000252836
739.572	0.000182606
748.25	7.51155e-05
756.928	1.18501e-05
765.606	1.03623e-06
774.285	2.54846e-06
782.963	1.24754e-06
791.641	2.15125e-06
800.319	3.98122e-07
808.997	6.83303e-07
817.675	9.28352e-08
826.353	7.53907e-07
835.032	2.71804e-07
843.71	5.94901e-07
852.388	6.04199e-07
861.066	1.27439e-06
869.744	1.14804e-06
878.422	2.44762e-06
887.101	2.74963e-06
895.779	3.67473e-06
904.457	3.15144e-06
913.135	2.92049e-06
921.813	3.13424e-06
930.491	4.18168e-06
939.169	2.87334e-06
947.848	2.01219e-06
956.526	1.99741e-06
965.204	2.64818e-06
973.882	3.02673e-06
982.56	2.71843e-06
991.238	2.08115e-06
999.917	1.76747e-06
1008.59	2.16724e-06
1017.27	6.78232e-06
1025.95	2.59514e-05
1034.63	1.88822e-05
1043.31	2.26516e-05
1051.99	1.29153e-05
1060.66	1.28766e-05
1069.34	1.86232e-05
1078.02	2.58681e-05
1086.7	2.46886e-05
1095.38	1.67096e-05
1104.05	7.80089e-06
1112.73	7.93801e-06
1121.41	3.66818e-06
1130.09	1.85445e-06
1138.77	1.78934e-06
1147.45	1.50672e-06
1156.12	2.17002e-06
1164.8	2.23403e-06
1173.48	3.06941e-06
1182.16	2.13479e-06
1190.84	2.34713e-06
1199.51	3.34155e-06
1208.19	4.36642e-06
1216.87	4.83236e-06
1225.55	2.52589e-06
1234.23	2.69027e-06
1242.9	2.79457e-06
1251.58	2.45366e-06
1260.26	1.37785e-06
1268.94	6.32616e-07
1277.62	9.79406e-07
1286.3	1.02379e-06
1294.97	1.66908e-06
1303.65	2.56161e-06
1312.33	2.48575e-06
1321.01	2.27282e-06
1329.69	1.99165e-06
1338.36	1.84223e-06
1347.04	2.69961e-06
1355.72	3.9707e-06
1364.4	5.54623e-06
1373.08	9.81023e-06
1381.76	1.45111e-05
1390.43	1.81856e-05
1399.11	8.7674e-06
1407.79	8.87221e-06
1416.47	1.06035e-05
1425.15	1.07027e-05
1433.82	1.36244e-05
1442.5	2.18782e-05
1451.18	3.38231e-05
1459.86	3.44039e-05
1468.54	3.21232e-05
1477.22	3.06137e-05
1485.89	5.58068e-05
1494.57	9.3963e-05
1503.25	8.58201e-05
1511.93	5.63264e-05
1520.61	2.10694e-05
1529.28	1.98642e-05
1537.96	1.62989e-05
1546.64	1.11393e-05
1555.32	1.05136e-05
1564	1.04956e-05
1572.67	1.22687e-05
1581.35	9.46884e-06
1590.03	1.11184e-05
1598.71	3.37066e-05
1607.39	4.74883e-05
1616.07	4.96624e-05
1624.74	2.397e-05
1633.42	6.4274e-06
1642.1	2.01397e-06
1650.78	1.69605e-06
1659.46	1.84573e-06
1668.13	1.89807e-06
1676.81	1.87984e-06
1685.49	1.40346e-06
1694.17	1.83765e-06
1702.85	1.50265e-06
1711.53	2.12584e-06
1720.2	3.64235e-06
1728.88	5.29253e-06
1737.56	5.62331e-06
1746.24	2.58373e-06
1754.92	1.12426e-06
1763.59	1.98803e-06
1772.27	2.83337e-06
1780.95	5.11155e-06
1789.63	9.63962e-06
1798.31	1.01133e-05
1806.98	1.25428e-05
1815.66	4.30152e-06
1824.34	3.45066e-06
1833.02	2.98473e-06
1841.7	5.28495e-06
1850.38	1.05275e-05
1859.05	1.24521e-05
1867.73	1.11725e-05
1876.41	7.18387e-06
1885.09	2.91214e-06
1893.77	1.29488e-06
1902.44	1.31573e-06
1911.12	1.28753e-06
1919.8	2.7654e-06
1928.48	7.29774e-06
1937.16	1.20369e-05
1945.84	1.61552e-05
1954.51	1.08236e-05
1963.19	6.37641e-06
1971.87	1.96088e-06
1980.55	8.45527e-07
1989.23	1.29242e-06
1997.9	1.13027e-06
2006.58	1.05661e-06
2015.26	6.26618e-07
2023.94	6.62174e-07
2032.62	2.42128e-07
2041.3	1.91151e-07
2049.97	5.35684e-10
2058.65	2.32822e-07
2067.33	1.46911e-07
2076.01	2.8799e-07
2084.69	8.52337e-08
2093.36	2.56498e-07
2102.04	1.30461e-07
2110.72	3.02725e-07
2119.4	1.6045e-07
2128.08	4.23886e-07
2136.75	1.74547e-07
2145.43	3.27771e-07
2154.11	3.96914e-07
2162.79	1.08015e-06
2171.47	1.05975e-06
2180.15	1.10758e-06
2188.82	5.55954e-07
2197.5	6.63559e-07
2206.18	3.8756e-07
2214.86	5.81559e-07
2223.54	4.39401e-07
2232.21	5.58703e-07
2240.89	5.00955e-07
2249.57	1.00051e-06
2258.25	9.34427e-07
2266.93	1.28121e-06
2275.61	1.31088e-06
2284.28	1.44076e-06
2292.96	1.25989e-06
2301.64	1.57991e-06
2310.32	1.47868e-06
2319	2.16435e-06
2327.67	1.83072e-06
2336.35	1.84748e-06
2345.03	2.21272e-06
2353.71	2.22817e-06
2362.39	1.66956e-06
2371.06	1.84728e-06
2379.74	1.03329e-06
2388.42	1.2164e-06
2397.1	1.19701e-06
2405.78	1.67298e-06
2414.46	1.76793e-06
2423.13	2.13097e-06
2431.81	1.2643e-06
2440.49	1.06262e-06
2449.17	7.71933e-07
2457.85	1.02011e-06
2466.52	9.58445e-07
2475.2	9.95086e-07
2483.88	7.14681e-07
2492.56	9.10316e-07
2501.24	9.02814e-07
2509.92	1.05606e-06
2518.59	7.16283e-07
2527.27	8.47589e-07
2535.95	7.01954e-07
2544.63	8.31848e-07
2553.31	6.17822e-07
2561.98	7.5422e-07
2570.66	7.4419e-07
2579.34	1.43937e-06
2588.02	2.17282e-06
2596.7	2.74594e-06
2605.38	1.75725e-06
2614.05	1.4427e-06
2622.73	1.315e-06
2631.41	1.33682e-06
2640.09	1.05322e-06
2648.77	9.80353e-07
2657.44	6.32308e-07
2666.12	7.13829e-07
2674.8	4.65078e-07
2683.48	6.68039e-07
2692.16	4.87137e-07
2700.83	5.88644e-07
2709.51	4.91907e-07
2718.19	8.95077e-07
2726.87	1.38935e-06
2735.55	4.82911e-06
2744.23	7.62452e-06
2752.9	6.9583e-06
2761.58	1.98274e-06
2770.26	1.42666e-06
2778.94	1.46677e-06
2787.62	1.95929e-06
2796.29	1.96493e-06
2804.97	2.31867e-06
2813.65	2.98246e-06
2822.33	4.20865e-06
2831.01	4.86035e-06
2839.69	6.48077e-06
2848.36	9.43472e-06
2857.04	1.77206e-05
2865.72	3.36474e-05
2874.4	5.42168e-05
2883.08	6.71127e-05
2891.75	6.09216e-05
2900.43	4.48499e-05
2909.11	4.1126e-05
2917.79	6.08317e-05
2926.47	0.000103605
2935.14	0.000119823
2943.82	0.000114102
2952.5	7.01931e-05
2961.18	5.30939e-05
2969.86	3.7309e-05
2978.54	3.83949e-05
2987.21	4.4434e-05
2995.89	4.7636e-05
3004.57	6.85834e-05
3013.25	7.16694e-05
3021.93	0.000120811
3030.6	0.000217107
3039.28	0.000220576
3047.96	0.000199157
3056.64	0.000108266
3065.32	0.000118621
3074	0.000144088
3082.67	0.000126917
3091.35	9.32522e-05
3100.03	7.49062e-05
3108.71	4.54766e-05
3117.39	2.84668e-05
3126.06	1.62877e-05
3134.74	7.39584e-06
3143.42	1.94282e-06
3152.1	1.45469e-06
3160.78	1.31978e-06
3169.46	1.67786e-06
3178.13	1.3667e-06
3186.81	1.28766e-06
3195.49	1.66864e-07
3204.17	2.28267e-07
3212.85	-2.21004e-08
3221.52	3.40202e-07
3230.2	-8.95911e-08
3238.88	1.43971e-07
3247.56	1.24662e-07
3256.24	4.30569e-07
3264.91	2.90323e-07
3273.59	6.3023e-07
3282.27	3.87058e-07
3290.95	5.95799e-07
3299.63	3.17235e-07
3308.31	4.49124e-07
3316.98	3.38856e-07
3325.66	6.50207e-07
3334.34	6.66088e-07
3343.02	8.41079e-07
3351.7	5.00513e-07
3360.37	5.83007e-07
3369.05	4.75424e-07
3377.73	7.9857e-07
3386.41	6.07936e-07
3395.09	6.69485e-07
3403.77	3.93534e-07
3412.44	5.45224e-07
3421.12	2.02763e-07
3429.8	6.1776e-07
3438.48	4.71192e-07
3447.16	7.38918e-07
3455.83	4.18514e-07
3464.51	5.02781e-07
3473.19	1.31864e-07
3481.87	1.97516e-07
3490.55	1.63886e-07
3499.22	3.61979e-07
3507.9	8.94164e-08
3516.58	3.54579e-07
3525.26	4.6131e-07
3533.94	3.70985e-07
3542.62	2.11541e-07
3551.29	4.51623e-07
3559.97	3.84372e-07
3568.65	4.34621e-07
3577.33	1.23089e-07
3586.01	3.03102e-07
3594.68	2.91451e-07
3603.36	5.33727e-07
3612.04	1.11328e-07
3620.72	5.18579e-07
3629.4	1.44303e-07
3638.08	7.77622e-07
3646.75	7.18982e-07
3655.43	1.17715e-06
3664.11	1.08307e-06
3672.79	9.65299e-07
3681.47	6.39447e-07
3690.14	6.94988e-07
3698.82	4.55576e-07
3707.5	5.53478e-07
3716.18	5.03629e-07
3724.86	5.91573e-07
3733.54	4.63305e-07
3742.21	3.50576e-07
3750.89	3.54037e-07
3759.57	2.71468e-07
3768.25	2.28641e-07
3776.93	4.61492e-07
3785.6	4.38663e-07
3794.28	8.56335e-07
3802.96	7.17578e-07
3811.64	7.97224e-07
3820.32	5.58713e-07
3828.99	1.04488e-06
3837.67	5.33158e-07
3846.35	1.40926e-06
3855.03	1.29627e-06
3863.71	1.57498e-06
3872.39	1.09819e-06
3881.06	9.86388e-07
3889.74	7.56237e-07
3898.42	9.31449e-07
3907.1	9.59533e-07
3915.78	1.18356e-06
3924.45	1.05627e-06
3933.13	1.10983e-06
3941.81	8.33294e-07
3950.49	8.98775e-07
3959.17	7.17814e-07
3967.85	1.00704e-06
