Infrared Spectrum: Toluene
Formula: C H3 C6 H5
CAS: 108-88-3
State: gas
Melting point: -95 C
Boiling point: 110.6 C
Class: IUPAC A
Instrument: IFS66V (Bruker)
Instrument parameters: KBr Beam splitter; MCT Detector; Multipass cell
Sampling: 1 L/min Flow
Resolution: 1.9290
Temperature: 23 C
Pressure: 101.3 kPa
Origin: NIST, Anayltical Chemistry Division, 301-975-3108
cm-1	(micromol/mol)-1m-1 (base 10)
574.687	5.68971e-08
583.365	-3.15352e-07
592.043	-5.99484e-08
600.721	7.72149e-10
609.4	2.64756e-07
618.078	3.76837e-07
626.756	6.61998e-07
635.434	7.93415e-07
644.112	7.32187e-07
652.79	7.64416e-07
661.469	3.11761e-06
670.147	1.51719e-05
678.825	5.51856e-05
687.503	7.31859e-05
696.181	9.25232e-05
704.859	0.00010692
713.537	0.000162322
722.216	0.000195261
730.894	0.000332348
739.572	0.000178187
748.25	7.7164e-05
756.928	1.10219e-05
765.606	1.8948e-06
774.285	1.97049e-06
782.963	1.71843e-06
791.641	1.79786e-06
800.319	6.69044e-07
808.997	4.29276e-07
817.675	3.43607e-07
826.353	4.68962e-07
835.032	4.23033e-07
843.71	4.02415e-07
852.388	7.15835e-07
861.066	1.05714e-06
869.744	1.38028e-06
878.422	2.22514e-06
887.101	3.03236e-06
895.779	5.88826e-06
904.457	3.24115e-06
913.135	2.84549e-06
921.813	3.29977e-06
930.491	4.10136e-06
939.169	2.94297e-06
947.848	1.93312e-06
956.526	2.05894e-06
965.204	2.65698e-06
973.882	3.15684e-06
982.56	2.69996e-06
991.238	2.12019e-06
999.917	1.81524e-06
1008.59	2.09345e-06
1017.27	7.10887e-06
1025.95	2.43143e-05
1034.63	1.78549e-05
1043.31	2.28327e-05
1051.99	1.20661e-05
1060.66	1.32097e-05
1069.34	1.84066e-05
1078.02	2.56526e-05
1086.7	2.41876e-05
1095.38	1.69975e-05
1104.05	7.87328e-06
1112.73	8.0144e-06
1121.41	3.52507e-06
1130.09	1.98143e-06
1138.77	1.62689e-06
1147.45	1.69157e-06
1156.12	2.03254e-06
1164.8	2.42548e-06
1173.48	2.86646e-06
1182.16	2.3447e-06
1190.84	2.22755e-06
1199.51	3.51007e-06
1208.19	4.26453e-06
1216.87	4.88853e-06
1225.55	2.47109e-06
1234.23	2.82622e-06
1242.9	3.05527e-06
1251.58	2.55384e-06
1260.26	1.26704e-06
1268.94	7.85895e-07
1277.62	8.42706e-07
1286.3	1.17729e-06
1294.97	1.56647e-06
1303.65	2.70058e-06
1312.33	2.36639e-06
1321.01	2.40451e-06
1329.69	1.85531e-06
1338.36	1.96579e-06
1347.04	2.57871e-06
1355.72	3.96681e-06
1364.4	5.41595e-06
1373.08	9.92818e-06
1381.76	1.4909e-05
1390.43	1.80191e-05
1399.11	8.69339e-06
1407.79	8.81935e-06
1416.47	1.05008e-05
1425.15	1.06643e-05
1433.82	1.34666e-05
1442.5	2.25339e-05
1451.18	3.33053e-05
1459.86	3.50021e-05
1468.54	3.25081e-05
1477.22	3.03608e-05
1485.89	5.4561e-05
1494.57	9.39965e-05
1503.25	8.67141e-05
1511.93	5.70629e-05
1520.61	2.12417e-05
1529.28	1.9869e-05
1537.96	1.63013e-05
1546.64	1.12497e-05
1555.32	1.0301e-05
1564	1.04253e-05
1572.67	1.19024e-05
1581.35	9.52776e-06
1590.03	1.10717e-05
1598.71	3.37682e-05
1607.39	4.82861e-05
1616.07	4.87591e-05
1624.74	2.35355e-05
1633.42	6.69948e-06
1642.1	1.91759e-06
1650.78	1.71669e-06
1659.46	1.7385e-06
1668.13	1.88169e-06
1676.81	1.71191e-06
1685.49	1.51104e-06
1694.17	1.54744e-06
1702.85	1.57052e-06
1711.53	1.98999e-06
1720.2	3.72358e-06
1728.88	5.08216e-06
1737.56	5.69484e-06
1746.24	2.48461e-06
1754.92	1.21679e-06
1763.59	1.82612e-06
1772.27	3.09443e-06
1780.95	5.05069e-06
1789.63	9.85281e-06
1798.31	1.04464e-05
1806.98	1.21653e-05
1815.66	4.34577e-06
1824.34	3.48498e-06
1833.02	2.94972e-06
1841.7	5.40445e-06
1850.38	1.03491e-05
1859.05	1.21925e-05
1867.73	1.10889e-05
1876.41	7.19778e-06
1885.09	2.91906e-06
1893.77	1.38468e-06
1902.44	1.22889e-06
1911.12	1.35229e-06
1919.8	2.68963e-06
1928.48	7.4045e-06
1937.16	1.1888e-05
1945.84	1.60245e-05
1954.51	1.08105e-05
1963.19	6.36626e-06
1971.87	1.93676e-06
1980.55	9.4813e-07
1989.23	1.24065e-06
1997.9	1.20265e-06
2006.58	9.89288e-07
2015.26	7.12375e-07
2023.94	5.76226e-07
2032.62	3.10029e-07
2041.3	1.35034e-07
2049.97	8.3262e-08
2058.65	1.49797e-07
2067.33	2.28915e-07
2076.01	2.15951e-07
2084.69	1.74773e-07
2093.36	1.8431e-07
2102.04	1.93383e-07
2110.72	2.38616e-07
2119.4	2.5202e-07
2128.08	3.06672e-07
2136.75	2.60111e-07
2145.43	2.32112e-07
2154.11	4.65449e-07
2162.79	1.00021e-06
2171.47	1.14201e-06
2180.15	1.03125e-06
2188.82	6.37768e-07
2197.5	6.00748e-07
2206.18	4.78675e-07
2214.86	5.01492e-07
2223.54	4.8134e-07
2232.21	4.79029e-07
2240.89	5.74406e-07
2249.57	8.93062e-07
2258.25	1.03121e-06
2266.93	1.18023e-06
2275.61	1.383e-06
2284.28	1.33776e-06
2292.96	1.33161e-06
2301.64	1.47206e-06
2310.32	1.63364e-06
2319	2.04635e-06
2327.67	1.93158e-06
2336.35	1.80139e-06
2345.03	2.27451e-06
2353.71	2.1391e-06
2362.39	1.75959e-06
2371.06	1.74673e-06
2379.74	1.12616e-06
2388.42	1.13704e-06
2397.1	1.28024e-06
2405.78	1.5634e-06
2414.46	1.85382e-06
2423.13	2.02064e-06
2431.81	1.38432e-06
2440.49	9.84547e-07
2449.17	8.4663e-07
2457.85	9.33499e-07
2466.52	1.01683e-06
2475.2	9.11805e-07
2483.88	7.88561e-07
2492.56	8.50615e-07
2501.24	9.88427e-07
2509.92	9.49711e-07
2518.59	7.76153e-07
2527.27	7.45202e-07
2535.95	7.77504e-07
2544.63	7.38434e-07
2553.31	7.27685e-07
2561.98	6.48557e-07
2570.66	8.29022e-07
2579.34	1.37702e-06
2588.02	2.23213e-06
2596.7	2.61954e-06
2605.38	1.88096e-06
2614.05	1.3629e-06
2622.73	1.36586e-06
2631.41	1.21651e-06
2640.09	1.13049e-06
2648.77	9.028e-07
2657.44	6.96895e-07
2666.12	6.06234e-07
2674.8	5.36082e-07
2683.48	5.55511e-07
2692.16	5.50933e-07
2700.83	5.28906e-07
2709.51	5.87209e-07
2718.19	8.15788e-07
2726.87	1.48341e-06
2735.55	4.70175e-06
2744.23	7.34642e-06
2752.9	6.75647e-06
2761.58	2.0927e-06
2770.26	1.33922e-06
2778.94	1.53651e-06
2787.62	1.83794e-06
2796.29	2.01548e-06
2804.97	2.25414e-06
2813.65	3.05154e-06
2822.33	4.09721e-06
2831.01	4.92909e-06
2839.69	6.44851e-06
2848.36	9.53804e-06
2857.04	1.76901e-05
2865.72	3.37058e-05
2874.4	5.43375e-05
2883.08	6.72241e-05
2891.75	6.0936e-05
2900.43	4.50749e-05
2909.11	4.14474e-05
2917.79	6.07483e-05
2926.47	0.000103342
2935.14	0.000119792
2943.82	0.00011345
2952.5	7.08027e-05
2961.18	5.24086e-05
2969.86	3.7413e-05
2978.54	3.83327e-05
2987.21	4.36652e-05
2995.89	4.83611e-05
3004.57	6.6878e-05
3013.25	7.22194e-05
3021.93	0.000119959
3030.6	0.000215013
3039.28	0.000219417
3047.96	0.000198093
3056.64	0.000108978
3065.32	0.00011814
3074	0.00013837
3082.67	0.000125778
3091.35	9.29102e-05
3100.03	7.41503e-05
3108.71	4.56428e-05
3117.39	2.83769e-05
3126.06	1.65034e-05
3134.74	7.30493e-06
3143.42	2.08266e-06
3152.1	1.3379e-06
3160.78	1.3614e-06
3169.46	1.56276e-06
3178.13	1.51965e-06
3186.81	1.18693e-06
3195.49	2.75692e-07
3204.17	1.50191e-07
3212.85	1.01268e-07
3221.52	2.24147e-07
3230.2	5.64551e-08
3238.88	8.80559e-08
3247.56	2.09503e-07
3256.24	2.99604e-07
3264.91	3.97596e-07
3273.59	5.16767e-07
3282.27	4.64871e-07
3290.95	4.62472e-07
3299.63	4.08748e-07
3308.31	3.82087e-07
3316.98	4.13059e-07
3325.66	5.4359e-07
3334.34	7.08154e-07
3343.02	7.33708e-07
3351.7	5.65597e-07
3360.37	5.29315e-07
3369.05	5.63227e-07
3377.73	7.02084e-07
3386.41	6.4204e-07
3395.09	5.93798e-07
3403.77	4.99922e-07
3412.44	4.46446e-07
3421.12	3.34481e-07
3429.8	5.00686e-07
3438.48	5.65404e-07
3447.16	6.47703e-07
3455.83	4.77877e-07
3464.51	3.9852e-07
3473.19	2.40655e-07
3481.87	1.48646e-07
3490.55	2.05349e-07
3499.22	2.30827e-07
3507.9	1.95569e-07
3516.58	2.62886e-07
3525.26	4.56917e-07
3533.94	3.00393e-07
3542.62	3.25336e-07
3551.29	3.78492e-07
3559.97	4.42345e-07
3568.65	3.74075e-07
3577.33	2.3587e-07
3586.01	2.85092e-07
3594.68	3.73388e-07
3603.36	4.66393e-07
3612.04	2.23381e-07
3620.72	3.45648e-07
3629.4	3.47084e-07
3638.08	7.09265e-07
3646.75	8.66423e-07
3655.43	1.11772e-06
3664.11	1.18511e-06
3672.79	8.49008e-07
3681.47	6.57459e-07
3690.14	5.05525e-07
3698.82	5.47479e-07
3707.5	5.05709e-07
3716.18	5.66591e-07
3724.86	5.39085e-07
3733.54	3.99033e-07
3742.21	3.00428e-07
3750.89	1.31819e-07
3759.57	2.47461e-07
3768.25	2.89388e-07
3776.93	3.82395e-07
3785.6	5.34103e-07
3794.28	7.76995e-07
3802.96	6.80232e-07
3811.64	7.75391e-07
3820.32	6.82798e-07
3828.99	9.63502e-07
3837.67	9.01348e-07
3846.35	1.34848e-06
3855.03	1.29504e-06
3863.71	1.39162e-06
3872.39	1.16616e-06
3881.06	9.14386e-07
3889.74	8.19446e-07
3898.42	8.2053e-07
3907.1	9.91087e-07
3915.78	1.12038e-06
3924.45	1.19006e-06
3933.13	1.00316e-06
3941.81	9.26016e-07
3950.49	8.66291e-07
3959.17	8.60336e-07
3967.85	9.31338e-07
