Infrared Spectrum: Ethenyl Ester-Acetic Acid
Formula: C H3 C O2 C H: C H2
CAS: 108-05-4
State: gas
Melting point: -93.2 C
Boiling point: 72.2 C
Class: IUPAC A
Instrument: IFS66V (Bruker)
Instrument parameters: KBr Beam splitter; MCT Detector; Multipass cell
Sampling: 1 L/min Flow
Resolution: 0.1250
Temperature: 23 C
Pressure: 101.3 kPa
Origin: NIST, Anayltical Chemistry Division, 301-975-3108
cm-1	(micromol/mol)-1m-1 (base 10)
574.988	1.06237e-05
583.546	1.97432e-05
592.103	3.71031e-05
600.661	2.8669e-05
609.219	3.20964e-05
617.776	3.38975e-05
626.334	4.18615e-05
634.891	4.2189e-05
643.449	4.1783e-05
652.007	2.74373e-05
660.564	1.42994e-05
669.122	6.56107e-06
677.68	4.63986e-06
686.237	6.16456e-06
694.795	9.06687e-06
703.352	1.06019e-05
711.91	1.16002e-05
720.468	1.01176e-05
729.025	7.63157e-06
737.583	6.08192e-06
746.141	5.46848e-06
754.698	6.1448e-06
763.256	7.29019e-06
771.813	9.4702e-06
780.371	9.7911e-06
788.929	9.47019e-06
797.486	8.99927e-06
806.044	9.7507e-06
814.602	1.30609e-05
823.159	1.99164e-05
831.717	3.76703e-05
840.274	7.9069e-05
848.832	0.000104188
857.39	0.000159686
865.947	0.000156607
874.505	0.000217225
883.063	0.000145838
891.62	9.42793e-05
900.178	3.63067e-05
908.735	1.47253e-05
917.293	1.57243e-05
925.851	3.4287e-05
934.408	6.99856e-05
942.966	0.000104766
951.524	0.000131786
960.081	0.000106316
968.639	0.00012316
977.196	0.000101981
985.754	9.83675e-05
994.312	6.60135e-05
1002.87	0.000110142
1011.43	0.000234899
1019.98	0.000348517
1028.54	0.00031244
1037.1	0.000171985
1045.66	7.72562e-05
1054.22	6.60715e-05
1062.77	6.05401e-05
1071.33	5.44863e-05
1079.89	4.64938e-05
1088.45	3.81572e-05
1097	3.12355e-05
1105.56	2.96179e-05
1114.12	3.32997e-05
1122.68	5.43985e-05
1131.23	0.000205921
1139.79	0.000890932
1148.35	0.000962255
1156.91	0.000773
1165.46	8.01997e-05
1174.02	4.75049e-05
1182.58	6.60382e-05
1191.14	0.000115395
1199.69	0.00029775
1208.25	0.00104512
1216.81	0.00256437
1225.37	0.00283019
1233.93	0.00200801
1242.48	0.000392227
1251.04	0.000228406
1259.6	0.000193462
1268.16	7.36331e-05
1276.71	5.57171e-05
1285.27	0.00012362
1293.83	0.000171467
1302.39	0.000168868
1310.94	6.60886e-05
1319.5	2.1795e-05
1328.06	1.36736e-05
1336.62	1.24696e-05
1345.17	1.7305e-05
1353.73	4.27297e-05
1362.29	0.00016409
1370.85	0.000350522
1379.4	0.000440729
1387.96	0.000270653
1396.52	0.000106886
1405.08	3.65111e-05
1413.64	2.74677e-05
1422.19	3.05719e-05
1430.75	3.89719e-05
1439.31	3.71734e-05
1447.87	3.56774e-05
1456.42	2.9214e-05
1464.98	2.32763e-05
1473.54	2.0548e-05
1482.1	1.96589e-05
1490.65	1.72821e-05
1499.21	1.57859e-05
1507.77	1.46936e-05
1516.33	1.39167e-05
1524.88	1.27236e-05
1533.44	1.14969e-05
1542	1.01289e-05
1550.56	1.25728e-05
1559.11	1.61061e-05
1567.67	1.82571e-05
1576.23	1.86927e-05
1584.79	2.17534e-05
1593.35	2.25061e-05
1601.9	2.30243e-05
1610.46	2.75914e-05
1619.02	3.8219e-05
1627.58	4.70847e-05
1636.13	0.000107561
1644.69	0.000418272
1653.25	0.00055266
1661.81	0.000446366
1670.36	6.20698e-05
1678.92	2.51284e-05
1687.48	1.69297e-05
1696.04	1.39335e-05
1704.59	1.38026e-05
1713.15	1.18442e-05
1721.71	1.25554e-05
1730.27	2.00545e-05
1738.83	2.82005e-05
1747.38	6.06268e-05
1755.94	0.000146241
1764.5	0.000382835
1773.06	0.00101412
1781.61	0.001075
1790.17	0.00148505
1798.73	0.00061636
1807.29	0.000213501
1815.84	5.53405e-05
1824.4	2.32143e-05
1832.96	2.05367e-05
1841.52	1.81e-05
1850.07	2.17135e-05
1858.63	2.63058e-05
1867.19	2.84892e-05
1875.75	2.53122e-05
1884.3	1.72917e-05
1892.86	1.4491e-05
1901.42	1.42865e-05
1909.98	1.14148e-05
1918.54	6.62411e-06
1927.09	4.30019e-06
1935.65	4.47812e-06
1944.21	5.20102e-06
1952.77	5.25209e-06
1961.32	5.27009e-06
1969.88	4.7197e-06
1978.44	7.18019e-06
1987	1.29377e-05
1995.55	1.35792e-05
2004.11	1.06557e-05
2012.67	5.50443e-06
2021.23	5.4237e-06
2029.78	5.38223e-06
2038.34	6.242e-06
2046.9	1.06918e-05
2055.46	2.09935e-05
2064.01	2.7682e-05
2072.57	2.63035e-05
2081.13	1.19679e-05
2089.69	6.66902e-06
2098.25	5.55726e-06
2106.8	6.10172e-06
2115.36	7.18973e-06
2123.92	7.30833e-06
2132.48	6.00336e-06
2141.03	3.87434e-06
2149.59	4.30411e-06
2158.15	4.53525e-06
2166.71	4.75698e-06
2175.26	4.41487e-06
2183.82	3.31023e-06
2192.38	2.47069e-06
2200.94	2.00217e-06
2209.49	2.43102e-06
2218.05	3.66913e-06
2226.61	4.84789e-06
2235.17	4.55259e-06
2243.72	3.62268e-06
2252.28	2.8506e-06
2260.84	2.23783e-06
2269.4	3.23953e-06
2277.96	8.10905e-06
2286.51	1.12234e-05
2295.07	1.10221e-05
2303.63	3.46486e-06
2312.19	1.18601e-06
2320.74	1.1431e-06
2329.3	1.5323e-06
2337.86	2.67772e-06
2346.42	3.40504e-06
2354.97	4.21201e-06
2363.53	3.6806e-06
2372.09	3.13932e-06
2380.65	2.40378e-06
2389.2	1.49616e-06
2397.76	1.8327e-06
2406.32	2.55661e-06
2414.88	3.70291e-06
2423.44	5.5467e-06
2431.99	8.12818e-06
2440.55	8.24752e-06
2449.11	6.48476e-06
2457.67	2.89967e-06
2466.22	1.93556e-06
2474.78	1.67864e-06
2483.34	1.58072e-06
2491.9	1.85875e-06
2500.45	1.98054e-06
2509.01	1.09659e-06
2517.57	7.40187e-07
2526.13	6.5667e-07
2534.68	4.37598e-07
2543.24	3.03993e-07
2551.8	2.32328e-07
2560.36	2.50452e-07
2568.91	3.95847e-07
2577.47	1.05471e-06
2586.03	1.76222e-06
2594.59	1.90788e-06
2603.15	1.47918e-06
2611.7	1.11289e-06
2620.26	1.69974e-06
2628.82	2.04635e-06
2637.38	2.13643e-06
2645.93	1.02866e-06
2654.49	8.64218e-07
2663.05	1.02102e-06
2671.61	1.10593e-06
2680.16	9.6804e-07
2688.72	6.31249e-07
2697.28	3.77051e-07
2705.84	3.96546e-07
2714.39	3.58003e-07
2722.95	4.69876e-07
2731.51	5.5507e-07
2740.07	1.52e-06
2748.62	2.8835e-06
2757.18	2.67191e-06
2765.74	3.10138e-06
2774.3	1.33961e-06
2782.86	1.06193e-06
2791.41	1.38107e-06
2799.97	1.64586e-06
2808.53	9.38305e-07
2817.09	7.1008e-07
2825.64	6.82015e-07
2834.2	7.64775e-07
2842.76	1.1772e-06
2851.32	2.05614e-06
2859.87	2.32527e-06
2868.43	2.31756e-06
2876.99	1.53706e-06
2885.55	1.17558e-06
2894.1	1.1369e-06
2902.66	1.17194e-06
2911.22	1.26543e-06
2919.78	1.39258e-06
2928.34	2.33381e-06
2936.89	4.60459e-06
2945.45	9.54396e-06
2954.01	1.08179e-05
2962.57	1.24098e-05
2971.12	9.27129e-06
2979.68	9.00688e-06
2988.24	9.99799e-06
2996.8	1.21523e-05
3005.35	1.13757e-05
3013.91	1.15549e-05
3022.47	1.37454e-05
3031.03	1.70557e-05
3039.58	1.88434e-05
3048.14	2.05764e-05
3056.7	2.21582e-05
3065.26	2.34519e-05
3073.81	1.87978e-05
3082.37	1.74631e-05
3090.93	3.45577e-05
3099.49	4.16478e-05
3108.05	4.79322e-05
3116.6	1.91273e-05
3125.16	2.63734e-05
3133.72	2.05001e-05
3142.28	1.85208e-05
3150.83	5.66444e-06
3159.39	2.62179e-06
3167.95	1.73006e-06
3176.51	1.23955e-06
3185.06	1.04813e-06
3193.62	9.82603e-07
3202.18	8.0729e-07
3210.74	6.62673e-07
3219.29	4.50927e-07
3227.85	2.68921e-07
3236.41	5.54001e-08
3244.97	6.53203e-08
3253.52	6.92091e-08
3262.08	-5.43997e-08
3270.64	-4.65675e-08
3279.2	-1.25562e-07
3287.76	1.06427e-07
3296.31	4.28969e-08
3304.87	-7.35454e-08
3313.43	-3.65206e-07
3321.99	-5.20606e-07
3330.54	-2.33219e-07
3339.1	-5.38831e-08
3347.66	-1.74796e-08
3356.22	1.73414e-08
3364.77	-2.55916e-07
3373.33	-1.12332e-07
3381.89	-4.56071e-08
3390.45	-8.03954e-08
3399	-1.3465e-07
3407.56	-1.41721e-07
3416.12	-2.55963e-07
3424.68	-7.372e-08
3433.23	8.00934e-08
3441.79	-5.09583e-08
3450.35	-1.00531e-07
3458.91	1.63563e-07
3467.47	9.94102e-08
3476.02	3.70255e-08
3484.58	-1.38793e-07
3493.14	-1.13379e-07
3501.7	-1.29204e-07
3510.25	2.99034e-07
3518.81	1.2891e-06
3527.37	4.11879e-06
3535.93	1.10374e-05
3544.48	1.48055e-05
3553.04	1.67662e-05
3561.6	8.72964e-06
3570.16	2.63372e-06
3578.71	3.997e-07
3587.27	-2.00887e-07
3595.83	-2.67906e-07
3604.39	-4.65718e-07
3612.95	-5.45081e-07
3621.5	-5.79967e-07
3630.06	-5.50039e-07
3638.62	-5.10205e-07
3647.18	-6.62662e-07
3655.73	-3.85359e-07
3664.29	-3.14935e-07
3672.85	-4.05742e-07
3681.41	-3.88426e-07
3689.96	-4.43943e-07
3698.52	-5.12733e-07
3707.08	-3.65606e-07
3715.64	-4.51764e-07
3724.19	-4.11522e-07
3732.75	-4.20937e-07
3741.31	-6.42639e-07
3749.87	-7.53996e-07
3758.42	-4.40399e-07
3766.98	-3.12596e-07
3775.54	-3.0854e-07
3784.1	-4.40556e-07
3792.66	-3.43467e-07
3801.21	-9.53471e-07
3809.77	-3.43001e-07
3818.33	-4.39581e-07
3826.89	-5.1524e-07
3835.44	-2.38578e-07
3844	-3.47563e-07
3852.56	-4.67392e-07
3861.12	-2.05143e-07
3869.67	-4.12159e-07
3878.23	-1.17214e-07
3886.79	-1.62733e-07
3895.35	-2.87059e-08
3903.9	6.3636e-08
3912.46	1.68539e-07
3921.02	2.85931e-08
3929.58	1.22336e-07
3938.13	1.19513e-07
3946.69	2.49462e-07
3955.25	2.7214e-07
3963.81	6.41995e-07
3972.37	1.14913e-06
