Infrared Spectrum: 1,3-Dimethylbenzene
Formula: 1,3-( C H3)2 C6 H4
CAS: 108-38-3
State: gas
Melting point: -47.87 C
Boiling point: 139.1 C
Class: IUPAC A
Instrument: IFS66V (Bruker)
Instrument parameters: KBr Beam Splitter; MCT Detector; Multipass cell
Sampling: 1 L/min Flow
Resolution: 0.9640
Temperature: 23 C
Pressure: 101.3 Pa
Origin: NIST, Analytical Chemistry Division, 301-975-3108
cm-1	(micromol/mol)-1m-1 (base 10)
575.17	-1.27229e-06
583.848	-4.67145e-07
592.526	-6.05175e-08
601.205	-3.8843e-07
609.883	-4.51416e-07
618.561	-1.92461e-07
627.239	-2.83891e-07
635.917	-5.6764e-07
644.595	-8.42715e-08
653.274	8.48732e-07
661.952	2.44921e-06
670.63	1.03299e-05
679.308	4.26033e-05
687.986	7.64614e-05
696.665	6.36537e-05
705.343	3.27716e-05
714.021	5.14618e-06
722.699	1.53869e-06
731.377	1.57763e-06
740.055	3.90746e-06
748.734	3.41497e-05
757.412	0.000134231
766.09	0.000296231
774.768	0.000167672
783.446	7.50643e-05
792.125	8.25638e-06
800.803	1.64308e-06
809.481	1.03758e-06
818.159	5.86675e-07
826.837	4.90302e-07
835.515	5.72573e-07
844.194	6.11936e-07
852.872	1.5081e-06
861.55	7.82911e-06
870.228	1.39781e-05
878.906	1.32395e-05
887.584	1.11164e-05
896.263	1.27702e-05
904.941	1.67572e-05
913.619	1.18415e-05
922.297	1.19607e-06
930.975	1.44359e-06
939.654	2.21683e-06
948.332	2.62235e-06
957.01	3.12644e-06
965.688	4.00354e-06
974.366	4.96833e-06
983.044	4.29653e-06
991.723	5.32881e-06
1000.4	8.42525e-06
1009.08	1.00713e-05
1017.76	7.36527e-06
1026.44	6.22287e-06
1035.11	1.1508e-05
1043.79	2.43198e-05
1052.47	1.93244e-05
1061.15	1.39175e-05
1069.83	8.78906e-06
1078.5	9.06205e-06
1087.18	2.0966e-05
1095.86	1.9389e-05
1104.54	1.76393e-05
1113.22	6.12385e-06
1121.9	4.72087e-06
1130.57	4.49679e-06
1139.25	2.84527e-06
1147.93	2.69216e-06
1156.61	4.04867e-06
1165.29	9.35064e-06
1173.96	6.41309e-06
1182.64	3.47354e-06
1191.32	2.39287e-06
1200	1.96619e-06
1208.68	1.42388e-06
1217.36	1.18106e-06
1226.03	1.11986e-06
1234.71	1.58111e-06
1243.39	3.03104e-06
1252.07	3.06803e-06
1260.75	3.58904e-06
1269.42	2.85155e-06
1278.1	1.97316e-06
1286.78	1.51648e-06
1295.46	1.89116e-06
1304.14	2.04322e-06
1312.82	2.15088e-06
1321.49	2.16387e-06
1330.17	2.41529e-06
1338.85	2.68216e-06
1347.53	3.89026e-06
1356.21	6.32383e-06
1364.88	9.49289e-06
1373.56	1.80024e-05
1382.24	2.97108e-05
1390.92	2.85914e-05
1399.6	1.89542e-05
1408.28	1.59012e-05
1416.95	1.72877e-05
1425.63	1.87668e-05
1434.31	2.69753e-05
1442.99	3.93618e-05
1451.67	4.68132e-05
1460.34	4.17681e-05
1469.02	4.8793e-05
1477.7	5.88106e-05
1486.38	8.46096e-05
1495.06	0.000107212
1503.74	0.000103606
1512.41	6.83629e-05
1521.09	4.97487e-05
1529.77	4.72648e-05
1538.45	4.03281e-05
1547.13	2.54681e-05
1555.8	1.76486e-05
1564.48	1.5981e-05
1573.16	1.76405e-05
1581.84	1.92649e-05
1590.52	3.22519e-05
1599.2	4.86405e-05
1607.87	0.000102585
1616.55	0.000134239
1625.23	0.000107727
1633.91	1.05121e-05
1642.59	5.0094e-06
1651.26	6.53103e-06
1659.94	5.07451e-06
1668.62	1.8156e-06
1677.3	7.75546e-07
1685.98	5.61396e-07
1694.66	9.13233e-07
1703.33	1.24606e-06
1712.01	1.40211e-06
1720.69	1.20485e-06
1729.37	2.96848e-06
1738.05	7.22768e-06
1746.72	6.51877e-06
1755.4	7.31341e-06
1764.08	6.28657e-06
1772.76	7.41269e-06
1781.44	6.79436e-06
1790.12	1.8874e-06
1798.79	9.56304e-07
1807.47	1.72058e-06
1816.15	2.10485e-06
1824.83	1.80947e-06
1833.51	3.29234e-06
1842.18	5.87441e-06
1850.86	1.25744e-05
1859.54	1.04857e-05
1868.22	1.83079e-06
1876.9	1.16334e-06
1885.58	9.9491e-07
1894.25	1.09572e-06
1902.93	1.72263e-06
1911.61	3.10433e-06
1920.29	6.04189e-06
1928.97	1.20487e-05
1937.64	1.14284e-05
1946.32	3.61138e-06
1955	3.6789e-07
1963.68	1.09407e-07
1972.36	1.84543e-07
1981.04	6.19345e-08
1989.71	8.48463e-09
1998.39	6.90303e-10
2007.07	-6.03056e-08
2015.75	-7.71448e-08
2024.43	2.87999e-08
2033.1	-2.0919e-07
2041.78	-3.31206e-07
2050.46	-4.61678e-07
2059.14	-4.04998e-07
2067.82	-1.85061e-07
2076.5	-1.56461e-07
2085.17	-6.63537e-08
2093.85	-1.88486e-07
2102.53	2.67804e-07
2111.21	7.51651e-07
2119.89	2.16259e-08
2128.56	-3.10845e-07
2137.24	-1.63397e-07
2145.92	7.03745e-08
2154.6	2.63709e-07
2163.28	-1.91148e-07
2171.96	-1.44542e-07
2180.63	-2.41079e-07
2189.31	-2.56899e-07
2197.99	-2.6888e-07
2206.67	-3.71136e-08
2215.35	4.18211e-08
2224.02	-3.76711e-08
2232.7	-2.84035e-07
2241.38	-1.17301e-07
2250.06	-5.68822e-08
2258.74	3.863e-07
2267.42	6.74336e-07
2276.09	9.0553e-07
2284.77	1.36755e-06
2293.45	1.73737e-06
2302.13	6.48192e-07
2310.81	5.0191e-07
2319.48	9.0488e-07
2328.16	1.20916e-06
2336.84	1.71436e-06
2345.52	1.57156e-06
2354.2	1.54707e-06
2362.88	1.38862e-06
2371.55	8.87914e-07
2380.23	6.99525e-07
2388.91	1.22411e-06
2397.59	1.24938e-06
2406.27	1.32648e-06
2414.94	1.8008e-06
2423.62	1.93607e-06
2432.3	1.66719e-06
2440.98	1.34472e-06
2449.66	1.36321e-06
2458.34	1.3299e-06
2467.01	1.43577e-06
2475.69	1.243e-06
2484.37	1.35826e-06
2493.05	1.27021e-06
2501.73	1.13258e-06
2510.4	7.08653e-07
2519.08	4.39417e-07
2527.76	3.58852e-07
2536.44	1.07598e-06
2545.12	1.30506e-06
2553.8	5.14303e-07
2562.47	4.30092e-07
2571.15	3.56464e-07
2579.83	1.71151e-07
2588.51	4.04454e-07
2597.19	5.36953e-07
2605.86	5.70258e-07
2614.54	6.27373e-07
2623.22	8.06162e-07
2631.9	8.26856e-07
2640.58	8.51388e-07
2649.26	6.21391e-07
2657.93	3.18659e-07
2666.61	1.72819e-07
2675.29	1.65185e-07
2683.97	-8.78204e-09
2692.65	2.78411e-07
2701.32	3.84997e-07
2710	7.51633e-07
2718.68	1.47547e-06
2727.36	3.06921e-06
2736.04	1.11226e-05
2744.72	1.19262e-05
2753.39	7.2128e-06
2762.07	2.57039e-06
2770.75	1.85135e-06
2779.43	1.84839e-06
2788.11	2.10749e-06
2796.78	2.85188e-06
2805.46	3.67245e-06
2814.14	5.00956e-06
2822.82	7.2841e-06
2831.5	9.67322e-06
2840.18	1.33066e-05
2848.85	2.17033e-05
2857.53	4.15321e-05
2866.21	8.19369e-05
2874.89	0.00011843
2883.57	0.00011796
2892.24	9.43393e-05
2900.92	9.41515e-05
2909.6	0.000111295
2918.28	0.000147036
2926.96	0.000217656
2935.63	0.000257741
2944.31	0.000230453
2952.99	0.000139529
2961.67	9.78126e-05
2970.35	6.99829e-05
2979.03	7.3092e-05
2987.7	8.79036e-05
2996.38	0.000109401
3005.06	0.000136006
3013.74	0.000175819
3022.42	0.00021805
3031.09	0.000239876
3039.77	0.000211409
3048.45	0.000170539
3057.13	0.000133449
3065.81	0.000118151
3074.49	8.46068e-05
3083.16	4.13009e-05
3091.84	2.8969e-05
3100.52	2.36766e-05
3109.2	2.1186e-05
3117.88	1.8557e-05
3126.55	1.27932e-05
3135.23	4.87421e-06
3143.91	2.01143e-06
3152.59	1.16008e-06
3161.27	8.48459e-07
3169.95	6.46956e-07
3178.62	6.56435e-07
3187.3	5.47731e-07
3195.98	4.76888e-07
3204.66	3.15637e-07
3213.34	2.81891e-07
3222.01	-8.18232e-08
3230.69	-3.05086e-07
3239.37	-3.40868e-07
3248.05	-3.84609e-07
3256.73	1.30885e-07
3265.41	3.01181e-07
3274.08	1.39851e-07
3282.76	-1.14751e-07
3291.44	-2.57131e-08
3300.12	1.60872e-07
3308.8	6.26366e-09
3317.47	-9.75837e-08
3326.15	-1.14152e-07
3334.83	-7.87291e-08
3343.51	-1.04737e-08
3352.19	-1.1291e-07
3360.87	-1.35546e-07
3369.54	-7.95276e-08
3378.22	1.92375e-08
3386.9	6.36889e-08
3395.58	5.3503e-07
3404.26	4.32442e-07
3412.93	5.74415e-07
3421.61	5.53019e-07
3430.29	4.92709e-07
3438.97	2.91673e-07
3447.65	3.38694e-07
3456.33	3.84508e-07
3465	4.53373e-07
3473.68	2.42159e-07
3482.36	1.1174e-07
3491.04	-1.09379e-07
3499.72	-2.04669e-07
3508.39	-3.03992e-07
3517.07	-1.74226e-07
3525.75	-7.45764e-08
3534.43	-7.51985e-08
3543.11	5.72824e-08
3551.79	4.13388e-07
3560.46	3.42624e-07
3569.14	2.46285e-07
3577.82	8.83315e-08
3586.5	-1.38501e-07
3595.18	-3.05517e-07
3603.85	-4.19452e-07
3612.53	-3.98372e-07
3621.21	-1.95476e-07
3629.89	-4.22246e-07
3638.57	-3.18202e-07
3647.25	-4.5236e-07
3655.92	-4.71722e-07
3664.6	-2.83802e-07
3673.28	-1.36715e-07
3681.96	-1.81893e-07
3690.64	-3.69292e-07
3699.31	-2.45836e-07
3707.99	-1.83027e-07
3716.67	-2.00986e-07
3725.35	-4.09634e-09
3734.03	3.54094e-07
3742.71	5.5384e-07
3751.38	4.38655e-07
3760.06	3.42799e-07
3768.74	7.89536e-07
3777.42	6.96683e-07
3786.1	6.54514e-07
3794.77	4.76876e-07
3803.45	1.94247e-07
3812.13	9.55065e-08
3820.81	6.59935e-08
3829.49	5.95279e-07
3838.17	8.86753e-09
3846.84	5.4316e-07
3855.52	3.6866e-07
3864.2	3.0774e-07
3872.88	4.61079e-07
3881.56	6.61717e-07
3890.23	8.76585e-07
3898.91	1.10356e-06
3907.59	1.61673e-06
3916.27	1.84363e-06
3924.95	1.67479e-06
3933.63	1.40111e-06
3942.3	1.33046e-06
3950.98	1.38205e-06
3959.66	1.45517e-06
3968.34	1.55831e-06
