Infrared Spectrum: Toluene
Formula: C H3 C6 H5
CAS: 108-88-3
State: gas
Melting point: -95 C
Boiling point: 110.6 C
Class: IUPAC A
Instrument: IFS66V (Bruker)
Instrument parameters: KBr Beam splitter; MCT Detector; Multipass cell
Sampling: 1 L/min Flow
Resolution: 0.2410
Temperature: 23 C
Pressure: 101.3 kPa
Origin: NIST, Anayltical Chemistry Division, 301-975-3108
cm-1	(micromol/mol)-1m-1 (base 10)
575.048	-2.58874e-08
583.606	-4.22279e-07
592.163	-3.86994e-07
600.721	1.98865e-07
609.279	2.75881e-07
617.836	4.52834e-07
626.394	5.44438e-07
634.951	6.34394e-07
643.509	1.04154e-06
652.067	7.51771e-07
660.624	2.58423e-06
669.182	1.26138e-05
677.74	4.6644e-05
686.297	7.13081e-05
694.855	0.000102725
703.412	0.000103975
711.97	0.000151329
720.528	0.000186857
729.085	0.000813051
737.643	0.000186742
746.201	0.000104716
754.758	2.05818e-05
763.316	2.42537e-06
771.873	1.63127e-06
780.431	2.35028e-06
788.989	1.0616e-06
797.546	1.20792e-06
806.104	4.45438e-07
814.662	3.02164e-07
823.219	4.13186e-07
831.777	3.9632e-07
840.334	4.70228e-07
848.892	7.69049e-07
857.45	9.00744e-07
866.007	1.1116e-06
874.565	2.02846e-06
883.123	2.71646e-06
891.68	4.02158e-06
900.238	3.16458e-06
908.795	3.0517e-06
917.353	3.08299e-06
925.911	3.52578e-06
934.468	3.9018e-06
943.026	2.58558e-06
951.584	1.75899e-06
960.141	2.37539e-06
968.699	2.95716e-06
977.256	2.89769e-06
985.814	2.45324e-06
994.372	2.11643e-06
1002.93	1.77981e-06
1011.49	2.57781e-06
1020.04	1.31456e-05
1028.6	1.84555e-05
1037.16	2.61511e-05
1045.72	1.84098e-05
1054.28	1.26418e-05
1062.83	1.37716e-05
1071.39	2.10149e-05
1079.95	1.96512e-05
1088.51	2.37431e-05
1097.06	1.5927e-05
1105.62	8.26663e-06
1114.18	7.01323e-06
1122.74	3.13354e-06
1131.29	1.85752e-06
1139.85	1.61256e-06
1148.41	1.74544e-06
1156.97	2.17276e-06
1165.52	2.51328e-06
1174.08	2.81102e-06
1182.64	2.3648e-06
1191.2	2.18816e-06
1199.75	3.59274e-06
1208.31	4.24608e-06
1216.87	4.98368e-06
1225.43	2.36374e-06
1233.99	2.7943e-06
1242.54	2.77873e-06
1251.1	2.68216e-06
1259.66	1.30494e-06
1268.22	8.54686e-07
1276.77	8.50065e-07
1285.33	1.08217e-06
1293.89	1.53247e-06
1302.45	2.6129e-06
1311	2.01553e-06
1319.56	2.49427e-06
1328.12	1.88263e-06
1336.68	1.85273e-06
1345.23	2.39296e-06
1353.79	3.43642e-06
1362.35	4.90391e-06
1370.91	8.65783e-06
1379.46	1.28962e-05
1388.02	1.75524e-05
1396.58	1.07206e-05
1405.14	8.30212e-06
1413.7	9.08293e-06
1422.25	1.37432e-05
1430.81	1.21431e-05
1439.37	1.84916e-05
1447.93	2.9973e-05
1456.48	3.24818e-05
1465.04	3.24304e-05
1473.6	3.3296e-05
1482.16	3.26085e-05
1490.71	9.14714e-05
1499.27	0.000103393
1507.83	9.99593e-05
1516.39	3.15202e-05
1524.94	2.47277e-05
1533.5	1.83376e-05
1542.06	1.33143e-05
1550.62	1.0107e-05
1559.18	1.15596e-05
1567.73	8.74249e-06
1576.29	1.02049e-05
1584.85	8.8418e-06
1593.41	1.73271e-05
1601.96	4.05867e-05
1610.52	4.5063e-05
1619.08	3.84802e-05
1627.64	1.90859e-05
1636.19	3.54847e-06
1644.75	1.83137e-06
1653.31	2.08236e-07
1661.87	1.97131e-06
1670.42	1.81315e-06
1678.98	1.75661e-06
1687.54	1.52054e-06
1696.1	9.02138e-07
1704.65	1.46849e-06
1713.21	2.19296e-06
1721.77	4.25941e-06
1730.33	4.40829e-06
1738.89	5.48597e-06
1747.44	2.19689e-06
1756	1.25768e-06
1764.56	1.9865e-06
1773.12	3.55333e-06
1781.67	5.07221e-06
1790.23	1.05316e-05
1798.79	9.65517e-06
1807.35	1.23945e-05
1815.9	4.09613e-06
1824.46	3.50205e-06
1833.02	2.92188e-06
1841.58	5.30044e-06
1850.13	1.04306e-05
1858.69	1.17423e-05
1867.25	1.15151e-05
1875.81	6.9358e-06
1884.36	3.30645e-06
1892.92	1.40356e-06
1901.48	1.18957e-06
1910.04	1.27044e-06
1918.6	2.35031e-06
1927.15	6.28652e-06
1935.71	1.24016e-05
1944.27	1.43225e-05
1952.83	1.26794e-05
1961.38	6.01584e-06
1969.94	2.91665e-06
1978.5	8.14736e-07
1987.06	1.17242e-06
1995.61	1.42407e-06
2004.17	1.15736e-06
2012.73	7.67128e-07
2021.29	5.84633e-07
2029.84	4.05269e-07
2038.4	1.27913e-07
2046.96	1.6288e-07
2055.52	2.13544e-07
2064.08	1.51408e-07
2072.63	2.09545e-07
2081.19	2.64748e-07
2089.75	1.66928e-07
2098.31	2.04557e-07
2106.86	1.42949e-07
2115.42	3.01137e-07
2123.98	3.1138e-07
2132.54	2.79384e-07
2141.09	2.48344e-07
2149.65	2.07801e-07
2158.21	7.83416e-07
2166.77	1.06133e-06
2175.32	1.35707e-06
2183.88	7.60791e-07
2192.44	7.93208e-07
2201	4.86786e-07
2209.55	5.32392e-07
2218.11	5.01817e-07
2226.67	4.3646e-07
2235.23	4.91019e-07
2243.79	6.14454e-07
2252.34	9.50348e-07
2260.9	9.62223e-07
2269.46	1.28493e-06
2278.02	1.4829e-06
2286.57	1.28633e-06
2295.13	1.254e-06
2303.69	1.68552e-06
2312.25	1.74446e-06
2320.8	2.05607e-06
2329.36	1.93986e-06
2337.92	1.8621e-06
2346.48	2.23683e-06
2355.03	2.164e-06
2363.59	1.42928e-06
2372.15	1.58581e-06
2380.71	1.16515e-06
2389.26	1.24411e-06
2397.82	1.32427e-06
2406.38	1.63017e-06
2414.94	1.77712e-06
2423.5	1.98398e-06
2432.05	1.32618e-06
2440.61	9.70207e-07
2449.17	8.35658e-07
2457.73	9.71066e-07
2466.28	1.01145e-06
2474.84	9.28263e-07
2483.4	7.63026e-07
2491.96	8.46725e-07
2500.51	1.05499e-06
2509.07	9.0072e-07
2517.63	7.32919e-07
2526.19	7.27607e-07
2534.74	7.96148e-07
2543.3	7.60134e-07
2551.86	8.21693e-07
2560.42	5.7424e-07
2568.98	7.62733e-07
2577.53	1.18455e-06
2586.09	2.13194e-06
2594.65	2.44521e-06
2603.21	2.312e-06
2611.76	1.61879e-06
2620.32	1.26429e-06
2628.88	1.20535e-06
2637.44	1.19668e-06
2645.99	9.15827e-07
2654.55	8.28938e-07
2663.11	7.06312e-07
2671.67	5.85891e-07
2680.22	5.3378e-07
2688.78	5.4728e-07
2697.34	5.36575e-07
2705.9	5.67395e-07
2714.45	7.4578e-07
2723.01	1.03225e-06
2731.57	2.90499e-06
2740.13	5.19478e-06
2748.69	6.12745e-06
2757.24	3.47658e-06
2765.8	1.51713e-06
2774.36	1.43778e-06
2782.92	1.59337e-06
2791.47	1.93833e-06
2800.03	2.21964e-06
2808.59	2.47105e-06
2817.15	3.54122e-06
2825.7	4.23013e-06
2834.26	5.75251e-06
2842.82	7.16536e-06
2851.38	1.17445e-05
2859.93	2.21111e-05
2868.49	3.9526e-05
2877.05	6.21393e-05
2885.61	6.60286e-05
2894.16	5.76143e-05
2902.72	4.14045e-05
2911.28	4.51378e-05
2919.84	6.81403e-05
2928.4	0.000107882
2936.95	0.000119432
2945.51	0.000107408
2954.07	6.7436e-05
2962.63	5.13018e-05
2971.18	3.50692e-05
2979.74	3.94139e-05
2988.3	4.07095e-05
2996.86	5.18751e-05
3005.41	6.70438e-05
3013.97	7.47165e-05
3022.53	0.000127251
3031.09	0.000218566
3039.64	0.00022217
3048.2	0.000195221
3056.76	0.000108097
3065.32	0.000118512
3073.88	0.000147362
3082.43	0.000128803
3090.99	9.55215e-05
3099.55	7.41498e-05
3108.11	4.77612e-05
3116.66	2.95175e-05
3125.22	1.72732e-05
3133.78	8.43858e-06
3142.34	2.37149e-06
3150.89	1.27099e-06
3159.45	1.2089e-06
3168.01	1.46922e-06
3176.57	1.5544e-06
3185.12	1.37381e-06
3193.68	3.75384e-07
3202.24	1.97934e-07
3210.8	1.97116e-07
3219.35	1.36846e-07
3227.91	1.12167e-07
3236.47	2.63706e-07
3245.03	1.99178e-07
3253.59	2.76845e-07
3262.14	1.8593e-07
3270.7	4.14916e-07
3279.26	3.80019e-07
3287.82	3.98068e-07
3296.37	4.04e-07
3304.93	4.74842e-07
3313.49	3.12525e-07
3322.05	5.27051e-07
3330.6	7.05415e-07
3339.16	7.00034e-07
3347.72	5.76652e-07
3356.28	4.02109e-07
3364.83	5.69185e-07
3373.39	7.15951e-07
3381.95	6.74847e-07
3390.51	4.55955e-07
3399.06	6.29341e-07
3407.62	4.56123e-07
3416.18	3.4783e-07
3424.74	3.88645e-07
3433.3	4.03696e-07
3441.85	5.73223e-07
3450.41	6.65462e-07
3458.97	5.49109e-07
3467.53	3.04626e-07
3476.08	1.14256e-07
3484.64	2.44062e-07
3493.2	9.39193e-08
3501.76	2.00529e-07
3510.31	4.50736e-07
3518.87	1.4942e-07
3527.43	3.54129e-07
3535.99	2.70166e-07
3544.54	2.5481e-07
3553.1	4.97349e-07
3561.66	4.14752e-07
3570.22	4.46912e-07
3578.78	3.01965e-07
3587.33	4.88843e-07
3595.89	3.64038e-07
3604.45	5.29846e-07
3613.01	2.03636e-07
3621.56	3.95189e-07
3630.12	4.88636e-07
3638.68	7.49569e-07
3647.24	8.27123e-07
3655.79	1.07794e-06
3664.35	9.97596e-07
3672.91	9.52345e-07
3681.47	6.36644e-07
3690.02	4.83951e-07
3698.58	5.59928e-07
3707.14	5.84256e-07
3715.7	4.57651e-07
3724.25	5.55931e-07
3732.81	4.60673e-07
3741.37	2.46608e-07
3749.93	2.02095e-07
3758.49	3.44007e-07
3767.04	3.16889e-07
3775.6	4.48026e-07
3784.16	5.01849e-07
3792.72	7.09494e-07
3801.27	3.07823e-08
3809.83	7.36114e-07
3818.39	7.97239e-07
3826.95	8.14028e-07
3835.5	1.07757e-06
3844.06	1.14479e-06
3852.62	1.49927e-06
3861.18	1.44071e-06
3869.73	1.22836e-06
3878.29	9.81198e-07
3886.85	8.41914e-07
3895.41	8.89795e-07
3903.96	7.50334e-07
3912.52	1.08722e-06
3921.08	1.36195e-06
3929.64	1.08168e-06
3938.2	1.12771e-06
3946.75	7.56985e-07
3955.31	9.11281e-07
3963.87	8.78991e-07
3972.43	9.35869e-07
