Infrared Spectrum: 1,3-Dimethylbenzene
Formula: 1,3-( C H3)2 C6 H4
CAS: 108-38-3
State: gas
Melting point: -47.87 C
Boiling point: 139.1 C
Class: IUPAC A
Instrument: IFS66V (Bruker)
Instrument parameters: KBr Beam Splitter; MCT Detector; Multipass cell
Sampling: 1 L/min Flow
Resolution: 0.2410
Temperature: 23 C
Pressure: 101.3 Pa
Origin: NIST, Analytical Chemistry Division, 301-975-3108
cm-1	(micromol/mol)-1m-1 (base 10)
575.05	-3.31704e-06
583.608	-2.67111e-07
592.165	-4.9131e-07
600.723	-2.47759e-07
609.281	-2.86036e-07
617.838	1.83138e-07
626.396	1.15192e-07
634.954	-4.51229e-07
643.511	-5.35662e-08
652.069	4.13604e-07
660.626	2.62901e-06
669.184	7.67762e-06
677.742	3.71981e-05
686.299	5.83719e-05
694.857	6.66519e-05
703.415	4.33567e-05
711.972	7.40463e-06
720.53	9.9047e-07
729.088	1.56388e-06
737.645	1.53106e-06
746.203	1.74703e-05
754.761	0.00010529
763.318	0.00017302
771.876	0.000166069
780.434	0.000120467
788.991	1.94422e-05
797.549	2.37829e-06
806.106	6.92717e-07
814.664	2.71571e-07
823.222	9.07233e-07
831.779	1.69283e-07
840.337	-2.32027e-07
848.895	1.30047e-06
857.452	4.44132e-06
866.01	1.16343e-05
874.568	3.48144e-05
883.125	1.308e-05
891.683	9.07852e-06
900.241	1.68939e-05
908.798	1.32319e-05
917.356	3.66385e-06
925.914	9.5066e-07
934.471	1.47846e-06
943.029	2.13515e-06
951.586	2.7885e-06
960.144	3.13473e-06
968.702	4.76698e-06
977.259	4.71695e-06
985.817	4.63827e-06
994.375	6.05805e-06
1002.93	9.27658e-06
1011.49	9.05178e-06
1020.05	6.36762e-06
1028.61	6.93365e-06
1037.16	1.30841e-05
1045.72	2.1188e-05
1054.28	1.90686e-05
1062.84	1.21636e-05
1071.39	8.0662e-06
1079.95	1.02064e-05
1088.51	2.36953e-05
1097.07	2.04555e-05
1105.62	1.52306e-05
1114.18	5.77497e-06
1122.74	4.55334e-06
1131.3	4.23155e-06
1139.85	2.7698e-06
1148.41	3.04092e-06
1156.97	3.80793e-06
1165.53	9.33156e-06
1174.09	6.40707e-06
1182.64	3.5531e-06
1191.2	2.44872e-06
1199.76	1.91074e-06
1208.32	1.48629e-06
1216.87	1.17518e-06
1225.43	1.14929e-06
1233.99	1.37034e-06
1242.55	2.7492e-06
1251.1	2.9527e-06
1259.66	3.54525e-06
1268.22	2.53961e-06
1276.78	1.88944e-06
1285.33	1.63741e-06
1293.89	1.4591e-06
1302.45	1.65782e-06
1311.01	2.19075e-06
1319.57	2.2072e-06
1328.12	2.59584e-06
1336.68	2.75506e-06
1345.24	3.53514e-06
1353.8	5.54866e-06
1362.35	8.59016e-06
1370.91	1.37738e-05
1379.47	2.66751e-05
1388.03	3.37226e-05
1396.58	1.97312e-05
1405.14	1.6077e-05
1413.7	1.68603e-05
1422.26	1.86311e-05
1430.81	2.15791e-05
1439.37	3.56506e-05
1447.93	4.49762e-05
1456.49	4.33682e-05
1465.05	4.36253e-05
1473.6	5.23419e-05
1482.16	6.78831e-05
1490.72	9.43855e-05
1499.28	0.000107776
1507.83	9.11514e-05
1516.39	5.81634e-05
1524.95	4.74969e-05
1533.51	4.46931e-05
1542.06	3.61836e-05
1550.62	2.07887e-05
1559.18	1.66193e-05
1567.74	1.66488e-05
1576.29	1.62963e-05
1584.85	2.2467e-05
1593.41	3.87725e-05
1601.97	6.7176e-05
1610.53	0.000137612
1619.08	0.000163464
1627.64	6.71128e-05
1636.2	7.48172e-06
1644.76	5.05751e-06
1653.31	4.39025e-06
1661.87	5.22464e-06
1670.43	1.39073e-06
1678.99	5.73122e-07
1687.54	5.9356e-07
1696.1	1.26123e-07
1704.66	1.01952e-06
1713.22	1.38746e-06
1721.77	1.32458e-06
1730.33	3.10159e-06
1738.89	7.74488e-06
1747.45	6.5798e-06
1756.01	7.17953e-06
1764.56	6.52042e-06
1773.12	7.48805e-06
1781.68	6.61888e-06
1790.24	1.82843e-06
1798.79	1.01706e-06
1807.35	1.71528e-06
1815.91	2.08762e-06
1824.47	1.85703e-06
1833.02	3.06192e-06
1841.58	5.57564e-06
1850.14	1.32538e-05
1858.7	9.70461e-06
1867.25	2.50157e-06
1875.81	1.16694e-06
1884.37	1.07049e-06
1892.93	1.13728e-06
1901.49	1.49652e-06
1910.04	2.6637e-06
1918.6	5.16285e-06
1927.16	1.12674e-05
1935.72	8.45392e-06
1944.27	5.48623e-06
1952.83	6.35131e-07
1961.39	7.64472e-08
1969.95	3.19211e-07
1978.5	1.38751e-07
1987.06	6.62109e-10
1995.62	-4.4374e-09
2004.18	-8.54311e-08
2012.73	-7.16724e-08
2021.29	-5.08187e-08
2029.85	-1.95157e-07
2038.41	-2.59621e-07
2046.97	-4.1181e-07
2055.52	-4.719e-07
2064.08	-3.01582e-07
2072.64	1.21126e-08
2081.2	9.55974e-08
2089.75	-2.67038e-07
2098.31	1.62211e-07
2106.87	4.1298e-07
2115.43	6.80074e-07
2123.98	-3.35519e-07
2132.54	-4.72169e-07
2141.1	-1.48217e-07
2149.66	9.61758e-08
2158.21	6.8147e-07
2166.77	-1.2324e-07
2175.33	-9.19385e-08
2183.89	-1.5801e-07
2192.45	-2.28096e-07
2201	-2.95827e-07
2209.56	2.02884e-07
2218.12	2.15183e-07
2226.68	-7.23681e-09
2235.23	-1.84626e-07
2243.79	-9.0537e-08
2252.35	-7.59515e-08
2260.91	4.48627e-07
2269.46	4.34003e-07
2278.02	8.18774e-07
2286.58	1.48004e-06
2295.14	1.53027e-06
2303.69	5.54717e-07
2312.25	5.71468e-07
2320.81	9.79436e-07
2329.37	1.30198e-06
2337.93	1.90853e-06
2346.48	1.6599e-06
2355.04	1.06812e-06
2363.6	1.10646e-06
2372.16	6.7721e-07
2380.71	8.00163e-07
2389.27	1.3056e-06
2397.83	1.24435e-06
2406.39	1.11357e-06
2414.94	1.78528e-06
2423.5	1.76651e-06
2432.06	1.72288e-06
2440.62	1.28404e-06
2449.17	1.44974e-06
2457.73	1.32556e-06
2466.29	1.17436e-06
2474.85	1.17676e-06
2483.41	1.40315e-06
2491.96	1.10229e-06
2500.52	1.13637e-06
2509.08	8.87901e-07
2517.64	4.26331e-07
2526.19	4.57603e-07
2534.75	1.1187e-06
2543.31	1.19251e-06
2551.87	7.51891e-07
2560.42	3.75148e-07
2568.98	3.04403e-07
2577.54	1.8469e-07
2586.1	3.61948e-07
2594.65	2.291e-07
2603.21	5.5133e-07
2611.77	6.18639e-07
2620.33	6.18581e-07
2628.89	7.6088e-07
2637.44	9.6874e-07
2646	7.38733e-07
2654.56	5.25875e-07
2663.12	3.65618e-07
2671.67	3.00577e-08
2680.23	4.33645e-08
2688.79	1.31369e-07
2697.35	-1.32884e-07
2705.9	3.40662e-07
2714.46	1.16941e-06
2723.02	1.85419e-06
2731.58	5.88321e-06
2740.13	1.13501e-05
2748.69	1.52373e-05
2757.25	3.99286e-06
2765.81	2.09292e-06
2774.37	1.65632e-06
2782.92	1.7831e-06
2791.48	2.24482e-06
2800.04	3.16475e-06
2808.6	4.11267e-06
2817.15	5.69023e-06
2825.71	7.87814e-06
2834.27	1.05262e-05
2842.83	1.48367e-05
2851.38	2.5403e-05
2859.94	5.05083e-05
2868.5	9.45052e-05
2877.06	0.000121414
2885.61	0.000112914
2894.17	9.21337e-05
2902.73	9.75389e-05
2911.29	0.000115119
2919.85	0.00015833
2928.4	0.000227454
2936.96	0.000257961
2945.52	0.000221948
2954.08	0.00013496
2962.63	9.51493e-05
2971.19	6.85014e-05
2979.75	7.479e-05
2988.31	8.91887e-05
2996.86	0.000110376
3005.42	0.000137727
3013.98	0.000176856
3022.54	0.000218564
3031.09	0.000240085
3039.65	0.00021204
3048.21	0.000172318
3056.77	0.000133823
3065.33	0.000117503
3073.88	8.9101e-05
3082.44	4.32186e-05
3091	3.01573e-05
3099.56	2.40038e-05
3108.11	2.12947e-05
3116.67	1.92398e-05
3125.23	1.40102e-05
3133.79	5.86532e-06
3142.34	2.3282e-06
3150.9	1.27964e-06
3159.46	8.01088e-07
3168.02	7.04991e-07
3176.57	4.46687e-07
3185.13	5.436e-07
3193.69	3.10393e-07
3202.25	4.20179e-07
3210.81	5.24118e-07
3219.36	-1.46864e-07
3227.92	-5.1069e-07
3236.48	-6.09414e-07
3245.04	-6.25096e-07
3253.59	9.73082e-08
3262.15	4.84383e-07
3270.71	6.03205e-07
3279.27	6.34015e-08
3287.82	5.28823e-08
3296.38	2.40958e-07
3304.94	1.59796e-07
3313.5	-7.90956e-08
3322.05	-1.44257e-07
3330.61	-2.35052e-07
3339.17	-4.45377e-08
3347.73	-3.53637e-08
3356.29	-5.58754e-08
3364.84	-2.84762e-07
3373.4	1.76971e-07
3381.96	3.36802e-08
3390.52	4.24361e-07
3399.07	1.11003e-08
3407.63	2.37446e-07
3416.19	9.12855e-08
3424.75	2.37971e-07
3433.3	4.77754e-07
3441.86	3.2274e-07
3450.42	9.1921e-07
3458.98	8.97698e-07
3467.53	6.5156e-07
3476.09	6.95623e-08
3484.65	-2.72069e-07
3493.21	-2.28557e-07
3501.77	-4.14389e-07
3510.32	-6.49174e-07
3518.88	-1.30851e-07
3527.44	-4.31691e-07
3536	-2.57686e-08
3544.55	2.64442e-07
3553.11	4.96783e-07
3561.67	7.01217e-08
3570.23	2.9251e-07
3578.78	1.71258e-07
3587.34	-4.83958e-08
3595.9	1.99632e-07
3604.46	-6.23184e-07
3613.01	-4.21538e-07
3621.57	-2.9321e-07
3630.13	-7.60961e-08
3638.69	-4.98513e-07
3647.25	-4.98572e-07
3655.8	-3.50033e-07
3664.36	-5.3838e-07
3672.92	1.3546e-07
3681.48	-2.51469e-07
3690.03	-3.71456e-07
3698.59	-3.5271e-07
3707.15	-1.81571e-08
3715.71	-1.88736e-07
3724.26	-4.62922e-07
3732.82	3.55715e-07
3741.38	5.55524e-07
3749.94	4.33698e-07
3758.49	4.17305e-07
3767.05	7.36153e-07
3775.61	9.06291e-07
3784.17	8.56121e-07
3792.73	4.61192e-07
3801.28	-8.98626e-07
3809.84	3.66516e-07
3818.4	1.52105e-07
3826.96	1.65002e-07
3835.51	7.45688e-07
3844.07	6.19583e-07
3852.63	1.21516e-07
3861.19	2.53758e-07
3869.74	2.22884e-07
3878.3	5.13825e-07
3886.86	1.14731e-06
3895.42	9.79926e-07
3903.97	1.31046e-06
3912.53	1.62668e-06
3921.09	1.70758e-06
3929.65	1.58721e-06
3938.21	1.11512e-06
3946.76	1.45555e-06
3955.32	1.296e-06
3963.88	1.73536e-06
3972.44	1.46113e-06
