Infrared Spectrum: Ethenyl Ester-Acetic Acid
Formula: C H3 C O2 C H: C H2
CAS: 108-05-4
State: gas
Melting point: -93.2 C
Boiling point: 72.2 C
Class: IUPAC A
Instrument: IFS66V (Bruker)
Instrument parameters: KBr Beam splitter; MCT Detector; Multipass cell
Sampling: 1 L/min Flow
Resolution: 0.1250
Temperature: 23 C
Pressure: 101.3 kPa
Origin: NIST, Anayltical Chemistry Division, 301-975-3108
cm-1	(micromol/mol)-1m-1 (base 10)
574.988	1.06718e-05
583.546	1.97752e-05
592.103	3.7178e-05
600.661	2.87237e-05
609.219	3.21305e-05
617.776	3.38663e-05
626.334	4.17444e-05
634.891	4.22087e-05
643.449	4.18142e-05
652.007	2.74322e-05
660.564	1.42916e-05
669.122	6.53167e-06
677.68	4.6003e-06
686.237	6.15681e-06
694.795	9.07804e-06
703.352	1.05685e-05
711.91	1.16227e-05
720.468	1.01084e-05
729.025	7.57048e-06
737.583	6.077e-06
746.141	5.45777e-06
754.698	6.14169e-06
763.256	7.26267e-06
771.813	9.43631e-06
780.371	9.75743e-06
788.929	9.45481e-06
797.486	8.97365e-06
806.044	9.72493e-06
814.602	1.30002e-05
823.159	1.98599e-05
831.717	3.76326e-05
840.274	7.9132e-05
848.832	0.000104135
857.39	0.000159805
865.947	0.000156464
874.505	0.000217363
883.063	0.000145912
891.62	9.42621e-05
900.178	3.62313e-05
908.735	1.46088e-05
917.293	1.56167e-05
925.851	3.41739e-05
934.408	6.9956e-05
942.966	0.000104756
951.524	0.00013171
960.081	0.000106001
968.639	0.000123261
977.196	0.000101944
985.754	9.83658e-05
994.312	6.58327e-05
1002.87	0.000109985
1011.43	0.00023499
1019.98	0.000348914
1028.54	0.000312578
1037.1	0.000171844
1045.66	7.70629e-05
1054.22	6.59769e-05
1062.77	6.04652e-05
1071.33	5.44109e-05
1079.89	4.64239e-05
1088.45	3.80452e-05
1097	3.11214e-05
1105.56	2.94696e-05
1114.12	3.30583e-05
1122.68	5.40016e-05
1131.23	0.000205044
1139.79	0.000892957
1148.35	0.000964093
1156.91	0.000774308
1165.46	7.9178e-05
1174.02	4.69347e-05
1182.58	6.55063e-05
1191.14	0.000114645
1199.69	0.000296443
1208.25	0.0010443
1216.81	0.00256881
1225.37	0.00283706
1233.93	0.00201048
1242.48	0.0003902
1251.04	0.000227632
1259.6	0.000193345
1268.16	7.31938e-05
1276.71	5.5369e-05
1285.27	0.000123504
1293.83	0.000171517
1302.39	0.000169038
1310.94	6.59084e-05
1319.5	2.16189e-05
1328.06	1.35441e-05
1336.62	1.23373e-05
1345.17	1.71385e-05
1353.73	4.2525e-05
1362.29	0.000163997
1370.85	0.000350764
1379.4	0.000441481
1387.96	0.000270823
1396.52	0.000106721
1405.08	3.63025e-05
1413.64	2.73726e-05
1422.19	3.04933e-05
1430.75	3.89609e-05
1439.31	3.71428e-05
1447.87	3.56384e-05
1456.42	2.9154e-05
1464.98	2.31966e-05
1473.54	2.05055e-05
1482.1	1.96254e-05
1490.65	1.72362e-05
1499.21	1.57625e-05
1507.77	1.46903e-05
1516.33	1.3885e-05
1524.88	1.26994e-05
1533.44	1.14858e-05
1542	1.00511e-05
1550.56	1.25511e-05
1559.11	1.61087e-05
1567.67	1.82194e-05
1576.23	1.86027e-05
1584.79	2.17253e-05
1593.35	2.24612e-05
1601.9	2.29743e-05
1610.46	2.75248e-05
1619.02	3.81379e-05
1627.58	4.69115e-05
1636.13	0.000107258
1644.69	0.00041913
1653.25	0.000556153
1661.81	0.00044741
1670.36	6.16335e-05
1678.92	2.49387e-05
1687.48	1.6808e-05
1696.04	1.36822e-05
1704.59	1.37011e-05
1713.15	1.17486e-05
1721.71	1.24327e-05
1730.27	1.99262e-05
1738.83	2.79928e-05
1747.38	6.03641e-05
1755.94	0.000145822
1764.5	0.000382396
1773.06	0.0010154
1781.61	0.00107519
1790.17	0.00148929
1798.73	0.000615979
1807.29	0.000213047
1815.84	5.49218e-05
1824.4	2.29793e-05
1832.96	2.03938e-05
1841.52	1.79997e-05
1850.07	2.16512e-05
1858.63	2.6264e-05
1867.19	2.84697e-05
1875.75	2.52929e-05
1884.3	1.72627e-05
1892.86	1.44559e-05
1901.42	1.42647e-05
1909.98	1.14109e-05
1918.54	6.59935e-06
1927.09	4.28562e-06
1935.65	4.45362e-06
1944.21	5.17961e-06
1952.77	5.23293e-06
1961.32	5.26341e-06
1969.88	4.69844e-06
1978.44	7.15839e-06
1987	1.29534e-05
1995.55	1.35801e-05
2004.11	1.06553e-05
2012.67	5.50066e-06
2021.23	5.41318e-06
2029.78	5.3642e-06
2038.34	6.2218e-06
2046.9	1.06788e-05
2055.46	2.09926e-05
2064.01	2.77e-05
2072.57	2.63391e-05
2081.13	1.19519e-05
2089.69	6.66423e-06
2098.25	5.55156e-06
2106.8	6.09781e-06
2115.36	7.20408e-06
2123.92	7.30972e-06
2132.48	5.99866e-06
2141.03	3.87818e-06
2149.59	4.29655e-06
2158.15	4.52373e-06
2166.71	4.76054e-06
2175.26	4.4123e-06
2183.82	3.30353e-06
2192.38	2.4604e-06
2200.94	1.98853e-06
2209.49	2.42655e-06
2218.05	3.66477e-06
2226.61	4.85169e-06
2235.17	4.54715e-06
2243.72	3.6194e-06
2252.28	2.85181e-06
2260.84	2.22807e-06
2269.4	3.22315e-06
2277.96	8.11851e-06
2286.51	1.12295e-05
2295.07	1.10398e-05
2303.63	3.43915e-06
2312.19	1.17443e-06
2320.74	1.14181e-06
2329.3	1.53603e-06
2337.86	2.6507e-06
2346.42	3.40619e-06
2354.97	4.20253e-06
2363.53	3.67005e-06
2372.09	3.13547e-06
2380.65	2.40502e-06
2389.2	1.48752e-06
2397.76	1.83483e-06
2406.32	2.55836e-06
2414.88	3.70017e-06
2423.44	5.54892e-06
2431.99	8.13489e-06
2440.55	8.2424e-06
2449.11	6.48722e-06
2457.67	2.89415e-06
2466.22	1.93149e-06
2474.78	1.6711e-06
2483.34	1.58783e-06
2491.9	1.85387e-06
2500.45	1.97137e-06
2509.01	1.10369e-06
2517.57	7.33239e-07
2526.13	6.55779e-07
2534.68	4.35619e-07
2543.24	2.98401e-07
2551.8	2.35984e-07
2560.36	2.52656e-07
2568.91	3.96669e-07
2577.47	1.06942e-06
2586.03	1.75754e-06
2594.59	1.91256e-06
2603.15	1.47682e-06
2611.7	1.11083e-06
2620.26	1.69794e-06
2628.82	2.04202e-06
2637.38	2.14913e-06
2645.93	1.02606e-06
2654.49	8.67812e-07
2663.05	1.02805e-06
2671.61	1.11749e-06
2680.16	9.82781e-07
2688.72	6.33308e-07
2697.28	3.63976e-07
2705.84	4.00565e-07
2714.39	3.54558e-07
2722.95	4.7287e-07
2731.51	5.57151e-07
2740.07	1.51685e-06
2748.62	2.87625e-06
2757.18	2.67949e-06
2765.74	3.10755e-06
2774.3	1.3407e-06
2782.86	1.08478e-06
2791.41	1.37183e-06
2799.97	1.63324e-06
2808.53	9.2789e-07
2817.09	6.99724e-07
2825.64	6.78963e-07
2834.2	7.72771e-07
2842.76	1.18194e-06
2851.32	2.05312e-06
2859.87	2.31335e-06
2868.43	2.32738e-06
2876.99	1.53162e-06
2885.55	1.16718e-06
2894.1	1.13349e-06
2902.66	1.15685e-06
2911.22	1.26111e-06
2919.78	1.39685e-06
2928.34	2.31229e-06
2936.89	4.60149e-06
2945.45	9.54953e-06
2954.01	1.08304e-05
2962.57	1.24174e-05
2971.12	9.26765e-06
2979.68	8.99237e-06
2988.24	9.99657e-06
2996.8	1.2166e-05
3005.35	1.1385e-05
3013.91	1.15672e-05
3022.47	1.3722e-05
3031.03	1.70511e-05
3039.58	1.88257e-05
3048.14	2.05882e-05
3056.7	2.21589e-05
3065.26	2.34374e-05
3073.81	1.87865e-05
3082.37	1.74344e-05
3090.93	3.45715e-05
3099.49	4.16425e-05
3108.05	4.80325e-05
3116.6	1.90617e-05
3125.16	2.6417e-05
3133.72	2.04821e-05
3142.28	1.85538e-05
3150.83	5.64413e-06
3159.39	2.60747e-06
3167.95	1.7115e-06
3176.51	1.22432e-06
3185.06	1.04006e-06
3193.62	9.87459e-07
3202.18	8.07133e-07
3210.74	6.42028e-07
3219.29	4.5697e-07
3227.85	2.672e-07
3236.41	4.94013e-08
3244.97	5.41996e-08
3253.52	5.32574e-08
3262.08	-4.45776e-08
3270.64	-4.23585e-08
3279.2	-1.22488e-07
3287.76	8.742e-08
3296.31	2.62103e-08
3304.87	-6.43163e-08
3313.43	-3.76316e-07
3321.99	-5.18849e-07
3330.54	-2.4689e-07
3339.1	-6.42254e-08
3347.66	-1.80435e-09
3356.22	2.27035e-08
3364.77	-2.4103e-07
3373.33	-1.11542e-07
3381.89	-3.51884e-08
3390.45	-7.35381e-08
3399	-9.19017e-08
3407.56	-1.18931e-07
3416.12	-2.47385e-07
3424.68	-8.54519e-08
3433.23	6.87399e-08
3441.79	-6.3425e-08
3450.35	-1.17905e-07
3458.91	1.48964e-07
3467.47	8.89115e-08
3476.02	4.51778e-08
3484.58	-1.51194e-07
3493.14	-8.91407e-08
3501.7	-1.3386e-07
3510.25	3.01723e-07
3518.81	1.27804e-06
3527.37	4.11994e-06
3535.93	1.10536e-05
3544.48	1.47932e-05
3553.04	1.67999e-05
3561.6	8.68324e-06
3570.16	2.62564e-06
3578.71	3.77185e-07
3587.27	-2.05387e-07
3595.83	-2.58215e-07
3604.39	-4.59196e-07
3612.95	-5.45648e-07
3621.5	-5.78643e-07
3630.06	-5.28714e-07
3638.62	-5.05447e-07
3647.18	-6.56212e-07
3655.73	-4.02992e-07
3664.29	-3.16219e-07
3672.85	-4.05546e-07
3681.41	-3.81027e-07
3689.96	-4.36198e-07
3698.52	-5.20049e-07
3707.08	-3.87899e-07
3715.64	-4.63754e-07
3724.19	-4.07088e-07
3732.75	-4.21214e-07
3741.31	-6.47314e-07
3749.87	-7.32071e-07
3758.42	-4.20322e-07
3766.98	-3.3224e-07
3775.54	-3.25714e-07
3784.1	-4.65569e-07
3792.66	-3.3765e-07
3801.21	-9.62838e-07
3809.77	-3.50215e-07
3818.33	-4.30814e-07
3826.89	-5.03293e-07
3835.44	-2.31302e-07
3844	-3.36838e-07
3852.56	-4.35197e-07
3861.12	-1.94706e-07
3869.67	-3.97775e-07
3878.23	-1.20135e-07
3886.79	-1.63315e-07
3895.35	-3.85461e-08
3903.9	8.01844e-08
3912.46	1.79736e-07
3921.02	4.32425e-08
3929.58	1.08872e-07
3938.13	1.14845e-07
3946.69	2.42136e-07
3955.25	2.6708e-07
3963.81	6.54004e-07
3972.37	1.1359e-06
