Infrared Spectrum: MALEIC ANHYDRIDE
Formula: C4 H2 O3
CAS: 108-31-6
State: SOLID (SPLIT MULL, FLUOROLUBE FOR 3800-1330 AND NUJOL FOR 1330-400 CM ^-^1)
Class: COBLENTZ III
Instrument: BECKMAN IR-9 (GRATING)
Instrument parameters: ORDER CHANGES AT 670, 1200, 2000 CM^-^1
Sampling: TRANSMISSION
Resolution: 4
Origin: DOW CHEMICAL COMPANY
1/CM	TRANSMITTANCE
404.437	0.636
412.969	0.552
421.502	0.678
430.034	0.76
438.567	0.8
447.099	0.836
455.632	0.858
464.164	0.881
472.696	0.902
481.229	0.922
489.761	0.936
498.294	0.946
506.826	0.954
515.359	0.961
523.891	0.966
532.423	0.969
540.956	0.97
549.488	0.97
558.021	0.957
566.553	0.962
575.086	0.978
583.618	0.981
592.15	0.984
600.683	0.982
609.215	0.978
617.748	0.985
626.28	0.986
634.813	0.958
643.345	0.945
651.877	0.977
660.41	0.977
668.942	0.974
677.475	0.937
686.007	0.881
694.54	0.346
703.072	0.89
711.604	0.982
720.137	0.976
728.669	0.972
737.202	0.978
745.734	0.985
754.267	0.985
762.799	0.986
771.331	0.985
779.864	0.985
788.396	0.977
796.929	0.98
805.461	0.976
813.993	0.953
822.526	0.869
831.058	0.662
839.591	0.217
848.123	0.714
856.656	0.914
865.188	0.892
873.72	0.816
882.253	0.774
890.785	0.34
899.318	0.444
907.85	0.692
916.383	0.838
924.915	0.91
933.447	0.93
941.98	0.936
950.512	0.933
959.045	0.905
967.577	0.944
976.11	0.946
984.642	0.952
993.174	0.953
1001.71	0.958
1010.24	0.962
1018.77	0.962
1027.3	0.956
1035.84	0.945
1044.37	0.932
1052.9	0.748
1061.43	0.3001
1069.97	0.785
1078.5	0.918
1087.03	0.942
1095.56	0.956
1104.1	0.953
1112.63	0.942
1121.16	0.958
1129.69	0.974
1138.23	0.976
1146.76	0.96
1155.29	0.956
1163.82	0.954
1172.36	0.952
1180.89	0.942
1189.42	0.956
1197.95	0.956
1206.49	0.95
1215.02	0.934
1223.55	0.889
1232.08	0.709
1240.61	0.425
1249.15	0.838
1257.68	0.83
1266.21	0.51
1274.74	0.812
1283.28	0.676
1291.81	0.716
1300.34	0.82
1308.87	0.848
1317.41	0.913
1325.94	0.921
1334.47	0.922
1343	0.93
1351.54	0.933
1360.07	0.933
1368.6	0.932
1377.13	0.93
1385.67	0.936
1394.2	0.925
1402.73	0.906
1411.26	0.938
1419.8	0.964
1428.33	0.972
1436.86	0.96
1445.39	0.962
1453.93	0.956
1462.46	0.937
1470.99	0.934
1479.52	0.936
1488.06	0.937
1496.59	0.937
1505.12	0.934
1513.65	0.934
1522.18	0.933
1530.72	0.932
1539.25	0.93
1547.78	0.93
1556.31	0.924
1564.85	0.905
1573.38	0.89
1581.91	0.89
1590.44	0.858
1598.98	0.866
1607.51	0.889
1616.04	0.906
1624.57	0.905
1633.11	0.9
1641.64	0.909
1650.17	0.917
1658.7	0.92
1667.24	0.921
1675.77	0.918
1684.3	0.91
1692.83	0.89
1701.37	0.866
1709.9	0.858
1718.43	0.866
1726.96	0.845
1735.5	0.788
1744.03	0.697
1752.56	0.494
1761.09	0.461
1769.63	0.358
1778.16	0.14
1786.69	0.074
1795.22	0.301
1803.76	0.374
1812.29	0.697
1820.82	0.805
1829.35	0.844
1837.88	0.844
1846.42	0.833
1854.95	0.645
1863.48	0.824
1872.01	0.893
1880.55	0.91
1889.08	0.916
1897.61	0.938
1906.14	0.942
1914.68	0.941
1923.21	0.938
1931.74	0.898
1940.27	0.922
1948.81	0.945
1957.34	0.954
1965.87	0.953
1974.4	0.95
1982.94	0.948
1991.47	0.936
2000	0.942
2008.53	0.965
2017.07	0.958
2025.6	0.957
2034.13	0.957
2042.66	0.954
2051.2	0.956
2059.73	0.956
2068.26	0.954
2076.79	0.954
2085.33	0.954
2093.86	0.953
2102.39	0.953
2110.92	0.952
2119.45	0.948
2127.99	0.944
2136.52	0.94
2145.05	0.94
2153.58	0.942
2162.12	0.944
2170.65	0.94
2179.18	0.932
2187.71	0.938
2196.25	0.941
2204.78	0.942
2213.31	0.942
2221.84	0.942
2230.38	0.942
2238.91	0.941
2247.44	0.94
2255.97	0.938
2264.51	0.937
2273.04	0.936
2281.57	0.934
2290.1	0.934
2298.64	0.9321
2307.17	0.93
2315.7	0.926
2324.23	0.929
2332.77	0.929
2341.3	0.929
2349.83	0.929
2358.36	0.929
2366.9	0.929
2375.43	0.929
2383.96	0.93
2392.49	0.933
2401.02	0.934
2409.56	0.934
2418.09	0.934
2426.62	0.934
2435.15	0.934
2443.69	0.934
2452.22	0.9358
2460.75	0.936
2469.28	0.936
2477.82	0.936
2486.35	0.936
2494.88	0.9358
2503.41	0.936
2511.95	0.9369
2520.48	0.9369
2529.01	0.937
2537.54	0.937
2546.08	0.936
2554.61	0.937
2563.14	0.937
2571.67	0.937
2580.21	0.937
2588.74	0.937
2597.27	0.937
2605.8	0.937
2614.34	0.937
2622.87	0.937
2631.4	0.938
2639.93	0.938
2648.47	0.938
2657	0.938
2665.53	0.938
2674.06	0.938
2682.6	0.938
2691.13	0.938
2699.66	0.938
2708.19	0.938
2716.72	0.938
2725.26	0.938
2733.79	0.938
2742.32	0.938
2750.85	0.938
2759.39	0.938
2767.92	0.938
2776.45	0.938
2784.98	0.9383
2793.52	0.94
2802.05	0.9397
2810.58	0.938
2819.11	0.938
2827.65	0.9397
2836.18	0.938
2844.71	0.937
2853.24	0.937
2861.78	0.936
2870.31	0.936
2878.84	0.937
2887.37	0.9362
2895.91	0.933
2904.44	0.936
2912.97	0.934
2921.5	0.934
2930.04	0.934
2938.57	0.934
2947.1	0.934
2955.63	0.934
2964.17	0.934
2972.7	0.9343
2981.23	0.936
2989.76	0.9368
2998.29	0.936
3006.83	0.936
3015.36	0.937
3023.89	0.938
3032.42	0.938
3040.96	0.938
3049.49	0.938
3058.02	0.938
3066.55	0.9362
3075.09	0.9356
3083.62	0.936
3092.15	0.9344
3100.68	0.934
3109.22	0.932
3117.75	0.9216
3126.28	0.7987
3134.81	0.7897
3143.35	0.9057
3151.88	0.9234
3160.41	0.928
3168.94	0.929
3177.48	0.93
3186.01	0.9332
3194.54	0.9162
3203.07	0.9242
3211.61	0.928
3220.14	0.93
3228.67	0.933
3237.2	0.933
3245.74	0.933
3254.27	0.933
3262.8	0.933
3271.33	0.933
3279.86	0.933
3288.4	0.932
3296.93	0.93
3305.46	0.93
3313.99	0.928
3322.53	0.9242
3331.06	0.9184
3339.59	0.917
3348.12	0.914
3356.66	0.9105
3365.19	0.9082
3373.72	0.906
3382.25	0.904
3390.79	0.904
3399.32	0.904
3407.85	0.9012
3416.38	0.9
3424.92	0.9
3433.45	0.898
3441.98	0.898
3450.51	0.898
3459.05	0.898
3467.58	0.898
3476.11	0.898
3484.64	0.898
3493.18	0.898
3501.71	0.898
3510.24	0.898
3518.77	0.898
3527.31	0.9
3535.84	0.9
3544.37	0.8985
3552.9	0.898
3561.44	0.9
3569.97	0.901
3578.5	0.902
3587.03	0.9013
3595.56	0.8898
3604.1	0.8847
3612.63	0.8915
3621.16	0.8955
3629.69	0.9007
3638.23	0.904
3646.76	0.905
3655.29	0.909
3663.82	0.9114
3672.36	0.9127
3680.89	0.9137
3689.42	0.914
3697.95	0.913
3706.49	0.913
3715.02	0.913
3723.55	0.913
3732.08	0.914
3740.62	0.914
3749.15	0.914
3757.68	0.914
3766.21	0.914
3774.75	0.913
3783.28	0.914
3791.81	0.914
