Infrared Spectrum: Toluene
Formula: C H3 C6 H5
CAS: 108-88-3
State: gas
Melting point: -95 C
Boiling point: 110.6 C
Class: IUPAC A
Instrument: IFS66V (Bruker)
Instrument parameters: KBr Beam splitter; MCT Detector; Multipass cell
Sampling: 1 L/min Flow
Resolution: 0.4820
Temperature: 23 C
Pressure: 101.3 kPa
Origin: NIST, Anayltical Chemistry Division, 301-975-3108
cm-1	(micromol/mol)-1m-1 (base 10)
574.928	2.38056e-08
583.606	-3.36496e-07
592.284	-3.42278e-07
600.962	9.48615e-08
609.641	2.39442e-07
618.319	3.9635e-07
626.997	8.06802e-07
635.675	7.51962e-07
644.353	5.92429e-07
653.031	7.6982e-07
661.71	3.36977e-06
670.388	1.54372e-05
679.066	5.63335e-05
687.744	7.32207e-05
696.422	6.87058e-05
705.1	0.000107904
713.778	0.000163846
722.457	0.000193573
731.135	0.000271394
739.813	0.00017719
748.491	7.37649e-05
757.169	1.00716e-05
765.847	1.82238e-06
774.526	2.00636e-06
783.204	1.55363e-06
791.882	1.87483e-06
800.56	6.28116e-07
809.238	4.2055e-07
817.916	3.78908e-07
826.594	5.85008e-07
835.273	4.54557e-07
843.951	3.97707e-07
852.629	7.96348e-07
861.307	1.07943e-06
869.985	1.33817e-06
878.663	2.27428e-06
887.342	3.06408e-06
896.02	3.83853e-06
904.698	3.243e-06
913.376	2.84334e-06
922.054	3.20396e-06
930.732	4.08802e-06
939.41	2.93506e-06
948.089	1.90479e-06
956.767	2.06509e-06
965.445	2.66777e-06
974.123	3.07217e-06
982.801	2.58885e-06
991.479	2.08728e-06
1000.16	1.74954e-06
1008.84	2.09622e-06
1017.51	7.34685e-06
1026.19	2.47412e-05
1034.87	1.79535e-05
1043.55	2.25626e-05
1052.23	1.28309e-05
1060.9	1.3266e-05
1069.58	1.86992e-05
1078.26	2.558e-05
1086.94	2.45411e-05
1095.62	1.67657e-05
1104.3	7.63453e-06
1112.97	7.87526e-06
1121.65	3.4496e-06
1130.33	2.011e-06
1139.01	1.61984e-06
1147.69	1.6668e-06
1156.36	2.04121e-06
1165.04	2.48861e-06
1173.72	2.88172e-06
1182.4	2.33206e-06
1191.08	2.15356e-06
1199.76	3.61344e-06
1208.43	4.20822e-06
1217.11	5.06734e-06
1225.79	2.32295e-06
1234.47	2.85791e-06
1243.15	2.69271e-06
1251.82	2.51435e-06
1260.5	1.19652e-06
1269.18	7.81058e-07
1277.86	8.71249e-07
1286.54	1.15921e-06
1295.21	1.57477e-06
1303.89	2.71335e-06
1312.57	2.39957e-06
1321.25	2.39364e-06
1329.93	1.84286e-06
1338.61	1.96648e-06
1347.28	2.5999e-06
1355.96	4.21805e-06
1364.64	5.43855e-06
1373.32	1.01843e-05
1382	1.46791e-05
1390.67	1.81213e-05
1399.35	8.47895e-06
1408.03	8.38349e-06
1416.71	1.08016e-05
1425.39	1.05763e-05
1434.07	1.35869e-05
1442.74	2.24594e-05
1451.42	3.34739e-05
1460.1	3.51355e-05
1468.78	3.25255e-05
1477.46	3.07894e-05
1486.13	5.71244e-05
1494.81	9.28232e-05
1503.49	8.84562e-05
1512.17	5.40925e-05
1520.85	2.05729e-05
1529.52	1.98502e-05
1538.2	1.57171e-05
1546.88	1.10537e-05
1555.56	1.05126e-05
1564.24	1.04633e-05
1572.92	1.21076e-05
1581.59	9.39457e-06
1590.27	1.12385e-05
1598.95	3.46558e-05
1607.63	4.68634e-05
1616.31	4.79205e-05
1624.98	2.33152e-05
1633.66	6.2532e-06
1642.34	1.8857e-06
1651.02	1.80573e-06
1659.7	1.79387e-06
1668.38	1.88012e-06
1677.05	1.75064e-06
1685.73	1.79052e-06
1694.41	1.65629e-06
1703.09	1.57767e-06
1711.77	2.03711e-06
1720.44	3.80422e-06
1729.12	5.04989e-06
1737.8	5.75242e-06
1746.48	2.4105e-06
1755.16	1.22393e-06
1763.84	1.86321e-06
1772.51	2.97326e-06
1781.19	4.98404e-06
1789.87	1.01193e-05
1798.55	9.50367e-06
1807.23	1.23754e-05
1815.9	4.11002e-06
1824.58	3.47162e-06
1833.26	2.96515e-06
1841.94	5.48853e-06
1850.62	1.04428e-05
1859.29	1.29459e-05
1867.97	1.08375e-05
1876.65	7.34777e-06
1885.33	2.72644e-06
1894.01	1.36568e-06
1902.69	1.26029e-06
1911.36	1.38354e-06
1920.04	2.74152e-06
1928.72	7.5746e-06
1937.4	1.18101e-05
1946.08	1.63798e-05
1954.75	1.05998e-05
1963.43	6.44958e-06
1972.11	1.79983e-06
1980.79	9.66291e-07
1989.47	1.23465e-06
1998.15	1.22861e-06
2006.82	9.64706e-07
2015.5	6.86681e-07
2024.18	5.81819e-07
2032.86	3.05581e-07
2041.54	1.07735e-07
2050.21	8.11538e-08
2058.89	1.58809e-07
2067.57	2.46314e-07
2076.25	2.09022e-07
2084.93	1.59058e-07
2093.6	1.86114e-07
2102.28	2.19453e-07
2110.96	2.12778e-07
2119.64	2.48292e-07
2128.32	3.29133e-07
2137	2.64513e-07
2145.67	2.49553e-07
2154.35	4.80309e-07
2163.03	1.00574e-06
2171.71	1.17832e-06
2180.39	9.94724e-07
2189.06	6.47452e-07
2197.74	5.64752e-07
2206.42	4.66641e-07
2215.1	5.26423e-07
2223.78	4.95519e-07
2232.46	4.73096e-07
2241.13	5.84344e-07
2249.81	8.89264e-07
2258.49	1.01297e-06
2267.17	1.19574e-06
2275.85	1.39215e-06
2284.52	1.35725e-06
2293.2	1.31237e-06
2301.88	1.48769e-06
2310.56	1.61632e-06
2319.24	2.17067e-06
2327.92	1.84681e-06
2336.59	1.7228e-06
2345.27	2.24458e-06
2353.95	2.08793e-06
2362.63	1.8193e-06
2371.31	1.772e-06
2379.98	1.13784e-06
2388.66	1.12529e-06
2397.34	1.26454e-06
2406.02	1.57323e-06
2414.7	1.80591e-06
2423.37	1.99421e-06
2432.05	1.31289e-06
2440.73	1.00632e-06
2449.41	8.55222e-07
2458.09	9.47939e-07
2466.77	1.02649e-06
2475.44	9.18763e-07
2484.12	8.45974e-07
2492.8	8.63118e-07
2501.48	9.57642e-07
2510.16	9.66734e-07
2518.83	7.90577e-07
2527.51	7.39277e-07
2536.19	7.60542e-07
2544.87	7.38828e-07
2553.55	6.67565e-07
2562.23	6.67848e-07
2570.9	8.19013e-07
2579.58	1.39419e-06
2588.26	2.27311e-06
2596.94	2.66839e-06
2605.62	1.8132e-06
2614.29	1.34883e-06
2622.97	1.38473e-06
2631.65	1.23199e-06
2640.33	1.14491e-06
2649.01	8.91127e-07
2657.68	7.14292e-07
2666.36	6.49256e-07
2675.04	5.3332e-07
2683.72	5.8588e-07
2692.4	5.63567e-07
2701.08	5.09953e-07
2709.75	6.23959e-07
2718.43	8.0533e-07
2727.11	1.48126e-06
2735.79	4.84874e-06
2744.47	8.26036e-06
2753.14	6.729e-06
2761.82	2.00266e-06
2770.5	1.3539e-06
2779.18	1.57326e-06
2787.86	1.88099e-06
2796.54	2.07025e-06
2805.21	2.25832e-06
2813.89	3.11875e-06
2822.57	4.12474e-06
2831.25	5.01644e-06
2839.93	6.47892e-06
2848.6	9.66277e-06
2857.28	1.79894e-05
2865.96	3.42261e-05
2874.64	5.47996e-05
2883.32	6.70308e-05
2892	6.05441e-05
2900.67	4.4452e-05
2909.35	4.13757e-05
2918.03	6.19656e-05
2926.71	0.000104245
2935.39	0.000119007
2944.06	0.000113029
2952.74	6.9669e-05
2961.42	5.27845e-05
2970.1	3.69357e-05
2978.78	3.85431e-05
2987.45	4.34314e-05
2996.13	4.84371e-05
3004.81	6.86487e-05
3013.49	7.27123e-05
3022.17	0.000123843
3030.85	0.000217926
3039.52	0.000221471
3048.2	0.000195442
3056.88	0.000107951
3065.56	0.000118771
3074.24	0.00013841
3082.91	0.000124706
3091.59	9.16754e-05
3100.27	7.49323e-05
3108.95	4.46663e-05
3117.63	2.79502e-05
3126.31	1.62171e-05
3134.98	7.06634e-06
3143.66	1.99969e-06
3152.34	1.31866e-06
3161.02	1.4415e-06
3169.7	1.60431e-06
3178.37	1.45687e-06
3187.05	1.24765e-06
3195.73	2.52612e-07
3204.41	2.23835e-07
3213.09	7.05847e-08
3221.77	1.95577e-07
3230.44	1.98558e-08
3239.12	7.24846e-08
3247.8	2.64583e-07
3256.48	3.24671e-07
3265.16	4.41774e-07
3273.83	5.54434e-07
3282.51	5.22116e-07
3291.19	5.06985e-07
3299.87	3.2596e-07
3308.55	3.63153e-07
3317.22	4.11986e-07
3325.9	5.57428e-07
3334.58	6.86582e-07
3343.26	7.11041e-07
3351.94	5.8737e-07
3360.62	5.82295e-07
3369.29	5.72649e-07
3377.97	6.75023e-07
3386.65	6.68286e-07
3395.33	5.29243e-07
3404.01	5.27158e-07
3412.68	4.07085e-07
3421.36	3.44423e-07
3430.04	5.23529e-07
3438.72	5.91133e-07
3447.4	6.34342e-07
3456.08	4.7854e-07
3464.75	4.24428e-07
3473.43	2.11543e-07
3482.11	1.679e-07
3490.79	2.73644e-07
3499.47	2.50201e-07
3508.14	1.67999e-07
3516.82	3.0728e-07
3525.5	4.90952e-07
3534.18	3.07332e-07
3542.86	3.04278e-07
3551.53	3.35512e-07
3560.21	4.2308e-07
3568.89	3.83047e-07
3577.57	1.83779e-07
3586.25	2.58751e-07
3594.93	3.56351e-07
3603.6	3.91611e-07
3612.28	1.55408e-07
3620.96	4.13682e-07
3629.64	1.1395e-07
3638.32	6.91221e-07
3646.99	8.20708e-07
3655.67	1.11736e-06
3664.35	1.12692e-06
3673.03	9.29682e-07
3681.71	6.95876e-07
3690.39	5.95121e-07
3699.06	5.67505e-07
3707.74	4.18722e-07
3716.42	6.26547e-07
3725.1	4.76065e-07
3733.78	4.55394e-07
3742.45	3.32316e-07
3751.13	2.5719e-07
3759.81	1.39321e-07
3768.49	3.1088e-07
3777.17	3.69438e-07
3785.85	4.81896e-07
3794.52	7.89029e-07
3803.2	7.25224e-07
3811.88	7.22249e-07
3820.56	6.12727e-07
3829.24	9.37331e-07
3837.91	3.71569e-07
3846.59	1.3024e-06
3855.27	1.56837e-06
3863.95	1.42894e-06
3872.63	1.21861e-06
3881.3	9.60107e-07
3889.98	8.30209e-07
3898.66	8.12669e-07
3907.34	9.89685e-07
3916.02	1.09138e-06
3924.7	1.18315e-06
3933.37	1.03259e-06
3942.05	9.55569e-07
3950.73	8.69341e-07
3959.41	8.54819e-07
3968.09	8.92372e-07
