Infrared Spectrum: Ethenyl Ester-Acetic Acid
Formula: C H3 C O2 C H: C H2
CAS: 108-05-4
State: gas
Melting point: -93.2 C
Boiling point: 72.2 C
Class: IUPAC A
Instrument: IFS66V (Bruker)
Instrument parameters: KBr Beam splitter; MCT Detector; Multipass cell
Sampling: 1 L/min Flow
Resolution: 1.9290
Temperature: 23 C
Pressure: 101.3 kPa
Origin: NIST, Anayltical Chemistry Division, 301-975-3108
cm-1	(micromol/mol)-1m-1 (base 10)
574.687	1.04212e-05
583.365	1.90127e-05
592.043	3.81261e-05
600.721	2.85388e-05
609.4	3.2623e-05
618.078	3.4053e-05
626.756	4.21089e-05
635.434	4.193e-05
644.112	4.12913e-05
652.79	2.55494e-05
661.469	1.33407e-05
670.147	5.90981e-06
678.825	4.86422e-06
687.503	6.55243e-06
696.181	9.56819e-06
704.859	1.07687e-05
713.537	1.22487e-05
722.216	9.0016e-06
730.894	7.26467e-06
739.572	5.78923e-06
748.25	5.72737e-06
756.928	6.2395e-06
765.606	7.81638e-06
774.285	9.67762e-06
782.963	9.72942e-06
791.641	9.0534e-06
800.319	9.15886e-06
808.997	1.03327e-05
817.675	1.51617e-05
826.353	2.45881e-05
835.032	5.10449e-05
843.71	8.84274e-05
852.388	0.000130128
861.066	0.000155413
869.744	0.000247166
878.422	0.000162024
887.101	0.000126956
895.779	6.21399e-05
904.457	2.16154e-05
913.135	1.28973e-05
921.813	2.28763e-05
930.491	5.30668e-05
939.169	8.66335e-05
947.848	0.000125561
956.526	0.000158002
965.204	0.000114357
973.882	0.000108277
982.56	0.000104325
991.238	6.729e-05
999.917	8.76858e-05
1008.59	0.00018239
1017.27	0.000338049
1025.95	0.000351961
1034.63	0.000236513
1043.31	8.68689e-05
1051.99	6.88146e-05
1060.66	6.1243e-05
1069.34	5.61847e-05
1078.02	4.80876e-05
1086.7	3.97351e-05
1095.38	3.21042e-05
1104.05	2.92771e-05
1112.73	3.19069e-05
1121.41	4.86999e-05
1130.09	0.000157931
1138.77	0.000825231
1147.45	0.00092839
1156.12	0.000864644
1164.8	9.22922e-05
1173.48	4.64411e-05
1182.16	6.41411e-05
1190.84	0.000111972
1199.51	0.000288659
1208.19	0.0010345
1216.87	0.00257804
1225.55	0.00281126
1234.23	0.00191909
1242.9	0.000373478
1251.58	0.000227143
1260.26	0.000186721
1268.94	6.81344e-05
1277.62	5.71379e-05
1286.3	0.000137721
1294.97	0.000172253
1303.65	0.000162597
1312.33	5.24932e-05
1321.01	1.91786e-05
1329.69	1.30919e-05
1338.36	1.25249e-05
1347.04	2.01081e-05
1355.72	5.6559e-05
1364.4	0.000221628
1373.08	0.000377747
1381.76	0.000443499
1390.43	0.00020634
1399.11	7.59211e-05
1407.79	3.02494e-05
1416.47	2.81953e-05
1425.15	3.22137e-05
1433.82	4.0092e-05
1442.5	3.55594e-05
1451.18	3.38084e-05
1459.86	2.7473e-05
1468.54	2.27244e-05
1477.22	2.08652e-05
1485.89	1.86066e-05
1494.57	1.65427e-05
1503.25	1.52294e-05
1511.93	1.44368e-05
1520.61	1.30175e-05
1529.28	1.21214e-05
1537.96	1.09529e-05
1546.64	1.15646e-05
1555.32	1.45855e-05
1564	1.77836e-05
1572.67	1.9637e-05
1581.35	2.17263e-05
1590.03	2.21612e-05
1598.71	2.27723e-05
1607.39	2.52885e-05
1616.07	3.38332e-05
1624.74	4.40152e-05
1633.42	7.31462e-05
1642.1	0.000302105
1650.78	0.000400964
1659.46	0.000537192
1668.13	9.75898e-05
1676.81	2.98665e-05
1685.49	1.70062e-05
1694.17	1.65325e-05
1702.85	1.39914e-05
1711.53	1.25454e-05
1720.2	1.20675e-05
1728.88	1.82795e-05
1737.56	2.69964e-05
1746.24	5.44492e-05
1754.92	0.000129129
1763.59	0.00034621
1772.27	0.000933252
1780.95	0.00114017
1789.63	0.00148165
1798.31	0.000650394
1806.98	0.000221738
1815.66	5.66421e-05
1824.34	2.29285e-05
1833.02	2.03931e-05
1841.7	1.79818e-05
1850.38	2.18181e-05
1859.05	2.65179e-05
1867.73	2.83372e-05
1876.41	2.51134e-05
1885.09	1.66226e-05
1893.77	1.44774e-05
1902.44	1.38405e-05
1911.12	1.01991e-05
1919.8	5.9444e-06
1928.48	4.22576e-06
1937.16	4.66676e-06
1945.84	5.1646e-06
1954.51	5.41607e-06
1963.19	5.01558e-06
1971.87	4.92857e-06
1980.55	8.57993e-06
1989.23	1.30875e-05
1997.9	1.36969e-05
2006.58	7.79228e-06
2015.26	5.32021e-06
2023.94	5.26375e-06
2032.62	5.43466e-06
2041.3	7.13741e-06
2049.97	1.3767e-05
2058.65	2.4885e-05
2067.33	2.80943e-05
2076.01	2.10979e-05
2084.69	8.60107e-06
2093.36	6.04031e-06
2102.04	5.5878e-06
2110.72	6.69682e-06
2119.4	7.02031e-06
2128.08	7.24494e-06
2136.75	4.26127e-06
2145.43	4.12134e-06
2154.11	4.38433e-06
2162.79	4.84343e-06
2171.47	4.63572e-06
2180.15	3.9249e-06
2188.82	2.57162e-06
2197.5	2.15984e-06
2206.18	2.14515e-06
2214.86	3.20989e-06
2223.54	4.41773e-06
2232.21	4.7994e-06
2240.89	3.90595e-06
2249.57	3.04001e-06
2258.25	2.27415e-06
2266.93	2.69392e-06
2275.61	6.30273e-06
2284.28	1.12695e-05
2292.96	1.12762e-05
2301.64	5.3897e-06
2310.32	1.29655e-06
2319	1.16146e-06
2327.67	1.41192e-06
2336.35	2.40618e-06
2345.03	3.33762e-06
2353.71	4.18493e-06
2362.39	3.77732e-06
2371.06	3.20045e-06
2379.74	2.4991e-06
2388.42	1.52929e-06
2397.1	1.8326e-06
2405.78	2.51011e-06
2414.46	3.57886e-06
2423.13	5.45222e-06
2431.81	8.13398e-06
2440.49	8.23551e-06
2449.17	6.5011e-06
2457.85	2.87538e-06
2466.52	1.93277e-06
2475.2	1.63559e-06
2483.88	1.60547e-06
2492.56	1.8485e-06
2501.24	1.92906e-06
2509.92	9.89121e-07
2518.59	7.55975e-07
2527.27	5.82826e-07
2535.95	3.81492e-07
2544.63	2.99689e-07
2553.31	2.50379e-07
2561.98	2.58036e-07
2570.66	5.44342e-07
2579.34	1.27116e-06
2588.02	1.96677e-06
2596.7	1.84658e-06
2605.38	1.37481e-06
2614.05	1.15442e-06
2622.73	1.88905e-06
2631.41	2.09722e-06
2640.09	1.85053e-06
2648.77	9.18836e-07
2657.44	9.17053e-07
2666.12	1.11639e-06
2674.8	1.14527e-06
2683.48	8.84255e-07
2692.16	5.04112e-07
2700.83	3.70259e-07
2709.51	4.0851e-07
2718.19	4.07346e-07
2726.87	4.97491e-07
2735.55	9.16813e-07
2744.23	2.12754e-06
2752.9	3.04832e-06
2761.58	3.21289e-06
2770.26	1.97237e-06
2778.94	1.05507e-06
2787.62	1.32655e-06
2796.29	1.48771e-06
2804.97	1.33604e-06
2813.65	6.87242e-07
2822.33	6.32417e-07
2831.01	7.7671e-07
2839.69	1.01293e-06
2848.36	1.78028e-06
2857.04	2.33502e-06
2865.72	2.39451e-06
2874.4	1.74898e-06
2883.08	1.31062e-06
2891.75	1.13128e-06
2900.43	1.19257e-06
2909.11	1.17831e-06
2917.79	1.41685e-06
2926.47	2.03887e-06
2935.14	3.91804e-06
2943.82	8.60343e-06
2952.5	1.06833e-05
2961.18	1.25454e-05
2969.86	9.52331e-06
2978.54	8.95096e-06
2987.21	9.80274e-06
2995.89	1.22011e-05
3004.57	1.14341e-05
3013.25	1.15283e-05
3021.93	1.34073e-05
3030.6	1.69759e-05
3039.28	1.87654e-05
3047.96	2.05022e-05
3056.64	2.21428e-05
3065.32	2.33667e-05
3074	1.85827e-05
3082.67	1.75958e-05
3091.35	3.60388e-05
3100.03	4.13933e-05
3108.71	4.82172e-05
3117.39	1.82671e-05
3126.06	2.60944e-05
3134.74	2.17536e-05
3143.42	1.56933e-05
3152.1	4.94047e-06
3160.78	2.41289e-06
3169.46	1.49293e-06
3178.13	1.14776e-06
3186.81	9.94811e-07
3195.49	1.04414e-06
3204.17	7.81898e-07
3212.85	6.15094e-07
3221.52	3.96069e-07
3230.2	2.34922e-07
3238.88	1.05853e-07
3247.56	2.91752e-09
3256.24	1.12335e-08
3264.91	8.80711e-09
3273.59	-8.06136e-08
3282.27	-7.60555e-08
3290.95	-1.1761e-08
3299.63	6.99003e-08
3308.31	-1.71417e-07
3316.98	-5.03868e-07
3325.66	-4.58468e-07
3334.34	-1.34439e-07
3343.02	-2.29218e-08
3351.7	4.60509e-08
3360.37	-1.52289e-07
3369.05	-1.52035e-07
3377.73	-8.22179e-08
3386.41	-7.09735e-09
3395.09	-3.15506e-08
3403.77	-1.37723e-07
3412.44	-1.93866e-07
3421.12	-1.40506e-07
3429.8	-5.05436e-08
3438.48	-8.23234e-09
3447.16	5.39413e-08
3455.83	2.59841e-07
3464.51	1.45759e-07
3473.19	2.76633e-07
3481.87	-5.58439e-08
3490.55	-1.62246e-07
3499.22	-8.56374e-08
3507.9	1.58353e-07
3516.58	9.97085e-07
3525.26	3.25121e-06
3533.94	9.00802e-06
3542.62	1.5516e-05
3551.29	1.47124e-05
3559.97	1.08168e-05
3568.65	3.24395e-06
3577.33	4.27729e-07
3586.01	-3.15455e-07
3594.68	-3.88768e-07
3603.36	-5.64798e-07
3612.04	-6.94052e-07
3620.72	-5.32763e-07
3629.4	-9.6899e-07
3638.08	-5.11107e-07
3646.75	-5.80869e-07
3655.43	-5.44771e-07
3664.11	-3.20035e-07
3672.79	-4.78116e-07
3681.47	-3.23244e-07
3690.14	-4.38664e-07
3698.82	-4.47475e-07
3707.5	-4.58818e-07
3716.18	-4.12843e-07
3724.86	-4.65369e-07
3733.54	-2.70616e-07
3742.21	-5.45834e-07
3750.89	-2.06332e-07
3759.57	-6.1353e-07
3768.25	-3.96669e-07
3776.93	-4.7259e-07
3785.6	-4.64023e-07
3794.28	-4.09802e-07
3802.96	-3.76942e-07
3811.64	-4.63143e-07
3820.32	-5.15513e-07
3828.99	-3.28421e-07
3837.67	-1.04059e-06
3846.35	-2.63064e-07
3855.03	-6.02794e-07
3863.71	-1.79584e-07
3872.39	-1.80373e-07
3881.06	-1.9914e-07
3889.74	-1.98769e-08
3898.42	-5.70771e-08
3907.1	1.38989e-07
3915.78	1.05089e-07
3924.45	1.19273e-07
3933.13	8.66742e-08
3941.81	2.20527e-07
3950.49	1.7488e-07
3959.17	4.75944e-07
3967.85	9.04976e-07
