Infrared Spectrum: M-CHLORO PHENOL
Formula: C6 H5 Cl O
CAS: 108-43-0
State: SOLID (MINERAL OIL MULL)
Melting point: 33 C
Class: COBLENTZ
Instrument: Not specified, most likely a prism, grating, or hybrid spectrometer.
Sampling: TRANSMISSION
Resolution: 4
Origin: WYANDOTTE CHEMICALS CORP., WYANDOTTE, MICHIGAN, USA
MICROMETERS	TRANSMITTANCE
2.014	0.653
2.05481	0.641
2.09563	0.649
2.13644	0.663
2.17726	0.661
2.21807	0.653
2.25889	0.642
2.2997	0.647
2.34052	0.658
2.38133	0.647
2.42215	0.642
2.46296	0.659
2.50378	0.661
2.54459	0.676
2.5854	0.69
2.62622	0.673
2.66703	0.709
2.70785	0.702
2.74866	0.685
2.78948	0.659
2.83029	0.632
2.87111	0.551
2.91192	0.404
2.95274	0.273
2.99355	0.188
3.03436	0.134
3.07518	0.17
3.11599	0.168
3.15681	0.212
3.19762	0.258
3.23844	0.318
3.27925	0.306
3.32007	0.311
3.36088	0.21
3.4017	0.068
3.44251	0.071
3.48333	0.11
3.52414	0.115
3.56495	0.397
3.60577	0.481
3.64658	0.574
3.6874	0.557
3.72821	0.542
3.76903	0.535
3.80984	0.573
3.85066	0.602
3.89147	0.596
3.93229	0.598
3.9731	0.608
4.01392	0.627
4.05473	0.634
4.09554	0.622
4.13636	0.63
4.17717	0.647
4.21799	0.658
4.2588	0.642
4.29962	0.663
4.34043	0.705
4.38125	0.75
4.42206	0.726
4.46288	0.727
4.50369	0.734
4.54451	0.739
4.58532	0.739
4.62613	0.744
4.66695	0.755
4.70776	0.758
4.74858	0.732
4.78939	0.753
4.83021	0.767
4.87102	0.765
4.91184	0.768
4.95265	0.784
4.99347	0.787
5.03428	0.795
5.07509	0.795
5.11591	0.807
5.15672	0.801
5.19754	0.799
5.23835	0.731
5.27917	0.792
5.31998	0.818
5.3608	0.811
5.40161	0.838
5.44243	0.816
5.48324	0.761
5.52406	0.823
5.56487	0.841
5.60568	0.841
5.6465	0.821
5.68731	0.858
5.72813	0.816
5.76894	0.811
5.80976	0.789
5.85057	0.785
5.89139	0.826
5.9322	0.86
5.97302	0.884
6.01383	0.909
6.05465	0.933
6.09546	0.899
6.13627	0.761
6.17709	0.18
6.2179	0.156
6.25872	0.09
6.29953	0.185
6.34035	0.36
6.38116	0.443
6.42198	0.573
6.46279	0.547
6.50361	0.552
6.54442	0.659
6.58524	0.717
6.62605	0.644
6.66686	0.369
6.70768	0.124
6.74849	0.074
6.78931	0.059
6.83012	0.061
6.87094	0.068
6.91175	0.117
6.95257	0.205
6.99338	0.314
7.0342	0.404
7.07501	0.42
7.11582	0.498
7.15664	0.561
7.19745	0.5
7.23827	0.358
7.27908	0.346
7.3199	0.403
7.36071	0.431
7.40153	0.358
7.44234	0.35
7.48316	0.238
7.52397	0.149
7.56479	0.144
7.6056	0.219
7.64641	0.365
7.68723	0.345
7.72804	0.324
7.76886	0.534
7.80967	0.625
7.85049	0.67
7.8913	0.598
7.93212	0.258
7.97293	0.178
8.01375	0.234
8.05456	0.29
8.09538	0.34
8.13619	0.277
8.177	0.2
8.21782	0.139
8.25863	0.103
8.29945	0.09
8.34026	0.107
8.38108	0.161
8.42189	0.248
8.46271	0.309
8.50352	0.357
8.54434	0.391
8.58515	0.392
8.62596	0.375
8.66678	0.311
8.70759	0.438
8.74841	0.493
8.78922	0.527
8.83004	0.554
8.87085	0.564
8.91167	0.578
8.95248	0.602
8.9933	0.578
9.03411	0.459
9.07493	0.348
9.11574	0.267
9.15655	0.18
9.19737	0.282
9.23818	0.484
9.279	0.523
9.31981	0.345
9.36063	0.214
9.40144	0.341
9.44226	0.479
9.48307	0.539
9.52389	0.574
9.5647	0.598
9.60552	0.607
9.64633	0.612
9.68714	0.62
9.72796	0.629
9.76877	0.637
9.80959	0.617
9.8504	0.622
9.89122	0.644
9.93203	0.692
9.97285	0.721
10.0137	0.348
10.0545	0.602
10.0953	0.671
10.1361	0.659
10.1769	0.7
10.2177	0.717
10.2585	0.719
10.2994	0.714
10.3402	0.707
10.381	0.668
10.4218	0.693
10.4626	0.732
10.5034	0.746
10.5443	0.756
10.5851	0.758
10.6259	0.76
10.6667	0.761
10.7075	0.765
10.7483	0.768
10.7891	0.768
10.83	0.777
10.8708	0.778
10.9116	0.778
10.9524	0.789
10.9932	0.79
11.034	0.768
11.0748	0.702
11.1157	0.511
11.1565	0.282
11.1973	0.161
11.2381	0.081
11.2789	0.069
11.3197	0.069
11.3605	0.069
11.4014	0.102
11.4422	0.154
11.483	0.28
11.5238	0.34
11.5646	0.357
11.6054	0.363
11.6462	0.418
11.6871	0.42
11.7279	0.396
11.7687	0.348
11.8095	0.302
11.8503	0.243
11.8911	0.195
11.9319	0.171
11.9728	0.161
12.0136	0.29
12.0544	0.457
12.0952	0.561
12.136	0.62
12.1768	0.653
12.2176	0.675
12.2585	0.687
12.2993	0.688
12.3401	0.7
12.3809	0.707
12.4217	0.697
12.4625	0.707
12.5034	0.697
12.5442	0.697
12.585	0.687
12.6258	0.666
12.6666	0.641
12.7074	0.583
12.7482	0.508
12.7891	0.42
12.8299	0.302
12.8707	0.198
12.9115	0.136
12.9523	0.11
12.9931	0.102
13.0339	0.085
13.0748	0.091
13.1156	0.119
13.1564	0.188
13.1972	0.27
13.238	0.358
13.2788	0.44
13.3196	0.488
13.3605	0.53
13.4013	0.564
13.4421	0.583
13.4829	0.603
13.5237	0.61
13.5645	0.613
13.6053	0.617
13.6462	0.619
13.687	0.617
13.7278	0.607
13.7686	0.593
13.8094	0.579
13.8502	0.566
13.891	0.557
13.9319	0.551
13.9727	0.556
14.0135	0.554
14.0543	0.544
14.0951	0.525
14.1359	0.505
14.1768	0.491
14.2176	0.474
14.2584	0.457
14.2992	0.443
14.34	0.433
14.3808	0.42
14.4216	0.409
14.4625	0.391
14.5033	0.37
14.5441	0.333
14.5849	0.299
14.6257	0.27
14.6665	0.253
14.7073	0.243
14.7482	0.229
14.789	0.209
14.8298	0.197
14.8706	0.197
14.9114	0.2
14.9522	0.217
14.993	0.253
15.0339	0.304
15.0747	0.35
15.1155	0.386
15.1563	0.414
15.1971	0.442
15.2379	0.474
15.2787	0.496
15.3196	0.505
15.3604	0.513
15.4012	0.518
15.442	0.523
15.4828	0.523
15.5236	0.525
15.5644	0.527
15.6053	0.528
15.6461	0.528
15.6869	0.532
15.7277	0.534
15.7685	0.532
15.8093	0.53
15.8501	0.525
15.891	0.523
15.9318	0.52
15.9726	0.511
