Infrared Spectrum: Ethenyl Ester-Acetic Acid
Formula: C H3 C O2 C H: C H2
CAS: 108-05-4
State: gas
Melting point: -93.2 C
Boiling point: 72.2 C
Class: IUPAC A
Instrument: IFS66V (Bruker)
Instrument parameters: KBr Beam splitter; MCT Detector; Multipass cell
Sampling: 1 L/min Flow
Resolution: 1.9290
Temperature: 23 C
Pressure: 101.3 kPa
Origin: NIST, Anayltical Chemistry Division, 301-975-3108
cm-1	(micromol/mol)-1m-1 (base 10)
574.687	1.07301e-05
583.365	1.91912e-05
592.043	3.61719e-05
600.721	2.88709e-05
609.4	3.24579e-05
618.078	3.41817e-05
626.756	4.16998e-05
635.434	4.20028e-05
644.112	4.07109e-05
652.79	2.57844e-05
661.469	1.35265e-05
670.147	6.37048e-06
678.825	5.05679e-06
687.503	6.80301e-06
696.181	9.60691e-06
704.859	1.0839e-05
713.537	1.21009e-05
722.216	9.27564e-06
730.894	7.3819e-06
739.572	6.08329e-06
748.25	5.88798e-06
756.928	6.5547e-06
765.606	7.96051e-06
774.285	9.90662e-06
782.963	9.86855e-06
791.641	9.41807e-06
800.319	9.47214e-06
808.997	1.09804e-05
817.675	1.56648e-05
826.353	2.55589e-05
835.032	5.16427e-05
843.71	8.85465e-05
852.388	0.000129318
861.066	0.000155269
869.744	0.000241487
878.422	0.000162727
887.101	0.000126124
895.779	6.32056e-05
904.457	2.32558e-05
913.135	1.45288e-05
921.813	2.41405e-05
930.491	5.38668e-05
939.169	8.68027e-05
947.848	0.00012492
956.526	0.000152719
965.204	0.000114203
973.882	0.000109094
982.56	0.000103398
991.238	7.00123e-05
999.917	9.02629e-05
1008.59	0.000183304
1017.27	0.000331688
1025.95	0.000340442
1034.63	0.000233742
1043.31	9.05576e-05
1051.99	7.0356e-05
1060.66	6.24955e-05
1069.34	5.70793e-05
1078.02	4.93403e-05
1086.7	4.10574e-05
1095.38	3.40039e-05
1104.05	3.15912e-05
1112.73	3.53421e-05
1121.41	5.4388e-05
1130.09	0.000171033
1138.77	0.000800511
1147.45	0.000906808
1156.12	0.000834981
1164.8	0.00010928
1173.48	5.51872e-05
1182.16	7.18213e-05
1190.84	0.000123359
1199.51	0.000308085
1208.19	0.00104717
1216.87	0.00251473
1225.55	0.00271149
1234.23	0.00188253
1242.9	0.000401334
1251.58	0.000237478
1260.26	0.000188522
1268.94	7.5019e-05
1277.62	6.23616e-05
1286.3	0.000138188
1294.97	0.000171885
1303.65	0.000160043
1312.33	5.55617e-05
1321.01	2.17239e-05
1329.69	1.49977e-05
1338.36	1.47399e-05
1347.04	2.26362e-05
1355.72	6.06602e-05
1364.4	0.000220421
1373.08	0.000374853
1381.76	0.000430697
1390.43	0.000207263
1399.11	7.89239e-05
1407.79	3.25984e-05
1416.47	2.95064e-05
1425.15	3.306e-05
1433.82	4.03726e-05
1442.5	3.60942e-05
1451.18	3.40809e-05
1459.86	2.77308e-05
1468.54	2.31493e-05
1477.22	2.11636e-05
1485.89	1.89767e-05
1494.57	1.68342e-05
1503.25	1.56695e-05
1511.93	1.47693e-05
1520.61	1.34718e-05
1529.28	1.24832e-05
1537.96	1.13051e-05
1546.64	1.19262e-05
1555.32	1.48542e-05
1564	1.79712e-05
1572.67	1.99982e-05
1581.35	2.20244e-05
1590.03	2.27657e-05
1598.71	2.33551e-05
1607.39	2.63183e-05
1616.07	3.48087e-05
1624.74	4.60037e-05
1633.42	7.76655e-05
1642.1	0.000299941
1650.78	0.000408503
1659.46	0.000510644
1668.13	0.000106485
1676.81	3.2771e-05
1685.49	1.92098e-05
1694.17	1.7572e-05
1702.85	1.54662e-05
1711.53	1.38308e-05
1720.2	1.38121e-05
1728.88	2.0199e-05
1737.56	2.9935e-05
1746.24	5.8316e-05
1754.92	0.000135399
1763.59	0.000353048
1772.27	0.000923433
1780.95	0.00112778
1789.63	0.00141836
1798.31	0.000655495
1806.98	0.000229286
1815.66	6.31367e-05
1824.34	2.66599e-05
1833.02	2.24093e-05
1841.7	1.96602e-05
1850.38	2.28481e-05
1859.05	2.72127e-05
1867.73	2.87122e-05
1876.41	2.54514e-05
1885.09	1.72301e-05
1893.77	1.49351e-05
1902.44	1.41182e-05
1911.12	1.07142e-05
1919.8	6.32011e-06
1928.48	4.62176e-06
1937.16	4.92282e-06
1945.84	5.42121e-06
1954.51	5.60284e-06
1963.19	5.26292e-06
1971.87	5.19702e-06
1980.55	8.79051e-06
1989.23	1.30668e-05
1997.9	1.37062e-05
2006.58	8.06116e-06
2015.26	5.56282e-06
2023.94	5.45713e-06
2032.62	5.66531e-06
2041.3	7.403e-06
2049.97	1.39345e-05
2058.65	2.45864e-05
2067.33	2.77944e-05
2076.01	2.08926e-05
2084.69	8.91158e-06
2093.36	6.20848e-06
2102.04	5.74785e-06
2110.72	6.74811e-06
2119.4	7.12996e-06
2128.08	7.2229e-06
2136.75	4.42563e-06
2145.43	4.20008e-06
2154.11	4.48426e-06
2162.79	4.87232e-06
2171.47	4.67007e-06
2180.15	3.97367e-06
2188.82	2.66484e-06
2197.5	2.23005e-06
2206.18	2.25548e-06
2214.86	3.27174e-06
2223.54	4.45098e-06
2232.21	4.80062e-06
2240.89	3.96382e-06
2249.57	3.0966e-06
2258.25	2.39676e-06
2266.93	2.8192e-06
2275.61	6.36512e-06
2284.28	1.10971e-05
2292.96	1.11601e-05
2301.64	5.48769e-06
2310.32	1.45624e-06
2319	1.24369e-06
2327.67	1.51105e-06
2336.35	2.45171e-06
2345.03	3.37039e-06
2353.71	4.16062e-06
2362.39	3.81003e-06
2371.06	3.2343e-06
2379.74	2.5283e-06
2388.42	1.61259e-06
2397.1	1.89328e-06
2405.78	2.56731e-06
2414.46	3.63806e-06
2423.13	5.47476e-06
2431.81	8.03467e-06
2440.49	8.16993e-06
2449.17	6.43549e-06
2457.85	2.95768e-06
2466.52	1.97915e-06
2475.2	1.68612e-06
2483.88	1.65245e-06
2492.56	1.88616e-06
2501.24	1.91715e-06
2509.92	1.04315e-06
2518.59	7.90552e-07
2527.27	6.24035e-07
2535.95	4.19577e-07
2544.63	3.2889e-07
2553.31	2.91504e-07
2561.98	2.99602e-07
2570.66	5.87312e-07
2579.34	1.30421e-06
2588.02	1.94908e-06
2596.7	1.85339e-06
2605.38	1.39423e-06
2614.05	1.20102e-06
2622.73	1.89181e-06
2631.41	2.11488e-06
2640.09	1.84939e-06
2648.77	9.5736e-07
2657.44	9.48535e-07
2666.12	1.15166e-06
2674.8	1.16124e-06
2683.48	8.95379e-07
2692.16	5.30206e-07
2700.83	4.04374e-07
2709.51	4.29802e-07
2718.19	4.51047e-07
2726.87	5.48518e-07
2735.55	9.70558e-07
2744.23	2.1389e-06
2752.9	3.02551e-06
2761.58	3.16231e-06
2770.26	2.01408e-06
2778.94	1.10519e-06
2787.62	1.342e-06
2796.29	1.51112e-06
2804.97	1.35915e-06
2813.65	7.38139e-07
2822.33	6.99913e-07
2831.01	8.10505e-07
2839.69	1.0542e-06
2848.36	1.80016e-06
2857.04	2.32434e-06
2865.72	2.39151e-06
2874.4	1.80007e-06
2883.08	1.34012e-06
2891.75	1.18094e-06
2900.43	1.21637e-06
2909.11	1.25552e-06
2917.79	1.4754e-06
2926.47	2.14456e-06
2935.14	4.01464e-06
2943.82	8.54234e-06
2952.5	1.06317e-05
2961.18	1.23875e-05
2969.86	9.59979e-06
2978.54	9.00887e-06
2987.21	9.87021e-06
2995.89	1.22321e-05
3004.57	1.14565e-05
3013.25	1.15797e-05
3021.93	1.34747e-05
3030.6	1.69359e-05
3039.28	1.87132e-05
3047.96	2.05011e-05
3056.64	2.21298e-05
3065.32	2.32332e-05
3074	1.87322e-05
3082.67	1.80466e-05
3091.35	3.56568e-05
3100.03	4.18915e-05
3108.71	4.65018e-05
3117.39	1.91583e-05
3126.06	2.56258e-05
3134.74	2.1941e-05
3143.42	1.57239e-05
3152.1	5.20376e-06
3160.78	2.58821e-06
3169.46	1.62071e-06
3178.13	1.23174e-06
3186.81	1.06009e-06
3195.49	1.08148e-06
3204.17	8.3832e-07
3212.85	6.41584e-07
3221.52	4.58243e-07
3230.2	2.69172e-07
3238.88	1.39168e-07
3247.56	3.70619e-08
3256.24	5.90233e-08
3264.91	1.59736e-08
3273.59	-4.98779e-08
3282.27	-6.24974e-08
3290.95	4.12417e-08
3299.63	8.00243e-08
3308.31	-1.45836e-07
3316.98	-4.72201e-07
3325.66	-4.14116e-07
3334.34	-1.50408e-07
3343.02	7.22831e-09
3351.7	2.00006e-08
3360.37	-1.17272e-07
3369.05	-1.24624e-07
3377.73	-5.04054e-08
3386.41	-6.26065e-09
3395.09	2.37185e-09
3403.77	-1.03525e-07
3412.44	-1.27956e-07
3421.12	-9.00792e-08
3429.8	-1.80471e-08
3438.48	-7.22103e-09
3447.16	9.06321e-08
3455.83	2.4653e-07
3464.51	1.90006e-07
3473.19	2.13986e-07
3481.87	-2.76327e-08
3490.55	-1.21073e-07
3499.22	-2.42714e-08
3507.9	2.2208e-07
3516.58	1.09164e-06
3525.26	3.3537e-06
3533.94	9.00767e-06
3542.62	1.51379e-05
3551.29	1.46357e-05
3559.97	1.07714e-05
3568.65	3.38127e-06
3577.33	5.51505e-07
3586.01	-2.18992e-07
3594.68	-3.52095e-07
3603.36	-4.9505e-07
3612.04	-6.35866e-07
3620.72	-5.87417e-07
3629.4	-8.06402e-07
3638.08	-4.43935e-07
3646.75	-4.89968e-07
3655.43	-4.89873e-07
3664.11	-3.39058e-07
3672.79	-4.11046e-07
3681.47	-3.94196e-07
3690.14	-5.32901e-07
3698.82	-4.56216e-07
3707.5	-4.41232e-07
3716.18	-4.20726e-07
3724.86	-4.25212e-07
3733.54	-4.99939e-07
3742.21	-4.76548e-07
3750.89	-5.92609e-07
3759.57	-5.21762e-07
3768.25	-4.08023e-07
3776.93	-4.13363e-07
3785.6	-4.33404e-07
3794.28	-4.00125e-07
3802.96	-4.65668e-07
3811.64	-3.5765e-07
3820.32	-4.80892e-07
3828.99	-2.95626e-07
3837.67	-6.87144e-07
3846.35	-2.34409e-07
3855.03	-6.54291e-07
3863.71	-2.43107e-07
3872.39	-1.74382e-07
3881.06	-1.79191e-07
3889.74	-4.90521e-08
3898.42	-8.64887e-08
3907.1	8.30801e-08
3915.78	1.19167e-07
3924.45	1.26654e-07
3933.13	1.35093e-07
3941.81	1.76106e-07
3950.49	2.45341e-07
3959.17	4.7462e-07
3967.85	9.21618e-07
