Infrared Spectrum: Toluene
Formula: C H3 C6 H5
CAS: 108-88-3
State: gas
Melting point: -95 C
Boiling point: 110.6 C
Class: IUPAC A
Instrument: IFS66V (Bruker)
Instrument parameters: KBr Beam splitter; MCT Detector; Multipass cell
Sampling: 1 L/min Flow
Resolution: 0.4820
Temperature: 23 C
Pressure: 101.3 kPa
Origin: NIST, Anayltical Chemistry Division, 301-975-3108
cm-1	(micromol/mol)-1m-1 (base 10)
574.928	-5.27639e-07
583.606	-8.25781e-07
592.284	-4.45385e-07
600.962	-8.84115e-08
609.641	-1.61422e-07
618.319	1.03016e-07
626.997	3.64629e-07
635.675	2.48042e-07
644.353	5.97699e-08
653.031	4.44464e-07
661.71	3.10078e-06
670.388	1.46713e-05
679.066	5.52279e-05
687.744	7.09408e-05
696.422	7.85145e-05
705.1	0.000109351
713.778	0.000164842
722.457	0.000195579
731.135	0.000254535
739.813	0.000176665
748.491	7.39796e-05
757.169	1.00618e-05
765.847	1.9292e-06
774.526	2.10573e-06
783.204	1.49905e-06
791.882	2.10471e-06
800.56	7.67439e-07
809.238	4.90462e-07
817.916	5.03135e-07
826.594	7.27303e-07
835.273	4.35971e-07
843.951	3.90662e-07
852.629	7.8619e-07
861.307	1.12234e-06
869.985	1.37485e-06
878.663	2.29179e-06
887.342	3.02833e-06
896.02	4.0055e-06
904.698	3.35052e-06
913.376	2.9289e-06
922.054	3.15864e-06
930.732	4.1284e-06
939.41	2.92297e-06
948.089	1.97378e-06
956.767	2.113e-06
965.445	2.71913e-06
974.123	3.10639e-06
982.801	2.65733e-06
991.479	2.12137e-06
1000.16	1.75681e-06
1008.84	2.04706e-06
1017.51	7.35342e-06
1026.19	2.48919e-05
1034.87	1.78154e-05
1043.55	2.26347e-05
1052.23	1.34756e-05
1060.9	1.33086e-05
1069.58	1.87198e-05
1078.26	2.56806e-05
1086.94	2.4577e-05
1095.62	1.66814e-05
1104.3	7.63721e-06
1112.97	7.86253e-06
1121.65	3.44838e-06
1130.33	1.96415e-06
1139.01	1.68e-06
1147.69	1.64881e-06
1156.36	1.95741e-06
1165.04	2.58183e-06
1173.72	2.89062e-06
1182.4	2.39276e-06
1191.08	2.15126e-06
1199.76	3.63595e-06
1208.43	4.22045e-06
1217.11	5.12647e-06
1225.79	2.36398e-06
1234.47	2.82937e-06
1243.15	2.70797e-06
1251.82	2.56241e-06
1260.5	1.1756e-06
1269.18	8.02618e-07
1277.86	9.18279e-07
1286.54	1.17245e-06
1295.21	1.55812e-06
1303.89	2.69711e-06
1312.57	2.41949e-06
1321.25	2.46906e-06
1329.93	1.88034e-06
1338.61	1.90503e-06
1347.28	2.62314e-06
1355.96	4.29699e-06
1364.64	5.49108e-06
1373.32	1.02525e-05
1382	1.47064e-05
1390.67	1.8189e-05
1399.35	8.46865e-06
1408.03	8.32137e-06
1416.71	1.08493e-05
1425.39	1.05907e-05
1434.07	1.36672e-05
1442.74	2.2394e-05
1451.42	3.34256e-05
1460.1	3.50371e-05
1468.78	3.26034e-05
1477.46	3.10164e-05
1486.13	5.7098e-05
1494.81	9.26984e-05
1503.49	8.85801e-05
1512.17	5.40346e-05
1520.85	2.08414e-05
1529.52	1.98089e-05
1538.2	1.56403e-05
1546.88	1.11072e-05
1555.56	1.05482e-05
1564.24	1.052e-05
1572.92	1.22174e-05
1581.59	9.34136e-06
1590.27	1.12085e-05
1598.95	3.48005e-05
1607.63	4.68437e-05
1616.31	4.80385e-05
1624.98	2.33644e-05
1633.66	6.21049e-06
1642.34	1.89787e-06
1651.02	1.89128e-06
1659.7	1.80258e-06
1668.38	1.82167e-06
1677.05	1.73127e-06
1685.73	1.87927e-06
1694.41	1.69662e-06
1703.09	1.60981e-06
1711.77	2.06523e-06
1720.44	3.81031e-06
1729.12	5.02773e-06
1737.8	5.79204e-06
1746.48	2.40816e-06
1755.16	1.23526e-06
1763.84	1.82208e-06
1772.51	3.02315e-06
1781.19	4.98421e-06
1789.87	1.01244e-05
1798.55	9.40066e-06
1807.23	1.23506e-05
1815.9	4.05497e-06
1824.58	3.48132e-06
1833.26	2.99097e-06
1841.94	5.51006e-06
1850.62	1.04109e-05
1859.29	1.30089e-05
1867.97	1.07939e-05
1876.65	7.37658e-06
1885.33	2.72276e-06
1894.01	1.34627e-06
1902.69	1.20965e-06
1911.36	1.40764e-06
1920.04	2.73208e-06
1928.72	7.54834e-06
1937.4	1.18059e-05
1946.08	1.63991e-05
1954.75	1.06123e-05
1963.43	6.42592e-06
1972.11	1.79373e-06
1980.79	9.78478e-07
1989.47	1.23188e-06
1998.15	1.19225e-06
2006.82	9.82966e-07
2015.5	6.90614e-07
2024.18	5.71782e-07
2032.86	3.20863e-07
2041.54	7.98987e-08
2050.21	9.13346e-08
2058.89	1.66451e-07
2067.57	2.33133e-07
2076.25	2.40116e-07
2084.93	1.57535e-07
2093.6	2.01845e-07
2102.28	2.01929e-07
2110.96	1.9838e-07
2119.64	2.7611e-07
2128.32	3.70248e-07
2137	2.55654e-07
2145.67	2.76096e-07
2154.35	4.93171e-07
2163.03	1.03746e-06
2171.71	1.20109e-06
2180.39	1.0131e-06
2189.06	6.57774e-07
2197.74	5.26218e-07
2206.42	4.93071e-07
2215.1	5.11441e-07
2223.78	4.99366e-07
2232.46	4.40712e-07
2241.13	5.88591e-07
2249.81	8.92164e-07
2258.49	1.04739e-06
2267.17	1.19176e-06
2275.85	1.40443e-06
2284.52	1.35258e-06
2293.2	1.31925e-06
2301.88	1.46504e-06
2310.56	1.64247e-06
2319.24	2.25375e-06
2327.92	1.8414e-06
2336.59	1.78214e-06
2345.27	2.28503e-06
2353.95	2.07159e-06
2362.63	1.91381e-06
2371.31	1.85131e-06
2379.98	1.18232e-06
2388.66	1.10941e-06
2397.34	1.25417e-06
2406.02	1.54275e-06
2414.7	1.83645e-06
2423.37	2.00019e-06
2432.05	1.34565e-06
2440.73	1.01747e-06
2449.41	8.64705e-07
2458.09	9.18519e-07
2466.77	1.01149e-06
2475.44	9.1791e-07
2484.12	8.998e-07
2492.8	8.80304e-07
2501.48	1.00106e-06
2510.16	9.8182e-07
2518.83	7.8734e-07
2527.51	7.54557e-07
2536.19	7.56557e-07
2544.87	7.62706e-07
2553.55	6.37804e-07
2562.23	6.44959e-07
2570.9	7.93003e-07
2579.58	1.3987e-06
2588.26	2.26166e-06
2596.94	2.65264e-06
2605.62	1.80669e-06
2614.29	1.37436e-06
2622.97	1.38308e-06
2631.65	1.20464e-06
2640.33	1.13313e-06
2649.01	9.12955e-07
2657.68	7.51051e-07
2666.36	7.16547e-07
2675.04	5.60702e-07
2683.72	5.999e-07
2692.4	5.14335e-07
2701.08	4.769e-07
2709.75	6.78607e-07
2718.43	8.09579e-07
2727.11	1.3762e-06
2735.79	4.86322e-06
2744.47	8.22837e-06
2753.14	6.74784e-06
2761.82	1.92431e-06
2770.5	1.33504e-06
2779.18	1.55327e-06
2787.86	1.92668e-06
2796.54	2.2113e-06
2805.21	2.23651e-06
2813.89	3.141e-06
2822.57	4.1483e-06
2831.25	5.0089e-06
2839.93	6.48384e-06
2848.6	9.69027e-06
2857.28	1.80593e-05
2865.96	3.41811e-05
2874.64	5.47982e-05
2883.32	6.70352e-05
2892	6.06005e-05
2900.67	4.44126e-05
2909.35	4.13316e-05
2918.03	6.19825e-05
2926.71	0.000104094
2935.39	0.000118818
2944.06	0.000112975
2952.74	6.96558e-05
2961.42	5.26926e-05
2970.1	3.69994e-05
2978.78	3.85761e-05
2987.45	4.35671e-05
2996.13	4.84228e-05
3004.81	6.883e-05
3013.49	7.26367e-05
3022.17	0.000124217
3030.85	0.000218048
3039.52	0.000221614
3048.2	0.000195221
3056.88	0.000107892
3065.56	0.000118613
3074.24	0.000138132
3082.91	0.000124662
3091.59	9.1682e-05
3100.27	7.49126e-05
3108.95	4.45974e-05
3117.63	2.78878e-05
3126.31	1.6226e-05
3134.98	7.02115e-06
3143.66	1.97959e-06
3152.34	1.32912e-06
3161.02	1.48222e-06
3169.7	1.662e-06
3178.37	1.41245e-06
3187.05	1.2785e-06
3195.73	2.78449e-07
3204.41	3.01438e-07
3213.09	3.80276e-08
3221.77	8.35112e-08
3230.44	4.82794e-08
3239.12	3.60085e-08
3247.8	3.34172e-07
3256.48	2.34547e-07
3265.16	4.90084e-07
3273.83	5.49541e-07
3282.51	6.47133e-07
3291.19	4.6265e-07
3299.87	2.84183e-07
3308.55	3.27336e-07
3317.22	3.52795e-07
3325.9	5.71265e-07
3334.58	6.31739e-07
3343.26	5.63009e-07
3351.94	6.07095e-07
3360.62	5.97986e-07
3369.29	6.49561e-07
3377.97	5.4153e-07
3386.65	7.18892e-07
3395.33	4.25245e-07
3404.01	6.13609e-07
3412.68	3.68904e-07
3421.36	3.86681e-07
3430.04	6.12121e-07
3438.72	5.31821e-07
3447.4	5.1583e-07
3456.08	3.43018e-07
3464.75	4.3751e-07
3473.43	1.71184e-07
3482.11	2.16679e-07
3490.79	3.06984e-07
3499.47	2.84621e-07
3508.14	2.65158e-07
3516.82	3.98797e-07
3525.5	4.29167e-07
3534.18	3.47549e-07
3542.86	3.5515e-07
3551.53	3.15573e-07
3560.21	4.95534e-07
3568.89	3.71781e-07
3577.57	1.72785e-07
3586.25	3.63398e-07
3594.93	3.63048e-07
3603.6	2.94518e-07
3612.28	2.60642e-07
3620.96	4.73173e-07
3629.64	-1.64039e-07
3638.32	6.37402e-07
3646.99	7.53722e-07
3655.67	1.03852e-06
3664.35	9.83513e-07
3673.03	9.58808e-07
3681.71	7.79084e-07
3690.39	6.76008e-07
3699.06	5.98486e-07
3707.74	3.92445e-07
3716.42	5.65006e-07
3725.1	4.10351e-07
3733.78	4.48651e-07
3742.45	3.19335e-07
3751.13	1.91235e-07
3759.81	-1.19161e-08
3768.49	2.92927e-07
3777.17	4.35375e-07
3785.85	4.64989e-07
3794.52	7.74714e-07
3803.2	7.80699e-07
3811.88	6.13578e-07
3820.56	6.68124e-07
3829.24	8.33551e-07
3837.91	-2.90329e-07
3846.59	1.22697e-06
3855.27	1.69037e-06
3863.95	1.44615e-06
3872.63	1.24799e-06
3881.3	9.66722e-07
3889.98	7.60268e-07
3898.66	7.53505e-07
3907.34	8.65436e-07
3916.02	1.12473e-06
3924.7	1.2406e-06
3933.37	1.0221e-06
3942.05	9.04166e-07
3950.73	8.91653e-07
3959.41	8.79097e-07
3968.09	7.77856e-07
