Infrared Spectrum: Ethenyl Ester-Acetic Acid
Formula: C H3 C O2 C H: C H2
CAS: 108-05-4
State: gas
Melting point: -93.2 C
Boiling point: 72.2 C
Class: IUPAC A
Instrument: IFS66V (Bruker)
Instrument parameters: KBr Beam splitter; MCT Detector; Multipass cell
Sampling: 1 L/min Flow
Resolution: 0.9640
Temperature: 23 C
Pressure: 101.3 kPa
Origin: NIST, Anayltical Chemistry Division, 301-975-3108
cm-1	(micromol/mol)-1m-1 (base 10)
575.169	1.08516e-05
583.847	1.97117e-05
592.525	3.82785e-05
601.203	2.86634e-05
609.882	3.26526e-05
618.56	3.41976e-05
627.238	4.27919e-05
635.916	4.1947e-05
644.594	4.0777e-05
653.272	2.4696e-05
661.951	1.28012e-05
670.629	5.70946e-06
679.307	4.81026e-06
687.985	6.68358e-06
696.663	9.70081e-06
705.341	1.07906e-05
714.019	1.2205e-05
722.698	8.94157e-06
731.376	7.0868e-06
740.054	5.86915e-06
748.732	5.63057e-06
757.41	6.36794e-06
766.088	7.7943e-06
774.767	9.75384e-06
783.445	9.56099e-06
792.123	9.04364e-06
800.801	9.11893e-06
809.479	1.05187e-05
818.157	1.5194e-05
826.835	2.54719e-05
835.514	5.31759e-05
844.192	8.89512e-05
852.87	0.000133985
861.548	0.000154804
870.226	0.000275698
878.904	0.000159792
887.583	0.000124075
896.261	5.88995e-05
904.939	2.04879e-05
913.617	1.30704e-05
922.295	2.38625e-05
930.973	5.53947e-05
939.651	8.83915e-05
948.33	0.000126624
957.008	0.000158348
965.686	0.000115447
974.364	0.000106619
983.042	0.000105103
991.72	6.62077e-05
1000.4	9.07633e-05
1009.08	0.000190509
1017.75	0.000342167
1026.43	0.000356858
1035.11	0.000223477
1043.79	8.45644e-05
1052.47	6.8133e-05
1061.15	6.12032e-05
1069.82	5.5644e-05
1078.5	4.77908e-05
1087.18	3.92415e-05
1095.86	3.18667e-05
1104.54	2.93022e-05
1113.21	3.2354e-05
1121.89	5.04955e-05
1130.57	0.000176126
1139.25	0.000860873
1147.93	0.000955886
1156.61	0.000811021
1165.28	8.23484e-05
1173.96	4.68786e-05
1182.64	6.57492e-05
1191.32	0.000116103
1200	0.000310656
1208.67	0.00110433
1217.35	0.00263497
1226.03	0.00272221
1234.71	0.00177274
1243.39	0.000355969
1252.07	0.0002279
1260.74	0.000180139
1269.42	6.57635e-05
1278.1	5.8327e-05
1286.78	0.000144493
1295.46	0.000172805
1304.13	0.000158723
1312.81	4.84762e-05
1321.49	1.86421e-05
1330.17	1.28389e-05
1338.85	1.27222e-05
1347.52	2.08289e-05
1356.2	6.11405e-05
1364.88	0.000234986
1373.56	0.000392053
1382.24	0.000435894
1390.92	0.000194693
1399.59	7.12726e-05
1408.27	2.95426e-05
1416.95	2.84677e-05
1425.63	3.25874e-05
1434.31	4.03026e-05
1442.98	3.57326e-05
1451.66	3.34727e-05
1460.34	2.69556e-05
1469.02	2.25858e-05
1477.7	2.07829e-05
1486.38	1.8469e-05
1495.05	1.62797e-05
1503.73	1.52778e-05
1512.41	1.42168e-05
1521.09	1.24815e-05
1529.77	1.21128e-05
1538.44	1.11236e-05
1547.12	1.15905e-05
1555.8	1.48974e-05
1564.48	1.76577e-05
1573.16	1.97741e-05
1581.83	2.16523e-05
1590.51	2.2252e-05
1599.19	2.26798e-05
1607.87	2.5709e-05
1616.55	3.36193e-05
1625.23	4.49392e-05
1633.9	7.74138e-05
1642.58	0.000325284
1651.26	0.000410909
1659.94	0.000531228
1668.62	8.73012e-05
1677.29	2.84097e-05
1685.97	1.72947e-05
1694.65	1.59961e-05
1703.33	1.39222e-05
1712.01	1.22181e-05
1720.69	1.21565e-05
1729.36	1.8796e-05
1738.04	2.74257e-05
1746.72	5.70053e-05
1755.4	0.000136719
1764.08	0.000365078
1772.75	0.00097881
1781.43	0.00109331
1790.11	0.00148962
1798.79	0.000610625
1807.47	0.000207743
1816.15	5.23446e-05
1824.82	2.25023e-05
1833.5	2.01032e-05
1842.18	1.81156e-05
1850.86	2.19933e-05
1859.54	2.68222e-05
1868.21	2.81062e-05
1876.89	2.49693e-05
1885.57	1.62081e-05
1894.25	1.45354e-05
1902.93	1.35924e-05
1911.6	1.01979e-05
1920.28	5.64541e-06
1928.96	4.26014e-06
1937.64	4.66829e-06
1946.32	5.1764e-06
1955	5.40548e-06
1963.67	5.00418e-06
1972.35	4.96854e-06
1981.03	9.00175e-06
1989.71	1.30078e-05
1998.39	1.39806e-05
2007.06	7.36035e-06
2015.74	5.33987e-06
2024.42	5.24251e-06
2033.1	5.47623e-06
2041.78	7.34396e-06
2050.46	1.43405e-05
2059.13	2.53581e-05
2067.81	2.78872e-05
2076.49	2.01103e-05
2085.17	8.33718e-06
2093.85	5.95498e-06
2102.52	5.64489e-06
2111.2	6.69137e-06
2119.88	6.99386e-06
2128.56	7.27237e-06
2137.24	4.1476e-06
2145.91	4.13761e-06
2154.59	4.37202e-06
2163.27	4.84531e-06
2171.95	4.64262e-06
2180.63	3.89795e-06
2189.31	2.56394e-06
2197.98	2.11394e-06
2206.66	2.16192e-06
2215.34	3.27128e-06
2224.02	4.48351e-06
2232.7	4.74707e-06
2241.37	3.86596e-06
2250.05	3.00091e-06
2258.73	2.26154e-06
2267.41	2.75661e-06
2276.09	6.66187e-06
2284.77	1.12831e-05
2293.44	1.11842e-05
2302.12	4.84571e-06
2310.8	1.26745e-06
2319.48	1.14092e-06
2328.16	1.43445e-06
2336.83	2.4098e-06
2345.51	3.38679e-06
2354.19	4.23198e-06
2362.87	3.83508e-06
2371.55	3.19167e-06
2380.23	2.43776e-06
2388.9	1.50999e-06
2397.58	1.8448e-06
2406.26	2.55138e-06
2414.94	3.66952e-06
2423.62	5.57854e-06
2432.29	8.23685e-06
2440.97	8.25422e-06
2449.65	6.2673e-06
2458.33	2.79112e-06
2467.01	1.88346e-06
2475.68	1.60262e-06
2484.36	1.63626e-06
2493.04	1.9101e-06
2501.72	1.87103e-06
2510.4	9.53253e-07
2519.08	7.29986e-07
2527.75	6.03766e-07
2536.43	3.88546e-07
2545.11	2.87754e-07
2553.79	2.87532e-07
2562.47	2.55337e-07
2571.14	5.81928e-07
2579.82	1.33847e-06
2588.5	1.9927e-06
2597.18	1.81111e-06
2605.86	1.32222e-06
2614.54	1.17055e-06
2623.21	1.9521e-06
2631.89	2.11645e-06
2640.57	1.80211e-06
2649.25	9.44071e-07
2657.93	9.1204e-07
2666.6	1.17486e-06
2675.28	1.14542e-06
2683.96	8.26923e-07
2692.64	5.14276e-07
2701.32	3.58371e-07
2709.99	3.83741e-07
2718.67	4.62721e-07
2727.35	5.51065e-07
2736.03	9.64675e-07
2744.71	2.21186e-06
2753.39	3.00233e-06
2762.06	3.24188e-06
2770.74	1.91663e-06
2779.42	1.00151e-06
2788.1	1.33741e-06
2796.78	1.48215e-06
2805.45	1.28817e-06
2814.13	6.82502e-07
2822.81	6.75376e-07
2831.49	7.61184e-07
2840.17	1.00477e-06
2848.85	1.85897e-06
2857.52	2.35577e-06
2866.2	2.35939e-06
2874.88	1.73892e-06
2883.56	1.29769e-06
2892.24	1.10469e-06
2900.91	1.15548e-06
2909.59	1.22503e-06
2918.27	1.39069e-06
2926.95	2.10402e-06
2935.63	4.13756e-06
2944.31	8.87569e-06
2952.98	1.07719e-05
2961.66	1.23502e-05
2970.34	9.39854e-06
2979.02	9.00106e-06
2987.7	9.88474e-06
2996.37	1.22126e-05
3005.05	1.1367e-05
3013.73	1.15833e-05
3022.41	1.36498e-05
3031.09	1.71001e-05
3039.76	1.8854e-05
3048.44	2.07243e-05
3057.12	2.2176e-05
3065.8	2.35698e-05
3074.48	1.82457e-05
3083.16	1.78569e-05
3091.83	3.77801e-05
3100.51	4.1902e-05
3109.19	4.7687e-05
3117.87	1.80415e-05
3126.55	2.57056e-05
3135.22	2.27709e-05
3143.9	1.45233e-05
3152.58	4.71955e-06
3161.26	2.36515e-06
3169.94	1.46234e-06
3178.62	1.13261e-06
3187.29	1.03282e-06
3195.97	1.05046e-06
3204.65	7.62177e-07
3213.33	6.25069e-07
3222.01	4.1906e-07
3230.68	2.79037e-07
3239.36	6.58878e-08
3248.04	-2.17431e-08
3256.72	7.96533e-08
3265.4	-3.01937e-09
3274.07	-5.15949e-08
3282.75	-1.36916e-07
3291.43	8.49826e-08
3300.11	1.96659e-08
3308.79	-1.89169e-07
3317.47	-5.22097e-07
3326.14	-4.62706e-07
3334.82	-1.8643e-07
3343.5	-1.08479e-08
3352.18	-1.1721e-08
3360.86	-1.62508e-07
3369.53	-1.42947e-07
3378.21	-4.24095e-08
3386.89	-5.62804e-08
3395.57	-3.39261e-08
3404.25	-1.32641e-07
3412.93	-1.33082e-07
3421.6	-9.41208e-08
3430.28	-3.60142e-08
3438.96	-4.87683e-08
3447.64	9.34223e-08
3456.32	2.85538e-07
3464.99	2.21084e-07
3473.67	1.95852e-07
3482.35	-8.13376e-08
3491.03	-9.89773e-08
3499.71	-4.53052e-08
3508.39	2.17821e-07
3517.06	1.10644e-06
3525.74	3.3582e-06
3534.42	9.45764e-06
3543.1	1.54612e-05
3551.78	1.52994e-05
3560.45	1.00668e-05
3569.13	3.14402e-06
3577.81	3.80081e-07
3586.49	-5.28161e-07
3595.17	-5.31635e-07
3603.84	-5.4133e-07
3612.52	-8.97634e-07
3621.2	-5.23407e-07
3629.88	-1.00253e-06
3638.56	-5.17644e-07
3647.24	-6.60617e-07
3655.91	-5.80673e-07
3664.59	-3.46337e-07
3673.27	-2.9018e-07
3681.95	-3.62409e-07
3690.63	-5.66696e-07
3699.3	-4.81968e-07
3707.98	-5.07309e-07
3716.66	-4.33233e-07
3725.34	-4.64991e-07
3734.02	-4.30308e-07
3742.7	-4.70913e-07
3751.37	-3.88117e-07
3760.05	-7.24839e-07
3768.73	-4.97775e-07
3777.41	-4.44626e-07
3786.09	-3.35369e-07
3794.76	-3.93905e-07
3803.44	-4.70589e-07
3812.12	-4.1153e-07
3820.8	-7.91247e-07
3829.48	-2.60416e-07
3838.16	-1.15229e-06
3846.83	-2.7341e-07
3855.51	-3.2312e-07
3864.19	-2.76946e-07
3872.87	-1.646e-07
3881.55	-1.298e-07
3890.22	-8.14976e-08
3898.9	-8.05845e-08
3907.58	1.64268e-07
3916.26	6.04602e-08
3924.94	7.07443e-08
3933.61	1.40997e-07
3942.29	6.38798e-08
3950.97	2.55574e-07
3959.65	4.77534e-07
3968.33	9.3613e-07
