Infrared Spectrum: RESORCINOL DIACETATE
Formula: C10 H10 O4
CAS: 108-58-7
State: LIQUID (NEAT)
Class: COBLENTZ III
Instrument: BECKMAN IR-7 (GRATING)
Instrument parameters: GRATING CHANGES AT 3000, 2200, 1150 CM^-^1
Sampling: TRANSMISSION
Path length: CAPILLARY
Resolution: 4
Origin: WESTERN REGIONAL RES. USDA
1/CM	TRANSMITTANCE
596.731	0.677
605.232	0.714
613.732	0.815
622.233	0.844
630.734	0.853
639.235	0.855
647.735	0.834
656.236	0.781
664.737	0.647
673.237	0.741
681.738	0.494
690.239	0.584
698.739	0.441
707.24	0.693
715.741	0.833
724.242	0.85
732.742	0.853
741.243	0.849
749.744	0.795
758.244	0.723
766.745	0.795
775.246	0.704
783.746	0.533
792.247	0.564
800.748	0.619
809.249	0.76
817.749	0.813
826.25	0.813
834.751	0.759
843.251	0.687
851.752	0.728
860.253	0.736
868.754	0.724
877.254	0.683
885.755	0.548
894.256	0.406
902.756	0.402
911.257	0.367
919.758	0.318
928.258	0.601
936.759	0.745
945.26	0.756
953.761	0.642
962.261	0.282
970.762	0.306
979.263	0.569
987.763	0.645
996.264	0.599
1004.76	0.278
1013.27	0.108
1021.77	0.166
1030.27	0.442
1038.77	0.527
1047.27	0.467
1055.77	0.592
1064.27	0.65
1072.77	0.643
1081.27	0.563
1089.77	0.686
1098.27	0.701
1106.77	0.635
1115.27	0.272
1123.77	0.028
1132.28	0.064
1140.78	0.345
1149.28	0.502
1157.78	0.3651
1166.28	0.245
1174.78	0.265
1183.28	0.081
1191.78	0.018
1200.28	0.015
1208.78	0.015
1217.28	0.016
1225.78	0.02
1234.28	0.072
1242.78	0.119
1251.29	0.192
1259.79	0.401
1268.29	0.545
1276.79	0.519
1285.29	0.647
1293.79	0.7
1302.29	0.684
1310.79	0.639
1319.29	0.677
1327.79	0.715
1336.29	0.743
1344.79	0.735
1353.29	0.673
1361.79	0.473
1370.3	0.079
1378.8	0.128
1387.3	0.4739
1395.8	0.629
1404.3	0.659
1412.8	0.642
1421.3	0.563
1429.8	0.446
1438.3	0.406
1446.8	0.406
1455.3	0.5121
1463.8	0.63
1472.3	0.592
1480.8	0.4208
1489.3	0.073
1497.81	0.557
1506.31	0.694
1514.81	0.732
1523.31	0.751
1531.81	0.741
1540.31	0.724
1548.81	0.721
1557.31	0.729
1565.81	0.734
1574.31	0.702
1582.81	0.64
1591.31	0.4509
1599.81	0.155
1608.31	0.254
1616.82	0.462
1625.32	0.615
1633.82	0.684
1642.32	0.666
1650.82	0.679
1659.32	0.715
1667.82	0.738
1676.32	0.754
1684.82	0.759
1693.32	0.749
1701.82	0.728
1710.32	0.673
1718.82	0.582
1727.32	0.461
1735.83	0.349
1744.33	0.203
1752.83	0.081
1761.33	0.023
1769.83	0.015
1778.33	0.02
1786.83	0.1301
1795.33	0.365
1803.83	0.537
1812.33	0.626
1820.83	0.673
1829.33	0.715
1837.83	0.74
1846.33	0.759
1854.84	0.774
1863.34	0.787
1871.84	0.793
1880.34	0.792
1888.84	0.794
1897.34	0.798
1905.84	0.805
1914.34	0.808
1922.84	0.812
1931.34	0.815
1939.84	0.813
1948.34	0.818
1956.84	0.825
1965.34	0.829
1973.85	0.825
1982.35	0.828
1990.85	0.834
1999.35	0.84
2007.85	0.84
2016.35	0.84
2024.85	0.84
2033.35	0.84
2041.85	0.838
2050.35	0.838
2058.85	0.838
2067.35	0.837
2075.85	0.836
2084.35	0.836
2092.85	0.836
2101.36	0.834
2109.86	0.833
2118.36	0.8303
2126.86	0.826
2135.36	0.8227
2143.86	0.82
2152.36	0.818
2160.86	0.8159
2169.36	0.814
2177.86	0.8133
2186.36	0.812
2194.86	0.8143
2203.36	0.8191
2211.86	0.8263
2220.37	0.8363
2228.87	0.8454
2237.37	0.847
2245.87	0.848
2254.37	0.8482
2262.87	0.85
2271.37	0.85
2279.87	0.8521
2288.37	0.8564
2296.87	0.8587
2305.37	0.8599
2313.87	0.859
2322.37	0.8575
2330.87	0.8544
2339.38	0.8479
2347.88	0.8436
2356.38	0.8394
2364.88	0.836
2373.38	0.8338
2381.88	0.8315
2390.38	0.8302
2398.88	0.831
2407.38	0.8317
2415.88	0.834
2424.38	0.836
2432.88	0.8402
2441.38	0.8425
2449.88	0.844
2458.39	0.846
2466.89	0.848
2475.39	0.85
2483.89	0.8509
2492.39	0.8522
2500.89	0.854
2509.39	0.855
2517.89	0.857
2526.39	0.8573
2534.89	0.858
2543.39	0.857
2551.89	0.8558
2560.39	0.8536
2568.89	0.85
2577.4	0.849
2585.9	0.848
2594.4	0.849
2602.9	0.85
2611.4	0.851
2619.9	0.8514
2628.4	0.853
2636.9	0.853
2645.4	0.855
2653.9	0.855
2662.4	0.855
2670.9	0.855
2679.4	0.855
2687.9	0.854
2696.4	0.853
2704.91	0.8527
2713.41	0.851
2721.91	0.8483
2730.41	0.8449
2738.91	0.8444
2747.41	0.846
2755.91	0.848
2764.41	0.85
2772.91	0.85
2781.41	0.85
2789.91	0.85
2798.41	0.85
2806.91	0.85
2815.41	0.849
2823.92	0.848
2832.42	0.8475
2840.92	0.846
2849.42	0.8429
2857.92	0.8376
2866.42	0.836
2874.92	0.836
2883.42	0.834
2891.92	0.8335
2900.42	0.831
2908.92	0.8289
2917.42	0.8263
2925.92	0.8152
2934.42	0.8013
2942.93	0.78
2951.43	0.776
2959.93	0.7895
2968.43	0.809
2976.93	0.81
2985.43	0.8084
2993.93	0.8041
3002.43	0.802
3010.93	0.7965
3019.43	0.7912
3027.93	0.7839
3036.43	0.7657
3044.93	0.762
3053.43	0.7678
3061.94	0.7782
3070.44	0.7795
3078.94	0.7612
3087.44	0.7339
3095.94	0.7303
3104.44	0.7445
3112.94	0.7617
3121.44	0.7722
3129.94	0.7856
3138.44	0.7972
3146.94	0.802
3155.44	0.8063
3163.94	0.8121
3172.44	0.8149
3180.95	0.817
3189.45	0.8184
3197.95	0.82
3206.45	0.821
3214.95	0.823
3223.45	0.8246
3231.95	0.8268
3240.45	0.829
3248.95	0.829
3257.45	0.831
3265.95	0.833
3274.45	0.834
3282.95	0.836
3291.45	0.835
3299.95	0.835
3308.46	0.835
3316.96	0.836
3325.46	0.838
3333.96	0.838
3342.46	0.838
3350.96	0.838
3359.46	0.837
3367.96	0.837
3376.46	0.837
3384.96	0.837
3393.46	0.836
3401.96	0.836
3410.46	0.836
3418.96	0.8359
3427.47	0.834
3435.97	0.8334
3444.47	0.833
3452.97	0.8328
3461.47	0.831
3469.97	0.829
3478.47	0.8249
3486.97	0.818
3495.47	0.8075
3503.97	0.7982
3512.47	0.7948
3520.97	0.7935
3529.47	0.7965
3537.97	0.803
3546.48	0.808
3554.98	0.81
3563.48	0.811
3571.98	0.813
3580.48	0.815
3588.98	0.82
3597.48	0.825
3605.98	0.827
3614.48	0.8254
3622.98	0.8233
3631.48	0.8208
3639.98	0.8157
3648.48	0.8103
3656.98	0.81
3665.49	0.8126
3673.99	0.8217
3682.49	0.8259
3690.99	0.8313
3699.49	0.8368
3707.99	0.8397
3716.49	0.842
3724.99	0.8445
3733.49	0.847
3741.99	0.8462
3750.49	0.845
3758.99	0.844
3767.49	0.844
3775.99	0.845
3784.5	0.846
3793	0.848
3801.5	0.8498
3810	0.851
3818.5	0.851
3827	0.851
3835.5	0.851
3844	0.851
3852.5	0.8505
3861	0.85
3869.5	0.8512
3878	0.8564
3886.5	0.8577
3895	0.858
3903.5	0.859
3912.01	0.86
3920.51	0.859
3929.01	0.859
3937.51	0.8576
3946.01	0.8557
3954.51	0.855
3963.01	0.854
3971.51	0.853
