Infrared Spectrum: Toluene
Formula: C H3 C6 H5
CAS: 108-88-3
State: gas
Melting point: -95 C
Boiling point: 110.6 C
Class: IUPAC A
Instrument: IFS66V (Bruker)
Instrument parameters: KBr Beam splitter; MCT Detector; Multipass cell
Sampling: 1 L/min Flow
Resolution: 0.9640
Temperature: 23 C
Pressure: 101.3 kPa
Origin: NIST, Anayltical Chemistry Division, 301-975-3108
cm-1	(micromol/mol)-1m-1 (base 10)
575.169	2.75847e-07
583.847	-2.80631e-07
592.525	-6.26432e-08
601.203	-1.81696e-08
609.882	4.42574e-07
618.56	4.51018e-07
627.238	9.79143e-07
635.916	8.69979e-07
644.594	8.35901e-07
653.272	1.06181e-06
661.951	3.85434e-06
670.629	1.69159e-05
679.307	5.82631e-05
687.985	7.48179e-05
696.663	7.81176e-05
705.341	0.000110007
714.019	0.000165137
722.698	0.000200336
731.376	0.000273524
740.054	0.000174729
748.732	7.14423e-05
757.41	1.0484e-05
766.088	2.29358e-06
774.767	2.36919e-06
783.445	1.71118e-06
792.123	1.99799e-06
800.801	6.78364e-07
809.479	4.72351e-07
818.157	4.58586e-07
826.835	5.92048e-07
835.514	5.17922e-07
844.192	4.25387e-07
852.87	7.89097e-07
861.548	1.11954e-06
870.226	1.43311e-06
878.904	2.30865e-06
887.583	3.14673e-06
896.261	3.92148e-06
904.939	3.27955e-06
913.617	2.86742e-06
922.295	3.36961e-06
930.973	4.08589e-06
939.651	2.94993e-06
948.33	1.9105e-06
957.008	2.10347e-06
965.686	2.74876e-06
974.364	3.08291e-06
983.042	2.62295e-06
991.72	2.11462e-06
1000.4	1.84676e-06
1009.08	2.21034e-06
1017.75	7.98598e-06
1026.43	2.36937e-05
1035.11	1.92571e-05
1043.79	2.28652e-05
1052.47	1.25525e-05
1061.15	1.33476e-05
1069.82	1.89005e-05
1078.5	2.46563e-05
1087.18	2.42882e-05
1095.86	1.66382e-05
1104.54	7.8861e-06
1113.21	7.68246e-06
1121.89	3.43404e-06
1130.57	2.04023e-06
1139.25	1.61931e-06
1147.93	1.74184e-06
1156.61	2.12512e-06
1165.28	2.52393e-06
1173.96	2.83373e-06
1182.64	2.39426e-06
1191.32	2.20342e-06
1200	3.70455e-06
1208.67	4.25064e-06
1217.35	5.07785e-06
1226.03	2.33666e-06
1234.71	2.88406e-06
1243.39	2.81052e-06
1252.07	2.4372e-06
1260.74	1.21721e-06
1269.42	8.05513e-07
1278.1	8.86523e-07
1286.78	1.22018e-06
1295.46	1.60213e-06
1304.13	2.74301e-06
1312.81	2.48692e-06
1321.49	2.38922e-06
1330.17	1.86377e-06
1338.85	2.01526e-06
1347.52	2.67357e-06
1356.2	4.22814e-06
1364.88	5.57103e-06
1373.56	1.02829e-05
1382.24	1.51985e-05
1390.92	1.76949e-05
1399.59	8.5546e-06
1408.27	8.29228e-06
1416.95	1.10462e-05
1425.63	1.05926e-05
1434.31	1.37446e-05
1442.98	2.28918e-05
1451.66	3.31497e-05
1460.34	3.5399e-05
1469.02	3.30543e-05
1477.7	3.07372e-05
1486.38	5.82542e-05
1495.05	9.1253e-05
1503.73	9.08792e-05
1512.41	5.23559e-05
1521.09	2.05355e-05
1529.77	2.0017e-05
1538.44	1.55714e-05
1547.12	1.10263e-05
1555.8	1.06543e-05
1564.48	1.02696e-05
1573.16	1.2002e-05
1581.83	9.43026e-06
1590.51	1.19233e-05
1599.19	3.51298e-05
1607.87	4.71787e-05
1616.55	4.62523e-05
1625.23	2.29939e-05
1633.9	6.12277e-06
1642.58	1.99903e-06
1651.26	1.85753e-06
1659.94	1.87545e-06
1668.62	1.89303e-06
1677.29	1.78877e-06
1685.97	1.7735e-06
1694.65	1.62398e-06
1703.33	1.61751e-06
1712.01	2.08848e-06
1720.69	3.89015e-06
1729.36	4.90266e-06
1738.04	5.59503e-06
1746.72	2.35554e-06
1755.4	1.26491e-06
1764.08	1.93434e-06
1772.75	3.14037e-06
1781.43	5.07108e-06
1790.11	1.03118e-05
1798.79	1.00929e-05
1807.47	1.21598e-05
1816.15	4.08026e-06
1824.82	3.42239e-06
1833.5	3.04456e-06
1842.18	5.678e-06
1850.86	1.03224e-05
1859.54	1.30971e-05
1868.21	1.06362e-05
1876.89	7.3794e-06
1885.57	2.69589e-06
1894.25	1.40877e-06
1902.93	1.31004e-06
1911.6	1.42644e-06
1920.28	2.87591e-06
1928.96	7.8008e-06
1937.64	1.1599e-05
1946.32	1.6225e-05
1955	1.03989e-05
1963.67	6.42785e-06
1972.35	1.78717e-06
1981.03	1.01835e-06
1989.71	1.29041e-06
1998.39	1.2558e-06
2007.06	9.73581e-07
2015.74	7.07611e-07
2024.42	5.87904e-07
2033.1	3.04095e-07
2041.78	1.32602e-07
2050.46	9.79237e-08
2059.13	1.5528e-07
2067.81	2.36559e-07
2076.49	2.18757e-07
2085.17	1.81283e-07
2093.85	1.78464e-07
2102.52	2.11818e-07
2111.2	2.59398e-07
2119.88	2.64256e-07
2128.56	3.26417e-07
2137.24	2.66891e-07
2145.91	2.45174e-07
2154.59	5.08297e-07
2163.27	1.01516e-06
2171.95	1.19359e-06
2180.63	9.77371e-07
2189.31	6.47786e-07
2197.98	5.85871e-07
2206.66	4.88915e-07
2215.34	5.34139e-07
2224.02	4.66704e-07
2232.7	4.76064e-07
2241.37	5.98953e-07
2250.05	9.04873e-07
2258.73	1.00932e-06
2267.41	1.19358e-06
2276.09	1.38605e-06
2284.77	1.37707e-06
2293.44	1.28891e-06
2302.12	1.49954e-06
2310.8	1.64826e-06
2319.48	2.14256e-06
2328.16	1.91346e-06
2336.83	1.75846e-06
2345.51	2.23761e-06
2354.19	2.1549e-06
2362.87	1.74868e-06
2371.55	1.70723e-06
2380.23	1.15188e-06
2388.9	1.17248e-06
2397.58	1.29046e-06
2406.26	1.58503e-06
2414.94	1.79232e-06
2423.62	1.95921e-06
2432.29	1.30635e-06
2440.97	9.93472e-07
2449.65	8.62166e-07
2458.33	9.5405e-07
2467.01	1.03202e-06
2475.68	9.15345e-07
2484.36	8.26133e-07
2493.04	8.5713e-07
2501.72	9.62207e-07
2510.4	9.56015e-07
2519.08	8.032e-07
2527.75	7.3468e-07
2536.43	7.64977e-07
2545.11	7.45688e-07
2553.79	7.17944e-07
2562.47	6.6861e-07
2571.14	8.39969e-07
2579.82	1.43806e-06
2588.5	2.25851e-06
2597.18	2.68363e-06
2605.86	1.81896e-06
2614.54	1.35055e-06
2623.21	1.38194e-06
2631.89	1.21442e-06
2640.57	1.12644e-06
2649.25	9.00235e-07
2657.93	7.11641e-07
2666.6	6.33722e-07
2675.28	5.38774e-07
2683.96	5.87597e-07
2692.64	5.89308e-07
2701.32	5.49061e-07
2709.99	6.39564e-07
2718.67	8.59142e-07
2727.35	1.62279e-06
2736.03	4.90062e-06
2744.71	8.40266e-06
2753.39	6.45519e-06
2762.06	2.04968e-06
2770.74	1.40811e-06
2779.42	1.60391e-06
2788.1	1.92097e-06
2796.78	2.09398e-06
2805.45	2.34827e-06
2814.13	3.18906e-06
2822.81	4.1943e-06
2831.49	5.13885e-06
2840.17	6.61182e-06
2848.85	9.98303e-06
2857.52	1.84928e-05
2866.2	3.47901e-05
2874.88	5.53871e-05
2883.56	6.65647e-05
2892.24	6.01168e-05
2900.91	4.4282e-05
2909.59	4.21405e-05
2918.27	6.30324e-05
2926.95	0.00010452
2935.63	0.000118117
2944.31	0.000111251
2952.98	6.94785e-05
2961.66	5.25015e-05
2970.34	3.68768e-05
2979.02	3.89459e-05
2987.7	4.27077e-05
2996.37	4.97077e-05
3005.05	6.78302e-05
3013.73	7.41812e-05
3022.41	0.000125841
3031.09	0.000216343
3039.76	0.000220559
3048.44	0.000190943
3057.12	0.000108302
3065.8	0.000118806
3074.48	0.000132627
3083.16	0.00012244
3091.83	8.99935e-05
3100.51	7.45515e-05
3109.19	4.40644e-05
3117.87	2.77585e-05
3126.55	1.62162e-05
3135.22	6.9636e-06
3143.9	2.14086e-06
3152.58	1.44276e-06
3161.26	1.47234e-06
3169.94	1.66821e-06
3178.62	1.53282e-06
3187.29	1.22724e-06
3195.97	3.1102e-07
3204.65	2.1191e-07
3213.33	1.47692e-07
3222.01	2.24399e-07
3230.68	6.88204e-08
3239.36	1.02433e-07
3248.04	2.92262e-07
3256.72	3.38403e-07
3265.4	4.33962e-07
3274.07	5.58732e-07
3282.75	4.90633e-07
3291.43	5.22546e-07
3300.11	4.11793e-07
3308.79	3.97942e-07
3317.47	4.2609e-07
3326.14	5.47909e-07
3334.82	6.92428e-07
3343.5	7.27002e-07
3352.18	5.82728e-07
3360.86	6.08267e-07
3369.53	6.05122e-07
3378.21	7.1034e-07
3386.89	6.48051e-07
3395.57	5.44656e-07
3404.25	5.22458e-07
3412.93	4.20162e-07
3421.6	4.08175e-07
3430.28	4.82938e-07
3438.96	6.12779e-07
3447.64	6.32858e-07
3456.32	4.58459e-07
3464.99	4.3458e-07
3473.67	2.09033e-07
3482.35	1.66114e-07
3491.03	2.31028e-07
3499.71	2.18423e-07
3508.39	1.77704e-07
3517.06	2.78236e-07
3525.74	4.98372e-07
3534.42	3.38376e-07
3543.1	3.22884e-07
3551.78	3.63075e-07
3560.45	4.38415e-07
3569.13	3.96127e-07
3577.81	2.13768e-07
3586.49	2.38474e-07
3595.17	3.42355e-07
3603.84	4.23063e-07
3612.52	1.43802e-07
3621.2	3.94727e-07
3629.88	3.05613e-07
3638.56	7.07907e-07
3647.24	8.26157e-07
3655.91	1.04957e-06
3664.59	1.16943e-06
3673.27	8.9209e-07
3681.95	6.9682e-07
3690.63	5.33862e-07
3699.3	5.93251e-07
3707.98	4.4904e-07
3716.66	6.27031e-07
3725.34	5.26392e-07
3734.02	4.72589e-07
3742.7	3.23668e-07
3751.37	2.3002e-07
3760.05	2.22622e-07
3768.73	2.79829e-07
3777.41	3.72767e-07
3786.09	5.28781e-07
3794.76	7.56857e-07
3803.44	7.38038e-07
3812.12	7.47762e-07
3820.8	6.32886e-07
3829.48	9.61409e-07
3838.16	7.45867e-07
3846.83	1.35473e-06
3855.51	1.53479e-06
3864.19	1.39329e-06
3872.87	1.1916e-06
3881.55	9.58201e-07
3890.22	8.69054e-07
3898.9	7.73977e-07
3907.58	1.00821e-06
3916.26	1.10855e-06
3924.94	1.16651e-06
3933.61	1.03452e-06
3942.29	9.062e-07
3950.97	8.80713e-07
3959.65	8.76688e-07
3968.33	9.36264e-07
