Infrared Spectrum: Ethenyl Ester-Acetic Acid
Formula: C H3 C O2 C H: C H2
CAS: 108-05-4
State: gas
Melting point: -93.2 C
Boiling point: 72.2 C
Class: IUPAC A
Instrument: IFS66V (Bruker)
Instrument parameters: KBr Beam splitter; MCT Detector; Multipass cell
Sampling: 1 L/min Flow
Resolution: 0.4820
Temperature: 23 C
Pressure: 101.3 kPa
Origin: NIST, Anayltical Chemistry Division, 301-975-3108
cm-1	(micromol/mol)-1m-1 (base 10)
574.928	1.0607e-05
583.606	1.95341e-05
592.284	3.80378e-05
600.962	2.88554e-05
609.641	3.25134e-05
618.319	3.42426e-05
626.997	4.22157e-05
635.675	4.20595e-05
644.353	4.11444e-05
653.031	2.50751e-05
661.71	1.29681e-05
670.388	5.84849e-06
679.066	4.80845e-06
687.744	6.55432e-06
696.422	9.6285e-06
705.1	1.08408e-05
713.778	1.21165e-05
722.457	9.00464e-06
731.135	7.17057e-06
739.813	5.887e-06
748.491	5.66369e-06
757.169	6.36307e-06
765.847	7.74683e-06
774.526	9.76873e-06
783.204	9.58691e-06
791.882	9.11485e-06
800.56	9.12827e-06
809.238	1.05013e-05
817.916	1.5117e-05
826.594	2.52209e-05
835.273	5.19924e-05
843.951	8.86331e-05
852.629	0.000131979
861.307	0.0001553
869.985	0.000272236
878.663	0.000160567
887.342	0.000125422
896.02	6.0491e-05
904.698	2.09673e-05
913.376	1.30164e-05
922.054	2.32492e-05
930.732	5.42908e-05
939.41	8.73876e-05
948.089	0.000126201
956.767	0.000156271
965.445	0.000114594
974.123	0.000107414
982.801	0.000104748
991.479	6.67208e-05
1000.16	8.92049e-05
1008.84	0.000186417
1017.51	0.000340531
1026.19	0.000358277
1034.87	0.000229669
1043.55	8.58504e-05
1052.23	6.85689e-05
1060.9	6.12361e-05
1069.58	5.58338e-05
1078.26	4.80363e-05
1086.94	3.94389e-05
1095.62	3.20161e-05
1104.3	2.92306e-05
1112.97	3.21548e-05
1121.65	4.95007e-05
1130.33	0.0001669
1139.01	0.00084334
1147.69	0.000944447
1156.36	0.000838349
1165.04	8.69811e-05
1173.72	4.67868e-05
1182.4	6.47628e-05
1191.08	0.00011418
1199.76	0.000299257
1208.43	0.00106969
1217.11	0.00260533
1225.79	0.00277151
1234.47	0.00184686
1243.15	0.00036432
1251.82	0.00022784
1260.5	0.0001834
1269.18	6.70576e-05
1277.86	5.76277e-05
1286.54	0.000141281
1295.21	0.000172144
1303.89	0.000160769
1312.57	5.03705e-05
1321.25	1.89494e-05
1329.93	1.29151e-05
1338.61	1.26663e-05
1347.28	2.04143e-05
1355.96	5.89168e-05
1364.64	0.000228288
1373.32	0.00038549
1382	0.000439999
1390.67	0.000200255
1399.35	7.35119e-05
1408.03	2.98591e-05
1416.71	2.83413e-05
1425.39	3.23542e-05
1434.07	4.02104e-05
1442.74	3.5564e-05
1451.42	3.36398e-05
1460.1	2.72117e-05
1468.78	2.26299e-05
1477.46	2.07813e-05
1486.13	1.85207e-05
1494.81	1.63915e-05
1503.49	1.5287e-05
1512.17	1.42431e-05
1520.85	1.31848e-05
1529.52	1.21147e-05
1538.2	1.0908e-05
1546.88	1.15612e-05
1555.56	1.47023e-05
1564.24	1.77205e-05
1572.92	1.97289e-05
1581.59	2.16519e-05
1590.27	2.2231e-05
1598.95	2.26794e-05
1607.63	2.55596e-05
1616.31	3.41068e-05
1624.98	4.45237e-05
1633.66	7.51157e-05
1642.34	0.000313914
1651.02	0.000404093
1659.7	0.000534142
1668.38	9.239e-05
1677.05	2.89932e-05
1685.73	1.75466e-05
1694.41	1.61924e-05
1703.09	1.3985e-05
1711.77	1.22802e-05
1720.44	1.21393e-05
1729.12	1.8527e-05
1737.8	2.72382e-05
1746.48	5.56224e-05
1755.16	0.000132918
1763.84	0.000355585
1772.51	0.000956363
1781.19	0.00111693
1789.87	0.0014867
1798.55	0.000630334
1807.23	0.000214848
1815.9	5.44279e-05
1824.58	2.27786e-05
1833.26	2.02205e-05
1841.94	1.81168e-05
1850.62	2.18796e-05
1859.29	2.67101e-05
1867.97	2.8174e-05
1876.65	2.50458e-05
1885.33	1.64038e-05
1894.01	1.45059e-05
1902.69	1.37196e-05
1911.36	1.02424e-05
1920.04	5.7828e-06
1928.72	4.26458e-06
1937.4	4.65231e-06
1946.08	5.18566e-06
1954.75	5.40513e-06
1963.43	5.02444e-06
1972.11	4.93135e-06
1980.79	8.77848e-06
1989.47	1.30458e-05
1998.15	1.38355e-05
2006.82	7.56873e-06
2015.5	5.3255e-06
2024.18	5.25027e-06
2032.86	5.45865e-06
2041.54	7.23744e-06
2050.21	1.40611e-05
2058.89	2.5116e-05
2067.57	2.79851e-05
2076.25	2.06015e-05
2084.93	8.47186e-06
2093.6	5.98205e-06
2102.28	5.60246e-06
2110.96	6.71693e-06
2119.64	6.963e-06
2128.32	7.26672e-06
2137	4.18751e-06
2145.67	4.11152e-06
2154.35	4.40389e-06
2163.03	4.86902e-06
2171.71	4.6297e-06
2180.39	3.93351e-06
2189.06	2.56833e-06
2197.74	2.14201e-06
2206.42	2.13222e-06
2215.1	3.23418e-06
2223.78	4.45022e-06
2232.46	4.77695e-06
2241.13	3.88314e-06
2249.81	3.02335e-06
2258.49	2.26898e-06
2267.17	2.73581e-06
2275.85	6.49904e-06
2284.52	1.12555e-05
2293.2	1.12081e-05
2301.88	5.13174e-06
2310.56	1.2938e-06
2319.24	1.18658e-06
2327.92	1.39502e-06
2336.59	2.42279e-06
2345.27	3.34472e-06
2353.95	4.19187e-06
2362.63	3.80405e-06
2371.31	3.22208e-06
2379.98	2.4539e-06
2388.66	1.52798e-06
2397.34	1.84631e-06
2406.02	2.51688e-06
2414.7	3.60809e-06
2423.37	5.51923e-06
2432.05	8.17619e-06
2440.73	8.23171e-06
2449.41	6.39051e-06
2458.09	2.83532e-06
2466.77	1.92929e-06
2475.44	1.6331e-06
2484.12	1.63256e-06
2492.8	1.88554e-06
2501.48	1.89635e-06
2510.16	9.78492e-07
2518.83	7.31409e-07
2527.51	5.72313e-07
2536.19	3.8561e-07
2544.87	3.00224e-07
2553.55	2.54995e-07
2562.23	2.74748e-07
2570.9	5.67439e-07
2579.58	1.28655e-06
2588.26	1.98835e-06
2596.94	1.82121e-06
2605.62	1.3376e-06
2614.29	1.14861e-06
2622.97	1.92687e-06
2631.65	2.10704e-06
2640.33	1.8443e-06
2649.01	9.09923e-07
2657.68	9.13764e-07
2666.36	1.16519e-06
2675.04	1.14525e-06
2683.72	8.6476e-07
2692.4	5.07691e-07
2701.08	3.50247e-07
2709.75	4.01609e-07
2718.43	4.55864e-07
2727.11	5.22854e-07
2735.79	9.31382e-07
2744.47	2.14149e-06
2753.14	3.02719e-06
2761.82	3.2175e-06
2770.5	1.92605e-06
2779.18	1.02481e-06
2787.86	1.35311e-06
2796.54	1.49448e-06
2805.21	1.28534e-06
2813.89	6.70821e-07
2822.57	6.42606e-07
2831.25	7.59154e-07
2839.93	1.05292e-06
2848.6	1.83392e-06
2857.28	2.37454e-06
2865.96	2.38419e-06
2874.64	1.72313e-06
2883.32	1.30144e-06
2892	1.13334e-06
2900.67	1.15401e-06
2909.35	1.18478e-06
2918.03	1.39824e-06
2926.71	2.06977e-06
2935.39	4.01188e-06
2944.06	8.71988e-06
2952.74	1.07419e-05
2961.42	1.24797e-05
2970.1	9.46498e-06
2978.78	8.98644e-06
2987.45	9.86548e-06
2996.13	1.22433e-05
3004.81	1.13894e-05
3013.49	1.15614e-05
3022.17	1.35111e-05
3030.85	1.70249e-05
3039.52	1.88281e-05
3048.2	2.06254e-05
3056.88	2.21602e-05
3065.56	2.34668e-05
3074.24	1.83914e-05
3082.91	1.77728e-05
3091.59	3.69171e-05
3100.27	4.16433e-05
3108.95	4.80292e-05
3117.63	1.81332e-05
3126.31	2.59452e-05
3134.98	2.23115e-05
3143.66	1.50985e-05
3152.34	4.85391e-06
3161.02	2.35632e-06
3169.7	1.50275e-06
3178.37	1.12738e-06
3187.05	1.03472e-06
3195.73	1.0488e-06
3204.41	7.57437e-07
3213.09	5.85759e-07
3221.77	4.16062e-07
3230.44	2.28057e-07
3239.12	9.17635e-08
3247.8	-1.07497e-08
3256.48	5.38031e-08
3265.16	-1.5497e-09
3273.83	-5.22315e-08
3282.51	-1.13056e-07
3291.19	6.47092e-08
3299.87	3.29039e-08
3308.55	-1.63035e-07
3317.22	-5.3181e-07
3325.9	-4.55485e-07
3334.58	-1.66069e-07
3343.26	-1.15355e-08
3351.94	-5.76955e-09
3360.62	-1.5007e-07
3369.29	-1.57375e-07
3377.97	-3.23219e-08
3386.65	-2.87677e-08
3395.33	-3.94629e-08
3404.01	-1.68048e-07
3412.68	-1.42271e-07
3421.36	-1.18298e-07
3430.04	-5.60585e-08
3438.72	-4.53961e-08
3447.4	5.87868e-08
3456.08	2.35893e-07
3464.75	1.97089e-07
3473.43	2.58699e-07
3482.11	-6.26393e-08
3490.79	-1.72104e-07
3499.47	-7.29415e-08
3508.14	1.77339e-07
3516.82	1.0049e-06
3525.5	3.29141e-06
3534.18	9.27668e-06
3542.86	1.54709e-05
3551.53	1.50445e-05
3560.21	1.04189e-05
3568.89	3.24756e-06
3577.57	4.15571e-07
3586.25	-3.43645e-07
3594.93	-4.34386e-07
3603.6	-5.86712e-07
3612.28	-7.31925e-07
3620.96	-5.62277e-07
3629.64	-1.32385e-06
3638.32	-4.87483e-07
3646.99	-5.21435e-07
3655.67	-4.75835e-07
3664.35	-3.22549e-07
3673.03	-4.3244e-07
3681.71	-3.82496e-07
3690.39	-5.31253e-07
3699.06	-4.50458e-07
3707.74	-4.7378e-07
3716.42	-4.14516e-07
3725.1	-4.68276e-07
3733.78	-4.71648e-07
3742.45	-4.7255e-07
3751.13	-4.86676e-07
3759.81	-7.42126e-07
3768.49	-4.02566e-07
3777.17	-4.66926e-07
3785.85	-4.11395e-07
3794.52	-4.04723e-07
3803.2	-4.97789e-07
3811.88	-3.83282e-07
3820.56	-6.7965e-07
3829.24	-2.93112e-07
3837.91	-1.63709e-06
3846.59	-2.32663e-07
3855.27	-3.36773e-07
3863.95	-2.31219e-07
3872.63	-1.66335e-07
3881.3	-1.51234e-07
3889.98	-4.60727e-08
3898.66	-4.16492e-08
3907.34	1.30673e-07
3916.02	6.78559e-08
3924.7	9.95011e-08
3933.37	1.64494e-07
3942.05	1.82501e-07
3950.73	2.23688e-07
3959.41	4.76428e-07
3968.09	9.1276e-07
