Infrared Spectrum: BENZENE, CHLORO-
Formula: C6 H5 Cl
CAS: 108-90-7
State: SOLUTION (10% CCl4 FOR 3800-1250, 10% CS2 FOR 1250-450 CM^-^1) VS SOLVENT
Class: COBLENTZ III
Instrument: DOW KBr FOREPRISM-GRATING
Instrument parameters: BLAZED AT 3.5, 12.0, 20.0 MICRON AND CHANGED AT 5.0, 7.5, 14.9 MICRON
Sampling: TRANSMISSION
Path length: 0.0115 CM, 0.01132 CM
Resolution: 2
Origin: DOW CHEMICAL COMPANY
1/CM	TRANSMITTANCE
3800	0.8767
3791	0.8788
3782	0.8765
3773	0.8748
3764	0.8738
3755	0.874
3746	0.8744
3737	0.8762
3728	0.8784
3719	0.8802
3710	0.8789
3701	0.8708
3692	0.8689
3683	0.8754
3674	0.8792
3665	0.8798
3656	0.8802
3647	0.8805
3638	0.881
3629	0.8817
3620	0.8825
3611	0.884
3602	0.8856
3593	0.8873
3584	0.889
3575	0.889
3566	0.889
3557	0.8887
3548	0.8885
3539	0.8881
3530	0.8878
3521	0.888
3512	0.8884
3503	0.8886
3494	0.889
3485	0.8897
3476	0.891
3467	0.8921
3458	0.8936
3449	0.8955
3440	0.8973
3431	0.8992
3422	0.9009
3413	0.9025
3404	0.9041
3395	0.9051
3386	0.9058
3377	0.9049
3368	0.9034
3359	0.9016
3350	0.9001
3341	0.8988
3332	0.8975
3323	0.8963
3314	0.8952
3305	0.8941
3296	0.893
3287	0.8917
3278	0.8906
3269	0.8893
3260	0.8881
3251	0.8871
3242	0.8865
3233	0.8859
3224	0.8853
3215	0.8847
3206	0.8853
3197	0.8847
3188	0.884
3179	0.8821
3170	0.8763
3161	0.8716
3152	0.8737
3143	0.8725
3134	0.8708
3125	0.8686
3116	0.865
3107	0.8584
3098	0.8282
3089	0.6838
3080	0.6316
3071	0.5587
3062	0.6305
3053	0.6671
3044	0.7289
3035	0.7899
3026	0.7767
3017	0.7744
3008	0.7932
2999	0.8175
2990	0.8458
2981	0.8577
2972	0.8663
2963	0.8723
2954	0.8751
2945	0.8765
2936	0.8792
2927	0.8821
2918	0.8725
2909	0.8783
2900	0.8833
2891	0.8815
2882	0.8791
2873	0.8784
2864	0.881
2855	0.8818
2846	0.8759
2837	0.877
2828	0.8778
2819	0.8785
2810	0.8785
2801	0.8786
2792	0.879
2783	0.8786
2774	0.8771
2765	0.8752
2756	0.8758
2747	0.8768
2738	0.878
2729	0.8788
2720	0.8797
2711	0.8799
2702	0.88
2693	0.8803
2684	0.8806
2675	0.8795
2666	0.875
2657	0.8718
2648	0.872
2639	0.8735
2630	0.8757
2621	0.8759
2612	0.8727
2603	0.8739
2594	0.8727
2585	0.8736
2576	0.8753
2567	0.8762
2558	0.8744
2549	0.8732
2540	0.8728
2531	0.8746
2522	0.8771
2513	0.8777
2504	0.8778
2495	0.8773
2486	0.8768
2477	0.8765
2468	0.8763
2459	0.8759
2450	0.8755
2441	0.8749
2432	0.8744
2423	0.8733
2414	0.8721
2405	0.8712
2396	0.8706
2387	0.8699
2378	0.8728
2369	0.8742
2360	0.8732
2351	0.8721
2342	0.8685
2333	0.8627
2324	0.8612
2315	0.8617
2306	0.8703
2297	0.8758
2288	0.8786
2279	0.8782
2270	0.8748
2261	0.8763
2252	0.8771
2243	0.8755
2234	0.8718
2225	0.8767
2216	0.879
2207	0.8801
2198	0.8806
2189	0.8806
2180	0.8802
2171	0.877
2162	0.8803
2153	0.8818
2144	0.8834
2135	0.8838
2126	0.8833
2117	0.8832
2108	0.8837
2099	0.8842
2090	0.8849
2081	0.8853
2072	0.8858
2063	0.8862
2054	0.8868
2045	0.8873
2036	0.8877
2027	0.8878
2018	0.8875
2009	0.8891
2000	0.8904
1991	0.8808
1982	0.8623
1973	0.8593
1964	0.8423
1955	0.8312
1946	0.7939
1937	0.7943
1928	0.8486
1919	0.8592
1910	0.8648
1901	0.8613
1892	0.8544
1883	0.809
1874	0.827
1865	0.7481
1856	0.8176
1847	0.852
1838	0.8599
1829	0.8549
1820	0.8537
1811	0.8444
1802	0.8391
1793	0.7934
1784	0.8037
1775	0.8358
1766	0.8507
1757	0.8524
1748	0.85
1739	0.8368
1730	0.7838
1721	0.8277
1712	0.8532
1703	0.8532
1694	0.8551
1685	0.8582
1676	0.8631
1667	0.8633
1658	0.8663
1649	0.8714
1640	0.8389
1631	0.8558
1622	0.8299
1613	0.8512
1604	0.8468
1595	0.6718
1586	0.18
1577	0.5523
1568	0.6621
1559	0.7472
1550	0.854
1541	0.8637
1532	0.8642
1523	0.8587
1514	0.8346
1505	0.8133
1496	0.714
1487	0.586
1478	0.006
1469	0.6167
1460	0.7676
1451	0.4936
1442	0.26
1433	0.7875
1424	0.8356
1415	0.8554
1406	0.8591
1397	0.8553
1388	0.8464
1379	0.8389
1370	0.8157
1361	0.8498
1352	0.8586
1343	0.861
1334	0.8621
1325	0.8421
1316	0.8501
1307	0.8562
1298	0.8325
1289	0.8447
1280	0.8453
1271	0.8144
1262	0.8402
1253	0.855
1244	0.8613
1235	0.8389
1226	0.8571
1217	0.8606
1208	0.8311
1199	0.8405
1190	0.8404
1181	0.8087
1172	0.7912
1163	0.7883
1154	0.7975
1145	0.8118
1136	0.8241
1127	0.6999
1118	0.6614
1109	0.7622
1100	0.7301
1091	0.4977
1082	0.064
1073	0.5512
1064	0.4724
1055	0.7928
1046	0.8323
1037	0.8331
1028	0.789
1019	0.3012
1010	0.7446
1001	0.568
992	0.8164
983	0.8245
974	0.8095
965	0.8165
956	0.814
947	0.8245
938	0.8207
929	0.7597
920	0.8213
911	0.8189
902	0.7815
893	0.6283
884	0.8187
875	0.8312
866	0.8321
857	0.8371
848	0.8487
839	0.8418
830	0.8172
821	0.8161
812	0.8368
803	0.8494
794	0.8559
785	0.854
776	0.8515
767	0.8383
758	0.8047
749	0.6044
740	0.0076
731	0.1978
722	0.6665
713	0.7421
704	0.3062
695	0.5783
686	0.2204
677	0.4689
668	0.7535
659	0.7817
650	0.8304
641	0.8657
632	0.8827
623	0.887
614	0.8748
605	0.8694
596	0.8953
587	0.9059
578	0.9094
569	0.9135
560	0.9188
551	0.9197
542	0.9153
533	0.9143
524	0.9124
515	0.9096
506	0.9063
497	0.9041
488	0.9009
479	0.8857
470	0.8357
461	0.4168
452	0.6988
443	0.7141
