Infrared Spectrum: Toluene
Formula: C H3 C6 H5
CAS: 108-88-3
State: gas
Melting point: -95 C
Boiling point: 110.6 C
Class: IUPAC A
Instrument: IFS66V (Bruker)
Instrument parameters: KBr Beam splitter; MCT Detector; Multipass cell
Sampling: 1 L/min Flow
Resolution: 0.4820
Temperature: 23 C
Pressure: 101.3 kPa
Origin: NIST, Anayltical Chemistry Division, 301-975-3108
cm-1	(micromol/mol)-1m-1 (base 10)
574.928	-6.71751e-08
583.606	-3.47337e-07
592.284	-2.93975e-07
600.962	1.24133e-07
609.641	2.02917e-07
618.319	3.92613e-07
626.997	7.83989e-07
635.675	7.61329e-07
644.353	6.21182e-07
653.031	8.76172e-07
661.71	3.57838e-06
670.388	1.57172e-05
679.066	5.64245e-05
687.744	7.37101e-05
696.422	7.23458e-05
705.1	0.000108125
713.778	0.000163609
722.457	0.000195275
731.135	0.00027121
739.813	0.000176677
748.491	7.4094e-05
757.169	1.05653e-05
765.847	2.08178e-06
774.526	2.14632e-06
783.204	1.64942e-06
791.882	1.95982e-06
800.56	6.94814e-07
809.238	4.71282e-07
817.916	4.13405e-07
826.594	6.10631e-07
835.273	4.58326e-07
843.951	4.12209e-07
852.629	8.03287e-07
861.307	1.09442e-06
869.985	1.3586e-06
878.663	2.28992e-06
887.342	3.06734e-06
896.02	3.97998e-06
904.698	3.26455e-06
913.376	2.86131e-06
922.054	3.22022e-06
930.732	4.08139e-06
939.41	2.93727e-06
948.089	1.92558e-06
956.767	2.0813e-06
965.445	2.67884e-06
974.123	3.08387e-06
982.801	2.60738e-06
991.479	2.10657e-06
1000.16	1.77701e-06
1008.84	2.13766e-06
1017.51	7.43045e-06
1026.19	2.45536e-05
1034.87	1.81596e-05
1043.55	2.24405e-05
1052.23	1.29639e-05
1060.9	1.33061e-05
1069.58	1.87008e-05
1078.26	2.54224e-05
1086.94	2.43944e-05
1095.62	1.67331e-05
1104.3	7.72804e-06
1112.97	7.85949e-06
1121.65	3.47684e-06
1130.33	2.02117e-06
1139.01	1.6468e-06
1147.69	1.67326e-06
1156.36	2.0332e-06
1165.04	2.50553e-06
1173.72	2.88129e-06
1182.4	2.35638e-06
1191.08	2.17516e-06
1199.76	3.61555e-06
1208.43	4.21808e-06
1217.11	5.05157e-06
1225.79	2.35885e-06
1234.47	2.85046e-06
1243.15	2.73012e-06
1251.82	2.52365e-06
1260.5	1.2003e-06
1269.18	7.96889e-07
1277.86	8.87098e-07
1286.54	1.16545e-06
1295.21	1.5786e-06
1303.89	2.70385e-06
1312.57	2.41011e-06
1321.25	2.41123e-06
1329.93	1.86321e-06
1338.61	1.9776e-06
1347.28	2.62145e-06
1355.96	4.22026e-06
1364.64	5.47161e-06
1373.32	1.01901e-05
1382	1.47321e-05
1390.67	1.80111e-05
1399.35	8.53409e-06
1408.03	8.42924e-06
1416.71	1.08198e-05
1425.39	1.06406e-05
1434.07	1.36433e-05
1442.74	2.24864e-05
1451.42	3.33525e-05
1460.1	3.50782e-05
1468.78	3.26183e-05
1477.46	3.09371e-05
1486.13	5.70283e-05
1494.81	9.26299e-05
1503.49	8.8511e-05
1512.17	5.42153e-05
1520.85	2.09094e-05
1529.52	1.99026e-05
1538.2	1.57537e-05
1546.88	1.11267e-05
1555.56	1.05418e-05
1564.24	1.04884e-05
1572.92	1.20951e-05
1581.59	9.44847e-06
1590.27	1.13747e-05
1598.95	3.45524e-05
1607.63	4.68864e-05
1616.31	4.77341e-05
1624.98	2.33267e-05
1633.66	6.36282e-06
1642.34	1.94889e-06
1651.02	1.83011e-06
1659.7	1.81409e-06
1668.38	1.88366e-06
1677.05	1.75474e-06
1685.73	1.78148e-06
1694.41	1.67005e-06
1703.09	1.58542e-06
1711.77	2.0497e-06
1720.44	3.80557e-06
1729.12	5.02726e-06
1737.8	5.72045e-06
1746.48	2.42599e-06
1755.16	1.24246e-06
1763.84	1.87382e-06
1772.51	2.99791e-06
1781.19	5.00562e-06
1789.87	1.00853e-05
1798.55	9.63972e-06
1807.23	1.22784e-05
1815.9	4.14739e-06
1824.58	3.4886e-06
1833.26	2.99248e-06
1841.94	5.50772e-06
1850.62	1.03773e-05
1859.29	1.28591e-05
1867.97	1.08182e-05
1876.65	7.34018e-06
1885.33	2.76384e-06
1894.01	1.38448e-06
1902.69	1.26663e-06
1911.36	1.40938e-06
1920.04	2.76773e-06
1928.72	7.5736e-06
1937.4	1.17616e-05
1946.08	1.62555e-05
1954.75	1.05931e-05
1963.43	6.4296e-06
1972.11	1.82989e-06
1980.79	9.90984e-07
1989.47	1.23996e-06
1998.15	1.22544e-06
2006.82	9.72575e-07
2015.5	6.97667e-07
2024.18	5.82186e-07
2032.86	3.14612e-07
2041.54	1.09963e-07
2050.21	8.86197e-08
2058.89	1.65363e-07
2067.57	2.46023e-07
2076.25	2.17549e-07
2084.93	1.64657e-07
2093.6	1.95205e-07
2102.28	2.21507e-07
2110.96	2.16255e-07
2119.64	2.57772e-07
2128.32	3.30036e-07
2137	2.67071e-07
2145.67	2.53093e-07
2154.35	4.82964e-07
2163.03	1.00901e-06
2171.71	1.18038e-06
2180.39	1.00347e-06
2189.06	6.52223e-07
2197.74	5.59808e-07
2206.42	4.76135e-07
2215.1	5.23083e-07
2223.78	5.00875e-07
2232.46	4.74139e-07
2241.13	5.92859e-07
2249.81	8.90219e-07
2258.49	1.02043e-06
2267.17	1.19474e-06
2275.85	1.39601e-06
2284.52	1.35366e-06
2293.2	1.31832e-06
2301.88	1.48546e-06
2310.56	1.63297e-06
2319.24	2.17568e-06
2327.92	1.85838e-06
2336.59	1.74422e-06
2345.27	2.25018e-06
2353.95	2.07669e-06
2362.63	1.83659e-06
2371.31	1.78667e-06
2379.98	1.15181e-06
2388.66	1.12137e-06
2397.34	1.26455e-06
2406.02	1.56321e-06
2414.7	1.81423e-06
2423.37	1.98868e-06
2432.05	1.32659e-06
2440.73	1.01582e-06
2449.41	8.61575e-07
2458.09	9.44441e-07
2466.77	1.02303e-06
2475.44	9.19262e-07
2484.12	8.56079e-07
2492.8	8.72393e-07
2501.48	9.64955e-07
2510.16	9.69891e-07
2518.83	7.93272e-07
2527.51	7.47835e-07
2536.19	7.63951e-07
2544.87	7.43454e-07
2553.55	6.70187e-07
2562.23	6.69485e-07
2570.9	8.25651e-07
2579.58	1.40289e-06
2588.26	2.26989e-06
2596.94	2.65296e-06
2605.62	1.82287e-06
2614.29	1.35942e-06
2622.97	1.38224e-06
2631.65	1.2315e-06
2640.33	1.14942e-06
2649.01	9.08649e-07
2657.68	7.22461e-07
2666.36	6.63618e-07
2675.04	5.48876e-07
2683.72	5.97428e-07
2692.4	5.65076e-07
2701.08	5.16988e-07
2709.75	6.48421e-07
2718.43	8.23566e-07
2727.11	1.4896e-06
2735.79	4.83472e-06
2744.47	8.11363e-06
2753.14	6.68507e-06
2761.82	2.01978e-06
2770.5	1.3715e-06
2779.18	1.58809e-06
2787.86	1.90199e-06
2796.54	2.1158e-06
2805.21	2.27944e-06
2813.89	3.15592e-06
2822.57	4.16284e-06
2831.25	5.0534e-06
2839.93	6.55038e-06
2848.6	9.7589e-06
2857.28	1.80799e-05
2865.96	3.42371e-05
2874.64	5.47457e-05
2883.32	6.68792e-05
2892	6.04767e-05
2900.67	4.45707e-05
2909.35	4.15926e-05
2918.03	6.20309e-05
2926.71	0.00010391
2935.39	0.000118715
2944.06	0.00011265
2952.74	6.98286e-05
2961.42	5.27869e-05
2970.1	3.71368e-05
2978.78	3.86468e-05
2987.45	4.34905e-05
2996.13	4.86068e-05
3004.81	6.84736e-05
3013.49	7.2966e-05
3022.17	0.000123818
3030.85	0.000216862
3039.52	0.000220755
3048.2	0.000194746
3056.88	0.00010839
3065.56	0.000118668
3074.24	0.00013765
3082.91	0.000124373
3091.59	9.15596e-05
3100.27	7.46965e-05
3108.95	4.4789e-05
3117.63	2.80313e-05
3126.31	1.631e-05
3134.98	7.16526e-06
3143.66	2.09681e-06
3152.34	1.38521e-06
3161.02	1.49248e-06
3169.7	1.64727e-06
3178.37	1.48715e-06
3187.05	1.27111e-06
3195.73	2.88139e-07
3204.41	2.54643e-07
3213.09	9.09707e-08
3221.77	1.9489e-07
3230.44	4.47264e-08
3239.12	9.21003e-08
3247.8	2.84761e-07
3256.48	3.21659e-07
3265.16	4.66071e-07
3273.83	5.66505e-07
3282.51	5.45132e-07
3291.19	5.09999e-07
3299.87	3.27959e-07
3308.55	3.72669e-07
3317.22	4.14014e-07
3325.9	5.72634e-07
3334.58	6.91566e-07
3343.26	6.9168e-07
3351.94	5.93089e-07
3360.62	5.95419e-07
3369.29	5.7855e-07
3377.97	6.53019e-07
3386.65	6.78389e-07
3395.33	5.2785e-07
3404.01	5.50725e-07
3412.68	4.15486e-07
3421.36	3.57968e-07
3430.04	5.44221e-07
3438.72	5.78675e-07
3447.4	6.28071e-07
3456.08	4.58433e-07
3464.75	4.2894e-07
3473.43	2.15603e-07
3482.11	1.91919e-07
3490.79	2.87219e-07
3499.47	2.60769e-07
3508.14	1.90025e-07
3516.82	3.27491e-07
3525.5	4.75874e-07
3534.18	3.1361e-07
3542.86	3.17178e-07
3551.53	3.403e-07
3560.21	4.33396e-07
3568.89	3.84113e-07
3577.57	1.84267e-07
3586.25	2.86848e-07
3594.93	3.61426e-07
3603.6	3.72614e-07
3612.28	1.81138e-07
3620.96	4.23748e-07
3629.64	8.24289e-08
3638.32	6.83844e-07
3646.99	8.16307e-07
3655.67	1.10312e-06
3664.35	1.10433e-06
3673.03	9.17283e-07
3681.71	7.0581e-07
3690.39	6.19313e-07
3699.06	5.65244e-07
3707.74	4.19491e-07
3716.42	6.08978e-07
3725.1	4.67567e-07
3733.78	4.49027e-07
3742.45	3.27226e-07
3751.13	2.39281e-07
3759.81	1.16342e-07
3768.49	3.12037e-07
3777.17	3.83735e-07
3785.85	4.81823e-07
3794.52	7.9187e-07
3803.2	7.26863e-07
3811.88	7.02717e-07
3820.56	6.29252e-07
3829.24	9.2314e-07
3837.91	2.87918e-07
3846.59	1.29438e-06
3855.27	1.54804e-06
3863.95	1.41834e-06
3872.63	1.22477e-06
3881.3	9.63996e-07
3889.98	8.11194e-07
3898.66	8.02712e-07
3907.34	9.64599e-07
3916.02	1.10759e-06
3924.7	1.19654e-06
3933.37	1.02684e-06
3942.05	9.46525e-07
3950.73	8.77424e-07
3959.41	8.72584e-07
3968.09	8.80367e-07
