Infrared Spectrum: CYCLOHEXANE, METHYL
Formula: C7 H14
CAS: 108-87-2
State: SOLUTION (10% IN CCl4 FOR 3800-1300, 10% IN CS2 FOR 1300-650, AND 10% IN CCl4 FOR 650-250 CM^-^1) VERSUS SOLVENT
Class: COBLENTZ III
Instrument: PERKIN-ELMER 521 (GRATING)
Instrument parameters: FILTERS AT 3150, 2500, 2000, 1150, 700, 410; GRATING CHANGES AT 2000, 630 CM^-^1
Sampling: TRANSMISSION
Path length: 0.011, 0.011, AND 0.010 CM (CsBr CELL)
Resolution: 4
Origin: DOW CORNING CORP.
1/CM	TRANSMITTANCE
250.24	0.947
259.2	0.942
268.16	0.944
277.12	0.944
286.08	0.94
295.04	0.934
304	0.935
312.96	0.937
321.92	0.935
330.88	0.937
339.84	0.935
348.8	0.939
357.76	0.937
366.72	0.939
375.68	0.94
384.64	0.961
393.6	0.949
402.56	0.944
411.52	0.946
420.48	0.947
429.441	0.946
438.401	0.937
447.361	0.928
456.321	0.927
465.281	0.921
474.241	0.895
483.201	0.911
492.161	0.914
501.121	0.918
510.081	0.916
519.041	0.913
528.001	0.914
536.961	0.895
545.921	0.894
554.881	0.92
563.841	0.927
572.801	0.934
581.761	0.937
590.721	0.937
599.681	0.935
608.641	0.937
617.601	0.934
626.561	0.923
635.521	0.911
644.481	0.88
653.441	0.866
662.401	0.843
671.361	0.861
680.321	0.866
689.281	0.868
698.241	0.866
707.201	0.864
716.161	0.852
725.121	0.833
734.081	0.829
743.041	0.845
752.001	0.855
760.961	0.857
769.921	0.855
778.881	0.854
787.842	0.852
796.802	0.857
805.762	0.859
814.722	0.855
823.682	0.852
832.642	0.835
841.602	0.631
850.562	0.838
859.522	0.828
868.482	0.678
877.442	0.833
886.402	0.835
895.362	0.824
904.322	0.666
913.282	0.822
922.242	0.833
931.202	0.836
940.162	0.829
949.122	0.805
958.082	0.706
967.042	0.59
976.002	0.803
984.962	0.831
993.922	0.833
1002.88	0.824
1011.84	0.807
1020.8	0.791
1029.76	0.779
1038.72	0.8
1047.68	0.796
1056.64	0.793
1065.6	0.782
1074.56	0.762
1083.52	0.71
1092.48	0.748
1101.44	0.758
1110.4	0.789
1119.36	0.803
1128.32	0.807
1137.28	0.805
1146.24	0.796
1155.2	0.786
1164.16	0.796
1173.12	0.807
1182.08	0.802
1191.04	0.796
1200	0.796
1208.96	0.8
1217.92	0.793
1226.88	0.789
1235.84	0.758
1244.8	0.704
1253.76	0.677
1262.72	0.689
1271.68	0.753
1280.64	0.763
1289.6	0.777
1298.56	0.814
1307.52	0.854
1316.48	0.861
1325.44	0.854
1334.4	0.824
1343.36	0.789
1352.32	0.805
1361.28	0.715
1370.24	0.602
1379.2	0.796
1388.16	0.836
1397.12	0.838
1406.08	0.829
1415.04	0.805
1424	0.732
1432.96	0.664
1441.92	0.2388
1450.88	0.177
1459.84	0.366
1468.8	0.7251
1477.76	0.814
1486.72	0.845
1495.68	0.864
1504.64	0.871
1513.6	0.885
1522.56	0.895
1531.52	0.904
1540.48	0.899
1549.44	0.901
1558.4	0.899
1567.36	0.895
1576.32	0.894
1585.28	0.892
1594.24	0.892
1603.2	0.888
1612.16	0.885
1621.12	0.885
1630.08	0.883
1639.04	0.881
1648	0.88
1656.96	0.876
1665.92	0.876
1674.88	0.878
1683.84	0.876
1692.8	0.88
1701.76	0.878
1710.72	0.883
1719.68	0.881
1728.64	0.876
1737.6	0.876
1746.56	0.876
1755.52	0.876
1764.48	0.878
1773.44	0.876
1782.4	0.883
1791.36	0.885
1800.32	0.883
1809.28	0.88
1818.24	0.885
1827.2	0.885
1836.16	0.883
1845.12	0.883
1854.08	0.885
1863.04	0.883
1872	0.881
1880.96	0.876
1889.92	0.876
1898.88	0.881
1907.84	0.885
1916.8	0.887
1925.76	0.885
1934.72	0.888
1943.68	0.888
1952.64	0.887
1961.6	0.887
1970.56	0.888
1979.52	0.885
1988.48	0.89
1997.44	0.878
2006.4	0.884
2015.36	0.89
2024.33	0.89
2033.29	0.89
2042.25	0.89
2051.21	0.888
2060.17	0.885
2069.13	0.883
2078.09	0.885
2087.05	0.885
2096.01	0.883
2104.97	0.8799
2113.93	0.876
2122.89	0.875
2131.85	0.8772
2140.81	0.8778
2149.77	0.8738
2158.73	0.8751
2167.69	0.8718
2176.65	0.868
2185.61	0.873
2194.57	0.875
2203.53	0.8705
2212.49	0.8663
2221.45	0.868
2230.41	0.8693
2239.37	0.871
2248.33	0.8707
2257.29	0.8723
2266.25	0.871
2275.21	0.871
2284.17	0.869
2293.13	0.869
2302.09	0.868
2311.05	0.8674
2320.01	0.869
2328.97	0.869
2337.93	0.868
2346.89	0.869
2355.85	0.869
2364.81	0.868
2373.77	0.8688
2382.73	0.8645
2391.69	0.8605
2400.65	0.8605
2409.61	0.859
2418.57	0.8547
2427.53	0.863
2436.49	0.869
2445.45	0.868
2454.41	0.868
2463.37	0.864
2472.33	0.8616
2481.29	0.8655
2490.25	0.864
2499.21	0.859
2508.17	0.857
2517.13	0.857
2526.09	0.857
2535.05	0.854
2544.01	0.854
2552.97	0.854
2561.93	0.852
2570.89	0.8513
2579.85	0.8421
2588.81	0.7915
2597.77	0.783
2606.73	0.8057
2615.69	0.8345
2624.65	0.8283
2633.61	0.8026
2642.57	0.781
2651.53	0.7659
2660.49	0.7043
2669.45	0.7333
2678.41	0.7989
2687.37	0.812
2696.33	0.805
2705.29	0.807
2714.25	0.7929
2723.21	0.7878
2732.17	0.8179
2741.13	0.8121
2750.09	0.8081
2759.05	0.7982
2768.01	0.7817
2776.97	0.769
2785.93	0.6936
2794.89	0.661
2803.85	0.676
2812.81	0.644
2821.77	0.5851
2830.73	0.426
2839.69	0.101
2848.65	0.0011
2857.61	0.02
2866.57	0.0761
2875.53	0.1106
2884.49	0.0731
2893.45	0.0044
2902.41	0
2911.37	0
2920.33	0
2929.29	0
2938.25	0.001
2947.21	0.005
2956.17	0.0188
2965.13	0.1338
2974.09	0.3376
2983.05	0.5565
2992.01	0.6785
3000.97	0.7369
3009.93	0.7796
3018.89	0.8044
3027.85	0.8246
3036.81	0.838
3045.77	0.84
3054.73	0.845
3063.69	0.8428
3072.65	0.8464
3081.61	0.8516
3090.57	0.854
3099.53	0.8594
3108.49	0.8613
3117.45	0.857
3126.41	0.852
3135.37	0.857
3144.33	0.8526
3153.29	0.85
3162.25	0.8534
3171.21	0.8594
3180.17	0.8655
3189.13	0.8695
3198.09	0.873
3207.05	0.876
3216.01	0.8765
3224.97	0.8745
3233.93	0.873
3242.89	0.873
3251.85	0.873
3260.81	0.8716
3269.77	0.8754
3278.73	0.878
3287.69	0.881
3296.65	0.881
3305.61	0.88
3314.57	0.878
3323.53	0.876
3332.49	0.873
3341.45	0.873
3350.41	0.8737
3359.37	0.875
3368.33	0.8773
3377.29	0.8797
3386.25	0.8787
3395.21	0.88
3404.17	0.883
3413.13	0.885
3422.09	0.885
3431.05	0.8832
3440.01	0.8772
3448.97	0.876
3457.93	0.8768
3466.89	0.8809
3475.85	0.8858
3484.81	0.888
3493.77	0.888
3502.73	0.8879
3511.69	0.888
3520.65	0.89
3529.61	0.89
3538.57	0.888
3547.53	0.888
3556.49	0.888
3565.45	0.89
3574.41	0.8949
3583.37	0.891
3592.33	0.89
3601.29	0.888
3610.25	0.887
3619.21	0.886
3628.17	0.885
3637.13	0.8861
3646.09	0.89
3655.05	0.8875
3664.01	0.8899
3672.97	0.883
3681.93	0.8799
3690.89	0.875
3699.85	0.8761
3708.81	0.878
3717.77	0.8832
3726.73	0.8876
3735.69	0.887
3744.65	0.8858
3753.61	0.8801
3762.57	0.881
3771.53	0.881
3780.49	0.8822
3789.45	0.8871
