Infrared Spectrum: 1,3-Dimethylbenzene
Formula: 1,3-( C H3)2 C6 H4
CAS: 108-38-3
State: gas
Melting point: -47.87 C
Boiling point: 139.1 C
Class: IUPAC A
Instrument: IFS66V (Bruker)
Instrument parameters: KBr Beam Splitter; MCT Detector; Multipass cell
Sampling: 1 L/min Flow
Resolution: 0.2410
Temperature: 23 C
Pressure: 101.3 Pa
Origin: NIST, Analytical Chemistry Division, 301-975-3108
cm-1	(micromol/mol)-1m-1 (base 10)
575.05	-3.33851e-06
583.608	-2.58532e-07
592.165	-5.0179e-07
600.723	-2.57871e-07
609.281	-2.86253e-07
617.838	1.85978e-07
626.396	1.37195e-07
634.954	-4.47192e-07
643.511	-4.11653e-08
652.069	4.12212e-07
660.626	2.63047e-06
669.184	7.68094e-06
677.742	3.72051e-05
686.299	5.83569e-05
694.857	6.66515e-05
703.415	4.33534e-05
711.972	7.40157e-06
720.53	9.87694e-07
729.088	1.56361e-06
737.645	1.5252e-06
746.203	1.74683e-05
754.761	0.000105293
763.318	0.000173022
771.876	0.000166067
780.434	0.00012047
788.991	1.94365e-05
797.549	2.37552e-06
806.106	6.88981e-07
814.664	2.72048e-07
823.222	9.12299e-07
831.779	1.64835e-07
840.337	-2.42144e-07
848.895	1.30695e-06
857.452	4.44597e-06
866.01	1.16403e-05
874.568	3.48217e-05
883.125	1.30836e-05
891.683	9.08384e-06
900.241	1.68986e-05
908.798	1.32309e-05
917.356	3.66021e-06
925.914	9.48487e-07
934.471	1.47875e-06
943.029	2.13202e-06
951.586	2.78486e-06
960.144	3.13296e-06
968.702	4.76913e-06
977.259	4.72005e-06
985.817	4.63977e-06
994.375	6.05974e-06
1002.93	9.28174e-06
1011.49	9.05005e-06
1020.05	6.36097e-06
1028.61	6.93146e-06
1037.16	1.30845e-05
1045.72	2.11859e-05
1054.28	1.90679e-05
1062.84	1.21608e-05
1071.39	8.06784e-06
1079.95	1.02062e-05
1088.51	2.36981e-05
1097.07	2.04571e-05
1105.62	1.52329e-05
1114.18	5.77688e-06
1122.74	4.55291e-06
1131.3	4.23428e-06
1139.85	2.77193e-06
1148.41	3.04281e-06
1156.97	3.80418e-06
1165.53	9.33174e-06
1174.09	6.40521e-06
1182.64	3.55525e-06
1191.2	2.44847e-06
1199.76	1.91052e-06
1208.32	1.48732e-06
1216.87	1.17481e-06
1225.43	1.14949e-06
1233.99	1.36887e-06
1242.55	2.74972e-06
1251.1	2.95447e-06
1259.66	3.54453e-06
1268.22	2.53929e-06
1276.78	1.88706e-06
1285.33	1.63857e-06
1293.89	1.45797e-06
1302.45	1.65657e-06
1311.01	2.18944e-06
1319.57	2.20833e-06
1328.12	2.59622e-06
1336.68	2.75675e-06
1345.24	3.53197e-06
1353.8	5.56058e-06
1362.35	8.59531e-06
1370.91	1.37745e-05
1379.47	2.66772e-05
1388.03	3.37274e-05
1396.58	1.9729e-05
1405.14	1.6079e-05
1413.7	1.68595e-05
1422.26	1.86324e-05
1430.81	2.15788e-05
1439.37	3.56493e-05
1447.93	4.49748e-05
1456.49	4.33655e-05
1465.05	4.36247e-05
1473.6	5.23383e-05
1482.16	6.78801e-05
1490.72	9.43798e-05
1499.28	0.000107778
1507.83	9.11532e-05
1516.39	5.81641e-05
1524.95	4.74962e-05
1533.51	4.46966e-05
1542.06	3.61784e-05
1550.62	2.07908e-05
1559.18	1.66212e-05
1567.74	1.66503e-05
1576.29	1.629e-05
1584.85	2.24668e-05
1593.41	3.87757e-05
1601.97	6.7173e-05
1610.53	0.000137613
1619.08	0.000163536
1627.64	6.71123e-05
1636.2	7.47973e-06
1644.76	5.05337e-06
1653.31	4.37786e-06
1661.87	5.22742e-06
1670.43	1.39178e-06
1678.99	5.72225e-07
1687.54	5.94645e-07
1696.1	1.25589e-07
1704.66	1.01964e-06
1713.22	1.38655e-06
1721.77	1.32658e-06
1730.33	3.10246e-06
1738.89	7.74729e-06
1747.45	6.57902e-06
1756.01	7.18028e-06
1764.56	6.52265e-06
1773.12	7.48826e-06
1781.68	6.6196e-06
1790.24	1.82786e-06
1798.79	1.01846e-06
1807.35	1.71757e-06
1815.91	2.0858e-06
1824.47	1.85721e-06
1833.02	3.06019e-06
1841.58	5.57611e-06
1850.14	1.3255e-05
1858.7	9.70376e-06
1867.25	2.50262e-06
1875.81	1.16686e-06
1884.37	1.07046e-06
1892.93	1.13693e-06
1901.49	1.49851e-06
1910.04	2.663e-06
1918.6	5.16536e-06
1927.16	1.12668e-05
1935.72	8.4534e-06
1944.27	5.48802e-06
1952.83	6.33836e-07
1961.39	7.75677e-08
1969.95	3.21542e-07
1978.5	1.40616e-07
1987.06	-3.18322e-11
1995.62	-3.27507e-09
2004.18	-8.62096e-08
2012.73	-7.14395e-08
2021.29	-5.06404e-08
2029.85	-1.95155e-07
2038.41	-2.59954e-07
2046.97	-4.1101e-07
2055.52	-4.72918e-07
2064.08	-3.00939e-07
2072.64	1.21144e-08
2081.2	9.68207e-08
2089.75	-2.66526e-07
2098.31	1.61338e-07
2106.87	4.10129e-07
2115.43	6.77344e-07
2123.98	-3.42237e-07
2132.54	-4.72994e-07
2141.1	-1.49838e-07
2149.66	9.84923e-08
2158.21	6.87925e-07
2166.77	-1.22409e-07
2175.33	-9.14683e-08
2183.89	-1.55848e-07
2192.45	-2.25056e-07
2201	-2.97282e-07
2209.56	2.04981e-07
2218.12	2.18073e-07
2226.68	-7.89074e-09
2235.23	-1.84506e-07
2243.79	-9.02714e-08
2252.35	-7.84517e-08
2260.91	4.49788e-07
2269.46	4.31771e-07
2278.02	8.14799e-07
2286.58	1.48139e-06
2295.14	1.52862e-06
2303.69	5.54886e-07
2312.25	5.72786e-07
2320.81	9.75389e-07
2329.37	1.30612e-06
2337.93	1.89859e-06
2346.48	1.65894e-06
2355.04	1.06525e-06
2363.6	1.10896e-06
2372.16	6.762e-07
2380.71	7.99661e-07
2389.27	1.30536e-06
2397.83	1.24234e-06
2406.39	1.10989e-06
2414.94	1.78447e-06
2423.5	1.7631e-06
2432.06	1.72286e-06
2440.62	1.28513e-06
2449.17	1.45093e-06
2457.73	1.32586e-06
2466.29	1.17133e-06
2474.85	1.17356e-06
2483.41	1.4057e-06
2491.96	1.10095e-06
2500.52	1.13801e-06
2509.08	8.90925e-07
2517.64	4.27299e-07
2526.19	4.59103e-07
2534.75	1.11921e-06
2543.31	1.19173e-06
2551.87	7.47781e-07
2560.42	3.75479e-07
2568.98	3.03694e-07
2577.54	1.83449e-07
2586.1	3.59219e-07
2594.65	2.25454e-07
2603.21	5.51845e-07
2611.77	6.14293e-07
2620.33	6.18849e-07
2628.89	7.60263e-07
2637.44	9.68296e-07
2646	7.38356e-07
2654.56	5.22915e-07
2663.12	3.6774e-07
2671.67	3.0507e-08
2680.23	4.34918e-08
2688.79	1.31335e-07
2697.35	-1.32138e-07
2705.9	3.38457e-07
2714.46	1.17222e-06
2723.02	1.85439e-06
2731.58	5.88106e-06
2740.13	1.13478e-05
2748.69	1.52395e-05
2757.25	3.99324e-06
2765.81	2.09108e-06
2774.37	1.65356e-06
2782.92	1.78188e-06
2791.48	2.24254e-06
2800.04	3.16804e-06
2808.6	4.1151e-06
2817.15	5.6894e-06
2825.71	7.88141e-06
2834.27	1.05214e-05
2842.83	1.4836e-05
2851.38	2.53985e-05
2859.94	5.05119e-05
2868.5	9.45028e-05
2877.06	0.000121421
2885.61	0.000112914
2894.17	9.21306e-05
2902.73	9.75408e-05
2911.29	0.000115113
2919.85	0.000158328
2928.4	0.000227457
2936.96	0.000257963
2945.52	0.00022195
2954.08	0.000134968
2962.63	9.515e-05
2971.19	6.85008e-05
2979.75	7.47895e-05
2988.31	8.9191e-05
2996.86	0.000110379
3005.42	0.000137728
3013.98	0.000176862
3022.54	0.000218565
3031.09	0.000240091
3039.65	0.000212044
3048.21	0.000172322
3056.77	0.000133821
3065.33	0.000117502
3073.88	8.90977e-05
3082.44	4.32219e-05
3091	3.01584e-05
3099.56	2.40069e-05
3108.11	2.12952e-05
3116.67	1.92379e-05
3125.23	1.40068e-05
3133.79	5.86396e-06
3142.34	2.32327e-06
3150.9	1.28256e-06
3159.46	7.95122e-07
3168.02	7.04439e-07
3176.57	4.47841e-07
3185.13	5.45289e-07
3193.69	3.10416e-07
3202.25	4.2224e-07
3210.81	5.26382e-07
3219.36	-1.50712e-07
3227.92	-5.09434e-07
3236.48	-6.07945e-07
3245.04	-6.30643e-07
3253.59	1.00475e-07
3262.15	4.87699e-07
3270.71	6.07389e-07
3279.27	6.22373e-08
3287.82	5.63511e-08
3296.38	2.42455e-07
3304.94	1.57896e-07
3313.5	-8.08655e-08
3322.05	-1.50543e-07
3330.61	-2.34282e-07
3339.17	-4.02186e-08
3347.73	-3.82468e-08
3356.29	-6.23374e-08
3364.84	-2.85517e-07
3373.4	1.80346e-07
3381.96	3.01287e-08
3390.52	4.22009e-07
3399.07	9.1431e-09
3407.63	2.38084e-07
3416.19	8.81932e-08
3424.75	2.37834e-07
3433.3	4.80046e-07
3441.86	3.19177e-07
3450.42	9.2276e-07
3458.98	9.02643e-07
3467.53	6.58696e-07
3476.09	6.81526e-08
3484.65	-2.7554e-07
3493.21	-2.27182e-07
3501.77	-4.20572e-07
3510.32	-6.56492e-07
3518.88	-1.30612e-07
3527.44	-4.34406e-07
3536	-2.26081e-08
3544.55	2.6182e-07
3553.11	4.96838e-07
3561.67	6.50686e-08
3570.23	2.93416e-07
3578.78	1.70757e-07
3587.34	-4.4033e-08
3595.9	2.01125e-07
3604.46	-6.32254e-07
3613.01	-4.19943e-07
3621.57	-2.95091e-07
3630.13	-7.48274e-08
3638.69	-5.02196e-07
3647.25	-4.98955e-07
3655.8	-3.50228e-07
3664.36	-5.40504e-07
3672.92	1.38982e-07
3681.48	-2.51981e-07
3690.03	-3.72193e-07
3698.59	-3.55149e-07
3707.15	-2.00797e-08
3715.71	-1.90776e-07
3724.26	-4.67866e-07
3732.82	3.60395e-07
3741.38	5.5619e-07
3749.94	4.37875e-07
3758.49	4.15169e-07
3767.05	7.32868e-07
3775.61	9.07087e-07
3784.17	8.55367e-07
3792.73	4.59476e-07
3801.28	-9.05502e-07
3809.84	3.68202e-07
3818.4	1.48066e-07
3826.96	1.64257e-07
3835.51	7.52426e-07
3844.07	6.22415e-07
3852.63	1.194e-07
3861.19	2.571e-07
3869.74	2.24988e-07
3878.3	5.12369e-07
3886.86	1.15324e-06
3895.42	9.78902e-07
3903.97	1.31418e-06
3912.53	1.62945e-06
3921.09	1.70766e-06
3929.65	1.58767e-06
3938.21	1.11074e-06
3946.76	1.45797e-06
3955.32	1.29212e-06
3963.88	1.74271e-06
3972.44	1.45977e-06
