Infrared Spectrum: 1,3-Dimethylbenzene
Formula: 1,3-( C H3)2 C6 H4
CAS: 108-38-3
State: gas
Melting point: -47.87 C
Boiling point: 139.1 C
Class: IUPAC A
Instrument: IFS66V (Bruker)
Instrument parameters: KBr Beam Splitter; MCT Detector; Multipass cell
Sampling: 1 L/min Flow
Resolution: 0.9640
Temperature: 23 C
Pressure: 101.3 Pa
Origin: NIST, Analytical Chemistry Division, 301-975-3108
cm-1	(micromol/mol)-1m-1 (base 10)
575.17	-1.17347e-06
583.848	-4.1427e-07
592.526	-6.00645e-08
601.205	-3.64218e-07
609.883	-4.01252e-07
618.561	-1.64237e-07
627.239	-2.3586e-07
635.917	-4.55797e-07
644.595	1.70156e-08
653.274	9.80961e-07
661.952	2.68944e-06
670.63	1.07572e-05
679.308	4.24886e-05
687.986	7.79654e-05
696.665	6.35632e-05
705.343	3.28969e-05
714.021	5.58965e-06
722.699	1.89962e-06
731.377	1.98438e-06
740.055	4.61354e-06
748.734	3.51879e-05
757.412	0.000133781
766.09	0.000296452
774.768	0.000166973
783.446	7.53546e-05
792.125	9.1266e-06
800.803	2.0187e-06
809.481	1.22078e-06
818.159	7.16224e-07
826.837	5.77194e-07
835.515	6.30205e-07
844.194	6.86453e-07
852.872	1.6406e-06
861.55	7.87421e-06
870.228	1.40906e-05
878.906	1.36531e-05
887.584	1.1148e-05
896.263	1.27588e-05
904.941	1.66111e-05
913.619	1.16974e-05
922.297	1.32268e-06
930.975	1.49801e-06
939.654	2.23577e-06
948.332	2.64498e-06
957.01	3.14137e-06
965.688	4.00322e-06
974.366	4.94674e-06
983.044	4.33056e-06
991.723	5.35862e-06
1000.4	8.39502e-06
1009.08	1.0006e-05
1017.76	7.37865e-06
1026.44	6.31831e-06
1035.11	1.15349e-05
1043.79	2.38963e-05
1052.47	1.92342e-05
1061.15	1.39167e-05
1069.83	8.85131e-06
1078.5	9.19131e-06
1087.18	2.08291e-05
1095.86	1.95536e-05
1104.54	1.75362e-05
1113.22	6.23419e-06
1121.9	4.76603e-06
1130.57	4.49565e-06
1139.25	2.88157e-06
1147.93	2.7446e-06
1156.61	4.12427e-06
1165.29	9.21318e-06
1173.96	6.52371e-06
1182.64	3.54036e-06
1191.32	2.40282e-06
1200	1.97829e-06
1208.68	1.45102e-06
1217.36	1.20633e-06
1226.03	1.14635e-06
1234.71	1.60756e-06
1243.39	3.02317e-06
1252.07	3.09125e-06
1260.75	3.57896e-06
1269.42	2.84502e-06
1278.1	1.9992e-06
1286.78	1.55336e-06
1295.46	1.90566e-06
1304.14	2.05732e-06
1312.82	2.18275e-06
1321.49	2.20108e-06
1330.17	2.46228e-06
1338.85	2.74632e-06
1347.53	3.94231e-06
1356.21	6.36315e-06
1364.88	9.56266e-06
1373.56	1.80383e-05
1382.24	2.95216e-05
1390.92	2.84533e-05
1399.6	1.89993e-05
1408.28	1.60187e-05
1416.95	1.7365e-05
1425.63	1.89045e-05
1434.31	2.70458e-05
1442.99	3.92906e-05
1451.67	4.66269e-05
1460.34	4.19224e-05
1469.02	4.88012e-05
1477.7	5.88904e-05
1486.38	8.42867e-05
1495.06	0.000106438
1503.74	0.000103033
1512.41	6.84716e-05
1521.09	4.99228e-05
1529.77	4.7214e-05
1538.45	4.02915e-05
1547.13	2.56523e-05
1555.8	1.78133e-05
1564.48	1.61647e-05
1573.16	1.77888e-05
1581.84	1.95431e-05
1590.52	3.24166e-05
1599.2	4.90776e-05
1607.87	0.000102424
1616.55	0.000133995
1625.23	0.000105958
1633.91	1.14275e-05
1642.59	5.3513e-06
1651.26	6.61797e-06
1659.94	5.16472e-06
1668.62	1.94583e-06
1677.3	8.47459e-07
1685.98	6.04623e-07
1694.66	9.4234e-07
1703.33	1.28397e-06
1712.01	1.43363e-06
1720.69	1.263e-06
1729.37	3.00949e-06
1738.05	7.1659e-06
1746.72	6.59038e-06
1755.4	7.30012e-06
1764.08	6.31437e-06
1772.76	7.37444e-06
1781.44	6.71841e-06
1790.12	1.9458e-06
1798.79	1.0046e-06
1807.47	1.74604e-06
1816.15	2.13113e-06
1824.83	1.86046e-06
1833.51	3.32823e-06
1842.18	5.95342e-06
1850.86	1.24519e-05
1859.54	1.03334e-05
1868.22	1.94703e-06
1876.9	1.20495e-06
1885.58	1.03748e-06
1894.25	1.13866e-06
1902.93	1.74897e-06
1911.61	3.13222e-06
1920.29	6.05499e-06
1928.97	1.18652e-05
1937.64	1.11999e-05
1946.32	3.66289e-06
1955	4.23183e-07
1963.68	1.30727e-07
1972.36	1.97191e-07
1981.04	7.23981e-08
1989.71	1.72048e-08
1998.39	1.29029e-08
2007.07	-4.12063e-08
2015.75	-6.65965e-08
2024.43	2.93602e-08
2033.1	-1.99176e-07
2041.78	-3.2515e-07
2050.46	-4.49787e-07
2059.14	-3.93096e-07
2067.82	-1.76637e-07
2076.5	-1.40405e-07
2085.17	-5.07104e-08
2093.85	-1.7404e-07
2102.53	2.7046e-07
2111.21	7.21656e-07
2119.89	1.69847e-08
2128.56	-3.0742e-07
2137.24	-1.57771e-07
2145.92	7.26128e-08
2154.6	2.55402e-07
2163.28	-1.54218e-07
2171.96	-1.50061e-07
2180.63	-2.34082e-07
2189.31	-2.57005e-07
2197.99	-2.53913e-07
2206.67	-3.93727e-08
2215.35	4.56746e-08
2224.02	-2.95384e-08
2232.7	-2.65439e-07
2241.38	-1.1151e-07
2250.06	-4.80511e-08
2258.74	3.9116e-07
2267.42	6.72619e-07
2276.09	9.10158e-07
2284.77	1.36871e-06
2293.45	1.71706e-06
2302.13	6.61659e-07
2310.81	5.11582e-07
2319.48	9.17415e-07
2328.16	1.22434e-06
2336.84	1.71012e-06
2345.52	1.58014e-06
2354.2	1.55279e-06
2362.88	1.41961e-06
2371.55	8.96925e-07
2380.23	7.1572e-07
2388.91	1.21766e-06
2397.59	1.26416e-06
2406.27	1.33458e-06
2414.94	1.79774e-06
2423.62	1.9396e-06
2432.3	1.66897e-06
2440.98	1.35444e-06
2449.66	1.37201e-06
2458.34	1.33854e-06
2467.01	1.43766e-06
2475.69	1.25687e-06
2484.37	1.35921e-06
2493.05	1.26946e-06
2501.73	1.13736e-06
2510.4	7.24122e-07
2519.08	4.51609e-07
2527.76	3.91312e-07
2536.44	1.08476e-06
2545.12	1.30949e-06
2553.8	5.40193e-07
2562.47	4.37557e-07
2571.15	3.64692e-07
2579.83	1.98212e-07
2588.51	4.18485e-07
2597.19	5.53563e-07
2605.86	5.86008e-07
2614.54	6.44067e-07
2623.22	8.20881e-07
2631.9	8.43974e-07
2640.58	8.6949e-07
2649.26	6.41434e-07
2657.93	3.42648e-07
2666.61	2.00425e-07
2675.29	1.84144e-07
2683.97	2.34912e-08
2692.65	2.9309e-07
2701.32	4.21026e-07
2710	8.02128e-07
2718.68	1.52709e-06
2727.36	3.16097e-06
2736.04	1.10176e-05
2744.72	1.20605e-05
2753.39	7.29595e-06
2762.07	2.66868e-06
2770.75	1.92727e-06
2779.43	1.9281e-06
2788.11	2.19815e-06
2796.78	2.9393e-06
2805.46	3.77569e-06
2814.14	5.13227e-06
2822.82	7.41615e-06
2831.5	9.85176e-06
2840.18	1.35482e-05
2848.85	2.20136e-05
2857.53	4.18246e-05
2866.21	8.17797e-05
2874.89	0.000117757
2883.57	0.000117472
2892.24	9.46149e-05
2900.92	9.44973e-05
2909.6	0.000111561
2918.28	0.000147228
2926.96	0.000216634
2935.63	0.000255966
2944.31	0.00022866
2952.99	0.00013951
2961.67	9.80636e-05
2970.35	7.07006e-05
2979.03	7.36526e-05
2987.7	8.83694e-05
2996.38	0.0001094
3005.06	0.000135833
3013.74	0.00017518
3022.42	0.000217022
3031.09	0.000238789
3039.77	0.000210759
3048.45	0.000170037
3057.13	0.000133439
3065.81	0.000118068
3074.49	8.46382e-05
3083.16	4.18107e-05
3091.84	2.92723e-05
3100.52	2.3873e-05
3109.2	2.13185e-05
3117.88	1.86243e-05
3126.55	1.28578e-05
3135.23	5.03812e-06
3143.91	2.15562e-06
3152.59	1.27321e-06
3161.27	9.33024e-07
3169.95	7.18101e-07
3178.62	7.09224e-07
3187.3	5.90556e-07
3195.98	5.19759e-07
3204.66	3.5423e-07
3213.34	3.19491e-07
3222.01	-4.73817e-08
3230.69	-2.75308e-07
3239.37	-3.21414e-07
3248.05	-3.33422e-07
3256.73	1.54418e-07
3265.41	3.23942e-07
3274.08	1.67836e-07
3282.76	-7.89074e-08
3291.44	-8.33093e-10
3300.12	1.68874e-07
3308.8	2.27436e-08
3317.47	-7.55431e-08
3326.15	-9.48798e-08
3334.83	-5.42102e-08
3343.51	4.41466e-09
3352.19	-8.45653e-08
3360.87	-1.04946e-07
3369.54	-5.67003e-08
3378.22	4.01203e-08
3386.9	9.61204e-08
3395.58	5.30062e-07
3404.26	4.3766e-07
3412.93	5.61703e-07
3421.61	5.49661e-07
3430.29	4.90844e-07
3438.97	3.10979e-07
3447.65	3.53591e-07
3456.33	3.98337e-07
3465	4.44652e-07
3473.68	2.50424e-07
3482.36	1.11925e-07
3491.04	-1.02489e-07
3499.72	-1.98857e-07
3508.39	-2.89574e-07
3517.07	-1.74464e-07
3525.75	-8.08464e-08
3534.43	-6.3758e-08
3543.11	8.5352e-08
3551.79	4.29895e-07
3560.46	3.51434e-07
3569.14	2.48946e-07
3577.82	9.76256e-08
3586.5	-1.18418e-07
3595.18	-2.91713e-07
3603.85	-3.95976e-07
3612.53	-3.7927e-07
3621.21	-2.03868e-07
3629.89	-4.16737e-07
3638.57	-3.04002e-07
3647.25	-4.2542e-07
3655.92	-4.50433e-07
3664.6	-2.73491e-07
3673.28	-1.62008e-07
3681.96	-1.83425e-07
3690.64	-3.49894e-07
3699.31	-2.34721e-07
3707.99	-1.86365e-07
3716.67	-1.88514e-07
3725.35	-2.57477e-09
3734.03	3.48635e-07
3742.71	5.43773e-07
3751.38	4.55417e-07
3760.06	3.75255e-07
3768.74	7.84797e-07
3777.42	7.04916e-07
3786.1	6.49716e-07
3794.77	4.66418e-07
3803.45	2.01527e-07
3812.13	1.17351e-07
3820.81	8.89699e-08
3829.49	5.81769e-07
3838.17	5.95116e-08
3846.84	5.4461e-07
3855.52	3.53969e-07
3864.2	3.07781e-07
3872.88	4.5683e-07
3881.56	6.65983e-07
3890.23	8.82788e-07
3898.91	1.11747e-06
3907.59	1.60413e-06
3916.27	1.82847e-06
3924.95	1.67995e-06
3933.63	1.40993e-06
3942.3	1.34242e-06
3950.98	1.38415e-06
3959.66	1.45607e-06
3968.34	1.55441e-06
