Infrared Spectrum: 1,3-Dimethylbenzene
Formula: 1,3-( C H3)2 C6 H4
CAS: 108-38-3
State: gas
Melting point: -47.87 C
Boiling point: 139.1 C
Class: IUPAC A
Instrument: IFS66V (Bruker)
Instrument parameters: KBr Beam Splitter; MCT Detector; Multipass cell
Sampling: 1 L/min Flow
Resolution: 0.2410
Temperature: 23 C
Pressure: 101.3 Pa
Origin: NIST, Analytical Chemistry Division, 301-975-3108
cm-1	(micromol/mol)-1m-1 (base 10)
575.05	-4.98009e-06
583.608	-1.14313e-06
592.165	-1.07704e-06
600.723	5.21543e-07
609.281	-4.65854e-07
617.838	1.31239e-08
626.396	4.33375e-07
634.954	-8.0553e-07
643.511	-2.33614e-07
652.069	6.85589e-07
660.626	3.49826e-06
669.184	6.99659e-06
677.742	3.71456e-05
686.299	5.83409e-05
694.857	6.63968e-05
703.415	4.33944e-05
711.972	7.25962e-06
720.53	2.22689e-07
729.088	1.22285e-06
737.645	1.01171e-06
746.203	1.74318e-05
754.761	0.000105128
763.318	0.000172873
771.876	0.000166336
780.434	0.000120433
788.991	1.90268e-05
797.549	2.13449e-06
806.106	5.84007e-07
814.664	5.14898e-07
823.222	9.34935e-07
831.779	2.66681e-08
840.337	-3.26045e-07
848.895	1.33408e-06
857.452	4.69476e-06
866.01	1.15684e-05
874.568	3.46366e-05
883.125	1.33258e-05
891.683	9.02814e-06
900.241	1.68507e-05
908.798	1.31013e-05
917.356	3.41455e-06
925.914	9.327e-07
934.471	1.26359e-06
943.029	2.16869e-06
951.586	2.93397e-06
960.144	3.15064e-06
968.702	4.91901e-06
977.259	4.86355e-06
985.817	4.79539e-06
994.375	5.81486e-06
1002.93	9.35533e-06
1011.49	9.10307e-06
1020.05	6.25407e-06
1028.61	6.7765e-06
1037.16	1.32537e-05
1045.72	2.1329e-05
1054.28	1.8977e-05
1062.84	1.19966e-05
1071.39	7.93427e-06
1079.95	1.04912e-05
1088.51	2.37628e-05
1097.07	2.06216e-05
1105.62	1.51045e-05
1114.18	5.94879e-06
1122.74	4.63492e-06
1131.3	4.30822e-06
1139.85	2.64619e-06
1148.41	3.0801e-06
1156.97	3.62847e-06
1165.53	9.26813e-06
1174.09	6.47002e-06
1182.64	3.68128e-06
1191.2	2.6565e-06
1199.76	1.86055e-06
1208.32	1.41218e-06
1216.87	1.1474e-06
1225.43	1.15997e-06
1233.99	1.28346e-06
1242.55	2.7188e-06
1251.1	3.02242e-06
1259.66	3.59091e-06
1268.22	2.49799e-06
1276.78	1.84411e-06
1285.33	1.47702e-06
1293.89	1.50941e-06
1302.45	1.35101e-06
1311.01	2.10318e-06
1319.57	2.19079e-06
1328.12	2.67355e-06
1336.68	2.63703e-06
1345.24	3.30919e-06
1353.8	5.02564e-06
1362.35	8.64871e-06
1370.91	1.39536e-05
1379.47	2.66041e-05
1388.03	3.34629e-05
1396.58	1.98367e-05
1405.14	1.60159e-05
1413.7	1.67357e-05
1422.26	1.86414e-05
1430.81	2.15628e-05
1439.37	3.5489e-05
1447.93	4.48881e-05
1456.49	4.31449e-05
1465.05	4.38136e-05
1473.6	5.23334e-05
1482.16	6.77733e-05
1490.72	9.43254e-05
1499.28	0.000107928
1507.83	9.12114e-05
1516.39	5.81131e-05
1524.95	4.73808e-05
1533.51	4.47819e-05
1542.06	3.62294e-05
1550.62	2.07672e-05
1559.18	1.65515e-05
1567.74	1.6591e-05
1576.29	1.62848e-05
1584.85	2.25164e-05
1593.41	3.8751e-05
1601.97	6.7234e-05
1610.53	0.000137512
1619.08	0.00016477
1627.64	6.71355e-05
1636.2	7.51079e-06
1644.76	5.17695e-06
1653.31	3.96348e-06
1661.87	5.10255e-06
1670.43	1.2843e-06
1678.99	5.86929e-07
1687.54	6.75032e-07
1696.1	5.16713e-07
1704.66	1.07503e-06
1713.22	1.37824e-06
1721.77	1.41718e-06
1730.33	3.09489e-06
1738.89	7.79171e-06
1747.45	6.5285e-06
1756.01	7.22706e-06
1764.56	6.55411e-06
1773.12	7.59604e-06
1781.68	6.46053e-06
1790.24	1.77779e-06
1798.79	1.05809e-06
1807.35	1.6458e-06
1815.91	2.11735e-06
1824.47	1.8027e-06
1833.02	2.87615e-06
1841.58	5.57316e-06
1850.14	1.31761e-05
1858.7	9.69853e-06
1867.25	2.58258e-06
1875.81	1.14538e-06
1884.37	1.10828e-06
1892.93	1.15982e-06
1901.49	1.4132e-06
1910.04	2.53111e-06
1918.6	5.18413e-06
1927.16	1.12843e-05
1935.72	8.34764e-06
1944.27	5.46798e-06
1952.83	4.84597e-07
1961.39	1.13093e-07
1969.95	4.00026e-07
1978.5	3.33637e-08
1987.06	1.06861e-07
1995.62	3.20077e-08
2004.18	-8.78858e-08
2012.73	-9.9962e-08
2021.29	3.80822e-08
2029.85	-1.71998e-07
2038.41	-2.86883e-07
2046.97	-5.10947e-07
2055.52	-3.76431e-07
2064.08	-2.03083e-07
2072.64	-6.64728e-08
2081.2	2.0198e-08
2089.75	-3.58124e-07
2098.31	1.91615e-07
2106.87	5.37751e-07
2115.43	6.43182e-07
2123.98	-3.88227e-07
2132.54	-4.06794e-07
2141.1	-1.11907e-07
2149.66	1.35104e-07
2158.21	8.68608e-07
2166.77	-1.21923e-07
2175.33	-1.35087e-08
2183.89	-8.96457e-08
2192.45	-3.16684e-07
2201	-3.36681e-07
2209.56	3.46423e-07
2218.12	2.34257e-07
2226.68	-4.81493e-08
2235.23	-2.54021e-07
2243.79	-8.63615e-08
2252.35	-1.20314e-07
2260.91	4.15608e-07
2269.46	3.75944e-07
2278.02	8.8412e-07
2286.58	1.47888e-06
2295.14	1.63282e-06
2303.69	5.92984e-07
2312.25	7.14632e-07
2320.81	9.33176e-07
2329.37	1.38893e-06
2337.93	1.84841e-06
2346.48	1.79705e-06
2355.04	9.51083e-07
2363.6	1.37789e-06
2372.16	5.74584e-07
2380.71	8.96022e-07
2389.27	1.39702e-06
2397.83	1.35348e-06
2406.39	1.04508e-06
2414.94	1.77561e-06
2423.5	1.68547e-06
2432.06	1.64271e-06
2440.62	1.10233e-06
2449.17	1.62198e-06
2457.73	1.28309e-06
2466.29	1.04879e-06
2474.85	1.22834e-06
2483.41	1.50709e-06
2491.96	1.09726e-06
2500.52	1.11749e-06
2509.08	9.42271e-07
2517.64	4.29914e-07
2526.19	4.64539e-07
2534.75	1.20579e-06
2543.31	1.1578e-06
2551.87	9.18019e-07
2560.42	4.64246e-07
2568.98	4.86385e-07
2577.54	2.76797e-07
2586.1	5.5172e-07
2594.65	3.75429e-07
2603.21	5.01147e-07
2611.77	6.36175e-07
2620.33	6.51272e-07
2628.89	6.97005e-07
2637.44	8.47032e-07
2646	8.01962e-07
2654.56	6.21427e-07
2663.12	4.08938e-07
2671.67	-6.36779e-08
2680.23	1.04104e-07
2688.79	1.1304e-07
2697.35	-1.23779e-07
2705.9	4.23607e-07
2714.46	1.13951e-06
2723.02	1.98544e-06
2731.58	5.87262e-06
2740.13	1.12391e-05
2748.69	1.53632e-05
2757.25	3.98283e-06
2765.81	2.12834e-06
2774.37	1.84097e-06
2782.92	1.57274e-06
2791.48	2.19862e-06
2800.04	3.22576e-06
2808.6	4.00116e-06
2817.15	5.72289e-06
2825.71	7.83936e-06
2834.27	1.06072e-05
2842.83	1.47287e-05
2851.38	2.53008e-05
2859.94	5.03491e-05
2868.5	9.42493e-05
2877.06	0.000121503
2885.61	0.000113066
2894.17	9.21958e-05
2902.73	9.74285e-05
2911.29	0.000115258
2919.85	0.000158212
2928.4	0.000228029
2936.96	0.000257957
2945.52	0.000221968
2954.08	0.000135156
2962.63	9.52528e-05
2971.19	6.83737e-05
2979.75	7.46041e-05
2988.31	8.90364e-05
2996.86	0.00011056
3005.42	0.000137637
3013.98	0.000177018
3022.54	0.000218649
3031.09	0.000240178
3039.65	0.000212185
3048.21	0.000172472
3056.77	0.000134227
3065.33	0.000117374
3073.88	8.92683e-05
3082.44	4.31937e-05
3091	3.01241e-05
3099.56	2.40893e-05
3108.11	2.13462e-05
3116.67	1.90802e-05
3125.23	1.39729e-05
3133.79	6.06281e-06
3142.34	2.37162e-06
3150.9	1.01052e-06
3159.46	8.33002e-07
3168.02	5.52263e-07
3176.57	3.56715e-07
3185.13	3.89525e-07
3193.69	2.80726e-07
3202.25	6.01851e-07
3210.81	6.36357e-07
3219.36	-2.41697e-07
3227.92	-8.00713e-07
3236.48	-4.24403e-07
3245.04	-7.02172e-07
3253.59	1.38282e-07
3262.15	5.29915e-07
3270.71	6.99891e-07
3279.27	-1.51058e-07
3287.82	6.00509e-08
3296.38	5.94366e-07
3304.94	2.03646e-07
3313.5	-4.74636e-08
3322.05	-4.91031e-07
3330.61	-6.95936e-07
3339.17	5.11761e-08
3347.73	3.52346e-08
3356.29	-6.36125e-08
3364.84	-2.88555e-07
3373.4	2.6601e-07
3381.96	-2.96037e-07
3390.52	4.76384e-07
3399.07	-1.9589e-07
3407.63	1.41944e-08
3416.19	-2.0107e-07
3424.75	2.06763e-07
3433.3	7.96315e-07
3441.86	3.79084e-07
3450.42	1.39346e-06
3458.98	1.21927e-06
3467.53	6.44782e-07
3476.09	2.45921e-07
3484.65	-4.70968e-07
3493.21	-2.78278e-07
3501.77	-6.75829e-07
3510.32	-8.33669e-07
3518.88	-1.01389e-07
3527.44	-4.9498e-07
3536	1.36751e-07
3544.55	6.31732e-08
3553.11	5.2509e-07
3561.67	-3.04645e-07
3570.23	5.36772e-07
3578.78	3.2086e-07
3587.34	-9.97492e-08
3595.9	5.9933e-07
3604.46	-4.56273e-07
3613.01	-6.98293e-07
3621.57	-3.60355e-07
3630.13	3.05952e-08
3638.69	-3.51033e-07
3647.25	-5.85061e-07
3655.8	-5.11845e-07
3664.36	-7.3794e-07
3672.92	3.18915e-07
3681.48	-2.07128e-07
3690.03	-3.90071e-07
3698.59	-3.90579e-07
3707.15	-6.10441e-08
3715.71	-2.426e-07
3724.26	-5.71559e-07
3732.82	1.56613e-07
3741.38	5.57541e-07
3749.94	3.85078e-07
3758.49	3.94918e-07
3767.05	8.23388e-07
3775.61	8.61238e-07
3784.17	1.1954e-06
3792.73	5.5072e-07
3801.28	-8.39586e-07
3809.84	3.93445e-07
3818.4	-6.77479e-09
3826.96	2.20403e-07
3835.51	8.88579e-07
3844.07	6.90518e-07
3852.63	-4.34836e-08
3861.19	-2.29774e-08
3869.74	1.39378e-07
3878.3	4.18917e-07
3886.86	1.29647e-06
3895.42	8.03002e-07
3903.97	1.30398e-06
3912.53	1.59854e-06
3921.09	1.6922e-06
3929.65	1.26038e-06
3938.21	7.80065e-07
3946.76	1.65289e-06
3955.32	1.35698e-06
3963.88	1.63075e-06
3972.44	1.43053e-06
