Infrared Spectrum: Toluene
Formula: C H3 C6 H5
CAS: 108-88-3
State: gas
Melting point: -95 C
Boiling point: 110.6 C
Class: IUPAC A
Instrument: IFS66V (Bruker)
Instrument parameters: KBr Beam splitter; MCT Detector; Multipass cell
Sampling: 1 L/min Flow
Resolution: 0.2410
Temperature: 23 C
Pressure: 101.3 kPa
Origin: NIST, Anayltical Chemistry Division, 301-975-3108
cm-1	(micromol/mol)-1m-1 (base 10)
575.048	-2.40644e-07
583.606	-3.00948e-07
592.163	-5.79909e-07
600.721	3.90408e-08
609.279	2.0212e-07
617.836	4.06313e-07
626.394	4.97618e-07
634.951	2.62797e-07
643.509	1.10905e-06
652.067	8.17933e-07
660.624	2.49171e-06
669.182	1.25692e-05
677.74	4.6422e-05
686.297	7.1275e-05
694.855	9.82038e-05
703.412	0.00010367
711.97	0.00015061
720.528	0.000186859
729.085	0.000786119
737.643	0.000186537
746.201	0.000104486
754.758	2.07707e-05
763.316	2.3859e-06
771.873	1.66778e-06
780.431	2.29089e-06
788.989	9.01521e-07
797.546	1.35926e-06
806.104	3.71416e-07
814.662	3.75359e-07
823.219	4.66217e-07
831.777	5.16101e-07
840.334	5.27455e-07
848.892	7.32301e-07
857.45	8.76525e-07
866.007	9.86806e-07
874.565	2.15009e-06
883.123	2.59668e-06
891.68	4.05366e-06
900.238	3.07616e-06
908.795	3.18762e-06
917.353	3.15625e-06
925.911	3.51583e-06
934.468	3.8487e-06
943.026	2.55885e-06
951.584	1.75142e-06
960.141	2.37859e-06
968.699	2.90076e-06
977.256	2.93268e-06
985.814	2.4231e-06
994.372	2.13365e-06
1002.93	1.71353e-06
1011.49	2.66418e-06
1020.04	1.30332e-05
1028.6	1.83878e-05
1037.16	2.60237e-05
1045.72	1.85382e-05
1054.28	1.26016e-05
1062.83	1.38119e-05
1071.39	2.09907e-05
1079.95	1.95867e-05
1088.51	2.3793e-05
1097.06	1.59239e-05
1105.62	8.29189e-06
1114.18	7.03245e-06
1122.74	3.18593e-06
1131.29	1.86479e-06
1139.85	1.63839e-06
1148.41	1.71402e-06
1156.97	2.19865e-06
1165.52	2.48914e-06
1174.08	2.79627e-06
1182.64	2.39907e-06
1191.2	2.17556e-06
1199.75	3.56611e-06
1208.31	4.30018e-06
1216.87	4.99877e-06
1225.43	2.27973e-06
1233.99	2.79643e-06
1242.54	2.77354e-06
1251.1	2.70853e-06
1259.66	1.16691e-06
1268.22	9.43971e-07
1276.77	8.94893e-07
1285.33	1.05812e-06
1293.89	1.53053e-06
1302.45	2.60382e-06
1311	1.9584e-06
1319.56	2.49582e-06
1328.12	1.84468e-06
1336.68	1.77283e-06
1345.23	2.37092e-06
1353.79	3.46999e-06
1362.35	4.85613e-06
1370.91	8.72776e-06
1379.46	1.29477e-05
1388.02	1.75414e-05
1396.58	1.07172e-05
1405.14	8.32282e-06
1413.7	9.03545e-06
1422.25	1.37938e-05
1430.81	1.21077e-05
1439.37	1.84748e-05
1447.93	2.98256e-05
1456.48	3.23719e-05
1465.04	3.24758e-05
1473.6	3.32684e-05
1482.16	3.25847e-05
1490.71	9.14983e-05
1499.27	0.000103086
1507.83	9.99488e-05
1516.39	3.15041e-05
1524.94	2.48322e-05
1533.5	1.83599e-05
1542.06	1.32464e-05
1550.62	1.01222e-05
1559.18	1.15784e-05
1567.73	8.75878e-06
1576.29	1.02495e-05
1584.85	8.81232e-06
1593.41	1.73668e-05
1601.96	4.05095e-05
1610.52	4.48315e-05
1619.08	3.85408e-05
1627.64	1.9122e-05
1636.19	3.50622e-06
1644.75	1.84844e-06
1653.31	-5.05404e-08
1661.87	1.95438e-06
1670.42	1.78936e-06
1678.98	1.69638e-06
1687.54	1.46218e-06
1696.1	1.14622e-06
1704.65	1.51165e-06
1713.21	2.18206e-06
1721.77	4.25191e-06
1730.33	4.4008e-06
1738.89	5.47892e-06
1747.44	2.17949e-06
1756	1.30805e-06
1764.56	1.96636e-06
1773.12	3.58313e-06
1781.67	5.08459e-06
1790.23	1.06023e-05
1798.79	9.64456e-06
1807.35	1.24318e-05
1815.9	4.13735e-06
1824.46	3.52415e-06
1833.02	2.91946e-06
1841.58	5.34027e-06
1850.13	1.04122e-05
1858.69	1.17706e-05
1867.25	1.15064e-05
1875.81	6.89447e-06
1884.36	3.32499e-06
1892.92	1.38592e-06
1901.48	1.18115e-06
1910.04	1.24797e-06
1918.6	2.36923e-06
1927.15	6.27547e-06
1935.71	1.24068e-05
1944.27	1.43558e-05
1952.83	1.26461e-05
1961.38	6.00323e-06
1969.94	2.89303e-06
1978.5	8.12487e-07
1987.06	1.22523e-06
1995.61	1.43191e-06
2004.17	1.17798e-06
2012.73	8.13928e-07
2021.29	5.99234e-07
2029.84	4.50634e-07
2038.4	1.26817e-07
2046.96	1.4156e-07
2055.52	2.4824e-07
2064.08	2.12782e-07
2072.63	1.77261e-07
2081.19	3.67534e-07
2089.75	1.61838e-07
2098.31	2.06709e-07
2106.86	1.68847e-07
2115.42	2.58064e-07
2123.98	2.93092e-07
2132.54	2.92388e-07
2141.09	2.32231e-07
2149.65	2.22998e-07
2158.21	8.15389e-07
2166.77	1.03244e-06
2175.32	1.33353e-06
2183.88	7.41282e-07
2192.44	7.63184e-07
2201	4.59156e-07
2209.55	5.38471e-07
2218.11	4.88855e-07
2226.67	4.13139e-07
2235.23	5.13313e-07
2243.79	6.01566e-07
2252.34	9.80212e-07
2260.9	9.97518e-07
2269.46	1.24741e-06
2278.02	1.54173e-06
2286.57	1.29831e-06
2295.13	1.25693e-06
2303.69	1.69267e-06
2312.25	1.75886e-06
2320.8	2.02279e-06
2329.36	1.9059e-06
2337.92	1.78448e-06
2346.48	2.25676e-06
2355.03	2.17903e-06
2363.59	1.53594e-06
2372.15	1.60037e-06
2380.71	1.18992e-06
2389.26	1.27498e-06
2397.82	1.35328e-06
2406.38	1.67209e-06
2414.94	1.83252e-06
2423.5	1.99421e-06
2432.05	1.28866e-06
2440.61	9.38654e-07
2449.17	8.84235e-07
2457.73	9.88545e-07
2466.28	1.01755e-06
2474.84	9.33546e-07
2483.4	7.97899e-07
2491.96	8.24096e-07
2500.51	1.10181e-06
2509.07	8.62357e-07
2517.63	7.01644e-07
2526.19	6.97213e-07
2534.74	7.50311e-07
2543.3	7.91869e-07
2551.86	9.22196e-07
2560.42	5.893e-07
2568.98	8.15542e-07
2577.53	1.24044e-06
2586.09	2.09343e-06
2594.65	2.42853e-06
2603.21	2.32668e-06
2611.76	1.7122e-06
2620.32	1.26597e-06
2628.88	1.1731e-06
2637.44	1.22542e-06
2645.99	8.59121e-07
2654.55	8.03167e-07
2663.11	6.73245e-07
2671.67	5.68037e-07
2680.22	5.24827e-07
2688.78	5.72813e-07
2697.34	5.4419e-07
2705.9	6.34384e-07
2714.45	7.6559e-07
2723.01	1.06918e-06
2731.57	2.94246e-06
2740.13	5.14352e-06
2748.69	6.06883e-06
2757.24	3.46869e-06
2765.8	1.53992e-06
2774.36	1.49199e-06
2782.92	1.58512e-06
2791.47	1.99931e-06
2800.03	2.13762e-06
2808.59	2.42895e-06
2817.15	3.53936e-06
2825.7	4.20972e-06
2834.26	5.87002e-06
2842.82	7.25957e-06
2851.38	1.17827e-05
2859.93	2.21145e-05
2868.49	3.93701e-05
2877.05	6.20999e-05
2885.61	6.61193e-05
2894.16	5.75266e-05
2902.72	4.14461e-05
2911.28	4.51962e-05
2919.84	6.80852e-05
2928.4	0.000107852
2936.95	0.000119359
2945.51	0.000107383
2954.07	6.74817e-05
2962.63	5.11784e-05
2971.18	3.50849e-05
2979.74	3.933e-05
2988.3	4.0733e-05
2996.86	5.20759e-05
3005.41	6.70648e-05
3013.97	7.46902e-05
3022.53	0.000127152
3031.09	0.000218551
3039.64	0.000222115
3048.2	0.00019489
3056.76	0.00010802
3065.32	0.000118658
3073.88	0.000147714
3082.43	0.000128818
3090.99	9.55779e-05
3099.55	7.42418e-05
3108.11	4.77296e-05
3116.66	2.9536e-05
3125.22	1.72007e-05
3133.78	8.39791e-06
3142.34	2.39024e-06
3150.89	1.23979e-06
3159.45	1.19913e-06
3168.01	1.40025e-06
3176.57	1.57299e-06
3185.12	1.42166e-06
3193.68	4.15051e-07
3202.24	2.72811e-07
3210.8	2.19538e-07
3219.35	1.58142e-08
3227.91	7.69519e-08
3236.47	3.45366e-07
3245.03	2.59319e-07
3253.59	1.57851e-07
3262.14	8.30383e-08
3270.7	4.4063e-07
3279.26	2.29503e-07
3287.82	3.89231e-07
3296.37	3.70213e-07
3304.93	6.80153e-07
3313.49	3.34398e-07
3322.05	4.16064e-07
3330.6	6.35779e-07
3339.16	7.49665e-07
3347.72	5.33707e-07
3356.28	4.21923e-07
3364.83	5.95288e-07
3373.39	7.30606e-07
3381.95	5.88164e-07
3390.51	3.90528e-07
3399.06	6.27604e-07
3407.62	4.21188e-07
3416.18	3.18547e-07
3424.74	3.71057e-07
3433.3	3.94615e-07
3441.85	5.3374e-07
3450.41	6.83573e-07
3458.97	6.74289e-07
3467.53	2.08488e-07
3476.08	-7.45782e-09
3484.64	3.79416e-07
3493.2	7.37997e-08
3501.76	1.01119e-07
3510.31	5.18495e-07
3518.87	1.11876e-07
3527.43	4.95994e-07
3535.99	2.61666e-07
3544.54	1.73314e-07
3553.1	5.00296e-07
3561.66	3.48413e-07
3570.22	6.03461e-07
3578.78	4.12084e-07
3587.33	4.99619e-07
3595.89	2.79843e-07
3604.45	5.8858e-07
3613.01	1.84657e-07
3621.56	3.65662e-07
3630.12	3.60596e-07
3638.68	7.8543e-07
3647.24	9.42528e-07
3655.79	1.07258e-06
3664.35	8.24587e-07
3672.91	1.01443e-06
3681.47	5.8181e-07
3690.02	4.16985e-07
3698.58	5.46252e-07
3707.14	5.87627e-07
3715.7	4.44619e-07
3724.25	5.71516e-07
3732.81	4.99654e-07
3741.37	2.50483e-07
3749.93	1.85785e-07
3758.49	4.07395e-07
3767.04	2.27822e-07
3775.6	4.0883e-07
3784.16	5.17382e-07
3792.72	6.72122e-07
3801.27	1.27276e-07
3809.83	7.0589e-07
3818.39	8.21071e-07
3826.95	8.80099e-07
3835.5	1.17133e-06
3844.06	1.1283e-06
3852.62	1.44273e-06
3861.18	1.47436e-06
3869.73	1.30875e-06
3878.29	9.95942e-07
3886.85	8.06798e-07
3895.41	9.15172e-07
3903.96	8.23825e-07
3912.52	1.16876e-06
3921.08	1.47138e-06
3929.64	1.14215e-06
3938.2	1.31025e-06
3946.75	7.28054e-07
3955.31	9.67688e-07
3963.87	8.78871e-07
3972.43	9.32938e-07
