Infrared Spectrum: 1,3-Dimethylbenzene
Formula: 1,3-( C H3)2 C6 H4
CAS: 108-38-3
State: gas
Melting point: -47.87 C
Boiling point: 139.1 C
Class: IUPAC A
Instrument: IFS66V (Bruker)
Instrument parameters: KBr Beam Splitter; MCT Detector; Multipass cell
Sampling: 1 L/min Flow
Resolution: 0.1250
Temperature: 23 C
Pressure: 101.3 Pa
Origin: NIST, Analytical Chemistry Division, 301-975-3108
cm-1	(micromol/mol)-1m-1 (base 10)
575.05	-7.2542e-06
583.608	-2.1209e-06
592.165	-2.86262e-06
600.723	7.06735e-07
609.281	-5.20307e-07
617.838	1.88161e-06
626.396	3.37723e-07
634.954	-2.01415e-06
643.511	-1.33509e-07
652.069	6.34046e-07
660.626	3.17492e-06
669.184	7.29867e-06
677.742	3.63327e-05
686.299	5.85428e-05
694.857	6.58603e-05
703.415	4.40075e-05
711.972	7.79072e-06
720.53	6.09658e-08
729.088	1.19758e-06
737.645	1.42871e-06
746.203	1.75373e-05
754.761	0.000103992
763.318	0.000173904
771.876	0.000166926
780.434	0.000119989
788.991	1.90037e-05
797.549	2.24347e-06
806.106	5.89832e-08
814.664	6.34234e-07
823.222	1.242e-06
831.779	-1.79225e-07
840.337	1.78422e-07
848.895	1.1838e-06
857.452	4.91907e-06
866.01	1.13393e-05
874.568	3.45168e-05
883.125	1.30633e-05
891.683	8.92647e-06
900.241	1.62067e-05
908.798	1.32601e-05
917.356	3.33445e-06
925.914	6.84612e-07
934.471	1.53726e-06
943.029	2.22556e-06
951.586	2.70045e-06
960.144	3.15074e-06
968.702	4.72162e-06
977.259	4.97477e-06
985.817	5.0182e-06
994.375	5.89333e-06
1002.93	9.25249e-06
1011.49	9.14361e-06
1020.05	6.493e-06
1028.61	6.75568e-06
1037.16	1.33121e-05
1045.72	2.11431e-05
1054.28	1.92092e-05
1062.84	1.16214e-05
1071.39	8.12558e-06
1079.95	1.02515e-05
1088.51	2.38199e-05
1097.07	2.0776e-05
1105.62	1.51618e-05
1114.18	5.88874e-06
1122.74	4.64273e-06
1131.3	4.32803e-06
1139.85	2.29917e-06
1148.41	3.25762e-06
1156.97	3.63777e-06
1165.53	9.42045e-06
1174.09	6.54665e-06
1182.64	3.5361e-06
1191.2	2.65497e-06
1199.76	2.25529e-06
1208.32	1.65634e-06
1216.87	9.47235e-07
1225.43	1.27748e-06
1233.99	1.23836e-06
1242.55	2.6019e-06
1251.1	3.00459e-06
1259.66	3.79131e-06
1268.22	2.48344e-06
1276.78	1.70091e-06
1285.33	1.75697e-06
1293.89	1.57609e-06
1302.45	1.53826e-06
1311.01	2.1257e-06
1319.57	2.03102e-06
1328.12	2.65004e-06
1336.68	2.74743e-06
1345.24	3.00157e-06
1353.8	4.29439e-06
1362.35	8.54532e-06
1370.91	1.40258e-05
1379.47	2.6826e-05
1388.03	3.36822e-05
1396.58	1.98763e-05
1405.14	1.60926e-05
1413.7	1.66016e-05
1422.26	1.85726e-05
1430.81	2.16245e-05
1439.37	3.55639e-05
1447.93	4.50713e-05
1456.49	4.30013e-05
1465.05	4.3667e-05
1473.6	5.23921e-05
1482.16	6.77712e-05
1490.72	9.39632e-05
1499.28	0.000107603
1507.83	9.12078e-05
1516.39	5.82148e-05
1524.95	4.7304e-05
1533.51	4.45612e-05
1542.06	3.60377e-05
1550.62	2.07914e-05
1559.18	1.63957e-05
1567.74	1.65115e-05
1576.29	1.664e-05
1584.85	2.26876e-05
1593.41	3.853e-05
1601.97	6.74688e-05
1610.53	0.000137292
1619.08	0.000165003
1627.64	6.69278e-05
1636.2	7.86944e-06
1644.76	5.25568e-06
1653.31	4.05464e-06
1661.87	5.07157e-06
1670.43	9.9761e-07
1678.99	7.53027e-07
1687.54	9.30928e-07
1696.1	3.2021e-07
1704.66	1.08824e-06
1713.22	1.21028e-06
1721.77	1.32426e-06
1730.33	3.20341e-06
1738.89	7.70497e-06
1747.45	6.56087e-06
1756.01	7.20709e-06
1764.56	6.56396e-06
1773.12	7.5146e-06
1781.68	6.73097e-06
1790.24	1.72408e-06
1798.79	1.22582e-06
1807.35	1.65135e-06
1815.91	2.07901e-06
1824.47	1.78796e-06
1833.02	2.82479e-06
1841.58	5.67272e-06
1850.14	1.31702e-05
1858.7	9.81792e-06
1867.25	2.55502e-06
1875.81	1.15006e-06
1884.37	1.04657e-06
1892.93	1.1087e-06
1901.49	1.55142e-06
1910.04	2.52871e-06
1918.6	5.0723e-06
1927.16	1.14706e-05
1935.72	8.36303e-06
1944.27	5.23559e-06
1952.83	3.79579e-07
1961.39	1.61362e-08
1969.95	4.79075e-07
1978.5	-9.84505e-08
1987.06	2.21421e-07
1995.62	4.37492e-08
2004.18	-1.32127e-07
2012.73	-3.64569e-08
2021.29	1.96532e-08
2029.85	-4.63827e-07
2038.41	-2.79378e-07
2046.97	-1.43894e-07
2055.52	-3.59009e-07
2064.08	-1.76602e-07
2072.64	-7.7816e-08
2081.2	-5.13234e-08
2089.75	-4.49292e-07
2098.31	6.30213e-08
2106.87	5.48191e-07
2115.43	6.9036e-07
2123.98	-2.88608e-07
2132.54	-5.97085e-07
2141.1	2.05627e-08
2149.66	2.86161e-07
2158.21	6.31004e-07
2166.77	-1.55952e-07
2175.33	1.80567e-07
2183.89	-1.41662e-07
2192.45	-2.43072e-07
2201	-3.44657e-07
2209.56	5.36455e-07
2218.12	1.0122e-07
2226.68	-1.62035e-08
2235.23	-3.47343e-07
2243.79	-4.60793e-08
2252.35	-6.71495e-08
2260.91	1.66962e-07
2269.46	4.52946e-07
2278.02	9.3156e-07
2286.58	1.47536e-06
2295.14	1.50282e-06
2303.69	6.61528e-07
2312.25	6.61359e-07
2320.81	8.03367e-07
2329.37	1.39652e-06
2337.93	1.78117e-06
2346.48	1.9453e-06
2355.04	6.62856e-07
2363.6	1.52382e-06
2372.16	5.03274e-07
2380.71	7.46995e-07
2389.27	1.58703e-06
2397.83	1.2257e-06
2406.39	8.74175e-07
2414.94	2.12607e-06
2423.5	1.82958e-06
2432.06	1.6005e-06
2440.62	1.13306e-06
2449.17	1.81351e-06
2457.73	1.1049e-06
2466.29	9.66521e-07
2474.85	1.12353e-06
2483.41	1.54227e-06
2491.96	1.01327e-06
2500.52	9.69638e-07
2509.08	8.31474e-07
2517.64	6.00603e-07
2526.19	3.72088e-07
2534.75	1.10168e-06
2543.31	1.25827e-06
2551.87	9.4785e-07
2560.42	3.46167e-07
2568.98	6.58872e-07
2577.54	1.69584e-07
2586.1	5.65604e-07
2594.65	2.64214e-07
2603.21	3.92165e-07
2611.77	7.23844e-07
2620.33	5.82764e-07
2628.89	7.9443e-07
2637.44	1.03087e-06
2646	5.62351e-07
2654.56	5.70674e-07
2663.12	3.22019e-07
2671.67	1.91635e-07
2680.23	2.8276e-07
2688.79	2.73706e-07
2697.35	-1.42826e-08
2705.9	6.01806e-07
2714.46	8.91026e-07
2723.02	1.9791e-06
2731.58	5.79195e-06
2740.13	1.14345e-05
2748.69	1.52228e-05
2757.25	4.44199e-06
2765.81	2.24839e-06
2774.37	1.85128e-06
2782.92	1.31993e-06
2791.48	2.044e-06
2800.04	3.47186e-06
2808.6	4.17574e-06
2817.15	5.45887e-06
2825.71	7.57107e-06
2834.27	1.05515e-05
2842.83	1.46701e-05
2851.38	2.56199e-05
2859.94	5.03946e-05
2868.5	9.40592e-05
2877.06	0.000121512
2885.61	0.000113191
2894.17	9.23609e-05
2902.73	9.74787e-05
2911.29	0.000115403
2919.85	0.000157904
2928.4	0.00022741
2936.96	0.000257897
2945.52	0.000222095
2954.08	0.000135201
2962.63	9.57413e-05
2971.19	6.8654e-05
2979.75	7.4382e-05
2988.31	8.92728e-05
2996.86	0.000111001
3005.42	0.000137498
3013.98	0.000176703
3022.54	0.000218807
3031.09	0.00023999
3039.65	0.000212197
3048.21	0.0001723
3056.77	0.000133702
3065.33	0.000117399
3073.88	8.93763e-05
3082.44	4.29653e-05
3091	3.05543e-05
3099.56	2.40629e-05
3108.11	2.12335e-05
3116.67	1.91443e-05
3125.23	1.42289e-05
3133.79	5.63948e-06
3142.34	2.58136e-06
3150.9	1.06839e-06
3159.46	1.08193e-06
3168.02	5.10272e-07
3176.57	4.0506e-07
3185.13	3.55088e-07
3193.69	1.50841e-07
3202.25	4.83069e-07
3210.81	4.79375e-07
3219.36	-2.30462e-07
3227.92	-1.04823e-06
3236.48	-1.86314e-07
3245.04	-5.67143e-07
3253.59	-1.61008e-07
3262.15	3.60528e-07
3270.71	6.25312e-07
3279.27	-4.05982e-07
3287.82	1.32304e-07
3296.38	7.57364e-07
3304.94	-1.52103e-08
3313.5	-2.315e-07
3322.05	-6.06906e-07
3330.61	-9.80478e-07
3339.17	2.02383e-07
3347.73	1.52034e-07
3356.29	9.18394e-08
3364.84	-7.78047e-07
3373.4	3.775e-07
3381.96	-8.08391e-07
3390.52	-1.3198e-07
3399.07	-3.78339e-08
3407.63	-3.7038e-07
3416.19	-1.79182e-07
3424.75	1.04816e-07
3433.3	1.02525e-06
3441.86	1.8965e-07
3450.42	1.58373e-06
3458.98	1.60292e-06
3467.53	3.22903e-07
3476.09	1.2356e-06
3484.65	-3.78934e-07
3493.21	-7.10399e-07
3501.77	-4.4276e-07
3510.32	-9.97328e-07
3518.88	-5.34735e-08
3527.44	-6.06894e-08
3536	-2.45654e-07
3544.55	-1.86123e-07
3553.11	4.7468e-07
3561.67	4.33281e-09
3570.23	6.33962e-07
3578.78	1.92171e-07
3587.34	3.48881e-07
3595.9	1.14865e-06
3604.46	-2.14337e-07
3613.01	-6.32203e-07
3621.57	-4.36146e-07
3630.13	3.12982e-07
3638.69	-2.36742e-07
3647.25	-6.00982e-07
3655.8	-2.56322e-07
3664.36	-1.03681e-06
3672.92	2.67535e-07
3681.48	2.13814e-07
3690.03	-3.72645e-07
3698.59	5.14289e-08
3707.15	8.96812e-08
3715.71	-3.37753e-07
3724.26	-3.99016e-07
3732.82	-4.92571e-08
3741.38	8.91818e-07
3749.94	7.1164e-07
3758.49	4.18622e-07
3767.05	8.79873e-07
3775.61	1.33396e-06
3784.17	9.07352e-07
3792.73	6.02192e-07
3801.28	-1.01452e-06
3809.84	1.629e-07
3818.4	-1.31184e-07
3826.96	8.62469e-09
3835.51	1.02317e-06
3844.07	7.91477e-07
3852.63	4.25785e-07
3861.19	-2.67781e-07
3869.74	5.05963e-07
3878.3	8.66754e-07
3886.86	1.17779e-06
3895.42	5.74182e-07
3903.97	1.47127e-06
3912.53	1.42641e-06
3921.09	1.42036e-06
3929.65	1.32584e-06
3938.21	8.87489e-07
3946.76	1.83273e-06
3955.32	1.573e-06
3963.88	1.87181e-06
3972.44	1.67045e-06
