Infrared Spectrum: 1,3-Dimethylbenzene
Formula: 1,3-( C H3)2 C6 H4
CAS: 108-38-3
State: gas
Melting point: -47.87 C
Boiling point: 139.1 C
Class: IUPAC A
Instrument: IFS66V (Bruker)
Instrument parameters: KBr Beam Splitter; MCT Detector; Multipass cell
Sampling: 1 L/min Flow
Resolution: 0.1250
Temperature: 23 C
Pressure: 101.3 Pa
Origin: NIST, Analytical Chemistry Division, 301-975-3108
cm-1	(micromol/mol)-1m-1 (base 10)
575.05	-4.7085e-06
583.608	-1.06827e-06
592.165	-1.11531e-06
600.723	6.33287e-08
609.281	-3.10916e-07
617.838	5.79907e-07
626.396	4.41755e-07
634.954	-8.08754e-07
643.511	-8.06709e-08
652.069	5.43173e-07
660.626	3.09857e-06
669.184	7.3767e-06
677.742	3.69228e-05
686.299	5.82705e-05
694.857	6.62606e-05
703.415	4.35646e-05
711.972	7.48569e-06
720.53	4.63779e-07
729.088	1.32035e-06
737.645	1.38115e-06
746.203	1.74709e-05
754.761	0.00010482
763.318	0.000173386
771.876	0.000166327
780.434	0.000120336
788.991	1.92721e-05
797.549	2.36028e-06
806.106	5.92934e-07
814.664	4.66278e-07
823.222	9.95943e-07
831.779	-7.04546e-08
840.337	-2.04685e-07
848.895	1.38793e-06
857.452	4.78319e-06
866.01	1.15363e-05
874.568	3.47383e-05
883.125	1.31695e-05
891.683	9.02985e-06
900.241	1.67072e-05
908.798	1.31687e-05
917.356	3.4856e-06
925.914	8.67386e-07
934.471	1.40736e-06
943.029	2.16924e-06
951.586	2.83171e-06
960.144	3.1707e-06
968.702	4.80173e-06
977.259	4.85218e-06
985.817	4.75832e-06
994.375	5.94619e-06
1002.93	9.30182e-06
1011.49	9.08496e-06
1020.05	6.29313e-06
1028.61	6.86363e-06
1037.16	1.31694e-05
1045.72	2.11887e-05
1054.28	1.90633e-05
1062.84	1.20267e-05
1071.39	8.00513e-06
1079.95	1.02978e-05
1088.51	2.37762e-05
1097.07	2.06408e-05
1105.62	1.51783e-05
1114.18	5.76348e-06
1122.74	4.59089e-06
1131.3	4.31397e-06
1139.85	2.64709e-06
1148.41	3.09426e-06
1156.97	3.64893e-06
1165.53	9.35394e-06
1174.09	6.44311e-06
1182.64	3.59665e-06
1191.2	2.53579e-06
1199.76	1.97502e-06
1208.32	1.53839e-06
1216.87	1.09169e-06
1225.43	1.18767e-06
1233.99	1.31528e-06
1242.55	2.71957e-06
1251.1	2.96161e-06
1259.66	3.66002e-06
1268.22	2.48614e-06
1276.78	1.80417e-06
1285.33	1.57942e-06
1293.89	1.53321e-06
1302.45	1.53721e-06
1311.01	2.14367e-06
1319.57	2.21804e-06
1328.12	2.63867e-06
1336.68	2.7242e-06
1345.24	3.3112e-06
1353.8	5.04019e-06
1362.35	8.6952e-06
1370.91	1.39204e-05
1379.47	2.66802e-05
1388.03	3.3622e-05
1396.58	1.98167e-05
1405.14	1.60858e-05
1413.7	1.67508e-05
1422.26	1.86399e-05
1430.81	2.15908e-05
1439.37	3.55567e-05
1447.93	4.50084e-05
1456.49	4.31506e-05
1465.05	4.37091e-05
1473.6	5.23409e-05
1482.16	6.78229e-05
1490.72	9.42232e-05
1499.28	0.000107766
1507.83	9.12038e-05
1516.39	5.81694e-05
1524.95	4.74207e-05
1533.51	4.46687e-05
1542.06	3.61778e-05
1550.62	2.07827e-05
1559.18	1.65097e-05
1567.74	1.66146e-05
1576.29	1.63616e-05
1584.85	2.25205e-05
1593.41	3.87131e-05
1601.97	6.72426e-05
1610.53	0.000137491
1619.08	0.000164462
1627.64	6.70595e-05
1636.2	7.5452e-06
1644.76	5.10027e-06
1653.31	4.15463e-06
1661.87	5.16433e-06
1670.43	1.29954e-06
1678.99	6.09152e-07
1687.54	7.12675e-07
1696.1	3.3035e-07
1704.66	1.04045e-06
1713.22	1.33926e-06
1721.77	1.38458e-06
1730.33	3.13277e-06
1738.89	7.74295e-06
1747.45	6.55162e-06
1756.01	7.18303e-06
1764.56	6.55161e-06
1773.12	7.52395e-06
1781.68	6.57174e-06
1790.24	1.7843e-06
1798.79	1.08536e-06
1807.35	1.67991e-06
1815.91	2.11569e-06
1824.47	1.83408e-06
1833.02	2.95507e-06
1841.58	5.616e-06
1850.14	1.32225e-05
1858.7	9.73526e-06
1867.25	2.52427e-06
1875.81	1.15378e-06
1884.37	1.02173e-06
1892.93	1.12426e-06
1901.49	1.49334e-06
1910.04	2.59772e-06
1918.6	5.15802e-06
1927.16	1.13359e-05
1935.72	8.38913e-06
1944.27	5.39621e-06
1952.83	5.06465e-07
1961.39	8.86971e-08
1969.95	4.10204e-07
1978.5	5.13507e-08
1987.06	7.36159e-08
1995.62	3.46616e-08
2004.18	-1.3126e-07
2012.73	-5.31069e-08
2021.29	-2.27955e-08
2029.85	-2.42377e-07
2038.41	-2.60614e-07
2046.97	-3.76097e-07
2055.52	-4.02749e-07
2064.08	-2.3611e-07
2072.64	-4.40002e-08
2081.2	3.29053e-08
2089.75	-3.46882e-07
2098.31	1.48141e-07
2106.87	4.734e-07
2115.43	6.94767e-07
2123.98	-3.45265e-07
2132.54	-4.53314e-07
2141.1	-9.8264e-08
2149.66	1.42256e-07
2158.21	7.43715e-07
2166.77	-1.43281e-07
2175.33	1.44882e-09
2183.89	-1.0045e-07
2192.45	-2.77084e-07
2201	-3.16825e-07
2209.56	3.77079e-07
2218.12	2.01376e-07
2226.68	-2.35985e-08
2235.23	-2.36221e-07
2243.79	-1.09016e-07
2252.35	-1.32819e-07
2260.91	3.94421e-07
2269.46	4.41731e-07
2278.02	8.84981e-07
2286.58	1.49391e-06
2295.14	1.54211e-06
2303.69	5.75608e-07
2312.25	6.60999e-07
2320.81	9.16077e-07
2329.37	1.38048e-06
2337.93	1.8298e-06
2346.48	1.76752e-06
2355.04	9.45881e-07
2363.6	1.3009e-06
2372.16	5.89856e-07
2380.71	8.07593e-07
2389.27	1.40809e-06
2397.83	1.24334e-06
2406.39	1.02986e-06
2414.94	1.85205e-06
2423.5	1.72268e-06
2432.06	1.68504e-06
2440.62	1.19741e-06
2449.17	1.57951e-06
2457.73	1.24399e-06
2466.29	1.07854e-06
2474.85	1.16004e-06
2483.41	1.45966e-06
2491.96	1.0805e-06
2500.52	1.07585e-06
2509.08	8.96109e-07
2517.64	4.65845e-07
2526.19	4.42177e-07
2534.75	1.14552e-06
2543.31	1.21035e-06
2551.87	8.32465e-07
2560.42	3.91063e-07
2568.98	4.8015e-07
2577.54	1.81216e-07
2586.1	4.64197e-07
2594.65	2.7566e-07
2603.21	5.20254e-07
2611.77	6.43704e-07
2620.33	6.21161e-07
2628.89	7.52421e-07
2637.44	9.3231e-07
2646	7.19035e-07
2654.56	5.61925e-07
2663.12	3.83448e-07
2671.67	7.38269e-08
2680.23	1.14243e-07
2688.79	1.49443e-07
2697.35	-8.0458e-08
2705.9	4.5182e-07
2714.46	1.12118e-06
2723.02	1.93595e-06
2731.58	5.86645e-06
2740.13	1.13508e-05
2748.69	1.52834e-05
2757.25	4.07417e-06
2765.81	2.15031e-06
2774.37	1.67928e-06
2782.92	1.60508e-06
2791.48	2.1687e-06
2800.04	3.30353e-06
2808.6	4.10795e-06
2817.15	5.6549e-06
2825.71	7.84054e-06
2834.27	1.0537e-05
2842.83	1.47253e-05
2851.38	2.5405e-05
2859.94	5.04555e-05
2868.5	9.42403e-05
2877.06	0.000121454
2885.61	0.000113009
2894.17	9.22303e-05
2902.73	9.74755e-05
2911.29	0.000115186
2919.85	0.000158166
2928.4	0.000227657
2936.96	0.000258014
2945.52	0.00022196
2954.08	0.000135124
2962.63	9.53406e-05
2971.19	6.84526e-05
2979.75	7.46376e-05
2988.31	8.91443e-05
2996.86	0.000110657
3005.42	0.000137619
3013.98	0.000176911
3022.54	0.000218654
3031.09	0.000240072
3039.65	0.000212107
3048.21	0.000172393
3056.77	0.000133866
3065.33	0.000117402
3073.88	8.91963e-05
3082.44	4.31458e-05
3091	3.02275e-05
3099.56	2.40056e-05
3108.11	2.13283e-05
3116.67	1.91256e-05
3125.23	1.40108e-05
3133.79	5.91478e-06
3142.34	2.374e-06
3150.9	1.09626e-06
3159.46	8.27168e-07
3168.02	6.04507e-07
3176.57	4.3663e-07
3185.13	3.9461e-07
3193.69	2.2899e-07
3202.25	5.27359e-07
3210.81	5.4902e-07
3219.36	-1.88239e-07
3227.92	-7.49536e-07
3236.48	-5.04199e-07
3245.04	-6.09979e-07
3253.59	1.52867e-08
3262.15	5.56215e-07
3270.71	6.98568e-07
3279.27	-9.13746e-08
3287.82	3.76911e-08
3296.38	4.97949e-07
3304.94	2.09967e-07
3313.5	-9.55592e-08
3322.05	-4.39447e-07
3330.61	-6.08121e-07
3339.17	4.62576e-08
3347.73	5.88686e-08
3356.29	-8.49555e-08
3364.84	-3.36308e-07
3373.4	2.39834e-07
3381.96	-3.20163e-07
3390.52	3.75116e-07
3399.07	-1.1244e-07
3407.63	-1.76705e-08
3416.19	-1.3132e-07
3424.75	1.48832e-07
3433.3	7.66156e-07
3441.86	3.15314e-07
3450.42	1.218e-06
3458.98	1.17058e-06
3467.53	5.50432e-07
3476.09	3.76406e-07
3484.65	-3.21683e-07
3493.21	-3.51239e-07
3501.77	-5.20316e-07
3510.32	-8.24837e-07
3518.88	-2.22245e-07
3527.44	-3.57431e-07
3536	3.73555e-08
3544.55	6.09022e-08
3553.11	4.99501e-07
3561.67	-5.33898e-08
3570.23	4.47876e-07
3578.78	1.82056e-07
3587.34	1.53822e-08
3595.9	5.65591e-07
3604.46	-5.11617e-07
3613.01	-5.49335e-07
3621.57	-3.55986e-07
3630.13	9.67497e-08
3638.69	-3.6257e-07
3647.25	-5.21062e-07
3655.8	-4.08678e-07
3664.36	-7.40061e-07
3672.92	2.79082e-07
3681.48	-1.25419e-07
3690.03	-4.2917e-07
3698.59	-2.88714e-07
3707.15	-1.37224e-08
3715.71	-2.63737e-07
3724.26	-5.13432e-07
3732.82	1.49478e-07
3741.38	6.17013e-07
3749.94	4.89481e-07
3758.49	4.37245e-07
3767.05	8.28851e-07
3775.61	9.52012e-07
3784.17	9.66386e-07
3792.73	4.50399e-07
3801.28	-9.61011e-07
3809.84	2.99184e-07
3818.4	4.53754e-08
3826.96	2.18965e-07
3835.51	8.87888e-07
3844.07	7.38427e-07
3852.63	1.35217e-07
3861.19	4.26433e-08
3869.74	2.17796e-07
3878.3	5.64378e-07
3886.86	1.22129e-06
3895.42	7.81671e-07
3903.97	1.35553e-06
3912.53	1.6025e-06
3921.09	1.62381e-06
3929.65	1.36354e-06
3938.21	8.71853e-07
3946.76	1.60667e-06
3955.32	1.36446e-06
3963.88	1.81435e-06
3972.44	1.56484e-06
