Infrared Spectrum: 1,3-Dimethylbenzene
Formula: 1,3-( C H3)2 C6 H4
CAS: 108-38-3
State: gas
Melting point: -47.87 C
Boiling point: 139.1 C
Class: IUPAC A
Instrument: IFS66V (Bruker)
Instrument parameters: KBr Beam Splitter; MCT Detector; Multipass cell
Sampling: 1 L/min Flow
Resolution: 0.2410
Temperature: 23 C
Pressure: 101.3 Pa
Origin: NIST, Analytical Chemistry Division, 301-975-3108
cm-1	(micromol/mol)-1m-1 (base 10)
575.05	-2.88979e-06
583.608	-1.47694e-07
592.165	-3.12993e-07
600.723	-3.28018e-07
609.281	-2.54713e-07
617.838	1.98272e-07
626.396	-6.61245e-08
634.954	-4.04279e-07
643.511	-9.11836e-08
652.069	3.66642e-07
660.626	2.45789e-06
669.184	7.78719e-06
677.742	3.71679e-05
686.299	5.84643e-05
694.857	6.67009e-05
703.415	4.33683e-05
711.972	7.44946e-06
720.53	1.14905e-06
729.088	1.63223e-06
737.645	1.66322e-06
746.203	1.749e-05
754.761	0.000105305
763.318	0.000173036
771.876	0.00016603
780.434	0.000120461
788.991	1.95513e-05
797.549	2.436e-06
806.106	7.31311e-07
814.664	2.22641e-07
823.222	8.69381e-07
831.779	2.21817e-07
840.337	-1.57026e-07
848.895	1.25551e-06
857.452	4.36486e-06
866.01	1.16117e-05
874.568	3.48054e-05
883.125	1.30091e-05
891.683	9.05904e-06
900.241	1.68758e-05
908.798	1.32623e-05
917.356	3.73214e-06
925.914	9.65822e-07
934.471	1.51819e-06
943.029	2.14736e-06
951.586	2.78259e-06
960.144	3.14045e-06
968.702	4.72537e-06
977.259	4.67285e-06
985.817	4.60216e-06
994.375	6.09442e-06
1002.93	9.23228e-06
1011.49	9.05002e-06
1020.05	6.42702e-06
1028.61	6.97487e-06
1037.16	1.30508e-05
1045.72	2.11736e-05
1054.28	1.90892e-05
1062.84	1.2209e-05
1071.39	8.08376e-06
1079.95	1.01526e-05
1088.51	2.36673e-05
1097.07	2.04145e-05
1105.62	1.52394e-05
1114.18	5.73175e-06
1122.74	4.54033e-06
1131.3	4.20012e-06
1139.85	2.78013e-06
1148.41	3.02309e-06
1156.97	3.86298e-06
1165.53	9.3424e-06
1174.09	6.40653e-06
1182.64	3.51787e-06
1191.2	2.41006e-06
1199.76	1.92044e-06
1208.32	1.49434e-06
1216.87	1.1834e-06
1225.43	1.14615e-06
1233.99	1.39525e-06
1242.55	2.75206e-06
1251.1	2.93e-06
1259.66	3.54055e-06
1268.22	2.54931e-06
1276.78	1.9119e-06
1285.33	1.66156e-06
1293.89	1.45617e-06
1302.45	1.72241e-06
1311.01	2.21436e-06
1319.57	2.2032e-06
1328.12	2.57835e-06
1336.68	2.76879e-06
1345.24	3.59576e-06
1353.8	5.56975e-06
1362.35	8.55041e-06
1370.91	1.37359e-05
1379.47	2.6675e-05
1388.03	3.37434e-05
1396.58	1.97233e-05
1405.14	1.60765e-05
1413.7	1.6889e-05
1422.26	1.86215e-05
1430.81	2.15837e-05
1439.37	3.56894e-05
1447.93	4.50006e-05
1456.49	4.34271e-05
1465.05	4.35928e-05
1473.6	5.23632e-05
1482.16	6.79209e-05
1490.72	9.44296e-05
1499.28	0.000107738
1507.83	9.11295e-05
1516.39	5.81685e-05
1524.95	4.75221e-05
1533.51	4.46574e-05
1542.06	3.62044e-05
1550.62	2.07817e-05
1559.18	1.66222e-05
1567.74	1.66505e-05
1576.29	1.63339e-05
1584.85	2.24591e-05
1593.41	3.87571e-05
1601.97	6.71819e-05
1610.53	0.000137622
1619.08	0.00016281
1627.64	6.71114e-05
1636.2	7.48713e-06
1644.76	5.06005e-06
1653.31	4.5409e-06
1661.87	5.23217e-06
1670.43	1.40424e-06
1678.99	5.75786e-07
1687.54	5.72164e-07
1696.1	5.56399e-08
1704.66	1.00755e-06
1713.22	1.39368e-06
1721.77	1.29568e-06
1730.33	3.09761e-06
1738.89	7.72313e-06
1747.45	6.59394e-06
1756.01	7.1669e-06
1764.56	6.5012e-06
1773.12	7.4667e-06
1781.68	6.64465e-06
1790.24	1.84111e-06
1798.79	1.00192e-06
1807.35	1.715e-06
1815.91	2.09136e-06
1824.47	1.86565e-06
1833.02	3.10671e-06
1841.58	5.57333e-06
1850.14	1.32613e-05
1858.7	9.70887e-06
1867.25	2.48072e-06
1875.81	1.17037e-06
1884.37	1.06393e-06
1892.93	1.13491e-06
1901.49	1.50059e-06
1910.04	2.6919e-06
1918.6	5.14539e-06
1927.16	1.12672e-05
1935.72	8.47722e-06
1944.27	5.48071e-06
1952.83	6.70516e-07
1961.39	6.31104e-08
1969.95	2.90485e-07
1978.5	1.47905e-07
1987.06	-1.45409e-08
1995.62	-1.77578e-08
2004.18	-7.94858e-08
2012.73	-6.69703e-08
2021.29	-6.83464e-08
2029.85	-1.99435e-07
2038.41	-2.52579e-07
2046.97	-3.96392e-07
2055.52	-4.84653e-07
2064.08	-3.25053e-07
2072.64	2.61397e-08
2081.2	1.02121e-07
2089.75	-2.532e-07
2098.31	1.627e-07
2106.87	4.06166e-07
2115.43	7.03222e-07
2123.98	-2.88172e-07
2132.54	-4.81055e-07
2141.1	-1.45436e-07
2149.66	7.67464e-08
2158.21	6.10182e-07
2166.77	-1.28477e-07
2175.33	-1.09187e-07
2183.89	-1.84236e-07
2192.45	-2.28838e-07
2201	-2.78818e-07
2209.56	1.64327e-07
2218.12	1.9562e-07
2226.68	3.79894e-09
2235.23	-1.72633e-07
2243.79	-9.24169e-08
2252.35	-5.25431e-08
2260.91	4.46942e-07
2269.46	4.57538e-07
2278.02	8.28972e-07
2286.58	1.47276e-06
2295.14	1.5202e-06
2303.69	5.47491e-07
2312.25	5.37383e-07
2320.81	1.00951e-06
2329.37	1.26179e-06
2337.93	1.97544e-06
2346.48	1.64012e-06
2355.04	1.1054e-06
2363.6	1.04271e-06
2372.16	7.02225e-07
2380.71	7.84858e-07
2389.27	1.28942e-06
2397.83	1.2344e-06
2406.39	1.1463e-06
2414.94	1.79184e-06
2423.5	1.80145e-06
2432.06	1.73817e-06
2440.62	1.31206e-06
2449.17	1.41089e-06
2457.73	1.33243e-06
2466.29	1.21551e-06
2474.85	1.1853e-06
2483.41	1.36966e-06
2491.96	1.11056e-06
2500.52	1.13038e-06
2509.08	8.59554e-07
2517.64	4.19795e-07
2526.19	4.48098e-07
2534.75	1.09941e-06
2543.31	1.20371e-06
2551.87	7.44155e-07
2560.42	3.57925e-07
2568.98	2.73627e-07
2577.54	1.74918e-07
2586.1	3.41564e-07
2594.65	2.21379e-07
2603.21	5.57972e-07
2611.77	6.39377e-07
2620.33	6.12136e-07
2628.89	7.77777e-07
2637.44	9.93849e-07
2646	7.29056e-07
2654.56	5.25274e-07
2663.12	3.45468e-07
2671.67	4.50489e-08
2680.23	3.12746e-08
2688.79	1.35092e-07
2697.35	-1.38483e-07
2705.9	3.37966e-07
2714.46	1.15852e-06
2723.02	1.82811e-06
2731.58	5.89692e-06
2740.13	1.13848e-05
2748.69	1.52014e-05
2757.25	3.99219e-06
2765.81	2.09703e-06
2774.37	1.63865e-06
2782.92	1.83052e-06
2791.48	2.26503e-06
2800.04	3.13637e-06
2808.6	4.1202e-06
2817.15	5.69e-06
2825.71	7.86674e-06
2834.27	1.05374e-05
2842.83	1.48605e-05
2851.38	2.54477e-05
2859.94	5.05197e-05
2868.5	9.45677e-05
2877.06	0.000121355
2885.61	0.000112885
2894.17	9.21397e-05
2902.73	9.75498e-05
2911.29	0.000115126
2919.85	0.000158363
2928.4	0.000227332
2936.96	0.000257952
2945.52	0.000221931
2954.08	0.000134876
2962.63	9.5126e-05
2971.19	6.85285e-05
2979.75	7.48276e-05
2988.31	8.92035e-05
2996.86	0.000110326
3005.42	0.000137741
3013.98	0.000176793
3022.54	0.000218546
3031.09	0.000240031
3039.65	0.000211989
3048.21	0.000172266
3056.77	0.000133758
3065.33	0.000117536
3073.88	8.90883e-05
3082.44	4.32071e-05
3091	3.01573e-05
3099.56	2.39712e-05
3108.11	2.12831e-05
3116.67	1.92786e-05
3125.23	1.40358e-05
3133.79	5.83647e-06
3142.34	2.34744e-06
3150.9	1.31457e-06
3159.46	8.28399e-07
3168.02	7.35444e-07
3176.57	4.58718e-07
3185.13	5.61684e-07
3193.69	3.17291e-07
3202.25	3.73266e-07
3210.81	4.90809e-07
3219.36	-1.06589e-07
3227.92	-4.63118e-07
3236.48	-6.50746e-07
3245.04	-5.79468e-07
3253.59	7.39424e-08
3262.15	4.56798e-07
3270.71	5.59922e-07
3279.27	1.09776e-07
3287.82	2.97421e-08
3296.38	1.65529e-07
3304.94	1.60632e-07
3313.5	-7.34231e-08
3322.05	-4.28533e-08
3330.61	-1.51096e-07
3339.17	-8.70164e-08
3347.73	-3.2376e-08
3356.29	-1.67855e-08
3364.84	-2.79956e-07
3373.4	1.40697e-07
3381.96	1.1755e-07
3390.52	4.27491e-07
3399.07	5.9035e-08
3407.63	2.74468e-07
3416.19	1.63922e-07
3424.75	2.46372e-07
3433.3	4.05451e-07
3441.86	3.29758e-07
3450.42	8.10124e-07
3458.98	8.08532e-07
3467.53	6.12063e-07
3476.09	4.39948e-08
3484.65	-2.14666e-07
3493.21	-2.27296e-07
3501.77	-3.30644e-07
3510.32	-5.7285e-07
3518.88	-1.3652e-07
3527.44	-4.03959e-07
3536	-7.5103e-08
3544.55	3.16614e-07
3553.11	4.92394e-07
3561.67	1.68808e-07
3570.23	2.41953e-07
3578.78	1.45187e-07
3587.34	-6.30349e-08
3595.9	1.15739e-07
3604.46	-6.03162e-07
3613.01	-3.78913e-07
3621.57	-2.71208e-07
3630.13	-1.02993e-07
3638.69	-5.0603e-07
3647.25	-4.79065e-07
3655.8	-3.18548e-07
3664.36	-4.88322e-07
3672.92	8.17677e-08
3681.48	-2.57808e-07
3690.03	-3.63751e-07
3698.59	-3.31656e-07
3707.15	1.31148e-09
3715.71	-1.68126e-07
3724.26	-4.12898e-07
3732.82	3.66408e-07
3741.38	5.52122e-07
3749.94	4.17135e-07
3758.49	4.33376e-07
3767.05	7.37771e-07
3775.61	9.11159e-07
3784.17	7.9988e-07
3792.73	4.55162e-07
3801.28	-8.71141e-07
3809.84	3.50781e-07
3818.4	2.04547e-07
3826.96	1.58927e-07
3835.51	6.80105e-07
3844.07	5.90163e-07
3852.63	1.64088e-07
3861.19	2.87948e-07
3869.74	2.27595e-07
3878.3	5.40172e-07
3886.86	1.08621e-06
3895.42	1.019e-06
3903.97	1.29041e-06
3912.53	1.61535e-06
3921.09	1.70955e-06
3929.65	1.64666e-06
3938.21	1.20426e-06
3946.76	1.40341e-06
3955.32	1.30777e-06
3963.88	1.71315e-06
3972.44	1.47329e-06
