Infrared Spectrum: Toluene
Formula: C H3 C6 H5
CAS: 108-88-3
State: gas
Melting point: -95 C
Boiling point: 110.6 C
Class: IUPAC A
Instrument: IFS66V (Bruker)
Instrument parameters: KBr Beam splitter; MCT Detector; Multipass cell
Sampling: 1 L/min Flow
Resolution: 0.9640
Temperature: 23 C
Pressure: 101.3 kPa
Origin: NIST, Anayltical Chemistry Division, 301-975-3108
cm-1	(micromol/mol)-1m-1 (base 10)
575.169	2.62012e-07
583.847	-3.6916e-07
592.525	-1.51938e-07
601.203	-1.07635e-07
609.882	3.72005e-07
618.56	3.5662e-07
627.238	8.76711e-07
635.916	7.13941e-07
644.594	6.30475e-07
653.272	7.76218e-07
661.951	3.44222e-06
670.629	1.63102e-05
679.307	5.8096e-05
687.985	7.3552e-05
696.663	7.10132e-05
705.341	0.000109293
714.019	0.000165263
722.698	0.000196554
731.376	0.000269801
740.054	0.000175888
748.732	7.09503e-05
757.41	9.60288e-06
766.088	1.87824e-06
774.767	2.16578e-06
783.445	1.5226e-06
792.123	1.93664e-06
800.801	5.92814e-07
809.479	4.09151e-07
818.157	4.16848e-07
826.835	5.64185e-07
835.514	4.97566e-07
844.192	3.90813e-07
852.87	7.73924e-07
861.548	1.10515e-06
870.226	1.40403e-06
878.904	2.29677e-06
887.583	3.12843e-06
896.261	3.6671e-06
904.939	3.26704e-06
913.617	2.84414e-06
922.295	3.33086e-06
930.973	4.10132e-06
939.651	2.94127e-06
948.33	1.88178e-06
957.008	2.0786e-06
965.686	2.73708e-06
974.364	3.0628e-06
983.042	2.59692e-06
991.72	2.07587e-06
1000.4	1.78398e-06
1009.08	2.10305e-06
1017.75	7.81714e-06
1026.43	2.39773e-05
1035.11	1.9002e-05
1043.79	2.31938e-05
1052.47	1.2485e-05
1061.15	1.32975e-05
1069.82	1.89186e-05
1078.5	2.49717e-05
1087.18	2.45922e-05
1095.86	1.66825e-05
1104.54	7.7262e-06
1113.21	7.70067e-06
1121.89	3.38698e-06
1130.57	2.00733e-06
1139.25	1.58997e-06
1147.93	1.7237e-06
1156.61	2.11168e-06
1165.28	2.52286e-06
1173.96	2.83534e-06
1182.64	2.36849e-06
1191.32	2.16406e-06
1200	3.71701e-06
1208.67	4.22617e-06
1217.35	5.13403e-06
1226.03	2.28773e-06
1234.71	2.8902e-06
1243.39	2.76319e-06
1252.07	2.435e-06
1260.74	1.19406e-06
1269.42	7.81864e-07
1278.1	8.72059e-07
1286.78	1.2037e-06
1295.46	1.57931e-06
1304.13	2.75809e-06
1312.81	2.48118e-06
1321.49	2.37443e-06
1330.17	1.83144e-06
1338.85	1.98376e-06
1347.52	2.64066e-06
1356.2	4.23379e-06
1364.88	5.51466e-06
1373.56	1.02951e-05
1382.24	1.51488e-05
1390.92	1.79126e-05
1399.59	8.43648e-06
1408.27	8.18717e-06
1416.95	1.10347e-05
1425.63	1.04576e-05
1434.31	1.36426e-05
1442.98	2.28267e-05
1451.66	3.33365e-05
1460.34	3.54841e-05
1469.02	3.29303e-05
1477.7	3.04784e-05
1486.38	5.83345e-05
1495.05	9.14377e-05
1503.73	9.10826e-05
1512.41	5.20565e-05
1521.09	2.00091e-05
1529.77	1.99143e-05
1538.44	1.54115e-05
1547.12	1.08855e-05
1555.8	1.06089e-05
1564.48	1.02101e-05
1573.16	1.20304e-05
1581.83	9.28199e-06
1590.51	1.16402e-05
1599.19	3.53777e-05
1607.87	4.69067e-05
1616.55	4.66858e-05
1625.23	2.30043e-05
1633.9	5.91008e-06
1642.58	1.88322e-06
1651.26	1.82318e-06
1659.94	1.84546e-06
1668.62	1.85979e-06
1677.29	1.7674e-06
1685.97	1.77811e-06
1694.65	1.62239e-06
1703.33	1.60128e-06
1712.01	2.06861e-06
1720.69	3.89238e-06
1729.36	4.9296e-06
1738.04	5.68476e-06
1746.72	2.32329e-06
1755.4	1.23059e-06
1764.08	1.90417e-06
1772.75	3.11949e-06
1781.43	5.02769e-06
1790.11	1.04004e-05
1798.79	9.84451e-06
1807.47	1.23395e-05
1816.15	3.98615e-06
1824.82	3.38507e-06
1833.5	2.99178e-06
1842.18	5.64487e-06
1850.86	1.04353e-05
1859.54	1.32945e-05
1868.21	1.06689e-05
1876.89	7.41229e-06
1885.57	2.62253e-06
1894.25	1.36668e-06
1902.93	1.28633e-06
1911.6	1.38312e-06
1920.28	2.82106e-06
1928.96	7.80266e-06
1937.64	1.16786e-05
1946.32	1.64832e-05
1955	1.04125e-05
1963.67	6.46141e-06
1972.35	1.71908e-06
1981.03	9.8184e-07
1989.71	1.2791e-06
1998.39	1.24904e-06
2007.06	9.62597e-07
2015.74	6.95221e-07
2024.42	5.855e-07
2033.1	2.95676e-07
2041.78	1.20764e-07
2050.46	9.02395e-08
2059.13	1.51575e-07
2067.81	2.34862e-07
2076.49	2.11832e-07
2085.17	1.75214e-07
2093.85	1.68721e-07
2102.52	2.07632e-07
2111.2	2.54885e-07
2119.88	2.57701e-07
2128.56	3.25236e-07
2137.24	2.62517e-07
2145.91	2.383e-07
2154.59	5.05218e-07
2163.27	1.01663e-06
2171.95	1.19339e-06
2180.63	9.74336e-07
2189.31	6.40464e-07
2197.98	5.77925e-07
2206.66	4.80612e-07
2215.34	5.33345e-07
2224.02	4.61356e-07
2232.7	4.68928e-07
2241.37	5.91477e-07
2250.05	9.05355e-07
2258.73	1.00461e-06
2267.41	1.19173e-06
2276.09	1.38737e-06
2284.77	1.37939e-06
2293.44	1.27799e-06
2302.12	1.49361e-06
2310.8	1.63187e-06
2319.48	2.15858e-06
2328.16	1.90921e-06
2336.83	1.74546e-06
2345.51	2.24704e-06
2354.19	2.15533e-06
2362.87	1.72425e-06
2371.55	1.70706e-06
2380.23	1.14046e-06
2388.9	1.16539e-06
2397.58	1.28315e-06
2406.26	1.58325e-06
2414.94	1.78584e-06
2423.62	1.96695e-06
2432.29	1.29116e-06
2440.97	9.84261e-07
2449.65	8.53161e-07
2458.33	9.47929e-07
2467.01	1.03164e-06
2475.68	9.08406e-07
2484.36	8.20508e-07
2493.04	8.47549e-07
2501.72	9.55664e-07
2510.4	9.56249e-07
2519.08	7.97774e-07
2527.75	7.25261e-07
2536.43	7.57969e-07
2545.11	7.39584e-07
2553.79	7.08322e-07
2562.47	6.55841e-07
2571.14	8.24656e-07
2579.82	1.42647e-06
2588.5	2.26363e-06
2597.18	2.70241e-06
2605.86	1.80617e-06
2614.54	1.33638e-06
2623.21	1.37809e-06
2631.89	1.20517e-06
2640.57	1.11317e-06
2649.25	8.85795e-07
2657.93	6.96393e-07
2666.6	6.19965e-07
2675.28	5.19656e-07
2683.96	5.73641e-07
2692.64	5.73574e-07
2701.32	5.24574e-07
2709.99	6.16615e-07
2718.67	8.27689e-07
2727.35	1.57683e-06
2736.03	4.93153e-06
2744.71	8.70443e-06
2753.39	6.53132e-06
2762.06	1.99427e-06
2770.74	1.36125e-06
2779.42	1.5609e-06
2788.1	1.88483e-06
2796.78	2.0476e-06
2805.45	2.28699e-06
2814.13	3.12666e-06
2822.81	4.1325e-06
2831.49	5.05179e-06
2840.17	6.48517e-06
2848.85	9.81625e-06
2857.52	1.83228e-05
2866.2	3.47614e-05
2874.88	5.55276e-05
2883.56	6.68558e-05
2892.24	6.02721e-05
2900.91	4.40369e-05
2909.59	4.1727e-05
2918.27	6.28826e-05
2926.95	0.000105214
2935.63	0.000118591
2944.31	0.000111918
2952.98	6.91446e-05
2961.66	5.24586e-05
2970.34	3.64864e-05
2979.02	3.87594e-05
2987.7	4.25198e-05
2996.37	4.9483e-05
3005.05	6.80862e-05
3013.73	7.36931e-05
3022.41	0.000125964
3031.09	0.000218371
3039.76	0.000221968
3048.44	0.000192132
3057.12	0.000107433
3065.8	0.000118982
3074.48	0.000133386
3083.16	0.000122974
3091.83	9.013e-05
3100.51	7.50248e-05
3109.19	4.38012e-05
3117.87	2.75902e-05
3126.55	1.60298e-05
3135.22	6.74987e-06
3143.9	1.95461e-06
3152.58	1.30923e-06
3161.26	1.37891e-06
3169.94	1.59795e-06
3178.62	1.46651e-06
3187.29	1.18913e-06
3195.97	2.47474e-07
3204.65	1.68456e-07
3213.33	1.0139e-07
3222.01	1.92378e-07
3230.68	3.02338e-08
3239.36	6.7287e-08
3248.04	2.69255e-07
3256.72	3.18886e-07
3265.4	4.14375e-07
3274.07	5.42812e-07
3282.75	4.72062e-07
3291.43	5.11205e-07
3300.11	3.8661e-07
3308.79	3.81395e-07
3317.47	4.08078e-07
3326.14	5.28853e-07
3334.82	6.7965e-07
3343.5	7.18155e-07
3352.18	5.70188e-07
3360.86	5.9891e-07
3369.53	5.89823e-07
3378.21	7.0212e-07
3386.89	6.3639e-07
3395.57	5.3232e-07
3404.25	5.14123e-07
3412.93	4.06019e-07
3421.6	3.95002e-07
3430.28	4.73418e-07
3438.96	6.12424e-07
3447.64	6.31074e-07
3456.32	4.46973e-07
3464.99	4.29636e-07
3473.67	1.9617e-07
3482.35	1.54931e-07
3491.03	2.24685e-07
3499.71	2.05948e-07
3508.39	1.6724e-07
3517.06	2.71344e-07
3525.74	5.0571e-07
3534.42	3.3188e-07
3543.1	3.12975e-07
3551.78	3.4941e-07
3560.45	4.30195e-07
3569.13	3.89986e-07
3577.81	1.99749e-07
3586.49	2.20304e-07
3595.17	3.32868e-07
3603.84	4.22431e-07
3612.52	1.25214e-07
3621.2	3.92651e-07
3629.88	2.87868e-07
3638.56	6.98638e-07
3647.24	8.12467e-07
3655.91	1.03648e-06
3664.59	1.17363e-06
3673.27	9.06577e-07
3681.95	7.00941e-07
3690.63	5.24649e-07
3699.3	5.91984e-07
3707.98	4.39965e-07
3716.66	6.33856e-07
3725.34	5.25116e-07
3734.02	4.7943e-07
3742.7	3.27924e-07
3751.37	2.14343e-07
3760.05	2.05661e-07
3768.73	2.7362e-07
3777.41	3.64102e-07
3786.09	5.11214e-07
3794.76	7.54292e-07
3803.44	7.31141e-07
3812.12	7.40824e-07
3820.8	6.11559e-07
3829.48	9.58625e-07
3838.16	7.06801e-07
3846.83	1.34761e-06
3855.51	1.56577e-06
3864.19	1.3898e-06
3872.87	1.20126e-06
3881.55	9.56506e-07
3890.22	8.67031e-07
3898.9	7.5533e-07
3907.58	1.0103e-06
3916.26	1.09884e-06
3924.94	1.15922e-06
3933.61	1.03001e-06
3942.29	8.98716e-07
3950.97	8.73556e-07
3959.65	8.67779e-07
3968.33	9.26696e-07
