Infrared Spectrum: 1,3-Dimethylbenzene
Formula: 1,3-( C H3)2 C6 H4
CAS: 108-38-3
State: gas
Melting point: -47.87 C
Boiling point: 139.1 C
Class: IUPAC A
Instrument: IFS66V (Bruker)
Instrument parameters: KBr Beam Splitter; MCT Detector; Multipass cell
Sampling: 1 L/min Flow
Resolution: 1.9290
Temperature: 23 C
Pressure: 101.3 Pa
Origin: NIST, Analytical Chemistry Division, 301-975-3108
cm-1	(micromol/mol)-1m-1 (base 10)
575.652	-2.75318e-07
584.33	-4.08272e-07
593.008	-4.34181e-07
601.687	-5.75061e-07
610.365	-5.26015e-07
619.043	-3.42366e-07
627.721	-1.01689e-07
636.399	-3.35052e-07
645.077	7.85845e-08
653.756	1.16706e-06
662.434	2.9652e-06
671.112	1.23035e-05
679.79	4.38489e-05
688.468	8.96196e-05
697.147	6.21142e-05
705.825	3.06148e-05
714.503	5.41126e-06
723.181	2.09758e-06
731.859	2.30537e-06
740.537	5.9968e-06
749.216	4.02077e-05
757.894	0.000137855
766.572	0.000350795
775.25	0.000165824
783.928	6.94294e-05
792.607	9.16091e-06
801.285	2.43023e-06
809.963	1.36082e-06
818.641	8.55658e-07
827.319	7.38107e-07
835.997	6.59806e-07
844.676	8.40018e-07
853.354	1.99442e-06
862.032	8.51326e-06
870.71	1.48657e-05
879.388	1.38866e-05
888.066	1.0924e-05
896.745	1.33749e-05
905.423	1.7156e-05
914.101	1.05937e-05
922.779	1.45598e-06
931.457	1.5545e-06
940.136	2.1918e-06
948.814	2.66809e-06
957.492	3.20699e-06
966.17	4.08488e-06
974.848	4.92641e-06
983.526	4.45743e-06
992.205	5.46993e-06
1000.88	8.48431e-06
1009.56	9.78002e-06
1018.24	7.22748e-06
1026.92	6.54994e-06
1035.6	1.19576e-05
1044.27	2.32808e-05
1052.95	1.90436e-05
1061.63	1.3442e-05
1070.31	8.75126e-06
1078.99	9.62928e-06
1087.66	2.15336e-05
1096.34	2.00359e-05
1105.02	1.64477e-05
1113.7	6.16084e-06
1122.38	4.73978e-06
1131.06	4.30345e-06
1139.73	2.85378e-06
1148.41	2.94167e-06
1157.09	4.3517e-06
1165.77	8.95907e-06
1174.45	6.86874e-06
1183.12	3.39673e-06
1191.8	2.30134e-06
1200.48	1.98708e-06
1209.16	1.39593e-06
1217.84	1.18586e-06
1226.52	1.18151e-06
1235.19	1.65439e-06
1243.87	3.05549e-06
1252.55	3.20365e-06
1261.23	3.45355e-06
1269.91	2.82475e-06
1278.58	1.99512e-06
1287.26	1.63243e-06
1295.94	1.91957e-06
1304.62	2.01402e-06
1313.3	2.23275e-06
1321.98	2.18966e-06
1330.65	2.48143e-06
1339.33	2.85791e-06
1348.01	4.12352e-06
1356.69	6.43943e-06
1365.37	9.92051e-06
1374.04	1.90444e-05
1382.72	2.87244e-05
1391.4	2.76703e-05
1400.08	1.8976e-05
1408.76	1.62157e-05
1417.44	1.75939e-05
1426.11	1.91536e-05
1434.79	2.80525e-05
1443.47	3.97816e-05
1452.15	4.63064e-05
1460.83	4.21384e-05
1469.5	4.95543e-05
1478.18	6.02724e-05
1486.86	8.56434e-05
1495.54	0.000105854
1504.22	0.000100747
1512.9	6.65536e-05
1521.57	4.98269e-05
1530.25	4.69249e-05
1538.93	3.99157e-05
1547.61	2.50267e-05
1556.29	1.78258e-05
1564.96	1.6364e-05
1573.64	1.79268e-05
1582.32	2.02389e-05
1591	3.38109e-05
1599.68	5.26522e-05
1608.36	0.000108395
1617.03	0.000137972
1625.71	9.76925e-05
1634.39	1.1209e-05
1643.07	5.61379e-06
1651.75	6.46929e-06
1660.42	5.30537e-06
1669.1	1.83737e-06
1677.78	9.05948e-07
1686.46	6.79218e-07
1695.14	7.29672e-07
1703.82	1.27162e-06
1712.49	1.44205e-06
1721.17	1.32844e-06
1729.85	3.11903e-06
1738.53	7.34457e-06
1747.21	6.71296e-06
1755.88	7.106e-06
1764.56	6.51952e-06
1773.24	7.23319e-06
1781.92	6.32139e-06
1790.6	1.80316e-06
1799.28	1.02426e-06
1807.95	1.8312e-06
1816.63	2.20176e-06
1825.31	1.92914e-06
1833.99	3.55053e-06
1842.67	6.43729e-06
1851.34	1.19364e-05
1860.02	1.02536e-05
1868.7	1.86363e-06
1877.38	1.20958e-06
1886.06	1.07176e-06
1894.74	1.25062e-06
1903.41	1.80345e-06
1912.09	3.27967e-06
1920.77	6.37394e-06
1929.45	1.16754e-05
1938.13	1.10758e-05
1946.8	3.37722e-06
1955.48	4.72747e-07
1964.16	1.68827e-07
1972.84	1.53958e-07
1981.52	5.2101e-08
1990.2	1.43181e-08
1998.87	3.63923e-08
2007.55	-9.14829e-08
2016.23	-4.81338e-08
2024.91	-1.97705e-08
2033.59	-1.55927e-07
2042.26	-3.45693e-07
2050.94	-4.40844e-07
2059.62	-3.8334e-07
2068.3	-1.24835e-07
2076.98	-6.00964e-08
2085.66	2.22934e-08
2094.33	-3.60849e-08
2103.01	3.95256e-07
2111.69	6.47521e-07
2120.37	-1.57994e-07
2129.05	-3.10555e-07
2137.72	-2.01098e-07
2146.4	6.90039e-08
2155.08	1.20165e-07
2163.76	-1.4744e-07
2172.44	-9.78338e-09
2181.12	-2.17044e-07
2189.79	-1.26761e-07
2198.47	-2.34612e-07
2207.15	-6.71013e-08
2215.83	7.60215e-08
2224.51	-1.16897e-08
2233.18	-1.77345e-07
2241.86	-1.31635e-07
2250.54	-3.50863e-08
2259.22	4.23682e-07
2267.9	6.5706e-07
2276.58	9.47769e-07
2285.25	1.40216e-06
2293.93	1.69092e-06
2302.61	6.25032e-07
2311.29	5.2207e-07
2319.97	9.47277e-07
2328.64	1.31594e-06
2337.32	1.9619e-06
2346	1.65458e-06
2354.68	1.45605e-06
2363.36	1.26525e-06
2372.04	8.34594e-07
2380.71	7.17618e-07
2389.39	1.23965e-06
2398.07	1.3074e-06
2406.75	1.39979e-06
2415.43	1.83634e-06
2424.1	1.90995e-06
2432.78	1.60249e-06
2441.46	1.41961e-06
2450.14	1.3868e-06
2458.82	1.33967e-06
2467.5	1.41477e-06
2476.17	1.29116e-06
2484.85	1.31763e-06
2493.53	1.21106e-06
2502.21	1.10237e-06
2510.89	7.33586e-07
2519.56	4.35103e-07
2528.24	4.31441e-07
2536.92	1.12972e-06
2545.6	1.28195e-06
2554.28	5.31753e-07
2562.96	4.30348e-07
2571.63	3.28745e-07
2580.31	1.79778e-07
2588.99	4.39357e-07
2597.67	6.03558e-07
2606.35	5.92523e-07
2615.02	7.06528e-07
2623.7	9.06697e-07
2632.38	8.73807e-07
2641.06	8.67221e-07
2649.74	6.74024e-07
2658.42	4.02932e-07
2667.09	2.2609e-07
2675.77	1.55412e-07
2684.45	8.30474e-08
2693.13	2.68703e-07
2701.81	4.62078e-07
2710.48	9.31104e-07
2719.16	1.60793e-06
2727.84	3.44987e-06
2736.52	1.12487e-05
2745.2	1.27082e-05
2753.88	6.79356e-06
2762.55	2.65826e-06
2771.23	1.99043e-06
2779.91	1.95799e-06
2788.59	2.29424e-06
2797.27	3.01718e-06
2805.94	3.93475e-06
2814.62	5.35076e-06
2823.3	7.57805e-06
2831.98	1.01918e-05
2840.66	1.41206e-05
2849.34	2.29148e-05
2858.01	4.37678e-05
2866.69	8.42463e-05
2875.37	0.000117821
2884.05	0.000116059
2892.73	9.42885e-05
2901.4	9.56384e-05
2910.08	0.000112939
2918.76	0.000150699
2927.44	0.00021879
2936.12	0.000254488
2944.8	0.000223821
2953.47	0.000137328
2962.15	9.69229e-05
2970.83	7.06363e-05
2979.51	7.52926e-05
2988.19	8.98583e-05
2996.86	0.000110127
3005.54	0.000137618
3014.22	0.000175949
3022.9	0.000217891
3031.58	0.000238239
3040.26	0.000207935
3048.93	0.000166279
3057.61	0.000132983
3066.29	0.000118846
3074.97	8.13178e-05
3083.65	4.12912e-05
3092.32	2.90829e-05
3101	2.387e-05
3109.68	2.14199e-05
3118.36	1.83043e-05
3127.04	1.24167e-05
3135.72	4.97673e-06
3144.39	2.23535e-06
3153.07	1.34829e-06
3161.75	1.05132e-06
3170.43	7.52115e-07
3179.11	7.59642e-07
3187.78	6.60198e-07
3196.46	5.71364e-07
3205.14	3.95616e-07
3213.82	4.1811e-07
3222.5	-8.0237e-08
3231.18	-2.01911e-07
3239.85	-3.30215e-07
3248.53	-2.11323e-07
3257.21	2.48122e-07
3265.89	3.69254e-07
3274.57	2.4474e-07
3283.24	-1.97669e-08
3291.92	4.68697e-08
3300.6	9.31018e-08
3309.28	1.94631e-09
3317.96	-4.30971e-08
3326.64	-4.91216e-08
3335.31	-3.42296e-08
3343.99	-2.17359e-08
3352.67	-6.23774e-08
3361.35	-7.86882e-08
3370.03	-6.44374e-08
3378.7	1.38199e-07
3387.38	2.31482e-07
3396.06	5.84799e-07
3404.74	4.26374e-07
3413.42	3.59727e-07
3422.1	5.09474e-07
3430.77	4.49238e-07
3439.45	3.45274e-07
3448.13	4.26957e-07
3456.81	3.73997e-07
3465.49	3.6852e-07
3474.16	2.25051e-07
3482.84	7.8459e-08
3491.52	-1.70309e-07
3500.2	-2.5386e-07
3508.88	-2.59899e-07
3517.56	-1.95227e-07
3526.23	-1.83824e-07
3534.91	-7.76541e-08
3543.59	1.67126e-07
3552.27	4.42079e-07
3560.95	3.91674e-07
3569.62	1.85543e-07
3578.3	1.16528e-07
3586.98	-1.31775e-07
3595.66	-1.56238e-07
3604.34	-3.43796e-07
3613.02	-3.13046e-07
3621.69	-2.49983e-07
3630.37	-3.00967e-07
3639.05	-3.0926e-07
3647.73	-3.324e-07
3656.41	-3.69902e-07
3665.08	-2.78358e-07
3673.76	-2.84483e-07
3682.44	-2.01537e-07
3691.12	-3.17866e-07
3699.8	-1.39297e-07
3708.48	-2.04716e-07
3717.15	-9.8928e-08
3725.83	6.47602e-08
3734.51	2.52138e-07
3743.19	4.23485e-07
3751.87	2.31029e-07
3760.54	5.54792e-07
3769.22	7.08554e-07
3777.9	7.29391e-07
3786.58	5.9289e-07
3795.26	4.13232e-07
3803.94	2.0377e-07
3812.61	7.46109e-08
3821.29	1.15844e-07
3829.97	4.74867e-07
3838.65	3.05405e-07
3847.33	5.06339e-07
3856	3.52938e-07
3864.68	2.11017e-07
3873.36	4.76402e-07
3882.04	7.83302e-07
3890.72	8.32456e-07
3899.4	1.09527e-06
3908.07	1.54503e-06
3916.75	1.77777e-06
3925.43	1.70866e-06
3934.11	1.40509e-06
3942.79	1.42552e-06
3951.46	1.39206e-06
3960.14	1.41766e-06
3968.82	1.52598e-06
