Infrared Spectrum: Toluene
Formula: C 7 H 8
CAS: 108-88-3
State: liquid
Instrument: Bruker Tensor 27 FTIR
Resolution: 0.48212986
Origin: Pacific Northwest National Laboratory Under IARPA Contract
1/cm	dispersion index
7797.49	1.47458
7778.69	1.47459
7759.88	1.47459
7741.08	1.47459
7722.28	1.47459
7703.47	1.47459
7684.67	1.47459
7665.87	1.47458
7647.07	1.47458
7628.26	1.47458
7609.46	1.47458
7590.66	1.47458
7571.85	1.47458
7553.05	1.47457
7534.25	1.47457
7515.44	1.47457
7496.64	1.47457
7477.84	1.47457
7459.03	1.47457
7440.23	1.47457
7421.43	1.47456
7402.63	1.47456
7383.82	1.47456
7365.02	1.47456
7346.22	1.47456
7327.41	1.47456
7308.61	1.47455
7289.81	1.47455
7271	1.47455
7252.2	1.47455
7233.4	1.47455
7214.6	1.47455
7195.79	1.47454
7176.99	1.47454
7158.19	1.47454
7139.38	1.47454
7120.58	1.47454
7101.78	1.47454
7082.97	1.47453
7064.17	1.47453
7045.37	1.47453
7026.56	1.47453
7007.76	1.47453
6988.96	1.47452
6970.16	1.47452
6951.35	1.47452
6932.55	1.47452
6913.75	1.47452
6894.94	1.47451
6876.14	1.47451
6857.34	1.47451
6838.53	1.4745
6819.73	1.4745
6800.93	1.4745
6782.12	1.4745
6763.32	1.47449
6744.52	1.47449
6725.72	1.47449
6706.91	1.47449
6688.11	1.47448
6669.31	1.47448
6650.5	1.47448
6631.7	1.47447
6612.9	1.47447
6594.09	1.47447
6575.29	1.47446
6556.49	1.47446
6537.68	1.47446
6518.88	1.47445
6500.08	1.47445
6481.28	1.47445
6462.47	1.47444
6443.67	1.47444
6424.87	1.47444
6406.06	1.47443
6387.26	1.47443
6368.46	1.47442
6349.65	1.47442
6330.85	1.47441
6312.05	1.47441
6293.24	1.4744
6274.44	1.4744
6255.64	1.47439
6236.84	1.47439
6218.03	1.47438
6199.23	1.47437
6180.43	1.47436
6161.62	1.47435
6142.82	1.47435
6124.02	1.47434
6105.21	1.47434
6086.41	1.47433
6067.61	1.47433
6048.81	1.47431
6030	1.47428
6011.2	1.47426
5992.4	1.47426
5973.59	1.47428
5954.79	1.47433
5935.99	1.47438
5917.18	1.47438
5898.38	1.4744
5879.58	1.4744
5860.77	1.47443
5841.97	1.47442
5823.17	1.47439
5804.37	1.47437
5785.56	1.47437
5766.76	1.47436
5747.96	1.47435
5729.15	1.47435
5710.35	1.47435
5691.55	1.47435
5672.74	1.47434
5653.94	1.47433
5635.14	1.47434
5616.33	1.47434
5597.53	1.47433
5578.73	1.47432
5559.93	1.47431
5541.12	1.4743
5522.32	1.47429
5503.52	1.47428
5484.71	1.47428
5465.91	1.47427
5447.11	1.47426
5428.3	1.47425
5409.5	1.47424
5390.7	1.47424
5371.89	1.47423
5353.09	1.47422
5334.29	1.47422
5315.49	1.47421
5296.68	1.47421
5277.88	1.4742
5259.08	1.47419
5240.27	1.47418
5221.47	1.47417
5202.67	1.47416
5183.86	1.47416
5165.06	1.47414
5146.26	1.47414
5127.45	1.47413
5108.65	1.47412
5089.85	1.47411
5071.05	1.4741
5052.24	1.47409
5033.44	1.47408
5014.64	1.47406
4995.83	1.47405
4977.03	1.47404
4958.23	1.47404
4939.42	1.47403
4920.62	1.47402
4901.82	1.474
4883.02	1.47399
4864.21	1.47397
4845.41	1.47396
4826.61	1.47394
4807.8	1.47393
4789	1.4739
4770.2	1.47388
4751.39	1.47386
4732.59	1.47383
4713.79	1.47379
4694.98	1.47373
4676.18	1.47369
4657.38	1.47382
4638.58	1.47377
4619.77	1.47378
4600.97	1.47396
4582.17	1.47386
4563.36	1.47392
4544.56	1.47387
4525.76	1.47382
4506.95	1.47377
4488.15	1.47374
4469.35	1.47369
4450.54	1.47364
4431.74	1.4736
4412.94	1.47357
4394.14	1.47361
4375.33	1.47366
4356.53	1.47366
4337.73	1.47365
4318.92	1.47364
4300.12	1.4737
4281.32	1.47368
4262.51	1.47365
4243.71	1.47373
4224.91	1.47376
4206.1	1.4737
4187.3	1.47363
4168.5	1.47357
4149.7	1.47352
4130.89	1.47345
4112.09	1.47335
4093.29	1.47316
4074.48	1.4732
4055.68	1.47351
4036.88	1.47373
4018.07	1.47399
3999.27	1.4738
3980.47	1.47366
3961.66	1.47359
3942.86	1.47356
3924.06	1.4735
3905.26	1.47348
3886.45	1.47345
3867.65	1.4734
3848.85	1.47337
3830.04	1.47341
3811.24	1.47336
3792.44	1.47329
3773.63	1.47329
3754.83	1.47321
3736.03	1.47312
3717.23	1.47309
3698.42	1.47303
3679.62	1.47296
3660.82	1.47288
3642.01	1.47299
3623.21	1.47289
3604.41	1.47279
3585.6	1.4727
3566.8	1.47267
3548	1.47261
3529.19	1.47252
3510.39	1.47246
3491.59	1.47236
3472.79	1.47226
3453.98	1.47215
3435.18	1.47211
3416.38	1.47201
3397.57	1.47188
3378.77	1.47178
3359.97	1.47165
3341.16	1.47148
3322.36	1.47132
3303.56	1.47113
3284.75	1.47091
3265.95	1.47066
3247.15	1.47035
3228.35	1.46998
3209.54	1.46951
3190.74	1.46894
3171.94	1.46821
3153.13	1.46743
3134.33	1.46597
3115.53	1.46374
3096.72	1.46115
3077.92	1.46439
3059.12	1.46577
3040.31	1.46151
3021.51	1.48432
3002.71	1.47936
2983.91	1.4755
2965.1	1.47445
2946.3	1.47541
2927.5	1.47459
2908.69	1.48528
2889.89	1.47988
2871.09	1.48085
2852.28	1.48443
2833.48	1.4822
2814.68	1.48043
2795.87	1.47947
2777.07	1.47862
2758.27	1.4779
2739.47	1.47696
2720.66	1.47782
2701.86	1.47718
2683.06	1.47677
2664.25	1.47644
2645.45	1.47617
2626.65	1.476
2607.84	1.47575
2589.04	1.4755
2570.24	1.47572
2551.44	1.47542
2532.63	1.47533
2513.83	1.4751
2495.03	1.475
2476.22	1.47486
2457.42	1.47474
2438.62	1.47456
2419.81	1.47441
2401.01	1.47451
2382.21	1.47445
2363.4	1.47403
2344.6	1.47415
2325.8	1.47431
2307	1.47432
2288.19	1.47399
2269.39	1.47393
2250.59	1.47398
2231.78	1.47378
2212.98	1.47352
2194.18	1.4734
2175.37	1.47331
2156.57	1.47342
2137.77	1.47312
2118.96	1.4729
2100.16	1.47276
2081.36	1.47254
2062.56	1.47237
2043.75	1.47207
2024.95	1.47172
2006.15	1.47142
1987.34	1.47112
1968.54	1.46999
1949.74	1.47022
1930.93	1.47345
1912.13	1.47194
1893.33	1.47077
1874.52	1.47006
1855.72	1.47239
1836.92	1.4717
1818.12	1.4706
1799.31	1.47243
1780.51	1.47172
1761.71	1.47105
1742.9	1.46967
1724.1	1.47089
1705.3	1.46961
1686.49	1.46876
1667.69	1.46774
1648.89	1.4663
1630.08	1.46291
1611.28	1.45677
1592.48	1.47303
1573.68	1.46864
1554.87	1.46636
1536.07	1.46234
1517.27	1.45792
1498.46	1.4129
1479.66	1.47666
1460.86	1.4784
1442.05	1.49062
1423.25	1.48481
1404.45	1.48091
1385.65	1.4762
1366.84	1.48227
1348.04	1.47951
1329.24	1.47785
1310.43	1.47692
1291.63	1.4754
1272.83	1.47402
1254.02	1.47344
1235.22	1.47329
1216.42	1.47093
1197.61	1.47056
1178.81	1.46996
1160.01	1.47083
1141.21	1.47061
1122.4	1.46729
1103.6	1.46643
1084.8	1.45314
1065.99	1.47248
1047.19	1.46455
1028.39	1.49238
1009.58	1.47708
990.781	1.47365
971.978	1.47222
953.175	1.47099
934.372	1.46881
915.568	1.46611
896.765	1.46284
877.962	1.46352
859.159	1.45978
840.356	1.45701
821.553	1.45156
802.75	1.44355
783.947	1.43404
765.144	1.40844
746.341	1.33853
727.538	1.65268
708.735	1.52693
689.932	1.67517
671.129	1.5555
652.326	1.52734
633.523	1.51392
614.719	1.50803
595.916	1.50192
577.113	1.49732
558.31	1.49345
539.507	1.4892
520.704	1.48742
501.901	1.48132
483.098	1.46398
464.295	1.49076
445.492	1.52265
426.689	1.50599
407.886	1.50406
