Infrared Spectrum: 1,3-Dimethylbenzene
Formula: 1,3-( C H3)2 C6 H4
CAS: 108-38-3
State: gas
Melting point: -47.87 C
Boiling point: 139.1 C
Class: IUPAC A
Instrument: IFS66V (Bruker)
Instrument parameters: KBr Beam Splitter; MCT Detector; Multipass cell
Sampling: 1 L/min Flow
Resolution: 0.9640
Temperature: 23 C
Pressure: 101.3 Pa
Origin: NIST, Analytical Chemistry Division, 301-975-3108
cm-1	(micromol/mol)-1m-1 (base 10)
575.17	-1.08079e-06
583.848	-5.57498e-07
592.526	-1.06469e-07
601.205	-3.81331e-07
609.883	-4.73923e-07
618.561	-1.99555e-07
627.239	-2.73082e-07
635.917	-5.6599e-07
644.595	-9.4707e-08
653.274	8.68166e-07
661.952	2.4722e-06
670.63	1.04023e-05
679.308	4.26408e-05
687.986	7.708e-05
696.665	6.39104e-05
705.343	3.2781e-05
714.021	5.11486e-06
722.699	1.53267e-06
731.377	1.62018e-06
740.055	3.97071e-06
748.734	3.42303e-05
757.412	0.000134322
766.09	0.000299661
774.768	0.000167447
783.446	7.50205e-05
792.125	8.23814e-06
800.803	1.60931e-06
809.481	9.8912e-07
818.159	5.61661e-07
826.837	4.60378e-07
835.515	5.21826e-07
844.194	5.97166e-07
852.872	1.5279e-06
861.55	7.82402e-06
870.228	1.40026e-05
878.906	1.33253e-05
887.584	1.11102e-05
896.263	1.27716e-05
904.941	1.67672e-05
913.619	1.18255e-05
922.297	1.20907e-06
930.975	1.41605e-06
939.654	2.17715e-06
948.332	2.59518e-06
957.01	3.12236e-06
965.688	3.99477e-06
974.366	4.97062e-06
983.044	4.30991e-06
991.723	5.31088e-06
1000.4	8.41475e-06
1009.08	1.00474e-05
1017.76	7.3489e-06
1026.44	6.20032e-06
1035.11	1.15325e-05
1043.79	2.44139e-05
1052.47	1.93053e-05
1061.15	1.39021e-05
1069.83	8.77887e-06
1078.5	9.07416e-06
1087.18	2.09424e-05
1095.86	1.95034e-05
1104.54	1.76367e-05
1113.22	6.11308e-06
1121.9	4.74214e-06
1130.57	4.45744e-06
1139.25	2.82484e-06
1147.93	2.70115e-06
1156.61	4.04685e-06
1165.29	9.31087e-06
1173.96	6.44548e-06
1182.64	3.48338e-06
1191.32	2.36607e-06
1200	1.97431e-06
1208.68	1.40682e-06
1217.36	1.17016e-06
1226.03	1.11838e-06
1234.71	1.56873e-06
1243.39	3.00506e-06
1252.07	3.06284e-06
1260.75	3.56932e-06
1269.42	2.84077e-06
1278.1	1.96294e-06
1286.78	1.53171e-06
1295.46	1.87646e-06
1304.14	2.00897e-06
1312.82	2.14928e-06
1321.49	2.14151e-06
1330.17	2.39569e-06
1338.85	2.67747e-06
1347.53	3.90846e-06
1356.21	6.29643e-06
1364.88	9.5133e-06
1373.56	1.80186e-05
1382.24	2.98422e-05
1390.92	2.86271e-05
1399.6	1.89588e-05
1408.28	1.59001e-05
1416.95	1.72988e-05
1425.63	1.87807e-05
1434.31	2.69893e-05
1442.99	3.93755e-05
1451.67	4.67764e-05
1460.34	4.18068e-05
1469.02	4.87938e-05
1477.7	5.88494e-05
1486.38	8.45871e-05
1495.06	0.000107111
1503.74	0.000103643
1512.41	6.8406e-05
1521.09	4.98035e-05
1529.77	4.72974e-05
1538.45	4.02854e-05
1547.13	2.54684e-05
1555.8	1.76589e-05
1564.48	1.59857e-05
1573.16	1.76419e-05
1581.84	1.92963e-05
1590.52	3.22725e-05
1599.2	4.87208e-05
1607.87	0.000102742
1616.55	0.000134788
1625.23	0.000107496
1633.91	1.055e-05
1642.59	5.00544e-06
1651.26	6.51287e-06
1659.94	5.08068e-06
1668.62	1.79288e-06
1677.3	7.88537e-07
1685.98	5.37242e-07
1694.66	8.78053e-07
1703.33	1.24021e-06
1712.01	1.38725e-06
1720.69	1.18921e-06
1729.37	2.95909e-06
1738.05	7.23002e-06
1746.72	6.54433e-06
1755.4	7.32281e-06
1764.08	6.29176e-06
1772.76	7.4858e-06
1781.44	6.78035e-06
1790.12	1.86815e-06
1798.79	9.44378e-07
1807.47	1.72458e-06
1816.15	2.11314e-06
1824.83	1.81445e-06
1833.51	3.30298e-06
1842.18	5.90824e-06
1850.86	1.25616e-05
1859.54	1.04513e-05
1868.22	1.83972e-06
1876.9	1.15676e-06
1885.58	9.84962e-07
1894.25	1.10529e-06
1902.93	1.71305e-06
1911.61	3.10797e-06
1920.29	6.04972e-06
1928.97	1.2031e-05
1937.64	1.13678e-05
1946.32	3.60736e-06
1955	3.84109e-07
1963.68	1.03143e-07
1972.36	1.63719e-07
1981.04	5.30296e-08
1989.71	-5.2132e-09
1998.39	3.86624e-09
2007.07	-7.033e-08
2015.75	-7.77823e-08
2024.43	1.40871e-08
2033.1	-1.98664e-07
2041.78	-3.36687e-07
2050.46	-4.67904e-07
2059.14	-4.10189e-07
2067.82	-1.79145e-07
2076.5	-1.30577e-07
2085.17	-5.34316e-08
2093.85	-1.57274e-07
2102.53	2.97169e-07
2111.21	7.13011e-07
2119.89	-1.78578e-08
2128.56	-2.91312e-07
2137.24	-1.9292e-07
2145.92	6.84473e-08
2154.6	2.14196e-07
2163.28	-1.84297e-07
2171.96	-1.05223e-07
2180.63	-2.0844e-07
2189.31	-2.18935e-07
2197.99	-2.65317e-07
2206.67	-3.733e-08
2215.35	4.98382e-08
2224.02	-3.31264e-08
2232.7	-2.58029e-07
2241.38	-1.1459e-07
2250.06	-5.55835e-08
2258.74	3.73299e-07
2267.42	6.55248e-07
2276.09	8.98546e-07
2284.77	1.37136e-06
2293.45	1.73658e-06
2302.13	6.39669e-07
2310.81	4.99613e-07
2319.48	8.99483e-07
2328.16	1.23363e-06
2336.84	1.83402e-06
2345.52	1.59834e-06
2354.2	1.5097e-06
2362.88	1.30406e-06
2371.55	8.57409e-07
2380.23	6.84995e-07
2388.91	1.22199e-06
2397.59	1.25993e-06
2406.27	1.3452e-06
2414.94	1.80149e-06
2423.62	1.92436e-06
2432.3	1.65041e-06
2440.98	1.36877e-06
2449.66	1.35923e-06
2458.34	1.32803e-06
2467.01	1.4214e-06
2475.69	1.24528e-06
2484.37	1.34455e-06
2493.05	1.25352e-06
2501.73	1.1332e-06
2510.4	7.08515e-07
2519.08	4.30596e-07
2527.76	3.48332e-07
2536.44	1.09021e-06
2545.12	1.29024e-06
2553.8	5.16871e-07
2562.47	4.20648e-07
2571.15	3.3792e-07
2579.83	1.52156e-07
2588.51	4.00951e-07
2597.19	5.43003e-07
2605.86	5.65084e-07
2614.54	6.3361e-07
2623.22	8.20114e-07
2631.9	8.40671e-07
2640.58	8.53233e-07
2649.26	6.17238e-07
2657.93	3.22609e-07
2666.61	1.59922e-07
2675.29	1.43053e-07
2683.97	-2.16459e-10
2692.65	2.7171e-07
2701.32	3.71961e-07
2710	7.67168e-07
2718.68	1.46849e-06
2727.36	3.06643e-06
2736.04	1.11137e-05
2744.72	1.19847e-05
2753.39	7.22877e-06
2762.07	2.56672e-06
2770.75	1.84458e-06
2779.43	1.81736e-06
2788.11	2.08474e-06
2796.78	2.83306e-06
2805.46	3.66634e-06
2814.14	5.01587e-06
2822.82	7.23519e-06
2831.5	9.69403e-06
2840.18	1.33234e-05
2848.85	2.16691e-05
2857.53	4.15409e-05
2866.21	8.19247e-05
2874.89	0.0001184
2883.57	0.000117944
2892.24	9.43865e-05
2900.92	9.42163e-05
2909.6	0.000111308
2918.28	0.000147061
2926.96	0.000217594
2935.63	0.000257707
2944.31	0.000230362
2952.99	0.000139501
2961.67	9.78311e-05
2970.35	7.0017e-05
2979.03	7.31463e-05
2987.7	8.79972e-05
2996.38	0.000109305
3005.06	0.000135943
3013.74	0.00017565
3022.42	0.000217997
3031.09	0.000239917
3039.77	0.000211474
3048.45	0.000170496
3057.13	0.00013344
3065.81	0.000118227
3074.49	8.46172e-05
3083.16	4.13421e-05
3091.84	2.89972e-05
3100.52	2.36598e-05
3109.2	2.11995e-05
3117.88	1.85529e-05
3126.55	1.27879e-05
3135.23	4.88172e-06
3143.91	2.00354e-06
3152.59	1.15831e-06
3161.27	8.61293e-07
3169.95	6.4499e-07
3178.62	6.55499e-07
3187.3	5.62987e-07
3195.98	4.94482e-07
3204.66	3.29363e-07
3213.34	3.13308e-07
3222.01	-9.25506e-08
3230.69	-3.12202e-07
3239.37	-3.38092e-07
3248.05	-3.65183e-07
3256.73	1.43492e-07
3265.41	3.03064e-07
3274.08	1.6773e-07
3282.76	-9.76347e-08
3291.44	-1.86391e-08
3300.12	1.1983e-07
3308.8	-3.95992e-09
3317.47	-8.99295e-08
3326.15	-1.15358e-07
3334.83	-8.28327e-08
3343.51	6.31186e-10
3352.19	-1.1657e-07
3360.87	-1.47977e-07
3369.54	-8.97858e-08
3378.22	3.2205e-08
3386.9	1.08802e-07
3395.58	5.39113e-07
3404.26	4.27415e-07
3412.93	5.10011e-07
3421.61	5.41327e-07
3430.29	4.90962e-07
3438.97	2.97827e-07
3447.65	3.55494e-07
3456.33	3.80386e-07
3465	4.39183e-07
3473.68	2.5188e-07
3482.36	9.71772e-08
3491.04	-1.34139e-07
3499.72	-2.13983e-07
3508.39	-2.97078e-07
3517.07	-1.85621e-07
3525.75	-1.16725e-07
3534.43	-8.07982e-08
3543.11	7.70129e-08
3551.79	4.19173e-07
3560.46	3.61865e-07
3569.14	2.04325e-07
3577.82	9.69371e-08
3586.5	-1.2287e-07
3595.18	-2.59949e-07
3603.85	-4.03835e-07
3612.53	-3.71949e-07
3621.21	-2.07864e-07
3629.89	-3.99366e-07
3638.57	-3.17651e-07
3647.25	-4.19227e-07
3655.92	-4.56291e-07
3664.6	-3.0739e-07
3673.28	-1.53183e-07
3681.96	-1.86986e-07
3690.64	-3.66823e-07
3699.31	-2.18858e-07
3707.99	-1.68171e-07
3716.67	-1.80374e-07
3725.35	9.64423e-09
3734.03	3.36498e-07
3742.71	5.29584e-07
3751.38	3.79631e-07
3760.06	3.80217e-07
3768.74	7.83987e-07
3777.42	7.16378e-07
3786.1	6.41954e-07
3794.77	4.70618e-07
3803.45	1.8544e-07
3812.13	8.69809e-08
3820.81	8.95311e-08
3829.49	5.71264e-07
3838.17	6.67811e-08
3846.84	5.38227e-07
3855.52	3.28385e-07
3864.2	3.08735e-07
3872.88	4.71146e-07
3881.56	6.75757e-07
3890.23	8.63332e-07
3898.91	1.09808e-06
3907.59	1.60881e-06
3916.27	1.84236e-06
3924.95	1.66527e-06
3933.63	1.38991e-06
3942.3	1.35215e-06
3950.98	1.37989e-06
3959.66	1.4367e-06
3968.34	1.5535e-06
