Infrared Spectrum: Toluene
Formula: C H3 C6 H5
CAS: 108-88-3
State: gas
Melting point: -95 C
Boiling point: 110.6 C
Class: IUPAC A
Instrument: IFS66V (Bruker)
Instrument parameters: KBr Beam splitter; MCT Detector; Multipass cell
Sampling: 1 L/min Flow
Resolution: 0.1250
Temperature: 23 C
Pressure: 101.3 kPa
Origin: NIST, Anayltical Chemistry Division, 301-975-3108
cm-1	(micromol/mol)-1m-1 (base 10)
574.988	-1.53384e-07
583.546	-3.20857e-07
592.103	-2.9255e-07
600.661	-1.31736e-07
609.219	5.35624e-07
617.776	7.24887e-07
626.334	6.59133e-07
634.891	1.01249e-06
643.449	1.30316e-06
652.007	8.8698e-07
660.564	2.47338e-06
669.122	1.28063e-05
677.68	4.63419e-05
686.237	7.15497e-05
694.795	0.000112093
703.352	0.000104838
711.91	0.000151028
720.468	0.000186986
729.025	0.000698432
737.583	0.00018732
746.141	0.000105595
754.698	2.10116e-05
763.256	2.51648e-06
771.813	1.61993e-06
780.371	2.36041e-06
788.929	1.14241e-06
797.486	1.34561e-06
806.044	4.03353e-07
814.602	3.2167e-07
823.159	3.51956e-07
831.717	2.27058e-07
840.274	7.27758e-07
848.832	5.8488e-07
857.39	8.99939e-07
865.947	1.1299e-06
874.505	2.09302e-06
883.063	2.59912e-06
891.62	4.02242e-06
900.178	3.17246e-06
908.735	3.02022e-06
917.293	3.00834e-06
925.851	3.49853e-06
934.408	3.93188e-06
942.966	2.65831e-06
951.524	1.71682e-06
960.081	2.39434e-06
968.639	2.88841e-06
977.196	2.87313e-06
985.754	2.4011e-06
994.312	2.15317e-06
1002.87	1.77061e-06
1011.43	2.51282e-06
1019.98	1.29021e-05
1028.54	1.86892e-05
1037.1	2.60218e-05
1045.66	1.83537e-05
1054.22	1.2642e-05
1062.77	1.37751e-05
1071.33	2.10405e-05
1079.89	1.9897e-05
1088.45	2.37392e-05
1097	1.58848e-05
1105.56	8.10229e-06
1114.12	7.10647e-06
1122.68	3.2139e-06
1131.23	1.90078e-06
1139.79	1.72326e-06
1148.35	1.70764e-06
1156.91	2.20168e-06
1165.46	2.48581e-06
1174.02	2.89481e-06
1182.58	2.44415e-06
1191.14	2.18031e-06
1199.69	3.55146e-06
1208.25	4.23055e-06
1216.81	5.05159e-06
1225.37	2.36478e-06
1233.93	2.79854e-06
1242.48	2.85938e-06
1251.04	2.69111e-06
1259.6	1.30236e-06
1268.16	9.28042e-07
1276.71	8.09128e-07
1285.27	1.04287e-06
1293.83	1.49002e-06
1302.39	2.62221e-06
1310.94	2.02084e-06
1319.5	2.48595e-06
1328.06	1.86234e-06
1336.62	1.85399e-06
1345.17	2.41136e-06
1353.73	3.43875e-06
1362.29	4.88604e-06
1370.85	8.62964e-06
1379.4	1.29148e-05
1387.96	1.74825e-05
1396.52	1.07835e-05
1405.08	8.27614e-06
1413.64	9.06452e-06
1422.19	1.37232e-05
1430.75	1.21513e-05
1439.31	1.84206e-05
1447.87	2.98134e-05
1456.42	3.26104e-05
1464.98	3.2387e-05
1473.54	3.31725e-05
1482.1	3.24783e-05
1490.65	9.11102e-05
1499.21	0.00010126
1507.77	0.000100363
1516.33	3.15222e-05
1524.88	2.45258e-05
1533.44	1.8397e-05
1542	1.34618e-05
1550.56	1.01042e-05
1559.11	1.15157e-05
1567.67	8.67536e-06
1576.23	9.69146e-06
1584.79	8.73901e-06
1593.35	1.71979e-05
1601.9	4.05686e-05
1610.46	4.54656e-05
1619.02	3.84282e-05
1627.58	1.93053e-05
1636.13	3.53038e-06
1644.69	1.80188e-06
1653.25	-2.29537e-08
1661.81	1.98849e-06
1670.36	1.85042e-06
1678.92	1.75217e-06
1687.48	1.56212e-06
1696.04	4.85659e-07
1704.59	1.44396e-06
1713.15	2.23739e-06
1721.71	4.15332e-06
1730.27	4.3864e-06
1738.83	5.4946e-06
1747.38	2.14778e-06
1755.94	1.23195e-06
1764.5	1.98979e-06
1773.06	3.52058e-06
1781.61	5.07413e-06
1790.17	1.04565e-05
1798.73	9.52405e-06
1807.29	1.23842e-05
1815.84	4.16182e-06
1824.4	3.48569e-06
1832.96	2.89781e-06
1841.52	5.29713e-06
1850.07	1.0453e-05
1858.63	1.161e-05
1867.19	1.15215e-05
1875.75	6.90733e-06
1884.3	3.34775e-06
1892.86	1.42561e-06
1901.42	1.13731e-06
1909.98	1.24138e-06
1918.54	2.3062e-06
1927.09	6.19539e-06
1935.65	1.24357e-05
1944.21	1.42023e-05
1952.77	1.27263e-05
1961.32	5.99314e-06
1969.88	2.9569e-06
1978.44	7.73241e-07
1987	1.17244e-06
1995.55	1.44951e-06
2004.11	1.22935e-06
2012.67	7.64026e-07
2021.23	5.88184e-07
2029.78	4.43747e-07
2038.34	1.34477e-07
2046.9	2.34903e-07
2055.46	1.84739e-07
2064.01	1.29944e-07
2072.57	1.87291e-07
2081.13	2.8162e-07
2089.69	1.32565e-07
2098.25	2.43834e-07
2106.8	1.35208e-07
2115.36	2.77082e-07
2123.92	2.98764e-07
2132.48	2.79441e-07
2141.03	2.813e-07
2149.59	2.06463e-07
2158.15	7.65056e-07
2166.71	1.04931e-06
2175.26	1.33019e-06
2183.82	7.8326e-07
2192.38	7.57907e-07
2200.94	4.51229e-07
2209.49	5.94463e-07
2218.05	4.98113e-07
2226.61	4.68105e-07
2235.17	4.89373e-07
2243.72	5.99441e-07
2252.28	9.02061e-07
2260.84	9.6669e-07
2269.4	1.28876e-06
2277.96	1.43286e-06
2286.51	1.28881e-06
2295.07	1.24372e-06
2303.63	1.67591e-06
2312.19	1.71583e-06
2320.74	2.04836e-06
2329.3	1.91014e-06
2337.86	1.89858e-06
2346.42	2.23902e-06
2354.97	2.19167e-06
2363.53	1.45326e-06
2372.09	1.63327e-06
2380.65	1.20547e-06
2389.2	1.25902e-06
2397.76	1.35358e-06
2406.32	1.6387e-06
2414.88	1.73567e-06
2423.44	2.03223e-06
2431.99	1.38798e-06
2440.55	1.00316e-06
2449.11	8.38191e-07
2457.67	1.0104e-06
2466.22	9.68803e-07
2474.78	9.3443e-07
2483.34	7.40951e-07
2491.9	8.16098e-07
2500.45	1.03904e-06
2509.01	8.32129e-07
2517.57	7.47946e-07
2526.13	6.61965e-07
2534.68	7.63508e-07
2543.24	8.14983e-07
2551.8	8.32187e-07
2560.36	5.64628e-07
2568.91	7.29176e-07
2577.47	1.18168e-06
2586.03	2.16739e-06
2594.59	2.43736e-06
2603.15	2.31954e-06
2611.7	1.60965e-06
2620.26	1.21034e-06
2628.82	1.25117e-06
2637.38	1.27694e-06
2645.93	9.68414e-07
2654.49	7.9538e-07
2663.05	7.41262e-07
2671.61	6.17031e-07
2680.16	5.42713e-07
2688.72	5.60715e-07
2697.28	5.20614e-07
2705.84	5.52581e-07
2714.39	7.98296e-07
2722.95	1.04175e-06
2731.51	2.90208e-06
2740.07	5.16524e-06
2748.62	6.08295e-06
2757.18	3.50694e-06
2765.74	1.50111e-06
2774.3	1.35452e-06
2782.86	1.58311e-06
2791.41	1.96193e-06
2799.97	2.2482e-06
2808.53	2.52313e-06
2817.09	3.59211e-06
2825.64	4.14478e-06
2834.2	5.70061e-06
2842.76	7.07755e-06
2851.32	1.17039e-05
2859.87	2.20145e-05
2868.43	3.93005e-05
2876.99	6.19482e-05
2885.55	6.61166e-05
2894.1	5.78327e-05
2902.66	4.14632e-05
2911.22	4.50984e-05
2919.78	6.79959e-05
2928.34	0.000107875
2936.89	0.000119322
2945.45	0.000107475
2954.01	6.71937e-05
2962.57	5.1293e-05
2971.12	3.5131e-05
2979.68	3.93448e-05
2988.24	4.08988e-05
2996.8	5.16402e-05
3005.35	6.74059e-05
3013.91	7.45359e-05
3022.47	0.000126605
3031.03	0.000218619
3039.58	0.000222053
3048.14	0.000195871
3056.7	0.0001083
3065.26	0.000118355
3073.81	0.000148379
3082.37	0.000129357
3090.93	9.58709e-05
3099.49	7.40485e-05
3108.05	4.79638e-05
3116.6	2.95703e-05
3125.16	1.73566e-05
3133.72	8.58344e-06
3142.28	2.38813e-06
3150.83	1.23457e-06
3159.39	1.28528e-06
3167.95	1.49418e-06
3176.51	1.53069e-06
3185.06	1.52253e-06
3193.62	5.38309e-07
3202.18	1.84619e-07
3210.74	1.95635e-07
3219.29	1.30228e-07
3227.85	2.05405e-07
3236.41	7.90183e-08
3244.97	2.09494e-07
3253.52	3.11022e-07
3262.08	1.82727e-07
3270.64	5.61868e-07
3279.2	4.40393e-07
3287.76	4.65675e-07
3296.31	3.88951e-07
3304.87	4.54754e-07
3313.43	4.08243e-07
3321.99	6.93775e-07
3330.54	6.68222e-07
3339.1	6.8171e-07
3347.66	6.04998e-07
3356.22	3.52771e-07
3364.77	6.22453e-07
3373.33	5.93209e-07
3381.89	6.31088e-07
3390.45	4.18736e-07
3399	6.36936e-07
3407.56	4.47227e-07
3416.12	2.30541e-07
3424.68	3.99825e-07
3433.23	3.65715e-07
3441.79	4.9521e-07
3450.35	6.10733e-07
3458.91	5.38273e-07
3467.47	3.51492e-07
3476.02	2.66208e-08
3484.58	1.3692e-07
3493.14	1.0694e-07
3501.7	2.14885e-07
3510.25	4.86948e-07
3518.81	8.52811e-08
3527.37	3.62637e-07
3535.93	2.54428e-07
3544.48	3.90046e-07
3553.04	5.54178e-07
3561.6	2.5503e-07
3570.16	4.27862e-07
3578.71	2.85145e-07
3587.27	5.32446e-07
3595.83	3.31387e-07
3604.39	4.27446e-07
3612.95	2.25401e-07
3621.5	3.67658e-07
3630.06	5.41296e-07
3638.62	7.22104e-07
3647.18	7.05561e-07
3655.73	1.14273e-06
3664.29	1.09341e-06
3672.85	8.54495e-07
3681.41	6.78585e-07
3689.96	3.85777e-07
3698.52	5.44737e-07
3707.08	5.61323e-07
3715.64	4.557e-07
3724.19	5.25045e-07
3732.75	4.00583e-07
3741.31	2.35984e-07
3749.87	1.0862e-07
3758.42	3.18161e-07
3766.98	3.39031e-07
3775.54	4.1434e-07
3784.1	5.10997e-07
3792.66	6.39768e-07
3801.21	3.45719e-07
3809.77	7.26661e-07
3818.33	6.52605e-07
3826.89	8.1988e-07
3835.44	1.1094e-06
3844	1.02504e-06
3852.56	1.42719e-06
3861.12	1.42671e-06
3869.67	1.2629e-06
3878.23	9.22565e-07
3886.79	8.93667e-07
3895.35	8.38121e-07
3903.9	8.80295e-07
3912.46	1.05402e-06
3921.02	1.33105e-06
3929.58	1.01485e-06
3938.13	1.24356e-06
3946.69	7.68577e-07
3955.25	9.28129e-07
3963.81	8.91071e-07
3972.37	9.14543e-07
