Infrared Spectrum: Hexanedioic acid, bis(2-ethoxyethyl) ester
Formula: C14 H26 O6
CAS: 109-44-4
State: SOLUTION (10% CCl4 FOR 2.7-7.5, 10% CS2 FOR 7.5-25 MICRON) VS SOLVENT
Class: COBLENTZ III
Instrument: DOW KBr FOREPRISM-GRATING
Instrument parameters: BLAZED AT 3.5, 12.0, 20.0 MICRON AND CHANGED AT 5.0, 7.5, 14.9 MICRON
Sampling: TRANSMISSION
Path length: 0.011 CM, 0.011 CM, 0.011 CM
Resolution: 2
Origin: DOW CHEMICAL COMPANY
1/CM	TRANSMITTANCE
3800	0.8539
3791	0.8543
3782	0.8548
3773	0.8552
3764	0.8554
3755	0.8556
3746	0.8561
3737	0.8565
3728	0.8568
3719	0.8571
3710	0.8573
3701	0.8567
3692	0.8551
3683	0.847
3674	0.8402
3665	0.8403
3656	0.8458
3647	0.8485
3638	0.8488
3629	0.8486
3620	0.8474
3611	0.8449
3602	0.8398
3593	0.8344
3584	0.8374
3575	0.843
3566	0.8453
3557	0.8434
3548	0.8413
3539	0.8392
3530	0.8371
3521	0.8356
3512	0.8374
3503	0.8403
3494	0.842
3485	0.8427
3476	0.8418
3467	0.8366
3458	0.8271
3449	0.8203
3440	0.8221
3431	0.8298
3422	0.8407
3413	0.8513
3404	0.8568
3395	0.86
3386	0.8611
3377	0.8617
3368	0.8621
3359	0.8624
3350	0.8613
3341	0.8601
3332	0.8589
3323	0.8575
3314	0.856
3305	0.855
3296	0.8542
3287	0.8535
3278	0.853
3269	0.8525
3260	0.8521
3251	0.8518
3242	0.851
3233	0.8483
3224	0.8454
3215	0.8423
3206	0.8416
3197	0.8417
3188	0.8421
3179	0.8423
3170	0.8418
3161	0.8408
3152	0.8397
3143	0.8388
3134	0.8381
3125	0.8368
3116	0.8351
3107	0.8332
3098	0.8306
3089	0.8278
3080	0.8249
3071	0.8204
3062	0.8158
3053	0.8098
3044	0.8022
3035	0.7911
3026	0.7744
3017	0.7483
3008	0.7122
2999	0.5688
2990	0.2687
2981	0.131
2972	0.1866
2963	0.2319
2954	0.2062
2945	0.2246
2936	0.2439
2927	0.2754
2918	0.3289
2909	0.3523
2900	0.2825
2891	0.228
2882	0.1658
2873	0.1311
2864	0.141
2855	0.285
2846	0.4093
2837	0.5336
2828	0.5654
2819	0.5371
2810	0.5393
2801	0.6372
2792	0.6619
2783	0.6745
2774	0.7038
2765	0.7335
2756	0.7535
2747	0.7534
2738	0.7548
2729	0.7572
2720	0.764
2711	0.7738
2702	0.7807
2693	0.7788
2684	0.7954
2675	0.8118
2666	0.8211
2657	0.8228
2648	0.8243
2639	0.8268
2630	0.8288
2621	0.8304
2612	0.829
2603	0.8216
2594	0.8242
2585	0.8286
2576	0.8325
2567	0.8364
2558	0.8393
2549	0.8418
2540	0.8434
2531	0.8448
2522	0.8462
2513	0.8475
2504	0.849
2495	0.8504
2486	0.8518
2477	0.8528
2468	0.854
2459	0.8549
2450	0.8545
2441	0.8533
2432	0.8512
2423	0.8504
2414	0.8497
2405	0.8491
2396	0.8487
2387	0.8491
2378	0.8503
2369	0.8521
2360	0.8527
2351	0.8525
2342	0.8523
2333	0.8521
2324	0.8518
2315	0.8446
2306	0.8397
2297	0.8385
2288	0.8378
2279	0.8367
2270	0.8355
2261	0.8353
2252	0.8356
2243	0.8393
2234	0.8443
2225	0.8459
2216	0.8461
2207	0.8459
2198	0.8462
2189	0.8475
2180	0.8524
2171	0.8563
2162	0.8508
2153	0.8501
2144	0.8499
2135	0.8493
2126	0.849
2117	0.8484
2108	0.8475
2099	0.8466
2090	0.8457
2081	0.8446
2072	0.8433
2063	0.8421
2054	0.8409
2045	0.8396
2036	0.8383
2027	0.8366
2018	0.8351
2009	0.8339
2000	0.8318
1991	0.8263
1982	0.8245
1973	0.8228
1964	0.8212
1955	0.8196
1946	0.8189
1937	0.8197
1928	0.8203
1919	0.825
1910	0.8288
1901	0.8309
1892	0.8328
1883	0.8338
1874	0.834
1865	0.8328
1856	0.8307
1847	0.8299
1838	0.8271
1829	0.8215
1820	0.8138
1811	0.8025
1802	0.7847
1793	0.7622
1784	0.7387
1775	0.7064
1766	0.5875
1757	0.3
1748	0.0501
1739	0.0081
1730	0.005
1721	0.209
1712	0.3398
1703	0.4784
1694	0.5819
1685	0.6772
1676	0.7306
1667	0.7603
1658	0.7778
1649	0.7899
1640	0.7982
1631	0.8041
1622	0.809
1613	0.8111
1604	0.8135
1595	0.8161
1586	0.8192
1577	0.8218
1568	0.8233
1559	0.8268
1550	0.8286
1541	0.8275
1532	0.8248
1523	0.8198
1514	0.8082
1505	0.7908
1496	0.7547
1487	0.5729
1478	0.6528
1469	0.4664
1460	0.2957
1451	0.395
1442	0.393
1433	0.5106
1424	0.401
1415	0.5012
1406	0.5442
1397	0.3227
1388	0.2084
1379	0.2902
1370	0.4148
1361	0.3816
1352	0.297
1343	0.4228
1334	0.448
1325	0.5075
1316	0.4307
1307	0.3798
1298	0.3259
1289	0.272
1280	0.2426
1271	0.2507
1262	0.2138
1253	0.1639
1244	0.1444
1235	0.152
1226	0.1878
1217	0.1877
1208	0.1861
1199	0.1629
1190	0.1186
1181	0.0763
1172	0.0486
1163	0.0746
1154	0.0975
1145	0.0681
1136	0.0207
1127	0.0076
1118	0.0167
1109	0.1534
1100	0.2189
1091	0.2916
1082	0.2624
1073	0.261
1064	0.2794
1055	0.2277
1046	0.2551
1037	0.3166
1028	0.3942
1019	0.5124
1010	0.5672
1001	0.6138
992	0.6533
983	0.6787
974	0.683
965	0.6307
956	0.5516
947	0.5512
938	0.5292
929	0.6164
920	0.6278
911	0.6303
902	0.678
893	0.7108
884	0.6935
875	0.6533
866	0.6132
857	0.5962
848	0.6597
839	0.6806
830	0.6792
821	0.7003
812	0.7146
803	0.7457
794	0.7353
785	0.7456
776	0.7583
767	0.7605
758	0.7528
749	0.7493
740	0.7736
731	0.7789
722	0.7901
713	0.8007
704	0.8051
695	0.8114
686	0.8168
677	0.8233
668	0.8282
659	0.8263
650	0.803
641	0.7986
632	0.7987
623	0.7946
614	0.7884
605	0.7821
596	0.7756
587	0.7706
578	0.7687
569	0.7737
560	0.7765
551	0.7761
542	0.7612
533	0.7439
524	0.7145
515	0.7007
506	0.7298
497	0.7593
488	0.7648
479	0.7645
470	0.759
461	0.7542
452	0.7511
443	0.7487
434	0.7465
425	0.7453
416	0.7449
407	0.7447
