Infrared Spectrum: 1-Bromobutane
Formula: C4 H9 Br
CAS: 109-65-9
State: SOLUTION (10% CCl4 FOR 3800-1400, 10% CS2 FOR 1400-430)
Class: COBLENTZ III
Instrument: DOW KBr FOREPRISM-GRATING
Instrument parameters: BLAZED AT 3.5, 12.0, 20.0 MICRON AND CHANGED AT 5.0, 7.5, 14.9 MICRON
Sampling: TRANSMISSION
Path length: 0.0116 CM, 0.0112 CM
Resolution: 2
Origin: DOW CHEMICAL COMPANY
1/CM	TRANSMITTANCE
423	0.8484
432	0.8503
441	0.8582
450	0.8652
459	0.8693
468	0.9133
477	0.9359
486	0.9485
495	0.9574
504	0.9614
513	0.9604
522	0.9589
531	0.9518
540	0.9319
549	0.8939
558	0.698
567	0.8129
576	0.9016
585	0.9506
594	0.9622
603	0.9572
612	0.9488
621	0.9296
630	0.8719
639	0.6027
648	0.7361
657	0.9336
666	0.936
675	0.9366
684	0.9317
693	0.9294
702	0.9225
711	0.9108
720	0.8846
729	0.8058
738	0.6534
747	0.7238
756	0.8844
765	0.9023
774	0.8814
783	0.9019
792	0.8888
801	0.9009
810	0.9246
819	0.9218
828	0.9213
837	0.927
846	0.9272
855	0.8896
864	0.8021
873	0.8193
882	0.9027
891	0.9055
900	0.8924
909	0.8414
918	0.8161
927	0.9073
936	0.9166
945	0.9117
954	0.9117
963	0.9067
972	0.8944
981	0.9075
990	0.8694
999	0.8449
1008	0.8896
1017	0.906
1026	0.8999
1035	0.8888
1044	0.8439
1053	0.8542
1062	0.849
1071	0.8742
1080	0.9107
1089	0.9123
1098	0.8755
1107	0.9234
1116	0.9385
1125	0.9357
1134	0.9341
1143	0.9195
1152	0.9212
1161	0.9069
1170	0.9026
1179	0.8761
1188	0.8653
1197	0.8349
1206	0.702
1215	0.3354
1224	0.7348
1233	0.8574
1242	0.8344
1251	0.7617
1260	0.2026
1269	0.5905
1278	0.7615
1287	0.712
1296	0.6837
1305	0.7844
1314	0.8562
1323	0.8495
1332	0.8335
1341	0.832
1350	0.8377
1359	0.8276
1368	0.831
1377	0.7368
1386	0.787
1395	0.8656
1404	0.8584
1413	0.8514
1422	0.7968
1431	0.6116
1440	0.5067
1449	0.6131
1458	0.427
1467	0.3526
1476	0.736
1485	0.812
1494	0.8278
1503	0.8418
1512	0.8602
1521	0.8732
1530	0.8384
1539	0.8049
1548	0.7881
1557	0.8068
1566	0.8454
1575	0.8389
1584	0.8348
1593	0.8465
1602	0.8705
1611	0.8898
1620	0.8874
1629	0.8904
1638	0.895
1647	0.8947
1656	0.8954
1665	0.8937
1674	0.8918
1683	0.8927
1692	0.8949
1701	0.8954
1710	0.8954
1719	0.8947
1728	0.894
1737	0.8929
1746	0.8913
1755	0.8905
1764	0.8879
1773	0.8879
1782	0.8895
1791	0.8889
1800	0.8885
1809	0.8912
1818	0.8917
1827	0.8899
1836	0.8904
1845	0.8891
1854	0.8868
1863	0.8867
1872	0.8898
1881	0.8879
1890	0.886
1899	0.8874
1908	0.8866
1917	0.8877
1926	0.8887
1935	0.8898
1944	0.8905
1953	0.8911
1962	0.8918
1971	0.8925
1980	0.8932
1989	0.893
1998	0.8622
2007	0.9026
2016	0.9045
2025	0.9043
2034	0.9048
2043	0.9058
2052	0.9075
2061	0.9074
2070	0.9078
2079	0.9077
2088	0.9075
2097	0.9051
2106	0.9064
2115	0.9057
2124	0.9047
2133	0.9034
2142	0.9021
2151	0.9011
2160	0.9007
2169	0.9017
2178	0.9011
2187	0.8995
2196	0.9011
2205	0.9001
2214	0.8983
2223	0.8978
2232	0.8953
2241	0.8941
2250	0.893
2259	0.8955
2268	0.8967
2277	0.8994
2286	0.9002
2295	0.8996
2304	0.8941
2313	0.9066
2322	0.9185
2331	0.9237
2340	0.9263
2349	0.9243
2358	0.9215
2367	0.9163
2376	0.913
2385	0.9054
2394	0.9039
2403	0.9044
2412	0.9028
2421	0.9029
2430	0.9029
2439	0.9031
2448	0.9031
2457	0.9022
2466	0.9031
2475	0.9028
2484	0.9005
2493	0.8998
2502	0.8993
2511	0.8987
2520	0.8984
2529	0.8982
2538	0.898
2547	0.8977
2556	0.8976
2565	0.8973
2574	0.8965
2583	0.8952
2592	0.8939
2601	0.8927
2610	0.8911
2619	0.889
2628	0.887
2637	0.8821
2646	0.8796
2655	0.8799
2664	0.8837
2673	0.882
2682	0.8799
2691	0.8785
2700	0.8809
2709	0.8817
2718	0.8769
2727	0.8674
2736	0.8629
2745	0.8704
2754	0.8796
2763	0.8775
2772	0.873
2781	0.8668
2790	0.8609
2799	0.8548
2808	0.8441
2817	0.8271
2826	0.7954
2835	0.6651
2844	0.6427
2853	0.6428
2862	0.4956
2871	0.3238
2880	0.1878
2889	0.3648
2898	0.4795
2907	0.4654
2916	0.4398
2925	0.3139
2934	0.1465
2943	0.0969
2952	0.2146
2961	0.1314
2970	-0.0036
2979	0.071
2988	0.4527
2997	0.65
3006	0.6708
3015	0.6735
3024	0.7596
3033	0.8121
3042	0.8579
3051	0.864
3060	0.8692
3069	0.8742
3078	0.8772
3087	0.881
3096	0.8865
3105	0.8841
3114	0.8847
3123	0.887
3132	0.8891
3141	0.8887
3150	0.8908
3159	0.8913
3168	0.89
3177	0.8904
3186	0.8915
3195	0.893
3204	0.8918
3213	0.8939
3222	0.8965
3231	0.901
3240	0.9007
3249	0.9002
3258	0.8997
3267	0.899
3276	0.8971
3285	0.8958
3294	0.8951
3303	0.8946
3312	0.8959
3321	0.8937
3330	0.8934
3339	0.8929
3348	0.8924
3357	0.8922
3366	0.8922
3375	0.8922
3384	0.8921
3393	0.892
3402	0.892
3411	0.8919
3420	0.892
3429	0.8925
3438	0.8931
3447	0.8937
3456	0.8942
3465	0.8947
3474	0.8952
3483	0.8958
3492	0.8963
3501	0.8962
3510	0.8962
3519	0.896
3528	0.896
3537	0.8973
3546	0.8976
3555	0.8975
3564	0.8961
3573	0.8981
3582	0.8983
3591	0.8987
3600	0.8967
3609	0.8949
3618	0.8908
3627	0.8865
3636	0.8788
3645	0.8729
3654	0.8694
3663	0.8749
3672	0.8848
3681	0.89
3690	0.8943
3699	0.8973
3708	0.8973
3717	0.8955
3726	0.895
3735	0.8949
3744	0.8946
3753	0.8949
3762	0.8953
