Infrared Spectrum: Cyclohexane
Formula: C6 H12
CAS: 110-82-7
State: SOLUTION (10% CCl4 FOR 3800-1350, AND 10% CS2 FOR 1350-400 CM^-^1)
Boiling point: 80.7 C AT 760 mmHg
Class: COBLENTZ II
Instrument: DOW KBr FOREPRISM-GRATING
Instrument parameters: BLAZED AT 3.5, 12.0, 20.0 MICRON AND CHANGED AT 5.0, 7.5, 14.9 MICRON
Sampling: TRANSMISSION
Path length: 0.011 CM, 0.011 CM
Resolution: 2
Origin: DOW CHEMICAL COMPANY
1/CM	TRANSMITTANCE
3800	0.8674
3791	0.868
3782	0.8688
3773	0.8696
3764	0.8701
3755	0.8658
3746	0.868
3737	0.8715
3728	0.8687
3719	0.8664
3710	0.8655
3701	0.8668
3692	0.8702
3683	0.8732
3674	0.8751
3665	0.8761
3656	0.8755
3647	0.8738
3638	0.8708
3629	0.8739
3620	0.8771
3611	0.8789
3602	0.8789
3593	0.8788
3584	0.8788
3575	0.8788
3566	0.8787
3557	0.88
3548	0.8823
3539	0.8841
3530	0.8851
3521	0.8861
3512	0.8871
3503	0.8874
3494	0.8875
3485	0.8866
3476	0.8852
3467	0.8816
3458	0.8775
3449	0.8731
3440	0.8692
3431	0.8718
3422	0.8766
3413	0.8794
3404	0.8817
3395	0.8821
3386	0.8825
3377	0.8828
3368	0.883
3359	0.8828
3350	0.884
3341	0.8831
3332	0.8818
3323	0.8818
3314	0.8818
3305	0.8825
3296	0.8832
3287	0.8839
3278	0.8848
3269	0.8858
3260	0.8867
3251	0.8874
3242	0.8882
3233	0.8888
3224	0.8889
3215	0.8889
3206	0.8881
3197	0.8851
3188	0.879
3179	0.8732
3170	0.8639
3161	0.8539
3152	0.8528
3143	0.8657
3134	0.875
3125	0.8797
3116	0.8806
3107	0.8793
3098	0.8707
3089	0.8705
3080	0.876
3071	0.8775
3062	0.875
3053	0.8689
3044	0.8609
3035	0.8495
3026	0.8354
3017	0.8161
3008	0.7976
2999	0.7662
2990	0.6125
2981	0.4899
2972	0.3679
2963	0.2416
2954	0.1154
2945	0.0082
2936	0.0083
2927	0.0078
2918	0.0084
2909	0.0088
2900	0.0712
2891	0.2475
2882	0.2813
2873	0.2182
2864	0.1154
2855	0.007
2846	0.2068
2837	0.5605
2828	0.635
2819	0.6767
2810	0.7461
2801	0.6226
2792	0.666
2783	0.7758
2774	0.8325
2765	0.8521
2756	0.8605
2747	0.8658
2738	0.8685
2729	0.8689
2720	0.8615
2711	0.8448
2702	0.8001
2693	0.7682
2684	0.8155
2675	0.773
2666	0.5412
2657	0.7243
2648	0.8521
2639	0.8664
2630	0.8683
2621	0.8005
2612	0.8062
2603	0.7933
2594	0.8535
2585	0.869
2576	0.8754
2567	0.8758
2558	0.869
2549	0.8741
2540	0.8775
2531	0.8786
2522	0.8793
2513	0.8814
2504	0.8824
2495	0.8745
2486	0.8613
2477	0.8764
2468	0.8818
2459	0.8831
2450	0.8832
2441	0.8804
2432	0.8765
2423	0.8731
2414	0.8732
2405	0.8757
2396	0.8775
2387	0.8756
2378	0.8742
2369	0.8758
2360	0.88
2351	0.8836
2342	0.8865
2333	0.8871
2324	0.8846
2315	0.8764
2306	0.8836
2297	0.8799
2288	0.8866
2279	0.8863
2270	0.881
2261	0.8713
2252	0.8752
2243	0.8778
2234	0.8797
2225	0.8799
2216	0.8768
2207	0.8802
2198	0.8747
2189	0.8739
2180	0.8768
2171	0.8768
2162	0.8751
2153	0.8768
2144	0.8806
2135	0.8834
2126	0.8856
2117	0.8867
2108	0.8877
2099	0.8886
2090	0.8883
2081	0.8818
2072	0.8784
2063	0.8815
2054	0.8844
2045	0.886
2036	0.887
2027	0.8875
2018	0.8875
2009	0.887
2000	0.8849
1991	0.8767
1982	0.8809
1973	0.8855
1964	0.886
1955	0.8868
1946	0.8875
1937	0.8883
1928	0.8892
1919	0.8897
1910	0.8902
1901	0.891
1892	0.8916
1883	0.8906
1874	0.885
1865	0.8878
1856	0.8905
1847	0.8907
1838	0.8907
1829	0.8909
1820	0.8908
1811	0.8909
1802	0.891
1793	0.8918
1784	0.8902
1775	0.882
1766	0.887
1757	0.8909
1748	0.8917
1739	0.8925
1730	0.8932
1721	0.8928
1712	0.8923
1703	0.8914
1694	0.8882
1685	0.8791
1676	0.8798
1667	0.8806
1658	0.8817
1649	0.8828
1640	0.8844
1631	0.8857
1622	0.8864
1613	0.8871
1604	0.889
1595	0.8905
1586	0.8912
1577	0.8918
1568	0.8927
1559	0.8935
1550	0.8963
1541	0.8983
1532	0.8964
1523	0.8918
1514	0.8792
1505	0.8643
1496	0.8459
1487	0.8181
1478	0.7742
1469	0.6719
1460	0.4374
1451	0.1674
1442	0.6435
1433	0.7558
1424	0.7865
1415	0.8011
1406	0.8114
1397	0.8167
1388	0.8189
1379	0.8192
1370	0.8181
1361	0.8155
1352	0.8162
1343	0.8265
1334	0.8327
1325	0.8346
1316	0.8409
1307	0.8471
1298	0.8498
1289	0.8371
1280	0.8018
1271	0.7481
1262	0.6762
1253	0.7115
1244	0.8203
1235	0.8627
1226	0.884
1217	0.8908
1208	0.8934
1199	0.8941
1190	0.8947
1181	0.894
1172	0.8904
1163	0.8798
1154	0.8782
1145	0.8843
1136	0.8851
1127	0.876
1118	0.8688
1109	0.8647
1100	0.8718
1091	0.8813
1082	0.8878
1073	0.8903
1064	0.8897
1055	0.8839
1046	0.8601
1037	0.7578
1028	0.8281
1019	0.8167
1010	0.8112
1001	0.8735
992	0.887
983	0.8952
974	0.8993
965	0.8975
956	0.8957
947	0.8933
938	0.8898
929	0.8842
920	0.8725
911	0.8393
902	0.5288
893	0.8593
884	0.8631
875	0.8355
866	0.5937
857	0.7742
848	0.8752
839	0.8834
830	0.8844
821	0.8845
812	0.8847
803	0.885
794	0.8853
785	0.8857
776	0.8858
767	0.8858
758	0.8857
749	0.8853
740	0.8848
731	0.8833
722	0.8818
713	0.8791
704	0.8756
695	0.8723
686	0.8692
677	0.8655
668	0.86
659	0.8614
650	0.8621
641	0.8614
632	0.8609
623	0.8603
614	0.8598
605	0.8594
596	0.859
587	0.8582
578	0.8568
569	0.8541
560	0.8508
551	0.845
542	0.8347
533	0.8142
524	0.7912
515	0.8423
506	0.8408
497	0.8414
488	0.8415
479	0.8412
470	0.8409
461	0.8406
452	0.8414
443	0.8421
434	0.845
425	0.8488
416	0.8535
407	0.8588
398	0.8634
