Infrared Spectrum: BUTANEDIOIC ACID
Formula: C4 H6 O4
CAS: 110-15-6
State: SOLID (SPLIT MULL, FLUOROLUBE FOR 3800-1330 AND NUJOL FOR 1330-400 CM ^-^1)
Class: COBLENTZ III
Instrument: BECKMAN IR-9 (GRATING)
Instrument parameters: ORDER CHANGES AT 670, 1200, 2000 CM^-^1
Sampling: TRANSMISSION
Resolution: 4
Origin: DOW CHEMICAL COMPANY
1/CM	TRANSMITTANCE
400.171	0.712
408.703	0.693
417.236	0.667
425.768	0.649
434.301	0.636
442.833	0.632
451.366	0.636
459.898	0.659
468.43	0.7
476.963	0.731
485.495	0.751
494.028	0.766
502.56	0.775
511.093	0.784
519.625	0.791
528.157	0.794
536.69	0.788
545.222	0.745
553.755	0.745
562.287	0.756
570.82	0.782
579.352	0.75
587.885	0.699
596.417	0.776
604.949	0.802
613.482	0.811
622.014	0.795
630.547	0.709
639.079	0.332
647.612	0.513
656.144	0.758
664.676	0.804
673.209	0.818
681.741	0.81
690.274	0.812
698.806	0.811
707.339	0.81
715.871	0.803
724.403	0.783
732.936	0.796
741.468	0.81
750.001	0.815
758.533	0.819
767.066	0.818
775.598	0.814
784.13	0.812
792.663	0.81
801.195	0.76
809.728	0.673
818.26	0.716
826.793	0.78
835.325	0.79
843.858	0.784
852.39	0.779
860.922	0.767
869.455	0.752
877.987	0.727
886.52	0.681
895.052	0.58
903.585	0.548
912.117	0.494
920.649	0.443
929.182	0.415
937.714	0.434
946.247	0.475
954.779	0.502
963.312	0.57
971.844	0.614
980.376	0.657
988.909	0.688
997.441	0.707
1005.97	0.723
1014.51	0.733
1023.04	0.739
1031.57	0.741
1040.1	0.743
1048.64	0.747
1057.17	0.751
1065.7	0.752
1074.23	0.754
1082.77	0.755
1091.3	0.756
1099.83	0.758
1108.36	0.758
1116.9	0.759
1125.43	0.759
1133.96	0.756
1142.49	0.75
1151.03	0.744
1159.56	0.733
1168.09	0.708
1176.62	0.5619
1185.15	0.588
1193.69	0.4459
1202.22	0.16
1210.75	0.1841
1219.28	0.3601
1227.82	0.672
1236.35	0.741
1244.88	0.758
1253.41	0.76
1261.95	0.748
1270.48	0.732
1279.01	0.691
1287.54	0.585
1296.08	0.474
1304.61	0.354
1313.14	0.211
1321.67	0.29
1330.21	0.31
1338.74	0.308
1347.27	0.308
1355.8	0.466
1364.34	0.513
1372.87	0.505
1381.4	0.467
1389.93	0.423
1398.47	0.336
1407	0.189
1415.53	0.072
1424.06	0.056
1432.6	0.105
1441.13	0.3561
1449.66	0.545
1458.19	0.637
1466.73	0.696
1475.26	0.737
1483.79	0.755
1492.32	0.772
1500.85	0.779
1509.39	0.778
1517.92	0.771
1526.45	0.756
1534.98	0.739
1543.52	0.724
1552.05	0.689
1560.58	0.676
1569.11	0.624
1577.65	0.609
1586.18	0.586
1594.71	0.556
1603.24	0.516
1611.78	0.482
1620.31	0.449
1628.84	0.405
1637.37	0.37
1645.91	0.32
1654.44	0.274
1662.97	0.189
1671.5	0.121
1680.04	0.056
1688.57	0.03
1697.1	0.02
1705.63	0.018
1714.17	0.029
1722.7	0.057
1731.23	0.078
1739.76	0.219
1748.3	0.371
1756.83	0.475
1765.36	0.537
1773.89	0.576
1782.43	0.604
1790.96	0.62
1799.49	0.643
1808.02	0.66
1816.55	0.673
1825.09	0.673
1833.62	0.669
1842.15	0.713
1850.68	0.729
1859.22	0.731
1867.75	0.731
1876.28	0.735
1884.81	0.741
1893.35	0.756
1901.88	0.763
1910.41	0.774
1918.94	0.774
1927.48	0.776
1936.01	0.778
1944.54	0.779
1953.07	0.78
1961.61	0.779
1970.14	0.778
1978.67	0.77
1987.2	0.766
1995.74	0.758
2004.27	0.7545
2012.8	0.751
2021.33	0.75
2029.87	0.75
2038.4	0.748
2046.93	0.743
2055.46	0.7359
2064	0.7259
2072.53	0.7165
2081.06	0.7075
2089.59	0.703
2098.13	0.7
2106.66	0.6994
2115.19	0.6939
2123.72	0.6898
2132.25	0.6794
2140.79	0.6724
2149.32	0.671
2157.85	0.6684
2166.38	0.6644
2174.92	0.6564
2183.45	0.6484
2191.98	0.6392
2200.51	0.6314
2209.05	0.6261
2217.58	0.6164
2226.11	0.6007
2234.64	0.5883
2243.18	0.5733
2251.71	0.5567
2260.24	0.5507
2268.77	0.5483
2277.31	0.548
2285.84	0.546
2294.37	0.545
2302.9	0.5413
2311.44	0.5363
2319.97	0.5323
2328.5	0.526
2337.03	0.5226
2345.57	0.5173
2354.1	0.5093
2362.63	0.505
2371.16	0.505
2379.7	0.4947
2388.23	0.4787
2396.76	0.4662
2405.29	0.4582
2413.83	0.4427
2422.36	0.4342
2430.89	0.4234
2439.42	0.4172
2447.95	0.4178
2456.49	0.4142
2465.02	0.4052
2473.55	0.3916
2482.08	0.3835
2490.62	0.3707
2499.15	0.3567
2507.68	0.3432
2516.21	0.3226
2524.75	0.3046
2533.28	0.2886
2541.81	0.2831
2550.34	0.2875
2558.88	0.3069
2567.41	0.3176
2575.94	0.3298
2584.47	0.332
2593.01	0.3282
2601.54	0.3117
2610.07	0.2964
2618.6	0.28
2627.14	0.2661
2635.67	0.263
2644.2	0.262
2652.73	0.262
2661.27	0.2707
2669.8	0.2898
2678.33	0.3108
2686.86	0.3239
2695.4	0.331
2703.93	0.331
2712.46	0.326
2720.99	0.3161
2729.53	0.306
2738.06	0.296
2746.59	0.292
2755.12	0.29
2763.66	0.291
2772.19	0.296
2780.72	0.299
2789.25	0.3019
2797.78	0.3
2806.32	0.296
2814.85	0.288
2823.38	0.2798
2831.91	0.2719
2840.45	0.2619
2848.98	0.2549
2857.51	0.2449
2866.04	0.2369
2874.58	0.2289
2883.11	0.2239
2891.64	0.219
2900.17	0.22
2908.71	0.221
2917.24	0.2197
2925.77	0.2077
2934.3	0.1889
2942.84	0.1955
2951.37	0.2081
2959.9	0.216
2968.43	0.2233
2976.97	0.227
2985.5	0.228
2994.03	0.228
3002.56	0.2282
3011.1	0.2322
3019.63	0.236
3028.16	0.236
3036.69	0.235
3045.23	0.236
3053.76	0.239
3062.29	0.2454
3070.82	0.2552
3079.36	0.2629
3087.89	0.2712
3096.42	0.28
3104.95	0.2865
3113.48	0.2965
3122.02	0.3112
3130.55	0.3255
3139.08	0.3465
3147.61	0.3576
3156.15	0.3828
3164.68	0.398
3173.21	0.4141
3181.74	0.4309
3190.28	0.4463
3198.81	0.4629
3207.34	0.4796
3215.87	0.4952
3224.41	0.5162
3232.94	0.5373
3241.47	0.5613
3250	0.5833
3258.54	0.602
3267.07	0.6283
3275.6	0.6531
3284.13	0.6734
3292.67	0.6968
3301.2	0.7219
3309.73	0.7411
3318.26	0.7601
3326.8	0.7744
3335.33	0.783
3343.86	0.7954
3352.39	0.8126
3360.93	0.8404
3369.46	0.8625
3377.99	0.8832
3386.52	0.8967
3395.06	0.9118
3403.59	0.9224
3412.12	0.9304
3420.65	0.9344
3429.18	0.9403
3437.72	0.9455
3446.25	0.951
3454.78	0.954
3463.31	0.954
3471.85	0.955
3480.38	0.955
3488.91	0.955
3497.44	0.955
3505.98	0.954
3514.51	0.953
3523.04	0.953
3531.57	0.951
3540.11	0.95
3548.64	0.949
3557.17	0.946
3565.7	0.945
3574.24	0.942
3582.77	0.9399
3591.3	0.938
3599.83	0.935
3608.37	0.933
3616.9	0.929
3625.43	0.926
3633.96	0.926
3642.5	0.919
3651.03	0.9174
3659.56	0.9134
3668.09	0.913
3676.63	0.9094
3685.16	0.907
3693.69	0.9054
3702.22	0.9014
3710.76	0.897
3719.29	0.8944
3727.82	0.891
3736.35	0.8893
3744.88	0.8877
3753.42	0.8853
3761.95	0.8797
3770.48	0.8773
3779.01	0.8713
3787.55	0.87
