Infrared Spectrum: Pyridine
Formula: C 5 H 5 N
CAS: 110-86-1
State: liquid
Instrument: Bruker Tensor 27 FTIR
Resolution: 0.4821395
Origin: Pacific Northwest National Laboratory Under IARPA Contract
1/cm	dispersion index
7797.62	1.48626
7779.06	1.48626
7760.5	1.48626
7741.94	1.48625
7723.38	1.48625
7704.81	1.48625
7686.25	1.48624
7667.69	1.48624
7649.13	1.48624
7630.57	1.48623
7612.01	1.48623
7593.44	1.48622
7574.88	1.48622
7556.32	1.48621
7537.76	1.48621
7519.2	1.4862
7500.64	1.4862
7482.07	1.48619
7463.51	1.48619
7444.95	1.48619
7426.39	1.48618
7407.83	1.48618
7389.26	1.48617
7370.7	1.48617
7352.14	1.48616
7333.58	1.48616
7315.02	1.48615
7296.46	1.48614
7277.89	1.48614
7259.33	1.48613
7240.77	1.48613
7222.21	1.48612
7203.65	1.48611
7185.09	1.48611
7166.52	1.4861
7147.96	1.48609
7129.4	1.48608
7110.84	1.48607
7092.28	1.48606
7073.71	1.48605
7055.15	1.48604
7036.59	1.48603
7018.03	1.48602
6999.47	1.486
6980.91	1.48598
6962.34	1.48597
6943.78	1.48596
6925.22	1.48593
6906.66	1.48587
6888.1	1.48594
6869.54	1.48609
6850.97	1.48605
6832.41	1.48605
6813.85	1.48606
6795.29	1.48603
6776.73	1.486
6758.16	1.48599
6739.6	1.48598
6721.04	1.48596
6702.48	1.48595
6683.92	1.48593
6665.36	1.48592
6646.79	1.48591
6628.23	1.4859
6609.67	1.48588
6591.11	1.48586
6572.55	1.48585
6553.99	1.48583
6535.42	1.48582
6516.86	1.4858
6498.3	1.48579
6479.74	1.48577
6461.18	1.48575
6442.61	1.48573
6424.05	1.48571
6405.49	1.48569
6386.93	1.48567
6368.37	1.48564
6349.81	1.48562
6331.24	1.48559
6312.68	1.48555
6294.12	1.48551
6275.56	1.48546
6257	1.48539
6238.44	1.48524
6219.87	1.48542
6201.31	1.4854
6182.75	1.48548
6164.19	1.48563
6145.63	1.4854
6127.06	1.48549
6108.5	1.48543
6089.94	1.48537
6071.38	1.48534
6052.82	1.48524
6034.26	1.48518
6015.69	1.4852
5997.13	1.48514
5978.57	1.48496
5960.01	1.48456
5941.45	1.48494
5922.89	1.4858
5904.32	1.48558
5885.76	1.48548
5867.2	1.48538
5848.64	1.48526
5830.08	1.48512
5811.51	1.48501
5792.95	1.4849
5774.39	1.48466
5755.83	1.48491
5737.27	1.48451
5718.71	1.48483
5700.14	1.48461
5681.58	1.48447
5663.02	1.48432
5644.46	1.4842
5625.9	1.48414
5607.34	1.48408
5588.77	1.48399
5570.21	1.48375
5551.65	1.48345
5533.09	1.48302
5514.53	1.48244
5495.96	1.48164
5477.4	1.48045
5458.84	1.47899
5440.28	1.47132
5421.72	1.48339
5403.16	1.49089
5384.59	1.49186
5366.03	1.48938
5347.47	1.48921
5328.91	1.48767
5310.35	1.48728
5291.79	1.48666
5273.22	1.48619
5254.66	1.48575
5236.1	1.48553
5217.54	1.48534
5198.98	1.48508
5180.41	1.48501
5161.85	1.48477
5143.29	1.4845
5124.73	1.48446
5106.17	1.48442
5087.61	1.48389
5069.04	1.48383
5050.48	1.48311
5031.92	1.48367
5013.36	1.48312
4994.8	1.48311
4976.24	1.48252
4957.67	1.48229
4939.11	1.4816
4920.55	1.48059
4901.99	1.47988
4883.43	1.48104
4864.86	1.47939
4846.3	1.48097
4827.74	1.48213
4809.18	1.47999
4790.62	1.47816
4772.06	1.47755
4753.49	1.4749
4734.93	1.47266
4716.37	1.46519
4697.81	1.44633
4679.25	1.50608
4660.69	1.48138
4642.12	1.45175
4623.56	1.42475
4605	1.51574
4586.44	1.49686
4567.88	1.49261
4549.31	1.48564
4530.75	1.48169
4512.19	1.47385
4493.63	1.48422
4475.07	1.46725
4456.51	1.48079
4437.94	1.46442
4419.38	1.46354
4400.82	1.47658
4382.26	1.49535
4363.7	1.48534
4345.14	1.47688
4326.57	1.4701
4308.01	1.45775
4289.45	1.43234
4270.89	1.54006
4252.33	1.3075
4233.76	1.59173
4215.2	1.53511
4196.64	1.56074
4178.08	1.52317
4159.52	1.51364
4140.96	1.50635
4122.39	1.49774
4103.83	1.43179
4085.27	3.07006e-06
4066.71	4.04379e-06
4048.15	4.07356e-06
4029.58	4.92996e-06
4011.02	4.33976e-06
3992.46	4.30999e-06
3973.9	4.75308e-06
3955.34	4.13311e-06
3936.78	5.20141e-07
3918.21	3.54291e-06
3899.65	8.29599e-06
3881.09	4.13311e-06
3862.53	3.57269e-06
3843.97	5.78635e-06
3825.41	1.14238e-05
3806.84	1.35202e-05
3788.28	1.36673e-05
3769.72	1.46725e-05
3751.16	1.42872e-05
3732.6	1.56165e-05
3714.03	1.51734e-05
3695.47	1.55867e-05
3676.91	1.49965e-05
3658.35	1.41401e-05
3639.79	1.52925e-05
3621.23	1.56165e-05
3602.66	1.39335e-05
3584.1	1.41104e-05
3565.54	1.4613e-05
3546.98	1.47006e-05
3528.42	1.49072e-05
3509.86	1.53205e-05
3491.29	1.44361e-05
3472.73	1.38161e-05
3454.17	1.33731e-05
3435.61	1.3254e-05
3417.05	1.33135e-05
3398.48	1.35499e-05
3379.92	1.37268e-05
3361.36	1.45534e-05
3342.8	1.79493e-05
3324.24	2.39125e-05
3305.68	2.56533e-05
3287.11	3.74904e-05
3268.55	9.53522e-05
3249.99	0.000133139
3231.43	0.000133139
3212.87	0.000233803
3194.31	0.000566796
3175.74	0.000676022
3157.18	0.000339488
3138.62	0.000318822
3120.06	0.000225832
3101.5	0.00010893
3082.93	8.50194e-05
3064.37	8.7086e-05
3045.81	7.85256e-05
3027.25	6.58303e-05
3008.69	8.26569e-05
2990.13	7.11455e-05
2971.56	7.9706e-05
2953	5.75658e-05
2934.44	7.43925e-05
2915.88	4.60526e-05
2897.32	3.9853e-05
2878.76	4.7529e-05
2860.19	5.048e-05
2841.63	5.16604e-05
2823.07	5.60894e-05
2804.51	4.98898e-05
2785.95	4.92996e-05
2767.38	5.048e-05
2748.82	5.07759e-05
2730.26	4.66428e-05
2711.7	4.33959e-05
2693.14	4.92996e-05
2674.58	5.01857e-05
2656.01	5.43171e-05
2637.45	5.25465e-05
2618.89	5.72698e-05
2600.33	6.31735e-05
2581.77	8.00002e-05
2563.21	0.000126643
2544.64	0.000210482
2526.08	0.00152917
2507.52	0.00068783
2488.96	0.000593364
2470.4	0.000876762
2451.83	0.000386721
2433.27	0.000383768
2414.71	0.000436905
2396.15	0.000290188
2377.59	0.000298158
2359.03	0.000298158
2340.46	0.000513658
2321.9	0.000646501
2303.34	0.000684879
2284.78	0.000625837
2266.22	0.0010096
2247.66	0.00278675
2229.09	0.00253287
2210.53	0.000808865
2191.97	0.000921042
2173.41	0.000466425
2154.85	0.000236165
2136.28	0.000131957
2117.72	0.000147309
2099.16	0.000201626
2080.6	0.000295206
2062.04	0.000820673
2043.48	0.000425097
2024.91	0.00103322
2006.35	0.000258305
1987.79	0.000363104
1969.23	0.000478234
1950.67	0.000708494
1932.11	0.000997797
1913.54	0.00113949
1894.98	0.000965324
1876.42	0.00070259
1857.86	0.000578604
1839.3	0.000549084
1820.73	0.00073211
1802.17	0.00122806
1783.61	0.00276903
1765.05	0.00475282
1746.49	0.0122215
1727.93	0.0318823
1709.36	0.0436905
1690.8	0.0122806
1672.24	0.00575652
1653.68	0.0058746
1635.12	0.000738016
1616.56	0.000900378
1597.99	0.000439857
1579.43	2.76708e-07
1560.87	0.000105683
1542.31	0.000203988
1523.75	0.000800009
1505.18	0.000363104
1486.62	0.000392624
1468.06	0.000245022
1449.5	0.000404432
1430.94	0.000525467
1412.38	0.00124282
1393.81	8.97428e-05
1375.25	0.000267752
1356.69	0.000354248
1338.13	0.000667166
1319.57	7.02629e-06
1301.01	0.000921042
1282.44	5.72698e-05
1263.88	0.000622884
1245.32	9.85992e-05
1226.76	0.000401481
1208.2	0.00234689
1189.63	0.00640597
1171.07	0.00605172
1152.51	0.00531371
1133.95	0.00805913
1115.39	0.00123101
1096.83	0.000348344
1078.26	0.00442809
1059.7	0.00172695
1041.14	0.00705543
1022.58	0.00767536
1004.02	0.0133433
985.455	0.112178
966.894	0.0038672
948.332	0.00599268
929.77	0.0133433
911.208	0.0285759
892.647	0.0120444
874.085	0.0103913
855.523	0.000876762
836.961	0.00531371
818.399	0.0108636
799.838	0.0120739
781.276	0.0124577
762.714	0.00956468
744.152	0.0134909
725.591	0.0210187
707.029	0.0260077
688.467	0.0228194
669.905	0.010037
651.344	0.0048709
632.782	0.00481186
614.22	0.00469378
595.658	0.0138156
577.096	0.182437
558.535	0.223766
539.973	0.0699638
521.411	0.00864954
502.849	0.122215
484.288	0.00209596
465.726	0.00232918
447.164	0.00475282
428.602	0.0126643
410.041	0.0507754
