Infrared Spectrum: CYCLOHEXENE
Formula: C6 H10
CAS: 110-83-8
State: LIQUID (60 mmHg DILUTED TO A TOTAL PRESSURE OF 600 mmHg WITH NITROGEN)
Class: COBLENTZ
Instrument: DOW KBr FOREPRISM
Instrument parameters: GRATING BLAZED AT 3.5, 12.0, 20.0 MICRONS AND CHANGED AT 5.0, 7.5, 14.9 MICRONS
Sampling: TRANSMISSION
Path length: 5 CM
Resolution: 4
Origin: DOW CHEMICAL COMPANY
1/CM	TRANSMITTANCE
380.352	0.987
389.15	0.988
397.947	0.986
406.745	0.983
415.543	0.977
424.34	0.972
433.138	0.969
441.936	0.964
450.733	0.96
459.531	0.982
468.328	0.99
477.126	1.001
485.924	1
494.721	0.997
503.519	0.993
512.317	0.99
521.114	0.984
529.912	0.976
538.71	0.975
547.507	0.969
556.305	0.976
565.103	0.98
573.9	0.984
582.698	0.979
591.496	0.982
600.293	0.968
609.091	0.929
617.889	0.741
626.686	0.68
635.484	0.458
644.281	0.614
653.079	0.601
661.877	0.541
670.674	0.815
679.472	0.865
688.27	0.942
697.067	0.931
705.865	0.818
714.663	0.88
723.46	0.915
732.258	0.793
741.056	0.909
749.853	0.986
758.651	1
767.449	0.998
776.246	1.006
785.044	1.005
793.841	0.993
802.639	0.975
811.437	0.968
820.234	0.973
829.032	0.99
837.83	1.001
846.627	0.998
855.425	0.969
864.223	0.869
873.02	0.823
881.818	0.825
890.616	0.887
899.413	0.881
908.211	0.822
917.009	0.603
925.806	0.859
934.604	0.88
943.402	0.951
952.199	0.973
960.997	0.973
969.794	0.975
978.592	0.969
987.39	0.954
996.187	0.939
1004.99	0.914
1013.78	0.924
1022.58	0.881
1031.38	0.842
1040.18	0.853
1048.97	0.849
1057.77	0.946
1066.57	0.958
1075.37	0.962
1084.16	0.968
1092.96	0.966
1101.76	0.964
1110.56	0.954
1119.35	0.917
1128.15	0.853
1136.95	0.865
1145.75	0.844
1154.55	0.86
1163.34	0.931
1172.14	0.957
1180.94	0.961
1189.74	0.957
1198.53	0.947
1207.33	0.946
1216.13	0.938
1224.93	0.931
1233.72	0.903
1242.52	0.907
1251.32	0.895
1260.12	0.87
1268.91	0.82
1277.71	0.871
1286.51	0.904
1295.31	0.926
1304.11	0.918
1312.9	0.898
1321.7	0.874
1330.5	0.834
1339.3	0.83
1348.09	0.829
1356.89	0.757
1365.69	0.743
1374.49	0.763
1383.28	0.798
1392.08	0.834
1400.88	0.866
1409.68	0.891
1418.47	0.891
1427.27	0.798
1436.07	0.596
1444.87	0.49
1453.67	0.512
1462.46	0.655
1471.26	0.743
1480.06	0.87
1488.86	0.92
1497.65	0.926
1506.45	0.913
1515.25	0.922
1524.05	0.914
1532.84	0.92
1541.64	0.913
1550.44	0.933
1559.24	0.911
1568.03	0.933
1576.83	0.922
1585.63	0.913
1594.43	0.896
1603.23	0.892
1612.02	0.891
1620.82	0.896
1629.62	0.893
1638.42	0.87
1647.21	0.794
1656.01	0.786
1664.81	0.779
1673.61	0.849
1682.4	0.885
1691.2	0.891
1700	0.895
1708.8	0.91
1717.59	0.898
1726.39	0.907
1735.19	0.903
1743.99	0.906
1752.79	0.911
1761.58	0.917
1770.38	0.922
1779.18	0.922
1787.98	0.92
1796.77	0.924
1805.57	0.932
1814.37	0.931
1823.17	0.928
1831.96	0.926
1840.76	0.933
1849.56	0.932
1858.36	0.928
1867.15	0.92
1875.95	0.91
1884.75	0.907
1893.55	0.903
1902.35	0.918
1911.14	0.922
1919.94	0.92
1928.74	0.925
1937.54	0.926
1946.33	0.926
1955.13	0.931
1963.93	0.932
1972.73	0.933
1981.52	0.931
1990.32	0.931
1999.12	0.933
2007.92	0.936
2016.71	0.938
2025.51	0.939
2034.31	0.9385
2043.11	0.936
2051.91	0.936
2060.7	0.933
2069.5	0.932
2078.3	0.932
2087.1	0.932
2095.89	0.9268
2104.69	0.9268
2113.49	0.926
2122.29	0.9269
2131.08	0.933
2139.88	0.933
2148.68	0.932
2157.48	0.933
2166.27	0.935
2175.07	0.933
2183.87	0.9336
2192.67	0.9296
2201.47	0.9287
2210.26	0.928
2219.06	0.9287
2227.86	0.932
2236.66	0.9315
2245.45	0.931
2254.25	0.929
2263.05	0.9328
2271.85	0.932
2280.64	0.931
2289.44	0.935
2298.24	0.9352
2307.04	0.9334
2315.83	0.9322
2324.63	0.9315
2333.43	0.9347
2342.23	0.936
2351.03	0.9389
2359.82	0.936
2368.62	0.936
2377.42	0.933
2386.22	0.9348
2395.01	0.936
2403.81	0.933
2412.61	0.936
2421.41	0.9429
2430.2	0.944
2439	0.946
2447.8	0.947
2456.6	0.946
2465.39	0.944
2474.19	0.94
2482.99	0.935
2491.79	0.939
2500.59	0.942
2509.38	0.946
2518.18	0.9471
2526.98	0.95
2535.78	0.951
2544.57	0.9531
2553.37	0.955
2562.17	0.9487
2570.97	0.9399
2579.76	0.936
2588.56	0.936
2597.36	0.9404
2606.16	0.9439
2614.95	0.944
2623.75	0.944
2632.55	0.9394
2641.35	0.93
2650.15	0.907
2658.94	0.8539
2667.74	0.8488
2676.54	0.8618
2685.34	0.8949
2694.13	0.9154
2702.93	0.925
2711.73	0.9295
2720.53	0.9335
2729.32	0.9383
2738.12	0.94
2746.92	0.939
2755.72	0.9344
2764.51	0.9228
2773.31	0.9039
2782.11	0.8927
2790.91	0.8817
2799.71	0.878
2808.5	0.8827
2817.3	0.8913
2826.1	0.8433
2834.9	0.5396
2843.69	0.2049
2852.49	0.1183
2861.29	0.1134
2870.09	0.1004
2878.88	0.2042
2887.68	0.2524
2896.48	0.25
2905.28	0.1594
2914.07	0.0588
2922.87	0.0125
2931.67	0.0115
2940.47	0.0125
2949.27	0.017
2958.06	0.0429
2966.86	0.2739
2975.66	0.5969
2984.46	0.6751
2993.25	0.7528
3002.05	0.764
3010.85	0.7562
3019.65	0.4209
3028.44	0.1909
3037.24	0.1712
3046.04	0.1822
3054.84	0.5278
3063.63	0.8164
3072.43	0.819
3081.23	0.8224
3090.03	0.8599
3098.83	0.9253
3107.62	0.942
3116.42	0.9556
3125.22	0.961
3134.02	0.9617
3142.81	0.9647
3151.61	0.966
3160.41	0.966
3169.21	0.966
3178	0.964
3186.8	0.961
3195.6	0.957
3204.4	0.957
3213.19	0.9595
3221.99	0.961
3230.79	0.962
3239.59	0.965
3248.39	0.9664
3257.18	0.966
3265.98	0.965
3274.78	0.9602
3283.58	0.9553
3292.37	0.9473
3301.17	0.947
3309.97	0.951
3318.77	0.955
3327.56	0.962
3336.36	0.966
3345.16	0.966
3353.96	0.966
3362.75	0.966
3371.55	0.965
3380.35	0.964
3389.15	0.9659
3397.95	0.966
3406.74	0.972
3415.54	0.972
3424.34	0.973
3433.14	0.972
3441.93	0.973
3450.73	0.975
3459.53	0.975
3468.33	0.975
3477.12	0.976
3485.92	0.976
3494.72	0.977
3503.52	0.977
3512.32	0.9769
3521.11	0.9759
3529.91	0.971
3538.71	0.9711
3547.51	0.973
3556.3	0.973
3565.1	0.971
3573.9	0.973
3582.7	0.975
3591.49	0.977
3600.29	0.9728
3609.09	0.971
3617.89	0.971
3626.68	0.9688
3635.48	0.972
3644.28	0.9706
3653.08	0.9642
3661.88	0.971
3670.67	0.9618
3679.47	0.9642
3688.27	0.9672
3697.07	0.969
3705.86	0.968
3714.66	0.9657
3723.46	0.9653
3732.26	0.9622
3741.05	0.958
3749.85	0.9547
3758.65	0.963
3767.45	0.9683
3776.24	0.9713
3785.04	0.975
