Infrared Spectrum: 1,5-CYCLOOCTADIENE
Formula: C8 H12
CAS: 111-78-4
Class: COBLENTZ
Instrument: Not specified, most likely a prism, grating, or hybrid spectrometer.
Sampling: TRANSMISSION
Path length: 0.0035 CM
Resolution: 4
MICROMETERS	TRANSMITTANCE
1.018	0.992
1.0579	0.984
1.09781	0.993
1.13771	0.993
1.17762	0.994
1.21752	0.99
1.25742	0.989
1.29733	0.989
1.33723	0.985
1.37714	0.985
1.41704	0.986
1.45695	0.982
1.49685	0.982
1.53675	0.976
1.57666	0.966
1.61656	0.966
1.65647	0.972
1.69637	0.973
1.73627	0.969
1.77618	0.977
1.81608	0.976
1.85599	0.977
1.89589	0.982
1.9358	0.978
1.9757	0.978
2.0156	0.973
2.05551	0.968
2.09541	0.968
2.13532	0.962
2.17522	0.962
2.21512	0.94
2.25503	0.918
2.29493	0.909
2.33484	0.921
2.37474	0.937
2.41465	0.938
2.45455	0.94
2.49445	0.946
2.53436	0.949
2.57426	0.948
2.61417	0.937
2.65407	0.937
2.69397	0.938
2.73388	0.908
2.77378	0.881
2.81369	0.89
2.85359	0.914
2.8935	0.921
2.9334	0.926
2.9733	0.928
3.01321	0.93
3.05311	0.926
3.09302	0.941
3.13292	0.944
3.17282	0.93
3.21273	0.881
3.25263	0.706
3.29254	0.39
3.33244	0.038
3.37235	0.093
3.41225	0.04
3.45215	0.04
3.49206	0.192
3.53196	0.352
3.57187	0.658
3.61177	0.845
3.65167	0.861
3.69158	0.816
3.73148	0.83
3.77139	0.889
3.81129	0.91
3.85119	0.936
3.8911	0.937
3.931	0.929
3.97091	0.93
4.01081	0.937
4.05072	0.942
4.09062	0.934
4.13052	0.93
4.17043	0.941
4.21033	0.937
4.25024	0.938
4.29014	0.936
4.33004	0.945
4.36995	0.95
4.40985	0.944
4.44976	0.94
4.48966	0.948
4.52957	0.949
4.56947	0.945
4.60937	0.936
4.64928	0.936
4.68918	0.945
4.72909	0.946
4.76899	0.95
4.80889	0.944
4.8488	0.941
4.8887	0.953
4.92861	0.954
4.96851	0.952
5.00842	0.945
5.04832	0.932
5.08822	0.925
5.12813	0.94
5.16803	0.933
5.20794	0.934
5.24784	0.933
5.28774	0.924
5.32765	0.924
5.36755	0.937
5.40746	0.938
5.44736	0.93
5.48727	0.928
5.52717	0.921
5.56707	0.932
5.60698	0.912
5.64688	0.885
5.68679	0.909
5.72669	0.925
5.76659	0.924
5.8065	0.917
5.8464	0.902
5.88631	0.864
5.92621	0.813
5.96612	0.754
6.00602	0.602
6.04592	0.501
6.08583	0.717
6.12573	0.781
6.16564	0.802
6.20554	0.832
6.24544	0.893
6.28535	0.916
6.32525	0.928
6.36516	0.921
6.40506	0.917
6.44496	0.924
6.48487	0.925
6.52477	0.913
6.56468	0.878
6.60458	0.84
6.64449	0.724
6.68439	0.548
6.72429	0.201
6.7642	0.546
6.8041	0.688
6.84401	0.654
6.88391	0.516
6.92381	0.462
6.96372	0.305
7.00362	0.137
7.04353	0.365
7.08343	0.666
7.12334	0.785
7.16324	0.82
7.20314	0.842
7.24305	0.84
7.28295	0.826
7.32286	0.776
7.36276	0.705
7.40266	0.758
7.44257	0.822
7.48247	0.832
7.52238	0.821
7.56228	0.802
7.60219	0.821
7.64209	0.842
7.68199	0.848
7.7219	0.848
7.7618	0.841
7.80171	0.825
7.84161	0.774
7.88151	0.669
7.92142	0.685
7.96132	0.774
8.00123	0.77
8.04113	0.72
8.08104	0.594
8.12094	0.56
8.16084	0.697
8.20075	0.716
8.24065	0.486
8.28056	0.416
8.32046	0.638
8.36036	0.712
8.40027	0.708
8.44017	0.826
8.48008	0.856
8.51998	0.873
8.55989	0.884
8.59979	0.885
8.63969	0.877
8.6796	0.874
8.7195	0.881
8.75941	0.873
8.79931	0.866
8.83921	0.884
8.87912	0.89
8.91902	0.886
8.95893	0.884
8.99883	0.882
9.03873	0.874
9.07864	0.852
9.11854	0.812
9.15845	0.73
9.19835	0.582
9.23826	0.462
9.27816	0.558
9.31806	0.688
9.35797	0.784
9.39787	0.825
9.43778	0.84
9.47768	0.852
9.51758	0.862
9.55749	0.854
9.59739	0.848
9.6373	0.845
9.6772	0.852
9.71711	0.848
9.75701	0.828
9.79691	0.805
9.83682	0.752
9.87672	0.652
9.91663	0.49
9.95653	0.362
9.99643	0.361
10.0363	0.421
10.0762	0.496
10.1161	0.584
10.1561	0.688
10.196	0.74
10.2359	0.778
10.2758	0.772
10.3157	0.745
10.3556	0.736
10.3955	0.785
10.4354	0.825
10.4753	0.853
10.5152	0.854
10.5551	0.86
10.595	0.858
10.6349	0.857
10.6748	0.856
10.7147	0.854
10.7546	0.85
10.7945	0.844
10.8344	0.818
10.8743	0.788
10.9142	0.742
10.9541	0.666
10.994	0.612
11.0339	0.602
11.0738	0.648
11.1138	0.701
11.1537	0.736
11.1936	0.774
11.2335	0.801
11.2734	0.824
11.3133	0.85
11.3532	0.864
11.3931	0.873
11.433	0.882
11.4729	0.881
11.5128	0.869
11.5527	0.865
11.5926	0.866
11.6325	0.853
11.6724	0.85
11.7123	0.84
11.7522	0.822
11.7921	0.773
11.832	0.697
11.8719	0.628
11.9118	0.625
11.9517	0.657
11.9916	0.692
12.0315	0.68
12.0715	0.606
12.1114	0.464
12.1513	0.368
12.1912	0.361
12.2311	0.397
12.271	0.434
12.3109	0.46
12.3508	0.458
12.3907	0.436
12.4306	0.328
12.4705	0.2
12.5104	0.12
12.5503	0.13
12.5902	0.197
12.6301	0.332
12.67	0.441
12.7099	0.522
12.7498	0.6
12.7897	0.652
12.8296	0.688
12.8695	0.706
12.9094	0.71
12.9493	0.714
12.9892	0.724
13.0292	0.722
13.0691	0.706
13.109	0.692
13.1489	0.654
13.1888	0.613
13.2287	0.566
13.2686	0.557
13.3085	0.577
13.3484	0.589
13.3883	0.59
13.4282	0.582
13.4681	0.57
13.508	0.553
13.5479	0.528
13.5878	0.49
13.6277	0.444
13.6676	0.389
13.7075	0.308
13.7474	0.25
13.7873	0.19
13.8272	0.12
13.8671	0.11
13.907	0.108
13.9469	0.108
13.9868	0.113
14.0268	0.106
14.0667	0.08
14.1066	0.046
14.1465	0.032
14.1864	0.046
14.2263	0.07
14.2662	0.125
14.3061	0.193
14.346	0.282
14.3859	0.358
14.4258	0.426
14.4657	0.469
14.5056	0.489
14.5455	0.52
14.5854	0.521
14.6253	0.517
14.6652	0.5
14.7051	0.478
14.745	0.46
14.7849	0.432
14.8248	0.398
14.8647	0.362
14.9046	0.305
14.9445	0.25
14.9845	0.192
15.0244	0.144
15.0643	0.138
15.1042	0.129
15.1441	0.114
15.184	0.104
15.2239	0.085
15.2638	0.07
15.3037	0.064
15.3436	0.06
15.3835	0.058
15.4234	0.069
15.4633	0.084
15.5032	0.108
15.5431	0.138
15.583	0.153
15.6229	0.166
15.6628	0.17
15.7027	0.162
15.7426	0.142
15.7825	0.137
15.8224	0.112
15.8623	0.098
15.9022	0.07
