Infrared Spectrum: DI-n-PROPYL ETHER
Formula: C6 H14 O
CAS: 111-43-3
State: LIQUID (25 mmHg DILUTED TO A TOTAL PRESSURE OF 600 mmHg WITH NITROGEN)
Class: COBLENTZ
Instrument: DOW KBr FOREPRISM
Instrument parameters: GRATING BLAZED AT 3.5, 12.0, 20.0 MICRONS AND CHANGED AT 5.0, 7.5, 14.9 MICRONS
Sampling: TRANSMISSION
Path length: 5 CM
Resolution: 4
Origin: DOW CHEMICAL COMPANY
1/CM	TRANSMITTANCE
379.613	1.008
388.4	1.004
397.188	1.004
405.975	1.006
414.762	1.008
423.55	1.006
432.337	1.004
441.125	1.002
449.912	1
458.699	0.998
467.487	0.997
476.274	1.001
485.061	0.998
493.849	0.991
502.636	0.986
511.423	0.987
520.211	0.987
528.998	1
537.786	1.001
546.573	1.002
555.36	1.005
564.148	1.006
572.935	1.012
581.722	1.013
590.51	1.015
599.297	1.017
608.084	1.017
616.872	1.016
625.659	1.019
634.447	1.019
643.234	1.019
652.021	1.02
660.809	1.023
669.596	1.029
678.383	1.026
687.171	1.031
695.958	1.031
704.745	1.034
713.533	1.035
722.32	1.035
731.108	1.034
739.895	1.027
748.682	1.024
757.47	1.023
766.257	1.026
775.044	1.026
783.832	1.03
792.619	1.035
801.406	1.037
810.194	1.038
818.981	1.037
827.769	1.035
836.556	1.034
845.343	1.03
854.131	1.026
862.918	1.022
871.705	1.013
880.493	1.006
889.28	0.994
898.067	0.98
906.855	0.959
915.642	0.947
924.43	0.943
933.217	0.936
942.004	0.917
950.792	0.918
959.579	0.941
968.366	0.975
977.154	0.991
985.941	0.973
994.728	0.93
1003.52	0.813
1012.3	0.774
1021.09	0.856
1029.88	0.921
1038.67	0.933
1047.45	0.921
1056.24	0.89
1065.03	0.893
1073.81	0.865
1082.6	0.735
1091.39	0.67
1100.18	0.648
1108.96	0.572
1117.75	0.409
1126.54	0.159
1135.33	0.125
1144.11	0.272
1152.9	0.601
1161.69	0.764
1170.48	0.871
1179.26	0.926
1188.05	0.964
1196.84	0.983
1205.63	0.984
1214.41	0.982
1223.2	0.975
1231.99	0.951
1240.77	0.922
1249.56	0.907
1258.35	0.911
1267.14	0.925
1275.92	0.934
1284.71	0.936
1293.5	0.932
1302.29	0.939
1311.07	0.958
1319.86	0.986
1328.65	0.986
1337.44	0.903
1346.22	0.874
1355.01	0.835
1363.8	0.726
1372.59	0.704
1381.37	0.728
1390.16	0.777
1398.95	0.921
1407.73	0.959
1416.52	0.959
1425.31	0.965
1434.1	0.957
1442.88	0.911
1451.67	0.847
1460.46	0.769
1469.25	0.737
1478.03	0.781
1486.82	0.893
1495.61	0.957
1504.4	0.977
1513.18	1
1521.97	1.002
1530.76	1.001
1539.55	1
1548.33	1.012
1557.12	1.001
1565.91	1.016
1574.69	1.001
1583.48	1.017
1592.27	1.016
1601.06	1.017
1609.84	1.015
1618.63	1.015
1627.42	1.015
1636.21	1.019
1644.99	1.013
1653.78	1.019
1662.57	1.019
1671.36	1.013
1680.14	1.012
1688.93	1.019
1697.72	1.008
1706.5	1.023
1715.29	1.013
1724.08	1.022
1732.87	1.015
1741.65	1.006
1750.44	0.994
1759.23	0.988
1768.02	0.987
1776.8	1.009
1785.59	1.016
1794.38	1.016
1803.17	1.017
1811.95	1.017
1820.74	1.016
1829.53	1.016
1838.32	1.012
1847.1	1.013
1855.89	1.011
1864.68	1.011
1873.46	1.008
1882.25	1.006
1891.04	1.008
1899.83	1.008
1908.61	1.008
1917.4	1.008
1926.19	1.008
1934.98	1.006
1943.76	1.006
1952.55	1.004
1961.34	1.006
1970.13	1.006
1978.91	1.005
1987.7	1.002
1996.49	1.002
2005.28	1.004
2014.06	1.004
2022.85	1.002
2031.64	1.001
2040.42	1
2049.21	0.997
2058	0.998
2066.79	0.998
2075.57	1
2084.36	1.002
2093.15	1.004
2101.94	1.006
2110.72	1.008
2119.51	1.009
2128.3	1.009
2137.09	1.012
2145.87	1.012
2154.66	1.012
2163.45	1.012
2172.24	1.0091
2181.02	1.009
2189.81	1.009
2198.6	1.009
2207.38	1.011
2216.17	1.011
2224.96	1.011
2233.75	1.012
2242.53	1.013
2251.32	1.011
2260.11	1.009
2268.9	1.011
2277.68	1.011
2286.47	1.012
2295.26	1.013
2304.05	1.0151
2312.83	1.0161
2321.62	1.0197
2330.41	1.024
2339.2	1.0191
2347.98	1.016
2356.77	1.0161
2365.56	1.015
2374.34	1.016
2383.13	1.0151
2391.92	1.013
2400.71	1.013
2409.49	1.015
2418.28	1.016
2427.07	1.016
2435.86	1.016
2444.64	1.016
2453.43	1.016
2462.22	1.0161
2471.01	1.0169
2479.79	1.0169
2488.58	1.0169
2497.37	1.016
2506.16	1.016
2514.94	1.0151
2523.73	1.016
2532.52	1.017
2541.3	1.016
2550.09	1.013
2558.88	1.0112
2567.67	1.006
2576.45	1.0023
2585.24	0.9983
2594.03	0.994
2602.82	0.994
2611.6	0.9967
2620.39	1
2629.18	1
2637.97	0.9983
2646.75	0.9953
2655.54	0.993
2664.33	0.9862
2673.11	0.9792
2681.9	0.9705
2690.69	0.9649
2699.48	0.957
2708.26	0.9444
2717.05	0.9322
2725.84	0.9182
2734.63	0.914
2743.41	0.912
2752.2	0.917
2760.99	0.9182
2769.78	0.9084
2778.56	0.8906
2787.35	0.8396
2796.14	0.766
2804.93	0.7528
2813.71	0.7896
2822.5	0.807
2831.29	0.7838
2840.07	0.6681
2848.86	0.4745
2857.65	0.2697
2866.44	0.1998
2875.22	0.2513
2884.01	0.3194
2892.8	0.3908
2901.59	0.5531
2910.37	0.5839
2919.16	0.5485
2927.95	0.4275
2936.74	0.2975
2945.52	0.246
2954.31	0.265
2963.1	0.277
2971.89	0.2027
2980.67	0.212
2989.46	0.2798
2998.25	0.4603
3007.03	0.8565
3015.82	0.928
3024.61	0.951
3033.4	0.9587
3042.18	0.972
3050.97	0.977
3059.76	0.983
3068.55	0.984
3077.33	0.986
3086.12	0.986
3094.91	0.986
3103.7	0.984
3112.48	0.984
3121.27	0.984
3130.06	0.986
3138.85	0.9867
3147.63	0.988
3156.42	0.988
3165.21	0.987
3173.99	0.987
3182.78	0.9894
3191.57	0.991
3200.36	0.9937
3209.14	0.997
3217.93	0.998
3226.72	0.998
3235.51	1
3244.29	0.998
3253.08	0.998
3261.87	0.998
3270.66	0.998
3279.44	1
3288.23	1
3297.02	1
3305.81	1
3314.59	1
3323.38	0.998
3332.17	0.997
3340.95	0.995
3349.74	0.994
3358.53	0.994
3367.32	0.991
3376.1	0.994
3384.89	0.993
3393.68	0.993
3402.47	0.994
3411.25	0.994
3420.04	0.993
3428.83	0.9934
3437.62	0.9904
3446.4	0.99
3455.19	0.99
3463.98	0.9887
3472.77	0.988
3481.55	0.987
3490.34	0.988
3499.13	0.9892
3507.91	0.99
3516.7	0.987
3525.49	0.9876
3534.28	0.987
3543.06	0.987
3551.85	0.987
3560.64	0.984
3569.43	0.9852
3578.21	0.987
3587	0.983
3595.79	0.982
3604.58	0.98
3613.36	0.98
3622.15	0.979
3630.94	0.979
3639.72	0.98
3648.51	0.977
3657.3	0.9754
3666.09	0.9794
3674.87	0.969
3683.66	0.977
3692.45	0.9713
3701.24	0.977
3710.02	0.976
3718.81	0.9781
3727.6	0.977
3736.39	0.9734
3745.17	0.9691
3753.96	0.962
3762.75	0.976
3771.54	0.975
3780.32	0.975
3789.11	0.976
