Infrared Spectrum: 2-Octanone
Formula: C8 H16 O
CAS: 111-13-7
State: SOLUTION (10% CCl4 FOR 3800-1330, 10% CS2 FOR 1330-450 CM^-^1)
Class: COBLENTZ III
Instrument: DOW KBr FOREPRISM-GRATING
Instrument parameters: BLAZED AT 3.5, 12.0, 20.0 MICRON AND CHANGED AT 5.0, 7.5, 14.9 MICRON
Sampling: TRANSMISSION
Path length: 0.012 CM, 0.011 CM
Resolution: 2
Origin: DOW CHEMICAL COMPANY
1/CM	TRANSMITTANCE
3800	0.8288
3791	0.8293
3782	0.83
3773	0.8296
3764	0.8293
3755	0.829
3746	0.8293
3737	0.8294
3728	0.8293
3719	0.8288
3710	0.8278
3701	0.8254
3692	0.8161
3683	0.8071
3674	0.8128
3665	0.8198
3656	0.8239
3647	0.8248
3638	0.8224
3629	0.8151
3620	0.8155
3611	0.8192
3602	0.8224
3593	0.8233
3584	0.822
3575	0.8174
3566	0.8134
3557	0.811
3548	0.8083
3539	0.8068
3530	0.8062
3521	0.8078
3512	0.8101
3503	0.8122
3494	0.8141
3485	0.8157
3476	0.8174
3467	0.8189
3458	0.8193
3449	0.8158
3440	0.8045
3431	0.7825
3422	0.7684
3413	0.7805
3404	0.7971
3395	0.8106
3386	0.8184
3377	0.8248
3368	0.8282
3359	0.8316
3350	0.8344
3341	0.8363
3332	0.8374
3323	0.8381
3314	0.8386
3305	0.8389
3296	0.839
3287	0.8388
3278	0.8386
3269	0.8383
3260	0.8371
3251	0.8355
3242	0.834
3233	0.8315
3224	0.829
3215	0.8262
3206	0.8234
3197	0.8217
3188	0.8207
3179	0.8205
3170	0.8204
3161	0.82
3152	0.8194
3143	0.818
3134	0.8161
3125	0.8135
3116	0.8105
3107	0.8068
3098	0.8028
3089	0.7967
3080	0.7894
3071	0.7796
3062	0.7686
3053	0.7551
3044	0.7389
3035	0.7219
3026	0.6995
3017	0.6581
3008	0.5616
2999	0.5417
2990	0.4989
2981	0.3395
2972	0.143
2963	0.0154
2954	0.0112
2945	0.032
2936	0.0125
2927	0.0107
2918	0.0527
2909	0.0962
2900	0.1398
2891	0.1832
2882	0.2081
2873	0.0947
2864	0.1054
2855	0.0695
2846	0.331
2837	0.5414
2828	0.6436
2819	0.6889
2810	0.7103
2801	0.7237
2792	0.7551
2783	0.7762
2774	0.7911
2765	0.8019
2756	0.806
2747	0.8045
2738	0.7962
2729	0.8005
2720	0.8104
2711	0.8158
2702	0.8181
2693	0.8162
2684	0.811
2675	0.8081
2666	0.8108
2657	0.8175
2648	0.8223
2639	0.8262
2630	0.8294
2621	0.8327
2612	0.8362
2603	0.8399
2594	0.8389
2585	0.8385
2576	0.8407
2567	0.8423
2558	0.8437
2549	0.8449
2540	0.8462
2531	0.8473
2522	0.8483
2513	0.8492
2504	0.8502
2495	0.8511
2486	0.852
2477	0.8528
2468	0.8535
2459	0.8541
2450	0.8545
2441	0.8548
2432	0.8548
2423	0.8549
2414	0.855
2405	0.8547
2396	0.8542
2387	0.8537
2378	0.8547
2369	0.8604
2360	0.8667
2351	0.8694
2342	0.8691
2333	0.8649
2324	0.859
2315	0.8546
2306	0.8533
2297	0.8534
2288	0.856
2279	0.8575
2270	0.8578
2261	0.8585
2252	0.8594
2243	0.8605
2234	0.8618
2225	0.8636
2216	0.8651
2207	0.8643
2198	0.8637
2189	0.8646
2180	0.8683
2171	0.8668
2162	0.8682
2153	0.8697
2144	0.8709
2135	0.8715
2126	0.8716
2117	0.8716
2108	0.8718
2099	0.8725
2090	0.8736
2081	0.8743
2072	0.8752
2063	0.8766
2054	0.8771
2045	0.8777
2036	0.8793
2027	0.8802
2018	0.8813
2009	0.8825
2000	0.8834
1991	0.8825
1982	0.8812
1973	0.8796
1964	0.8816
1955	0.8762
1946	0.8746
1937	0.8743
1928	0.8758
1919	0.8751
1910	0.8739
1901	0.8721
1892	0.8714
1883	0.8706
1874	0.8699
1865	0.8693
1856	0.8675
1847	0.8654
1838	0.8623
1829	0.8583
1820	0.8534
1811	0.8457
1802	0.8344
1793	0.8196
1784	0.8025
1775	0.781
1766	0.7496
1757	0.7081
1748	0.6224
1739	0.4608
1730	0.1091
1721	0.0002
1712	0.0204
1703	0.2918
1694	0.5573
1685	0.6428
1676	0.6851
1667	0.7584
1658	0.7901
1649	0.8036
1640	0.8131
1631	0.8174
1622	0.8214
1613	0.8242
1604	0.8288
1595	0.8383
1586	0.8485
1577	0.8566
1568	0.861
1559	0.8737
1550	0.8807
1541	0.8594
1532	0.8427
1523	0.8295
1514	0.8128
1505	0.7947
1496	0.7778
1487	0.7489
1478	0.6848
1469	0.2464
1460	0.2769
1451	0.376
1442	0.4348
1433	0.443
1424	0.4128
1415	0.37
1406	0.3466
1397	0.578
1388	0.5938
1379	0.333
1370	0.2392
1361	0.1377
1352	0.2155
1343	0.503
1334	0.6419
1325	0.7058
1316	0.7114
1307	0.7221
1298	0.726
1289	0.7215
1280	0.7043
1271	0.7122
1262	0.7432
1253	0.7534
1244	0.773
1235	0.6905
1226	0.6009
1217	0.6143
1208	0.7139
1199	0.7325
1190	0.711
1181	0.6851
1172	0.4849
1163	0.1756
1154	0.5144
1145	0.7887
1136	0.8545
1127	0.8668
1118	0.8038
1109	0.8025
1100	0.8654
1091	0.9033
1082	0.9088
1073	0.9068
1064	0.897
1055	0.8883
1046	0.9038
1037	0.8894
1028	0.8709
1019	0.8846
1010	0.8762
1001	0.885
992	0.8975
983	0.8913
974	0.8686
965	0.8603
956	0.8093
947	0.7675
938	0.8252
929	0.8915
920	0.9173
911	0.912
902	0.9077
893	0.8984
884	0.9196
875	0.9232
866	0.9271
857	0.9358
848	0.9487
839	0.9498
830	0.9478
821	0.9451
812	0.943
803	0.9425
794	0.9441
785	0.9413
776	0.9277
767	0.9354
758	0.9391
749	0.9183
740	0.8937
731	0.8708
722	0.7885
713	0.7569
704	0.8964
695	0.9304
686	0.9395
677	0.9439
668	0.946
659	0.9394
650	0.9123
641	0.9267
632	0.9262
623	0.9221
614	0.9088
605	0.8725
596	0.7601
587	0.818
578	0.8659
569	0.8846
560	0.8861
551	0.8704
542	0.8416
533	0.8317
524	0.8239
515	0.8261
506	0.8594
497	0.8643
488	0.8625
479	0.8568
470	0.8675
461	0.8907
