Infrared Spectrum: N-HEXYL BROMIDE
Formula: C6 H13 Br
CAS: 111-25-1
State: LIQUID
Class: COBLENTZ
Instrument: Not specified, most likely a prism, grating, or hybrid spectrometer.
Sampling: TRANSMISSION
Path length: 0.0036 CM
Resolution: 4
Origin: CONTINENTAL OIL CO. (HAROLD F. SMITH)
MICROMETERS	TRANSMITTANCE
12.019	0.897
12.0561	0.906
12.0932	0.92
12.1304	0.931
12.1675	0.939
12.2046	0.945
12.2417	0.928
12.2788	0.894
12.3159	0.829
12.3531	0.751
12.3902	0.748
12.4273	0.761
12.4644	0.792
12.5015	0.806
12.5386	0.818
12.5758	0.837
12.6129	0.857
12.65	0.872
12.6871	0.891
12.7242	0.897
12.7614	0.889
12.7985	0.874
12.8356	0.858
12.8727	0.852
12.9098	0.844
12.9469	0.835
12.9841	0.823
13.0212	0.81
13.0583	0.806
13.0954	0.813
13.1325	0.806
13.1696	0.787
13.2068	0.756
13.2439	0.737
13.281	0.706
13.3181	0.686
13.3552	0.677
13.3924	0.686
13.4295	0.708
13.4666	0.711
13.5037	0.711
13.5408	0.717
13.5779	0.705
13.6151	0.655
13.6522	0.595
13.6893	0.517
13.7264	0.424
13.7635	0.342
13.8007	0.288
13.8378	0.251
13.8749	0.246
13.912	0.271
13.9491	0.353
13.9862	0.457
14.0234	0.548
14.0605	0.621
14.0976	0.691
14.1347	0.742
14.1718	0.772
14.2089	0.815
14.2461	0.834
14.2832	0.851
14.3203	0.877
14.3574	0.889
14.3945	0.896
14.4317	0.896
14.4688	0.908
14.5059	0.917
14.543	0.917
14.5801	0.917
14.6172	0.917
14.6544	0.913
14.6915	0.911
14.7286	0.91
14.7657	0.91
14.8028	0.902
14.8399	0.899
14.8771	0.888
14.9142	0.883
14.9513	0.879
14.9884	0.871
15.0255	0.874
15.0627	0.852
15.0998	0.801
15.1369	0.772
15.174	0.748
15.2111	0.71
15.2482	0.672
15.2854	0.61
15.3225	0.551
15.3596	0.46
15.3967	0.4
15.4338	0.303
15.4709	0.238
15.5081	0.209
15.5452	0.178
15.5823	0.172
15.6194	0.176
15.6565	0.21
15.6937	0.251
15.7308	0.302
15.7679	0.395
15.805	0.475
15.8421	0.548
15.8792	0.601
15.9164	0.652
15.9535	0.699
15.9906	0.741
16.0277	0.762
16.0648	0.786
16.102	0.801
16.1391	0.813
16.1762	0.82
16.2133	0.81
16.2504	0.809
16.2875	0.804
16.3247	0.798
16.3618	0.818
16.3989	0.831
16.436	0.84
16.4731	0.84
16.5102	0.858
16.5474	0.86
16.5845	0.868
16.6216	0.875
16.6587	0.872
16.6958	0.888
16.733	0.879
16.7701	0.877
16.8072	0.877
16.8443	0.882
16.8814	0.871
16.9185	0.866
16.9557	0.875
16.9928	0.877
17.0299	0.865
17.067	0.854
17.1041	0.848
17.1412	0.834
17.1784	0.834
17.2155	0.818
17.2526	0.8
17.2897	0.77
17.3268	0.741
17.364	0.708
17.4011	0.675
17.4382	0.613
17.4753	0.553
17.5124	0.496
17.5495	0.441
17.5867	0.389
17.6238	0.328
17.6609	0.297
17.698	0.254
17.7351	0.223
17.7722	0.21
17.8094	0.198
17.8465	0.209
17.8836	0.231
17.9207	0.262
17.9578	0.31
17.995	0.379
18.0321	0.432
18.0692	0.52
18.1063	0.572
18.1434	0.624
18.1805	0.66
18.2177	0.7
18.2548	0.724
18.2919	0.75
18.329	0.768
18.3661	0.779
18.4033	0.793
18.4404	0.8
18.4775	0.81
18.5146	0.82
18.5517	0.824
18.5888	0.831
18.626	0.841
18.6631	0.843
18.7002	0.849
18.7373	0.852
18.7744	0.854
18.8115	0.862
18.8487	0.863
18.8858	0.868
18.9229	0.871
18.96	0.865
18.9971	0.866
19.0343	0.871
19.0714	0.874
19.1085	0.877
19.1456	0.875
19.1827	0.875
19.2198	0.882
19.257	0.888
19.2941	0.886
19.3312	0.894
19.3683	0.899
19.4054	0.906
19.4425	0.905
19.4797	0.91
19.5168	0.908
19.5539	0.908
19.591	0.902
19.6281	0.903
19.6653	0.908
19.7024	0.905
19.7395	0.903
19.7766	0.902
19.8137	0.902
19.8508	0.908
19.888	0.903
19.9251	0.906
19.9622	0.91
19.9993	0.913
20.0364	0.913
20.0735	0.913
20.1107	0.914
20.1478	0.908
20.1849	0.91
20.222	0.911
20.2591	0.91
20.2963	0.9
20.3334	0.894
20.3705	0.897
20.4076	0.886
20.4447	0.883
20.4818	0.888
20.519	0.893
20.5561	0.893
20.5932	0.893
20.6303	0.886
20.6674	0.883
20.7046	0.88
20.7417	0.879
20.7788	0.88
20.8159	0.883
20.853	0.886
20.8901	0.889
20.9273	0.891
20.9644	0.893
21.0015	0.9
21.0386	0.905
21.0757	0.908
21.1128	0.899
21.15	0.902
21.1871	0.902
21.2242	0.902
21.2613	0.902
21.2984	0.9
21.3356	0.897
21.3727	0.897
21.4098	0.902
21.4469	0.91
21.484	0.913
21.5211	0.919
21.5583	0.919
21.5954	0.928
21.6325	0.93
21.6696	0.933
21.7067	0.934
21.7438	0.939
21.781	0.931
21.8181	0.933
21.8552	0.944
21.8923	0.942
21.9294	0.945
21.9666	0.942
22.0037	0.944
22.0408	0.941
22.0779	0.941
22.115	0.941
22.1521	0.937
22.1893	0.933
22.2264	0.925
22.2635	0.919
22.3006	0.92
22.3377	0.919
22.3748	0.919
22.412	0.924
22.4491	0.93
22.4862	0.928
22.5233	0.933
22.5604	0.933
22.5976	0.931
22.6347	0.937
22.6718	0.936
22.7089	0.93
22.746	0.922
22.7831	0.91
22.8203	0.902
22.8574	0.91
22.8945	0.905
22.9316	0.903
22.9687	0.903
23.0058	0.908
23.043	0.92
23.0801	0.925
23.1172	0.931
23.1543	0.931
23.1914	0.933
23.2286	0.933
23.2657	0.941
23.3028	0.942
23.3399	0.941
23.377	0.939
23.4141	0.945
23.4513	0.933
23.4884	0.93
23.5255	0.939
23.5626	0.942
23.5997	0.937
23.6369	0.931
23.674	0.933
23.7111	0.922
23.7482	0.92
23.7853	0.913
23.8224	0.902
23.8596	0.905
23.8967	0.9
23.9338	0.897
23.9709	0.896
24.008	0.893
24.0451	0.894
24.0823	0.905
24.1194	0.902
24.1565	0.891
24.1936	0.889
24.2307	0.891
24.2679	0.88
24.305	0.872
24.3421	0.872
24.3792	0.865
24.4163	0.86
24.4534	0.849
24.4906	0.841
24.5277	0.834
24.5648	0.838
24.6019	0.837
24.639	0.832
24.6761	0.837
24.7133	0.832
24.7504	0.831
24.7875	0.824
24.8246	0.829
24.8617	0.82
24.8989	0.807
24.936	0.792
24.9731	0.787
25.0102	0.778
25.0473	0.768
25.0844	0.762
25.1216	0.756
25.1587	0.758
25.1958	0.751
25.2329	0.761
25.27	0.758
25.3071	0.751
25.3443	0.751
25.3814	0.756
25.4185	0.751
25.4556	0.748
25.4927	0.742
25.5299	0.744
25.567	0.737
25.6041	0.739
25.6412	0.741
25.6783	0.739
25.7154	0.739
25.7526	0.73
25.7897	0.724
25.8268	0.714
25.8639	0.71
25.901	0.703
25.9382	0.697
25.9753	0.691
