Infrared Spectrum: METHYL LAURATE
Formula: C13 H26 O2
CAS: 111-82-0
State: LIQUID
Class: COBLENTZ
Instrument: Not specified, most likely a prism, grating, or hybrid spectrometer.
Sampling: TRANSMISSION
Path length: 0.0025 CM
Resolution: 4
1/CM	TRANSMITTANCE
503.389	0.593
512.425	0.591
521.461	0.586
530.498	0.567
539.534	0.485
548.57	0.389
557.606	0.3739
566.642	0.391
575.678	0.35
584.715	0.377
593.751	0.432
602.787	0.48
611.823	0.529
620.859	0.576
629.895	0.618
638.932	0.664
647.968	0.702
657.004	0.736
666.04	0.764
675.076	0.779
684.112	0.784
693.149	0.788
702.185	0.781
711.221	0.736
720.257	0.557
729.293	0.622
738.329	0.7229
747.366	0.803
756.402	0.834
765.438	0.835
774.474	0.846
783.51	0.863
792.546	0.875
801.583	0.875
810.619	0.866
819.655	0.858
828.691	0.815
837.727	0.789
846.763	0.77
855.8	0.781
864.836	0.764
873.872	0.735
882.908	0.755
891.944	0.83
900.981	0.871
910.017	0.895
919.053	0.902
928.089	0.902
937.125	0.902
946.161	0.9
955.198	0.885
964.234	0.858
973.27	0.815
982.306	0.741
991.342	0.688
1000.38	0.659
1009.41	0.603
1018.45	0.6
1027.49	0.685
1036.52	0.729
1045.56	0.731
1054.6	0.707
1063.63	0.68
1072.67	0.666
1081.7	0.68
1090.74	0.694
1099.78	0.5672
1108.81	0.369
1117.85	0.418
1126.88	0.565
1135.92	0.547
1144.96	0.2801
1153.99	0.131
1163.03	0.064
1172.07	0.075
1181.1	0.136
1190.14	0.087
1199.17	0.107
1208.21	0.158
1217.25	0.205
1226.28	0.206
1235.32	0.201
1244.36	0.198
1253.39	0.208
1262.43	0.312
1271.46	0.376
1280.5	0.403
1289.54	0.449
1298.57	0.447
1307.61	0.459
1316.64	0.459
1325.68	0.507
1334.72	0.517
1343.75	0.461
1352.79	0.384
1361.83	0.358
1370.86	0.415
1379.9	0.4899
1388.93	0.723
1397.97	0.755
1407.01	0.721
1416.04	0.5191
1425.08	0.4391
1434.11	0.119
1443.15	0.259
1452.19	0.205
1461.22	0.167
1470.26	0.4028
1479.3	0.694
1488.33	0.781
1497.37	0.813
1506.4	0.839
1515.44	0.852
1524.48	0.861
1533.51	0.87
1542.55	0.875
1551.58	0.871
1560.62	0.882
1569.66	0.882
1578.69	0.885
1587.73	0.887
1596.77	0.887
1605.8	0.887
1614.84	0.885
1623.87	0.885
1632.91	0.883
1641.95	0.885
1650.98	0.873
1660.02	0.868
1669.06	0.844
1678.09	0.823
1687.13	0.772
1696.16	0.676
1705.2	0.605
1714.24	0.512
1723.27	0.2699
1732.31	0.0321
1741.34	0.013
1750.38	0.052
1759.42	0.268
1768.45	0.5401
1777.49	0.682
1786.53	0.76
1795.56	0.82
1804.6	0.87
1813.63	0.897
1822.67	0.916
1831.71	0.924
1840.74	0.924
1849.78	0.926
1858.81	0.929
1867.85	0.931
1876.89	0.933
1885.92	0.935
1894.96	0.936
1904	0.938
1913.03	0.933
1922.07	0.933
1931.1	0.933
1940.14	0.928
1949.18	0.926
1958.21	0.926
1967.25	0.924
1976.28	0.921
1985.32	0.919
1994.36	0.9
2003.39	0.8368
2012.43	0.9198
2021.47	0.921
2030.5	0.921
2039.54	0.921
2048.57	0.923
2057.61	0.924
2066.65	0.926
2075.68	0.9276
2084.72	0.929
2093.76	0.9356
2102.79	0.9418
2111.83	0.943
2120.86	0.945
2129.9	0.945
2138.94	0.945
2147.97	0.945
2157.01	0.945
2166.04	0.945
2175.08	0.945
2184.12	0.945
2193.15	0.945
2202.19	0.945
2211.23	0.945
2220.26	0.945
2229.3	0.947
2238.33	0.947
2247.37	0.947
2256.41	0.947
2265.44	0.947
2274.48	0.9472
2283.51	0.948
2292.55	0.947
2301.59	0.9455
2310.62	0.945
2319.66	0.943
2328.7	0.943
2337.73	0.943
2346.77	0.943
2355.8	0.945
2364.84	0.945
2373.88	0.945
2382.91	0.945
2391.95	0.945
2400.98	0.945
2410.02	0.943
2419.06	0.943
2428.09	0.941
2437.13	0.9385
2446.17	0.938
2455.2	0.938
2464.24	0.9373
2473.27	0.9355
2482.31	0.9194
2491.35	0.873
2500.38	0.9333
2509.42	0.935
2518.46	0.933
2527.49	0.933
2536.53	0.933
2545.56	0.931
2554.6	0.9287
2563.64	0.925
2572.67	0.9131
2581.71	0.9092
2590.74	0.9038
2599.78	0.9
2608.82	0.897
2617.85	0.895
2626.89	0.894
2635.93	0.8918
2644.96	0.8864
2654	0.8825
2663.03	0.8766
2672.07	0.873
2681.11	0.8782
2690.14	0.88
2699.18	0.884
2708.21	0.883
2717.25	0.88
2726.29	0.8728
2735.32	0.8694
2744.36	0.868
2753.4	0.868
2762.43	0.866
2771.47	0.8589
2780.5	0.8484
2789.54	0.8111
2798.58	0.7779
2807.61	0.7295
2816.65	0.6688
2825.68	0.5564
2834.72	0.3534
2843.76	0.0405
2852.79	0.0194
2861.83	0.0555
2870.87	0.113
2879.9	0.1524
2888.94	0.0946
2897.97	0.0322
2907.01	0.006
2916.05	0.008
2925.08	0.0105
2934.12	0.0144
2943.16	0.0179
2952.19	0.0225
2961.23	0.0884
2970.26	0.2294
2979.3	0.3785
2988.34	0.4642
2997.37	0.5326
3006.41	0.6014
3015.44	0.6521
3024.48	0.6846
3033.52	0.7511
3042.55	0.8086
3051.59	0.8393
3060.63	0.8642
3069.66	0.8819
3078.7	0.8879
3087.73	0.8972
3096.77	0.9095
3105.81	0.9149
3114.84	0.919
3123.88	0.921
3132.91	0.924
3141.95	0.924
3150.99	0.928
3160.02	0.931
3169.06	0.931
3178.1	0.931
3187.13	0.9315
3196.17	0.9339
3205.2	0.9373
3214.24	0.9397
3223.28	0.9411
3232.31	0.945
3241.35	0.945
3250.38	0.945
3259.42	0.945
3268.46	0.945
3277.49	0.945
3286.53	0.945
3295.57	0.945
3304.6	0.9433
3313.64	0.943
3322.67	0.943
3331.71	0.943
3340.75	0.943
3349.78	0.9402
3358.82	0.94
3367.86	0.94
3376.89	0.94
3385.93	0.94
3394.96	0.94
3404	0.94
3413.04	0.9376
3422.07	0.9342
3431.11	0.9318
3440.14	0.9244
3449.18	0.912
3458.22	0.8998
3467.25	0.8982
3476.29	0.9094
3485.33	0.928
3494.36	0.936
3503.4	0.94
3512.43	0.94
3521.47	0.94
3530.51	0.938
3539.54	0.936
3548.58	0.935
3557.61	0.935
3566.65	0.935
3575.69	0.933
3584.72	0.931
3593.76	0.933
3602.8	0.9335
3611.83	0.931
3620.87	0.929
3629.9	0.933
3638.94	0.936
3647.98	0.936
3657.01	0.936
3666.05	0.936
3675.08	0.936
3684.12	0.94
3693.16	0.94
3702.19	0.94
3711.23	0.938
3720.27	0.938
3729.3	0.9402
3738.34	0.9417
3747.37	0.943
3756.41	0.941
3765.45	0.94
3774.48	0.94
3783.52	0.938
3792.56	0.936
3801.59	0.936
3810.63	0.935
3819.66	0.935
3828.7	0.9343
3837.74	0.933
3846.77	0.935
3855.81	0.935
3864.84	0.935
3873.88	0.935
3882.92	0.933
3891.95	0.933
3900.99	0.931
3910.03	0.931
3919.06	0.931
3928.1	0.931
3937.13	0.933
3946.17	0.933
3955.21	0.929
3964.24	0.928
3973.28	0.9249
3982.31	0.923
3991.35	0.923
