Infrared Spectrum: N-OCTYL BROMIDE
Formula: C8 H17 Br
CAS: 111-83-1
State: LIQUID
Class: COBLENTZ
Instrument: Not specified, most likely a prism, grating, or hybrid spectrometer.
Sampling: TRANSMISSION
Path length: 0.0036 CM
Resolution: 4
Origin: CONTINENTAL OIL CO. (HAROLD F. SMITH)
MICROMETERS	TRANSMITTANCE
12.025	0.899
12.0621	0.899
12.0993	0.902
12.1364	0.922
12.1735	0.936
12.2107	0.933
12.2478	0.936
12.2849	0.947
12.3221	0.939
12.3592	0.934
12.3963	0.923
12.4335	0.905
12.4706	0.883
12.5077	0.88
12.5449	0.874
12.582	0.878
12.6191	0.878
12.6563	0.883
12.6934	0.902
12.7305	0.916
12.7677	0.92
12.8048	0.92
12.8419	0.908
12.8791	0.902
12.9162	0.888
12.9533	0.874
12.9905	0.835
13.0276	0.796
13.0647	0.74
13.1019	0.722
13.139	0.701
13.1761	0.686
13.2133	0.675
13.2504	0.681
13.2875	0.712
13.3247	0.72
13.3618	0.723
13.3989	0.725
13.4361	0.708
13.4732	0.69
13.5103	0.664
13.5475	0.635
13.5846	0.6
13.6217	0.585
13.6589	0.571
13.696	0.563
13.7331	0.559
13.7703	0.534
13.8074	0.51
13.8445	0.451
13.8817	0.361
13.9188	0.281
13.9559	0.254
13.9931	0.284
14.0302	0.355
14.0673	0.44
14.1045	0.551
14.1416	0.602
14.1787	0.673
14.2159	0.731
14.253	0.76
14.2901	0.793
14.3273	0.832
14.3644	0.85
14.4015	0.869
14.4387	0.886
14.4758	0.899
14.5129	0.902
14.5501	0.909
14.5872	0.911
14.6243	0.911
14.6615	0.917
14.6986	0.913
14.7357	0.919
14.7729	0.919
14.81	0.919
14.8471	0.925
14.8843	0.916
14.9214	0.909
14.9585	0.9
14.9957	0.891
15.0328	0.892
15.0699	0.88
15.1071	0.869
15.1442	0.83
15.1813	0.801
15.2185	0.782
15.2556	0.726
15.2927	0.673
15.3299	0.614
15.367	0.51
15.4041	0.451
15.4413	0.363
15.4784	0.302
15.5155	0.246
15.5527	0.226
15.5898	0.215
15.6269	0.237
15.6641	0.262
15.7012	0.31
15.7383	0.375
15.7755	0.442
15.8126	0.549
15.8497	0.594
15.8869	0.659
15.924	0.712
15.9611	0.751
15.9983	0.765
16.0354	0.801
16.0725	0.815
16.1097	0.83
16.1468	0.849
16.1839	0.866
16.2211	0.871
16.2582	0.88
16.2953	0.885
16.3325	0.891
16.3696	0.889
16.4067	0.902
16.4439	0.9
16.481	0.9
16.5181	0.903
16.5553	0.899
16.5924	0.906
16.6295	0.902
16.6667	0.9
16.7038	0.9
16.7409	0.902
16.7781	0.903
16.8152	0.902
16.8523	0.899
16.8895	0.895
16.9266	0.892
16.9637	0.891
17.0009	0.892
17.038	0.885
17.0751	0.881
17.1123	0.875
17.1494	0.866
17.1865	0.854
17.2237	0.836
17.2608	0.819
17.2979	0.796
17.3351	0.771
17.3722	0.734
17.4093	0.692
17.4465	0.645
17.4836	0.604
17.5207	0.552
17.5579	0.501
17.595	0.459
17.6321	0.413
17.6693	0.352
17.7064	0.305
17.7435	0.29
17.7807	0.273
17.8178	0.262
17.8549	0.271
17.8921	0.302
17.9292	0.332
17.9663	0.385
18.0035	0.464
18.0406	0.524
18.0777	0.593
18.1149	0.631
18.152	0.675
18.1891	0.718
18.2263	0.743
18.2634	0.767
18.3005	0.782
18.3377	0.795
18.3748	0.815
18.4119	0.826
18.4491	0.841
18.4862	0.846
18.5233	0.846
18.5605	0.861
18.5976	0.866
18.6347	0.874
18.6719	0.877
18.709	0.889
18.7461	0.883
18.7833	0.886
18.8204	0.886
18.8575	0.885
18.8947	0.886
18.9318	0.889
18.9689	0.891
19.0061	0.892
19.0432	0.894
19.0803	0.895
19.1175	0.888
19.1546	0.891
19.1917	0.894
19.2289	0.894
19.266	0.895
19.3031	0.902
19.3403	0.894
19.3774	0.895
19.4145	0.891
19.4517	0.894
19.4888	0.9
19.5259	0.903
19.5631	0.903
19.6002	0.903
19.6373	0.911
19.6745	0.914
19.7116	0.914
19.7487	0.916
19.7859	0.913
19.823	0.911
19.8601	0.903
19.8973	0.913
19.9344	0.909
19.9715	0.914
20.0087	0.909
20.0458	0.916
20.0829	0.909
20.1201	0.917
20.1572	0.911
20.1943	0.917
20.2315	0.919
20.2686	0.914
20.3057	0.925
20.3429	0.928
20.38	0.933
20.4171	0.93
20.4543	0.934
20.4914	0.933
20.5285	0.931
20.5657	0.933
20.6028	0.934
20.6399	0.931
20.6771	0.931
20.7142	0.93
20.7513	0.934
20.7885	0.934
20.8256	0.931
20.8627	0.94
20.8999	0.94
20.937	0.942
20.9741	0.947
21.0113	0.951
21.0484	0.947
21.0855	0.953
21.1227	0.951
21.1598	0.951
21.1969	0.953
21.2341	0.954
21.2712	0.953
21.3083	0.961
21.3455	0.959
21.3826	0.956
21.4197	0.959
21.4569	0.962
21.494	0.962
21.5311	0.964
21.5683	0.965
21.6054	0.959
21.6425	0.956
21.6797	0.962
21.7168	0.964
21.7539	0.962
21.7911	0.961
21.8282	0.962
21.8653	0.956
21.9025	0.962
21.9396	0.954
21.9767	0.959
22.0139	0.964
22.051	0.964
22.0881	0.965
22.1253	0.954
22.1624	0.964
22.1995	0.956
22.2367	0.959
22.2738	0.964
22.3109	0.953
22.3481	0.954
22.3852	0.956
22.4223	0.948
22.4595	0.944
22.4966	0.945
22.5337	0.94
22.5709	0.942
22.608	0.945
22.6451	0.934
22.6823	0.942
22.7194	0.942
22.7565	0.944
22.7937	0.942
22.8308	0.937
22.8679	0.934
22.9051	0.942
22.9422	0.942
22.9793	0.944
23.0165	0.945
23.0536	0.951
23.0907	0.951
23.1279	0.951
23.165	0.956
23.2021	0.948
23.2393	0.951
23.2764	0.95
23.3135	0.953
23.3507	0.958
23.3878	0.953
23.4249	0.944
23.4621	0.945
23.4992	0.947
23.5363	0.951
23.5735	0.942
23.6106	0.936
23.6477	0.937
23.6849	0.936
23.722	0.928
23.7591	0.931
23.7963	0.923
23.8334	0.92
23.8705	0.913
23.9077	0.911
23.9448	0.903
23.9819	0.902
24.0191	0.906
24.0562	0.913
24.0933	0.913
24.1305	0.917
24.1676	0.913
24.2047	0.914
24.2419	0.911
24.279	0.903
24.3161	0.905
24.3533	0.899
24.3904	0.892
24.4275	0.892
24.4647	0.891
24.5018	0.885
24.5389	0.877
24.5761	0.874
24.6132	0.864
24.6503	0.866
24.6875	0.866
24.7246	0.857
24.7617	0.855
24.7989	0.849
24.836	0.835
24.8731	0.824
24.9103	0.819
24.9474	0.813
24.9845	0.807
25.0217	0.79
25.0588	0.771
25.0959	0.765
25.1331	0.765
25.1702	0.767
25.2073	0.76
25.2445	0.757
25.2816	0.757
25.3187	0.759
25.3559	0.763
25.393	0.762
25.4301	0.759
25.4673	0.754
25.5044	0.759
25.5415	0.762
25.5787	0.757
25.6158	0.753
25.6529	0.753
25.6901	0.751
25.7272	0.746
25.7643	0.742
25.8015	0.737
25.8386	0.725
25.8757	0.717
25.9129	0.711
25.95	0.703
25.9871	0.704
