Infrared Spectrum: HEXANE, 1-BROMO
Formula: C6 H13 Br
CAS: 111-25-1
State: SOLUTION (10% IN CCl4 FOR 3800-1333, AND 10% IN CS2 FOR 1333-450 CM^-^1)
Class: COBLENTZ III
Instrument: DOW KBr FOREPRISM-GRATING
Instrument parameters: BLAZED AT 3.5, 12.0, 20.0 MICRON, CHANGED AT 5.0, 7.5, 14.9 MICRON
Sampling: TRANSMISSION
Path length: 0.010, 0.010 CM
Resolution: 4
Origin: DOW CHEMICAL COMPANY
1/CM	TRANSMITTANCE
449.565	0.978
458.261	0.982
466.956	0.986
475.652	0.991
484.348	1
493.043	1.008
501.739	1.014
510.435	1.019
519.13	1.019
527.826	1.016
536.522	1.013
545.217	1.01
553.913	0.982
562.608	0.794
571.304	0.912
580	1.013
588.695	1.025
597.391	1.023
606.087	1.012
614.782	1.004
623.478	1
632.174	0.961
640.869	0.814
649.565	0.786
658.261	0.933
666.956	0.979
675.652	0.979
684.348	0.978
693.043	0.978
701.739	0.97
710.435	0.953
719.13	0.888
727.826	0.776
736.522	0.9
745.217	0.933
753.913	0.925
762.608	0.948
771.304	0.956
780	0.953
788.695	0.959
797.391	0.953
806.087	0.941
814.782	0.929
823.478	0.968
832.174	0.959
840.869	0.915
849.565	0.817
858.261	0.799
866.956	0.826
875.652	0.865
884.348	0.901
893.043	0.937
901.739	0.968
910.435	0.967
919.13	0.97
927.826	0.978
936.522	0.976
945.217	0.961
953.913	0.941
962.609	0.955
971.304	0.959
980	0.959
988.695	0.955
997.391	0.967
1006.09	0.971
1014.78	0.975
1023.48	0.965
1032.17	0.956
1040.87	0.94
1049.57	0.933
1058.26	0.95
1066.96	0.95
1075.65	0.949
1084.35	0.942
1093.04	0.955
1101.74	0.94
1110.43	0.931
1119.13	0.948
1127.83	0.967
1136.52	0.964
1145.22	0.963
1153.91	0.96
1162.61	0.956
1171.3	0.938
1180	0.911
1188.7	0.895
1197.39	0.852
1206.09	0.765
1214.78	0.901
1223.48	0.869
1232.17	0.743
1240.87	0.553
1249.57	0.682
1258.26	0.675
1266.96	0.806
1275.65	0.732
1284.35	0.737
1293.04	0.811
1301.74	0.805
1310.43	0.84
1319.13	0.889
1327.83	0.896
1336.52	0.867
1345.22	0.873
1353.91	0.877
1362.61	0.874
1371.3	0.84
1380	0.697
1388.7	0.889
1397.39	0.915
1406.09	0.915
1414.78	0.904
1423.48	0.871
1432.17	0.696
1440.87	0.655
1449.57	0.64
1458.26	0.467
1466.96	0.444
1475.65	0.757
1484.35	0.837
1493.04	0.831
1501.74	0.802
1510.43	0.76
1519.13	0.728
1527.83	0.689
1536.52	0.617
1545.22	0.527
1553.91	0.516
1562.61	0.594
1571.3	0.674
1580	0.705
1588.7	0.727
1597.39	0.798
1606.09	0.877
1614.78	0.922
1623.48	0.944
1632.17	0.961
1640.87	0.989
1649.57	0.991
1658.26	0.971
1666.96	0.96
1675.65	0.957
1684.35	0.956
1693.04	0.953
1701.74	0.944
1710.43	0.934
1719.13	0.93
1727.83	0.931
1736.52	0.91
1745.22	0.919
1753.91	0.945
1762.61	0.955
1771.3	0.956
1780	0.957
1788.7	0.956
1797.39	0.956
1806.09	0.956
1814.78	0.955
1823.48	0.955
1832.17	0.955
1840.87	0.955
1849.57	0.955
1858.26	0.955
1866.96	0.955
1875.65	0.957
1884.35	0.959
1893.04	0.957
1901.74	0.957
1910.43	0.959
1919.13	0.959
1927.83	0.957
1936.52	0.96
1945.22	0.961
1953.91	0.96
1962.61	0.979
1971.3	0.957
1980	0.957
1988.7	0.956
1997.39	0.964
2006.09	0.9675
2014.78	0.967
2023.48	0.97
2032.17	0.971
2040.87	0.9715
2049.57	0.971
2058.26	0.97
2066.96	0.9688
2075.65	0.978
2084.35	0.978
2093.04	0.976
2101.74	0.976
2110.43	0.978
2119.13	0.975
2127.83	0.975
2136.52	0.974
2145.22	0.972
2153.91	0.971
2162.61	0.971
2171.3	0.97
2180	0.971
2188.7	0.97
2197.39	0.971
2206.09	0.971
2214.78	0.971
2223.48	0.968
2232.17	0.9665
2240.87	0.9638
2249.57	0.961
2258.26	0.959
2266.96	0.956
2275.65	0.9528
2284.35	0.948
2293.04	0.9463
2301.74	0.9482
2310.43	0.949
2319.13	0.9477
2327.83	0.948
2336.52	0.9532
2345.22	0.956
2353.91	0.955
2362.61	0.9564
2371.3	0.963
2380	0.967
2388.7	0.967
2397.39	0.968
2406.09	0.968
2414.78	0.968
2423.48	0.968
2432.17	0.97
2440.87	0.97
2449.57	0.97
2458.26	0.971
2466.96	0.971
2475.65	0.972
2484.35	0.971
2493.04	0.972
2501.74	0.97
2510.43	0.9709
2519.13	0.9701
2527.83	0.97
2536.52	0.968
2545.22	0.967
2553.91	0.9641
2562.61	0.964
2571.3	0.963
2580	0.963
2588.7	0.963
2597.39	0.961
2606.09	0.9574
2614.78	0.956
2623.48	0.956
2632.17	0.957
2640.87	0.955
2649.57	0.9534
2658.26	0.948
2666.96	0.945
2675.65	0.944
2684.35	0.9447
2693.04	0.9474
2701.74	0.95
2710.43	0.9466
2719.13	0.9413
2727.83	0.9316
2736.52	0.931
2745.22	0.9417
2753.91	0.944
2762.61	0.9427
2771.3	0.941
2780	0.9334
2788.7	0.9161
2797.39	0.9058
2806.09	0.8902
2814.78	0.8718
2823.48	0.8431
2832.17	0.7534
2840.87	0.6166
2849.57	0.4559
2858.26	0.2262
2866.96	0.2502
2875.65	0.2404
2884.35	0.43
2893.04	0.4428
2901.74	0.3631
2910.43	0.2732
2919.13	0.139
2927.83	0.0513
2936.52	0.0395
2945.22	0.132
2953.91	0.1048
2962.61	0.0417
2971.3	0.1268
2980	0.2861
2988.7	0.6679
2997.39	0.7568
3006.09	0.7684
3014.78	0.8159
3023.48	0.8937
3032.17	0.9205
3040.87	0.9333
3049.57	0.9407
3058.26	0.952
3066.96	0.9563
3075.65	0.96
3084.35	0.9656
3093.04	0.9703
3101.74	0.9726
3110.43	0.976
3119.13	0.9793
3127.83	0.982
3136.52	0.9828
3145.22	0.982
3153.91	0.985
3162.61	0.986
3171.3	0.986
3180	0.986
3188.7	0.987
3197.39	0.9873
3206.09	0.99
3214.78	0.991
3223.48	0.994
3232.17	0.995
3240.87	0.9971
3249.57	1.001
3258.26	1.002
3266.96	1.0041
3275.65	1.008
3284.35	1.01
3293.04	1.013
3301.74	1.014
3310.43	1.014
3319.13	1.013
3327.83	1.013
3336.52	1.013
3345.22	1.013
3353.91	1.014
3362.61	1.016
3371.3	1.02
3380	1.02
3388.7	1.02
3397.39	1.021
3406.09	1.02
3414.78	1.0161
3423.48	1.014
3432.17	1.012
3440.87	1.01
3449.57	1.008
3458.26	1.008
3466.96	1.0051
3475.65	1.004
3484.35	1.004
3493.04	1.001
3501.74	1
3510.43	0.9984
3519.13	0.998
3527.83	0.997
3536.52	1
3545.22	0.9984
3553.91	0.9955
3562.61	0.995
3571.3	0.9942
3580	0.9947
3588.7	0.993
3597.39	0.991
3606.09	0.9893
3614.78	0.989
3623.48	0.9893
3632.17	0.987
3640.87	0.987
3649.57	0.9883
3658.26	0.99
3666.96	0.99
3675.65	0.991
3684.35	0.9958
3693.04	0.9921
3701.74	0.993
3710.43	0.9918
3719.13	0.9906
3727.83	0.991
3736.52	0.994
3745.22	0.9896
3753.91	0.993
3762.61	0.993
3771.3	0.993
3780	0.9935
3788.7	0.994
3797.39	0.9925
