Infrared Spectrum: DI-n-PROPYL ETHER
Formula: C6 H14 O
CAS: 111-43-3
State: SOLUTION (10% IN CCl4 FOR 3800-1340, 10% IN CS2 FOR 1340-460 CM^-^1)
Class: COBLENTZ III
Instrument: DOW KBr FOREPRISM-GRATING
Instrument parameters: BLAZED AT 3.5, 12.0, 20.0 MICRONS AND CHANGED AT 5.0, 7.5, 14.9 MICRONS
Sampling: TRANSMISSION
Path length: 0.011 CM, 0.011 CM
Resolution: 2
Origin: DOW CHEMICAL COMPANY
1/CM	TRANSMITTANCE
458.501	0.901
467.147	0.909
475.792	0.915
484.438	0.916
493.083	0.911
501.729	0.911
510.374	0.9
519.02	0.893
527.665	0.907
536.311	0.917
544.957	0.934
553.602	0.943
562.248	0.954
570.893	0.963
579.539	0.969
588.184	0.969
596.83	0.971
605.475	0.97
614.121	0.966
622.767	0.967
631.412	0.963
640.058	0.951
648.703	0.928
657.349	0.907
665.994	0.952
674.64	0.959
683.285	0.96
691.931	0.963
700.576	0.963
709.222	0.963
717.868	0.963
726.513	0.958
735.159	0.95
743.804	0.92
752.45	0.88
761.095	0.87
769.741	0.934
778.386	0.916
787.032	0.951
795.678	0.962
804.323	0.959
812.969	0.966
821.614	0.965
830.26	0.955
838.905	0.916
847.551	0.822
856.196	0.772
864.842	0.756
873.488	0.775
882.133	0.765
890.779	0.759
899.424	0.756
908.07	0.631
916.715	0.623
925.361	0.725
934.006	0.631
942.652	0.596
951.298	0.528
959.943	0.777
968.589	0.834
977.234	0.772
985.88	0.827
994.525	0.699
1003.17	0.572
1011.82	0.337
1020.46	0.705
1029.11	0.644
1037.75	0.765
1046.4	0.647
1055.04	0.511
1063.69	0.604
1072.34	0.546
1080.98	0.282
1089.63	0.231
1098.27	0.109
1106.92	0.053
1115.56	0.009
1124.21	0.03
1132.85	0.162
1141.5	0.318
1150.15	0.401
1158.79	0.502
1167.44	0.635
1176.08	0.742
1184.73	0.835
1193.37	0.866
1202.02	0.888
1210.66	0.903
1219.31	0.907
1227.96	0.892
1236.6	0.846
1245.25	0.703
1253.89	0.627
1262.54	0.725
1271.18	0.751
1279.83	0.709
1288.47	0.709
1297.12	0.713
1305.77	0.748
1314.41	0.837
1323.06	0.854
1331.7	0.808
1340.35	0.698
1348.99	0.767
1357.64	0.6969
1366.28	0.327
1374.93	0.405
1383.58	0.3332
1392.22	0.759
1400.87	0.791
1409.51	0.761
1418.16	0.798
1426.8	0.795
1435.45	0.663
1444.09	0.59
1452.74	0.313
1461.39	0.226
1470.03	0.348
1478.68	0.537
1487.32	0.52
1495.97	0.767
1504.61	0.755
1513.26	0.72
1521.9	0.687
1530.55	0.637
1539.2	0.545
1547.84	0.485
1556.49	0.522
1565.13	0.609
1573.78	0.663
1582.42	0.682
1591.07	0.748
1599.71	0.83
1608.36	0.888
1617.01	0.923
1625.65	0.939
1634.3	0.948
1642.94	0.954
1651.59	0.955
1660.23	0.958
1668.88	0.959
1677.52	0.962
1686.17	0.962
1694.82	0.962
1703.46	0.965
1712.11	0.96
1720.75	0.955
1729.4	0.954
1738.04	0.951
1746.69	0.954
1755.33	0.947
1763.98	0.946
1772.63	0.942
1781.27	0.944
1789.92	0.959
1798.56	0.967
1807.21	0.966
1815.85	0.962
1824.5	0.96
1833.14	0.963
1841.79	0.958
1850.44	0.954
1859.08	0.95
1867.73	0.95
1876.37	0.954
1885.02	0.956
1893.66	0.956
1902.31	0.955
1910.95	0.958
1919.6	0.959
1928.25	0.958
1936.89	0.956
1945.54	0.956
1954.18	0.959
1962.83	0.955
1971.47	0.96
1980.12	0.955
1988.76	0.956
1997.41	0.95
2006.05	0.955
2014.7	0.9572
2023.35	0.9567
2031.99	0.9553
2040.64	0.9512
2049.28	0.9445
2057.93	0.9354
2066.57	0.9349
2075.22	0.943
2083.86	0.951
2092.51	0.9541
2101.16	0.9582
2109.8	0.9675
2118.45	0.975
2127.09	0.977
2135.74	0.977
2144.38	0.9775
2153.03	0.977
2161.67	0.977
2170.32	0.9744
2178.97	0.97
2187.61	0.967
2196.26	0.966
2204.9	0.966
2213.55	0.966
2222.19	0.967
2230.84	0.969
2239.48	0.969
2248.13	0.9659
2256.78	0.962
2265.42	0.958
2274.07	0.9557
2282.71	0.954
2291.36	0.9516
2300	0.9545
2308.65	0.958
2317.29	0.9612
2325.94	0.965
2334.59	0.966
2343.23	0.963
2351.88	0.9708
2360.52	0.9768
2369.17	0.977
2377.81	0.977
2386.46	0.9769
2395.1	0.969
2403.75	0.969
2412.4	0.973
2421.04	0.9783
2429.69	0.981
2438.33	0.979
2446.98	0.979
2455.62	0.979
2464.27	0.979
2472.91	0.979
2481.56	0.979
2490.21	0.979
2498.85	0.979
2507.5	0.979
2516.14	0.979
2524.79	0.978
2533.43	0.978
2542.08	0.9768
2550.72	0.971
2559.37	0.9683
2568.02	0.9571
2576.66	0.94
2585.31	0.919
2593.95	0.9101
2602.6	0.914
2611.24	0.9246
2619.89	0.935
2628.53	0.936
2637.18	0.932
2645.83	0.9242
2654.47	0.9121
2663.12	0.8882
2671.76	0.88
2680.41	0.881
2689.05	0.8592
2697.7	0.8103
2706.34	0.7589
2714.99	0.7327
2723.64	0.7168
2732.28	0.695
2740.93	0.7237
2749.57	0.712
2758.22	0.7147
2766.86	0.7
2775.51	0.611
2784.15	0.4785
2792.8	0.3662
2801.45	0.3173
2810.09	0.5099
2818.74	0.4451
2827.38	0.3612
2836.03	0.1997
2844.67	0.0583
2853.32	0.0104
2861.96	0.0172
2870.61	0.02
2879.26	0.0289
2887.9	0.1644
2896.55	0.1776
2905.19	0.1607
2913.84	0.1041
2922.48	0.0351
2931.13	0.01
2939.77	0.0161
2948.42	0.0374
2957.07	0.0082
2965.71	0.004
2974.36	0.014
2983	0.1005
2991.65	0.4237
3000.29	0.6235
3008.94	0.7325
3017.58	0.7988
3026.23	0.8291
3034.88	0.855
3043.52	0.8754
3052.17	0.8925
3060.81	0.9046
3069.46	0.9116
3078.1	0.9184
3086.75	0.9247
3095.39	0.928
3104.04	0.931
3112.69	0.932
3121.33	0.9339
3129.98	0.934
3138.62	0.9351
3147.27	0.9381
3155.91	0.942
3164.56	0.942
3173.2	0.943
3181.85	0.9468
3190.5	0.9514
3199.14	0.956
3207.79	0.9625
3216.43	0.9656
3225.08	0.967
3233.72	0.9697
3242.37	0.973
3251.01	0.9767
3259.66	0.978
3268.31	0.979
3276.95	0.979
3285.6	0.982
3294.24	0.983
3302.89	0.985
3311.53	0.985
3320.18	0.985
3328.82	0.986
3337.47	0.987
3346.12	0.987
3354.76	0.99
3363.41	0.991
3372.05	0.991
3380.7	0.991
3389.34	0.9925
3397.99	0.993
3406.63	0.993
3415.28	0.993
3423.93	0.993
3432.57	0.993
3441.22	0.993
3449.86	0.993
3458.51	0.9926
3467.15	0.987
3475.8	0.989
3484.44	0.993
3493.09	0.993
3501.74	0.9895
3510.38	0.989
3519.03	0.99
3527.67	0.9924
3536.32	0.995
3544.96	0.998
3553.61	0.998
3562.25	0.9952
3570.9	0.9891
3579.55	0.986
3588.19	0.993
3596.84	0.9899
3605.48	0.989
3614.13	0.993
3622.77	0.993
3631.42	0.993
3640.06	0.993
3648.71	0.992
3657.36	0.9945
3666	0.994
3674.65	0.987
3683.29	0.9796
3691.94	0.9841
3700.58	0.99
3709.23	0.991
3717.87	0.991
3726.52	0.989
3735.17	0.991
3743.81	0.99
3752.46	0.9874
3761.1	0.991
3769.75	0.989
3778.39	0.989
3787.04	0.99
3795.68	0.989
3804.33	0.987
