Infrared Spectrum: Caprylic acid, methyl ester
Formula: C9 H18 O2
CAS: 111-11-5
State: SOLUTION (10% CCl4 FOR 2-7.6, 10% CS2 FOR 7.6-16 MICRON)
Boiling point: 61 C AT 5 mmHg
Class: COBLENTZ III
Instrument: BAIRD (GRATING)
Instrument parameters: NaCl PRISM
Sampling: TRANSMISSION
Path length: 0.012 CM, AND 0.012 CM
Resolution: 2
Origin: DOW CHEMICAL COMPANY
1/CM	TRANSMITTANCE
4000	0.8901
3991	0.8895
3982	0.8908
3973	0.8905
3964	0.8906
3955	0.8906
3946	0.8905
3937	0.8904
3928	0.8903
3919	0.8895
3910	0.8901
3901	0.8909
3892	0.89
3883	0.89
3874	0.8905
3865	0.8909
3856	0.8911
3847	0.8913
3838	0.8922
3829	0.893
3820	0.8938
3811	0.8943
3802	0.8947
3793	0.8954
3784	0.8945
3775	0.8936
3766	0.8932
3757	0.8923
3748	0.8911
3739	0.8907
3730	0.8906
3721	0.8899
3712	0.89
3703	0.8907
3694	0.89
3685	0.8899
3676	0.8906
3667	0.8907
3658	0.8898
3649	0.8873
3640	0.8849
3631	0.8831
3622	0.8805
3613	0.8779
3604	0.8752
3595	0.8724
3586	0.8697
3577	0.8669
3568	0.8632
3559	0.8602
3550	0.8576
3541	0.8543
3532	0.8497
3523	0.8435
3514	0.8407
3505	0.8394
3496	0.8389
3487	0.8389
3478	0.8402
3469	0.844
3460	0.8494
3451	0.8523
3442	0.8543
3433	0.8547
3424	0.8541
3415	0.8531
3406	0.8521
3397	0.8521
3388	0.8522
3379	0.8525
3370	0.8528
3361	0.8521
3352	0.8518
3343	0.8513
3334	0.8502
3325	0.8492
3316	0.849
3307	0.849
3298	0.8489
3289	0.8483
3280	0.8474
3271	0.8467
3262	0.8457
3253	0.8447
3244	0.8434
3235	0.8426
3226	0.841
3217	0.8405
3208	0.8388
3199	0.8381
3190	0.8364
3181	0.8346
3172	0.8327
3163	0.8313
3154	0.8284
3145	0.8249
3136	0.8223
3127	0.8181
3118	0.8129
3109	0.807
3100	0.801
3091	0.7945
3082	0.784
3073	0.7758
3064	0.762
3055	0.7423
3046	0.7115
3037	0.664
3028	0.6214
3019	0.5616
3010	0.5267
3001	0.4617
2992	0.3624
2983	0.2532
2974	0.1433
2965	0.0685
2956	0.0532
2947	0.0519
2938	0.0616
2929	0.0962
2920	0.1444
2911	0.1929
2902	0.2377
2893	0.2403
2884	0.2249
2875	0.2452
2866	0.3793
2857	0.5185
2848	0.718
2839	0.7529
2830	0.7745
2821	0.7913
2812	0.8046
2803	0.8176
2794	0.8284
2785	0.8342
2776	0.8364
2767	0.8374
2758	0.8385
2749	0.84
2740	0.843
2731	0.8464
2722	0.8487
2713	0.8494
2704	0.8489
2695	0.8494
2686	0.8509
2677	0.8538
2668	0.8566
2659	0.8593
2650	0.862
2641	0.8659
2632	0.8702
2623	0.8741
2614	0.878
2605	0.8814
2596	0.8846
2587	0.8878
2578	0.8907
2569	0.8937
2560	0.894
2551	0.8941
2542	0.8944
2533	0.8958
2524	0.897
2515	0.8976
2506	0.8981
2497	0.8979
2488	0.8977
2479	0.8988
2470	0.9002
2461	0.9017
2452	0.8995
2443	0.8982
2434	0.8983
2425	0.8983
2416	0.8978
2407	0.8972
2398	0.8946
2389	0.8897
2380	0.885
2371	0.8842
2362	0.8817
2353	0.8831
2344	0.8852
2335	0.8888
2326	0.8942
2317	0.8972
2308	0.8994
2299	0.9024
2290	0.9057
2281	0.9071
2272	0.9081
2263	0.909
2254	0.9097
2245	0.9123
2236	0.9135
2227	0.9099
2218	0.9088
2209	0.911
2200	0.9118
2191	0.9101
2182	0.9085
2173	0.9078
2164	0.9078
2155	0.9097
2146	0.9096
2137	0.9085
2128	0.9072
2119	0.9052
2110	0.9018
2101	0.8988
2092	0.8957
2083	0.8926
2074	0.8894
2065	0.8862
2056	0.8857
2047	0.8863
2038	0.8875
2029	0.8871
2020	0.8875
2011	0.8887
2002	0.8911
1993	0.8929
1984	0.8942
1975	0.8953
1966	0.8977
1957	0.9001
1948	0.9009
1939	0.9028
1930	0.9046
1921	0.9042
1912	0.903
1903	0.9019
1894	0.9001
1885	0.8972
1876	0.8943
1867	0.8926
1858	0.8892
1849	0.8848
1840	0.8784
1831	0.8672
1822	0.8489
1813	0.8211
1804	0.7826
1795	0.7391
1786	0.6715
1777	0.5387
1768	0.3846
1759	0.2073
1750	0.0536
1741	0.0466
1732	0.1607
1723	0.3775
1714	0.5754
1705	0.6349
1696	0.7177
1687	0.7722
1678	0.7979
1669	0.818
1660	0.8215
1651	0.8223
1642	0.827
1633	0.8211
1624	0.8042
1615	0.7818
1606	0.7341
1597	0.6726
1588	0.6762
1579	0.664
1570	0.6169
1561	0.5742
1552	0.6032
1543	0.7045
1534	0.7164
1525	0.7137
1516	0.7281
1507	0.7638
1498	0.7448
1489	0.7053
1480	0.4934
1471	0.236
1462	0.2764
1453	0.3064
1444	0.2271
1435	0.4853
1426	0.5602
1417	0.6684
1408	0.735
1399	0.723
1390	0.525
1381	0.4557
1372	0.4068
1363	0.3758
1354	0.455
1345	0.5183
1336	0.5382
1327	0.4771
1318	0.4739
1309	0.463
1300	0.4624
1291	0.4661
1282	0.4283
1273	0.3339
1264	0.2462
1255	0.2097
1246	0.2362
1237	0.2338
1228	0.2033
1219	0.1809
1210	0.1319
1201	0.1229
1192	0.1725
1183	0.1446
1174	0.0612
1165	0.0601
1156	0.2156
1147	0.4311
1138	0.5396
1129	0.5306
1120	0.3976
1111	0.3127
1102	0.3958
1093	0.601
1084	0.643
1075	0.6585
1066	0.6439
1057	0.6401
1048	0.6271
1039	0.5799
1030	0.5836
1021	0.5781
1012	0.5828
1003	0.6007
994	0.6385
985	0.7462
976	0.8152
967	0.8577
958	0.8686
949	0.8763
940	0.8567
931	0.8375
922	0.8147
913	0.7866
904	0.782
895	0.7568
886	0.6914
877	0.6581
868	0.6436
859	0.6214
850	0.6319
841	0.671
832	0.7156
823	0.7616
814	0.7728
805	0.7533
796	0.7482
787	0.7531
778	0.7575
769	0.753
760	0.7561
751	0.736
742	0.7212
733	0.6583
724	0.5844
715	0.6618
706	0.6625
697	0.6457
688	0.6333
679	0.6066
670	0.563
661	0.5239
652	0.4744
643	0.4306
634	0.394
