Infrared Spectrum: 1-Octene
Formula: C8 H16
CAS: 111-66-0
State: LIQUID (NEAT)
Class: COBLENTZ III
Instrument: BECKMAN IR-12 (GRATING)
Instrument parameters: GRATING
Sampling: TRANSMISSION
Path length: 0.010 CM
Resolution: 2
Origin: COLGATE-PALMOLIVE COMPANY (KELLENBACH)
1/CM	TRANSMITTANCE
403	0.7652
412	0.793
421	0.8289
430	0.8503
439	0.8384
448	0.8636
457	0.9072
466	0.9439
475	0.95
484	0.942
493	0.946
502	0.9682
511	0.9664
520	0.9611
529	0.9546
538	0.9055
547	0.7043
556	0.617
565	0.7667
574	0.8619
583	0.903
592	0.8934
601	0.8425
610	0.7228
619	0.4519
628	0.2164
637	0.1996
646	0.3788
655	0.6168
664	0.7295
673	0.8226
682	0.8637
691	0.8654
700	0.8379
709	0.7545
718	0.3593
727	0.2127
736	0.5171
745	0.6703
754	0.6083
763	0.6547
772	0.7682
781	0.7955
790	0.7641
799	0.7952
808	0.7533
817	0.7254
826	0.7706
835	0.7634
844	0.6698
853	0.641
862	0.6235
871	0.5082
880	0.2264
889	0.1069
898	0.0147
907	0
916	0.0088
925	0.2058
934	0.3614
943	0.489
952	0.5185
961	0.3836
970	0.2226
979	0.0615
988	0.0068
997	0.0166
1006	0.1987
1015	0.4435
1024	0.5634
1033	0.5774
1042	0.573
1051	0.5273
1060	0.5878
1069	0.6297
1078	0.6427
1087	0.6933
1096	0.7155
1105	0.5945
1114	0.5944
1123	0.6988
1132	0.6857
1141	0.6735
1150	0.7296
1159	0.7617
1168	0.7926
1177	0.788
1186	0.7434
1195	0.7281
1204	0.7327
1213	0.7398
1222	0.7015
1231	0.7767
1240	0.765
1249	0.7062
1258	0.6554
1267	0.5798
1276	0.6397
1285	0.564
1294	0.486
1303	0.5252
1312	0.5869
1321	0.5827
1330	0.5627
1339	0.4308
1348	0.4326
1357	0.4687
1366	0.3553
1375	0.0588
1384	0.4386
1393	0.5095
1402	0.382
1411	0.1465
1420	0.2017
1429	0.0601
1438	0.017
1447	0.01
1456	0.0001
1465	0.0001
1474	0.2317
1483	0.4889
1492	0.6036
1501	0.6705
1510	0.7088
1519	0.7303
1528	0.7456
1537	0.7408
1546	0.7533
1555	0.7717
1564	0.8097
1573	0.8338
1582	0.8358
1591	0.8273
1600	0.7937
1609	0.6721
1618	0.6272
1627	0.3061
1636	0.01
1645	0.2649
1654	0.7017
1663	0.7693
1672	0.8163
1681	0.8396
1690	0.8478
1699	0.837
1708	0.8808
1717	0.8881
1726	0.8967
1735	0.9037
1744	0.9125
1753	0.9133
1762	0.9184
1771	0.9173
1780	0.9067
1789	0.8919
1798	0.8438
1807	0.5526
1816	0.4062
1825	0.6287
1834	0.7898
1843	0.8662
1852	0.899
1861	0.9177
1870	0.9148
1879	0.9097
1888	0.9048
1897	0.9123
1906	0.925
1915	0.9247
1924	0.9271
1933	0.9342
1942	0.9352
1951	0.9271
1960	0.9009
1969	0.8635
1978	0.8631
1987	0.8806
1996	0.912
2005	0.9187
2014	0.9156
2023	0.9081
2032	0.9053
2041	0.9074
2050	0.9124
2059	0.9183
2068	0.9227
2077	0.9227
2086	0.9228
2095	0.9274
2104	0.9277
2113	0.9276
2122	0.927
2131	0.9252
2140	0.9217
2149	0.9172
2158	0.9142
2167	0.9121
2176	0.9103
2185	0.9099
2194	0.9102
2203	0.9119
2212	0.9117
2221	0.9125
2230	0.9134
2239	0.9103
2248	0.9045
2257	0.8979
2266	0.8931
2275	0.893
2284	0.894
2293	0.8956
2302	0.8979
2311	0.8998
2320	0.8956
2329	0.8904
2338	0.8877
2347	0.8868
2356	0.8873
2365	0.8892
2374	0.8945
2383	0.9026
2392	0.91
2401	0.9101
2410	0.9072
2419	0.904
2428	0.9032
2437	0.9053
2446	0.909
2455	0.9121
2464	0.9134
2473	0.9113
2482	0.9069
2491	0.9021
2500	0.8966
2509	0.8886
2518	0.8715
2527	0.8664
2536	0.8532
2545	0.8318
2554	0.8185
2563	0.8067
2572	0.7967
2581	0.7884
2590	0.7806
2599	0.7656
2608	0.7521
2617	0.7391
2626	0.727
2635	0.7108
2644	0.6784
2653	0.6474
2662	0.6406
2671	0.6458
2680	0.6831
2689	0.6943
2698	0.6819
2707	0.6549
2716	0.5905
2725	0.5787
2734	0.6158
2743	0.6311
2752	0.6253
2761	0.6028
2770	0.5475
2779	0.4639
2788	0.36
2797	0.2639
2806	0.1858
2815	0.1015
2824	0.0212
2833	0.0079
2842	0.0027
2851	0
2860	0
2869	0
2878	0
2887	0
2896	0
2905	0
2914	0
2923	0
2932	0
2941	0
2950	0
2959	0
2968	0
2977	0.0092
2986	0.0174
2995	0.0398
3004	0.2233
3013	0.287
3022	0.3429
3031	0.3325
3040	0.23
3049	0.1274
3058	0.0542
3067	0.0147
3076	0.1347
3085	0.4643
3094	0.6154
3103	0.6934
3112	0.7258
3121	0.7483
3130	0.7639
3139	0.775
3148	0.784
3157	0.7919
3166	0.7991
3175	0.8063
3184	0.8162
3193	0.8379
3202	0.8554
3211	0.8713
3220	0.8839
3229	0.8941
3238	0.9009
3247	0.9019
3256	0.9
3265	0.9019
3274	0.9175
3283	0.9224
3292	0.9243
3301	0.9249
3310	0.9243
3319	0.9224
3328	0.9205
3337	0.92
3346	0.9203
3355	0.9213
3364	0.9224
3373	0.9233
3382	0.9245
3391	0.926
3400	0.9267
3409	0.9261
3418	0.9252
3427	0.9252
3436	0.9271
3445	0.929
3454	0.9311
3463	0.932
3472	0.932
3481	0.9319
3490	0.9319
3499	0.9324
3508	0.933
3517	0.9335
3526	0.9343
3535	0.9351
3544	0.9359
3553	0.9377
3562	0.9381
3571	0.9362
3580	0.9322
3589	0.9265
3598	0.9192
3607	0.9122
3616	0.9072
3625	0.9077
3634	0.9123
3643	0.9096
3652	0.9111
3661	0.9132
3670	0.9127
3679	0.9121
3688	0.9092
3697	0.9082
3706	0.911
3715	0.9136
3724	0.9114
3733	0.9005
3742	0.8994
3751	0.9039
3760	0.9044
3769	0.9046
3778	0.9046
3787	0.9047
3796	0.9093
3805	0.9095
3814	0.9054
3823	0.902
3832	0.8994
3841	0.898
3850	0.8944
3859	0.8922
3868	0.8908
3877	0.8896
3886	0.8885
3895	0.8873
3904	0.8861
3913	0.885
3922	0.884
3931	0.8816
3940	0.874
3949	0.8622
3958	0.8564
3967	0.8539
3976	0.8513
3985	0.8433
3994	0.8359
