Infrared Spectrum: Naphthalene, 1-ethyl-
Formula: C12 H12
CAS: 1127-76-0
State: SOLUTION (10% CCl4 FOR 3800-1335, 10% CS2 FOR 1335-450 CM^-^1)
Class: COBLENTZ III
Instrument: DOW KBr FOREPRISM-GRATING
Instrument parameters: BLAZED AT 3.5, 12.0, 20.0 MICRON AND CHANGED AT 5.0, 7.5, 14.9 MICRON
Sampling: TRANSMISSION
Path length: 0.011 CM, 0.011 CM
Resolution: 2
Origin: DOW CHEMICAL COMPANY
1/CM	TRANSMITTANCE
451	0.7772
460	0.7528
469	0.7246
478	0.4702
487	0.6999
496	0.8681
505	0.8727
514	0.8715
523	0.8643
532	0.8279
541	0.8559
550	0.8647
559	0.8492
568	0.898
577	0.8822
586	0.8829
595	0.9073
604	0.9078
613	0.895
622	0.8414
631	0.8878
640	0.8388
649	0.8274
658	0.8363
667	0.8861
676	0.8584
685	0.8483
694	0.7822
703	0.8476
712	0.8506
721	0.8212
730	0.6337
739	0.4053
748	0.6432
757	0.6643
766	0.5216
775	0.0316
784	0.0903
793	0.151
802	0.5176
811	0.4382
820	0.6425
829	0.8001
838	0.7875
847	0.5455
856	0.4992
865	0.7146
874	0.742
883	0.6143
892	0.7559
901	0.831
910	0.863
919	0.8659
928	0.8582
937	0.8338
946	0.7137
955	0.7253
964	0.8082
973	0.8459
982	0.8661
991	0.8623
1000	0.8241
1009	0.7567
1018	0.748
1027	0.8032
1036	0.8576
1045	0.8311
1054	0.6929
1063	0.8092
1072	0.8365
1081	0.8148
1090	0.8513
1099	0.874
1108	0.8717
1117	0.8573
1126	0.7537
1135	0.8307
1144	0.7998
1153	0.8029
1162	0.7218
1171	0.7907
1180	0.8551
1189	0.8583
1198	0.8435
1207	0.8258
1216	0.838
1225	0.8592
1234	0.8456
1243	0.8347
1252	0.7978
1261	0.7343
1270	0.7207
1279	0.8445
1288	0.8518
1297	0.846
1306	0.8113
1315	0.7535
1324	0.7695
1333	0.8292
1342	0.8344
1351	0.8034
1360	0.8084
1369	0.774
1378	0.6775
1387	0.7332
1396	0.6268
1405	0.7542
1414	0.8049
1423	0.8042
1432	0.7669
1441	0.714
1450	0.6395
1459	0.5457
1468	0.5724
1477	0.7544
1486	0.7532
1495	0.7033
1504	0.6419
1513	0.2974
1522	0.5957
1531	0.5769
1540	0.5245
1549	0.454
1558	0.4607
1567	0.5532
1576	0.5855
1585	0.572
1594	0.5321
1603	0.5327
1612	0.7768
1621	0.7896
1630	0.75
1639	0.7738
1648	0.8289
1657	0.8299
1666	0.8237
1675	0.812
1684	0.8146
1693	0.8097
1702	0.8264
1711	0.8393
1720	0.8338
1729	0.8331
1738	0.8227
1747	0.8253
1756	0.8149
1765	0.8134
1774	0.8198
1783	0.8323
1792	0.81
1801	0.7927
1810	0.8148
1819	0.8268
1828	0.8142
1837	0.8342
1846	0.829
1855	0.826
1864	0.8066
1873	0.8395
1882	0.8415
1891	0.8296
1900	0.8133
1909	0.8008
1918	0.7819
1927	0.7963
1936	0.806
1945	0.7972
1954	0.8425
1963	0.8534
1972	0.8547
1981	0.8542
1990	0.8527
1999	0.8498
2008	0.8562
2017	0.8576
2026	0.8556
2035	0.8554
2044	0.8559
2053	0.8566
2062	0.8576
2071	0.8588
2080	0.8601
2089	0.8614
2098	0.8621
2107	0.8622
2116	0.8624
2125	0.8623
2134	0.8622
2143	0.8621
2152	0.8622
2161	0.8623
2170	0.8628
2179	0.8634
2188	0.8641
2197	0.8653
2206	0.865
2215	0.8632
2224	0.8615
2233	0.8597
2242	0.8588
2251	0.8586
2260	0.8578
2269	0.8565
2278	0.8533
2287	0.8473
2296	0.8434
2305	0.8464
2314	0.848
2323	0.847
2332	0.8436
2341	0.8505
2350	0.8563
2359	0.8605
2368	0.8646
2377	0.8669
2386	0.8683
2395	0.8685
2404	0.868
2413	0.8664
2422	0.8649
2431	0.8658
2440	0.8709
2449	0.8728
2458	0.873
2467	0.873
2476	0.8733
2485	0.8735
2494	0.8735
2503	0.8735
2512	0.8736
2521	0.8738
2530	0.8741
2539	0.8745
2548	0.875
2557	0.8756
2566	0.8763
2575	0.8763
2584	0.8761
2593	0.8752
2602	0.8741
2611	0.873
2620	0.8717
2629	0.8702
2638	0.8706
2647	0.8731
2656	0.8755
2665	0.8759
2674	0.8752
2683	0.874
2692	0.8724
2701	0.8702
2710	0.8682
2719	0.8664
2728	0.8652
2737	0.8688
2746	0.8699
2755	0.8682
2764	0.8661
2773	0.8636
2782	0.8619
2791	0.8618
2800	0.8633
2809	0.8556
2818	0.8435
2827	0.8264
2836	0.8052
2845	0.7775
2854	0.7381
2863	0.6891
2872	0.5454
2881	0.4888
2890	0.5896
2899	0.6223
2908	0.6151
2917	0.5862
2926	0.5502
2935	0.3735
2944	0.5103
2953	0.5125
2962	0.3411
2971	0.1212
2980	0.2648
2989	0.639
2998	0.6579
3007	0.6345
3016	0.6208
3025	0.6137
3034	0.5655
3043	0.5006
3052	0.4218
3061	0.3923
3070	0.4353
3079	0.5854
3088	0.7233
3097	0.7473
3106	0.7856
3115	0.8486
3124	0.8644
3133	0.8685
3142	0.87
3151	0.8711
3160	0.8711
3169	0.8699
3178	0.868
3187	0.8746
3196	0.8803
3205	0.8811
3214	0.8812
3223	0.8829
3232	0.8845
3241	0.8866
3250	0.8887
3259	0.8904
3268	0.892
3277	0.8928
3286	0.8937
3295	0.8946
3304	0.8956
3313	0.8966
3322	0.8967
3331	0.8966
3340	0.8966
3349	0.8966
3358	0.8965
3367	0.8964
3376	0.8963
3385	0.8962
3394	0.8961
3403	0.8959
3412	0.8957
3421	0.8955
3430	0.8954
3439	0.8951
3448	0.8949
3457	0.8946
3466	0.8943
3475	0.894
3484	0.8939
3493	0.8939
3502	0.8938
3511	0.8936
3520	0.8932
3529	0.8926
3538	0.8922
3547	0.8916
3556	0.8911
3565	0.8906
3574	0.8901
3583	0.8896
3592	0.8893
3601	0.8889
3610	0.8876
3619	0.886
3628	0.8849
3637	0.8841
3646	0.8851
3655	0.8866
3664	0.8885
3673	0.8897
3682	0.8853
3691	0.8813
3700	0.8835
3709	0.8866
3718	0.89
3727	0.8917
3736	0.8905
3745	0.8886
3754	0.8876
3763	0.8867
3772	0.8874
3781	0.8881
3790	0.8888
3799	0.8896
