Infrared Spectrum: Diethylene glycol butyl ether
Formula: C 8 H 18 O 3
CAS: 112-34-5
State: liquid
Instrument: Bruker Tensor 37 FTIR
Resolution: 0.48211906
Origin: Pacific Northwest National Laboratory Under IARPA Contract
1/cm	dispersion index
7797.44	1.4182
7778.88	1.4182
7760.32	1.41818
7741.76	1.41817
7723.2	1.41816
7704.64	1.41815
7686.08	1.41813
7667.52	1.41812
7648.96	1.4181
7630.39	1.41809
7611.83	1.41807
7593.27	1.41805
7574.71	1.41804
7556.15	1.41802
7537.59	1.418
7519.03	1.41799
7500.47	1.41797
7481.91	1.41796
7463.35	1.41794
7444.78	1.41792
7426.22	1.4179
7407.66	1.41789
7389.1	1.41787
7370.54	1.41786
7351.98	1.41784
7333.42	1.41782
7314.86	1.41781
7296.3	1.41779
7277.74	1.41777
7259.18	1.41775
7240.61	1.41773
7222.05	1.41771
7203.49	1.41768
7184.93	1.41766
7166.37	1.41763
7147.81	1.41761
7129.25	1.41758
7110.69	1.41755
7092.13	1.41753
7073.57	1.4175
7055	1.41747
7036.44	1.41745
7017.88	1.41742
6999.32	1.41738
6980.76	1.41735
6962.2	1.41732
6943.64	1.41728
6925.08	1.41724
6906.52	1.4172
6887.96	1.41716
6869.39	1.41711
6850.83	1.41706
6832.27	1.41703
6813.71	1.41701
6795.15	1.417
6776.59	1.41698
6758.03	1.41696
6739.47	1.41693
6720.91	1.41689
6702.35	1.41684
6683.78	1.41679
6665.22	1.41675
6646.66	1.4167
6628.1	1.41665
6609.54	1.4166
6590.98	1.41654
6572.42	1.41648
6553.86	1.41642
6535.3	1.41635
6516.74	1.41629
6498.17	1.41622
6479.61	1.41615
6461.05	1.41608
6442.49	1.41601
6423.93	1.41593
6405.37	1.41584
6386.81	1.41575
6368.25	1.41566
6349.69	1.41557
6331.13	1.4155
6312.57	1.41544
6294	1.41536
6275.44	1.41526
6256.88	1.41515
6238.32	1.41503
6219.76	1.41489
6201.2	1.41475
6182.64	1.41459
6164.08	1.41442
6145.52	1.41422
6126.96	1.41397
6108.39	1.41367
6089.83	1.41353
6071.27	1.41363
6052.71	1.41377
6034.15	1.4136
6015.59	1.41338
5997.03	1.4131
5978.47	1.41292
5959.91	1.41256
5941.35	1.41228
5922.78	1.41206
5904.22	1.41195
5885.66	1.41183
5867.1	1.41146
5848.54	1.41094
5829.98	1.41033
5811.42	1.4097
5792.86	1.40894
5774.3	1.40803
5755.74	1.40689
5737.17	1.4054
5718.61	1.40315
5700.05	1.4001
5681.49	1.39666
5662.93	1.3936
5644.37	1.39622
5625.81	1.40412
5607.25	1.41203
5588.69	1.41705
5570.13	1.41957
5551.57	1.42055
5533	1.42021
5514.44	1.41861
5495.88	1.41612
5477.32	1.41298
5458.76	1.40916
5440.2	1.40437
5421.64	1.39761
5403.08	1.3853
5384.52	1.34967
5365.96	1.39795
5347.39	1.41659
5328.83	1.46928
5310.27	1.46341
5291.71	1.45134
5273.15	1.44227
5254.59	1.4391
5236.03	1.43631
5217.47	1.43279
5198.91	1.43056
5180.35	1.42899
5161.78	1.42737
5143.22	1.42619
5124.66	1.42519
5106.1	1.42423
5087.54	1.4233
5068.98	1.42232
5050.42	1.42146
5031.86	1.42069
5013.3	1.42001
4994.74	1.4192
4976.17	1.41855
4957.61	1.41796
4939.05	1.4174
4920.49	1.41649
4901.93	1.41553
4883.37	1.41483
4864.81	1.41506
4846.25	1.41408
4827.69	1.41279
4809.13	1.41138
4790.56	1.4099
4772	1.40835
4753.44	1.40714
4734.88	1.40493
4716.32	1.40251
4697.76	1.39942
4679.2	1.39512
4660.64	1.38799
4642.08	1.37034
4623.52	1.4058
4604.96	1.39226
4586.39	1.3926
4567.83	1.40383
4549.27	1.38931
4530.71	1.38511
4512.15	1.38759
4493.59	1.35259
4475.03	1.25252
4456.47	1.4373
4437.91	1.46392
4419.35	1.52146
4400.78	1.4999
4382.22	1.48055
4363.66	1.46342
4345.1	1.46267
4326.54	1.47151
4307.98	1.47043
4289.42	1.46064
4270.86	1.44706
4252.3	1.44512
4233.74	1.43993
4215.17	1.4386
4196.61	1.43956
4178.05	1.44689
4159.49	1.45689
4140.93	1.46554
4122.37	1.47012
4103.81	1.47946
4085.25	5.55181e-05
4066.69	5.41288e-05
4048.13	5.21702e-05
4029.56	5.1539e-05
4011	4.8318e-05
3992.44	4.33287e-05
3973.88	4.23804e-05
3955.32	4.2255e-05
3936.76	4.2634e-05
3918.2	4.38965e-05
3899.64	5.17912e-05
3881.08	5.77288e-05
3862.52	6.50557e-05
3843.95	8.08466e-05
3825.39	0.000100426
3806.83	0.000109268
3788.27	0.000118111
3769.71	0.000119375
3751.15	0.000137059
3732.59	0.000164849
3714.03	0.000202115
3695.47	0.000210325
3676.91	0.00020401
3658.35	0.000198325
3639.78	0.00019643
3621.22	0.000194536
3602.66	0.000186957
3584.1	0.000179376
3565.54	0.000167376
3546.98	0.000152849
3528.42	0.000140217
3509.86	0.000125059
3491.3	0.000112427
3472.74	0.000104215
3454.17	9.6636e-05
3435.61	9.78999e-05
3417.05	0.000103584
3398.49	0.000108005
3379.93	0.000109268
3361.37	0.00010232
3342.81	9.03194e-05
3324.25	7.95827e-05
3305.69	6.50557e-05
3287.13	5.7602e-05
3268.56	5.29917e-05
3250	4.64863e-05
3231.44	4.43389e-05
3212.88	4.45911e-05
3194.32	5.10966e-05
3175.76	8.27403e-05
3157.2	0.000246958
3138.64	0.000433284
3120.08	0.000566553
3101.52	0.000637925
3082.95	0.000618977
3064.39	0.000591185
3045.83	0.000511603
3027.27	0.000406756
3008.71	0.000334753
2990.15	0.000324015
2971.59	0.000310752
2953.03	0.000281066
2934.47	0.000246327
2915.91	0.000210957
2897.34	0.000168008
2878.78	0.000140848
2860.22	0.000121901
2841.66	0.00011748
2823.1	0.000128216
2804.54	0.000140217
2785.98	0.000148429
2767.42	0.000156008
2748.86	0.000146534
2730.3	0.000142743
2711.74	0.000150322
2693.17	0.000192641
2674.61	0.000272223
2656.05	0.000432651
2637.49	0.000610765
2618.93	0.000650557
2600.37	0.000591817
2581.81	0.000490128
2563.25	0.000386544
2544.69	0.000299382
2526.13	0.000245065
2507.56	0.0002198
2489	0.000222957
2470.44	0.000240012
2451.88	0.000279803
2433.32	0.000428862
2414.76	0.00110531
2396.2	0.00284855
2377.64	0.00466127
2359.08	0.00436442
2340.52	0.00341069
2321.95	0.00279171
2303.39	0.00252643
2284.83	0.00281697
2266.27	0.00241275
2247.71	0.00336647
2229.15	0.00397282
2210.59	0.00488233
2192.03	0.00441494
2173.47	0.00296856
2154.91	0.00193272
2136.34	0.00146533
2117.78	0.00140217
2099.22	0.00115584
2080.66	0.00116216
2062.1	0.00116216
2043.54	0.0014527
2024.98	0.00248222
2006.42	0.00909516
1987.86	0.0234958
1969.3	0.0572237
1950.74	0.11369
1932.17	0.156007
1913.61	0.16106
1895.05	0.142112
1876.49	0.117479
1857.93	0.0928465
1839.37	0.0694769
1820.81	0.0488233
1802.25	0.03297
1783.69	0.02198
1765.13	0.0152849
1746.56	0.012569
1728	0.0136427
1709.44	0.0209694
1690.88	0.0852672
1672.32	0.394755
1653.76	0.373281
1635.2	0.581712
1616.64	0.168639
1598.08	0.0827407
1579.52	0.043202
1560.95	0.0375176
1542.39	0.0226747
1523.83	0.01219
1505.27	0.0105479
1486.71	0.00846355
1468.15	0.00650557
1449.59	0.00622766
1431.03	0.00540025
1412.47	0.00424441
1393.91	0.00324647
1375.34	0.00257696
1356.78	0.00227379
1338.22	0.00312646
1319.66	0.00303172
1301.1	0.00313278
1282.54	0.00406124
1263.98	0.00442126
1245.42	0.00441494
1226.86	0.00331594
1208.3	0.00389071
1189.73	0.00688453
1171.17	0.00877936
1152.61	0.00352438
1134.05	0.00120006
1115.49	0.000330331
1096.93	0.000795827
1078.37	0.00209062
1059.81	0.0048697
1041.25	0.00241906
1022.69	0.00355596
1004.13	0.00492023
985.564	0.00663189
967.003	0.0114321
948.442	0.0369491
929.881	0.288014
911.32	0.118742
892.759	0.169271
874.198	0.253907
855.637	0.132006
837.076	0.152849
818.515	0.180008
799.954	0.0802143
781.393	0.23559
762.832	1.52218
744.271	0.833723
725.71	0.585501
707.149	0.272855
688.588	0.210957
670.027	0.134533
651.467	0.214115
632.906	0.153481
614.345	0.154744
595.784	0.0477496
577.223	0.0523604
558.662	0.0546973
540.101	0.0846355
521.54	0.125059
502.979	0.165481
484.418	0.217905
465.857	0.238116
447.296	0.205273
428.735	0.18443
410.174	0.161692
