Infrared Spectrum: TETRADECANE, 1-BROMO-
Formula: C14 H29 Br
CAS: 112-71-0
State: SOLUTION (10% IN CCl4 FOR 3800-1333, AND 10% IN CS2 FOR 1333-450 CM^-^1)
Class: COBLENTZ III
Instrument: DOW KBr FOREPRISM-GRATING
Instrument parameters: BLAZED AT 3.5, 12.0, 20.0 MICRON, CHANGED AT 5.0, 7.5, 14.9 MICRON
Sampling: TRANSMISSION
Path length: 0.011, 0.010 CM
Resolution: 4
Origin: DOW CHEMICAL COMPANY
1/CM	TRANSMITTANCE
450.407	1.008
459.098	1.008
467.789	1.005
476.48	1.008
485.171	1.009
493.862	1.009
502.553	1.014
511.244	1.012
519.935	1.014
528.626	1.012
537.317	1.008
546.007	1.005
554.698	0.991
563.389	0.884
572.08	0.944
580.771	1.016
589.462	1.021
598.153	1.024
606.844	1.014
615.535	1.01
624.226	1.004
632.917	0.98
641.608	0.885
650.299	0.84
658.99	0.949
667.681	0.96
676.372	0.964
685.063	0.967
693.754	0.96
702.445	0.94
711.136	0.885
719.827	0.753
728.517	0.803
737.208	0.88
745.899	0.908
754.59	0.923
763.281	0.938
771.972	0.948
780.663	0.949
789.354	0.95
798.045	0.949
806.736	0.955
815.427	0.96
824.118	0.96
832.809	0.946
841.5	0.918
850.191	0.839
858.882	0.814
867.573	0.84
876.264	0.871
884.955	0.904
893.646	0.935
902.337	0.959
911.027	0.967
919.718	0.972
928.409	0.978
937.1	0.982
945.791	0.98
954.482	0.976
963.173	0.971
971.864	0.974
980.555	0.98
989.246	0.982
997.937	0.982
1006.63	0.979
1015.32	0.975
1024.01	0.968
1032.7	0.963
1041.39	0.957
1050.08	0.956
1058.77	0.957
1067.46	0.959
1076.16	0.95
1084.85	0.959
1093.54	0.968
1102.23	0.976
1110.92	0.98
1119.61	0.979
1128.3	0.978
1136.99	0.975
1145.68	0.965
1154.37	0.972
1163.07	0.972
1171.76	0.968
1180.45	0.953
1189.14	0.946
1197.83	0.912
1206.52	0.881
1215.21	0.87
1223.9	0.84
1232.59	0.835
1241.28	0.797
1249.97	0.758
1258.67	0.772
1267.36	0.786
1276.05	0.817
1284.74	0.821
1293.43	0.822
1302.12	0.818
1310.81	0.85
1319.5	0.884
1328.19	0.899
1336.88	0.88
1345.58	0.869
1354.27	0.837
1362.96	0.828
1371.65	0.801
1380.34	0.731
1389.03	0.886
1397.72	0.904
1406.41	0.907
1415.1	0.903
1423.79	0.876
1432.48	0.735
1441.18	0.652
1449.87	0.644
1458.56	0.426
1467.25	0.336
1475.94	0.783
1484.63	0.848
1493.32	0.839
1502.01	0.813
1510.7	0.769
1519.39	0.727
1528.09	0.681
1536.78	0.604
1545.47	0.512
1554.16	0.5
1562.85	0.573
1571.54	0.663
1580.23	0.686
1588.92	0.719
1597.61	0.795
1606.3	0.871
1614.99	0.919
1623.69	0.944
1632.38	0.955
1641.07	0.957
1649.76	0.96
1658.45	0.963
1667.14	0.964
1675.83	0.964
1684.52	0.965
1693.21	0.965
1701.9	0.965
1710.6	0.964
1719.29	0.967
1727.98	0.967
1736.67	0.967
1745.36	0.968
1754.05	0.968
1762.74	0.967
1771.43	0.968
1780.12	0.967
1788.81	0.967
1797.5	0.967
1806.2	0.964
1814.89	0.964
1823.58	0.964
1832.27	0.963
1840.96	0.964
1849.65	0.961
1858.34	0.961
1867.03	0.961
1875.72	0.965
1884.41	0.967
1893.11	0.965
1901.8	0.967
1910.49	0.967
1919.18	0.968
1927.87	0.968
1936.56	0.97
1945.25	0.971
1953.94	0.97
1962.63	0.967
1971.32	0.967
1980.01	0.971
1988.71	0.97
1997.4	0.9789
2006.09	0.978
2014.78	0.9785
2023.47	0.98
2032.16	0.9795
2040.85	0.978
2049.54	0.979
2058.23	0.978
2066.92	0.9773
2075.62	0.9854
2084.31	0.985
2093	0.9856
2101.69	0.983
2110.38	0.985
2119.07	0.985
2127.76	0.985
2136.45	0.985
2145.14	0.983
2153.83	0.98
2162.52	0.98
2171.22	0.98
2179.91	0.979
2188.6	0.979
2197.29	0.979
2205.98	0.979
2214.67	0.978
2223.36	0.9787
2232.05	0.9757
2240.74	0.9734
2249.43	0.9717
2258.13	0.9695
2266.82	0.9637
2275.51	0.9597
2284.2	0.957
2292.89	0.959
2301.58	0.96
2310.27	0.9614
2318.96	0.9617
2327.65	0.9638
2336.34	0.9669
2345.03	0.968
2353.73	0.9792
2362.42	0.98
2371.11	0.979
2379.8	0.978
2388.49	0.978
2397.18	0.9781
2405.87	0.978
2414.56	0.979
2423.25	0.979
2431.94	0.979
2440.64	0.9791
2449.33	0.979
2458.02	0.979
2466.71	0.978
2475.4	0.978
2484.09	0.976
2492.78	0.975
2501.47	0.974
2510.16	0.972
2518.85	0.972
2527.54	0.972
2536.24	0.971
2544.93	0.97
2553.62	0.97
2562.31	0.97
2571	0.965
2579.69	0.963
2588.38	0.961
2597.07	0.959
2605.76	0.956
2614.45	0.952
2623.15	0.952
2631.84	0.948
2640.53	0.9451
2649.22	0.941
2657.91	0.937
2666.6	0.9312
2675.29	0.927
2683.98	0.9297
2692.67	0.9339
2701.36	0.94
2710.05	0.94
2718.75	0.937
2727.44	0.933
2736.13	0.935
2744.82	0.937
2753.51	0.9353
2762.2	0.9332
2770.89	0.929
2779.58	0.9204
2788.27	0.8976
2796.96	0.8826
2805.66	0.8598
2814.35	0.8271
2823.04	0.7857
2831.73	0.6935
2840.42	0.4957
2849.11	0.1118
2857.8	0.0215
2866.49	0.1571
2875.18	0.2931
2883.87	0.3306
2892.56	0.1974
2901.26	0.0966
2909.95	0.056
2918.64	0.0169
2927.33	0.01
2936.02	0.0137
2944.71	0.0431
2953.4	0.0963
2962.09	0.1136
2970.78	0.305
2979.47	0.5513
2988.17	0.7055
2996.86	0.7814
3005.55	0.7976
3014.24	0.8299
3022.93	0.8822
3031.62	0.9116
3040.31	0.9256
3049	0.9362
3057.69	0.945
3066.38	0.9547
3075.07	0.959
3083.77	0.9627
3092.46	0.9675
3101.15	0.9705
3109.84	0.9745
3118.53	0.975
3127.22	0.974
3135.91	0.977
3144.6	0.977
3153.29	0.978
3161.98	0.979
3170.68	0.979
3179.37	0.98
3188.06	0.982
3196.75	0.983
3205.44	0.983
3214.13	0.986
3222.82	0.989
3231.51	0.987
3240.2	0.989
3248.89	0.991
3257.58	0.9918
3266.28	0.991
3274.97	0.993
3283.66	0.9934
3292.35	0.994
3301.04	0.994
3309.73	0.994
3318.42	0.995
3327.11	0.994
3335.8	0.9933
3344.49	0.993
3353.19	0.993
3361.88	0.993
3370.57	0.993
3379.26	0.993
3387.95	0.994
3396.64	0.995
3405.33	0.9937
3414.02	0.994
3422.71	0.995
3431.4	0.995
3440.09	0.994
3448.79	0.995
3457.48	0.995
3466.17	0.995
3474.86	0.995
3483.55	0.997
3492.24	0.995
3500.93	0.995
3509.62	0.997
3518.31	0.997
3527	0.995
3535.7	0.997
3544.39	0.9967
3553.08	0.995
3561.77	0.9949
3570.46	0.994
3579.15	0.994
3587.84	0.9928
3596.53	0.9899
3605.22	0.987
3613.91	0.9888
3622.6	0.9869
3631.3	0.9859
3639.99	0.989
3648.68	0.987
3657.37	0.989
3666.06	0.989
3674.75	0.989
3683.44	0.99
3692.13	0.99
3700.82	0.99
3709.51	0.99
3718.21	0.991
3726.9	0.993
3735.59	0.993
3744.28	0.993
3752.97	0.993
3761.66	0.993
3770.35	0.994
3779.04	0.993
3787.73	0.991
3796.42	0.991
