Infrared Spectrum: N-DECYL BROMIDE
Formula: C10 H21 Br
CAS: 112-29-8
State: LIQUID
Class: COBLENTZ
Instrument: Not specified, most likely a prism, grating, or hybrid spectrometer.
Sampling: TRANSMISSION
Path length: 0.0036 CM
Resolution: 4
Origin: CONTINENTAL OIL CO. (HAROLD F. SMITH)
MICROMETERS	TRANSMITTANCE
12.019	0.914
12.0562	0.917
12.0933	0.912
12.1305	0.909
12.1677	0.911
12.2048	0.915
12.242	0.925
12.2792	0.933
12.3163	0.922
12.3535	0.931
12.3907	0.928
12.4278	0.919
12.465	0.904
12.5022	0.895
12.5394	0.884
12.5765	0.878
12.6137	0.881
12.6509	0.89
12.688	0.9
12.7252	0.909
12.7624	0.919
12.7995	0.909
12.8367	0.908
12.8739	0.894
12.911	0.881
12.9482	0.87
12.9854	0.85
13.0225	0.834
13.0597	0.825
13.0969	0.814
13.134	0.82
13.1712	0.82
13.2084	0.809
13.2455	0.809
13.2827	0.802
13.3199	0.789
13.3571	0.75
13.3942	0.719
13.4314	0.686
13.4686	0.668
13.5057	0.651
13.5429	0.641
13.5801	0.632
13.6172	0.605
13.6544	0.579
13.6916	0.554
13.7287	0.52
13.7659	0.482
13.8031	0.445
13.8402	0.412
13.8774	0.375
13.9146	0.316
13.9517	0.269
13.9889	0.272
14.0261	0.322
14.0632	0.394
14.1004	0.475
14.1376	0.562
14.1748	0.633
14.2119	0.693
14.2491	0.739
14.2863	0.771
14.3234	0.809
14.3606	0.827
14.3978	0.861
14.4349	0.869
14.4721	0.889
14.5093	0.9
14.5464	0.904
14.5836	0.912
14.6208	0.917
14.6579	0.922
14.6951	0.925
14.7323	0.931
14.7694	0.919
14.8066	0.914
14.8438	0.917
14.8809	0.914
14.9181	0.914
14.9553	0.909
14.9924	0.903
15.0296	0.89
15.0668	0.897
15.104	0.878
15.1411	0.844
15.1783	0.831
15.2155	0.799
15.2526	0.753
15.2898	0.707
15.327	0.64
15.3641	0.563
15.4013	0.475
15.4385	0.401
15.4756	0.33
15.5128	0.299
15.55	0.269
15.5871	0.272
15.6243	0.285
15.6615	0.33
15.6986	0.397
15.7358	0.461
15.773	0.531
15.8101	0.615
15.8473	0.672
15.8845	0.728
15.9217	0.752
15.9588	0.789
15.996	0.805
16.0332	0.825
16.0703	0.841
16.1075	0.858
16.1447	0.864
16.1818	0.878
16.219	0.883
16.2562	0.895
16.2933	0.894
16.3305	0.897
16.3677	0.9
16.4048	0.895
16.442	0.9
16.4792	0.901
16.5163	0.906
16.5535	0.906
16.5907	0.903
16.6278	0.903
16.665	0.903
16.7022	0.901
16.7394	0.901
16.7765	0.898
16.8137	0.904
16.8509	0.901
16.888	0.901
16.9252	0.9
16.9624	0.903
16.9995	0.901
17.0367	0.894
17.0739	0.884
17.111	0.881
17.1482	0.87
17.1854	0.862
17.2225	0.842
17.2597	0.833
17.2969	0.803
17.334	0.774
17.3712	0.744
17.4084	0.71
17.4455	0.68
17.4827	0.638
17.5199	0.601
17.557	0.54
17.5942	0.496
17.6314	0.451
17.6686	0.401
17.7057	0.359
17.7429	0.328
17.7801	0.314
17.8172	0.319
17.8544	0.339
17.8916	0.373
17.9287	0.423
17.9659	0.478
18.0031	0.565
18.0402	0.615
18.0774	0.671
18.1146	0.704
18.1517	0.741
18.1889	0.757
18.2261	0.781
18.2632	0.8
18.3004	0.811
18.3376	0.833
18.3747	0.833
18.4119	0.841
18.4491	0.85
18.4863	0.852
18.5234	0.853
18.5606	0.864
18.5978	0.869
18.6349	0.872
18.6721	0.873
18.7093	0.873
18.7464	0.875
18.7836	0.884
18.8208	0.876
18.8579	0.88
18.8951	0.881
18.9323	0.873
18.9694	0.881
19.0066	0.889
19.0438	0.887
19.0809	0.89
19.1181	0.89
19.1553	0.897
19.1924	0.901
19.2296	0.895
19.2668	0.903
19.304	0.908
19.3411	0.914
19.3783	0.911
19.4155	0.915
19.4526	0.912
19.4898	0.911
19.527	0.911
19.5641	0.915
19.6013	0.919
19.6385	0.922
19.6756	0.923
19.7128	0.922
19.75	0.915
19.7871	0.92
19.8243	0.923
19.8615	0.92
19.8986	0.923
19.9358	0.931
19.973	0.934
20.0101	0.934
20.0473	0.934
20.0845	0.931
20.1216	0.934
20.1588	0.934
20.196	0.94
20.2332	0.931
20.2703	0.933
20.3075	0.937
20.3447	0.933
20.3818	0.942
20.419	0.942
20.4562	0.947
20.4933	0.943
20.5305	0.94
20.5677	0.937
20.6048	0.939
20.642	0.94
20.6792	0.937
20.7163	0.945
20.7535	0.94
20.7907	0.943
20.8278	0.94
20.865	0.933
20.9022	0.943
20.9393	0.943
20.9765	0.945
21.0137	0.943
21.0509	0.94
21.088	0.942
21.1252	0.936
21.1624	0.937
21.1995	0.934
21.2367	0.943
21.2739	0.943
21.311	0.942
21.3482	0.947
21.3854	0.945
21.4225	0.945
21.4597	0.948
21.4969	0.94
21.534	0.948
21.5712	0.947
21.6084	0.948
21.6455	0.953
21.6827	0.956
21.7199	0.956
21.757	0.954
21.7942	0.953
21.8314	0.956
21.8686	0.961
21.9057	0.953
21.9429	0.953
21.9801	0.954
22.0172	0.961
22.0544	0.957
22.0916	0.954
22.1287	0.959
22.1659	0.957
22.2031	0.962
22.2402	0.959
22.2774	0.961
22.3146	0.961
22.3517	0.956
22.3889	0.956
22.4261	0.957
22.4632	0.954
22.5004	0.962
22.5376	0.956
22.5747	0.957
22.6119	0.953
22.6491	0.951
22.6862	0.951
22.7234	0.959
22.7606	0.954
22.7978	0.965
22.8349	0.959
22.8721	0.954
22.9093	0.953
22.9464	0.951
22.9836	0.953
23.0208	0.956
23.0579	0.956
23.0951	0.953
23.1323	0.954
23.1694	0.956
23.2066	0.95
23.2438	0.953
23.2809	0.956
23.3181	0.954
23.3553	0.951
23.3924	0.953
23.4296	0.953
23.4668	0.951
23.5039	0.947
23.5411	0.939
23.5783	0.94
23.6155	0.942
23.6526	0.942
23.6898	0.939
23.727	0.934
23.7641	0.926
23.8013	0.931
23.8385	0.912
23.8756	0.904
23.9128	0.903
23.95	0.911
23.9871	0.909
24.0243	0.911
24.0615	0.915
24.0986	0.922
24.1358	0.915
24.173	0.915
24.2101	0.915
24.2473	0.923
24.2845	0.911
24.3216	0.909
24.3588	0.903
24.396	0.901
24.4331	0.898
24.4703	0.892
24.5075	0.884
24.5447	0.884
24.5818	0.878
24.619	0.861
24.6562	0.862
24.6933	0.856
24.7305	0.85
24.7677	0.844
24.8048	0.838
24.842	0.838
24.8792	0.825
24.9163	0.825
24.9535	0.817
24.9907	0.803
25.0278	0.8
25.065	0.772
25.1022	0.769
25.1393	0.763
25.1765	0.76
25.2137	0.761
25.2508	0.774
25.288	0.764
25.3252	0.767
25.3624	0.761
25.3995	0.771
25.4367	0.769
25.4739	0.767
25.511	0.764
25.5482	0.764
25.5854	0.757
25.6225	0.755
25.6597	0.75
25.6969	0.744
25.734	0.741
25.7712	0.735
25.8084	0.732
25.8455	0.725
25.8827	0.725
25.9199	0.732
25.957	0.714
25.9942	0.71
