Infrared Spectrum: n-OCTADECANOL
Formula: C18 H38 O
CAS: 112-92-5
State: SOLID (OIL MULL)
Class: COBLENTZ III
Instrument: BAIRD (PRISM)
Instrument parameters: NaCl PRISM
Sampling: TRANSMISSION
Resolution: 2
Origin: WYANDOTTE CHEMICALS CORP.
MICROMETERS	TRANSMITTANCE
2.003	0.803
2.04228	0.807
2.08156	0.819
2.12085	0.829
2.16013	0.832
2.19941	0.755
2.23869	0.639
2.27797	0.648
2.31725	0.644
2.35654	0.631
2.39582	0.66
2.4351	0.72
2.47438	0.774
2.51366	0.802
2.55295	0.81
2.59223	0.813
2.63151	0.842
2.67079	0.842
2.71007	0.859
2.74935	0.84
2.78864	0.823
2.82792	0.805
2.8672	0.71
2.90648	0.565
2.94576	0.345
2.98504	0.212
3.02433	0.109
3.06361	0.043
3.10289	0.04
3.14217	0.065
3.18145	0.12
3.22074	0.224
3.26002	0.321
3.2993	0.307
3.33858	0.214
3.37786	0.059
3.41714	0.009
3.45643	0.008
3.49571	0.014
3.53499	0.016
3.57427	0.073
3.61355	0.189
3.65284	0.318
3.69212	0.392
3.7314	0.457
3.77068	0.472
3.80996	0.506
3.84924	0.549
3.88853	0.599
3.92781	0.646
3.96709	0.679
4.00637	0.729
4.04565	0.759
4.08494	0.773
4.12422	0.805
4.1635	0.828
4.20278	0.853
4.24206	0.854
4.28134	0.85
4.32063	0.85
4.35991	0.832
4.39919	0.839
4.43847	0.863
4.47775	0.886
4.51704	0.89
4.55632	0.9
4.5956	0.907
4.63488	0.903
4.67416	0.924
4.71344	0.927
4.75273	0.933
4.79201	0.937
4.83129	0.94
4.87057	0.944
4.90985	0.944
4.94913	0.948
4.98842	0.944
5.0277	0.949
5.06698	0.958
5.10626	0.933
5.14554	0.95
5.18483	0.944
5.22411	0.938
5.26339	0.934
5.30267	0.934
5.34195	0.945
5.38123	0.95
5.42052	0.95
5.4598	0.956
5.49908	0.954
5.53836	0.963
5.57764	0.956
5.61693	0.959
5.65621	0.955
5.69549	0.956
5.73477	0.946
5.77405	0.948
5.81333	0.938
5.85262	0.928
5.8919	0.928
5.93118	0.913
5.97046	0.903
6.00974	0.893
6.04903	0.891
6.08831	0.885
6.12759	0.877
6.16687	0.874
6.20615	0.869
6.24543	0.87
6.28472	0.864
6.324	0.858
6.36328	0.854
6.40256	0.85
6.44184	0.847
6.48113	0.831
6.52041	0.811
6.55969	0.792
6.59897	0.742
6.63825	0.648
6.67753	0.457
6.71682	0.257
6.7561	0.08
6.79538	0.044
6.83466	0.049
6.87394	0.117
6.91322	0.198
6.95251	0.303
6.99179	0.381
7.03107	0.356
7.07035	0.305
7.10963	0.314
7.14892	0.364
7.1882	0.334
7.22748	0.235
7.26676	0.252
7.30604	0.311
7.34532	0.334
7.38461	0.336
7.42389	0.341
7.46317	0.389
7.50245	0.406
7.54173	0.459
7.58102	0.467
7.6203	0.489
7.65958	0.504
7.69886	0.484
7.73814	0.509
7.77742	0.565
7.81671	0.589
7.85599	0.601
7.89527	0.622
7.93455	0.636
7.97383	0.644
8.01312	0.659
8.0524	0.654
8.09168	0.648
8.13096	0.652
8.17024	0.646
8.20952	0.668
8.24881	0.673
8.28809	0.658
8.32737	0.685
8.36665	0.7
8.40593	0.659
8.44522	0.675
8.4845	0.701
8.52378	0.713
8.56306	0.72
8.60234	0.742
8.64162	0.752
8.68091	0.759
8.72019	0.75
8.75947	0.738
8.79875	0.678
8.83803	0.512
8.87731	0.327
8.9166	0.392
8.95588	0.554
8.99516	0.638
9.03444	0.694
9.07372	0.71
9.11301	0.694
9.15229	0.648
9.19157	0.528
9.23085	0.376
9.27013	0.23
9.30941	0.131
9.3487	0.12
9.38798	0.113
9.42726	0.118
9.46654	0.159
9.50582	0.202
9.54511	0.258
9.58439	0.255
9.62367	0.26
9.66295	0.303
9.70223	0.313
9.74151	0.266
9.7808	0.249
9.82008	0.266
9.85936	0.298
9.89864	0.364
9.93792	0.374
9.97721	0.379
10.0165	0.361
10.0558	0.369
10.0951	0.44
10.1343	0.45
10.1736	0.442
10.2129	0.452
10.2522	0.477
10.2915	0.493
10.3307	0.478
10.37	0.431
10.4093	0.397
10.4486	0.487
10.4879	0.559
10.5272	0.532
10.5664	0.466
10.6057	0.48
10.645	0.599
10.6843	0.591
10.7236	0.52
10.7628	0.552
10.8021	0.621
10.8414	0.66
10.8807	0.66
10.92	0.622
10.9593	0.63
10.9985	0.668
11.0378	0.651
11.0771	0.58
11.1164	0.6
11.1557	0.659
11.1949	0.69
11.2342	0.696
11.2735	0.69
11.3128	0.686
11.3521	0.659
11.3913	0.632
11.4306	0.636
11.4699	0.658
11.5092	0.683
11.5485	0.709
11.5878	0.733
11.627	0.768
11.6663	0.782
11.7056	0.787
11.7449	0.789
11.7842	0.784
11.8234	0.781
11.8627	0.768
11.902	0.768
11.9413	0.76
11.9806	0.755
12.0199	0.762
12.0591	0.768
12.0984	0.766
12.1377	0.77
12.177	0.785
12.2163	0.79
12.2555	0.786
12.2948	0.773
12.3341	0.765
12.3734	0.745
12.4127	0.743
12.452	0.742
12.4912	0.734
12.5305	0.736
12.5698	0.747
12.6091	0.743
12.6484	0.732
12.6876	0.738
12.7269	0.742
12.7662	0.726
12.8055	0.71
12.8448	0.709
12.8841	0.694
12.9233	0.678
12.9626	0.669
13.0019	0.662
13.0412	0.646
13.0805	0.644
13.1197	0.638
13.159	0.644
13.1983	0.646
13.2376	0.62
13.2769	0.627
13.3162	0.618
13.3554	0.609
13.3947	0.594
13.434	0.568
13.4733	0.547
13.5126	0.522
13.5518	0.478
13.5911	0.432
13.6304	0.35
13.6697	0.26
13.709	0.143
13.7483	0.119
13.7875	0.135
13.8268	0.138
13.8661	0.12
13.9054	0.106
13.9447	0.115
13.9839	0.183
14.0232	0.235
14.0625	0.324
14.1018	0.392
14.1411	0.441
14.1804	0.477
14.2196	0.512
14.2589	0.52
14.2982	0.532
14.3375	0.548
14.3768	0.557
14.416	0.557
14.4553	0.558
14.4946	0.561
14.5339	0.567
14.5732	0.572
14.6125	0.578
14.6517	0.58
14.691	0.585
14.7303	0.585
14.7696	0.586
14.8089	0.586
14.8481	0.596
14.8874	0.604
14.9267	0.618
14.966	0.627
15.0053	0.633
15.0446	0.642
15.0838	0.657
15.1231	0.658
15.1624	0.67
15.2017	0.675
15.241	0.676
15.2802	0.69
15.3195	0.696
15.3588	0.705
15.3981	0.716
15.4374	0.722
15.4767	0.723
15.5159	0.732
15.5552	0.737
15.5945	0.737
15.6338	0.729
15.6731	0.733
15.7123	0.743
15.7516	0.748
15.7909	0.755
15.8302	0.759
15.8695	0.759
15.9088	0.76
15.948	0.76
