Infrared Spectrum: N-TETRADECYL BROMIDE
Formula: C14 H29 Br
CAS: 112-71-0
State: LIQUID
Class: COBLENTZ
Instrument: Not specified, most likely a prism, grating, or hybrid spectrometer.
Sampling: TRANSMISSION
Path length: 0.0036 CM
Resolution: 4
Origin: CONTINENTAL OIL CO. (HAROLD F. SMITH)
MICROMETERS	TRANSMITTANCE
12	0.947
12.0372	0.937
12.0743	0.936
12.1115	0.94
12.1487	0.93
12.1858	0.922
12.223	0.931
12.2602	0.928
12.2973	0.939
12.3345	0.934
12.3717	0.931
12.4088	0.925
12.446	0.927
12.4832	0.931
12.5204	0.927
12.5575	0.908
12.5947	0.909
12.6319	0.919
12.669	0.913
12.7062	0.913
12.7434	0.914
12.7805	0.914
12.8177	0.902
12.8549	0.902
12.892	0.891
12.9292	0.878
12.9664	0.878
13.0035	0.863
13.0407	0.846
13.0779	0.847
13.115	0.827
13.1522	0.819
13.1894	0.81
13.2265	0.799
13.2637	0.796
13.3009	0.782
13.3381	0.77
13.3752	0.751
13.4124	0.742
13.4496	0.722
13.4867	0.703
13.5239	0.704
13.5611	0.698
13.5982	0.669
13.6354	0.645
13.6726	0.619
13.7097	0.591
13.7469	0.56
13.7841	0.52
13.8212	0.464
13.8584	0.406
13.8956	0.33
13.9327	0.273
13.9699	0.24
14.0071	0.248
14.0442	0.285
14.0814	0.371
14.1186	0.437
14.1558	0.531
14.1929	0.588
14.2301	0.663
14.2673	0.715
14.3044	0.76
14.3416	0.793
14.3788	0.829
14.4159	0.866
14.4531	0.88
14.4903	0.894
14.5274	0.903
14.5646	0.908
14.6018	0.913
14.6389	0.925
14.6761	0.927
14.7133	0.922
14.7504	0.919
14.7876	0.925
14.8248	0.928
14.8619	0.925
14.8991	0.92
14.9363	0.914
14.9734	0.913
15.0106	0.908
15.0478	0.9
15.085	0.902
15.1221	0.874
15.1593	0.863
15.1965	0.833
15.2336	0.809
15.2708	0.773
15.308	0.725
15.3451	0.669
15.3823	0.594
15.4195	0.503
15.4566	0.459
15.4938	0.409
15.531	0.372
15.5681	0.357
15.6053	0.363
15.6425	0.402
15.6796	0.45
15.7168	0.529
15.754	0.583
15.7911	0.681
15.8283	0.729
15.8655	0.76
15.9027	0.784
15.9398	0.819
15.977	0.833
16.0142	0.85
16.0513	0.86
16.0885	0.878
16.1257	0.881
16.1628	0.894
16.2	0.902
16.2372	0.905
16.2743	0.902
16.3115	0.914
16.3487	0.919
16.3858	0.919
16.423	0.911
16.4602	0.914
16.4973	0.917
16.5345	0.919
16.5717	0.913
16.6088	0.914
16.646	0.923
16.6832	0.916
16.7204	0.922
16.7575	0.917
16.7947	0.911
16.8319	0.911
16.869	0.919
16.9062	0.908
16.9434	0.914
16.9805	0.919
17.0177	0.906
17.0549	0.905
17.092	0.9
17.1292	0.891
17.1664	0.88
17.2035	0.878
17.2407	0.871
17.2779	0.847
17.315	0.824
17.3522	0.804
17.3894	0.784
17.4265	0.751
17.4637	0.714
17.5009	0.672
17.538	0.641
17.5752	0.608
17.6124	0.552
17.6496	0.518
17.6867	0.472
17.7239	0.447
17.7611	0.42
17.7982	0.411
17.8354	0.419
17.8726	0.456
17.9097	0.51
17.9469	0.56
17.9841	0.611
18.0212	0.68
18.0584	0.72
18.0956	0.751
18.1327	0.774
18.1699	0.798
18.2071	0.815
18.2442	0.822
18.2814	0.841
18.3186	0.86
18.3557	0.861
18.3929	0.872
18.4301	0.875
18.4673	0.881
18.5044	0.886
18.5416	0.886
18.5788	0.888
18.6159	0.888
18.6531	0.899
18.6903	0.892
18.7274	0.891
18.7646	0.892
18.8018	0.886
18.8389	0.895
18.8761	0.9
18.9133	0.903
18.9504	0.905
18.9876	0.908
19.0248	0.913
19.0619	0.914
19.0991	0.914
19.1363	0.917
19.1734	0.914
19.2106	0.919
19.2478	0.92
19.285	0.927
19.3221	0.933
19.3593	0.927
19.3965	0.92
19.4336	0.93
19.4708	0.922
19.508	0.93
19.5451	0.937
19.5823	0.923
19.6195	0.934
19.6566	0.933
19.6938	0.934
19.731	0.942
19.7681	0.931
19.8053	0.931
19.8425	0.931
19.8796	0.933
19.9168	0.933
19.954	0.937
19.9911	0.942
20.0283	0.937
20.0655	0.94
20.1026	0.939
20.1398	0.942
20.177	0.942
20.2142	0.945
20.2513	0.936
20.2885	0.944
20.3257	0.944
20.3628	0.939
20.4	0.942
20.4372	0.936
20.4743	0.931
20.5115	0.934
20.5487	0.942
20.5858	0.939
20.623	0.936
20.6602	0.947
20.6973	0.947
20.7345	0.945
20.7717	0.95
20.8088	0.953
20.846	0.951
20.8832	0.944
20.9203	0.95
20.9575	0.953
20.9947	0.953
21.0319	0.956
21.069	0.953
21.1062	0.951
21.1434	0.956
21.1805	0.954
21.2177	0.951
21.2549	0.953
21.292	0.953
21.3292	0.953
21.3664	0.956
21.4035	0.959
21.4407	0.959
21.4779	0.956
21.515	0.962
21.5522	0.961
21.5894	0.962
21.6265	0.964
21.6637	0.961
21.7009	0.962
21.738	0.958
21.7752	0.959
21.8124	0.97
21.8496	0.954
21.8867	0.948
21.9239	0.956
21.9611	0.962
21.9982	0.968
22.0354	0.964
22.0726	0.972
22.1097	0.97
22.1469	0.964
22.1841	0.97
22.2212	0.973
22.2584	0.97
22.2956	0.97
22.3327	0.968
22.3699	0.97
22.4071	0.964
22.4442	0.97
22.4814	0.967
22.5186	0.97
22.5557	0.967
22.5929	0.972
22.6301	0.965
22.6672	0.967
22.7044	0.968
22.7416	0.954
22.7788	0.968
22.8159	0.961
22.8531	0.964
22.8903	0.961
22.9274	0.965
22.9646	0.961
23.0018	0.961
23.0389	0.961
23.0761	0.964
23.1133	0.961
23.1504	0.958
23.1876	0.961
23.2248	0.967
23.2619	0.968
23.2991	0.967
23.3363	0.967
23.3734	0.961
23.4106	0.964
23.4478	0.954
23.4849	0.951
23.5221	0.953
23.5593	0.953
23.5965	0.94
23.6336	0.95
23.6708	0.956
23.708	0.94
23.7451	0.934
23.7823	0.937
23.8195	0.933
23.8566	0.923
23.8938	0.922
23.931	0.913
23.9681	0.92
24.0053	0.919
24.0425	0.919
24.0796	0.931
24.1168	0.93
24.154	0.923
24.1911	0.923
24.2283	0.914
24.2655	0.909
24.3026	0.903
24.3398	0.913
24.377	0.909
24.4141	0.903
24.4513	0.903
24.4885	0.891
24.5257	0.883
24.5628	0.891
24.6	0.883
24.6372	0.864
24.6743	0.86
24.7115	0.854
24.7487	0.85
24.7858	0.844
24.823	0.83
24.8602	0.829
24.8973	0.83
24.9345	0.833
24.9717	0.832
25.0088	0.824
25.046	0.818
25.0832	0.799
25.1203	0.787
25.1575	0.777
25.1947	0.774
25.2318	0.771
25.269	0.777
25.3062	0.776
25.3434	0.79
25.3805	0.791
25.4177	0.781
25.4549	0.779
25.492	0.774
25.5292	0.771
25.5664	0.774
25.6035	0.781
25.6407	0.763
25.6779	0.765
25.715	0.763
25.7522	0.76
25.7894	0.754
25.8265	0.751
25.8637	0.743
25.9009	0.74
25.938	0.734
25.9752	0.729
