Infrared Spectrum: 1-Bromohexadecane
Formula: C16 H33 Br
CAS: 112-82-3
State: SOLUTION (10% CCl4 FOR 3800-1330, 10% CS2 FOR 1330-400 CM^-^1)
Class: COBLENTZ III
Instrument: DOW KBr FOREPRISM-GRATING
Instrument parameters: BLAZED AT 3.5, 12.0, 20.0 MICRON AND CHANGED AT 5.0, 7.5, 14.9 MICRON
Sampling: TRANSMISSION
Path length: 0.011 CM, 0.011 CM
Resolution: 2
Origin: DOW CHEMICAL COMPANY
1/CM	TRANSMITTANCE
3814	0.8676
3805	0.8673
3796	0.8687
3787	0.8694
3778	0.8694
3769	0.8697
3760	0.8696
3751	0.8683
3742	0.8675
3733	0.8667
3724	0.8669
3715	0.866
3706	0.8661
3697	0.8649
3688	0.8627
3679	0.8605
3670	0.8612
3661	0.8608
3652	0.8619
3643	0.8631
3634	0.8636
3625	0.8649
3616	0.8667
3607	0.8698
3598	0.8717
3589	0.8736
3580	0.8749
3571	0.8751
3562	0.876
3553	0.877
3544	0.8779
3535	0.8787
3526	0.878
3517	0.8783
3508	0.8787
3499	0.879
3490	0.8791
3481	0.8791
3472	0.8793
3463	0.8793
3454	0.8794
3445	0.8794
3436	0.8798
3427	0.88
3418	0.8801
3409	0.8804
3400	0.8803
3391	0.8801
3382	0.8801
3373	0.88
3364	0.8797
3355	0.8797
3346	0.8799
3337	0.881
3328	0.88
3319	0.8802
3310	0.8816
3301	0.8809
3292	0.8813
3283	0.8825
3274	0.8824
3265	0.8823
3256	0.8812
3247	0.8818
3238	0.8817
3229	0.8816
3220	0.8817
3211	0.8817
3202	0.8804
3193	0.8769
3184	0.8747
3175	0.8751
3166	0.8755
3157	0.8764
3148	0.8747
3139	0.8748
3130	0.8738
3121	0.8722
3112	0.8707
3103	0.8699
3094	0.8704
3085	0.8632
3076	0.8595
3067	0.8531
3058	0.8475
3049	0.8398
3040	0.8357
3031	0.8205
3022	0.7955
3013	0.7416
3004	0.7255
2995	0.7183
2986	0.6561
2977	0.5044
2968	0.1658
2959	0.1371
2950	0.0422
2941	0.0137
2932	0.013
2923	0.0352
2914	0.0754
2905	0.14
2896	0.2149
2887	0.2897
2878	0.3377
2869	0.169
2860	0.028
2851	0.1384
2842	0.333
2833	0.5024
2824	0.6161
2815	0.7068
2806	0.7543
2797	0.7817
2788	0.8001
2779	0.8153
2770	0.8284
2761	0.8386
2752	0.844
2743	0.8453
2734	0.846
2725	0.8461
2716	0.8499
2707	0.8543
2698	0.8548
2689	0.8484
2680	0.8436
2671	0.8432
2662	0.8467
2653	0.8512
2644	0.8537
2635	0.8567
2626	0.8609
2617	0.8641
2608	0.8673
2599	0.8704
2590	0.8735
2581	0.8773
2572	0.8809
2563	0.8846
2554	0.8875
2545	0.8897
2536	0.8918
2527	0.8934
2518	0.8949
2509	0.8962
2500	0.8968
2491	0.8973
2482	0.8971
2473	0.8978
2464	0.8977
2455	0.8971
2446	0.8994
2437	0.9006
2428	0.9014
2419	0.9011
2410	0.9008
2401	0.9011
2392	0.8996
2383	0.9
2374	0.9016
2365	0.8987
2356	0.899
2347	0.8975
2338	0.8944
2329	0.8932
2320	0.893
2311	0.891
2302	0.889
2293	0.8881
2284	0.8868
2275	0.885
2266	0.8862
2257	0.8861
2248	0.8871
2239	0.8883
2230	0.8895
2221	0.8902
2212	0.8919
2203	0.8926
2194	0.8927
2185	0.8916
2176	0.8924
2167	0.8912
2158	0.8913
2149	0.8913
2140	0.8912
2131	0.8912
2122	0.8907
2113	0.8923
2104	0.8936
2095	0.8949
2086	0.8962
2077	0.8963
2068	0.8947
2059	0.893
2050	0.8932
2041	0.8923
2032	0.8922
2023	0.8926
2014	0.8918
2005	0.8916
1996	0.8914
1987	0.8656
1978	0.8927
1969	0.8944
1960	0.896
1951	0.8977
1942	0.8993
1933	0.9009
1924	0.901
1915	0.901
1906	0.9028
1897	0.9028
1888	0.901
1879	0.9016
1870	0.9022
1861	0.9031
1852	0.9039
1843	0.9047
1834	0.9043
1825	0.9048
1816	0.9063
1807	0.9057
1798	0.9049
1789	0.905
1780	0.905
1771	0.9039
1762	0.9036
1753	0.9041
1744	0.9036
1735	0.9031
1726	0.9026
1717	0.9024
1708	0.9032
1699	0.904
1690	0.9048
1681	0.9053
1672	0.9065
1663	0.9067
1654	0.906
1645	0.9051
1636	0.906
1627	0.9068
1618	0.9046
1609	0.9123
1600	0.9075
1591	0.8882
1582	0.8378
1573	0.8131
1564	0.8143
1555	0.7775
1546	0.7045
1537	0.6972
1528	0.7418
1519	0.7825
1510	0.7994
1501	0.8117
1492	0.8217
1483	0.8325
1474	0.7862
1465	0.3281
1456	0.4316
1447	0.5564
1438	0.6394
1429	0.7052
1420	0.8224
1411	0.8594
1402	0.8767
1393	0.8838
1384	0.8845
1375	0.7491
1366	0.7874
1357	0.8005
1348	0.8033
1339	0.8238
1330	0.8305
1321	0.8257
1312	0.7943
1303	0.7022
1294	0.6855
1285	0.6856
1276	0.6892
1267	0.6754
1258	0.6604
1249	0.6336
1240	0.6523
1231	0.6821
1222	0.7072
1213	0.7067
1204	0.7349
1195	0.7622
1186	0.7853
1177	0.803
1168	0.8114
1159	0.8195
1150	0.8232
1141	0.8179
1132	0.8244
1123	0.8315
1114	0.8292
1105	0.8312
1096	0.8319
1087	0.8233
1078	0.8153
1069	0.8129
1060	0.8173
1051	0.8206
1042	0.8248
1033	0.828
1024	0.8275
1015	0.8335
1006	0.8362
997	0.832
988	0.8312
979	0.8332
970	0.8349
961	0.8367
952	0.8383
943	0.8387
934	0.8378
925	0.8367
916	0.837
907	0.8365
898	0.8349
889	0.8289
880	0.8211
871	0.8075
862	0.7991
853	0.779
844	0.7853
835	0.8165
826	0.8276
817	0.8353
808	0.8327
799	0.8318
790	0.8321
781	0.8301
772	0.825
763	0.818
754	0.8094
745	0.7977
736	0.7804
727	0.7451
718	0.6237
709	0.7306
700	0.8246
691	0.8549
682	0.8667
673	0.8744
664	0.8409
655	0.8053
646	0.699
637	0.7566
628	0.8367
619	0.8595
610	0.8698
601	0.8741
592	0.8776
583	0.8772
574	0.8222
565	0.7349
556	0.8218
547	0.8592
538	0.8693
529	0.8723
520	0.8734
511	0.8737
502	0.8733
493	0.8723
484	0.8719
475	0.8687
466	0.8613
457	0.8524
448	0.8418
439	0.8282
430	0.8091
421	0.7827
412	0.7435
403	0.6111
394	0.486
385	0.4374
