Infrared Spectrum: DECANE, 1-BROMO-
Formula: C10 H21 Br
CAS: 112-29-8
State: SOLUTION (10% IN CCl4 FOR 3800-1333, AND 10% IN CS2 FOR 1333-450 CM^-^1)
Class: COBLENTZ III
Instrument: DOW KBr FOREPRISM-GRATING
Instrument parameters: BLAZED AT 3.5, 12.0, 20.0 MICRON, CHANGED AT 5.0, 7.5, 14.9 MICRON
Sampling: TRANSMISSION
Path length: 0.011, 0.011 CM
Resolution: 4
Origin: DOW CHEMICAL COMPANY
1/CM	TRANSMITTANCE
450.38	0.961
459.066	0.968
467.752	0.978
476.439	0.98
485.125	0.989
493.811	0.993
502.497	1.002
511.184	1.002
519.87	1.004
528.556	1.002
537.242	1.004
545.929	1.002
554.615	0.986
563.301	0.888
571.987	0.891
580.674	1.002
589.36	1.025
598.046	1.029
606.732	1.031
615.418	1.027
624.105	1.014
632.791	0.994
641.477	0.883
650.163	0.758
658.85	0.918
667.536	0.991
676.222	1.005
684.908	1.004
693.595	1.002
702.281	0.982
710.967	0.926
719.653	0.754
728.339	0.85
737.026	0.9
745.712	0.933
754.398	0.963
763.084	0.975
771.771	0.979
780.457	0.986
789.143	0.991
797.829	0.986
806.516	0.979
815.202	0.993
823.888	0.991
832.574	0.976
841.261	0.929
849.947	0.854
858.633	0.845
867.319	0.876
876.005	0.907
884.692	0.936
893.378	0.974
902.064	0.994
910.75	1.002
919.437	1.009
928.123	1.01
936.809	1.009
945.495	0.998
954.182	0.995
962.868	1.008
971.554	1.012
980.24	1.016
988.926	1.02
997.613	1.016
1006.3	1.012
1014.99	1.005
1023.67	1
1032.36	0.989
1041.04	0.985
1049.73	0.99
1058.42	0.991
1067.1	0.994
1075.79	0.99
1084.48	1.004
1093.16	1.013
1101.85	1.02
1110.53	1.016
1119.22	1.021
1127.91	1.025
1136.59	1.021
1145.28	1.008
1153.96	1.014
1162.65	1.01
1171.34	1.004
1180.02	0.986
1188.71	0.982
1197.4	0.96
1206.08	0.876
1214.77	0.872
1223.45	0.815
1232.14	0.868
1240.83	0.714
1249.51	0.692
1258.2	0.758
1266.89	0.736
1275.57	0.796
1284.26	0.832
1292.94	0.811
1301.63	0.82
1310.32	0.858
1319	0.898
1327.69	0.918
1336.38	0.892
1345.06	0.903
1353.75	0.902
1362.43	0.922
1371.12	0.887
1379.81	0.8239
1388.49	0.921
1397.18	0.947
1405.87	0.948
1414.55	0.934
1423.24	0.913
1431.92	0.716
1440.61	0.63
1449.3	0.673
1457.98	0.494
1466.67	0.414
1475.36	0.782
1484.04	0.865
1492.73	0.858
1501.41	0.827
1510.1	0.785
1518.79	0.737
1527.47	0.692
1536.16	0.629
1544.85	0.535
1553.53	0.512
1562.22	0.584
1570.9	0.648
1579.59	0.683
1588.28	0.711
1596.96	0.805
1605.65	0.879
1614.34	0.921
1623.02	0.949
1631.71	0.961
1640.39	0.967
1649.08	0.972
1657.77	0.971
1666.45	0.971
1675.14	0.971
1683.83	0.971
1692.51	0.972
1701.2	0.972
1709.88	0.974
1718.57	0.975
1727.26	0.974
1735.94	0.972
1744.63	0.971
1753.32	0.971
1762	0.968
1770.69	0.968
1779.37	0.968
1788.06	0.966
1796.75	0.967
1805.43	0.966
1814.12	0.959
1822.8	0.963
1831.49	0.961
1840.18	0.963
1848.86	0.959
1857.55	0.959
1866.24	0.961
1874.92	0.961
1883.61	0.963
1892.29	0.963
1900.98	0.96
1909.67	0.964
1918.35	0.966
1927.04	0.966
1935.73	0.964
1944.41	0.964
1953.1	0.966
1961.78	0.963
1970.47	0.967
1979.16	0.963
1987.84	0.96
1996.53	0.923
2005.22	0.97
2013.9	0.971
2022.59	0.971
2031.27	0.971
2039.96	0.972
2048.65	0.974
2057.33	0.976
2066.02	0.975
2074.71	0.971
2083.39	0.979
2092.08	0.979
2100.76	0.979
2109.45	0.979
2118.14	0.979
2126.82	0.9799
2135.51	0.9781
2144.2	0.978
2152.88	0.975
2161.57	0.9751
2170.25	0.9762
2178.94	0.978
2187.63	0.978
2196.31	0.976
2205	0.976
2213.69	0.9778
2222.37	0.976
2231.06	0.975
2239.74	0.9738
2248.43	0.972
2257.12	0.9698
2265.8	0.9669
2274.49	0.9609
2283.18	0.957
2291.86	0.956
2300.55	0.957
2309.23	0.959
2317.92	0.9613
2326.61	0.9662
2335.29	0.9601
2343.98	0.9672
2352.67	0.979
2361.35	0.978
2370.04	0.979
2378.72	0.9764
2387.41	0.978
2396.1	0.978
2404.78	0.978
2413.47	0.979
2422.16	0.979
2430.84	0.98
2439.53	0.982
2448.21	0.982
2456.9	0.983
2465.59	0.9834
2474.27	0.985
2482.96	0.9815
2491.64	0.979
2500.33	0.982
2509.02	0.9858
2517.7	0.98
2526.39	0.979
2535.08	0.979
2543.76	0.979
2552.45	0.979
2561.13	0.978
2569.82	0.976
2578.51	0.974
2587.19	0.9707
2595.88	0.9677
2604.57	0.9667
2613.25	0.961
2621.94	0.96
2630.62	0.959
2639.31	0.957
2648	0.9544
2656.68	0.951
2665.37	0.9447
2674.06	0.9354
2682.74	0.9347
2691.43	0.9407
2700.11	0.9473
2708.8	0.949
2717.49	0.949
2726.17	0.9386
2734.86	0.9374
2743.55	0.944
2752.23	0.945
2760.92	0.942
2769.6	0.9416
2778.29	0.9326
2786.98	0.9146
2795.66	0.8996
2804.35	0.8834
2813.04	0.8587
2821.72	0.8188
2830.41	0.7453
2839.09	0.5824
2847.78	0.2731
2856.47	0.0528
2865.15	0.1949
2873.84	0.251
2882.53	0.3937
2891.21	0.3382
2899.9	0.2362
2908.58	0.1456
2917.27	0.0586
2925.96	0.008
2934.64	0.0138
2943.33	0.0748
2952.02	0.1205
2960.7	0.0871
2969.39	0.1698
2978.07	0.4133
2986.76	0.6773
2995.45	0.763
3004.13	0.7705
3012.82	0.8208
3021.51	0.8779
3030.19	0.9015
3038.88	0.916
3047.56	0.931
3056.25	0.9405
3064.94	0.9475
3073.62	0.9525
3082.31	0.9581
3091	0.962
3099.68	0.964
3108.37	0.97
3117.05	0.972
3125.74	0.9715
3134.43	0.974
3143.11	0.974
3151.8	0.974
3160.48	0.9771
3169.17	0.9784
3177.86	0.979
3186.54	0.979
3195.23	0.98
3203.92	0.9826
3212.6	0.985
3221.29	0.986
3229.97	0.9882
3238.66	0.99
3247.35	0.99
3256.03	0.991
3264.72	0.9922
3273.41	0.993
3282.09	0.993
3290.78	0.993
3299.46	0.9946
3308.15	0.994
3316.84	0.994
3325.52	0.9936
3334.21	0.9946
3342.9	0.995
3351.58	0.995
3360.27	0.9943
3368.95	0.994
3377.64	0.994
3386.33	0.993
3395.01	0.993
3403.7	0.993
3412.39	0.993
3421.07	0.993
3429.76	0.993
3438.44	0.993
3447.13	0.99
3455.82	0.989
3464.5	0.991
3473.19	0.991
3481.88	0.991
3490.56	0.991
3499.25	0.9907
3507.93	0.993
3516.62	0.993
3525.31	0.991
3533.99	0.99
3542.68	0.989
3551.37	0.989
3560.05	0.989
3568.74	0.989
3577.42	0.989
3586.11	0.9852
3594.8	0.9805
3603.48	0.9792
3612.17	0.9764
3620.86	0.9716
3629.54	0.9708
3638.23	0.98
3646.91	0.9764
3655.6	0.98
3664.29	0.9792
3672.97	0.9824
3681.66	0.9742
3690.35	0.9776
3699.03	0.985
3707.72	0.985
3716.4	0.989
3725.09	0.991
3733.78	0.991
3742.46	0.987
3751.15	0.987
3759.84	0.9887
3768.52	0.989
3777.21	0.9873
3785.89	0.994
3794.58	0.9893
