Infrared Spectrum: Pentyl disulfide
Formula: C10 H22 S2
CAS: 112-51-6
State: LIQUID (NEAT)
Class: COBLENTZ III
Instrument: BAIRD (PRISM)
Instrument parameters: NaCl PRISM
Sampling: TRANSMISSION
Resolution: 2
Origin: WYANDOTTE CHEMICALS CORP.
1/CM	TRANSMITTANCE
626	0.7414
635	0.7659
644	0.7936
653	0.7982
662	0.7998
671	0.7977
680	0.7843
689	0.7456
698	0.6871
707	0.6644
716	0.6118
725	0.3346
734	0.4884
743	0.5379
752	0.6179
761	0.6576
770	0.6997
779	0.7164
788	0.7426
797	0.7654
806	0.7534
815	0.6818
824	0.698
833	0.7621
842	0.758
851	0.7657
860	0.7736
869	0.7922
878	0.7814
887	0.7498
896	0.7443
905	0.7323
914	0.7207
923	0.6471
932	0.7491
941	0.7579
950	0.7346
959	0.7101
968	0.7138
977	0.8014
986	0.8193
995	0.8204
1004	0.8257
1013	0.8147
1022	0.7747
1031	0.7474
1040	0.7742
1049	0.7899
1058	0.7352
1067	0.6537
1076	0.6387
1085	0.6704
1094	0.7292
1103	0.6745
1112	0.6097
1121	0.796
1130	0.8143
1139	0.8059
1148	0.7837
1157	0.7533
1166	0.7039
1175	0.6757
1184	0.6765
1193	0.657
1202	0.5467
1211	0.2884
1220	0.4444
1229	0.6191
1238	0.611
1247	0.4238
1256	0.2554
1265	0.3165
1274	0.2286
1283	0.4599
1292	0.4252
1301	0.2716
1310	0.4539
1319	0.6347
1328	0.629
1337	0.5306
1346	0.4808
1355	0.5358
1364	0.5003
1373	0.3912
1382	0.1906
1391	0.4362
1400	0.5725
1409	0.434
1418	0.2573
1427	0.3396
1436	0.2288
1445	0.1468
1454	0.1075
1463	0.0505
1472	0.0437
1481	0.3706
1490	0.5319
1499	0.6266
1508	0.7025
1517	0.7473
1526	0.787
1535	0.8027
1544	0.8122
1553	0.828
1562	0.8331
1571	0.8376
1580	0.8425
1589	0.8455
1598	0.8484
1607	0.8523
1616	0.8561
1625	0.8612
1634	0.8689
1643	0.8738
1652	0.8748
1661	0.8746
1670	0.8746
1679	0.8745
1688	0.874
1697	0.8747
1706	0.8759
1715	0.8771
1724	0.8792
1733	0.8842
1742	0.8896
1751	0.8928
1760	0.8942
1769	0.8947
1778	0.8951
1787	0.8955
1796	0.8958
1805	0.8961
1814	0.8964
1823	0.8966
1832	0.8969
1841	0.8971
1850	0.8967
1859	0.8963
1868	0.8959
1877	0.8955
1886	0.8952
1895	0.8954
1904	0.8955
1913	0.8957
1922	0.896
1931	0.8963
1940	0.8966
1949	0.8958
1958	0.8941
1967	0.8921
1976	0.8913
1985	0.8912
1994	0.8916
2003	0.8919
2012	0.8921
2021	0.8922
2030	0.8924
2039	0.8926
2048	0.8925
2057	0.8921
2066	0.8916
2075	0.8911
2084	0.8905
2093	0.8898
2102	0.8891
2111	0.8884
2120	0.8878
2129	0.8872
2138	0.8872
2147	0.8874
2156	0.8875
2165	0.8872
2174	0.8863
2183	0.8856
2192	0.8848
2201	0.884
2210	0.8832
2219	0.8825
2228	0.8817
2237	0.8816
2246	0.8815
2255	0.8815
2264	0.8814
2273	0.8814
2282	0.8813
2291	0.8813
2300	0.8814
2309	0.8814
2318	0.8815
2327	0.8814
2336	0.8806
2345	0.8798
2354	0.8778
2363	0.8741
2372	0.873
2381	0.8766
2390	0.8822
2399	0.8846
2408	0.8861
2417	0.8875
2426	0.8888
2435	0.89
2444	0.8909
2453	0.8913
2462	0.8912
2471	0.89
2480	0.8887
2489	0.885
2498	0.8774
2507	0.8708
2516	0.8695
2525	0.8687
2534	0.8679
2543	0.8667
2552	0.8633
2561	0.8589
2570	0.8579
2579	0.8566
2588	0.8519
2597	0.8326
2606	0.8193
2615	0.808
2624	0.8
2633	0.795
2642	0.7919
2651	0.7886
2660	0.7847
2669	0.7823
2678	0.7822
2687	0.777
2696	0.7684
2705	0.7594
2714	0.7512
2723	0.7429
2732	0.7407
2741	0.7407
2750	0.7401
2759	0.7341
2768	0.6972
2777	0.6574
2786	0.6251
2795	0.5321
2804	0.4523
2813	0.373
2822	0.2943
2831	0.2221
2840	0.1794
2849	0.069
2858	0.0486
2867	0.0366
2876	0.0309
2885	0.0288
2894	0.0272
2903	0.0271
2912	0.0271
2921	0.0272
2930	0.0274
2939	0.0275
2948	0.0273
2957	0.0271
2966	0.0279
2975	0.0308
2984	0.1214
2993	0.2324
3002	0.3428
3011	0.4526
3020	0.5616
3029	0.6454
3038	0.6831
3047	0.7039
3056	0.7372
3065	0.7686
3074	0.7898
3083	0.8074
3092	0.8216
3101	0.8299
3110	0.8371
3119	0.8427
3128	0.8476
3137	0.8512
3146	0.8537
3155	0.8549
3164	0.8559
3173	0.8572
3182	0.8591
3191	0.861
3200	0.8644
3209	0.8688
3218	0.8752
3227	0.8848
3236	0.8943
3245	0.9001
3254	0.9058
3263	0.9105
3272	0.9118
3281	0.9124
3290	0.9126
3299	0.9125
3308	0.9125
3317	0.9125
3326	0.9126
3335	0.9126
3344	0.9132
3353	0.914
3362	0.9149
3371	0.9158
3380	0.9171
3389	0.9188
3398	0.9204
3407	0.9219
3416	0.924
3425	0.9263
3434	0.9287
3443	0.9311
3452	0.9333
3461	0.934
3470	0.934
3479	0.9341
3488	0.9342
3497	0.9342
3506	0.9342
3515	0.9343
3524	0.9342
3533	0.9341
3542	0.934
3551	0.934
3560	0.9339
3569	0.9337
3578	0.9335
3587	0.9351
3596	0.9332
3605	0.9329
3614	0.9327
3623	0.9326
3632	0.9323
3641	0.9318
3650	0.9313
3659	0.9307
3668	0.9302
3677	0.9301
3686	0.9301
3695	0.9301
3704	0.93
3713	0.93
3722	0.93
3731	0.93
3740	0.93
3749	0.93
3758	0.93
3767	0.93
3776	0.93
3785	0.93
3794	0.93
3803	0.9296
3812	0.929
3821	0.9284
3830	0.9276
3839	0.927
3848	0.9263
3857	0.9245
3866	0.9225
3875	0.9216
3884	0.9206
3893	0.9198
3902	0.9196
3911	0.9196
3920	0.9194
3929	0.9193
3938	0.919
3947	0.9189
3956	0.9187
3965	0.9186
3974	0.9182
3983	0.9177
3992	0.9172
