Infrared Spectrum: Ferulic acid
Formula: C10 H10 O4
CAS: 1135-24-6
State: SOLID (KBr DISC)
Class: COBLENTZ III
Instrument: BECKMAN IR-4 (HYBRID PRISM-GRATING)
Sampling: TRANSMISSION
Resolution: 2
Origin: UNIVERSITY OF FLORIDA
1/CM	TRANSMITTANCE
667	0.6082
676	0.5889
685	0.4761
694	0.5587
703	0.6588
712	0.6556
721	0.6581
730	0.6402
739	0.6061
748	0.5868
757	0.6061
766	0.6409
775	0.6254
784	0.5994
793	0.5477
802	0.3242
811	0.5093
820	0.6041
829	0.6065
838	0.567
847	0.4573
856	0.3275
865	0.551
874	0.5678
883	0.5545
892	0.5292
901	0.4981
910	0.4574
919	0.4
928	0.3602
937	0.3071
946	0.273
955	0.361
964	0.4386
973	0.3911
982	0.5001
991	0.5174
1000	0.508
1009	0.4807
1018	0.4583
1027	0.4124
1036	0.2948
1045	0.4176
1054	0.4701
1063	0.4679
1072	0.4472
1081	0.4245
1090	0.4022
1099	0.3758
1108	0.322
1117	0.2743
1126	0.3109
1135	0.2976
1144	0.2631
1153	0.2156
1162	0.1641
1171	0.1267
1180	0.1086
1189	0.1106
1198	0.1382
1207	0.1055
1216	0.0968
1225	0.2173
1234	0.2679
1243	0.28
1252	0.2918
1261	0.2382
1270	0.1624
1279	0.1018
1288	0.0851
1297	0.112
1306	0.2394
1315	0.3813
1324	0.4168
1333	0.3462
1342	0.4237
1351	0.5469
1360	0.6071
1369	0.6001
1378	0.5208
1387	0.4435
1396	0.4304
1405	0.4329
1414	0.3622
1423	0.3156
1432	0.2849
1441	0.2285
1450	0.2915
1459	0.3629
1468	0.3748
1477	0.331
1486	0.3716
1495	0.4392
1504	0.4393
1513	0.3985
1522	0.3686
1531	0.3304
1540	0.3401
1549	0.363
1558	0.3997
1567	0.4279
1576	0.4337
1585	0.4175
1594	0.343
1603	0.2692
1612	0.2097
1621	0.2026
1630	0.1896
1639	0.1905
1648	0.2413
1657	0.2748
1666	0.2783
1675	0.258
1684	0.2388
1693	0.2314
1702	0.2243
1711	0.2211
1720	0.2392
1729	0.2855
1738	0.3722
1747	0.4196
1756	0.4539
1765	0.4823
1774	0.5386
1783	0.5847
1792	0.6186
1801	0.6438
1810	0.6602
1819	0.666
1828	0.6683
1837	0.6696
1846	0.6706
1855	0.6723
1864	0.6748
1873	0.6788
1882	0.6816
1891	0.6798
1900	0.6775
1909	0.6746
1918	0.6723
1927	0.6696
1936	0.6662
1945	0.6627
1954	0.66
1963	0.6586
1972	0.6578
1981	0.6572
1990	0.6567
1999	0.6558
2008	0.6548
2017	0.6526
2026	0.6505
2035	0.6483
2044	0.6459
2053	0.6429
2062	0.6397
2071	0.6356
2080	0.6315
2089	0.6273
2098	0.6238
2107	0.6215
2116	0.6191
2125	0.6167
2134	0.612
2143	0.6071
2152	0.6024
2161	0.598
2170	0.594
2179	0.5906
2188	0.5871
2197	0.5835
2206	0.5799
2215	0.5761
2224	0.5722
2233	0.5685
2242	0.5647
2251	0.5609
2260	0.5572
2269	0.5538
2278	0.5504
2287	0.547
2296	0.5433
2305	0.5397
2314	0.5362
2323	0.532
2332	0.5283
2341	0.5253
2350	0.5231
2359	0.5213
2368	0.5201
2377	0.5193
2386	0.5191
2395	0.5188
2404	0.5145
2413	0.504
2422	0.4945
2431	0.4867
2440	0.4783
2449	0.4706
2458	0.4633
2467	0.4569
2476	0.4506
2485	0.4448
2494	0.439
2503	0.4332
2512	0.4275
2521	0.4222
2530	0.4174
2539	0.4127
2548	0.4078
2557	0.4028
2566	0.3988
2575	0.3955
2584	0.3922
2593	0.3895
2602	0.3868
2611	0.384
2620	0.3818
2629	0.3796
2638	0.3774
2647	0.3758
2656	0.3754
2665	0.3789
2674	0.3813
2683	0.3821
2692	0.3826
2701	0.383
2710	0.3826
2719	0.3821
2728	0.3816
2737	0.3812
2746	0.3813
2755	0.3814
2764	0.3818
2773	0.3826
2782	0.384
2791	0.3857
2800	0.3881
2809	0.3883
2818	0.3856
2827	0.3828
2836	0.3801
2845	0.3773
2854	0.3744
2863	0.3714
2872	0.3684
2881	0.3655
2890	0.3626
2899	0.3598
2908	0.3572
2917	0.3553
2926	0.3533
2935	0.3517
2944	0.3501
2953	0.3484
2962	0.3465
2971	0.3445
2980	0.3426
2989	0.3418
2998	0.3411
3007	0.3404
3016	0.3402
3025	0.3402
3034	0.3403
3043	0.3404
3052	0.3409
3061	0.3417
3070	0.343
3079	0.3443
3088	0.3459
3097	0.3483
3106	0.3507
3115	0.3547
3124	0.359
3133	0.3641
3142	0.3699
3151	0.3766
3160	0.3832
3169	0.3904
3178	0.3976
3187	0.4055
3196	0.4136
3205	0.4241
3214	0.4324
3223	0.4377
3232	0.4426
3241	0.4468
3250	0.4509
3259	0.4545
3268	0.4569
3277	0.4592
3286	0.4612
3295	0.4634
3304	0.4655
3313	0.4682
3322	0.4718
3331	0.4734
3340	0.4736
3349	0.4735
3358	0.4729
3367	0.4716
3376	0.4695
3385	0.4672
3394	0.4634
3403	0.4593
3412	0.4552
3421	0.4512
3430	0.4469
3439	0.4412
3448	0.4355
3457	0.4294
3466	0.4231
3475	0.4168
3484	0.4086
3493	0.3992
3502	0.3898
3511	0.3803
3520	0.3716
3529	0.3636
3538	0.3575
3547	0.3553
3556	0.3552
3565	0.3565
3574	0.3586
3583	0.3662
3592	0.3757
3601	0.3851
3610	0.3945
3619	0.4038
3628	0.4131
3637	0.4218
3646	0.4302
3655	0.4382
3664	0.446
3673	0.4518
3682	0.4572
3691	0.4609
3700	0.4646
3709	0.4682
3718	0.4713
3727	0.4737
3736	0.476
3745	0.4784
3754	0.4805
3763	0.4824
3772	0.4843
3781	0.4862
3790	0.488
3799	0.4897
3808	0.4913
3817	0.493
3826	0.4944
3835	0.4956
3844	0.4967
3853	0.4972
3862	0.4974
3871	0.4977
3880	0.498
3889	0.4982
3898	0.4985
3907	0.4988
3916	0.4988
3925	0.499
3934	0.499
3943	0.4991
3952	0.4992
3961	0.4997
3970	0.5004
3979	0.5013
3988	0.502
3997	0.5029
