Infrared Spectrum: Benzophenone, 4-nitro-
Formula: C13 H9 N O3
CAS: 1144-74-7
State: SOLID (1.2 mg / 340 mg KBr DISC)
Class: COBLENTZ II
Instrument: PERKIN-ELMER 180 (GRATING)
Instrument parameters: GRATINGS: 2000, 1000, 500, 250 CM^-^1; FILTER CHANGE: 2970, 2000, 1485, 1000, 743, 500, 372, 250, 186 CM^-^1.
Sampling: TRANSMISSION
Resolution: 2
Origin: K. K. DEB-NCI FREDERICK CANCER RESEARCH CENTER
1/CM	TRANSMITTANCE
401	0.8553
410	0.8546
419	0.8482
428	0.852
437	0.8667
446	0.8587
455	0.8543
464	0.8669
473	0.8631
482	0.8422
491	0.8667
500	0.8774
509	0.875
518	0.869
527	0.8702
536	0.8714
545	0.8695
554	0.8685
563	0.8668
572	0.8573
581	0.8628
590	0.8697
599	0.8676
608	0.8652
617	0.8487
626	0.8553
635	0.8637
644	0.8621
653	0.8492
662	0.7676
671	0.844
680	0.8308
689	0.6223
698	0.7103
707	0.383
716	0.8076
725	0.8397
734	0.6852
743	0.8564
752	0.8415
761	0.8162
770	0.8597
779	0.8616
788	0.857
797	0.8114
806	0.8509
815	0.856
824	0.8527
833	0.8431
842	0.8217
851	0.5895
860	0.7672
869	0.6734
878	0.738
887	0.8438
896	0.8481
905	0.8467
914	0.8427
923	0.8242
932	0.6713
941	0.7525
950	0.8051
959	0.8429
968	0.8336
977	0.826
986	0.8326
995	0.8314
1004	0.8103
1013	0.7995
1022	0.8347
1031	0.8373
1040	0.8386
1049	0.8379
1058	0.8347
1067	0.8269
1076	0.8084
1085	0.8203
1094	0.8129
1103	0.752
1112	0.7762
1121	0.8189
1130	0.8246
1139	0.8122
1148	0.7441
1157	0.815
1166	0.8255
1175	0.8187
1184	0.8076
1193	0.8241
1202	0.8272
1211	0.8234
1220	0.8201
1229	0.8138
1238	0.7945
1247	0.7664
1256	0.7348
1265	0.7296
1274	0.5441
1283	0.5529
1292	0.5798
1301	0.6008
1310	0.5478
1319	0.4504
1328	0.7506
1337	0.7499
1346	0.6517
1355	0.429
1364	0.5931
1373	0.7916
1382	0.8006
1391	0.8013
1400	0.7821
1409	0.7915
1418	0.8154
1427	0.8185
1436	0.8078
1445	0.7228
1454	0.8032
1463	0.8148
1472	0.8099
1481	0.793
1490	0.7633
1499	0.7145
1508	0.4656
1517	0.2024
1526	0.5864
1535	0.7148
1544	0.7616
1553	0.7794
1562	0.7826
1571	0.7744
1580	0.6482
1589	0.6638
1598	0.4883
1607	0.6922
1616	0.7901
1625	0.7885
1634	0.7559
1643	0.6797
1652	0.0812
1661	0.7002
1670	0.7617
1679	0.8033
1688	0.8129
1697	0.8131
1706	0.8112
1715	0.805
1724	0.815
1733	0.8218
1742	0.8273
1751	0.8309
1760	0.8334
1769	0.8353
1778	0.8368
1787	0.8377
1796	0.8375
1805	0.8382
1814	0.8335
1823	0.828
1832	0.8283
1841	0.8346
1850	0.8358
1859	0.8355
1868	0.8344
1877	0.833
1886	0.8317
1895	0.8309
1904	0.8292
1913	0.8278
1922	0.8295
1931	0.8284
1940	0.8232
1949	0.8197
1958	0.8218
1967	0.8259
1976	0.8229
1985	0.8262
1994	0.831
2003	0.839
2012	0.8454
2021	0.8469
2030	0.8475
2039	0.8476
2048	0.8472
2057	0.8466
2066	0.846
2075	0.845
2084	0.844
2093	0.8429
2102	0.8418
2111	0.841
2120	0.8403
2129	0.8396
2138	0.839
2147	0.8383
2156	0.8377
2165	0.8371
2174	0.8363
2183	0.8354
2192	0.8345
2201	0.8335
2210	0.8325
2219	0.8311
2228	0.8298
2237	0.8284
2246	0.8275
2255	0.8266
2264	0.8257
2273	0.8249
2282	0.824
2291	0.8232
2300	0.8223
2309	0.8215
2318	0.8209
2327	0.8202
2336	0.8197
2345	0.819
2354	0.8185
2363	0.8178
2372	0.8173
2381	0.8167
2390	0.8161
2399	0.8155
2408	0.8149
2417	0.8146
2426	0.8143
2435	0.814
2444	0.8137
2453	0.8137
2462	0.8138
2471	0.8139
2480	0.814
2489	0.8139
2498	0.8138
2507	0.8136
2516	0.8134
2525	0.8133
2534	0.8131
2543	0.8124
2552	0.8116
2561	0.8107
2570	0.8099
2579	0.809
2588	0.8081
2597	0.8073
2606	0.8063
2615	0.8052
2624	0.8042
2633	0.8031
2642	0.802
2651	0.8009
2660	0.7999
2669	0.7988
2678	0.7977
2687	0.7966
2696	0.7955
2705	0.7944
2714	0.7933
2723	0.7921
2732	0.791
2741	0.7899
2750	0.7888
2759	0.7877
2768	0.7867
2777	0.7857
2786	0.7847
2795	0.7837
2804	0.7816
2813	0.7794
2822	0.7772
2831	0.7724
2840	0.7666
2849	0.7618
2858	0.7616
2867	0.7645
2876	0.7676
2885	0.7683
2894	0.7672
2903	0.7646
2912	0.7609
2921	0.758
2930	0.7591
2939	0.7592
2948	0.7581
2957	0.7566
2966	0.7549
2975	0.7534
2984	0.7522
2993	0.7506
3002	0.7483
3011	0.746
3020	0.7437
3029	0.7409
3038	0.7381
3047	0.7402
3056	0.7338
3065	0.7242
3074	0.7217
3083	0.7229
3092	0.7262
3101	0.6867
3110	0.7249
3119	0.7377
3128	0.7423
3137	0.7438
3146	0.7433
3155	0.742
3164	0.7408
3173	0.7395
3182	0.7383
3191	0.7371
3200	0.7359
3209	0.7349
3218	0.7343
3227	0.7336
3236	0.733
3245	0.7324
3254	0.7312
3263	0.7289
3272	0.7258
3281	0.7212
3290	0.7273
3299	0.7275
3308	0.7269
3317	0.7255
3326	0.724
3335	0.7222
3344	0.7205
3353	0.7188
3362	0.7171
3371	0.7153
3380	0.7136
3389	0.7118
3398	0.7099
3407	0.7079
3416	0.706
3425	0.7041
3434	0.7031
3443	0.7026
3452	0.7021
3461	0.7016
3470	0.7026
3479	0.7035
3488	0.7045
3497	0.7054
3506	0.7064
3515	0.7072
3524	0.708
3533	0.7087
3542	0.7094
3551	0.7101
3560	0.7108
3569	0.7116
3578	0.7125
3587	0.7135
3596	0.7144
3605	0.7154
3614	0.7163
3623	0.7166
3632	0.7164
3641	0.7161
3650	0.7159
3659	0.7152
3668	0.7144
3677	0.7136
3686	0.7128
3695	0.712
3704	0.7112
3713	0.7104
3722	0.7096
3731	0.7088
3740	0.7081
3749	0.7074
3758	0.7067
3767	0.7059
3776	0.7058
3785	0.7058
