Infrared Spectrum: Lead chloride, triphenyl-
Formula: C18 H15 Cl Pb
CAS: 1153-06-6
State: SOLID (SPLIT MULL), FLUOROLUBE FOR 3800-1330 CM^-^1, NUJOL FOR 1330-460 CM^-^1
Class: COBLENTZ III
Instrument: DOW KBr FOREPRISM-GRATING
Instrument parameters: BLAZED AT 3.5, 12.0, 20.0 MICRON AND CHANGED AT 5.0, 7.5, 14.9 MICRON
Sampling: TRANSMISSION
Resolution: 2
Origin: DOW CHEMICAL COMPANY
1/CM	TRANSMITTANCE
460	0.7428
469	0.7528
478	0.7599
487	0.765
496	0.7707
505	0.7737
514	0.7764
523	0.7789
532	0.7806
541	0.7824
550	0.7855
559	0.7919
568	0.7965
577	0.8001
586	0.8036
595	0.8069
604	0.8084
613	0.7949
622	0.8131
631	0.8137
640	0.8138
649	0.814
658	0.8084
667	0.7917
676	0.7915
685	0.5886
694	0.3814
703	0.7699
712	0.7585
721	0.2992
730	0.1934
739	0.6731
748	0.7975
757	0.8128
766	0.8158
775	0.8232
784	0.8289
793	0.8296
802	0.8287
811	0.834
820	0.8294
829	0.8318
838	0.7857
847	0.8143
856	0.8265
865	0.8251
874	0.8215
883	0.8158
892	0.8095
901	0.8035
910	0.7887
919	0.8044
928	0.8007
937	0.7978
946	0.795
955	0.7893
964	0.7824
973	0.7849
982	0.7781
991	0.7471
1000	0.7882
1009	0.7875
1018	0.5489
1027	0.7932
1036	0.7928
1045	0.7901
1054	0.7672
1063	0.6861
1072	0.7882
1081	0.7915
1090	0.7946
1099	0.7985
1108	0.7961
1117	0.7935
1126	0.7922
1135	0.7875
1144	0.7811
1153	0.7465
1162	0.7825
1171	0.7734
1180	0.7686
1189	0.793
1198	0.7938
1207	0.7922
1216	0.7939
1225	0.794
1234	0.7895
1243	0.7818
1252	0.7681
1261	0.7562
1270	0.7638
1279	0.7612
1288	0.7481
1297	0.7157
1306	0.7304
1315	0.7587
1324	0.7265
1333	0.7371
1342	0.7261
1351	0.7578
1360	0.7792
1369	0.7847
1378	0.7915
1387	0.7999
1396	0.7994
1405	0.7935
1414	0.7789
1423	0.7039
1432	0.485
1441	0.8493
1450	0.8383
1459	0.8233
1468	0.7799
1477	0.4823
1486	0.849
1495	0.8425
1504	0.8401
1513	0.8399
1522	0.8373
1531	0.8325
1540	0.829
1549	0.8251
1558	0.8087
1567	0.592
1576	0.8367
1585	0.8411
1594	0.8411
1603	0.8361
1612	0.8325
1621	0.8307
1630	0.8217
1639	0.8189
1648	0.8251
1657	0.8232
1666	0.8192
1675	0.8161
1684	0.8136
1693	0.8101
1702	0.8058
1711	0.8083
1720	0.8042
1729	0.8097
1738	0.8047
1747	0.7993
1756	0.8012
1765	0.7987
1774	0.7992
1783	0.7971
1792	0.7893
1801	0.7821
1810	0.7894
1819	0.783
1828	0.7895
1837	0.7896
1846	0.7878
1855	0.785
1864	0.7721
1873	0.7591
1882	0.7747
1891	0.7814
1900	0.7757
1909	0.7839
1918	0.7858
1927	0.7819
1936	0.7724
1945	0.7688
1954	0.7626
1963	0.7674
1972	0.7705
1981	0.7671
1990	0.7694
1999	0.7741
2008	0.7753
2017	0.7758
2026	0.7742
2035	0.7715
2044	0.7694
2053	0.7672
2062	0.7644
2071	0.7625
2080	0.7608
2089	0.7584
2098	0.7551
2107	0.7512
2116	0.7497
2125	0.7508
2134	0.7501
2143	0.7475
2152	0.7444
2161	0.7408
2170	0.7376
2179	0.7345
2188	0.7312
2197	0.7281
2206	0.7251
2215	0.7218
2224	0.7184
2233	0.7145
2242	0.7115
2251	0.7087
2260	0.7057
2269	0.7028
2278	0.7006
2287	0.6983
2296	0.6965
2305	0.6946
2314	0.6939
2323	0.6936
2332	0.6924
2341	0.6904
2350	0.6885
2359	0.6869
2368	0.6849
2377	0.6826
2386	0.6825
2395	0.6821
2404	0.6817
2413	0.6807
2422	0.6796
2431	0.6784
2440	0.6761
2449	0.6737
2458	0.6721
2467	0.6707
2476	0.6692
2485	0.6672
2494	0.6654
2503	0.6635
2512	0.6618
2521	0.6601
2530	0.6585
2539	0.6558
2548	0.6532
2557	0.6511
2566	0.6462
2575	0.6465
2584	0.6512
2593	0.6494
2602	0.6484
2611	0.6471
2620	0.6455
2629	0.6437
2638	0.6415
2647	0.6394
2656	0.6372
2665	0.6356
2674	0.6346
2683	0.633
2692	0.6307
2701	0.6288
2710	0.627
2719	0.6247
2728	0.6222
2737	0.6194
2746	0.6166
2755	0.614
2764	0.6114
2773	0.6086
2782	0.6055
2791	0.6025
2800	0.5998
2809	0.5969
2818	0.5939
2827	0.5909
2836	0.5887
2845	0.5864
2854	0.5839
2863	0.5812
2872	0.5784
2881	0.5754
2890	0.5724
2899	0.5692
2908	0.5656
2917	0.5626
2926	0.5615
2935	0.5624
2944	0.5626
2953	0.5618
2962	0.5583
2971	0.547
2980	0.5369
2989	0.5547
2998	0.5526
3007	0.543
3016	0.5335
3025	0.5218
3034	0.504
3043	0.4784
3052	0.4699
3061	0.471
3070	0.5568
3079	0.5576
3088	0.5557
3097	0.5528
3106	0.5501
3115	0.5477
3124	0.5451
3133	0.5443
3142	0.5458
3151	0.5433
3160	0.5404
3169	0.5372
3178	0.5342
3187	0.5312
3196	0.5292
3205	0.5272
3214	0.525
3223	0.5225
3232	0.52
3241	0.5183
3250	0.5168
3259	0.5152
3268	0.5137
3277	0.5122
3286	0.511
3295	0.5096
3304	0.5084
3313	0.507
3322	0.5056
3331	0.5036
3340	0.5018
3349	0.4998
3358	0.4979
3367	0.496
3376	0.4943
3385	0.4925
3394	0.4907
3403	0.4889
3412	0.4871
3421	0.4853
3430	0.4836
3439	0.4819
3448	0.4801
3457	0.4784
3466	0.4768
3475	0.4754
3484	0.4741
3493	0.4728
3502	0.4715
3511	0.4701
3520	0.4688
3529	0.4667
3538	0.4646
3547	0.4625
3556	0.4605
3565	0.4583
3574	0.4562
3583	0.4543
3592	0.4523
3601	0.4502
3610	0.4482
3619	0.4464
3628	0.4452
3637	0.444
3646	0.4428
3655	0.4416
3664	0.4405
3673	0.4393
3682	0.4383
3691	0.4371
3700	0.436
3709	0.4348
3718	0.4337
3727	0.4324
3736	0.4309
3745	0.4289
3754	0.4271
3763	0.426
3772	0.4253
3781	0.4245
