Infrared Spectrum: 6-(DIMETHYLAMINOMETHYL)-2,2'-THIO-BIS-(4-CHLOROPHENOL)
Formula: C15 H15 Cl2 N O2 S
CAS: 116435-08-6
State: SOLUTION (10% CCl4 FOR 5000-1300, 10% CS2 FOR 1300-625 CM^-^1)
Class: COBLENTZ
Instrument: Not specified, most likely a prism, grating, or hybrid spectrometer.
Sampling: TRANSMISSION
Path length: 0.01 CM, 0.01 CM
Resolution: 4
Origin: DOW CHEMICAL COMPANY
MICROMETERS	TRANSMITTANCE
2.027	0.845
2.0677	0.845
2.1084	0.845
2.14909	0.845
2.18979	0.845
2.23049	0.845
2.27119	0.845
2.31189	0.846
2.35258	0.848
2.39328	0.851
2.43398	0.856
2.47468	0.853
2.51537	0.848
2.55607	0.843
2.59677	0.85
2.63747	0.853
2.67817	0.855
2.71886	0.846
2.75956	0.831
2.80026	0.806
2.84096	0.776
2.88166	0.708
2.92235	0.595
2.96305	0.565
3.00375	0.575
3.04445	0.601
3.08515	0.616
3.12584	0.609
3.16654	0.594
3.20724	0.574
3.24794	0.55
3.28864	0.535
3.32933	0.528
3.37003	0.462
3.41073	0.476
3.45143	0.459
3.49212	0.424
3.53282	0.414
3.57352	0.43
3.61422	0.446
3.65492	0.483
3.69561	0.491
3.73631	0.493
3.77701	0.501
3.81771	0.505
3.85841	0.508
3.8991	0.511
3.9398	0.515
3.9805	0.521
4.0212	0.548
4.0619	0.569
4.10259	0.579
4.14329	0.595
4.18399	0.606
4.22469	0.617
4.26539	0.624
4.30608	0.636
4.34678	0.644
4.38748	0.658
4.42818	0.675
4.46887	0.686
4.50957	0.69
4.55027	0.695
4.59097	0.702
4.63167	0.708
4.67236	0.713
4.71306	0.717
4.75376	0.722
4.79446	0.73
4.83516	0.74
4.87585	0.747
4.91655	0.749
4.95725	0.744
4.99795	0.75
5.03865	0.749
5.07934	0.75
5.12004	0.752
5.16074	0.75
5.20144	0.747
5.24214	0.749
5.28283	0.74
5.32353	0.72
5.36423	0.727
5.40493	0.74
5.44562	0.739
5.48632	0.742
5.52702	0.745
5.56772	0.74
5.60842	0.739
5.64911	0.717
5.68981	0.698
5.73051	0.705
5.77121	0.72
5.81191	0.735
5.8526	0.742
5.8933	0.749
5.934	0.75
5.9747	0.75
6.0154	0.749
6.05609	0.744
6.09679	0.739
6.13749	0.725
6.17819	0.691
6.21889	0.579
6.25958	0.449
6.30028	0.398
6.34098	0.375
6.38168	0.375
6.42237	0.38
6.46307	0.388
6.50377	0.459
6.54447	0.505
6.58517	0.515
6.62586	0.513
6.66656	0.474
6.70726	0.367
6.74796	0.2
6.78866	0.065
6.82935	0.043
6.87005	0.057
6.91075	0.075
6.95145	0.102
6.99215	0.107
7.03284	0.215
7.07354	0.299
7.11424	0.319
7.15494	0.318
7.19564	0.314
7.23633	0.326
7.27703	0.395
7.31773	0.429
7.35843	0.388
7.39912	0.363
7.43982	0.464
7.48052	0.496
7.52122	0.52
7.56192	0.562
7.60261	0.572
7.64331	0.535
7.68401	0.449
7.72471	0.297
7.76541	0.213
7.8061	0.198
7.8468	0.276
7.8875	0.329
7.9282	0.284
7.9689	0.213
8.00959	0.271
8.05029	0.348
8.09099	0.383
8.13169	0.39
8.17239	0.326
8.21308	0.245
8.25378	0.351
8.29448	0.34
8.33518	0.324
8.37587	0.299
8.41657	0.282
8.45727	0.24
8.49797	0.284
8.53867	0.338
8.57936	0.42
8.62006	0.503
8.66076	0.53
8.70146	0.535
8.74216	0.563
8.78285	0.565
8.82355	0.577
8.86425	0.612
8.90495	0.634
8.94565	0.641
8.98634	0.627
9.02704	0.577
9.06774	0.52
9.10844	0.488
9.14914	0.518
9.18983	0.57
9.23053	0.639
9.27123	0.676
9.31193	0.693
9.35262	0.698
9.39332	0.69
9.43402	0.664
9.47472	0.656
9.51542	0.649
9.55611	0.595
9.59681	0.51
9.63751	0.604
9.67821	0.638
9.71891	0.587
9.7596	0.469
9.8003	0.383
9.841	0.51
9.8817	0.626
9.9224	0.678
9.96309	0.702
10.0038	0.713
10.0445	0.72
10.0852	0.727
10.1259	0.72
10.1666	0.698
10.2073	0.646
10.248	0.52
10.2887	0.471
10.3294	0.599
10.3701	0.653
10.4108	0.671
10.4515	0.68
10.4922	0.681
10.5329	0.683
10.5736	0.681
10.6143	0.678
10.655	0.68
10.6957	0.681
10.7364	0.673
10.7771	0.644
10.8177	0.59
10.8584	0.569
10.8991	0.604
10.9398	0.648
10.9805	0.661
11.0212	0.661
11.0619	0.656
11.1026	0.643
11.1433	0.627
11.184	0.601
11.2247	0.55
11.2654	0.486
11.3061	0.397
11.3468	0.311
11.3875	0.255
11.4282	0.252
11.4689	0.287
11.5096	0.35
11.5503	0.387
11.591	0.382
11.6317	0.38
11.6724	0.398
11.7131	0.41
11.7538	0.43
11.7945	0.441
11.8352	0.429
11.8759	0.4
11.9166	0.363
11.9573	0.355
11.998	0.368
12.0387	0.39
12.0794	0.387
12.1201	0.345
12.1608	0.25
12.2015	0.191
12.2422	0.267
12.2829	0.377
12.3236	0.454
12.3643	0.501
12.405	0.537
12.4457	0.563
12.4864	0.58
12.5271	0.594
12.5678	0.599
12.6085	0.606
12.6492	0.612
12.6899	0.616
12.7306	0.619
12.7712	0.624
12.8119	0.629
12.8526	0.632
12.8933	0.638
12.934	0.638
12.9747	0.639
13.0154	0.636
13.0561	0.627
13.0968	0.621
13.1375	0.616
13.1782	0.611
13.2189	0.601
13.2596	0.594
13.3003	0.577
13.341	0.553
13.3817	0.518
13.4224	0.459
13.4631	0.429
13.5038	0.419
13.5445	0.4
13.5852	0.37
13.6259	0.321
13.6666	0.269
13.7073	0.213
13.748	0.176
13.7887	0.153
13.8294	0.144
13.8701	0.173
13.9108	0.244
13.9515	0.304
13.9922	0.341
14.0329	0.358
14.0736	0.38
14.1143	0.429
14.155	0.469
14.1957	0.5
14.2364	0.516
14.2771	0.521
14.3178	0.521
14.3585	0.508
14.3992	0.498
14.4399	0.498
14.4806	0.508
14.5213	0.516
14.562	0.52
14.6027	0.516
14.6434	0.508
14.6841	0.505
14.7247	0.494
14.7654	0.488
14.8061	0.479
14.8468	0.473
14.8875	0.461
14.9282	0.449
14.9689	0.432
15.0096	0.412
15.0503	0.38
15.091	0.35
15.1317	0.318
15.1724	0.292
15.2131	0.282
15.2538	0.271
15.2945	0.259
15.3352	0.232
15.3759	0.207
15.4166	0.195
15.4573	0.223
15.498	0.259
15.5387	0.281
15.5794	0.291
15.6201	0.296
15.6608	0.299
15.7015	0.297
15.7422	0.296
15.7829	0.292
15.8236	0.286
15.8643	0.279
15.905	0.284
15.9457	0.274
15.9864	0.235
