Infrared Spectrum: Spiro[benzofuran-3(2H),4'-piperidine]-2-one, 5-methyl-,
Formula: C13 H15 N O2
CAS: 116633-09-1
State: SOLID (NUJOL MULL)
Class: COBLENTZ III
Instrument: PERKIN-ELMER 21 (GRATING)
Instrument parameters: FILTER AT ABOUT 10 MICRONS
Resolution: 2
Origin: ABBOTT LABORATORIES
1/CM	TRANSMITTANCE
649	0.6081
658	0.5381
667	0.7179
676	0.7292
685	0.7527
694	0.7602
703	0.7517
712	0.6739
721	0.6748
730	0.6917
739	0.6778
748	0.6189
757	0.6795
766	0.4615
775	0.7036
784	0.736
793	0.7038
802	0.5652
811	0.2246
820	0.4317
829	0.7377
838	0.7573
847	0.7351
856	0.6856
865	0.598
874	0.4549
883	0.3848
892	0.3963
901	0.6494
910	0.6727
919	0.6326
928	0.556
937	0.4822
946	0.5945
955	0.5106
964	0.6472
973	0.6377
982	0.5818
991	0.4857
1000	0.5697
1009	0.5429
1018	0.3142
1027	0.1911
1036	0.1507
1045	0.1546
1054	0.3194
1063	0.6325
1072	0.6762
1081	0.7048
1090	0.6756
1099	0.6765
1108	0.6948
1117	0.6107
1126	0.5511
1135	0.4015
1144	0.3682
1153	0.4502
1162	0.4206
1171	0.554
1180	0.6337
1189	0.6787
1198	0.6606
1207	0.5982
1216	0.4939
1225	0.3258
1234	0.4834
1243	0.5072
1252	0.655
1261	0.6486
1270	0.642
1279	0.6072
1288	0.5131
1297	0.436
1306	0.5115
1315	0.5719
1324	0.507
1333	0.5802
1342	0.5787
1351	0.5185
1360	0.4001
1369	0.289
1378	0.4799
1387	0.5936
1396	0.6538
1405	0.6319
1414	0.5192
1423	0.4669
1432	0.3052
1441	0.1622
1450	0.1054
1459	0.091
1468	0.2064
1477	0.1952
1486	0.2391
1495	0.4757
1504	0.7024
1513	0.7422
1522	0.7403
1531	0.734
1540	0.7257
1549	0.7175
1558	0.708
1567	0.7024
1576	0.7021
1585	0.6998
1594	0.6896
1603	0.64
1612	0.59
1621	0.6449
1630	0.6667
1639	0.7121
1648	0.7217
1657	0.7177
1666	0.7075
1675	0.6943
1684	0.6804
1693	0.6587
1702	0.6505
1711	0.6419
1720	0.6287
1729	0.5908
1738	0.5259
1747	0.4464
1756	0.3395
1765	0.2336
1774	0.1288
1783	0.1968
1792	0.1695
1801	0.149
1810	0.4099
1819	0.6656
1828	0.7567
1837	0.7789
1846	0.7892
1855	0.7912
1864	0.7904
1873	0.7843
1882	0.7803
1891	0.7849
1900	0.7921
1909	0.7942
1918	0.7936
1927	0.7922
1936	0.7908
1945	0.7893
1954	0.7871
1963	0.7831
1972	0.7788
1981	0.7747
1990	0.7747
1999	0.7743
2008	0.7735
2017	0.7696
2026	0.7654
2035	0.7606
2044	0.756
2053	0.7539
2062	0.7521
2071	0.7514
2080	0.7506
2089	0.7499
2098	0.7492
2107	0.7493
2116	0.7503
2125	0.7509
2134	0.7511
2143	0.749
2152	0.7465
2161	0.7441
2170	0.7417
2179	0.7392
2188	0.7368
2197	0.7349
2206	0.7351
2215	0.7352
2224	0.7346
2233	0.7319
2242	0.7282
2251	0.725
2260	0.7255
2269	0.7264
2278	0.7256
2287	0.7228
2296	0.7194
2305	0.7165
2314	0.7143
2323	0.7121
2332	0.71
2341	0.7086
2350	0.7079
2359	0.7071
2368	0.7064
2377	0.7053
2386	0.7038
2395	0.7022
2404	0.7008
2413	0.6994
2422	0.698
2431	0.6967
2440	0.6953
2449	0.694
2458	0.6927
2467	0.6913
2476	0.69
2485	0.6887
2494	0.6874
2503	0.6861
2512	0.6847
2521	0.6835
2530	0.6819
2539	0.6778
2548	0.6726
2557	0.6673
2566	0.6622
2575	0.6558
2584	0.6488
2593	0.6417
2602	0.6347
2611	0.6277
2620	0.6208
2629	0.6168
2638	0.6132
2647	0.6097
2656	0.6062
2665	0.6028
2674	0.6003
2683	0.5978
2692	0.5953
2701	0.593
2710	0.5918
2719	0.5906
2728	0.5894
2737	0.5895
2746	0.5904
2755	0.5913
2764	0.5927
2773	0.5884
2782	0.5777
2791	0.5499
2800	0.499
2809	0.3648
2818	0.2311
2827	0.1173
2836	0.0442
2845	0.0178
2854	0.0099
2863	0.0057
2872	0.0037
2881	0.0032
2890	0.0032
2899	0.0033
2908	0.0034
2917	0.0035
2926	0.0041
2935	0.0049
2944	0.0284
2953	0.0838
2962	0.1388
2971	0.1936
2980	0.248
2989	0.3022
2998	0.3554
3007	0.3823
3016	0.4099
3025	0.4258
3034	0.4727
3043	0.495
3052	0.5075
3061	0.5125
3070	0.5166
3079	0.5189
3088	0.5204
3097	0.5208
3106	0.5212
3115	0.521
3124	0.5201
3133	0.5191
3142	0.5174
3151	0.5153
3160	0.5124
3169	0.508
3178	0.5027
3187	0.4946
3196	0.4806
3205	0.466
3214	0.4514
3223	0.437
3232	0.4303
3241	0.443
3250	0.477
3259	0.5108
3268	0.5444
3277	0.548
3286	0.5434
3295	0.5409
3304	0.5352
3313	0.5264
3322	0.5171
3331	0.5104
3340	0.5094
3349	0.5195
3358	0.5385
3367	0.5438
3376	0.5444
3385	0.5439
3394	0.5431
3403	0.5419
3412	0.5403
3421	0.5388
3430	0.5371
3439	0.5356
3448	0.5341
3457	0.5327
3466	0.5312
3475	0.5306
3484	0.5303
3493	0.5303
3502	0.5304
3511	0.5304
3520	0.5304
3529	0.5305
3538	0.531
3547	0.5315
3556	0.5319
3565	0.5324
3574	0.5327
3583	0.533
3592	0.5332
3601	0.5334
3610	0.5336
3619	0.5334
3628	0.5329
3637	0.5325
3646	0.5313
3655	0.5295
3664	0.5278
3673	0.5257
3682	0.5232
3691	0.5208
3700	0.5184
3709	0.516
3718	0.5139
3727	0.5119
3736	0.5099
3745	0.5079
3754	0.5059
3763	0.5039
3772	0.502
3781	0.5003
3790	0.4984
3799	0.4967
3808	0.495
3817	0.4932
3826	0.4915
3835	0.4898
3844	0.4882
3853	0.4867
3862	0.4853
3871	0.4839
3880	0.4824
3889	0.481
3898	0.4796
3907	0.4781
3916	0.4768
3925	0.4753
3934	0.4739
3943	0.4725
3952	0.4709
3961	0.4694
3970	0.4679
3979	0.4664
3988	0.4649
3997	0.4635
