Infrared Spectrum: 1,3-DI-(1,2-DICARBETHOXYETHYL) UREA
Formula: C17 H28 N2 O9
CAS: 116435-07-5
State: SOLID (KBr PRESSING)
Melting point: 80 C
Class: COBLENTZ
Instrument: Not specified, most likely a prism, grating, or hybrid spectrometer.
Sampling: TRANSMISSION
Resolution: 4
Origin: EASTMAN KODAK COMPANY, RESEARCH LABORATORIES, ROCHESTER, N.Y.
MICROMETERS	TRANSMITTANCE
2.164	0.737
2.19914	0.737
2.23427	0.741
2.26941	0.743
2.30454	0.746
2.33968	0.748
2.37481	0.751
2.40995	0.755
2.44508	0.756
2.48022	0.762
2.51535	0.765
2.55049	0.767
2.58562	0.769
2.62076	0.769
2.65589	0.772
2.69103	0.776
2.72616	0.772
2.7613	0.748
2.79643	0.717
2.83157	0.673
2.8667	0.651
2.90184	0.625
2.93697	0.572
2.97211	0.475
3.00724	0.418
3.04238	0.559
3.07751	0.668
3.11265	0.711
3.14778	0.736
3.18292	0.75
3.21805	0.756
3.25319	0.763
3.28833	0.762
3.32346	0.657
3.3586	0.536
3.39373	0.64
3.42887	0.671
3.464	0.748
3.49914	0.77
3.53427	0.784
3.56941	0.791
3.60454	0.793
3.63968	0.798
3.67481	0.802
3.70995	0.802
3.74508	0.803
3.78022	0.81
3.81535	0.814
3.85049	0.817
3.88562	0.812
3.92076	0.812
3.95589	0.819
3.99103	0.819
4.02616	0.819
4.0613	0.819
4.09643	0.821
4.13157	0.821
4.1667	0.821
4.20184	0.821
4.23697	0.826
4.27211	0.831
4.30724	0.829
4.34238	0.829
4.37752	0.831
4.41265	0.831
4.44779	0.831
4.48292	0.831
4.51806	0.831
4.55319	0.828
4.58833	0.829
4.62346	0.829
4.6586	0.833
4.69373	0.833
4.72887	0.843
4.764	0.84
4.79914	0.833
4.83427	0.829
4.86941	0.829
4.90454	0.831
4.93968	0.831
4.97481	0.833
5.00995	0.831
5.04508	0.833
5.08022	0.835
5.11535	0.835
5.15049	0.835
5.18562	0.835
5.22076	0.829
5.25589	0.831
5.29103	0.833
5.32616	0.833
5.3613	0.833
5.39643	0.833
5.43157	0.829
5.46671	0.824
5.50184	0.819
5.53698	0.812
5.57211	0.796
5.60725	0.75
5.64238	0.711
5.67752	0.331
5.71265	0.112
5.74779	0.112
5.78292	0.157
5.81806	0.359
5.85319	0.649
5.88833	0.713
5.92346	0.729
5.9586	0.727
5.99373	0.708
6.02887	0.682
6.064	0.619
6.09914	0.282
6.13427	0.06
6.16941	0.258
6.20454	0.637
6.23968	0.711
6.27481	0.708
6.30995	0.638
6.34508	0.503
6.38022	0.288
6.41535	0.251
6.45049	0.276
6.48563	0.359
6.52076	0.609
6.5559	0.682
6.59103	0.713
6.62617	0.725
6.6613	0.755
6.69644	0.76
6.73157	0.751
6.76671	0.694
6.80184	0.668
6.83698	0.656
6.87211	0.671
6.90725	0.644
6.94238	0.694
6.97752	0.737
7.01265	0.689
7.04779	0.592
7.08292	0.552
7.11806	0.64
7.15319	0.6
7.18833	0.572
7.22346	0.534
7.2586	0.376
7.29373	0.394
7.32887	0.534
7.364	0.618
7.39914	0.52
7.43427	0.524
7.46941	0.612
7.50454	0.685
7.53968	0.666
7.57482	0.687
7.60995	0.652
7.64509	0.491
7.68022	0.371
7.71536	0.368
7.75049	0.44
7.78563	0.562
7.82076	0.623
7.8559	0.671
7.89103	0.701
7.92617	0.706
7.9613	0.704
7.99644	0.675
8.03157	0.652
8.06671	0.602
8.10184	0.532
8.13698	0.46
8.17211	0.352
8.20725	0.206
8.24238	0.154
8.27752	0.126
8.31265	0.105
8.34779	0.107
8.38292	0.133
8.41806	0.17
8.45319	0.203
8.48833	0.272
8.52346	0.35
8.5586	0.387
8.59373	0.451
8.62887	0.505
8.66401	0.571
8.69914	0.616
8.73428	0.625
8.76941	0.59
8.80455	0.548
8.83968	0.572
8.87482	0.652
8.90995	0.703
8.94509	0.717
8.98022	0.722
9.01536	0.73
9.05049	0.725
9.08563	0.684
9.12076	0.694
9.1559	0.758
9.19103	0.776
9.22617	0.791
9.2613	0.786
9.29644	0.791
9.33157	0.77
9.36671	0.772
9.40184	0.736
9.43698	0.671
9.47211	0.538
9.50725	0.409
9.54238	0.375
9.57752	0.449
9.61265	0.55
9.64779	0.559
9.68292	0.529
9.71806	0.524
9.7532	0.6
9.78833	0.666
9.82347	0.703
9.8586	0.725
9.89374	0.753
9.92887	0.781
9.96401	0.803
9.99914	0.829
10.0343	0.831
10.0694	0.845
10.1045	0.847
10.1397	0.855
10.1748	0.842
10.21	0.854
10.2451	0.821
10.2802	0.826
10.3154	0.833
10.3505	0.838
10.3856	0.845
10.4208	0.84
10.4559	0.866
10.491	0.866
10.5262	0.866
10.5613	0.878
10.5964	0.873
10.6316	0.885
10.6667	0.873
10.7018	0.88
10.737	0.878
10.7721	0.871
10.8072	0.883
10.8424	0.876
10.8775	0.878
10.9127	0.85
10.9478	0.845
10.9829	0.831
11.0181	0.833
11.0532	0.852
11.0883	0.852
11.1235	0.855
11.1586	0.836
11.1937	0.838
11.2289	0.845
11.264	0.838
11.2991	0.843
11.3343	0.826
11.3694	0.821
11.4045	0.822
11.4397	0.815
11.4748	0.803
11.51	0.784
11.5451	0.779
11.5802	0.779
11.6154	0.793
11.6505	0.817
11.6856	0.855
11.7208	0.864
11.7559	0.866
11.791	0.873
11.8262	0.876
11.8613	0.871
11.8964	0.854
11.9316	0.852
11.9667	0.852
12.0018	0.855
12.037	0.864
12.0721	0.861
12.1073	0.855
12.1424	0.852
12.1775	0.85
12.2127	0.855
12.2478	0.862
12.2829	0.859
12.3181	0.857
12.3532	0.868
12.3883	0.852
12.4235	0.85
12.4586	0.852
12.4937	0.845
12.5289	0.847
12.564	0.857
12.5991	0.866
12.6343	0.864
12.6694	0.873
12.7045	0.869
12.7397	0.852
12.7748	0.859
12.81	0.857
12.8451	0.828
12.8802	0.828
12.9154	0.847
12.9505	0.854
12.9856	0.866
13.0208	0.885
13.0559	0.885
13.091	0.871
13.1262	0.88
13.1613	0.887
13.1964	0.868
13.2316	0.871
13.2667	0.894
13.3018	0.883
13.337	0.869
13.3721	0.88
13.4073	0.895
13.4424	0.885
13.4775	0.881
13.5127	0.892
13.5478	0.899
13.5829	0.88
13.6181	0.876
13.6532	0.888
13.6883	0.894
13.7235	0.876
13.7586	0.876
13.7937	0.888
13.8289	0.894
13.864	0.875
13.8991	0.868
13.9343	0.868
13.9694	0.878
14.0045	0.854
14.0397	0.845
14.0748	0.847
14.11	0.855
14.1451	0.845
14.1802	0.828
14.2154	0.814
14.2505	0.812
14.2856	0.809
14.3208	0.802
14.3559	0.788
14.391	0.793
14.4262	0.805
14.4613	0.815
14.4964	0.805
14.5316	0.803
14.5667	0.803
14.6018	0.805
14.637	0.805
14.6721	0.795
14.7073	0.791
14.7424	0.796
14.7775	0.802
14.8127	0.786
14.8478	0.781
14.8829	0.777
14.9181	0.769
14.9532	0.763
14.9883	0.765
15.0235	0.767
15.0586	0.767
15.0937	0.763
15.1289	0.746
15.164	0.744
15.1991	0.736
15.2343	0.734
15.2694	0.73
15.3046	0.727
15.3397	0.722
15.3748	0.722
15.41	0.718
15.4451	0.713
15.4802	0.711
15.5154	0.708
15.5505	0.708
15.5856	0.708
15.6208	0.708
15.6559	0.706
15.691	0.694
15.7262	0.685
15.7613	0.684
15.7964	0.684
15.8316	0.685
15.8667	0.685
15.9018	0.684
15.937	0.684
15.9721	0.685
