Infrared Spectrum: 2,6-DI-(5-NONYL) PYRAZINE
Formula: C22 H40 N2
CAS: 116660-06-1
State: LIQUID
Class: COBLENTZ
Instrument: Not specified, most likely a prism, grating, or hybrid spectrometer.
Sampling: TRANSMISSION
Path length: 0.003 CM
Resolution: 4
Origin: WYANDOTTE CHEMICALS CORP., WYANDOTTE, MICHIGAN, USA
MICROMETERS	TRANSMITTANCE
2.027	0.984
2.06788	0.981
2.10875	0.981
2.14963	0.969
2.1905	0.921
2.23138	0.885
2.27226	0.902
2.31313	0.9
2.35401	0.914
2.39488	0.907
2.43576	0.929
2.47664	0.945
2.51751	0.962
2.55839	0.957
2.59927	0.965
2.64014	0.957
2.68102	0.957
2.72189	0.95
2.76277	0.941
2.80365	0.943
2.84452	0.938
2.8854	0.922
2.92627	0.924
2.96715	0.921
3.00803	0.916
3.0489	0.91
3.08978	0.893
3.13065	0.878
3.17153	0.871
3.21241	0.845
3.25328	0.741
3.29416	0.46
3.33504	0.277
3.37591	0.03
3.41679	0.046
3.45766	0.051
3.49854	0.044
3.53942	0.482
3.58029	0.695
3.62117	0.792
3.66204	0.765
3.70292	0.823
3.7438	0.813
3.78467	0.852
3.82555	0.868
3.86642	0.871
3.9073	0.886
3.94818	0.898
3.98905	0.905
4.02993	0.924
4.0708	0.914
4.11168	0.921
4.15256	0.914
4.19343	0.921
4.23431	0.916
4.27519	0.922
4.31606	0.917
4.35694	0.919
4.39781	0.924
4.43869	0.934
4.47957	0.928
4.52044	0.936
4.56132	0.934
4.60219	0.94
4.64307	0.943
4.68395	0.938
4.72482	0.945
4.7657	0.943
4.80657	0.943
4.84745	0.95
4.88833	0.95
4.9292	0.938
4.97008	0.938
5.01096	0.946
5.05183	0.943
5.09271	0.962
5.13358	0.952
5.17446	0.957
5.21534	0.948
5.25621	0.945
5.29709	0.94
5.33796	0.934
5.37884	0.926
5.41972	0.94
5.46059	0.934
5.50147	0.912
5.54234	0.919
5.58322	0.933
5.6241	0.934
5.66497	0.919
5.70585	0.94
5.74672	0.916
5.7876	0.9
5.82848	0.902
5.86935	0.897
5.91023	0.902
5.95111	0.893
5.99198	0.883
6.03286	0.873
6.07373	0.873
6.11461	0.873
6.15549	0.873
6.19636	0.868
6.23724	0.861
6.27811	0.755
6.31899	0.75
6.35987	0.818
6.40074	0.804
6.44162	0.724
6.48249	0.251
6.52337	0.383
6.56425	0.756
6.60512	0.789
6.646	0.779
6.68688	0.731
6.72775	0.616
6.76863	0.15
6.8095	0.097
6.85038	0.136
6.89126	0.236
6.93213	0.402
6.97301	0.489
7.01388	0.239
7.05476	0.208
7.09564	0.534
7.13651	0.63
7.17739	0.638
7.21826	0.332
7.25914	0.359
7.30002	0.534
7.34089	0.631
7.38177	0.66
7.42264	0.607
7.46352	0.655
7.5044	0.729
7.54527	0.763
7.58615	0.75
7.62703	0.731
7.6679	0.703
7.70878	0.66
7.74965	0.636
7.79053	0.633
7.83141	0.65
7.87228	0.616
7.91316	0.601
7.95403	0.607
7.99491	0.621
8.03579	0.606
8.07666	0.498
8.11754	0.376
8.15841	0.34
8.19929	0.556
8.24017	0.623
8.28104	0.619
8.32192	0.684
8.3628	0.702
8.40367	0.727
8.44455	0.738
8.48542	0.671
8.5263	0.462
8.56718	0.203
8.60805	0.19
8.64893	0.335
8.6898	0.546
8.73068	0.606
8.77156	0.568
8.81243	0.611
8.85331	0.667
8.89418	0.703
8.93506	0.636
8.97594	0.571
9.01681	0.537
9.05769	0.571
9.09856	0.571
9.13944	0.583
9.18032	0.597
9.22119	0.625
9.26207	0.662
9.30295	0.688
9.34382	0.707
9.3847	0.729
9.42557	0.736
9.46645	0.751
9.50733	0.772
9.5482	0.77
9.58908	0.77
9.62995	0.765
9.67083	0.761
9.71171	0.748
9.75258	0.696
9.79346	0.458
9.83433	0.148
9.87521	0.469
9.91609	0.717
9.95696	0.77
9.99784	0.797
10.0387	0.811
10.0796	0.808
10.1205	0.796
10.1613	0.772
10.2022	0.756
10.2431	0.75
10.284	0.744
10.3248	0.729
10.3657	0.722
10.4066	0.715
10.4475	0.722
10.4884	0.734
10.5292	0.736
10.5701	0.741
10.611	0.753
10.6519	0.782
10.6927	0.801
10.7336	0.811
10.7745	0.839
10.8154	0.842
10.8562	0.82
10.8971	0.803
10.938	0.792
10.9789	0.787
11.0197	0.78
11.0606	0.777
11.1015	0.753
11.1424	0.732
11.1832	0.719
11.2241	0.667
11.265	0.604
11.3059	0.494
11.3468	0.47
11.3876	0.643
11.4285	0.77
11.4694	0.815
11.5103	0.842
11.5511	0.868
11.592	0.885
11.6329	0.886
11.6738	0.898
11.7146	0.893
11.7555	0.898
11.7964	0.892
11.8373	0.89
11.8781	0.888
11.919	0.893
11.9599	0.897
12.0008	0.905
12.0416	0.907
12.0825	0.902
12.1234	0.898
12.1643	0.89
12.2051	0.883
12.246	0.878
12.2869	0.871
12.3278	0.868
12.3687	0.851
12.4095	0.832
12.4504	0.83
12.4913	0.818
12.5322	0.811
12.573	0.792
12.6139	0.777
12.6548	0.751
12.6957	0.729
12.7365	0.71
12.7774	0.714
12.8183	0.714
12.8592	0.684
12.9	0.613
12.9409	0.577
12.9818	0.662
13.0227	0.751
13.0635	0.784
13.1044	0.785
13.1453	0.772
13.1862	0.739
13.2271	0.703
13.2679	0.669
13.3088	0.65
13.3497	0.638
13.3906	0.631
13.4314	0.63
13.4723	0.63
13.5132	0.602
13.5541	0.571
13.5949	0.537
13.6358	0.494
13.6767	0.445
13.7176	0.452
13.7584	0.501
13.7993	0.585
13.8402	0.672
13.8811	0.736
13.9219	0.758
13.9628	0.782
14.0037	0.794
14.0446	0.799
14.0854	0.799
14.1263	0.799
14.1672	0.797
14.2081	0.791
14.249	0.791
14.2898	0.784
14.3307	0.782
14.3716	0.775
14.4125	0.77
14.4533	0.758
14.4942	0.761
14.5351	0.753
14.576	0.756
14.6168	0.751
14.6577	0.75
14.6986	0.734
14.7395	0.732
14.7803	0.727
14.8212	0.717
14.8621	0.71
14.903	0.702
14.9438	0.7
14.9847	0.707
15.0256	0.69
15.0665	0.616
15.1074	0.589
15.1482	0.611
15.1891	0.643
15.23	0.669
15.2709	0.669
15.3117	0.671
15.3526	0.662
15.3935	0.666
15.4344	0.654
15.4752	0.654
15.5161	0.643
15.557	0.626
15.5979	0.633
15.6387	0.623
15.6796	0.621
15.7205	0.607
15.7614	0.613
15.8022	0.595
15.8431	0.582
15.884	0.583
15.9249	0.568
15.9657	0.566
