Infrared Spectrum: Semicarbazide, 4-cyclohexyl-1-(4-hydroxy-6-methyl-2-pyrimidinyl)-3-thio-, (KETO FORM)
Formula: C12 H19 N5 O S
CAS: 116435-06-4
State: SOLID (SPLIT MULL), FLUOROLUBE FOR 3800-1330 CM^-^1, NUJOL FOR 1330-450 CM^-^1
Melting point: 216 C
Class: COBLENTZ III
Instrument: DOW KBr FOREPRISM-GRATING
Instrument parameters: BLAZED AT 3.5, 12.0, 20.0 MICRON AND CHANGED AT 5.0, 7.5, 14.9 MICRON
Sampling: TRANSMISSION
Resolution: 2
Origin: DOW CHEMICAL COMPANY
1/CM	TRANSMITTANCE
455	0.6935
464	0.6992
473	0.7014
482	0.7072
491	0.713
500	0.6986
509	0.6369
518	0.6181
527	0.6112
536	0.6587
545	0.5987
554	0.6035
563	0.5953
572	0.6229
581	0.6506
590	0.6628
599	0.6599
608	0.6731
617	0.6982
626	0.6614
635	0.6711
644	0.5574
653	0.5417
662	0.5693
671	0.5859
680	0.5744
689	0.5681
698	0.572
707	0.607
716	0.5355
725	0.5773
734	0.5623
743	0.6191
752	0.6411
761	0.6537
770	0.6854
779	0.6878
788	0.6521
797	0.621
806	0.4574
815	0.5169
824	0.4932
833	0.5414
842	0.5847
851	0.6608
860	0.6342
869	0.7111
878	0.7334
887	0.6711
896	0.6969
905	0.6865
914	0.7268
923	0.7336
932	0.7461
941	0.7358
950	0.6878
959	0.6098
968	0.4742
977	0.611
986	0.6076
995	0.6824
1004	0.633
1013	0.681
1022	0.6776
1031	0.6753
1040	0.6814
1049	0.7075
1058	0.7299
1067	0.7024
1076	0.6487
1085	0.6294
1094	0.5962
1103	0.6503
1112	0.6418
1121	0.6689
1130	0.6717
1139	0.6486
1148	0.6458
1157	0.6156
1166	0.6105
1175	0.5953
1184	0.613
1193	0.576
1202	0.5223
1211	0.4808
1220	0.3841
1229	0.363
1238	0.4898
1247	0.4886
1256	0.4025
1265	0.436
1274	0.4519
1283	0.4906
1292	0.4467
1301	0.3634
1310	0.3743
1319	0.3804
1328	0.3664
1337	0.3488
1346	0.3305
1355	0.3479
1364	0.3629
1373	0.4634
1382	0.4347
1391	0.4537
1400	0.468
1409	0.4262
1418	0.3692
1427	0.39
1436	0.3794
1445	0.3424
1454	0.3825
1463	0.4101
1472	0.42
1481	0.4022
1490	0.3984
1499	0.36
1508	0.3266
1517	0.2891
1526	0.2444
1535	0.2269
1544	0.3103
1553	0.3321
1562	0.3584
1571	0.3646
1580	0.358
1589	0.3293
1598	0.2827
1607	0.226
1616	0.1636
1625	0.1405
1634	0.1483
1643	0.1211
1652	0.1446
1661	0.1858
1670	0.2787
1679	0.3925
1688	0.47
1697	0.504
1706	0.4178
1715	0.4898
1724	0.7847
1733	0.8412
1742	0.8542
1751	0.8621
1760	0.8674
1769	0.8735
1778	0.8711
1787	0.8627
1796	0.855
1805	0.8577
1814	0.8577
1823	0.8503
1832	0.8439
1841	0.8378
1850	0.8325
1859	0.8271
1868	0.8218
1877	0.8164
1886	0.8105
1895	0.8045
1904	0.7991
1913	0.7939
1922	0.7895
1931	0.7855
1940	0.7837
1949	0.7801
1958	0.7771
1967	0.7733
1976	0.7705
1985	0.7694
1994	0.7705
2003	0.7711
2012	0.7676
2021	0.763
2030	0.7585
2039	0.7546
2048	0.7515
2057	0.7486
2066	0.7461
2075	0.7433
2084	0.7392
2093	0.7351
2102	0.7319
2111	0.7287
2120	0.7251
2129	0.7198
2138	0.7142
2147	0.7084
2156	0.7028
2165	0.6969
2174	0.6912
2183	0.6856
2192	0.6801
2201	0.6746
2210	0.6686
2219	0.6615
2228	0.6544
2237	0.6489
2246	0.6439
2255	0.6388
2264	0.6339
2273	0.6304
2282	0.627
2291	0.6236
2300	0.6194
2309	0.6139
2318	0.6087
2327	0.6007
2336	0.5977
2345	0.5987
2354	0.5986
2363	0.5968
2372	0.5925
2381	0.5896
2390	0.5869
2399	0.5838
2408	0.5812
2417	0.5786
2426	0.576
2435	0.574
2444	0.5733
2453	0.5735
2462	0.5754
2471	0.5729
2480	0.5662
2489	0.562
2498	0.5596
2507	0.5557
2516	0.5514
2525	0.5471
2534	0.5431
2543	0.5387
2552	0.5338
2561	0.5283
2570	0.5229
2579	0.5177
2588	0.5127
2597	0.5071
2606	0.4999
2615	0.4927
2624	0.4869
2633	0.481
2642	0.4752
2651	0.4693
2660	0.4636
2669	0.457
2678	0.4498
2687	0.4425
2696	0.4349
2705	0.426
2714	0.4171
2723	0.4096
2732	0.4037
2741	0.3976
2750	0.3914
2759	0.3849
2768	0.3784
2777	0.3704
2786	0.3607
2795	0.3518
2804	0.3473
2813	0.3418
2822	0.3362
2831	0.32
2840	0.2941
2849	0.2893
2858	0.3182
2867	0.3207
2876	0.3079
2885	0.2888
2894	0.2645
2903	0.2455
2912	0.2284
2921	0.2332
2930	0.2651
2939	0.2977
2948	0.3368
2957	0.3548
2966	0.3642
2975	0.3647
2984	0.3628
2993	0.3609
3002	0.3592
3011	0.3575
3020	0.3562
3029	0.3548
3038	0.3544
3047	0.356
3056	0.3594
3065	0.3627
3074	0.364
3083	0.3646
3092	0.367
3101	0.3649
3110	0.3616
3119	0.3568
3128	0.3522
3137	0.3474
3146	0.3448
3155	0.344
3164	0.3466
3173	0.3523
3182	0.3573
3191	0.3579
3200	0.3557
3209	0.3512
3218	0.3539
3227	0.363
3236	0.3712
3245	0.3757
3254	0.383
3263	0.4084
3272	0.4565
3281	0.4805
3290	0.4889
3299	0.4848
3308	0.4747
3317	0.4594
3326	0.4292
3335	0.482
3344	0.559
3353	0.5618
3362	0.5626
3371	0.5626
3380	0.5623
3389	0.5619
3398	0.5608
3407	0.5579
3416	0.5544
3425	0.5503
3434	0.546
3443	0.5419
3452	0.5377
3461	0.5337
3470	0.5316
3479	0.5294
3488	0.5272
3497	0.5251
3506	0.5237
3515	0.5222
3524	0.5208
3533	0.5198
3542	0.519
3551	0.5182
3560	0.5174
3569	0.5164
3578	0.5153
3587	0.5143
3596	0.5132
3605	0.5114
3614	0.5096
3623	0.5077
3632	0.5058
3641	0.5039
3650	0.5012
3659	0.4986
3668	0.496
3677	0.4935
3686	0.491
3695	0.4885
3704	0.4859
3713	0.4832
3722	0.4804
3731	0.4776
3740	0.4749
3749	0.4722
3758	0.4695
3767	0.4675
3776	0.4657
3785	0.4645
3794	0.4636
