Infrared Spectrum: Spiro[benzofuran-3(2H),4'-piperidine]-2-one,1'-benzyl-5-methyl-,hydrochloride
Formula: C20 H22 Cl N O2
CAS: 116633-08-0
State: SOLUTION 7% (CHCl3 FOR 2-15 microns)
Class: COBLENTZ
Instrument: PERKIN-ELMER 21 (GRATING)
Instrument parameters: FILTER AT ABOUT 10 MICRONS
Path length: 0.01 CM
Resolution: 2
Origin: ABBOTT LABORATORIES
1/CM	TRANSMITTANCE
654	0.8586
663	0.651
672	0.8336
681	0.8223
690	0.7255
699	0.4611
708	0.7236
717	0.8031
726	0.8557
735	0.8497
744	0.8427
753	0.8215
762	0.807
771	0.7813
780	0.7686
789	0.7499
798	0.7452
807	0.649
816	0.5069
825	0.8607
834	0.9134
843	0.9299
852	0.9454
861	0.9472
870	0.9306
879	0.7692
888	0.7234
897	0.6406
906	0.8545
915	0.7493
924	0.7656
933	0.6969
942	0.5242
951	0.8669
960	0.8256
969	0.5609
978	0.8537
987	0.8984
996	0.9088
1005	0.7674
1014	0.8707
1023	0.8231
1032	0.6328
1041	0.4356
1050	0.3223
1059	0.2055
1068	0.2128
1077	0.473
1086	0.7003
1095	0.8493
1104	0.8513
1113	0.8511
1122	0.7329
1131	0.8249
1140	0.7422
1149	0.6235
1158	0.733
1167	0.7714
1176	0.8107
1185	0.8147
1194	0.7121
1203	0.5947
1212	0.4789
1221	0.4051
1230	0.4256
1239	0.496
1248	0.5677
1257	0.7056
1266	0.8124
1275	0.8041
1284	0.7301
1293	0.7059
1302	0.6581
1311	0.6366
1320	0.7756
1329	0.8047
1338	0.77
1347	0.81
1356	0.8352
1365	0.811
1374	0.7809
1383	0.7618
1392	0.7144
1401	0.7551
1410	0.6886
1419	0.5761
1428	0.6348
1437	0.6348
1446	0.5162
1455	0.463
1464	0.493
1473	0.5351
1482	0.2959
1491	0.5086
1500	0.7994
1509	0.8581
1518	0.8849
1527	0.9042
1536	0.9129
1545	0.915
1554	0.9241
1563	0.9346
1572	0.93
1581	0.9203
1590	0.9109
1599	0.8966
1608	0.852
1617	0.7635
1626	0.8066
1635	0.901
1644	0.9303
1653	0.9392
1662	0.9406
1671	0.9414
1680	0.9406
1689	0.9372
1698	0.9328
1707	0.9237
1716	0.9102
1725	0.8919
1734	0.8687
1743	0.8365
1752	0.8002
1761	0.7033
1770	0.4205
1779	0.1356
1788	0.1383
1797	0.3724
1806	0.6063
1815	0.8229
1824	0.8906
1833	0.9128
1842	0.9296
1851	0.937
1860	0.9312
1869	0.9236
1878	0.9231
1887	0.9277
1896	0.9361
1905	0.9417
1914	0.9429
1923	0.9415
1932	0.9373
1941	0.9313
1950	0.9235
1959	0.9184
1968	0.9173
1977	0.9172
1986	0.9156
1995	0.9135
2004	0.9083
2013	0.9026
2022	0.8963
2031	0.8897
2040	0.8821
2049	0.8737
2058	0.8627
2067	0.8519
2076	0.8412
2085	0.8306
2094	0.8135
2103	0.7978
2112	0.7834
2121	0.77
2130	0.7572
2139	0.7446
2148	0.7313
2157	0.7179
2166	0.7049
2175	0.6936
2184	0.6825
2193	0.6719
2202	0.6593
2211	0.6404
2220	0.6201
2229	0.6006
2238	0.5833
2247	0.5663
2256	0.5514
2265	0.5356
2274	0.5151
2283	0.497
2292	0.4836
2301	0.4721
2310	0.4638
2319	0.4598
2328	0.456
2337	0.4531
2346	0.4502
2355	0.4472
2364	0.4447
2373	0.4459
2382	0.4522
2391	0.4612
2400	0.4699
2409	0.4784
2418	0.4879
2427	0.4973
2436	0.5063
2445	0.5156
2454	0.522
2463	0.5247
2472	0.5277
2481	0.547
2490	0.5696
2499	0.5919
2508	0.6141
2517	0.6362
2526	0.6582
2535	0.68
2544	0.7015
2553	0.7252
2562	0.7472
2571	0.7627
2580	0.7728
2589	0.7799
2598	0.783
2607	0.7854
2616	0.7869
2625	0.7883
2634	0.7899
2643	0.7999
2652	0.8216
2661	0.8365
2670	0.8469
2679	0.8545
2688	0.8619
2697	0.8687
2706	0.8756
2715	0.8822
2724	0.888
2733	0.8938
2742	0.8977
2751	0.9002
2760	0.9019
2769	0.9043
2778	0.9028
2787	0.9015
2796	0.8966
2805	0.8897
2814	0.8822
2823	0.8731
2832	0.861
2841	0.8455
2850	0.831
2859	0.817
2868	0.7952
2877	0.7729
2886	0.7555
2895	0.7288
2904	0.6956
2913	0.6483
2922	0.6013
2931	0.5546
2940	0.5081
2949	0.4619
2958	0.416
2967	0.3984
2976	0.4293
2985	0.5177
2994	0.6056
3003	0.693
3012	0.7799
3021	0.8021
3030	0.8048
3039	0.8097
3048	0.8251
3057	0.844
3066	0.8568
3075	0.8695
3084	0.8864
3093	0.8971
3102	0.9061
3111	0.9145
3120	0.9215
3129	0.9243
3138	0.9267
3147	0.9277
3156	0.9284
3165	0.929
3174	0.9292
3183	0.9293
3192	0.9294
3201	0.9295
3210	0.9285
3219	0.9268
3228	0.9239
3237	0.9206
3246	0.9173
3255	0.9133
3264	0.9081
3273	0.903
3282	0.898
3291	0.8926
3300	0.8872
3309	0.8818
3318	0.8765
3327	0.8708
3336	0.8644
3345	0.8581
3354	0.852
3363	0.8472
3372	0.8428
3381	0.8413
3390	0.8403
3399	0.8399
3408	0.8414
3417	0.8436
3426	0.8493
3435	0.8605
3444	0.8733
3453	0.8807
3462	0.8881
3471	0.8997
3480	0.9168
3489	0.9224
3498	0.9232
3507	0.9238
3516	0.9244
3525	0.925
3534	0.9262
3543	0.9288
3552	0.9314
3561	0.9367
3570	0.9432
3579	0.9474
3588	0.9471
3597	0.9469
3606	0.9465
3615	0.9459
3624	0.9452
3633	0.9445
3642	0.9438
3651	0.943
3660	0.9424
3669	0.9414
3678	0.9405
3687	0.9395
3696	0.9386
3705	0.9379
3714	0.9376
3723	0.9373
3732	0.9369
3741	0.9364
3750	0.9361
3759	0.9357
3768	0.9352
3777	0.9348
3786	0.9344
3795	0.934
3804	0.934
3813	0.9339
3822	0.9339
3831	0.9339
3840	0.9339
3849	0.9338
3858	0.9338
3867	0.9338
3876	0.9337
3885	0.9337
3894	0.9337
3903	0.9336
3912	0.9336
3921	0.9335
3930	0.9333
3939	0.9327
3948	0.932
3957	0.9313
3966	0.9307
3975	0.9297
3984	0.9283
3993	0.9268
