Infrared Spectrum: 2-(p-NONYLPHENOXY)-3-BENZYL PYRAZINE
Formula: C26 H32 N2 O
CAS: 116660-03-8
State: LIQUID
Class: COBLENTZ
Instrument: Not specified, most likely a prism, grating, or hybrid spectrometer.
Sampling: TRANSMISSION
Path length: CAPILLARY
Resolution: 4
Origin: WYANDOTTE CHEMICALS CORP., WYANDOTTE, MICHIGAN, USA
MICROMETERS	TRANSMITTANCE
2.048	0.972
2.08876	0.964
2.12951	0.962
2.17027	0.964
2.21102	0.948
2.25178	0.94
2.29254	0.941
2.33329	0.943
2.37405	0.943
2.41481	0.928
2.45556	0.943
2.49632	0.95
2.53707	0.95
2.57783	0.953
2.61859	0.953
2.65934	0.953
2.7001	0.953
2.74085	0.953
2.78161	0.955
2.82237	0.95
2.86312	0.947
2.90388	0.941
2.94464	0.93
2.98539	0.921
3.02615	0.911
3.0669	0.907
3.10766	0.895
3.14842	0.885
3.18917	0.878
3.22993	0.813
3.27068	0.597
3.31144	0.691
3.3522	0.317
3.39295	0.15
3.43371	0.235
3.47446	0.365
3.51522	0.455
3.55598	0.796
3.59673	0.863
3.63749	0.88
3.67825	0.875
3.719	0.89
3.75976	0.897
3.80051	0.902
3.84127	0.904
3.88203	0.904
3.92278	0.911
3.96354	0.906
4.00429	0.916
4.04505	0.906
4.08581	0.904
4.12656	0.897
4.16732	0.899
4.20808	0.902
4.24883	0.895
4.28959	0.902
4.33034	0.923
4.3711	0.923
4.41186	0.923
4.45261	0.919
4.49337	0.921
4.53412	0.923
4.57488	0.924
4.61564	0.921
4.65639	0.919
4.69715	0.919
4.73791	0.923
4.77866	0.923
4.81942	0.923
4.86017	0.916
4.90093	0.911
4.94169	0.911
4.98244	0.914
5.0232	0.914
5.06395	0.907
5.10471	0.906
5.14547	0.899
5.18622	0.89
5.22698	0.899
5.26774	0.892
5.30849	0.86
5.34925	0.872
5.39	0.897
5.43076	0.902
5.47152	0.904
5.51227	0.899
5.55303	0.882
5.59378	0.88
5.63454	0.877
5.6753	0.866
5.71605	0.877
5.75681	0.877
5.79756	0.87
5.83832	0.849
5.87908	0.843
5.91983	0.834
5.96059	0.815
6.00135	0.802
6.0421	0.803
6.08286	0.805
6.12361	0.79
6.16437	0.699
6.20513	0.653
6.24588	0.692
6.28664	0.699
6.32739	0.732
6.36815	0.749
6.40891	0.653
6.44966	0.51
6.49042	0.474
6.53118	0.583
6.57193	0.259
6.61269	0.121
6.65344	0.3
6.6942	0.575
6.73496	0.505
6.77571	0.337
6.81647	0.25
6.85722	0.305
6.89798	0.336
6.93874	0.399
6.97949	0.455
7.02025	0.348
7.06101	0.09
7.10176	0.03
7.14252	0.058
7.18327	0.15
7.22403	0.175
7.26479	0.165
7.30554	0.252
7.3463	0.455
7.38705	0.551
7.42781	0.505
7.46857	0.452
7.50932	0.423
7.55008	0.372
7.59084	0.343
7.63159	0.334
7.67235	0.307
7.7131	0.237
7.75386	0.203
7.79462	0.201
7.83537	0.325
7.87613	0.472
7.91688	0.542
7.95764	0.542
7.9984	0.47
8.03915	0.5
8.07991	0.433
8.12066	0.308
8.16142	0.138
8.20218	0.058
8.24293	0.153
8.28369	0.247
8.32445	0.354
8.3652	0.38
8.40596	0.37
8.44671	0.177
8.48747	0.071
8.52823	0.156
8.56898	0.308
8.60974	0.372
8.65049	0.441
8.69125	0.581
8.73201	0.665
8.77276	0.716
8.81352	0.72
8.85428	0.692
8.89503	0.6
8.93579	0.479
8.97654	0.542
9.0173	0.651
9.05806	0.711
9.09881	0.725
9.13957	0.725
9.18032	0.738
9.22108	0.735
9.26184	0.704
9.30259	0.706
9.34335	0.733
9.38411	0.793
9.42486	0.813
9.46562	0.819
9.50637	0.822
9.54713	0.812
9.58789	0.81
9.62864	0.79
9.6694	0.706
9.71015	0.706
9.75091	0.75
9.79167	0.598
9.83242	0.378
9.87318	0.564
9.91394	0.663
9.95469	0.721
9.99545	0.755
10.0362	0.779
10.077	0.79
10.1177	0.771
10.1585	0.754
10.1992	0.771
10.24	0.796
10.2807	0.805
10.3215	0.802
10.3623	0.796
10.403	0.805
10.4438	0.812
10.4845	0.817
10.5253	0.824
10.566	0.824
10.6068	0.8
10.6475	0.769
10.6883	0.735
10.7291	0.713
10.7698	0.72
10.8106	0.723
10.8513	0.73
10.8921	0.735
10.9328	0.733
10.9736	0.701
11.0144	0.67
11.0551	0.668
11.0959	0.679
11.1366	0.721
11.1774	0.752
11.2181	0.759
11.2589	0.767
11.2996	0.774
11.3404	0.779
11.3812	0.793
11.4219	0.778
11.4627	0.769
11.5034	0.749
11.5442	0.721
11.5849	0.696
11.6257	0.638
11.6664	0.571
11.7072	0.474
11.748	0.383
11.7887	0.344
11.8295	0.337
11.8702	0.349
11.911	0.382
11.9517	0.406
11.9925	0.445
12.0333	0.484
12.074	0.525
12.1148	0.573
12.1555	0.622
12.1963	0.655
12.237	0.692
12.2778	0.715
12.3185	0.738
12.3593	0.762
12.4001	0.778
12.4408	0.783
12.4816	0.79
12.5223	0.791
12.5631	0.784
12.6038	0.769
12.6446	0.752
12.6854	0.749
12.7261	0.752
12.7669	0.754
12.8076	0.728
12.8484	0.686
12.8891	0.639
12.9299	0.663
12.9706	0.718
13.0114	0.745
13.0522	0.755
13.0929	0.747
13.1337	0.725
13.1744	0.682
13.2152	0.624
13.2559	0.578
13.2967	0.546
13.3375	0.506
13.3782	0.482
13.419	0.494
13.4597	0.522
13.5005	0.559
13.5412	0.595
13.582	0.621
13.6227	0.634
13.6635	0.639
13.7043	0.61
13.745	0.551
13.7858	0.472
13.8265	0.441
13.8673	0.498
13.908	0.578
13.9488	0.655
13.9895	0.704
14.0303	0.742
14.0711	0.759
14.1118	0.761
14.1526	0.749
14.1933	0.706
14.2341	0.634
14.2748	0.52
14.3156	0.382
14.3564	0.307
14.3971	0.29
14.4379	0.336
14.4786	0.419
14.5194	0.513
14.5601	0.604
14.6009	0.68
14.6416	0.732
14.6824	0.761
14.7232	0.778
14.7639	0.79
14.8047	0.798
14.8454	0.805
14.8862	0.807
14.9269	0.803
14.9677	0.802
15.0085	0.786
15.0492	0.771
15.09	0.781
15.1307	0.805
15.1715	0.813
15.2122	0.812
15.253	0.805
15.2937	0.802
15.3345	0.796
15.3753	0.79
15.416	0.781
15.4568	0.776
15.4975	0.774
15.5383	0.771
15.579	0.762
15.6198	0.764
15.6606	0.762
15.7013	0.759
15.7421	0.755
15.7828	0.749
15.8236	0.742
15.8643	0.73
15.9051	0.718
15.9458	0.713
15.9866	0.711
