Infrared Spectrum: 2-PHENOXY-6-BENZOYL PYRAZINE PHENYLHYDRAZONE
Formula: C23 H18 N4 O
CAS: 116660-01-6
State: SOLID (MINERAL OIL MULL)
Melting point: 127-130.5 C
Class: COBLENTZ
Instrument: Not specified, most likely a prism, grating, or hybrid spectrometer.
Sampling: TRANSMISSION
Resolution: 4
Origin: WYANDOTTE CHEMICALS CORP., WYANDOTTE, MICHIGAN, USA
MICROMETERS	TRANSMITTANCE
2.02	0.602
2.05981	0.612
2.09962	0.623
2.13943	0.632
2.17925	0.628
2.21906	0.635
2.25887	0.642
2.29868	0.648
2.33849	0.652
2.3783	0.655
2.41812	0.663
2.45793	0.678
2.49774	0.692
2.53755	0.702
2.57736	0.702
2.61717	0.712
2.65699	0.723
2.6968	0.727
2.73661	0.73
2.77642	0.732
2.81623	0.723
2.85604	0.73
2.89585	0.73
2.93567	0.735
2.97548	0.732
3.01529	0.723
3.0551	0.658
3.09491	0.5
3.13472	0.617
3.17454	0.645
3.21435	0.597
3.25416	0.479
3.29397	0.524
3.33378	0.183
3.37359	0.044
3.41341	0.098
3.45322	0.176
3.49303	0.201
3.53284	0.703
3.57265	0.77
3.61246	0.792
3.65227	0.785
3.69209	0.79
3.7319	0.795
3.77171	0.801
3.81152	0.806
3.85133	0.818
3.89114	0.825
3.93096	0.841
3.97077	0.85
4.01058	0.856
4.05039	0.851
4.0902	0.858
4.13001	0.861
4.16983	0.875
4.20964	0.86
4.24945	0.856
4.28926	0.87
4.32907	0.876
4.36888	0.9
4.40869	0.903
4.44851	0.901
4.48832	0.911
4.52813	0.916
4.56794	0.913
4.60775	0.925
4.64756	0.921
4.68738	0.931
4.72719	0.928
4.767	0.94
4.80681	0.935
4.84662	0.938
4.88643	0.938
4.92625	0.941
4.96606	0.933
5.00587	0.943
5.04568	0.943
5.08549	0.945
5.1253	0.931
5.16511	0.92
5.20493	0.928
5.24474	0.936
5.28455	0.94
5.32436	0.941
5.36417	0.955
5.40398	0.95
5.4438	0.933
5.48361	0.931
5.52342	0.946
5.56323	0.951
5.60304	0.928
5.64285	0.933
5.68267	0.936
5.72248	0.935
5.76229	0.943
5.8021	0.926
5.84191	0.918
5.88172	0.93
5.92153	0.933
5.96135	0.93
6.00116	0.915
6.04097	0.911
6.08078	0.9
6.12059	0.855
6.1604	0.605
6.20022	0.139
6.24003	0.402
6.27984	0.397
6.31965	0.43
6.35946	0.387
6.39927	0.143
6.43909	0.237
6.4789	0.554
6.51871	0.381
6.55852	0.116
6.59833	0.126
6.63814	0.161
6.67795	0.159
6.71777	0.392
6.75758	0.366
6.79739	0.311
6.8372	0.311
6.87701	0.337
6.91682	0.462
6.95664	0.336
6.99645	0.387
7.03626	0.454
7.07607	0.148
7.11588	0.211
7.15569	0.302
7.19551	0.404
7.23532	0.425
7.27513	0.555
7.31494	0.638
7.35475	0.7
7.39456	0.599
7.43437	0.632
7.47419	0.484
7.514	0.439
7.55381	0.505
7.59362	0.356
7.63343	0.455
7.67324	0.492
7.71306	0.289
7.75287	0.289
7.79268	0.272
7.83249	0.246
7.8723	0.239
7.91211	0.196
7.95193	0.149
7.99174	0.179
8.03155	0.311
8.07136	0.447
8.11117	0.512
8.15098	0.512
8.19079	0.52
8.23061	0.554
8.27042	0.392
8.31023	0.261
8.35004	0.361
8.38985	0.214
8.42966	0.159
8.46948	0.234
8.50929	0.371
8.5491	0.327
8.58891	0.204
8.62872	0.259
8.66853	0.244
8.70835	0.232
8.74816	0.252
8.78797	0.292
8.82778	0.369
8.86759	0.479
8.9074	0.603
8.94721	0.677
8.98703	0.715
9.02684	0.738
9.06665	0.772
9.10646	0.801
9.14627	0.805
9.18608	0.811
9.2259	0.775
9.26571	0.635
9.30552	0.539
9.34533	0.64
9.38514	0.752
9.42495	0.798
9.46477	0.811
9.50458	0.762
9.54439	0.662
9.5842	0.638
9.62401	0.783
9.66382	0.795
9.70364	0.607
9.74345	0.587
9.78326	0.559
9.82307	0.7
9.86288	0.63
9.90269	0.6
9.9425	0.652
9.98232	0.79
10.0221	0.777
10.0619	0.78
10.1018	0.833
10.1416	0.84
10.1814	0.835
10.2212	0.853
10.261	0.858
10.3008	0.85
10.3406	0.853
10.3804	0.85
10.4202	0.845
10.4601	0.865
10.4999	0.87
10.5397	0.888
10.5795	0.895
10.6193	0.891
10.6591	0.888
10.6989	0.868
10.7387	0.85
10.7785	0.78
10.8184	0.718
10.8582	0.603
10.898	0.575
10.9378	0.589
10.9776	0.753
11.0174	0.738
11.0572	0.695
11.097	0.785
11.1369	0.855
11.1767	0.883
11.2165	0.89
11.2563	0.878
11.2961	0.835
11.3359	0.782
11.3757	0.772
11.4155	0.653
11.4553	0.542
11.4952	0.72
11.535	0.825
11.5748	0.821
11.6146	0.787
11.6544	0.866
11.6942	0.89
11.734	0.88
11.7738	0.85
11.8136	0.811
11.8535	0.79
11.8933	0.855
11.9331	0.908
11.9729	0.921
12.0127	0.913
12.0525	0.886
12.0923	0.875
12.1321	0.866
12.172	0.845
12.2118	0.813
12.2516	0.797
12.2914	0.806
12.3312	0.8
12.371	0.828
12.4108	0.881
12.4506	0.915
12.4904	0.928
12.5303	0.928
12.5701	0.931
12.6099	0.931
12.6497	0.928
12.6895	0.918
12.7293	0.865
12.7691	0.64
12.8089	0.482
12.8487	0.643
12.8886	0.602
12.9284	0.479
12.9682	0.317
13.008	0.477
13.0478	0.675
13.0876	0.677
13.1274	0.572
13.1672	0.462
13.2071	0.349
13.2469	0.336
13.2867	0.45
13.3265	0.46
13.3663	0.494
13.4061	0.534
13.4459	0.603
13.4857	0.692
13.5255	0.762
13.5654	0.797
13.6052	0.816
13.645	0.826
13.6848	0.83
13.7246	0.828
13.7644	0.803
13.8042	0.763
13.844	0.697
13.8839	0.67
13.9237	0.685
13.9635	0.717
14.0033	0.717
14.0431	0.71
14.0829	0.738
14.1227	0.767
14.1625	0.72
14.2023	0.603
14.2422	0.507
14.282	0.4
14.3218	0.322
14.3616	0.341
14.4014	0.386
14.4412	0.387
14.481	0.322
14.5208	0.252
14.5606	0.257
14.6005	0.326
14.6403	0.48
14.6801	0.648
14.7199	0.73
14.7597	0.772
14.7995	0.787
14.8393	0.797
14.8791	0.805
14.919	0.811
14.9588	0.798
14.9986	0.767
15.0384	0.725
15.0782	0.707
15.118	0.733
15.1578	0.758
15.1976	0.77
15.2374	0.767
15.2773	0.76
15.3171	0.752
15.3569	0.747
15.3967	0.732
15.4365	0.72
15.4763	0.71
15.5161	0.697
15.5559	0.68
15.5957	0.678
15.6356	0.678
15.6754	0.68
15.7152	0.66
15.755	0.647
15.7948	0.637
15.8346	0.617
15.8744	0.61
15.9142	0.603
15.9541	0.594
15.9939	0.592
