Infrared Spectrum: BROMOTRIHEXYLSILANE
Formula: C18 H39 Br Si
CAS: 116435-00-8
State: SOLID (BETWEEN SALTS)
Class: COBLENTZ
Instrument: BECKMAN IR-4 (HYBRID PRISM-GRATING)
Sampling: TRANSMISSION
Resolution: 4
Origin: PENINSULAR CHEMRESEARCH, INC., GAINESVILLE, FLORIDA
MICROMETERS	TRANSMITTANCE
2.02	0.904
2.05496	0.905
2.08991	0.907
2.12487	0.909
2.15983	0.907
2.19478	0.904
2.22974	0.894
2.2647	0.865
2.29966	0.871
2.33461	0.882
2.36957	0.887
2.40453	0.889
2.43948	0.894
2.47444	0.904
2.5094	0.904
2.54435	0.896
2.57931	0.907
2.61427	0.9
2.64922	0.909
2.68418	0.899
2.71914	0.894
2.7541	0.9
2.78905	0.894
2.82401	0.895
2.85897	0.881
2.89392	0.869
2.92888	0.86
2.96384	0.858
2.99879	0.859
3.03375	0.86
3.06871	0.86
3.10367	0.861
3.13862	0.863
3.17358	0.865
3.20854	0.86
3.24349	0.853
3.27845	0.801
3.31341	0.657
3.34836	0.333
3.38332	0.046
3.41828	0.034
3.45323	0.141
3.48819	0.17
3.52315	0.691
3.55811	0.779
3.59306	0.85
3.62802	0.861
3.66298	0.881
3.69793	0.875
3.73289	0.881
3.76785	0.892
3.8028	0.894
3.83776	0.904
3.87272	0.911
3.90767	0.916
3.94263	0.919
3.97759	0.924
4.01255	0.927
4.0475	0.925
4.08246	0.922
4.11742	0.92
4.15237	0.917
4.18733	0.902
4.22229	0.917
4.25724	0.927
4.2922	0.932
4.32716	0.931
4.36211	0.92
4.39707	0.919
4.43203	0.917
4.46699	0.929
4.50194	0.929
4.5369	0.931
4.57186	0.929
4.60681	0.931
4.64177	0.929
4.67673	0.931
4.71168	0.931
4.74664	0.931
4.7816	0.932
4.81656	0.932
4.85151	0.931
4.88647	0.93
4.92143	0.932
4.95638	0.931
4.99134	0.932
5.0263	0.929
5.06125	0.936
5.09621	0.93
5.13117	0.932
5.16612	0.933
5.20108	0.936
5.23604	0.93
5.271	0.938
5.30595	0.927
5.34091	0.941
5.37587	0.927
5.41082	0.932
5.44578	0.936
5.48074	0.931
5.51569	0.929
5.55065	0.937
5.58561	0.929
5.62056	0.936
5.65552	0.932
5.69048	0.907
5.72544	0.901
5.76039	0.907
5.79535	0.907
5.83031	0.899
5.86526	0.921
5.90022	0.914
5.93518	0.919
5.97013	0.92
6.00509	0.916
6.04005	0.925
6.075	0.91
6.10996	0.921
6.14492	0.929
6.17988	0.93
6.21483	0.925
6.24979	0.922
6.28475	0.926
6.3197	0.916
6.35466	0.915
6.38962	0.916
6.42457	0.909
6.45953	0.907
6.49449	0.904
6.52945	0.889
6.5644	0.89
6.59936	0.885
6.63432	0.879
6.66927	0.855
6.70423	0.851
6.73919	0.674
6.77414	0.409
6.8091	0.368
6.84406	0.465
6.87901	0.546
6.91397	0.652
6.94893	0.787
6.98389	0.814
7.01884	0.764
7.0538	0.677
7.08876	0.622
7.12371	0.734
7.15867	0.801
7.19363	0.744
7.22858	0.611
7.26354	0.788
7.2985	0.795
7.33345	0.809
7.36841	0.79
7.40337	0.758
7.43833	0.806
7.47328	0.844
7.50824	0.869
7.5432	0.858
7.57815	0.839
7.61311	0.826
7.64807	0.82
7.68302	0.813
7.71798	0.82
7.75294	0.836
7.7879	0.864
7.82285	0.879
7.85781	0.872
7.89277	0.848
7.92772	0.803
7.96268	0.78
7.99764	0.826
8.03259	0.826
8.06755	0.82
8.10251	0.83
8.13746	0.83
8.17242	0.854
8.20738	0.876
8.24234	0.875
8.27729	0.856
8.31225	0.801
8.34721	0.683
8.38216	0.551
8.41712	0.505
8.45208	0.551
8.48703	0.647
8.52199	0.676
8.55695	0.728
8.5919	0.8
8.62686	0.829
8.66182	0.85
8.69678	0.867
8.73173	0.876
8.76669	0.877
8.80165	0.872
8.8366	0.872
8.87156	0.863
8.90652	0.86
8.94147	0.839
8.97643	0.79
9.01139	0.663
9.04634	0.566
9.0813	0.582
9.11626	0.637
9.15122	0.696
9.18617	0.704
9.22113	0.674
9.25609	0.651
9.29104	0.635
9.326	0.643
9.36096	0.651
9.39591	0.645
9.43087	0.657
9.46583	0.677
9.50079	0.683
9.53574	0.676
9.5707	0.677
9.60566	0.714
9.64061	0.739
9.67557	0.767
9.71053	0.779
9.74548	0.806
9.78044	0.821
9.8154	0.823
9.85035	0.801
9.88531	0.764
9.92027	0.706
9.95523	0.665
9.99018	0.647
10.0251	0.638
10.0601	0.643
10.0951	0.666
10.13	0.704
10.165	0.738
10.1999	0.769
10.2349	0.773
10.2698	0.738
10.3048	0.683
10.3398	0.637
10.3747	0.617
10.4097	0.623
10.4446	0.65
10.4796	0.687
10.5145	0.726
10.5495	0.77
10.5845	0.823
10.6194	0.86
10.6544	0.891
10.6893	0.906
10.7243	0.911
10.7592	0.915
10.7942	0.917
10.8291	0.914
10.8641	0.909
10.8991	0.907
10.934	0.901
10.969	0.87
11.0039	0.844
11.0389	0.829
11.0738	0.828
11.1088	0.829
11.1438	0.815
11.1787	0.79
11.2137	0.77
11.2486	0.782
11.2836	0.814
11.3185	0.829
11.3535	0.83
11.3885	0.826
11.4234	0.828
11.4584	0.835
11.4933	0.841
11.5283	0.834
11.5632	0.811
11.5982	0.792
11.6332	0.773
11.6681	0.745
11.7031	0.713
11.738	0.686
11.773	0.666
11.8079	0.667
11.8429	0.677
11.8779	0.691
11.9128	0.697
11.9478	0.703
11.9827	0.711
12.0177	0.727
12.0526	0.737
12.0876	0.758
12.1226	0.774
12.1575	0.785
12.1925	0.792
12.2274	0.798
12.2624	0.799
12.2973	0.792
12.3323	0.774
12.3673	0.74
12.4022	0.706
12.4372	0.663
12.4721	0.62
12.5071	0.585
12.542	0.55
12.577	0.534
12.612	0.525
12.6469	0.519
12.6819	0.51
12.7168	0.503
12.7518	0.495
12.7867	0.483
12.8217	0.464
12.8567	0.45
12.8916	0.442
12.9266	0.438
12.9615	0.435
12.9965	0.432
13.0314	0.432
13.0664	0.435
13.1013	0.438
13.1363	0.452
13.1713	0.459
13.2062	0.478
13.2412	0.483
13.2761	0.499
13.3111	0.509
13.346	0.514
13.381	0.528
13.416	0.536
13.4509	0.54
13.4859	0.544
13.5208	0.545
13.5558	0.537
13.5907	0.524
13.6257	0.513
13.6607	0.501
13.6956	0.488
13.7306	0.475
13.7655	0.462
13.8005	0.454
13.8354	0.453
13.8704	0.458
13.9054	0.463
13.9403	0.474
13.9753	0.474
14.0102	0.468
14.0452	0.462
14.0801	0.45
14.1151	0.442
14.1501	0.434
14.185	0.427
14.22	0.419
14.2549	0.41
14.2899	0.4
14.3248	0.397
14.3598	0.391
14.3948	0.391
14.4297	0.398
14.4647	0.409
14.4996	0.433
14.5346	0.453
14.5695	0.478
14.6045	0.498
14.6395	0.516
14.6744	0.537
14.7094	0.549
14.7443	0.561
14.7793	0.565
14.8142	0.567
14.8492	0.562
14.8842	0.555
14.9191	0.547
14.9541	0.541
14.989	0.535
