Infrared Spectrum: 2-PHENYL MERCAPTO-3-BENZYL PYRAZINE
Formula: C17 H14 N2 S
CAS: 116660-04-9
State: SOLID (MINERAL OIL MULL)
Melting point: 75-76 C
Class: COBLENTZ
Instrument: Not specified, most likely a prism, grating, or hybrid spectrometer.
Sampling: TRANSMISSION
Resolution: 4
Origin: WYANDOTTE CHEMICALS CORP., WYANDOTTE, MICHIGAN, USA
MICROMETERS	TRANSMITTANCE
2.04	0.188
2.07981	0.193
2.11962	0.201
2.15943	0.201
2.19923	0.201
2.23904	0.201
2.27885	0.205
2.31866	0.208
2.35847	0.216
2.39828	0.218
2.43808	0.228
2.47789	0.23
2.5177	0.233
2.55751	0.243
2.59732	0.248
2.63713	0.251
2.67694	0.261
2.71674	0.261
2.75655	0.261
2.79636	0.274
2.83617	0.278
2.87598	0.278
2.91579	0.276
2.95559	0.276
2.9954	0.278
3.03521	0.284
3.07502	0.289
3.11483	0.286
3.15464	0.281
3.19445	0.278
3.23425	0.256
3.27406	0.168
3.31387	0.125
3.35368	0.019
3.39349	0.019
3.4333	0.023
3.4731	0.026
3.51291	0.051
3.55272	0.279
3.59253	0.422
3.63234	0.45
3.67215	0.438
3.71196	0.442
3.75176	0.437
3.79157	0.447
3.83138	0.456
3.87119	0.466
3.911	0.481
3.95081	0.5
3.99061	0.506
4.03042	0.511
4.07023	0.518
4.11004	0.519
4.14985	0.521
4.18966	0.524
4.22947	0.518
4.26927	0.495
4.30908	0.518
4.34889	0.538
4.3887	0.569
4.42851	0.561
4.46832	0.562
4.50812	0.571
4.54793	0.581
4.58774	0.584
4.62755	0.591
4.66736	0.596
4.70717	0.6
4.74698	0.62
4.78678	0.625
4.82659	0.627
4.8664	0.629
4.90621	0.629
4.94602	0.639
4.98583	0.647
5.02563	0.652
5.06544	0.65
5.10525	0.645
5.14506	0.632
5.18487	0.63
5.22468	0.642
5.26449	0.657
5.30429	0.642
5.3441	0.647
5.38391	0.68
5.42372	0.687
5.46353	0.685
5.50334	0.68
5.54314	0.668
5.58295	0.69
5.62276	0.706
5.66257	0.697
5.70238	0.685
5.74219	0.7
5.782	0.705
5.8218	0.726
5.86161	0.705
5.90142	0.708
5.94123	0.715
5.98104	0.723
6.02085	0.713
6.06065	0.731
6.10046	0.74
6.14027	0.746
6.18008	0.668
6.21989	0.731
6.2597	0.703
6.29951	0.738
6.33931	0.753
6.37912	0.766
6.41893	0.697
6.45874	0.751
6.49855	0.758
6.53836	0.514
6.57816	0.408
6.61797	0.62
6.65778	0.392
6.69759	0.538
6.7374	0.218
6.77721	0.091
6.81702	0.094
6.85682	0.139
6.89663	0.14
6.93644	0.324
6.97625	0.572
7.01606	0.632
7.05587	0.687
7.09567	0.68
7.13548	0.647
7.17529	0.562
7.2151	0.283
7.25491	0.079
7.29472	0.091
7.33453	0.288
7.37433	0.45
7.41414	0.533
7.45395	0.572
7.49376	0.594
7.53357	0.617
7.57338	0.665
7.61318	0.637
7.65299	0.577
7.6928	0.362
7.73261	0.443
7.77242	0.604
7.81223	0.65
7.85204	0.678
7.89184	0.682
7.93165	0.7
7.97146	0.721
8.01127	0.738
8.05108	0.756
8.09089	0.769
8.13069	0.788
8.1705	0.778
8.21031	0.653
8.25012	0.693
8.28993	0.73
8.32974	0.615
8.36955	0.705
8.40935	0.67
8.44916	0.701
8.48897	0.736
8.52878	0.745
8.56859	0.748
8.6084	0.701
8.6482	0.687
8.68801	0.644
8.72782	0.329
8.76763	0.076
8.80744	0.129
8.84725	0.306
8.88706	0.451
8.92686	0.516
8.96667	0.549
9.00648	0.562
9.04629	0.569
9.0861	0.557
9.12591	0.528
9.16571	0.571
9.20552	0.347
9.24533	0.099
9.28514	0.259
9.32495	0.41
9.36476	0.448
9.40457	0.301
9.44437	0.246
9.48418	0.516
9.52399	0.605
9.5638	0.66
9.60361	0.688
9.64342	0.698
9.68322	0.594
9.72303	0.61
9.76284	0.367
9.80265	0.607
9.84246	0.711
9.88227	0.751
9.92208	0.764
9.96188	0.64
10.0017	0.7
10.0415	0.769
10.0813	0.766
10.1211	0.766
10.1609	0.779
10.2007	0.788
10.2405	0.763
10.2804	0.758
10.3202	0.753
10.36	0.756
10.3998	0.783
10.4396	0.804
10.4794	0.814
10.5192	0.822
10.559	0.834
10.5988	0.842
10.6386	0.846
10.6784	0.849
10.7182	0.849
10.7581	0.852
10.7979	0.827
10.8377	0.766
10.8775	0.715
10.9173	0.748
10.9571	0.763
10.9969	0.778
11.0367	0.826
11.0765	0.882
11.1163	0.899
11.1561	0.91
11.1959	0.907
11.2358	0.905
11.2756	0.918
11.3154	0.928
11.3552	0.937
11.395	0.94
11.4348	0.951
11.4746	0.953
11.5144	0.956
11.5542	0.956
11.594	0.94
11.6338	0.852
11.6736	0.677
11.7135	0.534
11.7533	0.511
11.7931	0.501
11.8329	0.591
11.8727	0.736
11.9125	0.814
11.9523	0.864
11.9921	0.892
12.0319	0.885
12.0717	0.804
12.1115	0.768
12.1513	0.817
12.1912	0.859
12.231	0.889
12.2708	0.913
12.3106	0.927
12.3504	0.935
12.3902	0.951
12.43	0.958
12.4698	0.966
12.5096	0.981
12.5494	0.985
12.5892	0.981
12.6291	0.986
12.6689	0.991
12.7087	0.995
12.7485	0.993
12.7883	0.99
12.8281	0.981
12.8679	0.948
12.9077	0.895
12.9475	0.829
12.9873	0.682
13.0271	0.486
13.0669	0.331
13.1068	0.288
13.1466	0.466
13.1864	0.534
13.2262	0.385
13.266	0.283
13.3058	0.216
13.3456	0.197
13.3854	0.273
13.4252	0.403
13.465	0.521
13.5048	0.652
13.5446	0.738
13.5845	0.771
13.6243	0.798
13.6641	0.806
13.7039	0.809
13.7437	0.799
13.7835	0.771
13.8233	0.735
13.8631	0.713
13.9029	0.71
13.9427	0.751
13.9825	0.768
14.0223	0.67
14.0622	0.496
14.102	0.332
14.1418	0.268
14.1816	0.213
14.2214	0.18
14.2612	0.2
14.301	0.258
14.3408	0.37
14.3806	0.463
14.4204	0.509
14.4602	0.488
14.5	0.437
14.5399	0.38
14.5797	0.365
14.6195	0.427
14.6593	0.556
14.6991	0.692
14.7389	0.756
14.7787	0.793
14.8185	0.816
14.8583	0.836
14.8981	0.846
14.9379	0.854
14.9777	0.832
15.0176	0.799
15.0574	0.774
15.0972	0.801
15.137	0.842
15.1768	0.85
15.2166	0.849
15.2564	0.839
15.2962	0.824
15.336	0.819
15.3758	0.812
15.4156	0.806
15.4555	0.796
15.4953	0.789
15.5351	0.774
15.5749	0.766
15.6147	0.766
15.6545	0.751
15.6943	0.741
15.7341	0.728
15.7739	0.713
15.8137	0.697
15.8535	0.683
15.8933	0.662
15.9332	0.645
15.973	0.615
