Infrared Spectrum: (5-NONYL)PYRAZINE
Formula: C13 H22 N2
CAS: 116660-09-4
State: LIQUID
Class: COBLENTZ
Instrument: Not specified, most likely a prism, grating, or hybrid spectrometer.
Sampling: TRANSMISSION
Path length: 0.0015 CM
Resolution: 4
Origin: WYANDOTTE CHEMICALS CORP., WYANDOTTE, MICHIGAN, USA
MICROMETERS	TRANSMITTANCE
2.027	0.953
2.06788	0.96
2.10875	0.957
2.14963	0.962
2.19051	0.914
2.23138	0.902
2.27226	0.905
2.31314	0.91
2.35401	0.91
2.39489	0.917
2.43577	0.931
2.47664	0.936
2.51752	0.94
2.55839	0.94
2.59927	0.94
2.64015	0.958
2.68102	0.95
2.7219	0.941
2.76278	0.94
2.80365	0.934
2.84453	0.924
2.88541	0.91
2.92628	0.904
2.96716	0.907
3.00804	0.902
3.04891	0.895
3.08979	0.881
3.13067	0.864
3.17154	0.859
3.21242	0.794
3.2533	0.472
3.29417	0.559
3.33505	0.21
3.37592	0.087
3.4168	0.095
3.45768	0.121
3.49855	0.195
3.53943	0.65
3.58031	0.755
3.62118	0.811
3.66206	0.806
3.70294	0.833
3.74381	0.84
3.78469	0.857
3.82557	0.873
3.86644	0.883
3.90732	0.897
3.9482	0.897
3.98907	0.904
4.02995	0.909
4.07083	0.91
4.1117	0.91
4.15258	0.902
4.19345	0.91
4.23433	0.898
4.27521	0.9
4.31608	0.91
4.35696	0.926
4.39784	0.922
4.43871	0.95
4.47959	0.909
4.52047	0.919
4.56134	0.921
4.60222	0.929
4.6431	0.922
4.68397	0.929
4.72485	0.933
4.76573	0.928
4.8066	0.928
4.84748	0.928
4.88836	0.931
4.92923	0.926
4.97011	0.922
5.01098	0.933
5.05186	0.926
5.09274	0.926
5.13361	0.921
5.17449	0.902
5.21537	0.878
5.25624	0.895
5.29712	0.902
5.338	0.919
5.37887	0.909
5.41975	0.907
5.46063	0.914
5.5015	0.909
5.54238	0.89
5.58326	0.9
5.62413	0.88
5.66501	0.902
5.70589	0.909
5.74676	0.895
5.78764	0.883
5.82851	0.863
5.86939	0.828
5.91027	0.799
5.95114	0.827
5.99202	0.839
6.0329	0.84
6.07377	0.839
6.11465	0.844
6.15553	0.851
6.1964	0.845
6.23728	0.833
6.27816	0.681
6.31903	0.792
6.35991	0.83
6.40079	0.827
6.44166	0.806
6.48254	0.645
6.52342	0.417
6.56429	0.748
6.60517	0.755
6.64604	0.741
6.68692	0.66
6.7278	0.371
6.76867	0.07
6.80955	0.147
6.85043	0.253
6.8913	0.38
6.93218	0.513
6.97306	0.621
7.01393	0.532
7.05481	0.176
7.09569	0.116
7.13656	0.429
7.17744	0.553
7.21832	0.282
7.25919	0.392
7.30007	0.535
7.34095	0.621
7.38182	0.66
7.4227	0.633
7.46357	0.681
7.50445	0.729
7.54533	0.717
7.5862	0.678
7.62708	0.571
7.66796	0.515
7.70883	0.611
7.74971	0.679
7.79059	0.712
7.83146	0.743
7.87234	0.763
7.91322	0.739
7.95409	0.758
7.99497	0.767
8.03585	0.758
8.07672	0.729
8.1176	0.616
8.15848	0.498
8.19935	0.561
8.24023	0.621
8.2811	0.678
8.32198	0.702
8.36286	0.7
8.40373	0.691
8.44461	0.664
8.48549	0.671
8.52636	0.642
8.56724	0.481
8.60812	0.363
8.64899	0.243
8.68987	0.291
8.73075	0.479
8.77162	0.511
8.8125	0.417
8.85338	0.577
8.89425	0.686
8.93513	0.683
8.97601	0.7
9.01688	0.655
9.05776	0.592
9.09863	0.601
9.13951	0.619
9.18039	0.63
9.22126	0.652
9.26214	0.667
9.30302	0.65
9.34389	0.611
9.38477	0.501
9.42565	0.311
9.46652	0.339
9.5074	0.575
9.54828	0.678
9.58915	0.734
9.63003	0.743
9.67091	0.746
9.71178	0.708
9.75266	0.568
9.79354	0.234
9.83441	0.104
9.87529	0.452
9.91616	0.645
9.95704	0.731
9.99792	0.767
10.0388	0.789
10.0797	0.799
10.1205	0.801
10.1614	0.791
10.2023	0.761
10.2432	0.763
10.2841	0.751
10.3249	0.734
10.3658	0.724
10.4067	0.72
10.4476	0.712
10.4884	0.69
10.5293	0.672
10.5702	0.681
10.6111	0.707
10.6519	0.731
10.6928	0.755
10.7337	0.787
10.7746	0.806
10.8154	0.832
10.8563	0.828
10.8972	0.82
10.9381	0.83
10.979	0.833
11.0198	0.839
11.0607	0.821
11.1016	0.813
11.1425	0.799
11.1833	0.777
11.2242	0.768
11.2651	0.782
11.306	0.811
11.3468	0.828
11.3877	0.827
11.4286	0.821
11.4695	0.818
11.5103	0.813
11.5512	0.791
11.5921	0.746
11.633	0.676
11.6739	0.594
11.7147	0.505
11.7556	0.383
11.7965	0.296
11.8374	0.261
11.8782	0.342
11.9191	0.508
11.96	0.642
12.0009	0.708
12.0417	0.739
12.0826	0.765
12.1235	0.78
12.1644	0.787
12.2052	0.801
12.2461	0.808
12.287	0.818
12.3279	0.821
12.3688	0.827
12.4096	0.832
12.4505	0.839
12.4914	0.833
12.5323	0.82
12.5731	0.799
12.614	0.765
12.6549	0.744
12.6958	0.722
12.7366	0.691
12.7775	0.679
12.8184	0.683
12.8593	0.684
12.9001	0.688
12.941	0.618
12.9819	0.5
13.0228	0.482
13.0637	0.594
13.1045	0.698
13.1454	0.751
13.1863	0.77
13.2272	0.777
13.268	0.758
13.3089	0.738
13.3498	0.71
13.3907	0.69
13.4315	0.676
13.4724	0.664
13.5133	0.671
13.5542	0.65
13.5951	0.618
13.6359	0.553
13.6768	0.513
13.7177	0.508
13.7586	0.575
13.7994	0.654
13.8403	0.736
13.8812	0.787
13.9221	0.82
13.9629	0.84
14.0038	0.857
14.0447	0.859
14.0856	0.864
14.1264	0.873
14.1673	0.871
14.2082	0.88
14.2491	0.878
14.29	0.873
14.3308	0.875
14.3717	0.88
14.4126	0.878
14.4535	0.871
14.4943	0.88
14.5352	0.875
14.5761	0.876
14.617	0.883
14.6578	0.878
14.6987	0.876
14.7396	0.88
14.7805	0.875
14.8213	0.878
14.8622	0.873
14.9031	0.873
14.944	0.873
14.9849	0.851
15.0257	0.816
15.0666	0.811
15.1075	0.835
15.1484	0.852
15.1892	0.851
15.2301	0.844
15.271	0.84
15.3119	0.84
15.3527	0.832
15.3936	0.827
15.4345	0.827
15.4754	0.825
15.5162	0.818
15.5571	0.816
15.598	0.816
15.6389	0.806
15.6798	0.799
15.7206	0.799
15.7615	0.803
15.8024	0.789
15.8433	0.785
15.8841	0.775
15.925	0.77
15.9659	0.767
