Infrared Spectrum: PHENOTHIAZINE-3-PROPIONIC ACID, 10-METHYL-, HYDRAZIDE
Formula: C16 H17 N3 O S
CAS: 116633-00-2
State: SOLID (NUJOL MULL)
Class: COBLENTZ III
Instrument: PERKIN-ELMER 21 (GRATING)
Instrument parameters: NaCl PRISM
Sampling: TRANSMISSION
Resolution: 2
Origin: SMITH KLINE & FRENCH LABS.
MICROMETERS	TRANSMITTANCE
1.992	0.631
2.02626	0.63
2.06051	0.633
2.09477	0.658
2.12903	0.66
2.16329	0.667
2.19754	0.676
2.2318	0.681
2.26606	0.686
2.30031	0.678
2.33457	0.677
2.36883	0.694
2.40309	0.7
2.43734	0.709
2.4716	0.716
2.50586	0.721
2.54011	0.718
2.57437	0.725
2.60863	0.742
2.64288	0.744
2.67714	0.756
2.7114	0.756
2.74566	0.75
2.77991	0.749
2.81417	0.745
2.84843	0.744
2.88268	0.743
2.91694	0.727
2.9512	0.704
2.98546	0.542
3.01971	0.254
3.05397	0.407
3.08823	0.622
3.12248	0.619
3.15674	0.624
3.191	0.69
3.22526	0.727
3.25951	0.708
3.29377	0.659
3.32803	0.653
3.36228	0.549
3.39654	0.254
3.4308	0.167
3.46505	0.218
3.49931	0.287
3.53357	0.444
3.56783	0.65
3.60208	0.739
3.63634	0.791
3.6706	0.8
3.70485	0.805
3.73911	0.809
3.77337	0.812
3.80763	0.81
3.84188	0.81
3.87614	0.819
3.9104	0.83
3.94465	0.844
3.97891	0.858
4.01317	0.851
4.04743	0.855
4.08168	0.85
4.11594	0.857
4.1502	0.852
4.18445	0.851
4.21871	0.85
4.25297	0.843
4.28722	0.847
4.32148	0.856
4.35574	0.864
4.39	0.866
4.42425	0.864
4.45851	0.863
4.49277	0.868
4.52702	0.871
4.56128	0.884
4.59554	0.872
4.6298	0.879
4.66405	0.879
4.69831	0.88
4.73257	0.881
4.76682	0.878
4.80108	0.883
4.83534	0.879
4.8696	0.881
4.90385	0.885
4.93811	0.886
4.97237	0.89
5.00662	0.881
5.04088	0.901
5.07514	0.892
5.10939	0.901
5.14365	0.894
5.17791	0.894
5.21217	0.901
5.24642	0.905
5.28068	0.892
5.31494	0.901
5.34919	0.892
5.38345	0.899
5.41771	0.911
5.45197	0.907
5.48622	0.905
5.52048	0.901
5.55474	0.905
5.58899	0.903
5.62325	0.891
5.65751	0.9
5.69177	0.881
5.72602	0.888
5.76028	0.899
5.79454	0.9
5.82879	0.89
5.86305	0.889
5.89731	0.88
5.93156	0.85
5.96582	0.833
6.00008	0.759
6.03434	0.672
6.06859	0.261
6.10285	0.115
6.13711	0.225
6.17136	0.541
6.20562	0.587
6.23988	0.671
6.27414	0.791
6.30839	0.768
6.34265	0.789
6.37691	0.81
6.41116	0.813
6.44542	0.817
6.47968	0.776
6.51394	0.465
6.54819	0.51
6.58245	0.652
6.61671	0.723
6.65096	0.619
6.68522	0.641
6.71948	0.698
6.75373	0.563
6.78799	0.293
6.82225	0.145
6.85651	0.257
6.89076	0.461
6.92502	0.487
6.95928	0.672
6.99353	0.739
7.02779	0.74
7.06205	0.783
7.09631	0.801
7.13056	0.789
7.16482	0.801
7.19908	0.776
7.23333	0.669
7.26759	0.554
7.30185	0.667
7.33611	0.712
7.37036	0.762
7.40462	0.768
7.43888	0.7
7.47313	0.663
7.50739	0.447
7.54165	0.555
7.57591	0.709
7.61016	0.757
7.64442	0.798
7.67868	0.798
7.71293	0.79
7.74719	0.694
7.78145	0.69
7.8157	0.781
7.84996	0.798
7.88422	0.727
7.91848	0.61
7.95273	0.407
7.98699	0.504
8.02125	0.592
8.0555	0.68
8.08976	0.737
8.12402	0.813
8.15828	0.841
8.19253	0.86
8.22679	0.867
8.26105	0.875
8.2953	0.878
8.32956	0.885
8.36382	0.891
8.39808	0.896
8.43233	0.901
8.46659	0.892
8.50085	0.883
8.5351	0.874
8.56936	0.832
8.60362	0.773
8.63787	0.809
8.67213	0.793
8.70639	0.819
8.74065	0.801
8.7749	0.618
8.80916	0.791
8.84342	0.835
8.87767	0.85
8.91193	0.83
8.94619	0.845
8.98045	0.861
9.0147	0.79
9.04896	0.832
9.08322	0.883
9.11747	0.906
9.15173	0.92
9.18599	0.925
9.22025	0.931
9.2545	0.931
9.28876	0.93
9.32302	0.929
9.35727	0.924
9.39153	0.922
9.42579	0.92
9.46004	0.912
9.4943	0.902
9.52856	0.827
9.56282	0.824
9.59707	0.759
9.63133	0.7
9.66559	0.812
9.69984	0.841
9.7341	0.879
9.76836	0.895
9.80262	0.889
9.83687	0.863
9.87113	0.881
9.90539	0.874
9.93964	0.85
9.9739	0.733
10.0082	0.583
10.0424	0.641
10.0767	0.789
10.1109	0.86
10.1452	0.912
10.1794	0.925
10.2137	0.951
10.248	0.947
10.2822	0.948
10.3165	0.952
10.3507	0.944
10.385	0.934
10.4192	0.942
10.4535	0.935
10.4878	0.92
10.522	0.913
10.5563	0.891
10.5905	0.884
10.6248	0.896
10.659	0.902
10.6933	0.916
10.7276	0.916
10.7618	0.929
10.7961	0.897
10.8303	0.931
10.8646	0.945
10.8988	0.954
10.9331	0.969
10.9674	0.965
11.0016	0.954
11.0359	0.929
11.0701	0.931
11.1044	0.942
11.1386	0.954
11.1729	0.954
11.2072	0.953
11.2414	0.959
11.2757	0.962
11.3099	0.962
11.3442	0.952
11.3784	0.94
11.4127	0.92
11.447	0.88
11.4812	0.93
11.5155	0.962
11.5497	0.981
11.584	0.982
11.6182	0.985
11.6525	0.98
11.6868	0.951
11.721	0.885
11.7553	0.85
11.7895	0.841
11.8238	0.923
11.858	0.969
11.8923	0.964
11.9266	0.984
11.9608	0.989
11.9951	0.998
12.0293	0.991
12.0636	0.993
12.0978	0.98
12.1321	0.961
12.1664	0.897
12.2006	0.784
12.2349	0.71
12.2691	0.557
12.3034	0.529
12.3376	0.721
12.3719	0.833
12.4062	0.914
12.4404	0.967
12.4747	0.97
12.5089	0.976
12.5432	0.982
12.5774	0.985
12.6117	0.985
12.646	0.979
12.6802	0.963
12.7145	0.974
12.7487	0.969
12.783	0.962
12.8172	0.958
12.8515	0.959
12.8858	0.959
12.92	0.961
12.9543	0.956
12.9885	0.953
13.0228	0.95
13.057	0.942
13.0913	0.935
13.1256	0.935
13.1598	0.935
13.1941	0.934
13.2283	0.913
13.2626	0.817
13.2968	0.637
13.3311	0.542
13.3654	0.583
13.3996	0.429
13.4339	0.524
13.4681	0.649
13.5024	0.694
13.5366	0.7
13.5709	0.705
13.6052	0.641
13.6394	0.591
13.6737	0.637
13.7079	0.727
13.7422	0.815
13.7764	0.811
13.8107	0.827
13.845	0.83
13.8792	0.832
13.9135	0.835
13.9477	0.839
13.982	0.829
14.0162	0.787
14.0505	0.761
14.0848	0.765
14.119	0.793
14.1533	0.801
14.1875	0.805
14.2218	0.804
14.256	0.8
14.2903	0.788
14.3246	0.787
14.3588	0.783
14.3931	0.782
14.4273	0.783
14.4616	0.785
14.4958	0.798
14.5301	0.799
14.5644	0.791
14.5986	0.79
14.6329	0.791
14.6671	0.793
14.7014	0.8
14.7356	0.809
14.7699	0.819
14.8042	0.824
14.8384	0.832
14.8727	0.834
14.9069	0.836
14.9412	0.826
14.9754	0.813
15.0097	0.81
15.0439	0.805
15.0782	0.804
15.1125	0.804
15.1467	0.804
15.181	0.804
15.2152	0.804
15.2495	0.804
15.2837	0.804
15.318	0.804
15.3523	0.804
15.3865	0.804
15.4208	0.804
15.455	0.804
15.4893	0.804
15.5235	0.804
15.5578	0.804
