Infrared Spectrum: 5-PHENYL-8-METHOXY-QUINOLINE
Formula: C16 H13 N O
CAS: 116633-03-5
State: SOLID (1.0% IN KBr PELLET)
Class: COBLENTZ
Instrument: Not specified, most likely a prism, grating, or hybrid spectrometer.
Sampling: TRANSMISSION
Path length: 0.0355 CM THICK
Resolution: 4
Origin: ANDERSON PHYSICAL LABORATORY
1/CM	TRANSMITTANCE
667.394	0.776
675.81	0.76
684.227	0.6851
692.643	0.524
701.06	0.3504
709.476	0.3998
717.893	0.6169
726.309	0.875
734.726	0.859
743.142	0.821
751.559	0.754
759.975	0.5862
768.392	0.2921
776.808	0.5626
785.225	0.6501
793.641	0.338
802.058	0.848
810.474	0.7001
818.891	0.401
827.307	0.485
835.723	0.7061
844.14	0.949
852.556	0.958
860.973	0.965
869.389	0.967
877.806	0.967
886.222	0.961
894.639	0.962
903.055	0.955
911.472	0.913
919.888	0.911
928.305	0.92
936.721	0.956
945.138	0.956
953.554	0.935
961.971	0.914
970.387	0.883
978.803	0.85
987.22	0.673
995.636	0.569
1004.05	0.845
1012.47	0.865
1020.89	0.7491
1029.3	0.8329
1037.72	0.854
1046.14	0.871
1054.55	0.853
1062.97	0.802
1071.38	0.704
1079.8	0.703
1088.22	0.595
1096.63	0.326
1105.05	0.3881
1113.47	0.248
1121.88	0.862
1130.3	0.907
1138.72	0.877
1147.13	0.823
1155.55	0.653
1163.97	0.814
1172.38	0.85
1180.8	0.845
1189.22	0.832
1197.63	0.782
1206.05	0.686
1214.46	0.592
1222.88	0.344
1231.3	0.608
1239.71	0.395
1248.13	0.5811
1256.55	0.689
1264.96	0.5661
1273.38	0.58
1281.8	0.553
1290.21	0.364
1298.63	0.389
1307.05	0.263
1315.46	0.317
1323.88	0.808
1332.3	0.841
1340.71	0.811
1349.13	0.7361
1357.54	0.5481
1365.96	0.238
1374.38	0.6248
1382.79	0.5121
1391.21	0.572
1399.63	0.485
1408.04	0.68
1416.46	0.778
1424.88	0.766
1433.29	0.6941
1441.71	0.4901
1450.13	0.488
1458.54	0.3881
1466.96	0.268
1475.38	0.409
1483.79	0.608
1492.21	0.569
1500.62	0.379
1509.04	0.6501
1517.46	0.8949
1525.87	0.946
1534.29	0.935
1542.71	0.91
1551.12	0.859
1559.54	0.638
1567.96	0.467
1576.37	0.406
1584.79	0.686
1593.21	0.6889
1601.62	0.628
1610.04	0.8169
1618.46	0.928
1626.87	0.937
1635.29	0.938
1643.7	0.938
1652.12	0.94
1660.54	0.959
1668.95	0.955
1677.37	0.949
1685.79	0.941
1694.2	0.941
1702.62	0.94
1711.04	0.938
1719.45	0.941
1727.87	0.937
1736.29	0.94
1744.7	0.944
1753.12	0.944
1761.54	0.935
1769.95	0.925
1778.37	0.943
1786.78	0.967
1795.2	0.959
1803.62	0.941
1812.03	0.938
1820.45	0.935
1828.87	0.931
1837.28	0.911
1845.7	0.901
1854.12	0.919
1862.53	0.922
1870.95	0.917
1879.37	0.902
1887.78	0.902
1896.2	0.901
1904.62	0.916
1913.03	0.944
1921.45	0.953
1929.86	0.95
1938.28	0.935
1946.7	0.947
1955.11	0.949
1963.53	0.935
1971.95	0.922
1980.36	0.931
1988.78	0.929
1997.2	0.923
2005.61	0.9475
2014.03	0.949
2022.45	0.949
2030.86	0.949
2039.28	0.9426
2047.7	0.9379
2056.11	0.9351
2064.53	0.9269
2072.94	0.9211
2081.36	0.92
2089.78	0.9199
2098.19	0.9252
2106.61	0.9256
2115.03	0.9223
2123.44	0.9202
2131.86	0.92
2140.28	0.92
2148.69	0.92
2157.11	0.92
2165.53	0.919
2173.94	0.9183
2182.36	0.917
2190.78	0.9187
2199.19	0.917
2207.61	0.916
2216.02	0.9207
2224.44	0.9276
2232.86	0.9258
2241.27	0.9197
2249.69	0.9154
2258.11	0.9102
2266.52	0.908
2274.94	0.9047
2283.36	0.904
2291.77	0.9013
2300.19	0.898
2308.61	0.89
2317.02	0.889
2325.44	0.8876
2333.86	0.8841
2342.27	0.884
2350.69	0.884
2359.1	0.8816
2367.52	0.8752
2375.94	0.874
2384.35	0.872
2392.77	0.8713
2401.19	0.8692
2409.6	0.868
2418.02	0.868
2426.44	0.868
2434.85	0.866
2443.27	0.866
2451.69	0.8649
2460.1	0.862
2468.52	0.8564
2476.94	0.853
2485.35	0.8507
2493.77	0.848
2502.19	0.8453
2510.6	0.8439
2519.02	0.8408
2527.43	0.8322
2535.85	0.8274
2544.27	0.8208
2552.68	0.814
2561.1	0.814
2569.52	0.8125
2577.93	0.812
2586.35	0.811
2594.77	0.8085
2603.18	0.8065
2611.6	0.805
2620.02	0.803
2628.43	0.803
2636.85	0.802
2645.27	0.802
2653.68	0.8016
2662.1	0.7987
2670.51	0.7946
2678.93	0.7851
2687.35	0.784
2695.76	0.7816
2704.18	0.7797
2712.6	0.7733
2721.01	0.7687
2729.43	0.7666
2737.85	0.7611
2746.26	0.7515
2754.68	0.7478
2763.1	0.7368
2771.51	0.7156
2779.93	0.6963
2788.35	0.6792
2796.76	0.6573
2805.18	0.655
2813.59	0.6604
2822.01	0.673
2830.43	0.6737
2838.84	0.664
2847.26	0.6481
2855.68	0.6278
2864.09	0.6146
2872.51	0.6075
2880.93	0.599
2889.34	0.593
2897.76	0.5823
2906.18	0.572
2914.59	0.565
2923.01	0.566
2931.43	0.5716
2939.84	0.5773
2948.26	0.5861
2956.67	0.587
2965.09	0.5827
2973.51	0.5641
2981.92	0.5503
2990.34	0.5452
2998.76	0.5516
3007.17	0.5776
3015.59	0.5939
3024.01	0.5989
3032.42	0.6024
3040.84	0.6081
3049.26	0.6155
3057.67	0.6394
3066.09	0.6654
3074.51	0.6864
3082.92	0.6902
3091.34	0.6893
3099.75	0.685
3108.17	0.6827
3116.59	0.6792
3125	0.6716
3133.42	0.665
3141.84	0.664
3150.25	0.6588
3158.67	0.6527
3167.09	0.6459
3175.5	0.6372
3183.92	0.6345
3192.34	0.632
3200.75	0.631
3209.17	0.629
3217.59	0.6255
3226	0.6223
3234.42	0.6131
3242.83	0.608
3251.25	0.6047
3259.67	0.5996
3268.08	0.599
3276.5	0.596
3284.92	0.5937
3293.33	0.5857
3301.75	0.5801
3310.17	0.577
3318.58	0.5746
3327	0.5653
3335.42	0.5544
3343.83	0.5479
3352.25	0.5421
3360.67	0.5338
3369.08	0.5321
3377.5	0.529
3385.91	0.529
3394.33	0.527
3402.75	0.527
3411.16	0.529
3419.58	0.529
3428	0.5296
3436.41	0.53
3444.83	0.532
3453.25	0.5353
3461.66	0.5401
3470.08	0.5418
3478.5	0.545
3486.91	0.547
3495.33	0.5495
3503.75	0.5537
3512.16	0.559
3520.58	0.5607
3528.99	0.5655
3537.41	0.5704
3545.83	0.5739
3554.24	0.574
3562.66	0.5759
3571.08	0.5864
3579.49	0.593
3587.91	0.595
3596.33	0.595
3604.74	0.595
3613.16	0.595
3621.58	0.595
3629.99	0.5926
3638.41	0.592
3646.83	0.592
3655.24	0.5932
3663.66	0.5954
3672.07	0.5954
3680.49	0.5933
3688.91	0.5918
3697.32	0.589
3705.74	0.587
3714.16	0.5844
3722.57	0.584
3730.99	0.583
3739.41	0.5814
3747.82	0.5772
3756.24	0.575
3764.66	0.575
3773.07	0.574
3781.49	0.5717
3789.91	0.568
3798.32	0.563
3806.74	0.562
3815.15	0.56
3823.57	0.56
3831.99	0.56
3840.4	0.56
3848.82	0.5593
3857.24	0.5571
3865.65	0.554
3874.07	0.553
3882.49	0.551
3890.9	0.5501
3899.32	0.5497
3907.74	0.547
3916.15	0.547
3924.57	0.547
3932.99	0.547
3941.4	0.5463
3949.82	0.5444
3958.23	0.5423
3966.65	0.5378
3975.07	0.5357
3983.48	0.535
