Infrared Spectrum: 3-(N-METHYLANILINO)-2-METHYL-5-(5-NONYL) PYRAZINE
Formula: C21 H31 N3
CAS: 116660-08-3
State: LIQUID
Class: COBLENTZ
Instrument: Not specified, most likely a prism, grating, or hybrid spectrometer.
Sampling: TRANSMISSION
Path length: 0.0015 CM
Resolution: 4
Origin: WYANDOTTE CHEMICALS CORP., WYANDOTTE, MICHIGAN, USA
MICROMETERS	TRANSMITTANCE
2.007	0.978
2.04677	0.978
2.08654	0.973
2.12631	0.966
2.16609	0.95
2.20586	0.898
2.24563	0.893
2.2854	0.896
2.32517	0.898
2.36494	0.896
2.40472	0.905
2.44449	0.923
2.48426	0.945
2.52403	0.943
2.5638	0.948
2.60357	0.955
2.64334	0.966
2.68312	0.95
2.72289	0.951
2.76266	0.941
2.80243	0.943
2.8422	0.93
2.88197	0.92
2.92175	0.895
2.96152	0.898
3.00129	0.88
3.04106	0.875
3.08083	0.86
3.1206	0.836
3.16037	0.818
3.20015	0.792
3.23992	0.605
3.27969	0.369
3.31946	0.389
3.35923	0.048
3.399	0.049
3.43878	0.058
3.47855	0.069
3.51832	0.224
3.55809	0.524
3.59786	0.695
3.63763	0.763
3.67741	0.76
3.71718	0.806
3.75695	0.792
3.79672	0.811
3.83649	0.823
3.87626	0.828
3.91603	0.836
3.95581	0.843
3.99558	0.865
4.03535	0.873
4.07512	0.876
4.11489	0.866
4.15466	0.863
4.19444	0.855
4.23421	0.855
4.27398	0.865
4.31375	0.885
4.35352	0.9
4.39329	0.893
4.43306	0.888
4.47284	0.895
4.51261	0.896
4.55238	0.9
4.59215	0.905
4.63192	0.905
4.67169	0.901
4.71147	0.911
4.75124	0.9
4.79101	0.901
4.83078	0.903
4.87055	0.891
4.91032	0.898
4.95009	0.898
4.98987	0.898
5.02964	0.905
5.06941	0.905
5.10918	0.898
5.14895	0.89
5.18872	0.86
5.2285	0.831
5.26827	0.866
5.30804	0.885
5.34781	0.871
5.38758	0.861
5.42735	0.851
5.46712	0.861
5.5069	0.851
5.54667	0.845
5.58644	0.835
5.62621	0.813
5.66598	0.818
5.70575	0.818
5.74553	0.801
5.7853	0.762
5.82507	0.758
5.86484	0.743
5.90461	0.73
5.94438	0.723
5.98416	0.713
6.02393	0.71
6.0637	0.703
6.10347	0.683
6.14324	0.608
6.18301	0.299
6.22278	0.071
6.26256	0.301
6.30233	0.41
6.3421	0.376
6.38187	0.407
6.42164	0.499
6.46141	0.414
6.50119	0.136
6.54096	0.096
6.58073	0.284
6.6205	0.124
6.66027	0.048
6.70004	0.128
6.73981	0.183
6.77959	0.099
6.81936	0.051
6.85913	0.061
6.8989	0.064
6.93867	0.058
6.97844	0.054
7.01822	0.156
7.05799	0.342
7.09776	0.266
7.13753	0.136
7.1773	0.044
7.21707	0.043
7.25684	0.048
7.29662	0.051
7.33639	0.069
7.37616	0.114
7.41593	0.214
7.4557	0.251
7.49547	0.257
7.53525	0.271
7.57502	0.279
7.61479	0.257
7.65456	0.234
7.69433	0.219
7.7341	0.227
7.77387	0.244
7.81365	0.262
7.85342	0.247
7.89319	0.222
7.93296	0.184
7.97273	0.166
8.0125	0.237
8.05228	0.327
8.09205	0.389
8.13182	0.41
8.17159	0.462
8.21136	0.467
8.25113	0.425
8.2909	0.369
8.33068	0.291
8.37045	0.219
8.41022	0.191
8.44999	0.184
8.48976	0.193
8.52953	0.186
8.56931	0.124
8.60908	0.081
8.64885	0.098
8.68862	0.161
8.72839	0.244
8.76816	0.234
8.80794	0.151
8.84771	0.086
8.88748	0.113
8.92725	0.139
8.96702	0.164
9.00679	0.204
9.04656	0.259
9.08634	0.319
9.12611	0.381
9.16588	0.394
9.20565	0.357
9.24542	0.316
9.28519	0.281
9.32497	0.302
9.36474	0.334
9.40451	0.382
9.44428	0.435
9.48405	0.489
9.52382	0.572
9.56359	0.647
9.60337	0.667
9.64314	0.647
9.68291	0.577
9.72268	0.469
9.76245	0.485
9.80222	0.587
9.842	0.673
9.88177	0.708
9.92154	0.692
9.96131	0.642
10.0011	0.582
10.0409	0.537
10.0806	0.53
10.1204	0.53
10.1602	0.527
10.1999	0.559
10.2397	0.579
10.2795	0.597
10.3193	0.613
10.359	0.63
10.3988	0.643
10.4386	0.652
10.4783	0.66
10.5181	0.685
10.5579	0.7
10.5977	0.713
10.6374	0.705
10.6772	0.678
10.717	0.648
10.7567	0.638
10.7965	0.637
10.8363	0.643
10.8761	0.653
10.9158	0.685
10.9556	0.69
10.9954	0.678
11.0351	0.658
11.0749	0.642
11.1147	0.605
11.1545	0.585
11.1942	0.574
11.234	0.564
11.2738	0.565
11.3135	0.572
11.3533	0.597
11.3931	0.623
11.4329	0.663
11.4726	0.697
11.5124	0.722
11.5522	0.752
11.5919	0.773
11.6317	0.782
11.6715	0.782
11.7113	0.775
11.751	0.763
11.7908	0.747
11.8306	0.732
11.8703	0.717
11.9101	0.715
11.9499	0.715
11.9897	0.713
12.0294	0.708
12.0692	0.697
12.109	0.688
12.1487	0.7
12.1885	0.727
12.2283	0.737
12.2681	0.748
12.3078	0.75
12.3476	0.753
12.3874	0.755
12.4271	0.755
12.4669	0.758
12.5067	0.757
12.5465	0.757
12.5862	0.762
12.626	0.762
12.6658	0.762
12.7055	0.757
12.7453	0.75
12.7851	0.737
12.8249	0.718
12.8646	0.688
12.9044	0.653
12.9442	0.597
12.9839	0.519
13.0237	0.41
13.0635	0.336
13.1033	0.289
13.143	0.259
13.1828	0.237
13.2226	0.217
13.2623	0.198
13.3021	0.189
13.3419	0.183
13.3817	0.204
13.4214	0.261
13.4612	0.349
13.501	0.445
13.5407	0.502
13.5805	0.539
13.6203	0.562
13.6601	0.565
13.6998	0.557
13.7396	0.549
13.7794	0.55
13.8192	0.565
13.8589	0.579
13.8987	0.607
13.9385	0.64
13.9782	0.657
14.018	0.658
14.0578	0.647
14.0976	0.613
14.1373	0.56
14.1771	0.475
14.2169	0.382
14.2566	0.302
14.2964	0.241
14.3362	0.207
14.376	0.188
14.4157	0.188
14.4555	0.193
14.4953	0.219
14.535	0.259
14.5748	0.317
14.6146	0.405
14.6544	0.497
14.6941	0.582
14.7339	0.647
14.7737	0.68
14.8134	0.707
14.8532	0.72
14.893	0.723
14.9328	0.72
14.9725	0.718
15.0123	0.72
15.0521	0.708
15.0918	0.678
15.1316	0.662
15.1714	0.672
15.2112	0.702
15.2509	0.725
15.2907	0.74
15.3305	0.743
15.3702	0.748
15.41	0.753
15.4498	0.752
15.4896	0.752
15.5293	0.753
15.5691	0.755
15.6089	0.76
15.6486	0.75
15.6884	0.75
15.7282	0.735
15.768	0.738
15.8077	0.73
15.8475	0.725
15.8873	0.712
15.927	0.713
15.9668	0.718
