Infrared Spectrum: 2-(N-METHYLANILINO)-3-BENZYL PYRAZINE
Formula: C18 H17 N3
CAS: 116660-02-7
State: LIQUID
Class: COBLENTZ
Instrument: Not specified, most likely a prism, grating, or hybrid spectrometer.
Sampling: TRANSMISSION
Path length: 0.0015 CM
Resolution: 4
Origin: WYANDOTTE CHEMICALS CORP., WYANDOTTE, MICHIGAN, USA
MICROMETERS	TRANSMITTANCE
2.04	0.961
2.07981	0.958
2.11962	0.963
2.15943	0.96
2.19923	0.951
2.23904	0.95
2.27885	0.953
2.31866	0.951
2.35847	0.941
2.39828	0.913
2.43808	0.943
2.47789	0.941
2.5177	0.95
2.55751	0.961
2.59732	0.951
2.63713	0.978
2.67694	0.97
2.71674	0.965
2.75655	0.963
2.79636	0.943
2.83617	0.928
2.87598	0.903
2.91579	0.89
2.95559	0.885
2.9954	0.867
3.03521	0.863
3.07502	0.86
3.11483	0.853
3.15464	0.852
3.19445	0.808
3.23425	0.541
3.27406	0.33
3.31387	0.601
3.35368	0.549
3.39349	0.509
3.4333	0.521
3.4731	0.657
3.51291	0.705
3.55272	0.782
3.59253	0.848
3.63234	0.882
3.67215	0.888
3.71196	0.906
3.75176	0.903
3.79157	0.895
3.83138	0.893
3.87119	0.898
3.911	0.897
3.95081	0.911
3.99062	0.913
4.03042	0.918
4.07023	0.908
4.11004	0.91
4.14985	0.906
4.18966	0.903
4.22947	0.888
4.26927	0.897
4.30908	0.928
4.34889	0.948
4.3887	0.946
4.42851	0.931
4.46832	0.931
4.50813	0.93
4.54793	0.931
4.58774	0.933
4.62755	0.935
4.66736	0.931
4.70717	0.931
4.74698	0.94
4.78678	0.935
4.82659	0.931
4.8664	0.933
4.90621	0.938
4.94602	0.941
4.98583	0.94
5.02564	0.93
5.06544	0.91
5.10525	0.888
5.14506	0.847
5.18487	0.817
5.22468	0.85
5.26449	0.863
5.30429	0.857
5.3441	0.852
5.38391	0.867
5.42372	0.878
5.46353	0.877
5.50334	0.862
5.54315	0.822
5.58295	0.83
5.62276	0.828
5.66257	0.835
5.70238	0.815
5.74219	0.81
5.782	0.77
5.8218	0.78
5.86161	0.745
5.90142	0.737
5.94123	0.732
5.98104	0.724
6.02085	0.709
6.06066	0.7
6.10046	0.647
6.14027	0.504
6.18008	0.122
6.21989	0.196
6.2597	0.25
6.29951	0.401
6.33931	0.433
6.37912	0.466
6.41893	0.511
6.45874	0.395
6.49855	0.131
6.53836	0.166
6.57817	0.252
6.61797	0.074
6.65778	0.088
6.69759	0.186
6.7374	0.176
6.77721	0.139
6.81702	0.134
6.85683	0.094
6.89663	0.093
6.93644	0.066
6.97625	0.107
7.01606	0.209
7.05587	0.142
7.09568	0.063
7.13548	0.056
7.17529	0.061
7.2151	0.091
7.25491	0.152
7.29472	0.24
7.33453	0.318
7.37434	0.21
7.41414	0.2
7.45395	0.264
7.49376	0.24
7.53357	0.297
7.57338	0.343
7.61319	0.31
7.65299	0.28
7.6928	0.302
7.73261	0.333
7.77242	0.38
7.81223	0.388
7.85204	0.358
7.89185	0.31
7.93165	0.3
7.97146	0.33
8.01127	0.357
8.05108	0.46
8.09089	0.563
8.1307	0.548
8.1705	0.455
8.21031	0.347
8.25012	0.317
8.28993	0.292
8.32974	0.292
8.36955	0.27
8.40936	0.239
8.44916	0.225
8.48897	0.23
8.52878	0.284
8.56859	0.322
8.6084	0.265
8.64821	0.214
8.68801	0.121
8.72782	0.091
8.76763	0.121
8.80744	0.161
8.84725	0.184
8.88706	0.157
8.92687	0.142
8.96667	0.224
9.00648	0.34
9.04629	0.461
9.0861	0.574
9.12591	0.607
9.16572	0.548
9.20552	0.478
9.24533	0.413
9.28514	0.362
9.32495	0.438
9.36476	0.569
9.40457	0.579
9.44438	0.553
9.48418	0.561
9.52399	0.616
9.5638	0.677
9.60361	0.684
9.64342	0.574
9.68323	0.406
9.72304	0.466
9.76284	0.616
9.80265	0.656
9.84246	0.662
9.88227	0.681
9.92208	0.654
9.96189	0.591
10.0017	0.601
10.0415	0.641
10.0813	0.639
10.1211	0.627
10.1609	0.656
10.2007	0.705
10.2405	0.734
10.2804	0.75
10.3202	0.745
10.36	0.747
10.3998	0.75
10.4396	0.767
10.4794	0.779
10.5192	0.794
10.559	0.799
10.5988	0.794
10.6386	0.77
10.6784	0.677
10.7182	0.576
10.7581	0.568
10.7979	0.621
10.8377	0.667
10.8775	0.674
10.9173	0.644
10.9571	0.569
10.9969	0.491
11.0367	0.476
11.0765	0.509
11.1163	0.534
11.1561	0.579
11.1959	0.624
11.2358	0.661
11.2756	0.682
11.3154	0.696
11.3552	0.7
11.395	0.702
11.4348	0.715
11.4746	0.719
11.5144	0.707
11.5542	0.677
11.594	0.646
11.6338	0.588
11.6737	0.539
11.7135	0.508
11.7533	0.488
11.7931	0.48
11.8329	0.483
11.8727	0.496
11.9125	0.524
11.9523	0.559
11.9921	0.586
12.0319	0.602
12.0717	0.631
12.1115	0.666
12.1514	0.7
12.1912	0.724
12.231	0.737
12.2708	0.747
12.3106	0.759
12.3504	0.77
12.3902	0.774
12.43	0.772
12.4698	0.774
12.5096	0.784
12.5494	0.789
12.5892	0.785
12.6291	0.774
12.6689	0.737
12.7087	0.692
12.7485	0.636
12.7883	0.578
12.8281	0.548
12.8679	0.526
12.9077	0.466
12.9475	0.395
12.9873	0.308
13.0271	0.232
13.0669	0.179
13.1068	0.132
13.1466	0.106
13.1864	0.098
13.2262	0.094
13.266	0.101
13.3058	0.111
13.3456	0.139
13.3854	0.179
13.4252	0.235
13.465	0.274
13.5048	0.312
13.5446	0.34
13.5845	0.363
13.6243	0.385
13.6641	0.403
13.7039	0.45
13.7437	0.524
13.7835	0.558
13.8233	0.569
13.8631	0.539
13.9029	0.536
13.9427	0.509
13.9825	0.458
14.0224	0.37
14.0622	0.29
14.102	0.217
14.1418	0.159
14.1816	0.131
14.2214	0.104
14.2612	0.101
14.301	0.098
14.3408	0.096
14.3806	0.101
14.4204	0.107
14.4602	0.112
14.5001	0.142
14.5399	0.202
14.5797	0.294
14.6195	0.41
14.6593	0.516
14.6991	0.589
14.7389	0.632
14.7787	0.656
14.8185	0.669
14.8583	0.677
14.8981	0.686
14.9379	0.681
14.9778	0.669
15.0176	0.651
15.0574	0.659
15.0972	0.687
15.137	0.71
15.1768	0.714
15.2166	0.717
15.2564	0.719
15.2962	0.725
15.336	0.727
15.3758	0.724
15.4156	0.722
15.4555	0.717
15.4953	0.715
15.5351	0.712
15.5749	0.709
15.6147	0.696
15.6545	0.687
15.6943	0.669
15.7341	0.662
15.7739	0.657
15.8137	0.647
15.8535	0.639
15.8933	0.641
15.9332	0.631
15.973	0.624
