Infrared Spectrum: m-(PHENYLDIMETHYLSILYL)CHLORO BENZENE
Formula: C14 H15 Cl Si
CAS: 116435-01-9
State: LIQUID
Class: COBLENTZ
Instrument: Not specified, most likely a prism, grating, or hybrid spectrometer.
Sampling: TRANSMISSION
Path length: 0.0015 CM
Resolution: 4
Origin: WYANDOTTE CHEMICALS CORP., WYANDOTTE, MICHIGAN, USA
MICROMETERS	TRANSMITTANCE
2.034	0.969
2.0748	0.959
2.11559	0.959
2.15639	0.967
2.19719	0.955
2.23799	0.965
2.27878	0.959
2.31958	0.95
2.36038	0.947
2.40117	0.918
2.44197	0.95
2.48277	0.959
2.52356	0.955
2.56436	0.962
2.60516	0.94
2.64596	0.935
2.68675	0.93
2.72755	0.93
2.76835	0.952
2.80914	0.957
2.84994	0.95
2.89074	0.945
2.93154	0.933
2.97233	0.933
3.01313	0.928
3.05393	0.923
3.09472	0.918
3.13552	0.911
3.17632	0.88
3.21712	0.824
3.25791	0.407
3.29871	0.558
3.33951	0.662
3.3803	0.535
3.4211	0.776
3.4619	0.798
3.50269	0.878
3.54349	0.892
3.58429	0.887
3.62509	0.919
3.66588	0.924
3.70668	0.918
3.74748	0.926
3.78827	0.928
3.82907	0.935
3.86987	0.936
3.91067	0.935
3.95146	0.938
3.99226	0.941
4.03306	0.928
4.07385	0.933
4.11465	0.931
4.15545	0.938
4.19625	0.933
4.23704	0.919
4.27784	0.919
4.31864	0.926
4.35943	0.938
4.40023	0.95
4.44103	0.943
4.48182	0.943
4.52262	0.943
4.56342	0.941
4.60422	0.941
4.64501	0.945
4.68581	0.948
4.72661	0.948
4.7674	0.947
4.8082	0.941
4.849	0.938
4.8898	0.936
4.93059	0.94
4.97139	0.93
5.01219	0.935
5.05298	0.928
5.09378	0.911
5.13458	0.877
5.17537	0.817
5.21617	0.897
5.25697	0.912
5.29777	0.851
5.33856	0.791
5.37936	0.878
5.42016	0.901
5.46095	0.901
5.50175	0.858
5.54255	0.854
5.58335	0.873
5.62414	0.882
5.66494	0.848
5.70574	0.87
5.74653	0.897
5.78733	0.897
5.82813	0.892
5.86893	0.87
5.90972	0.843
5.95052	0.854
5.99132	0.849
6.03211	0.832
6.07291	0.839
6.11371	0.849
6.1545	0.839
6.1953	0.831
6.2361	0.696
6.2769	0.643
6.31769	0.728
6.35849	0.517
6.39929	0.5
6.44008	0.687
6.48088	0.795
6.52168	0.812
6.56248	0.832
6.60327	0.802
6.64407	0.769
6.68487	0.682
6.72566	0.761
6.76646	0.302
6.80726	0.602
6.84805	0.732
6.88885	0.732
6.92965	0.641
6.97045	0.208
7.01124	0.547
7.05204	0.441
7.09284	0.397
7.13363	0.44
7.17443	0.15
7.21523	0.441
7.25603	0.697
7.29682	0.79
7.33762	0.824
7.37842	0.831
7.41921	0.802
7.46001	0.737
7.50081	0.788
7.54161	0.74
7.5824	0.699
7.6232	0.708
7.664	0.641
7.70479	0.767
7.74559	0.786
7.78639	0.771
7.82718	0.737
7.86798	0.563
7.90878	0.238
7.94958	0.069
7.99037	0.138
8.03117	0.546
8.07197	0.728
8.11276	0.783
8.15356	0.798
8.19436	0.783
8.23516	0.769
8.27595	0.784
8.31675	0.784
8.35755	0.709
8.39834	0.672
8.43914	0.737
8.47994	0.725
8.52074	0.633
8.56153	0.759
8.60233	0.766
8.64313	0.762
8.68392	0.764
8.72472	0.672
8.76552	0.423
8.80631	0.083
8.84711	0.049
8.88791	0.061
8.92871	0.047
8.9695	0.061
9.0103	0.162
9.0511	0.336
9.09189	0.211
9.13269	0.261
9.17349	0.501
9.21429	0.61
9.25508	0.383
9.29588	0.261
9.33668	0.527
9.37747	0.667
9.41827	0.747
9.45907	0.774
9.49986	0.764
9.54066	0.752
9.58146	0.774
9.62226	0.802
9.66305	0.802
9.70385	0.779
9.74465	0.824
9.78544	0.837
9.82624	0.834
9.86704	0.837
9.90784	0.849
9.94863	0.822
9.98943	0.61
10.0302	0.656
10.071	0.807
10.1118	0.822
10.1526	0.827
10.1934	0.837
10.2342	0.824
10.275	0.817
10.3158	0.82
10.3566	0.839
10.3974	0.849
10.4382	0.851
10.479	0.848
10.5198	0.853
10.5606	0.849
10.6014	0.851
10.6422	0.851
10.683	0.851
10.7238	0.849
10.7646	0.844
10.8054	0.832
10.8462	0.829
10.887	0.8
10.9278	0.755
10.9686	0.692
11.0094	0.65
11.0502	0.687
11.091	0.74
11.1317	0.757
11.1725	0.74
11.2133	0.703
11.2541	0.66
11.2949	0.622
11.3357	0.627
11.3765	0.651
11.4173	0.656
11.4581	0.653
11.4989	0.629
11.5397	0.602
11.5805	0.578
11.6213	0.54
11.6621	0.488
11.7029	0.418
11.7437	0.337
11.7845	0.261
11.8253	0.191
11.8661	0.114
11.9069	0.064
11.9477	0.039
11.9885	0.037
12.0293	0.039
12.0701	0.04
12.1109	0.04
12.1517	0.034
12.1925	0.04
12.2333	0.035
12.2741	0.04
12.3149	0.081
12.3557	0.18
12.3965	0.293
12.4373	0.385
12.4781	0.455
12.5188	0.488
12.5596	0.496
12.6004	0.472
12.6412	0.406
12.682	0.269
12.7228	0.136
12.7636	0.069
12.8044	0.047
12.8452	0.042
12.886	0.044
12.9268	0.044
12.9676	0.047
13.0084	0.063
13.0492	0.058
13.09	0.049
13.1308	0.051
13.1716	0.071
13.2124	0.121
13.2532	0.16
13.294	0.158
13.3348	0.133
13.3756	0.136
13.4164	0.194
13.4572	0.226
13.498	0.218
13.5388	0.158
13.5796	0.121
13.6204	0.098
13.6612	0.08
13.702	0.08
13.7428	0.105
13.7836	0.191
13.8244	0.31
13.8652	0.411
13.9059	0.472
13.9467	0.511
13.9875	0.51
14.0283	0.494
14.0691	0.448
14.1099	0.361
14.1507	0.264
14.1915	0.191
14.2323	0.122
14.2731	0.102
14.3139	0.097
14.3547	0.102
14.3955	0.117
14.4363	0.148
14.4771	0.182
14.5179	0.199
14.5587	0.196
14.5995	0.191
14.6403	0.208
14.6811	0.274
14.7219	0.38
14.7627	0.494
14.8035	0.556
14.8443	0.58
14.8851	0.581
14.9259	0.566
14.9667	0.523
15.0075	0.479
15.0483	0.436
15.0891	0.378
15.1299	0.383
15.1707	0.469
15.2115	0.568
15.2523	0.648
15.293	0.689
15.3338	0.703
15.3746	0.715
15.4154	0.713
15.4562	0.699
15.497	0.66
15.5378	0.624
15.5786	0.59
15.6194	0.58
15.6602	0.597
15.701	0.629
15.7418	0.655
15.7826	0.684
15.8234	0.699
15.8642	0.704
15.905	0.711
15.9458	0.715
15.9866	0.706
