Infrared Spectrum: 2-PHENOXY-6-BENZYL PYRAZINE
Formula: C17 H14 N2 O
CAS: 116660-05-0
State: LIQUID
Class: COBLENTZ
Instrument: Not specified, most likely a prism, grating, or hybrid spectrometer.
Sampling: TRANSMISSION
Path length: 0.0015 CM
Resolution: 4
Origin: WYANDOTTE CHEMICALS CORP., WYANDOTTE, MICHIGAN, USA
MICROMETERS	TRANSMITTANCE
2.033	0.943
2.07285	0.936
2.1127	0.933
2.15255	0.936
2.19239	0.931
2.23224	0.921
2.27209	0.921
2.31194	0.926
2.35179	0.925
2.39164	0.901
2.43149	0.9
2.47133	0.931
2.51118	0.92
2.55103	0.923
2.59088	0.928
2.63073	0.923
2.67058	0.93
2.71043	0.92
2.75028	0.915
2.79012	0.918
2.82997	0.905
2.86982	0.891
2.90967	0.883
2.94952	0.87
2.98937	0.868
3.02922	0.871
3.06906	0.873
3.10891	0.873
3.14876	0.868
3.18861	0.86
3.22846	0.78
3.26831	0.5
3.30816	0.572
3.348	0.712
3.38785	0.673
3.4277	0.622
3.46755	0.762
3.5074	0.793
3.54725	0.826
3.5871	0.878
3.62694	0.886
3.66679	0.875
3.70664	0.888
3.74649	0.905
3.78634	0.901
3.82619	0.898
3.86604	0.901
3.90589	0.906
3.94573	0.9
3.98558	0.903
4.02543	0.9
4.06528	0.9
4.10513	0.895
4.14498	0.891
4.18483	0.886
4.22467	0.875
4.26452	0.871
4.30437	0.873
4.34422	0.875
4.38407	0.883
4.42392	0.908
4.46377	0.913
4.50361	0.913
4.54346	0.92
4.58331	0.92
4.62316	0.923
4.66301	0.915
4.70286	0.915
4.74271	0.918
4.78255	0.918
4.8224	0.91
4.86225	0.905
4.9021	0.903
4.94195	0.888
4.9818	0.878
5.02165	0.89
5.0615	0.878
5.10134	0.878
5.14119	0.865
5.18104	0.828
5.22089	0.848
5.26074	0.878
5.30059	0.885
5.34044	0.86
5.38028	0.853
5.42013	0.87
5.45998	0.885
5.49983	0.888
5.53968	0.85
5.57953	0.835
5.61938	0.843
5.65922	0.845
5.69907	0.856
5.73892	0.848
5.77877	0.838
5.81862	0.843
5.85847	0.838
5.89832	0.821
5.93816	0.77
5.97801	0.615
6.01786	0.665
6.05771	0.742
6.09756	0.753
6.13741	0.72
6.17726	0.547
6.21711	0.216
6.25695	0.326
6.2968	0.442
6.33665	0.579
6.3765	0.625
6.41635	0.507
6.4562	0.341
6.49605	0.326
6.53589	0.565
6.57574	0.622
6.61559	0.509
6.65544	0.041
6.69529	0.144
6.73514	0.344
6.77499	0.242
6.81483	0.084
6.85468	0.083
6.89453	0.133
6.93438	0.158
6.97423	0.226
7.01408	0.342
7.05393	0.366
7.09377	0.277
7.13362	0.309
7.17347	0.188
7.21332	0.031
7.25317	0.028
7.29302	0.028
7.33287	0.053
7.37272	0.198
7.41256	0.282
7.45241	0.292
7.49226	0.311
7.53211	0.291
7.57196	0.331
7.61181	0.299
7.65166	0.254
7.6915	0.244
7.73135	0.207
7.7712	0.199
7.81105	0.198
7.8509	0.202
7.89075	0.254
7.9306	0.364
7.97044	0.43
8.01029	0.452
8.05014	0.452
8.08999	0.447
8.12984	0.424
8.16969	0.331
8.20954	0.098
8.24938	0.028
8.28923	0.028
8.32908	0.036
8.36893	0.088
8.40878	0.148
8.44863	0.173
8.48848	0.173
8.52833	0.058
8.56817	0.041
8.60802	0.094
8.64787	0.141
8.68772	0.207
8.72757	0.307
8.76742	0.409
8.80727	0.515
8.84711	0.545
8.88696	0.5
8.92681	0.53
8.96666	0.668
9.00651	0.703
9.04636	0.75
9.08621	0.772
9.12605	0.778
9.1659	0.772
9.20575	0.73
9.2456	0.599
9.28545	0.445
9.3253	0.43
9.36515	0.648
9.40499	0.737
9.44484	0.758
9.48469	0.758
9.52454	0.745
9.56439	0.725
9.60424	0.68
9.64409	0.595
9.68394	0.447
9.72378	0.341
9.76363	0.297
9.80348	0.4
9.84333	0.469
9.88318	0.53
9.92303	0.502
9.96288	0.379
10.0027	0.59
10.0426	0.7
10.0824	0.718
10.1223	0.703
10.1621	0.682
10.202	0.697
10.2418	0.738
10.2817	0.768
10.3215	0.773
10.3614	0.78
10.4012	0.785
10.4411	0.798
10.4809	0.81
10.5208	0.825
10.5606	0.833
10.6005	0.835
10.6403	0.823
10.6802	0.8
10.72	0.775
10.7598	0.76
10.7997	0.752
10.8395	0.747
10.8794	0.74
10.9192	0.728
10.9591	0.7
10.9989	0.648
11.0388	0.589
11.0786	0.56
11.1185	0.569
11.1583	0.589
11.1982	0.599
11.238	0.585
11.2779	0.589
11.3177	0.589
11.3576	0.612
11.3974	0.657
11.4373	0.71
11.4771	0.752
11.517	0.787
11.5568	0.816
11.5967	0.82
11.6365	0.825
11.6764	0.818
11.7162	0.81
11.7561	0.787
11.7959	0.757
11.8358	0.703
11.8756	0.605
11.9155	0.495
11.9553	0.432
11.9952	0.492
12.035	0.574
12.0749	0.595
12.1147	0.599
12.1545	0.599
12.1944	0.603
12.2342	0.635
12.2741	0.672
12.3139	0.7
12.3538	0.707
12.3936	0.713
12.4335	0.708
12.4733	0.698
12.5132	0.707
12.553	0.722
12.5929	0.733
12.6327	0.733
12.6726	0.69
12.7124	0.61
12.7523	0.522
12.7921	0.485
12.832	0.455
12.8718	0.452
12.9117	0.47
12.9515	0.502
12.9914	0.525
13.0312	0.54
13.0711	0.522
13.1109	0.474
13.1508	0.396
13.1906	0.336
13.2305	0.316
13.2703	0.307
13.3102	0.282
13.35	0.214
13.3899	0.143
13.4297	0.106
13.4696	0.104
13.5094	0.101
13.5493	0.098
13.5891	0.101
13.6289	0.124
13.6688	0.169
13.7086	0.252
13.7485	0.319
13.7883	0.366
13.8282	0.389
13.868	0.384
13.9079	0.367
13.9477	0.334
13.9876	0.319
14.0274	0.329
14.0673	0.341
14.1071	0.351
14.147	0.362
14.1868	0.387
14.2267	0.396
14.2665	0.336
14.3064	0.256
14.3462	0.188
14.3861	0.176
14.4259	0.189
14.4658	0.206
14.5056	0.199
14.5455	0.186
14.5853	0.206
14.6252	0.276
14.665	0.397
14.7049	0.55
14.7447	0.64
14.7846	0.685
14.8244	0.722
14.8643	0.735
14.9041	0.745
14.944	0.737
14.9838	0.728
15.0237	0.717
15.0635	0.697
15.1033	0.698
15.1432	0.705
15.183	0.71
15.2229	0.717
15.2627	0.722
15.3026	0.723
15.3424	0.728
15.3823	0.737
15.4221	0.738
15.462	0.738
15.5018	0.738
15.5417	0.737
15.5815	0.723
15.6214	0.718
15.6612	0.717
15.7011	0.715
15.7409	0.717
15.7808	0.725
15.8206	0.722
15.8605	0.713
15.9003	0.712
15.9402	0.707
15.98	0.702
