Infrared Spectrum: 2-PHENOXY-3-BENZOYL PYRAZINE PHENYL HYDRAZONE
Formula: C23 H18 N4 O
CAS: 116660-00-5
State: SOLID (MINERAL OIL MULL)
Melting point: 136-137.5 C
Class: COBLENTZ
Instrument: Not specified, most likely a prism, grating, or hybrid spectrometer.
Sampling: TRANSMISSION
Resolution: 4
Origin: WYANDOTTE CHEMICALS CORP., WYANDOTTE, MICHIGAN, USA
MICROMETERS	TRANSMITTANCE
2.027	0.318
2.06679	0.331
2.10658	0.338
2.14637	0.348
2.18617	0.341
2.22596	0.344
2.26575	0.349
2.30554	0.361
2.34533	0.364
2.38512	0.378
2.42491	0.393
2.46471	0.396
2.5045	0.401
2.54429	0.417
2.58408	0.419
2.62387	0.431
2.66366	0.432
2.70345	0.439
2.74325	0.447
2.78304	0.452
2.82283	0.452
2.86262	0.456
2.90241	0.454
2.9422	0.457
2.98199	0.456
3.02179	0.389
3.06158	0.414
3.10137	0.434
3.14116	0.444
3.18095	0.444
3.22074	0.412
3.26054	0.328
3.30033	0.276
3.34012	0.061
3.37991	0.039
3.4197	0.048
3.45949	0.067
3.49928	0.106
3.53908	0.499
3.57887	0.583
3.61866	0.598
3.65845	0.587
3.69824	0.598
3.73803	0.6
3.77782	0.608
3.81762	0.616
3.85741	0.62
3.8972	0.631
3.93699	0.648
3.97678	0.655
4.01657	0.666
4.05636	0.665
4.09616	0.668
4.13595	0.669
4.17574	0.681
4.21553	0.674
4.25532	0.663
4.29511	0.678
4.3349	0.698
4.3747	0.718
4.41449	0.718
4.45428	0.718
4.49407	0.721
4.53386	0.723
4.57365	0.736
4.61344	0.739
4.65324	0.744
4.69303	0.741
4.73282	0.749
4.77261	0.759
4.8124	0.769
4.85219	0.769
4.89198	0.772
4.93178	0.787
4.97157	0.784
5.01136	0.791
5.05115	0.789
5.09094	0.787
5.13073	0.774
5.17052	0.764
5.21032	0.774
5.25011	0.781
5.2899	0.789
5.32969	0.797
5.36948	0.805
5.40927	0.812
5.44906	0.812
5.48886	0.807
5.52865	0.807
5.56844	0.814
5.60823	0.82
5.64802	0.829
5.68781	0.819
5.72761	0.829
5.7674	0.819
5.80719	0.819
5.84698	0.814
5.88677	0.834
5.92656	0.819
5.96635	0.825
6.00615	0.817
6.04594	0.825
6.08573	0.807
6.12552	0.796
6.16531	0.552
6.2051	0.23
6.24489	0.391
6.28469	0.454
6.32448	0.568
6.36427	0.421
6.40406	0.401
6.44385	0.548
6.48364	0.575
6.52343	0.497
6.56323	0.364
6.60302	0.262
6.64281	0.15
6.6826	0.149
6.72239	0.276
6.76218	0.255
6.80197	0.109
6.84177	0.174
6.88156	0.207
6.92135	0.349
6.96114	0.603
7.00093	0.62
7.04072	0.285
7.08051	0.325
7.12031	0.402
7.1601	0.215
7.19989	0.124
7.23968	0.2
7.27947	0.235
7.31926	0.454
7.35905	0.467
7.39885	0.439
7.43864	0.563
7.47843	0.469
7.51822	0.499
7.55801	0.58
7.5978	0.489
7.63759	0.565
7.67739	0.608
7.71718	0.577
7.75697	0.485
7.79676	0.248
7.83655	0.406
7.87634	0.474
7.91614	0.359
7.95593	0.16
7.99572	0.393
8.03551	0.497
8.0753	0.595
8.11509	0.673
8.15488	0.666
8.19468	0.663
8.23447	0.699
8.27426	0.479
8.31405	0.252
8.35384	0.311
8.39363	0.474
8.43342	0.461
8.47322	0.388
8.51301	0.464
8.5528	0.388
8.59259	0.276
8.63238	0.25
8.67217	0.349
8.71196	0.538
8.75176	0.625
8.79155	0.669
8.83134	0.487
8.87113	0.3
8.91092	0.296
8.95071	0.366
8.9905	0.464
9.0303	0.538
9.07009	0.606
9.10988	0.666
9.14967	0.703
9.18946	0.716
9.22925	0.66
9.26904	0.618
9.30884	0.499
9.34863	0.404
9.38842	0.588
9.42821	0.679
9.468	0.714
9.50779	0.724
9.54758	0.669
9.58738	0.552
9.62717	0.696
9.66696	0.706
9.70675	0.64
9.74654	0.679
9.78633	0.665
9.82612	0.749
9.86592	0.779
9.90571	0.764
9.9455	0.608
9.98529	0.696
10.0251	0.615
10.0649	0.645
10.1047	0.716
10.1445	0.686
10.1842	0.678
10.224	0.688
10.2638	0.655
10.3036	0.676
10.3434	0.665
10.3832	0.674
10.423	0.611
10.4628	0.339
10.5026	0.59
10.5424	0.714
10.5822	0.777
10.622	0.797
10.6617	0.809
10.7015	0.815
10.7413	0.822
10.7811	0.832
10.8209	0.827
10.8607	0.787
10.9005	0.761
10.9403	0.757
10.9801	0.739
11.0199	0.665
11.0597	0.741
11.0995	0.757
11.1392	0.757
11.179	0.674
11.2188	0.653
11.2586	0.719
11.2984	0.769
11.3382	0.814
11.378	0.844
11.4178	0.857
11.4576	0.867
11.4974	0.862
11.5372	0.794
11.5769	0.709
11.6167	0.742
11.6565	0.781
11.6963	0.689
11.7361	0.703
11.7759	0.791
11.8157	0.815
11.8555	0.82
11.8953	0.849
11.9351	0.873
11.9749	0.878
12.0147	0.862
12.0544	0.829
12.0942	0.761
12.134	0.796
12.1738	0.844
12.2136	0.865
12.2534	0.862
12.2932	0.877
12.333	0.9
12.3728	0.913
12.4126	0.928
12.4524	0.92
12.4922	0.935
12.5319	0.93
12.5717	0.903
12.6115	0.777
12.6513	0.706
12.6911	0.8
12.7309	0.713
12.7707	0.794
12.8105	0.847
12.8503	0.834
12.8901	0.729
12.9299	0.485
12.9696	0.311
13.0094	0.492
13.0492	0.467
13.089	0.288
13.1288	0.311
13.1686	0.441
13.2084	0.492
13.2482	0.409
13.288	0.333
13.3278	0.31
13.3676	0.27
13.4074	0.323
13.4471	0.489
13.4869	0.643
13.5267	0.696
13.5665	0.711
13.6063	0.699
13.6461	0.635
13.6859	0.543
13.7257	0.527
13.7655	0.611
13.8053	0.689
13.8451	0.737
13.8849	0.757
13.9246	0.789
13.9644	0.815
14.0042	0.837
14.044	0.852
14.0838	0.862
14.1236	0.862
14.1634	0.85
14.2032	0.815
14.243	0.762
14.2828	0.673
14.3226	0.529
14.3624	0.441
14.4021	0.416
14.4419	0.354
14.4817	0.29
14.5215	0.26
14.5613	0.247
14.6011	0.293
14.6409	0.407
14.6807	0.553
14.7205	0.663
14.7603	0.708
14.8001	0.736
14.8398	0.726
14.8796	0.668
14.9194	0.643
14.9592	0.646
14.999	0.643
15.0388	0.613
15.0786	0.563
15.1184	0.56
15.1582	0.597
15.198	0.646
15.2378	0.689
15.2776	0.704
15.3173	0.716
15.3571	0.721
15.3969	0.726
15.4367	0.718
15.4765	0.713
15.5163	0.699
15.5561	0.688
15.5959	0.671
15.6357	0.653
15.6755	0.636
15.7153	0.626
15.7551	0.618
15.7948	0.616
15.8346	0.613
15.8744	0.606
15.9142	0.606
15.954	0.592
15.9938	0.587
