Infrared Spectrum: Phthalic acid, di-2-ethylhexyl ester
Formula: C24 H38 O4
CAS: 117-81-7
State: SOLUTION (10% CCl4 FOR 2.7-7.5, 10% CS2 FOR 7.5-26 MICRON) VS SOLVENT
Class: COBLENTZ III
Instrument: DOW KBr FOREPRISM-GRATING
Instrument parameters: BLAZED AT 3.5, 12.0, 20.0 MICRON AND CHANGED AT 5.0, 7.5, 14.9 MICRON
Sampling: TRANSMISSION
Path length: 0.011 CM, 0.011 CM
Resolution: 2
Origin: DOW CHEMICAL COMPANY
1/CM	TRANSMITTANCE
3792	0.8554
3783	0.8556
3774	0.8559
3765	0.8561
3756	0.8563
3747	0.8564
3738	0.8566
3729	0.8571
3720	0.8578
3711	0.8584
3702	0.8587
3693	0.859
3684	0.8588
3675	0.8584
3666	0.8581
3657	0.8578
3648	0.8578
3639	0.858
3630	0.8578
3621	0.8556
3612	0.8575
3603	0.8598
3594	0.8621
3585	0.8658
3576	0.8706
3567	0.8748
3558	0.8749
3549	0.8723
3540	0.8705
3531	0.8721
3522	0.874
3513	0.8762
3504	0.8785
3495	0.8799
3486	0.8809
3477	0.8816
3468	0.8815
3459	0.8794
3450	0.8747
3441	0.8678
3432	0.8631
3423	0.8607
3414	0.8625
3405	0.871
3396	0.878
3387	0.8836
3378	0.8868
3369	0.8886
3360	0.8902
3351	0.8918
3342	0.8928
3333	0.8921
3324	0.8924
3315	0.8924
3306	0.8921
3297	0.8917
3288	0.8914
3279	0.891
3270	0.8907
3261	0.8897
3252	0.8883
3243	0.8861
3234	0.8837
3225	0.8808
3216	0.878
3207	0.8758
3198	0.8739
3189	0.8727
3180	0.8721
3171	0.8724
3162	0.8728
3153	0.8728
3144	0.8725
3135	0.871
3126	0.8687
3117	0.8649
3108	0.8592
3099	0.8517
3090	0.8443
3081	0.8271
3072	0.769
3063	0.7676
3054	0.7821
3045	0.8004
3036	0.8008
3027	0.7876
3018	0.7718
3009	0.7411
3000	0.6808
2991	0.5439
2982	0.2706
2973	0.0806
2964	0.0308
2955	0.0561
2946	0.107
2937	0.0592
2928	0.0442
2919	0.0824
2910	0.1841
2901	0.2457
2892	0.3019
2883	0.2922
2874	0.1762
2865	0.162
2856	0.2666
2847	0.4842
2838	0.601
2829	0.6799
2820	0.7294
2811	0.7565
2802	0.7761
2793	0.7915
2784	0.8028
2775	0.8108
2766	0.8167
2757	0.819
2748	0.8186
2739	0.8145
2730	0.8111
2721	0.8138
2712	0.8194
2703	0.824
2694	0.8281
2685	0.8311
2676	0.8303
2667	0.8294
2658	0.8324
2649	0.8358
2640	0.8384
2631	0.8398
2622	0.8398
2613	0.8375
2604	0.8368
2595	0.8357
2586	0.8357
2577	0.8367
2568	0.8387
2559	0.8407
2550	0.8427
2541	0.8446
2532	0.8468
2523	0.8493
2514	0.8521
2505	0.8552
2496	0.8577
2487	0.8598
2478	0.861
2469	0.8617
2460	0.8617
2451	0.8618
2442	0.8606
2433	0.8568
2424	0.8544
2415	0.8512
2406	0.8496
2397	0.8484
2388	0.8485
2379	0.8483
2370	0.8473
2361	0.847
2352	0.8471
2343	0.8475
2334	0.8475
2325	0.8475
2316	0.8475
2307	0.8475
2298	0.8474
2289	0.8474
2280	0.8481
2271	0.8488
2262	0.8494
2253	0.8499
2244	0.8508
2235	0.8518
2226	0.8533
2217	0.8548
2208	0.8566
2199	0.8586
2190	0.8602
2181	0.8697
2172	0.8621
2163	0.8582
2154	0.8581
2145	0.8581
2136	0.8581
2127	0.8581
2118	0.8584
2109	0.8588
2100	0.8584
2091	0.8578
2082	0.8575
2073	0.8571
2064	0.8568
2055	0.8558
2046	0.8539
2037	0.8525
2028	0.8532
2019	0.8591
2010	0.8702
2001	0.8811
1992	0.8832
1983	0.8834
1974	0.884
1965	0.8709
1956	0.8759
1947	0.8777
1938	0.8592
1929	0.8646
1920	0.8777
1911	0.8762
1902	0.8753
1893	0.8762
1884	0.8771
1875	0.8777
1866	0.8737
1857	0.8721
1848	0.8733
1839	0.8645
1830	0.8515
1821	0.8551
1812	0.8545
1803	0.8505
1794	0.8411
1785	0.8238
1776	0.7986
1767	0.7519
1758	0.6674
1749	0.4354
1740	0.0677
1731	0.0094
1722	0.0054
1713	0.0709
1704	0.5132
1695	0.609
1686	0.6699
1677	0.7303
1668	0.7771
1659	0.8071
1650	0.8237
1641	0.8337
1632	0.8378
1623	0.8366
1614	0.834
1605	0.7904
1596	0.7175
1587	0.7768
1578	0.6562
1569	0.7921
1560	0.8313
1551	0.844
1542	0.8487
1533	0.8443
1524	0.8318
1515	0.8249
1506	0.8075
1497	0.7633
1488	0.6437
1479	0.5706
1470	0.2322
1461	0.2414
1452	0.4408
1443	0.658
1434	0.744
1425	0.7711
1416	0.7745
1407	0.7622
1398	0.6961
1389	0.4647
1380	0.3679
1371	0.6204
1362	0.6565
1353	0.6654
1344	0.6421
1335	0.593
1326	0.5954
1317	0.4803
1308	0.2993
1299	0.1619
1290	0.0439
1281	0.0105
1272	0.0101
1263	0.0104
1254	0.0343
1245	0.1815
1236	0.382
1227	0.5685
1218	0.6524
1209	0.6978
1200	0.7328
1191	0.7594
1182	0.7675
1173	0.7539
1164	0.5703
1155	0.5276
1146	0.4175
1137	0.1535
1128	0.1114
1119	0.065
1110	0.1651
1101	0.579
1092	0.6564
1083	0.4674
1074	0.1324
1065	0.182
1056	0.5954
1047	0.6818
1038	0.4176
1029	0.6968
1020	0.7491
1011	0.7656
1002	0.7481
993	0.7105
984	0.6921
975	0.661
966	0.6775
957	0.5412
948	0.5954
939	0.6549
930	0.7118
921	0.7311
912	0.7701
903	0.7514
894	0.7872
885	0.8191
876	0.799
867	0.7987
858	0.7997
849	0.8178
840	0.8275
831	0.8085
822	0.8045
813	0.7991
804	0.788
795	0.6922
786	0.6241
777	0.6055
768	0.586
759	0.6215
750	0.5125
741	0.2621
732	0.5345
723	0.6387
714	0.7465
705	0.5691
696	0.6367
687	0.7011
678	0.835
669	0.856
660	0.8759
651	0.7753
642	0.8025
633	0.8518
624	0.8575
615	0.8553
606	0.8503
597	0.847
588	0.837
579	0.8151
570	0.8141
561	0.826
552	0.8299
543	0.8293
534	0.8218
525	0.8208
516	0.8203
507	0.82
498	0.8184
489	0.8161
480	0.8158
471	0.8193
462	0.8221
453	0.8233
444	0.8225
435	0.8221
426	0.8217
417	0.8216
408	0.8218
399	0.8228
