Infrared Spectrum: FENCHONE
Formula: C10 H16 O
CAS: 1195-79-5
State: SOLUTION (10% CCl4 FOR 3660-1330, 10% CS2 FOR 1330-490 CM^-^1) VS SOLVENT
Boiling point: 194 C
Class: COBLENTZ III
Instrument: CARY 90 (GRATING)
Instrument parameters: ORDER CHANGES: 3000, 2000, 1200 CM^-^1
Sampling: TRANSMISSION
Path length: 0.010 CM, 0.010 CM
Resolution: 2
Origin: WESTERN REGIONAL RES. USDA
1/CM	TRANSMITTANCE
3740	0.9575
3731	0.957
3722	0.9562
3713	0.9553
3704	0.9545
3695	0.9538
3686	0.9536
3677	0.9533
3668	0.9532
3659	0.9531
3650	0.9524
3641	0.9512
3632	0.95
3623	0.9489
3614	0.9483
3605	0.9475
3596	0.947
3587	0.9471
3578	0.948
3569	0.9488
3560	0.9495
3551	0.95
3542	0.9506
3533	0.9497
3524	0.9485
3515	0.9458
3506	0.9428
3497	0.9397
3488	0.9388
3479	0.9386
3470	0.9387
3461	0.9417
3452	0.9448
3443	0.9478
3434	0.9494
3425	0.95
3416	0.9507
3407	0.9513
3398	0.9517
3389	0.9518
3380	0.952
3371	0.9521
3362	0.9524
3353	0.9525
3344	0.9523
3335	0.9518
3326	0.9514
3317	0.9509
3308	0.9506
3299	0.9501
3290	0.9497
3281	0.9493
3272	0.949
3263	0.9486
3254	0.9484
3245	0.9478
3236	0.9474
3227	0.9468
3218	0.9463
3209	0.9458
3200	0.9451
3191	0.9443
3182	0.9437
3173	0.9433
3164	0.943
3155	0.9425
3146	0.9423
3137	0.9418
3128	0.9416
3119	0.9417
3110	0.9421
3101	0.9424
3092	0.9427
3083	0.9424
3074	0.9417
3065	0.9404
3056	0.9375
3047	0.9332
3038	0.9252
3029	0.9112
3020	0.894
3011	0.8675
3002	0.7415
2993	0.4866
2984	0.2404
2975	0.2316
2966	0.3352
2957	0.4079
2948	0.4842
2939	0.3936
2930	0.5088
2921	0.6656
2912	0.6734
2903	0.6539
2894	0.6157
2885	0.5426
2876	0.4926
2867	0.6925
2858	0.868
2849	0.908
2840	0.9168
2831	0.9224
2822	0.9253
2813	0.9278
2804	0.9293
2795	0.9307
2786	0.9304
2777	0.9299
2768	0.9294
2759	0.9289
2750	0.9284
2741	0.928
2732	0.9285
2723	0.9292
2714	0.9298
2705	0.9305
2696	0.9315
2687	0.9325
2678	0.9336
2669	0.9346
2660	0.9357
2651	0.9362
2642	0.9367
2633	0.9371
2624	0.9377
2615	0.9381
2606	0.9385
2597	0.9388
2588	0.9392
2579	0.9395
2570	0.9399
2561	0.9399
2552	0.9399
2543	0.9398
2534	0.9398
2525	0.9395
2516	0.939
2507	0.9385
2498	0.9381
2489	0.9377
2480	0.9375
2471	0.9371
2462	0.9368
2453	0.9363
2444	0.936
2435	0.9353
2426	0.9346
2417	0.9338
2408	0.9333
2399	0.9328
2390	0.933
2381	0.9335
2372	0.9337
2363	0.9336
2354	0.9335
2345	0.9332
2336	0.9331
2327	0.9328
2318	0.9328
2309	0.9325
2300	0.9321
2291	0.9315
2282	0.9311
2273	0.9306
2264	0.9305
2255	0.9304
2246	0.9303
2237	0.9301
2228	0.9299
2219	0.9297
2210	0.9296
2201	0.9295
2192	0.9294
2183	0.9293
2174	0.9292
2165	0.9295
2156	0.9299
2147	0.9296
2138	0.9293
2129	0.929
2120	0.9281
2111	0.927
2102	0.9263
2093	0.9257
2084	0.9252
2075	0.9245
2066	0.9234
2057	0.9218
2048	0.9198
2039	0.9171
2030	0.915
2021	0.9141
2012	0.9133
2003	0.9125
1994	0.9111
1985	0.9098
1976	0.9087
1967	0.9078
1958	0.9074
1949	0.9071
1940	0.907
1931	0.9066
1922	0.9062
1913	0.9052
1904	0.904
1895	0.903
1886	0.9028
1877	0.9024
1868	0.9004
1859	0.8949
1850	0.893
1841	0.8939
1832	0.893
1823	0.8902
1814	0.8887
1805	0.8884
1796	0.887
1787	0.8765
1778	0.8477
1769	0.7887
1760	0.6231
1751	0.5107
1742	0.0241
1733	0.2843
1724	0.6793
1715	0.7945
1706	0.8325
1697	0.8425
1688	0.8773
1679	0.8918
1670	0.8918
1661	0.8841
1652	0.886
1643	0.8914
1634	0.8934
1625	0.8915
1616	0.8884
1607	0.8848
1598	0.8832
1589	0.8832
1580	0.8843
1571	0.8851
1562	0.8856
1553	0.8777
1544	0.8657
1535	0.8728
1526	0.8768
1517	0.8756
1508	0.877
1499	0.8717
1490	0.8462
1481	0.7336
1472	0.7568
1463	0.5837
1454	0.5717
1445	0.6633
1436	0.7808
1427	0.8421
1418	0.872
1409	0.8833
1400	0.8868
1391	0.8851
1382	0.7968
1373	0.7265
1364	0.8639
1355	0.7621
1346	0.8716
1337	0.8721
1328	0.8247
1319	0.8752
1310	0.8343
1301	0.8702
1292	0.8667
1283	0.5793
1274	0.8437
1265	0.8304
1256	0.8228
1247	0.8367
1238	0.7971
1229	0.7508
1220	0.809
1211	0.824
1202	0.7851
1193	0.8381
1184	0.8554
1175	0.8618
1166	0.8194
1157	0.8287
1148	0.7862
1139	0.8488
1130	0.8621
1121	0.8474
1112	0.7933
1103	0.7901
1094	0.5903
1085	0.8344
1076	0.8521
1067	0.8388
1058	0.7911
1049	0.8406
1040	0.8263
1031	0.769
1022	0.4298
1013	0.3169
1004	0.5524
995	0.7128
986	0.6374
977	0.8112
968	0.8464
959	0.8392
950	0.6218
941	0.7683
932	0.6644
923	0.5123
914	0.8311
905	0.8623
896	0.8661
887	0.8471
878	0.8253
869	0.8518
860	0.849
851	0.8518
842	0.8562
833	0.8171
824	0.6572
815	0.7162
806	0.8267
797	0.8534
788	0.8589
779	0.8568
770	0.8413
761	0.8609
752	0.8615
743	0.8603
734	0.8556
725	0.8475
716	0.8252
707	0.8125
698	0.8296
689	0.8295
680	0.8301
671	0.8199
662	0.8024
653	0.7435
644	0.7934
635	0.8017
626	0.8058
617	0.8072
608	0.8078
599	0.8056
590	0.8038
581	0.8091
572	0.8139
563	0.8161
554	0.8137
545	0.8091
536	0.801
527	0.7762
518	0.6853
509	0.6921
500	0.7247
