Infrared Spectrum: TETRAHYDRONAPHTHALENE
Formula: C10 H12
CAS: 119-64-2
State: SOLUTION (10% IN CCl4 FOR 3800-1300, 10% IN CS2 FOR 1300-650, AND 10% CCl4 FOR 650-240 CM^-^1) VERSUS SOLVENT
Class: COBLENTZ
Instrument: Not specified, most likely a grating or hybrid spectrometer.
Sampling: TRANSMISSION
Path length: 0.011, 0.010, AND 0.010 CM (CsBr CELL)
Resolution: 4
Origin: DOW CORNING CORP.
1/CM	TRANSMITTANCE
235.77	0.816
244.713	0.814
253.655	0.814
262.598	0.818
271.54	0.826
280.483	0.833
289.425	0.838
298.368	0.84
307.31	0.844
316.253	0.856
325.195	0.864
334.138	0.873
343.08	0.876
352.023	0.882
360.965	0.887
369.908	0.89
378.85	0.894
387.793	0.901
396.735	0.911
405.678	0.901
414.62	0.889
423.563	0.87
432.505	0.779
441.448	0.714
450.39	0.8709
459.333	0.901
468.275	0.918
477.218	0.899
486.16	0.918
495.103	0.937
504.045	0.934
512.988	0.932
521.93	0.928
530.873	0.932
539.815	0.923
548.758	0.908
557.7	0.901
566.643	0.92
575.585	0.918
584.528	0.911
593.471	0.922
602.413	0.937
611.356	0.93
620.298	0.939
629.241	0.97
638.183	0.97
647.126	0.967
656.068	0.948
665.011	0.972
673.953	0.982
682.896	0.979
691.838	0.979
700.781	0.974
709.723	0.98
718.666	0.961
727.608	0.8731
736.551	0.6911
745.493	0.1245
754.436	0.3025
763.378	0.6511
772.321	0.819
781.263	0.92
790.206	0.942
799.148	0.951
808.091	0.7345
817.033	0.911
825.976	0.937
834.918	0.946
843.861	0.949
852.803	0.941
861.746	0.902
870.688	0.8959
879.631	0.954
888.573	0.948
897.516	0.916
906.458	0.922
915.401	0.941
924.343	0.951
933.286	0.932
942.228	0.85
951.171	0.811
960.114	0.883
969.056	0.911
977.999	0.93
986.941	0.8562
995.884	0.913
1004.83	0.909
1013.77	0.944
1022.71	0.927
1031.65	0.892
1040.6	0.764
1049.54	0.946
1058.48	0.918
1067.42	0.826
1076.37	0.8919
1085.31	0.946
1094.25	0.96
1103.19	0.953
1112.14	0.8191
1121.08	0.935
1130.02	0.923
1138.96	0.9249
1147.91	0.92
1156.85	0.882
1165.79	0.915
1174.73	0.925
1183.68	0.92
1192.62	0.916
1201.56	0.918
1210.5	0.923
1219.45	0.923
1228.39	0.887
1237.33	0.854
1246.27	0.824
1255.22	0.8968
1264.16	0.909
1273.1	0.87
1282.04	0.7603
1290.99	0.764
1299.93	0.764
1308.87	0.762
1317.81	0.771
1326.76	0.741
1335.7	0.753
1344.64	0.759
1353.58	0.734
1362.53	0.816
1371.47	0.824
1380.41	0.835
1389.35	0.842
1398.3	0.842
1407.24	0.831
1416.18	0.824
1425.12	0.812
1434.07	0.6701
1443.01	0.339
1451.95	0.3631
1460.89	0.3196
1469.84	0.746
1478.78	0.729
1487.72	0.7
1496.66	0.1034
1505.61	0.833
1514.55	0.873
1523.49	0.883
1532.43	0.889
1541.38	0.892
1550.32	0.89
1559.26	0.885
1568.2	0.871
1577.15	0.816
1586.09	0.7879
1595.03	0.816
1603.97	0.731
1612.92	0.8139
1621.86	0.866
1630.8	0.875
1639.74	0.873
1648.69	0.875
1657.63	0.871
1666.57	0.861
1675.51	0.819
1684.46	0.743
1693.4	0.689
1702.34	0.8039
1711.28	0.861
1720.23	0.868
1729.17	0.87
1738.11	0.875
1747.05	0.88
1756	0.88
1764.94	0.878
1773.88	0.88
1782.82	0.878
1791.77	0.876
1800.71	0.873
1809.65	0.837
1818.59	0.864
1827.54	0.876
1836.48	0.859
1845.42	0.871
1854.36	0.885
1863.31	0.883
1872.25	0.875
1881.19	0.878
1890.13	0.878
1899.08	0.88
1908.02	0.88
1916.96	0.83
1925.9	0.861
1934.85	0.873
1943.79	0.85
1952.73	0.868
1961.67	0.885
1970.62	0.896
1979.56	0.892
1988.5	0.899
1997.44	0.902
2006.39	0.901
2015.33	0.899
2024.27	0.8965
2033.22	0.896
2042.16	0.894
2051.1	0.894
2060.04	0.896
2068.99	0.896
2077.93	0.896
2086.87	0.896
2095.81	0.894
2104.76	0.894
2113.7	0.894
2122.64	0.894
2131.58	0.894
2140.53	0.894
2149.47	0.894
2158.41	0.892
2167.35	0.892
2176.3	0.89
2185.24	0.89
2194.18	0.8891
2203.12	0.889
2212.07	0.8871
2221.01	0.887
2229.95	0.885
2238.89	0.883
2247.84	0.885
2256.78	0.8859
2265.72	0.885
2274.66	0.8858
2283.61	0.8899
2292.55	0.8896
2301.49	0.887
2310.43	0.887
2319.38	0.8868
2328.32	0.8878
2337.26	0.8899
2346.2	0.89
2355.15	0.89
2364.09	0.889
2373.03	0.887
2381.97	0.885
2390.92	0.885
2399.86	0.883
2408.8	0.883
2417.74	0.885
2426.69	0.8867
2435.63	0.887
2444.57	0.887
2453.51	0.8863
2462.46	0.883
2471.4	0.8843
2480.34	0.883
2489.28	0.883
2498.23	0.883
2507.17	0.883
2516.11	0.883
2525.05	0.885
2534	0.885
2542.94	0.8863
2551.88	0.885
2560.82	0.8813
2569.77	0.8783
2578.71	0.8773
2587.65	0.8752
2596.59	0.8767
2605.54	0.878
2614.48	0.8773
2623.42	0.876
2632.36	0.875
2641.31	0.8734
2650.25	0.8681
2659.19	0.8439
2668.13	0.8429
2677.08	0.8532
2686.02	0.8672
2694.96	0.8754
2703.9	0.8806
2712.85	0.882
2721.79	0.882
2730.73	0.88
2739.67	0.878
2748.62	0.876
2757.56	0.8724
2766.5	0.8653
2775.44	0.8492
2784.39	0.8355
2793.33	0.8202
2802.27	0.7989
2811.21	0.7875
2820.16	0.7799
2829.1	0.706
2838.04	0.4858
2846.98	0.2878
2855.93	0.428
2864.87	0.218
2873.81	0.3909
2882.75	0.3448
2891.7	0.3334
2900.64	0.3265
2909.58	0.2688
2918.52	0.1498
2927.47	0.0343
2936.41	0.0297
2945.35	0.0642
2954.29	0.1532
2963.24	0.4394
2972.18	0.6365
2981.12	0.7248
2990.06	0.7441
2999.01	0.6997
3007.95	0.6458
3016.89	0.4717
3025.83	0.4975
3034.78	0.6145
3043.72	0.642
3052.66	0.667
3061.6	0.5536
3070.55	0.6056
3079.49	0.6319
3088.43	0.7912
3097.37	0.804
3106.32	0.8461
3115.26	0.8776
3124.2	0.89
3133.14	0.892
3142.09	0.8913
3151.03	0.8846
3159.97	0.8904
3168.91	0.8943
3177.86	0.896
3186.8	0.8957
3195.74	0.8953
3204.68	0.8957
3213.63	0.8927
3222.57	0.892
3231.51	0.89
3240.45	0.889
3249.4	0.8857
3258.34	0.8847
3267.28	0.882
3276.22	0.8777
3285.17	0.875
3294.11	0.873
3303.05	0.8687
3311.99	0.864
3320.94	0.8598
3329.88	0.857
3338.82	0.8564
3347.76	0.854
3356.71	0.854
3365.65	0.854
3374.59	0.856
3383.53	0.854
3392.48	0.854
3401.42	0.856
3410.36	0.857
3419.3	0.861
3428.25	0.861
3437.19	0.861
3446.13	0.861
3455.07	0.861
3464.02	0.859
3472.96	0.857
3481.9	0.856
3490.84	0.859
3499.79	0.861
3508.73	0.8558
3517.67	0.8517
3526.61	0.8469
3535.56	0.8363
3544.5	0.8281
3553.44	0.8441
3562.38	0.8764
3571.33	0.885
3580.27	0.8829
3589.21	0.878
3598.15	0.875
3607.1	0.875
3616.04	0.8874
3624.98	0.906
3633.92	0.9091
3642.87	0.9119
3651.81	0.909
3660.75	0.9119
3669.69	0.913
3678.64	0.9141
3687.58	0.915
3696.52	0.916
3705.46	0.916
3714.41	0.917
3723.35	0.92
3732.29	0.923
3741.23	0.9199
3750.18	0.915
3759.12	0.916
3768.06	0.915
3777	0.915
3785.95	0.913
3794.89	0.913
