Infrared Spectrum: Benzophenone
Formula: C 13 H 10 O
CAS: 119-61-9
State: solid
Instrument: Bruker Tensor 37 FTIR
Resolution: 0.96450084
Origin: Pacific Northwest National Laboratory Under IARPA Contract
1/cm	Reflectance
7498.99	0.694065
7481.63	0.668211
7464.27	0.66318
7446.91	0.684845
7429.55	0.673999
7412.19	0.639502
7394.84	0.635664
7377.48	0.641737
7360.12	0.657866
7342.76	0.631501
7325.4	0.608323
7308.04	0.607606
7290.68	0.616902
7273.32	0.623904
7255.96	0.604117
7238.6	0.603182
7221.24	0.607541
7203.88	0.626578
7186.52	0.644331
7169.16	0.635313
7151.8	0.65515
7134.44	0.663745
7117.08	0.668111
7099.72	0.654486
7082.36	0.67161
7065	0.670238
7047.64	0.691215
7030.28	0.700167
7012.92	0.708267
6995.56	0.712338
6978.2	0.709314
6960.84	0.698618
6943.48	0.692095
6926.12	0.677558
6908.76	0.671539
6891.4	0.632072
6874.04	0.602983
6856.68	0.564432
6839.32	0.484019
6821.96	0.33619
6804.6	0.320205
6787.24	0.326798
6769.88	0.243436
6752.52	0.112719
6735.16	0.115163
6717.8	0.142836
6700.44	0.221431
6683.08	0.251738
6665.72	0.341763
6648.36	0.369733
6631	0.421217
6613.64	0.380787
6596.28	0.384019
6578.92	0.339069
6561.56	0.447246
6544.2	0.412942
6526.85	0.434945
6509.49	0.424312
6492.13	0.444569
6474.77	0.452878
6457.41	0.475208
6440.05	0.437533
6422.69	0.460822
6405.33	0.468307
6387.97	0.484939
6370.61	0.482657
6353.25	0.466585
6335.89	0.487557
6318.53	0.478439
6301.17	0.486309
6283.81	0.46778
6266.45	0.454681
6249.09	0.43204
6231.73	0.429783
6214.37	0.399759
6197.01	0.3555
6179.65	0.315333
6162.29	0.350501
6144.93	0.333574
6127.57	0.262899
6110.21	0.197049
6092.85	0.145932
6075.49	0.0844737
6058.13	0.0940573
6040.77	0.159842
6023.41	0.162169
6006.05	0.158567
5988.69	0.272173
5971.33	0.229612
5953.97	0.197565
5936.61	0.159014
5919.25	0.134195
5901.89	0.19513
5884.53	0.167795
5867.17	0.151186
5849.81	0.114367
5832.45	0.133738
5815.09	0.10858
5797.73	0.0968234
5780.37	0.060342
5763.01	0.0946346
5745.65	0.0921352
5728.29	0.141272
5710.93	0.13958
5693.57	0.148174
5676.21	0.160154
5658.86	0.152364
5641.5	0.119939
5624.14	0.139377
5606.78	0.0934651
5589.42	0.152943
5572.06	0.0918063
5554.7	0.183421
5537.34	0.230528
5519.98	0.203371
5502.62	0.14059
5485.26	0.127886
5467.9	0.14876
5450.54	0.19521
5433.18	0.178794
5415.82	0.155519
5398.46	0.0764395
5381.1	0.0970262
5363.74	0.0731189
5346.38	0.0684352
5329.02	0.0628218
5311.66	0.0569546
5294.3	0.04514
5276.94	0.0438019
5259.58	0.0511941
5242.22	0.0617775
5224.86	0.0829579
5207.5	0.0848302
5190.14	0.0724001
5172.78	0.099963
5155.42	0.115258
5138.06	0.0987411
5120.7	0.072385
5103.34	0.155032
5085.98	0.122463
5068.62	0.0810987
5051.26	0.0793901
5033.9	0.0911924
5016.54	0.128173
4999.18	0.124976
4981.82	0.0980675
4964.46	0.0696983
4947.1	0.123252
4929.74	0.102171
4912.38	0.075764
4895.02	0.100136
4877.66	0.0830835
4860.3	0.114514
4842.94	0.141398
4825.58	0.147452
4808.22	0.18232
4790.86	0.121103
4773.51	0.114836
4756.15	0.0766546
4738.79	0.0525796
4721.43	0.0621836
4704.07	0.0534621
4686.71	0.0752474
4669.35	0.0570658
4651.99	0.0486799
4634.63	0.0624978
4617.27	0.0532036
4599.91	0.045922
4582.55	0.0315022
4565.19	0.0434306
4547.83	0.0408039
4530.47	0.0438606
4513.11	0.0533991
4495.75	0.0475078
4478.39	0.0412753
4461.03	0.0508087
4443.67	0.0465311
4426.31	0.0438307
4408.95	0.0397795
4391.59	0.0473053
4374.23	0.046502
4356.87	0.0493228
4339.51	0.0394184
4322.15	0.0443031
4304.79	0.0567182
4287.43	0.0383512
4270.07	0.0614624
4252.71	0.0408467
4235.35	0.0437085
4217.99	0.0387642
4200.63	0.0503075
4183.27	0.0411719
4165.91	0.0627601
4148.55	0.057834
4131.19	0.0450088
4113.83	0.0348402
4096.47	0.0693646
4079.11	0.0513892
4061.75	0.0730583
4044.39	0.690162
4027.03	0.648055
4009.67	0.665173
3992.31	0.679525
3974.95	0.65997
3957.59	0.639392
3940.23	0.630446
3922.87	0.647551
3905.52	0.661211
3888.16	0.624075
3870.8	0.605835
3853.44	0.606943
3836.08	0.620239
3818.72	0.612403
3801.36	0.600636
3784	0.600655
3766.64	0.605233
3749.28	0.634835
3731.92	0.633663
3714.56	0.632258
3697.2	0.654207
3679.84	0.657259
3662.48	0.659472
3645.12	0.656286
3627.76	0.669298
3610.4	0.676268
3593.04	0.695832
3575.68	0.700766
3558.32	0.707369
3540.96	0.704222
3523.6	0.69852
3506.24	0.694746
3488.88	0.688349
3471.52	0.675206
3454.16	0.654929
3436.8	0.623428
3419.44	0.592927
3402.08	0.533274
3384.72	0.406278
3367.36	0.314057
3350	0.298519
3332.64	0.308673
3315.28	0.173615
3297.92	0.110392
3280.56	0.129332
3263.2	0.154239
3245.84	0.242659
3228.48	0.266303
3211.12	0.332541
3193.76	0.346307
3176.4	0.410268
3159.04	0.350419
3141.68	0.35334
3124.32	0.374373
3106.96	0.434156
3089.6	0.391096
3072.24	0.415578
3054.88	0.424827
3037.53	0.441418
3020.17	0.460988
3002.81	0.445831
2985.45	0.41941
2968.09	0.464059
2950.73	0.461458
2933.37	0.477972
2916.01	0.457369
2898.65	0.457261
2881.29	0.481603
2863.93	0.463416
2846.57	0.471668
2829.21	0.442868
2811.85	0.433467
2794.49	0.427642
2777.13	0.418006
2759.77	0.354001
2742.41	0.349014
2725.05	0.320571
2707.69	0.337214
2690.33	0.310349
2672.97	0.226951
2655.61	0.1826
2638.25	0.109973
2620.89	0.108681
2603.53	0.110031
2586.17	0.134506
2568.81	0.176569
2551.45	0.174485
2534.09	0.245306
2516.73	0.218321
2499.37	0.171729
2482.01	0.157249
2464.65	0.16792
2447.29	0.201554
2429.93	0.152842
2412.57	0.11834
2395.21	0.130346
2377.85	0.127685
2360.49	0.111046
2343.13	0.0774588
2325.77	0.0576362
2308.41	0.103367
2291.05	0.107212
2273.69	0.137373
2256.33	0.136309
2238.97	0.137752
2221.61	0.158349
2204.25	0.144293
2186.89	0.106678
2169.53	0.145817
2152.18	0.0937697
2134.82	0.137589
2117.46	0.134712
2100.1	0.207754
2082.74	0.224343
2065.38	0.179826
2048.02	0.132703
2030.66	0.135269
2013.3	0.166996
1995.94	0.187949
1978.58	0.160546
1961.22	0.146061
1943.86	0.0549898
1926.5	0.087008
1909.14	0.0788365
1891.78	0.0687576
1874.42	0.0611218
1857.06	0.0547461
1839.7	0.0477377
1822.34	0.0470273
1804.98	0.0502891
1787.62	0.0634961
1770.26	0.0828679
1752.9	0.0806738
1735.54	0.0694764
1718.18	0.121518
1700.82	0.101011
1683.46	0.0807229
1666.1	0.0856922
1648.74	0.161515
1631.38	0.121555
1614.02	0.0756558
1596.66	0.0718928
1579.3	0.106604
1561.94	0.100979
1544.58	0.117955
1527.22	0.110962
1509.86	0.0712058
1492.5	0.134922
1475.14	0.0666439
1457.78	0.0992741
1440.42	0.109131
1423.06	0.110402
1405.7	0.0989212
1388.34	0.141655
1370.98	0.169334
1353.62	0.158906
1336.26	0.116874
1318.9	0.0948545
1301.54	0.0561693
1284.19	0.0638457
1266.83	0.0561122
1249.47	0.0669182
1232.11	0.0659019
1214.75	0.0632872
1197.39	0.05808
1180.03	0.0559718
1162.67	0.0479367
1145.31	0.0427137
1127.95	0.0899536
1110.59	0.0427551
1093.23	0.0439441
1075.87	0.0476468
1058.51	0.0510218
1041.15	0.068645
1023.79	0.0421613
1006.43	0.0455066
989.068	0.0549292
971.709	0.0401132
954.349	0.0407456
936.989	0.0583122
919.629	0.0503594
902.269	0.0476055
884.91	0.0473432
867.55	0.0509758
850.19	0.0527471
832.83	0.0566182
815.47	0.0415414
798.111	0.0447927
780.751	0.0507836
763.391	0.039117
746.031	0.0604578
728.671	0.0615096
711.312	0.0565085
693.952	0.0558537
676.592	0.0501336
659.232	0.032443
641.872	0.0550685
624.513	0.0548789
607.153	0.0667734
