Infrared Spectrum: NAPHTHALENE, 1,2,3,4-TETRAHYDRO-
Formula: C10 H12
CAS: 119-64-2
State: LIQUID (NEAT)
Class: COBLENTZ III
Instrument: PERKIN-ELMER 521 (GRATING)
Sampling: TRANSMISSION
Path length: 0.0025 CM
Resolution: 4
Origin: STANDARD OIL OF OHIO
1/CM	TRANSMITTANCE
597.831	0.737
606.265	0.742
614.699	0.745
623.132	0.762
631.566	0.781
640	0.794
648.434	0.82
656.867	0.835
665.301	0.854
673.735	0.855
682.169	0.849
690.602	0.842
699.036	0.833
707.47	0.794
715.904	0.638
724.337	0.286
732.771	0.044
741.205	0.057
749.639	0.552
758.072	0.735
766.506	0.827
774.94	0.833
783.374	0.884
791.807	0.644
800.241	0.538
808.675	0.659
817.109	0.837
825.542	0.894
833.976	0.905
842.41	0.898
850.844	0.838
859.277	0.723
867.711	0.888
876.145	0.901
884.579	0.877
893.012	0.732
901.446	0.889
909.88	0.905
918.314	0.891
926.747	0.816
935.181	0.62
943.615	0.733
952.049	0.886
960.482	0.888
968.916	0.879
977.35	0.788
985.784	0.872
994.217	0.886
1002.65	0.901
1011.08	0.918
1019.52	0.903
1027.95	0.74
1036.39	0.866
1044.82	0.91
1053.25	0.883
1061.69	0.703
1070.12	0.864
1078.55	0.896
1086.99	0.901
1095.42	0.879
1103.86	0.613
1112.29	0.852
1120.72	0.854
1129.16	0.788
1137.59	0.867
1146.02	0.823
1154.46	0.84
1162.89	0.876
1171.33	0.886
1179.76	0.872
1188.19	0.891
1196.63	0.891
1205.06	0.888
1213.49	0.903
1221.93	0.861
1230.36	0.759
1238.8	0.698
1247.23	0.771
1255.66	0.876
1264.1	0.859
1272.53	0.71
1280.96	0.688
1289.4	0.689
1297.83	0.815
1306.27	0.872
1314.7	0.862
1323.13	0.793
1331.57	0.764
1340	0.806
1348.43	0.725
1356.87	0.852
1365.3	0.872
1373.74	0.889
1382.17	0.883
1390.6	0.867
1399.04	0.849
1407.47	0.83
1415.9	0.589
1424.34	0.3
1432.77	0.291
1441.21	0.174
1449.64	0.361
1458.07	0.615
1466.51	0.661
1474.94	0.645
1483.37	0.311
1491.81	0.661
1500.24	0.869
1508.68	0.894
1517.11	0.911
1525.54	0.906
1533.98	0.92
1542.41	0.915
1550.84	0.901
1559.28	0.879
1567.71	0.796
1576.15	0.706
1584.58	0.855
1593.01	0.759
1601.45	0.815
1609.88	0.876
1618.31	0.913
1626.75	0.922
1635.18	0.92
1643.62	0.927
1652.05	0.933
1660.48	0.928
1668.92	0.92
1677.35	0.874
1685.78	0.888
1694.22	0.925
1702.65	0.935
1711.09	0.935
1719.52	0.93
1727.95	0.927
1736.39	0.937
1744.82	0.935
1753.25	0.92
1761.69	0.925
1770.12	0.928
1778.56	0.923
1786.99	0.922
1795.42	0.891
1803.86	0.823
1812.29	0.896
1820.72	0.908
1829.16	0.879
1837.59	0.91
1846.03	0.933
1854.46	0.935
1862.89	0.93
1871.33	0.925
1879.76	0.918
1888.19	0.918
1896.63	0.923
1905.06	0.844
1913.5	0.827
1921.93	0.903
1930.36	0.876
1938.8	0.866
1947.23	0.903
1955.66	0.938
1964.1	0.945
1972.53	0.949
1980.97	0.957
1989.4	0.945
1997.83	0.952
2006.27	0.952
2014.7	0.957
2023.13	0.955
2031.57	0.955
2040	0.952
2048.44	0.954
2056.87	0.954
2065.3	0.959
2073.74	0.961
2082.17	0.962
2090.6	0.961
2099.04	0.957
2107.47	0.961
2115.91	0.962
2124.34	0.959
2132.77	0.955
2141.21	0.955
2149.64	0.952
2158.07	0.955
2166.51	0.955
2174.94	0.955
2183.38	0.961
2191.81	0.952
2200.24	0.952
2208.68	0.955
2217.11	0.952
2225.54	0.949
2233.98	0.945
2242.41	0.952
2250.85	0.95
2259.28	0.944
2267.71	0.945
2276.15	0.954
2284.58	0.954
2293.01	0.952
2301.45	0.95
2309.88	0.933
2318.32	0.928
2326.75	0.945
2335.18	0.95
2343.62	0.955
2352.05	0.955
2360.48	0.955
2368.92	0.954
2377.35	0.95
2385.79	0.95
2394.22	0.947
2402.65	0.945
2411.09	0.952
2419.52	0.954
2427.95	0.949
2436.39	0.952
2444.82	0.949
2453.26	0.952
2461.69	0.952
2470.12	0.95
2478.56	0.954
2486.99	0.952
2495.42	0.949
2503.86	0.949
2512.29	0.94
2520.73	0.952
2529.16	0.95
2537.59	0.957
2546.03	0.957
2554.46	0.95
2562.89	0.942
2571.33	0.944
2579.76	0.922
2588.2	0.923
2596.63	0.94
2605.06	0.942
2613.5	0.935
2621.93	0.928
2630.36	0.922
2638.8	0.933
2647.23	0.91
2655.67	0.845
2664.1	0.847
2672.53	0.866
2680.97	0.891
2689.4	0.911
2697.83	0.93
2706.27	0.938
2714.7	0.945
2723.14	0.944
2731.57	0.938
2740	0.932
2748.44	0.93
2756.87	0.913
2765.3	0.886
2773.74	0.862
2782.17	0.844
2790.61	0.798
2799.04	0.772
2807.47	0.73
2815.91	0.73
2824.34	0.555
2832.77	0.255
2841.21	0.106
2849.64	0.203
2858.08	0.077
2866.51	0.211
2874.94	0.215
2883.38	0.138
2891.81	0.176
2900.24	0.142
2908.68	0.069
2917.11	0.042
2925.55	0.04
2933.98	0.042
2942.41	0.047
2950.85	0.127
2959.28	0.316
2967.71	0.544
2976.15	0.679
2984.58	0.694
2993.02	0.623
3001.45	0.498
3009.88	0.408
3018.32	0.2
3026.75	0.381
3035.18	0.508
3043.62	0.503
3052.05	0.488
3060.49	0.35
3068.92	0.522
3077.35	0.511
3085.79	0.794
3094.22	0.815
3102.65	0.818
3111.09	0.92
3119.52	0.935
3127.96	0.942
3136.39	0.947
3144.82	0.944
3153.26	0.933
3161.69	0.947
3170.12	0.957
3178.56	0.959
3186.99	0.961
3195.43	0.957
3203.86	0.959
3212.29	0.959
3220.73	0.961
3229.16	0.961
3237.59	0.961
3246.03	0.964
3254.46	0.964
3262.9	0.967
3271.33	0.969
3279.76	0.967
3288.2	0.969
3296.63	0.971
3305.06	0.967
3313.5	0.966
3321.93	0.967
3330.37	0.967
3338.8	0.966
3347.23	0.964
3355.67	0.961
3364.1	0.961
3372.53	0.964
3380.97	0.964
3389.4	0.962
3397.84	0.966
3406.27	0.969
3414.7	0.969
3423.14	0.966
3431.57	0.967
3440	0.966
3448.44	0.962
3456.87	0.959
3465.31	0.95
3473.74	0.945
3482.17	0.942
3490.61	0.938
3499.04	0.945
3507.47	0.955
3515.91	0.964
3524.34	0.967
3532.78	0.971
3541.21	0.971
3549.64	0.976
3558.08	0.977
3566.51	0.977
3574.94	0.979
3583.38	0.979
3591.81	0.976
3600.25	0.974
3608.68	0.977
3617.11	0.983
3625.55	0.981
3633.98	0.979
3642.41	0.976
3650.85	0.981
3659.28	0.984
3667.72	0.984
3676.15	0.983
3684.58	0.983
3693.02	0.984
3701.45	0.977
3709.88	0.972
3718.32	0.972
3726.75	0.972
3735.19	0.972
3743.62	0.974
3752.05	0.977
3760.49	0.974
3768.92	0.972
3777.35	0.967
3785.79	0.967
3794.22	0.964
3802.66	0.961
3811.09	0.962
3819.52	0.964
3827.96	0.961
3836.39	0.969
3844.82	0.962
3853.26	0.954
3861.69	0.954
3870.13	0.962
3878.56	0.971
3886.99	0.977
3895.43	0.976
3903.86	0.972
3912.29	0.969
3920.73	0.969
3929.16	0.971
3937.6	0.971
3946.03	0.971
