Infrared Spectrum: CYCLOPENTANE, 1,2-DIMETHYL-CIS
Formula: C7 H14
CAS: 1192-18-3
State: SOLUTION (10% IN CCl4 FOR 3800-1330, 10% IN CS2 FOR 1330-400 CM^-^1)
Class: COBLENTZ III
Instrument: BECKMAN IR-9 (GRATING)
Instrument parameters: ORDER CHANGES AT 670, 1200, 2000 CM^-^1
Sampling: TRANSMISSION
Path length: 0.011, 0.011 CM
Resolution: 4
Origin: DOW CHEMICAL COMPANY
1/CM	TRANSMITTANCE
404.609	0.312
413.36	0.323
422.112	0.498
430.863	0.668
439.615	0.726
448.366	0.787
457.118	0.853
465.869	0.895
474.621	0.93
483.372	0.952
492.124	0.965
500.875	0.982
509.627	1.005
518.378	1.016
527.13	1.021
535.881	1.023
544.633	1.023
553.384	1.019
562.136	1.016
570.887	1.015
579.638	1.013
588.39	1.013
597.141	1.017
605.893	1.023
614.644	1.023
623.396	1.02
632.147	1.009
640.899	0.994
649.65	0.975
658.402	0.979
667.153	1.004
675.905	1.02
684.656	1.034
693.408	1.042
702.159	1.043
710.911	1.039
719.662	1.041
728.413	1.042
737.165	1.042
745.916	1.043
754.668	1.034
763.419	1.013
772.171	1.013
780.922	1.016
789.674	1.004
798.425	1.015
807.177	1.023
815.928	1.024
824.68	1.024
833.431	1.013
842.183	0.989
850.934	0.965
859.686	0.926
868.437	0.92
877.189	0.943
885.94	0.976
894.691	0.997
903.443	1.012
912.194	1.019
920.946	1.024
929.697	1.024
938.449	0.995
947.2	0.894
955.952	0.893
964.703	0.978
973.455	0.997
982.206	0.991
990.958	1
999.709	0.994
1008.46	0.96
1017.21	0.894
1025.96	0.916
1034.72	0.905
1043.47	0.9
1052.22	0.957
1060.97	0.969
1069.72	0.958
1078.47	0.894
1087.22	0.935
1095.98	0.967
1104.73	0.956
1113.48	0.968
1122.23	0.993
1130.98	1.001
1139.73	1.005
1148.48	0.998
1157.24	0.963
1165.99	0.963
1174.74	0.976
1183.49	0.956
1192.24	0.931
1200.99	0.943
1209.74	0.953
1218.5	0.947
1227.25	0.949
1236	0.963
1244.75	0.967
1253.5	0.961
1262.25	0.945
1271	0.942
1279.76	0.941
1288.51	0.931
1297.26	0.913
1306.01	0.902
1314.76	0.904
1323.51	0.916
1332.27	0.894
1341.02	0.768
1349.77	0.824
1358.52	0.873
1367.27	0.795
1376.02	0.275
1384.77	0.745
1393.53	0.854
1402.28	0.878
1411.03	0.879
1419.78	0.865
1428.53	0.828
1437.28	0.721
1446.03	0.475
1454.79	0.282
1463.54	0.247
1472.29	0.415
1481.04	0.69
1489.79	0.775
1498.54	0.809
1507.29	0.838
1516.05	0.857
1524.8	0.869
1533.55	0.88
1542.3	0.89
1551.05	0.897
1559.8	0.905
1568.55	0.913
1577.31	0.917
1586.06	0.921
1594.81	0.927
1603.56	0.931
1612.31	0.934
1621.06	0.936
1629.82	0.939
1638.57	0.942
1647.32	0.945
1656.07	0.946
1664.82	0.949
1673.57	0.947
1682.32	0.947
1691.08	0.952
1699.83	0.953
1708.58	0.956
1717.33	0.958
1726.08	0.963
1734.83	0.963
1743.58	0.963
1752.34	0.963
1761.09	0.963
1769.84	0.961
1778.59	0.963
1787.34	0.963
1796.09	0.958
1804.84	0.958
1813.6	0.958
1822.35	0.956
1831.1	0.953
1839.85	0.952
1848.6	0.952
1857.35	0.952
1866.1	0.95
1874.86	0.954
1883.61	0.957
1892.36	0.957
1901.11	0.96
1909.86	0.961
1918.61	0.961
1927.37	0.96
1936.12	0.958
1944.87	0.958
1953.62	0.957
1962.37	0.957
1971.12	0.956
1979.87	0.956
1988.63	0.953
1997.38	0.946
2006.13	0.949
2014.88	0.949
2023.63	0.949
2032.38	0.95
2041.13	0.95
2049.89	0.95
2058.64	0.95
2067.39	0.9509
2076.14	0.953
2084.89	0.954
2093.64	0.954
2102.39	0.9536
2111.15	0.952
2119.9	0.952
2128.65	0.95
2137.4	0.949
2146.15	0.949
2154.9	0.947
2163.65	0.9466
2172.41	0.945
2181.16	0.945
2189.91	0.945
2198.66	0.945
2207.41	0.945
2216.16	0.945
2224.92	0.945
2233.67	0.943
2242.42	0.9437
2251.17	0.943
2259.92	0.9416
2268.67	0.9386
2277.42	0.934
2286.18	0.9289
2294.93	0.923
2303.68	0.923
2312.43	0.924
2321.18	0.9223
2329.93	0.9207
2338.68	0.9193
2347.44	0.923
2356.19	0.926
2364.94	0.927
2373.69	0.932
2382.44	0.9359
2391.19	0.9404
2399.94	0.938
2408.7	0.938
2417.45	0.9357
2426.2	0.9353
2434.95	0.939
2443.7	0.942
2452.45	0.9427
2461.21	0.942
2469.96	0.9417
2478.71	0.941
2487.46	0.939
2496.21	0.939
2504.96	0.938
2513.71	0.9388
2522.47	0.938
2531.22	0.936
2539.97	0.936
2548.72	0.9358
2557.47	0.9336
2566.22	0.924
2574.97	0.921
2583.73	0.915
2592.48	0.908
2601.23	0.9048
2609.98	0.9036
2618.73	0.9
2627.48	0.9
2636.23	0.901
2644.99	0.9
2653.74	0.8978
2662.49	0.8978
2671.24	0.8857
2679.99	0.8684
2688.74	0.8676
2697.49	0.8891
2706.25	0.895
2715	0.8727
2723.75	0.8693
2732.5	0.8706
2741.25	0.8725
2750	0.883
2758.76	0.882
2767.51	0.8799
2776.26	0.8729
2785.01	0.8639
2793.76	0.8538
2802.51	0.8338
2811.26	0.8113
2820.02	0.7674
2828.77	0.7142
2837.52	0.625
2846.27	0.4994
2855.02	0.2259
2863.77	0.0441
2872.52	0.0089
2881.28	0.0479
2890.03	0.109
2898.78	0.0675
2907.53	0.0349
2916.28	0.03
2925.03	0.028
2933.78	0.013
2942.54	0.009
2951.29	0.004
2960.04	0.001
2968.79	0.001
2977.54	0.1022
2986.29	0.3502
2995.04	0.5279
3003.8	0.652
3012.55	0.7338
3021.3	0.7829
3030.05	0.8208
3038.8	0.8489
3047.55	0.8669
3056.31	0.883
3065.06	0.894
3073.81	0.9039
3082.56	0.909
3091.31	0.9159
3100.06	0.9189
3108.81	0.923
3117.57	0.923
3126.32	0.9259
3135.07	0.9241
3143.82	0.9231
3152.57	0.9201
3161.32	0.9151
3170.07	0.9102
3178.83	0.909
3187.58	0.908
3196.33	0.909
3205.08	0.9118
3213.83	0.9188
3222.58	0.9256
3231.33	0.9298
3240.09	0.931
3248.84	0.932
3257.59	0.932
3266.34	0.935
3275.09	0.936
3283.84	0.935
3292.59	0.935
3301.35	0.935
3310.1	0.936
3318.85	0.936
3327.6	0.936
3336.35	0.936
3345.1	0.938
3353.86	0.939
3362.61	0.9406
3371.36	0.9418
3380.11	0.9418
3388.86	0.942
3397.61	0.941
3406.36	0.941
3415.12	0.941
3423.87	0.9406
3432.62	0.942
3441.37	0.9394
3450.12	0.9382
3458.87	0.938
3467.62	0.938
3476.38	0.939
3485.13	0.939
3493.88	0.939
3502.63	0.939
3511.38	0.939
3520.13	0.9383
3528.88	0.938
3537.64	0.9387
3546.39	0.939
3555.14	0.939
3563.89	0.939
3572.64	0.939
3581.39	0.9329
3590.14	0.9314
3598.9	0.938
3607.65	0.9326
3616.4	0.9347
3625.15	0.9374
3633.9	0.938
3642.65	0.936
3651.41	0.9367
3660.16	0.9343
3668.91	0.934
3677.66	0.936
3686.41	0.934
3695.16	0.934
3703.91	0.932
3712.67	0.931
3721.42	0.93
3730.17	0.928
3738.92	0.928
3747.67	0.93
3756.42	0.931
3765.17	0.932
3773.93	0.934
3782.68	0.934
3791.43	0.934
