Infrared Spectrum: BENZALDEHYDE, 3,4-DIMETHOXY-
Formula: C9 H10 O3
CAS: 120-14-9
State: SOLUTION (5% CCl4 FOR 3800-1335, 5% CS2 FOR 1335-400 CM^-^1)
Class: COBLENTZ III
Instrument: DOW KBr FOREPRISM-GRATING
Instrument parameters: BLAZED AT 3.5, 12.0, 20.0 MICRON AND CHANGED AT 5.0, 7.5, 14.9 MICRON
Sampling: TRANSMISSION
Path length: 0.011 CM, 0.010 CM
Resolution: 2
Origin: DOW CHEMICAL COMPANY
1/CM	TRANSMITTANCE
382	0.1744
391	0.1873
400	0.2516
409	0.5574
418	0.6508
427	0.7062
436	0.754
445	0.7731
454	0.7725
463	0.7599
472	0.7665
481	0.7775
490	0.7871
499	0.7965
508	0.8025
517	0.8036
526	0.8135
535	0.8296
544	0.8263
553	0.8161
562	0.7961
571	0.676
580	0.7108
589	0.6302
598	0.7972
607	0.824
616	0.811
625	0.8043
634	0.7161
643	0.4595
652	0.7811
661	0.8268
670	0.8532
679	0.859
688	0.8667
697	0.8704
706	0.8677
715	0.8556
724	0.8061
733	0.3714
742	0.7569
751	0.8425
760	0.8463
769	0.8195
778	0.7693
787	0.6135
796	0.8311
805	0.3941
814	0.5429
823	0.8346
832	0.8671
841	0.8668
850	0.7457
859	0.6917
868	0.4851
877	0.7558
886	0.862
895	0.8954
904	0.9128
913	0.9094
922	0.8936
931	0.8981
940	0.8897
949	0.902
958	0.9017
967	0.8808
976	0.9007
985	0.8932
994	0.8575
1003	0.814
1012	0.769
1021	0.6481
1030	0.0579
1039	0.5636
1048	0.7593
1057	0.8155
1066	0.8371
1075	0.8455
1084	0.8471
1093	0.8387
1102	0.8186
1111	0.765
1120	0.6285
1129	0.1854
1138	0.059
1147	0.4983
1156	0.1066
1165	0.3314
1174	0.7347
1183	0.7448
1192	0.7317
1201	0.6144
1210	0.7464
1219	0.7526
1228	0.6953
1237	0.4994
1246	0.0888
1255	0.2924
1264	0.1949
1273	0.0118
1282	0.1067
1291	0.3368
1300	0.615
1309	0.675
1318	0.6946
1327	0.7239
1336	0.6768
1345	0.5779
1354	0.7139
1363	0.8255
1372	0.841
1381	0.7734
1390	0.6118
1399	0.3979
1408	0.6753
1417	0.6961
1426	0.159
1435	0.6362
1444	0.3349
1453	0.5038
1462	0.3154
1471	0.2144
1480	0.7262
1489	0.7484
1498	0.6675
1507	0.2141
1516	0.0429
1525	0.2646
1534	0.4912
1543	0.4641
1552	0.4284
1561	0.4366
1570	0.4953
1579	0.4689
1588	0.1218
1597	0.1203
1606	0.2492
1615	0.6309
1624	0.7718
1633	0.8195
1642	0.845
1651	0.8347
1660	0.7956
1669	0.7812
1678	0.6241
1687	0.0379
1696	0.0825
1705	0.0593
1714	0.572
1723	0.736
1732	0.7896
1741	0.8225
1750	0.8664
1759	0.8746
1768	0.8808
1777	0.8884
1786	0.8898
1795	0.8894
1804	0.8923
1813	0.8939
1822	0.8948
1831	0.8875
1840	0.8763
1849	0.8833
1858	0.8887
1867	0.8863
1876	0.8833
1885	0.8895
1894	0.8965
1903	0.9007
1912	0.8967
1921	0.8908
1930	0.894
1939	0.9038
1948	0.9097
1957	0.9078
1966	0.9075
1975	0.8953
1984	0.8932
1993	0.8858
2002	0.8299
2011	0.8337
2020	0.8415
2029	0.8731
2038	0.8331
2047	0.818
2056	0.8318
2065	0.8315
2074	0.8486
2083	0.8553
2092	0.8559
2101	0.8536
2110	0.8549
2119	0.8554
2128	0.8612
2137	0.867
2146	0.8677
2155	0.8628
2164	0.8611
2173	0.8612
2182	0.8618
2191	0.8625
2200	0.8639
2209	0.8651
2218	0.8654
2227	0.8625
2236	0.8586
2245	0.8589
2254	0.8594
2263	0.8578
2272	0.8445
2281	0.8268
2290	0.8286
2299	0.8384
2308	0.8423
2317	0.8436
2326	0.8452
2335	0.8481
2344	0.8509
2353	0.8535
2362	0.8565
2371	0.8608
2380	0.8635
2389	0.8655
2398	0.8671
2407	0.8681
2416	0.8689
2425	0.8698
2434	0.8707
2443	0.871
2452	0.8709
2461	0.8707
2470	0.8703
2479	0.8698
2488	0.8701
2497	0.8689
2506	0.867
2515	0.8649
2524	0.8616
2533	0.8563
2542	0.8527
2551	0.8528
2560	0.855
2569	0.8571
2578	0.8546
2587	0.8471
2596	0.8394
2605	0.8303
2614	0.8195
2623	0.8223
2632	0.8455
2641	0.8435
2650	0.8384
2659	0.8362
2668	0.8424
2677	0.8315
2686	0.8019
2695	0.7778
2704	0.7519
2713	0.7107
2722	0.6626
2731	0.7225
2740	0.7325
2749	0.7061
2758	0.7208
2767	0.7696
2776	0.7671
2785	0.7628
2794	0.754
2803	0.7074
2812	0.6278
2821	0.6208
2830	0.548
2839	0.4883
2848	0.6257
2857	0.7436
2866	0.7911
2875	0.7891
2884	0.7762
2893	0.7622
2902	0.6826
2911	0.6647
2920	0.6914
2929	0.6278
2938	0.531
2947	0.6233
2956	0.5592
2965	0.5252
2974	0.7082
2983	0.7668
2992	0.7761
3001	0.7161
3010	0.6102
3019	0.7287
3028	0.8168
3037	0.8393
3046	0.8418
3055	0.8363
3064	0.8251
3073	0.8097
3082	0.7958
3091	0.8492
3100	0.8648
3109	0.8705
3118	0.8731
3127	0.8748
3136	0.8773
3145	0.8796
3154	0.88
3163	0.8784
3172	0.8742
3181	0.8717
3190	0.8714
3199	0.8733
3208	0.8784
3217	0.8799
3226	0.881
3235	0.8814
3244	0.8816
3253	0.8818
3262	0.8818
3271	0.8815
3280	0.8799
3289	0.8798
3298	0.8795
3307	0.8796
3316	0.8796
3325	0.8794
3334	0.8774
3343	0.8732
3352	0.8671
3361	0.8565
3370	0.8547
3379	0.86
3388	0.867
3397	0.8745
3406	0.8774
3415	0.8783
3424	0.8785
3433	0.8781
3442	0.8777
3451	0.8771
3460	0.8768
3469	0.8763
3478	0.876
3487	0.8756
3496	0.8753
3505	0.875
3514	0.8748
3523	0.8744
3532	0.874
3541	0.8735
3550	0.873
3559	0.874
3568	0.8749
3577	0.8755
3586	0.8762
3595	0.8767
3604	0.8771
3613	0.8773
3622	0.8773
3631	0.877
3640	0.8767
3649	0.8763
3658	0.8765
3667	0.8767
3676	0.877
3685	0.8773
3694	0.8775
3703	0.8774
3712	0.8773
3721	0.8771
3730	0.877
3739	0.8767
3748	0.8766
3757	0.8768
3766	0.877
3775	0.8771
3784	0.8774
