Infrared Spectrum: Dimethyl terephthalate
Formula: C 10 H 10 O 4
CAS: 120-61-6
State: solid
Instrument: Bruker Tensor 37 FTIR
Resolution: 0.96450084
Origin: Pacific Northwest National Laboratory Under IARPA Contract
1/cm	Reflectance
7498.99	0.72822
7481.63	0.681413
7464.27	0.680585
7446.91	0.690924
7429.55	0.671106
7412.19	0.652474
7394.84	0.661604
7377.48	0.675308
7360.12	0.67771
7342.76	0.694434
7325.4	0.718742
7308.04	0.701852
7290.68	0.715435
7273.32	0.681427
7255.96	0.67286
7238.6	0.698016
7221.24	0.684009
7203.88	0.739525
7186.52	0.750827
7169.16	0.764004
7151.8	0.773615
7134.44	0.762822
7117.08	0.77413
7099.72	0.776748
7082.36	0.778593
7065	0.787053
7047.64	0.794
7030.28	0.79371
7012.92	0.789191
6995.56	0.785756
6978.2	0.782235
6960.84	0.783283
6943.48	0.773764
6926.12	0.770143
6908.76	0.759536
6891.4	0.753272
6874.04	0.728763
6856.68	0.698581
6839.32	0.661779
6821.96	0.642155
6804.6	0.615428
6787.24	0.501202
6769.88	0.372001
6752.52	0.402735
6735.16	0.500048
6717.8	0.503683
6700.44	0.54334
6683.08	0.519885
6665.72	0.530378
6648.36	0.577982
6631	0.600608
6613.64	0.631115
6596.28	0.641931
6578.92	0.615366
6561.56	0.603695
6544.2	0.624861
6526.85	0.648517
6509.49	0.656431
6492.13	0.658096
6474.77	0.652873
6457.41	0.629599
6440.05	0.649671
6422.69	0.617698
6405.33	0.662148
6387.97	0.652449
6370.61	0.608111
6353.25	0.6642
6335.89	0.666985
6318.53	0.655745
6301.17	0.537579
6283.81	0.651317
6266.45	0.637848
6249.09	0.654835
6231.73	0.659583
6214.37	0.628384
6197.01	0.603799
6179.65	0.592563
6162.29	0.553329
6144.93	0.528723
6127.57	0.508695
6110.21	0.445163
6092.85	0.313265
6075.49	0.436342
6058.13	0.44357
6040.77	0.400835
6023.41	0.408391
6006.05	0.359135
5988.69	0.219612
5971.33	0.178969
5953.97	0.257166
5936.61	0.326425
5919.25	0.310385
5901.89	0.310245
5884.53	0.302331
5867.17	0.257084
5849.81	0.292304
5832.45	0.234467
5815.09	0.305412
5797.73	0.264029
5780.37	0.310966
5763.01	0.334564
5745.65	0.36148
5728.29	0.345848
5710.93	0.331393
5693.57	0.412567
5676.21	0.484769
5658.86	0.431404
5641.5	0.464881
5624.14	0.436238
5606.78	0.515003
5589.42	0.446458
5572.06	0.554418
5554.7	0.532418
5537.34	0.462563
5519.98	0.477883
5502.62	0.439562
5485.26	0.392889
5467.9	0.197266
5450.54	0.271039
5433.18	0.34401
5415.82	0.287912
5398.46	0.293011
5381.1	0.331912
5363.74	0.280855
5346.38	0.274301
5329.02	0.216235
5311.66	0.193558
5294.3	0.197067
5276.94	0.115454
5259.58	0.0600015
5242.22	0.116057
5224.86	0.0809754
5207.5	0.153579
5190.14	0.125359
5172.78	0.0927984
5155.42	0.268789
5138.06	0.300344
5120.7	0.325801
5103.34	0.317295
5085.98	0.343932
5068.62	0.302017
5051.26	0.276693
5033.9	0.215913
5016.54	0.188342
4999.18	0.325821
4981.82	0.280236
4964.46	0.323634
4947.1	0.196563
4929.74	0.290348
4912.38	0.305974
4895.02	0.251609
4877.66	0.255089
4860.3	0.233008
4842.94	0.383196
4825.58	0.313918
4808.22	0.194697
4790.86	0.21087
4773.51	0.205111
4756.15	0.246793
4738.79	0.263115
4721.43	0.198045
4704.07	0.128424
4686.71	0.23495
4669.35	0.122396
4651.99	0.0980871
4634.63	0.0516928
4617.27	0.0282232
4599.91	0.052607
4582.55	0.0699527
4565.19	0.0988839
4547.83	0.107372
4530.47	0.105342
4513.11	0.073962
4495.75	0.0952069
4478.39	0.0318373
4461.03	0.0460271
4443.67	0.0331634
4426.31	0.0460817
4408.95	0.023358
4391.59	0.0756642
4374.23	0.0579215
4356.87	0.0669732
4339.51	0.0647406
4322.15	0.0519611
4304.79	0.0499069
4287.43	0.0985863
4270.07	0.139368
4252.71	0.13676
4235.35	0.136693
4217.99	0.125441
4200.63	0.187709
4183.27	0.10981
4165.91	0.17869
4148.55	0.167745
4131.19	0.130761
4113.83	0.0912095
4096.47	0.216099
4079.11	0.324499
4061.75	0.344589
4044.39	0.705321
4027.03	0.686034
4009.67	0.661239
3992.31	0.701744
3974.95	0.67177
3957.59	0.649553
3940.23	0.681564
3922.87	0.682415
3905.52	0.684587
3888.16	0.703839
3870.8	0.71256
3853.44	0.706939
3836.08	0.707494
3818.72	0.674278
3801.36	0.691336
3784	0.695169
3766.64	0.709979
3749.28	0.748119
3731.92	0.752277
3714.56	0.761971
3697.2	0.768255
3679.84	0.764703
3662.48	0.773613
3645.12	0.776159
3627.76	0.774859
3610.4	0.789697
3593.04	0.788216
3575.68	0.787977
3558.32	0.78195
3540.96	0.785143
3523.6	0.781758
3506.24	0.777705
3488.88	0.770054
3471.52	0.769014
3454.16	0.755473
3436.8	0.749395
3419.44	0.722423
3402.08	0.678356
3384.72	0.675486
3367.36	0.6547
3350	0.585459
3332.64	0.449715
3315.28	0.381327
3297.92	0.398516
3280.56	0.532016
3263.2	0.539177
3245.84	0.539649
3228.48	0.531032
3211.12	0.5346
3193.76	0.586108
3176.4	0.612167
3159.04	0.651061
3141.68	0.646153
3124.32	0.601833
3106.96	0.619788
3089.6	0.631248
3072.24	0.669953
3054.88	0.662949
3037.53	0.654338
3020.17	0.660797
3002.81	0.638743
2985.45	0.655627
2968.09	0.62754
2950.73	0.67076
2933.37	0.64655
2916.01	0.6571
2898.65	0.668815
2881.29	0.679007
2863.93	0.63486
2846.57	0.614396
2829.21	0.669686
2811.85	0.648969
2794.49	0.669259
2777.13	0.654872
2759.77	0.62744
2742.41	0.597784
2725.05	0.609074
2707.69	0.561478
2690.33	0.543353
2672.97	0.501094
2655.61	0.427881
2638.25	0.359712
2620.89	0.38303
2603.53	0.460364
2586.17	0.395374
2568.81	0.405019
2551.45	0.33751
2534.09	0.19774
2516.73	0.249536
2499.37	0.24661
2482.01	0.330158
2464.65	0.332472
2447.29	0.318824
2429.93	0.343634
2412.57	0.251514
2395.21	0.286185
2377.85	0.272245
2360.49	0.337044
2343.13	0.214063
2325.77	0.353221
2308.41	0.387633
2291.05	0.355642
2273.69	0.349403
2256.33	0.345859
2238.97	0.486643
2221.61	0.504088
2204.25	0.399389
2186.89	0.448499
2169.53	0.466642
2152.18	0.485901
2134.82	0.516797
2117.46	0.555802
2100.1	0.541094
2082.74	0.465132
2065.38	0.488149
2048.02	0.41397
2030.66	0.362204
2013.3	0.104643
1995.94	0.333717
1978.58	0.352228
1961.22	0.322008
1943.86	0.310093
1926.5	0.33231
1909.14	0.299024
1891.78	0.263072
1874.42	0.230478
1857.06	0.209044
1839.7	0.200318
1822.34	0.0863727
1804.98	0.0780789
1787.62	0.0961454
1770.26	0.127531
1752.9	0.146072
1735.54	0.167487
1718.18	0.15043
1700.82	0.274146
1683.46	0.346723
1666.1	0.326754
1648.74	0.332379
1631.38	0.380131
1614.02	0.289266
1596.66	0.252965
1579.3	0.198363
1561.94	0.294424
1544.58	0.286721
1527.22	0.310352
1509.86	0.298953
1492.5	0.158936
1475.14	0.324647
1457.78	0.310369
1440.42	0.194552
1423.06	0.245414
1405.7	0.262698
1388.34	0.407081
1370.98	0.286146
1353.62	0.143466
1336.26	0.188331
1318.9	0.211882
1301.54	0.24661
1284.19	0.175957
1266.83	0.197019
1249.47	0.155845
1232.11	0.206449
1214.75	0.155642
1197.39	0.0736696
1180.03	0.0516006
1162.67	0.068405
1145.31	0.0583983
1127.95	0.0724004
1110.59	0.0969678
1093.23	0.120486
1075.87	0.0900029
1058.51	0.0866184
1041.15	0.092097
1023.79	0.0250814
1006.43	0.0271363
989.068	0.0425218
971.709	0.0283552
954.349	0.0277913
936.989	0.0494443
919.629	0.0629564
902.269	0.0431731
884.91	0.0569965
867.55	0.0421067
850.19	0.0478055
832.83	0.117148
815.47	0.10894
798.111	0.157567
780.751	0.0648215
763.391	0.156086
746.031	0.125679
728.671	0.193172
711.312	0.0867489
693.952	0.174464
676.592	0.11584
659.232	0.11513
641.872	0.247352
624.513	0.341055
607.153	0.312777
