Infrared Spectrum: 4-Chloro-2-benzylphenol
Formula: C13 H11 Cl O
CAS: 120-32-1
State: SOLID (SPLIT MULL)
Class: COBLENTZ II
Instrument: DOW KBr FOREPRISM-GRATING
Instrument parameters: BLAZED AT 3.5, 12.0, 20.0 MICRON AND CHANGED AT 5.0, 7.5, 14.9 MICRON
Sampling: TRANSMISSION
Resolution: 2
Origin: DOW CHEMICAL COMPANY
1/CM	TRANSMITTANCE
3800	0.6599
3791	0.6597
3782	0.6596
3773	0.66
3764	0.6608
3755	0.6639
3746	0.6669
3737	0.6698
3728	0.6717
3719	0.6734
3710	0.6751
3701	0.6775
3692	0.6799
3683	0.6821
3674	0.684
3665	0.6856
3656	0.6868
3647	0.6871
3638	0.6876
3629	0.6881
3620	0.6887
3611	0.6896
3602	0.6915
3593	0.6965
3584	0.6967
3575	0.6949
3566	0.6971
3557	0.699
3548	0.6996
3539	0.6998
3530	0.699
3521	0.698
3512	0.6951
3503	0.6921
3494	0.6871
3485	0.6812
3476	0.6724
3467	0.6489
3458	0.6265
3449	0.6045
3440	0.5778
3431	0.5473
3422	0.511
3413	0.4743
3404	0.4418
3395	0.4018
3386	0.3697
3377	0.3472
3368	0.32
3359	0.2887
3350	0.2445
3341	0.2203
3332	0.2028
3323	0.187
3314	0.1844
3305	0.1872
3296	0.195
3287	0.2029
3278	0.2111
3269	0.2196
3260	0.2283
3251	0.2377
3242	0.2535
3233	0.2765
3224	0.3015
3215	0.3236
3206	0.3455
3197	0.3642
3188	0.3848
3179	0.4102
3170	0.436
3161	0.4658
3152	0.4925
3143	0.5155
3134	0.5348
3125	0.5547
3116	0.5712
3107	0.5714
3098	0.5721
3089	0.5041
3080	0.5586
3071	0.5108
3062	0.6017
3053	0.6272
3044	0.6367
3035	0.5976
3026	0.3975
3017	0.6074
3008	0.6356
2999	0.6558
2990	0.673
2981	0.6836
2972	0.6889
2963	0.6895
2954	0.5559
2945	0.6474
2936	0.6699
2927	0.5685
2918	0.6471
2909	0.6844
2900	0.7031
2891	0.7165
2882	0.7208
2873	0.7191
2864	0.7114
2855	0.7006
2846	0.6943
2837	0.6974
2828	0.7118
2819	0.7241
2810	0.7318
2801	0.735
2792	0.7364
2783	0.7358
2774	0.7332
2765	0.7333
2756	0.7381
2747	0.7442
2738	0.745
2729	0.7438
2720	0.7451
2711	0.7475
2702	0.7514
2693	0.7541
2684	0.7548
2675	0.7554
2666	0.7578
2657	0.7611
2648	0.7676
2639	0.7758
2630	0.7789
2621	0.7799
2612	0.7721
2603	0.7685
2594	0.7682
2585	0.7698
2576	0.78
2567	0.7921
2558	0.796
2549	0.798
2540	0.7976
2531	0.7975
2522	0.798
2513	0.7996
2504	0.8054
2495	0.8071
2486	0.8019
2477	0.8081
2468	0.8121
2459	0.816
2450	0.8194
2441	0.8209
2432	0.8191
2423	0.8184
2414	0.8201
2405	0.8236
2396	0.8267
2387	0.8268
2378	0.8205
2369	0.8101
2360	0.7981
2351	0.7905
2342	0.784
2333	0.7801
2324	0.7841
2315	0.8047
2306	0.8212
2297	0.8257
2288	0.8259
2279	0.8274
2270	0.8284
2261	0.8302
2252	0.8333
2243	0.8363
2234	0.8394
2225	0.8424
2216	0.8444
2207	0.8463
2198	0.8487
2189	0.8509
2180	0.8544
2171	0.8617
2162	0.8597
2153	0.8617
2144	0.8644
2135	0.8668
2126	0.8692
2117	0.8718
2108	0.8753
2099	0.8782
2090	0.8811
2081	0.8837
2072	0.8849
2063	0.8857
2054	0.8862
2045	0.8867
2036	0.8849
2027	0.884
2018	0.8831
2009	0.8824
2000	0.8824
1991	0.8725
1982	0.8789
1973	0.881
1964	0.8801
1955	0.8685
1946	0.8755
1937	0.864
1928	0.8837
1919	0.886
1910	0.8839
1901	0.8811
1892	0.8848
1883	0.8701
1874	0.8021
1865	0.868
1856	0.8784
1847	0.8756
1838	0.877
1829	0.885
1820	0.8795
1811	0.8813
1802	0.8768
1793	0.8694
1784	0.874
1775	0.8888
1766	0.8757
1757	0.8716
1748	0.8777
1739	0.8841
1730	0.894
1721	0.8948
1712	0.8959
1703	0.8943
1694	0.8934
1685	0.8918
1676	0.8897
1667	0.8884
1658	0.8824
1649	0.885
1640	0.8738
1631	0.8658
1622	0.878
1613	0.8701
1604	0.7067
1595	0.8268
1586	0.7243
1577	0.8427
1568	0.8612
1559	0.8775
1550	0.8711
1541	0.8742
1532	0.8864
1523	0.8852
1514	0.8632
1505	0.6845
1496	0.1662
1487	0.5625
1478	0.6575
1469	0.7049
1460	0.7018
1451	0.4477
1442	0.242
1433	0.1839
1424	0.4071
1415	0.6139
1406	0.7625
1397	0.7684
1388	0.7608
1379	0.7296
1370	0.7741
1361	0.7935
1352	0.7915
1343	0.7531
1334	0.751
1325	0.8155
1316	0.8158
1307	0.8287
1298	0.7851
1289	0.85
1280	0.8324
1271	0.7448
1262	0.7471
1253	0.6352
1244	0.2899
1235	0.333
1226	0.6218
1217	0.7411
1208	0.7594
1199	0.5816
1190	0.6093
1181	0.4545
1172	0.285
1163	0.4873
1154	0.7085
1145	0.7656
1136	0.7924
1127	0.8006
1118	0.2861
1109	0.6265
1100	0.7331
1091	0.7561
1082	0.7706
1073	0.4962
1064	0.7425
1055	0.7965
1046	0.8169
1037	0.8236
1028	0.661
1019	0.8325
1010	0.8465
1001	0.8424
992	0.8543
983	0.8584
974	0.8604
965	0.8589
956	0.8498
947	0.8724
938	0.8485
929	0.6085
920	0.8456
911	0.8628
902	0.6239
893	0.6646
884	0.439
875	0.8447
866	0.8766
857	0.8818
848	0.8692
839	0.8638
830	0.5495
821	0.4023
812	0.6498
803	0.8568
794	0.8737
785	0.8651
776	0.6851
767	0.8636
758	0.8675
749	0.8496
740	0.7075
731	0.5337
722	0.2946
713	0.7858
704	0.7797
695	0.4581
686	0.754
677	0.7739
668	0.7758
659	0.1944
650	0.597
641	0.6941
632	0.5446
623	0.7485
614	0.6825
605	0.7087
596	0.7354
587	0.755
578	0.7617
569	0.7297
560	0.7378
551	0.7193
542	0.4686
533	0.6938
524	0.744
515	0.7622
506	0.7661
497	0.7731
488	0.7888
479	0.8043
470	0.805
461	0.7946
452	0.661
443	0.6915
434	0.7092
425	0.7283
416	0.7395
407	0.7448
398	0.7464
389	0.7483
