Infrared Spectrum: DIMETHYL TEREPHTHALATE
Formula: C10 H10 O4
CAS: 120-61-6
State: SOLID (MULL)
Melting point: 140 C
Class: COBLENTZ
Instrument: Not specified, most likely a prism, grating, or hybrid spectrometer.
Sampling: TRANSMISSION
Resolution: 4
Origin: WYANDOTTE CHEMICALS CORP., WYANDOTTE, MICHIGAN, USA
MICROMETERS	TRANSMITTANCE
2.025	0.593
2.06481	0.611
2.10462	0.612
2.14444	0.617
2.18425	0.617
2.22406	0.621
2.26387	0.617
2.30369	0.632
2.3435	0.649
2.38331	0.649
2.42312	0.659
2.46294	0.661
2.50275	0.667
2.54256	0.677
2.58237	0.674
2.62219	0.699
2.662	0.7
2.70181	0.7
2.74162	0.7
2.78144	0.7
2.82125	0.71
2.86106	0.702
2.90087	0.7
2.94069	0.677
2.9805	0.7
3.02031	0.697
3.06012	0.702
3.09994	0.699
3.13975	0.687
3.17956	0.694
3.21937	0.689
3.25919	0.662
3.299	0.574
3.33881	0.355
3.37862	0.051
3.41844	0.058
3.45825	0.171
3.49806	0.152
3.53787	0.524
3.57769	0.73
3.6175	0.77
3.65731	0.779
3.69712	0.775
3.73693	0.79
3.77675	0.8
3.81656	0.802
3.85637	0.803
3.89618	0.808
3.936	0.815
3.97581	0.83
4.01562	0.837
4.05543	0.84
4.09525	0.845
4.13506	0.855
4.17487	0.852
4.21468	0.847
4.2545	0.828
4.29431	0.843
4.33412	0.865
4.37393	0.878
4.41375	0.868
4.45356	0.868
4.49337	0.875
4.53318	0.882
4.573	0.888
4.61281	0.9
4.65262	0.895
4.69243	0.901
4.73225	0.906
4.77206	0.903
4.81187	0.89
4.85168	0.91
4.8915	0.893
4.93131	0.908
4.97112	0.913
5.01093	0.92
5.05075	0.921
5.09056	0.933
5.13037	0.921
5.17018	0.915
5.21	0.931
5.24981	0.923
5.28962	0.923
5.32943	0.948
5.36924	0.956
5.40906	0.953
5.44887	0.958
5.48868	0.948
5.52849	0.946
5.56831	0.936
5.60812	0.898
5.64793	0.882
5.68774	0.852
5.72756	0.732
5.76737	0.32
5.80718	0.044
5.84699	0.146
5.88681	0.475
5.92662	0.561
5.96643	0.579
6.00624	0.699
6.04606	0.737
6.08587	0.797
6.12568	0.81
6.16549	0.82
6.20531	0.837
6.24512	0.865
6.28493	0.87
6.32474	0.878
6.36456	0.863
6.40437	0.868
6.44418	0.842
6.48399	0.82
6.52381	0.843
6.56362	0.867
6.60343	0.75
6.64324	0.739
6.68306	0.84
6.72287	0.792
6.76268	0.657
6.80249	0.397
6.84231	0.328
6.88212	0.255
6.92193	0.292
6.96174	0.171
7.00156	0.591
7.04137	0.616
7.08118	0.328
7.12099	0.584
7.1608	0.691
7.20062	0.551
7.24043	0.471
7.28024	0.576
7.32005	0.672
7.35987	0.747
7.39968	0.717
7.43949	0.602
7.4793	0.666
7.51912	0.621
7.55893	0.539
7.59874	0.428
7.63855	0.307
7.67837	0.285
7.71818	0.202
7.75799	0.099
7.7978	0.056
7.83762	0.053
7.87743	0.073
7.91724	0.051
7.95705	0.152
7.99687	0.262
8.03668	0.425
8.07649	0.498
8.1163	0.541
8.15612	0.591
8.19593	0.639
8.23574	0.669
8.27555	0.649
8.31537	0.622
8.35518	0.411
8.39499	0.372
8.4348	0.556
8.47462	0.662
8.51443	0.692
8.55424	0.694
8.59405	0.72
8.63387	0.757
8.67368	0.774
8.71349	0.787
8.7533	0.803
8.79311	0.822
8.83293	0.78
8.87274	0.661
8.91255	0.325
8.95236	0.096
8.99218	0.099
9.03199	0.099
9.0718	0.272
9.11161	0.362
9.15143	0.377
9.19124	0.445
9.23105	0.533
9.27086	0.581
9.31068	0.621
9.35049	0.641
9.3903	0.659
9.43011	0.681
9.46993	0.692
9.50974	0.702
9.54955	0.712
9.58936	0.71
9.62918	0.727
9.66899	0.739
9.7088	0.739
9.74861	0.725
9.78843	0.627
9.82824	0.279
9.86805	0.581
9.90786	0.692
9.94768	0.737
9.98749	0.755
10.0273	0.774
10.0671	0.775
10.1069	0.782
10.1467	0.782
10.1866	0.775
10.2264	0.785
10.2662	0.794
10.306	0.782
10.3458	0.779
10.3856	0.747
10.4254	0.662
10.4652	0.513
10.505	0.382
10.5449	0.498
10.5847	0.627
10.6245	0.692
10.6643	0.73
10.7041	0.749
10.7439	0.77
10.7837	0.777
10.8235	0.79
10.8634	0.802
10.9032	0.802
10.943	0.805
10.9828	0.82
11.0226	0.822
11.0624	0.828
11.1022	0.828
11.142	0.823
11.1819	0.828
11.2217	0.817
11.2615	0.805
11.3013	0.784
11.3411	0.739
11.3809	0.606
11.4207	0.553
11.4605	0.602
11.5004	0.659
11.5402	0.792
11.58	0.835
11.6198	0.852
11.6596	0.853
11.6994	0.853
11.7392	0.852
11.779	0.857
11.8189	0.86
11.8587	0.865
11.8985	0.862
11.9383	0.868
11.9781	0.868
12.0179	0.873
12.0577	0.875
12.0975	0.873
12.1374	0.877
12.1772	0.865
12.217	0.842
12.2568	0.71
12.2966	0.4
12.3364	0.579
12.3762	0.76
12.416	0.81
12.4559	0.832
12.4957	0.843
12.5355	0.85
12.5753	0.852
12.6151	0.862
12.6549	0.853
12.6947	0.853
12.7345	0.863
12.7744	0.863
12.8142	0.853
12.854	0.86
12.8938	0.858
12.9336	0.857
12.9734	0.845
13.0132	0.842
13.053	0.84
13.0929	0.828
13.1327	0.833
13.1725	0.822
13.2123	0.827
13.2521	0.817
13.2919	0.81
13.3317	0.8
13.3715	0.777
13.4114	0.752
13.4512	0.725
13.491	0.667
13.5308	0.553
13.5706	0.299
13.6104	0.152
13.6502	0.109
13.69	0.116
13.7299	0.156
13.7697	0.222
13.8095	0.33
13.8493	0.496
13.8891	0.566
13.9289	0.661
13.9687	0.715
14.0085	0.767
14.0484	0.802
14.0882	0.823
14.128	0.833
14.1678	0.848
14.2076	0.855
14.2474	0.862
14.2872	0.865
14.327	0.872
14.3669	0.875
14.4067	0.87
14.4465	0.867
14.4863	0.873
14.5261	0.873
14.5659	0.868
14.6057	0.867
14.6455	0.862
14.6854	0.86
14.7252	0.863
14.765	0.853
14.8048	0.857
14.8446	0.847
14.8844	0.847
14.9242	0.848
14.964	0.847
15.0039	0.823
15.0437	0.794
15.0835	0.772
15.1233	0.792
15.1631	0.823
15.2029	0.832
15.2427	0.802
15.2825	0.812
15.3224	0.802
15.3622	0.794
15.402	0.782
15.4418	0.775
15.4816	0.764
15.5214	0.757
15.5612	0.752
15.601	0.74
15.6409	0.737
15.6807	0.732
15.7205	0.729
15.7603	0.722
15.8001	0.705
15.8399	0.7
15.8797	0.691
