Infrared Spectrum: 2,4-DICHLOROPHENOL
Formula: C6 H4 Cl2 O
CAS: 120-83-2
State: SOLID (MINERAL OIL MULL)
Melting point: 41 C
Class: COBLENTZ
Instrument: Not specified, most likely a prism, grating, or hybrid spectrometer.
Sampling: TRANSMISSION
Resolution: 4
Origin: WYANDOTTE CHEMICALS CORP., WYANDOTTE, MICHIGAN, USA
MICROMETERS	TRANSMITTANCE
2.027	0.551
2.06786	0.555
2.10871	0.56
2.14957	0.563
2.19042	0.563
2.23128	0.573
2.27213	0.575
2.31299	0.573
2.35384	0.582
2.3947	0.599
2.43556	0.582
2.47641	0.57
2.51727	0.592
2.55812	0.614
2.59898	0.601
2.63983	0.64
2.68069	0.648
2.72154	0.643
2.7624	0.602
2.80326	0.487
2.84411	0.443
2.88497	0.249
2.92582	0.122
2.96668	0.079
3.00753	0.159
3.04839	0.349
3.08925	0.439
3.1301	0.471
3.17096	0.475
3.21181	0.461
3.25267	0.424
3.29352	0.427
3.33438	0.21
3.37523	0.064
3.41609	0.073
3.45695	0.12
3.4978	0.106
3.53866	0.461
3.57951	0.619
3.62037	0.658
3.66122	0.643
3.70208	0.66
3.74293	0.651
3.78379	0.667
3.82465	0.684
3.8655	0.696
3.90636	0.697
3.94721	0.699
3.98807	0.701
4.02892	0.711
4.06978	0.709
4.11063	0.714
4.15149	0.724
4.19235	0.738
4.2332	0.731
4.27406	0.702
4.31491	0.753
4.35577	0.78
4.39662	0.791
4.43748	0.77
4.47833	0.784
4.51919	0.786
4.56005	0.791
4.6009	0.811
4.64176	0.799
4.68261	0.821
4.72347	0.821
4.76432	0.828
4.80518	0.833
4.84604	0.831
4.88689	0.837
4.92775	0.848
4.9686	0.847
5.00946	0.852
5.05031	0.837
5.09117	0.86
5.13202	0.874
5.17288	0.874
5.21374	0.881
5.25459	0.879
5.29545	0.855
5.3363	0.837
5.37716	0.82
5.41801	0.876
5.45887	0.899
5.49972	0.911
5.54058	0.913
5.58144	0.898
5.62229	0.92
5.66315	0.913
5.704	0.869
5.74486	0.864
5.78571	0.74
5.82657	0.867
5.86742	0.87
5.90828	0.911
5.94914	0.928
5.98999	0.93
6.03085	0.886
6.0717	0.855
6.11256	0.852
6.15341	0.928
6.19427	0.835
6.23513	0.522
6.27598	0.461
6.31684	0.623
6.35769	0.782
6.39855	0.94
6.4394	0.932
6.48026	0.94
6.52111	0.887
6.56197	0.764
6.60283	0.46
6.64368	0.19
6.68454	0.049
6.72539	0.042
6.76625	0.078
6.8071	0.129
6.84796	0.186
6.88881	0.344
6.92967	0.516
6.97053	0.624
7.01138	0.578
7.05224	0.444
7.09309	0.315
7.13395	0.511
7.1748	0.528
7.21566	0.422
7.25651	0.436
7.29737	0.551
7.33823	0.704
7.37908	0.684
7.41994	0.561
7.46079	0.237
7.50165	0.181
7.5425	0.305
7.58336	0.561
7.62421	0.684
7.66507	0.752
7.70593	0.765
7.74678	0.471
7.78764	0.091
7.82849	0.193
7.86935	0.438
7.9102	0.511
7.95106	0.302
7.99192	0.366
8.03277	0.303
8.07363	0.349
8.11448	0.628
8.15534	0.646
8.19619	0.538
8.23705	0.393
8.2779	0.232
8.31876	0.122
8.35962	0.067
8.40047	0.039
8.44133	0.039
8.48218	0.052
8.52304	0.079
8.56389	0.113
8.60475	0.174
8.6456	0.251
8.68646	0.293
8.72732	0.152
8.76817	0.183
8.80903	0.307
8.84988	0.376
8.89074	0.407
8.93159	0.432
8.97245	0.415
9.0133	0.397
9.05416	0.358
9.09502	0.275
9.13587	0.395
9.17673	0.497
9.21758	0.544
9.25844	0.561
9.29929	0.589
9.34015	0.602
9.381	0.599
9.42186	0.434
9.46272	0.127
9.50357	0.363
9.54443	0.521
9.58528	0.55
9.62614	0.585
9.66699	0.602
9.70785	0.626
9.74871	0.634
9.78956	0.655
9.83042	0.662
9.87127	0.672
9.91213	0.675
9.95298	0.689
9.99384	0.696
10.0347	0.702
10.0755	0.719
10.1164	0.723
10.1573	0.731
10.1981	0.733
10.239	0.738
10.2798	0.736
10.3207	0.74
10.3615	0.741
10.4024	0.747
10.4433	0.748
10.4841	0.738
10.525	0.738
10.5658	0.707
10.6067	0.738
10.6475	0.658
10.6884	0.716
10.7292	0.721
10.7701	0.74
10.811	0.762
10.8518	0.75
10.8927	0.757
10.9335	0.758
10.9744	0.76
11.0152	0.764
11.0561	0.755
11.0969	0.731
11.1378	0.731
11.1787	0.728
11.2195	0.724
11.2604	0.719
11.3012	0.723
11.3421	0.714
11.3829	0.701
11.4238	0.679
11.4646	0.638
11.5055	0.507
11.5464	0.246
11.5872	0.188
11.6281	0.076
11.6689	0.062
11.7098	0.061
11.7506	0.205
11.7915	0.453
11.8323	0.636
11.8732	0.701
11.9141	0.721
11.9549	0.709
11.9958	0.682
12.0366	0.645
12.0775	0.56
12.1183	0.351
12.1592	0.147
12.2	0.118
12.2409	0.154
12.2818	0.054
12.3226	0.13
12.3635	0.083
12.4043	0.144
12.4452	0.55
12.486	0.672
12.5269	0.73
12.5677	0.753
12.6086	0.757
12.6495	0.774
12.6903	0.796
12.7312	0.804
12.772	0.809
12.8129	0.816
12.8537	0.821
12.8946	0.818
12.9354	0.814
12.9763	0.813
13.0172	0.796
13.058	0.752
13.0989	0.75
13.1397	0.811
13.1806	0.838
13.2214	0.853
13.2623	0.845
13.3031	0.828
13.344	0.818
13.3849	0.799
13.4257	0.789
13.4666	0.787
13.5074	0.786
13.5483	0.77
13.5891	0.721
13.63	0.568
13.6708	0.31
13.7117	0.135
13.7526	0.108
13.7934	0.108
13.8343	0.113
13.8751	0.23
13.916	0.371
13.9568	0.463
13.9977	0.507
14.0385	0.55
14.0794	0.604
14.1203	0.653
14.1611	0.687
14.202	0.706
14.2428	0.719
14.2837	0.721
14.3245	0.706
14.3654	0.689
14.4062	0.667
14.4471	0.653
14.488	0.689
14.5288	0.738
14.5697	0.753
14.6105	0.752
14.6514	0.752
14.6922	0.752
14.7331	0.752
14.7739	0.748
14.8148	0.741
14.8557	0.736
14.8965	0.733
14.9374	0.73
14.9782	0.704
15.0191	0.638
15.0599	0.568
15.1008	0.553
15.1416	0.601
15.1825	0.636
15.2234	0.668
15.2642	0.624
15.3051	0.531
15.3459	0.424
15.3868	0.385
15.4276	0.395
15.4685	0.466
15.5093	0.517
15.5502	0.563
15.5911	0.589
15.6319	0.592
15.6728	0.592
15.7136	0.592
15.7545	0.584
15.7953	0.582
15.8362	0.578
15.877	0.565
15.9179	0.567
15.9588	0.572
