Infrared Spectrum: Dimethyl terephthalate
Formula: C 10 H 10 O 4
CAS: 120-61-6
State: solid
Instrument: Bruker Tensor 37 FTIR
Resolution: 0.96450084
Origin: Pacific Northwest National Laboratory Under IARPA Contract
1/cm	Reflectance
7498.99	0.612828
7481.63	0.514269
7464.27	0.520255
7446.91	0.546909
7429.55	0.503946
7412.19	0.466573
7394.84	0.488355
7377.48	0.521183
7360.12	0.517446
7342.76	0.534582
7325.4	0.590688
7308.04	0.556446
7290.68	0.583429
7273.32	0.513464
7255.96	0.508443
7238.6	0.561068
7221.24	0.519731
7203.88	0.634891
7186.52	0.660624
7169.16	0.682552
7151.8	0.69731
7134.44	0.683065
7117.08	0.704982
7099.72	0.711627
7082.36	0.703587
7065	0.73166
7047.64	0.74414
7030.28	0.736746
7012.92	0.727713
6995.56	0.727754
6978.2	0.71952
6960.84	0.721334
6943.48	0.697944
6926.12	0.697766
6908.76	0.675748
6891.4	0.662609
6874.04	0.613726
6856.68	0.553366
6839.32	0.488625
6821.96	0.456542
6804.6	0.407218
6787.24	0.250898
6769.88	0.138481
6752.52	0.159183
6735.16	0.248104
6717.8	0.253544
6700.44	0.298313
6683.08	0.271486
6665.72	0.283292
6648.36	0.346928
6631	0.38123
6613.64	0.432095
6596.28	0.450803
6578.92	0.405431
6561.56	0.383835
6544.2	0.419494
6526.85	0.457273
6509.49	0.471068
6492.13	0.475568
6474.77	0.464213
6457.41	0.426509
6440.05	0.460271
6422.69	0.405442
6405.33	0.480774
6387.97	0.464992
6370.61	0.389425
6353.25	0.486483
6335.89	0.491308
6318.53	0.470014
6301.17	0.291715
6283.81	0.46352
6266.45	0.440038
6249.09	0.469268
6231.73	0.478924
6214.37	0.425076
6197.01	0.387757
6179.65	0.36778
6162.29	0.31534
6144.93	0.283342
6127.57	0.257852
6110.21	0.195543
6092.85	0.104611
6075.49	0.186309
6058.13	0.192666
6040.77	0.158485
6023.41	0.16404
6006.05	0.130083
5988.69	0.0730103
5971.33	0.0646843
5953.97	0.0829501
5936.61	0.111037
5919.25	0.102563
5901.89	0.102464
5884.53	0.0996626
5867.17	0.083298
5849.81	0.093505
5832.45	0.0742967
5815.09	0.098986
5797.73	0.0859845
5780.37	0.101688
5763.01	0.11545
5745.65	0.128519
5728.29	0.118966
5710.93	0.110441
5693.57	0.163807
5676.21	0.227848
5658.86	0.17974
5641.5	0.210901
5624.14	0.185468
5606.78	0.263347
5589.42	0.195188
5572.06	0.311092
5554.7	0.283256
5537.34	0.206037
5519.98	0.223499
5502.62	0.18663
5485.26	0.148551
5467.9	0.0640979
5450.54	0.0838961
5433.18	0.116983
5415.82	0.0878747
5398.46	0.0923672
5381.1	0.110431
5363.74	0.0865491
5346.38	0.0851147
5329.02	0.0675607
5311.66	0.062234
5294.3	0.0630546
5276.94	0.0499291
5259.58	0.0425294
5242.22	0.0497519
5224.86	0.0463274
5207.5	0.054573
5190.14	0.0509716
5172.78	0.0470924
5155.42	0.0809051
5138.06	0.0928465
5120.7	0.106441
5103.34	0.101042
5085.98	0.112837
5068.62	0.0939258
5051.26	0.0830912
5033.9	0.0655284
5016.54	0.0608858
4999.18	0.106245
4981.82	0.0871903
4964.46	0.10499
4947.1	0.061866
4929.74	0.0903397
4912.38	0.0969751
4895.02	0.0760762
4877.66	0.0768332
4860.3	0.0698318
4842.94	0.140396
4825.58	0.0985096
4808.22	0.0598931
4790.86	0.0624381
4773.51	0.0610642
4756.15	0.0727479
4738.79	0.0765127
4721.43	0.0586636
4704.07	0.046388
4686.71	0.0636064
4669.35	0.043838
4651.99	0.0395589
4634.63	0.0321906
4617.27	0.0309543
4599.91	0.0506697
4582.55	0.0443563
4565.19	0.0455008
4547.83	0.0448015
4530.47	0.0429506
4513.11	0.0386969
4495.75	0.0405044
4478.39	0.027935
4461.03	0.0369525
4443.67	0.0320042
4426.31	0.0302078
4408.95	0.0236415
4391.59	0.0881965
4374.23	0.0551282
4356.87	0.0438899
4339.51	0.0434116
4322.15	0.0355507
4304.79	0.0631531
4287.43	0.0528809
4270.07	0.0526951
4252.71	0.0543084
4235.35	0.04899
4217.99	0.0502722
4200.63	0.0572849
4183.27	0.046867
4165.91	0.0516921
4148.55	0.0526016
4131.19	0.0459739
4113.83	0.101694
4096.47	0.0646863
4079.11	0.102023
4061.75	0.112
4044.39	0.56749
4027.03	0.522704
4009.67	0.470217
3992.31	0.552639
3974.95	0.489799
3957.59	0.451613
3940.23	0.50312
3922.87	0.510712
3905.52	0.511087
3888.16	0.560049
3870.8	0.571046
3853.44	0.552532
3836.08	0.558494
3818.72	0.483793
3801.36	0.533719
3784	0.529752
3766.64	0.561142
3749.28	0.640934
3731.92	0.662484
3714.56	0.67842
3697.2	0.692848
3679.84	0.68059
3662.48	0.699994
3645.12	0.708997
3627.76	0.697337
3610.4	0.732537
3593.04	0.733127
3575.68	0.730519
3558.32	0.713037
3540.96	0.719472
3523.6	0.707935
3506.24	0.710993
3488.88	0.694047
3471.52	0.683463
3454.16	0.666585
3436.8	0.646076
3419.44	0.586453
3402.08	0.497922
3384.72	0.48711
3367.36	0.449843
3350	0.335788
3332.64	0.18619
3315.28	0.131278
3297.92	0.136738
3280.56	0.261612
3263.2	0.269429
3245.84	0.271345
3228.48	0.263561
3211.12	0.26435
3193.76	0.338041
3176.4	0.370751
3159.04	0.442535
3141.68	0.434101
3124.32	0.359606
3106.96	0.383789
3089.6	0.403182
3072.24	0.470901
3054.88	0.461344
3037.53	0.448001
3020.17	0.457724
3002.81	0.418961
2985.45	0.444956
2968.09	0.396954
2950.73	0.473908
2933.37	0.432112
2916.01	0.448934
2898.65	0.471415
2881.29	0.491975
2863.93	0.41415
2846.57	0.379131
2829.21	0.473714
2811.85	0.437573
2794.49	0.473623
2777.13	0.446749
2759.77	0.399344
2742.41	0.352772
2725.05	0.370316
2707.69	0.304243
2690.33	0.279073
2672.97	0.229335
2655.61	0.163842
2638.25	0.116117
2620.89	0.131756
2603.53	0.188363
2586.17	0.141312
2568.81	0.145657
2551.45	0.10683
2534.09	0.0640793
2516.73	0.0748531
2499.37	0.0735672
2482.01	0.102575
2464.65	0.103587
2447.29	0.0973762
2429.93	0.108966
2412.57	0.0753243
2395.21	0.0840476
2377.85	0.0786143
2360.49	0.104582
2343.13	0.0677769
2325.77	0.113742
2308.41	0.133602
2291.05	0.113983
2273.69	0.110931
2256.33	0.107994
2238.97	0.215759
2221.61	0.233244
2204.25	0.143462
2186.89	0.180248
2169.53	0.197684
2152.18	0.218671
2134.82	0.254033
2117.46	0.302678
2100.1	0.283846
2082.74	0.199062
2065.38	0.223447
2048.02	0.154523
2030.66	0.120264
2013.3	0.0476519
1995.94	0.104057
1978.58	0.113786
1961.22	0.0974654
1943.86	0.0942561
1926.5	0.104002
1909.14	0.0887399
1891.78	0.0763655
1874.42	0.0673629
1857.06	0.0625777
1839.7	0.0601795
1822.34	0.0449955
1804.98	0.0441805
1787.62	0.0453608
1770.26	0.0499231
1752.9	0.0513874
1735.54	0.0544184
1718.18	0.0526065
1700.82	0.0776583
1683.46	0.109311
1666.1	0.0997723
1648.74	0.101416
1631.38	0.127981
1614.02	0.0820335
1596.66	0.0702958
1579.3	0.0591802
1561.94	0.0857714
1544.58	0.0842027
1527.22	0.0939129
1509.86	0.0875349
1492.5	0.052475
1475.14	0.098536
1457.78	0.0935755
1440.42	0.0584184
1423.06	0.0706375
1405.7	0.0735106
1388.34	0.150038
1370.98	0.0827209
1353.62	0.0494786
1336.26	0.0553421
1318.9	0.060526
1301.54	0.069039
1284.19	0.0536339
1266.83	0.0555099
1249.47	0.0480573
1232.11	0.054728
1214.75	0.0460496
1197.39	0.0363419
1180.03	0.0302985
1162.67	0.0901585
1145.31	0.0459715
1127.95	0.0431729
1110.59	0.0441987
1093.23	0.0451897
1075.87	0.0403613
1058.51	0.0391979
1041.15	0.0382367
1023.79	0.0284496
1006.43	0.0302275
989.068	0.0342298
971.709	0.0278013
954.349	0.0322248
936.989	0.0640777
919.629	0.0503122
902.269	0.0380551
884.91	0.0405458
867.55	0.0311322
850.19	0.0531506
832.83	0.0531974
815.47	0.0474518
798.111	0.0552169
780.751	0.0399919
763.391	0.0538135
746.031	0.0472995
728.671	0.0590344
711.312	0.0384194
693.952	0.0550863
676.592	0.046373
659.232	0.0601344
641.872	0.0755482
624.513	0.122782
607.153	0.104602
