Infrared Spectrum: 1,2,4-Trichlorobenzene
Formula: C 6 H 3 Cl 3
CAS: 120-82-1
State: liquid
Instrument: Bruker Tensor 27 FTIR
Resolution: 0.4821395
Origin: Pacific Northwest National Laboratory Under IARPA Contract
1/CM	dispersion index
7797.62	1.54749
7779.06	1.54749
7760.5	1.54749
7741.94	1.54749
7723.38	1.54748
7704.81	1.54748
7686.25	1.54748
7667.69	1.54747
7649.13	1.54747
7630.57	1.54747
7612.01	1.54746
7593.44	1.54746
7574.88	1.54746
7556.32	1.54745
7537.76	1.54745
7519.2	1.54745
7500.64	1.54744
7482.07	1.54744
7463.51	1.54743
7444.95	1.54743
7426.39	1.54743
7407.83	1.54742
7389.26	1.54742
7370.7	1.54741
7352.14	1.54741
7333.58	1.5474
7315.02	1.5474
7296.46	1.5474
7277.89	1.54739
7259.33	1.54739
7240.77	1.54738
7222.21	1.54738
7203.65	1.54737
7185.09	1.54736
7166.52	1.54736
7147.96	1.54735
7129.4	1.54735
7110.84	1.54734
7092.28	1.54733
7073.71	1.54733
7055.15	1.54732
7036.59	1.54731
7018.03	1.5473
6999.47	1.54729
6980.91	1.54728
6962.34	1.54726
6943.78	1.54724
6925.22	1.54722
6906.66	1.54731
6888.1	1.54734
6869.54	1.54732
6850.97	1.54728
6832.41	1.54728
6813.85	1.54726
6795.29	1.54725
6776.73	1.54724
6758.16	1.54724
6739.6	1.54723
6721.04	1.54722
6702.48	1.5472
6683.92	1.54719
6665.36	1.54719
6646.79	1.54718
6628.23	1.54717
6609.67	1.54716
6591.11	1.54715
6572.55	1.54714
6553.99	1.54712
6535.42	1.54711
6516.86	1.5471
6498.3	1.54709
6479.74	1.54708
6461.18	1.54707
6442.61	1.54705
6424.05	1.54704
6405.49	1.54702
6386.93	1.54701
6368.37	1.54699
6349.81	1.54698
6331.24	1.54696
6312.68	1.54694
6294.12	1.54692
6275.56	1.54689
6257	1.54686
6238.44	1.5468
6219.87	1.54688
6201.31	1.54694
6182.75	1.54687
6164.19	1.54686
6145.63	1.54683
6127.06	1.54679
6108.5	1.54679
6089.94	1.54674
6071.38	1.5467
6052.82	1.54672
6034.26	1.54665
6015.69	1.54659
5997.13	1.54659
5978.57	1.54662
5960.01	1.54646
5941.45	1.54691
5922.89	1.54665
5904.32	1.54658
5885.76	1.54652
5867.2	1.54649
5848.64	1.54643
5830.08	1.54658
5811.51	1.54645
5792.95	1.54634
5774.39	1.54652
5755.83	1.54637
5737.27	1.54635
5718.71	1.54629
5700.14	1.54622
5681.58	1.54615
5663.02	1.5461
5644.46	1.54604
5625.9	1.54599
5607.34	1.5459
5588.77	1.54582
5570.21	1.54572
5551.65	1.54561
5533.09	1.54548
5514.53	1.54526
5495.96	1.54497
5477.4	1.54447
5458.84	1.54401
5440.28	1.54891
5421.72	1.54721
5403.16	1.54652
5384.59	1.5462
5366.03	1.54595
5347.47	1.54583
5328.91	1.54551
5310.35	1.54492
5291.79	1.54575
5273.22	1.54528
5254.66	1.54485
5236.1	1.54517
5217.54	1.54506
5198.98	1.54496
5180.41	1.54478
5161.85	1.5445
5143.29	1.54454
5124.73	1.54428
5106.17	1.54398
5087.61	1.54386
5069.04	1.54364
5050.48	1.54346
5031.92	1.54367
5013.36	1.54329
4994.8	1.54284
4976.24	1.54259
4957.67	1.54242
4939.11	1.5419
4920.55	1.5415
4901.99	1.54097
4883.43	1.54028
4864.86	1.53963
4846.3	1.53747
4827.74	1.53951
4809.18	1.53763
4790.62	1.53591
4772.06	1.53548
4753.49	1.53661
4734.93	1.53285
4716.37	1.52815
4697.81	1.52133
4679.25	1.53868
4660.69	1.52573
4642.12	1.50401
4623.56	1.68631
4605	1.57625
4586.44	1.53701
4567.88	1.56171
4549.31	1.54853
4530.75	1.53909
4512.19	1.54586
4493.63	1.5303
4475.07	1.51792
4456.51	1.54637
4437.94	1.59052
4419.38	1.47837
4400.82	1.57241
4382.26	1.55386
4363.7	1.54381
4345.14	1.51784
4326.57	1.56455
4308.01	1.32586
4289.45	1.61429
4270.89	1.58014
4252.33	1.56362
4233.76	1.58597
4215.2	1.55664
4196.64	1.52462
4178.08	1.58576
4159.52	1.58619
4140.96	1.56882
4122.39	1.53896
4103.83	1.58284
4085.27	1.08391e-05
4066.71	1.04124e-05
4048.15	1.04124e-05
4029.58	1.00554e-05
4011.02	9.84123e-06
3992.46	1.04838e-05
3973.9	1.03045e-05
3955.34	1.02331e-05
3936.78	1.01268e-05
3918.21	1.00554e-05
3899.65	1.00189e-05
3881.09	9.73496e-06
3862.53	9.87776e-06
3843.97	9.73496e-06
3825.41	9.59217e-06
3806.84	9.41284e-06
3788.28	9.62704e-06
3769.72	9.84123e-06
3751.16	9.30658e-06
3732.6	9.23518e-06
3714.03	8.94959e-06
3695.47	8.8068e-06
3676.91	8.98612e-06
3658.35	8.91472e-06
3639.79	1.08757e-05
3621.23	1.05552e-05
3602.66	9.84123e-06
3584.1	9.30658e-06
3565.54	8.12935e-06
3546.98	8.87819e-06
3528.42	6.91725e-06
3509.86	5.81142e-06
3491.29	5.52749e-06
3472.73	5.13398e-06
3454.17	5.02771e-06
3435.61	5.70516e-06
3417.05	3.77908e-06
3398.48	3.05515e-06
3379.92	2.69982e-06
3361.36	2.29966e-06
3342.8	3.08836e-06
3324.24	6.59679e-06
3305.68	6.02561e-06
3287.11	8.70053e-06
3268.55	1.94334e-05
3249.99	7.98722e-05
3231.43	0.000129435
3212.87	0.000502763
3194.31	0.000293457
3175.74	7.52363e-05
3157.18	3.20907e-05
3138.62	4.3501e-05
3120.06	1.08043e-05
3101.5	2.36757e-05
3082.93	2.85972e-05
3064.37	2.03964e-05
3045.81	1.70075e-05
3027.25	1.56527e-05
3008.69	2.83099e-06
2990.13	1.56892e-05
2971.56	1.75073e-05
2953	1.30508e-05
2934.44	1.53687e-05
2915.88	1.06963e-05
2897.32	3.11658e-06
2878.76	8.45147e-06
2860.19	6.09701e-06
2841.63	7.20284e-06
2823.07	6.09701e-06
2804.51	5.52749e-06
2785.95	4.56446e-06
2767.38	7.13145e-06
2748.82	4.92144e-06
2730.26	3.60142e-06
2711.7	1.53754e-06
2693.14	4.35026e-06
2674.58	6.84586e-06
2656.01	6.3826e-06
2637.45	4.35026e-06
2618.89	5.81142e-06
2600.33	1.44771e-05
2581.77	8.84332e-06
2563.21	2.65283e-05
2544.64	8.84299e-05
2526.08	0.000591905
2507.52	0.000193261
2488.96	0.000127652
2470.4	0.000111249
2451.83	3.60142e-05
2433.27	5.27727e-05
2414.71	5.27727e-05
2396.15	3.095e-05
2377.59	6.52523e-05
2359.03	0.000232126
2340.46	4.52843e-05
2321.9	0.000175432
2303.34	0.000355857
2284.78	0.000570511
2266.22	0.000255661
2247.66	0.00165805
2229.09	9.12825e-05
2210.53	0.000149759
2191.97	8.77159e-05
2173.41	0.000377963
2154.85	0.000273132
2136.28	0.000402924
2117.72	5.88332e-05
2099.16	5.66946e-05
2080.6	0.00122303
2062.04	5.24157e-05
2043.48	0.000235336
2024.91	0.000166162
2006.35	4.17194e-05
1987.79	4.3501e-05
1969.23	0.000120878
1950.67	9.05685e-05
1932.11	8.70036e-05
1913.54	5.49113e-05
1894.98	7.4167e-05
1876.42	5.95472e-05
1857.86	0.000156535
1839.3	0.000199322
1820.73	0.000189695
1802.17	0.000531289
1783.61	0.00122303
1765.05	0.00367267
1746.49	0.0188269
1727.93	0.00261722
1709.36	0.00140132
1690.8	0.00043145
1672.24	0.000670351
1653.68	0.000300945
1635.12	9.34211e-05
1616.56	0.000459974
1597.99	0.00116598
1579.43	5.99041e-05
1560.87	0.000339098
1542.31	0.000763058
1523.75	0.000809413
1505.18	0.000609734
1486.62	0.000170441
1468.06	0.000190764
1449.5	0.000545551
1430.94	0.000113032
1412.38	0.000191835
1393.81	0.000752362
1375.25	0.000823676
1356.69	6.56093e-05
1338.13	0.00140845
1319.57	0.000330183
1301.01	0.000127652
1282.44	0.000243894
1263.88	0.000866465
1245.32	3.77958e-05
1226.76	0.000274915
1208.2	7.63056e-05
1189.63	0.000349438
1171.07	0.000602603
1152.51	0.00193617
1133.95	0.00210376
1115.39	0.00130504
1096.83	0.000427883
1078.26	0.0105188
1059.7	0.0058834
1041.14	0.00172223
1022.58	0.00203958
1004.02	0.00602602
985.455	0.15903
966.894	0.00230344
948.332	0.0374398
929.77	1.08041
911.208	0.0766625
892.647	0.0816544
874.085	0.0134783
855.523	0.00101622
836.961	0.00499197
818.399	0.0279907
799.838	0.00112319
781.276	0.0189695
762.714	0.224995
744.152	0.155821
725.591	0.0128008
707.029	0.00887858
688.467	0.00144767
669.905	0.0113746
651.344	0.00370832
632.782	0.402924
614.22	0.0645391
595.658	0.0377964
577.096	0.00517026
558.535	0.00101622
539.973	0.0602603
521.411	0.000852202
502.849	0.00481369
484.288	0.264575
465.726	0.00134427
447.164	0.000966303
428.602	0.142271
410.041	0.00816544
