Infrared Spectrum: 1-Chloro-3-nitrobenzene
Formula: C 6 H 4 Cl N O 2
CAS: 121-73-3
State: solid
Instrument: Bruker Tensor 37 FTIR
Resolution: 0.96450084
Origin: Pacific Northwest National Laboratory Under IARPA Contract
1/cm	Reflectance
7498.03	0.739547
7480.67	0.740529
7463.31	0.732994
7445.95	0.731379
7428.59	0.738683
7411.23	0.730274
7393.87	0.733773
7376.51	0.732304
7359.15	0.727629
7341.79	0.721882
7324.43	0.70947
7307.07	0.71063
7289.71	0.717052
7272.35	0.722792
7254.99	0.723796
7237.63	0.726515
7220.27	0.715968
7202.91	0.7301
7185.55	0.725693
7168.19	0.73085
7150.83	0.726812
7133.47	0.738038
7116.11	0.729217
7098.75	0.738837
7081.39	0.741771
7064.03	0.745113
7046.67	0.746782
7029.31	0.747405
7011.96	0.743722
6994.6	0.741624
6977.24	0.741591
6959.88	0.740792
6942.52	0.74696
6925.16	0.743222
6907.8	0.725559
6890.44	0.705913
6873.08	0.70599
6855.72	0.677468
6838.36	0.625529
6821	0.553353
6803.64	0.424761
6786.28	0.290619
6768.92	0.41248
6751.56	0.402505
6734.2	0.490059
6716.84	0.537717
6699.48	0.612998
6682.12	0.636445
6664.76	0.636757
6647.4	0.641415
6630.04	0.659239
6612.68	0.643261
6595.32	0.641809
6577.96	0.656382
6560.6	0.64706
6543.24	0.68183
6525.88	0.681126
6508.52	0.661589
6491.16	0.678914
6473.8	0.658616
6456.44	0.638655
6439.08	0.684966
6421.72	0.673878
6404.36	0.675055
6387	0.67671
6369.64	0.655006
6352.28	0.674553
6334.92	0.677557
6317.56	0.686271
6300.2	0.685
6282.84	0.674872
6265.48	0.68327
6248.12	0.680981
6230.76	0.672569
6213.4	0.673737
6196.04	0.647148
6178.68	0.642225
6161.32	0.639138
6143.97	0.621306
6126.61	0.578133
6109.25	0.453732
6091.89	0.270547
6074.53	0.281263
6057.17	0.402664
6039.81	0.440639
6022.45	0.373597
6005.09	0.41486
5987.73	0.501529
5970.37	0.441773
5953.01	0.404207
5935.65	0.337147
5918.29	0.451811
5900.93	0.444311
5883.57	0.335518
5866.21	0.32029
5848.85	0.273905
5831.49	0.221229
5814.13	0.35001
5796.77	0.203861
5779.41	0.293982
5762.05	0.343062
5744.69	0.355748
5727.33	0.332482
5709.97	0.38278
5692.61	0.420162
5675.25	0.339107
5657.89	0.379434
5640.53	0.44533
5623.17	0.31222
5605.81	0.441991
5588.45	0.359547
5571.09	0.417537
5553.73	0.398806
5536.37	0.368342
5519.01	0.326191
5501.65	0.283618
5484.29	0.259007
5466.93	0.237647
5449.57	0.235628
5432.21	0.225809
5414.85	0.221378
5397.49	0.210319
5380.13	0.20675
5362.77	0.198001
5345.41	0.145541
5328.05	0.119155
5310.69	0.0923447
5293.33	0.0728423
5275.97	0.125776
5258.62	0.126768
5241.26	0.166976
5223.9	0.178944
5206.54	0.190846
5189.18	0.11417
5171.82	0.161544
5154.46	0.184051
5137.1	0.214856
5119.74	0.234615
5102.38	0.160878
5085.02	0.278939
5067.66	0.304088
5050.3	0.226838
5032.94	0.245166
5015.58	0.257831
4998.22	0.343794
4980.86	0.223089
4963.5	0.235959
4946.14	0.246892
4928.78	0.248781
4911.42	0.250602
4894.06	0.29004
4876.7	0.282404
4859.34	0.297835
4841.98	0.377639
4824.62	0.343204
4807.26	0.391416
4789.9	0.311883
4772.54	0.387269
4755.18	0.302461
4737.82	0.24897
4720.46	0.35684
4703.1	0.237991
4685.74	0.234149
4668.38	0.207495
4651.02	0.186579
4633.66	0.167469
4616.3	0.0878853
4598.94	0.124163
4581.58	0.1465
4564.22	0.0798533
4546.86	0.06863
4529.5	0.0567714
4512.14	0.0594239
4494.78	0.0853053
4477.42	0.0612026
4460.06	0.0609221
4442.7	0.0813139
4425.34	0.126912
4407.98	0.0748037
4390.63	0.110494
4373.27	0.135493
4355.91	0.17825
4338.55	0.151833
4321.19	0.126314
4303.83	0.0920428
4286.47	0.0787189
4269.11	0.148855
4251.75	0.0884317
4234.39	0.216542
4217.03	0.195565
4199.67	0.0835313
4182.31	0.131236
4164.95	0.148496
4147.59	0.0950087
4130.23	0.0967177
4112.87	0.111927
4095.51	0.194635
4078.15	0.0761277
4060.79	0.267107
4043.43	0.736458
4026.07	0.738888
4008.71	0.732761
3991.35	0.729437
3973.99	0.735458
3956.63	0.733886
3939.27	0.738421
3921.91	0.738015
3904.55	0.725667
3887.19	0.726709
3869.83	0.702602
3852.47	0.719535
3835.11	0.723683
3817.75	0.721417
3800.39	0.724951
3783.03	0.729359
3765.67	0.725096
3748.31	0.732911
3730.95	0.728279
3713.59	0.732776
3696.23	0.735254
3678.87	0.734823
3661.51	0.739132
3644.15	0.740352
3626.79	0.742123
3609.43	0.745013
3592.07	0.749769
3574.71	0.749056
3557.35	0.742092
3539.99	0.744214
3522.64	0.745802
3505.28	0.743905
3487.92	0.748307
3470.56	0.740912
3453.2	0.721676
3435.84	0.706524
3418.48	0.705221
3401.12	0.664421
3383.76	0.62226
3366.4	0.510443
3349.04	0.416479
3331.68	0.357514
3314.32	0.411008
3296.96	0.455855
3279.6	0.508006
3262.24	0.584597
3244.88	0.63464
3227.52	0.641633
3210.16	0.635843
3192.8	0.660647
3175.44	0.664889
3158.08	0.639329
3140.72	0.661801
3123.36	0.66101
3106	0.664649
3088.64	0.688571
3071.28	0.68396
3053.92	0.66221
3036.56	0.681191
3019.2	0.659213
3001.84	0.651911
2984.48	0.691267
2967.12	0.676603
2949.76	0.686627
2932.4	0.680248
2915.04	0.658988
2897.68	0.690079
2880.32	0.680461
2862.96	0.693485
2845.6	0.687165
2828.24	0.681007
2810.88	0.689288
2793.52	0.682446
2776.16	0.68253
2758.8	0.67545
2741.44	0.651306
2724.08	0.631444
2706.72	0.642528
2689.36	0.613336
2672	0.549219
2654.64	0.387662
2637.29	0.315129
2619.93	0.341528
2602.57	0.426781
2585.21	0.406693
2567.85	0.406095
2550.49	0.469542
2533.13	0.503243
2515.77	0.465543
2498.41	0.377291
2481.05	0.350721
2463.69	0.472484
2446.33	0.425255
2428.97	0.345947
2411.61	0.265637
2394.25	0.293332
2376.89	0.244682
2359.53	0.330338
2342.17	0.210697
2324.81	0.351494
2307.45	0.359403
2290.09	0.360789
2272.73	0.381625
2255.37	0.381451
2238.01	0.481218
2220.65	0.407574
2203.29	0.451414
2185.93	0.372585
2168.57	0.36751
2151.21	0.426643
2133.85	0.46195
2116.49	0.410455
2099.13	0.395368
2081.77	0.37033
2064.41	0.310359
2047.05	0.269688
2029.69	0.270341
2012.33	0.249188
1994.97	0.240454
1977.61	0.225953
1960.25	0.227171
1942.89	0.214721
1925.53	0.218248
1908.17	0.19068
1890.81	0.137244
1873.45	0.125517
1856.09	0.0599219
1838.73	0.078642
1821.37	0.135743
1804.01	0.178773
1786.65	0.18292
1769.3	0.146496
1751.94	0.176896
1734.58	0.0917231
1717.22	0.223872
1699.86	0.238093
1682.5	0.235771
1665.14	0.166074
1647.78	0.168976
1630.42	0.291548
1613.06	0.287426
1595.7	0.216373
1578.34	0.26262
1560.98	0.289761
1543.62	0.222408
1526.26	0.275837
1508.9	0.222862
1491.54	0.356505
1474.18	0.237673
1456.82	0.384608
1439.46	0.322129
1422.1	0.299331
1404.74	0.281614
1387.38	0.368269
1370.02	0.347931
1352.66	0.349902
1335.3	0.388997
1317.94	0.429547
1300.58	0.163737
1283.22	0.301208
1265.86	0.249003
1248.5	0.229938
1231.14	0.309589
1213.78	0.239816
1196.42	0.190336
1179.06	0.223814
1161.7	0.153654
1144.34	0.154031
1126.98	0.124823
1109.62	0.0837011
1092.26	0.0658534
1074.9	0.0979002
1057.54	0.0721834
1040.18	0.0873608
1022.82	0.0828599
1005.46	0.0724165
988.104	0.0703258
970.744	0.0648754
953.384	0.0794571
936.025	0.0744675
918.665	0.0830511
901.305	0.20925
883.945	0.0920419
866.585	0.0586285
849.226	0.0952259
831.866	0.0560401
814.506	0.179781
797.146	0.110042
779.786	0.22116
762.427	0.145166
745.067	0.068426
727.707	0.158538
710.347	0.0667851
692.987	0.139888
675.628	0.0743634
658.268	0.131672
640.908	0.176184
623.548	0.164837
606.188	0.264012
