Infrared Spectrum: BICYCLO[2.2.1]HEPTA-2,5-DIENE
Formula: C7 H8
CAS: 121-46-0
State: SOLUTION (10% IN CCl4 FOR 4000-1250 CM^-^1, 10% IN CS2 FOR 1250-450 CM^-^1) VS. SOLVENT
Class: COBLENTZ III
Instrument: CARY 90 (GRATING)
Instrument parameters: GRATING CHANGES AT 3000, 2000, 1200 CM^-^1
Sampling: TRANSMISSION
Path length: 0.011 CM, 0.01 CM
Resolution: 4
Origin: WESTERN REGIONAL RES. USDA
1/CM	TRANSMITTANCE
470.518	0.8
479.452	0.791
488.386	0.762
497.32	0.464
506.254	0.716
515.187	0.797
524.121	0.826
533.055	0.798
541.989	0.759
550.923	0.844
559.857	0.863
568.791	0.871
577.725	0.877
586.659	0.878
595.592	0.88
604.526	0.871
613.46	0.859
622.394	0.846
631.328	0.805
640.262	0.699
649.196	0.291
658.13	0.004
667.064	0.672
675.998	0.778
684.931	0.808
693.865	0.8
702.799	0.709
711.733	0.564
720.667	0.154
729.601	0.034
738.535	0.587
747.469	0.755
756.403	0.8
765.336	0.81
774.27	0.806
783.204	0.807
792.138	0.545
801.072	0.635
810.006	0.846
818.94	0.868
827.874	0.878
836.808	0.884
845.741	0.864
854.675	0.801
863.609	0.604
872.543	0.253
881.477	0.65
890.411	0.586
899.345	0.759
908.279	0.664
917.213	0.8
926.147	0.751
935.08	0.5101
944.014	0.816
952.948	0.849
961.882	0.868
970.816	0.877
979.75	0.875
988.684	0.876
997.618	0.867
1006.55	0.849
1015.49	0.781
1024.42	0.864
1033.35	0.868
1042.29	0.86
1051.22	0.841
1060.15	0.772
1069.09	0.836
1078.02	0.827
1086.96	0.816
1095.89	0.788
1104.82	0.749
1113.76	0.807
1122.69	0.831
1131.63	0.837
1140.56	0.729
1149.49	0.792
1158.43	0.857
1167.36	0.87
1176.3	0.868
1185.23	0.856
1194.16	0.777
1203.1	0.51
1212.03	0.767
1220.96	0.638
1229.9	0.645
1238.83	0.808
1247.77	0.806
1256.7	0.827
1265.63	0.769
1274.57	0.831
1283.5	0.834
1292.44	0.796
1301.37	0.561
1310.3	0.075
1319.24	0.59
1328.17	0.694
1337.11	0.717
1346.04	0.842
1354.97	0.875
1363.91	0.878
1372.84	0.878
1381.78	0.847
1390.71	0.858
1399.64	0.877
1408.58	0.883
1417.51	0.885
1426.44	0.88
1435.38	0.865
1444.31	0.736
1453.25	0.86
1462.18	0.885
1471.11	0.89
1480.05	0.881
1488.98	0.89
1497.92	0.878
1506.85	0.869
1515.78	0.861
1524.72	0.801
1533.65	0.702
1542.59	0.1671
1551.52	0.73
1560.45	0.768
1569.39	0.819
1578.32	0.84
1587.25	0.858
1596.19	0.83
1605.12	0.873
1614.06	0.879
1622.99	0.869
1631.92	0.842
1640.86	0.771
1649.79	0.877
1658.73	0.891
1667.66	0.883
1676.59	0.878
1685.53	0.885
1694.46	0.891
1703.4	0.886
1712.33	0.886
1721.26	0.88
1730.2	0.874
1739.13	0.867
1748.06	0.861
1757	0.855
1765.93	0.855
1774.87	0.859
1783.8	0.864
1792.73	0.869
1801.67	0.875
1810.6	0.883
1819.54	0.889
1828.47	0.894
1837.4	0.895
1846.34	0.899
1855.27	0.9
1864.21	0.898
1873.14	0.895
1882.07	0.899
1891.01	0.905
1899.94	0.906
1908.87	0.905
1917.81	0.903
1926.74	0.902
1935.68	0.903
1944.61	0.899
1953.54	0.896
1962.48	0.893
1971.41	0.894
1980.35	0.896
1989.28	0.898
1998.21	0.9
2007.15	0.902
2016.08	0.902
2025.02	0.9029
2033.95	0.904
2042.88	0.905
2051.82	0.906
2060.75	0.908
2069.68	0.909
2078.62	0.908
2087.55	0.907
2096.49	0.906
2105.42	0.905
2114.35	0.903
2123.29	0.902
2132.22	0.9009
2141.16	0.903
2150.09	0.904
2159.02	0.905
2167.96	0.9063
2176.89	0.9073
2185.83	0.91
2194.76	0.913
2203.69	0.914
2212.63	0.915
2221.56	0.915
2230.49	0.915
2239.43	0.915
2248.36	0.915
2257.3	0.915
2266.23	0.915
2275.16	0.915
2284.1	0.914
2293.03	0.914
2301.97	0.914
2310.9	0.914
2319.83	0.913
2328.77	0.91
2337.7	0.9113
2346.64	0.9136
2355.57	0.9156
2364.5	0.917
2373.44	0.917
2382.37	0.917
2391.3	0.9156
2400.24	0.9146
2409.17	0.913
2418.11	0.912
2427.04	0.91
2435.97	0.91
2444.91	0.912
2453.84	0.914
2462.78	0.916
2471.71	0.917
2480.64	0.9181
2489.58	0.92
2498.51	0.922
2507.45	0.923
2516.38	0.9202
2525.31	0.92
2534.25	0.919
2543.18	0.918
2552.11	0.918
2561.05	0.918
2569.98	0.918
2578.92	0.918
2587.85	0.919
2596.78	0.9184
2605.72	0.918
2614.65	0.917
2623.59	0.917
2632.52	0.917
2641.45	0.917
2650.39	0.9174
2659.32	0.918
2668.26	0.9183
2677.19	0.919
2686.12	0.9192
2695.06	0.92
2703.99	0.918
2712.92	0.918
2721.86	0.918
2730.79	0.918
2739.73	0.917
2748.66	0.916
2757.59	0.915
2766.53	0.915
2775.46	0.9131
2784.4	0.9103
2793.33	0.9082
2802.26	0.9062
2811.2	0.904
2820.13	0.8993
2829.07	0.8911
2838	0.8822
2846.93	0.8577
2855.87	0.7885
2864.8	0.3813
2873.74	0.3751
2882.67	0.8084
2891.6	0.8426
2900.54	0.8244
2909.47	0.7944
2918.4	0.7049
2927.34	0.4021
2936.27	0.1741
2945.21	0.293
2954.14	0.432
2963.07	0.2299
2972.01	0.093
2980.94	0.0827
2989.88	0.045
2998.81	0.0952
3007.74	0.3475
3016.68	0.5749
3025.61	0.6785
3034.55	0.7465
3043.48	0.7561
3052.41	0.6944
3061.35	0.4051
3070.28	0.3074
3079.21	0.4851
3088.15	0.704
3097.08	0.6723
3106.02	0.78
3114.95	0.7102
3123.88	0.6439
3132.82	0.8264
3141.75	0.8648
3150.69	0.8807
3159.62	0.8946
3168.55	0.9085
3177.49	0.9122
3186.42	0.915
3195.36	0.915
3204.29	0.915
3213.22	0.916
3222.16	0.916
3231.09	0.916
3240.02	0.916
3248.96	0.917
3257.89	0.9179
3266.83	0.918
3275.76	0.918
3284.69	0.918
3293.63	0.918
3302.56	0.918
3311.5	0.918
3320.43	0.918
3329.36	0.918
3338.3	0.917
3347.23	0.9165
3356.17	0.916
3365.1	0.915
3374.03	0.914
3382.97	0.913
3391.9	0.9126
3400.83	0.91
3409.77	0.909
3418.7	0.907
3427.64	0.907
3436.57	0.9058
3445.5	0.9038
3454.44	0.8989
3463.37	0.896
3472.31	0.895
3481.24	0.896
3490.17	0.898
3499.11	0.9
3508.04	0.9
3516.98	0.9
3525.91	0.8992
3534.84	0.899
3543.78	0.899
3552.71	0.899
3561.64	0.899
3570.58	0.899
3579.51	0.899
3588.45	0.899
3597.38	0.9
3606.31	0.902
3615.25	0.903
3624.18	0.9034
3633.12	0.905
3642.05	0.907
3650.98	0.9083
3659.92	0.91
3668.85	0.912
3677.79	0.913
3686.72	0.913
3695.65	0.913
3704.59	0.913
3713.52	0.9129
3722.45	0.91
3731.39	0.909
3740.32	0.906
3749.26	0.9031
3758.19	0.8981
3767.12	0.8941
3776.06	0.8882
3784.99	0.884
3793.93	0.8875
3802.86	0.8984
3811.79	0.9077
3820.73	0.9094
3829.66	0.9074
3838.6	0.905
3847.53	0.9009
3856.46	0.8965
3865.4	0.8921
3874.33	0.889
3883.26	0.89
3892.2	0.891
3901.13	0.8933
3910.07	0.895
3919	0.895
3927.93	0.895
3936.87	0.8952
3945.8	0.896
3954.74	0.8961
3963.67	0.897
3972.6	0.897
3981.54	0.898
3990.47	0.898
3999.41	0.898
4008.34	0.899
4017.27	0.899
