Infrared Spectrum: Benzene, 1-chloro-3-nitro-
Formula: C6 H4 Cl N O2
CAS: 121-73-3
State: SOLUTION (2% CCl4 FOR 3800-1330, 2% CS2 FOR 1330-400)
Class: COBLENTZ III
Instrument: BECKMAN IR-9 (GRATING)
Instrument parameters: ORDER CHANGES: 670, 1200, 2000 CM^-^1
Sampling: TRANSMISSION
Path length: 0.010 CM, 0.011 CM
Resolution: 2
Origin: DOW CHEMICAL COMPANY
1/CM	TRANSMITTANCE
3812	0.9202
3803	0.9216
3794	0.9217
3785	0.922
3776	0.9224
3767	0.9223
3758	0.9221
3749	0.9219
3740	0.9217
3731	0.9228
3722	0.9228
3713	0.9226
3704	0.9239
3695	0.9226
3686	0.9213
3677	0.9213
3668	0.9214
3659	0.9214
3650	0.9215
3641	0.9214
3632	0.9225
3623	0.9223
3614	0.9222
3605	0.9221
3596	0.9221
3587	0.9221
3578	0.9221
3569	0.9206
3560	0.9205
3551	0.9216
3542	0.9213
3533	0.9208
3524	0.919
3515	0.9186
3506	0.9181
3497	0.9176
3488	0.9172
3479	0.9168
3470	0.9164
3461	0.9158
3452	0.9155
3443	0.9153
3434	0.9153
3425	0.9141
3416	0.9151
3407	0.9157
3398	0.9152
3389	0.9155
3380	0.9159
3371	0.9161
3362	0.9165
3353	0.9168
3344	0.9185
3335	0.9177
3326	0.9181
3317	0.9185
3308	0.9202
3299	0.9197
3290	0.9202
3281	0.9205
3272	0.922
3263	0.9223
3254	0.9222
3245	0.9206
3236	0.9201
3227	0.9179
3218	0.9163
3209	0.9151
3200	0.9132
3191	0.9135
3182	0.9113
3173	0.9108
3164	0.9109
3155	0.9092
3146	0.908
3137	0.9069
3128	0.8993
3119	0.8815
3110	0.8588
3101	0.8628
3092	0.8789
3083	0.8812
3074	0.9041
3065	0.9144
3056	0.9151
3047	0.9169
3038	0.925
3029	0.919
3020	0.9183
3011	0.9187
3002	0.918
2993	0.9193
2984	0.9202
2975	0.922
2966	0.9239
2957	0.9245
2948	0.9262
2939	0.9242
2930	0.9234
2921	0.9241
2912	0.9225
2903	0.9134
2894	0.9057
2885	0.9016
2876	0.9046
2867	0.9078
2858	0.9123
2849	0.9166
2840	0.9205
2831	0.9201
2822	0.9196
2813	0.919
2804	0.9201
2795	0.9199
2786	0.9184
2777	0.9194
2768	0.9192
2759	0.919
2750	0.9188
2741	0.9186
2732	0.9184
2723	0.9184
2714	0.9185
2705	0.9186
2696	0.9189
2687	0.9191
2678	0.9196
2669	0.9202
2660	0.9218
2651	0.924
2642	0.9246
2633	0.9244
2624	0.924
2615	0.9237
2606	0.9235
2597	0.9232
2588	0.9231
2579	0.9228
2570	0.9226
2561	0.9222
2552	0.922
2543	0.9217
2534	0.9215
2525	0.9213
2516	0.9209
2507	0.9206
2498	0.9204
2489	0.9201
2480	0.9215
2471	0.9217
2462	0.922
2453	0.9217
2444	0.9224
2435	0.9226
2426	0.9226
2417	0.9226
2408	0.9235
2399	0.9239
2390	0.9237
2381	0.9264
2372	0.9261
2363	0.9204
2354	0.922
2345	0.9205
2336	0.9157
2327	0.9171
2318	0.9182
2309	0.9171
2300	0.9159
2291	0.9163
2282	0.9146
2273	0.9151
2264	0.9164
2255	0.9194
2246	0.9212
2237	0.9236
2228	0.9235
2219	0.9225
2210	0.923
2201	0.9236
2192	0.9229
2183	0.9238
2174	0.925
2165	0.924
2156	0.9243
2147	0.9242
2138	0.9242
2129	0.9243
2120	0.9241
2111	0.9236
2102	0.9235
2093	0.923
2084	0.9228
2075	0.9224
2066	0.9221
2057	0.9218
2048	0.9211
2039	0.9201
2030	0.9191
2021	0.9186
2012	0.9165
2003	0.9138
1994	0.9105
1985	0.9135
1976	0.9129
1967	0.9125
1958	0.9064
1949	0.9065
1940	0.915
1931	0.9154
1922	0.9134
1913	0.9127
1904	0.9119
1895	0.8989
1886	0.9041
1877	0.9046
1868	0.9053
1859	0.9047
1850	0.9048
1841	0.905
1832	0.904
1823	0.904
1814	0.9052
1805	0.9057
1796	0.9074
1787	0.9035
1778	0.9018
1769	0.9082
1760	0.914
1751	0.9149
1742	0.9137
1733	0.91
1724	0.9034
1715	0.9058
1706	0.9084
1697	0.9076
1688	0.9068
1679	0.9067
1670	0.9067
1661	0.9036
1652	0.8981
1643	0.8976
1634	0.894
1625	0.8877
1616	0.8822
1607	0.8691
1598	0.8464
1589	0.8067
1580	0.723
1571	0.7556
1562	0.6621
1553	0.6283
1544	0.194
1535	0.2191
1526	0.3025
1517	0.5182
1508	0.7701
1499	0.827
1490	0.8522
1481	0.8711
1472	0.8306
1463	0.7867
1454	0.8547
1445	0.8906
1436	0.905
1427	0.8956
1418	0.9019
1409	0.9039
1400	0.8965
1391	0.8964
1382	0.9066
1373	0.8869
1364	0.7872
1355	0.5992
1346	0.1803
1337	0.674
1328	0.8604
1319	0.8942
1310	0.8901
1301	0.8531
1292	0.8892
1283	0.9058
1274	0.9156
1265	0.8498
1256	0.9222
1247	0.9332
1238	0.9346
1229	0.9333
1220	0.9292
1211	0.9314
1202	0.9346
1193	0.9348
1184	0.9337
1175	0.9226
1166	0.9057
1157	0.9074
1148	0.9059
1139	0.904
1130	0.8076
1121	0.8015
1112	0.9191
1103	0.9253
1094	0.8991
1085	0.92
1076	0.908
1067	0.8493
1058	0.8621
1049	0.9202
1040	0.9274
1031	0.9315
1022	0.9293
1013	0.9245
1004	0.9119
995	0.9229
986	0.9254
977	0.9226
968	0.9273
959	0.9295
950	0.9304
941	0.9289
932	0.9257
923	0.9141
914	0.8929
905	0.915
896	0.8947
887	0.666
878	0.6561
869	0.8661
860	0.8708
851	0.873
842	0.903
833	0.918
824	0.9232
815	0.9207
806	0.9025
797	0.8435
788	0.8962
779	0.9151
770	0.9151
761	0.8953
752	0.6225
743	0.7637
734	0.7548
725	0.8463
716	0.9011
707	0.9118
698	0.9193
689	0.9217
680	0.9076
671	0.8858
662	0.6902
653	0.87
644	0.8978
635	0.9114
626	0.9185
617	0.9238
608	0.9243
599	0.925
590	0.9266
581	0.9257
572	0.9255
563	0.9207
554	0.9127
545	0.9028
536	0.9012
527	0.8984
518	0.894
509	0.8793
500	0.8598
491	0.844
482	0.8334
473	0.8184
464	0.7928
455	0.7572
446	0.7179
437	0.6612
428	0.5356
419	0.3883
410	0.2831
401	0.3098
