Infrared Spectrum: VANILLIN
Formula: C8 H8 O3
CAS: 121-33-5
State: SOLID (KBr PELLET)
Class: COBLENTZ
Instrument: PERKIN-ELMER
Sampling: TRANSMISSION
Resolution: 4
Origin: PHILIP MORRIS, M. BALES
MICROMETERS	TRANSMITTANCE
2.027	0.512
2.06064	0.517
2.09429	0.522
2.12793	0.526
2.16158	0.526
2.19522	0.531
2.22887	0.538
2.26251	0.539
2.29616	0.544
2.3298	0.549
2.36345	0.556
2.39709	0.561
2.43074	0.563
2.46438	0.568
2.49803	0.57
2.53167	0.571
2.56532	0.576
2.59896	0.58
2.63261	0.582
2.66625	0.587
2.6999	0.59
2.73354	0.588
2.76719	0.573
2.80083	0.512
2.83447	0.421
2.86812	0.316
2.90176	0.262
2.93541	0.214
2.96905	0.197
3.0027	0.203
3.03634	0.226
3.06999	0.24
3.10363	0.247
3.13728	0.253
3.17092	0.262
3.20457	0.292
3.23821	0.313
3.27186	0.345
3.3055	0.384
3.33915	0.407
3.37279	0.434
3.40644	0.406
3.44008	0.406
3.47373	0.45
3.50737	0.492
3.54101	0.46
3.57466	0.468
3.6083	0.529
3.64195	0.553
3.67559	0.549
3.70924	0.556
3.74288	0.593
3.77653	0.61
3.81017	0.615
3.84382	0.624
3.87746	0.629
3.91111	0.629
3.94475	0.631
3.9784	0.632
4.01204	0.641
4.04569	0.648
4.07933	0.653
4.11298	0.661
4.14662	0.664
4.18027	0.668
4.21391	0.67
4.24756	0.69
4.2812	0.678
4.31484	0.675
4.34849	0.664
4.38213	0.668
4.41578	0.685
4.44942	0.69
4.48307	0.69
4.51671	0.692
4.55036	0.692
4.584	0.692
4.61765	0.693
4.65129	0.695
4.68494	0.695
4.71858	0.693
4.75223	0.688
4.78587	0.688
4.81952	0.686
4.85316	0.688
4.88681	0.688
4.92045	0.69
4.9541	0.69
4.98774	0.693
5.02139	0.693
5.05503	0.692
5.08867	0.695
5.12232	0.7
5.15596	0.705
5.18961	0.703
5.22325	0.707
5.2569	0.707
5.29054	0.705
5.32419	0.7
5.35783	0.707
5.39148	0.707
5.42512	0.714
5.45877	0.722
5.49241	0.719
5.52606	0.717
5.5597	0.715
5.59335	0.708
5.62699	0.708
5.66064	0.693
5.69428	0.693
5.72793	0.678
5.76157	0.663
5.79522	0.627
5.82886	0.553
5.8625	0.436
5.89615	0.189
5.92979	0.125
5.96344	0.077
5.99708	0.079
6.03073	0.208
6.06437	0.379
6.09802	0.46
6.13166	0.48
6.16531	0.48
6.19895	0.37
6.2326	0.142
6.26624	0.04
6.29989	0.038
6.33353	0.197
6.36718	0.406
6.40082	0.553
6.43447	0.578
6.46811	0.598
6.50176	0.541
6.5354	0.445
6.56904	0.189
6.60269	0.079
6.63633	0.184
6.66998	0.438
6.70362	0.561
6.73727	0.566
6.77091	0.48
6.80456	0.25
6.8382	0.25
6.87185	0.274
6.90549	0.362
6.93914	0.336
6.97278	0.187
7.00643	0.291
7.04007	0.406
7.07372	0.424
7.10736	0.379
7.14101	0.331
7.17465	0.338
7.2083	0.358
7.24194	0.346
7.27559	0.362
7.30923	0.419
7.34287	0.505
7.37652	0.563
7.41016	0.597
7.44381	0.61
7.47745	0.615
7.5111	0.598
7.54474	0.561
7.57839	0.5
7.61203	0.39
7.64568	0.231
7.67932	0.108
7.71297	0.038
7.74661	0.03
7.78026	0.037
7.8139	0.096
7.84755	0.098
7.88119	0.077
7.91484	0.074
7.94848	0.084
7.98213	0.164
8.01577	0.257
8.04942	0.324
8.08306	0.409
8.1167	0.451
8.15035	0.445
8.18399	0.392
8.21764	0.299
8.25128	0.241
8.28493	0.219
8.31857	0.228
8.35222	0.269
8.38586	0.28
8.41951	0.255
8.45315	0.216
8.4868	0.189
8.52044	0.167
8.55409	0.165
8.58773	0.162
8.62138	0.135
8.65502	0.098
8.68867	0.098
8.72231	0.241
8.75596	0.365
8.7896	0.401
8.82324	0.34
8.85689	0.225
8.89053	0.167
8.92418	0.172
8.95782	0.216
8.99147	0.236
9.02511	0.301
9.05876	0.379
9.0924	0.414
9.12605	0.436
9.15969	0.456
9.19334	0.473
9.22698	0.489
9.26063	0.504
9.29427	0.512
9.32792	0.524
9.36156	0.532
9.39521	0.538
9.42885	0.539
9.4625	0.536
9.49614	0.527
9.52979	0.516
9.56343	0.494
9.59707	0.456
9.63072	0.38
9.66436	0.285
9.69801	0.208
9.73165	0.192
9.7653	0.238
9.79894	0.289
9.83259	0.353
9.86623	0.412
9.89988	0.453
9.93352	0.5
9.96717	0.551
10.0008	0.585
10.0345	0.615
10.0681	0.644
10.1017	0.656
10.1354	0.67
10.169	0.678
10.2027	0.688
10.2363	0.693
10.27	0.693
10.3036	0.695
10.3373	0.692
10.3709	0.686
10.4045	0.671
10.4382	0.668
10.4718	0.668
10.5055	0.678
10.5391	0.681
10.5728	0.69
10.6064	0.692
10.6401	0.692
10.6737	0.688
10.7074	0.685
10.741	0.688
10.7746	0.695
10.8083	0.705
10.8419	0.707
10.8756	0.714
10.9092	0.719
10.9429	0.717
10.9765	0.722
11.0102	0.717
11.0438	0.717
11.0774	0.714
11.1111	0.712
11.1447	0.708
11.1784	0.705
11.212	0.697
11.2457	0.686
11.2793	0.676
11.313	0.661
11.3466	0.642
11.3802	0.619
11.4139	0.593
11.4475	0.561
11.4812	0.538
11.5148	0.522
11.5485	0.519
11.5821	0.524
11.6158	0.516
11.6494	0.507
11.6831	0.561
11.7167	0.592
11.7503	0.617
11.784	0.629
11.8176	0.631
11.8513	0.631
11.8849	0.615
11.9186	0.59
11.9522	0.561
11.9859	0.522
12.0195	0.477
12.0531	0.438
12.0868	0.406
12.1204	0.379
12.1541	0.357
12.1877	0.355
12.2214	0.355
12.255	0.368
12.2887	0.38
12.3223	0.406
12.3559	0.429
12.3896	0.446
12.4232	0.465
12.4569	0.475
12.4905	0.482
12.5242	0.487
12.5578	0.492
12.5915	0.499
12.6251	0.502
12.6587	0.509
12.6924	0.507
12.726	0.478
12.7597	0.431
12.7933	0.409
12.827	0.416
12.8606	0.483
12.8943	0.541
12.9279	0.576
12.9616	0.602
12.9952	0.615
13.0288	0.619
13.0625	0.62
13.0961	0.619
13.1298	0.617
13.1634	0.619
13.1971	0.615
13.2307	0.61
13.2644	0.609
13.298	0.604
13.3316	0.6
13.3653	0.595
13.3989	0.588
13.4326	0.571
13.4662	0.556
13.4999	0.534
13.5335	0.492
13.5672	0.436
13.6008	0.377
13.6344	0.301
13.6681	0.262
13.7017	0.258
13.7354	0.277
13.769	0.335
13.8027	0.399
13.8363	0.46
13.87	0.499
13.9036	0.521
13.9373	0.541
13.9709	0.548
14.0045	0.551
14.0382	0.551
14.0718	0.551
14.1055	0.551
14.1391	0.548
14.1728	0.544
14.2064	0.546
14.2401	0.541
14.2737	0.534
14.3073	0.534
14.341	0.532
14.3746	0.531
14.4083	0.527
14.4419	0.527
14.4756	0.526
14.5092	0.524
14.5429	0.517
14.5765	0.516
14.6101	0.516
14.6438	0.514
14.6774	0.512
14.7111	0.507
14.7447	0.505
14.7784	0.502
14.812	0.5
14.8457	0.494
14.8793	0.49
14.9129	0.483
14.9466	0.483
14.9802	0.49
15.0139	0.467
15.0475	0.456
15.0812	0.461
15.1148	0.461
15.1485	0.458
15.1821	0.455
15.2158	0.451
15.2494	0.446
15.283	0.443
