Infrared Spectrum: Triethyl phosphite
Formula: C 6 H 15 O 3 P
CAS: 122-52-1
State: liquid
Instrument: Bruker Tensor 27 FTIR
Resolution: 0.48212986
Origin: Pacific Northwest National Laboratory Under IARPA Contract
1/cm	dispersion index
7797.49	1.39835
7778.93	1.39835
7760.37	1.39834
7741.81	1.39833
7723.24	1.39832
7704.68	1.3983
7686.12	1.39829
7667.56	1.39828
7649	1.39827
7630.44	1.39826
7611.88	1.39824
7593.31	1.39823
7574.75	1.39822
7556.19	1.39821
7537.63	1.39819
7519.07	1.39818
7500.51	1.39817
7481.95	1.39816
7463.38	1.39815
7444.82	1.39814
7426.26	1.39812
7407.7	1.39811
7389.14	1.3981
7370.58	1.39808
7352.02	1.39806
7333.46	1.39805
7314.89	1.39803
7296.33	1.39802
7277.77	1.398
7259.21	1.39798
7240.65	1.39797
7222.09	1.39795
7203.53	1.39793
7184.96	1.39791
7166.4	1.39789
7147.84	1.39787
7129.28	1.39785
7110.72	1.39783
7092.16	1.39781
7073.6	1.39779
7055.03	1.39776
7036.47	1.39774
7017.91	1.39772
6999.35	1.39769
6980.79	1.39767
6962.23	1.39764
6943.67	1.39761
6925.1	1.39758
6906.54	1.39754
6887.98	1.39749
6869.42	1.39747
6850.86	1.39748
6832.3	1.39749
6813.74	1.39745
6795.17	1.39743
6776.61	1.39745
6758.05	1.39741
6739.49	1.39737
6720.93	1.39736
6702.37	1.39732
6683.81	1.39728
6665.25	1.39725
6646.68	1.39722
6628.12	1.39718
6609.56	1.39715
6591	1.39711
6572.44	1.39706
6553.88	1.39702
6535.32	1.39698
6516.75	1.39693
6498.19	1.39689
6479.63	1.39685
6461.07	1.3968
6442.51	1.39676
6423.95	1.39671
6405.39	1.39665
6386.82	1.3966
6368.26	1.39654
6349.7	1.39649
6331.14	1.39643
6312.58	1.39637
6294.02	1.39631
6275.46	1.39624
6256.89	1.39616
6238.33	1.39608
6219.77	1.39599
6201.21	1.3959
6182.65	1.3958
6164.09	1.39567
6145.53	1.3955
6126.96	1.39525
6108.4	1.39514
6089.84	1.39557
6071.28	1.39535
6052.72	1.39585
6034.16	1.39555
6015.6	1.39553
5997.03	1.39532
5978.47	1.39512
5959.91	1.39512
5941.35	1.39491
5922.79	1.39502
5904.23	1.39506
5885.67	1.39497
5867.11	1.39477
5848.54	1.39467
5829.98	1.39451
5811.42	1.39435
5792.86	1.39416
5774.3	1.39398
5755.74	1.3938
5737.18	1.39361
5718.61	1.39337
5700.05	1.3931
5681.49	1.3928
5662.93	1.39252
5644.37	1.39218
5625.81	1.39181
5607.25	1.39141
5588.68	1.39097
5570.12	1.39045
5551.56	1.38981
5533	1.38905
5514.44	1.38822
5495.88	1.3873
5477.32	1.38596
5458.75	1.38385
5440.19	1.38055
5421.63	1.37436
5403.07	1.35746
5384.51	1.41869
5365.95	1.39552
5347.39	1.40615
5328.82	1.42272
5310.26	1.40989
5291.7	1.40512
5273.14	1.40212
5254.58	1.40205
5236.02	1.39948
5217.46	1.39803
5198.89	1.39728
5180.33	1.39626
5161.77	1.39536
5143.21	1.39448
5124.65	1.39403
5106.09	1.39347
5087.53	1.39293
5068.97	1.392
5050.4	1.39148
5031.84	1.39085
5013.28	1.39019
4994.72	1.38938
4976.16	1.38872
4957.6	1.38806
4939.04	1.38741
4920.47	1.38656
4901.91	1.3854
4883.35	1.38423
4864.79	1.38416
4846.23	1.38256
4827.67	1.38082
4809.11	1.37976
4790.54	1.37878
4771.98	1.37806
4753.42	1.3755
4734.86	1.3744
4716.3	1.37316
4697.74	1.36945
4679.18	1.36444
4660.61	1.35781
4642.05	1.34074
4623.49	1.34486
4604.93	1.34691
4586.37	1.39541
4567.81	1.36634
4549.25	1.34623
4530.68	1.34683
4512.12	1.33037
4493.56	1.30062
4475	1.31457
4456.44	1.23655
4437.88	1.1895
4419.32	1.08271
4400.75	1.59991
4382.19	1.36111
4363.63	1.2587
4345.07	1.68196
4326.51	1.50067
4307.95	1.40937
4289.39	1.32206
4270.83	1.43741
4252.26	1.66811
4233.7	1.55507
4215.14	1.51464
4196.58	1.49214
4178.02	1.47174
4159.46	1.49224
4140.9	1.46512
4122.33	1.4749
4103.77	1.49039
4085.21	1.11394e-05
4066.65	1.26633e-05
4048.09	1.30308e-05
4029.53	1.27408e-05
4010.97	1.3818e-05
3992.4	1.27156e-05
3973.84	1.37388e-05
3955.28	1.4054e-05
3936.72	1.44485e-05
3918.16	1.67074e-05
3899.6	2.38802e-05
3881.04	3.38885e-05
3862.47	3.70425e-05
3843.91	4.54476e-05
3825.35	4.91259e-05
3806.79	4.99149e-05
3788.23	4.99149e-05
3769.67	4.38715e-05
3751.11	3.83557e-05
3732.54	3.49404e-05
3713.98	3.49404e-05
3695.42	3.31013e-05
3676.86	2.9423e-05
3658.3	2.86357e-05
3639.74	2.78468e-05
3621.18	2.55609e-05
3602.61	2.10162e-05
3584.05	1.94147e-05
3565.49	1.88095e-05
3546.93	1.77323e-05
3528.37	1.57617e-05
3509.81	1.42125e-05
3491.25	1.29246e-05
3472.69	1.09556e-05
3454.12	9.32553e-06
3435.56	7.77633e-06
3417	7.27735e-06
3398.44	7.27735e-06
3379.88	7.06664e-06
3361.32	7.32961e-06
3342.76	7.88085e-06
3324.19	9.22102e-06
3305.63	1.16114e-05
3287.07	1.4081e-05
3268.51	1.458e-05
3249.95	1.4317e-05
3231.39	1.66029e-05
3212.83	2.39325e-05
3194.26	4.64995e-05
3175.7	0.000199132
3157.14	0.000258767
3138.58	0.000208852
3120.02	0.000186259
3101.46	0.000223563
3082.9	0.000265334
3064.33	0.000161828
3045.77	0.000141862
3027.21	0.000144751
3008.65	9.87778e-05
2990.09	8.77446e-05
2971.53	9.43123e-05
2952.97	9.0897e-05
2934.4	8.0651e-05
2915.84	6.46263e-05
2897.28	4.57106e-05
2878.72	4.33472e-05
2860.16	4.54476e-05
2841.6	4.83387e-05
2823.04	4.99149e-05
2804.47	5.59566e-05
2785.91	5.96349e-05
2767.35	6.77787e-05
2748.79	5.62195e-05
2730.23	4.80757e-05
2711.67	5.09651e-05
2693.11	5.62195e-05
2674.55	6.01591e-05
2655.98	6.62025e-05
2637.42	7.40834e-05
2618.86	6.98808e-05
2600.3	5.67455e-05
2581.74	5.59566e-05
2563.18	5.96349e-05
2544.62	6.51506e-05
2526.05	7.35574e-05
2507.49	9.64144e-05
2488.93	0.000116379
2470.37	0.000140023
2451.81	0.000192038
2433.25	0.000383552
2414.69	0.00139235
2396.12	0.00199132
2377.56	0.0017759
2359	0.00177327
2340.44	0.00108235
2321.88	0.000966762
2303.32	0.000685666
2284.76	0.000806512
2266.19	0.00112964
2247.63	0.00123998
2229.07	0.00152107
2210.51	0.00154209
2191.95	0.00112439
2173.39	0.000767106
2154.83	0.00084329
2136.26	0.000651515
2117.7	0.000598973
2099.14	0.000535923
2080.58	0.000478127
2062.02	0.000491263
2043.46	0.000420332
2024.9	0.000307368
2006.33	0.000220411
1987.77	0.000210691
1969.21	0.000265334
1950.65	0.000232496
1932.09	0.00025614
1913.53	0.000346774
1894.97	0.000388807
1876.41	0.000433467
1857.84	0.000464992
1839.28	0.000638379
1820.72	0.00111388
1802.16	0.00145277
1783.6	0.0014554
1765.04	0.0014554
1746.48	0.00210954
1727.91	0.00394061
1709.35	0.0140811
1690.79	0.205437
1672.23	0.0672531
1653.67	0.0696174
1635.11	0.0609481
1616.55	0.0118481
1597.98	0.00467619
1579.42	0.00551685
1560.86	0.00575329
1542.3	0.00116117
1523.74	0.00119006
1505.18	0.00145277
1486.62	0.000680412
1468.05	0.000504398
1449.49	0.000612109
1430.93	0.00137921
1412.37	0.00122159
1393.81	0.00086168
1375.25	0.000409823
1356.69	0.00103244
1338.12	0.000853799
1319.56	0.000598973
1301	0.000853799
1282.44	0.00124786
1263.88	0.00161302
1245.32	0.00185471
1226.76	0.00143175
1208.19	0.00120057
1189.63	0.00233021
1171.07	0.0036779
1152.51	0.0017076
1133.95	0.00233809
1115.39	0.00472873
1096.83	0.00564821
1078.27	0.00638379
1059.7	0.00517533
1041.14	0.00819647
1022.58	0.00693547
1004.02	0.00309995
985.458	0.00299486
966.897	0.00522787
948.335	0.0134769
929.774	0.0483381
911.213	0.0317876
892.651	0.238276
874.09	0.0207801
855.528	0.0187048
836.967	0.0259555
818.406	0.0167345
799.844	0.0194666
781.283	0.16787
762.721	0.0641006
744.16	0.20281
725.599	0.612108
707.037	0.486008
688.476	0.079863
669.915	0.551685
651.353	0.669904
632.792	0.0373044
614.23	0.0352028
595.669	0.142125
577.108	0.612108
558.546	0.454484
539.985	0.0317876
521.423	0.0100091
502.862	0.00730326
484.301	0.0123998
465.739	0.107973
447.178	0.0217784
428.616	0.0916848
410.055	0.0730326
