Infrared Spectrum: p-Methylacetophenone
Formula: C9 H10 O
CAS: 122-00-9
State: SOLUTION (10% CCl4 FOR 3800-1350, 10% CS2 FOR 1350-400 CM^-^1))
Class: COBLENTZ III
Instrument: BECKMAN IR-9 (GRATING)
Instrument parameters: ORDER CHANGES: 670, 1200, 2000 CM^-^1
Sampling: TRANSMISSION
Path length: 0.010 CM, 0.010 CM
Resolution: 2
Origin: DOW CHEMICAL COMPANY
1/CM	TRANSMITTANCE
3800	0.9731
3791	0.9738
3782	0.9734
3773	0.9747
3764	0.9747
3755	0.9741
3746	0.9735
3737	0.973
3728	0.9711
3719	0.9672
3710	0.9616
3701	0.9526
3692	0.9442
3683	0.9452
3674	0.9506
3665	0.9567
3656	0.9612
3647	0.9626
3638	0.9623
3629	0.961
3620	0.9615
3611	0.9617
3602	0.9608
3593	0.9591
3584	0.9566
3575	0.9537
3566	0.9517
3557	0.95
3548	0.9496
3539	0.9483
3530	0.9474
3521	0.9461
3512	0.9451
3503	0.9446
3494	0.9441
3485	0.9437
3476	0.9437
3467	0.9437
3458	0.9438
3449	0.9439
3440	0.9439
3431	0.9438
3422	0.9435
3413	0.9432
3404	0.9429
3395	0.9424
3386	0.9419
3377	0.9372
3368	0.9118
3359	0.8776
3350	0.8556
3341	0.8922
3332	0.9203
3323	0.9373
3314	0.9439
3305	0.9473
3296	0.9483
3287	0.9494
3278	0.9509
3269	0.9523
3260	0.9535
3251	0.9547
3242	0.9554
3233	0.9553
3224	0.9532
3215	0.9511
3206	0.95
3197	0.9499
3188	0.9497
3179	0.949
3170	0.9486
3161	0.9477
3152	0.9447
3143	0.9375
3134	0.9279
3125	0.9078
3116	0.899
3107	0.8979
3098	0.8546
3089	0.7955
3080	0.8208
3071	0.8187
3062	0.7333
3053	0.7268
3044	0.6494
3035	0.6125
3026	0.6718
3017	0.6845
3008	0.6172
2999	0.6466
2990	0.7024
2981	0.7027
2972	0.6852
2963	0.7047
2954	0.727
2945	0.7378
2936	0.7004
2927	0.6189
2918	0.6636
2909	0.7895
2900	0.8255
2891	0.8337
2882	0.822
2873	0.7926
2864	0.8162
2855	0.8707
2846	0.9065
2837	0.9292
2828	0.9453
2819	0.9542
2810	0.9559
2801	0.955
2792	0.9518
2783	0.9495
2774	0.9524
2765	0.9591
2756	0.9612
2747	0.9543
2738	0.947
2729	0.9487
2720	0.9596
2711	0.9637
2702	0.9644
2693	0.9651
2684	0.966
2675	0.9669
2666	0.9679
2657	0.9688
2648	0.9673
2639	0.9623
2630	0.9566
2621	0.9547
2612	0.955
2603	0.952
2594	0.9478
2585	0.9455
2576	0.9512
2567	0.9567
2558	0.9611
2549	0.9645
2540	0.9656
2531	0.9605
2522	0.9595
2513	0.963
2504	0.9661
2495	0.9683
2486	0.9694
2477	0.9703
2468	0.9701
2459	0.9698
2450	0.9679
2441	0.9667
2432	0.9637
2423	0.96
2414	0.9615
2405	0.9646
2396	0.9661
2387	0.9647
2378	0.9644
2369	0.9654
2360	0.9674
2351	0.9688
2342	0.9641
2333	0.9538
2324	0.9537
2315	0.9454
2306	0.9365
2297	0.939
2288	0.9464
2279	0.9538
2270	0.9596
2261	0.9632
2252	0.966
2243	0.9674
2234	0.9691
2225	0.9706
2216	0.9714
2207	0.9725
2198	0.9724
2189	0.9705
2180	0.9691
2171	0.971
2162	0.9722
2153	0.9738
2144	0.9756
2135	0.9767
2126	0.9777
2117	0.978
2108	0.9781
2099	0.9774
2090	0.9768
2081	0.9753
2072	0.9734
2063	0.971
2054	0.97
2045	0.9646
2036	0.9555
2027	0.9519
2018	0.9576
2009	0.9607
2000	0.9576
1991	0.9525
1982	0.9557
1973	0.9543
1964	0.9514
1955	0.9433
1946	0.9072
1937	0.9139
1928	0.9094
1919	0.88
1910	0.9264
1901	0.9233
1892	0.9168
1883	0.942
1874	0.9485
1865	0.9481
1856	0.9485
1847	0.9499
1838	0.9492
1829	0.9466
1820	0.9154
1811	0.8933
1802	0.9302
1793	0.9389
1784	0.9337
1775	0.916
1766	0.881
1757	0.8748
1748	0.8703
1739	0.8613
1730	0.8295
1721	0.7812
1712	0.6872
1703	0.4644
1694	-0.0072
1685	-0.0072
1676	0.2021
1667	0.6169
1658	0.6855
1649	0.6883
1640	0.7328
1631	0.6652
1622	0.4804
1613	0.1148
1604	0.0319
1595	0.4916
1586	0.5883
1577	0.446
1568	0.5489
1559	0.5541
1550	0.5652
1541	0.6724
1532	0.6966
1523	0.7285
1514	0.7428
1505	0.7721
1496	0.7843
1487	0.7666
1478	0.7729
1469	0.714
1460	0.6302
1451	0.5788
1442	0.5064
1433	0.3818
1424	0.4804
1415	0.4751
1406	0.3858
1397	0.6316
1388	0.7697
1379	0.6698
1370	0.5452
1361	0.0802
1352	0.1584
1343	0.6401
1334	0.7798
1325	0.834
1316	0.797
1307	0.6352
1298	0.6366
1289	0.5726
1280	0.518
1271	0.0658
1262	-0.0072
1253	0.3975
1244	0.4301
1235	0.5169
1226	0.8096
1217	0.837
1208	0.7552
1199	0.8505
1190	0.7804
1181	0.0774
1172	0.8005
1163	0.8825
1154	0.9077
1145	0.9141
1136	0.9099
1127	0.8726
1118	0.7976
1109	0.8006
1100	0.8976
1091	0.9033
1082	0.8235
1073	0.7379
1064	0.875
1055	0.8575
1046	0.7739
1037	0.7787
1028	0.8032
1019	0.43
1010	0.8662
1001	0.876
992	0.8608
983	0.8581
974	0.7924
965	0.7762
956	0.4545
947	0.4902
938	0.8268
929	0.926
920	0.9347
911	0.9444
902	0.9441
893	0.9341
884	0.9074
875	0.876
866	0.844
857	0.8184
848	0.8166
839	0.6717
830	0.817
821	0.565
812	-0.0072
803	0.5325
794	0.8736
785	0.8983
776	0.9434
767	0.9545
758	0.824
749	0.9584
740	0.9723
731	0.961
722	0.9084
713	0.7332
704	0.938
695	0.8716
686	0.9056
677	0.7094
668	0.8537
659	0.8936
650	0.9053
641	0.9084
632	0.9454
623	0.9452
614	0.9264
605	0.8146
596	0.6062
587	0.4664
578	0.8106
569	0.2873
560	0.8226
551	0.895
542	0.9223
533	0.9341
524	0.9307
515	0.9266
506	0.9168
497	0.8953
488	0.8572
479	0.7901
470	0.6944
461	0.6402
452	0.6939
443	0.7197
434	0.664
425	0.6121
416	0.498
407	0.5437
