Infrared Spectrum: Diphenylamine
Formula: C 12 H 11 N
CAS: 122-39-4
State: solid
Instrument: Bruker Tensor 37 FTIR
Resolution: 0.96450084
Origin: Pacific Northwest National Laboratory Under IARPA Contract
1/cm	Reflectance
7498.99	0.556017
7481.63	0.532282
7464.27	0.5328
7446.91	0.5389
7429.55	0.522918
7412.19	0.506914
7394.84	0.499587
7377.48	0.499479
7360.12	0.514286
7342.76	0.498886
7325.4	0.488875
7308.04	0.474742
7290.68	0.46033
7273.32	0.453607
7255.96	0.455679
7238.6	0.468827
7221.24	0.480238
7203.88	0.498768
7186.52	0.506416
7169.16	0.502511
7151.8	0.502352
7134.44	0.47284
7117.08	0.377162
7099.72	0.213348
7082.36	0.148907
7065	0.127964
7047.64	0.248548
7030.28	0.365922
7012.92	0.420553
6995.56	0.371233
6978.2	0.3664
6960.84	0.376356
6943.48	0.415512
6926.12	0.479576
6908.76	0.466305
6891.4	0.452723
6874.04	0.449911
6856.68	0.403781
6839.32	0.343715
6821.96	0.251691
6804.6	0.184833
6787.24	0.207622
6769.88	0.160844
6752.52	0.0964125
6735.16	0.0812243
6717.8	0.0881693
6700.44	0.123514
6683.08	0.161808
6665.72	0.212699
6648.36	0.230699
6631	0.275427
6613.64	0.255296
6596.28	0.26123
6578.92	0.244959
6561.56	0.265391
6544.2	0.280708
6526.85	0.274362
6509.49	0.275792
6492.13	0.293697
6474.77	0.294698
6457.41	0.293673
6440.05	0.271471
6422.69	0.281671
6405.33	0.295368
6387.97	0.301385
6370.61	0.288689
6353.25	0.288361
6335.89	0.30412
6318.53	0.295304
6301.17	0.29982
6283.81	0.283919
6266.45	0.221078
6249.09	0.0870236
6231.73	0.116186
6214.37	0.0844142
6197.01	0.0757927
6179.65	0.155673
6162.29	0.114994
6144.93	0.145976
6127.57	0.176585
6110.21	0.113537
6092.85	0.076755
6075.49	0.061956
6058.13	0.0646056
6040.77	0.0750716
6023.41	0.0844781
6006.05	0.111185
5988.69	0.114571
5971.33	0.132341
5953.97	0.0921927
5936.61	0.0742376
5919.25	0.0924811
5901.89	0.0836312
5884.53	0.0715837
5867.17	0.0745435
5849.81	0.0722425
5832.45	0.0869498
5815.09	0.0765318
5797.73	0.0715468
5780.37	0.0556457
5763.01	0.0571893
5745.65	0.0743035
5728.29	0.0808906
5710.93	0.0718252
5693.57	0.0722228
5676.21	0.0679815
5658.86	0.0624608
5641.5	0.0723121
5624.14	0.0774692
5606.78	0.0721571
5589.42	0.0763825
5572.06	0.0641848
5554.7	0.0796232
5537.34	0.100572
5519.98	0.0840677
5502.62	0.0682612
5485.26	0.0590249
5467.9	0.0519131
5450.54	0.0457621
5433.18	0.0487618
5415.82	0.0552599
5398.46	0.0624736
5381.1	0.0735813
5363.74	0.0737391
5346.38	0.0547821
5329.02	0.0570528
5311.66	0.0522628
5294.3	0.0475891
5276.94	0.0460137
5259.58	0.0475591
5242.22	0.0507712
5224.86	0.0555002
5207.5	0.0527197
5190.14	0.0604285
5172.78	0.0611236
5155.42	0.0591586
5138.06	0.0652371
5120.7	0.0536709
5103.34	0.0676156
5085.98	0.0669974
5068.62	0.0544024
5051.26	0.059872
5033.9	0.0537735
5016.54	0.0501146
4999.18	0.0574097
4981.82	0.0586673
4964.46	0.0686536
4947.1	0.0556261
4929.74	0.0559536
4912.38	0.0541934
4895.02	0.0589263
4877.66	0.0667834
4860.3	0.0698777
4842.94	0.0628138
4825.58	0.0600583
4808.22	0.0530081
4790.86	0.055317
4773.51	0.0586394
4756.15	0.0566347
4738.79	0.0532946
4721.43	0.0457698
4704.07	0.0510471
4686.71	0.04672
4669.35	0.0467651
4651.99	0.0476609
4634.63	0.0483998
4617.27	0.0449299
4599.91	0.0436251
4582.55	0.0408263
4565.19	0.0359578
4547.83	0.0621712
4530.47	0.0445029
4513.11	0.0296238
4495.75	0.0724333
4478.39	0.0516505
4461.03	0.0426436
4443.67	0.0458225
4426.31	0.0407013
4408.95	0.0598543
4391.59	0.0511441
4374.23	0.0446593
4356.87	0.0466305
4339.51	0.0413041
4322.15	0.048939
4304.79	0.0460885
4287.43	0.0437639
4270.07	0.0485348
4252.71	0.0469043
4235.35	0.0457938
4217.99	0.0456089
4200.63	0.0431418
4183.27	0.0452686
4165.91	0.0432777
4148.55	0.0400762
4131.19	0.0310245
4113.83	0.0497982
4096.47	0.0467872
4079.11	0.0499621
4061.75	0.0491046
4044.39	0.554437
4027.03	0.536688
4009.67	0.538861
3992.31	0.53976
3974.95	0.520413
3957.59	0.514729
3940.23	0.5007
3922.87	0.509725
3905.52	0.517521
3888.16	0.502899
3870.8	0.490814
3853.44	0.475686
3836.08	0.466019
3818.72	0.461034
3801.36	0.469104
3784	0.479514
3766.64	0.493038
3749.28	0.508407
3731.92	0.508117
3714.56	0.512492
3697.2	0.478891
3679.84	0.457788
3662.48	0.350185
3645.12	0.167007
3627.76	0.182343
3610.4	0.124937
3593.04	0.303622
3575.68	0.41332
3558.32	0.389792
3540.96	0.367638
3523.6	0.362317
3506.24	0.392618
3488.88	0.425525
3471.52	0.47838
3454.16	0.445195
3436.8	0.466562
3419.44	0.437532
3402.08	0.396482
3384.72	0.313792
3367.36	0.243069
3350	0.193935
3332.64	0.206204
3315.28	0.137866
3297.92	0.0885456
3280.56	0.0813619
3263.2	0.100433
3245.84	0.142055
3228.48	0.179838
3211.12	0.233808
3193.76	0.247752
3176.4	0.289254
3159.04	0.245041
3141.68	0.265808
3124.32	0.267578
3106.96	0.285859
3089.6	0.289276
3072.24	0.275418
3054.88	0.288114
3037.53	0.301049
3020.17	0.303979
3002.81	0.29727
2985.45	0.284631
2968.09	0.295532
2950.73	0.304086
2933.37	0.306417
2916.01	0.298865
2898.65	0.297828
2881.29	0.313845
2863.93	0.303872
2846.57	0.308657
2829.21	0.276438
2811.85	0.190472
2794.49	0.100978
2777.13	0.164703
2759.77	0.0958347
2742.41	0.112908
2725.05	0.171978
2707.69	0.154065
2690.33	0.183642
2672.97	0.162912
2655.61	0.0974574
2638.25	0.0693823
2620.89	0.0656018
2603.53	0.0690942
2586.17	0.0770873
2568.81	0.0959042
2551.45	0.127014
2534.09	0.1272
2516.73	0.128819
2499.37	0.0865329
2482.01	0.0803345
2464.65	0.0994773
2447.29	0.0795871
2429.93	0.0747206
2412.57	0.075936
2395.21	0.0792029
2377.85	0.0887071
2360.49	0.0808697
2343.13	0.063459
2325.77	0.0544616
2308.41	0.0648408
2291.05	0.0790407
2273.69	0.078337
2256.33	0.0760763
2238.97	0.0735517
2221.61	0.0682872
2204.25	0.0644239
2186.89	0.0780518
2169.53	0.0780697
2152.18	0.0720663
2134.82	0.0732479
2117.46	0.0641151
2100.1	0.0927303
2082.74	0.0966199
2065.38	0.0817408
2048.02	0.0672103
2030.66	0.059081
2013.3	0.0495858
1995.94	0.0436557
1978.58	0.0513609
1961.22	0.0583046
1943.86	0.0683951
1926.5	0.0756801
1909.14	0.0690217
1891.78	0.054155
1874.42	0.0570279
1857.06	0.0503239
1839.7	0.0485302
1822.34	0.0468869
1804.98	0.0498149
1787.62	0.0533932
1770.26	0.0555038
1752.9	0.0543963
1735.54	0.0658006
1718.18	0.0545913
1700.82	0.0624749
1683.46	0.0569264
1666.1	0.0541939
1648.74	0.0716558
1631.38	0.0558987
1614.02	0.0584066
1596.66	0.0581948
1579.3	0.0518806
1561.94	0.0526837
1544.58	0.0531141
1527.22	0.0631131
1509.86	0.0644479
1492.5	0.0582557
1475.14	0.058391
1457.78	0.0543062
1440.42	0.063309
1423.06	0.0685119
1405.7	0.0676199
1388.34	0.0619978
1370.98	0.0580599
1353.62	0.0524754
1336.26	0.0553367
1318.9	0.0603125
1301.54	0.0556837
1284.19	0.0491531
1266.83	0.0454303
1249.47	0.0508541
1232.11	0.0472185
1214.75	0.0475818
1197.39	0.046669
1180.03	0.0477931
1162.67	0.0442098
1145.31	0.043343
1127.95	0.0391869
1110.59	0.0321415
1093.23	0.0554566
1075.87	0.0418887
1058.51	0.0547115
1041.15	0.0553663
1023.79	0.051179
1006.43	0.0481335
989.068	0.0440063
971.709	0.0364855
954.349	0.0545825
936.989	0.0503299
919.629	0.046807
902.269	0.0454526
884.91	0.0488997
867.55	0.0503035
850.19	0.0445647
832.83	0.0466552
815.47	0.0407203
798.111	0.041183
780.751	0.0440099
763.391	0.0433629
746.031	0.0397919
728.671	0.0427788
711.312	0.0398622
693.952	0.036687
676.592	0.0606842
659.232	0.0428582
641.872	0.0553365
624.513	0.0452277
607.153	0.0429553
