Infrared Spectrum: NONANEDIOIC ACID
Formula: C9 H16 O4
CAS: 123-99-9
State: SOLID (SPLIT MULL, FLUOROLUBE FOR 3800-1330 AND NUJOL FOR 1330-400 CM ^-^1)
Class: COBLENTZ III
Instrument: BECKMAN IR-9 (GRATING)
Instrument parameters: ORDER CHANGES AT 670, 1200, 2000 CM^-^1
Sampling: TRANSMISSION
Resolution: 4
Origin: DOW CHEMICAL COMPANY
1/CM	TRANSMITTANCE
401.933	0.675
410.461	0.631
418.988	0.647
427.516	0.721
436.043	0.772
444.571	0.759
453.099	0.827
461.626	0.881
470.154	0.906
478.681	0.927
487.209	0.943
495.736	0.95
504.264	0.931
512.792	0.891
521.319	0.934
529.847	0.941
538.374	0.939
546.902	0.97
555.43	0.994
563.957	1.002
572.485	1.005
581.012	1.008
589.54	1.008
598.067	1.005
606.595	0.993
615.123	0.965
623.65	0.977
632.178	0.99
640.705	0.995
649.233	0.995
657.761	0.99
666.288	0.969
674.816	0.907
683.343	0.828
691.871	0.883
700.398	0.923
708.926	0.959
717.454	0.962
725.981	0.776
734.509	0.903
743.036	0.963
751.564	0.99
760.092	1.001
768.619	1.001
777.147	0.93
785.674	0.987
794.202	0.995
802.729	0.991
811.257	0.986
819.785	0.981
828.312	0.966
836.84	0.965
845.367	0.955
853.895	0.942
862.423	0.927
870.95	0.905
879.478	0.87
888.005	0.834
896.533	0.784
905.06	0.739
913.588	0.671
922.116	0.608
930.643	0.554
939.171	0.577
947.698	0.679
956.226	0.766
964.754	0.804
973.281	0.824
981.809	0.846
990.336	0.85
998.864	0.877
1007.39	0.858
1015.92	0.864
1024.45	0.89
1032.97	0.893
1041.5	0.893
1050.03	0.879
1058.56	0.868
1067.08	0.878
1075.61	0.89
1084.14	0.882
1092.67	0.85
1101.19	0.766
1109.72	0.824
1118.25	0.872
1126.78	0.87
1135.31	0.815
1143.83	0.89
1152.36	0.891
1160.89	0.874
1169.42	0.859
1177.94	0.851
1186.47	0.832
1195	0.6519
1203.53	0.733
1212.05	0.692
1220.58	0.812
1229.11	0.6399
1237.64	0.704
1246.16	0.582
1254.69	0.346
1263.22	0.648
1271.75	0.4951
1280.27	0.568
1288.8	0.608
1297.33	0.525
1305.86	0.474
1314.38	0.478
1322.91	0.525
1331.44	0.767
1339.97	0.834
1348.49	0.826
1357.02	0.844
1365.55	0.85
1374.08	0.872
1382.61	0.877
1391.13	0.874
1399.66	0.824
1408.19	0.56
1416.72	0.573
1425.24	0.631
1433.77	0.536
1442.3	0.536
1450.83	0.77
1459.35	0.799
1467.88	0.556
1476.41	0.858
1484.94	0.935
1493.46	0.961
1501.99	0.974
1510.52	0.977
1519.05	0.981
1527.57	0.989
1536.1	0.991
1544.63	0.991
1553.16	0.993
1561.68	0.993
1570.21	0.993
1578.74	0.991
1587.27	0.99
1595.79	0.987
1604.32	0.979
1612.85	0.974
1621.38	0.962
1629.91	0.943
1638.43	0.925
1646.96	0.899
1655.49	0.871
1664.02	0.824
1672.54	0.731
1681.07	0.532
1689.6	0.2239
1698.13	0.061
1706.65	0.044
1715.18	0.098
1723.71	0.272
1732.24	0.608
1740.76	0.711
1749.29	0.791
1757.82	0.84
1766.35	0.87
1774.87	0.885
1783.4	0.894
1791.93	0.898
1800.46	0.903
1808.98	0.913
1817.51	0.926
1826.04	0.938
1834.57	0.95
1843.09	0.959
1851.62	0.965
1860.15	0.97
1868.68	0.973
1877.21	0.977
1885.73	0.975
1894.26	0.977
1902.79	0.978
1911.32	0.981
1919.84	0.982
1928.37	0.986
1936.9	0.987
1945.43	0.989
1953.95	0.99
1962.48	0.99
1971.01	0.993
1979.54	0.993
1988.06	0.993
1996.59	0.993
2005.12	0.993
2013.65	0.998
2022.17	1.001
2030.7	1
2039.23	0.998
2047.76	0.9981
2056.28	0.995
2064.81	0.994
2073.34	0.995
2081.87	0.993
2090.39	0.991
2098.92	0.989
2107.45	0.987
2115.98	0.9861
2124.51	0.983
2133.03	0.9821
2141.56	0.9791
2150.09	0.978
2158.62	0.977
2167.14	0.975
2175.67	0.9731
2184.2	0.971
2192.73	0.97
2201.25	0.97
2209.78	0.97
2218.31	0.969
2226.84	0.9651
2235.36	0.962
2243.89	0.957
2252.42	0.9493
2260.95	0.9433
2269.47	0.9381
2278	0.937
2286.53	0.935
2295.06	0.934
2303.58	0.934
2312.11	0.934
2320.64	0.933
2329.17	0.933
2337.69	0.931
2346.22	0.931
2354.75	0.9302
2363.28	0.93
2371.81	0.9302
2380.33	0.9274
2388.86	0.9154
2397.39	0.9114
2405.92	0.907
2414.44	0.903
2422.97	0.8972
2431.5	0.893
2440.03	0.89
2448.55	0.885
2457.08	0.8747
2465.61	0.87
2474.14	0.8625
2482.66	0.8527
2491.19	0.8438
2499.72	0.8358
2508.25	0.8245
2516.77	0.8128
2525.3	0.7958
2533.83	0.7798
2542.36	0.7711
2550.88	0.7586
2559.41	0.747
2567.94	0.737
2576.47	0.735
2584.99	0.733
2593.52	0.7283
2602.05	0.7233
2610.58	0.7139
2619.11	0.7009
2627.63	0.693
2636.16	0.691
2644.69	0.6843
2653.22	0.6763
2661.74	0.6713
2670.27	0.6717
2678.8	0.671
2687.33	0.665
2695.85	0.6594
2704.38	0.659
2712.91	0.6696
2721.44	0.6766
2729.96	0.681
2738.49	0.683
2747.02	0.6818
2755.55	0.6764
2764.07	0.671
2772.6	0.6658
2781.13	0.661
2789.66	0.663
2798.18	0.661
2806.71	0.6564
2815.24	0.643
2823.77	0.6292
2832.29	0.6137
2840.82	0.5642
2849.35	0.4222
2857.88	0.4043
2866.4	0.446
2874.93	0.434
2883.46	0.4437
2891.99	0.4376
2900.52	0.451
2909.04	0.4186
2917.57	0.3325
2926.1	0.3011
2934.63	0.2417
2943.15	0.2518
2951.68	0.3294
2960.21	0.4063
2968.74	0.441
2977.26	0.4545
2985.79	0.4785
2994.32	0.494
3002.85	0.5045
3011.37	0.506
3019.9	0.502
3028.43	0.4935
3036.96	0.4865
3045.48	0.485
3054.01	0.4879
3062.54	0.4989
3071.07	0.5138
3079.59	0.5274
3088.12	0.5349
3096.65	0.5389
3105.18	0.5444
3113.7	0.5588
3122.23	0.5743
3130.76	0.5873
3139.29	0.6063
3147.82	0.6214
3156.34	0.6372
3164.87	0.6514
3173.4	0.6618
3181.93	0.6742
3190.45	0.686
3198.98	0.6958
3207.51	0.709
3216.04	0.7244
3224.56	0.7371
3233.09	0.7521
3241.62	0.7641
3250.15	0.7719
3258.67	0.7815
3267.2	0.794
3275.73	0.803
3284.26	0.8114
3292.78	0.8193
3301.31	0.825
3309.84	0.831
3318.37	0.835
3326.89	0.838
3335.42	0.843
3343.95	0.8463
3352.48	0.8503
3361	0.8569
3369.53	0.8646
3378.06	0.8713
3386.59	0.877
3395.12	0.879
3403.64	0.8836
3412.17	0.887
3420.7	0.889
3429.23	0.8903
3437.75	0.891
3446.28	0.8915
3454.81	0.8943
3463.34	0.898
3471.86	0.9013
3480.39	0.9063
3488.92	0.91
3497.45	0.9142
3505.97	0.918
3514.5	0.921
3523.03	0.925
3531.56	0.927
3540.08	0.929
3548.61	0.931
3557.14	0.933
3565.67	0.934
3574.19	0.935
3582.72	0.937
3591.25	0.935
3599.78	0.939
3608.3	0.942
3616.83	0.943
3625.36	0.945
3633.89	0.945
3642.42	0.946
3650.94	0.947
3659.47	0.949
3668	0.95
3676.53	0.95
3685.05	0.95
3693.58	0.95
3702.11	0.95
3710.64	0.95
3719.16	0.951
3727.69	0.951
3736.22	0.951
3744.75	0.953
3753.27	0.953
3761.8	0.953
3770.33	0.953
3778.86	0.951
3787.38	0.951
3795.91	0.95
