Infrared Spectrum: BENZALDEHYDE, 4-HYDROXY-
Formula: C7 H6 O2
CAS: 123-08-0
State: SOLID (SPLIT MULL, FLUOROLUBE FOR 3800-1300 AND NUJOL FOR 1300-250 CM ^-^1)
Class: COBLENTZ III
Instrument: PERKIN-ELMER 521 (GRATING)
Instrument parameters: FILTERS AT 3150, 2500, 2000, 1150, 700, 410; GRATING CHANGES AT 2000, 630 CM^-^1
Sampling: TRANSMISSION
Resolution: 4
Origin: DOW CORNING CORP.
1/CM	TRANSMITTANCE
245.367	0.713
254.313	0.738
263.258	0.7939
272.204	0.851
281.15	0.891
290.096	0.916
299.041	0.947
307.987	0.972
316.933	0.973
325.878	0.9041
334.824	0.984
343.77	1.006
352.716	1.01
361.661	1.015
370.607	1.017
379.553	1.026
388.498	1.019
397.444	1.013
406.39	1.01
415.336	1.005
424.281	1.017
433.227	1.015
442.173	1.005
451.118	0.944
460.064	0.9539
469.01	0.977
477.956	0.951
486.901	0.986
495.847	0.973
504.793	0.8301
513.738	0.956
522.684	0.968
531.63	0.97
540.576	0.97
549.521	0.972
558.467	0.968
567.413	0.966
576.358	0.961
585.304	0.951
594.25	0.7812
603.196	0.813
612.141	0.951
621.087	0.935
630.033	0.91
638.978	0.8093
647.924	0.9
656.87	0.91
665.816	0.897
674.761	0.891
683.707	0.874
692.653	0.842
701.598	0.801
710.544	0.76
719.49	0.762
728.436	0.787
737.381	0.842
746.327	0.872
755.273	0.909
764.218	0.928
773.164	0.933
782.11	0.877
791.056	0.8279
800.001	0.938
808.947	0.94
817.893	0.8582
826.838	0.7481
835.784	0.458
844.73	0.886
853.676	0.7882
862.621	0.8599
871.567	0.944
880.513	0.938
889.458	0.931
898.404	0.94
907.35	0.937
916.296	0.935
925.241	0.937
934.187	0.93
943.133	0.916
952.078	0.921
961.024	0.916
969.97	0.912
978.916	0.917
987.861	0.917
996.807	0.912
1005.75	0.904
1014.7	0.905
1023.64	0.904
1032.59	0.904
1041.54	0.898
1050.48	0.895
1059.43	0.891
1068.37	0.895
1077.32	0.884
1086.26	0.876
1095.21	0.87
1104.16	0.853
1113.1	0.7987
1122.05	0.837
1130.99	0.825
1139.94	0.78
1148.88	0.6611
1157.83	0.2161
1166.78	0.507
1175.72	0.863
1184.67	0.851
1193.61	0.804
1202.56	0.7241
1211.5	0.5062
1220.45	0.3849
1229.4	0.643
1238.34	0.5611
1247.29	0.708
1256.23	0.762
1265.18	0.7029
1274.12	0.6171
1283.07	0.202
1292.02	0.2439
1300.96	0.808
1309.91	0.4101
1318.85	0.6191
1327.8	0.689
1336.74	0.699
1345.69	0.638
1354.64	0.633
1363.58	0.589
1372.53	0.488
1381.47	0.2601
1390.42	0.282
1399.36	0.305
1408.31	0.19
1417.26	0.162
1426.2	0.293
1435.15	0.28
1444.09	0.1621
1453.04	0.127
1461.98	0.212
1470.93	0.315
1479.88	0.4059
1488.82	0.523
1497.77	0.507
1506.71	0.462
1515.66	0.3151
1524.6	0.602
1533.55	0.56
1542.5	0.492
1551.44	0.406
1560.39	0.3001
1569.33	0.247
1578.28	0.179
1587.22	0.116
1596.17	0.09
1605.12	0.129
1614.06	0.273
1623.01	0.605
1631.95	0.63
1640.9	0.383
1649.84	0.2929
1658.79	0.1581
1667.74	0.116
1676.68	0.172
1685.63	0.5038
1694.57	0.663
1703.52	0.776
1712.46	0.83
1721.41	0.835
1730.36	0.879
1739.3	0.902
1748.25	0.91
1757.19	0.91
1766.14	0.895
1775.08	0.867
1784.03	0.874
1792.98	0.89
1801.92	0.898
1810.87	0.9
1819.81	0.898
1828.76	0.895
1837.7	0.888
1846.65	0.89
1855.6	0.884
1864.54	0.884
1873.49	0.879
1882.43	0.865
1891.38	0.855
1900.32	0.806
1909.27	0.802
1918.22	0.862
1927.16	0.865
1936.11	0.867
1945.05	0.862
1954	0.851
1962.94	0.846
1971.89	0.835
1980.84	0.834
1989.78	0.825
1998.73	0.83
2007.67	0.794
2016.62	0.7622
2025.56	0.7948
2034.51	0.8069
2043.46	0.802
2052.4	0.799
2061.35	0.794
2070.29	0.7828
2079.24	0.7797
2088.18	0.795
2097.13	0.7871
2106.08	0.783
2115.02	0.7801
2123.97	0.778
2132.91	0.7742
2141.86	0.7682
2150.8	0.7732
2159.75	0.7752
2168.7	0.7712
2177.64	0.7678
2186.59	0.767
2195.53	0.764
2204.48	0.7603
2213.42	0.76
2222.37	0.7527
2231.32	0.7473
2240.26	0.7433
2249.21	0.741
2258.15	0.7413
2267.1	0.733
2276.04	0.724
2284.99	0.722
2293.94	0.719
2302.88	0.7071
2311.83	0.703
2320.77	0.7072
2329.72	0.7104
2338.66	0.706
2347.61	0.705
2356.56	0.7045
2365.5	0.6934
2374.45	0.685
2383.39	0.684
2392.34	0.68
2401.28	0.6773
2410.23	0.6723
2419.18	0.6643
2428.12	0.647
2437.07	0.6335
2446.01	0.6168
2454.96	0.598
2463.9	0.596
2472.85	0.5953
2481.8	0.595
2490.74	0.591
2499.69	0.5876
2508.63	0.5957
2517.58	0.5946
2526.52	0.573
2535.47	0.5829
2544.42	0.5917
2553.36	0.5837
2562.31	0.5605
2571.25	0.5632
2580.2	0.588
2589.14	0.5871
2598.09	0.5633
2607.04	0.5482
2615.98	0.5303
2624.93	0.5203
2633.87	0.5428
2642.82	0.5488
2651.76	0.546
2660.71	0.546
2669.66	0.5414
2678.6	0.5224
2687.55	0.4973
2696.49	0.481
2705.44	0.483
2714.38	0.4849
2723.33	0.4785
2732.28	0.4689
2741.22	0.4489
2750.17	0.4319
2759.11	0.421
2768.06	0.4291
2777	0.4404
2785.95	0.413
2794.9	0.41
2803.84	0.394
2812.79	0.3706
2821.73	0.3282
2830.68	0.3389
2839.62	0.3638
2848.57	0.387
2857.52	0.389
2866.46	0.3839
2875.41	0.3523
2884.35	0.3363
2893.3	0.3675
2902.24	0.373
2911.19	0.3681
2920.14	0.3577
2929.08	0.3456
2938.03	0.3343
2946.97	0.3059
2955.92	0.2832
2964.86	0.2538
2973.81	0.2452
2982.76	0.253
2991.7	0.2425
3000.65	0.2195
3009.59	0.1937
3018.54	0.166
3027.48	0.1493
3036.43	0.1413
3045.38	0.136
3054.32	0.159
3063.27	0.186
3072.21	0.181
3081.16	0.1597
3090.1	0.1414
3099.05	0.1339
3108	0.1114
3116.94	0.097
3125.89	0.0924
3134.83	0.0827
3143.78	0.08
3152.72	0.078
3161.67	0.0795
3170.62	0.0823
3179.56	0.087
3188.51	0.094
3197.45	0.098
3206.4	0.101
3215.34	0.1102
3224.29	0.1211
3233.24	0.1335
3242.18	0.15
3251.13	0.1655
3260.07	0.177
3269.02	0.1977
3277.96	0.2124
3286.91	0.2314
3295.86	0.2477
3304.8	0.2757
3313.75	0.2984
3322.69	0.3223
3331.64	0.3453
3340.58	0.3749
3349.53	0.3972
3358.48	0.4222
3367.42	0.4466
3376.37	0.4688
3385.31	0.4931
3394.26	0.5095
3403.2	0.532
3412.15	0.5433
3421.1	0.5533
3430.04	0.5654
3438.99	0.5722
3447.93	0.5782
3456.88	0.5822
3465.82	0.5872
3474.77	0.5891
3483.72	0.5884
3492.66	0.588
3501.61	0.5884
3510.55	0.5859
3519.5	0.584
3528.44	0.581
3537.39	0.5779
3546.34	0.575
3555.28	0.574
3564.23	0.572
3573.17	0.569
3582.12	0.567
3591.06	0.564
3600.01	0.565
3608.96	0.56
3617.9	0.558
3626.85	0.552
3635.79	0.5511
3644.74	0.547
3653.68	0.5471
3662.63	0.542
3671.58	0.539
3680.52	0.5401
3689.47	0.537
3698.41	0.537
3707.36	0.5341
3716.3	0.5291
3725.25	0.5252
3734.2	0.5218
3743.14	0.523
3752.09	0.5206
3761.03	0.52
3769.98	0.5172
3778.92	0.516
3787.87	0.513
