Infrared Spectrum: Acetic acid, Isoamyl ester
Formula: C7 H14 O2
CAS: 123-92-2
State: SOLUTION (10% CCl4 FOR 3800-1330, 10% CS2 FOR 1330-400 CM^-^1)
Class: COBLENTZ III
Instrument: DOW KBr FOREPRISM-GRATING
Instrument parameters: BLAZED AT 3.5, 12.0, 20.0 MICRON AND CHANGED AT 5.0, 7.5, 14.9 MICRON
Sampling: TRANSMISSION
Path length: 0.011 CM, 0.011 CM
Resolution: 2
Origin: DOW CHEMICAL COMPANY
1/CM	TRANSMITTANCE
454	0.8587
463	0.8682
472	0.8633
481	0.8523
490	0.8864
499	0.9021
508	0.8908
517	0.8797
526	0.9115
535	0.9185
544	0.9144
553	0.9209
562	0.9208
571	0.9165
580	0.9073
589	0.8832
598	0.6564
607	0.7762
616	0.8617
625	0.8421
634	0.7698
643	0.7857
652	0.8171
661	0.8653
670	0.8879
679	0.8938
688	0.8942
697	0.894
706	0.8938
715	0.8936
724	0.8934
733	0.8932
742	0.8905
751	0.8713
760	0.851
769	0.843
778	0.8648
787	0.8683
796	0.8518
805	0.8158
814	0.7362
823	0.8206
832	0.8295
841	0.7927
850	0.708
859	0.6992
868	0.7503
877	0.7616
886	0.7874
895	0.7606
904	0.7867
913	0.7785
922	0.751
931	0.7861
940	0.7854
949	0.6967
958	0.5598
967	0.6035
976	0.6913
985	0.7185
994	0.674
1003	0.5655
1012	0.3619
1021	0.2431
1030	0.2104
1039	0.2055
1048	0.1204
1057	0.1695
1066	0.4356
1075	0.6532
1084	0.721
1093	0.7571
1102	0.7622
1111	0.7258
1120	0.7359
1129	0.6913
1138	0.7034
1147	0.7173
1156	0.7007
1165	0.5368
1174	0.7015
1183	0.7069
1192	0.6424
1201	0.4674
1210	0.1835
1219	0.0106
1228	0.0058
1237	0.0075
1246	0.0116
1255	0.0871
1264	0.1805
1273	0.2703
1282	0.4608
1291	0.6039
1300	0.6046
1309	0.6526
1318	0.7154
1327	0.7024
1336	0.7013
1345	0.6781
1354	0.4797
1363	0.0455
1372	0.3305
1381	0.3331
1390	0.3414
1399	0.5983
1408	0.658
1417	0.6256
1426	0.5443
1435	0.5541
1444	0.5264
1453	0.3653
1462	0.2275
1471	0.3668
1480	0.5728
1489	0.6926
1498	0.6892
1507	0.6638
1516	0.6333
1525	0.5996
1534	0.5357
1543	0.4688
1552	0.4727
1561	0.5356
1570	0.6141
1579	0.6276
1588	0.665
1597	0.7206
1606	0.7693
1615	0.8049
1624	0.8175
1633	0.8279
1642	0.8143
1651	0.786
1660	0.782
1669	0.7706
1678	0.7325
1687	0.6865
1696	0.6257
1705	0.5539
1714	0.3601
1723	0.1517
1732	0.0321
1741	0.0292
1750	0.042
1759	0.3176
1768	0.5235
1777	0.6504
1786	0.7087
1795	0.7468
1804	0.7808
1813	0.8007
1822	0.8056
1831	0.8203
1840	0.8274
1849	0.8353
1858	0.8354
1867	0.8341
1876	0.8394
1885	0.8522
1894	0.8605
1903	0.8604
1912	0.8581
1921	0.8597
1930	0.8626
1939	0.8677
1948	0.8688
1957	0.9379
1966	0.8675
1975	0.8681
1984	0.8658
1993	0.8216
2002	0.859
2011	0.8736
2020	0.8787
2029	0.8708
2038	0.8692
2047	0.8675
2056	0.8637
2065	0.8633
2074	0.8707
2083	0.8729
2092	0.8732
2101	0.8728
2110	0.8727
2119	0.8722
2128	0.8717
2137	0.8698
2146	0.8695
2155	0.8701
2164	0.8727
2173	0.8758
2182	0.8778
2191	0.8783
2200	0.8807
2209	0.8803
2218	0.8783
2227	0.8734
2236	0.8694
2245	0.8663
2254	0.8635
2263	0.8608
2272	0.8595
2281	0.8585
2290	0.8599
2299	0.8635
2308	0.8656
2317	0.8668
2326	0.8741
2335	0.8791
2344	0.8803
2353	0.8788
2362	0.8764
2371	0.8732
2380	0.8719
2389	0.8717
2398	0.873
2407	0.8738
2416	0.8737
2425	0.8729
2434	0.8716
2443	0.8699
2452	0.8678
2461	0.8647
2470	0.8627
2479	0.8647
2488	0.8702
2497	0.8737
2506	0.8752
2515	0.8758
2524	0.8764
2533	0.8761
2542	0.8748
2551	0.8729
2560	0.8702
2569	0.8682
2578	0.866
2587	0.8619
2596	0.8594
2605	0.8583
2614	0.8586
2623	0.8601
2632	0.8593
2641	0.8578
2650	0.8593
2659	0.8629
2668	0.8628
2677	0.8606
2686	0.8564
2695	0.8486
2704	0.8391
2713	0.8277
2722	0.8283
2731	0.8373
2740	0.847
2749	0.847
2758	0.8428
2767	0.8435
2776	0.8414
2785	0.8336
2794	0.8232
2803	0.8111
2812	0.7932
2821	0.7803
2830	0.7615
2839	0.6776
2848	0.6462
2857	0.5314
2866	0.2164
2875	0.2791
2884	0.3623
2893	0.3167
2902	0.2409
2911	0.2152
2920	0.1676
2929	0.1228
2938	0.1386
2947	0.0555
2956	0.0235
2965	0.0299
2974	0.1777
2983	0.4126
2992	0.5538
3001	0.6772
3010	0.7314
3019	0.7635
3028	0.7853
3037	0.8052
3046	0.8226
3055	0.8347
3064	0.8437
3073	0.8508
3082	0.8569
3091	0.8609
3100	0.8637
3109	0.8661
3118	0.8674
3127	0.8683
3136	0.8691
3145	0.8698
3154	0.8703
3163	0.8706
3172	0.8711
3181	0.8716
3190	0.8742
3199	0.8773
3208	0.8806
3217	0.8837
3226	0.8865
3235	0.8895
3244	0.8932
3253	0.8952
3262	0.8959
3271	0.8961
3280	0.8985
3289	0.8992
3298	0.8993
3307	0.8992
3316	0.8992
3325	0.8992
3334	0.8992
3343	0.8991
3352	0.899
3361	0.8984
3370	0.9006
3379	0.9044
3388	0.9062
3397	0.9059
3406	0.9029
3415	0.8979
3424	0.8909
3433	0.8825
3442	0.8702
3451	0.8533
3460	0.8439
3469	0.8437
3478	0.8553
3487	0.8652
3496	0.8663
3505	0.8643
3514	0.8609
3523	0.8565
3532	0.8532
3541	0.8505
3550	0.8501
3559	0.8532
3568	0.8565
3577	0.8599
3586	0.8642
3595	0.8699
3604	0.8744
3613	0.8746
3622	0.8682
3631	0.8624
3640	0.8635
3649	0.8702
3658	0.8784
3667	0.8786
3676	0.8772
3685	0.8713
3694	0.8725
3703	0.8797
3712	0.8865
3721	0.8875
3730	0.8873
3739	0.8915
3748	0.8937
