Infrared Spectrum: Glycerol monostearate
Formula: C21 H42 O4
CAS: 123-94-4
State: SOLID (NEAT)
Class: COBLENTZ III
Instrument: DOW KBr FOREPRISM-GRATING
Instrument parameters: BLAZED AT 3.5, 12.0, 20.0 MICRON AND CHANGED AT 5.0, 7.5, 14.9 MICRON
Sampling: TRANSMISSION
Path length: SMEAR ON KBr PLATE
Resolution: 2
Origin: DOW CHEMICAL COMPANY
1/CM	TRANSMITTANCE
3798	0.7521
3789	0.7539
3780	0.7558
3771	0.7568
3762	0.7575
3753	0.7584
3744	0.7589
3735	0.7596
3726	0.7597
3717	0.7595
3708	0.7594
3699	0.759
3690	0.758
3681	0.7571
3672	0.7561
3663	0.7551
3654	0.7549
3645	0.7549
3636	0.7548
3627	0.7548
3618	0.7549
3609	0.754
3600	0.7437
3591	0.7354
3582	0.7332
3573	0.7305
3564	0.7254
3555	0.7094
3546	0.6864
3537	0.6554
3528	0.631
3519	0.606
3510	0.5835
3501	0.563
3492	0.5449
3483	0.5301
3474	0.524
3465	0.5218
3456	0.5212
3447	0.5218
3438	0.5228
3429	0.524
3420	0.5254
3411	0.5265
3402	0.5279
3393	0.5296
3384	0.5325
3375	0.5373
3366	0.5429
3357	0.5464
3348	0.5469
3339	0.547
3330	0.5462
3321	0.5432
3312	0.5417
3303	0.5427
3294	0.544
3285	0.5454
3276	0.5471
3267	0.5488
3258	0.5506
3249	0.5526
3240	0.5554
3231	0.5593
3222	0.5654
3213	0.5745
3204	0.5843
3195	0.595
3186	0.6084
3177	0.6228
3168	0.6383
3159	0.6515
3150	0.6643
3141	0.6754
3132	0.6858
3123	0.6946
3114	0.7025
3105	0.7065
3096	0.7076
3087	0.7072
3078	0.7054
3069	0.7032
3060	0.6997
3051	0.6951
3042	0.689
3033	0.6789
3024	0.6634
3015	0.6406
3006	0.616
2997	0.5699
2988	0.504
2979	0.4219
2970	0.3686
2961	0.2498
2952	0.2044
2943	0.2155
2934	0.1199
2925	0.0791
2916	0.0507
2907	0.1058
2898	0.182
2889	0.223
2880	0.2684
2871	0.2755
2862	0.1994
2853	0.0655
2844	0.2012
2835	0.3977
2826	0.4974
2817	0.5524
2808	0.5877
2799	0.6177
2790	0.6435
2781	0.6653
2772	0.6878
2763	0.7062
2754	0.719
2745	0.7225
2736	0.723
2727	0.7258
2718	0.7337
2709	0.7408
2700	0.7449
2691	0.746
2682	0.7457
2673	0.7451
2664	0.7448
2655	0.7448
2646	0.7458
2637	0.7465
2628	0.7488
2619	0.7521
2610	0.7571
2601	0.7619
2592	0.7658
2583	0.7696
2574	0.7736
2565	0.7778
2556	0.7818
2547	0.7854
2538	0.789
2529	0.7925
2520	0.7955
2511	0.7984
2502	0.8008
2493	0.8028
2484	0.8044
2475	0.8051
2466	0.8068
2457	0.8094
2448	0.811
2439	0.8119
2430	0.8126
2421	0.8125
2412	0.8125
2403	0.8124
2394	0.8121
2385	0.8119
2376	0.8119
2367	0.8121
2358	0.8121
2349	0.8118
2340	0.8117
2331	0.8114
2322	0.8111
2313	0.8111
2304	0.811
2295	0.8118
2286	0.8132
2277	0.8146
2268	0.8165
2259	0.8186
2250	0.821
2241	0.8238
2232	0.8283
2223	0.8328
2214	0.8371
2205	0.8383
2196	0.8371
2187	0.8381
2178	0.8425
2169	0.8393
2160	0.8371
2151	0.8378
2142	0.8389
2133	0.8394
2124	0.839
2115	0.8382
2106	0.8373
2097	0.8365
2088	0.8362
2079	0.8375
2070	0.8388
2061	0.8395
2052	0.8399
2043	0.8401
2034	0.8397
2025	0.8394
2016	0.8396
2007	0.8398
1998	0.8402
1989	0.84
1980	0.8404
1971	0.841
1962	0.8414
1953	0.8412
1944	0.8415
1935	0.842
1926	0.8425
1917	0.8431
1908	0.8425
1899	0.8421
1890	0.8433
1881	0.8445
1872	0.8449
1863	0.8447
1854	0.8446
1845	0.8434
1836	0.841
1827	0.8377
1818	0.8325
1809	0.8243
1800	0.816
1791	0.8065
1782	0.7924
1773	0.7754
1764	0.7448
1755	0.6373
1746	0.3564
1737	0.1757
1728	0.1728
1719	0.2616
1710	0.302
1701	0.3939
1692	0.584
1683	0.6992
1674	0.7496
1665	0.7735
1656	0.7907
1647	0.8032
1638	0.8091
1629	0.8114
1620	0.8126
1611	0.8134
1602	0.8139
1593	0.8144
1584	0.815
1575	0.8156
1566	0.8161
1557	0.8162
1548	0.8156
1539	0.8144
1530	0.8125
1521	0.809
1512	0.8022
1503	0.79
1494	0.7641
1485	0.7076
1476	0.335
1467	0.3448
1458	0.4731
1449	0.5493
1440	0.599
1431	0.5838
1422	0.4802
1413	0.5488
1404	0.5947
1395	0.5247
1386	0.527
1377	0.5298
1368	0.5714
1359	0.591
1350	0.606
1341	0.6
1332	0.6081
1323	0.5949
1314	0.5586
1305	0.5472
1296	0.5753
1287	0.5606
1278	0.5741
1269	0.5383
1260	0.5315
1251	0.5458
1242	0.518
1233	0.546
1224	0.4997
1215	0.4948
1206	0.5427
1197	0.4139
1188	0.448
1179	0.3744
1170	0.4484
1161	0.5225
1152	0.578
1143	0.583
1134	0.5467
1125	0.5645
1116	0.5871
1107	0.5872
1098	0.5734
1089	0.6494
1080	0.6991
1071	0.6858
1062	0.6408
1053	0.646
1044	0.6022
1035	0.6846
1026	0.713
1017	0.729
1008	0.7271
999	0.7295
990	0.7244
981	0.7235
972	0.743
963	0.7234
954	0.7495
945	0.7005
936	0.6451
927	0.6942
918	0.7621
909	0.7719
900	0.7964
891	0.8041
882	0.7826
873	0.7364
864	0.7726
855	0.8094
846	0.8025
837	0.8317
828	0.8445
819	0.8508
810	0.8365
801	0.8453
792	0.8515
783	0.8249
774	0.8206
765	0.8273
756	0.8011
747	0.8025
738	0.7607
729	0.7285
720	0.4532
711	0.6639
702	0.7476
693	0.7769
684	0.7911
675	0.7918
666	0.7922
657	0.8053
648	0.8111
639	0.8082
630	0.8008
621	0.7903
612	0.7776
603	0.7643
594	0.7488
585	0.7311
576	0.7234
567	0.724
558	0.7205
549	0.7148
540	0.7148
531	0.7281
522	0.7375
513	0.7461
504	0.7536
495	0.7575
486	0.7568
477	0.7555
468	0.7588
459	0.7643
450	0.7706
441	0.7775
432	0.7842
423	0.7892
414	0.7934
405	0.7955
396	0.796
