Infrared Spectrum: HYDROQUINONE
Formula: C6 H6 O2
CAS: 123-31-9
State: SOLID (0.5% IN KBr PELLET)
Class: COBLENTZ III
Instrument: BECKMAN IR-7 (GRATING)
Instrument parameters: GRATING CHANGES AT 3000, 2200, 1150 CM^-^1
Sampling: TRANSMISSION
Resolution: 4
Origin: WESTERN REGIONAL RES. USDA
1/CM	TRANSMITTANCE
600	0.646
609.095	0.627
618.19	0.549
627.285	0.549
636.381	0.593
645.476	0.606
654.571	0.627
663.666	0.613
672.761	0.569
681.856	0.514
690.951	0.488
700.047	0.479
709.142	0.516
718.237	0.529
727.332	0.518
736.427	0.486
745.522	0.457
754.617	0.3391
763.712	0.147
772.808	0.311
781.903	0.435
790.998	0.503
800.093	0.557
809.188	0.507
818.283	0.525
827.378	0.153
836.474	0.299
845.569	0.6449
854.664	0.778
863.759	0.827
872.854	0.845
881.949	0.847
891.044	0.827
900.14	0.828
909.235	0.846
918.33	0.848
927.425	0.837
936.52	0.842
945.615	0.83
954.71	0.847
963.806	0.845
972.901	0.837
981.996	0.828
991.091	0.815
1000.19	0.809
1009.28	0.74
1018.38	0.789
1027.47	0.769
1036.57	0.754
1045.66	0.742
1054.76	0.734
1063.85	0.723
1072.95	0.702
1082.04	0.673
1091.14	0.5811
1100.23	0.404
1109.33	0.6
1118.42	0.575
1127.52	0.593
1136.61	0.559
1145.71	0.506
1154.8	0.41
1163.9	0.331
1172.99	0.291
1182.09	0.16
1191.18	0.07
1200.28	0.091
1209.37	0.055
1218.47	0.085
1227.56	0.135
1236.66	0.164
1245.75	0.147
1254.85	0.296
1263.95	0.329
1273.04	0.582
1282.14	0.694
1291.23	0.726
1300.33	0.728
1309.42	0.672
1318.52	0.57
1327.61	0.521
1336.71	0.481
1345.8	0.416
1354.9	0.295
1363.99	0.4
1373.09	0.517
1382.18	0.583
1391.28	0.581
1400.37	0.604
1409.47	0.668
1418.56	0.663
1427.66	0.607
1436.75	0.475
1445.85	0.379
1454.94	0.195
1464.04	0.078
1473.13	0.061
1482.23	0.185
1491.32	0.353
1500.42	0.362
1509.51	0.116
1518.61	0.069
1527.7	0.336
1536.8	0.518
1545.89	0.67
1554.99	0.738
1564.08	0.767
1573.18	0.794
1582.27	0.799
1591.37	0.79
1600.47	0.783
1609.56	0.718
1618.66	0.71
1627.75	0.717
1636.85	0.728
1645.94	0.737
1655.04	0.752
1664.13	0.772
1673.23	0.79
1682.32	0.809
1691.42	0.824
1700.51	0.836
1709.61	0.862
1718.7	0.871
1727.8	0.882
1736.89	0.879
1745.99	0.87
1755.08	0.874
1764.18	0.879
1773.27	0.886
1782.37	0.886
1791.46	0.883
1800.56	0.878
1809.65	0.879
1818.75	0.875
1827.84	0.874
1836.94	0.866
1846.03	0.849
1855.13	0.815
1864.22	0.781
1873.32	0.806
1882.41	0.855
1891.51	0.871
1900.6	0.874
1909.7	0.87
1918.8	0.866
1927.89	0.855
1936.99	0.851
1946.08	0.85
1955.18	0.848
1964.27	0.848
1973.37	0.845
1982.46	0.84
1991.56	0.834
2000.65	0.8287
2009.75	0.828
2018.84	0.827
2027.94	0.826
2037.03	0.8224
2046.13	0.8178
2055.22	0.816
2064.32	0.8173
2073.41	0.8189
2082.51	0.8205
2091.6	0.8241
2100.7	0.825
2109.79	0.827
2118.89	0.8288
2127.98	0.83
2137.08	0.83
2146.17	0.831
2155.27	0.831
2164.36	0.83
2173.46	0.828
2182.55	0.8261
2191.65	0.8225
2200.74	0.819
2209.84	0.8148
2218.93	0.8098
2228.03	0.8052
2237.12	0.8006
2246.22	0.7951
2255.32	0.789
2264.41	0.787
2273.51	0.785
2282.6	0.783
2291.7	0.7812
2300.79	0.779
2309.89	0.777
2318.98	0.7728
2328.08	0.7708
2337.17	0.769
2346.27	0.767
2355.36	0.765
2364.46	0.763
2373.55	0.7598
2382.65	0.7553
2391.74	0.7518
2400.84	0.7457
2409.93	0.7278
2419.03	0.717
2428.12	0.7069
2437.22	0.6964
2446.31	0.6851
2455.41	0.6728
2464.5	0.668
2473.6	0.6709
2482.69	0.6771
2491.79	0.6806
2500.88	0.6852
2509.98	0.6888
2519.07	0.6899
2528.17	0.6821
2537.26	0.6714
2546.36	0.653
2555.45	0.6305
2564.55	0.623
2573.64	0.622
2582.74	0.6206
2591.84	0.618
2600.93	0.6186
2610.03	0.6272
2619.12	0.6315
2628.22	0.6374
2637.31	0.6448
2646.41	0.6475
2655.5	0.6459
2664.6	0.6396
2673.69	0.6257
2682.79	0.5905
2691.88	0.5707
2700.98	0.562
2710.07	0.559
2719.17	0.5582
2728.26	0.5615
2737.36	0.5697
2746.45	0.5767
2755.55	0.5964
2764.64	0.6031
2773.74	0.605
2782.83	0.603
2791.93	0.5972
2801.02	0.5866
2810.12	0.5602
2819.21	0.5352
2828.31	0.5174
2837.4	0.509
2846.5	0.5067
2855.59	0.5031
2864.69	0.501
2873.78	0.5041
2882.88	0.506
2891.97	0.5038
2901.07	0.4992
2910.17	0.4893
2919.26	0.4791
2928.36	0.4679
2937.45	0.4588
2946.55	0.4486
2955.64	0.4386
2964.74	0.4225
2973.83	0.4117
2982.93	0.403
2992.02	0.3948
3001.12	0.3721
3010.21	0.3597
3019.31	0.3455
3028.4	0.2756
3037.5	0.2705
3046.59	0.29
3055.69	0.283
3064.78	0.2663
3073.88	0.2495
3082.97	0.2341
3092.07	0.22
3101.16	0.2083
3110.26	0.1978
3119.35	0.182
3128.45	0.1581
3137.54	0.1454
3146.64	0.1355
3155.73	0.1289
3164.83	0.1177
3173.92	0.1098
3183.02	0.1062
3192.11	0.1006
3201.21	0.0941
3210.3	0.0885
3219.4	0.0879
3228.49	0.0853
3237.59	0.082
3246.69	0.0791
3255.78	0.075
3264.88	0.077
3273.97	0.0806
3283.07	0.0884
3292.16	0.0959
3301.26	0.1031
3310.35	0.109
3319.45	0.1201
3328.54	0.1393
3337.64	0.1591
3346.73	0.1822
3355.83	0.2006
3364.92	0.2361
3374.02	0.2551
3383.11	0.2768
3392.21	0.2965
3401.3	0.3186
3410.4	0.352
3419.49	0.3792
3428.59	0.414
3437.68	0.4529
3446.78	0.4963
3455.87	0.5312
3464.97	0.5623
3474.06	0.6049
3483.16	0.6408
3492.25	0.668
3501.35	0.6941
3510.44	0.7147
3519.54	0.7421
3528.63	0.769
3537.73	0.7819
3546.82	0.8001
3555.92	0.8172
3565.02	0.83
3574.11	0.84
3583.21	0.8508
3592.3	0.855
3601.4	0.8626
3610.49	0.8701
3619.59	0.8737
3628.68	0.876
3637.78	0.8789
3646.87	0.8844
3655.97	0.887
3665.06	0.8874
3674.16	0.8836
3683.25	0.8792
3692.35	0.879
3701.44	0.879
3710.54	0.88
3719.63	0.879
3728.73	0.877
3737.82	0.8757
3746.92	0.875
3756.01	0.8736
3765.11	0.871
3774.2	0.866
3783.3	0.8658
3792.39	0.864
3801.49	0.8617
3810.58	0.86
3819.68	0.8555
3828.77	0.854
3837.87	0.853
3846.96	0.8515
3856.06	0.8452
3865.15	0.8416
3874.25	0.841
3883.34	0.8384
3892.44	0.8369
3901.54	0.836
3910.63	0.834
3919.73	0.8321
3928.82	0.83
3937.92	0.8269
3947.01	0.8234
3956.11	0.8228
3965.2	0.821
3974.3	0.819
3983.39	0.818
