Infrared Spectrum: p-Anisaldehyde
Formula: C 8 H 8 O 2
CAS: 123-11-5
State: liquid
Instrument: Bruker Tensor 27 FTIR
Resolution: 0.4821395
Origin: Pacific Northwest National Laboratory Under IARPA Contract
1/cm	dispersion index
7797.62	1.53751
7779.06	1.53754
7760.5	1.53754
7741.94	1.53753
7723.38	1.53752
7704.81	1.53751
7686.25	1.5375
7667.69	1.53749
7649.13	1.53747
7630.57	1.53746
7612.01	1.53745
7593.44	1.53743
7574.88	1.53742
7556.32	1.53741
7537.76	1.53739
7519.2	1.53737
7500.64	1.53736
7482.07	1.53734
7463.51	1.53733
7444.95	1.53731
7426.39	1.53729
7407.83	1.53728
7389.26	1.53726
7370.7	1.53724
7352.14	1.53722
7333.58	1.5372
7315.02	1.53719
7296.46	1.53717
7277.89	1.53715
7259.33	1.53712
7240.77	1.5371
7222.21	1.53708
7203.65	1.53706
7185.09	1.53703
7166.52	1.53701
7147.96	1.53699
7129.4	1.53696
7110.84	1.53694
7092.28	1.53691
7073.71	1.53688
7055.15	1.53686
7036.59	1.53683
7018.03	1.5368
6999.47	1.53676
6980.91	1.53673
6962.34	1.53669
6943.78	1.53666
6925.22	1.53662
6906.66	1.53659
6888.1	1.53662
6869.54	1.53662
6850.97	1.53659
6832.41	1.53656
6813.85	1.53652
6795.29	1.53649
6776.73	1.53645
6758.16	1.53641
6739.6	1.53637
6721.04	1.53633
6702.48	1.53628
6683.92	1.53625
6665.36	1.5362
6646.79	1.53616
6628.23	1.53611
6609.67	1.53607
6591.11	1.53602
6572.55	1.53598
6553.99	1.53593
6535.42	1.53588
6516.86	1.53583
6498.3	1.53578
6479.74	1.53572
6461.18	1.53566
6442.61	1.5356
6424.05	1.53553
6405.49	1.53548
6386.93	1.53541
6368.37	1.53534
6349.81	1.53527
6331.24	1.53518
6312.68	1.53509
6294.12	1.53499
6275.56	1.53491
6257	1.53481
6238.44	1.53476
6219.87	1.53464
6201.31	1.53468
6182.75	1.53452
6164.19	1.53432
6145.63	1.5343
6127.06	1.53417
6108.5	1.53436
6089.94	1.53449
6071.38	1.53433
6052.82	1.53416
6034.26	1.53415
6015.69	1.53397
5997.13	1.53379
5978.57	1.53374
5960.01	1.53354
5941.45	1.53331
5922.89	1.53363
5904.32	1.53342
5885.76	1.53327
5867.2	1.5331
5848.64	1.53294
5830.08	1.53278
5811.51	1.53254
5792.95	1.53236
5774.39	1.53206
5755.83	1.53178
5737.27	1.53147
5718.71	1.53137
5700.14	1.53124
5681.58	1.53099
5663.02	1.53072
5644.46	1.53045
5625.9	1.53003
5607.34	1.52937
5588.77	1.52846
5570.21	1.52999
5551.65	1.52876
5533.09	1.52813
5514.53	1.52717
5495.96	1.52648
5477.4	1.52557
5458.84	1.52425
5440.28	1.5226
5421.72	1.524
5403.16	1.52431
5384.59	1.52339
5366.03	1.53016
5347.47	1.53066
5328.91	1.5191
5310.35	1.53545
5291.79	1.53488
5273.22	1.52915
5254.66	1.53925
5236.1	1.53574
5217.54	1.53207
5198.98	1.53049
5180.41	1.53158
5161.85	1.52883
5143.29	1.52856
5124.73	1.52682
5106.17	1.5272
5087.61	1.52501
5069.04	1.52338
5050.48	1.5226
5031.92	1.52247
5013.36	1.51989
4994.8	1.51811
4976.24	1.51614
4957.67	1.51331
4939.11	1.5109
4920.55	1.50857
4901.99	1.50996
4883.43	1.5059
4864.86	1.49994
4846.3	1.49702
4827.74	1.49006
4809.18	1.479
4790.62	1.46329
4772.06	1.43154
4753.49	1.2893
4734.93	1.65755
4716.37	1.46005
4697.81	1.64254
4679.25	1.6331
4660.69	1.50247
4642.12	1.55878
4623.56	1.54834
4605	1.54661
4586.44	1.51707
4567.88	1.45737
4549.31	1.49705
4530.75	1.38693
4512.19	1.59159
4493.63	1.5463
4475.07	1.84915
4456.51	1.60564
4437.94	1.59724
4419.38	1.50676
4400.82	1.65685
4382.26	1.59747
4363.7	1.57434
4345.14	1.54
4326.57	1.4756
4308.01	1.71341
4289.45	1.62601
4270.89	1.61903
4252.33	1.59537
4233.76	1.57035
4215.2	1.57435
4196.64	1.72382
4178.08	1.59981
4159.52	1.53206
4140.96	1.6289
4122.39	1.60791
4103.83	1.60583
4085.27	2.20188e-05
4066.71	1.81385e-05
4048.15	2.1032e-05
4029.58	2.08276e-05
4011.02	1.92275e-05
3992.46	2.08611e-05
3973.9	2.22902e-05
3955.34	2.11677e-05
3936.78	2.17809e-05
3918.21	2.71575e-05
3899.65	2.90624e-05
3881.09	2.61371e-05
3862.53	2.72932e-05
3843.97	2.50481e-05
3825.41	2.61706e-05
3806.84	2.55574e-05
3788.28	2.67821e-05
3769.72	3.11048e-05
3751.16	2.99136e-05
3732.6	2.80086e-05
3714.03	2.71575e-05
3695.47	2.63063e-05
3676.91	2.46393e-05
3658.35	2.41969e-05
3639.79	2.77355e-05
3621.23	2.52507e-05
3602.66	2.18832e-05
3584.1	1.91253e-05
3565.54	1.77983e-05
3546.98	1.6778e-05
3528.42	1.8105e-05
3509.86	1.74917e-05
3491.29	1.72873e-05
3472.73	1.64714e-05
3454.17	1.59604e-05
3435.61	1.64027e-05
3417.05	1.59604e-05
3398.48	1.59269e-05
3379.92	1.57912e-05
3361.36	1.69472e-05
3342.8	1.76627e-05
3324.24	2.07254e-05
3305.68	2.6953e-05
3287.11	4.04974e-05
3268.55	5.13879e-05
3249.99	8.40575e-05
3231.43	0.000141913
3212.87	0.000247751
3194.31	0.000404978
3175.74	0.000295735
3157.18	0.000238221
3138.62	0.000187173
3120.06	0.00012966
3101.5	0.000132043
3082.93	0.000104478
3064.37	9.42678e-05
3045.81	7.31688e-05
3027.25	6.4319e-05
3008.69	6.60213e-05
2990.13	7.14665e-05
2971.56	5.85337e-05
2953	6.12563e-05
2934.44	7.14665e-05
2915.88	7.35089e-05
2897.32	6.84038e-05
2878.76	7.86123e-05
2860.19	6.32987e-05
2841.63	6.53411e-05
2823.07	7.14665e-05
2804.51	6.5001e-05
2785.95	4.86653e-05
2767.38	4.52624e-05
2748.82	5.00257e-05
2730.26	4.86653e-05
2711.7	9.12051e-05
2693.14	6.73835e-05
2674.58	6.84038e-05
2656.01	5.88755e-05
2637.45	6.46609e-05
2618.89	7.3849e-05
2600.33	0.00013953
2581.77	0.000236861
2563.21	0.000306965
2544.64	0.000585345
2526.08	0.000510476
2507.52	0.0007521
2488.96	0.000626183
2470.4	0.000704455
2451.83	0.00124556
2433.27	0.00151441
2414.71	0.00238222
2396.15	0.00195342
2377.59	0.00115708
2359.03	0.000946081
2340.46	0.00149059
2321.9	0.000888227
2303.34	0.000990321
2284.78	0.00116729
2266.22	0.000980113
2247.66	0.00125577
2229.09	0.00235159
2210.53	0.0012932
2191.97	0.00101074
2173.41	0.000939275
2154.85	0.000864404
2136.28	0.000864404
2117.72	0.000575135
2099.16	0.000643199
2080.6	0.000561522
2062.04	0.000626183
2043.48	0.000997129
2024.91	0.00164373
2006.35	0.00174242
1987.79	0.00152802
1969.23	0.0016165
1950.67	0.00159268
1932.11	0.00135106
1913.54	0.0012864
1894.98	0.00260683
1876.42	0.00684037
1857.86	0.00209295
1839.3	0.00266468
1820.73	0.00261704
1802.17	0.00537701
1783.61	0.00544507
1765.05	0.00697649
1746.49	0.0116388
1727.93	0.0157226
1709.36	0.0262384
1690.8	0.0294374
1672.24	0.0364139
1653.68	0.0308327
1635.12	0.0158928
1616.56	0.0690843
1597.99	0.0360736
1579.43	0.0364139
1560.87	0.0401574
1542.31	0.0123195
1523.75	0.0082697
1505.18	0.0068744
1486.62	0.0134765
1468.06	0.00517282
1449.5	0.00449218
1430.94	0.00445815
1412.38	0.00735084
1393.81	0.00136467
1375.25	0.00130001
1356.69	0.00317175
1338.13	0.00718069
1319.57	0.000830372
1301.01	0.00114006
1282.44	0.00157907
1263.88	0.00115367
1245.32	0.0047304
1226.76	0.00833776
1208.2	0.0166415
1189.63	0.00697649
1171.07	0.00439009
1152.51	0.0123195
1133.95	0.00724875
1115.39	0.00404977
1096.83	0.00861001
1078.26	0.0134765
1059.7	0.0837179
1041.14	1.05158
1022.58	0.0561523
1004.02	0.820164
985.455	0.19364
966.894	0.0307646
948.332	0.0605764
929.77	0.223248
911.208	0.17152
892.647	0.0527491
874.085	0.0411783
855.523	0.421993
836.961	0.411783
818.399	0.310029
799.838	0.103116
781.276	1.54504
762.714	0.0374349
744.152	0.0195002
725.591	0.0459428
707.029	0.230394
688.467	0.0153483
669.905	0.0164033
651.344	0.0102095
632.782	0.0952887
614.22	0.895033
595.658	0.0251834
577.096	0.0527491
558.535	0.0163352
539.973	0.0005377
521.411	0.442412
502.849	0.561523
484.288	0.0125917
465.726	0.0626183
447.164	0.0449218
428.602	0.0118771
410.041	0.0367542
