Infrared Spectrum: 3-Methyl-1-butanol
Formula: C 5 H 12 O
CAS: 123-51-3
State: liquid
Instrument: Bruker Tensor 27 FTIR
Resolution: 0.48212986
Origin: Pacific Northwest National Laboratory Under IARPA Contract
1/cm	dispersion index
7797.49	1.39355
7778.93	1.39356
7760.37	1.39355
7741.81	1.39353
7723.24	1.39352
7704.68	1.39351
7686.12	1.39349
7667.56	1.39347
7649	1.39346
7630.44	1.39344
7611.88	1.39342
7593.31	1.3934
7574.75	1.39339
7556.19	1.39337
7537.63	1.39335
7519.07	1.39333
7500.51	1.39331
7481.95	1.3933
7463.38	1.39327
7444.82	1.39326
7426.26	1.39324
7407.7	1.39322
7389.14	1.3932
7370.58	1.39317
7352.02	1.39315
7333.46	1.39313
7314.89	1.3931
7296.33	1.39308
7277.77	1.39306
7259.21	1.39303
7240.65	1.39301
7222.09	1.39299
7203.53	1.39296
7184.96	1.39293
7166.4	1.39291
7147.84	1.39288
7129.28	1.39285
7110.72	1.39282
7092.16	1.39279
7073.6	1.39276
7055.03	1.39273
7036.47	1.3927
7017.91	1.39267
6999.35	1.39264
6980.79	1.3926
6962.23	1.39256
6943.67	1.39252
6925.1	1.39248
6906.54	1.39243
6887.98	1.39238
6869.42	1.39231
6850.86	1.39227
6832.3	1.39225
6813.74	1.39223
6795.17	1.39222
6776.61	1.39218
6758.05	1.39214
6739.49	1.39208
6720.93	1.39204
6702.37	1.39199
6683.81	1.39193
6665.25	1.39187
6646.68	1.39181
6628.12	1.39175
6609.56	1.39168
6591	1.39161
6572.44	1.39154
6553.88	1.39146
6535.32	1.39138
6516.75	1.3913
6498.19	1.39122
6479.63	1.39114
6461.07	1.39104
6442.51	1.39095
6423.95	1.39085
6405.39	1.39075
6386.82	1.39064
6368.26	1.39052
6349.7	1.3904
6331.14	1.39028
6312.58	1.39018
6294.02	1.39008
6275.46	1.38998
6256.89	1.38985
6238.33	1.38971
6219.77	1.38954
6201.21	1.38936
6182.65	1.38917
6164.09	1.38896
6145.53	1.38871
6126.96	1.3884
6108.4	1.38804
6089.84	1.38801
6071.28	1.38781
6052.72	1.38798
6034.16	1.38769
6015.6	1.38752
5997.03	1.3872
5978.47	1.38686
5959.91	1.38654
5941.35	1.38616
5922.79	1.38596
5904.23	1.38554
5885.67	1.38498
5867.11	1.38435
5848.54	1.38369
5829.98	1.38299
5811.42	1.38216
5792.86	1.38121
5774.3	1.38
5755.74	1.37855
5737.18	1.37669
5718.61	1.37426
5700.05	1.37132
5681.49	1.36728
5662.93	1.36265
5644.37	1.3585
5625.81	1.35617
5607.25	1.3575
5588.68	1.36355
5570.12	1.37697
5551.56	1.39199
5533	1.40326
5514.44	1.40953
5495.88	1.41055
5477.32	1.40753
5458.75	1.40195
5440.19	1.3948
5421.63	1.38523
5403.07	1.36829
5384.51	1.31005
5365.95	1.40214
5347.39	1.42853
5328.82	1.4573
5310.26	1.43928
5291.7	1.42802
5273.14	1.42142
5254.58	1.41878
5236.02	1.41534
5217.46	1.41338
5198.89	1.41146
5180.33	1.41013
5161.77	1.40907
5143.21	1.40775
5124.65	1.4066
5106.09	1.40573
5087.53	1.40485
5068.97	1.40393
5050.4	1.40322
5031.84	1.40252
5013.28	1.4017
4994.72	1.40105
4976.16	1.40027
4957.6	1.39956
4939.04	1.39872
4920.47	1.39853
4901.91	1.39812
4883.35	1.39724
4864.79	1.39629
4846.23	1.39582
4827.67	1.39491
4809.11	1.39395
4790.54	1.39294
4771.98	1.39182
4753.42	1.39052
4734.86	1.38898
4716.3	1.38714
4697.74	1.3845
4679.18	1.38055
4660.61	1.37332
4642.05	1.35139
4623.49	1.39877
4604.93	1.39369
4586.37	1.39201
4567.81	1.40767
4549.25	1.40642
4530.68	1.39873
4512.12	1.39095
4493.56	1.39143
4475	1.38209
4456.44	1.3902
4437.88	1.30996
4419.32	1.46184
4400.75	1.46193
4382.19	1.44454
4363.63	1.43259
4345.07	1.42252
4326.51	1.40605
4307.95	1.41646
4289.39	1.4043
4270.83	1.40385
4252.26	1.4051
4233.7	1.41236
4215.14	1.42256
4196.58	1.42971
4178.02	1.43028
4159.46	1.43419
4140.9	1.42385
4122.33	1.4272
4103.77	1.42428
4085.21	0.000180381
4066.65	0.000176085
4048.09	0.000175227
4029.53	0.000173508
4010.97	0.000173508
3992.4	0.000170073
3973.84	0.000173508
3955.28	0.000174368
3936.72	0.000173508
3918.16	0.000175227
3899.6	0.000180381
3881.04	0.000201854
3862.47	0.000213021
3843.91	0.000224186
3825.35	0.000240507
3806.79	0.000246519
3788.23	0.000257686
3769.67	0.000258545
3751.11	0.000300634
3732.54	0.00029462
3713.98	0.000267134
3695.42	0.000277442
3676.86	0.000283455
3658.3	0.000291186
3639.74	0.000300634
3621.18	0.000316954
3602.61	0.000333274
3584.05	0.000344441
3565.49	0.00036076
3546.93	0.000377939
3528.37	0.000383952
3509.81	0.000387388
3491.25	0.000392542
3472.69	0.0003934
3454.12	0.000395977
3435.56	0.000400273
3417	0.000408004
3398.44	0.000419169
3379.88	0.000432913
3361.32	0.000446655
3342.76	0.000452669
3324.19	0.000444938
3305.63	0.000421746
3287.07	0.000392542
3268.51	0.000370208
3249.95	0.000341864
3231.39	0.000313518
3212.83	0.000292903
3194.26	0.000291186
3175.7	0.000334991
3157.14	0.000770481
3138.58	0.000987796
3120.02	0.0010651
3101.46	0.00109087
3082.9	0.000893311
3064.33	0.000748149
3045.77	0.000679432
3027.21	0.000739558
3008.65	0.000556602
2990.09	0.000462976
2971.53	0.000443221
2952.97	0.000431194
2934.4	0.000409721
2915.84	0.00032812
2897.28	0.000261122
2878.72	0.000235353
2860.16	0.000226763
2841.6	0.000223328
2823.04	0.000236213
2804.47	0.000233636
2785.91	0.000225905
2767.35	0.000219033
2748.79	0.000225046
2730.23	0.00026198
2711.67	0.000280878
2693.11	0.000299774
2674.55	0.000370208
2655.98	0.000494757
2637.42	0.000715508
2618.86	0.000979206
2600.3	0.00114241
2581.74	0.00111664
2563.18	0.000987796
2544.62	0.000843492
2526.05	0.00072152
2507.49	0.000641638
2488.93	0.000617588
2470.37	0.000603844
2451.81	0.000601267
2433.25	0.000776494
2414.69	0.00187252
2396.12	0.00505065
2377.56	0.00493898
2359	0.00766186
2340.44	0.00519667
2321.88	0.00478437
2303.32	0.00406285
2284.76	0.00433771
2266.19	0.00470706
2247.63	0.00467271
2229.07	0.0059096
2210.51	0.00375363
2191.95	0.00265417
2173.39	0.00255968
2154.83	0.00264558
2136.26	0.00282596
2117.7	0.00257686
2099.14	0.00227623
2080.58	0.00171791
2062.02	0.0018897
2043.46	0.00223328
2024.9	0.00460399
2006.33	0.00910491
1987.77	0.020529
1969.21	0.0462117
1950.65	0.092767
1932.09	0.163201
1913.53	0.252532
1894.97	0.351312
1876.41	0.437207
1857.84	0.451809
1839.28	0.404567
1820.72	0.326402
1802.16	0.23793
1783.6	0.162342
1765.04	0.108228
1746.48	0.0750725
1727.91	0.0583229
1709.35	0.0590101
1690.79	0.163201
1672.23	0.651087
1653.67	0.506782
1635.11	0.610716
1616.55	0.157188
1597.98	0.0703483
1579.42	0.0527397
1560.86	0.0511936
1542.3	0.0316095
1523.74	0.0322966
1505.18	0.0240507
1486.62	0.0217315
1468.05	0.0177803
1449.49	0.0135715
1430.93	0.0107369
1412.37	0.0103074
1393.81	0.00817724
1375.25	0.00634766
1356.69	0.00551448
1338.12	0.00504206
1319.56	0.00338428
1301	0.00334992
1282.44	0.00250814
1263.88	0.00342722
1245.32	0.00350453
1226.76	0.00676855
1208.19	0.00560897
1189.63	0.00261981
1171.07	0.00238789
1152.51	0.0059869
1133.95	0.00365914
1115.39	0.00430336
1096.83	0.00473283
1078.27	0.00667407
1059.7	0.00797968
1041.14	0.00979207
1022.58	0.0119395
1004.02	0.0145163
985.458	0.0189829
966.897	0.0302352
948.335	0.0821159
929.774	0.425182
911.213	0.242225
892.651	0.454386
874.09	0.198418
855.528	0.142586
836.967	0.0858953
818.406	0.0791955
799.844	0.0852941
781.283	0.102215
762.721	0.27916
744.16	0.114241
725.599	0.910491
707.037	0.712931
688.476	0.189829
669.915	0.101357
651.353	0.0367632
632.792	0.0109946
614.23	0.121112
595.669	0.0669984
577.108	0.117677
558.546	0.182957
539.985	0.243943
521.423	0.258545
502.862	0.21302
484.301	0.142586
465.739	0.13915
447.178	0.0414016
428.616	0.0135715
410.055	0.00637343
