Infrared Spectrum: BORNEOL, EXO-
Formula: C10 H18 O
CAS: 124-76-5
State: SOLUTION (10% IN CCl4 FOR 4000-1320, 10% IN CS2 FOR 1320-450 CM^-^1) VS. SOLVENT
Class: COBLENTZ III
Instrument: CARY 90 (GRATING)
Instrument parameters: GRATING CHANGES AT 3000, 2000, 1200 CM^-^1
Sampling: TRANSMISSION
Path length: 0.010, 0.010 CM
Resolution: 4
Origin: WESTERN REGIONAL RES. USDA
1/CM	TRANSMITTANCE
468.454	0.709
477.581	0.715
486.708	0.711
495.836	0.656
504.963	0.736
514.09	0.751
523.217	0.762
532.345	0.77
541.472	0.742
550.599	0.787
559.726	0.801
568.853	0.807
577.981	0.812
587.108	0.8
596.235	0.803
605.362	0.828
614.49	0.834
623.617	0.816
632.744	0.772
641.871	0.824
650.998	0.818
660.126	0.788
669.253	0.82
678.38	0.839
687.507	0.85
696.635	0.853
705.762	0.858
714.889	0.866
724.016	0.86
733.144	0.85
742.271	0.883
751.398	0.891
760.525	0.898
769.652	0.896
778.78	0.886
787.907	0.835
797.034	0.859
806.161	0.895
815.289	0.902
824.416	0.905
833.543	0.876
842.67	0.732
851.797	0.825
860.925	0.732
870.052	0.779
879.179	0.862
888.306	0.885
897.434	0.879
906.561	0.7199
915.688	0.746
924.815	0.814
933.942	0.802
943.07	0.646
952.197	0.615
961.324	0.788
970.451	0.634
979.579	0.76
988.706	0.54
997.833	0.2539
1006.96	0.3081
1016.09	0.583
1025.21	0.732
1034.34	0.778
1043.47	0.793
1052.6	0.72
1061.72	0.3177
1070.85	0.17
1079.98	0.425
1089.11	0.625
1098.23	0.6339
1107.36	0.409
1116.49	0.691
1125.61	0.782
1134.74	0.788
1143.87	0.801
1153	0.8
1162.12	0.779
1171.25	0.763
1180.38	0.779
1189.5	0.6599
1198.63	0.627
1207.76	0.662
1216.89	0.574
1226.01	0.64
1235.14	0.617
1244.27	0.631
1253.4	0.54
1262.52	0.633
1271.65	0.678
1280.78	0.599
1289.9	0.656
1299.03	0.681
1308.16	0.636
1317.29	0.752
1326.41	0.717
1335.54	0.631
1344.67	0.704
1353.79	0.766
1362.92	0.765
1372.05	0.408
1381.18	0.759
1390.3	0.401
1399.43	0.727
1408.56	0.796
1417.69	0.804
1426.81	0.812
1435.94	0.778
1445.07	0.66
1454.19	0.2789
1463.32	0.4521
1472.45	0.594
1481.58	0.479
1490.7	0.725
1499.83	0.837
1508.96	0.876
1518.08	0.894
1527.21	0.904
1536.34	0.913
1545.47	0.918
1554.59	0.921
1563.72	0.925
1572.85	0.921
1581.98	0.92
1591.1	0.922
1600.23	0.926
1609.36	0.925
1618.48	0.92
1627.61	0.916
1636.74	0.918
1645.87	0.921
1654.99	0.922
1664.12	0.925
1673.25	0.926
1682.37	0.926
1691.5	0.928
1700.63	0.928
1709.76	0.929
1718.88	0.93
1728.01	0.931
1737.14	0.931
1746.27	0.93
1755.39	0.933
1764.52	0.934
1773.65	0.933
1782.77	0.931
1791.9	0.931
1801.03	0.933
1810.16	0.933
1819.28	0.931
1828.41	0.93
1837.54	0.927
1846.66	0.925
1855.79	0.928
1864.92	0.93
1874.05	0.93
1883.17	0.93
1892.3	0.929
1901.43	0.928
1910.56	0.928
1919.68	0.928
1928.81	0.927
1937.94	0.927
1947.06	0.926
1956.19	0.926
1965.32	0.926
1974.45	0.925
1983.57	0.925
1992.7	0.925
2001.83	0.925
2010.95	0.925
2020.08	0.925
2029.21	0.925
2038.34	0.926
2047.46	0.927
2056.59	0.928
2065.72	0.929
2074.85	0.928
2083.97	0.928
2093.1	0.928
2102.23	0.9305
2111.35	0.93
2120.48	0.926
2129.61	0.9277
2138.74	0.929
2147.86	0.928
2156.99	0.927
2166.12	0.929
2175.24	0.931
2184.37	0.931
2193.5	0.933
2202.63	0.933
2211.75	0.933
2220.88	0.933
2230.01	0.933
2239.14	0.933
2248.26	0.933
2257.39	0.931
2266.52	0.9302
2275.64	0.929
2284.77	0.929
2293.9	0.928
2303.03	0.9274
2312.15	0.927
2321.28	0.927
2330.41	0.927
2339.54	0.928
2348.66	0.929
2357.79	0.9299
2366.92	0.93
2376.04	0.93
2385.17	0.928
2394.3	0.927
2403.43	0.925
2412.55	0.923
2421.68	0.923
2430.81	0.923
2439.93	0.923
2449.06	0.922
2458.19	0.9206
2467.32	0.92
2476.44	0.92
2485.57	0.921
2494.7	0.921
2503.83	0.9216
2512.95	0.923
2522.08	0.9213
2531.21	0.9182
2540.33	0.9188
2549.46	0.92
2558.59	0.921
2567.72	0.92
2576.84	0.918
2585.97	0.917
2595.1	0.9158
2604.22	0.914
2613.35	0.914
2622.48	0.9162
2631.61	0.917
2640.73	0.9154
2649.86	0.911
2658.99	0.912
2668.12	0.912
2677.24	0.91
2686.37	0.9069
2695.5	0.9044
2704.62	0.9013
2713.75	0.8913
2722.88	0.8737
2732.01	0.8518
2741.13	0.8607
2750.26	0.867
2759.39	0.869
2768.51	0.861
2777.64	0.8542
2786.77	0.8793
2795.9	0.886
2805.02	0.8805
2814.15	0.8631
2823.28	0.8388
2832.41	0.812
2841.53	0.7831
2850.66	0.7171
2859.79	0.5198
2868.91	0.1702
2878.04	0.0811
2887.17	0.1171
2896.3	0.1818
2905.42	0.1814
2914.55	0.1351
2923.68	0.0813
2932.8	0.0497
2941.93	0.0374
2951.06	0.0105
2960.19	0.0199
2969.31	0.0999
2978.44	0.2396
2987.57	0.2456
2996.7	0.5435
3005.82	0.6394
3014.95	0.627
3024.08	0.7782
3033.2	0.8393
3042.33	0.8758
3051.46	0.8855
3060.59	0.8955
3069.71	0.9016
3078.84	0.9046
3087.97	0.906
3097.09	0.906
3106.22	0.9053
3115.35	0.905
3124.48	0.904
3133.6	0.903
3142.73	0.903
3151.86	0.902
3160.99	0.9
3170.11	0.898
3179.24	0.897
3188.37	0.8958
3197.49	0.893
3206.62	0.891
3215.75	0.8877
3224.88	0.8856
3234	0.883
3243.13	0.8786
3252.26	0.8705
3261.38	0.8625
3270.51	0.8568
3279.64	0.8481
3288.77	0.8366
3297.89	0.8231
3307.02	0.8087
3316.15	0.7877
3325.28	0.7705
3334.4	0.7522
3343.53	0.7351
3352.66	0.718
3361.78	0.7018
3370.91	0.6907
3380.04	0.6787
3389.17	0.6698
3398.29	0.6615
3407.42	0.6524
3416.55	0.6436
3425.67	0.6382
3434.8	0.6336
3443.93	0.6275
3453.06	0.6235
3462.18	0.619
3471.31	0.6154
3480.44	0.612
3489.57	0.6195
3498.69	0.6353
3507.82	0.6593
3516.95	0.6892
3526.07	0.7224
3535.2	0.7538
3544.33	0.7861
3553.46	0.8083
3562.58	0.8304
3571.71	0.8442
3580.84	0.8498
3589.96	0.8373
3599.09	0.7631
3608.22	0.567
3617.35	0.463
3626.47	0.6584
3635.6	0.8148
3644.73	0.8668
3653.86	0.8872
3662.98	0.8966
3672.11	0.9037
3681.24	0.9087
3690.36	0.9128
3699.49	0.9156
3708.62	0.917
3717.75	0.918
3726.87	0.919
3736	0.921
3745.13	0.923
3754.25	0.923
3763.38	0.925
3772.51	0.925
3781.64	0.926
3790.76	0.9263
3799.89	0.927
3809.02	0.928
3818.15	0.928
3827.27	0.928
3836.4	0.9275
3845.53	0.927
3854.65	0.927
3863.78	0.926
3872.91	0.926
3882.04	0.9252
3891.16	0.925
3900.29	0.923
3909.42	0.923
3918.54	0.922
3927.67	0.921
3936.8	0.92
3945.93	0.919
3955.05	0.918
3964.18	0.916
