Infrared Spectrum: ISO-BORNEOL
Formula: C10 H18 O
CAS: 124-76-5
State: SOLID (MINERAL OIL MULL)
Class: COBLENTZ
Instrument: Not specified, most likely a prism, grating, or hybrid spectrometer.
Sampling: TRANSMISSION
Resolution: 4
Origin: INFRACORD
MICROMETERS	TRANSMITTANCE
2.518	0.919
2.55402	0.916
2.59005	0.913
2.62607	0.908
2.66209	0.91
2.69812	0.913
2.73414	0.914
2.77016	0.851
2.80618	0.751
2.84221	0.632
2.87823	0.447
2.91425	0.259
2.95028	0.184
2.9863	0.16
3.02232	0.191
3.05835	0.251
3.09437	0.39
3.13039	0.545
3.16642	0.652
3.20244	0.723
3.23846	0.769
3.27448	0.79
3.31051	0.768
3.34653	0.581
3.38255	0.296
3.41858	0.087
3.4546	0.066
3.49062	0.069
3.52665	0.085
3.56267	0.329
3.59869	0.657
3.63472	0.724
3.67074	0.73
3.70676	0.73
3.74278	0.763
3.77881	0.79
3.81483	0.824
3.85085	0.832
3.88688	0.842
3.9229	0.852
3.95892	0.871
3.99495	0.881
4.03097	0.883
4.06699	0.888
4.10302	0.893
4.13904	0.895
4.17506	0.9
4.21108	0.904
4.24711	0.914
4.28313	0.913
4.31915	0.912
4.35518	0.912
4.3912	0.912
4.42722	0.914
4.46325	0.926
4.49927	0.929
4.53529	0.929
4.57132	0.932
4.60734	0.935
4.64336	0.935
4.67938	0.935
4.71541	0.935
4.75143	0.933
4.78745	0.933
4.82348	0.935
4.8595	0.936
4.89552	0.939
4.93155	0.944
4.96757	0.942
5.00359	0.944
5.03962	0.948
5.07564	0.948
5.11166	0.948
5.14768	0.948
5.18371	0.947
5.21973	0.947
5.25575	0.948
5.29178	0.949
5.3278	0.95
5.36382	0.952
5.39985	0.954
5.43587	0.952
5.47189	0.954
5.50792	0.955
5.54394	0.955
5.57996	0.955
5.61598	0.955
5.65201	0.954
5.68803	0.955
5.72405	0.955
5.76008	0.955
5.7961	0.955
5.83212	0.955
5.86815	0.954
5.90417	0.954
5.94019	0.951
5.97622	0.948
6.01224	0.942
6.04826	0.937
6.08428	0.935
6.12031	0.926
6.15633	0.924
6.19235	0.924
6.22838	0.924
6.2644	0.924
6.30042	0.923
6.33645	0.923
6.37247	0.923
6.40849	0.923
6.44452	0.926
6.48054	0.924
6.51656	0.926
6.55258	0.924
6.58861	0.923
6.62463	0.905
6.66065	0.877
6.69668	0.824
6.7327	0.755
6.76872	0.548
6.80475	0.358
6.84077	0.287
6.87679	0.26
6.91282	0.166
6.94884	0.147
6.98486	0.286
7.02088	0.509
7.05691	0.584
7.09293	0.602
7.12895	0.603
7.16498	0.611
7.201	0.592
7.23702	0.313
7.27305	0.417
7.30907	0.352
7.34509	0.239
7.38112	0.381
7.41714	0.449
7.45316	0.412
7.48918	0.379
7.52521	0.375
7.56123	0.489
7.59725	0.595
7.63328	0.599
7.6693	0.458
7.70532	0.412
7.74135	0.423
7.77737	0.421
7.81339	0.421
7.84942	0.486
7.88544	0.531
7.92146	0.546
7.95748	0.54
7.99351	0.511
8.02953	0.5
8.06555	0.493
8.10158	0.487
8.1376	0.51
8.17362	0.518
8.20965	0.585
8.24567	0.574
8.28169	0.506
8.31772	0.576
8.35374	0.609
8.38976	0.594
8.42578	0.462
8.46181	0.535
8.49783	0.695
8.53385	0.711
8.56988	0.697
8.6059	0.699
8.64192	0.716
8.67795	0.733
8.71397	0.752
8.74999	0.759
8.78602	0.77
8.82204	0.772
8.85806	0.761
8.89408	0.76
8.93011	0.756
8.96613	0.721
9.00215	0.567
9.03818	0.352
9.0742	0.235
9.11022	0.375
9.14625	0.562
9.18227	0.594
9.21829	0.518
9.25432	0.331
9.29034	0.235
9.32636	0.131
9.36238	0.054
9.39841	0.059
9.43443	0.19
9.47045	0.431
9.50648	0.536
9.5425	0.63
9.57852	0.673
9.61455	0.707
9.65057	0.713
9.68659	0.716
9.72262	0.716
9.75864	0.707
9.79466	0.633
9.83068	0.519
9.86671	0.44
9.90273	0.267
9.93875	0.131
9.97478	0.098
10.0108	0.123
10.0468	0.331
10.0828	0.424
10.1189	0.442
10.1549	0.487
10.1909	0.624
10.2269	0.659
10.263	0.638
10.299	0.533
10.335	0.436
10.371	0.502
10.4071	0.624
10.4431	0.673
10.4791	0.652
10.5151	0.544
10.5511	0.499
10.5872	0.524
10.6232	0.524
10.6592	0.544
10.6952	0.66
10.7313	0.704
10.7673	0.684
10.8033	0.632
10.8393	0.673
10.8754	0.714
10.9114	0.717
10.9474	0.62
10.9834	0.518
11.0194	0.391
11.0555	0.521
11.0915	0.708
11.1275	0.767
11.1635	0.793
11.1996	0.808
11.2356	0.814
11.2716	0.82
11.3076	0.828
11.3437	0.83
11.3797	0.83
11.4157	0.821
11.4517	0.796
11.4877	0.737
11.5238	0.675
11.5598	0.676
11.5958	0.694
11.6318	0.624
11.6679	0.572
11.7039	0.669
11.7399	0.729
11.7759	0.731
11.812	0.659
11.848	0.559
11.884	0.506
11.92	0.554
11.956	0.678
11.9921	0.741
12.0281	0.786
12.0641	0.801
12.1001	0.807
12.1362	0.811
12.1722	0.814
12.2082	0.816
12.2442	0.816
12.2803	0.817
12.3163	0.817
12.3523	0.815
12.3883	0.812
12.4243	0.797
12.4604	0.798
12.4964	0.795
12.5324	0.782
12.5684	0.756
12.6045	0.727
12.6405	0.681
12.6765	0.636
12.7125	0.618
12.7486	0.638
12.7846	0.675
12.8206	0.713
12.8566	0.725
12.8926	0.729
12.9287	0.733
12.9647	0.734
13.0007	0.734
13.0367	0.734
13.0728	0.733
13.1088	0.73
13.1448	0.73
13.1808	0.726
13.2169	0.717
13.2529	0.708
13.2889	0.707
13.3249	0.705
13.3609	0.699
13.397	0.693
13.433	0.686
13.469	0.677
13.505	0.67
13.5411	0.664
13.5771	0.656
13.6131	0.645
13.6491	0.632
13.6852	0.617
13.7212	0.6
13.7572	0.581
13.7932	0.574
13.8292	0.572
13.8653	0.573
13.9013	0.577
13.9373	0.586
13.9733	0.593
14.0094	0.597
14.0454	0.6
14.0814	0.601
14.1174	0.6
14.1535	0.6
14.1895	0.6
14.2255	0.6
14.2615	0.595
14.2975	0.59
14.3336	0.58
14.3696	0.575
14.4056	0.573
14.4416	0.568
14.4777	0.565
14.5137	0.561
14.5497	0.556
14.5857	0.55
14.6218	0.547
14.6578	0.54
14.6938	0.536
14.7298	0.533
14.7658	0.529
14.8019	0.52
14.8379	0.51
14.8739	0.47
14.9099	0.481
14.946	0.483
14.982	0.484
