Infrared Spectrum: Octanoic acid
Formula: C 8 H 16 O 2
CAS: 124-07-2
State: liquid
Instrument: Bruker Tensor 27 FTIR
Resolution: 0.48212986
Origin: Pacific Northwest National Laboratory Under IARPA Contract
1/cm	dispersion index
7797.49	1.413
7778.93	1.41302
7760.37	1.41301
7741.81	1.41299
7723.24	1.41297
7704.68	1.41296
7686.12	1.41294
7667.56	1.41292
7649	1.4129
7630.44	1.41287
7611.88	1.41285
7593.31	1.41283
7574.75	1.41281
7556.19	1.41279
7537.63	1.41276
7519.07	1.41274
7500.51	1.41272
7481.95	1.4127
7463.38	1.41268
7444.82	1.41265
7426.26	1.41263
7407.7	1.4126
7389.14	1.41258
7370.58	1.41255
7352.02	1.41252
7333.46	1.41249
7314.89	1.41246
7296.33	1.41243
7277.77	1.4124
7259.21	1.41237
7240.65	1.41233
7222.09	1.4123
7203.53	1.41226
7184.96	1.41223
7166.4	1.41219
7147.84	1.41215
7129.28	1.41211
7110.72	1.41207
7092.16	1.41203
7073.6	1.41199
7055.03	1.41195
7036.47	1.41191
7017.91	1.41186
6999.35	1.41182
6980.79	1.41177
6962.23	1.41172
6943.67	1.41167
6925.1	1.41162
6906.54	1.41156
6887.98	1.4115
6869.42	1.41144
6850.86	1.41138
6832.3	1.41134
6813.74	1.41131
6795.17	1.41129
6776.61	1.41125
6758.05	1.41119
6739.49	1.41115
6720.93	1.41111
6702.37	1.41104
6683.81	1.41096
6665.25	1.41089
6646.68	1.41083
6628.12	1.41076
6609.56	1.41068
6591	1.41061
6572.44	1.41053
6553.88	1.41045
6535.32	1.41036
6516.75	1.41028
6498.19	1.41019
6479.63	1.4101
6461.07	1.41
6442.51	1.40991
6423.95	1.4098
6405.39	1.4097
6386.82	1.40959
6368.26	1.40948
6349.7	1.40936
6331.14	1.40923
6312.58	1.4091
6294.02	1.40896
6275.46	1.40881
6256.89	1.40866
6238.33	1.4085
6219.77	1.40834
6201.21	1.40818
6182.65	1.40799
6164.09	1.40779
6145.53	1.40756
6126.96	1.40729
6108.4	1.40696
6089.84	1.40677
6071.28	1.40669
6052.72	1.40677
6034.16	1.40646
6015.6	1.40637
5997.03	1.40613
5978.47	1.40594
5959.91	1.40565
5941.35	1.40536
5922.79	1.40508
5904.23	1.40479
5885.67	1.40439
5867.11	1.40397
5848.54	1.40349
5829.98	1.403
5811.42	1.40245
5792.86	1.40186
5774.3	1.4012
5755.74	1.40043
5737.18	1.39958
5718.61	1.39864
5700.05	1.39759
5681.49	1.39622
5662.93	1.39464
5644.37	1.39243
5625.81	1.39025
5607.25	1.38869
5588.68	1.38656
5570.12	1.3851
5551.56	1.38295
5533	1.38103
5514.44	1.37972
5495.88	1.37931
5477.32	1.37905
5458.75	1.37955
5440.19	1.38201
5421.63	1.38213
5403.07	1.37827
5384.51	1.35065
5365.95	1.39115
5347.39	1.45199
5328.82	1.44462
5310.26	1.45448
5291.7	1.44195
5273.14	1.43508
5254.58	1.43151
5236.02	1.43114
5217.46	1.43341
5198.89	1.43357
5180.33	1.43437
5161.77	1.43512
5143.21	1.43332
5124.65	1.4309
5106.09	1.42857
5087.53	1.42653
5068.97	1.42436
5050.4	1.42258
5031.84	1.42082
5013.28	1.41923
4994.72	1.41755
4976.16	1.41573
4957.6	1.41408
4939.04	1.41205
4920.47	1.40982
4901.91	1.40745
4883.35	1.40455
4864.79	1.40109
4846.23	1.39673
4827.67	1.39083
4809.11	1.38171
4790.54	1.3642
4771.98	1.31837
4753.42	1.49541
4734.86	1.50149
4716.3	1.45932
4697.74	1.43998
4679.18	1.42708
4660.61	1.41446
4642.05	1.39259
4623.49	1.40858
4604.93	1.44418
4586.37	1.43509
4567.81	1.40903
4549.25	1.40473
4530.68	1.45234
4512.12	1.46936
4493.56	1.46737
4475	1.46202
4456.44	1.44254
4437.88	1.44506
4419.32	1.43448
4400.75	1.42556
4382.19	1.40553
4363.63	1.45056
4345.07	1.46736
4326.51	1.46076
4307.95	1.45632
4289.39	1.45486
4270.83	1.44846
4252.26	1.45592
4233.7	1.44981
4215.14	1.45067
4196.58	1.45441
4178.02	1.4455
4159.46	1.43917
4140.9	1.44198
4122.33	1.46174
4103.77	1.45739
4085.21	0.000120286
4066.65	0.000118621
4048.09	0.000117373
4029.53	0.000116956
4010.97	0.000115708
3992.4	0.00011446
3973.84	0.000114043
3955.28	0.00011446
3936.72	0.000115292
3918.16	0.000116125
3899.6	0.000118621
3881.04	0.000125281
3862.47	0.000133189
3843.91	0.000143179
3825.35	0.000155249
3806.79	0.000165238
3788.23	0.000164822
3769.67	0.000156497
3751.11	0.000152335
3732.54	0.000146509
3713.98	0.000137351
3695.42	0.000130276
3676.86	0.000121951
3658.3	0.000113211
3639.74	0.000103638
3621.18	9.48971e-05
3602.61	8.8654e-05
3584.05	8.36591e-05
3565.49	7.94975e-05
3546.93	7.7416e-05
3528.37	7.69994e-05
3509.81	7.65843e-05
3491.25	7.69994e-05
3472.69	7.7416e-05
3454.12	7.82492e-05
3435.56	7.86643e-05
3417	8.03293e-05
3398.44	8.36591e-05
3379.88	8.78223e-05
3361.32	9.24005e-05
3342.76	9.8227e-05
3324.19	0.000104887
3305.63	0.000112795
3287.07	0.000122785
3268.51	0.000134438
3249.95	0.000147341
3231.39	0.000162325
3212.83	0.000182303
3194.26	0.000210605
3175.7	0.000263465
3157.14	0.00037959
3138.58	0.000532757
3120.02	0.000582704
3101.46	0.000674271
3082.9	0.000586865
3064.33	0.00055773
3045.77	0.000586865
3027.21	0.000511946
3008.65	0.000449515
2990.09	0.000432865
2971.53	0.000437027
2952.97	0.00044119
2934.4	0.00044119
2915.84	0.000437027
2897.28	0.000428703
2878.72	0.000428703
2860.16	0.000432865
2841.6	0.000445351
2823.04	0.000453676
2804.47	0.000457838
2785.91	0.000466162
2767.35	0.000474487
2748.79	0.000482812
2730.23	0.000486973
2711.67	0.00049946
2693.11	0.000507784
2674.55	0.000503621
2655.98	0.000503621
2637.42	0.000503621
2618.86	0.000503621
2600.3	0.000507784
2581.74	0.000524432
2563.18	0.000553568
2544.62	0.000611838
2526.05	0.000682596
2507.49	0.000728379
2488.93	0.000745027
2470.37	0.000757514
2451.81	0.000790811
2433.25	0.000894866
2414.69	0.00124449
2396.12	0.00224341
2377.56	0.00328811
2359	0.00303422
2340.44	0.00290519
2321.88	0.00286773
2303.32	0.00293849
2284.76	0.00296762
2266.19	0.00275119
2247.63	0.00272622
2229.07	0.00278449
2210.51	0.00247233
2191.95	0.00240573
2173.39	0.00206027
2154.83	0.002002
2136.26	0.002002
2117.7	0.00195206
2099.14	0.00191876
2080.58	0.00190627
2062.02	0.00178973
2043.46	0.00198535
2024.9	0.00217265
2006.33	0.00240573
1987.77	0.00243903
1969.21	0.00331725
1950.65	0.00424541
1932.09	0.0096146
1913.53	0.016066
1894.97	0.0222676
1876.41	0.0321735
1857.84	0.0404563
1839.28	0.0536919
1820.72	0.0695082
1802.16	0.0874055
1783.6	0.104887
1765.04	0.12653
1746.48	0.144843
1727.91	0.158162
1709.35	0.164406
1690.79	0.2002
1672.23	0.383752
1653.67	0.327146
1635.11	0.280114
1616.55	0.133606
1597.98	0.0973947
1579.42	0.0886541
1560.86	0.0878217
1542.3	0.0978109
1523.74	0.0944812
1505.18	0.084492
1486.62	0.0782487
1468.05	0.0645136
1449.49	0.0466163
1430.93	0.0361276
1412.37	0.0289687
1393.81	0.0242654
1375.25	0.0208941
1356.69	0.0187714
1338.12	0.0178557
1319.56	0.0164406
1301	0.015733
1282.44	0.0148173
1263.88	0.015067
1245.32	0.0143595
1226.76	0.0148173
1208.19	0.0156497
1189.63	0.0168984
1171.07	0.0187714
1152.51	0.0220595
1133.95	0.0265962
1115.39	0.0333389
1096.83	0.0437027
1078.27	0.105719
1059.7	1.01973
1041.14	0.164406
1022.58	0.0524433
1004.02	0.0273038
985.458	0.0222676
966.897	0.0226422
948.335	0.0327146
929.774	0.241406
911.213	0.264298
892.651	0.0811622
874.09	0.0944812
855.528	0.209773
836.967	0.319654
818.406	0.278449
799.844	0.178557
781.283	0.0953136
762.721	0.0478649
744.16	0.0402065
725.599	0.0373762
707.037	0.0482811
688.476	0.0874055
669.915	0.288854
651.353	0.167319
632.792	0.0924001
614.23	0.0661784
595.669	0.0699244
577.108	0.0491136
558.546	0.0636811
539.985	0.0541082
521.423	0.0520271
502.862	0.0532757
484.301	0.0133189
465.739	0.0327979
447.178	0.084492
428.616	0.0770001
410.055	0.0364606
