Infrared Spectrum: N-DODECYL AMINE
Formula: C12 H27 N
CAS: 124-22-1
State: LIQUID (MELT)
Class: COBLENTZ
Instrument: PERKIN-ELMER
Sampling: TRANSMISSION
Path length: CAPILLARY, HEATED DURING RUN TO KEEP SAMPLE MELTED
Resolution: 4
Origin: SUN CHEMICAL CORP., R.W. BASSEMIR
MICROMETERS	TRANSMITTANCE
2.047	0.758
2.08061	0.759
2.11422	0.759
2.14783	0.761
2.18144	0.761
2.21505	0.761
2.24866	0.758
2.28227	0.747
2.31588	0.72
2.34949	0.722
2.38309	0.725
2.4167	0.732
2.45031	0.739
2.48392	0.747
2.51753	0.751
2.55114	0.752
2.58475	0.754
2.61836	0.756
2.65197	0.759
2.68558	0.759
2.71919	0.756
2.7528	0.756
2.78641	0.758
2.82002	0.759
2.85363	0.759
2.88724	0.754
2.92085	0.751
2.95446	0.697
2.98807	0.698
3.02167	0.698
3.05528	0.698
3.08889	0.714
3.1225	0.72
3.15611	0.72
3.18972	0.724
3.22333	0.724
3.25694	0.717
3.29055	0.685
3.32416	0.619
3.35777	0.429
3.39138	0.093
3.42499	0.025
3.4586	0.065
3.49221	0.06
3.52582	0.181
3.55943	0.499
3.59304	0.61
3.62664	0.634
3.66025	0.653
3.69386	0.678
3.72747	0.678
3.76108	0.69
3.79469	0.7
3.8283	0.715
3.86191	0.724
3.89552	0.734
3.92913	0.746
3.96274	0.752
3.99635	0.759
4.02996	0.764
4.06357	0.768
4.09718	0.774
4.13079	0.771
4.1644	0.773
4.19801	0.774
4.23162	0.778
4.26522	0.778
4.29883	0.78
4.33244	0.778
4.36605	0.781
4.39966	0.78
4.43327	0.778
4.46688	0.778
4.50049	0.78
4.5341	0.78
4.56771	0.781
4.60132	0.78
4.63493	0.78
4.66854	0.78
4.70215	0.781
4.73576	0.781
4.76937	0.783
4.80298	0.783
4.83659	0.781
4.8702	0.781
4.9038	0.78
4.93741	0.781
4.97102	0.781
5.00463	0.781
5.03824	0.785
5.07185	0.786
5.10546	0.786
5.13907	0.785
5.17268	0.786
5.20629	0.79
5.2399	0.79
5.27351	0.79
5.30712	0.788
5.34073	0.79
5.37434	0.786
5.40795	0.788
5.44156	0.788
5.47517	0.79
5.50877	0.79
5.54238	0.79
5.57599	0.79
5.6096	0.79
5.64321	0.79
5.67682	0.788
5.71043	0.785
5.74404	0.781
5.77765	0.785
5.81126	0.781
5.84487	0.78
5.87848	0.781
5.91209	0.776
5.9457	0.771
5.97931	0.761
6.01292	0.751
6.04653	0.742
6.08014	0.71
6.11375	0.685
6.14735	0.631
6.18096	0.6
6.21457	0.624
6.24818	0.648
6.28179	0.666
6.3154	0.673
6.34901	0.686
6.38262	0.697
6.41623	0.71
6.44984	0.714
6.48345	0.72
6.51706	0.722
6.55067	0.724
6.58428	0.725
6.61789	0.724
6.6515	0.717
6.68511	0.7
6.71872	0.661
6.75233	0.573
6.78593	0.382
6.81954	0.255
6.85315	0.309
6.88676	0.411
6.92037	0.482
6.95398	0.56
6.98759	0.631
7.0212	0.671
7.05481	0.698
7.08842	0.705
7.12203	0.7
7.15564	0.666
7.18925	0.626
7.22286	0.561
7.25647	0.56
7.29008	0.602
7.32369	0.617
7.3573	0.637
7.3909	0.642
7.42451	0.67
7.45812	0.676
7.49173	0.707
7.52534	0.712
7.55895	0.705
7.59256	0.695
7.62617	0.685
7.65978	0.681
7.69339	0.685
7.727	0.697
7.76061	0.707
7.79422	0.714
7.82783	0.72
7.86144	0.724
7.89505	0.729
7.92866	0.736
7.96227	0.741
7.99588	0.742
8.02948	0.747
8.06309	0.751
8.0967	0.756
8.13031	0.758
8.16392	0.758
8.19753	0.759
8.23114	0.758
8.26475	0.761
8.29836	0.761
8.33197	0.763
8.36558	0.768
8.39919	0.768
8.4328	0.766
8.46641	0.764
8.50002	0.764
8.53363	0.764
8.56724	0.766
8.60085	0.764
8.63446	0.761
8.66806	0.761
8.70167	0.759
8.73528	0.758
8.76889	0.752
8.8025	0.749
8.83611	0.741
8.86972	0.732
8.90333	0.73
8.93694	0.73
8.97055	0.732
9.00416	0.729
9.03777	0.722
9.07138	0.708
9.10499	0.686
9.1386	0.666
9.17221	0.654
9.20582	0.651
9.23943	0.646
9.27303	0.636
9.30664	0.622
9.34025	0.622
9.37386	0.636
9.40747	0.654
9.44108	0.67
9.47469	0.676
9.5083	0.688
9.54191	0.698
9.57552	0.7
9.60913	0.703
9.64274	0.71
9.67635	0.712
9.70996	0.712
9.74357	0.712
9.77718	0.712
9.81079	0.714
9.8444	0.715
9.87801	0.717
9.91161	0.722
9.94522	0.725
9.97883	0.727
10.0124	0.727
10.0461	0.73
10.0797	0.73
10.1133	0.734
10.1469	0.736
10.1805	0.736
10.2141	0.736
10.2477	0.736
10.2813	0.732
10.3149	0.729
10.3485	0.725
10.3821	0.724
10.4158	0.72
10.4494	0.72
10.483	0.719
10.5166	0.717
10.5502	0.719
10.5838	0.719
10.6174	0.72
10.651	0.72
10.6846	0.72
10.7182	0.717
10.7519	0.71
10.7855	0.71
10.8191	0.705
10.8527	0.7
10.8863	0.693
10.9199	0.688
10.9535	0.683
10.9871	0.678
11.0207	0.668
11.0543	0.666
11.0879	0.663
11.1216	0.649
11.1552	0.642
11.1888	0.641
11.2224	0.634
11.256	0.624
11.2896	0.62
11.3232	0.617
11.3568	0.612
11.3904	0.602
11.424	0.597
11.4577	0.585
11.4913	0.58
11.5249	0.575
11.5585	0.566
11.5921	0.551
11.6257	0.546
11.6593	0.541
11.6929	0.527
11.7265	0.519
11.7601	0.514
11.7937	0.504
11.8274	0.499
11.861	0.489
11.8946	0.48
11.9282	0.475
11.9618	0.467
11.9954	0.458
12.029	0.448
12.0626	0.436
12.0962	0.426
12.1298	0.414
12.1634	0.406
12.1971	0.399
12.2307	0.385
12.2643	0.379
12.2979	0.372
12.3315	0.365
12.3651	0.362
12.3987	0.355
12.4323	0.35
12.4659	0.343
12.4995	0.331
12.5332	0.329
12.5668	0.328
12.6004	0.324
12.634	0.323
12.6676	0.324
12.7012	0.329
12.7348	0.331
12.7684	0.341
12.802	0.35
12.8356	0.353
12.8692	0.368
12.9029	0.377
12.9365	0.384
12.9701	0.392
13.0037	0.399
13.0373	0.409
13.0709	0.428
13.1045	0.438
13.1381	0.448
13.1717	0.467
13.2053	0.47
13.239	0.478
13.2726	0.489
13.3062	0.499
13.3398	0.505
13.3734	0.514
13.407	0.514
13.4406	0.521
13.4742	0.521
13.5078	0.522
13.5414	0.522
13.575	0.524
13.6087	0.519
13.6423	0.519
13.6759	0.516
13.7095	0.507
13.7431	0.5
13.7767	0.494
13.8103	0.47
13.8439	0.458
13.8775	0.446
13.9111	0.439
13.9448	0.445
13.9784	0.456
14.012	0.477
14.0456	0.497
14.0792	0.512
14.1128	0.522
14.1464	0.534
14.18	0.539
14.2136	0.546
14.2472	0.553
14.2808	0.558
14.3145	0.565
14.3481	0.566
14.3817	0.568
14.4153	0.568
14.4489	0.565
14.4825	0.563
14.5161	0.563
14.5497	0.563
14.5833	0.561
14.6169	0.56
14.6505	0.556
14.6842	0.553
14.7178	0.546
14.7514	0.544
14.785	0.541
14.8186	0.536
14.8522	0.532
14.8858	0.531
14.9194	0.531
14.953	0.532
