Infrared Spectrum: Octanoic acid
Formula: C8 H16 O2
CAS: 124-07-2
State: SOLUTION (10% CCl4 FOR 3800-1330, 10% CS2 FOR 1330-400)
Class: COBLENTZ III
Instrument: BECKMAN IR-9 (GRATING)
Instrument parameters: ORDER CHANGES: 670, 1200, 2000 CM^-^1
Sampling: TRANSMISSION
Path length: 0.010 CM, 0.011 CM
Resolution: 2
Origin: DOW CHEMICAL COMPANY
1/CM	TRANSMITTANCE
3816	0.943
3807	0.942
3798	0.9402
3789	0.9404
3780	0.9395
3771	0.9385
3762	0.9377
3753	0.937
3744	0.9363
3735	0.9366
3726	0.9359
3717	0.9338
3708	0.9325
3699	0.9299
3690	0.9289
3681	0.9284
3672	0.9291
3663	0.9295
3654	0.9293
3645	0.9279
3636	0.9268
3627	0.9275
3618	0.9274
3609	0.9269
3600	0.9258
3591	0.9245
3582	0.9194
3573	0.9037
3564	0.8751
3555	0.8713
3546	0.8783
3537	0.8883
3528	0.8884
3519	0.8862
3510	0.8824
3501	0.8776
3492	0.873
3483	0.8681
3474	0.8624
3465	0.8562
3456	0.8461
3447	0.8368
3438	0.8284
3429	0.8177
3420	0.807
3411	0.7956
3402	0.7816
3393	0.7656
3384	0.7507
3375	0.7324
3366	0.7153
3357	0.6975
3348	0.6795
3339	0.6632
3330	0.6469
3321	0.6286
3312	0.6066
3303	0.5845
3294	0.5647
3285	0.5443
3276	0.5232
3267	0.5015
3258	0.4818
3249	0.4621
3240	0.443
3231	0.424
3222	0.4044
3213	0.3862
3204	0.3703
3195	0.3554
3186	0.3394
3177	0.3221
3168	0.3029
3159	0.2854
3150	0.2694
3141	0.2544
3132	0.2348
3123	0.222
3114	0.2105
3105	0.205
3096	0.2027
3087	0.1982
3078	0.1895
3069	0.1805
3060	0.1764
3051	0.1752
3042	0.1754
3033	0.1748
3024	0.1741
3015	0.1695
3006	0.1602
2997	0.1343
2988	0.0808
2979	0.0242
2970	0.0087
2961	0.007
2952	0.0062
2943	0.0066
2934	0.0098
2925	0.0242
2916	0.0444
2907	0.0753
2898	0.0899
2889	0.0816
2880	0.0483
2871	0.034
2862	0.0506
2853	0.1745
2844	0.2538
2835	0.2929
2826	0.3184
2817	0.3387
2808	0.3581
2799	0.3752
2790	0.3923
2781	0.4023
2772	0.4039
2763	0.4057
2754	0.4091
2745	0.4132
2736	0.4142
2727	0.4133
2718	0.4094
2709	0.3994
2700	0.3832
2691	0.3756
2682	0.3749
2673	0.3808
2664	0.3922
2655	0.4039
2646	0.4149
2637	0.4253
2628	0.4352
2619	0.444
2610	0.4503
2601	0.4558
2592	0.4605
2583	0.465
2574	0.4751
2565	0.4924
2556	0.5157
2547	0.5354
2538	0.5549
2529	0.5745
2520	0.595
2511	0.6181
2502	0.6333
2493	0.65
2484	0.6702
2475	0.685
2466	0.7001
2457	0.7155
2448	0.7283
2439	0.7397
2430	0.7501
2421	0.7566
2412	0.7623
2403	0.7703
2394	0.7785
2385	0.7885
2376	0.7996
2367	0.8023
2358	0.806
2349	0.8091
2340	0.812
2331	0.8148
2322	0.8202
2313	0.8226
2304	0.8249
2295	0.8281
2286	0.8308
2277	0.8326
2268	0.8336
2259	0.8356
2250	0.837
2241	0.8397
2232	0.8419
2223	0.8449
2214	0.8464
2205	0.8488
2196	0.8508
2187	0.8517
2178	0.8536
2169	0.8543
2160	0.8528
2151	0.8518
2142	0.8518
2133	0.8548
2124	0.857
2115	0.8586
2106	0.8599
2097	0.86
2088	0.8595
2079	0.8581
2070	0.8563
2061	0.8543
2052	0.8529
2043	0.8498
2034	0.8476
2025	0.845
2016	0.8431
2007	0.8404
1998	0.8427
1989	0.8444
1980	0.8417
1971	0.8396
1962	0.8383
1953	0.8345
1944	0.8304
1935	0.8273
1926	0.8242
1917	0.8212
1908	0.8174
1899	0.8138
1890	0.8079
1881	0.8029
1872	0.796
1863	0.7879
1854	0.7794
1845	0.7708
1836	0.7615
1827	0.7522
1818	0.7435
1809	0.7312
1800	0.7206
1791	0.7137
1782	0.6947
1773	0.6524
1764	0.5878
1755	0.5282
1746	0.4515
1737	0.318
1728	0.1483
1719	0.0057
1710	0.0015
1701	0.013
1692	0.1227
1683	0.395
1674	0.5133
1665	0.5934
1656	0.6579
1647	0.7021
1638	0.7359
1629	0.765
1620	0.7779
1611	0.7889
1602	0.7802
1593	0.7576
1584	0.7222
1575	0.7223
1566	0.6953
1557	0.6622
1548	0.7306
1539	0.7743
1530	0.7694
1521	0.7737
1512	0.7803
1503	0.7753
1494	0.7533
1485	0.718
1476	0.6465
1467	0.2579
1458	0.2749
1449	0.35
1440	0.3204
1431	0.2825
1422	0.2456
1413	0.1589
1404	0.264
1395	0.6132
1386	0.6525
1377	0.5265
1368	0.6764
1359	0.6595
1350	0.6151
1341	0.5507
1332	0.4764
1323	0.4017
1314	0.3283
1305	0.2357
1296	0.1943
1287	0.1743
1278	0.1785
1269	0.2339
1260	0.3214
1251	0.3056
1242	0.2341
1233	0.2326
1224	0.3384
1215	0.4394
1206	0.3972
1197	0.4648
1188	0.5678
1179	0.5697
1170	0.5959
1161	0.6686
1152	0.7418
1143	0.7631
1134	0.7696
1125	0.7319
1116	0.5815
1107	0.5729
1098	0.7045
1089	0.7581
1080	0.7711
1071	0.7635
1062	0.7634
1053	0.7694
1044	0.7616
1035	0.7512
1026	0.7512
1017	0.7521
1008	0.7447
999	0.7312
990	0.7131
981	0.6726
972	0.5947
963	0.4965
954	0.3903
945	0.284
936	0.2611
927	0.2933
918	0.3568
909	0.4237
900	0.5045
891	0.5497
882	0.5908
873	0.6217
864	0.6474
855	0.6988
846	0.7279
837	0.7521
828	0.7852
819	0.7986
810	0.7917
801	0.7745
792	0.7761
783	0.8011
774	0.8098
765	0.814
756	0.7966
747	0.7956
738	0.786
729	0.6715
720	0.7206
711	0.8215
702	0.8265
693	0.8133
684	0.7952
675	0.7825
666	0.7919
657	0.787
648	0.8022
639	0.7895
630	0.7853
621	0.8151
612	0.8129
603	0.8278
594	0.8612
585	0.8829
576	0.895
567	0.8995
558	0.8845
549	0.8674
540	0.851
531	0.8351
522	0.8198
513	0.8059
504	0.7775
495	0.7391
486	0.6865
477	0.6837
468	0.6915
459	0.6912
450	0.6554
441	0.6047
432	0.5587
423	0.3995
414	0.2253
405	0.2154
