Infrared Spectrum: TRIBUTYL PHOSPHATE
Formula: C12 H27 O4 P
CAS: 126-73-8
Boiling point: 135 C AT 5 mmHg
Class: COBLENTZ
Instrument: Not specified, most likely a prism, grating, or hybrid spectrometer.
Sampling: TRANSMISSION
Path length: SMEAR
Resolution: 4
Origin: TENNESSEE EASTMAN COMPANY, RESEARCH LABORATORIES
MICROMETERS	TRANSMITTANCE
2.014	1
2.05496	1
2.09591	1
2.13687	1.003
2.17782	1.003
2.21878	1.001
2.25974	0.998
2.30069	1
2.34165	1.001
2.3826	1.001
2.42356	1.001
2.46452	1.001
2.50547	1.001
2.54643	1.001
2.58739	1.001
2.62834	1.001
2.6693	1.001
2.71025	1.001
2.75121	0.965
2.79217	0.894
2.83312	0.868
2.87408	0.852
2.91503	0.873
2.95599	0.924
2.99695	0.95
3.0379	0.958
3.07886	0.962
3.11981	0.964
3.16077	0.967
3.20173	0.969
3.24268	0.965
3.28364	0.935
3.32459	0.803
3.36555	0.244
3.40651	0.317
3.44746	0.418
3.48842	0.642
3.52937	0.858
3.57033	0.919
3.61129	0.929
3.65224	0.931
3.6932	0.952
3.73416	0.957
3.77511	0.96
3.81607	0.97
3.85702	0.974
3.89798	0.974
3.93894	0.977
3.97989	0.981
4.02085	0.984
4.0618	0.984
4.10276	0.984
4.14372	0.984
4.18467	0.984
4.22563	0.988
4.26658	0.988
4.30754	0.988
4.3485	0.984
4.38945	0.986
4.43041	0.988
4.47136	0.988
4.51232	0.988
4.55328	0.988
4.59423	0.988
4.63519	0.989
4.67614	0.988
4.7171	0.986
4.75806	0.984
4.79901	0.988
4.83997	0.988
4.88093	0.982
4.92188	0.982
4.96284	0.982
5.00379	0.982
5.04475	0.977
5.08571	0.976
5.12666	0.972
5.16762	0.964
5.20857	0.962
5.24953	0.953
5.29049	0.952
5.33144	0.957
5.3724	0.958
5.41335	0.96
5.45431	0.957
5.49527	0.957
5.53622	0.955
5.57718	0.947
5.61813	0.943
5.65909	0.938
5.70005	0.931
5.741	0.921
5.78196	0.909
5.82292	0.916
5.86387	0.924
5.90483	0.921
5.94578	0.917
5.98674	0.9
6.0277	0.882
6.06865	0.868
6.10961	0.859
6.15056	0.871
6.19152	0.888
6.23248	0.911
6.27343	0.926
6.31439	0.935
6.35534	0.931
6.3963	0.929
6.43726	0.921
6.47821	0.912
6.51917	0.912
6.56012	0.905
6.60108	0.899
6.64204	0.873
6.68299	0.841
6.72395	0.705
6.7649	0.579
6.80586	0.47
6.84682	0.535
6.88777	0.68
6.92873	0.745
6.96969	0.735
7.01064	0.83
7.0516	0.844
7.09255	0.842
7.13351	0.767
7.17447	0.688
7.21542	0.659
7.25638	0.68
7.29733	0.786
7.33829	0.823
7.37925	0.827
7.4202	0.835
7.46116	0.829
7.50211	0.822
7.54307	0.806
7.58403	0.779
7.62498	0.699
7.66594	0.605
7.70689	0.523
7.74785	0.398
7.78881	0.254
7.82976	0.222
7.87072	0.235
7.91167	0.251
7.95263	0.278
7.99359	0.362
8.03454	0.468
8.0755	0.523
8.11646	0.547
8.15741	0.676
8.19837	0.755
8.23932	0.786
8.28028	0.801
8.32124	0.811
8.36219	0.801
8.40315	0.803
8.4441	0.8
8.48506	0.781
8.52602	0.728
8.56697	0.697
8.60793	0.685
8.64888	0.611
8.68984	0.572
8.7308	0.639
8.77175	0.656
8.81271	0.623
8.85366	0.605
8.89462	0.564
8.93558	0.557
8.97653	0.605
9.01749	0.622
9.05845	0.611
9.0994	0.565
9.14036	0.494
9.18131	0.425
9.22227	0.377
9.26323	0.348
9.30418	0.287
9.34514	0.218
9.38609	0.169
9.42705	0.153
9.46801	0.158
9.50896	0.16
9.54992	0.152
9.59087	0.124
9.63183	0.085
9.67279	0.066
9.71374	0.059
9.7547	0.063
9.79565	0.087
9.83661	0.123
9.87757	0.136
9.91852	0.141
9.95948	0.143
10.0004	0.145
10.0414	0.138
10.0823	0.138
10.1233	0.141
10.1643	0.157
10.2052	0.177
10.2462	0.205
10.2871	0.276
10.3281	0.352
10.369	0.396
10.41	0.405
10.451	0.417
10.4919	0.456
10.5329	0.517
10.5738	0.579
10.6148	0.635
10.6557	0.676
10.6967	0.711
10.7376	0.723
10.7786	0.724
10.8196	0.711
10.8605	0.661
10.9015	0.579
10.9424	0.49
10.9834	0.451
11.0243	0.461
11.0653	0.502
11.1062	0.543
11.1472	0.577
11.1882	0.606
11.2291	0.635
11.2701	0.664
11.311	0.69
11.352	0.709
11.3929	0.719
11.4339	0.717
11.4749	0.688
11.5158	0.659
11.5568	0.646
11.5977	0.651
11.6387	0.661
11.6796	0.663
11.7206	0.658
11.7615	0.652
11.8025	0.652
11.8435	0.656
11.8844	0.659
11.9254	0.661
11.9663	0.658
12.0073	0.658
12.0482	0.663
12.0892	0.67
12.1302	0.671
12.1711	0.668
12.2121	0.654
12.253	0.634
12.294	0.617
12.3349	0.601
12.3759	0.603
12.4168	0.625
12.4578	0.663
12.4988	0.712
12.5397	0.747
12.5807	0.769
12.6216	0.782
12.6626	0.789
12.7035	0.791
12.7445	0.782
12.7854	0.76
12.8264	0.738
12.8674	0.721
12.9083	0.712
12.9493	0.709
12.9902	0.716
13.0312	0.729
13.0721	0.747
13.1131	0.76
13.1541	0.764
13.195	0.764
13.236	0.752
13.2769	0.741
13.3179	0.735
13.3588	0.724
13.3998	0.709
13.4407	0.678
13.4817	0.639
13.5227	0.613
13.5636	0.606
13.6046	0.613
13.6455	0.63
13.6865	0.651
13.7274	0.664
13.7684	0.68
13.8093	0.69
13.8503	0.7
13.8913	0.714
13.9322	0.726
13.9732	0.743
14.0141	0.755
14.0551	0.764
14.096	0.776
14.137	0.784
14.178	0.793
14.2189	0.798
14.2599	0.798
14.3008	0.803
14.3418	0.805
14.3827	0.803
14.4237	0.805
14.4646	0.803
14.5056	0.801
14.5466	0.8
14.5875	0.796
14.6285	0.791
14.6694	0.788
14.7104	0.782
14.7513	0.777
14.7923	0.776
14.8333	0.77
14.8742	0.765
14.9152	0.758
14.9561	0.743
14.9971	0.738
15.038	0.733
15.079	0.731
15.1199	0.729
15.1609	0.723
15.2019	0.719
15.2428	0.714
15.2838	0.707
15.3247	0.7
15.3657	0.695
15.4066	0.692
15.4476	0.688
15.4885	0.683
15.5295	0.676
15.5705	0.671
15.6114	0.67
15.6524	0.666
15.6933	0.664
15.7343	0.656
15.7752	0.652
15.8162	0.651
15.8572	0.646
15.8981	0.644
15.9391	0.642
15.98	0.641
