Infrared Spectrum: Tributyl phosphate
Formula: C 12 H 27 O 4 P
CAS: 126-73-8
State: liquid
Instrument: Bruker Tensor 27 FTIR
Origin: Pacific Northwest National Laboratory Under IARPA Contract
1/cm	dispersion index
7797.49	1.4117
7778.69	1.4117
7759.88	1.41169
7741.08	1.41169
7722.28	1.41168
7703.47	1.41168
7684.67	1.41167
7665.87	1.41167
7647.07	1.41166
7628.26	1.41166
7609.46	1.41165
7590.66	1.41165
7571.85	1.41164
7553.05	1.41163
7534.25	1.41163
7515.44	1.41162
7496.64	1.41162
7477.84	1.41161
7459.03	1.4116
7440.23	1.4116
7421.43	1.41159
7402.63	1.41158
7383.82	1.41158
7365.02	1.41157
7346.22	1.41157
7327.41	1.41156
7308.61	1.41155
7289.81	1.41155
7271	1.41154
7252.2	1.41154
7233.4	1.41153
7214.6	1.41153
7195.79	1.41152
7176.99	1.41152
7158.19	1.41151
7139.38	1.4115
7120.58	1.4115
7101.78	1.41149
7082.97	1.41149
7064.17	1.41148
7045.37	1.41147
7026.56	1.41146
7007.76	1.41146
6988.96	1.41145
6970.16	1.41144
6951.35	1.41144
6932.55	1.41143
6913.75	1.41142
6894.94	1.41141
6876.14	1.41141
6857.34	1.4114
6838.53	1.41139
6819.73	1.41138
6800.93	1.41137
6782.12	1.41136
6763.32	1.41136
6744.52	1.41135
6725.72	1.41134
6706.91	1.41133
6688.11	1.41132
6669.31	1.41131
6650.5	1.4113
6631.7	1.41129
6612.9	1.41129
6594.09	1.41128
6575.29	1.41127
6556.49	1.41126
6537.68	1.41125
6518.88	1.41124
6500.08	1.41123
6481.28	1.41122
6462.47	1.41121
6443.67	1.4112
6424.87	1.41119
6406.06	1.41118
6387.26	1.41117
6368.46	1.41115
6349.65	1.41114
6330.85	1.41113
6312.05	1.41112
6293.24	1.41111
6274.44	1.4111
6255.64	1.41109
6236.84	1.41107
6218.03	1.41106
6199.23	1.41105
6180.43	1.41104
6161.62	1.41102
6142.82	1.41101
6124.02	1.411
6105.21	1.41098
6086.41	1.41097
6067.61	1.41095
6048.81	1.41094
6030	1.41092
6011.2	1.4109
5992.4	1.41088
5973.59	1.41086
5954.79	1.41083
5935.99	1.4108
5917.18	1.4108
5898.38	1.4108
5879.58	1.41081
5860.77	1.41082
5841.97	1.41081
5823.17	1.41082
5804.37	1.41082
5785.56	1.4108
5766.76	1.41079
5747.96	1.41078
5729.15	1.41077
5710.35	1.41076
5691.55	1.41076
5672.74	1.41075
5653.94	1.41074
5635.14	1.41072
5616.33	1.4107
5597.53	1.41068
5578.73	1.41067
5559.93	1.41065
5541.12	1.41063
5522.32	1.41061
5503.52	1.41059
5484.71	1.41058
5465.91	1.41056
5447.11	1.41054
5428.3	1.41052
5409.5	1.4105
5390.7	1.41048
5371.89	1.41046
5353.09	1.41044
5334.29	1.41042
5315.49	1.41039
5296.68	1.41037
5277.88	1.41035
5259.08	1.41033
5240.27	1.41031
5221.47	1.41029
5202.67	1.41027
5183.86	1.41024
5165.06	1.41022
5146.26	1.4102
5127.45	1.41018
5108.65	1.41015
5089.85	1.41013
5071.05	1.4101
5052.24	1.41008
5033.44	1.41005
5014.64	1.41003
4995.83	1.41
4977.03	1.40997
4958.23	1.40995
4939.42	1.40992
4920.62	1.40989
4901.82	1.40986
4883.02	1.40983
4864.21	1.4098
4845.41	1.40977
4826.61	1.40973
4807.8	1.4097
4789	1.40967
4770.2	1.40963
4751.39	1.4096
4732.59	1.40956
4713.79	1.40952
4694.98	1.40948
4676.18	1.40944
4657.38	1.40939
4638.58	1.40935
4619.77	1.4093
4600.97	1.40925
4582.17	1.4092
4563.36	1.40914
4544.56	1.40908
4525.76	1.40901
4506.95	1.40893
4488.15	1.40884
4469.35	1.40873
4450.54	1.4086
4431.74	1.4085
4412.94	1.40853
4394.14	1.40871
4375.33	1.40873
4356.53	1.4087
4337.73	1.40882
4318.92	1.40893
4300.12	1.40888
4281.32	1.40881
4262.51	1.40877
4243.71	1.40881
4224.91	1.40878
4206.1	1.40872
4187.3	1.40874
4168.5	1.40871
4149.7	1.4086
4130.89	1.40848
4112.09	1.40839
4093.29	1.40843
4074.48	1.40846
4055.68	1.40843
4036.88	1.40836
4018.07	1.40835
3999.27	1.4083
3980.47	1.40832
3961.66	1.40822
3942.86	1.40815
3924.06	1.40808
3905.26	1.408
3886.45	1.4079
3867.65	1.4078
3848.85	1.40772
3830.04	1.40763
3811.24	1.40752
3792.44	1.40741
3773.63	1.40731
3754.83	1.40719
3736.03	1.40709
3717.23	1.40698
3698.42	1.40686
3679.62	1.40676
3660.82	1.40663
3642.01	1.40651
3623.21	1.40638
3604.41	1.4062
3585.6	1.40603
3566.8	1.40587
3548	1.40574
3529.19	1.40556
3510.39	1.40537
3491.59	1.40518
3472.79	1.40503
3453.98	1.40486
3435.18	1.40469
3416.38	1.40448
3397.57	1.40424
3378.77	1.40396
3359.97	1.40366
3341.16	1.40333
3322.36	1.40298
3303.56	1.40259
3284.75	1.40217
3265.95	1.40168
3247.15	1.40118
3228.35	1.40063
3209.54	1.40006
3190.74	1.39948
3171.94	1.39878
3153.13	1.39789
3134.33	1.39679
3115.53	1.39545
3096.72	1.39377
3077.92	1.39169
3059.12	1.38892
3040.31	1.38506
3021.51	1.37908
3002.71	1.36843
2983.91	1.34635
2965.1	1.35212
2946.3	1.42065
2927.5	1.43531
2908.69	1.4272
2889.89	1.43153
2871.09	1.44459
2852.28	1.44227
2833.48	1.43611
2814.68	1.4297
2795.87	1.42542
2777.07	1.42236
2758.27	1.42041
2739.47	1.41934
2720.66	1.4185
2701.86	1.41716
2683.06	1.41625
2664.25	1.41561
2645.45	1.41473
2626.65	1.41393
2607.84	1.41338
2589.04	1.41287
2570.24	1.41235
2551.44	1.41192
2532.63	1.41143
2513.83	1.411
2495.03	1.41056
2476.22	1.41012
2457.42	1.4097
2438.62	1.40932
2419.81	1.40901
2401.01	1.40871
2382.21	1.4084
2363.4	1.40806
2344.6	1.40772
2325.8	1.40745
2307	1.40706
2288.19	1.40679
2269.39	1.40647
2250.59	1.40615
2231.78	1.40578
2212.98	1.40539
2194.18	1.40507
2175.37	1.40481
2156.57	1.40443
2137.77	1.40408
2118.96	1.40363
2100.16	1.40326
2081.36	1.40277
2062.56	1.40228
2043.75	1.40182
2024.95	1.40147
2006.15	1.40086
1987.34	1.40052
1968.54	1.39996
1949.74	1.39932
1930.93	1.39897
1912.13	1.39849
1893.33	1.39839
1874.52	1.39804
1855.72	1.3974
1836.92	1.39685
1818.12	1.39628
1799.31	1.39564
1780.51	1.39521
1761.71	1.39446
1742.9	1.39405
1724.1	1.39305
1705.3	1.39208
1686.49	1.39094
1667.69	1.38961
1648.89	1.38814
1630.08	1.38667
1611.28	1.38494
1592.48	1.38306
1573.68	1.38079
1554.87	1.37819
1536.07	1.37492
1517.27	1.37036
1498.46	1.36276
1479.66	1.34785
1460.86	1.38188
1442.05	1.38608
1423.25	1.3802
1404.45	1.364
1385.65	1.36545
1366.84	1.36899
1348.04	1.35417
1329.24	1.33717
1310.43	1.3073
1291.63	1.25863
1272.83	1.39483
1254.02	1.46031
1235.22	1.417
1216.42	1.39702
1197.61	1.37335
1178.81	1.3512
1160.01	1.33267
1141.21	1.32995
1122.4	1.30453
1103.6	1.27111
1084.8	1.21277
1065.99	1.15177
1047.19	1.20252
1028.39	1.39152
1009.58	1.54169
990.781	1.57692
971.978	1.70425
953.175	1.62114
934.372	1.54877
915.568	1.48976
896.765	1.53694
877.962	1.50802
859.159	1.49843
840.356	1.49464
821.553	1.48821
802.75	1.51556
783.947	1.486
765.144	1.48896
746.341	1.46972
727.538	1.49847
708.735	1.49506
689.932	1.48073
671.129	1.47131
652.326	1.46378
633.523	1.45643
614.719	1.44809
595.916	1.43599
577.113	1.41313
558.31	1.42906
539.507	1.4569
520.704	1.46903
501.901	1.46999
483.098	1.4637
464.295	1.48179
445.492	1.49538
426.689	1.49289
407.886	1.50036
