Infrared Spectrum: 1,3-CYCLOHEXANEDIONE, 5,5-DIMETHYL-
Formula: C8 H12 O2
CAS: 126-81-8
State: SOLID (NUJOL MULL)
Class: COBLENTZ III
Instrument: BECKMAN IR-7 (GRATING)
Instrument parameters: GRATING CHANGES AT 3000, 2200, 1150 CM^-^1
Sampling: TRANSMISSION
Resolution: 4
Origin: WESTERN REGIONAL RES. USDA
1/CM	TRANSMITTANCE
597.497	0.915
606.446	0.699
615.394	0.8
624.343	0.896
633.292	0.914
642.241	0.927
651.189	0.931
660.138	0.932
669.087	0.932
678.035	0.932
686.984	0.932
695.933	0.931
704.881	0.925
713.83	0.911
722.779	0.902
731.728	0.906
740.676	0.913
749.625	0.918
758.574	0.921
767.522	0.92
776.471	0.919
785.42	0.918
794.368	0.913
803.317	0.84
812.266	0.9
821.215	0.826
830.163	0.74
839.112	0.7559
848.061	0.88
857.009	0.882
865.958	0.84
874.907	0.699
883.855	0.885
892.804	0.878
901.753	0.864
910.702	0.832
919.65	0.85
928.599	0.828
937.548	0.83
946.496	0.819
955.445	0.798
964.394	0.724
973.342	0.733
982.291	0.717
991.24	0.73
1000.19	0.742
1009.14	0.8
1018.09	0.824
1027.03	0.828
1035.98	0.842
1044.93	0.847
1053.88	0.844
1062.83	0.843
1071.78	0.844
1080.73	0.825
1089.68	0.813
1098.62	0.83
1107.57	0.82
1116.52	0.784
1125.47	0.715
1134.42	0.663
1143.37	0.219
1152.32	0.225
1161.27	0.653
1170.21	0.62
1179.16	0.763
1188.11	0.763
1197.06	0.713
1206.01	0.626
1214.96	0.4881
1223.91	0.244
1232.85	0.04
1241.8	0.29
1250.75	0.224
1259.7	0.32
1268.65	0.625
1277.6	0.689
1286.55	0.555
1295.5	0.454
1304.44	0.3241
1313.39	0.2401
1322.34	0.615
1331.29	0.559
1340.24	0.297
1349.19	0.15
1358.14	0.138
1367.09	0.3379
1376.03	0.4089
1384.98	0.493
1393.93	0.6699
1402.88	0.735
1411.83	0.652
1420.78	0.677
1429.73	0.648
1438.67	0.646
1447.62	0.456
1456.57	0.315
1465.52	0.219
1474.47	0.128
1483.42	0.22
1492.37	0.357
1501.32	0.375
1510.26	0.249
1519.21	0.134
1528.16	0.12
1537.11	0.186
1546.06	0.29
1555.01	0.374
1563.96	0.406
1572.91	0.36
1581.85	0.204
1590.8	0.229
1599.75	0.302
1608.7	0.112
1617.65	0.04
1626.6	0.09
1635.55	0.492
1644.5	0.692
1653.44	0.78
1662.39	0.81
1671.34	0.822
1680.29	0.842
1689.24	0.852
1698.19	0.848
1707.14	0.85
1716.08	0.863
1725.03	0.871
1733.98	0.867
1742.93	0.859
1751.88	0.826
1760.83	0.855
1769.78	0.869
1778.73	0.861
1787.67	0.838
1796.62	0.84
1805.57	0.835
1814.52	0.831
1823.47	0.812
1832.42	0.807
1841.37	0.801
1850.32	0.789
1859.26	0.776
1868.21	0.765
1877.16	0.749
1886.11	0.741
1895.06	0.726
1904.01	0.711
1912.96	0.707
1921.9	0.71
1930.85	0.715
1939.8	0.717
1948.75	0.72
1957.7	0.723
1966.65	0.73
1975.6	0.733
1984.55	0.736
1993.49	0.739
2002.44	0.738
2011.39	0.7375
2020.34	0.738
2029.29	0.7391
2038.24	0.7409
2047.19	0.7437
2056.14	0.7485
2065.08	0.7579
2074.03	0.7623
2082.98	0.7699
2091.93	0.7727
2100.88	0.7759
2109.83	0.78
2118.78	0.783
2127.72	0.7858
2136.67	0.7886
2145.62	0.7904
2154.57	0.7942
2163.52	0.797
2172.47	0.798
2181.42	0.799
2190.37	0.7973
2199.31	0.7927
2208.26	0.7881
2217.21	0.7825
2226.16	0.7779
2235.11	0.7714
2244.06	0.7646
2253.01	0.7553
2261.96	0.753
2270.9	0.7495
2279.85	0.7389
2288.8	0.7267
2297.75	0.72
2306.7	0.7144
2315.65	0.7053
2324.6	0.6961
2333.55	0.6879
2342.49	0.6794
2351.44	0.6712
2360.39	0.6628
2369.34	0.6555
2378.29	0.6481
2387.24	0.6397
2396.19	0.6309
2405.13	0.621
2414.08	0.6106
2423.03	0.6003
2431.98	0.5891
2440.93	0.578
2449.88	0.5675
2458.83	0.5565
2467.78	0.5491
2476.72	0.539
2485.67	0.5281
2494.62	0.519
2503.57	0.5098
2512.52	0.5005
2521.47	0.4921
2530.42	0.4852
2539.37	0.4796
2548.31	0.471
2557.26	0.4606
2566.21	0.457
2575.16	0.4676
2584.11	0.4827
2593.06	0.4703
2602.01	0.4575
2610.95	0.475
2619.9	0.4863
2628.85	0.489
2637.8	0.4881
2646.75	0.4796
2655.7	0.4651
2664.65	0.4649
2673.6	0.494
2682.54	0.5209
2691.49	0.5274
2700.44	0.5011
2709.39	0.4885
2718.34	0.4972
2727.29	0.5122
2736.24	0.5224
2745.19	0.5308
2754.13	0.5379
2763.08	0.545
2772.03	0.5352
2780.98	0.5387
2789.93	0.551
2798.88	0.5796
2807.83	0.5891
2816.77	0.5608
2825.72	0.5434
2834.67	0.5215
2843.62	0.489
2852.57	0.463
2861.52	0.4346
2870.47	0.2019
2879.42	0.1249
2888.36	0.0987
2897.31	0.1106
2906.26	0.1408
2915.21	0.0993
2924.16	0.0811
2933.11	0.0559
2942.06	0.0308
2951.01	0.0164
2959.95	0.0308
2968.9	0.051
2977.85	0.0304
2986.8	0.036
2995.75	0.0677
3004.7	0.1934
3013.65	0.3498
3022.6	0.4488
3031.54	0.4965
3040.49	0.5605
3049.44	0.5847
3058.39	0.6122
3067.34	0.6225
3076.29	0.6363
3085.24	0.6472
3094.18	0.6605
3103.13	0.67
3112.08	0.6758
3121.03	0.6776
3129.98	0.6887
3138.93	0.7022
3147.88	0.719
3156.83	0.7291
3165.77	0.7373
3174.72	0.7451
3183.67	0.7524
3192.62	0.7599
3201.57	0.7682
3210.52	0.7775
3219.47	0.783
3228.42	0.7902
3237.36	0.7977
3246.31	0.8057
3255.26	0.8095
3264.21	0.8145
3273.16	0.8201
3282.11	0.8249
3291.06	0.8293
3300	0.8324
3308.95	0.8352
3317.9	0.838
3326.85	0.84
3335.8	0.8426
3344.75	0.8444
3353.7	0.8472
3362.65	0.85
3371.59	0.851
3380.54	0.853
3389.49	0.8543
3398.44	0.8561
3407.39	0.8579
3416.34	0.8597
3425.29	0.86
3434.24	0.8613
3443.18	0.862
3452.13	0.863
3461.08	0.8637
3470.03	0.864
3478.98	0.865
3487.93	0.866
3496.88	0.8688
3505.82	0.87
3514.77	0.872
3523.72	0.8732
3532.67	0.874
3541.62	0.8758
3550.57	0.877
3559.52	0.878
3568.47	0.8792
3577.41	0.88
3586.36	0.881
3595.31	0.8815
3604.26	0.882
3613.21	0.883
3622.16	0.883
3631.11	0.884
3640.06	0.885
3649	0.885
3657.95	0.885
3666.9	0.885
3675.85	0.885
3684.8	0.885
3693.75	0.884
3702.7	0.884
3711.65	0.8832
3720.59	0.883
3729.54	0.883
3738.49	0.882
3747.44	0.882
3756.39	0.881
3765.34	0.881
3774.29	0.88
3783.23	0.88
3792.18	0.88
3801.13	0.88
3810.08	0.879
3819.03	0.8787
3827.98	0.8779
3836.93	0.877
3845.88	0.876
3854.82	0.875
3863.77	0.874
3872.72	0.873
3881.67	0.872
3890.62	0.871
3899.57	0.87
3908.52	0.87
3917.47	0.869
3926.41	0.8682
3935.36	0.867
3944.31	0.867
3953.26	0.867
3962.21	0.867
3971.16	0.867
3980.11	0.866
3989.05	0.866
