Infrared Spectrum: Tetrachloroethene
Formula: C2 Cl4
CAS: 127-18-4
State: gas
Melting point: -19 C
Boiling point: 121 C
Class: IUPAC A
Instrument: IFS66V (Bruker)
Instrument parameters: KBr Beam Splitter; MCT Detector; Multipass cell
Sampling: 1 L/min Flow
Resolution: 1.9290
Temperature: 23 C
Pressure: 101.3 Pa
Origin: NIST, Analytical Chemistry Division, 301-975-3108
cm-1	(micromol/mol)-1m-1 (base 10)
575.652	5.51245e-07
584.33	-2.21524e-08
593.008	6.03402e-08
601.687	-1.71333e-07
610.365	1.10103e-07
619.043	1.3047e-07
627.721	-1.85413e-07
636.399	-3.55169e-07
645.077	-2.6688e-07
653.756	-8.96354e-08
662.434	-1.32361e-07
671.112	-1.29213e-07
679.79	5.20016e-07
688.468	1.07929e-06
697.146	5.22104e-07
705.825	-2.63588e-07
714.503	-2.79838e-07
723.181	-1.91268e-07
731.859	3.02152e-07
740.537	6.22487e-06
749.216	3.51884e-05
757.894	4.92984e-05
766.572	5.42203e-05
775.25	0.000301035
783.928	0.000342711
792.606	9.86646e-05
801.285	0.000191566
809.963	0.000125614
818.641	1.1144e-05
827.319	8.50798e-06
835.997	3.13059e-06
844.676	7.14719e-08
853.354	6.11478e-08
862.032	1.53812e-07
870.71	2.87561e-07
879.388	1.37059e-06
888.066	1.13064e-05
896.745	6.1743e-05
905.423	0.000425885
914.101	0.00139764
922.779	0.00126283
931.457	9.077e-05
940.135	1.54232e-06
948.814	9.30567e-08
957.492	5.34957e-08
966.17	2.28126e-08
974.848	6.25556e-08
983.526	9.45863e-07
992.205	1.06988e-06
1000.88	7.49278e-08
1009.56	3.25148e-07
1018.24	-7.08643e-08
1026.92	-2.9333e-07
1035.6	-2.38356e-07
1044.27	-2.28414e-07
1052.95	-1.8657e-07
1061.63	-1.40781e-07
1070.31	-1.41498e-07
1078.99	3.10886e-07
1087.66	2.50531e-06
1096.34	6.53969e-06
1105.02	5.69051e-06
1113.7	6.35426e-06
1122.38	1.07407e-05
1131.06	8.31019e-06
1139.73	5.77646e-06
1148.41	7.20531e-06
1157.09	4.57816e-06
1165.77	1.91919e-06
1174.45	2.21971e-06
1183.12	1.50438e-06
1191.8	2.45079e-07
1200.48	1.65176e-07
1209.16	9.90846e-08
1217.84	4.65175e-07
1226.52	1.02855e-06
1235.19	7.641e-07
1243.87	6.61379e-07
1252.55	1.58226e-06
1261.23	2.02599e-06
1269.91	1.216e-06
1278.58	2.78494e-07
1287.26	-2.76327e-08
1295.94	4.48692e-07
1304.62	3.23495e-07
1313.3	-2.0151e-07
1321.98	-3.38836e-07
1330.65	-2.0053e-07
1339.33	3.49143e-07
1348.01	2.11937e-06
1356.69	6.04756e-06
1365.37	6.27432e-06
1374.04	2.31682e-06
1382.72	3.95663e-07
1391.4	3.07185e-07
1400.08	1.46929e-07
1408.76	-5.66969e-08
1417.44	-2.10861e-07
1426.11	-3.09846e-07
1434.79	-2.86304e-07
1443.47	-3.07365e-07
1452.15	-3.29845e-07
1460.83	-3.23622e-07
1469.5	-2.65172e-07
1478.18	-1.39988e-07
1486.86	-1.38431e-07
1495.54	-2.27512e-07
1504.22	-3.07556e-07
1512.9	-3.19735e-07
1521.57	-1.22325e-07
1530.25	-2.73122e-07
1538.93	1.84949e-07
1547.61	-6.44491e-08
1556.29	9.4832e-08
1564.96	1.72785e-07
1573.64	2.31906e-07
1582.32	1.66637e-07
1591	1.25955e-07
1599.68	-2.00497e-08
1608.36	-2.54653e-07
1617.03	-1.32552e-07
1625.71	-3.28452e-07
1634.39	-1.90688e-07
1643.07	-3.13111e-07
1651.75	-2.84167e-08
1660.42	-3.9283e-07
1669.1	-2.66336e-07
1677.78	-3.47426e-07
1686.46	-2.61436e-07
1695.14	-1.95968e-07
1703.82	-3.67645e-07
1712.49	-3.25952e-07
1721.17	-2.6453e-07
1729.85	-1.93729e-07
1738.53	-9.51867e-08
1747.21	1.65773e-07
1755.88	1.85853e-07
1764.56	3.55304e-08
1773.24	7.91023e-07
1781.92	1.09759e-06
1790.6	4.5909e-07
1799.28	6.71893e-07
1807.95	2.44131e-07
1816.63	-6.64641e-07
1825.31	-7.97237e-07
1833.99	-8.80682e-07
1842.67	-7.45011e-07
1851.34	-4.39119e-07
1860.02	-7.21121e-08
1868.7	5.53491e-08
1877.38	3.87511e-07
1886.06	9.52083e-07
1894.74	7.95076e-07
1903.41	4.91947e-07
1912.09	7.29715e-07
1920.77	1.64192e-07
1929.45	-4.85597e-07
1938.13	-5.34142e-07
1946.8	-5.20396e-07
1955.48	-5.08179e-07
1964.16	-4.99816e-07
1972.84	-4.59569e-07
1981.52	-4.50267e-07
1990.19	-4.37038e-07
1998.87	-4.60576e-07
2007.55	-4.29089e-07
2016.23	-4.79189e-07
2024.91	-4.87976e-07
2033.59	-4.64633e-07
2042.26	-4.8529e-07
2050.94	-5.02027e-07
2059.62	-5.19698e-07
2068.3	-5.0371e-07
2076.98	-5.03177e-07
2085.65	-4.80364e-07
2094.33	-4.61428e-07
2103.01	-5.05096e-07
2111.69	-4.5845e-07
2120.37	-4.66037e-07
2129.05	-4.79402e-07
2137.72	-4.9487e-07
2146.4	-4.48872e-07
2155.08	-4.08841e-07
2163.76	-4.62592e-07
2172.44	-3.61304e-07
2181.11	-2.18717e-07
2189.79	1.70766e-07
2198.47	7.07317e-07
2207.15	1.27101e-06
2215.83	1.21795e-06
2224.51	1.02159e-07
2233.18	1.80338e-06
2241.86	1.6361e-06
2250.54	2.32426e-07
2259.22	-4.11712e-07
2267.9	-4.30732e-07
2276.57	-4.96487e-07
2285.25	-4.71426e-07
2293.93	-4.7874e-07
2302.61	-4.43353e-07
2311.29	-3.08393e-07
2319.97	-1.78252e-10
2328.64	4.95519e-07
2337.32	7.18933e-07
2346	2.36743e-07
2354.68	7.86436e-07
2363.36	1.51992e-06
2372.03	6.94985e-07
2380.71	-2.54153e-07
2389.39	-4.20786e-07
2398.07	-4.89764e-07
2406.75	-4.99743e-07
2415.43	-5.29384e-07
2424.1	-4.92573e-07
2432.78	-4.65306e-07
2441.46	-4.53272e-07
2450.14	-4.35436e-07
2458.82	-3.81154e-07
2467.49	-2.43813e-07
2476.17	2.05932e-07
2484.85	9.92168e-07
2493.53	1.66784e-06
2502.21	1.04606e-06
2510.89	-2.62193e-07
2519.56	-4.71095e-07
2528.24	-5.39833e-07
2536.92	-5.25484e-07
2545.6	-4.86519e-07
2554.28	-4.97216e-07
2562.95	-4.90965e-07
2571.63	-4.57401e-07
2580.31	-4.4106e-07
2588.99	-4.61422e-07
2597.67	-4.96372e-07
2606.35	-4.64589e-07
2615.02	-5.01614e-07
2623.7	-5.21229e-07
2632.38	-4.7392e-07
2641.06	-5.54699e-07
2649.74	-5.64938e-07
2658.41	-5.51532e-07
2667.09	-5.45805e-07
2675.77	-5.50323e-07
2684.45	-5.47453e-07
2693.13	-5.78899e-07
2701.81	-5.42642e-07
2710.48	-5.74425e-07
2719.16	-5.30591e-07
2727.84	-4.70815e-07
2736.52	-4.0867e-07
2745.2	-3.38712e-07
2753.87	-3.96051e-07
2762.55	-4.65387e-07
2771.23	-4.17168e-07
2779.91	-4.02308e-07
2788.59	-3.94714e-07
2797.27	-4.15786e-07
2805.94	-4.38655e-07
2814.62	-5.11406e-07
2823.3	-5.06482e-07
2831.98	-5.10896e-07
2840.66	-4.81017e-07
2849.33	-4.86323e-07
2858.01	-3.89879e-07
2866.69	-3.12763e-07
2875.37	-2.36326e-07
2884.05	-1.84553e-07
2892.73	-1.00663e-07
2901.4	4.37627e-09
2910.08	-5.67424e-08
2918.76	-3.16394e-07
2927.44	-3.50891e-07
2936.12	-3.01514e-07
2944.79	-2.73497e-07
2953.47	-3.11197e-07
2962.15	-3.16949e-07
2970.83	-3.34994e-07
2979.51	-2.9408e-07
2988.19	-2.55093e-07
2996.86	-3.3303e-07
3005.54	-4.37933e-07
3014.22	-5.08986e-07
3022.9	-4.89571e-07
3031.58	-5.24627e-07
3040.25	-5.58282e-07
3048.93	-5.28296e-07
3057.61	-5.90195e-07
3066.29	-5.50468e-07
3074.97	-4.71141e-07
3083.65	-4.84724e-07
3092.32	-4.70257e-07
3101	-4.5972e-07
3109.68	-4.03272e-07
3118.36	-4.01249e-07
3127.04	-4.05749e-07
3135.71	-3.11023e-07
3144.39	-2.88179e-07
3153.07	-3.09297e-07
3161.75	-3.24015e-07
3170.43	-3.09419e-07
3179.11	-3.4662e-07
3187.78	-3.29843e-07
3196.46	-3.6079e-07
3205.14	-4.26212e-07
3213.82	-2.75456e-07
3222.5	-3.1929e-07
3231.17	-3.23126e-07
3239.85	-3.65237e-07
3248.53	-2.96683e-07
3257.21	-2.2331e-07
3265.89	-2.49924e-07
3274.57	-2.56219e-07
3283.24	-2.63448e-07
3291.92	-3.31986e-07
3300.6	-3.21738e-07
3309.28	-2.98736e-07
3317.96	-3.07631e-07
3326.63	-3.22615e-07
3335.31	-3.82446e-07
3343.99	-2.71487e-07
3352.67	-3.86484e-07
3361.35	-4.27292e-07
3370.03	-4.00725e-07
3378.7	-3.81185e-07
3387.38	-3.7386e-07
3396.06	-3.72007e-07
3404.74	-4.50893e-07
3413.42	-3.8491e-07
3422.09	-4.48393e-07
3430.77	-3.80925e-07
3439.45	-4.0574e-07
3448.13	-3.84168e-07
3456.81	-3.50935e-07
3465.49	-4.06417e-07
3474.16	-4.2967e-07
3482.84	-3.81309e-07
3491.52	-3.83193e-07
3500.2	-3.89143e-07
3508.88	-5.22925e-07
3517.55	-5.55308e-07
3526.23	-5.38865e-07
3534.91	-4.59656e-07
3543.59	-4.7914e-07
3552.27	-5.6357e-07
3560.95	-4.82834e-07
3569.62	-4.11733e-07
3578.3	-3.85136e-07
3586.98	-3.27298e-07
3595.66	-3.78253e-07
3604.34	-4.75197e-07
3613.01	-4.28618e-07
3621.69	-4.72301e-07
3630.37	-3.93641e-07
3639.05	-4.13416e-07
3647.73	-4.43937e-07
3656.41	-5.04574e-07
3665.08	-6.16038e-07
3673.76	-4.84375e-07
3682.44	-5.1247e-07
3691.12	-5.31026e-07
3699.8	-6.07966e-07
3708.47	-4.53623e-07
3717.15	-5.7026e-07
3725.83	-4.84268e-07
3734.51	-4.50056e-07
3743.19	-4.38884e-07
3751.87	-3.57436e-07
3760.54	-5.84431e-07
3769.22	-5.27126e-07
3777.9	-5.59863e-07
3786.58	-6.01547e-07
3795.26	-5.4635e-07
3803.93	-5.32379e-07
3812.61	-6.12133e-07
3821.29	-4.08989e-07
3829.97	-5.50821e-07
3838.65	-4.70309e-07
3847.33	-5.80777e-07
3856	-5.23945e-07
3864.68	-6.12653e-07
3873.36	-6.61836e-07
3882.04	-6.67249e-07
3890.72	-6.0549e-07
3899.39	-6.19988e-07
3908.07	-7.27254e-07
3916.75	-6.69144e-07
3925.43	-6.1612e-07
3934.11	-6.41706e-07
3942.79	-5.92747e-07
3951.46	-5.59385e-07
3960.14	-5.52902e-07
3968.82	-6.38025e-07
