Infrared Spectrum: Tetrachloroethene
Formula: C2 Cl4
CAS: 127-18-4
State: gas
Melting point: -19 C
Boiling point: 121 C
Class: IUPAC A
Instrument: IFS66V (Bruker)
Instrument parameters: KBr Beam Splitter; MCT Detector; Multipass cell
Sampling: 1 L/min Flow
Resolution: 0.9640
Temperature: 23 C
Pressure: 101.3 Pa
Origin: NIST, Analytical Chemistry Division, 301-975-3108
cm-1	(micromol/mol)-1m-1 (base 10)
575.17	5.71093e-07
583.848	2.41677e-08
592.526	2.73666e-07
601.205	-1.85111e-07
609.883	9.18308e-08
618.561	4.32698e-08
627.239	-1.61973e-07
635.917	-4.32403e-07
644.595	-2.55375e-07
653.274	-7.58718e-08
661.952	-1.5744e-07
670.63	-1.62462e-07
679.308	5.026e-07
687.986	1.04069e-06
696.664	6.14459e-07
705.343	-3.09e-07
714.021	-3.03476e-07
722.699	-1.99279e-07
731.377	2.442e-07
740.055	5.31898e-06
748.734	3.31369e-05
757.412	5.23842e-05
766.09	4.99873e-05
774.768	0.00028861
783.446	0.00034449
792.124	9.75944e-05
800.803	0.000192763
809.481	0.000136919
818.159	1.17907e-05
826.837	8.55767e-06
835.515	3.74216e-06
844.194	3.18635e-08
852.872	7.41074e-08
861.55	1.83911e-07
870.228	2.59883e-07
878.906	1.28681e-06
887.584	9.91871e-06
896.263	5.60428e-05
904.941	0.000379195
913.619	0.00137771
922.297	0.00131901
930.975	0.000106558
939.653	1.77142e-06
948.332	9.39189e-08
957.01	2.32364e-08
965.688	3.03393e-08
974.366	5.42214e-09
983.044	9.10265e-07
991.723	1.12993e-06
1000.4	5.83158e-08
1009.08	3.17051e-07
1017.76	-1.25286e-08
1026.44	-3.25825e-07
1035.11	-2.25387e-07
1043.79	-2.2309e-07
1052.47	-2.23188e-07
1061.15	-1.44488e-07
1069.83	-1.76841e-07
1078.5	2.52967e-07
1087.18	2.32916e-06
1095.86	6.11434e-06
1104.54	5.69257e-06
1113.22	6.13989e-06
1121.9	1.06562e-05
1130.57	8.4904e-06
1139.25	5.59278e-06
1147.93	7.18262e-06
1156.61	4.84781e-06
1165.29	1.8614e-06
1173.96	2.23453e-06
1182.64	1.59406e-06
1191.32	2.33745e-07
1200	1.62337e-07
1208.68	6.56532e-08
1217.36	4.1703e-07
1226.03	9.87279e-07
1234.71	7.84015e-07
1243.39	6.04477e-07
1252.07	1.52825e-06
1260.75	2.03097e-06
1269.42	1.27134e-06
1278.1	2.63404e-07
1286.78	-4.54379e-08
1295.46	4.1653e-07
1304.14	3.29823e-07
1312.82	-2.13715e-07
1321.49	-3.46269e-07
1330.17	-2.33614e-07
1338.85	3.00246e-07
1347.53	1.99016e-06
1356.21	5.92712e-06
1364.88	6.47449e-06
1373.56	2.55186e-06
1382.24	4.1382e-07
1390.92	2.99369e-07
1399.6	1.55189e-07
1408.28	-4.58617e-08
1416.95	-2.05789e-07
1425.63	-3.17234e-07
1434.31	-3.22968e-07
1442.99	-3.19048e-07
1451.67	-3.01454e-07
1460.34	-2.89958e-07
1469.02	-2.92314e-07
1477.7	-1.65596e-07
1486.38	-1.50476e-07
1495.06	-2.85056e-07
1503.73	-3.46049e-07
1512.41	-2.83379e-07
1521.09	-2.22997e-09
1529.77	-2.7704e-07
1538.45	1.13036e-07
1547.13	-9.87444e-08
1555.8	-6.00601e-09
1564.48	1.76521e-07
1573.16	2.14878e-07
1581.84	1.71109e-07
1590.52	1.40566e-07
1599.19	4.44539e-09
1607.87	-2.53911e-07
1616.55	4.80117e-08
1625.23	-3.51786e-07
1633.91	-3.03085e-07
1642.59	-3.0669e-07
1651.26	-2.54922e-07
1659.94	-3.95765e-07
1668.62	-2.67033e-07
1677.3	-3.41289e-07
1685.98	-2.75511e-07
1694.65	-3.73193e-07
1703.33	-3.98048e-07
1712.01	-3.49902e-07
1720.69	-2.57292e-07
1729.37	-2.02591e-07
1738.05	-1.49339e-07
1746.72	1.57328e-07
1755.4	1.6387e-07
1764.08	4.21803e-08
1772.76	8.65656e-07
1781.44	1.10035e-06
1790.11	5.19791e-07
1798.79	6.85283e-07
1807.47	3.19368e-07
1816.15	-6.42723e-07
1824.83	-7.51784e-07
1833.51	-8.98175e-07
1842.18	-7.83535e-07
1850.86	-4.64936e-07
1859.54	-9.23474e-08
1868.22	6.01074e-08
1876.9	3.37759e-07
1885.57	8.96489e-07
1894.25	8.59407e-07
1902.93	5.04914e-07
1911.61	7.42273e-07
1920.29	2.13373e-07
1928.97	-4.70349e-07
1937.64	-5.38876e-07
1946.32	-5.34378e-07
1955	-4.92884e-07
1963.68	-4.81952e-07
1972.36	-4.79407e-07
1981.03	-4.27965e-07
1989.71	-4.22796e-07
1998.39	-4.57379e-07
2007.07	-4.09658e-07
2015.75	-4.75582e-07
2024.43	-4.91259e-07
2033.1	-4.46687e-07
2041.78	-4.65664e-07
2050.46	-4.99814e-07
2059.14	-5.41252e-07
2067.82	-5.18248e-07
2076.49	-4.75459e-07
2085.17	-4.85721e-07
2093.85	-4.66511e-07
2102.53	-4.9953e-07
2111.21	-4.29646e-07
2119.89	-4.25721e-07
2128.56	-4.73354e-07
2137.24	-4.98013e-07
2145.92	-4.47882e-07
2154.6	-3.86971e-07
2163.28	-4.7972e-07
2171.95	-3.91234e-07
2180.63	-2.31582e-07
2189.31	1.58006e-07
2197.99	6.76511e-07
2206.67	1.28139e-06
2215.35	1.25782e-06
2224.02	-2.45897e-08
2232.7	1.74557e-06
2241.38	1.69943e-06
2250.06	2.76025e-07
2258.74	-3.86722e-07
2267.41	-4.43779e-07
2276.09	-4.99546e-07
2284.77	-4.60753e-07
2293.45	-4.8338e-07
2302.13	-4.55493e-07
2310.81	-2.70425e-07
2319.48	6.26884e-08
2328.16	3.90803e-07
2336.84	2.89134e-07
2345.52	2.13346e-07
2354.2	8.00989e-07
2362.87	1.71324e-06
2371.55	7.45318e-07
2380.23	-2.30838e-07
2388.91	-4.32891e-07
2397.59	-4.75269e-07
2406.27	-5.02975e-07
2414.94	-5.18681e-07
2423.62	-4.83917e-07
2432.3	-4.57839e-07
2440.98	-4.89904e-07
2449.66	-4.21015e-07
2458.33	-3.85809e-07
2467.01	-2.77722e-07
2475.69	1.71169e-07
2484.37	9.26682e-07
2493.05	1.65322e-06
2501.73	1.12004e-06
2510.4	-2.25505e-07
2519.08	-4.59711e-07
2527.76	-5.42567e-07
2536.44	-5.48926e-07
2545.12	-4.82507e-07
2553.79	-5.13768e-07
2562.47	-5.00905e-07
2571.15	-4.47242e-07
2579.83	-4.07201e-07
2588.51	-4.39879e-07
2597.19	-4.91409e-07
2605.86	-4.58785e-07
2614.54	-5.24307e-07
2623.22	-5.2566e-07
2631.9	-4.82089e-07
2640.58	-5.58006e-07
2649.25	-5.62871e-07
2657.93	-5.41914e-07
2666.61	-5.56352e-07
2675.29	-5.581e-07
2683.97	-5.57322e-07
2692.65	-5.97167e-07
2701.32	-5.54346e-07
2710	-5.81708e-07
2718.68	-5.1401e-07
2727.36	-4.70346e-07
2736.04	-3.68173e-07
2744.71	-3.40858e-07
2753.39	-3.93506e-07
2762.07	-4.39466e-07
2770.75	-4.21974e-07
2779.43	-4.2722e-07
2788.11	-3.84052e-07
2796.78	-4.14456e-07
2805.46	-4.37604e-07
2814.14	-5.00634e-07
2822.82	-4.71606e-07
2831.5	-5.04865e-07
2840.17	-4.55333e-07
2848.85	-5.00141e-07
2857.53	-4.17439e-07
2866.21	-3.14288e-07
2874.89	-2.25427e-07
2883.57	-1.73598e-07
2892.24	-6.32268e-08
2900.92	3.07194e-08
2909.6	-5.23789e-08
2918.28	-3.36455e-07
2926.96	-3.39427e-07
2935.63	-3.19606e-07
2944.31	-2.41153e-07
2952.99	-2.97035e-07
2961.67	-4.6279e-07
2970.35	-3.59949e-07
2979.03	-3.32222e-07
2987.7	-2.40884e-07
2996.38	-3.19603e-07
3005.06	-4.38035e-07
3013.74	-4.95701e-07
3022.42	-4.64474e-07
3031.09	-5.23499e-07
3039.77	-5.78263e-07
3048.45	-5.20689e-07
3057.13	-5.66627e-07
3065.81	-5.44195e-07
3074.49	-4.65789e-07
3083.16	-5.00001e-07
3091.84	-4.93449e-07
3100.52	-5.23489e-07
3109.2	-4.33675e-07
3117.88	-4.43926e-07
3126.55	-4.23973e-07
3135.23	-3.36864e-07
3143.91	-3.06479e-07
3152.59	-3.05066e-07
3161.27	-3.05728e-07
3169.95	-3.07196e-07
3178.62	-3.5582e-07
3187.3	-3.04009e-07
3195.98	-4.00127e-07
3204.66	-4.32373e-07
3213.34	-2.27142e-07
3222.01	-3.50155e-07
3230.69	-3.4405e-07
3239.37	-3.81192e-07
3248.05	-3.3383e-07
3256.73	-2.14241e-07
3265.41	-2.31215e-07
3274.08	-2.38381e-07
3282.76	-2.68517e-07
3291.44	-3.41957e-07
3300.12	-3.04253e-07
3308.8	-2.63764e-07
3317.47	-2.90795e-07
3326.15	-3.31005e-07
3334.83	-4.04129e-07
3343.51	-2.45282e-07
3352.19	-3.67252e-07
3360.86	-4.3981e-07
3369.54	-3.83426e-07
3378.22	-3.90059e-07
3386.9	-3.38537e-07
3395.58	-3.99176e-07
3404.26	-4.17103e-07
3412.93	-4.00034e-07
3421.61	-4.49736e-07
3430.29	-3.9134e-07
3438.97	-4.06986e-07
3447.65	-4.21546e-07
3456.32	-2.45035e-07
3465	-4.13427e-07
3473.68	-4.00667e-07
3482.36	-3.89195e-07
3491.04	-3.725e-07
3499.72	-4.05162e-07
3508.39	-4.95843e-07
3517.07	-5.8707e-07
3525.75	-5.5782e-07
3534.43	-4.83949e-07
3543.11	-5.16348e-07
3551.78	-5.71282e-07
3560.46	-5.06753e-07
3569.14	-4.48071e-07
3577.82	-4.09363e-07
3586.5	-2.68421e-07
3595.18	-3.63558e-07
3603.85	-4.97313e-07
3612.53	-3.89436e-07
3621.21	-4.73325e-07
3629.89	-3.13016e-07
3638.57	-3.94147e-07
3647.24	-4.42715e-07
3655.92	-4.91219e-07
3664.6	-6.27442e-07
3673.28	-5.21499e-07
3681.96	-5.25038e-07
3690.64	-5.51105e-07
3699.31	-6.31635e-07
3707.99	-5.03188e-07
3716.67	-5.87125e-07
3725.35	-4.843e-07
3734.03	-4.93777e-07
3742.7	-5.66302e-07
3751.38	-4.31418e-07
3760.06	-5.71355e-07
3768.74	-5.98163e-07
3777.42	-5.36335e-07
3786.1	-5.82255e-07
3794.77	-5.33231e-07
3803.45	-5.44244e-07
3812.13	-6.02603e-07
3820.81	-3.95436e-07
3829.49	-5.83821e-07
3838.16	-2.93274e-07
3846.84	-5.93998e-07
3855.52	-5.28139e-07
3864.2	-6.94543e-07
3872.88	-6.90347e-07
3881.56	-6.70708e-07
3890.23	-6.79165e-07
3898.91	-6.33145e-07
3907.59	-7.19424e-07
3916.27	-6.89847e-07
3924.95	-6.38634e-07
3933.62	-6.43198e-07
3942.3	-5.81431e-07
3950.98	-5.28785e-07
3959.66	-5.35651e-07
3968.34	-6.46821e-07
