Infrared Spectrum: Tetrachloroethene
Formula: C2 Cl4
CAS: 127-18-4
State: gas
Melting point: -19 C
Boiling point: 121 C
Class: IUPAC A
Instrument: IFS66V (Bruker)
Instrument parameters: KBr Beam Splitter; MCT Detector; Multipass cell
Sampling: 1 L/min Flow
Resolution: 0.1250
Temperature: 23 C
Pressure: 101.3 Pa
Origin: NIST, Analytical Chemistry Division, 301-975-3108
cm-1	(micromol/mol)-1m-1 (base 10)
575.05	-1.29992e-06
583.608	1.86862e-06
592.165	-4.62821e-07
600.723	-7.18187e-07
609.281	-6.31382e-07
617.838	-2.76153e-07
626.396	-6.87375e-07
634.954	-7.40914e-07
643.511	-3.19794e-07
652.069	6.09059e-08
660.626	-1.81315e-07
669.184	4.39353e-07
677.742	2.50197e-07
686.299	6.63256e-07
694.857	6.24521e-07
703.415	-6.59206e-08
711.972	-5.46603e-07
720.53	-3.1179e-07
729.088	1.89471e-07
737.645	2.095e-06
746.203	2.25696e-05
754.761	5.1714e-05
763.318	4.18648e-05
771.876	0.000171779
780.434	0.000347975
788.991	0.000211912
797.549	0.000162024
806.106	0.000179143
814.664	3.53495e-05
823.222	9.25337e-06
831.779	7.88817e-06
840.337	2.82566e-07
848.895	1.27861e-07
857.452	1.47918e-07
866.01	2.25527e-07
874.568	4.92556e-07
883.125	3.40865e-06
891.683	2.51634e-05
900.241	0.000123813
908.798	0.000811504
917.356	0.00142952
925.914	0.000771155
934.471	2.08458e-05
943.029	7.52874e-07
951.586	3.89426e-09
960.144	-4.44539e-09
968.702	-1.03741e-07
977.259	2.6445e-07
985.817	1.01506e-06
994.375	8.33034e-07
1002.93	1.61806e-07
1011.49	2.7156e-07
1020.05	-3.14772e-07
1028.61	-3.1842e-07
1037.16	-9.87499e-08
1045.72	-2.38103e-07
1054.28	9.22546e-08
1062.84	-1.88669e-07
1071.39	-2.25505e-07
1079.95	4.52641e-07
1088.51	2.81486e-06
1097.07	7.19852e-06
1105.62	5.30811e-06
1114.18	6.28698e-06
1122.74	1.08182e-05
1131.3	8.26528e-06
1139.85	5.68095e-06
1148.41	7.07953e-06
1156.97	4.56729e-06
1165.53	1.88594e-06
1174.09	2.18451e-06
1182.64	1.74373e-06
1191.2	3.21185e-07
1199.76	1.79049e-07
1208.32	1.40996e-07
1216.87	4.16215e-07
1225.43	1.05653e-06
1233.99	1.07123e-06
1242.55	5.72331e-07
1251.1	1.39628e-06
1259.66	1.92007e-06
1268.22	1.50508e-06
1276.78	4.17545e-07
1285.33	1.11153e-08
1293.89	8.72575e-07
1302.45	9.338e-07
1311.01	-6.86999e-09
1319.57	-1.10138e-07
1328.12	-2.33689e-07
1336.68	2.56154e-07
1345.24	1.48785e-06
1353.8	4.89439e-06
1362.35	6.44396e-06
1370.91	3.99528e-06
1379.47	6.03493e-07
1388.03	3.78479e-07
1396.58	1.89518e-07
1405.14	1.41796e-07
1413.7	-1.34007e-07
1422.26	-4.03945e-07
1430.81	-2.95579e-07
1439.37	-4.05096e-07
1447.93	-7.69049e-08
1456.49	3.05284e-07
1465.05	-7.9375e-08
1473.6	2.85498e-07
1482.16	-1.42602e-08
1490.72	-1.11422e-07
1499.28	-3.54858e-07
1507.83	-3.38867e-07
1516.39	-2.93811e-07
1524.95	-3.77158e-07
1533.51	-1.53642e-07
1542.06	5.03493e-07
1550.62	7.36909e-08
1559.18	1.72566e-07
1567.74	2.10301e-07
1576.29	1.12572e-06
1584.85	3.00992e-08
1593.41	7.40383e-08
1601.97	2.27362e-08
1610.53	-2.57363e-07
1619.08	-2.39993e-07
1627.64	-2.78519e-07
1636.2	-2.52194e-07
1644.76	-3.39785e-07
1653.31	1.14715e-06
1661.87	-3.56086e-07
1670.43	-3.07481e-07
1678.99	-4.48506e-07
1687.54	-3.43494e-07
1696.1	7.7085e-08
1704.66	-3.25701e-07
1713.22	-2.48214e-07
1721.77	-2.26569e-07
1730.33	-1.50532e-07
1738.89	-8.93007e-08
1747.45	1.75382e-07
1756.01	2.75692e-07
1764.56	6.09441e-08
1773.12	7.54774e-07
1781.68	1.12685e-06
1790.24	4.49174e-07
1798.79	6.00697e-07
1807.35	3.5223e-07
1815.91	-6.44669e-07
1824.47	-7.83849e-07
1833.02	-8.87198e-07
1841.58	-8.30597e-07
1850.14	-5.08986e-07
1858.7	-2.91795e-07
1867.25	2.66505e-08
1875.81	4.5241e-07
1884.37	1.1139e-06
1892.93	8.71902e-07
1901.49	3.58865e-07
1910.04	6.48585e-07
1918.6	3.75361e-07
1927.16	-5.04625e-07
1935.72	-5.10296e-07
1944.27	-6.1176e-07
1952.83	-5.55174e-07
1961.39	-3.85765e-07
1969.95	-5.22868e-07
1978.5	-4.76001e-07
1987.06	-5.06411e-07
1995.62	-4.5568e-07
2004.18	-4.56066e-07
2012.73	-4.90226e-07
2021.29	-3.93668e-07
2029.85	-4.65791e-07
2038.41	-5.17361e-07
2046.97	-5.42325e-07
2055.52	-4.87656e-07
2064.08	-5.56172e-07
2072.64	-4.76006e-07
2081.2	-5.26015e-07
2089.75	-5.00669e-07
2098.31	-5.1265e-07
2106.87	-6.352e-07
2115.43	-3.79797e-07
2123.98	-4.37078e-07
2132.54	-4.13281e-07
2141.1	-4.62648e-07
2149.66	-4.6305e-07
2158.21	-3.48301e-07
2166.77	-4.03141e-07
2175.33	-5.23792e-07
2183.89	-2.71016e-10
2192.45	1.61696e-06
2201	3.87709e-07
2209.56	4.21795e-06
2218.12	2.33976e-07
2226.68	5.22061e-08
2235.23	7.97766e-07
2243.79	2.95946e-06
2252.35	-1.87616e-07
2260.91	-3.76259e-07
2269.46	-3.44929e-07
2278.02	-5.57386e-07
2286.58	-5.48346e-07
2295.14	-4.91525e-07
2303.69	-4.63066e-07
2312.25	-5.60516e-07
2320.81	5.43815e-08
2329.37	-1.50143e-07
2337.93	2.90404e-07
2346.48	-1.7002e-07
2355.04	4.08034e-08
2363.6	4.8469e-07
2372.16	1.98173e-07
2380.71	-2.44951e-08
2389.27	-4.84857e-07
2397.83	-5.06385e-07
2406.39	-4.53261e-07
2414.94	-5.47964e-07
2423.5	-5.19363e-07
2432.06	-4.35283e-07
2440.62	-5.70445e-07
2449.17	-3.78993e-07
2457.73	-3.42697e-07
2466.29	-2.1262e-07
2474.85	8.64305e-08
2483.41	8.92974e-07
2491.96	1.69887e-06
2500.52	1.20708e-06
2509.08	-1.24062e-07
2517.64	-5.48278e-07
2526.19	-7.09589e-07
2534.75	-4.71675e-07
2543.31	-4.71708e-07
2551.87	-5.03846e-07
2560.42	-6.16242e-07
2568.98	-3.57359e-07
2577.54	-4.55058e-07
2586.1	-4.01915e-07
2594.65	-4.73181e-07
2603.21	-5.31222e-07
2611.77	-5.04406e-07
2620.33	-5.55206e-07
2628.89	-5.56114e-07
2637.44	-4.48495e-07
2646	-5.51963e-07
2654.56	-6.15576e-07
2663.12	-6.84534e-07
2671.67	-5.20567e-07
2680.23	-5.03824e-07
2688.79	-5.28638e-07
2697.35	-5.78096e-07
2705.9	-5.76111e-07
2714.46	-7.4954e-07
2723.02	-6.70179e-07
2731.58	-4.96825e-07
2740.13	-4.53421e-07
2748.69	-2.61636e-07
2757.25	-5.20817e-07
2765.81	-6.00865e-07
2774.37	-2.2546e-07
2782.92	-4.07934e-07
2791.48	-3.77158e-07
2800.04	-5.46272e-07
2808.6	-5.49186e-07
2817.15	-5.64205e-07
2825.71	-4.73274e-07
2834.27	-5.83996e-07
2842.83	-4.82247e-07
2851.38	-5.41921e-07
2859.94	-5.11175e-07
2868.5	-3.56292e-07
2877.06	-3.60839e-07
2885.61	-1.71488e-07
2894.17	2.42059e-08
2902.73	4.31534e-08
2911.29	-1.37602e-07
2919.85	-2.91257e-07
2928.4	-5.48111e-07
2936.96	-3.37266e-07
2945.52	-4.03925e-07
2954.08	-3.14979e-07
2962.63	-8.29237e-08
2971.19	-1.18891e-07
2979.75	-2.84541e-07
2988.31	-2.32774e-07
2996.86	-3.40444e-07
3005.42	-5.39953e-07
3013.98	-4.84806e-07
3022.54	-5.2391e-07
3031.09	-4.68163e-07
3039.65	-6.16578e-07
3048.21	-4.94273e-07
3056.77	-6.30904e-07
3065.33	-5.22648e-07
3073.88	-5.53224e-07
3082.44	-5.79885e-07
3091	-4.59822e-07
3099.56	-5.29664e-07
3108.11	-3.44718e-07
3116.67	-5.47585e-07
3125.23	-4.87845e-07
3133.79	-3.24799e-07
3142.34	-2.78283e-07
3150.9	-5.3456e-07
3159.46	-3.7356e-07
3168.02	-1.82132e-07
3176.57	-2.54099e-07
3185.13	-4.33635e-07
3193.69	-5.05665e-07
3202.25	-2.2889e-07
3210.81	-2.42334e-07
3219.36	-3.6884e-07
3227.92	-5.14483e-07
3236.48	-2.78635e-07
3245.04	-4.65906e-07
3253.59	-4.09413e-07
3262.15	-2.0069e-07
3270.71	-3.3433e-07
3279.27	-1.34444e-07
3287.82	-4.30916e-07
3296.38	-1.26344e-07
3304.94	-3.71781e-07
3313.5	-2.02935e-07
3322.05	-4.84926e-07
3330.61	-4.59636e-07
3339.17	-2.95349e-07
3347.73	-6.15483e-07
3356.29	-3.11867e-07
3364.84	-4.55589e-07
3373.4	-3.26522e-07
3381.96	-5.21622e-07
3390.52	-5.09954e-07
3399.07	-3.45966e-07
3407.63	-3.27849e-07
3416.19	-4.79597e-07
3424.75	-5.55658e-07
3433.3	-2.50361e-07
3441.86	-4.50212e-07
3450.42	-4.7452e-07
3458.98	-3.00451e-07
3467.53	-3.49674e-07
3476.09	-3.84939e-07
3484.65	-3.13213e-07
3493.21	-3.89326e-07
3501.77	-4.35232e-07
3510.32	-8.20213e-07
3518.88	-6.06114e-07
3527.44	-4.08487e-07
3536	-4.37926e-07
3544.55	-3.86118e-07
3553.11	-5.56276e-07
3561.67	-5.03026e-07
3570.23	-3.39694e-07
3578.78	-3.06716e-07
3587.34	-5.0341e-07
3595.9	-2.02025e-07
3604.46	-4.5479e-07
3613.01	-5.62098e-07
3621.57	-5.40868e-07
3630.13	-4.88738e-07
3638.69	-4.73914e-07
3647.25	-4.88286e-07
3655.8	-7.64431e-07
3664.36	-7.58423e-07
3672.92	-5.5041e-07
3681.48	-6.90718e-07
3690.03	-7.52772e-07
3698.59	-6.82031e-07
3707.15	-5.76959e-07
3715.71	-3.83437e-07
3724.26	-4.54994e-07
3732.82	-7.06486e-07
3741.38	-4.47071e-07
3749.94	-5.31846e-07
3758.49	-2.55099e-07
3767.05	-4.84029e-07
3775.61	-5.54395e-07
3784.17	-4.6162e-07
3792.73	-5.74671e-07
3801.28	-3.53667e-08
3809.84	-3.09588e-07
3818.4	-5.47376e-07
3826.96	-6.79381e-07
3835.51	-5.96397e-07
3844.07	-8.51778e-07
3852.63	-4.18587e-07
3861.19	-4.61184e-07
3869.74	-5.1688e-07
3878.3	-7.26658e-07
3886.86	-6.24981e-07
3895.42	-4.18229e-07
3903.97	-3.7621e-07
3912.53	-6.56576e-07
3921.09	-7.82713e-07
3929.65	-6.861e-07
3938.21	-7.16778e-07
3946.76	-6.38756e-07
3955.32	-4.15326e-07
3963.88	-7.45767e-07
3972.44	-7.28153e-07
