Infrared Spectrum: Tetrachloroethene
Formula: C2 Cl4
CAS: 127-18-4
State: gas
Melting point: -19 C
Boiling point: 121 C
Class: IUPAC A
Instrument: IFS66V (Bruker)
Instrument parameters: KBr Beam Splitter; MCT Detector; Multipass cell
Sampling: 1 L/min Flow
Resolution: 0.1250
Temperature: 23 C
Pressure: 101.3 Pa
Origin: NIST, Analytical Chemistry Division, 301-975-3108
cm-1	(micromol/mol)-1m-1 (base 10)
575.05	-1.48751e-06
583.608	2.01677e-06
592.165	-4.93235e-07
600.723	-8.12437e-07
609.281	-7.1703e-07
617.838	-3.67298e-07
626.396	-7.5773e-07
634.954	-8.067e-07
643.511	-3.33175e-07
652.069	4.80535e-08
660.626	-2.06842e-07
669.184	4.14782e-07
677.742	1.81155e-07
686.299	6.04935e-07
694.857	6.02249e-07
703.415	-7.83091e-08
711.972	-6.14728e-07
720.53	-3.40613e-07
729.088	1.45848e-07
737.645	1.99206e-06
746.203	2.25073e-05
754.761	5.17709e-05
763.318	4.16458e-05
771.876	0.000171662
780.434	0.000347909
788.991	0.000211933
797.549	0.000162145
806.106	0.00017942
814.664	3.51478e-05
823.222	9.19958e-06
831.779	7.88015e-06
840.337	2.361e-07
848.895	5.09783e-08
857.452	6.8236e-08
866.01	1.45892e-07
874.568	3.68629e-07
883.125	3.20655e-06
891.683	2.48109e-05
900.241	0.00012295
908.798	0.000811986
917.356	0.00143193
925.914	0.000771851
934.471	1.98704e-05
943.029	4.28607e-07
951.586	-1.72521e-07
960.144	-1.24069e-07
968.702	-1.9595e-07
977.259	2.10407e-07
985.817	9.70223e-07
994.375	8.05684e-07
1002.93	1.26464e-07
1011.49	2.49429e-07
1020.05	-3.51379e-07
1028.61	-3.49473e-07
1037.16	-1.05427e-07
1045.72	-2.52109e-07
1054.28	1.13385e-07
1062.84	-2.05141e-07
1071.39	-2.55359e-07
1079.95	4.54418e-07
1088.51	2.80717e-06
1097.07	7.20886e-06
1105.62	5.2554e-06
1114.18	6.25329e-06
1122.74	1.08373e-05
1131.3	8.26571e-06
1139.85	5.67424e-06
1148.41	7.06747e-06
1156.97	4.55983e-06
1165.53	1.8707e-06
1174.09	2.17807e-06
1182.64	1.75676e-06
1191.2	3.24006e-07
1199.76	1.8446e-07
1208.32	1.55234e-07
1216.87	4.07634e-07
1225.43	1.06102e-06
1233.99	1.08711e-06
1242.55	5.53919e-07
1251.1	1.38911e-06
1259.66	1.9092e-06
1268.22	1.50458e-06
1276.78	4.09551e-07
1285.33	1.65247e-08
1293.89	9.24681e-07
1302.45	9.75338e-07
1311.01	-1.41147e-08
1319.57	-9.6138e-08
1328.12	-2.4334e-07
1336.68	2.65279e-07
1345.24	1.491e-06
1353.8	4.89985e-06
1362.35	6.43556e-06
1370.91	4.01284e-06
1379.47	5.94449e-07
1388.03	3.83702e-07
1396.58	1.75242e-07
1405.14	1.51902e-07
1413.7	-1.38828e-07
1422.26	-4.16925e-07
1430.81	-3.04951e-07
1439.37	-4.03854e-07
1447.93	-4.88884e-08
1456.49	3.41455e-07
1465.05	-8.63686e-08
1473.6	3.24179e-07
1482.16	-5.43851e-10
1490.72	-1.09227e-07
1499.28	-3.58014e-07
1507.83	-3.55131e-07
1516.39	-2.99937e-07
1524.95	-3.96387e-07
1533.51	-1.5867e-07
1542.06	5.35822e-07
1550.62	7.32271e-08
1559.18	1.58586e-07
1567.74	2.14026e-07
1576.29	1.16951e-06
1584.85	1.94277e-08
1593.41	6.66554e-08
1601.97	3.44645e-08
1610.53	-2.5941e-07
1619.08	-2.3498e-07
1627.64	-2.80553e-07
1636.2	-2.72597e-07
1644.76	-3.41406e-07
1653.31	1.24561e-06
1661.87	-3.56315e-07
1670.43	-2.98654e-07
1678.99	-4.56226e-07
1687.54	-3.44236e-07
1696.1	6.55532e-08
1704.66	-3.32326e-07
1713.22	-2.4326e-07
1721.77	-2.29763e-07
1730.33	-1.52002e-07
1738.89	-8.39986e-08
1747.45	1.76268e-07
1756.01	2.78535e-07
1764.56	6.23628e-08
1773.12	7.53425e-07
1781.68	1.13244e-06
1790.24	4.38508e-07
1798.79	5.99262e-07
1807.35	3.52019e-07
1815.91	-6.42661e-07
1824.47	-7.86269e-07
1833.02	-8.92256e-07
1841.58	-8.32963e-07
1850.14	-5.04532e-07
1858.7	-3.03769e-07
1867.25	2.68142e-08
1875.81	4.7988e-07
1884.37	1.13653e-06
1892.93	8.74303e-07
1901.49	3.53107e-07
1910.04	6.43198e-07
1918.6	3.76725e-07
1927.16	-5.13077e-07
1935.72	-5.12166e-07
1944.27	-6.19983e-07
1952.83	-5.67291e-07
1961.39	-3.73535e-07
1969.95	-5.28993e-07
1978.5	-4.79469e-07
1987.06	-5.06535e-07
1995.62	-4.52451e-07
2004.18	-4.58172e-07
2012.73	-4.91438e-07
2021.29	-3.92397e-07
2029.85	-4.60647e-07
2038.41	-5.16408e-07
2046.97	-5.48777e-07
2055.52	-4.8221e-07
2064.08	-5.6441e-07
2072.64	-4.76503e-07
2081.2	-5.2847e-07
2089.75	-5.01122e-07
2098.31	-5.15091e-07
2106.87	-6.45006e-07
2115.43	-3.69393e-07
2123.98	-4.40719e-07
2132.54	-4.16164e-07
2141.1	-4.6187e-07
2149.66	-4.60507e-07
2158.21	-3.34263e-07
2166.77	-3.98685e-07
2175.33	-5.48884e-07
2183.89	1.57517e-08
2192.45	1.77786e-06
2201	3.11725e-07
2209.56	4.55866e-06
2218.12	1.50454e-07
2226.68	-8.72344e-09
2235.23	6.44042e-07
2243.79	3.1776e-06
2252.35	-2.28956e-07
2260.91	-3.72891e-07
2269.46	-3.38952e-07
2278.02	-5.64617e-07
2286.58	-5.52469e-07
2295.14	-4.93024e-07
2303.69	-4.67392e-07
2312.25	-5.81573e-07
2320.81	2.41495e-08
2329.37	-1.73589e-07
2337.93	1.78385e-07
2346.48	-2.02162e-07
2355.04	-9.31822e-09
2363.6	4.25224e-07
2372.16	1.56038e-07
2380.71	-2.71016e-10
2389.27	-4.8362e-07
2397.83	-5.12388e-07
2406.39	-4.42997e-07
2414.94	-5.49377e-07
2423.5	-5.24234e-07
2432.06	-4.29153e-07
2440.62	-5.78319e-07
2449.17	-3.77676e-07
2457.73	-3.37926e-07
2466.29	-2.04968e-07
2474.85	8.06555e-08
2483.41	8.97118e-07
2491.96	1.70816e-06
2500.52	1.20087e-06
2509.08	-1.36225e-07
2517.64	-5.56412e-07
2526.19	-7.30459e-07
2534.75	-4.6383e-07
2543.31	-4.72116e-07
2551.87	-5.01469e-07
2560.42	-6.27655e-07
2568.98	-3.5321e-07
2577.54	-4.68812e-07
2586.1	-3.99971e-07
2594.65	-4.78727e-07
2603.21	-5.33494e-07
2611.77	-5.03644e-07
2620.33	-5.65238e-07
2628.89	-5.73197e-07
2637.44	-4.48041e-07
2646	-5.5011e-07
2654.56	-6.22111e-07
2663.12	-6.87004e-07
2671.67	-5.25835e-07
2680.23	-4.88309e-07
2688.79	-5.29285e-07
2697.35	-5.81599e-07
2705.9	-5.86332e-07
2714.46	-7.74084e-07
2723.02	-6.76625e-07
2731.58	-4.97602e-07
2740.13	-4.50785e-07
2748.69	-2.47996e-07
2757.25	-5.33591e-07
2765.81	-6.16463e-07
2774.37	-2.09012e-07
2782.92	-4.1093e-07
2791.48	-3.77267e-07
2800.04	-5.4513e-07
2808.6	-5.56409e-07
2817.15	-5.69687e-07
2825.71	-4.79538e-07
2834.27	-5.83478e-07
2842.83	-4.81676e-07
2851.38	-5.47296e-07
2859.94	-5.12861e-07
2868.5	-3.64637e-07
2877.06	-3.65875e-07
2885.61	-1.73159e-07
2894.17	3.52612e-08
2902.73	4.32862e-08
2911.29	-1.51689e-07
2919.85	-2.78854e-07
2928.4	-5.63122e-07
2936.96	-3.45886e-07
2945.52	-4.06655e-07
2954.08	-3.07774e-07
2962.63	-9.11233e-08
2971.19	-9.57287e-08
2979.75	-2.9524e-07
2988.31	-2.28941e-07
2996.86	-3.3514e-07
3005.42	-5.46107e-07
3013.98	-4.86794e-07
3022.54	-5.29911e-07
3031.09	-4.63156e-07
3039.65	-6.17808e-07
3048.21	-4.97569e-07
3056.77	-6.35264e-07
3065.33	-5.23539e-07
3073.88	-5.58195e-07
3082.44	-5.88138e-07
3091	-4.48041e-07
3099.56	-5.48946e-07
3108.11	-3.37235e-07
3116.67	-5.55294e-07
3125.23	-4.84206e-07
3133.79	-3.27704e-07
3142.34	-2.81586e-07
3150.9	-5.5334e-07
3159.46	-3.7187e-07
3168.02	-1.77539e-07
3176.57	-2.5189e-07
3185.13	-4.4541e-07
3193.69	-5.1735e-07
3202.25	-2.13542e-07
3210.81	-2.48103e-07
3219.36	-3.68447e-07
3227.92	-5.3522e-07
3236.48	-2.88809e-07
3245.04	-4.74134e-07
3253.59	-4.31147e-07
3262.15	-1.94506e-07
3270.71	-3.36149e-07
3279.27	-1.30301e-07
3287.82	-4.52919e-07
3296.38	-1.20429e-07
3304.94	-3.67165e-07
3313.5	-1.81899e-07
3322.05	-4.97624e-07
3330.61	-4.71468e-07
3339.17	-2.95497e-07
3347.73	-6.39873e-07
3356.29	-3.07651e-07
3364.84	-4.63345e-07
3373.4	-3.16587e-07
3381.96	-5.29444e-07
3390.52	-5.13847e-07
3399.07	-3.45778e-07
3407.63	-3.20461e-07
3416.19	-4.93106e-07
3424.75	-5.40794e-07
3433.3	-2.28463e-07
3441.86	-4.7008e-07
3450.42	-4.74018e-07
3458.98	-2.88248e-07
3467.53	-3.42033e-07
3476.09	-3.81864e-07
3484.65	-3.06974e-07
3493.21	-3.92044e-07
3501.77	-4.50267e-07
3510.32	-8.48579e-07
3518.88	-6.14572e-07
3527.44	-3.82711e-07
3536	-4.41334e-07
3544.55	-3.70497e-07
3553.11	-5.57822e-07
3561.67	-5.02493e-07
3570.23	-3.36331e-07
3578.78	-3.07823e-07
3587.34	-5.22537e-07
3595.9	-1.80268e-07
3604.46	-4.54896e-07
3613.01	-5.87776e-07
3621.57	-5.53724e-07
3630.13	-4.99699e-07
3638.69	-4.79808e-07
3647.25	-4.95228e-07
3655.8	-7.90472e-07
3664.36	-7.76601e-07
3672.92	-5.45846e-07
3681.48	-6.9831e-07
3690.03	-7.7842e-07
3698.59	-6.85398e-07
3707.15	-5.75889e-07
3715.71	-3.54915e-07
3724.26	-4.37285e-07
3732.82	-7.34583e-07
3741.38	-4.44747e-07
3749.94	-5.32088e-07
3758.49	-2.25582e-07
3767.05	-4.75591e-07
3775.61	-5.59539e-07
3784.17	-4.5156e-07
3792.73	-5.93758e-07
3801.28	-1.08097e-08
3809.84	-2.87966e-07
3818.4	-5.30637e-07
3826.96	-7.09124e-07
3835.51	-6.02423e-07
3844.07	-8.96425e-07
3852.63	-4.12794e-07
3861.19	-4.48006e-07
3869.74	-5.12524e-07
3878.3	-7.41073e-07
3886.86	-6.15712e-07
3895.42	-3.9608e-07
3903.97	-3.76269e-07
3912.53	-6.5366e-07
3921.09	-7.99108e-07
3929.65	-6.89261e-07
3938.21	-7.22374e-07
3946.76	-6.46664e-07
3955.32	-3.99361e-07
3963.88	-7.38133e-07
3972.44	-7.60053e-07
