Infrared Spectrum: Tetrachloroethene
Formula: C2 Cl4
CAS: 127-18-4
State: gas
Melting point: -19 C
Boiling point: 121 C
Class: IUPAC A
Instrument: IFS66V (Bruker)
Instrument parameters: KBr Beam Splitter; MCT Detector; Multipass cell
Sampling: 1 L/min Flow
Resolution: 0.1250
Temperature: 23 C
Pressure: 101.3 Pa
Origin: NIST, Analytical Chemistry Division, 301-975-3108
cm-1	(micromol/mol)-1m-1 (base 10)
575.05	-1.13755e-06
583.608	1.66924e-06
592.165	-3.06195e-07
600.723	-7.25545e-07
609.281	-5.94618e-07
617.838	-3.98683e-07
626.396	-5.5634e-07
634.954	-7.27884e-07
643.511	-3.55238e-07
652.069	2.09374e-08
660.626	-1.30968e-07
669.184	2.50655e-07
677.742	1.87212e-07
686.299	6.3658e-07
694.857	5.96841e-07
703.415	-1.21086e-07
711.972	-6.13771e-07
720.53	-2.55612e-07
729.088	2.1242e-07
737.645	2.02791e-06
746.203	2.25295e-05
754.761	5.17741e-05
763.318	4.16396e-05
771.876	0.000171736
780.434	0.000347881
788.991	0.000211995
797.549	0.000162322
806.106	0.000179421
814.664	3.5103e-05
823.222	9.15083e-06
831.779	7.73185e-06
840.337	2.87432e-07
848.895	8.7249e-08
857.452	4.32989e-08
866.01	1.34171e-07
874.568	4.12865e-07
883.125	3.21584e-06
891.683	2.47541e-05
900.241	0.000122976
908.798	0.000812092
917.356	0.00143202
925.914	0.00077175
934.471	1.98925e-05
943.029	4.20863e-07
951.586	-9.71875e-08
960.144	-1.67253e-07
968.702	-1.87032e-07
977.259	2.06676e-07
985.817	9.70756e-07
994.375	7.83553e-07
1002.93	1.08155e-07
1011.49	2.60199e-07
1020.05	-3.01801e-07
1028.61	-3.59957e-07
1037.16	-1.42882e-07
1045.72	-2.74146e-07
1054.28	1.13761e-07
1062.84	-2.10798e-07
1071.39	-1.97151e-07
1079.95	4.35654e-07
1088.51	2.80903e-06
1097.07	7.19874e-06
1105.62	5.23879e-06
1114.18	6.27594e-06
1122.74	1.08192e-05
1131.3	8.2559e-06
1139.85	5.71059e-06
1148.41	7.07382e-06
1156.97	4.55331e-06
1165.53	1.85913e-06
1174.09	2.18745e-06
1182.64	1.73638e-06
1191.2	3.23524e-07
1199.76	2.08249e-07
1208.32	1.48309e-07
1216.87	3.91591e-07
1225.43	1.06146e-06
1233.99	1.04912e-06
1242.55	5.61518e-07
1251.1	1.38409e-06
1259.66	1.9067e-06
1268.22	1.53719e-06
1276.78	3.51397e-07
1285.33	-9.75658e-09
1293.89	8.83216e-07
1302.45	9.06551e-07
1311.01	-4.7004e-08
1319.57	-1.06206e-07
1328.12	-2.47392e-07
1336.68	2.32765e-07
1345.24	1.47804e-06
1353.8	4.8639e-06
1362.35	6.47273e-06
1370.91	3.98316e-06
1379.47	5.56625e-07
1388.03	3.87639e-07
1396.58	1.95605e-07
1405.14	1.6462e-07
1413.7	-1.65025e-07
1422.26	-3.89681e-07
1430.81	-3.15279e-07
1439.37	-3.89568e-07
1447.93	-6.01838e-08
1456.49	2.87343e-07
1465.05	-9.25475e-08
1473.6	3.23895e-07
1482.16	-2.51372e-08
1490.72	-1.24253e-07
1499.28	-3.54751e-07
1507.83	-3.68516e-07
1516.39	-3.10137e-07
1524.95	-4.00176e-07
1533.51	-1.54257e-07
1542.06	5.47161e-07
1550.62	5.46961e-08
1559.18	1.55885e-07
1567.74	2.17588e-07
1576.29	1.1776e-06
1584.85	3.06194e-08
1593.41	6.65481e-08
1601.97	3.64435e-08
1610.53	-2.75249e-07
1619.08	-2.4052e-07
1627.64	-2.76689e-07
1636.2	-2.7373e-07
1644.76	-3.42099e-07
1653.31	1.19499e-06
1661.87	-3.29667e-07
1670.43	-2.9287e-07
1678.99	-4.29842e-07
1687.54	-3.52737e-07
1696.1	1.05056e-07
1704.66	-3.21649e-07
1713.22	-2.60537e-07
1721.77	-2.56865e-07
1730.33	-1.56973e-07
1738.89	-5.72699e-08
1747.45	1.7616e-07
1756.01	2.39584e-07
1764.56	7.43894e-08
1773.12	7.56968e-07
1781.68	1.13245e-06
1790.24	4.45403e-07
1798.79	6.12553e-07
1807.35	3.61068e-07
1815.91	-6.25425e-07
1824.47	-7.8985e-07
1833.02	-8.8896e-07
1841.58	-8.35073e-07
1850.14	-5.02238e-07
1858.7	-2.83561e-07
1867.25	3.34787e-08
1875.81	4.60837e-07
1884.37	1.12328e-06
1892.93	8.88453e-07
1901.49	3.69362e-07
1910.04	6.40396e-07
1918.6	3.92018e-07
1927.16	-5.17546e-07
1935.72	-5.18183e-07
1944.27	-6.08047e-07
1952.83	-5.47638e-07
1961.39	-4.02432e-07
1969.95	-5.3014e-07
1978.5	-4.7715e-07
1987.06	-4.8183e-07
1995.62	-4.31991e-07
2004.18	-4.75828e-07
2012.73	-4.74587e-07
2021.29	-4.1583e-07
2029.85	-4.48701e-07
2038.41	-5.09279e-07
2046.97	-5.34195e-07
2055.52	-4.91956e-07
2064.08	-5.60479e-07
2072.64	-4.81008e-07
2081.2	-5.32439e-07
2089.75	-5.06105e-07
2098.31	-5.31674e-07
2106.87	-6.30278e-07
2115.43	-3.63464e-07
2123.98	-4.31238e-07
2132.54	-4.11686e-07
2141.1	-4.7135e-07
2149.66	-4.52571e-07
2158.21	-3.17436e-07
2166.77	-3.97244e-07
2175.33	-5.39677e-07
2183.89	2.70088e-08
2192.45	1.64496e-06
2201	3.55049e-07
2209.56	4.25077e-06
2218.12	1.66386e-07
2226.68	-6.86271e-09
2235.23	6.92817e-07
2243.79	2.9566e-06
2252.35	-2.14949e-07
2260.91	-3.82025e-07
2269.46	-3.79821e-07
2278.02	-5.57329e-07
2286.58	-5.45679e-07
2295.14	-4.70535e-07
2303.69	-4.67685e-07
2312.25	-5.53117e-07
2320.81	-3.76694e-09
2329.37	-1.78158e-07
2337.93	2.44273e-07
2346.48	-2.01994e-07
2355.04	-1.31325e-08
2363.6	4.06091e-07
2372.16	1.41545e-07
2380.71	-3.41717e-08
2389.27	-4.56071e-07
2397.83	-4.99001e-07
2406.39	-4.45463e-07
2414.94	-5.3074e-07
2423.5	-5.17573e-07
2432.06	-4.43682e-07
2440.62	-5.56825e-07
2449.17	-3.8576e-07
2457.73	-3.47002e-07
2466.29	-2.11527e-07
2474.85	5.70643e-08
2483.41	8.94946e-07
2491.96	1.69418e-06
2500.52	1.20002e-06
2509.08	-1.30881e-07
2517.64	-5.27968e-07
2526.19	-6.94611e-07
2534.75	-4.8754e-07
2543.31	-4.59714e-07
2551.87	-4.76164e-07
2560.42	-6.13882e-07
2568.98	-3.80512e-07
2577.54	-4.89551e-07
2586.1	-4.01084e-07
2594.65	-4.84919e-07
2603.21	-5.09838e-07
2611.77	-4.92367e-07
2620.33	-5.65465e-07
2628.89	-5.56702e-07
2637.44	-4.89963e-07
2646	-5.41241e-07
2654.56	-6.16263e-07
2663.12	-6.79519e-07
2671.67	-5.19591e-07
2680.23	-5.04845e-07
2688.79	-5.08343e-07
2697.35	-5.92387e-07
2705.9	-5.96737e-07
2714.46	-7.63789e-07
2723.02	-6.43365e-07
2731.58	-4.90661e-07
2740.13	-4.62359e-07
2748.69	-2.48356e-07
2757.25	-5.30715e-07
2765.81	-5.99582e-07
2774.37	-2.28718e-07
2782.92	-4.05762e-07
2791.48	-3.77891e-07
2800.04	-5.12955e-07
2808.6	-5.70611e-07
2817.15	-5.5959e-07
2825.71	-4.85192e-07
2834.27	-5.78745e-07
2842.83	-4.6408e-07
2851.38	-5.31477e-07
2859.94	-5.01287e-07
2868.5	-3.5719e-07
2877.06	-3.35311e-07
2885.61	-1.76422e-07
2894.17	3.09395e-08
2902.73	2.50754e-08
2911.29	-1.52862e-07
2919.85	-3.03707e-07
2928.4	-5.41572e-07
2936.96	-3.34327e-07
2945.52	-3.86996e-07
2954.08	-3.0093e-07
2962.63	-4.85901e-08
2971.19	-1.18598e-07
2979.75	-3.13537e-07
2988.31	-2.20884e-07
2996.86	-3.40951e-07
3005.42	-5.46858e-07
3013.98	-4.80619e-07
3022.54	-4.97222e-07
3031.09	-4.70153e-07
3039.65	-6.08384e-07
3048.21	-5.17619e-07
3056.77	-6.18821e-07
3065.33	-5.2305e-07
3073.88	-5.31601e-07
3082.44	-5.94275e-07
3091	-4.54845e-07
3099.56	-5.61389e-07
3108.11	-3.38819e-07
3116.67	-5.44471e-07
3125.23	-4.4331e-07
3133.79	-3.29443e-07
3142.34	-2.82479e-07
3150.9	-5.0029e-07
3159.46	-3.53325e-07
3168.02	-1.90964e-07
3176.57	-2.83354e-07
3185.13	-3.84947e-07
3193.69	-5.32716e-07
3202.25	-2.20058e-07
3210.81	-2.69857e-07
3219.36	-3.96497e-07
3227.92	-5.29442e-07
3236.48	-3.42333e-07
3245.04	-4.65804e-07
3253.59	-4.4256e-07
3262.15	-1.92833e-07
3270.71	-3.53352e-07
3279.27	-1.61138e-07
3287.82	-4.27391e-07
3296.38	-1.63785e-07
3304.94	-3.44418e-07
3313.5	-1.99946e-07
3322.05	-4.81392e-07
3330.61	-4.53213e-07
3339.17	-2.98512e-07
3347.73	-6.14626e-07
3356.29	-3.14168e-07
3364.84	-4.60798e-07
3373.4	-3.22809e-07
3381.96	-5.15658e-07
3390.52	-4.53988e-07
3399.07	-3.51501e-07
3407.63	-3.42777e-07
3416.19	-5.03599e-07
3424.75	-4.97942e-07
3433.3	-2.31581e-07
3441.86	-4.73056e-07
3450.42	-4.45989e-07
3458.98	-3.23148e-07
3467.53	-3.33515e-07
3476.09	-3.69781e-07
3484.65	-3.59493e-07
3493.21	-4.01062e-07
3501.77	-4.61702e-07
3510.32	-8.02009e-07
3518.88	-6.15956e-07
3527.44	-3.75345e-07
3536	-4.42786e-07
3544.55	-3.61612e-07
3553.11	-5.4688e-07
3561.67	-4.78187e-07
3570.23	-3.6952e-07
3578.78	-3.00017e-07
3587.34	-5.00658e-07
3595.9	-1.91572e-07
3604.46	-4.40972e-07
3613.01	-5.85022e-07
3621.57	-5.62126e-07
3630.13	-5.05942e-07
3638.69	-4.49236e-07
3647.25	-4.99594e-07
3655.8	-7.49474e-07
3664.36	-7.40667e-07
3672.92	-5.33149e-07
3681.48	-6.87295e-07
3690.03	-7.86563e-07
3698.59	-6.77513e-07
3707.15	-5.48216e-07
3715.71	-3.78855e-07
3724.26	-4.11703e-07
3732.82	-7.17945e-07
3741.38	-4.45638e-07
3749.94	-5.04885e-07
3758.49	-2.95617e-07
3767.05	-4.56222e-07
3775.61	-5.71311e-07
3784.17	-5.12311e-07
3792.73	-6.57667e-07
3801.28	1.19174e-08
3809.84	-3.45187e-07
3818.4	-5.24149e-07
3826.96	-6.76483e-07
3835.51	-6.10979e-07
3844.07	-8.36227e-07
3852.63	-4.28875e-07
3861.19	-4.68312e-07
3869.74	-4.98097e-07
3878.3	-7.30989e-07
3886.86	-6.20909e-07
3895.42	-4.40989e-07
3903.97	-3.8871e-07
3912.53	-6.75147e-07
3921.09	-7.89355e-07
3929.65	-6.98639e-07
3938.21	-7.0334e-07
3946.76	-6.59189e-07
3955.32	-4.55496e-07
3963.88	-6.95305e-07
3972.44	-7.19744e-07
