Infrared Spectrum: Tetrachloroethene
Formula: C2 Cl4
CAS: 127-18-4
State: gas
Melting point: -19 C
Boiling point: 121 C
Class: IUPAC A
Instrument: IFS66V (Bruker)
Instrument parameters: KBr Beam Splitter; MCT Detector; Multipass cell
Sampling: 1 L/min Flow
Resolution: 1.9290
Temperature: 23 C
Pressure: 101.3 Pa
Origin: NIST, Analytical Chemistry Division, 301-975-3108
cm-1	(micromol/mol)-1m-1 (base 10)
575.652	6.86349e-07
584.33	-3.46901e-08
593.008	7.91531e-08
601.687	-2.14452e-07
610.365	8.1223e-08
619.043	1.55189e-07
627.721	-1.93209e-07
636.399	-3.60806e-07
645.077	-2.8438e-07
653.756	-6.28412e-08
662.434	-1.44495e-07
671.112	-1.34453e-07
679.79	5.077e-07
688.468	1.05907e-06
697.146	5.14627e-07
705.825	-2.45812e-07
714.503	-3.0633e-07
723.181	-1.79102e-07
731.859	2.65561e-07
740.537	6.20966e-06
749.216	3.51204e-05
757.894	4.90444e-05
766.572	5.35613e-05
775.25	0.000302626
783.928	0.000340686
792.606	9.63706e-05
801.285	0.000194943
809.963	0.000125909
818.641	1.09712e-05
827.319	8.50744e-06
835.997	3.12266e-06
844.676	6.87853e-08
853.354	8.06264e-08
862.032	1.55354e-07
870.71	3.01801e-07
879.388	1.35395e-06
888.066	1.12345e-05
896.745	6.13773e-05
905.423	0.000423769
914.101	0.00140219
922.779	0.00127048
931.457	8.81447e-05
940.135	1.52128e-06
948.814	8.52719e-08
957.492	5.76646e-08
966.17	1.86328e-08
974.848	6.59333e-08
983.526	9.49413e-07
992.205	1.0857e-06
1000.88	7.64502e-08
1009.56	3.22469e-07
1018.24	-7.52024e-08
1026.92	-2.8361e-07
1035.6	-2.42983e-07
1044.27	-2.201e-07
1052.95	-2.00074e-07
1061.63	-1.18421e-07
1070.31	-1.45228e-07
1078.99	3.09439e-07
1087.66	2.50205e-06
1096.34	6.52699e-06
1105.02	5.57047e-06
1113.7	6.32696e-06
1122.38	1.07338e-05
1131.06	8.30715e-06
1139.73	5.75823e-06
1148.41	7.19682e-06
1157.09	4.5803e-06
1165.77	1.9104e-06
1174.45	2.22443e-06
1183.12	1.52815e-06
1191.8	2.40389e-07
1200.48	1.61897e-07
1209.16	9.52594e-08
1217.84	4.63259e-07
1226.52	1.02569e-06
1235.19	7.55891e-07
1243.87	6.55111e-07
1252.55	1.5816e-06
1261.23	2.0216e-06
1269.91	1.21429e-06
1278.58	2.69719e-07
1287.26	-3.73311e-08
1295.94	4.42597e-07
1304.62	3.16636e-07
1313.3	-2.10318e-07
1321.98	-3.45078e-07
1330.65	-2.14228e-07
1339.33	3.42663e-07
1348.01	2.10039e-06
1356.69	6.06134e-06
1365.37	6.30008e-06
1374.04	2.30502e-06
1382.72	3.91911e-07
1391.4	3.04084e-07
1400.08	1.3043e-07
1408.76	-5.65569e-08
1417.44	-2.18948e-07
1426.11	-3.1553e-07
1434.79	-2.99562e-07
1443.47	-3.06419e-07
1452.15	-3.19892e-07
1460.83	-3.29465e-07
1469.5	-2.64032e-07
1478.18	-1.37702e-07
1486.86	-1.35737e-07
1495.54	-2.14223e-07
1504.22	-3.3106e-07
1512.9	-3.12896e-07
1521.57	-9.85917e-08
1530.25	-2.77482e-07
1538.93	2.1447e-07
1547.61	-7.58027e-08
1556.29	6.54204e-08
1564.96	1.76173e-07
1573.64	2.25211e-07
1582.32	1.60789e-07
1591	1.23374e-07
1599.68	-1.96059e-08
1608.36	-2.57109e-07
1617.03	-9.39407e-08
1625.71	-3.3624e-07
1634.39	-2.06069e-07
1643.07	-3.15064e-07
1651.75	-4.5749e-08
1660.42	-4.05376e-07
1669.1	-2.44329e-07
1677.78	-3.53849e-07
1686.46	-2.94462e-07
1695.14	-1.83496e-07
1703.82	-3.64029e-07
1712.49	-3.34412e-07
1721.17	-2.68977e-07
1729.85	-1.86617e-07
1738.53	-1.02086e-07
1747.21	1.62144e-07
1755.88	1.87034e-07
1764.56	3.40807e-08
1773.24	8.05274e-07
1781.92	1.10562e-06
1790.6	4.5437e-07
1799.28	6.82997e-07
1807.95	2.44902e-07
1816.63	-6.64386e-07
1825.31	-7.82373e-07
1833.99	-8.82736e-07
1842.67	-7.43293e-07
1851.34	-4.35668e-07
1860.02	-6.33632e-08
1868.7	5.5873e-08
1877.38	3.84977e-07
1886.06	9.38334e-07
1894.74	7.91494e-07
1903.41	5.06316e-07
1912.09	7.44505e-07
1920.77	1.73938e-07
1929.45	-4.79116e-07
1938.13	-5.36199e-07
1946.8	-5.16784e-07
1955.48	-5.08963e-07
1964.16	-4.96763e-07
1972.84	-4.64211e-07
1981.52	-4.47751e-07
1990.19	-4.36309e-07
1998.87	-4.62068e-07
2007.55	-4.25059e-07
2016.23	-4.84842e-07
2024.91	-4.86965e-07
2033.59	-4.60409e-07
2042.26	-4.80566e-07
2050.94	-5.04148e-07
2059.62	-5.22228e-07
2068.3	-4.99963e-07
2076.98	-4.94433e-07
2085.65	-4.80579e-07
2094.33	-4.53237e-07
2103.01	-5.00458e-07
2111.69	-4.39224e-07
2120.37	-4.64765e-07
2129.05	-4.81234e-07
2137.72	-4.98733e-07
2146.4	-4.47619e-07
2155.08	-4.02648e-07
2163.76	-4.74442e-07
2172.44	-3.48287e-07
2181.11	-2.29143e-07
2189.79	1.79402e-07
2198.47	7.04949e-07
2207.15	1.27655e-06
2215.83	1.22356e-06
2224.51	8.4628e-08
2233.18	1.80503e-06
2241.86	1.63966e-06
2250.54	2.29372e-07
2259.22	-4.11408e-07
2267.9	-4.24791e-07
2276.57	-5.04357e-07
2285.25	-4.72106e-07
2293.93	-4.85286e-07
2302.61	-4.36076e-07
2311.29	-2.95471e-07
2319.97	-3.70364e-08
2328.64	5.10012e-07
2337.32	7.14362e-07
2346	2.4012e-07
2354.68	7.83049e-07
2363.36	1.52465e-06
2372.03	6.81049e-07
2380.71	-2.53813e-07
2389.39	-4.23189e-07
2398.07	-4.85437e-07
2406.75	-5.00198e-07
2415.43	-5.34762e-07
2424.1	-4.91387e-07
2432.78	-4.60969e-07
2441.46	-4.54792e-07
2450.14	-4.36818e-07
2458.82	-3.77535e-07
2467.49	-2.47871e-07
2476.17	2.12873e-07
2484.85	9.92146e-07
2493.53	1.67207e-06
2502.21	1.04584e-06
2510.89	-2.68506e-07
2519.56	-4.73572e-07
2528.24	-5.42309e-07
2536.92	-5.27979e-07
2545.6	-4.93011e-07
2554.28	-5.05607e-07
2562.95	-4.95936e-07
2571.63	-4.61579e-07
2580.31	-4.39037e-07
2588.99	-4.57039e-07
2597.67	-5.00707e-07
2606.35	-4.64933e-07
2615.02	-5.06698e-07
2623.7	-5.22814e-07
2632.38	-4.73318e-07
2641.06	-5.62466e-07
2649.74	-5.63377e-07
2658.41	-5.49093e-07
2667.09	-5.39091e-07
2675.77	-5.53702e-07
2684.45	-5.39548e-07
2693.13	-5.84629e-07
2701.81	-5.3681e-07
2710.48	-5.86077e-07
2719.16	-5.31863e-07
2727.84	-4.71999e-07
2736.52	-4.03381e-07
2745.2	-3.38432e-07
2753.87	-3.8993e-07
2762.55	-4.62954e-07
2771.23	-4.14635e-07
2779.91	-4.01246e-07
2788.59	-3.79855e-07
2797.27	-4.14158e-07
2805.94	-4.37322e-07
2814.62	-5.11389e-07
2823.3	-5.01705e-07
2831.98	-5.18256e-07
2840.66	-4.80883e-07
2849.33	-4.88788e-07
2858.01	-3.80096e-07
2866.69	-3.07078e-07
2875.37	-2.28279e-07
2884.05	-1.81583e-07
2892.73	-9.84116e-08
2901.4	5.84049e-09
2910.08	-4.63874e-08
2918.76	-3.11288e-07
2927.44	-3.48852e-07
2936.12	-3.00044e-07
2944.79	-2.60954e-07
2953.47	-3.09351e-07
2962.15	-3.16572e-07
2970.83	-3.36018e-07
2979.51	-2.94011e-07
2988.19	-2.54784e-07
2996.86	-3.34448e-07
3005.54	-4.44259e-07
3014.22	-5.08144e-07
3022.9	-4.85355e-07
3031.58	-5.3167e-07
3040.25	-5.68095e-07
3048.93	-5.1988e-07
3057.61	-5.94507e-07
3066.29	-5.50843e-07
3074.97	-4.73229e-07
3083.65	-4.82716e-07
3092.32	-4.75073e-07
3101	-4.61786e-07
3109.68	-4.11244e-07
3118.36	-3.97191e-07
3127.04	-4.04254e-07
3135.71	-3.10586e-07
3144.39	-2.83421e-07
3153.07	-3.03924e-07
3161.75	-3.28561e-07
3170.43	-3.12111e-07
3179.11	-3.53929e-07
3187.78	-3.34452e-07
3196.46	-3.81218e-07
3205.14	-4.35157e-07
3213.82	-2.75121e-07
3222.5	-3.15308e-07
3231.17	-3.26136e-07
3239.85	-3.79774e-07
3248.53	-2.99011e-07
3257.21	-2.23161e-07
3265.89	-2.53253e-07
3274.57	-2.55237e-07
3283.24	-2.71194e-07
3291.92	-3.42593e-07
3300.6	-3.28324e-07
3309.28	-2.97272e-07
3317.96	-3.07458e-07
3326.63	-3.21905e-07
3335.31	-3.90794e-07
3343.99	-2.53182e-07
3352.67	-3.84104e-07
3361.35	-4.20117e-07
3370.03	-3.89896e-07
3378.7	-3.81032e-07
3387.38	-3.80879e-07
3396.06	-3.6167e-07
3404.74	-4.43051e-07
3413.42	-3.80767e-07
3422.09	-4.56466e-07
3430.77	-3.78397e-07
3439.45	-4.19216e-07
3448.13	-3.81109e-07
3456.81	-3.47481e-07
3465.49	-4.15673e-07
3474.16	-4.44714e-07
3482.84	-3.7633e-07
3491.52	-3.82575e-07
3500.2	-3.90252e-07
3508.88	-5.23676e-07
3517.55	-5.53362e-07
3526.23	-5.48526e-07
3534.91	-4.49527e-07
3543.59	-4.76246e-07
3552.27	-5.70254e-07
3560.95	-4.90064e-07
3569.62	-4.19289e-07
3578.3	-3.77038e-07
3586.98	-3.20376e-07
3595.66	-3.68002e-07
3604.34	-4.7372e-07
3613.01	-4.23718e-07
3621.69	-4.70402e-07
3630.37	-3.88572e-07
3639.05	-4.00947e-07
3647.73	-4.58003e-07
3656.41	-4.79904e-07
3665.08	-6.27521e-07
3673.76	-4.89151e-07
3682.44	-4.98886e-07
3691.12	-5.1463e-07
3699.8	-6.07922e-07
3708.47	-4.45956e-07
3717.15	-5.67728e-07
3725.83	-4.81348e-07
3734.51	-4.36585e-07
3743.19	-4.66051e-07
3751.87	-3.15739e-07
3760.54	-5.81253e-07
3769.22	-5.25948e-07
3777.9	-5.58662e-07
3786.58	-6.02611e-07
3795.26	-5.45403e-07
3803.93	-5.36419e-07
3812.61	-6.10637e-07
3821.29	-3.92764e-07
3829.97	-5.49448e-07
3838.65	-4.7299e-07
3847.33	-5.77859e-07
3856	-5.57389e-07
3864.68	-6.06518e-07
3873.36	-6.71718e-07
3882.04	-6.72293e-07
3890.72	-6.04364e-07
3899.39	-6.14746e-07
3908.07	-7.37142e-07
3916.75	-6.55215e-07
3925.43	-6.17291e-07
3934.11	-6.47245e-07
3942.79	-5.88834e-07
3951.46	-5.62217e-07
3960.14	-5.54224e-07
3968.82	-6.46403e-07
