Infrared Spectrum: Tetrachloroethene
Formula: C2 Cl4
CAS: 127-18-4
State: gas
Melting point: -19 C
Boiling point: 121 C
Class: IUPAC A
Instrument: IFS66V (Bruker)
Instrument parameters: KBr Beam Splitter; MCT Detector; Multipass cell
Sampling: 1 L/min Flow
Resolution: 0.4820
Temperature: 23 C
Pressure: 101.3 Pa
Origin: NIST, Analytical Chemistry Division, 301-975-3108
cm-1	(micromol/mol)-1m-1 (base 10)
575.17	6.6887e-07
583.848	1.43031e-07
592.526	5.25826e-07
601.205	-1.6656e-07
609.883	1.99715e-07
618.561	-2.15394e-08
627.239	-1.69794e-07
635.917	-3.89266e-07
644.595	-1.63796e-07
653.274	-8.33675e-08
661.952	-1.6319e-07
670.63	-2.01119e-07
679.308	5.71546e-07
687.986	9.06221e-07
696.664	6.71454e-07
705.343	-3.1782e-07
714.021	-3.45134e-07
722.699	-1.96989e-07
731.377	2.53431e-07
740.055	5.28742e-06
748.734	3.3294e-05
757.412	5.37662e-05
766.09	4.97762e-05
774.768	0.000289525
783.446	0.000340325
792.124	9.64554e-05
800.803	0.000194409
809.481	0.000137383
818.159	1.15735e-05
826.837	8.52707e-06
835.515	3.76526e-06
844.193	1.51878e-08
852.872	7.82964e-08
861.55	1.60945e-07
870.228	2.1301e-07
878.906	1.34472e-06
887.584	9.93043e-06
896.263	5.58698e-05
904.941	0.000378279
913.619	0.00137991
922.297	0.0013261
930.975	0.000105058
939.653	1.73702e-06
948.332	9.7513e-08
957.01	9.3546e-09
965.688	5.94326e-08
974.366	-2.26817e-09
983.044	8.85575e-07
991.723	1.1468e-06
1000.4	5.74554e-08
1009.08	3.04557e-07
1017.76	1.80253e-09
1026.44	-3.37621e-07
1035.11	-2.08746e-07
1043.79	-2.22732e-07
1052.47	-2.67798e-07
1061.15	-1.53099e-07
1069.83	-1.76792e-07
1078.5	2.27579e-07
1087.18	2.29084e-06
1095.86	6.15456e-06
1104.54	5.60474e-06
1113.22	6.10533e-06
1121.9	1.06618e-05
1130.57	8.45536e-06
1139.25	5.56431e-06
1147.93	7.14909e-06
1156.61	4.83391e-06
1165.29	1.81573e-06
1173.96	2.24609e-06
1182.64	1.62986e-06
1191.32	2.58251e-07
1200	1.55265e-07
1208.68	6.21773e-08
1217.36	4.08288e-07
1226.03	9.52982e-07
1234.71	7.87102e-07
1243.39	5.68044e-07
1252.07	1.54046e-06
1260.75	1.9904e-06
1269.42	1.26217e-06
1278.1	2.7853e-07
1286.78	-4.17001e-08
1295.46	4.87876e-07
1304.14	3.37228e-07
1312.82	-2.22042e-07
1321.49	-3.43563e-07
1330.17	-2.30753e-07
1338.85	3.11972e-07
1347.53	1.99524e-06
1356.21	5.91382e-06
1364.88	6.54481e-06
1373.56	2.55272e-06
1382.24	4.0934e-07
1390.92	2.80089e-07
1399.6	1.24169e-07
1408.28	-7.49732e-08
1416.95	-2.21022e-07
1425.63	-3.20346e-07
1434.31	-3.17278e-07
1442.99	-3.37664e-07
1451.67	-2.83561e-07
1460.34	-2.57607e-07
1469.02	-3.13105e-07
1477.7	-1.65902e-07
1486.38	-1.60201e-07
1495.06	-2.83656e-07
1503.73	-3.31871e-07
1512.41	-2.10665e-07
1521.09	1.56136e-07
1529.77	-2.63804e-07
1538.45	1.09498e-09
1547.13	-1.11866e-07
1555.8	-1.69358e-08
1564.48	1.67903e-07
1573.16	2.22446e-07
1581.84	1.53331e-07
1590.52	1.70673e-07
1599.19	4.48541e-09
1607.87	-2.52478e-07
1616.55	2.48333e-07
1625.23	-3.59646e-07
1633.91	-3.0734e-07
1642.59	-2.92548e-07
1651.26	-2.70168e-07
1659.94	-4.01348e-07
1668.62	-2.96624e-07
1677.3	-3.26041e-07
1685.98	-2.99737e-07
1694.65	-4.08447e-07
1703.33	-3.89863e-07
1712.01	-3.70648e-07
1720.69	-2.4753e-07
1729.37	-2.01403e-07
1738.05	-1.52855e-07
1746.72	1.44924e-07
1755.4	1.48448e-07
1764.08	6.0131e-08
1772.76	1.03343e-06
1781.44	1.09638e-06
1790.11	5.24613e-07
1798.79	6.66583e-07
1807.47	3.29383e-07
1816.15	-6.70217e-07
1824.83	-7.70684e-07
1833.51	-9.46983e-07
1842.18	-8.10491e-07
1850.86	-4.65771e-07
1859.54	-6.90964e-08
1868.22	3.85225e-08
1876.9	3.60173e-07
1885.57	8.9266e-07
1894.25	8.84355e-07
1902.93	5.18135e-07
1911.61	7.43737e-07
1920.29	1.94681e-07
1928.97	-4.3527e-07
1937.64	-5.56372e-07
1946.32	-5.40852e-07
1955	-4.91696e-07
1963.68	-4.63921e-07
1972.36	-4.65227e-07
1981.03	-4.1233e-07
1989.71	-4.04069e-07
1998.39	-4.36445e-07
2007.07	-4.16761e-07
2015.75	-4.90041e-07
2024.43	-4.72627e-07
2033.1	-4.29622e-07
2041.78	-4.73527e-07
2050.46	-5.1373e-07
2059.14	-5.35913e-07
2067.82	-5.21173e-07
2076.49	-4.57002e-07
2085.17	-4.9539e-07
2093.85	-4.74509e-07
2102.53	-5.09552e-07
2111.21	-4.319e-07
2119.89	-4.08228e-07
2128.56	-5.06811e-07
2137.24	-4.98098e-07
2145.92	-4.30655e-07
2154.6	-3.58589e-07
2163.28	-4.83684e-07
2171.95	-4.15915e-07
2180.63	-2.2686e-07
2189.31	3.71587e-07
2197.99	6.17818e-07
2206.67	1.91289e-06
2215.35	1.09245e-06
2224.02	-6.48438e-08
2232.7	1.72444e-06
2241.38	1.56075e-06
2250.06	2.97392e-07
2258.74	-3.69051e-07
2267.41	-4.47569e-07
2276.09	-5.28683e-07
2284.77	-4.72881e-07
2293.45	-4.96369e-07
2302.13	-4.99004e-07
2310.81	-2.77613e-07
2319.48	7.42675e-08
2328.16	-3.16943e-08
2336.84	-1.93311e-07
2345.52	4.51706e-08
2354.2	1.06657e-06
2362.87	2.78789e-06
2371.55	1.08345e-06
2380.23	-2.82672e-07
2388.91	-4.26645e-07
2397.59	-4.68094e-07
2406.27	-5.10214e-07
2414.94	-5.00916e-07
2423.62	-4.96205e-07
2432.3	-4.55154e-07
2440.98	-5.08428e-07
2449.66	-4.06855e-07
2458.33	-4.03103e-07
2467.01	-2.65603e-07
2475.69	1.69503e-07
2484.37	9.24709e-07
2493.05	1.65131e-06
2501.73	1.10036e-06
2510.4	-2.45437e-07
2519.08	-4.53541e-07
2527.76	-5.40352e-07
2536.44	-5.87125e-07
2545.12	-4.51227e-07
2553.79	-5.0045e-07
2562.47	-5.01331e-07
2571.15	-4.63649e-07
2579.83	-3.82316e-07
2588.51	-4.41107e-07
2597.19	-5.11429e-07
2605.86	-4.48324e-07
2614.54	-5.41497e-07
2623.22	-5.30047e-07
2631.9	-5.07417e-07
2640.58	-5.63055e-07
2649.25	-5.80509e-07
2657.93	-5.44126e-07
2666.61	-5.64559e-07
2675.29	-5.46438e-07
2683.97	-5.60625e-07
2692.65	-6.22508e-07
2701.32	-5.45364e-07
2710	-6.34985e-07
2718.68	-4.91188e-07
2727.36	-4.658e-07
2736.04	-3.38446e-07
2744.71	-3.47006e-07
2753.39	-4.23411e-07
2762.07	-3.91804e-07
2770.75	-4.34386e-07
2779.43	-4.17527e-07
2788.11	-3.68147e-07
2796.78	-3.99489e-07
2805.46	-4.28173e-07
2814.14	-4.79744e-07
2822.82	-4.34022e-07
2831.5	-4.89428e-07
2840.17	-4.28711e-07
2848.85	-4.94621e-07
2857.53	-4.38428e-07
2866.21	-3.33535e-07
2874.89	-2.16036e-07
2883.57	-1.4278e-07
2892.24	-2.89623e-08
2900.92	2.38276e-08
2909.6	-6.86489e-08
2918.28	-3.68249e-07
2926.96	-3.3682e-07
2935.63	-3.17369e-07
2944.31	-2.12511e-07
2952.99	-2.81284e-07
2961.67	-5.57953e-07
2970.35	-3.85394e-07
2979.03	-3.20534e-07
2987.7	-2.37292e-07
2996.38	-3.14702e-07
3005.06	-4.53379e-07
3013.74	-4.71346e-07
3022.42	-4.22611e-07
3031.09	-5.18707e-07
3039.77	-6.2443e-07
3048.45	-5.22068e-07
3057.13	-5.45357e-07
3065.81	-5.62711e-07
3074.49	-4.67121e-07
3083.16	-4.77159e-07
3091.84	-4.7474e-07
3100.52	-5.73845e-07
3109.2	-4.42778e-07
3117.88	-4.71352e-07
3126.55	-4.16837e-07
3135.23	-3.44911e-07
3143.91	-3.40182e-07
3152.59	-2.80338e-07
3161.27	-2.98971e-07
3169.95	-2.66318e-07
3178.62	-3.223e-07
3187.3	-2.88272e-07
3195.98	-4.20739e-07
3204.66	-4.27001e-07
3213.34	-1.87418e-07
3222.01	-3.46779e-07
3230.69	-3.48825e-07
3239.37	-3.59606e-07
3248.05	-3.92781e-07
3256.73	-1.73234e-07
3265.4	-2.38458e-07
3274.08	-2.31066e-07
3282.76	-2.42217e-07
3291.44	-3.29037e-07
3300.12	-2.86298e-07
3308.8	-2.6907e-07
3317.47	-2.71695e-07
3326.15	-3.19917e-07
3334.83	-4.3001e-07
3343.51	-2.50301e-07
3352.19	-3.93839e-07
3360.86	-4.73367e-07
3369.54	-3.75976e-07
3378.22	-4.25985e-07
3386.9	-3.32251e-07
3395.58	-4.12245e-07
3404.26	-3.52445e-07
3412.93	-4.01075e-07
3421.61	-4.43872e-07
3430.29	-4.12728e-07
3438.97	-3.81587e-07
3447.65	-4.30423e-07
3456.32	-1.63423e-07
3465	-4.06853e-07
3473.68	-3.82802e-07
3482.36	-4.27634e-07
3491.04	-3.33486e-07
3499.72	-4.15375e-07
3508.39	-4.6152e-07
3517.07	-6.24012e-07
3525.75	-5.53864e-07
3534.43	-4.92693e-07
3543.11	-5.77097e-07
3551.78	-5.60661e-07
3560.46	-5.53795e-07
3569.14	-4.72083e-07
3577.82	-4.23747e-07
3586.5	-1.43831e-07
3595.18	-3.87424e-07
3603.85	-5.57809e-07
3612.53	-3.14333e-07
3621.21	-4.42989e-07
3629.89	-2.86255e-07
3638.57	-4.01067e-07
3647.24	-4.3079e-07
3655.92	-5.37811e-07
3664.6	-6.31955e-07
3673.28	-5.09596e-07
3681.96	-4.80919e-07
3690.64	-5.3593e-07
3699.31	-6.34249e-07
3707.99	-5.43778e-07
3716.67	-5.92729e-07
3725.35	-5.26506e-07
3734.03	-5.09143e-07
3742.7	-5.81882e-07
3751.38	-4.66089e-07
3760.06	-5.25826e-07
3768.74	-5.96797e-07
3777.42	-5.1162e-07
3786.1	-5.71275e-07
3794.77	-4.52264e-07
3803.45	-5.44588e-07
3812.13	-5.91301e-07
3820.81	-3.3751e-07
3829.49	-6.05863e-07
3838.16	-2.50013e-07
3846.84	-6.11621e-07
3855.52	-5.48749e-07
3864.2	-7.45858e-07
3872.88	-6.98214e-07
3881.56	-7.04307e-07
3890.23	-6.96539e-07
3898.91	-6.73762e-07
3907.59	-6.9847e-07
3916.27	-6.29343e-07
3924.95	-6.36771e-07
3933.62	-6.43952e-07
3942.3	-5.76508e-07
3950.98	-5.1228e-07
3959.66	-5.9474e-07
3968.34	-6.20045e-07
