Infrared Spectrum: Tetrachloroethene
Formula: C2 Cl4
CAS: 127-18-4
State: gas
Melting point: -19 C
Boiling point: 121 C
Class: IUPAC A
Instrument: IFS66V (Bruker)
Instrument parameters: KBr Beam Splitter; MCT Detector; Multipass cell
Sampling: 1 L/min Flow
Resolution: 0.4820
Temperature: 23 C
Pressure: 101.3 Pa
Origin: NIST, Analytical Chemistry Division, 301-975-3108
cm-1	(micromol/mol)-1m-1 (base 10)
575.17	7.25721e-07
583.848	2.61756e-07
592.526	6.15059e-07
601.205	-1.34379e-07
609.883	2.75622e-07
618.561	-2.25071e-08
627.239	-1.84084e-07
635.917	-3.70563e-07
644.595	-8.32547e-08
653.274	-7.55589e-08
661.952	-1.64459e-07
670.63	-2.15811e-07
679.308	6.12873e-07
687.986	8.65625e-07
696.664	7.1637e-07
705.343	-3.272e-07
714.021	-3.45591e-07
722.699	-1.84498e-07
731.377	2.56772e-07
740.055	5.28045e-06
748.734	3.33827e-05
757.412	5.40662e-05
766.09	4.97375e-05
774.768	0.00028966
783.446	0.000338167
792.124	9.62771e-05
800.803	0.000195253
809.481	0.000137454
818.159	1.15381e-05
826.837	8.49387e-06
835.515	3.77571e-06
844.193	2.89933e-09
852.872	7.98261e-08
861.55	1.42538e-07
870.228	1.86772e-07
878.906	1.36618e-06
887.584	9.9464e-06
896.263	5.58582e-05
904.941	0.000378154
913.619	0.00138027
922.297	0.00132774
930.975	0.00010484
939.653	1.72836e-06
948.332	9.92337e-08
957.01	1.03586e-08
965.688	6.64444e-08
974.366	-1.83673e-08
983.044	8.68059e-07
991.723	1.15054e-06
1000.4	6.15297e-08
1009.08	3.04897e-07
1017.76	-4.91831e-09
1026.44	-3.44094e-07
1035.11	-2.14405e-07
1043.79	-2.29189e-07
1052.47	-2.85867e-07
1061.15	-1.62324e-07
1069.83	-1.74249e-07
1078.5	2.13506e-07
1087.18	2.27802e-06
1095.86	6.17852e-06
1104.54	5.5799e-06
1113.22	6.08932e-06
1121.9	1.0669e-05
1130.57	8.44554e-06
1139.25	5.56883e-06
1147.93	7.12493e-06
1156.61	4.83383e-06
1165.29	1.80557e-06
1173.96	2.23863e-06
1182.64	1.65191e-06
1191.32	2.73375e-07
1200	1.48224e-07
1208.68	5.56729e-08
1217.36	4.01451e-07
1226.03	9.45073e-07
1234.71	7.99905e-07
1243.39	5.54623e-07
1252.07	1.54822e-06
1260.75	1.97631e-06
1269.42	1.275e-06
1278.1	3.11887e-07
1286.78	-3.82205e-08
1295.46	5.58e-07
1304.14	3.36769e-07
1312.82	-2.13959e-07
1321.49	-3.37659e-07
1330.17	-2.23374e-07
1338.85	3.20819e-07
1347.53	1.99623e-06
1356.21	5.88376e-06
1364.88	6.55702e-06
1373.56	2.54526e-06
1382.24	4.07894e-07
1390.92	2.81149e-07
1399.6	1.12124e-07
1408.28	-8.68598e-08
1416.95	-2.31273e-07
1425.63	-3.2296e-07
1434.31	-3.15776e-07
1442.99	-3.45851e-07
1451.67	-2.81968e-07
1460.34	-2.44698e-07
1469.02	-3.18171e-07
1477.7	-1.68286e-07
1486.38	-1.6086e-07
1495.06	-2.7978e-07
1503.73	-3.35865e-07
1512.41	-1.87028e-07
1521.09	2.08175e-07
1529.77	-2.60838e-07
1538.45	-3.46264e-08
1547.13	-1.15988e-07
1555.8	-1.31397e-08
1564.48	1.58835e-07
1573.16	2.25209e-07
1581.84	1.44492e-07
1590.52	1.7639e-07
1599.19	1.43693e-09
1607.87	-2.53285e-07
1616.55	3.13626e-07
1625.23	-3.56899e-07
1633.91	-3.05268e-07
1642.59	-2.85145e-07
1651.26	-2.62151e-07
1659.94	-4.01446e-07
1668.62	-2.97445e-07
1677.3	-3.19557e-07
1685.98	-3.06037e-07
1694.65	-4.15444e-07
1703.33	-3.85236e-07
1712.01	-3.65495e-07
1720.69	-2.44255e-07
1729.37	-1.97862e-07
1738.05	-1.57784e-07
1746.72	1.32632e-07
1755.4	1.45417e-07
1764.08	6.20918e-08
1772.76	1.10859e-06
1781.44	1.09908e-06
1790.11	5.26532e-07
1798.79	6.59484e-07
1807.47	3.35256e-07
1816.15	-6.86406e-07
1824.83	-7.86656e-07
1833.51	-9.67889e-07
1842.18	-8.19422e-07
1850.86	-4.64505e-07
1859.54	-5.63532e-08
1868.22	3.24201e-08
1876.9	3.70124e-07
1885.57	8.95295e-07
1894.25	8.94235e-07
1902.93	5.11615e-07
1911.61	7.44856e-07
1920.29	1.81353e-07
1928.97	-4.11086e-07
1937.64	-5.56554e-07
1946.32	-5.44186e-07
1955	-4.89964e-07
1963.68	-4.62957e-07
1972.36	-4.57713e-07
1981.03	-4.11262e-07
1989.71	-3.96362e-07
1998.39	-4.28164e-07
2007.07	-4.232e-07
2015.75	-4.85799e-07
2024.43	-4.73547e-07
2033.1	-4.21239e-07
2041.78	-4.82214e-07
2050.46	-5.17748e-07
2059.14	-5.35473e-07
2067.82	-5.19763e-07
2076.49	-4.59989e-07
2085.17	-4.94946e-07
2093.85	-4.79528e-07
2102.53	-5.17097e-07
2111.21	-4.48683e-07
2119.89	-4.08765e-07
2128.56	-5.19172e-07
2137.24	-4.97065e-07
2145.92	-4.22525e-07
2154.6	-3.4546e-07
2163.28	-4.88587e-07
2171.95	-4.25013e-07
2180.63	-2.341e-07
2189.31	4.966e-07
2197.99	5.37994e-07
2206.67	2.29433e-06
2215.35	9.75693e-07
2224.02	-6.39616e-08
2232.7	1.73643e-06
2241.38	1.32947e-06
2250.06	2.88454e-07
2258.74	-3.62823e-07
2267.41	-4.43344e-07
2276.09	-5.44177e-07
2284.77	-4.72208e-07
2293.45	-4.9678e-07
2302.13	-5.15584e-07
2310.81	-3.1436e-07
2319.48	-8.28691e-09
2328.16	-1.78656e-07
2336.84	-2.2339e-07
2345.52	-2.84003e-08
2354.2	1.07635e-06
2362.87	3.24402e-06
2371.55	1.21967e-06
2380.23	-3.14733e-07
2388.91	-4.25048e-07
2397.59	-4.67452e-07
2406.27	-5.11196e-07
2414.94	-4.96652e-07
2423.62	-4.96791e-07
2432.3	-4.59954e-07
2440.98	-5.05163e-07
2449.66	-4.04723e-07
2458.33	-4.1536e-07
2467.01	-2.48733e-07
2475.69	1.69161e-07
2484.37	9.18801e-07
2493.05	1.65345e-06
2501.73	1.08277e-06
2510.4	-2.47267e-07
2519.08	-4.45427e-07
2527.76	-5.4396e-07
2536.44	-6.01821e-07
2545.12	-4.39837e-07
2553.79	-4.88546e-07
2562.47	-4.96292e-07
2571.15	-4.64691e-07
2579.83	-3.73588e-07
2588.51	-4.51073e-07
2597.19	-5.22173e-07
2605.86	-4.44925e-07
2614.54	-5.51798e-07
2623.22	-5.30959e-07
2631.9	-5.19562e-07
2640.58	-5.64356e-07
2649.25	-5.86935e-07
2657.93	-5.42105e-07
2666.61	-5.68794e-07
2675.29	-5.4577e-07
2683.97	-5.55776e-07
2692.65	-6.29267e-07
2701.32	-5.41015e-07
2710	-6.41362e-07
2718.68	-4.90454e-07
2727.36	-4.66155e-07
2736.04	-3.36047e-07
2744.71	-3.51275e-07
2753.39	-4.33953e-07
2762.07	-3.86671e-07
2770.75	-4.43401e-07
2779.43	-4.09653e-07
2788.11	-3.62849e-07
2796.78	-3.88204e-07
2805.46	-4.19848e-07
2814.14	-4.70313e-07
2822.82	-4.16652e-07
2831.5	-4.84542e-07
2840.17	-4.1745e-07
2848.85	-4.94199e-07
2857.53	-4.49252e-07
2866.21	-3.42413e-07
2874.89	-2.19996e-07
2883.57	-1.27321e-07
2892.24	-1.4644e-08
2900.92	2.8353e-08
2909.6	-8.11648e-08
2918.28	-3.82251e-07
2926.96	-3.32451e-07
2935.63	-3.08171e-07
2944.31	-2.05914e-07
2952.99	-2.69208e-07
2961.67	-5.73981e-07
2970.35	-3.91158e-07
2979.03	-3.12554e-07
2987.7	-2.44056e-07
2996.38	-3.12174e-07
3005.06	-4.53294e-07
3013.74	-4.69271e-07
3022.42	-4.10851e-07
3031.09	-5.11155e-07
3039.77	-6.42194e-07
3048.45	-5.2478e-07
3057.13	-5.43778e-07
3065.81	-5.80104e-07
3074.49	-4.72872e-07
3083.16	-4.72699e-07
3091.84	-4.69605e-07
3100.52	-5.91524e-07
3109.2	-4.45356e-07
3117.88	-4.83313e-07
3126.55	-4.16825e-07
3135.23	-3.5217e-07
3143.91	-3.56563e-07
3152.59	-2.76626e-07
3161.27	-3.01448e-07
3169.95	-2.41392e-07
3178.62	-2.96292e-07
3187.3	-2.77995e-07
3195.98	-4.20852e-07
3204.66	-4.18542e-07
3213.34	-1.85111e-07
3222.01	-3.45973e-07
3230.69	-3.44087e-07
3239.37	-3.46304e-07
3248.05	-4.17658e-07
3256.73	-1.52184e-07
3265.4	-2.36715e-07
3274.08	-2.33565e-07
3282.76	-2.30342e-07
3291.44	-3.22034e-07
3300.12	-2.90227e-07
3308.8	-2.76384e-07
3317.47	-2.47296e-07
3326.15	-3.13911e-07
3334.83	-4.38942e-07
3343.51	-2.64263e-07
3352.19	-4.1404e-07
3360.86	-4.9838e-07
3369.54	-3.79275e-07
3378.22	-4.36258e-07
3386.9	-3.41249e-07
3395.58	-4.17767e-07
3404.26	-3.35458e-07
3412.93	-3.9415e-07
3421.61	-4.36212e-07
3430.29	-4.14826e-07
3438.97	-3.68917e-07
3447.65	-4.12226e-07
3456.32	-1.58346e-07
3465	-4.02512e-07
3473.68	-3.84212e-07
3482.36	-4.45339e-07
3491.04	-3.27688e-07
3499.72	-4.135e-07
3508.39	-4.50041e-07
3517.07	-6.40557e-07
3525.75	-5.53657e-07
3534.43	-4.98329e-07
3543.11	-6.01538e-07
3551.78	-5.59354e-07
3560.46	-5.87987e-07
3569.14	-4.81945e-07
3577.82	-4.21064e-07
3586.5	-9.6278e-08
3595.18	-4.01137e-07
3603.85	-5.72692e-07
3612.53	-2.86568e-07
3621.21	-4.28778e-07
3629.89	-3.00189e-07
3638.57	-4.04614e-07
3647.24	-4.36969e-07
3655.92	-5.71968e-07
3664.6	-6.34938e-07
3673.28	-5.16538e-07
3681.96	-4.55302e-07
3690.64	-5.20862e-07
3699.31	-6.30458e-07
3707.99	-5.55654e-07
3716.67	-5.94829e-07
3725.35	-5.53431e-07
3734.03	-5.00687e-07
3742.7	-5.79854e-07
3751.38	-4.57313e-07
3760.06	-4.93006e-07
3768.74	-5.88409e-07
3777.42	-5.12682e-07
3786.1	-5.7682e-07
3794.77	-4.2924e-07
3803.45	-5.44375e-07
3812.13	-5.92952e-07
3820.81	-3.0412e-07
3829.49	-6.25787e-07
3838.16	-2.99193e-07
3846.84	-6.23814e-07
3855.52	-5.47334e-07
3864.2	-7.5082e-07
3872.88	-7.10091e-07
3881.56	-7.09227e-07
3890.23	-6.93845e-07
3898.91	-6.98392e-07
3907.59	-6.8638e-07
3916.27	-5.9251e-07
3924.95	-6.28083e-07
3933.62	-6.45124e-07
3942.3	-5.85713e-07
3950.98	-5.17013e-07
3959.66	-6.17422e-07
3968.34	-5.95175e-07
