Infrared Spectrum: Tetrachloroethene
Formula: C2 Cl4
CAS: 127-18-4
State: gas
Melting point: -19 C
Boiling point: 121 C
Class: IUPAC A
Instrument: IFS66V (Bruker)
Instrument parameters: KBr Beam Splitter; MCT Detector; Multipass cell
Sampling: 1 L/min Flow
Resolution: 1.9290
Temperature: 23 C
Pressure: 101.3 Pa
Origin: NIST, Analytical Chemistry Division, 301-975-3108
cm-1	(micromol/mol)-1m-1 (base 10)
575.652	7.49501e-07
584.33	2.53427e-08
593.008	1.53888e-07
601.687	-1.483e-07
610.365	1.55765e-07
619.043	2.07438e-07
627.721	-1.05369e-07
636.399	-2.64272e-07
645.077	-1.62981e-07
653.756	2.69761e-08
662.434	-3.91609e-09
671.112	3.19308e-08
679.79	6.56466e-07
688.468	1.18745e-06
697.146	7.24648e-07
705.825	1.46749e-08
714.503	3.53812e-08
723.181	2.50732e-07
731.859	9.47972e-07
740.537	7.19963e-06
749.216	3.54087e-05
757.894	4.97124e-05
766.572	5.79534e-05
775.25	0.000295258
783.928	0.000332983
792.606	0.000103933
801.285	0.000191635
809.963	0.000124443
818.641	1.36603e-05
827.319	9.65208e-06
835.997	4.10675e-06
844.676	1.05355e-06
853.354	1.06354e-06
862.032	1.34641e-06
870.71	1.8835e-06
879.388	3.83019e-06
888.066	1.5545e-05
896.745	7.0049e-05
905.423	0.00043129
914.101	0.0013628
922.779	0.0012315
931.457	0.000107764
940.135	8.08229e-06
948.814	3.11242e-06
957.492	1.82682e-06
966.17	1.21571e-06
974.848	9.29227e-07
983.526	1.57401e-06
992.205	1.54532e-06
1000.88	5.14816e-07
1009.56	6.46031e-07
1018.24	2.22562e-07
1026.92	-2.82002e-08
1035.6	-1.47495e-08
1044.27	-3.1989e-08
1052.95	-2.31455e-08
1061.63	3.84388e-08
1070.31	2.25362e-08
1078.99	4.80946e-07
1087.66	2.64323e-06
1096.34	6.56005e-06
1105.02	5.77228e-06
1113.7	6.46093e-06
1122.38	1.06134e-05
1131.06	8.30953e-06
1139.73	5.86748e-06
1148.41	7.14889e-06
1157.09	4.61297e-06
1165.77	2.0213e-06
1174.45	2.26719e-06
1183.12	1.56188e-06
1191.8	3.21132e-07
1200.48	2.24649e-07
1209.16	1.5911e-07
1217.84	5.10005e-07
1226.52	1.04969e-06
1235.19	7.96256e-07
1243.87	7.07337e-07
1252.55	1.59299e-06
1261.23	2.01797e-06
1269.91	1.23262e-06
1278.58	3.15694e-07
1287.26	1.16446e-08
1295.94	4.65373e-07
1304.62	3.39743e-07
1313.3	-1.66053e-07
1321.98	-2.95646e-07
1330.65	-1.6144e-07
1339.33	4.02086e-07
1348.01	2.14439e-06
1356.69	5.93516e-06
1365.37	6.17014e-06
1374.04	2.34128e-06
1382.72	4.57151e-07
1391.4	3.40634e-07
1400.08	1.59281e-07
1408.76	-3.1567e-08
1417.44	-1.96841e-07
1426.11	-2.91781e-07
1434.79	-2.82231e-07
1443.47	-2.88847e-07
1452.15	-2.96897e-07
1460.83	-3.07758e-07
1469.5	-2.42428e-07
1478.18	-1.26477e-07
1486.86	-1.24247e-07
1495.54	-2.05383e-07
1504.22	-3.10483e-07
1512.9	-2.97026e-07
1521.57	-1.00276e-07
1530.25	-2.5669e-07
1538.93	2.03941e-07
1547.61	-5.14512e-08
1556.29	7.46367e-08
1564.96	1.89982e-07
1573.64	2.40209e-07
1582.32	1.69918e-07
1591	1.32318e-07
1599.68	-1.30833e-08
1608.36	-2.43609e-07
1617.03	-9.6589e-08
1625.71	-3.21376e-07
1634.39	-2.07386e-07
1643.07	-2.90191e-07
1651.75	-6.39307e-08
1660.42	-3.86771e-07
1669.1	-2.41432e-07
1677.78	-3.34565e-07
1686.46	-2.92887e-07
1695.14	-1.82538e-07
1703.82	-3.42908e-07
1712.49	-3.16881e-07
1721.17	-2.53102e-07
1729.85	-1.73367e-07
1738.53	-9.09759e-08
1747.21	1.62641e-07
1755.88	1.89464e-07
1764.56	5.88141e-08
1773.24	7.9029e-07
1781.92	1.08538e-06
1790.6	4.74689e-07
1799.28	6.70437e-07
1807.95	2.37745e-07
1816.63	-6.39607e-07
1825.31	-7.63525e-07
1833.99	-8.63546e-07
1842.67	-7.29803e-07
1851.34	-4.19315e-07
1860.02	-5.52454e-08
1868.7	6.14934e-08
1877.38	3.86131e-07
1886.06	9.16682e-07
1894.74	7.81077e-07
1903.41	5.1397e-07
1912.09	7.27906e-07
1920.77	1.72772e-07
1929.45	-4.63132e-07
1938.13	-5.25302e-07
1946.8	-5.09079e-07
1955.48	-5.01793e-07
1964.16	-4.89482e-07
1972.84	-4.64558e-07
1981.52	-4.42748e-07
1990.19	-4.34624e-07
1998.87	-4.56271e-07
2007.55	-4.24579e-07
2016.23	-4.79517e-07
2024.91	-4.82916e-07
2033.59	-4.56759e-07
2042.26	-4.77825e-07
2050.94	-4.98897e-07
2059.62	-5.17297e-07
2068.3	-4.9384e-07
2076.98	-4.89662e-07
2085.65	-4.76857e-07
2094.33	-4.51404e-07
2103.01	-4.93224e-07
2111.69	-4.40563e-07
2120.37	-4.58867e-07
2129.05	-4.75832e-07
2137.72	-4.89477e-07
2146.4	-4.42526e-07
2155.08	-3.98086e-07
2163.76	-4.62737e-07
2172.44	-3.35896e-07
2181.11	-2.17315e-07
2189.79	1.8659e-07
2198.47	7.02245e-07
2207.15	1.25444e-06
2215.83	1.19998e-06
2224.51	1.5413e-07
2233.18	1.76057e-06
2241.86	1.60178e-06
2250.54	2.42621e-07
2259.22	-3.86862e-07
2267.9	-4.1456e-07
2276.57	-4.90847e-07
2285.25	-4.64212e-07
2293.93	-4.7376e-07
2302.61	-4.23893e-07
2311.29	-2.94827e-07
2319.97	-8.67433e-09
2328.64	4.88522e-07
2337.32	7.08927e-07
2346	2.52018e-07
2354.68	7.76592e-07
2363.36	1.48181e-06
2372.03	6.75572e-07
2380.71	-2.28452e-07
2389.39	-4.10038e-07
2398.07	-4.75264e-07
2406.75	-4.9085e-07
2415.43	-5.23974e-07
2424.1	-4.84224e-07
2432.78	-4.53359e-07
2441.46	-4.46367e-07
2450.14	-4.2752e-07
2458.82	-3.67394e-07
2467.49	-2.34911e-07
2476.17	2.20631e-07
2484.85	9.79247e-07
2493.53	1.62904e-06
2502.21	1.0221e-06
2510.89	-2.39767e-07
2519.56	-4.60977e-07
2528.24	-5.30078e-07
2536.92	-5.19281e-07
2545.6	-4.88584e-07
2554.28	-4.99024e-07
2562.95	-4.93458e-07
2571.63	-4.56508e-07
2580.31	-4.40134e-07
2588.99	-4.51764e-07
2597.67	-4.95492e-07
2606.35	-4.60877e-07
2615.02	-5.05778e-07
2623.7	-5.17619e-07
2632.38	-4.74798e-07
2641.06	-5.56207e-07
2649.74	-5.58792e-07
2658.41	-5.45455e-07
2667.09	-5.39267e-07
2675.77	-5.48909e-07
2684.45	-5.37934e-07
2693.13	-5.77619e-07
2701.81	-5.32601e-07
2710.48	-5.76646e-07
2719.16	-5.29846e-07
2727.84	-4.69465e-07
2736.52	-4.03459e-07
2745.2	-3.39927e-07
2753.87	-3.87422e-07
2762.55	-4.56928e-07
2771.23	-4.13294e-07
2779.91	-3.99258e-07
2788.59	-3.79735e-07
2797.27	-4.14353e-07
2805.94	-4.39741e-07
2814.62	-5.03713e-07
2823.3	-4.98055e-07
2831.98	-5.13163e-07
2840.66	-4.79297e-07
2849.33	-4.82843e-07
2858.01	-3.787e-07
2866.69	-3.04126e-07
2875.37	-2.27639e-07
2884.05	-1.81051e-07
2892.73	-9.72093e-08
2901.4	3.02301e-09
2910.08	-5.35375e-08
2918.76	-3.04537e-07
2927.44	-3.47073e-07
2936.12	-2.97892e-07
2944.79	-2.62442e-07
2953.47	-3.06261e-07
2962.15	-3.16832e-07
2970.83	-3.31136e-07
2979.51	-2.90769e-07
2988.19	-2.54273e-07
2996.86	-3.32993e-07
3005.54	-4.40001e-07
3014.22	-5.02156e-07
3022.9	-4.79253e-07
3031.58	-5.28718e-07
3040.25	-5.60811e-07
3048.93	-5.16659e-07
3057.61	-5.82967e-07
3066.29	-5.46117e-07
3074.97	-4.73034e-07
3083.65	-4.81177e-07
3092.32	-4.71564e-07
3101	-4.55411e-07
3109.68	-4.07845e-07
3118.36	-3.94054e-07
3127.04	-3.96882e-07
3135.71	-3.10084e-07
3144.39	-2.83547e-07
3153.07	-3.02956e-07
3161.75	-3.24357e-07
3170.43	-3.11896e-07
3179.11	-3.48174e-07
3187.78	-3.30807e-07
3196.46	-3.76285e-07
3205.14	-4.25304e-07
3213.82	-2.78806e-07
3222.5	-3.13429e-07
3231.17	-3.23071e-07
3239.85	-3.75121e-07
3248.53	-2.92998e-07
3257.21	-2.28736e-07
3265.89	-2.50703e-07
3274.57	-2.54968e-07
3283.24	-2.65621e-07
3291.92	-3.33746e-07
3300.6	-3.18677e-07
3309.28	-2.93834e-07
3317.96	-3.05206e-07
3326.63	-3.19086e-07
3335.31	-3.82917e-07
3343.99	-2.60898e-07
3352.67	-3.79244e-07
3361.35	-4.15058e-07
3370.03	-3.86094e-07
3378.7	-3.87406e-07
3387.38	-3.78404e-07
3396.06	-3.63425e-07
3404.74	-4.3658e-07
3413.42	-3.80932e-07
3422.09	-4.52022e-07
3430.77	-3.78582e-07
3439.45	-4.16395e-07
3448.13	-3.80994e-07
3456.81	-3.4821e-07
3465.49	-4.12527e-07
3474.16	-4.39641e-07
3482.84	-3.7886e-07
3491.52	-3.80347e-07
3500.2	-3.91711e-07
3508.88	-5.16489e-07
3517.55	-5.46971e-07
3526.23	-5.42531e-07
3534.91	-4.55865e-07
3543.59	-4.76335e-07
3552.27	-5.58888e-07
3560.95	-4.8027e-07
3569.62	-4.18618e-07
3578.3	-3.76065e-07
3586.98	-3.23513e-07
3595.66	-3.64604e-07
3604.34	-4.67859e-07
3613.01	-4.20948e-07
3621.69	-4.6843e-07
3630.37	-3.9092e-07
3639.05	-4.09722e-07
3647.73	-4.62012e-07
3656.41	-4.78232e-07
3665.08	-6.20127e-07
3673.76	-4.82227e-07
3682.44	-4.97433e-07
3691.12	-5.05851e-07
3699.8	-5.9747e-07
3708.47	-4.47915e-07
3717.15	-5.57051e-07
3725.83	-4.80473e-07
3734.51	-4.31452e-07
3743.19	-4.74968e-07
3751.87	-3.16214e-07
3760.54	-5.7442e-07
3769.22	-5.22148e-07
3777.9	-5.58357e-07
3786.58	-5.91821e-07
3795.26	-5.47871e-07
3803.93	-5.18061e-07
3812.61	-5.97296e-07
3821.29	-3.94516e-07
3829.97	-5.46476e-07
3838.65	-4.7189e-07
3847.33	-5.66671e-07
3856	-5.55845e-07
3864.68	-5.97951e-07
3873.36	-6.58358e-07
3882.04	-6.68498e-07
3890.72	-5.9651e-07
3899.39	-6.14777e-07
3908.07	-7.22618e-07
3916.75	-6.48722e-07
3925.43	-6.12906e-07
3934.11	-6.42603e-07
3942.79	-5.82315e-07
3951.46	-5.64794e-07
3960.14	-5.53688e-07
3968.82	-6.37072e-07
