Infrared Spectrum: Tetrachloroethene
Formula: C2 Cl4
CAS: 127-18-4
State: gas
Melting point: -19 C
Boiling point: 121 C
Class: IUPAC A
Instrument: IFS66V (Bruker)
Instrument parameters: KBr Beam Splitter; MCT Detector; Multipass cell
Sampling: 1 L/min Flow
Resolution: 0.9640
Temperature: 23 C
Pressure: 101.3 Pa
Origin: NIST, Analytical Chemistry Division, 301-975-3108
cm-1	(micromol/mol)-1m-1 (base 10)
575.17	5.80982e-07
583.848	3.01937e-08
592.526	3.76983e-07
601.205	-1.98151e-07
609.883	1.01798e-07
618.561	2.43969e-08
627.239	-1.59685e-07
635.917	-4.28722e-07
644.595	-2.50246e-07
653.274	-7.79253e-08
661.952	-1.6526e-07
670.63	-1.74043e-07
679.308	5.17011e-07
687.986	9.95668e-07
696.664	6.22591e-07
705.343	-3.09891e-07
714.021	-3.2029e-07
722.699	-2.01436e-07
731.377	2.42636e-07
740.055	5.30521e-06
748.734	3.31522e-05
757.412	5.29955e-05
766.09	4.98918e-05
774.768	0.000289074
783.446	0.000343407
792.124	9.69925e-05
800.803	0.000193543
809.481	0.000137148
818.159	1.16946e-05
826.837	8.54792e-06
835.515	3.75195e-06
844.194	2.7258e-08
852.872	8.06428e-08
861.55	1.89229e-07
870.228	2.48365e-07
878.906	1.31026e-06
887.584	9.91175e-06
896.263	5.59529e-05
904.941	0.000378721
913.619	0.00137882
922.297	0.00132199
930.975	0.000105777
939.653	1.75757e-06
948.332	9.18981e-08
957.01	1.14809e-08
965.688	3.75275e-08
974.366	5.72226e-09
983.044	9.05199e-07
991.723	1.1384e-06
1000.4	5.57238e-08
1009.08	3.12649e-07
1017.76	-1.79525e-09
1026.44	-3.31782e-07
1035.11	-2.19134e-07
1043.79	-2.21913e-07
1052.47	-2.39387e-07
1061.15	-1.39193e-07
1069.83	-1.80437e-07
1078.5	2.45155e-07
1087.18	2.31992e-06
1095.86	6.12021e-06
1104.54	5.65365e-06
1113.22	6.12928e-06
1121.9	1.06568e-05
1130.57	8.47521e-06
1139.25	5.57551e-06
1147.93	7.17441e-06
1156.61	4.84351e-06
1165.29	1.844e-06
1173.96	2.24484e-06
1182.64	1.60029e-06
1191.32	2.38019e-07
1200	1.60058e-07
1208.68	6.3476e-08
1217.36	4.16645e-07
1226.03	9.75291e-07
1234.71	7.78369e-07
1243.39	5.9278e-07
1252.07	1.53213e-06
1260.75	2.02243e-06
1269.42	1.2548e-06
1278.1	2.4886e-07
1286.78	-4.63765e-08
1295.46	4.15526e-07
1304.14	3.31391e-07
1312.82	-2.24223e-07
1321.49	-3.50511e-07
1330.17	-2.37288e-07
1338.85	3.00471e-07
1347.53	1.99088e-06
1356.21	5.93189e-06
1364.88	6.4993e-06
1373.56	2.5544e-06
1382.24	4.14733e-07
1390.92	2.88276e-07
1399.6	1.45499e-07
1408.28	-5.41377e-08
1416.95	-2.07058e-07
1425.63	-3.19499e-07
1434.31	-3.2351e-07
1442.99	-3.24719e-07
1451.67	-2.95253e-07
1460.34	-2.81169e-07
1469.02	-2.99949e-07
1477.7	-1.65418e-07
1486.38	-1.55287e-07
1495.06	-2.87443e-07
1503.73	-3.40816e-07
1512.41	-2.61947e-07
1521.09	4.57526e-08
1529.77	-2.7391e-07
1538.45	8.15395e-08
1547.13	-1.01333e-07
1555.8	-1.59336e-08
1564.48	1.79096e-07
1573.16	2.21269e-07
1581.84	1.64421e-07
1590.52	1.516e-07
1599.19	5.04563e-09
1607.87	-2.52185e-07
1616.55	1.18056e-07
1625.23	-3.57234e-07
1633.91	-3.10888e-07
1642.59	-3.03722e-07
1651.26	-2.67467e-07
1659.94	-3.99341e-07
1668.62	-2.81693e-07
1677.3	-3.35889e-07
1685.98	-2.88241e-07
1694.65	-3.88039e-07
1703.33	-3.98868e-07
1712.01	-3.61279e-07
1720.69	-2.54659e-07
1729.37	-2.03053e-07
1738.05	-1.54956e-07
1746.72	1.54632e-07
1755.4	1.56451e-07
1764.08	5.00798e-08
1772.76	9.1612e-07
1781.44	1.09591e-06
1790.11	5.20589e-07
1798.79	6.78984e-07
1807.47	3.20901e-07
1816.15	-6.47479e-07
1824.83	-7.52986e-07
1833.51	-9.10785e-07
1842.18	-7.91427e-07
1850.86	-4.64121e-07
1859.54	-8.49263e-08
1868.22	5.46252e-08
1876.9	3.42319e-07
1885.57	8.9229e-07
1894.25	8.69291e-07
1902.93	5.14048e-07
1911.61	7.44183e-07
1920.29	2.10674e-07
1928.97	-4.6608e-07
1937.64	-5.44588e-07
1946.32	-5.40046e-07
1955	-4.90701e-07
1963.68	-4.75371e-07
1972.36	-4.76414e-07
1981.03	-4.22443e-07
1989.71	-4.19231e-07
1998.39	-4.53996e-07
2007.07	-4.10482e-07
2015.75	-4.85377e-07
2024.43	-4.84493e-07
2033.1	-4.43824e-07
2041.78	-4.67465e-07
2050.46	-5.06669e-07
2059.14	-5.41901e-07
2067.82	-5.23487e-07
2076.49	-4.6739e-07
2085.17	-4.9208e-07
2093.85	-4.68849e-07
2102.53	-5.03246e-07
2111.21	-4.26967e-07
2119.89	-4.17963e-07
2128.56	-4.87713e-07
2137.24	-5.01345e-07
2145.92	-4.45225e-07
2154.6	-3.82611e-07
2163.28	-4.85395e-07
2171.95	-4.09036e-07
2180.63	-2.406e-07
2189.31	1.91936e-07
2197.99	6.29567e-07
2206.67	1.36346e-06
2215.35	1.28584e-06
2224.02	-2.72126e-08
2232.7	1.7454e-06
2241.38	1.70127e-06
2250.06	2.83272e-07
2258.74	-3.76598e-07
2267.41	-4.45529e-07
2276.09	-5.04417e-07
2284.77	-4.64291e-07
2293.45	-4.86912e-07
2302.13	-4.64907e-07
2310.81	-2.62467e-07
2319.48	9.87444e-08
2328.16	3.27662e-07
2336.84	-6.0442e-09
2345.52	1.81754e-07
2354.2	9.14039e-07
2362.87	2.01876e-06
2371.55	8.34257e-07
2380.23	-2.35162e-07
2388.91	-4.32529e-07
2397.59	-4.70531e-07
2406.27	-5.05198e-07
2414.94	-5.12726e-07
2423.62	-4.85881e-07
2432.3	-4.51218e-07
2440.98	-4.99428e-07
2449.66	-4.13809e-07
2458.33	-3.87267e-07
2467.01	-2.78505e-07
2475.69	1.7162e-07
2484.37	9.25376e-07
2493.05	1.65367e-06
2501.73	1.11761e-06
2510.4	-2.3277e-07
2519.08	-4.61148e-07
2527.76	-5.3916e-07
2536.44	-5.58879e-07
2545.12	-4.72748e-07
2553.79	-5.15856e-07
2562.47	-5.02371e-07
2571.15	-4.54305e-07
2579.83	-3.98545e-07
2588.51	-4.35612e-07
2597.19	-4.96627e-07
2605.86	-4.54339e-07
2614.54	-5.28805e-07
2623.22	-5.24973e-07
2631.9	-4.87749e-07
2640.58	-5.60094e-07
2649.25	-5.6736e-07
2657.93	-5.42907e-07
2666.61	-5.58721e-07
2675.29	-5.53084e-07
2683.97	-5.60978e-07
2692.65	-6.0358e-07
2701.32	-5.50996e-07
2710	-6.00914e-07
2718.68	-5.05994e-07
2727.36	-4.68383e-07
2736.04	-3.54787e-07
2744.71	-3.42097e-07
2753.39	-4.01298e-07
2762.07	-4.23098e-07
2770.75	-4.23891e-07
2779.43	-4.29533e-07
2788.11	-3.75166e-07
2796.78	-4.11963e-07
2805.46	-4.38655e-07
2814.14	-4.92522e-07
2822.82	-4.62299e-07
2831.5	-4.9808e-07
2840.17	-4.47173e-07
2848.85	-4.99566e-07
2857.53	-4.23529e-07
2866.21	-3.17798e-07
2874.89	-2.20785e-07
2883.57	-1.63186e-07
2892.24	-5.21806e-08
2900.92	3.11086e-08
2909.6	-5.25589e-08
2918.28	-3.44794e-07
2926.96	-3.40669e-07
2935.63	-3.20961e-07
2944.31	-2.31933e-07
2952.99	-2.94633e-07
2961.67	-5.02211e-07
2970.35	-3.68145e-07
2979.03	-3.29919e-07
2987.7	-2.37234e-07
2996.38	-3.20019e-07
3005.06	-4.46616e-07
3013.74	-4.8702e-07
3022.42	-4.47602e-07
3031.09	-5.25577e-07
3039.77	-5.92012e-07
3048.45	-5.18239e-07
3057.13	-5.58137e-07
3065.81	-5.4473e-07
3074.49	-4.62779e-07
3083.16	-4.89813e-07
3091.84	-4.88145e-07
3100.52	-5.39375e-07
3109.2	-4.40605e-07
3117.88	-4.53101e-07
3126.55	-4.18936e-07
3135.23	-3.39238e-07
3143.91	-3.16007e-07
3152.59	-2.94738e-07
3161.27	-3.02647e-07
3169.95	-3.01133e-07
3178.62	-3.47614e-07
3187.3	-2.99327e-07
3195.98	-4.12714e-07
3204.66	-4.33562e-07
3213.34	-2.09297e-07
3222.01	-3.5165e-07
3230.69	-3.4731e-07
3239.37	-3.81367e-07
3248.05	-3.50633e-07
3256.73	-2.05656e-07
3265.41	-2.34051e-07
3274.08	-2.36961e-07
3282.76	-2.61929e-07
3291.44	-3.4181e-07
3300.12	-2.95078e-07
3308.8	-2.58055e-07
3317.47	-2.87675e-07
3326.15	-3.32675e-07
3334.83	-4.1143e-07
3343.51	-2.41082e-07
3352.19	-3.71338e-07
3360.86	-4.44972e-07
3369.54	-3.77325e-07
3378.22	-4.01784e-07
3386.9	-3.30114e-07
3395.58	-4.02459e-07
3404.26	-3.93943e-07
3412.93	-4.0271e-07
3421.61	-4.51356e-07
3430.29	-4.01786e-07
3438.97	-4.02113e-07
3447.65	-4.37584e-07
3456.32	-2.08299e-07
3465	-4.07423e-07
3473.68	-3.9532e-07
3482.36	-4.00093e-07
3491.04	-3.5816e-07
3499.72	-4.11433e-07
3508.39	-4.8201e-07
3517.07	-5.99193e-07
3525.75	-5.60763e-07
3534.43	-4.86183e-07
3543.11	-5.33278e-07
3551.78	-5.66991e-07
3560.46	-5.13596e-07
3569.14	-4.60531e-07
3577.82	-4.17016e-07
3586.5	-2.28719e-07
3595.18	-3.71994e-07
3603.85	-5.17903e-07
3612.53	-3.66878e-07
3621.21	-4.66788e-07
3629.89	-2.92217e-07
3638.57	-3.9349e-07
3647.24	-4.35239e-07
3655.92	-4.94584e-07
3664.6	-6.31618e-07
3673.28	-5.17706e-07
3681.96	-5.18388e-07
3690.64	-5.45286e-07
3699.31	-6.33752e-07
3707.99	-5.15018e-07
3716.67	-5.93389e-07
3725.35	-4.91814e-07
3734.03	-5.10016e-07
3742.7	-5.75764e-07
3751.38	-4.58781e-07
3760.06	-5.63683e-07
3768.74	-6.03187e-07
3777.42	-5.26863e-07
3786.1	-5.75373e-07
3794.77	-5.11478e-07
3803.45	-5.44508e-07
3812.13	-5.94657e-07
3820.81	-3.88144e-07
3829.49	-5.86994e-07
3838.16	-2.51703e-07
3846.84	-6.00723e-07
3855.52	-5.43129e-07
3864.2	-7.19619e-07
3872.88	-6.96248e-07
3881.56	-6.79867e-07
3890.23	-6.93974e-07
3898.91	-6.41593e-07
3907.59	-7.17143e-07
3916.27	-6.76989e-07
3924.95	-6.39305e-07
3933.62	-6.43922e-07
3942.3	-5.7518e-07
3950.98	-5.19545e-07
3959.66	-5.46825e-07
3968.34	-6.47517e-07
