Infrared Spectrum: Tetrachloroethene
Formula: C2 Cl4
CAS: 127-18-4
State: gas
Melting point: -19 C
Boiling point: 121 C
Class: IUPAC A
Instrument: IFS66V (Bruker)
Instrument parameters: KBr Beam Splitter; MCT Detector; Multipass cell
Sampling: 1 L/min Flow
Resolution: 0.4820
Temperature: 23 C
Pressure: 101.3 Pa
Origin: NIST, Analytical Chemistry Division, 301-975-3108
cm-1	(micromol/mol)-1m-1 (base 10)
575.17	7.20135e-07
583.848	2.54639e-07
592.526	6.13637e-07
601.205	-1.38611e-07
609.883	2.74015e-07
618.561	-1.76979e-08
627.239	-1.83181e-07
635.917	-3.75157e-07
644.595	-8.61304e-08
653.274	-7.47095e-08
661.952	-1.65172e-07
670.63	-2.17249e-07
679.308	6.09141e-07
687.986	8.68816e-07
696.664	7.15495e-07
705.343	-3.26689e-07
714.021	-3.42723e-07
722.699	-1.83838e-07
731.377	2.54884e-07
740.055	5.28116e-06
748.734	3.33755e-05
757.412	5.40353e-05
766.09	4.97415e-05
774.768	0.000289645
783.446	0.000338269
792.124	9.62896e-05
800.803	0.000195288
809.481	0.000137448
818.159	1.15446e-05
826.837	8.49348e-06
835.515	3.7771e-06
844.193	2.53918e-09
852.872	8.10866e-08
861.55	1.44684e-07
870.228	1.87683e-07
878.906	1.36618e-06
887.584	9.94635e-06
896.263	5.58623e-05
904.941	0.000378168
913.619	0.00138023
922.297	0.00132758
930.975	0.000104863
939.653	1.73017e-06
948.332	9.91846e-08
957.01	1.01476e-08
965.688	6.53731e-08
974.366	-1.87801e-08
983.044	8.6909e-07
991.723	1.15076e-06
1000.4	6.12042e-08
1009.08	3.05564e-07
1017.76	-5.08019e-09
1026.44	-3.44969e-07
1035.11	-2.15723e-07
1043.79	-2.29098e-07
1052.47	-2.85129e-07
1061.15	-1.60904e-07
1069.83	-1.74962e-07
1078.5	2.13508e-07
1087.18	2.27923e-06
1095.86	6.17656e-06
1104.54	5.58167e-06
1113.22	6.09031e-06
1121.9	1.06697e-05
1130.57	8.4464e-06
1139.25	5.56981e-06
1147.93	7.12539e-06
1156.61	4.83451e-06
1165.29	1.80669e-06
1173.96	2.23869e-06
1182.64	1.65031e-06
1191.32	2.72646e-07
1200	1.47318e-07
1208.68	5.50254e-08
1217.36	4.01335e-07
1226.03	9.46308e-07
1234.71	7.99161e-07
1243.39	5.55623e-07
1252.07	1.5481e-06
1260.75	1.97847e-06
1269.42	1.27515e-06
1278.1	3.10937e-07
1286.78	-3.88717e-08
1295.46	5.54406e-07
1304.14	3.36398e-07
1312.82	-2.14261e-07
1321.49	-3.38372e-07
1330.17	-2.23283e-07
1338.85	3.20179e-07
1347.53	1.99659e-06
1356.21	5.88309e-06
1364.88	6.55401e-06
1373.56	2.54537e-06
1382.24	4.08218e-07
1390.92	2.82464e-07
1399.6	1.13268e-07
1408.28	-8.6345e-08
1416.95	-2.29905e-07
1425.63	-3.23013e-07
1434.31	-3.16258e-07
1442.99	-3.45458e-07
1451.67	-2.82317e-07
1460.34	-2.45444e-07
1469.02	-3.17331e-07
1477.7	-1.68457e-07
1486.38	-1.60669e-07
1495.06	-2.80167e-07
1503.73	-3.36667e-07
1512.41	-1.89802e-07
1521.09	2.03184e-07
1529.77	-2.61598e-07
1538.45	-2.96717e-08
1547.13	-1.15451e-07
1555.8	-1.29124e-08
1564.48	1.59045e-07
1573.16	2.25533e-07
1581.84	1.44444e-07
1590.52	1.7526e-07
1599.19	1.18956e-09
1607.87	-2.53264e-07
1616.55	3.08234e-07
1625.23	-3.5629e-07
1633.91	-3.05504e-07
1642.59	-2.85716e-07
1651.26	-2.61578e-07
1659.94	-4.00835e-07
1668.62	-2.96899e-07
1677.3	-3.19883e-07
1685.98	-3.05548e-07
1694.65	-4.15304e-07
1703.33	-3.85389e-07
1712.01	-3.64322e-07
1720.69	-2.44642e-07
1729.37	-1.97754e-07
1738.05	-1.58441e-07
1746.72	1.32663e-07
1755.4	1.45587e-07
1764.08	6.17735e-08
1772.76	1.10513e-06
1781.44	1.09899e-06
1790.11	5.26528e-07
1798.79	6.59773e-07
1807.47	3.34459e-07
1816.15	-6.85505e-07
1824.83	-7.85914e-07
1833.51	-9.66407e-07
1842.18	-8.18892e-07
1850.86	-4.63874e-07
1859.54	-5.63168e-08
1868.22	3.39825e-08
1876.9	3.69482e-07
1885.57	8.9511e-07
1894.25	8.94231e-07
1902.93	5.1066e-07
1911.61	7.457e-07
1920.29	1.82296e-07
1928.97	-4.11746e-07
1937.64	-5.55359e-07
1946.32	-5.44731e-07
1955	-4.89042e-07
1963.68	-4.6341e-07
1972.36	-4.57954e-07
1981.03	-4.11686e-07
1989.71	-3.9715e-07
1998.39	-4.29224e-07
2007.07	-4.22949e-07
2015.75	-4.85413e-07
2024.43	-4.74171e-07
2033.1	-4.2171e-07
2041.78	-4.81848e-07
2050.46	-5.17901e-07
2059.14	-5.35799e-07
2067.82	-5.20236e-07
2076.49	-4.609e-07
2085.17	-4.94544e-07
2093.85	-4.78793e-07
2102.53	-5.17122e-07
2111.21	-4.49428e-07
2119.89	-4.09082e-07
2128.56	-5.18799e-07
2137.24	-4.97149e-07
2145.92	-4.22409e-07
2154.6	-3.46008e-07
2163.28	-4.8921e-07
2171.95	-4.26212e-07
2180.63	-2.36899e-07
2189.31	4.89817e-07
2197.99	5.29867e-07
2206.67	2.27157e-06
2215.35	9.86018e-07
2224.02	-6.12933e-08
2232.7	1.73936e-06
2241.38	1.33067e-06
2250.06	2.84632e-07
2258.74	-3.627e-07
2267.41	-4.42957e-07
2276.09	-5.43238e-07
2284.77	-4.7109e-07
2293.45	-4.95334e-07
2302.13	-5.12642e-07
2310.81	-3.13997e-07
2319.48	-7.71577e-09
2328.16	-1.58297e-07
2336.84	-2.29058e-07
2345.52	-1.85437e-08
2354.2	1.06674e-06
2362.87	3.2129e-06
2371.55	1.20704e-06
2380.23	-3.12114e-07
2388.91	-4.25675e-07
2397.59	-4.6755e-07
2406.27	-5.10954e-07
2414.94	-4.9784e-07
2423.62	-4.9608e-07
2432.3	-4.59996e-07
2440.98	-5.04818e-07
2449.66	-4.05191e-07
2458.33	-4.15109e-07
2467.01	-2.49106e-07
2475.69	1.69036e-07
2484.37	9.17848e-07
2493.05	1.65358e-06
2501.73	1.08265e-06
2510.4	-2.46577e-07
2519.08	-4.45496e-07
2527.76	-5.44026e-07
2536.44	-6.00561e-07
2545.12	-4.4094e-07
2553.79	-4.89362e-07
2562.47	-4.96403e-07
2571.15	-4.64232e-07
2579.83	-3.73824e-07
2588.51	-4.51145e-07
2597.19	-5.22041e-07
2605.86	-4.45379e-07
2614.54	-5.51445e-07
2623.22	-5.30164e-07
2631.9	-5.18898e-07
2640.58	-5.64388e-07
2649.25	-5.86177e-07
2657.93	-5.42098e-07
2666.61	-5.68637e-07
2675.29	-5.46265e-07
2683.97	-5.55825e-07
2692.65	-6.27926e-07
2701.32	-5.41434e-07
2710	-6.39423e-07
2718.68	-4.91641e-07
2727.36	-4.66215e-07
2736.04	-3.36666e-07
2744.71	-3.51233e-07
2753.39	-4.33015e-07
2762.07	-3.88855e-07
2770.75	-4.42915e-07
2779.43	-4.10617e-07
2788.11	-3.62176e-07
2796.78	-3.88317e-07
2805.46	-4.20613e-07
2814.14	-4.70466e-07
2822.82	-4.18634e-07
2831.5	-4.84437e-07
2840.17	-4.18387e-07
2848.85	-4.9485e-07
2857.53	-4.49146e-07
2866.21	-3.41799e-07
2874.89	-2.20161e-07
2883.57	-1.27823e-07
2892.24	-1.53115e-08
2900.92	2.98027e-08
2909.6	-8.05973e-08
2918.28	-3.81078e-07
2926.96	-3.32397e-07
2935.63	-3.07447e-07
2944.31	-2.07315e-07
2952.99	-2.69634e-07
2961.67	-5.71731e-07
2970.35	-3.9068e-07
2979.03	-3.12614e-07
2987.7	-2.4458e-07
2996.38	-3.12745e-07
3005.06	-4.53716e-07
3013.74	-4.70313e-07
3022.42	-4.11675e-07
3031.09	-5.11286e-07
3039.77	-6.41351e-07
3048.45	-5.24518e-07
3057.13	-5.4481e-07
3065.81	-5.79207e-07
3074.49	-4.7267e-07
3083.16	-4.73087e-07
3091.84	-4.70131e-07
3100.52	-5.89987e-07
3109.2	-4.45847e-07
3117.88	-4.8342e-07
3126.55	-4.16477e-07
3135.23	-3.52501e-07
3143.91	-3.55986e-07
3152.59	-2.77093e-07
3161.27	-3.01765e-07
3169.95	-2.42901e-07
3178.62	-2.96168e-07
3187.3	-2.78119e-07
3195.98	-4.21055e-07
3204.66	-4.184e-07
3213.34	-1.85948e-07
3222.01	-3.47004e-07
3230.69	-3.43887e-07
3239.37	-3.4777e-07
3248.05	-4.16092e-07
3256.73	-1.53581e-07
3265.4	-2.36348e-07
3274.08	-2.34171e-07
3282.76	-2.30684e-07
3291.44	-3.23095e-07
3300.12	-2.91188e-07
3308.8	-2.75649e-07
3317.47	-2.46639e-07
3326.15	-3.15579e-07
3334.83	-4.37884e-07
3343.51	-2.64015e-07
3352.19	-4.134e-07
3360.86	-4.97715e-07
3369.54	-3.79011e-07
3378.22	-4.35357e-07
3386.9	-3.41306e-07
3395.58	-4.16977e-07
3404.26	-3.36738e-07
3412.93	-3.94152e-07
3421.61	-4.36556e-07
3430.29	-4.14489e-07
3438.97	-3.69839e-07
3447.65	-4.12676e-07
3456.32	-1.60472e-07
3465	-4.01393e-07
3473.68	-3.85278e-07
3482.36	-4.44417e-07
3491.04	-3.28435e-07
3499.72	-4.13954e-07
3508.39	-4.50472e-07
3517.07	-6.39383e-07
3525.75	-5.54188e-07
3534.43	-4.97746e-07
3543.11	-6.00039e-07
3551.78	-5.59321e-07
3560.46	-5.86442e-07
3569.14	-4.82247e-07
3577.82	-4.20783e-07
3586.5	-9.89845e-08
3595.18	-4.00858e-07
3603.85	-5.70862e-07
3612.53	-2.89378e-07
3621.21	-4.29366e-07
3629.89	-3.00542e-07
3638.57	-4.04231e-07
3647.24	-4.38166e-07
3655.92	-5.69898e-07
3664.6	-6.35178e-07
3673.28	-5.1696e-07
3681.96	-4.56702e-07
3690.64	-5.20567e-07
3699.31	-6.30109e-07
3707.99	-5.54639e-07
3716.67	-5.94595e-07
3725.35	-5.52174e-07
3734.03	-5.01203e-07
3742.7	-5.79971e-07
3751.38	-4.59112e-07
3760.06	-4.94122e-07
3768.74	-5.8862e-07
3777.42	-5.13445e-07
3786.1	-5.77441e-07
3794.77	-4.32736e-07
3803.45	-5.44366e-07
3812.13	-5.93947e-07
3820.81	-3.06477e-07
3829.49	-6.25229e-07
3838.16	-3.00926e-07
3846.84	-6.24579e-07
3855.52	-5.46325e-07
3864.2	-7.50318e-07
3872.88	-7.11232e-07
3881.56	-7.07925e-07
3890.23	-6.94596e-07
3898.91	-6.97395e-07
3907.59	-6.88021e-07
3916.27	-5.93734e-07
3924.95	-6.27468e-07
3933.62	-6.44822e-07
3942.3	-5.8615e-07
3950.98	-5.17153e-07
3959.66	-6.14868e-07
3968.34	-5.96728e-07
