Infrared Spectrum: Tetrachloroethene
Formula: C2 Cl4
CAS: 127-18-4
State: gas
Melting point: -19 C
Boiling point: 121 C
Class: IUPAC A
Instrument: IFS66V (Bruker)
Instrument parameters: KBr Beam Splitter; MCT Detector; Multipass cell
Sampling: 1 L/min Flow
Resolution: 0.2410
Temperature: 23 C
Pressure: 101.3 Pa
Origin: NIST, Analytical Chemistry Division, 301-975-3108
cm-1	(micromol/mol)-1m-1 (base 10)
575.05	-3.22373e-07
583.608	8.99703e-07
592.165	1.73223e-07
600.723	-4.31449e-07
609.281	-2.08435e-07
617.838	-1.94662e-07
626.396	-1.94551e-07
634.954	-4.92653e-07
643.511	-3.57839e-07
652.069	-1.27032e-08
660.626	-1.45512e-10
669.184	5.41832e-08
677.742	4.0024e-07
686.299	7.89544e-07
694.857	5.61802e-07
703.415	-1.52013e-07
711.972	-4.65065e-07
720.53	-1.47666e-07
729.088	3.2975e-07
737.645	2.13168e-06
746.203	2.25635e-05
754.761	5.18128e-05
763.318	4.16223e-05
771.876	0.000171893
780.434	0.000347974
788.991	0.000211973
797.549	0.000162631
806.106	0.000179136
814.664	3.49243e-05
823.222	8.9977e-06
831.779	7.44405e-06
840.337	2.90058e-07
848.895	2.27443e-07
857.452	5.04981e-08
866.01	1.12848e-07
874.568	4.60249e-07
883.125	3.21265e-06
891.683	2.46745e-05
900.241	0.000123027
908.798	0.00081227
917.356	0.00143206
925.914	0.000771649
934.471	1.99673e-05
943.029	4.33233e-07
951.586	2.59393e-08
960.144	-1.9452e-07
968.702	-1.45043e-07
977.259	2.02618e-07
985.817	9.99184e-07
994.375	7.54716e-07
1002.93	1.06169e-07
1011.49	2.80061e-07
1020.05	-1.83774e-07
1028.61	-3.45382e-07
1037.16	-2.02655e-07
1045.72	-3.22553e-07
1054.28	4.59581e-08
1062.84	-1.77114e-07
1071.39	-7.47077e-08
1079.95	3.49525e-07
1088.51	2.81656e-06
1097.07	7.14071e-06
1105.62	5.31276e-06
1114.18	6.34836e-06
1122.74	1.07721e-05
1131.3	8.24081e-06
1139.85	5.74079e-06
1148.41	7.11793e-06
1156.97	4.55949e-06
1165.53	1.84697e-06
1174.09	2.21481e-06
1182.64	1.6794e-06
1191.2	3.0962e-07
1199.76	2.14958e-07
1208.32	9.5063e-08
1216.87	3.89012e-07
1225.43	1.058e-06
1233.99	9.65463e-07
1242.55	6.15046e-07
1251.1	1.38343e-06
1259.66	1.90616e-06
1268.22	1.61001e-06
1276.78	2.71709e-07
1285.33	-8.19014e-08
1293.89	7.32778e-07
1302.45	7.277e-07
1311.01	-7.39547e-08
1319.57	-1.43879e-07
1328.12	-2.25222e-07
1336.68	1.5576e-07
1345.24	1.45356e-06
1353.8	4.79733e-06
1362.35	6.555e-06
1370.91	3.93556e-06
1379.47	5.20174e-07
1388.03	3.59684e-07
1396.58	2.55146e-07
1405.14	1.5057e-07
1413.7	-1.91325e-07
1422.26	-3.45489e-07
1430.81	-2.98927e-07
1439.37	-3.80136e-07
1447.93	-1.36021e-07
1456.49	1.26563e-07
1465.05	-6.72775e-08
1473.6	2.67587e-07
1482.16	-1.04092e-07
1490.72	-1.4246e-07
1499.28	-3.59875e-07
1507.83	-3.76298e-07
1516.39	-3.09164e-07
1524.95	-3.69069e-07
1533.51	-1.51316e-07
1542.06	5.18607e-07
1550.62	3.19581e-08
1559.18	1.53108e-07
1567.74	2.04739e-07
1576.29	1.17055e-06
1584.85	6.10659e-08
1593.41	8.37622e-08
1601.97	1.20629e-08
1610.53	-2.9235e-07
1619.08	-2.60834e-07
1627.64	-2.61676e-07
1636.2	-2.38662e-07
1644.76	-3.47381e-07
1653.31	9.88829e-07
1661.87	-2.93769e-07
1670.43	-3.137e-07
1678.99	-3.85736e-07
1687.54	-3.69751e-07
1696.1	2.44597e-07
1704.66	-2.87639e-07
1713.22	-2.96255e-07
1721.77	-2.70443e-07
1730.33	-1.60602e-07
1738.89	-4.31825e-08
1747.45	1.70485e-07
1756.01	1.80022e-07
1764.56	7.41929e-08
1773.12	7.60066e-07
1781.68	1.11339e-06
1790.24	4.83029e-07
1798.79	6.40653e-07
1807.35	3.76074e-07
1815.91	-6.13422e-07
1824.47	-7.86418e-07
1833.02	-8.68699e-07
1841.58	-8.28724e-07
1850.14	-5.09498e-07
1858.7	-2.44018e-07
1867.25	3.14033e-08
1875.81	3.89061e-07
1884.37	1.07523e-06
1892.93	8.98868e-07
1901.49	3.91122e-07
1910.04	6.49298e-07
1918.6	4.09325e-07
1927.16	-5.12741e-07
1935.72	-5.06882e-07
1944.27	-5.88216e-07
1952.83	-5.01733e-07
1961.39	-4.73094e-07
1969.95	-5.22675e-07
1978.5	-4.78151e-07
1987.06	-4.46618e-07
1995.62	-4.18123e-07
2004.18	-4.97389e-07
2012.73	-4.39763e-07
2021.29	-4.43883e-07
2029.85	-4.54871e-07
2038.41	-4.92755e-07
2046.97	-4.98102e-07
2055.52	-5.1293e-07
2064.08	-5.42054e-07
2072.64	-4.91143e-07
2081.2	-5.36019e-07
2089.75	-5.11631e-07
2098.31	-5.57142e-07
2106.87	-5.94322e-07
2115.43	-3.66819e-07
2123.98	-4.16866e-07
2132.54	-3.96711e-07
2141.1	-4.90588e-07
2149.66	-4.47446e-07
2158.21	-3.30847e-07
2166.77	-4.31278e-07
2175.33	-4.85468e-07
2183.89	3.71601e-09
2192.45	1.15937e-06
2201	6.00553e-07
2209.56	3.18243e-06
2218.12	2.86033e-07
2226.68	6.3998e-08
2235.23	1.05486e-06
2243.79	2.18782e-06
2252.35	-1.00816e-07
2260.91	-4.03352e-07
2269.46	-4.53066e-07
2278.02	-5.34198e-07
2286.58	-5.30004e-07
2295.14	-4.45791e-07
2303.69	-4.61931e-07
2312.25	-4.8553e-07
2320.81	2.28745e-08
2329.37	-2.11489e-07
2337.93	6.46519e-07
2346.48	-1.74065e-07
2355.04	3.73602e-09
2363.6	3.81854e-07
2372.16	1.47938e-07
2380.71	-1.29853e-07
2389.27	-4.29255e-07
2397.83	-4.62233e-07
2406.39	-4.78523e-07
2414.94	-4.97722e-07
2423.5	-4.92194e-07
2432.06	-4.72625e-07
2440.62	-5.22106e-07
2449.17	-3.92691e-07
2457.73	-3.71165e-07
2466.29	-2.39487e-07
2474.85	3.07976e-08
2483.41	8.90966e-07
2491.96	1.66437e-06
2500.52	1.20832e-06
2509.08	-1.00911e-07
2517.64	-4.76375e-07
2526.19	-6.09764e-07
2534.75	-5.42511e-07
2543.31	-4.59731e-07
2551.87	-4.54867e-07
2560.42	-5.7725e-07
2568.98	-4.20664e-07
2577.54	-4.88664e-07
2586.1	-3.93868e-07
2594.65	-4.87538e-07
2603.21	-4.77223e-07
2611.77	-4.91678e-07
2620.33	-5.47442e-07
2628.89	-4.95117e-07
2637.44	-5.36845e-07
2646	-5.30817e-07
2654.56	-6.00241e-07
2663.12	-6.61763e-07
2671.67	-4.8459e-07
2680.23	-5.5543e-07
2688.79	-4.64241e-07
2697.35	-5.93915e-07
2705.9	-5.86943e-07
2714.46	-6.90602e-07
2723.02	-6.03284e-07
2731.58	-4.66368e-07
2740.13	-4.96472e-07
2748.69	-2.84709e-07
2757.25	-4.99597e-07
2765.81	-5.30851e-07
2774.37	-2.8225e-07
2782.92	-3.75847e-07
2791.48	-3.65983e-07
2800.04	-4.6468e-07
2808.6	-5.84925e-07
2817.15	-5.55885e-07
2825.71	-4.57615e-07
2834.27	-5.87512e-07
2842.83	-4.37023e-07
2851.38	-5.11526e-07
2859.94	-4.83727e-07
2868.5	-3.25419e-07
2877.06	-2.83019e-07
2885.61	-1.76204e-07
2894.17	1.05514e-08
2902.73	1.84509e-08
2911.29	-1.14494e-07
2919.85	-3.6483e-07
2928.4	-4.9398e-07
2936.96	-2.91559e-07
2945.52	-3.83964e-07
2954.08	-3.01226e-07
2962.63	2.15958e-08
2971.19	-2.11274e-07
2979.75	-3.10108e-07
2988.31	-2.18161e-07
2996.86	-3.71319e-07
3005.42	-5.2946e-07
3013.98	-4.61613e-07
3022.54	-4.31014e-07
3031.09	-4.83776e-07
3039.65	-5.8478e-07
3048.21	-5.31297e-07
3056.77	-5.71638e-07
3065.33	-5.27234e-07
3073.88	-4.89257e-07
3082.44	-5.97212e-07
3091	-4.9238e-07
3099.56	-5.33884e-07
3108.11	-3.56161e-07
3116.67	-5.22088e-07
3125.23	-4.05325e-07
3133.79	-3.42632e-07
3142.34	-2.6224e-07
3150.9	-3.99703e-07
3159.46	-3.25254e-07
3168.02	-2.16582e-07
3176.57	-3.28601e-07
3185.13	-2.68559e-07
3193.69	-5.36164e-07
3202.25	-2.70139e-07
3210.81	-2.65909e-07
3219.36	-4.38038e-07
3227.92	-4.75091e-07
3236.48	-3.70706e-07
3245.04	-4.45831e-07
3253.59	-4.11181e-07
3262.15	-1.87174e-07
3270.71	-3.62339e-07
3279.27	-2.00459e-07
3287.82	-3.44567e-07
3296.38	-2.01983e-07
3304.94	-3.25889e-07
3313.5	-2.68441e-07
3322.05	-4.20552e-07
3330.61	-4.18704e-07
3339.17	-2.95062e-07
3347.73	-5.32112e-07
3356.29	-2.98472e-07
3364.84	-4.33062e-07
3373.4	-3.54655e-07
3381.96	-4.91778e-07
3390.52	-3.75808e-07
3399.07	-3.34205e-07
3407.63	-3.8365e-07
3416.19	-4.7323e-07
3424.75	-5.0521e-07
3433.3	-2.96179e-07
3441.86	-4.11077e-07
3450.42	-3.88541e-07
3458.98	-3.81158e-07
3467.53	-3.39072e-07
3476.09	-3.678e-07
3484.65	-4.58155e-07
3493.21	-4.05058e-07
3501.77	-4.43773e-07
3510.32	-6.93785e-07
3518.88	-6.13422e-07
3527.44	-4.12234e-07
3536	-4.31838e-07
3544.55	-3.77724e-07
3553.11	-5.38724e-07
3561.67	-4.38633e-07
3570.23	-4.20491e-07
3578.78	-2.70711e-07
3587.34	-4.30243e-07
3595.9	-2.5322e-07
3604.46	-4.04145e-07
3613.01	-5.18752e-07
3621.57	-5.55616e-07
3630.13	-5.04174e-07
3638.69	-3.86291e-07
3647.25	-4.78762e-07
3655.8	-6.48101e-07
3664.36	-6.44385e-07
3672.92	-5.2691e-07
3681.48	-6.76534e-07
3690.03	-7.24326e-07
3698.59	-6.67282e-07
3707.15	-5.29722e-07
3715.71	-4.90143e-07
3724.26	-4.07588e-07
3732.82	-6.48702e-07
3741.38	-4.24797e-07
3749.94	-5.0108e-07
3758.49	-4.65871e-07
3767.05	-4.62992e-07
3775.61	-5.64568e-07
3784.17	-6.24579e-07
3792.73	-6.93135e-07
3801.28	3.457e-08
3809.84	-4.51264e-07
3818.4	-5.79984e-07
3826.96	-5.57933e-07
3835.51	-6.35909e-07
3844.07	-6.61601e-07
3852.63	-4.7522e-07
3861.19	-5.38169e-07
3869.74	-5.20322e-07
3878.3	-6.8781e-07
3886.86	-6.60546e-07
3895.42	-5.54839e-07
3903.97	-3.89754e-07
3912.53	-7.15886e-07
3921.09	-7.51417e-07
3929.65	-7.0645e-07
3938.21	-6.7184e-07
3946.76	-6.57505e-07
3955.32	-5.69969e-07
3963.88	-6.80263e-07
3972.44	-5.88449e-07
