Infrared Spectrum: Tetrachloroethene
Formula: C2 Cl4
CAS: 127-18-4
State: gas
Melting point: -19 C
Boiling point: 121 C
Class: IUPAC A
Instrument: IFS66V (Bruker)
Instrument parameters: KBr Beam Splitter; MCT Detector; Multipass cell
Sampling: 1 L/min Flow
Resolution: 0.4820
Temperature: 23 C
Pressure: 101.3 Pa
Origin: NIST, Analytical Chemistry Division, 301-975-3108
cm-1	(micromol/mol)-1m-1 (base 10)
575.17	7.39456e-07
583.848	2.90871e-07
592.526	5.57149e-07
601.205	-1.08756e-07
609.883	2.7726e-07
618.561	1.07279e-08
627.239	-1.73061e-07
635.917	-3.3514e-07
644.595	-5.88323e-08
653.274	-4.86883e-08
661.952	-1.31605e-07
670.63	-1.56578e-07
679.308	6.49191e-07
687.986	9.2293e-07
696.664	7.59293e-07
705.343	-2.58397e-07
714.021	-2.50826e-07
722.699	-7.07588e-08
731.377	4.2233e-07
740.055	5.54926e-06
748.734	3.34634e-05
757.412	5.37432e-05
766.09	5.08992e-05
774.768	0.000287548
783.446	0.000337377
792.124	9.89418e-05
800.803	0.000193744
809.481	0.000136703
818.159	1.23468e-05
826.837	8.77831e-06
835.515	4.00682e-06
844.193	2.50599e-07
852.872	3.24144e-07
861.55	4.32214e-07
870.228	5.84986e-07
878.906	1.95157e-06
887.584	1.10049e-05
896.263	5.80218e-05
904.941	0.000380959
913.619	0.00136932
922.297	0.00131476
930.975	0.000110874
939.653	3.48169e-06
948.332	8.77848e-07
957.01	4.74666e-07
965.688	3.63103e-07
974.366	2.0419e-07
983.044	1.0254e-06
991.723	1.25854e-06
1000.4	1.76757e-07
1009.08	3.94652e-07
1017.76	6.00528e-08
1026.44	-2.7258e-07
1035.11	-1.65736e-07
1043.79	-1.85242e-07
1052.47	-2.32284e-07
1061.15	-1.26723e-07
1069.83	-1.28607e-07
1078.5	2.62866e-07
1087.18	2.32064e-06
1095.86	6.19547e-06
1104.54	5.66672e-06
1113.22	6.13647e-06
1121.9	1.06364e-05
1130.57	8.45433e-06
1139.25	5.61287e-06
1147.93	7.12011e-06
1156.61	4.8407e-06
1165.29	1.84994e-06
1173.96	2.24325e-06
1182.64	1.65589e-06
1191.32	2.912e-07
1200	1.6789e-07
1208.68	7.26741e-08
1217.36	4.17387e-07
1226.03	9.60034e-07
1234.71	8.14876e-07
1243.39	5.74947e-07
1252.07	1.54879e-06
1260.75	1.98126e-06
1269.42	1.28427e-06
1278.1	3.31589e-07
1286.78	-2.35384e-08
1295.46	5.66606e-07
1304.14	3.41389e-07
1312.82	-1.95772e-07
1321.49	-3.23852e-07
1330.17	-2.08779e-07
1338.85	3.37257e-07
1347.53	2.00546e-06
1356.21	5.84624e-06
1364.88	6.50135e-06
1373.56	2.55083e-06
1382.24	4.28053e-07
1390.92	2.93294e-07
1399.6	1.25257e-07
1408.28	-7.36254e-08
1416.95	-2.26129e-07
1425.63	-3.1937e-07
1434.31	-3.10912e-07
1442.99	-3.37326e-07
1451.67	-2.8339e-07
1460.34	-2.45764e-07
1469.02	-3.09855e-07
1477.7	-1.62899e-07
1486.38	-1.5568e-07
1495.06	-2.70632e-07
1503.73	-3.34094e-07
1512.41	-1.97083e-07
1521.09	1.69329e-07
1529.77	-2.57565e-07
1538.45	-1.65993e-08
1547.13	-1.05371e-07
1555.8	5.58039e-09
1564.48	1.59879e-07
1573.16	2.27333e-07
1581.84	1.54035e-07
1590.52	1.71997e-07
1599.19	2.49917e-09
1607.87	-2.51492e-07
1616.55	2.65874e-07
1625.23	-3.46942e-07
1633.91	-2.95071e-07
1642.59	-2.8305e-07
1651.26	-2.47343e-07
1659.94	-3.94263e-07
1668.62	-2.87725e-07
1677.3	-3.16272e-07
1685.98	-2.94549e-07
1694.65	-3.92331e-07
1703.33	-3.81509e-07
1712.01	-3.5424e-07
1720.69	-2.39929e-07
1729.37	-1.95264e-07
1738.05	-1.48819e-07
1746.72	1.32951e-07
1755.4	1.52369e-07
1764.08	6.26047e-08
1772.76	1.06948e-06
1781.44	1.09368e-06
1790.11	5.27617e-07
1798.79	6.58831e-07
1807.47	3.31575e-07
1816.15	-6.76851e-07
1824.83	-7.86702e-07
1833.51	-9.52762e-07
1842.18	-8.10686e-07
1850.86	-4.62053e-07
1859.54	-5.78738e-08
1868.22	3.68345e-08
1876.9	3.68211e-07
1885.57	8.97778e-07
1894.25	8.84804e-07
1902.93	5.07033e-07
1911.61	7.37251e-07
1920.29	1.80118e-07
1928.97	-4.10342e-07
1937.64	-5.48971e-07
1946.32	-5.38833e-07
1955	-4.90314e-07
1963.68	-4.67394e-07
1972.36	-4.57546e-07
1981.03	-4.15517e-07
1989.71	-3.99667e-07
1998.39	-4.2961e-07
2007.07	-4.24404e-07
2015.75	-4.80175e-07
2024.43	-4.79831e-07
2033.1	-4.24147e-07
2041.78	-4.83573e-07
2050.46	-5.11773e-07
2059.14	-5.33371e-07
2067.82	-5.14425e-07
2076.49	-4.66466e-07
2085.17	-4.90152e-07
2093.85	-4.79666e-07
2102.53	-5.13597e-07
2111.21	-4.52651e-07
2119.89	-4.16886e-07
2128.56	-5.13046e-07
2137.24	-4.93557e-07
2145.92	-4.25248e-07
2154.6	-3.5072e-07
2163.28	-4.79382e-07
2171.95	-4.13105e-07
2180.63	-2.30576e-07
2189.31	4.77583e-07
2197.99	5.7411e-07
2206.67	2.18192e-06
2215.35	9.66905e-07
2224.02	-3.23491e-08
2232.7	1.73328e-06
2241.38	1.26124e-06
2250.06	2.83314e-07
2258.74	-3.65493e-07
2267.41	-4.42718e-07
2276.09	-5.37432e-07
2284.77	-4.71828e-07
2293.45	-4.9437e-07
2302.13	-5.10211e-07
2310.81	-3.26338e-07
2319.48	-4.15837e-08
2328.16	-8.56756e-08
2336.84	-7.93295e-08
2345.52	-1.68976e-09
2354.2	1.02046e-06
2362.87	3.09006e-06
2371.55	1.17228e-06
2380.23	-3.0308e-07
2388.91	-4.21747e-07
2397.59	-4.67345e-07
2406.27	-5.07197e-07
2414.94	-4.95599e-07
2423.62	-4.92544e-07
2432.3	-4.58479e-07
2440.98	-4.92533e-07
2449.66	-4.06855e-07
2458.33	-4.1113e-07
2467.01	-2.40857e-07
2475.69	1.72015e-07
2484.37	9.16807e-07
2493.05	1.64329e-06
2501.73	1.07636e-06
2510.4	-2.35871e-07
2519.08	-4.42815e-07
2527.76	-5.42603e-07
2536.44	-5.92765e-07
2545.12	-4.42789e-07
2553.79	-4.85524e-07
2562.47	-4.90748e-07
2571.15	-4.58046e-07
2579.83	-3.81536e-07
2588.51	-4.5522e-07
2597.19	-5.17586e-07
2605.86	-4.47124e-07
2614.54	-5.48153e-07
2623.22	-5.30837e-07
2631.9	-5.17142e-07
2640.58	-5.61229e-07
2649.25	-5.84054e-07
2657.93	-5.41234e-07
2666.61	-5.67722e-07
2675.29	-5.46632e-07
2683.97	-5.52575e-07
2692.65	-6.20234e-07
2701.32	-5.42143e-07
2710	-6.24952e-07
2718.68	-4.95074e-07
2727.36	-4.69278e-07
2736.04	-3.47748e-07
2744.71	-3.51723e-07
2753.39	-4.2816e-07
2762.07	-3.9803e-07
2770.75	-4.42324e-07
2779.43	-4.08625e-07
2788.11	-3.7193e-07
2796.78	-3.91509e-07
2805.46	-4.18234e-07
2814.14	-4.71561e-07
2822.82	-4.21488e-07
2831.5	-4.88331e-07
2840.17	-4.21948e-07
2848.85	-4.93922e-07
2857.53	-4.43306e-07
2866.21	-3.38752e-07
2874.89	-2.27684e-07
2883.57	-1.32487e-07
2892.24	-2.39877e-08
2900.92	2.58284e-08
2909.6	-8.24998e-08
2918.28	-3.773e-07
2926.96	-3.3118e-07
2935.63	-3.0818e-07
2944.31	-2.11293e-07
2952.99	-2.70829e-07
2961.67	-5.43798e-07
2970.35	-3.83453e-07
2979.03	-3.10694e-07
2987.7	-2.47361e-07
2996.38	-3.12958e-07
3005.06	-4.46584e-07
3013.74	-4.73234e-07
3022.42	-4.21728e-07
3031.09	-5.08417e-07
3039.77	-6.31427e-07
3048.45	-5.23983e-07
3057.13	-5.44431e-07
3065.81	-5.79434e-07
3074.49	-4.74915e-07
3083.16	-4.75962e-07
3091.84	-4.70722e-07
3100.52	-5.762e-07
3109.2	-4.4101e-07
3117.88	-4.74757e-07
3126.55	-4.1737e-07
3135.23	-3.48929e-07
3143.91	-3.49309e-07
3152.59	-2.82823e-07
3161.27	-3.05937e-07
3169.95	-2.47867e-07
3178.62	-2.98347e-07
3187.3	-2.80938e-07
3195.98	-4.10477e-07
3204.66	-4.15784e-07
3213.34	-2.01478e-07
3222.01	-3.42215e-07
3230.69	-3.38601e-07
3239.37	-3.41438e-07
3248.05	-4.06024e-07
3256.73	-1.58592e-07
3265.4	-2.34285e-07
3274.08	-2.38696e-07
3282.76	-2.35844e-07
3291.44	-3.20989e-07
3300.12	-2.92266e-07
3308.8	-2.77999e-07
3317.47	-2.47783e-07
3326.15	-3.12194e-07
3334.83	-4.32505e-07
3343.51	-2.72402e-07
3352.19	-4.13036e-07
3360.86	-4.92902e-07
3369.54	-3.8206e-07
3378.22	-4.27625e-07
3386.9	-3.4763e-07
3395.58	-4.16774e-07
3404.26	-3.52468e-07
3412.93	-3.89936e-07
3421.61	-4.31549e-07
3430.29	-4.07355e-07
3438.97	-3.70595e-07
3447.65	-4.0327e-07
3456.32	-1.8812e-07
3465	-4.03547e-07
3473.68	-3.88028e-07
3482.36	-4.41774e-07
3491.04	-3.40349e-07
3499.72	-4.06553e-07
3508.39	-4.59747e-07
3517.07	-6.32219e-07
3525.75	-5.50168e-07
3534.43	-4.99659e-07
3543.11	-5.89656e-07
3551.78	-5.58637e-07
3560.46	-5.82532e-07
3569.14	-4.73169e-07
3577.82	-4.16261e-07
3586.5	-1.25033e-07
3595.18	-4.00696e-07
3603.85	-5.57024e-07
3612.53	-2.98742e-07
3621.21	-4.32267e-07
3629.89	-3.18888e-07
3638.57	-4.06888e-07
3647.24	-4.44119e-07
3655.92	-5.71982e-07
3664.6	-6.30938e-07
3673.28	-5.17104e-07
3681.96	-4.5801e-07
3690.64	-5.19227e-07
3699.31	-6.2504e-07
3707.99	-5.41961e-07
3716.67	-5.93993e-07
3725.35	-5.47074e-07
3734.03	-4.8832e-07
3742.7	-5.61953e-07
3751.38	-4.40832e-07
3760.06	-4.94523e-07
3768.74	-5.82515e-07
3777.42	-5.2349e-07
3786.1	-5.79745e-07
3794.77	-4.40565e-07
3803.45	-5.4075e-07
3812.13	-5.89767e-07
3820.81	-3.15872e-07
3829.49	-6.22442e-07
3838.16	-3.34483e-07
3846.84	-6.16716e-07
3855.52	-5.3848e-07
3864.2	-7.34394e-07
3872.88	-7.03714e-07
3881.56	-6.95478e-07
3890.23	-6.82973e-07
3898.91	-6.89118e-07
3907.59	-6.81882e-07
3916.27	-5.99124e-07
3924.95	-6.25365e-07
3933.62	-6.47501e-07
3942.3	-5.86837e-07
3950.98	-5.29522e-07
3959.66	-6.09382e-07
3968.34	-5.88172e-07
