Infrared Spectrum: Tetrachloroethene
Formula: C2 Cl4
CAS: 127-18-4
State: gas
Melting point: -19 C
Boiling point: 121 C
Class: IUPAC A
Instrument: IFS66V (Bruker)
Instrument parameters: KBr Beam Splitter; MCT Detector; Multipass cell
Sampling: 1 L/min Flow
Resolution: 1.9290
Temperature: 23 C
Pressure: 101.3 Pa
Origin: NIST, Analytical Chemistry Division, 301-975-3108
cm-1	(micromol/mol)-1m-1 (base 10)
575.652	1.22533e-06
584.33	-2.09925e-07
593.008	6.53913e-08
601.687	-1.49881e-07
610.365	-7.53297e-08
619.043	4.25601e-07
627.721	-2.68535e-07
636.399	-2.48573e-07
645.077	-4.38453e-07
653.756	4.96723e-08
662.434	-3.16792e-07
671.112	-1.5236e-07
679.79	3.98801e-07
688.468	9.8626e-07
697.146	3.94245e-07
705.825	-8.10029e-08
714.503	-4.72354e-07
723.181	-1.6843e-08
731.859	1.52788e-10
740.537	6.41216e-06
749.216	3.43127e-05
757.894	4.66437e-05
766.572	5.15777e-05
775.25	0.00030784
783.928	0.000338657
792.606	9.20093e-05
801.285	0.000206069
809.963	0.000126224
818.641	1.09286e-05
827.319	8.35171e-06
835.997	3.22213e-06
844.676	-1.94386e-08
853.354	2.62902e-07
862.032	1.15466e-07
870.71	4.13274e-07
879.388	1.24827e-06
888.066	1.11612e-05
896.745	6.08086e-05
905.423	0.000420481
914.101	0.00140962
922.779	0.00128284
931.457	8.3977e-05
940.135	1.61546e-06
948.814	-1.23267e-08
957.492	8.04499e-08
966.17	-3.93355e-08
974.848	1.11291e-07
983.526	9.18865e-07
992.205	1.15882e-06
1000.88	7.11845e-08
1009.56	3.42462e-07
1018.24	-1.50585e-07
1026.92	-2.03695e-07
1035.6	-2.87895e-07
1044.27	-1.70416e-07
1052.95	-2.8146e-07
1061.63	-3.82788e-08
1070.31	-1.89071e-07
1078.99	3.61947e-07
1087.66	2.47773e-06
1096.34	6.57034e-06
1105.02	5.27604e-06
1113.7	6.29168e-06
1122.38	1.06674e-05
1131.06	8.33789e-06
1139.73	5.67176e-06
1148.41	7.17326e-06
1157.09	4.5538e-06
1165.77	1.89381e-06
1174.45	2.22849e-06
1183.12	1.62371e-06
1191.8	2.18181e-07
1200.48	1.49415e-07
1209.16	6.54222e-08
1217.84	4.64016e-07
1226.52	1.0027e-06
1235.19	7.19342e-07
1243.87	6.31164e-07
1252.55	1.59837e-06
1261.23	2.02448e-06
1269.91	1.23471e-06
1278.58	2.30315e-07
1287.26	-4.82772e-08
1295.94	4.13496e-07
1304.62	3.0539e-07
1313.3	-2.35822e-07
1321.98	-3.47417e-07
1330.65	-2.69334e-07
1339.33	3.46857e-07
1348.01	2.026e-06
1356.69	6.09033e-06
1365.37	6.37542e-06
1374.04	2.26435e-06
1382.72	4.01839e-07
1391.4	2.92372e-07
1400.08	5.78228e-08
1408.76	-5.61367e-08
1417.44	-2.22581e-07
1426.11	-3.41082e-07
1434.79	-3.11425e-07
1443.47	-2.93474e-07
1452.15	-2.62074e-07
1460.83	-3.31647e-07
1469.5	-2.39846e-07
1478.18	-9.24438e-08
1486.86	-1.48717e-07
1495.54	-1.92665e-07
1504.22	-4.31967e-07
1512.9	-2.80924e-07
1521.57	-2.95644e-08
1530.25	-2.89465e-07
1538.93	3.01537e-07
1547.61	-9.65254e-08
1556.29	5.20187e-08
1564.96	2.04732e-07
1573.64	2.71429e-07
1582.32	1.68043e-07
1591	1.07961e-07
1599.68	-5.26572e-09
1608.36	-2.67895e-07
1617.03	5.87323e-08
1625.71	-3.3106e-07
1634.39	-3.13828e-07
1643.07	-3.25901e-07
1651.75	-1.47185e-07
1660.42	-4.36554e-07
1669.1	-1.33846e-07
1677.78	-3.46979e-07
1686.46	-4.0182e-07
1695.14	-1.97385e-07
1703.82	-3.43752e-07
1712.49	-3.44503e-07
1721.17	-2.66689e-07
1729.85	-1.73783e-07
1738.53	-1.43542e-07
1747.21	1.73006e-07
1755.88	1.82779e-07
1764.56	4.28205e-08
1773.24	8.52095e-07
1781.92	1.11421e-06
1790.6	4.80393e-07
1799.28	7.35121e-07
1807.95	2.40841e-07
1816.63	-6.54549e-07
1825.31	-7.28853e-07
1833.99	-8.87423e-07
1842.67	-7.39132e-07
1851.34	-4.1554e-07
1860.02	-2.18141e-08
1868.7	3.66872e-08
1877.38	3.53905e-07
1886.06	8.80604e-07
1894.74	7.52874e-07
1903.41	5.60108e-07
1912.09	8.03079e-07
1920.77	2.05365e-07
1929.45	-4.51136e-07
1938.13	-5.45343e-07
1946.8	-5.00048e-07
1955.48	-5.13948e-07
1964.16	-4.93193e-07
1972.84	-5.07077e-07
1981.52	-4.50341e-07
1990.19	-4.28527e-07
1998.87	-4.72905e-07
2007.55	-4.09705e-07
2016.23	-5.15085e-07
2024.91	-4.79849e-07
2033.59	-4.53908e-07
2042.26	-4.51935e-07
2050.94	-5.23641e-07
2059.62	-5.34855e-07
2068.3	-4.8862e-07
2076.98	-4.58088e-07
2085.65	-4.8999e-07
2094.33	-4.20042e-07
2103.01	-4.87091e-07
2111.69	-3.56544e-07
2120.37	-4.87898e-07
2129.05	-4.87345e-07
2137.72	-5.07602e-07
2146.4	-4.28318e-07
2155.08	-3.89288e-07
2163.76	-4.94382e-07
2172.44	-3.02203e-07
2181.11	-2.51294e-07
2189.79	2.00732e-07
2198.47	6.95824e-07
2207.15	1.29349e-06
2215.83	1.22835e-06
2224.51	6.83033e-08
2233.18	1.80584e-06
2241.86	1.6281e-06
2250.54	2.34391e-07
2259.22	-4.00644e-07
2267.9	-4.05575e-07
2276.57	-5.47314e-07
2285.25	-4.72907e-07
2293.93	-5.14105e-07
2302.61	-3.61032e-07
2311.29	-1.43771e-07
2319.97	-3.69566e-07
2328.64	6.80953e-07
2337.32	6.49196e-07
2346	2.7118e-07
2354.68	7.66395e-07
2363.36	1.54318e-06
2372.03	6.35638e-07
2380.71	-2.31924e-07
2389.39	-4.10246e-07
2398.07	-4.68634e-07
2406.75	-4.94784e-07
2415.43	-5.50052e-07
2424.1	-4.75801e-07
2432.78	-4.39448e-07
2441.46	-4.51053e-07
2450.14	-4.27667e-07
2458.82	-3.65413e-07
2467.49	-2.66844e-07
2476.17	2.44986e-07
2484.85	9.95313e-07
2493.53	1.68409e-06
2502.21	1.02775e-06
2510.89	-2.87594e-07
2519.56	-4.92163e-07
2528.24	-5.38203e-07
2536.92	-5.30104e-07
2545.6	-5.11269e-07
2554.28	-5.41636e-07
2562.95	-5.02729e-07
2571.63	-4.80663e-07
2580.31	-4.19207e-07
2588.99	-4.47493e-07
2597.67	-5.0692e-07
2606.35	-4.67244e-07
2615.02	-5.2378e-07
2623.7	-5.33618e-07
2632.38	-4.76061e-07
2641.06	-6.09248e-07
2649.74	-5.60861e-07
2658.41	-5.46134e-07
2667.09	-5.01165e-07
2675.77	-5.60028e-07
2684.45	-4.97513e-07
2693.13	-6.08986e-07
2701.81	-5.13012e-07
2710.48	-6.49995e-07
2719.16	-5.22434e-07
2727.84	-4.89386e-07
2736.52	-3.68977e-07
2745.2	-3.47366e-07
2753.87	-3.56901e-07
2762.55	-4.38726e-07
2771.23	-4.03661e-07
2779.91	-4.05602e-07
2788.59	-3.2575e-07
2797.27	-4.42309e-07
2805.94	-4.47697e-07
2814.62	-5.20573e-07
2823.3	-4.68756e-07
2831.98	-5.61007e-07
2840.66	-4.72092e-07
2849.33	-5.14814e-07
2858.01	-3.21725e-07
2866.69	-2.81182e-07
2875.37	-2.00961e-07
2884.05	-1.65429e-07
2892.73	-6.67464e-08
2901.4	-3.72693e-09
2910.08	-3.63234e-09
2918.76	-2.88929e-07
2927.44	-3.44991e-07
2936.12	-3.0876e-07
2944.79	-2.01907e-07
2953.47	-3.29312e-07
2962.15	-3.2782e-07
2970.83	-3.52814e-07
2979.51	-2.83008e-07
2988.19	-2.53744e-07
2996.86	-3.33521e-07
3005.54	-4.71033e-07
3014.22	-4.78594e-07
3022.9	-5.00649e-07
3031.58	-5.59181e-07
3040.25	-5.95704e-07
3048.93	-4.70995e-07
3057.61	-6.17602e-07
3066.29	-5.28674e-07
3074.97	-4.87098e-07
3083.65	-4.49301e-07
3092.32	-4.91962e-07
3101	-4.67852e-07
3109.68	-4.58723e-07
3118.36	-3.70652e-07
3127.04	-4.05209e-07
3135.71	-3.03573e-07
3144.39	-2.61974e-07
3153.07	-2.61232e-07
3161.75	-3.47073e-07
3170.43	-3.13698e-07
3179.11	-3.93697e-07
3187.78	-3.58482e-07
3196.46	-4.84917e-07
3205.14	-4.51833e-07
3213.82	-2.99511e-07
3222.5	-2.89918e-07
3231.17	-3.36999e-07
3239.85	-4.12499e-07
3248.53	-2.96444e-07
3257.21	-2.12508e-07
3265.89	-2.70985e-07
3274.57	-2.4157e-07
3283.24	-2.96692e-07
3291.92	-3.61135e-07
3300.6	-3.61657e-07
3309.28	-2.78304e-07
3317.96	-3.39305e-07
3326.63	-2.90406e-07
3335.31	-4.24228e-07
3343.99	-1.57051e-07
3352.67	-3.88955e-07
3361.35	-3.68073e-07
3370.03	-3.68222e-07
3378.7	-3.90716e-07
3387.38	-4.41802e-07
3396.06	-3.40072e-07
3404.74	-3.99198e-07
3413.42	-3.66505e-07
3422.09	-4.80803e-07
3430.77	-3.63918e-07
3439.45	-4.96365e-07
3448.13	-3.76898e-07
3456.81	-3.52381e-07
3465.49	-4.49286e-07
3474.16	-5.1275e-07
3482.84	-3.62943e-07
3491.52	-3.93304e-07
3500.2	-3.88344e-07
3508.88	-5.51083e-07
3517.55	-5.48829e-07
3526.23	-5.86151e-07
3534.91	-4.12061e-07
3543.59	-4.74853e-07
3552.27	-5.73999e-07
3560.95	-5.06731e-07
3569.62	-4.27005e-07
3578.3	-3.36848e-07
3586.98	-2.82321e-07
3595.66	-3.43763e-07
3604.34	-4.65002e-07
3613.01	-4.43917e-07
3621.69	-4.32049e-07
3630.37	-4.10897e-07
3639.05	-3.39794e-07
3647.73	-5.16424e-07
3656.41	-4.10589e-07
3665.08	-6.80983e-07
3673.76	-5.10962e-07
3682.44	-4.53512e-07
3691.12	-4.23034e-07
3699.8	-5.87343e-07
3708.47	-4.20561e-07
3717.15	-5.53822e-07
3725.83	-4.7462e-07
3734.51	-3.35325e-07
3743.19	-5.66335e-07
3751.87	-1.26152e-07
3760.54	-5.6447e-07
3769.22	-5.5286e-07
3777.9	-5.51338e-07
3786.58	-6.00937e-07
3795.26	-5.31706e-07
3803.93	-5.30979e-07
3812.61	-5.96848e-07
3821.29	-3.72367e-07
3829.97	-5.24342e-07
3838.65	-5.30819e-07
3847.33	-5.6771e-07
3856	-6.47585e-07
3864.68	-5.70603e-07
3873.36	-7.41998e-07
3882.04	-6.83848e-07
3890.72	-6.46868e-07
3899.39	-5.7158e-07
3908.07	-7.77476e-07
3916.75	-6.00337e-07
3925.43	-6.39363e-07
3934.11	-6.64477e-07
3942.79	-6.03444e-07
3951.46	-5.85622e-07
3960.14	-5.98853e-07
3968.82	-6.68304e-07
